22
Coordinates from ORCA-job C6H6+AlCl4-+NH2--N2+-scan
  N   7.05346526742387     -0.47663871726801     -5.63080888173547
  N   8.09273501664225     -0.82297034856544     -5.64413274288102
  N   2.46989510047555      0.38899838276617     -3.38526039865532
  H   1.86317935030148     -0.42878760135613     -3.49162886713183
  H   3.39158940073144      0.12036855706672     -3.73491887854950
  C   1.35771482945972     -1.30152614574931     -6.49078168601177
  C   0.14714704133050     -0.80496387341059     -6.00712683422942
  C   -0.40435627895148     -1.32884303705807     -4.83776031567415
  C   0.25650385740606     -2.34861152297204     -4.14987940131561
  C   1.46828516400326     -2.84663228693053     -4.63493028454272
  C   2.01784410381811     -2.32279026188552     -5.80605937952736
  H   1.78462670233022     -0.89532049228790     -7.40120078811336
  H   -0.36479385019591     -0.01123989715322     -6.53961484121996
  H   -1.34687322889697     -0.94489531519211     -4.46316248527801
  H   -0.17013162927581     -2.75928650638965     -3.24155162713144
  H   1.97971709489924     -3.63787522591103     -4.09889950184859
  H   2.95687684225850     -2.71174679394867     -6.18416597178643
  Al  3.93103893409341     -1.39889863734540     -0.79692860885348
  Cl  4.52745063536169     -0.57587358522285      1.04788620666996
  Cl  5.37226127836784     -1.57414529112897     -2.34346023159241
  Cl  2.45136758728026     -2.90699021187822     -0.77054024204934
  Cl  2.70905678113672      0.54806881182082     -1.62867423854302
