22
Coordinates from ORCA-job C6H6+AlCl4-+NH2--N2+-scan
  N   7.30008037376606     -0.63736819520762     -5.62714853186486
  N   8.27896566752653     -0.99343673854688     -5.28765233690088
  N   2.40455267926053      0.40844204312571     -3.40393372157530
  H   1.81648453513493     -0.42304090555021     -3.50864357255770
  H   3.32766676732357      0.16289378086446     -3.76694540483211
  C   1.29194539302320     -1.25553412974264     -6.48085295482135
  C   0.07456339496447     -0.80392962513924     -5.97083241951278
  C   -0.44886212470914     -1.37204120141492     -4.80918607121753
  C   0.24690554919481     -2.39099399546502     -4.15537579910926
  C   1.46537797119930     -2.84409518735473     -4.66684637401158
  C   1.98687315916332     -2.27612884568962     -5.83026225580593
  H   1.69711660155148     -0.81498517929822     -7.38520756036235
  H   -0.46433173158675     -0.01064059808922     -6.47667982025743
  H   -1.39661120029411     -1.02303179402302     -4.41416984942470
  H   -0.15786150467908     -2.83565199884559     -3.25307696381929
  H   2.00407731561033     -3.63466270244042     -4.15721891490030
  H   2.93117025151011     -2.63021175607006     -6.22899655063415
  Al  3.98044404713861     -1.34640045960784     -0.86493498004904
  Cl  4.57516536998535     -0.52616958549510      0.98132090678236
  Cl  5.39907048836070     -1.43382571896093     -2.44060018823909
  Cl  2.56873845097820     -2.91786124269624     -0.83771065117260
  Cl  2.66306854557750      0.55807403564739     -1.64864598571438
