22
Coordinates from ORCA-job C6H6+AlCl4-+NH2--N2+-scan
  N   6.49842002657166     -2.89431524928619     -6.04881557536496
  N   7.47148671480499     -3.21135364967349     -5.65798693919713
  N   1.68207040946614      0.61263727971735     -2.96309639785002
  H   1.45254843405718     -0.33310968047854     -3.28147086905672
  H   2.61813309095771      0.82477866079443     -3.31446291489902
  C   1.43376554162908     -0.81995307829260     -6.42558218985561
  C   0.14133245518565     -0.82732629378476     -5.90046136273998
  C   -0.18836383038986     -1.71024582139770     -4.87110402324629
  C   0.77726617579584     -2.58236959689146     -4.36387643181489
  C   2.07102455078667     -2.57431637805586     -4.89072553797924
  C   2.39849741779992     -1.69431955965572     -5.92263011863635
  H   1.68770766275548     -0.13696686234332     -7.22890277837190
  H   -0.60756139302146     -0.14818249059974     -6.29234183317504
  H   -1.19450074646237     -1.71991557932402     -4.46636219741771
  H   0.52423455505845     -3.27144669457053     -3.56567968068049
  H   2.81937971290844     -3.25133172664179     -4.49552332902259
  H   3.40166427745231     -1.69566962942677     -6.33429277611275
  Al  3.93368023089793     -0.87388085614084     -0.78627881801158
  Cl  4.24849636763456     -0.27452268908387      1.20779978794673
  Cl  5.16906284770698     -0.05086329100487     -2.30261795094778
  Cl  3.28901897637092     -2.85674758391835     -1.12363999249076
  Cl  1.91723652203373      0.44882077005867     -1.20554807107612
