22
Coordinates from ORCA-job C6H6+AlCl4-+NH2--N2+-scan
  N   7.05392576910405     -0.52882877755068     -5.63853275344513
  N   8.05753779522292     -0.89046951510332     -5.38890590726115
  N   2.46067441053029      0.38768072530932     -3.40990186405350
  H   1.85507315242229     -0.43107127024637     -3.51322272980825
  H   3.38184100976042      0.12045878429205     -3.76252644409603
  C   1.34765457530039     -1.27919070428622     -6.47680023698876
  C   0.13440732042573     -0.79491403773110     -5.98731162964817
  C   -0.41844837215935     -1.34141641515152     -4.82893854240757
  C   0.24372219673536     -2.37146378637173     -4.15787273625332
  C   1.45801566031988     -2.85728964552437     -4.64876289397422
  C   2.00896171398711     -2.31090118492720     -5.80893257486951
  H   1.77584493207510     -0.85522210172782     -7.37846515467474
  H   -0.37826938120292      0.00712379726057     -6.50643748349535
  H   -1.36294541888407     -0.96689553020029     -4.44981945012004
  H   -0.18397188083025     -2.79925059976822     -3.25799455229224
  H   1.97072943150153     -3.65630142749073     -4.12568094507697
  H   2.95013018644579     -2.69013677492610     -6.19157894413417
  Al  3.97596377080933     -1.37181847623527     -0.83935307015499
  Cl  4.57359023058355     -0.54584187644760      1.00312065375299
  Cl  5.40087212972400     -1.49724607150005     -2.40625030117949
  Cl  2.53669421677848     -2.91787857952318     -0.80534934719319
  Cl  2.70259655135034      0.55027346784986     -1.65408309262643
