22
Coordinates from ORCA-job C6H6+AlCl4-+NH2--N2+-scan
  N   6.16141120373720     -2.62365418411970     -5.58834852201573
  N   7.09069451963796     -2.92079887420927     -5.09020934806935
  N   1.84989804449730      0.56389639913076     -3.05969405947173
  H   1.56897132379219     -0.37714849024940     -3.34908512355437
  H   2.78843997392541      0.72084543185184     -3.43229467372116
  C   1.37799675996503     -0.80108978123093     -6.44007232834206
  C   0.08169056227059     -0.85275439192931     -5.92681137144727
  C   -0.22937202305086     -1.75195249357144     -4.90640782717987
  C   0.75777221518586     -2.59822239477754     -4.39700701442073
  C   2.05525250980302     -2.54672080957009     -4.91212404667205
  C   2.36498377801188     -1.64842299966994     -5.93438515291553
  H   1.61771196086516     -0.10423166177851     -7.23579657931027
  H   -0.68435905056506     -0.19433246757845     -6.32084648256594
  H   -1.23781571595174     -1.79464529902083     -4.50979151449537
  H   0.51950790492596     -3.29980781944348     -3.60516019844155
  H   2.82061239561478     -3.20334325825281     -4.51502725384507
  H   3.37247750885308     -1.61450737371965     -6.33344591587841
  Al  4.06949250057262     -0.95802284201997     -0.87869322328282
  Cl  4.42585107416290     -0.34344337928143      1.10383756067000
  Cl  5.32467722535316     -0.20964156406112     -2.41708019081472
  Cl  3.34386580176986     -2.91811161770547     -1.18283306401699
  Cl  2.10483952662365      0.43550987120679     -1.30232367020922
