22
Coordinates from ORCA-job C6H6+AlCl4-+NH2--N2+-scan
  N   6.37025943737288     -2.70933234075406     -6.44459295917357
  N   7.39593821942455     -3.07354053896977     -6.32073760570931
  N   1.67700381809855      0.62242747439678     -2.95753674792399
  H   1.43106073393067     -0.32163735522852     -3.26875931213558
  H   2.62640906876578      0.80593849366331     -3.28846769426701
  C   1.57862000685730     -0.90643003528223     -6.39318550162504
  C   0.25644310403700     -0.85535057447328     -5.95113066597291
  C   -0.16297330306259     -1.68323348964436     -4.90876325705671
  C   0.74249695860758     -2.55924727390985     -4.30611180396942
  C   2.06637687639400     -2.60945674884772     -4.74973654534809
  C   2.48397834053416     -1.78373135909412     -5.79404911341217
  H   1.90225329442629     -0.26607576447267     -7.20652426033744
  H   -0.44595154776053     -0.17361002905559     -6.41756536753371
  H   -1.19179834516649     -1.64691689981885     -4.56752431983716
  H   0.41936874108610     -3.20637446005566     -3.49805136524930
  H   2.76730647884284     -3.28919453257968     -4.27933973590822
  H   3.51024765372859     -1.82793754652191     -6.14035370580316
  Al  3.84084716815872     -0.86651560472955     -0.68358840534684
  Cl  4.12345895360487     -0.20210362241931      1.29488506323316
  Cl  5.12594392514542     -0.12174837052075     -2.19894831524507
  Cl  3.16504509983860     -2.84829578408019     -0.96097046758614
  Cl  1.86226531713567      0.48176636239802     -1.19254791379252
