22
Coordinates from ORCA-job C6H6+AlCl4-+NH2--N2+-scan
  N   7.35112462436028     -0.81185133099785     -5.61813008494842
  N   8.30584899461685     -1.13594136363713     -5.18950416101390
  N   2.35001734590463      0.43292878705383     -3.38251875053882
  H   1.78468946338544     -0.41280608758301     -3.49761010215742
  H   3.27903419699317      0.21779973598980     -3.75015963383066
  C   1.27233135648714     -1.22040830695531     -6.48247264578419
  C   0.04490020194325     -0.81064716951746     -5.96131950680594
  C   -0.45602219519553     -1.40783067014704     -4.80436359511499
  C   0.27224214354769     -2.41410468011885     -4.16645388280459
  C   1.50081236507435     -2.82525862557861     -4.68909803357414
  C   1.99988623810151     -2.22813538148918     -5.84773579342228
  H   1.66003079509431     -0.75730398642332     -7.38320928610891
  H   -0.51933203307629     -0.02729974955148     -6.45488729239484
  H   -1.41150847370894     -1.09136192759444     -4.40066721913177
  H   -0.11513055759835     -2.88144755322031     -3.26797606787877
  H   2.06478222021552     -3.60602060296212     -4.19181786845551
  H   2.95223768152999     -2.54944256908973     -6.25494887433911
  Al  3.99267143354985     -1.31265071699635     -0.88367769396368
  Cl  4.60547455175434     -0.49931054124428      0.95927242961207
  Cl  5.37375007028333     -1.33717987735656     -2.49440888473071
  Cl  2.62805335459957     -2.92483313589164     -0.84625553801970
  Cl  2.60870622213781      0.56250575331106     -1.62565751459394
