22
Coordinates from ORCA-job C6H6+AlCl4-+NH2--N2+-scan
  N   7.46090483886913     -0.91853537259659     -5.61804407411857
  N   8.39838583919121     -1.19913074915668     -5.12543880252374
  N   2.31427394897456      0.44635423431195     -3.37435822886262
  H   1.76160981881895     -0.40714725108055     -3.49347285637282
  H   3.24451233563537      0.24929787161396     -3.74886125188037
  C   1.24631322457665     -1.20085478191538     -6.48165613756962
  C   0.01497693484022     -0.81562342820062     -5.95107064021297
  C   -0.46952669253332     -1.42941044960710     -4.79580910050266
  C   0.27905780221438     -2.42774845105618     -4.16903811265427
  C   1.51154042510730     -2.81433449658943     -4.70113393982874
  C   1.99421111446075     -2.20062295907498     -5.85806093565756
  H   1.62121684607377     -0.72490906090789     -7.38111944302881
  H   -0.56508574938049     -0.03847313967260     -6.43601303811090
  H   -1.42803404853458     -1.13206009590072     -4.38480618713469
  H   -0.09552225711934     -2.90801519865095     -3.27195193178190
  H   2.09127889020918     -3.58899959734380     -4.21253526885376
  H   2.94962482020294     -2.50291869594303     -6.27260232487699
  Al  3.99786987833791     -1.29411201045041     -0.89992998070545
  Cl  4.60868618344329     -0.48625274250669      0.94611117001393
  Cl  5.37020342162716     -1.28659105770093     -2.51867323415492
  Cl  2.65714213615085     -2.92624867978660     -0.86717350925556
  Cl  2.58096028883406      0.56573611221526     -1.61796217192724
