13
Coordinates from ORCA-job Ph-N2+-B3LYPG-aug-cc-pVDZ-scan-d09-49-n400
  C   -1.88828119295501      0.08874930340313     -1.08106788229577
  C   -0.52153830326531      0.01298216152067     -0.97172975834710
  C   0.20944011281307      0.82338352141293      0.02054637589431
  C   -0.61995802118418      1.69981442262272      0.86886608281341
  C   -1.98477583192206      1.74258189289005      0.72350999642189
  C   -2.62581795637188      0.94575455722642     -0.24321218988925
  H   -2.39743344620655     -0.52347313903541     -1.82533066627528
  H   0.08624969913264     -0.63832191205671     -1.60140757644658
  N   1.16440949077472      0.78082541441816      0.11060769516072
  N   2.30805815525963      0.73019733422263      0.21813748697829
  H   -3.71070864647573      0.99270245453080     -0.34424939576071
  H   -2.56810081466116      2.40164959757075      1.36642660267165
  H   -0.08524324493818      2.30085439127387      1.60570322907444
