13
XYZ file generated by orca_plot on BaseName=Ph-N2+-B3LYPG-aug-cc-pVDZ-scan-d09-49-n400
  C      -1.906649      0.089458     -1.082844
  C      -0.532163      0.015805     -0.969778
  C       0.133557      0.825753      0.014319
  C      -0.630289      1.697560      0.865279
  C      -2.003154      1.743435      0.721892
  C      -2.640912      0.946331     -0.244548
  H      -2.417042     -0.521425     -1.826389
  H       0.065233     -0.638408     -1.604556
  N       1.298056      0.774940      0.123146
  N       2.419271      0.726066      0.227860
  H      -3.725623      0.993480     -0.345760
  H      -2.587606      2.401842      1.363340
  H      -0.106382      2.302862      1.604840
