Coordinates from ORCA-job 3-NO2-C6H3-N2-v1-B3LYPG-aug-cc-pVDZ-scan-d09-49-n400
 OpenBabel11091809163D

 14 13  0  0  0  0  0  0  0  0999 V2000
   -2.0427    0.1252   -1.1780 C   0  0  0  0  0  0  0  0  0  0  0  0
   -0.7544   -0.0942   -0.6834 C   0  0  0  0  0  0  0  0  0  0  0  0
   -0.2294    0.6151    0.2096 C   0  0  0  0  0  0  0  0  0  0  0  0
   -0.7093    1.7028    0.8964 C   0  0  0  0  0  0  0  0  0  0  0  0
   -2.0195    1.9730    0.4341 C   0  0  0  0  0  0  0  0  0  0  0  0
   -2.6751    1.2224   -0.5642 C   0  0  0  0  0  0  0  0  0  0  0  0
   -2.5383   -0.4618   -1.9496 H   0  0  0  0  0  0  0  0  0  0  0  0
   -0.2270    2.2968    1.6669 H   0  0  0  0  0  0  0  0  0  0  0  0
    1.9478    0.3149    1.1062 N   0  0  0  0  0  0  0  0  0  0  0  0
    2.7741   -0.3969    0.9268 N   0  0  0  0  0  0  0  0  0  0  0  0
   -3.6843    1.5110   -0.8506 H   0  0  0  0  0  0  0  0  0  0  0  0
   -2.7350    3.1151    1.0426 N   0  0  0  0  0  0  0  0  0  0  0  0
   -3.8722    3.3590    0.6487 O   0  0  0  0  0  0  0  0  0  0  0  0
   -2.1460    3.7558    1.9099 O   0  0  0  0  0  0  0  0  0  0  0  0
  1  2  2  0  0  0  0
  1  6  1  0  0  0  0
  2  3  1  0  0  0  0
  3  4  2  0  0  0  0
  4  8  1  0  0  0  0
  5  4  1  0  0  0  0
  5 12  1  0  0  0  0
  6  5  2  0  0  0  0
  7  1  1  0  0  0  0
 10  9  3  0  0  0  0
 11  6  1  0  0  0  0
 12 14  2  0  0  0  0
 13 12  2  0  0  0  0
M  RAD  2   2   2   3   2
M  END
