Coordinates from ORCA-job 3-NO2-C6H3-N2-v1-B3LYPG-aug-cc-pVDZ-scan-d09-49-n400
 OpenBabel11091809163D

 14 13  0  0  0  0  0  0  0  0999 V2000
   -1.9533    0.1214   -1.1341 C   0  0  0  0  0  0  0  0  0  0  0  0
   -0.6564   -0.1128   -0.6477 C   0  0  0  0  0  0  0  0  0  0  0  0
   -0.1846    0.6409    0.2561 C   0  0  0  0  0  0  0  0  0  0  0  0
   -0.6914    1.7254    0.9266 C   0  0  0  0  0  0  0  0  0  0  0  0
   -1.9956    1.9791    0.4534 C   0  0  0  0  0  0  0  0  0  0  0  0
   -2.6216    1.2082   -0.5474 C   0  0  0  0  0  0  0  0  0  0  0  0
   -2.4357   -0.4759   -1.9080 H   0  0  0  0  0  0  0  0  0  0  0  0
   -0.2173    2.3253    1.6987 H   0  0  0  0  0  0  0  0  0  0  0  0
    1.6912    0.3112    0.9668 N   0  0  0  0  0  0  0  0  0  0  0  0
    2.5372   -0.3863    0.8084 N   0  0  0  0  0  0  0  0  0  0  0  0
   -3.6313    1.4748   -0.8530 H   0  0  0  0  0  0  0  0  0  0  0  0
   -2.7303    3.1138    1.0465 N   0  0  0  0  0  0  0  0  0  0  0  0
   -3.8645    3.3425    0.6354 O   0  0  0  0  0  0  0  0  0  0  0  0
   -2.1576    3.7703    1.9136 O   0  0  0  0  0  0  0  0  0  0  0  0
  1  2  2  0  0  0  0
  1  6  1  0  0  0  0
  2  3  1  0  0  0  0
  3  4  2  0  0  0  0
  4  8  1  0  0  0  0
  5  4  1  0  0  0  0
  5 12  1  0  0  0  0
  6  5  2  0  0  0  0
  7  1  1  0  0  0  0
 10  9  3  0  0  0  0
 11  6  1  0  0  0  0
 12 14  2  0  0  0  0
 13 12  2  0  0  0  0
M  RAD  2   2   2   3   2
M  END
