Coordinates from ORCA-job 3-NO2-C6H3-N2-v1-B3LYPG-aug-cc-pVDZ-scan-d09-49-n400
 OpenBabel11091809163D

 14 13  0  0  0  0  0  0  0  0999 V2000
   -2.9304    0.2661   -1.5268 C   0  0  0  0  0  0  0  0  0  0  0  0
   -1.6858   -0.3349   -1.3852 C   0  0  0  0  0  0  0  0  0  0  0  0
   -0.7630   -0.0022   -0.6071 C   0  0  0  0  0  0  0  0  0  0  0  0
   -0.7595    1.0415    0.2975 C   0  0  0  0  0  0  0  0  0  0  0  0
   -2.0012    1.7182    0.2230 C   0  0  0  0  0  0  0  0  0  0  0  0
   -3.0526    1.3591   -0.6464 C   0  0  0  0  0  0  0  0  0  0  0  0
   -3.7278   -0.0285   -2.2054 H   0  0  0  0  0  0  0  0  0  0  0  0
    0.0237    1.3513    0.9817 H   0  0  0  0  0  0  0  0  0  0  0  0
    2.8433    1.1938    2.3422 N   0  0  0  0  0  0  0  0  0  0  0  0
    3.8650    0.9969    2.7116 N   0  0  0  0  0  0  0  0  0  0  0  0
   -3.9678    1.9467   -0.6245 H   0  0  0  0  0  0  0  0  0  0  0  0
   -2.2017    2.8784    1.1199 N   0  0  0  0  0  0  0  0  0  0  0  0
   -3.2753    3.4722    1.0634 O   0  0  0  0  0  0  0  0  0  0  0  0
   -1.2783    3.1795    1.8715 O   0  0  0  0  0  0  0  0  0  0  0  0
  1  2  2  0  0  0  0
  1  6  1  0  0  0  0
  2  3  1  0  0  0  0
  3  4  2  0  0  0  0
  4  8  1  0  0  0  0
  5  4  1  0  0  0  0
  5 12  1  0  0  0  0
  6 11  1  0  0  0  0
  6  5  2  0  0  0  0
  7  1  1  0  0  0  0
  9 10  3  0  0  0  0
 12 14  2  0  0  0  0
 13 12  2  0  0  0  0
M  RAD  2   2   2   3   2
M  END
