Coordinates from ORCA-job 3-NO2-C6H3-N2-v1-B3LYPG-aug-cc-pVDZ-scan-d09-49-n400
 OpenBabel11091809163D

 14 13  0  0  0  0  0  0  0  0999 V2000
   -2.2243    0.1407   -1.2609 C   0  0  0  0  0  0  0  0  0  0  0  0
   -0.9375   -0.1166   -0.7996 C   0  0  0  0  0  0  0  0  0  0  0  0
   -0.3180    0.5214    0.0818 C   0  0  0  0  0  0  0  0  0  0  0  0
   -0.7442    1.6168    0.8035 C   0  0  0  0  0  0  0  0  0  0  0  0
   -2.0577    1.9490    0.3928 C   0  0  0  0  0  0  0  0  0  0  0  0
   -2.7817    1.2507   -0.5965 C   0  0  0  0  0  0  0  0  0  0  0  0
   -2.7660   -0.4108   -2.0263 H   0  0  0  0  0  0  0  0  0  0  0  0
   -0.2150    2.1760    1.5688 H   0  0  0  0  0  0  0  0  0  0  0  0
    2.3479    0.4052    1.3974 N   0  0  0  0  0  0  0  0  0  0  0  0
    3.1872   -0.2937    1.2347 N   0  0  0  0  0  0  0  0  0  0  0  0
   -3.7872    1.5882   -0.8389 H   0  0  0  0  0  0  0  0  0  0  0  0
   -2.7061    3.1057    1.0494 N   0  0  0  0  0  0  0  0  0  0  0  0
   -3.8457    3.4026    0.7009 O   0  0  0  0  0  0  0  0  0  0  0  0
   -2.0629    3.7031    1.9084 O   0  0  0  0  0  0  0  0  0  0  0  0
  1  2  2  0  0  0  0
  1  6  1  0  0  0  0
  2  3  1  0  0  0  0
  3  4  2  0  0  0  0
  4  8  1  0  0  0  0
  5  4  1  0  0  0  0
  5 12  1  0  0  0  0
  6  5  2  0  0  0  0
  7  1  1  0  0  0  0
 10  9  3  0  0  0  0
 11  6  1  0  0  0  0
 12 14  2  0  0  0  0
 13 12  2  0  0  0  0
M  RAD  2   2   2   3   2
M  END
