Coordinates from ORCA-job 3-NO2-C6H3-N2-v1-B3LYPG-aug-cc-pVDZ-scan-d09-49-n400
 OpenBabel11091809163D

 14 13  0  0  0  0  0  0  0  0999 V2000
   -2.6343    0.1923   -1.4341 C   0  0  0  0  0  0  0  0  0  0  0  0
   -1.3507   -0.2457   -1.1305 C   0  0  0  0  0  0  0  0  0  0  0  0
   -0.5635    0.2432   -0.2885 C   0  0  0  0  0  0  0  0  0  0  0  0
   -0.7738    1.3286    0.5394 C   0  0  0  0  0  0  0  0  0  0  0  0
   -2.0704    1.8433    0.2953 C   0  0  0  0  0  0  0  0  0  0  0  0
   -2.9746    1.3102   -0.6473 C   0  0  0  0  0  0  0  0  0  0  0  0
   -3.3162   -0.2344   -2.1663 H   0  0  0  0  0  0  0  0  0  0  0  0
   -0.1070    1.7684    1.2748 H   0  0  0  0  0  0  0  0  0  0  0  0
    2.8412    0.8117    2.0119 N   0  0  0  0  0  0  0  0  0  0  0  0
    3.8029    0.2706    2.0476 N   0  0  0  0  0  0  0  0  0  0  0  0
   -3.9485    1.7824   -0.7565 H   0  0  0  0  0  0  0  0  0  0  0  0
   -2.4976    3.0192    1.0862 N   0  0  0  0  0  0  0  0  0  0  0  0
   -3.6194    3.4752    0.8816 O   0  0  0  0  0  0  0  0  0  0  0  0
   -1.6995    3.4734    1.9016 O   0  0  0  0  0  0  0  0  0  0  0  0
  1  2  2  0  0  0  0
  1  6  1  0  0  0  0
  2  3  1  0  0  0  0
  3  4  2  0  0  0  0
  4  8  1  0  0  0  0
  5  4  1  0  0  0  0
  5 12  1  0  0  0  0
  6  5  2  0  0  0  0
  7  1  1  0  0  0  0
  9 10  3  0  0  0  0
 11  6  1  0  0  0  0
 12 14  2  0  0  0  0
 13 12  2  0  0  0  0
M  RAD  2   2   2   3   2
M  END
