Coordinates from ORCA-job 3-NO2-C6H3-N2-v1-B3LYPG-aug-cc-pVDZ-scan-d09-49-n400
 OpenBabel11091809163D

 14 13  0  0  0  0  0  0  0  0999 V2000
   -1.9795    0.1218   -1.1474 C   0  0  0  0  0  0  0  0  0  0  0  0
   -0.6870   -0.1008   -0.6531 C   0  0  0  0  0  0  0  0  0  0  0  0
   -0.1970    0.6367    0.2456 C   0  0  0  0  0  0  0  0  0  0  0  0
   -0.6966    1.7224    0.9200 C   0  0  0  0  0  0  0  0  0  0  0  0
   -2.0028    1.9784    0.4474 C   0  0  0  0  0  0  0  0  0  0  0  0
   -2.6370    1.2124   -0.5527 C   0  0  0  0  0  0  0  0  0  0  0  0
   -2.4637   -0.4740   -1.9205 H   0  0  0  0  0  0  0  0  0  0  0  0
   -0.2215    2.3218    1.6914 H   0  0  0  0  0  0  0  0  0  0  0  0
    1.7777    0.3095    1.0114 N   0  0  0  0  0  0  0  0  0  0  0  0
    2.6063   -0.4022    0.8330 N   0  0  0  0  0  0  0  0  0  0  0  0
   -3.6465    1.4852   -0.8531 H   0  0  0  0  0  0  0  0  0  0  0  0
   -2.7340    3.1154    1.0431 N   0  0  0  0  0  0  0  0  0  0  0  0
   -3.8702    3.3450    0.6378 O   0  0  0  0  0  0  0  0  0  0  0  0
   -2.1595    3.7667    1.9125 O   0  0  0  0  0  0  0  0  0  0  0  0
  1  2  2  0  0  0  0
  1  6  1  0  0  0  0
  2  3  1  0  0  0  0
  3  4  2  0  0  0  0
  4  8  1  0  0  0  0
  5  4  1  0  0  0  0
  5 12  1  0  0  0  0
  6  5  2  0  0  0  0
  7  1  1  0  0  0  0
 10  9  3  0  0  0  0
 11  6  1  0  0  0  0
 12 14  2  0  0  0  0
 13 12  2  0  0  0  0
M  RAD  2   2   2   3   2
M  END
