Coordinates from ORCA-job 3-NO2-C6H3-N2-v1-B3LYPG-aug-cc-pVDZ-scan-d09-49-n400
 OpenBabel11091809163D

 14 13  0  0  0  0  0  0  0  0999 V2000
   -2.3027    0.1484   -1.2963 C   0  0  0  0  0  0  0  0  0  0  0  0
   -1.0142   -0.1374   -0.8592 C   0  0  0  0  0  0  0  0  0  0  0  0
   -0.3630    0.4748    0.0175 C   0  0  0  0  0  0  0  0  0  0  0  0
   -0.7558    1.5709    0.7584 C   0  0  0  0  0  0  0  0  0  0  0  0
   -2.0696    1.9339    0.3747 C   0  0  0  0  0  0  0  0  0  0  0  0
   -2.8250    1.2618   -0.6092 C   0  0  0  0  0  0  0  0  0  0  0  0
   -2.8685   -0.3836   -2.0580 H   0  0  0  0  0  0  0  0  0  0  0  0
   -0.2035    2.1116    1.5206 H   0  0  0  0  0  0  0  0  0  0  0  0
    2.5028    0.4764    1.5415 N   0  0  0  0  0  0  0  0  0  0  0  0
    3.3321   -0.2310    1.3651 N   0  0  0  0  0  0  0  0  0  0  0  0
   -3.8276    1.6222   -0.8297 H   0  0  0  0  0  0  0  0  0  0  0  0
   -2.6832    3.0958    1.0555 N   0  0  0  0  0  0  0  0  0  0  0  0
   -3.8212    3.4214    0.7278 O   0  0  0  0  0  0  0  0  0  0  0  0
   -2.0118    3.6728    1.9066 O   0  0  0  0  0  0  0  0  0  0  0  0
  1  2  2  0  0  0  0
  1  6  1  0  0  0  0
  2  3  1  0  0  0  0
  3  4  2  0  0  0  0
  4  8  1  0  0  0  0
  5  4  1  0  0  0  0
  5 12  1  0  0  0  0
  6  5  2  0  0  0  0
  7  1  1  0  0  0  0
 10  9  3  0  0  0  0
 11  6  1  0  0  0  0
 12 14  2  0  0  0  0
 13 12  2  0  0  0  0
M  RAD  2   2   2   3   2
M  END
