Coordinates from ORCA-job 3-NO2-C6H3-N2-v1-B3LYPG-aug-cc-pVDZ-scan-d09-49-n400
 OpenBabel11091809163D

 14 13  0  0  0  0  0  0  0  0999 V2000
   -2.1957    0.1383   -1.2480 C   0  0  0  0  0  0  0  0  0  0  0  0
   -0.9090   -0.1106   -0.7796 C   0  0  0  0  0  0  0  0  0  0  0  0
   -0.3036    0.5381    0.1039 C   0  0  0  0  0  0  0  0  0  0  0  0
   -0.7396    1.6325    0.8197 C   0  0  0  0  0  0  0  0  0  0  0  0
   -2.0531    1.9538    0.3998 C   0  0  0  0  0  0  0  0  0  0  0  0
   -2.7656    1.2464   -0.5915 C   0  0  0  0  0  0  0  0  0  0  0  0
   -2.7293   -0.4196   -2.0146 H   0  0  0  0  0  0  0  0  0  0  0  0
   -0.2187    2.1978    1.5861 H   0  0  0  0  0  0  0  0  0  0  0  0
    2.2862    0.3791    1.3419 N   0  0  0  0  0  0  0  0  0  0  0  0
    3.1346   -0.3116    1.1911 N   0  0  0  0  0  0  0  0  0  0  0  0
   -3.7720    1.5757   -0.8413 H   0  0  0  0  0  0  0  0  0  0  0  0
   -2.7135    3.1081    1.0482 N   0  0  0  0  0  0  0  0  0  0  0  0
   -3.8526    3.3964    0.6910 O   0  0  0  0  0  0  0  0  0  0  0  0
   -2.0794    3.7138    1.9083 O   0  0  0  0  0  0  0  0  0  0  0  0
  1  2  2  0  0  0  0
  1  6  1  0  0  0  0
  2  3  1  0  0  0  0
  3  4  2  0  0  0  0
  4  8  1  0  0  0  0
  5  4  1  0  0  0  0
  5 12  1  0  0  0  0
  6  5  2  0  0  0  0
  7  1  1  0  0  0  0
 10  9  3  0  0  0  0
 11  6  1  0  0  0  0
 12 14  2  0  0  0  0
 13 12  2  0  0  0  0
M  RAD  2   2   2   3   2
M  END
