Coordinates from ORCA-job 3-NO2-C6H3-N2-v1-B3LYPG-aug-cc-pVDZ-scan-d09-49-n400
 OpenBabel11091809163D

 14 14  0  0  0  0  0  0  0  0999 V2000
   -1.8793    0.1244   -1.0920 C   0  0  0  0  0  0  0  0  0  0  0  0
   -0.5565   -0.2297   -0.6960 C   0  0  0  0  0  0  0  0  0  0  0  0
   -0.1181    0.6164    0.2694 C   0  0  0  0  0  0  0  0  0  0  0  0
   -0.6778    1.7148    0.9230 C   0  0  0  0  0  0  0  0  0  0  0  0
   -1.9640    1.9836    0.4725 C   0  0  0  0  0  0  0  0  0  0  0  0
   -2.5719    1.1984   -0.5301 C   0  0  0  0  0  0  0  0  0  0  0  0
   -2.3857   -0.4585   -1.8657 H   0  0  0  0  0  0  0  0  0  0  0  0
   -0.1982    2.3124    1.6951 H   0  0  0  0  0  0  0  0  0  0  0  0
    1.3304    0.2717    0.7404 N   0  0  0  0  0  0  0  0  0  0  0  0
    2.3379   -0.1736    0.8902 N   0  0  0  0  0  0  0  0  0  0  0  0
   -3.5824    1.4532   -0.8463 H   0  0  0  0  0  0  0  0  0  0  0  0
   -2.6938    3.1153    1.0645 N   0  0  0  0  0  0  0  0  0  0  0  0
   -3.8294    3.3392    0.6551 O   0  0  0  0  0  0  0  0  0  0  0  0
   -2.1227    3.7704    1.9352 O   0  0  0  0  0  0  0  0  0  0  0  0
  1  2  2  0  0  0  0
  1  6  1  0  0  0  0
  2  3  1  0  0  0  0
  3  9  1  0  0  0  0
  3  4  2  0  0  0  0
  4  8  1  0  0  0  0
  5  4  1  0  0  0  0
  5 12  1  0  0  0  0
  6  5  2  0  0  0  0
  7  1  1  0  0  0  0
  9 10  1  0  0  0  0
 11  6  1  0  0  0  0
 12 14  2  0  0  0  0
 13 12  2  0  0  0  0
M  RAD  3   2   2   9   2  10   3
M  END
