Coordinates from ORCA-job 3-NO2-C6H3-N2-v1-B3LYPG-aug-cc-pVDZ-scan-d09-49-n400
 OpenBabel11091809163D

 14 14  0  0  0  0  0  0  0  0999 V2000
   -1.8569    0.1169   -1.0835 C   0  0  0  0  0  0  0  0  0  0  0  0
   -0.5518   -0.3291   -0.7782 C   0  0  0  0  0  0  0  0  0  0  0  0
    0.1335    0.5769    0.3681 C   0  0  0  0  0  0  0  0  0  0  0  0
   -0.6483    1.6846    0.9158 C   0  0  0  0  0  0  0  0  0  0  0  0
   -1.9111    1.9593    0.4779 C   0  0  0  0  0  0  0  0  0  0  0  0
   -2.5383    1.1885   -0.5242 C   0  0  0  0  0  0  0  0  0  0  0  0
   -2.3711   -0.4637   -1.8559 H   0  0  0  0  0  0  0  0  0  0  0  0
   -0.1761    2.2853    1.6929 H   0  0  0  0  0  0  0  0  0  0  0  0
    0.9692    0.3583    0.6207 N   0  0  0  0  0  0  0  0  0  0  0  0
    2.0543    0.0446    0.9225 N   0  0  0  0  0  0  0  0  0  0  0  0
   -3.5476    1.4561   -0.8344 H   0  0  0  0  0  0  0  0  0  0  0  0
   -2.6361    3.0969    1.0789 N   0  0  0  0  0  0  0  0  0  0  0  0
   -3.7714    3.3172    0.6688 O   0  0  0  0  0  0  0  0  0  0  0  0
   -2.0596    3.7464    1.9456 O   0  0  0  0  0  0  0  0  0  0  0  0
  1  2  2  0  0  0  0
  1  6  1  0  0  0  0
  2  3  1  0  0  0  0
  3  9  1  0  0  0  0
  3  4  2  0  0  0  0
  4  8  1  0  0  0  0
  5  4  1  0  0  0  0
  5 12  1  0  0  0  0
  6  5  2  0  0  0  0
  7  1  1  0  0  0  0
  9 10  1  0  0  0  0
 11  6  1  0  0  0  0
 12 14  2  0  0  0  0
 13 12  2  0  0  0  0
M  RAD  3   2   2   9   2  10   3
M  END
