Coordinates from ORCA-job 3-NO2-C6H3-N2-v1-B3LYPG-aug-cc-pVDZ-scan-d09-49-n400
 OpenBabel11091809163D

 14 13  0  0  0  0  0  0  0  0999 V2000
   -2.4384    0.1630   -1.3553 C   0  0  0  0  0  0  0  0  0  0  0  0
   -1.1486   -0.1823   -0.9684 C   0  0  0  0  0  0  0  0  0  0  0  0
   -0.4437    0.3847   -0.1030 C   0  0  0  0  0  0  0  0  0  0  0  0
   -0.7661    1.4796    0.6732 C   0  0  0  0  0  0  0  0  0  0  0  0
   -2.0768    1.9020    0.3419 C   0  0  0  0  0  0  0  0  0  0  0  0
   -2.8917    1.2815   -0.6283 C   0  0  0  0  0  0  0  0  0  0  0  0
   -3.0506   -0.3299   -2.1073 H   0  0  0  0  0  0  0  0  0  0  0  0
   -0.1708    1.9852    1.4272 H   0  0  0  0  0  0  0  0  0  0  0  0
    2.6799    0.6041    1.7468 N   0  0  0  0  0  0  0  0  0  0  0  0
    3.5563   -0.0579    1.6337 N   0  0  0  0  0  0  0  0  0  0  0  0
   -3.8857    1.6861   -0.8067 H   0  0  0  0  0  0  0  0  0  0  0  0
   -2.6200    3.0727    1.0662 N   0  0  0  0  0  0  0  0  0  0  0  0
   -3.7559    3.4473    0.7874 O   0  0  0  0  0  0  0  0  0  0  0  0
   -1.8992    3.6022    1.9079 O   0  0  0  0  0  0  0  0  0  0  0  0
  1  2  2  0  0  0  0
  1  6  1  0  0  0  0
  2  3  1  0  0  0  0
  3  4  2  0  0  0  0
  4  8  1  0  0  0  0
  5  4  1  0  0  0  0
  5 12  1  0  0  0  0
  6  5  2  0  0  0  0
  7  1  1  0  0  0  0
 10  9  3  0  0  0  0
 11  6  1  0  0  0  0
 12 14  2  0  0  0  0
 13 12  2  0  0  0  0
M  RAD  2   2   2   3   2
M  END
