Coordinates from ORCA-job 3-NO2-C6H3-N2-v1-B3LYPG-aug-cc-pVDZ-scan-d09-49-n400
 OpenBabel11091809163D

 14 13  0  0  0  0  0  0  0  0999 V2000
   -1.9721    0.1216   -1.1435 C   0  0  0  0  0  0  0  0  0  0  0  0
   -0.6784   -0.1039   -0.6511 C   0  0  0  0  0  0  0  0  0  0  0  0
   -0.1937    0.6382    0.2487 C   0  0  0  0  0  0  0  0  0  0  0  0
   -0.6950    1.7238    0.9218 C   0  0  0  0  0  0  0  0  0  0  0  0
   -2.0006    1.9790    0.4487 C   0  0  0  0  0  0  0  0  0  0  0  0
   -2.6325    1.2114   -0.5514 C   0  0  0  0  0  0  0  0  0  0  0  0
   -2.4557   -0.4749   -1.9167 H   0  0  0  0  0  0  0  0  0  0  0  0
   -0.2202    2.3236    1.6932 H   0  0  0  0  0  0  0  0  0  0  0  0
    1.7541    0.3096    0.9990 N   0  0  0  0  0  0  0  0  0  0  0  0
    2.5868   -0.3989    0.8257 N   0  0  0  0  0  0  0  0  0  0  0  0
   -3.6421    1.4825   -0.8534 H   0  0  0  0  0  0  0  0  0  0  0  0
   -2.7328    3.1157    1.0432 N   0  0  0  0  0  0  0  0  0  0  0  0
   -3.8693    3.3435    0.6378 O   0  0  0  0  0  0  0  0  0  0  0  0
   -2.1597    3.7672    1.9135 O   0  0  0  0  0  0  0  0  0  0  0  0
  1  2  2  0  0  0  0
  1  6  1  0  0  0  0
  2  3  1  0  0  0  0
  3  4  2  0  0  0  0
  4  8  1  0  0  0  0
  5  4  1  0  0  0  0
  5 12  1  0  0  0  0
  6  5  2  0  0  0  0
  7  1  1  0  0  0  0
 10  9  3  0  0  0  0
 11  6  1  0  0  0  0
 12 14  2  0  0  0  0
 13 12  2  0  0  0  0
M  RAD  2   2   2   3   2
M  END
