Coordinates from ORCA-job 3-NO2-C6H3-N2-v1-B3LYPG-aug-cc-pVDZ-scan-d09-49-n400
 OpenBabel11091809163D

 14 13  0  0  0  0  0  0  0  0999 V2000
   -2.3340    0.1512   -1.3099 C   0  0  0  0  0  0  0  0  0  0  0  0
   -1.0452   -0.1475   -0.8831 C   0  0  0  0  0  0  0  0  0  0  0  0
   -0.3809    0.4546   -0.0093 C   0  0  0  0  0  0  0  0  0  0  0  0
   -0.7586    1.5516    0.7386 C   0  0  0  0  0  0  0  0  0  0  0  0
   -2.0719    1.9281    0.3661 C   0  0  0  0  0  0  0  0  0  0  0  0
   -2.8408    1.2667   -0.6145 C   0  0  0  0  0  0  0  0  0  0  0  0
   -2.9103   -0.3728   -2.0693 H   0  0  0  0  0  0  0  0  0  0  0  0
   -0.1958    2.0845    1.4986 H   0  0  0  0  0  0  0  0  0  0  0  0
    2.5540    0.5088    1.5969 N   0  0  0  0  0  0  0  0  0  0  0  0
    3.3824   -0.1997    1.4202 N   0  0  0  0  0  0  0  0  0  0  0  0
   -3.8417    1.6372   -0.8261 H   0  0  0  0  0  0  0  0  0  0  0  0
   -2.6697    3.0930    1.0557 N   0  0  0  0  0  0  0  0  0  0  0  0
   -3.8096    3.4260    0.7426 O   0  0  0  0  0  0  0  0  0  0  0  0
   -1.9892    3.6565    1.9088 O   0  0  0  0  0  0  0  0  0  0  0  0
  1  2  2  0  0  0  0
  1  6  1  0  0  0  0
  2  3  1  0  0  0  0
  3  4  2  0  0  0  0
  4  8  1  0  0  0  0
  5  4  1  0  0  0  0
  5 12  1  0  0  0  0
  6  5  2  0  0  0  0
  7  1  1  0  0  0  0
 10  9  3  0  0  0  0
 11  6  1  0  0  0  0
 12 14  2  0  0  0  0
 13 12  2  0  0  0  0
M  RAD  2   2   2   3   2
M  END
