Coordinates from ORCA-job 3-NO2-C6H3-N2-v1-B3LYPG-aug-cc-pVDZ-scan-d09-49-n400
 OpenBabel11091809163D

 14 14  0  0  0  0  0  0  0  0999 V2000
   -1.9117    0.1216   -1.1116 C   0  0  0  0  0  0  0  0  0  0  0  0
   -0.6059   -0.1435   -0.6471 C   0  0  0  0  0  0  0  0  0  0  0  0
   -0.1595    0.6413    0.2694 C   0  0  0  0  0  0  0  0  0  0  0  0
   -0.6831    1.7269    0.9313 C   0  0  0  0  0  0  0  0  0  0  0  0
   -1.9821    1.9816    0.4615 C   0  0  0  0  0  0  0  0  0  0  0  0
   -2.5964    1.2027   -0.5394 C   0  0  0  0  0  0  0  0  0  0  0  0
   -2.3953   -0.4760   -1.8860 H   0  0  0  0  0  0  0  0  0  0  0  0
   -0.2081    2.3271    1.7034 H   0  0  0  0  0  0  0  0  0  0  0  0
    1.5346    0.3143    0.8862 N   0  0  0  0  0  0  0  0  0  0  0  0
    2.4258   -0.3410    0.7902 N   0  0  0  0  0  0  0  0  0  0  0  0
   -3.6063    1.4602   -0.8530 H   0  0  0  0  0  0  0  0  0  0  0  0
   -2.7187    3.1142    1.0506 N   0  0  0  0  0  0  0  0  0  0  0  0
   -3.8539    3.3370    0.6391 O   0  0  0  0  0  0  0  0  0  0  0  0
   -2.1507    3.7716    1.9208 O   0  0  0  0  0  0  0  0  0  0  0  0
  1  2  2  0  0  0  0
  1  6  1  0  0  0  0
  2  3  1  0  0  0  0
  3  9  1  0  0  0  0
  3  4  2  0  0  0  0
  4  8  1  0  0  0  0
  5  4  1  0  0  0  0
  5 12  1  0  0  0  0
  6  5  2  0  0  0  0
  7  1  1  0  0  0  0
 10  9  2  0  0  0  0
 11  6  1  0  0  0  0
 12 14  2  0  0  0  0
 13 12  2  0  0  0  0
M  RAD  2   2   2  10   2
M  END
