Coordinates from ORCA-job 3-NO2-C6H3-N2-v1-B3LYPG-aug-cc-pVDZ-scan-d09-49-n400
 OpenBabel11091809163D

 14 13  0  0  0  0  0  0  0  0999 V2000
   -2.4086    0.1595   -1.3425 C   0  0  0  0  0  0  0  0  0  0  0  0
   -1.1187   -0.1723   -0.9441 C   0  0  0  0  0  0  0  0  0  0  0  0
   -0.4256    0.4051   -0.0759 C   0  0  0  0  0  0  0  0  0  0  0  0
   -0.7643    1.5007    0.6923 C   0  0  0  0  0  0  0  0  0  0  0  0
   -2.0760    1.9095    0.3489 C   0  0  0  0  0  0  0  0  0  0  0  0
   -2.8777    1.2772   -0.6245 C   0  0  0  0  0  0  0  0  0  0  0  0
   -3.0104   -0.3425   -2.0968 H   0  0  0  0  0  0  0  0  0  0  0  0
   -0.1790    2.0148    1.4484 H   0  0  0  0  0  0  0  0  0  0  0  0
    2.6477    0.5768    1.7058 N   0  0  0  0  0  0  0  0  0  0  0  0
    3.5084   -0.1014    1.5711 N   0  0  0  0  0  0  0  0  0  0  0  0
   -3.8740    1.6719   -0.8124 H   0  0  0  0  0  0  0  0  0  0  0  0
   -2.6353    3.0786    1.0634 N   0  0  0  0  0  0  0  0  0  0  0  0
   -3.7722    3.4416    0.7739 O   0  0  0  0  0  0  0  0  0  0  0  0
   -1.9257    3.6187    1.9078 O   0  0  0  0  0  0  0  0  0  0  0  0
  1  2  2  0  0  0  0
  1  6  1  0  0  0  0
  2  3  1  0  0  0  0
  3  4  2  0  0  0  0
  4  8  1  0  0  0  0
  5  4  1  0  0  0  0
  5 12  1  0  0  0  0
  6  5  2  0  0  0  0
  7  1  1  0  0  0  0
 10  9  3  0  0  0  0
 11  6  1  0  0  0  0
 12 14  2  0  0  0  0
 13 12  2  0  0  0  0
M  RAD  2   2   2   3   2
M  END
