Coordinates from ORCA-job 3-NO2-C6H3-N2-v1-B3LYPG-aug-cc-pVDZ-scan-d09-49-n400
 OpenBabel11091809163D

 14 13  0  0  0  0  0  0  0  0999 V2000
   -2.8095    0.2290   -1.4942 C   0  0  0  0  0  0  0  0  0  0  0  0
   -1.5432   -0.3006   -1.2784 C   0  0  0  0  0  0  0  0  0  0  0  0
   -0.6772    0.1031   -0.4695 C   0  0  0  0  0  0  0  0  0  0  0  0
   -0.7690    1.1706    0.4035 C   0  0  0  0  0  0  0  0  0  0  0  0
   -2.0398    1.7766    0.2511 C   0  0  0  0  0  0  0  0  0  0  0  0
   -3.0293    1.3379   -0.6537 C   0  0  0  0  0  0  0  0  0  0  0  0
   -3.5578   -0.1265   -2.1989 H   0  0  0  0  0  0  0  0  0  0  0  0
   -0.0365    1.5423    1.1138 H   0  0  0  0  0  0  0  0  0  0  0  0
    2.8850    1.0290    2.2212 N   0  0  0  0  0  0  0  0  0  0  0  0
    3.9016    0.6553    2.4358 N   0  0  0  0  0  0  0  0  0  0  0  0
   -3.9739    1.8764   -0.6909 H   0  0  0  0  0  0  0  0  0  0  0  0
   -2.3427    2.9492    1.1023 N   0  0  0  0  0  0  0  0  0  0  0  0
   -3.4442    3.4793    0.9834 O   0  0  0  0  0  0  0  0  0  0  0  0
   -1.4749    3.3165    1.8899 O   0  0  0  0  0  0  0  0  0  0  0  0
  1  2  2  0  0  0  0
  1  6  1  0  0  0  0
  2  3  1  0  0  0  0
  3  4  2  0  0  0  0
  4  8  1  0  0  0  0
  5  4  1  0  0  0  0
  5 12  1  0  0  0  0
  6  5  2  0  0  0  0
  7  1  1  0  0  0  0
  9 10  3  0  0  0  0
 11  6  1  0  0  0  0
 12 14  2  0  0  0  0
 13 12  2  0  0  0  0
M  RAD  2   2   2   3   2
M  END
