Coordinates from ORCA-job 3-NO2-C6H3-N2-v1-B3LYPG-aug-cc-pVDZ-scan-d09-49-n400
 OpenBabel11091809163D

 14 13  0  0  0  0  0  0  0  0999 V2000
   -2.1305    0.1324   -1.2185 C   0  0  0  0  0  0  0  0  0  0  0  0
   -0.8440   -0.0999   -0.7359 C   0  0  0  0  0  0  0  0  0  0  0  0
   -0.2719    0.5740    0.1516 C   0  0  0  0  0  0  0  0  0  0  0  0
   -0.7274    1.6657    0.8547 C   0  0  0  0  0  0  0  0  0  0  0  0
   -2.0402    1.9632    0.4146 C   0  0  0  0  0  0  0  0  0  0  0  0
   -2.7278    1.2364   -0.5801 C   0  0  0  0  0  0  0  0  0  0  0  0
   -2.6467   -0.4390   -1.9875 H   0  0  0  0  0  0  0  0  0  0  0  0
   -0.2260    2.2457    1.6233 H   0  0  0  0  0  0  0  0  0  0  0  0
    2.1505    0.3408    1.2364 N   0  0  0  0  0  0  0  0  0  0  0  0
    2.9926   -0.3560    1.0780 N   0  0  0  0  0  0  0  0  0  0  0  0
   -3.7357    1.5479   -0.8460 H   0  0  0  0  0  0  0  0  0  0  0  0
   -2.7263    3.1125    1.0449 N   0  0  0  0  0  0  0  0  0  0  0  0
   -3.8650    3.3804    0.6710 O   0  0  0  0  0  0  0  0  0  0  0  0
   -2.1129    3.7342    1.9086 O   0  0  0  0  0  0  0  0  0  0  0  0
  1  2  2  0  0  0  0
  1  6  1  0  0  0  0
  2  3  1  0  0  0  0
  3  4  2  0  0  0  0
  4  8  1  0  0  0  0
  5  4  1  0  0  0  0
  5 12  1  0  0  0  0
  6  5  2  0  0  0  0
  7  1  1  0  0  0  0
 10  9  3  0  0  0  0
 11  6  1  0  0  0  0
 12 14  2  0  0  0  0
 13 12  2  0  0  0  0
M  RAD  2   2   2   3   2
M  END
