Coordinates from ORCA-job 3-NO2-C6H3-N2-v1-B3LYPG-aug-cc-pVDZ-scan-d09-49-n400
 OpenBabel11091809163D

 14 13  0  0  0  0  0  0  0  0999 V2000
   -2.4530    0.1651   -1.3619 C   0  0  0  0  0  0  0  0  0  0  0  0
   -1.1632   -0.1864   -0.9809 C   0  0  0  0  0  0  0  0  0  0  0  0
   -0.4527    0.3751   -0.1164 C   0  0  0  0  0  0  0  0  0  0  0  0
   -0.7673    1.4690    0.6648 C   0  0  0  0  0  0  0  0  0  0  0  0
   -2.0777    1.8971    0.3394 C   0  0  0  0  0  0  0  0  0  0  0  0
   -2.8988    1.2831   -0.6296 C   0  0  0  0  0  0  0  0  0  0  0  0
   -3.0699   -0.3229   -2.1131 H   0  0  0  0  0  0  0  0  0  0  0  0
   -0.1669    1.9695    1.4181 H   0  0  0  0  0  0  0  0  0  0  0  0
    2.6960    0.6174    1.7669 N   0  0  0  0  0  0  0  0  0  0  0  0
    3.5800   -0.0361    1.6639 N   0  0  0  0  0  0  0  0  0  0  0  0
   -3.8918    1.6924   -0.8027 H   0  0  0  0  0  0  0  0  0  0  0  0
   -2.6138    3.0678    1.0695 N   0  0  0  0  0  0  0  0  0  0  0  0
   -3.7468    3.4516    0.7917 O   0  0  0  0  0  0  0  0  0  0  0  0
   -1.8854    3.5957    1.9056 O   0  0  0  0  0  0  0  0  0  0  0  0
  1  2  2  0  0  0  0
  1  6  1  0  0  0  0
  2  3  1  0  0  0  0
  3  4  2  0  0  0  0
  4  8  1  0  0  0  0
  5  4  1  0  0  0  0
  5 12  1  0  0  0  0
  6  5  2  0  0  0  0
  7  1  1  0  0  0  0
 10  9  3  0  0  0  0
 11  6  1  0  0  0  0
 12 14  2  0  0  0  0
 13 12  2  0  0  0  0
M  RAD  2   2   2   3   2
M  END
