Coordinates from ORCA-job 3-NO2-C6H3-N2-v1-B3LYPG-aug-cc-pVDZ-scan-d09-49-n400
 OpenBabel11091809163D

 14 13  0  0  0  0  0  0  0  0999 V2000
   -2.0665    0.1268   -1.1888 C   0  0  0  0  0  0  0  0  0  0  0  0
   -0.7793   -0.0945   -0.6960 C   0  0  0  0  0  0  0  0  0  0  0  0
   -0.2406    0.6051    0.1949 C   0  0  0  0  0  0  0  0  0  0  0  0
   -0.7139    1.6946    0.8850 C   0  0  0  0  0  0  0  0  0  0  0  0
   -2.0249    1.9717    0.4278 C   0  0  0  0  0  0  0  0  0  0  0  0
   -2.6892    1.2266   -0.5691 C   0  0  0  0  0  0  0  0  0  0  0  0
   -2.5674   -0.4568   -1.9593 H   0  0  0  0  0  0  0  0  0  0  0  0
   -0.2267    2.2855    1.6547 H   0  0  0  0  0  0  0  0  0  0  0  0
    2.0054    0.3193    1.1411 N   0  0  0  0  0  0  0  0  0  0  0  0
    2.8348   -0.3897    0.9670 N   0  0  0  0  0  0  0  0  0  0  0  0
   -3.6979    1.5215   -0.8504 H   0  0  0  0  0  0  0  0  0  0  0  0
   -2.7327    3.1164    1.0409 N   0  0  0  0  0  0  0  0  0  0  0  0
   -3.8727    3.3627    0.6562 O   0  0  0  0  0  0  0  0  0  0  0  0
   -2.1398    3.7489    1.9114 O   0  0  0  0  0  0  0  0  0  0  0  0
  1  2  2  0  0  0  0
  1  6  1  0  0  0  0
  2  3  1  0  0  0  0
  3  4  2  0  0  0  0
  4  8  1  0  0  0  0
  5  4  1  0  0  0  0
  5 12  1  0  0  0  0
  6  5  2  0  0  0  0
  7  1  1  0  0  0  0
 10  9  3  0  0  0  0
 11  6  1  0  0  0  0
 12 14  2  0  0  0  0
 13 12  2  0  0  0  0
M  RAD  2   2   2   3   2
M  END
