Coordinates from ORCA-job 3-NO2-C6H3-N2-v1-B3LYPG-aug-cc-pVDZ-scan-d09-49-n400
 OpenBabel11091809163D

 14 13  0  0  0  0  0  0  0  0999 V2000
   -2.1875    0.1371   -1.2436 C   0  0  0  0  0  0  0  0  0  0  0  0
   -0.9009   -0.1101   -0.7732 C   0  0  0  0  0  0  0  0  0  0  0  0
   -0.2999    0.5430    0.1101 C   0  0  0  0  0  0  0  0  0  0  0  0
   -0.7372    1.6382    0.8230 C   0  0  0  0  0  0  0  0  0  0  0  0
   -2.0505    1.9568    0.3999 C   0  0  0  0  0  0  0  0  0  0  0  0
   -2.7603    1.2460   -0.5908 C   0  0  0  0  0  0  0  0  0  0  0  0
   -2.7193   -0.4231   -2.0099 H   0  0  0  0  0  0  0  0  0  0  0  0
   -0.2186    2.2062    1.5889 H   0  0  0  0  0  0  0  0  0  0  0  0
    2.2666    0.3713    1.3253 N   0  0  0  0  0  0  0  0  0  0  0  0
    3.1184   -0.3170    1.1804 N   0  0  0  0  0  0  0  0  0  0  0  0
   -3.7667    1.5734   -0.8432 H   0  0  0  0  0  0  0  0  0  0  0  0
   -2.7135    3.1119    1.0444 N   0  0  0  0  0  0  0  0  0  0  0  0
   -3.8564    3.3912    0.6923 O   0  0  0  0  0  0  0  0  0  0  0  0
   -2.0857    3.7135    1.9119 O   0  0  0  0  0  0  0  0  0  0  0  0
  1  2  2  0  0  0  0
  1  6  1  0  0  0  0
  2  3  1  0  0  0  0
  3  4  2  0  0  0  0
  4  8  1  0  0  0  0
  5  4  1  0  0  0  0
  5 12  1  0  0  0  0
  6  5  2  0  0  0  0
  7  1  1  0  0  0  0
 10  9  3  0  0  0  0
 11  6  1  0  0  0  0
 12 14  2  0  0  0  0
 13 12  2  0  0  0  0
M  RAD  2   2   2   3   2
M  END
