Coordinates from ORCA-job 3-NO2-C6H3-N2-v1-B3LYPG-aug-cc-pVDZ-scan-d09-49-n400
 OpenBabel11091809163D

 14 14  0  0  0  0  0  0  0  0999 V2000
   -1.8699    0.1189   -1.0917 C   0  0  0  0  0  0  0  0  0  0  0  0
   -0.5483   -0.2980   -0.7508 C   0  0  0  0  0  0  0  0  0  0  0  0
    0.0063    0.5704    0.2945 C   0  0  0  0  0  0  0  0  0  0  0  0
   -0.6557    1.6894    0.9122 C   0  0  0  0  0  0  0  0  0  0  0  0
   -1.9248    1.9669    0.4784 C   0  0  0  0  0  0  0  0  0  0  0  0
   -2.5490    1.1884   -0.5269 C   0  0  0  0  0  0  0  0  0  0  0  0
   -2.3907   -0.4541   -1.8640 H   0  0  0  0  0  0  0  0  0  0  0  0
   -0.1806    2.2910    1.6855 H   0  0  0  0  0  0  0  0  0  0  0  0
    1.1105    0.3039    0.6515 N   0  0  0  0  0  0  0  0  0  0  0  0
    2.1574    0.0229    0.9654 N   0  0  0  0  0  0  0  0  0  0  0  0
   -3.5600    1.4547   -0.8333 H   0  0  0  0  0  0  0  0  0  0  0  0
   -2.6487    3.1033    1.0778 N   0  0  0  0  0  0  0  0  0  0  0  0
   -3.7842    3.3272    0.6694 O   0  0  0  0  0  0  0  0  0  0  0  0
   -2.0737    3.7534    1.9471 O   0  0  0  0  0  0  0  0  0  0  0  0
  1  2  2  0  0  0  0
  1  6  1  0  0  0  0
  2  3  1  0  0  0  0
  3  9  1  0  0  0  0
  3  4  2  0  0  0  0
  4  8  1  0  0  0  0
  5  4  1  0  0  0  0
  5 12  1  0  0  0  0
  6  5  2  0  0  0  0
  7  1  1  0  0  0  0
  9 10  1  0  0  0  0
 11  6  1  0  0  0  0
 12 14  2  0  0  0  0
 13 12  2  0  0  0  0
M  RAD  3   2   2   9   2  10   3
M  END
