Coordinates from ORCA-job 3-NO2-C6H3-N2-v1-B3LYPG-aug-cc-pVDZ-scan-d09-49-n400
 OpenBabel11091809163D

 14 14  0  0  0  0  0  0  0  0999 V2000
   -1.8800    0.1223   -1.0942 C   0  0  0  0  0  0  0  0  0  0  0  0
   -0.5553   -0.2567   -0.7187 C   0  0  0  0  0  0  0  0  0  0  0  0
   -0.0933    0.6001    0.2685 C   0  0  0  0  0  0  0  0  0  0  0  0
   -0.6716    1.7055    0.9182 C   0  0  0  0  0  0  0  0  0  0  0  0
   -1.9528    1.9791    0.4746 C   0  0  0  0  0  0  0  0  0  0  0  0
   -2.5661    1.1958   -0.5293 C   0  0  0  0  0  0  0  0  0  0  0  0
   -2.3959   -0.4538   -1.8670 H   0  0  0  0  0  0  0  0  0  0  0  0
   -0.1919    2.3031    1.6904 H   0  0  0  0  0  0  0  0  0  0  0  0
    1.2719    0.2625    0.7013 N   0  0  0  0  0  0  0  0  0  0  0  0
    2.2997   -0.0905    0.9417 N   0  0  0  0  0  0  0  0  0  0  0  0
   -3.5768    1.4557   -0.8412 H   0  0  0  0  0  0  0  0  0  0  0  0
   -2.6791    3.1121    1.0696 N   0  0  0  0  0  0  0  0  0  0  0  0
   -3.8147    3.3379    0.6616 O   0  0  0  0  0  0  0  0  0  0  0  0
   -2.1054    3.7652    1.9398 O   0  0  0  0  0  0  0  0  0  0  0  0
  1  2  2  0  0  0  0
  1  6  1  0  0  0  0
  2  3  1  0  0  0  0
  3  9  1  0  0  0  0
  3  4  2  0  0  0  0
  4  8  1  0  0  0  0
  5  4  1  0  0  0  0
  5 12  1  0  0  0  0
  6  5  2  0  0  0  0
  7  1  1  0  0  0  0
  9 10  1  0  0  0  0
 11  6  1  0  0  0  0
 12 14  2  0  0  0  0
 13 12  2  0  0  0  0
M  RAD  3   2   2   9   2  10   3
M  END
