Coordinates from ORCA-job 3-NO2-C6H3-N2-v1-B3LYPG-aug-cc-pVDZ-scan-d09-49-n400
 OpenBabel11091809163D

 14 13  0  0  0  0  0  0  0  0999 V2000
   -2.8970    0.2542   -1.5188 C   0  0  0  0  0  0  0  0  0  0  0  0
   -1.6454   -0.3260   -1.3545 C   0  0  0  0  0  0  0  0  0  0  0  0
   -0.7389    0.0283   -0.5669 C   0  0  0  0  0  0  0  0  0  0  0  0
   -0.7638    1.0806    0.3284 C   0  0  0  0  0  0  0  0  0  0  0  0
   -2.0148    1.7367    0.2298 C   0  0  0  0  0  0  0  0  0  0  0  0
   -3.0483    1.3531   -0.6505 C   0  0  0  0  0  0  0  0  0  0  0  0
   -3.6802   -0.0590   -2.2055 H   0  0  0  0  0  0  0  0  0  0  0  0
    0.0045    1.4104    1.0215 H   0  0  0  0  0  0  0  0  0  0  0  0
    2.8682    1.1464    2.3138 N   0  0  0  0  0  0  0  0  0  0  0  0
    3.8932    0.8895    2.6337 N   0  0  0  0  0  0  0  0  0  0  0  0
   -3.9727    1.9266   -0.6468 H   0  0  0  0  0  0  0  0  0  0  0  0
   -2.2459    2.9019    1.1127 N   0  0  0  0  0  0  0  0  0  0  0  0
   -3.3299    3.4747    1.0398 O   0  0  0  0  0  0  0  0  0  0  0  0
   -1.3403    3.2208    1.8784 O   0  0  0  0  0  0  0  0  0  0  0  0
  1  2  2  0  0  0  0
  1  6  1  0  0  0  0
  2  3  1  0  0  0  0
  3  4  2  0  0  0  0
  4  8  1  0  0  0  0
  5  4  1  0  0  0  0
  5 12  1  0  0  0  0
  6 11  1  0  0  0  0
  6  5  2  0  0  0  0
  7  1  1  0  0  0  0
  9 10  3  0  0  0  0
 12 14  2  0  0  0  0
 13 12  2  0  0  0  0
M  RAD  2   2   2   3   2
M  END
