Coordinates from ORCA-job 3-NO2-C6H3-N2-v1-B3LYPG-aug-cc-pVDZ-scan-d09-49-n400
 OpenBabel11091809163D

 14 13  0  0  0  0  0  0  0  0999 V2000
   -2.5019    0.1715   -1.3817 C   0  0  0  0  0  0  0  0  0  0  0  0
   -1.2130   -0.2026   -1.0200 C   0  0  0  0  0  0  0  0  0  0  0  0
   -0.4820    0.3409   -0.1609 C   0  0  0  0  0  0  0  0  0  0  0  0
   -0.7704    1.4339    0.6317 C   0  0  0  0  0  0  0  0  0  0  0  0
   -2.0778    1.8849    0.3268 C   0  0  0  0  0  0  0  0  0  0  0  0
   -2.9209    1.2908   -0.6357 C   0  0  0  0  0  0  0  0  0  0  0  0
   -3.1360   -0.3015   -2.1282 H   0  0  0  0  0  0  0  0  0  0  0  0
   -0.1519    1.9190    1.3805 H   0  0  0  0  0  0  0  0  0  0  0  0
    2.7449    0.6642    1.8336 N   0  0  0  0  0  0  0  0  0  0  0  0
    3.6524    0.0389    1.7676 N   0  0  0  0  0  0  0  0  0  0  0  0
   -3.9096    1.7167   -0.7930 H   0  0  0  0  0  0  0  0  0  0  0  0
   -2.5859    3.0583    1.0721 N   0  0  0  0  0  0  0  0  0  0  0  0
   -3.7184    3.4583    0.8158 O   0  0  0  0  0  0  0  0  0  0  0  0
   -1.8409    3.5649    1.9068 O   0  0  0  0  0  0  0  0  0  0  0  0
  1  2  2  0  0  0  0
  1  6  1  0  0  0  0
  2  3  1  0  0  0  0
  3  4  2  0  0  0  0
  4  8  1  0  0  0  0
  5  4  1  0  0  0  0
  5 12  1  0  0  0  0
  6  5  2  0  0  0  0
  7  1  1  0  0  0  0
 10  9  3  0  0  0  0
 11  6  1  0  0  0  0
 12 14  2  0  0  0  0
 13 12  2  0  0  0  0
M  RAD  2   2   2   3   2
M  END
