Coordinates from ORCA-job 3-NO2-C6H3-N2-v1-B3LYPG-aug-cc-pVDZ-scan-d09-49-n400
 OpenBabel11091809163D

 14 13  0  0  0  0  0  0  0  0999 V2000
   -2.3791    0.1560   -1.3299 C   0  0  0  0  0  0  0  0  0  0  0  0
   -1.0895   -0.1624   -0.9201 C   0  0  0  0  0  0  0  0  0  0  0  0
   -0.4078    0.4247   -0.0495 C   0  0  0  0  0  0  0  0  0  0  0  0
   -0.7620    1.5208    0.7109 C   0  0  0  0  0  0  0  0  0  0  0  0
   -2.0747    1.9167    0.3559 C   0  0  0  0  0  0  0  0  0  0  0  0
   -2.8634    1.2728   -0.6206 C   0  0  0  0  0  0  0  0  0  0  0  0
   -2.9707   -0.3546   -2.0864 H   0  0  0  0  0  0  0  0  0  0  0  0
   -0.1866    2.0432    1.4689 H   0  0  0  0  0  0  0  0  0  0  0  0
    2.6136    0.5512    1.6654 N   0  0  0  0  0  0  0  0  0  0  0  0
    3.4581   -0.1426    1.5089 N   0  0  0  0  0  0  0  0  0  0  0  0
   -3.8616    1.6579   -0.8179 H   0  0  0  0  0  0  0  0  0  0  0  0
   -2.6495    3.0841    1.0608 N   0  0  0  0  0  0  0  0  0  0  0  0
   -3.7873    3.4359    0.7610 O   0  0  0  0  0  0  0  0  0  0  0  0
   -1.9510    3.6344    1.9079 O   0  0  0  0  0  0  0  0  0  0  0  0
  1  2  2  0  0  0  0
  1  6  1  0  0  0  0
  2  3  1  0  0  0  0
  3  4  2  0  0  0  0
  4  8  1  0  0  0  0
  5  4  1  0  0  0  0
  5 12  1  0  0  0  0
  6  5  2  0  0  0  0
  7  1  1  0  0  0  0
 10  9  3  0  0  0  0
 11  6  1  0  0  0  0
 12 14  2  0  0  0  0
 13 12  2  0  0  0  0
M  RAD  2   2   2   3   2
M  END
