Coordinates from ORCA-job 3-NO2-C6H3-N2-v1-B3LYPG-aug-cc-pVDZ-scan-d09-49-n400
 OpenBabel11091809163D

 14 14  0  0  0  0  0  0  0  0999 V2000
   -1.8790    0.1210   -1.0948 C   0  0  0  0  0  0  0  0  0  0  0  0
   -0.5544   -0.2704   -0.7300 C   0  0  0  0  0  0  0  0  0  0  0  0
   -0.0691    0.5902    0.2728 C   0  0  0  0  0  0  0  0  0  0  0  0
   -0.6671    1.7006    0.9163 C   0  0  0  0  0  0  0  0  0  0  0  0
   -1.9444    1.9759    0.4761 C   0  0  0  0  0  0  0  0  0  0  0  0
   -2.5611    1.1936   -0.5287 C   0  0  0  0  0  0  0  0  0  0  0  0
   -2.3988   -0.4524   -1.8672 H   0  0  0  0  0  0  0  0  0  0  0  0
   -0.1890    2.2996    1.6888 H   0  0  0  0  0  0  0  0  0  0  0  0
    1.2311    0.2651    0.6820 N   0  0  0  0  0  0  0  0  0  0  0  0
    2.2649   -0.0485    0.9595 N   0  0  0  0  0  0  0  0  0  0  0  0
   -3.5720    1.4565   -0.8381 H   0  0  0  0  0  0  0  0  0  0  0  0
   -2.6702    3.1098    1.0721 N   0  0  0  0  0  0  0  0  0  0  0  0
   -3.8058    3.3350    0.6641 O   0  0  0  0  0  0  0  0  0  0  0  0
   -2.0963    3.7621    1.9423 O   0  0  0  0  0  0  0  0  0  0  0  0
  1  2  2  0  0  0  0
  1  6  1  0  0  0  0
  2  3  1  0  0  0  0
  3  9  1  0  0  0  0
  3  4  2  0  0  0  0
  4  8  1  0  0  0  0
  5  4  1  0  0  0  0
  5 12  1  0  0  0  0
  6  5  2  0  0  0  0
  7  1  1  0  0  0  0
  9 10  1  0  0  0  0
 11  6  1  0  0  0  0
 12 14  2  0  0  0  0
 13 12  2  0  0  0  0
M  RAD  3   2   2   9   2  10   3
M  END
