Coordinates from ORCA-job 3-NO2-C6H3-N2-v1-B3LYPG-aug-cc-pVDZ-scan-d09-49-n400
 OpenBabel11091809163D

 14 13  0  0  0  0  0  0  0  0999 V2000
   -2.3827    0.1564   -1.3316 C   0  0  0  0  0  0  0  0  0  0  0  0
   -1.0931   -0.1638   -0.9232 C   0  0  0  0  0  0  0  0  0  0  0  0
   -0.4102    0.4223   -0.0529 C   0  0  0  0  0  0  0  0  0  0  0  0
   -0.7621    1.5183    0.7087 C   0  0  0  0  0  0  0  0  0  0  0  0
   -2.0747    1.9157    0.3551 C   0  0  0  0  0  0  0  0  0  0  0  0
   -2.8650    1.2733   -0.6210 C   0  0  0  0  0  0  0  0  0  0  0  0
   -2.9756   -0.3532   -2.0878 H   0  0  0  0  0  0  0  0  0  0  0  0
   -0.1858    2.0399    1.4665 H   0  0  0  0  0  0  0  0  0  0  0  0
    2.6177    0.5544    1.6704 N   0  0  0  0  0  0  0  0  0  0  0  0
    3.4642   -0.1376    1.5165 N   0  0  0  0  0  0  0  0  0  0  0  0
   -3.8630    1.6595   -0.8171 H   0  0  0  0  0  0  0  0  0  0  0  0
   -2.6477    3.0834    1.0613 N   0  0  0  0  0  0  0  0  0  0  0  0
   -3.7853    3.4368    0.7626 O   0  0  0  0  0  0  0  0  0  0  0  0
   -1.9478    3.6326    1.9079 O   0  0  0  0  0  0  0  0  0  0  0  0
  1  2  2  0  0  0  0
  1  6  1  0  0  0  0
  2  3  1  0  0  0  0
  3  4  2  0  0  0  0
  4  8  1  0  0  0  0
  5  4  1  0  0  0  0
  5 12  1  0  0  0  0
  6  5  2  0  0  0  0
  7  1  1  0  0  0  0
 10  9  3  0  0  0  0
 11  6  1  0  0  0  0
 12 14  2  0  0  0  0
 13 12  2  0  0  0  0
M  RAD  2   2   2   3   2
M  END
