Coordinates from ORCA-job 3-NO2-C6H3-N2-v1-B3LYPG-aug-cc-pVDZ-scan-d09-49-n400
 OpenBabel11091809163D

 14 13  0  0  0  0  0  0  0  0999 V2000
   -2.7934    0.2254   -1.4895 C   0  0  0  0  0  0  0  0  0  0  0  0
   -1.5248   -0.2954   -1.2658 C   0  0  0  0  0  0  0  0  0  0  0  0
   -0.6657    0.1159   -0.4533 C   0  0  0  0  0  0  0  0  0  0  0  0
   -0.7693    1.1848    0.4165 C   0  0  0  0  0  0  0  0  0  0  0  0
   -2.0433    1.7822    0.2562 C   0  0  0  0  0  0  0  0  0  0  0  0
   -3.0250    1.3348   -0.6527 C   0  0  0  0  0  0  0  0  0  0  0  0
   -3.5357   -0.1366   -2.1973 H   0  0  0  0  0  0  0  0  0  0  0  0
   -0.0427    1.5625    1.1295 H   0  0  0  0  0  0  0  0  0  0  0  0
    2.8803    1.0091    2.2019 N   0  0  0  0  0  0  0  0  0  0  0  0
    3.8941    0.6193    2.4003 N   0  0  0  0  0  0  0  0  0  0  0  0
   -3.9729    1.8669   -0.6961 H   0  0  0  0  0  0  0  0  0  0  0  0
   -2.3583    2.9545    1.1033 N   0  0  0  0  0  0  0  0  0  0  0  0
   -3.4601    3.4812    0.9727 O   0  0  0  0  0  0  0  0  0  0  0  0
   -1.4945    3.3335    1.8897 O   0  0  0  0  0  0  0  0  0  0  0  0
  1  2  2  0  0  0  0
  1  6  1  0  0  0  0
  2  3  1  0  0  0  0
  3  4  2  0  0  0  0
  4  8  1  0  0  0  0
  5  4  1  0  0  0  0
  5 12  1  0  0  0  0
  6  5  2  0  0  0  0
  7  1  1  0  0  0  0
  9 10  3  0  0  0  0
 11  6  1  0  0  0  0
 12 14  2  0  0  0  0
 13 12  2  0  0  0  0
M  RAD  2   2   2   3   2
M  END
