Coordinates from ORCA-job 3-NO2-C6H3-N2-v1-B3LYPG-aug-cc-pVDZ-scan-d09-49-n400
 OpenBabel11091809163D

 14 13  0  0  0  0  0  0  0  0999 V2000
   -2.9196    0.2622   -1.5244 C   0  0  0  0  0  0  0  0  0  0  0  0
   -1.6726   -0.3319   -1.3757 C   0  0  0  0  0  0  0  0  0  0  0  0
   -0.7550    0.0077   -0.5944 C   0  0  0  0  0  0  0  0  0  0  0  0
   -0.7609    1.0541    0.3077 C   0  0  0  0  0  0  0  0  0  0  0  0
   -2.0057    1.7240    0.2256 C   0  0  0  0  0  0  0  0  0  0  0  0
   -3.0513    1.3570   -0.6475 C   0  0  0  0  0  0  0  0  0  0  0  0
   -3.7124   -0.0383   -2.2057 H   0  0  0  0  0  0  0  0  0  0  0  0
    0.0180    1.3704    0.9952 H   0  0  0  0  0  0  0  0  0  0  0  0
    2.8508    1.1785    2.3329 N   0  0  0  0  0  0  0  0  0  0  0  0
    3.8742    0.9620    2.6863 N   0  0  0  0  0  0  0  0  0  0  0  0
   -3.9697    1.9399   -0.6313 H   0  0  0  0  0  0  0  0  0  0  0  0
   -2.2164    2.8855    1.1183 N   0  0  0  0  0  0  0  0  0  0  0  0
   -3.2928    3.4736    1.0552 O   0  0  0  0  0  0  0  0  0  0  0  0
   -1.2980    3.1936    1.8731 O   0  0  0  0  0  0  0  0  0  0  0  0
  1  2  2  0  0  0  0
  1  6  1  0  0  0  0
  2  3  1  0  0  0  0
  3  4  2  0  0  0  0
  4  8  1  0  0  0  0
  5  4  1  0  0  0  0
  5 12  1  0  0  0  0
  6 11  1  0  0  0  0
  6  5  2  0  0  0  0
  7  1  1  0  0  0  0
  9 10  3  0  0  0  0
 12 14  2  0  0  0  0
 13 12  2  0  0  0  0
M  RAD  2   2   2   3   2
M  END
