Coordinates from ORCA-job 3-NO2-C6H3-N2-v1-B3LYPG-aug-cc-pVDZ-scan-d09-49-n400
 OpenBabel11091809163D

 14 13  0  0  0  0  0  0  0  0999 V2000
   -2.4160    0.1600   -1.3454 C   0  0  0  0  0  0  0  0  0  0  0  0
   -1.1262   -0.1754   -0.9496 C   0  0  0  0  0  0  0  0  0  0  0  0
   -0.4304    0.4002   -0.0825 C   0  0  0  0  0  0  0  0  0  0  0  0
   -0.7641    1.4962    0.6872 C   0  0  0  0  0  0  0  0  0  0  0  0
   -2.0757    1.9085    0.3463 C   0  0  0  0  0  0  0  0  0  0  0  0
   -2.8807    1.2785   -0.6259 C   0  0  0  0  0  0  0  0  0  0  0  0
   -3.0205   -0.3401   -2.0989 H   0  0  0  0  0  0  0  0  0  0  0  0
   -0.1769    2.0091    1.4426 H   0  0  0  0  0  0  0  0  0  0  0  0
    2.6559    0.5833    1.7159 N   0  0  0  0  0  0  0  0  0  0  0  0
    3.5200   -0.0917    1.5865 N   0  0  0  0  0  0  0  0  0  0  0  0
   -3.8763    1.6758   -0.8118 H   0  0  0  0  0  0  0  0  0  0  0  0
   -2.6307    3.0788    1.0624 N   0  0  0  0  0  0  0  0  0  0  0  0
   -3.7693    3.4416    0.7789 O   0  0  0  0  0  0  0  0  0  0  0  0
   -1.9203    3.6135    1.9096 O   0  0  0  0  0  0  0  0  0  0  0  0
  1  2  2  0  0  0  0
  1  6  1  0  0  0  0
  2  3  1  0  0  0  0
  3  4  2  0  0  0  0
  4  8  1  0  0  0  0
  5  4  1  0  0  0  0
  5 12  1  0  0  0  0
  6  5  2  0  0  0  0
  7  1  1  0  0  0  0
 10  9  3  0  0  0  0
 11  6  1  0  0  0  0
 12 14  2  0  0  0  0
 13 12  2  0  0  0  0
M  RAD  2   2   2   3   2
M  END
