Coordinates from ORCA-job 3-NO2-C6H3-N2-v1-B3LYPG-aug-cc-pVDZ-scan-d09-49-n400
 OpenBabel11091809163D

 14 13  0  0  0  0  0  0  0  0999 V2000
   -2.1337    0.1324   -1.2198 C   0  0  0  0  0  0  0  0  0  0  0  0
   -0.8472   -0.1009   -0.7379 C   0  0  0  0  0  0  0  0  0  0  0  0
   -0.2739    0.5725    0.1492 C   0  0  0  0  0  0  0  0  0  0  0  0
   -0.7275    1.6645    0.8527 C   0  0  0  0  0  0  0  0  0  0  0  0
   -2.0404    1.9633    0.4133 C   0  0  0  0  0  0  0  0  0  0  0  0
   -2.7294    1.2371   -0.5809 C   0  0  0  0  0  0  0  0  0  0  0  0
   -2.6509   -0.4385   -1.9884 H   0  0  0  0  0  0  0  0  0  0  0  0
   -0.2254    2.2443    1.6210 H   0  0  0  0  0  0  0  0  0  0  0  0
    2.1566    0.3423    1.2411 N   0  0  0  0  0  0  0  0  0  0  0  0
    2.9995   -0.3539    1.0843 N   0  0  0  0  0  0  0  0  0  0  0  0
   -3.7371    1.5496   -0.8462 H   0  0  0  0  0  0  0  0  0  0  0  0
   -2.7251    3.1132    1.0439 N   0  0  0  0  0  0  0  0  0  0  0  0
   -3.8650    3.3800    0.6733 O   0  0  0  0  0  0  0  0  0  0  0  0
   -2.1118    3.7322    1.9098 O   0  0  0  0  0  0  0  0  0  0  0  0
  1  2  2  0  0  0  0
  1  6  1  0  0  0  0
  2  3  1  0  0  0  0
  3  4  2  0  0  0  0
  4  8  1  0  0  0  0
  5  4  1  0  0  0  0
  5 12  1  0  0  0  0
  6  5  2  0  0  0  0
  7  1  1  0  0  0  0
 10  9  3  0  0  0  0
 11  6  1  0  0  0  0
 12 14  2  0  0  0  0
 13 12  2  0  0  0  0
M  RAD  2   2   2   3   2
M  END
