Coordinates from ORCA-job 3-NO2-C6H3-N2-v1-B3LYPG-aug-cc-pVDZ-scan-d09-49-n400
 OpenBabel11091809163D

 14 13  0  0  0  0  0  0  0  0999 V2000
   -2.1274    0.1322   -1.2169 C   0  0  0  0  0  0  0  0  0  0  0  0
   -0.8409   -0.0993   -0.7336 C   0  0  0  0  0  0  0  0  0  0  0  0
   -0.2698    0.5755    0.1540 C   0  0  0  0  0  0  0  0  0  0  0  0
   -0.7271    1.6673    0.8561 C   0  0  0  0  0  0  0  0  0  0  0  0
   -2.0397    1.9638    0.4152 C   0  0  0  0  0  0  0  0  0  0  0  0
   -2.7260    1.2360   -0.5795 C   0  0  0  0  0  0  0  0  0  0  0  0
   -2.6427   -0.4399   -1.9860 H   0  0  0  0  0  0  0  0  0  0  0  0
   -0.2262    2.2477    1.6248 H   0  0  0  0  0  0  0  0  0  0  0  0
    2.1443    0.3393    1.2318 N   0  0  0  0  0  0  0  0  0  0  0  0
    2.9855   -0.3584    1.0723 N   0  0  0  0  0  0  0  0  0  0  0  0
   -3.7340    1.5465   -0.8464 H   0  0  0  0  0  0  0  0  0  0  0  0
   -2.7270    3.1128    1.0446 N   0  0  0  0  0  0  0  0  0  0  0  0
   -3.8658    3.3795    0.6702 O   0  0  0  0  0  0  0  0  0  0  0  0
   -2.1146    3.7350    1.9088 O   0  0  0  0  0  0  0  0  0  0  0  0
  1  2  2  0  0  0  0
  1  6  1  0  0  0  0
  2  3  1  0  0  0  0
  3  4  2  0  0  0  0
  4  8  1  0  0  0  0
  5  4  1  0  0  0  0
  5 12  1  0  0  0  0
  6  5  2  0  0  0  0
  7  1  1  0  0  0  0
 10  9  3  0  0  0  0
 11  6  1  0  0  0  0
 12 14  2  0  0  0  0
 13 12  2  0  0  0  0
M  RAD  2   2   2   3   2
M  END
