Coordinates from ORCA-job 3-NO2-C6H3-N2-v1-B3LYPG-aug-cc-pVDZ-scan-d09-49-n400
 OpenBabel11091809163D

 14 13  0  0  0  0  0  0  0  0999 V2000
   -2.4496    0.1644   -1.3599 C   0  0  0  0  0  0  0  0  0  0  0  0
   -1.1599   -0.1857   -0.9773 C   0  0  0  0  0  0  0  0  0  0  0  0
   -0.4504    0.3772   -0.1129 C   0  0  0  0  0  0  0  0  0  0  0  0
   -0.7668    1.4721    0.6662 C   0  0  0  0  0  0  0  0  0  0  0  0
   -2.0771    1.8991    0.3391 C   0  0  0  0  0  0  0  0  0  0  0  0
   -2.8969    1.2831   -0.6297 C   0  0  0  0  0  0  0  0  0  0  0  0
   -3.0655   -0.3251   -2.1110 H   0  0  0  0  0  0  0  0  0  0  0  0
   -0.1672    1.9739    1.4192 H   0  0  0  0  0  0  0  0  0  0  0  0
    2.6921    0.6140    1.7619 N   0  0  0  0  0  0  0  0  0  0  0  0
    3.5741   -0.0417    1.6571 N   0  0  0  0  0  0  0  0  0  0  0  0
   -3.8901    1.6914   -0.8044 H   0  0  0  0  0  0  0  0  0  0  0  0
   -2.6144    3.0705    1.0670 N   0  0  0  0  0  0  0  0  0  0  0  0
   -3.7500    3.4491    0.7923 O   0  0  0  0  0  0  0  0  0  0  0  0
   -1.8897    3.5959    1.9078 O   0  0  0  0  0  0  0  0  0  0  0  0
  1  2  2  0  0  0  0
  1  6  1  0  0  0  0
  2  3  1  0  0  0  0
  3  4  2  0  0  0  0
  4  8  1  0  0  0  0
  5  4  1  0  0  0  0
  5 12  1  0  0  0  0
  6  5  2  0  0  0  0
  7  1  1  0  0  0  0
 10  9  3  0  0  0  0
 11  6  1  0  0  0  0
 12 14  2  0  0  0  0
 13 12  2  0  0  0  0
M  RAD  2   2   2   3   2
M  END
