Coordinates from ORCA-job 3-NO2-C6H3-N2-v1-B3LYPG-aug-cc-pVDZ-scan-d09-49-n400
 OpenBabel11091809163D

 14 13  0  0  0  0  0  0  0  0999 V2000
   -2.3645    0.1544   -1.3236 C   0  0  0  0  0  0  0  0  0  0  0  0
   -1.0752   -0.1573   -0.9081 C   0  0  0  0  0  0  0  0  0  0  0  0
   -0.3987    0.4343   -0.0364 C   0  0  0  0  0  0  0  0  0  0  0  0
   -0.7610    1.5307    0.7200 C   0  0  0  0  0  0  0  0  0  0  0  0
   -2.0739    1.9202    0.3593 C   0  0  0  0  0  0  0  0  0  0  0  0
   -2.8562    1.2707   -0.6186 C   0  0  0  0  0  0  0  0  0  0  0  0
   -2.9510   -0.3606   -2.0811 H   0  0  0  0  0  0  0  0  0  0  0  0
   -0.1897    2.0565    1.4787 H   0  0  0  0  0  0  0  0  0  0  0  0
    2.5961    0.5390    1.6454 N   0  0  0  0  0  0  0  0  0  0  0  0
    3.4322   -0.1625    1.4781 N   0  0  0  0  0  0  0  0  0  0  0  0
   -3.8553    1.6510   -0.8205 H   0  0  0  0  0  0  0  0  0  0  0  0
   -2.6563    3.0867    1.0595 N   0  0  0  0  0  0  0  0  0  0  0  0
   -3.7945    3.4330    0.7546 O   0  0  0  0  0  0  0  0  0  0  0  0
   -1.9633    3.6419    1.9079 O   0  0  0  0  0  0  0  0  0  0  0  0
  1  2  2  0  0  0  0
  1  6  1  0  0  0  0
  2  3  1  0  0  0  0
  3  4  2  0  0  0  0
  4  8  1  0  0  0  0
  5  4  1  0  0  0  0
  5 12  1  0  0  0  0
  6  5  2  0  0  0  0
  7  1  1  0  0  0  0
 10  9  3  0  0  0  0
 11  6  1  0  0  0  0
 12 14  2  0  0  0  0
 13 12  2  0  0  0  0
M  RAD  2   2   2   3   2
M  END
