Coordinates from ORCA-job 3-NO2-C6H3-N2-v1-B3LYPG-aug-cc-pVDZ-scan-d09-49-n400
 OpenBabel11091809163D

 14 13  0  0  0  0  0  0  0  0999 V2000
   -2.9588    0.2769   -1.5329 C   0  0  0  0  0  0  0  0  0  0  0  0
   -1.7212   -0.3424   -1.4117 C   0  0  0  0  0  0  0  0  0  0  0  0
   -0.7844   -0.0290   -0.6425 C   0  0  0  0  0  0  0  0  0  0  0  0
   -0.7549    1.0075    0.2709 C   0  0  0  0  0  0  0  0  0  0  0  0
   -1.9880    1.7016    0.2170 C   0  0  0  0  0  0  0  0  0  0  0  0
   -3.0548    1.3642   -0.6422 C   0  0  0  0  0  0  0  0  0  0  0  0
   -3.7686   -0.0009   -2.2038 H   0  0  0  0  0  0  0  0  0  0  0  0
    0.0414    1.3014    0.9486 H   0  0  0  0  0  0  0  0  0  0  0  0
    2.8181    1.2349    2.3648 N   0  0  0  0  0  0  0  0  0  0  0  0
    3.8324    1.0922    2.7769 N   0  0  0  0  0  0  0  0  0  0  0  0
   -3.9615    1.9642   -0.6042 H   0  0  0  0  0  0  0  0  0  0  0  0
   -2.1616    2.8569    1.1256 N   0  0  0  0  0  0  0  0  0  0  0  0
   -3.2259    3.4685    1.0840 O   0  0  0  0  0  0  0  0  0  0  0  0
   -1.2234    3.1420    1.8649 O   0  0  0  0  0  0  0  0  0  0  0  0
  1  2  2  0  0  0  0
  1  6  1  0  0  0  0
  2  3  1  0  0  0  0
  3  4  2  0  0  0  0
  4  8  1  0  0  0  0
  5  4  1  0  0  0  0
  5 12  1  0  0  0  0
  6 11  1  0  0  0  0
  6  5  2  0  0  0  0
  7  1  1  0  0  0  0
  9 10  3  0  0  0  0
 12 14  2  0  0  0  0
 13 12  2  0  0  0  0
M  RAD  2   2   2   3   2
M  END
