Coordinates from ORCA-job 3-NO2-C6H3-N2-v1-B3LYPG-aug-cc-pVDZ-scan-d09-49-n400
 OpenBabel11091809163D

 14 13  0  0  0  0  0  0  0  0999 V2000
   -2.2098    0.1392   -1.2542 C   0  0  0  0  0  0  0  0  0  0  0  0
   -0.9231   -0.1140   -0.7892 C   0  0  0  0  0  0  0  0  0  0  0  0
   -0.3111    0.5301    0.0930 C   0  0  0  0  0  0  0  0  0  0  0  0
   -0.7413    1.6253    0.8114 C   0  0  0  0  0  0  0  0  0  0  0  0
   -2.0549    1.9520    0.3956 C   0  0  0  0  0  0  0  0  0  0  0  0
   -2.7733    1.2487   -0.5943 C   0  0  0  0  0  0  0  0  0  0  0  0
   -2.7476   -0.4158   -2.0200 H   0  0  0  0  0  0  0  0  0  0  0  0
   -0.2164    2.1880    1.5770 H   0  0  0  0  0  0  0  0  0  0  0  0
    2.3169    0.3922    1.3699 N   0  0  0  0  0  0  0  0  0  0  0  0
    3.1598   -0.3037    1.2124 N   0  0  0  0  0  0  0  0  0  0  0  0
   -3.7791    1.5823   -0.8405 H   0  0  0  0  0  0  0  0  0  0  0  0
   -2.7092    3.1081    1.0475 N   0  0  0  0  0  0  0  0  0  0  0  0
   -3.8500    3.3982    0.6972 O   0  0  0  0  0  0  0  0  0  0  0  0
   -2.0720    3.7075    1.9096 O   0  0  0  0  0  0  0  0  0  0  0  0
  1  2  2  0  0  0  0
  1  6  1  0  0  0  0
  2  3  1  0  0  0  0
  3  4  2  0  0  0  0
  4  8  1  0  0  0  0
  5  4  1  0  0  0  0
  5 12  1  0  0  0  0
  6  5  2  0  0  0  0
  7  1  1  0  0  0  0
 10  9  3  0  0  0  0
 11  6  1  0  0  0  0
 12 14  2  0  0  0  0
 13 12  2  0  0  0  0
M  RAD  2   2   2   3   2
M  END
