Coordinates from ORCA-job 3-NO2-C6H3-N2-v1-B3LYPG-aug-cc-pVDZ-scan-d09-49-n400
 OpenBabel11091809163D

 14 14  0  0  0  0  0  0  0  0999 V2000
   -1.8721    0.1189   -1.0928 C   0  0  0  0  0  0  0  0  0  0  0  0
   -0.5494   -0.2937   -0.7478 C   0  0  0  0  0  0  0  0  0  0  0  0
   -0.0086    0.5730    0.2889 C   0  0  0  0  0  0  0  0  0  0  0  0
   -0.6574    1.6911    0.9129 C   0  0  0  0  0  0  0  0  0  0  0  0
   -1.9278    1.9683    0.4783 C   0  0  0  0  0  0  0  0  0  0  0  0
   -2.5508    1.1891   -0.5271 C   0  0  0  0  0  0  0  0  0  0  0  0
   -2.3937   -0.4533   -1.8651 H   0  0  0  0  0  0  0  0  0  0  0  0
   -0.1822    2.2925    1.6861 H   0  0  0  0  0  0  0  0  0  0  0  0
    1.1329    0.2953    0.6559 N   0  0  0  0  0  0  0  0  0  0  0  0
    2.1767    0.0137    0.9677 N   0  0  0  0  0  0  0  0  0  0  0  0
   -3.5619    1.4552   -0.8336 H   0  0  0  0  0  0  0  0  0  0  0  0
   -2.6522    3.1042    1.0771 N   0  0  0  0  0  0  0  0  0  0  0  0
   -3.7875    3.3286    0.6685 O   0  0  0  0  0  0  0  0  0  0  0  0
   -2.0773    3.7551    1.9462 O   0  0  0  0  0  0  0  0  0  0  0  0
  1  2  2  0  0  0  0
  1  6  1  0  0  0  0
  2  3  1  0  0  0  0
  3  9  1  0  0  0  0
  3  4  2  0  0  0  0
  4  8  1  0  0  0  0
  5  4  1  0  0  0  0
  5 12  1  0  0  0  0
  6  5  2  0  0  0  0
  7  1  1  0  0  0  0
  9 10  1  0  0  0  0
 11  6  1  0  0  0  0
 12 14  2  0  0  0  0
 13 12  2  0  0  0  0
M  RAD  3   2   2   9   2  10   3
M  END
