Coordinates from ORCA-job 3-NO2-C6H3-N2-v1-B3LYPG-aug-cc-pVDZ-scan-d09-49-n400
 OpenBabel11091809163D

 14 13  0  0  0  0  0  0  0  0999 V2000
   -2.7531    0.2161   -1.4762 C   0  0  0  0  0  0  0  0  0  0  0  0
   -1.4799   -0.2835   -1.2316 C   0  0  0  0  0  0  0  0  0  0  0  0
   -0.6379    0.1474   -0.4113 C   0  0  0  0  0  0  0  0  0  0  0  0
   -0.7698    1.2212    0.4477 C   0  0  0  0  0  0  0  0  0  0  0  0
   -2.0502    1.7982    0.2663 C   0  0  0  0  0  0  0  0  0  0  0  0
   -3.0128    1.3286   -0.6518 C   0  0  0  0  0  0  0  0  0  0  0  0
   -3.4804   -0.1630   -2.1907 H   0  0  0  0  0  0  0  0  0  0  0  0
   -0.0577    1.6148    1.1668 H   0  0  0  0  0  0  0  0  0  0  0  0
    2.8681    0.9596    2.1527 N   0  0  0  0  0  0  0  0  0  0  0  0
    3.8726    0.5294    2.3111 N   0  0  0  0  0  0  0  0  0  0  0  0
   -3.9681    1.8457   -0.7121 H   0  0  0  0  0  0  0  0  0  0  0  0
   -2.3939    2.9724    1.0995 N   0  0  0  0  0  0  0  0  0  0  0  0
   -3.5019    3.4808    0.9507 O   0  0  0  0  0  0  0  0  0  0  0  0
   -1.5464    3.3704    1.8943 O   0  0  0  0  0  0  0  0  0  0  0  0
  1  2  2  0  0  0  0
  1  6  1  0  0  0  0
  2  3  1  0  0  0  0
  3  4  2  0  0  0  0
  4  8  1  0  0  0  0
  5  4  1  0  0  0  0
  5 12  1  0  0  0  0
  6  5  2  0  0  0  0
  7  1  1  0  0  0  0
  9 10  3  0  0  0  0
 11  6  1  0  0  0  0
 12 14  2  0  0  0  0
 13 12  2  0  0  0  0
M  RAD  2   2   2   3   2
M  END
