Coordinates from ORCA-job 3-NO2-C6H3-N2-v1-B3LYPG-aug-cc-pVDZ-scan-d09-49-n400
 OpenBabel11091809163D

 14 14  0  0  0  0  0  0  0  0999 V2000
   -1.8564    0.1187   -1.0848 C   0  0  0  0  0  0  0  0  0  0  0  0
   -0.5478   -0.3229   -0.7713 C   0  0  0  0  0  0  0  0  0  0  0  0
    0.1102    0.5696    0.3551 C   0  0  0  0  0  0  0  0  0  0  0  0
   -0.6490    1.6844    0.9142 C   0  0  0  0  0  0  0  0  0  0  0  0
   -1.9130    1.9593    0.4795 C   0  0  0  0  0  0  0  0  0  0  0  0
   -2.5402    1.1865   -0.5231 C   0  0  0  0  0  0  0  0  0  0  0  0
   -2.3695   -0.4596   -1.8593 H   0  0  0  0  0  0  0  0  0  0  0  0
   -0.1737    2.2871    1.6877 H   0  0  0  0  0  0  0  0  0  0  0  0
    0.9837    0.3503    0.6246 N   0  0  0  0  0  0  0  0  0  0  0  0
    2.0625    0.0473    0.9293 N   0  0  0  0  0  0  0  0  0  0  0  0
   -3.5507    1.4516   -0.8312 H   0  0  0  0  0  0  0  0  0  0  0  0
   -2.6365    3.0982    1.0797 N   0  0  0  0  0  0  0  0  0  0  0  0
   -3.7706    3.3210    0.6679 O   0  0  0  0  0  0  0  0  0  0  0  0
   -2.0603    3.7468    1.9472 O   0  0  0  0  0  0  0  0  0  0  0  0
  1  2  2  0  0  0  0
  1  6  1  0  0  0  0
  2  3  1  0  0  0  0
  3  9  1  0  0  0  0
  3  4  2  0  0  0  0
  4  8  1  0  0  0  0
  5  4  1  0  0  0  0
  5 12  1  0  0  0  0
  6  5  2  0  0  0  0
  7  1  1  0  0  0  0
  9 10  1  0  0  0  0
 11  6  1  0  0  0  0
 12 14  2  0  0  0  0
 13 12  2  0  0  0  0
M  RAD  3   2   2   9   2  10   3
M  END
