Coordinates from ORCA-job 3-NO2-C6H3-N2-v1-B3LYPG-aug-cc-pVDZ-scan-d09-49-n400
 OpenBabel11091809163D

 14 13  0  0  0  0  0  0  0  0999 V2000
   -2.7107    0.2069   -1.4617 C   0  0  0  0  0  0  0  0  0  0  0  0
   -1.4333   -0.2702   -1.1952 C   0  0  0  0  0  0  0  0  0  0  0  0
   -0.6098    0.1811   -0.3669 C   0  0  0  0  0  0  0  0  0  0  0  0
   -0.7710    1.2598    0.4806 C   0  0  0  0  0  0  0  0  0  0  0  0
   -2.0577    1.8148    0.2767 C   0  0  0  0  0  0  0  0  0  0  0  0
   -2.9997    1.3220   -0.6506 C   0  0  0  0  0  0  0  0  0  0  0  0
   -3.4217   -0.1897   -2.1829 H   0  0  0  0  0  0  0  0  0  0  0  0
   -0.0750    1.6703    1.2059 H   0  0  0  0  0  0  0  0  0  0  0  0
    2.8581    0.9067    2.1023 N   0  0  0  0  0  0  0  0  0  0  0  0
    3.8499    0.4351    2.2165 N   0  0  0  0  0  0  0  0  0  0  0  0
   -3.9621    1.8233   -0.7287 H   0  0  0  0  0  0  0  0  0  0  0  0
   -2.4315    2.9903    1.0949 N   0  0  0  0  0  0  0  0  0  0  0  0
   -3.5453    3.4796    0.9265 O   0  0  0  0  0  0  0  0  0  0  0  0
   -1.6016    3.4083    1.8979 O   0  0  0  0  0  0  0  0  0  0  0  0
  1  2  2  0  0  0  0
  1  6  1  0  0  0  0
  2  3  1  0  0  0  0
  3  4  2  0  0  0  0
  4  8  1  0  0  0  0
  5  4  1  0  0  0  0
  5 12  1  0  0  0  0
  6  5  2  0  0  0  0
  7  1  1  0  0  0  0
  9 10  3  0  0  0  0
 11  6  1  0  0  0  0
 12 14  2  0  0  0  0
 13 12  2  0  0  0  0
M  RAD  2   2   2   3   2
M  END
