Coordinates from ORCA-job 3-NO2-C6H3-N2-v1-B3LYPG-aug-cc-pVDZ-scan-d09-49-n400
 OpenBabel11091809163D

 14 14  0  0  0  0  0  0  0  0999 V2000
   -1.8806    0.1223   -1.0945 C   0  0  0  0  0  0  0  0  0  0  0  0
   -0.5559   -0.2598   -0.7215 C   0  0  0  0  0  0  0  0  0  0  0  0
   -0.0892    0.5980    0.2688 C   0  0  0  0  0  0  0  0  0  0  0  0
   -0.6712    1.7044    0.9173 C   0  0  0  0  0  0  0  0  0  0  0  0
   -1.9515    1.9787    0.4745 C   0  0  0  0  0  0  0  0  0  0  0  0
   -2.5656    1.1956   -0.5294 C   0  0  0  0  0  0  0  0  0  0  0  0
   -2.3975   -0.4532   -1.8671 H   0  0  0  0  0  0  0  0  0  0  0  0
   -0.1916    2.3023    1.6895 H   0  0  0  0  0  0  0  0  0  0  0  0
    1.2667    0.2612    0.6976 N   0  0  0  0  0  0  0  0  0  0  0  0
    2.2960   -0.0813    0.9478 N   0  0  0  0  0  0  0  0  0  0  0  0
   -3.5764    1.4563   -0.8407 H   0  0  0  0  0  0  0  0  0  0  0  0
   -2.6773    3.1121    1.0698 N   0  0  0  0  0  0  0  0  0  0  0  0
   -3.8133    3.3373    0.6626 O   0  0  0  0  0  0  0  0  0  0  0  0
   -2.1038    3.7643    1.9407 O   0  0  0  0  0  0  0  0  0  0  0  0
  1  2  2  0  0  0  0
  1  6  1  0  0  0  0
  2  3  1  0  0  0  0
  3  9  1  0  0  0  0
  3  4  2  0  0  0  0
  4  8  1  0  0  0  0
  5  4  1  0  0  0  0
  5 12  1  0  0  0  0
  6  5  2  0  0  0  0
  7  1  1  0  0  0  0
  9 10  1  0  0  0  0
 11  6  1  0  0  0  0
 12 14  2  0  0  0  0
 13 12  2  0  0  0  0
M  RAD  3   2   2   9   2  10   3
M  END
