Coordinates from ORCA-job 3-NO2-C6H3-N2-v1-B3LYPG-aug-cc-pVDZ-scan-d09-49-n400
 OpenBabel11091809163D

 14 13  0  0  0  0  0  0  0  0999 V2000
   -1.9838    0.1222   -1.1492 C   0  0  0  0  0  0  0  0  0  0  0  0
   -0.6917   -0.0995   -0.6543 C   0  0  0  0  0  0  0  0  0  0  0  0
   -0.1996    0.6361    0.2437 C   0  0  0  0  0  0  0  0  0  0  0  0
   -0.6981    1.7221    0.9185 C   0  0  0  0  0  0  0  0  0  0  0  0
   -2.0045    1.9788    0.4462 C   0  0  0  0  0  0  0  0  0  0  0  0
   -2.6398    1.2134   -0.5537 C   0  0  0  0  0  0  0  0  0  0  0  0
   -2.4685   -0.4734   -1.9221 H   0  0  0  0  0  0  0  0  0  0  0  0
   -0.2226    2.3214    1.6898 H   0  0  0  0  0  0  0  0  0  0  0  0
    1.7933    0.3077    1.0182 N   0  0  0  0  0  0  0  0  0  0  0  0
    2.6201   -0.4054    0.8381 N   0  0  0  0  0  0  0  0  0  0  0  0
   -3.6493    1.4871   -0.8534 H   0  0  0  0  0  0  0  0  0  0  0  0
   -2.7349    3.1163    1.0421 N   0  0  0  0  0  0  0  0  0  0  0  0
   -3.8718    3.3454    0.6387 O   0  0  0  0  0  0  0  0  0  0  0  0
   -2.1603    3.7660    1.9127 O   0  0  0  0  0  0  0  0  0  0  0  0
  1  2  2  0  0  0  0
  1  6  1  0  0  0  0
  2  3  1  0  0  0  0
  3  4  2  0  0  0  0
  4  8  1  0  0  0  0
  5  4  1  0  0  0  0
  5 12  1  0  0  0  0
  6  5  2  0  0  0  0
  7  1  1  0  0  0  0
 10  9  3  0  0  0  0
 11  6  1  0  0  0  0
 12 14  2  0  0  0  0
 13 12  2  0  0  0  0
M  RAD  2   2   2   3   2
M  END
