Coordinates from ORCA-job 3-NO2-C6H3-N2-v1-B3LYPG-aug-cc-pVDZ-scan-d09-49-n400
 OpenBabel11091809163D

 14 13  0  0  0  0  0  0  0  0999 V2000
   -2.1986    0.1385   -1.2492 C   0  0  0  0  0  0  0  0  0  0  0  0
   -0.9120   -0.1110   -0.7813 C   0  0  0  0  0  0  0  0  0  0  0  0
   -0.3048    0.5364    0.1018 C   0  0  0  0  0  0  0  0  0  0  0  0
   -0.7401    1.6310    0.8180 C   0  0  0  0  0  0  0  0  0  0  0  0
   -2.0535    1.9534    0.3989 C   0  0  0  0  0  0  0  0  0  0  0  0
   -2.7673    1.2469   -0.5920 C   0  0  0  0  0  0  0  0  0  0  0  0
   -2.7330   -0.4189   -2.0157 H   0  0  0  0  0  0  0  0  0  0  0  0
   -0.2183    2.1958    1.5842 H   0  0  0  0  0  0  0  0  0  0  0  0
    2.2927    0.3816    1.3476 N   0  0  0  0  0  0  0  0  0  0  0  0
    3.1399   -0.3101    1.1954 N   0  0  0  0  0  0  0  0  0  0  0  0
   -3.7735    1.5771   -0.8411 H   0  0  0  0  0  0  0  0  0  0  0  0
   -2.7127    3.1081    1.0480 N   0  0  0  0  0  0  0  0  0  0  0  0
   -3.8522    3.3967    0.6922 O   0  0  0  0  0  0  0  0  0  0  0  0
   -2.0780    3.7125    1.9085 O   0  0  0  0  0  0  0  0  0  0  0  0
  1  2  2  0  0  0  0
  1  6  1  0  0  0  0
  2  3  1  0  0  0  0
  3  4  2  0  0  0  0
  4  8  1  0  0  0  0
  5  4  1  0  0  0  0
  5 12  1  0  0  0  0
  6  5  2  0  0  0  0
  7  1  1  0  0  0  0
 10  9  3  0  0  0  0
 11  6  1  0  0  0  0
 12 14  2  0  0  0  0
 13 12  2  0  0  0  0
M  RAD  2   2   2   3   2
M  END
