Coordinates from ORCA-job 3-NO2-C6H3-N2-v1-B3LYPG-aug-cc-pVDZ-scan-d09-49-n400
 OpenBabel11091809163D

 14 13  0  0  0  0  0  0  0  0999 V2000
   -2.0995    0.1298   -1.2043 C   0  0  0  0  0  0  0  0  0  0  0  0
   -0.8126   -0.0963   -0.7163 C   0  0  0  0  0  0  0  0  0  0  0  0
   -0.2568    0.5897    0.1731 C   0  0  0  0  0  0  0  0  0  0  0  0
   -0.7216    1.6799    0.8704 C   0  0  0  0  0  0  0  0  0  0  0  0
   -2.0336    1.9670    0.4218 C   0  0  0  0  0  0  0  0  0  0  0  0
   -2.7095    1.2314   -0.5744 C   0  0  0  0  0  0  0  0  0  0  0  0
   -2.6078   -0.4474   -1.9743 H   0  0  0  0  0  0  0  0  0  0  0  0
   -0.2274    2.2651    1.6398 H   0  0  0  0  0  0  0  0  0  0  0  0
    2.0828    0.3286    1.1897 N   0  0  0  0  0  0  0  0  0  0  0  0
    2.9188   -0.3739    1.0232 N   0  0  0  0  0  0  0  0  0  0  0  0
   -3.7180    1.5345   -0.8479 H   0  0  0  0  0  0  0  0  0  0  0  0
   -2.7310    3.1135    1.0441 N   0  0  0  0  0  0  0  0  0  0  0  0
   -3.8688    3.3731    0.6619 O   0  0  0  0  0  0  0  0  0  0  0  0
   -2.1263    3.7431    1.9085 O   0  0  0  0  0  0  0  0  0  0  0  0
  1  2  2  0  0  0  0
  1  6  1  0  0  0  0
  2  3  1  0  0  0  0
  3  4  2  0  0  0  0
  4  8  1  0  0  0  0
  5  4  1  0  0  0  0
  5 12  1  0  0  0  0
  6  5  2  0  0  0  0
  7  1  1  0  0  0  0
 10  9  3  0  0  0  0
 11  6  1  0  0  0  0
 12 14  2  0  0  0  0
 13 12  2  0  0  0  0
M  RAD  2   2   2   3   2
M  END
