Coordinates from ORCA-job 3-NO2-C6H3-N2-v1-B3LYPG-aug-cc-pVDZ-scan-d09-49-n400
 OpenBabel11091809163D

 14 13  0  0  0  0  0  0  0  0999 V2000
   -2.0813    0.1283   -1.1959 C   0  0  0  0  0  0  0  0  0  0  0  0
   -0.7942   -0.0949   -0.7053 C   0  0  0  0  0  0  0  0  0  0  0  0
   -0.2479    0.5982    0.1852 C   0  0  0  0  0  0  0  0  0  0  0  0
   -0.7177    1.6877    0.8790 C   0  0  0  0  0  0  0  0  0  0  0  0
   -2.0293    1.9691    0.4258 C   0  0  0  0  0  0  0  0  0  0  0  0
   -2.6985    1.2286   -0.5712 C   0  0  0  0  0  0  0  0  0  0  0  0
   -2.5854   -0.4523   -1.9665 H   0  0  0  0  0  0  0  0  0  0  0  0
   -0.2276    2.2760    1.6488 H   0  0  0  0  0  0  0  0  0  0  0  0
    2.0410    0.3232    1.1628 N   0  0  0  0  0  0  0  0  0  0  0  0
    2.8734   -0.3827    0.9917 N   0  0  0  0  0  0  0  0  0  0  0  0
   -3.7072    1.5269   -0.8489 H   0  0  0  0  0  0  0  0  0  0  0  0
   -2.7328    3.1142    1.0434 N   0  0  0  0  0  0  0  0  0  0  0  0
   -3.8705    3.3685    0.6574 O   0  0  0  0  0  0  0  0  0  0  0  0
   -2.1334    3.7474    1.9089 O   0  0  0  0  0  0  0  0  0  0  0  0
  1  2  2  0  0  0  0
  1  6  1  0  0  0  0
  2  3  1  0  0  0  0
  3  4  2  0  0  0  0
  4  8  1  0  0  0  0
  5  4  1  0  0  0  0
  5 12  1  0  0  0  0
  6  5  2  0  0  0  0
  7  1  1  0  0  0  0
 10  9  3  0  0  0  0
 11  6  1  0  0  0  0
 12 14  2  0  0  0  0
 13 12  2  0  0  0  0
M  RAD  2   2   2   3   2
M  END
