Coordinates from ORCA-job 3-NO2-C6H3-N2-v1-B3LYPG-aug-cc-pVDZ-scan-d09-49-n400
 OpenBabel11091809163D

 14 13  0  0  0  0  0  0  0  0999 V2000
   -2.8133    0.2303   -1.4958 C   0  0  0  0  0  0  0  0  0  0  0  0
   -1.5474   -0.3012   -1.2827 C   0  0  0  0  0  0  0  0  0  0  0  0
   -0.6797    0.1003   -0.4743 C   0  0  0  0  0  0  0  0  0  0  0  0
   -0.7697    1.1662    0.4001 C   0  0  0  0  0  0  0  0  0  0  0  0
   -2.0398    1.7743    0.2511 C   0  0  0  0  0  0  0  0  0  0  0  0
   -3.0310    1.3382   -0.6530 C   0  0  0  0  0  0  0  0  0  0  0  0
   -3.5631   -0.1231   -2.2000 H   0  0  0  0  0  0  0  0  0  0  0  0
   -0.0349    1.5349    1.1096 H   0  0  0  0  0  0  0  0  0  0  0  0
    2.8859    1.0338    2.2262 N   0  0  0  0  0  0  0  0  0  0  0  0
    3.9035    0.6659    2.4456 N   0  0  0  0  0  0  0  0  0  0  0  0
   -3.9750    1.8777   -0.6880 H   0  0  0  0  0  0  0  0  0  0  0  0
   -2.3399    2.9456    1.1049 N   0  0  0  0  0  0  0  0  0  0  0  0
   -3.4386    3.4810    0.9842 O   0  0  0  0  0  0  0  0  0  0  0  0
   -1.4682    3.3143    1.8874 O   0  0  0  0  0  0  0  0  0  0  0  0
  1  2  2  0  0  0  0
  1  6  1  0  0  0  0
  2  3  1  0  0  0  0
  3  4  2  0  0  0  0
  4  8  1  0  0  0  0
  5  4  1  0  0  0  0
  5 12  1  0  0  0  0
  6  5  2  0  0  0  0
  7  1  1  0  0  0  0
  9 10  3  0  0  0  0
 11  6  1  0  0  0  0
 12 14  2  0  0  0  0
 13 12  2  0  0  0  0
M  RAD  2   2   2   3   2
M  END
