Coordinates from ORCA-job 3-NO2-C6H3-N2-v1-B3LYPG-aug-cc-pVDZ-scan-d09-49-n400
 OpenBabel11091809163D

 14 13  0  0  0  0  0  0  0  0999 V2000
   -2.3406    0.1521   -1.3129 C   0  0  0  0  0  0  0  0  0  0  0  0
   -1.0516   -0.1490   -0.8884 C   0  0  0  0  0  0  0  0  0  0  0  0
   -0.3842    0.4502   -0.0150 C   0  0  0  0  0  0  0  0  0  0  0  0
   -0.7596    1.5470    0.7348 C   0  0  0  0  0  0  0  0  0  0  0  0
   -2.0728    1.9261    0.3650 C   0  0  0  0  0  0  0  0  0  0  0  0
   -2.8444    1.2674   -0.6153 C   0  0  0  0  0  0  0  0  0  0  0  0
   -2.9188   -0.3700   -2.0721 H   0  0  0  0  0  0  0  0  0  0  0  0
   -0.1945    2.0778    1.4946 H   0  0  0  0  0  0  0  0  0  0  0  0
    2.5642    0.5153    1.6079 N   0  0  0  0  0  0  0  0  0  0  0  0
    3.3934   -0.1922    1.4319 N   0  0  0  0  0  0  0  0  0  0  0  0
   -3.8450    1.6398   -0.8247 H   0  0  0  0  0  0  0  0  0  0  0  0
   -2.6675    3.0911    1.0573 N   0  0  0  0  0  0  0  0  0  0  0  0
   -3.8063    3.4282    0.7443 O   0  0  0  0  0  0  0  0  0  0  0  0
   -1.9836    3.6542    1.9078 O   0  0  0  0  0  0  0  0  0  0  0  0
  1  2  2  0  0  0  0
  1  6  1  0  0  0  0
  2  3  1  0  0  0  0
  3  4  2  0  0  0  0
  4  8  1  0  0  0  0
  5  4  1  0  0  0  0
  5 12  1  0  0  0  0
  6  5  2  0  0  0  0
  7  1  1  0  0  0  0
 10  9  3  0  0  0  0
 11  6  1  0  0  0  0
 12 14  2  0  0  0  0
 13 12  2  0  0  0  0
M  RAD  2   2   2   3   2
M  END
