Coordinates from ORCA-job 3-NO2-C6H3-N2-v1-B3LYPG-aug-cc-pVDZ-scan-d09-49-n400
 OpenBabel11091809163D

 14 13  0  0  0  0  0  0  0  0999 V2000
   -2.4944    0.1703   -1.3785 C   0  0  0  0  0  0  0  0  0  0  0  0
   -1.2053   -0.2002   -1.0136 C   0  0  0  0  0  0  0  0  0  0  0  0
   -0.4775    0.3462   -0.1538 C   0  0  0  0  0  0  0  0  0  0  0  0
   -0.7698    1.4398    0.6367 C   0  0  0  0  0  0  0  0  0  0  0  0
   -2.0777    1.8873    0.3283 C   0  0  0  0  0  0  0  0  0  0  0  0
   -2.9174    1.2898   -0.6351 C   0  0  0  0  0  0  0  0  0  0  0  0
   -3.1258   -0.3052   -2.1256 H   0  0  0  0  0  0  0  0  0  0  0  0
   -0.1540    1.9275    1.3861 H   0  0  0  0  0  0  0  0  0  0  0  0
    2.7378    0.6565    1.8231 N   0  0  0  0  0  0  0  0  0  0  0  0
    3.6417    0.0265    1.7516 N   0  0  0  0  0  0  0  0  0  0  0  0
   -3.9067    1.7131   -0.7950 H   0  0  0  0  0  0  0  0  0  0  0  0
   -2.5901    3.0607    1.0709 N   0  0  0  0  0  0  0  0  0  0  0  0
   -3.7236    3.4566    0.8128 O   0  0  0  0  0  0  0  0  0  0  0  0
   -1.8486    3.5693    1.9074 O   0  0  0  0  0  0  0  0  0  0  0  0
  1  2  2  0  0  0  0
  1  6  1  0  0  0  0
  2  3  1  0  0  0  0
  3  4  2  0  0  0  0
  4  8  1  0  0  0  0
  5  4  1  0  0  0  0
  5 12  1  0  0  0  0
  6  5  2  0  0  0  0
  7  1  1  0  0  0  0
 10  9  3  0  0  0  0
 11  6  1  0  0  0  0
 12 14  2  0  0  0  0
 13 12  2  0  0  0  0
M  RAD  2   2   2   3   2
M  END
