Coordinates from ORCA-job 3-NO2-C6H3-N2-v1-B3LYPG-aug-cc-pVDZ-scan-d09-49-n400
 OpenBabel11091809163D

 14 13  0  0  0  0  0  0  0  0999 V2000
   -2.4681    0.1670   -1.3676 C   0  0  0  0  0  0  0  0  0  0  0  0
   -1.1785   -0.1915   -0.9923 C   0  0  0  0  0  0  0  0  0  0  0  0
   -0.4612    0.3645   -0.1297 C   0  0  0  0  0  0  0  0  0  0  0  0
   -0.7687    1.4587    0.6539 C   0  0  0  0  0  0  0  0  0  0  0  0
   -2.0780    1.8943    0.3348 C   0  0  0  0  0  0  0  0  0  0  0  0
   -2.9058    1.2859   -0.6319 C   0  0  0  0  0  0  0  0  0  0  0  0
   -3.0903   -0.3169   -2.1172 H   0  0  0  0  0  0  0  0  0  0  0  0
   -0.1619    1.9540    1.4053 H   0  0  0  0  0  0  0  0  0  0  0  0
    2.7122    0.6310    1.7873 N   0  0  0  0  0  0  0  0  0  0  0  0
    3.6037   -0.0139    1.6965 N   0  0  0  0  0  0  0  0  0  0  0  0
   -3.8975    1.7003   -0.8006 H   0  0  0  0  0  0  0  0  0  0  0  0
   -2.6051    3.0664    1.0691 N   0  0  0  0  0  0  0  0  0  0  0  0
   -3.7394    3.4529    0.8004 O   0  0  0  0  0  0  0  0  0  0  0  0
   -1.8729    3.5855    1.9073 O   0  0  0  0  0  0  0  0  0  0  0  0
  1  2  2  0  0  0  0
  1  6  1  0  0  0  0
  2  3  1  0  0  0  0
  3  4  2  0  0  0  0
  4  8  1  0  0  0  0
  5  4  1  0  0  0  0
  5 12  1  0  0  0  0
  6  5  2  0  0  0  0
  7  1  1  0  0  0  0
 10  9  3  0  0  0  0
 11  6  1  0  0  0  0
 12 14  2  0  0  0  0
 13 12  2  0  0  0  0
M  RAD  2   2   2   3   2
M  END
