Coordinates from ORCA-job 3-NO2-C6H3-N2-v1-B3LYPG-aug-cc-pVDZ-scan-d09-49-n400
 OpenBabel11091809163D

 14 13  0  0  0  0  0  0  0  0999 V2000
   -2.6717    0.1992   -1.4479 C   0  0  0  0  0  0  0  0  0  0  0  0
   -1.3909   -0.2571   -1.1617 C   0  0  0  0  0  0  0  0  0  0  0  0
   -0.5848    0.2123   -0.3266 C   0  0  0  0  0  0  0  0  0  0  0  0
   -0.7719    1.2950    0.5111 C   0  0  0  0  0  0  0  0  0  0  0  0
   -2.0640    1.8292    0.2864 C   0  0  0  0  0  0  0  0  0  0  0  0
   -2.9870    1.3158   -0.6490 C   0  0  0  0  0  0  0  0  0  0  0  0
   -3.3677   -0.2131   -2.1750 H   0  0  0  0  0  0  0  0  0  0  0  0
   -0.0914    1.7212    1.2420 H   0  0  0  0  0  0  0  0  0  0  0  0
    2.8484    0.8581    2.0556 N   0  0  0  0  0  0  0  0  0  0  0  0
    3.8260    0.3502    2.1293 N   0  0  0  0  0  0  0  0  0  0  0  0
   -3.9555    1.8023   -0.7429 H   0  0  0  0  0  0  0  0  0  0  0  0
   -2.4655    3.0051    1.0908 N   0  0  0  0  0  0  0  0  0  0  0  0
   -3.5835    3.4777    0.9033 O   0  0  0  0  0  0  0  0  0  0  0  0
   -1.6517    3.4422    1.8999 O   0  0  0  0  0  0  0  0  0  0  0  0
  1  2  2  0  0  0  0
  1  6  1  0  0  0  0
  2  3  1  0  0  0  0
  3  4  2  0  0  0  0
  4  8  1  0  0  0  0
  5  4  1  0  0  0  0
  5 12  1  0  0  0  0
  6  5  2  0  0  0  0
  7  1  1  0  0  0  0
  9 10  3  0  0  0  0
 11  6  1  0  0  0  0
 12 14  2  0  0  0  0
 13 12  2  0  0  0  0
M  RAD  2   2   2   3   2
M  END
