Coordinates from ORCA-job 3-NO2-C6H3-N2-v1-B3LYPG-aug-cc-pVDZ-scan-d09-49-n400
 OpenBabel11091809163D

 14 13  0  0  0  0  0  0  0  0999 V2000
   -2.1244    0.1315   -1.2153 C   0  0  0  0  0  0  0  0  0  0  0  0
   -0.8381   -0.0996   -0.7313 C   0  0  0  0  0  0  0  0  0  0  0  0
   -0.2689    0.5774    0.1560 C   0  0  0  0  0  0  0  0  0  0  0  0
   -0.7255    1.6696    0.8569 C   0  0  0  0  0  0  0  0  0  0  0  0
   -2.0381    1.9652    0.4146 C   0  0  0  0  0  0  0  0  0  0  0  0
   -2.7237    1.2360   -0.5796 C   0  0  0  0  0  0  0  0  0  0  0  0
   -2.6393   -0.4416   -1.9840 H   0  0  0  0  0  0  0  0  0  0  0  0
   -0.2255    2.2513    1.6251 H   0  0  0  0  0  0  0  0  0  0  0  0
    2.1369    0.3380    1.2272 N   0  0  0  0  0  0  0  0  0  0  0  0
    2.9772   -0.3607    1.0678 N   0  0  0  0  0  0  0  0  0  0  0  0
   -3.7315    1.5461   -0.8474 H   0  0  0  0  0  0  0  0  0  0  0  0
   -2.7259    3.1150    1.0420 N   0  0  0  0  0  0  0  0  0  0  0  0
   -3.8674    3.3763    0.6720 O   0  0  0  0  0  0  0  0  0  0  0  0
   -2.1172    3.7337    1.9113 O   0  0  0  0  0  0  0  0  0  0  0  0
  1  2  2  0  0  0  0
  1  6  1  0  0  0  0
  2  3  1  0  0  0  0
  3  4  2  0  0  0  0
  4  8  1  0  0  0  0
  5  4  1  0  0  0  0
  5 12  1  0  0  0  0
  6  5  2  0  0  0  0
  7  1  1  0  0  0  0
 10  9  3  0  0  0  0
 11  6  1  0  0  0  0
 12 14  2  0  0  0  0
 13 12  2  0  0  0  0
M  RAD  2   2   2   3   2
M  END
