Coordinates from ORCA-job 3-NO2-C6H3-N2-v1-B3LYPG-aug-cc-pVDZ-scan-d09-49-n400
 OpenBabel11091809163D

 14 14  0  0  0  0  0  0  0  0999 V2000
   -1.9039    0.1222   -1.1070 C   0  0  0  0  0  0  0  0  0  0  0  0
   -0.5961   -0.1515   -0.6489 C   0  0  0  0  0  0  0  0  0  0  0  0
   -0.1531    0.6404    0.2720 C   0  0  0  0  0  0  0  0  0  0  0  0
   -0.6825    1.7267    0.9312 C   0  0  0  0  0  0  0  0  0  0  0  0
   -1.9800    1.9824    0.4631 C   0  0  0  0  0  0  0  0  0  0  0  0
   -2.5920    1.2020   -0.5378 C   0  0  0  0  0  0  0  0  0  0  0  0
   -2.3887   -0.4749   -1.8815 H   0  0  0  0  0  0  0  0  0  0  0  0
   -0.2074    2.3271    1.7035 H   0  0  0  0  0  0  0  0  0  0  0  0
    1.5048    0.3128    0.8690 N   0  0  0  0  0  0  0  0  0  0  0  0
    2.4075   -0.3301    0.7903 N   0  0  0  0  0  0  0  0  0  0  0  0
   -3.6019    1.4578   -0.8529 H   0  0  0  0  0  0  0  0  0  0  0  0
   -2.7167    3.1145    1.0518 N   0  0  0  0  0  0  0  0  0  0  0  0
   -3.8519    3.3366    0.6401 O   0  0  0  0  0  0  0  0  0  0  0  0
   -2.1493    3.7722    1.9223 O   0  0  0  0  0  0  0  0  0  0  0  0
  1  2  2  0  0  0  0
  1  6  1  0  0  0  0
  2  3  1  0  0  0  0
  3  9  1  0  0  0  0
  3  4  2  0  0  0  0
  4  8  1  0  0  0  0
  5  4  1  0  0  0  0
  5 12  1  0  0  0  0
  6  5  2  0  0  0  0
  7  1  1  0  0  0  0
 10  9  2  0  0  0  0
 11  6  1  0  0  0  0
 12 14  2  0  0  0  0
 13 12  2  0  0  0  0
M  RAD  2   2   2  10   2
M  END
