Coordinates from ORCA-job 3-NO2-C6H3-N2-v1-B3LYPG-aug-cc-pVDZ-scan-d09-49-n400
 OpenBabel11091809163D

 14 13  0  0  0  0  0  0  0  0999 V2000
   -2.7148    0.2078   -1.4633 C   0  0  0  0  0  0  0  0  0  0  0  0
   -1.4378   -0.2713   -1.1989 C   0  0  0  0  0  0  0  0  0  0  0  0
   -0.6125    0.1779   -0.3714 C   0  0  0  0  0  0  0  0  0  0  0  0
   -0.7705    1.2562    0.4780 C   0  0  0  0  0  0  0  0  0  0  0  0
   -2.0569    1.8128    0.2759 C   0  0  0  0  0  0  0  0  0  0  0  0
   -3.0009    1.3224   -0.6506 C   0  0  0  0  0  0  0  0  0  0  0  0
   -3.4274   -0.1870   -2.1839 H   0  0  0  0  0  0  0  0  0  0  0  0
   -0.0737    1.6657    1.2031 H   0  0  0  0  0  0  0  0  0  0  0  0
    2.8593    0.9119    2.1073 N   0  0  0  0  0  0  0  0  0  0  0  0
    3.8523    0.4436    2.2250 N   0  0  0  0  0  0  0  0  0  0  0  0
   -3.9627    1.8251   -0.7268 H   0  0  0  0  0  0  0  0  0  0  0  0
   -2.4282    2.9880    1.0958 N   0  0  0  0  0  0  0  0  0  0  0  0
   -3.5410    3.4799    0.9281 O   0  0  0  0  0  0  0  0  0  0  0  0
   -1.5963    3.4052    1.8970 O   0  0  0  0  0  0  0  0  0  0  0  0
  1  2  2  0  0  0  0
  1  6  1  0  0  0  0
  2  3  1  0  0  0  0
  3  4  2  0  0  0  0
  4  8  1  0  0  0  0
  5  4  1  0  0  0  0
  5 12  1  0  0  0  0
  6  5  2  0  0  0  0
  7  1  1  0  0  0  0
  9 10  3  0  0  0  0
 11  6  1  0  0  0  0
 12 14  2  0  0  0  0
 13 12  2  0  0  0  0
M  RAD  2   2   2   3   2
M  END
