Coordinates from ORCA-job 3-NO2-C6H3-N2-v1-B3LYPG-aug-cc-pVDZ-scan-d09-49-n400
 OpenBabel11091809163D

 14 13  0  0  0  0  0  0  0  0999 V2000
   -2.0576    0.1263   -1.1846 C   0  0  0  0  0  0  0  0  0  0  0  0
   -0.7701   -0.0936   -0.6907 C   0  0  0  0  0  0  0  0  0  0  0  0
   -0.2356    0.6089    0.2009 C   0  0  0  0  0  0  0  0  0  0  0  0
   -0.7127    1.6980    0.8893 C   0  0  0  0  0  0  0  0  0  0  0  0
   -2.0231    1.9725    0.4302 C   0  0  0  0  0  0  0  0  0  0  0  0
   -2.6840    1.2251   -0.5673 C   0  0  0  0  0  0  0  0  0  0  0  0
   -2.5562   -0.4587   -1.9555 H   0  0  0  0  0  0  0  0  0  0  0  0
   -0.2269    2.2898    1.6593 H   0  0  0  0  0  0  0  0  0  0  0  0
    1.9849    0.3169    1.1279 N   0  0  0  0  0  0  0  0  0  0  0  0
    2.8127   -0.3935    0.9513 N   0  0  0  0  0  0  0  0  0  0  0  0
   -3.6929    1.5174   -0.8507 H   0  0  0  0  0  0  0  0  0  0  0  0
   -2.7340    3.1161    1.0414 N   0  0  0  0  0  0  0  0  0  0  0  0
   -3.8730    3.3612    0.6532 O   0  0  0  0  0  0  0  0  0  0  0  0
   -2.1428    3.7517    1.9108 O   0  0  0  0  0  0  0  0  0  0  0  0
  1  2  2  0  0  0  0
  1  6  1  0  0  0  0
  2  3  1  0  0  0  0
  3  4  2  0  0  0  0
  4  8  1  0  0  0  0
  5  4  1  0  0  0  0
  5 12  1  0  0  0  0
  6  5  2  0  0  0  0
  7  1  1  0  0  0  0
 10  9  3  0  0  0  0
 11  6  1  0  0  0  0
 12 14  2  0  0  0  0
 13 12  2  0  0  0  0
M  RAD  2   2   2   3   2
M  END
