Coordinates from ORCA-job 3-NO2-C6H3-N2-v1-B3LYPG-aug-cc-pVDZ-scan-d09-49-n400
 OpenBabel11091809163D

 14 14  0  0  0  0  0  0  0  0999 V2000
   -1.8923    0.1238   -1.0993 C   0  0  0  0  0  0  0  0  0  0  0  0
   -0.5790   -0.1733   -0.6587 C   0  0  0  0  0  0  0  0  0  0  0  0
   -0.1454    0.6365    0.2725 C   0  0  0  0  0  0  0  0  0  0  0  0
   -0.6821    1.7252    0.9295 C   0  0  0  0  0  0  0  0  0  0  0  0
   -1.9766    1.9844    0.4660 C   0  0  0  0  0  0  0  0  0  0  0  0
   -2.5850    1.2012   -0.5349 C   0  0  0  0  0  0  0  0  0  0  0  0
   -2.3817   -0.4706   -1.8737 H   0  0  0  0  0  0  0  0  0  0  0  0
   -0.2052    2.3246    1.7016 H   0  0  0  0  0  0  0  0  0  0  0  0
    1.4492    0.3020    0.8300 N   0  0  0  0  0  0  0  0  0  0  0  0
    2.3856   -0.2961    0.8092 N   0  0  0  0  0  0  0  0  0  0  0  0
   -3.5950    1.4546   -0.8523 H   0  0  0  0  0  0  0  0  0  0  0  0
   -2.7118    3.1160    1.0547 N   0  0  0  0  0  0  0  0  0  0  0  0
   -3.8476    3.3372    0.6443 O   0  0  0  0  0  0  0  0  0  0  0  0
   -2.1444    3.7726    1.9264 O   0  0  0  0  0  0  0  0  0  0  0  0
  1  2  2  0  0  0  0
  1  6  1  0  0  0  0
  2  3  1  0  0  0  0
  3  9  1  0  0  0  0
  3  4  2  0  0  0  0
  4  8  1  0  0  0  0
  5  4  1  0  0  0  0
  5 12  1  0  0  0  0
  6  5  2  0  0  0  0
  7  1  1  0  0  0  0
 10  9  2  0  0  0  0
 11  6  1  0  0  0  0
 12 14  2  0  0  0  0
 13 12  2  0  0  0  0
M  RAD  2   2   2  10   2
M  END
