Coordinates from ORCA-job 3-NO2-C6H3-N2-v1-B3LYPG-aug-cc-pVDZ-scan-d09-49-n400
 OpenBabel11091809163D

 14 13  0  0  0  0  0  0  0  0999 V2000
   -2.0723    0.1275   -1.1918 C   0  0  0  0  0  0  0  0  0  0  0  0
   -0.7851   -0.0944   -0.6999 C   0  0  0  0  0  0  0  0  0  0  0  0
   -0.2434    0.6023    0.1911 C   0  0  0  0  0  0  0  0  0  0  0  0
   -0.7158    1.6915    0.8831 C   0  0  0  0  0  0  0  0  0  0  0  0
   -2.0270    1.9701    0.4276 C   0  0  0  0  0  0  0  0  0  0  0  0
   -2.6931    1.2271   -0.5696 C   0  0  0  0  0  0  0  0  0  0  0  0
   -2.5743   -0.4547   -1.9626 H   0  0  0  0  0  0  0  0  0  0  0  0
   -0.2275    2.2811    1.6531 H   0  0  0  0  0  0  0  0  0  0  0  0
    2.0199    0.3209    1.1496 N   0  0  0  0  0  0  0  0  0  0  0  0
    2.8505   -0.3867    0.9763 N   0  0  0  0  0  0  0  0  0  0  0  0
   -3.7019    1.5232   -0.8493 H   0  0  0  0  0  0  0  0  0  0  0  0
   -2.7334    3.1146    1.0430 N   0  0  0  0  0  0  0  0  0  0  0  0
   -3.8712    3.3661    0.6553 O   0  0  0  0  0  0  0  0  0  0  0  0
   -2.1367    3.7494    1.9092 O   0  0  0  0  0  0  0  0  0  0  0  0
  1  2  2  0  0  0  0
  1  6  1  0  0  0  0
  2  3  1  0  0  0  0
  3  4  2  0  0  0  0
  4  8  1  0  0  0  0
  5  4  1  0  0  0  0
  5 12  1  0  0  0  0
  6  5  2  0  0  0  0
  7  1  1  0  0  0  0
 10  9  3  0  0  0  0
 11  6  1  0  0  0  0
 12 14  2  0  0  0  0
 13 12  2  0  0  0  0
M  RAD  2   2   2   3   2
M  END
