Coordinates from ORCA-job 3-NO2-C6H3-N2-v1-B3LYPG-aug-cc-pVDZ-scan-d09-49-n400
 OpenBabel11091809163D

 14 13  0  0  0  0  0  0  0  0999 V2000
   -2.5945    0.1855   -1.4189 C   0  0  0  0  0  0  0  0  0  0  0  0
   -1.3087   -0.2326   -1.0970 C   0  0  0  0  0  0  0  0  0  0  0  0
   -0.5386    0.2733   -0.2493 C   0  0  0  0  0  0  0  0  0  0  0  0
   -0.7736    1.3615    0.5681 C   0  0  0  0  0  0  0  0  0  0  0  0
   -2.0741    1.8565    0.3050 C   0  0  0  0  0  0  0  0  0  0  0  0
   -2.9595    1.3042   -0.6443 C   0  0  0  0  0  0  0  0  0  0  0  0
   -3.2617   -0.2557   -2.1559 H   0  0  0  0  0  0  0  0  0  0  0  0
   -0.1215    1.8153    1.3081 H   0  0  0  0  0  0  0  0  0  0  0  0
    2.8178    0.7647    1.9593 N   0  0  0  0  0  0  0  0  0  0  0  0
    3.7646    0.1967    1.9627 N   0  0  0  0  0  0  0  0  0  0  0  0
   -3.9385    1.7622   -0.7686 H   0  0  0  0  0  0  0  0  0  0  0  0
   -2.5268    3.0320    1.0822 N   0  0  0  0  0  0  0  0  0  0  0  0
   -3.6520    3.4714    0.8605 O   0  0  0  0  0  0  0  0  0  0  0  0
   -1.7446    3.5032    1.9034 O   0  0  0  0  0  0  0  0  0  0  0  0
  1  2  2  0  0  0  0
  1  6  1  0  0  0  0
  2  3  1  0  0  0  0
  3  4  2  0  0  0  0
  4  8  1  0  0  0  0
  5  4  1  0  0  0  0
  5 12  1  0  0  0  0
  6  5  2  0  0  0  0
  7  1  1  0  0  0  0
  9 10  3  0  0  0  0
 11  6  1  0  0  0  0
 12 14  2  0  0  0  0
 13 12  2  0  0  0  0
M  RAD  2   2   2   3   2
M  END
