Coordinates from ORCA-job 3-NO2-C6H3-N2-v1-B3LYPG-aug-cc-pVDZ-scan-d09-49-n400
 OpenBabel11091809163D

 14 13  0  0  0  0  0  0  0  0999 V2000
   -2.5133    0.1731   -1.3863 C   0  0  0  0  0  0  0  0  0  0  0  0
   -1.2245   -0.2063   -1.0293 C   0  0  0  0  0  0  0  0  0  0  0  0
   -0.4888    0.3327   -0.1716 C   0  0  0  0  0  0  0  0  0  0  0  0
   -0.7711    1.4252    0.6238 C   0  0  0  0  0  0  0  0  0  0  0  0
   -2.0778    1.8817    0.3240 C   0  0  0  0  0  0  0  0  0  0  0  0
   -2.9259    1.2925   -0.6370 C   0  0  0  0  0  0  0  0  0  0  0  0
   -3.1514   -0.2962   -2.1318 H   0  0  0  0  0  0  0  0  0  0  0  0
   -0.1484    1.9064    1.3715 H   0  0  0  0  0  0  0  0  0  0  0  0
    2.7553    0.6758    1.8492 N   0  0  0  0  0  0  0  0  0  0  0  0
    3.6681    0.0573    1.7917 N   0  0  0  0  0  0  0  0  0  0  0  0
   -3.9136    1.7222   -0.7903 H   0  0  0  0  0  0  0  0  0  0  0  0
   -2.5792    3.0556    1.0733 N   0  0  0  0  0  0  0  0  0  0  0  0
   -3.7110    3.4603    0.8213 O   0  0  0  0  0  0  0  0  0  0  0  0
   -1.8297    3.5577    1.9066 O   0  0  0  0  0  0  0  0  0  0  0  0
  1  2  2  0  0  0  0
  1  6  1  0  0  0  0
  2  3  1  0  0  0  0
  3  4  2  0  0  0  0
  4  8  1  0  0  0  0
  5  4  1  0  0  0  0
  5 12  1  0  0  0  0
  6  5  2  0  0  0  0
  7  1  1  0  0  0  0
 10  9  3  0  0  0  0
 11  6  1  0  0  0  0
 12 14  2  0  0  0  0
 13 12  2  0  0  0  0
M  RAD  2   2   2   3   2
M  END
