Coordinates from ORCA-job 3-NO2-C6H3-N2-v1-B3LYPG-aug-cc-pVDZ-scan-d09-49-n400
 OpenBabel11091809163D

 14 13  0  0  0  0  0  0  0  0999 V2000
   -2.2880    0.1468   -1.2895 C   0  0  0  0  0  0  0  0  0  0  0  0
   -1.0000   -0.1330   -0.8471 C   0  0  0  0  0  0  0  0  0  0  0  0
   -0.3540    0.4839    0.0302 C   0  0  0  0  0  0  0  0  0  0  0  0
   -0.7539    1.5804    0.7668 C   0  0  0  0  0  0  0  0  0  0  0  0
   -2.0676    1.9375    0.3776 C   0  0  0  0  0  0  0  0  0  0  0  0
   -2.8171    1.2600   -0.6072 C   0  0  0  0  0  0  0  0  0  0  0  0
   -2.8490   -0.3893   -2.0518 H   0  0  0  0  0  0  0  0  0  0  0  0
   -0.2057    2.1248    1.5294 H   0  0  0  0  0  0  0  0  0  0  0  0
    2.4760    0.4617    1.5145 N   0  0  0  0  0  0  0  0  0  0  0  0
    3.3064   -0.2448    1.3402 N   0  0  0  0  0  0  0  0  0  0  0  0
   -3.8202    1.6161   -0.8321 H   0  0  0  0  0  0  0  0  0  0  0  0
   -2.6879    3.0989    1.0532 N   0  0  0  0  0  0  0  0  0  0  0  0
   -3.8273    3.4170    0.7233 O   0  0  0  0  0  0  0  0  0  0  0  0
   -2.0230    3.6783    1.9079 O   0  0  0  0  0  0  0  0  0  0  0  0
  1  2  2  0  0  0  0
  1  6  1  0  0  0  0
  2  3  1  0  0  0  0
  3  4  2  0  0  0  0
  4  8  1  0  0  0  0
  5  4  1  0  0  0  0
  5 12  1  0  0  0  0
  6  5  2  0  0  0  0
  7  1  1  0  0  0  0
 10  9  3  0  0  0  0
 11  6  1  0  0  0  0
 12 14  2  0  0  0  0
 13 12  2  0  0  0  0
M  RAD  2   2   2   3   2
M  END
