Coordinates from ORCA-job 3-NO2-C6H3-N2-v1-B3LYPG-aug-cc-pVDZ-scan-d09-49-n400
 OpenBabel11091809163D

 14 14  0  0  0  0  0  0  0  0999 V2000
   -1.8618    0.1186   -1.0877 C   0  0  0  0  0  0  0  0  0  0  0  0
   -0.5445   -0.3094   -0.7587 C   0  0  0  0  0  0  0  0  0  0  0  0
    0.0556    0.5659    0.3179 C   0  0  0  0  0  0  0  0  0  0  0  0
   -0.6509    1.6856    0.9122 C   0  0  0  0  0  0  0  0  0  0  0  0
   -1.9167    1.9623    0.4794 C   0  0  0  0  0  0  0  0  0  0  0  0
   -2.5431    1.1863   -0.5252 C   0  0  0  0  0  0  0  0  0  0  0  0
   -2.3789   -0.4570   -1.8608 H   0  0  0  0  0  0  0  0  0  0  0  0
   -0.1758    2.2875    1.6858 H   0  0  0  0  0  0  0  0  0  0  0  0
    1.0393    0.3299    0.6360 N   0  0  0  0  0  0  0  0  0  0  0  0
    2.0987    0.0433    0.9507 N   0  0  0  0  0  0  0  0  0  0  0  0
   -3.5540    1.4523   -0.8320 H   0  0  0  0  0  0  0  0  0  0  0  0
   -2.6402    3.0998    1.0801 N   0  0  0  0  0  0  0  0  0  0  0  0
   -3.7748    3.3235    0.6698 O   0  0  0  0  0  0  0  0  0  0  0  0
   -2.0641    3.7495    1.9478 O   0  0  0  0  0  0  0  0  0  0  0  0
  1  2  2  0  0  0  0
  1  6  1  0  0  0  0
  2  3  1  0  0  0  0
  3  9  1  0  0  0  0
  3  4  2  0  0  0  0
  4  8  1  0  0  0  0
  5  4  1  0  0  0  0
  5 12  1  0  0  0  0
  6  5  2  0  0  0  0
  7  1  1  0  0  0  0
  9 10  1  0  0  0  0
 11  6  1  0  0  0  0
 12 14  2  0  0  0  0
 13 12  2  0  0  0  0
M  RAD  3   2   2   9   2  10   3
M  END
