Coordinates from ORCA-job 3-NO2-C6H3-N2-v1-B3LYPG-aug-cc-pVDZ-scan-d09-49-n400
 OpenBabel11091809163D

 14 14  0  0  0  0  0  0  0  0999 V2000
   -1.9233    0.1217   -1.1177 C   0  0  0  0  0  0  0  0  0  0  0  0
   -0.6200   -0.1340   -0.6464 C   0  0  0  0  0  0  0  0  0  0  0  0
   -0.1677    0.6420    0.2659 C   0  0  0  0  0  0  0  0  0  0  0  0
   -0.6857    1.7270    0.9302 C   0  0  0  0  0  0  0  0  0  0  0  0
   -1.9863    1.9811    0.4591 C   0  0  0  0  0  0  0  0  0  0  0  0
   -2.6037    1.2044   -0.5418 C   0  0  0  0  0  0  0  0  0  0  0  0
   -2.4061   -0.4761   -1.8920 H   0  0  0  0  0  0  0  0  0  0  0  0
   -0.2110    2.3271    1.7023 H   0  0  0  0  0  0  0  0  0  0  0  0
    1.5811    0.3128    0.9098 N   0  0  0  0  0  0  0  0  0  0  0  0
    2.4585   -0.3564    0.7936 N   0  0  0  0  0  0  0  0  0  0  0  0
   -3.6135    1.4643   -0.8534 H   0  0  0  0  0  0  0  0  0  0  0  0
   -2.7225    3.1144    1.0491 N   0  0  0  0  0  0  0  0  0  0  0  0
   -3.8575    3.3385    0.6378 O   0  0  0  0  0  0  0  0  0  0  0  0
   -2.1535    3.7714    1.9187 O   0  0  0  0  0  0  0  0  0  0  0  0
  1  2  2  0  0  0  0
  1  6  1  0  0  0  0
  2  3  1  0  0  0  0
  3  9  1  0  0  0  0
  3  4  2  0  0  0  0
  4  8  1  0  0  0  0
  5  4  1  0  0  0  0
  5 12  1  0  0  0  0
  6  5  2  0  0  0  0
  7  1  1  0  0  0  0
 10  9  2  0  0  0  0
 11  6  1  0  0  0  0
 12 14  2  0  0  0  0
 13 12  2  0  0  0  0
M  RAD  2   2   2  10   2
M  END
