Coordinates from ORCA-job 3-NO2-C6H3-N2-v1-B3LYPG-aug-cc-pVDZ-scan-d09-49-n400
 OpenBabel11091809163D

 14 13  0  0  0  0  0  0  0  0999 V2000
   -2.5284    0.1751   -1.3925 C   0  0  0  0  0  0  0  0  0  0  0  0
   -1.2401   -0.2114   -1.0419 C   0  0  0  0  0  0  0  0  0  0  0  0
   -0.4985    0.3221   -0.1858 C   0  0  0  0  0  0  0  0  0  0  0  0
   -0.7713    1.4140    0.6141 C   0  0  0  0  0  0  0  0  0  0  0  0
   -2.0771    1.8772    0.3204 C   0  0  0  0  0  0  0  0  0  0  0  0
   -2.9322    1.2946   -0.6386 C   0  0  0  0  0  0  0  0  0  0  0  0
   -3.1719   -0.2891   -2.1365 H   0  0  0  0  0  0  0  0  0  0  0  0
   -0.1438    1.8910    1.3606 H   0  0  0  0  0  0  0  0  0  0  0  0
    2.7684    0.6916    1.8698 N   0  0  0  0  0  0  0  0  0  0  0  0
    3.6876    0.0817    1.8229 N   0  0  0  0  0  0  0  0  0  0  0  0
   -3.9183    1.7296   -0.7866 H   0  0  0  0  0  0  0  0  0  0  0  0
   -2.5699    3.0517    1.0746 N   0  0  0  0  0  0  0  0  0  0  0  0
   -3.7009    3.4622    0.8284 O   0  0  0  0  0  0  0  0  0  0  0  0
   -1.8149    3.5480    1.9063 O   0  0  0  0  0  0  0  0  0  0  0  0
  1  2  2  0  0  0  0
  1  6  1  0  0  0  0
  2  3  1  0  0  0  0
  3  4  2  0  0  0  0
  4  8  1  0  0  0  0
  5  4  1  0  0  0  0
  5 12  1  0  0  0  0
  6  5  2  0  0  0  0
  7  1  1  0  0  0  0
 10  9  3  0  0  0  0
 11  6  1  0  0  0  0
 12 14  2  0  0  0  0
 13 12  2  0  0  0  0
M  RAD  2   2   2   3   2
M  END
