Coordinates from ORCA-job 3-NO2-C6H3-N2-v1-B3LYPG-aug-cc-pVDZ-scan-d09-49-n400
 OpenBabel11091809163D

 14 13  0  0  0  0  0  0  0  0999 V2000
   -2.3437    0.1522   -1.3142 C   0  0  0  0  0  0  0  0  0  0  0  0
   -1.0547   -0.1503   -0.8908 C   0  0  0  0  0  0  0  0  0  0  0  0
   -0.3862    0.4483   -0.0177 C   0  0  0  0  0  0  0  0  0  0  0  0
   -0.7596    1.5452    0.7328 C   0  0  0  0  0  0  0  0  0  0  0  0
   -2.0727    1.9257    0.3640 C   0  0  0  0  0  0  0  0  0  0  0  0
   -2.8458    1.2680   -0.6158 C   0  0  0  0  0  0  0  0  0  0  0  0
   -2.9230   -0.3690   -2.0731 H   0  0  0  0  0  0  0  0  0  0  0  0
   -0.1936    2.0753    1.4923 H   0  0  0  0  0  0  0  0  0  0  0  0
    2.5689    0.5190    1.6135 N   0  0  0  0  0  0  0  0  0  0  0  0
    3.3976   -0.1890    1.4373 N   0  0  0  0  0  0  0  0  0  0  0  0
   -3.8461    1.6414   -0.8244 H   0  0  0  0  0  0  0  0  0  0  0  0
   -2.6658    3.0911    1.0569 N   0  0  0  0  0  0  0  0  0  0  0  0
   -3.8051    3.4283    0.7462 O   0  0  0  0  0  0  0  0  0  0  0  0
   -1.9814    3.6522    1.9084 O   0  0  0  0  0  0  0  0  0  0  0  0
  1  2  2  0  0  0  0
  1  6  1  0  0  0  0
  2  3  1  0  0  0  0
  3  4  2  0  0  0  0
  4  8  1  0  0  0  0
  5  4  1  0  0  0  0
  5 12  1  0  0  0  0
  6  5  2  0  0  0  0
  7  1  1  0  0  0  0
 10  9  3  0  0  0  0
 11  6  1  0  0  0  0
 12 14  2  0  0  0  0
 13 12  2  0  0  0  0
M  RAD  2   2   2   3   2
M  END
