Coordinates from ORCA-job 3-NO2-C6H3-N2-v1-B3LYPG-aug-cc-pVDZ-scan-d09-49-n400
 OpenBabel11091809163D

 14 13  0  0  0  0  0  0  0  0999 V2000
   -2.4347    0.1627   -1.3536 C   0  0  0  0  0  0  0  0  0  0  0  0
   -1.1449   -0.1809   -0.9653 C   0  0  0  0  0  0  0  0  0  0  0  0
   -0.4412    0.3873   -0.0995 C   0  0  0  0  0  0  0  0  0  0  0  0
   -0.7661    1.4823    0.6756 C   0  0  0  0  0  0  0  0  0  0  0  0
   -2.0769    1.9029    0.3428 C   0  0  0  0  0  0  0  0  0  0  0  0
   -2.8901    1.2810   -0.6278 C   0  0  0  0  0  0  0  0  0  0  0  0
   -3.0455   -0.3313   -2.1060 H   0  0  0  0  0  0  0  0  0  0  0  0
   -0.1718    1.9887    1.4299 H   0  0  0  0  0  0  0  0  0  0  0  0
    2.6762    0.6005    1.7417 N   0  0  0  0  0  0  0  0  0  0  0  0
    3.5508   -0.0634    1.6260 N   0  0  0  0  0  0  0  0  0  0  0  0
   -3.8845    1.6843   -0.8073 H   0  0  0  0  0  0  0  0  0  0  0  0
   -2.6221    3.0733    1.0659 N   0  0  0  0  0  0  0  0  0  0  0  0
   -3.7579    3.4465    0.7854 O   0  0  0  0  0  0  0  0  0  0  0  0
   -1.9025    3.6042    1.9076 O   0  0  0  0  0  0  0  0  0  0  0  0
  1  2  2  0  0  0  0
  1  6  1  0  0  0  0
  2  3  1  0  0  0  0
  3  4  2  0  0  0  0
  4  8  1  0  0  0  0
  5  4  1  0  0  0  0
  5 12  1  0  0  0  0
  6  5  2  0  0  0  0
  7  1  1  0  0  0  0
 10  9  3  0  0  0  0
 11  6  1  0  0  0  0
 12 14  2  0  0  0  0
 13 12  2  0  0  0  0
M  RAD  2   2   2   3   2
M  END
