Coordinates from ORCA-job 3-NO2-C6H3-N2-v1-B3LYPG-aug-cc-pVDZ-scan-d09-49-n400
 OpenBabel11091809163D

 14 14  0  0  0  0  0  0  0  0999 V2000
   -1.8808    0.1237   -1.0934 C   0  0  0  0  0  0  0  0  0  0  0  0
   -0.5568   -0.2420   -0.7068 C   0  0  0  0  0  0  0  0  0  0  0  0
   -0.1119    0.6091    0.2664 C   0  0  0  0  0  0  0  0  0  0  0  0
   -0.6756    1.7099    0.9200 C   0  0  0  0  0  0  0  0  0  0  0  0
   -1.9602    1.9817    0.4729 C   0  0  0  0  0  0  0  0  0  0  0  0
   -2.5707    1.1977   -0.5301 C   0  0  0  0  0  0  0  0  0  0  0  0
   -2.3916   -0.4561   -1.8667 H   0  0  0  0  0  0  0  0  0  0  0  0
   -0.1947    2.3066    1.6920 H   0  0  0  0  0  0  0  0  0  0  0  0
    1.3089    0.2659    0.7239 N   0  0  0  0  0  0  0  0  0  0  0  0
    2.3275   -0.1345    0.9183 N   0  0  0  0  0  0  0  0  0  0  0  0
   -3.5812    1.4547   -0.8444 H   0  0  0  0  0  0  0  0  0  0  0  0
   -2.6873    3.1140    1.0670 N   0  0  0  0  0  0  0  0  0  0  0  0
   -3.8229    3.3398    0.6588 O   0  0  0  0  0  0  0  0  0  0  0  0
   -2.1141    3.7678    1.9373 O   0  0  0  0  0  0  0  0  0  0  0  0
  1  2  2  0  0  0  0
  1  6  1  0  0  0  0
  2  3  1  0  0  0  0
  3  9  1  0  0  0  0
  3  4  2  0  0  0  0
  4  8  1  0  0  0  0
  5  4  1  0  0  0  0
  5 12  1  0  0  0  0
  6  5  2  0  0  0  0
  7  1  1  0  0  0  0
  9 10  1  0  0  0  0
 11  6  1  0  0  0  0
 12 14  2  0  0  0  0
 13 12  2  0  0  0  0
M  RAD  3   2   2   9   2  10   3
M  END
