Coordinates from ORCA-job 3-NO2-C6H3-N2-v1-B3LYPG-aug-cc-pVDZ-scan-d09-49-n400
 OpenBabel11091809163D

 14 13  0  0  0  0  0  0  0  0999 V2000
   -2.0010    0.1232   -1.1576 C   0  0  0  0  0  0  0  0  0  0  0  0
   -0.7110   -0.0942   -0.6602 C   0  0  0  0  0  0  0  0  0  0  0  0
   -0.2076    0.6321    0.2359 C   0  0  0  0  0  0  0  0  0  0  0  0
   -0.7026    1.7186    0.9134 C   0  0  0  0  0  0  0  0  0  0  0  0
   -2.0101    1.9778    0.4429 C   0  0  0  0  0  0  0  0  0  0  0  0
   -2.6506    1.2161   -0.5567 C   0  0  0  0  0  0  0  0  0  0  0  0
   -2.4876   -0.4706   -1.9302 H   0  0  0  0  0  0  0  0  0  0  0  0
   -0.2257    2.3167    1.6846 H   0  0  0  0  0  0  0  0  0  0  0  0
    1.8481    0.3063    1.0459 N   0  0  0  0  0  0  0  0  0  0  0  0
    2.6682   -0.4116    0.8579 N   0  0  0  0  0  0  0  0  0  0  0  0
   -3.6600    1.4936   -0.8530 H   0  0  0  0  0  0  0  0  0  0  0  0
   -2.7376    3.1163    1.0418 N   0  0  0  0  0  0  0  0  0  0  0  0
   -3.8742    3.3492    0.6396 O   0  0  0  0  0  0  0  0  0  0  0  0
   -2.1596    3.7647    1.9109 O   0  0  0  0  0  0  0  0  0  0  0  0
  1  2  2  0  0  0  0
  1  6  1  0  0  0  0
  2  3  1  0  0  0  0
  3  4  2  0  0  0  0
  4  8  1  0  0  0  0
  5  4  1  0  0  0  0
  5 12  1  0  0  0  0
  6  5  2  0  0  0  0
  7  1  1  0  0  0  0
 10  9  3  0  0  0  0
 11  6  1  0  0  0  0
 12 14  2  0  0  0  0
 13 12  2  0  0  0  0
M  RAD  2   2   2   3   2
M  END
