Coordinates from ORCA-job 3-NO2-C6H3-N2-v1-B3LYPG-aug-cc-pVDZ-scan-d09-49-n400
 OpenBabel11091809163D

 14 14  0  0  0  0  0  0  0  0999 V2000
   -1.8813    0.1232   -1.0940 C   0  0  0  0  0  0  0  0  0  0  0  0
   -0.5569   -0.2513   -0.7146 C   0  0  0  0  0  0  0  0  0  0  0  0
   -0.1021    0.6036    0.2669 C   0  0  0  0  0  0  0  0  0  0  0  0
   -0.6739    1.7072    0.9181 C   0  0  0  0  0  0  0  0  0  0  0  0
   -1.9564    1.9805    0.4734 C   0  0  0  0  0  0  0  0  0  0  0  0
   -2.5687    1.1970   -0.5300 C   0  0  0  0  0  0  0  0  0  0  0  0
   -2.3954   -0.4543   -1.8669 H   0  0  0  0  0  0  0  0  0  0  0  0
   -0.1934    2.3043    1.6902 H   0  0  0  0  0  0  0  0  0  0  0  0
    1.2909    0.2617    0.7109 N   0  0  0  0  0  0  0  0  0  0  0  0
    2.3156   -0.1077    0.9355 N   0  0  0  0  0  0  0  0  0  0  0  0
   -3.5794    1.4559   -0.8428 H   0  0  0  0  0  0  0  0  0  0  0  0
   -2.6825    3.1135    1.0681 N   0  0  0  0  0  0  0  0  0  0  0  0
   -3.8187    3.3387    0.6612 O   0  0  0  0  0  0  0  0  0  0  0  0
   -2.1092    3.7658    1.9393 O   0  0  0  0  0  0  0  0  0  0  0  0
  1  2  2  0  0  0  0
  1  6  1  0  0  0  0
  2  3  1  0  0  0  0
  3  9  1  0  0  0  0
  3  4  2  0  0  0  0
  4  8  1  0  0  0  0
  5  4  1  0  0  0  0
  5 12  1  0  0  0  0
  6  5  2  0  0  0  0
  7  1  1  0  0  0  0
  9 10  1  0  0  0  0
 11  6  1  0  0  0  0
 12 14  2  0  0  0  0
 13 12  2  0  0  0  0
M  RAD  3   2   2   9   2  10   3
M  END
