Coordinates from ORCA-job 3-NO2-C6H3-N2-v1-B3LYPG-aug-cc-pVDZ-scan-d09-49-n400
 OpenBabel11091809163D

 14 13  0  0  0  0  0  0  0  0999 V2000
   -2.3246    0.1504   -1.3059 C   0  0  0  0  0  0  0  0  0  0  0  0
   -1.0359   -0.1442   -0.8759 C   0  0  0  0  0  0  0  0  0  0  0  0
   -0.3754    0.4608   -0.0011 C   0  0  0  0  0  0  0  0  0  0  0  0
   -0.7580    1.5574    0.7448 C   0  0  0  0  0  0  0  0  0  0  0  0
   -2.0714    1.9297    0.3689 C   0  0  0  0  0  0  0  0  0  0  0  0
   -2.8362    1.2652   -0.6128 C   0  0  0  0  0  0  0  0  0  0  0  0
   -2.8975   -0.3760   -2.0660 H   0  0  0  0  0  0  0  0  0  0  0  0
   -0.1983    2.0926    1.5055 H   0  0  0  0  0  0  0  0  0  0  0  0
    2.5392    0.4985    1.5800 N   0  0  0  0  0  0  0  0  0  0  0  0
    3.3677   -0.2092    1.4036 N   0  0  0  0  0  0  0  0  0  0  0  0
   -3.8376    1.6325   -0.8271 H   0  0  0  0  0  0  0  0  0  0  0  0
   -2.6741    3.0936    1.0560 N   0  0  0  0  0  0  0  0  0  0  0  0
   -3.8131    3.4249    0.7377 O   0  0  0  0  0  0  0  0  0  0  0  0
   -1.9961    3.6619    1.9078 O   0  0  0  0  0  0  0  0  0  0  0  0
  1  2  2  0  0  0  0
  1  6  1  0  0  0  0
  2  3  1  0  0  0  0
  3  4  2  0  0  0  0
  4  8  1  0  0  0  0
  5  4  1  0  0  0  0
  5 12  1  0  0  0  0
  6  5  2  0  0  0  0
  7  1  1  0  0  0  0
 10  9  3  0  0  0  0
 11  6  1  0  0  0  0
 12 14  2  0  0  0  0
 13 12  2  0  0  0  0
M  RAD  2   2   2   3   2
M  END
