Coordinates from ORCA-job 3-NO2-C6H3-N2-v1-B3LYPG-aug-cc-pVDZ-scan-d09-49-n400
 OpenBabel11091809163D

 14 13  0  0  0  0  0  0  0  0999 V2000
   -2.7241    0.2096   -1.4661 C   0  0  0  0  0  0  0  0  0  0  0  0
   -1.4481   -0.2747   -1.2063 C   0  0  0  0  0  0  0  0  0  0  0  0
   -0.6185    0.1701   -0.3807 C   0  0  0  0  0  0  0  0  0  0  0  0
   -0.7700    1.2481    0.4704 C   0  0  0  0  0  0  0  0  0  0  0  0
   -2.0547    1.8100    0.2730 C   0  0  0  0  0  0  0  0  0  0  0  0
   -3.0035    1.3243   -0.6512 C   0  0  0  0  0  0  0  0  0  0  0  0
   -3.4405   -0.1816   -2.1851 H   0  0  0  0  0  0  0  0  0  0  0  0
   -0.0688    1.6535    1.1936 H   0  0  0  0  0  0  0  0  0  0  0  0
    2.8602    0.9237    2.1176 N   0  0  0  0  0  0  0  0  0  0  0  0
    3.8561    0.4646    2.2459 N   0  0  0  0  0  0  0  0  0  0  0  0
   -3.9635    1.8307   -0.7240 H   0  0  0  0  0  0  0  0  0  0  0  0
   -2.4189    2.9856    1.0953 N   0  0  0  0  0  0  0  0  0  0  0  0
   -3.5321    3.4790    0.9350 O   0  0  0  0  0  0  0  0  0  0  0  0
   -1.5848    3.3956    1.8979 O   0  0  0  0  0  0  0  0  0  0  0  0
  1  2  2  0  0  0  0
  1  6  1  0  0  0  0
  2  3  1  0  0  0  0
  3  4  2  0  0  0  0
  4  8  1  0  0  0  0
  5  4  1  0  0  0  0
  5 12  1  0  0  0  0
  6  5  2  0  0  0  0
  7  1  1  0  0  0  0
  9 10  3  0  0  0  0
 11  6  1  0  0  0  0
 12 14  2  0  0  0  0
 13 12  2  0  0  0  0
M  RAD  2   2   2   3   2
M  END
