Coordinates from ORCA-job 3-NO2-C6H3-N2-v1-B3LYPG-aug-cc-pVDZ-scan-d09-49-n400
 OpenBabel11091809163D

 14 13  0  0  0  0  0  0  0  0999 V2000
   -1.9466    0.1214   -1.1306 C   0  0  0  0  0  0  0  0  0  0  0  0
   -0.6484   -0.1165   -0.6469 C   0  0  0  0  0  0  0  0  0  0  0  0
   -0.1811    0.6414    0.2585 C   0  0  0  0  0  0  0  0  0  0  0  0
   -0.6902    1.7257    0.9281 C   0  0  0  0  0  0  0  0  0  0  0  0
   -1.9937    1.9791    0.4551 C   0  0  0  0  0  0  0  0  0  0  0  0
   -2.6177    1.2071   -0.5460 C   0  0  0  0  0  0  0  0  0  0  0  0
   -2.4287   -0.4760   -1.9048 H   0  0  0  0  0  0  0  0  0  0  0  0
   -0.2161    2.3256    1.7003 H   0  0  0  0  0  0  0  0  0  0  0  0
    1.6676    0.3120    0.9549 N   0  0  0  0  0  0  0  0  0  0  0  0
    2.5193   -0.3806    0.8033 N   0  0  0  0  0  0  0  0  0  0  0  0
   -3.6275    1.4722   -0.8528 H   0  0  0  0  0  0  0  0  0  0  0  0
   -2.7291    3.1133    1.0477 N   0  0  0  0  0  0  0  0  0  0  0  0
   -3.8626    3.3422    0.6348 O   0  0  0  0  0  0  0  0  0  0  0  0
   -2.1566    3.7713    1.9138 O   0  0  0  0  0  0  0  0  0  0  0  0
  1  2  2  0  0  0  0
  1  6  1  0  0  0  0
  2  3  1  0  0  0  0
  3  4  2  0  0  0  0
  4  8  1  0  0  0  0
  5  4  1  0  0  0  0
  5 12  1  0  0  0  0
  6  5  2  0  0  0  0
  7  1  1  0  0  0  0
 10  9  3  0  0  0  0
 11  6  1  0  0  0  0
 12 14  2  0  0  0  0
 13 12  2  0  0  0  0
M  RAD  2   2   2   3   2
M  END
