Coordinates from ORCA-job 3-NO2-C6H3-N2-v1-B3LYPG-aug-cc-pVDZ-scan-d09-49-n400
 OpenBabel11091809163D

 14 13  0  0  0  0  0  0  0  0999 V2000
   -2.6941    0.2031   -1.4555 C   0  0  0  0  0  0  0  0  0  0  0  0
   -1.4154   -0.2653   -1.1799 C   0  0  0  0  0  0  0  0  0  0  0  0
   -0.5991    0.1940   -0.3492 C   0  0  0  0  0  0  0  0  0  0  0  0
   -0.7704    1.2756    0.4937 C   0  0  0  0  0  0  0  0  0  0  0  0
   -2.0594    1.8217    0.2797 C   0  0  0  0  0  0  0  0  0  0  0  0
   -2.9936    1.3198   -0.6506 C   0  0  0  0  0  0  0  0  0  0  0  0
   -3.3989   -0.2005   -2.1789 H   0  0  0  0  0  0  0  0  0  0  0  0
   -0.0817    1.6942    1.2214 H   0  0  0  0  0  0  0  0  0  0  0  0
    2.8530    0.8861    2.0818 N   0  0  0  0  0  0  0  0  0  0  0  0
    3.8386    0.3979    2.1784 N   0  0  0  0  0  0  0  0  0  0  0  0
   -3.9584    1.8152   -0.7359 H   0  0  0  0  0  0  0  0  0  0  0  0
   -2.4447    2.9986    1.0907 N   0  0  0  0  0  0  0  0  0  0  0  0
   -3.5628    3.4768    0.9184 O   0  0  0  0  0  0  0  0  0  0  0  0
   -1.6243    3.4210    1.9011 O   0  0  0  0  0  0  0  0  0  0  0  0
  1  2  2  0  0  0  0
  1  6  1  0  0  0  0
  2  3  1  0  0  0  0
  3  4  2  0  0  0  0
  4  8  1  0  0  0  0
  5  4  1  0  0  0  0
  5 12  1  0  0  0  0
  6  5  2  0  0  0  0
  7  1  1  0  0  0  0
  9 10  3  0  0  0  0
 11  6  1  0  0  0  0
 12 14  2  0  0  0  0
 13 12  2  0  0  0  0
M  RAD  2   2   2   3   2
M  END
