Coordinates from ORCA-job 3-NO2-C6H3-N2-v1-B3LYPG-aug-cc-pVDZ-scan-d09-49-n400
 OpenBabel11091809163D

 14 13  0  0  0  0  0  0  0  0999 V2000
   -2.5707    0.1816   -1.4094 C   0  0  0  0  0  0  0  0  0  0  0  0
   -1.2839   -0.2253   -1.0770 C   0  0  0  0  0  0  0  0  0  0  0  0
   -0.5243    0.2910   -0.2261 C   0  0  0  0  0  0  0  0  0  0  0  0
   -0.7730    1.3807    0.5846 C   0  0  0  0  0  0  0  0  0  0  0  0
   -2.0755    1.8644    0.3103 C   0  0  0  0  0  0  0  0  0  0  0  0
   -2.9500    1.3009   -0.6426 C   0  0  0  0  0  0  0  0  0  0  0  0
   -3.2294   -0.2681   -2.1490 H   0  0  0  0  0  0  0  0  0  0  0  0
   -0.1298    1.8432    1.3270 H   0  0  0  0  0  0  0  0  0  0  0  0
    2.8019    0.7377    1.9276 N   0  0  0  0  0  0  0  0  0  0  0  0
    3.7391    0.1541    1.9124 N   0  0  0  0  0  0  0  0  0  0  0  0
   -3.9316    1.7506   -0.7756 H   0  0  0  0  0  0  0  0  0  0  0  0
   -2.5427    3.0398    1.0790 N   0  0  0  0  0  0  0  0  0  0  0  0
   -3.6705    3.4681    0.8492 O   0  0  0  0  0  0  0  0  0  0  0  0
   -1.7707    3.5194    1.9050 O   0  0  0  0  0  0  0  0  0  0  0  0
  1  2  2  0  0  0  0
  1  6  1  0  0  0  0
  2  3  1  0  0  0  0
  3  4  2  0  0  0  0
  4  8  1  0  0  0  0
  5  4  1  0  0  0  0
  5 12  1  0  0  0  0
  6  5  2  0  0  0  0
  7  1  1  0  0  0  0
 10  9  3  0  0  0  0
 11  6  1  0  0  0  0
 12 14  2  0  0  0  0
 13 12  2  0  0  0  0
M  RAD  2   2   2   3   2
M  END
