Coordinates from ORCA-job 3-NO2-C6H3-N2-v1-B3LYPG-aug-cc-pVDZ-scan-d09-49-n400
 OpenBabel11091809163D

 14 14  0  0  0  0  0  0  0  0999 V2000
   -1.8558    0.1185   -1.0845 C   0  0  0  0  0  0  0  0  0  0  0  0
   -0.5480   -0.3240   -0.7728 C   0  0  0  0  0  0  0  0  0  0  0  0
    0.1160    0.5731    0.3561 C   0  0  0  0  0  0  0  0  0  0  0  0
   -0.6480    1.6854    0.9131 C   0  0  0  0  0  0  0  0  0  0  0  0
   -1.9122    1.9596    0.4787 C   0  0  0  0  0  0  0  0  0  0  0  0
   -2.5395    1.1868   -0.5233 C   0  0  0  0  0  0  0  0  0  0  0  0
   -2.3690   -0.4607   -1.8583 H   0  0  0  0  0  0  0  0  0  0  0  0
   -0.1730    2.2879    1.6869 H   0  0  0  0  0  0  0  0  0  0  0  0
    0.9790    0.3523    0.6236 N   0  0  0  0  0  0  0  0  0  0  0  0
    2.0571    0.0444    0.9301 N   0  0  0  0  0  0  0  0  0  0  0  0
   -3.5502    1.4516   -0.8311 H   0  0  0  0  0  0  0  0  0  0  0  0
   -2.6361    3.0981    1.0794 N   0  0  0  0  0  0  0  0  0  0  0  0
   -3.7712    3.3192    0.6694 O   0  0  0  0  0  0  0  0  0  0  0  0
   -2.0605    3.7458    1.9480 O   0  0  0  0  0  0  0  0  0  0  0  0
  1  2  2  0  0  0  0
  1  6  1  0  0  0  0
  2  3  1  0  0  0  0
  3  9  1  0  0  0  0
  3  4  2  0  0  0  0
  4  8  1  0  0  0  0
  5  4  1  0  0  0  0
  5 12  1  0  0  0  0
  6  5  2  0  0  0  0
  7  1  1  0  0  0  0
  9 10  1  0  0  0  0
 11  6  1  0  0  0  0
 12 14  2  0  0  0  0
 13 12  2  0  0  0  0
M  RAD  3   2   2   9   2  10   3
M  END
