Coordinates from ORCA-job 3-NO2-C6H3-N2-v1-B3LYPG-aug-cc-pVDZ-scan-d09-49-n400
 OpenBabel11091809163D

 14 14  0  0  0  0  0  0  0  0999 V2000
   -1.8816    0.1237   -1.0938 C   0  0  0  0  0  0  0  0  0  0  0  0
   -0.5574   -0.2463   -0.7106 C   0  0  0  0  0  0  0  0  0  0  0  0
   -0.1080    0.6067    0.2663 C   0  0  0  0  0  0  0  0  0  0  0  0
   -0.6753    1.7087    0.9188 C   0  0  0  0  0  0  0  0  0  0  0  0
   -1.9589    1.9814    0.4730 C   0  0  0  0  0  0  0  0  0  0  0  0
   -2.5703    1.1976   -0.5302 C   0  0  0  0  0  0  0  0  0  0  0  0
   -2.3940   -0.4550   -1.8668 H   0  0  0  0  0  0  0  0  0  0  0  0
   -0.1945    2.3056    1.6908 H   0  0  0  0  0  0  0  0  0  0  0  0
    1.3035    0.2628    0.7185 N   0  0  0  0  0  0  0  0  0  0  0  0
    2.3251   -0.1228    0.9274 N   0  0  0  0  0  0  0  0  0  0  0  0
   -3.5809    1.4555   -0.8438 H   0  0  0  0  0  0  0  0  0  0  0  0
   -2.6854    3.1140    1.0673 N   0  0  0  0  0  0  0  0  0  0  0  0
   -3.8214    3.3394    0.6601 O   0  0  0  0  0  0  0  0  0  0  0  0
   -2.1122    3.7669    1.9382 O   0  0  0  0  0  0  0  0  0  0  0  0
  1  2  2  0  0  0  0
  1  6  1  0  0  0  0
  2  3  1  0  0  0  0
  3  9  1  0  0  0  0
  3  4  2  0  0  0  0
  4  8  1  0  0  0  0
  5  4  1  0  0  0  0
  5 12  1  0  0  0  0
  6  5  2  0  0  0  0
  7  1  1  0  0  0  0
  9 10  1  0  0  0  0
 11  6  1  0  0  0  0
 12 14  2  0  0  0  0
 13 12  2  0  0  0  0
M  RAD  3   2   2   9   2  10   3
M  END
