Coordinates from ORCA-job 3-NO2-C6H3-N2-v1-B3LYPG-aug-cc-pVDZ-scan-d09-49-n400
 OpenBabel11091809163D

 14 13  0  0  0  0  0  0  0  0999 V2000
   -2.0604    0.1267   -1.1861 C   0  0  0  0  0  0  0  0  0  0  0  0
   -0.7730   -0.0932   -0.6923 C   0  0  0  0  0  0  0  0  0  0  0  0
   -0.2365    0.6075    0.1993 C   0  0  0  0  0  0  0  0  0  0  0  0
   -0.7138    1.6966    0.8884 C   0  0  0  0  0  0  0  0  0  0  0  0
   -2.0244    1.9717    0.4302 C   0  0  0  0  0  0  0  0  0  0  0  0
   -2.6860    1.2254   -0.5675 C   0  0  0  0  0  0  0  0  0  0  0  0
   -2.5595   -0.4577   -1.9572 H   0  0  0  0  0  0  0  0  0  0  0  0
   -0.2275    2.2877    1.6586 H   0  0  0  0  0  0  0  0  0  0  0  0
    1.9926    0.3174    1.1322 N   0  0  0  0  0  0  0  0  0  0  0  0
    2.8207   -0.3926    0.9554 N   0  0  0  0  0  0  0  0  0  0  0  0
   -3.6950    1.5182   -0.8502 H   0  0  0  0  0  0  0  0  0  0  0  0
   -2.7347    3.1152    1.0425 N   0  0  0  0  0  0  0  0  0  0  0  0
   -3.8724    3.3631    0.6525 O   0  0  0  0  0  0  0  0  0  0  0  0
   -2.1415    3.7522    1.9095 O   0  0  0  0  0  0  0  0  0  0  0  0
  1  2  2  0  0  0  0
  1  6  1  0  0  0  0
  2  3  1  0  0  0  0
  3  4  2  0  0  0  0
  4  8  1  0  0  0  0
  5  4  1  0  0  0  0
  5 12  1  0  0  0  0
  6  5  2  0  0  0  0
  7  1  1  0  0  0  0
 10  9  3  0  0  0  0
 11  6  1  0  0  0  0
 12 14  2  0  0  0  0
 13 12  2  0  0  0  0
M  RAD  2   2   2   3   2
M  END
