Coordinates from ORCA-job 3-NO2-C6H3-N2-v1-B3LYPG-aug-cc-pVDZ-scan-d09-49-n400
 OpenBabel11091809163D

 14 14  0  0  0  0  0  0  0  0999 V2000
   -1.8762    0.1196   -1.0944 C   0  0  0  0  0  0  0  0  0  0  0  0
   -0.5519   -0.2807   -0.7374 C   0  0  0  0  0  0  0  0  0  0  0  0
   -0.0458    0.5823    0.2783 C   0  0  0  0  0  0  0  0  0  0  0  0
   -0.6624    1.6965    0.9151 C   0  0  0  0  0  0  0  0  0  0  0  0
   -1.9367    1.9728    0.4773 C   0  0  0  0  0  0  0  0  0  0  0  0
   -2.5561    1.1915   -0.5280 C   0  0  0  0  0  0  0  0  0  0  0  0
   -2.3976   -0.4526   -1.8666 H   0  0  0  0  0  0  0  0  0  0  0  0
   -0.1856    2.2966    1.6878 H   0  0  0  0  0  0  0  0  0  0  0  0
    1.1892    0.2754    0.6687 N   0  0  0  0  0  0  0  0  0  0  0  0
    2.2269   -0.0181    0.9658 N   0  0  0  0  0  0  0  0  0  0  0  0
   -3.5670    1.4562   -0.8360 H   0  0  0  0  0  0  0  0  0  0  0  0
   -2.6620    3.1077    1.0741 N   0  0  0  0  0  0  0  0  0  0  0  0
   -3.7978    3.3320    0.6662 O   0  0  0  0  0  0  0  0  0  0  0  0
   -2.0882    3.7590    1.9444 O   0  0  0  0  0  0  0  0  0  0  0  0
  1  2  2  0  0  0  0
  1  6  1  0  0  0  0
  2  3  1  0  0  0  0
  3  9  1  0  0  0  0
  3  4  2  0  0  0  0
  4  8  1  0  0  0  0
  5  4  1  0  0  0  0
  5 12  1  0  0  0  0
  6  5  2  0  0  0  0
  7  1  1  0  0  0  0
  9 10  1  0  0  0  0
 11  6  1  0  0  0  0
 12 14  2  0  0  0  0
 13 12  2  0  0  0  0
M  RAD  3   2   2   9   2  10   3
M  END
