Coordinates from ORCA-job 3-NO2-C6H3-N2-v1-B3LYPG-aug-cc-pVDZ-scan-d09-49-n400
 OpenBabel11091809163D

 14 13  0  0  0  0  0  0  0  0999 V2000
   -2.1399    0.1333   -1.2228 C   0  0  0  0  0  0  0  0  0  0  0  0
   -0.8534   -0.1013   -0.7422 C   0  0  0  0  0  0  0  0  0  0  0  0
   -0.2766    0.5691    0.1449 C   0  0  0  0  0  0  0  0  0  0  0  0
   -0.7293    1.6610    0.8499 C   0  0  0  0  0  0  0  0  0  0  0  0
   -2.0423    1.9618    0.4127 C   0  0  0  0  0  0  0  0  0  0  0  0
   -2.7334    1.2378   -0.5816 C   0  0  0  0  0  0  0  0  0  0  0  0
   -2.6585   -0.4362   -1.9915 H   0  0  0  0  0  0  0  0  0  0  0  0
   -0.2254    2.2391    1.6183 H   0  0  0  0  0  0  0  0  0  0  0  0
    2.1704    0.3450    1.2506 N   0  0  0  0  0  0  0  0  0  0  0  0
    3.0147   -0.3496    1.0950 N   0  0  0  0  0  0  0  0  0  0  0  0
   -3.7411    1.5518   -0.8453 H   0  0  0  0  0  0  0  0  0  0  0  0
   -2.7249    3.1117    1.0457 N   0  0  0  0  0  0  0  0  0  0  0  0
   -3.8633    3.3830    0.6735 O   0  0  0  0  0  0  0  0  0  0  0  0
   -2.1082    3.7317    1.9083 O   0  0  0  0  0  0  0  0  0  0  0  0
  1  2  2  0  0  0  0
  1  6  1  0  0  0  0
  2  3  1  0  0  0  0
  3  4  2  0  0  0  0
  4  8  1  0  0  0  0
  5  4  1  0  0  0  0
  5 12  1  0  0  0  0
  6  5  2  0  0  0  0
  7  1  1  0  0  0  0
 10  9  3  0  0  0  0
 11  6  1  0  0  0  0
 12 14  2  0  0  0  0
 13 12  2  0  0  0  0
M  RAD  2   2   2   3   2
M  END
