Coordinates from ORCA-job 3-NO2-C6H3-N2-v1-B3LYPG-aug-cc-pVDZ-scan-d09-49-n400
 OpenBabel11091809163D

 14 14  0  0  0  0  0  0  0  0999 V2000
   -1.8756    0.1196   -1.0942 C   0  0  0  0  0  0  0  0  0  0  0  0
   -0.5518   -0.2855   -0.7417 C   0  0  0  0  0  0  0  0  0  0  0  0
   -0.0341    0.5786    0.2813 C   0  0  0  0  0  0  0  0  0  0  0  0
   -0.6612    1.6944    0.9141 C   0  0  0  0  0  0  0  0  0  0  0  0
   -1.9340    1.9713    0.4777 C   0  0  0  0  0  0  0  0  0  0  0  0
   -2.5548    1.1908   -0.5278 C   0  0  0  0  0  0  0  0  0  0  0  0
   -2.3973   -0.4524   -1.8664 H   0  0  0  0  0  0  0  0  0  0  0  0
   -0.1848    2.2949    1.6870 H   0  0  0  0  0  0  0  0  0  0  0  0
    1.1730    0.2808    0.6647 N   0  0  0  0  0  0  0  0  0  0  0  0
    2.2126   -0.0061    0.9685 N   0  0  0  0  0  0  0  0  0  0  0  0
   -3.5658    1.4562   -0.8351 H   0  0  0  0  0  0  0  0  0  0  0  0
   -2.6588    3.1065    1.0753 N   0  0  0  0  0  0  0  0  0  0  0  0
   -3.7943    3.3313    0.6669 O   0  0  0  0  0  0  0  0  0  0  0  0
   -2.0844    3.7579    1.9449 O   0  0  0  0  0  0  0  0  0  0  0  0
  1  2  2  0  0  0  0
  1  6  1  0  0  0  0
  2  3  1  0  0  0  0
  3  9  1  0  0  0  0
  3  4  2  0  0  0  0
  4  8  1  0  0  0  0
  5  4  1  0  0  0  0
  5 12  1  0  0  0  0
  6  5  2  0  0  0  0
  7  1  1  0  0  0  0
  9 10  1  0  0  0  0
 11  6  1  0  0  0  0
 12 14  2  0  0  0  0
 13 12  2  0  0  0  0
M  RAD  3   2   2   9   2  10   3
M  END
