Coordinates from ORCA-job 3-NO2-C6H3-N2-v1-B3LYPG-aug-cc-pVDZ-scan-d09-49-n400
 OpenBabel11091809163D

 14 14  0  0  0  0  0  0  0  0999 V2000
   -1.8792    0.1214   -1.0945 C   0  0  0  0  0  0  0  0  0  0  0  0
   -0.5543   -0.2645   -0.7249 C   0  0  0  0  0  0  0  0  0  0  0  0
   -0.0801    0.5947    0.2708 C   0  0  0  0  0  0  0  0  0  0  0  0
   -0.6688    1.7028    0.9174 C   0  0  0  0  0  0  0  0  0  0  0  0
   -1.9480    1.9773    0.4756 C   0  0  0  0  0  0  0  0  0  0  0  0
   -2.5630    1.1945   -0.5288 C   0  0  0  0  0  0  0  0  0  0  0  0
   -2.3974   -0.4530   -1.8671 H   0  0  0  0  0  0  0  0  0  0  0  0
   -0.1901    2.3012    1.6898 H   0  0  0  0  0  0  0  0  0  0  0  0
    1.2479    0.2635    0.6895 N   0  0  0  0  0  0  0  0  0  0  0  0
    2.2794   -0.0663    0.9518 N   0  0  0  0  0  0  0  0  0  0  0  0
   -3.5738    1.4560   -0.8393 H   0  0  0  0  0  0  0  0  0  0  0  0
   -2.6741    3.1107    1.0711 N   0  0  0  0  0  0  0  0  0  0  0  0
   -3.8096    3.3363    0.6629 O   0  0  0  0  0  0  0  0  0  0  0  0
   -2.1003    3.7636    1.9411 O   0  0  0  0  0  0  0  0  0  0  0  0
  1  2  2  0  0  0  0
  1  6  1  0  0  0  0
  2  3  1  0  0  0  0
  3  9  1  0  0  0  0
  3  4  2  0  0  0  0
  4  8  1  0  0  0  0
  5  4  1  0  0  0  0
  5 12  1  0  0  0  0
  6  5  2  0  0  0  0
  7  1  1  0  0  0  0
  9 10  1  0  0  0  0
 11  6  1  0  0  0  0
 12 14  2  0  0  0  0
 13 12  2  0  0  0  0
M  RAD  3   2   2   9   2  10   3
M  END
