Coordinates from ORCA-job 3-NO2-C6H3-N2-v1-B3LYPG-aug-cc-pVDZ-scan-d09-49-n400
 OpenBabel11091809163D

 14 14  0  0  0  0  0  0  0  0999 V2000
   -1.9214    0.1216   -1.1167 C   0  0  0  0  0  0  0  0  0  0  0  0
   -0.6178   -0.1353   -0.6461 C   0  0  0  0  0  0  0  0  0  0  0  0
   -0.1664    0.6419    0.2665 C   0  0  0  0  0  0  0  0  0  0  0  0
   -0.6850    1.7271    0.9303 C   0  0  0  0  0  0  0  0  0  0  0  0
   -1.9853    1.9813    0.4592 C   0  0  0  0  0  0  0  0  0  0  0  0
   -2.6024    1.2042   -0.5415 C   0  0  0  0  0  0  0  0  0  0  0  0
   -2.4043   -0.4764   -1.8910 H   0  0  0  0  0  0  0  0  0  0  0  0
   -0.2102    2.3274    1.7023 H   0  0  0  0  0  0  0  0  0  0  0  0
    1.5733    0.3134    0.9063 N   0  0  0  0  0  0  0  0  0  0  0  0
    2.4523   -0.3542    0.7926 N   0  0  0  0  0  0  0  0  0  0  0  0
   -3.6121    1.4638   -0.8535 H   0  0  0  0  0  0  0  0  0  0  0  0
   -2.7216    3.1147    1.0489 N   0  0  0  0  0  0  0  0  0  0  0  0
   -3.8571    3.3377    0.6385 O   0  0  0  0  0  0  0  0  0  0  0  0
   -2.1533    3.7710    1.9195 O   0  0  0  0  0  0  0  0  0  0  0  0
  1  2  2  0  0  0  0
  1  6  1  0  0  0  0
  2  3  1  0  0  0  0
  3  9  1  0  0  0  0
  3  4  2  0  0  0  0
  4  8  1  0  0  0  0
  5  4  1  0  0  0  0
  5 12  1  0  0  0  0
  6  5  2  0  0  0  0
  7  1  1  0  0  0  0
 10  9  2  0  0  0  0
 11  6  1  0  0  0  0
 12 14  2  0  0  0  0
 13 12  2  0  0  0  0
M  RAD  2   2   2  10   2
M  END
