Coordinates from ORCA-job 3-NO2-C6H3-N2-v1-B3LYPG-aug-cc-pVDZ-scan-d09-49-n400
 OpenBabel11091809163D

 14 14  0  0  0  0  0  0  0  0999 V2000
   -1.9173    0.1219   -1.1143 C   0  0  0  0  0  0  0  0  0  0  0  0
   -0.6125   -0.1392   -0.6469 C   0  0  0  0  0  0  0  0  0  0  0  0
   -0.1635    0.6417    0.2678 C   0  0  0  0  0  0  0  0  0  0  0  0
   -0.6848    1.7270    0.9305 C   0  0  0  0  0  0  0  0  0  0  0  0
   -1.9844    1.9816    0.4602 C   0  0  0  0  0  0  0  0  0  0  0  0
   -2.6001    1.2037   -0.5406 C   0  0  0  0  0  0  0  0  0  0  0  0
   -2.4006   -0.4758   -1.8886 H   0  0  0  0  0  0  0  0  0  0  0  0
   -0.2099    2.3272    1.7026 H   0  0  0  0  0  0  0  0  0  0  0  0
    1.5581    0.3128    0.8975 N   0  0  0  0  0  0  0  0  0  0  0  0
    2.4428   -0.3491    0.7920 N   0  0  0  0  0  0  0  0  0  0  0  0
   -3.6100    1.4623   -0.8533 H   0  0  0  0  0  0  0  0  0  0  0  0
   -2.7208    3.1146    1.0498 N   0  0  0  0  0  0  0  0  0  0  0  0
   -3.8560    3.3378    0.6386 O   0  0  0  0  0  0  0  0  0  0  0  0
   -2.1524    3.7716    1.9199 O   0  0  0  0  0  0  0  0  0  0  0  0
  1  2  2  0  0  0  0
  1  6  1  0  0  0  0
  2  3  1  0  0  0  0
  3  9  1  0  0  0  0
  3  4  2  0  0  0  0
  4  8  1  0  0  0  0
  5  4  1  0  0  0  0
  5 12  1  0  0  0  0
  6  5  2  0  0  0  0
  7  1  1  0  0  0  0
 10  9  2  0  0  0  0
 11  6  1  0  0  0  0
 12 14  2  0  0  0  0
 13 12  2  0  0  0  0
M  RAD  2   2   2  10   2
M  END
