Coordinates from ORCA-job 3-NO2-C6H3-N2-v1-B3LYPG-aug-cc-pVDZ-scan-d09-49-n400
 OpenBabel11091809163D

 14 13  0  0  0  0  0  0  0  0999 V2000
   -2.2735    0.1453   -1.2831 C   0  0  0  0  0  0  0  0  0  0  0  0
   -0.9858   -0.1293   -0.8363 C   0  0  0  0  0  0  0  0  0  0  0  0
   -0.3457    0.4923    0.0419 C   0  0  0  0  0  0  0  0  0  0  0  0
   -0.7515    1.5887    0.7752 C   0  0  0  0  0  0  0  0  0  0  0  0
   -2.0653    1.9401    0.3810 C   0  0  0  0  0  0  0  0  0  0  0  0
   -2.8090    1.2578   -0.6048 C   0  0  0  0  0  0  0  0  0  0  0  0
   -2.8302   -0.3943   -2.0461 H   0  0  0  0  0  0  0  0  0  0  0  0
   -0.2077    2.1365    1.5384 H   0  0  0  0  0  0  0  0  0  0  0  0
    2.4472    0.4492    1.4885 N   0  0  0  0  0  0  0  0  0  0  0  0
    3.2787   -0.2563    1.3156 N   0  0  0  0  0  0  0  0  0  0  0  0
   -3.8127    1.6097   -0.8337 H   0  0  0  0  0  0  0  0  0  0  0  0
   -2.6921    3.1005    1.0523 N   0  0  0  0  0  0  0  0  0  0  0  0
   -3.8316    3.4138    0.7182 O   0  0  0  0  0  0  0  0  0  0  0  0
   -2.0321    3.6840    1.9081 O   0  0  0  0  0  0  0  0  0  0  0  0
  1  2  2  0  0  0  0
  1  6  1  0  0  0  0
  2  3  1  0  0  0  0
  3  4  2  0  0  0  0
  4  8  1  0  0  0  0
  5  4  1  0  0  0  0
  5 12  1  0  0  0  0
  6  5  2  0  0  0  0
  7  1  1  0  0  0  0
 10  9  3  0  0  0  0
 11  6  1  0  0  0  0
 12 14  2  0  0  0  0
 13 12  2  0  0  0  0
M  RAD  2   2   2   3   2
M  END
