Coordinates from ORCA-job 3-NO2-C6H3-N2-v1-B3LYPG-aug-cc-pVDZ-scan-d09-49-n400
 OpenBabel11091809163D

 14 13  0  0  0  0  0  0  0  0999 V2000
   -2.3151    0.1493   -1.3015 C   0  0  0  0  0  0  0  0  0  0  0  0
   -1.0265   -0.1417   -0.8683 C   0  0  0  0  0  0  0  0  0  0  0  0
   -0.3702    0.4669    0.0070 C   0  0  0  0  0  0  0  0  0  0  0  0
   -0.7567    1.5638    0.7503 C   0  0  0  0  0  0  0  0  0  0  0  0
   -2.0703    1.9322    0.3707 C   0  0  0  0  0  0  0  0  0  0  0  0
   -2.8311    1.2640   -0.6116 C   0  0  0  0  0  0  0  0  0  0  0  0
   -2.8851   -0.3797   -2.0620 H   0  0  0  0  0  0  0  0  0  0  0  0
   -0.2002    2.1017    1.5113 H   0  0  0  0  0  0  0  0  0  0  0  0
    2.5236    0.4891    1.5636 N   0  0  0  0  0  0  0  0  0  0  0  0
    3.3519   -0.2194    1.3869 N   0  0  0  0  0  0  0  0  0  0  0  0
   -3.8329    1.6285   -0.8288 H   0  0  0  0  0  0  0  0  0  0  0  0
   -2.6774    3.0958    1.0543 N   0  0  0  0  0  0  0  0  0  0  0  0
   -3.8175    3.4221    0.7348 O   0  0  0  0  0  0  0  0  0  0  0  0
   -2.0037    3.6655    1.9087 O   0  0  0  0  0  0  0  0  0  0  0  0
  1  2  2  0  0  0  0
  1  6  1  0  0  0  0
  2  3  1  0  0  0  0
  3  4  2  0  0  0  0
  4  8  1  0  0  0  0
  5  4  1  0  0  0  0
  5 12  1  0  0  0  0
  6  5  2  0  0  0  0
  7  1  1  0  0  0  0
 10  9  3  0  0  0  0
 11  6  1  0  0  0  0
 12 14  2  0  0  0  0
 13 12  2  0  0  0  0
M  RAD  2   2   2   3   2
M  END
