Coordinates from ORCA-job 3-NO2-C6H3-N2-v1-B3LYPG-aug-cc-pVDZ-scan-d09-49-n400
 OpenBabel11091809163D

 14 13  0  0  0  0  0  0  0  0999 V2000
   -2.7733    0.2204   -1.4827 C   0  0  0  0  0  0  0  0  0  0  0  0
   -1.5024   -0.2899   -1.2481 C   0  0  0  0  0  0  0  0  0  0  0  0
   -0.6519    0.1316   -0.4318 C   0  0  0  0  0  0  0  0  0  0  0  0
   -0.7690    1.2037    0.4323 C   0  0  0  0  0  0  0  0  0  0  0  0
   -2.0463    1.7907    0.2605 C   0  0  0  0  0  0  0  0  0  0  0  0
   -3.0187    1.3319   -0.6528 C   0  0  0  0  0  0  0  0  0  0  0  0
   -3.5081   -0.1504   -2.1937 H   0  0  0  0  0  0  0  0  0  0  0  0
   -0.0503    1.5905    1.1486 H   0  0  0  0  0  0  0  0  0  0  0  0
    2.8747    0.9843    2.1772 N   0  0  0  0  0  0  0  0  0  0  0  0
    3.8838    0.5728    2.3550 N   0  0  0  0  0  0  0  0  0  0  0  0
   -3.9702    1.8568   -0.7050 H   0  0  0  0  0  0  0  0  0  0  0  0
   -2.3757    2.9648    1.0998 N   0  0  0  0  0  0  0  0  0  0  0  0
   -3.4822    3.4799    0.9626 O   0  0  0  0  0  0  0  0  0  0  0  0
   -1.5217    3.3511    1.8934 O   0  0  0  0  0  0  0  0  0  0  0  0
  1  2  2  0  0  0  0
  1  6  1  0  0  0  0
  2  3  1  0  0  0  0
  3  4  2  0  0  0  0
  4  8  1  0  0  0  0
  5  4  1  0  0  0  0
  5 12  1  0  0  0  0
  6  5  2  0  0  0  0
  7  1  1  0  0  0  0
  9 10  3  0  0  0  0
 11  6  1  0  0  0  0
 12 14  2  0  0  0  0
 13 12  2  0  0  0  0
M  RAD  2   2   2   3   2
M  END
