Coordinates from ORCA-job 3-NO2-C6H3-N2-v1-B3LYPG-aug-cc-pVDZ-scan-d09-49-n400
 OpenBabel11091809163D

 14 13  0  0  0  0  0  0  0  0999 V2000
   -2.7369    0.2122   -1.4705 C   0  0  0  0  0  0  0  0  0  0  0  0
   -1.4622   -0.2789   -1.2171 C   0  0  0  0  0  0  0  0  0  0  0  0
   -0.6270    0.1599   -0.3940 C   0  0  0  0  0  0  0  0  0  0  0  0
   -0.7692    1.2366    0.4607 C   0  0  0  0  0  0  0  0  0  0  0  0
   -2.0522    1.8049    0.2696 C   0  0  0  0  0  0  0  0  0  0  0  0
   -3.0073    1.3262   -0.6517 C   0  0  0  0  0  0  0  0  0  0  0  0
   -3.4582   -0.1737   -2.1874 H   0  0  0  0  0  0  0  0  0  0  0  0
   -0.0640    1.6379    1.1823 H   0  0  0  0  0  0  0  0  0  0  0  0
    2.8630    0.9398    2.1328 N   0  0  0  0  0  0  0  0  0  0  0  0
    3.8625    0.4925    2.2738 N   0  0  0  0  0  0  0  0  0  0  0  0
   -3.9651    1.8377   -0.7191 H   0  0  0  0  0  0  0  0  0  0  0  0
   -2.4073    2.9804    1.0962 N   0  0  0  0  0  0  0  0  0  0  0  0
   -3.5191    3.4790    0.9425 O   0  0  0  0  0  0  0  0  0  0  0  0
   -1.5683    3.3838    1.8971 O   0  0  0  0  0  0  0  0  0  0  0  0
  1  2  2  0  0  0  0
  1  6  1  0  0  0  0
  2  3  1  0  0  0  0
  3  4  2  0  0  0  0
  4  8  1  0  0  0  0
  5  4  1  0  0  0  0
  5 12  1  0  0  0  0
  6  5  2  0  0  0  0
  7  1  1  0  0  0  0
  9 10  3  0  0  0  0
 11  6  1  0  0  0  0
 12 14  2  0  0  0  0
 13 12  2  0  0  0  0
M  RAD  2   2   2   3   2
M  END
