Coordinates from ORCA-job 3-NO2-C6H3-N2-v1-B3LYPG-aug-cc-pVDZ-scan-d09-49-n400
 OpenBabel11091809163D

 14 14  0  0  0  0  0  0  0  0999 V2000
   -1.8796    0.1219   -1.0944 C   0  0  0  0  0  0  0  0  0  0  0  0
   -0.5548   -0.2607   -0.7219 C   0  0  0  0  0  0  0  0  0  0  0  0
   -0.0868    0.5973    0.2696 C   0  0  0  0  0  0  0  0  0  0  0  0
   -0.6703    1.7040    0.9179 C   0  0  0  0  0  0  0  0  0  0  0  0
   -1.9504    1.9781    0.4751 C   0  0  0  0  0  0  0  0  0  0  0  0
   -2.5645    1.1951   -0.5290 C   0  0  0  0  0  0  0  0  0  0  0  0
   -2.3967   -0.4533   -1.8671 H   0  0  0  0  0  0  0  0  0  0  0  0
   -0.1910    2.3020    1.6901 H   0  0  0  0  0  0  0  0  0  0  0  0
    1.2598    0.2627    0.6951 N   0  0  0  0  0  0  0  0  0  0  0  0
    2.2897   -0.0778    0.9471 N   0  0  0  0  0  0  0  0  0  0  0  0
   -3.5753    1.4559   -0.8402 H   0  0  0  0  0  0  0  0  0  0  0  0
   -2.6765    3.1114    1.0704 N   0  0  0  0  0  0  0  0  0  0  0  0
   -3.8121    3.3372    0.6622 O   0  0  0  0  0  0  0  0  0  0  0  0
   -2.1027    3.7644    1.9404 O   0  0  0  0  0  0  0  0  0  0  0  0
  1  2  2  0  0  0  0
  1  6  1  0  0  0  0
  2  3  1  0  0  0  0
  3  9  1  0  0  0  0
  3  4  2  0  0  0  0
  4  8  1  0  0  0  0
  5  4  1  0  0  0  0
  5 12  1  0  0  0  0
  6  5  2  0  0  0  0
  7  1  1  0  0  0  0
  9 10  1  0  0  0  0
 11  6  1  0  0  0  0
 12 14  2  0  0  0  0
 13 12  2  0  0  0  0
M  RAD  3   2   2   9   2  10   3
M  END
