Coordinates from ORCA-job 3-NO2-C6H3-N2-v1-B3LYPG-aug-cc-pVDZ-scan-d09-49-n400
 OpenBabel11091809163D

 14 14  0  0  0  0  0  0  0  0999 V2000
   -1.8834    0.1248   -1.0939 C   0  0  0  0  0  0  0  0  0  0  0  0
   -0.5643   -0.2017   -0.6758 C   0  0  0  0  0  0  0  0  0  0  0  0
   -0.1354    0.6281    0.2703 C   0  0  0  0  0  0  0  0  0  0  0  0
   -0.6806    1.7206    0.9265 C   0  0  0  0  0  0  0  0  0  0  0  0
   -1.9714    1.9849    0.4695 C   0  0  0  0  0  0  0  0  0  0  0  0
   -2.5782    1.2000   -0.5321 C   0  0  0  0  0  0  0  0  0  0  0  0
   -2.3805   -0.4646   -1.8681 H   0  0  0  0  0  0  0  0  0  0  0  0
   -0.2014    2.3184    1.6985 H   0  0  0  0  0  0  0  0  0  0  0  0
    1.3864    0.2869    0.7834 N   0  0  0  0  0  0  0  0  0  0  0  0
    2.3632   -0.2393    0.8467 N   0  0  0  0  0  0  0  0  0  0  0  0
   -3.5884    1.4527   -0.8500 H   0  0  0  0  0  0  0  0  0  0  0  0
   -2.7037    3.1161    1.0598 N   0  0  0  0  0  0  0  0  0  0  0  0
   -3.8393    3.3390    0.6497 O   0  0  0  0  0  0  0  0  0  0  0  0
   -2.1343    3.7723    1.9308 O   0  0  0  0  0  0  0  0  0  0  0  0
  1  2  2  0  0  0  0
  1  6  1  0  0  0  0
  2  3  1  0  0  0  0
  3  9  1  0  0  0  0
  3  4  2  0  0  0  0
  4  8  1  0  0  0  0
  5  4  1  0  0  0  0
  5 12  1  0  0  0  0
  6  5  2  0  0  0  0
  7  1  1  0  0  0  0
  9 10  1  0  0  0  0
 11  6  1  0  0  0  0
 12 14  2  0  0  0  0
 13 12  2  0  0  0  0
M  RAD  3   2   2   9   2  10   3
M  END
