Coordinates from ORCA-job 3-NO2-C6H3-N2-v1-B3LYPG-aug-cc-pVDZ-scan-d09-49-n400
 OpenBabel11091809163D

 14 13  0  0  0  0  0  0  0  0999 V2000
   -2.1150    0.1309   -1.2112 C   0  0  0  0  0  0  0  0  0  0  0  0
   -0.8287   -0.0978   -0.7254 C   0  0  0  0  0  0  0  0  0  0  0  0
   -0.2640    0.5821    0.1627 C   0  0  0  0  0  0  0  0  0  0  0  0
   -0.7241    1.6736    0.8621 C   0  0  0  0  0  0  0  0  0  0  0  0
   -2.0365    1.9659    0.4174 C   0  0  0  0  0  0  0  0  0  0  0  0
   -2.7184    1.2342   -0.5776 C   0  0  0  0  0  0  0  0  0  0  0  0
   -2.6272   -0.4439   -1.9805 H   0  0  0  0  0  0  0  0  0  0  0  0
   -0.2263    2.2566    1.6309 H   0  0  0  0  0  0  0  0  0  0  0  0
    2.1171    0.3342    1.2131 N   0  0  0  0  0  0  0  0  0  0  0  0
    2.9555   -0.3662    1.0505 N   0  0  0  0  0  0  0  0  0  0  0  0
   -3.7265    1.5416   -0.8475 H   0  0  0  0  0  0  0  0  0  0  0  0
   -2.7282    3.1143    1.0429 N   0  0  0  0  0  0  0  0  0  0  0  0
   -3.8681    3.3752    0.6678 O   0  0  0  0  0  0  0  0  0  0  0  0
   -2.1208    3.7375    1.9100 O   0  0  0  0  0  0  0  0  0  0  0  0
  1  2  2  0  0  0  0
  1  6  1  0  0  0  0
  2  3  1  0  0  0  0
  3  4  2  0  0  0  0
  4  8  1  0  0  0  0
  5  4  1  0  0  0  0
  5 12  1  0  0  0  0
  6  5  2  0  0  0  0
  7  1  1  0  0  0  0
 10  9  3  0  0  0  0
 11  6  1  0  0  0  0
 12 14  2  0  0  0  0
 13 12  2  0  0  0  0
M  RAD  2   2   2   3   2
M  END
