Coordinates from ORCA-job 3-NO2-C6H3-N2-v1-B3LYPG-aug-cc-pVDZ-scan-d09-49-n400
 OpenBabel11091809163D

 14 13  0  0  0  0  0  0  0  0999 V2000
   -2.9131    0.2597   -1.5229 C   0  0  0  0  0  0  0  0  0  0  0  0
   -1.6647   -0.3303   -1.3694 C   0  0  0  0  0  0  0  0  0  0  0  0
   -0.7504    0.0137   -0.5862 C   0  0  0  0  0  0  0  0  0  0  0  0
   -0.7617    1.0621    0.3139 C   0  0  0  0  0  0  0  0  0  0  0  0
   -2.0085    1.7278    0.2266 C   0  0  0  0  0  0  0  0  0  0  0  0
   -3.0505    1.3558   -0.6487 C   0  0  0  0  0  0  0  0  0  0  0  0
   -3.7031   -0.0446   -2.2058 H   0  0  0  0  0  0  0  0  0  0  0  0
    0.0134    1.3834    1.0035 H   0  0  0  0  0  0  0  0  0  0  0  0
    2.8573    1.1694    2.3282 N   0  0  0  0  0  0  0  0  0  0  0  0
    3.8815    0.9393    2.6706 N   0  0  0  0  0  0  0  0  0  0  0  0
   -3.9707    1.9360   -0.6363 H   0  0  0  0  0  0  0  0  0  0  0  0
   -2.2253    2.8906    1.1162 N   0  0  0  0  0  0  0  0  0  0  0  0
   -3.3043    3.4737    1.0506 O   0  0  0  0  0  0  0  0  0  0  0  0
   -1.3111    3.2016    1.8749 O   0  0  0  0  0  0  0  0  0  0  0  0
  1  2  2  0  0  0  0
  1  6  1  0  0  0  0
  2  3  1  0  0  0  0
  3  4  2  0  0  0  0
  4  8  1  0  0  0  0
  5  4  1  0  0  0  0
  5 12  1  0  0  0  0
  6 11  1  0  0  0  0
  6  5  2  0  0  0  0
  7  1  1  0  0  0  0
  9 10  3  0  0  0  0
 12 14  2  0  0  0  0
 13 12  2  0  0  0  0
M  RAD  2   2   2   3   2
M  END
