Coordinates from ORCA-job 3-NO2-C6H3-N2-v1-B3LYPG-aug-cc-pVDZ-scan-d09-49-n400
 OpenBabel11091809163D

 14 14  0  0  0  0  0  0  0  0999 V2000
   -1.8580    0.1188   -1.0856 C   0  0  0  0  0  0  0  0  0  0  0  0
   -0.5448   -0.3163   -0.7647 C   0  0  0  0  0  0  0  0  0  0  0  0
    0.0862    0.5676    0.3356 C   0  0  0  0  0  0  0  0  0  0  0  0
   -0.6493    1.6850    0.9124 C   0  0  0  0  0  0  0  0  0  0  0  0
   -1.9139    1.9607    0.4793 C   0  0  0  0  0  0  0  0  0  0  0  0
   -2.5410    1.1862   -0.5243 C   0  0  0  0  0  0  0  0  0  0  0  0
   -2.3727   -0.4589   -1.8590 H   0  0  0  0  0  0  0  0  0  0  0  0
   -0.1737    2.2869    1.6861 H   0  0  0  0  0  0  0  0  0  0  0  0
    1.0049    0.3423    0.6286 N   0  0  0  0  0  0  0  0  0  0  0  0
    2.0735    0.0466    0.9403 N   0  0  0  0  0  0  0  0  0  0  0  0
   -3.5518    1.4514   -0.8317 H   0  0  0  0  0  0  0  0  0  0  0  0
   -2.6374    3.0988    1.0802 N   0  0  0  0  0  0  0  0  0  0  0  0
   -3.7721    3.3214    0.6699 O   0  0  0  0  0  0  0  0  0  0  0  0
   -2.0613    3.7476    1.9481 O   0  0  0  0  0  0  0  0  0  0  0  0
  1  2  2  0  0  0  0
  1  6  1  0  0  0  0
  2  3  1  0  0  0  0
  3  9  1  0  0  0  0
  3  4  2  0  0  0  0
  4  8  1  0  0  0  0
  5  4  1  0  0  0  0
  5 12  1  0  0  0  0
  6  5  2  0  0  0  0
  7  1  1  0  0  0  0
  9 10  1  0  0  0  0
 11  6  1  0  0  0  0
 12 14  2  0  0  0  0
 13 12  2  0  0  0  0
M  RAD  3   2   2   9   2  10   3
M  END
