Coordinates from ORCA-job 3-NO2-C6H3-N2-v1-B3LYPG-aug-cc-pVDZ-scan-d09-49-n400
 OpenBabel11091809163D

 14 13  0  0  0  0  0  0  0  0999 V2000
   -2.2678    0.1448   -1.2806 C   0  0  0  0  0  0  0  0  0  0  0  0
   -0.9802   -0.1277   -0.8319 C   0  0  0  0  0  0  0  0  0  0  0  0
   -0.3425    0.4958    0.0467 C   0  0  0  0  0  0  0  0  0  0  0  0
   -0.7506    1.5921    0.7786 C   0  0  0  0  0  0  0  0  0  0  0  0
   -2.0644    1.9410    0.3824 C   0  0  0  0  0  0  0  0  0  0  0  0
   -2.8059    1.2570   -0.6038 C   0  0  0  0  0  0  0  0  0  0  0  0
   -2.8227   -0.3962   -2.0439 H   0  0  0  0  0  0  0  0  0  0  0  0
   -0.2086    2.1413    1.5421 H   0  0  0  0  0  0  0  0  0  0  0  0
    2.4357    0.4443    1.4780 N   0  0  0  0  0  0  0  0  0  0  0  0
    3.2677   -0.2607    1.3059 N   0  0  0  0  0  0  0  0  0  0  0  0
   -3.8098    1.6073   -0.8342 H   0  0  0  0  0  0  0  0  0  0  0  0
   -2.6936    3.1009    1.0519 N   0  0  0  0  0  0  0  0  0  0  0  0
   -3.8331    3.4123    0.7160 O   0  0  0  0  0  0  0  0  0  0  0  0
   -2.0356    3.6861    1.9080 O   0  0  0  0  0  0  0  0  0  0  0  0
  1  2  2  0  0  0  0
  1  6  1  0  0  0  0
  2  3  1  0  0  0  0
  3  4  2  0  0  0  0
  4  8  1  0  0  0  0
  5  4  1  0  0  0  0
  5 12  1  0  0  0  0
  6  5  2  0  0  0  0
  7  1  1  0  0  0  0
 10  9  3  0  0  0  0
 11  6  1  0  0  0  0
 12 14  2  0  0  0  0
 13 12  2  0  0  0  0
M  RAD  2   2   2   3   2
M  END
