Coordinates from ORCA-job 3-NO2-C6H3-N2-v1-B3LYPG-aug-cc-pVDZ-scan-d09-49-n400
 OpenBabel11091809163D

 14 14  0  0  0  0  0  0  0  0999 V2000
   -1.8742    0.1195   -1.0943 C   0  0  0  0  0  0  0  0  0  0  0  0
   -0.5501   -0.2866   -0.7441 C   0  0  0  0  0  0  0  0  0  0  0  0
   -0.0274    0.5772    0.2832 C   0  0  0  0  0  0  0  0  0  0  0  0
   -0.6605    1.6925    0.9156 C   0  0  0  0  0  0  0  0  0  0  0  0
   -1.9331    1.9687    0.4801 C   0  0  0  0  0  0  0  0  0  0  0  0
   -2.5538    1.1892   -0.5264 C   0  0  0  0  0  0  0  0  0  0  0  0
   -2.3957   -0.4517   -1.8672 H   0  0  0  0  0  0  0  0  0  0  0  0
   -0.1851    2.2928    1.6893 H   0  0  0  0  0  0  0  0  0  0  0  0
    1.1612    0.2852    0.6611 N   0  0  0  0  0  0  0  0  0  0  0  0
    2.2022    0.0004    0.9667 N   0  0  0  0  0  0  0  0  0  0  0  0
   -3.5651    1.4544   -0.8329 H   0  0  0  0  0  0  0  0  0  0  0  0
   -2.6590    3.1025    1.0796 N   0  0  0  0  0  0  0  0  0  0  0  0
   -3.7902    3.3337    0.6632 O   0  0  0  0  0  0  0  0  0  0  0  0
   -2.0805    3.7605    1.9414 O   0  0  0  0  0  0  0  0  0  0  0  0
  1  2  2  0  0  0  0
  1  6  1  0  0  0  0
  2  3  1  0  0  0  0
  3  9  1  0  0  0  0
  3  4  2  0  0  0  0
  4  8  1  0  0  0  0
  5  4  1  0  0  0  0
  5 12  1  0  0  0  0
  6  5  2  0  0  0  0
  7  1  1  0  0  0  0
  9 10  1  0  0  0  0
 11  6  1  0  0  0  0
 12 14  2  0  0  0  0
 13 12  2  0  0  0  0
M  RAD  3   2   2   9   2  10   3
M  END
