Coordinates from ORCA-job 3-NO2-C6H3-N2-v1-B3LYPG-aug-cc-pVDZ-scan-d09-49-n400
 OpenBabel11091809163D

 14 14  0  0  0  0  0  0  0  0999 V2000
   -1.8664    0.1186   -1.0902 C   0  0  0  0  0  0  0  0  0  0  0  0
   -0.5462   -0.3025   -0.7532 C   0  0  0  0  0  0  0  0  0  0  0  0
    0.0235    0.5671    0.3033 C   0  0  0  0  0  0  0  0  0  0  0  0
   -0.6536    1.6875    0.9128 C   0  0  0  0  0  0  0  0  0  0  0  0
   -1.9213    1.9649    0.4792 C   0  0  0  0  0  0  0  0  0  0  0  0
   -2.5463    1.1873   -0.5261 C   0  0  0  0  0  0  0  0  0  0  0  0
   -2.3860   -0.4550   -1.8630 H   0  0  0  0  0  0  0  0  0  0  0  0
   -0.1788    2.2896    1.6861 H   0  0  0  0  0  0  0  0  0  0  0  0
    1.0819    0.3142    0.6451 N   0  0  0  0  0  0  0  0  0  0  0  0
    2.1334    0.0330    0.9588 N   0  0  0  0  0  0  0  0  0  0  0  0
   -3.5571    1.4536   -0.8328 H   0  0  0  0  0  0  0  0  0  0  0  0
   -2.6450    3.1019    1.0787 N   0  0  0  0  0  0  0  0  0  0  0  0
   -3.7799    3.3260    0.6692 O   0  0  0  0  0  0  0  0  0  0  0  0
   -2.0696    3.7520    1.9474 O   0  0  0  0  0  0  0  0  0  0  0  0
  1  2  2  0  0  0  0
  1  6  1  0  0  0  0
  2  3  1  0  0  0  0
  3  9  1  0  0  0  0
  3  4  2  0  0  0  0
  4  8  1  0  0  0  0
  5  4  1  0  0  0  0
  5 12  1  0  0  0  0
  6  5  2  0  0  0  0
  7  1  1  0  0  0  0
  9 10  1  0  0  0  0
 11  6  1  0  0  0  0
 12 14  2  0  0  0  0
 13 12  2  0  0  0  0
M  RAD  3   2   2   9   2  10   3
M  END
