Coordinates from ORCA-job 3-NO2-C6H3-N2-v1-B3LYPG-aug-cc-pVDZ-scan-d09-49-n400
 OpenBabel11091809163D

 14 14  0  0  0  0  0  0  0  0999 V2000
   -1.8679    0.1187   -1.0911 C   0  0  0  0  0  0  0  0  0  0  0  0
   -0.5472   -0.3011   -0.7518 C   0  0  0  0  0  0  0  0  0  0  0  0
    0.0154    0.5664    0.3018 C   0  0  0  0  0  0  0  0  0  0  0  0
   -0.6548    1.6876    0.9136 C   0  0  0  0  0  0  0  0  0  0  0  0
   -1.9228    1.9653    0.4793 C   0  0  0  0  0  0  0  0  0  0  0  0
   -2.5473    1.1875   -0.5262 C   0  0  0  0  0  0  0  0  0  0  0  0
   -2.3879   -0.4541   -1.8641 H   0  0  0  0  0  0  0  0  0  0  0  0
   -0.1799    2.2898    1.6867 H   0  0  0  0  0  0  0  0  0  0  0  0
    1.0933    0.3100    0.6475 N   0  0  0  0  0  0  0  0  0  0  0  0
    2.1442    0.0311    0.9593 N   0  0  0  0  0  0  0  0  0  0  0  0
   -3.5580    1.4543   -0.8331 H   0  0  0  0  0  0  0  0  0  0  0  0
   -2.6463    3.1026    1.0781 N   0  0  0  0  0  0  0  0  0  0  0  0
   -3.7810    3.3272    0.6682 O   0  0  0  0  0  0  0  0  0  0  0  0
   -2.0711    3.7528    1.9470 O   0  0  0  0  0  0  0  0  0  0  0  0
  1  2  2  0  0  0  0
  1  6  1  0  0  0  0
  2  3  1  0  0  0  0
  3  9  1  0  0  0  0
  3  4  2  0  0  0  0
  4  8  1  0  0  0  0
  5  4  1  0  0  0  0
  5 12  1  0  0  0  0
  6  5  2  0  0  0  0
  7  1  1  0  0  0  0
  9 10  1  0  0  0  0
 11  6  1  0  0  0  0
 12 14  2  0  0  0  0
 13 12  2  0  0  0  0
M  RAD  3   2   2   9   2  10   3
M  END
