Coordinates from ORCA-job 3-NO2-C6H3-N2-v1-B3LYPG-aug-cc-pVDZ-scan-d09-49-n400
 OpenBabel11091809163D

 14 13  0  0  0  0  0  0  0  0999 V2000
   -2.0935    0.1290   -1.2014 C   0  0  0  0  0  0  0  0  0  0  0  0
   -0.8066   -0.0966   -0.7126 C   0  0  0  0  0  0  0  0  0  0  0  0
   -0.2544    0.5926    0.1769 C   0  0  0  0  0  0  0  0  0  0  0  0
   -0.7196    1.6830    0.8727 C   0  0  0  0  0  0  0  0  0  0  0  0
   -2.0315    1.9683    0.4223 C   0  0  0  0  0  0  0  0  0  0  0  0
   -2.7055    1.2308   -0.5737 C   0  0  0  0  0  0  0  0  0  0  0  0
   -2.6007   -0.4495   -1.9713 H   0  0  0  0  0  0  0  0  0  0  0  0
   -0.2270    2.2697    1.6420 H   0  0  0  0  0  0  0  0  0  0  0  0
    2.0682    0.3269    1.1808 N   0  0  0  0  0  0  0  0  0  0  0  0
    2.9031   -0.3768    1.0136 N   0  0  0  0  0  0  0  0  0  0  0  0
   -3.7139    1.5326   -0.8486 H   0  0  0  0  0  0  0  0  0  0  0  0
   -2.7306    3.1150    1.0424 N   0  0  0  0  0  0  0  0  0  0  0  0
   -3.8701    3.3701    0.6622 O   0  0  0  0  0  0  0  0  0  0  0  0
   -2.1292    3.7431    1.9102 O   0  0  0  0  0  0  0  0  0  0  0  0
  1  2  2  0  0  0  0
  1  6  1  0  0  0  0
  2  3  1  0  0  0  0
  3  4  2  0  0  0  0
  4  8  1  0  0  0  0
  5  4  1  0  0  0  0
  5 12  1  0  0  0  0
  6  5  2  0  0  0  0
  7  1  1  0  0  0  0
 10  9  3  0  0  0  0
 11  6  1  0  0  0  0
 12 14  2  0  0  0  0
 13 12  2  0  0  0  0
M  RAD  2   2   2   3   2
M  END
