Coordinates from ORCA-job 3-NO2-C6H3-N2-v1-B3LYPG-aug-cc-pVDZ-scan-d09-49-n400
 OpenBabel11091809163D

 14 13  0  0  0  0  0  0  0  0999 V2000
   -2.2070    0.1392   -1.2531 C   0  0  0  0  0  0  0  0  0  0  0  0
   -0.9203   -0.1129   -0.7874 C   0  0  0  0  0  0  0  0  0  0  0  0
   -0.3095    0.5317    0.0952 C   0  0  0  0  0  0  0  0  0  0  0  0
   -0.7413    1.6265    0.8134 C   0  0  0  0  0  0  0  0  0  0  0  0
   -2.0548    1.9519    0.3969 C   0  0  0  0  0  0  0  0  0  0  0  0
   -2.7720    1.2482   -0.5935 C   0  0  0  0  0  0  0  0  0  0  0  0
   -2.7439   -0.4163   -2.0191 H   0  0  0  0  0  0  0  0  0  0  0  0
   -0.2173    2.1896    1.5794 H   0  0  0  0  0  0  0  0  0  0  0  0
    2.3110    0.3896    1.3643 N   0  0  0  0  0  0  0  0  0  0  0  0
    3.1549   -0.3050    1.2079 N   0  0  0  0  0  0  0  0  0  0  0  0
   -3.7780    1.5808   -0.8403 H   0  0  0  0  0  0  0  0  0  0  0  0
   -2.7104    3.1072    1.0483 N   0  0  0  0  0  0  0  0  0  0  0  0
   -3.8499    3.3984    0.6949 O   0  0  0  0  0  0  0  0  0  0  0  0
   -2.0729    3.7092    1.9083 O   0  0  0  0  0  0  0  0  0  0  0  0
  1  2  2  0  0  0  0
  1  6  1  0  0  0  0
  2  3  1  0  0  0  0
  3  4  2  0  0  0  0
  4  8  1  0  0  0  0
  5  4  1  0  0  0  0
  5 12  1  0  0  0  0
  6  5  2  0  0  0  0
  7  1  1  0  0  0  0
 10  9  3  0  0  0  0
 11  6  1  0  0  0  0
 12 14  2  0  0  0  0
 13 12  2  0  0  0  0
M  RAD  2   2   2   3   2
M  END
