Coordinates from ORCA-job 3-NO2-C6H3-N2-v1-B3LYPG-aug-cc-pVDZ-scan-d09-49-n400
 OpenBabel11091809163D

 14 13  0  0  0  0  0  0  0  0999 V2000
   -2.4906    0.1700   -1.3769 C   0  0  0  0  0  0  0  0  0  0  0  0
   -1.2013   -0.1989   -1.0107 C   0  0  0  0  0  0  0  0  0  0  0  0
   -0.4748    0.3487   -0.1504 C   0  0  0  0  0  0  0  0  0  0  0  0
   -0.7701    1.4422    0.6390 C   0  0  0  0  0  0  0  0  0  0  0  0
   -2.0782    1.8882    0.3295 C   0  0  0  0  0  0  0  0  0  0  0  0
   -2.9160    1.2892   -0.6345 C   0  0  0  0  0  0  0  0  0  0  0  0
   -3.1206   -0.3067   -2.1246 H   0  0  0  0  0  0  0  0  0  0  0  0
   -0.1553    1.9304    1.3885 H   0  0  0  0  0  0  0  0  0  0  0  0
    2.7345    0.6528    1.8181 N   0  0  0  0  0  0  0  0  0  0  0  0
    3.6369    0.0211    1.7440 N   0  0  0  0  0  0  0  0  0  0  0  0
   -3.9058    1.7111   -0.7956 H   0  0  0  0  0  0  0  0  0  0  0  0
   -2.5925    3.0612    1.0712 N   0  0  0  0  0  0  0  0  0  0  0  0
   -3.7256    3.4568    0.8107 O   0  0  0  0  0  0  0  0  0  0  0  0
   -1.8517    3.5720    1.9070 O   0  0  0  0  0  0  0  0  0  0  0  0
  1  2  2  0  0  0  0
  1  6  1  0  0  0  0
  2  3  1  0  0  0  0
  3  4  2  0  0  0  0
  4  8  1  0  0  0  0
  5  4  1  0  0  0  0
  5 12  1  0  0  0  0
  6  5  2  0  0  0  0
  7  1  1  0  0  0  0
 10  9  3  0  0  0  0
 11  6  1  0  0  0  0
 12 14  2  0  0  0  0
 13 12  2  0  0  0  0
M  RAD  2   2   2   3   2
M  END
