Coordinates from ORCA-job 3-NO2-C6H3-N2-v1-B3LYPG-aug-cc-pVDZ-scan-d09-49-n400
 OpenBabel11091809163D

 14 13  0  0  0  0  0  0  0  0999 V2000
   -2.7410    0.2134   -1.4721 C   0  0  0  0  0  0  0  0  0  0  0  0
   -1.4665   -0.2798   -1.2213 C   0  0  0  0  0  0  0  0  0  0  0  0
   -0.6296    0.1568   -0.3987 C   0  0  0  0  0  0  0  0  0  0  0  0
   -0.7698    1.2322    0.4572 C   0  0  0  0  0  0  0  0  0  0  0  0
   -2.0521    1.8029    0.2693 C   0  0  0  0  0  0  0  0  0  0  0  0
   -3.0090    1.3267   -0.6514 C   0  0  0  0  0  0  0  0  0  0  0  0
   -3.4637   -0.1706   -2.1886 H   0  0  0  0  0  0  0  0  0  0  0  0
   -0.0622    1.6306    1.1780 H   0  0  0  0  0  0  0  0  0  0  0  0
    2.8641    0.9448    2.1378 N   0  0  0  0  0  0  0  0  0  0  0  0
    3.8652    0.5028    2.2840 N   0  0  0  0  0  0  0  0  0  0  0  0
   -3.9663    1.8393   -0.7167 H   0  0  0  0  0  0  0  0  0  0  0  0
   -2.4044    2.9775    1.0983 N   0  0  0  0  0  0  0  0  0  0  0  0
   -3.5141    3.4805    0.9439 O   0  0  0  0  0  0  0  0  0  0  0  0
   -1.5619    3.3812    1.8954 O   0  0  0  0  0  0  0  0  0  0  0  0
  1  2  2  0  0  0  0
  1  6  1  0  0  0  0
  2  3  1  0  0  0  0
  3  4  2  0  0  0  0
  4  8  1  0  0  0  0
  5  4  1  0  0  0  0
  5 12  1  0  0  0  0
  6  5  2  0  0  0  0
  7  1  1  0  0  0  0
  9 10  3  0  0  0  0
 11  6  1  0  0  0  0
 12 14  2  0  0  0  0
 13 12  2  0  0  0  0
M  RAD  2   2   2   3   2
M  END
