Coordinates from ORCA-job 3-NO2-C6H3-N2-v1-B3LYPG-aug-cc-pVDZ-scan-d09-49-n400
 OpenBabel11091809163D

 14 13  0  0  0  0  0  0  0  0999 V2000
   -2.1432    0.1338   -1.2239 C   0  0  0  0  0  0  0  0  0  0  0  0
   -0.8567   -0.1010   -0.7435 C   0  0  0  0  0  0  0  0  0  0  0  0
   -0.2764    0.5669    0.1431 C   0  0  0  0  0  0  0  0  0  0  0  0
   -0.7309    1.6597    0.8477 C   0  0  0  0  0  0  0  0  0  0  0  0
   -2.0436    1.9620    0.4118 C   0  0  0  0  0  0  0  0  0  0  0  0
   -2.7356    1.2386   -0.5823 C   0  0  0  0  0  0  0  0  0  0  0  0
   -2.6623   -0.4353   -1.9925 H   0  0  0  0  0  0  0  0  0  0  0  0
   -0.2252    2.2365    1.6158 H   0  0  0  0  0  0  0  0  0  0  0  0
    2.1788    0.3458    1.2558 N   0  0  0  0  0  0  0  0  0  0  0  0
    3.0231   -0.3488    1.1003 N   0  0  0  0  0  0  0  0  0  0  0  0
   -3.7433    1.5531   -0.8455 H   0  0  0  0  0  0  0  0  0  0  0  0
   -2.7249    3.1122    1.0455 N   0  0  0  0  0  0  0  0  0  0  0  0
   -3.8637    3.3838    0.6746 O   0  0  0  0  0  0  0  0  0  0  0  0
   -2.1075    3.7309    1.9085 O   0  0  0  0  0  0  0  0  0  0  0  0
  1  2  2  0  0  0  0
  1  6  1  0  0  0  0
  2  3  1  0  0  0  0
  3  4  2  0  0  0  0
  4  8  1  0  0  0  0
  5  4  1  0  0  0  0
  5 12  1  0  0  0  0
  6  5  2  0  0  0  0
  7  1  1  0  0  0  0
 10  9  3  0  0  0  0
 11  6  1  0  0  0  0
 12 14  2  0  0  0  0
 13 12  2  0  0  0  0
M  RAD  2   2   2   3   2
M  END
