Coordinates from ORCA-job 3-NO2-C6H3-N2-v1-B3LYPG-aug-cc-pVDZ-scan-d09-49-n400
 OpenBabel11091809163D

 14 13  0  0  0  0  0  0  0  0999 V2000
   -1.9426    0.1210   -1.1285 C   0  0  0  0  0  0  0  0  0  0  0  0
   -0.6439   -0.1190   -0.6458 C   0  0  0  0  0  0  0  0  0  0  0  0
   -0.1784    0.6416    0.2600 C   0  0  0  0  0  0  0  0  0  0  0  0
   -0.6885    1.7265    0.9281 C   0  0  0  0  0  0  0  0  0  0  0  0
   -1.9915    1.9800    0.4549 C   0  0  0  0  0  0  0  0  0  0  0  0
   -2.6147    1.2068   -0.5457 C   0  0  0  0  0  0  0  0  0  0  0  0
   -2.4248   -0.4770   -1.9024 H   0  0  0  0  0  0  0  0  0  0  0  0
   -0.2144    2.3269    1.7000 H   0  0  0  0  0  0  0  0  0  0  0  0
    1.6518    0.3133    0.9481 N   0  0  0  0  0  0  0  0  0  0  0  0
    2.5062   -0.3773    0.8006 N   0  0  0  0  0  0  0  0  0  0  0  0
   -3.6244    1.4713   -0.8535 H   0  0  0  0  0  0  0  0  0  0  0  0
   -2.7268    3.1146    1.0462 N   0  0  0  0  0  0  0  0  0  0  0  0
   -3.8625    3.3397    0.6370 O   0  0  0  0  0  0  0  0  0  0  0  0
   -2.1568    3.7697    1.9163 O   0  0  0  0  0  0  0  0  0  0  0  0
  1  2  2  0  0  0  0
  1  6  1  0  0  0  0
  2  3  1  0  0  0  0
  3  4  2  0  0  0  0
  4  8  1  0  0  0  0
  5  4  1  0  0  0  0
  5 12  1  0  0  0  0
  6  5  2  0  0  0  0
  7  1  1  0  0  0  0
 10  9  3  0  0  0  0
 11  6  1  0  0  0  0
 12 14  2  0  0  0  0
 13 12  2  0  0  0  0
M  RAD  2   2   2   3   2
M  END
