Coordinates from ORCA-job 3-NO2-C6H3-N2-v1-B3LYPG-aug-cc-pVDZ-scan-d09-49-n400
 OpenBabel11091809163D

 14 13  0  0  0  0  0  0  0  0999 V2000
   -2.2908    0.1470   -1.2907 C   0  0  0  0  0  0  0  0  0  0  0  0
   -1.0028   -0.1340   -0.8493 C   0  0  0  0  0  0  0  0  0  0  0  0
   -0.3560    0.4823    0.0278 C   0  0  0  0  0  0  0  0  0  0  0  0
   -0.7540    1.5789    0.7651 C   0  0  0  0  0  0  0  0  0  0  0  0
   -2.0678    1.9371    0.3767 C   0  0  0  0  0  0  0  0  0  0  0  0
   -2.8185    1.2605   -0.6077 C   0  0  0  0  0  0  0  0  0  0  0  0
   -2.8528   -0.3885   -2.0528 H   0  0  0  0  0  0  0  0  0  0  0  0
   -0.2050    2.1227    1.5274 H   0  0  0  0  0  0  0  0  0  0  0  0
    2.4813    0.4645    1.5198 N   0  0  0  0  0  0  0  0  0  0  0  0
    3.3112   -0.2426    1.3449 N   0  0  0  0  0  0  0  0  0  0  0  0
   -3.8214    1.6175   -0.8319 H   0  0  0  0  0  0  0  0  0  0  0  0
   -2.6867    3.0988    1.0529 N   0  0  0  0  0  0  0  0  0  0  0  0
   -3.8266    3.4173    0.7248 O   0  0  0  0  0  0  0  0  0  0  0  0
   -2.0213    3.6767    1.9082 O   0  0  0  0  0  0  0  0  0  0  0  0
  1  2  2  0  0  0  0
  1  6  1  0  0  0  0
  2  3  1  0  0  0  0
  3  4  2  0  0  0  0
  4  8  1  0  0  0  0
  5  4  1  0  0  0  0
  5 12  1  0  0  0  0
  6  5  2  0  0  0  0
  7  1  1  0  0  0  0
 10  9  3  0  0  0  0
 11  6  1  0  0  0  0
 12 14  2  0  0  0  0
 13 12  2  0  0  0  0
M  RAD  2   2   2   3   2
M  END
