Coordinates from ORCA-job 3-NO2-C6H3-N2-v1-B3LYPG-aug-cc-pVDZ-scan-d09-49-n400
 OpenBabel11091809163D

 14 13  0  0  0  0  0  0  0  0999 V2000
   -2.6062    0.1878   -1.4240 C   0  0  0  0  0  0  0  0  0  0  0  0
   -1.3208   -0.2359   -1.1078 C   0  0  0  0  0  0  0  0  0  0  0  0
   -0.5461    0.2648   -0.2613 C   0  0  0  0  0  0  0  0  0  0  0  0
   -0.7736    1.3513    0.5606 C   0  0  0  0  0  0  0  0  0  0  0  0
   -2.0735    1.8514    0.3033 C   0  0  0  0  0  0  0  0  0  0  0  0
   -2.9643    1.3054   -0.6446 C   0  0  0  0  0  0  0  0  0  0  0  0
   -3.2776   -0.2488   -2.1599 H   0  0  0  0  0  0  0  0  0  0  0  0
   -0.1180    1.8011    1.2998 H   0  0  0  0  0  0  0  0  0  0  0  0
    2.8250    0.7785    1.9752 N   0  0  0  0  0  0  0  0  0  0  0  0
    3.7765    0.2187    1.9873 N   0  0  0  0  0  0  0  0  0  0  0  0
   -3.9420    1.7673   -0.7639 H   0  0  0  0  0  0  0  0  0  0  0  0
   -2.5194    3.0261    1.0857 N   0  0  0  0  0  0  0  0  0  0  0  0
   -3.6412    3.4743    0.8645 O   0  0  0  0  0  0  0  0  0  0  0  0
   -1.7301    3.4963    1.9006 O   0  0  0  0  0  0  0  0  0  0  0  0
  1  2  2  0  0  0  0
  1  6  1  0  0  0  0
  2  3  1  0  0  0  0
  3  4  2  0  0  0  0
  4  8  1  0  0  0  0
  5  4  1  0  0  0  0
  5 12  1  0  0  0  0
  6  5  2  0  0  0  0
  7  1  1  0  0  0  0
  9 10  3  0  0  0  0
 11  6  1  0  0  0  0
 12 14  2  0  0  0  0
 13 12  2  0  0  0  0
M  RAD  2   2   2   3   2
M  END
