Coordinates from ORCA-job 3-NO2-C6H3-N2-v1-B3LYPG-aug-cc-pVDZ-scan-d09-49-n400
 OpenBabel11091809163D

 14 13  0  0  0  0  0  0  0  0999 V2000
   -2.5551    0.1792   -1.4035 C   0  0  0  0  0  0  0  0  0  0  0  0
   -1.2675   -0.2200   -1.0645 C   0  0  0  0  0  0  0  0  0  0  0  0
   -0.5150    0.3028   -0.2113 C   0  0  0  0  0  0  0  0  0  0  0  0
   -0.7722    1.3930    0.5963 C   0  0  0  0  0  0  0  0  0  0  0  0
   -2.0763    1.8686    0.3145 C   0  0  0  0  0  0  0  0  0  0  0  0
   -2.9435    1.2982   -0.6409 C   0  0  0  0  0  0  0  0  0  0  0  0
   -3.2081   -0.2757   -2.1450 H   0  0  0  0  0  0  0  0  0  0  0  0
   -0.1355    1.8612    1.3406 H   0  0  0  0  0  0  0  0  0  0  0  0
    2.7902    0.7204    1.9064 N   0  0  0  0  0  0  0  0  0  0  0  0
    3.7208    0.1269    1.8789 N   0  0  0  0  0  0  0  0  0  0  0  0
   -3.9270    1.7424   -0.7793 H   0  0  0  0  0  0  0  0  0  0  0  0
   -2.5535    3.0433    1.0783 N   0  0  0  0  0  0  0  0  0  0  0  0
   -3.6815    3.4668    0.8403 O   0  0  0  0  0  0  0  0  0  0  0  0
   -1.7868    3.5310    1.9045 O   0  0  0  0  0  0  0  0  0  0  0  0
  1  2  2  0  0  0  0
  1  6  1  0  0  0  0
  2  3  1  0  0  0  0
  3  4  2  0  0  0  0
  4  8  1  0  0  0  0
  5  4  1  0  0  0  0
  5 12  1  0  0  0  0
  6  5  2  0  0  0  0
  7  1  1  0  0  0  0
 10  9  3  0  0  0  0
 11  6  1  0  0  0  0
 12 14  2  0  0  0  0
 13 12  2  0  0  0  0
M  RAD  2   2   2   3   2
M  END
