Coordinates from ORCA-job 3-NO2-C6H3-N2-v1-B3LYPG-aug-cc-pVDZ-scan-d09-49-n400
 OpenBabel11091809163D

 14 13  0  0  0  0  0  0  0  0999 V2000
   -1.9747    0.1216   -1.1451 C   0  0  0  0  0  0  0  0  0  0  0  0
   -0.6815   -0.1024   -0.6517 C   0  0  0  0  0  0  0  0  0  0  0  0
   -0.1948    0.6376    0.2476 C   0  0  0  0  0  0  0  0  0  0  0  0
   -0.6954    1.7230    0.9214 C   0  0  0  0  0  0  0  0  0  0  0  0
   -2.0013    1.9784    0.4485 C   0  0  0  0  0  0  0  0  0  0  0  0
   -2.6340    1.2115   -0.5517 C   0  0  0  0  0  0  0  0  0  0  0  0
   -2.4584   -0.4746   -1.9184 H   0  0  0  0  0  0  0  0  0  0  0  0
   -0.2206    2.3226    1.6930 H   0  0  0  0  0  0  0  0  0  0  0  0
    1.7619    0.3101    1.0034 N   0  0  0  0  0  0  0  0  0  0  0  0
    2.5929   -0.3996    0.8278 N   0  0  0  0  0  0  0  0  0  0  0  0
   -3.6436    1.4832   -0.8530 H   0  0  0  0  0  0  0  0  0  0  0  0
   -2.7333    3.1150    1.0436 N   0  0  0  0  0  0  0  0  0  0  0  0
   -3.8691    3.3444    0.6373 O   0  0  0  0  0  0  0  0  0  0  0  0
   -2.1592    3.7674    1.9126 O   0  0  0  0  0  0  0  0  0  0  0  0
  1  2  2  0  0  0  0
  1  6  1  0  0  0  0
  2  3  1  0  0  0  0
  3  4  2  0  0  0  0
  4  8  1  0  0  0  0
  5  4  1  0  0  0  0
  5 12  1  0  0  0  0
  6  5  2  0  0  0  0
  7  1  1  0  0  0  0
 10  9  3  0  0  0  0
 11  6  1  0  0  0  0
 12 14  2  0  0  0  0
 13 12  2  0  0  0  0
M  RAD  2   2   2   3   2
M  END
