Coordinates from ORCA-job 3-NO2-C6H3-N2-v1-B3LYPG-aug-cc-pVDZ-scan-d09-49-n400
 OpenBabel11091809163D

 14 13  0  0  0  0  0  0  0  0999 V2000
   -2.7773    0.2216   -1.4842 C   0  0  0  0  0  0  0  0  0  0  0  0
   -1.5068   -0.2908   -1.2522 C   0  0  0  0  0  0  0  0  0  0  0  0
   -0.6545    0.1285   -0.4364 C   0  0  0  0  0  0  0  0  0  0  0  0
   -0.7698    1.1993    0.4287 C   0  0  0  0  0  0  0  0  0  0  0  0
   -2.0462    1.7888    0.2602 C   0  0  0  0  0  0  0  0  0  0  0  0
   -3.0203    1.3324   -0.6524 C   0  0  0  0  0  0  0  0  0  0  0  0
   -3.5136   -0.1473   -2.1947 H   0  0  0  0  0  0  0  0  0  0  0  0
   -0.0485    1.5830    1.1440 H   0  0  0  0  0  0  0  0  0  0  0  0
    2.8757    0.9893    2.1823 N   0  0  0  0  0  0  0  0  0  0  0  0
    3.8862    0.5834    2.3651 N   0  0  0  0  0  0  0  0  0  0  0  0
   -3.9712    1.8585   -0.7027 H   0  0  0  0  0  0  0  0  0  0  0  0
   -2.3726    2.9620    1.1018 N   0  0  0  0  0  0  0  0  0  0  0  0
   -3.4770    3.4812    0.9641 O   0  0  0  0  0  0  0  0  0  0  0  0
   -1.5153    3.3483    1.8917 O   0  0  0  0  0  0  0  0  0  0  0  0
  1  2  2  0  0  0  0
  1  6  1  0  0  0  0
  2  3  1  0  0  0  0
  3  4  2  0  0  0  0
  4  8  1  0  0  0  0
  5  4  1  0  0  0  0
  5 12  1  0  0  0  0
  6  5  2  0  0  0  0
  7  1  1  0  0  0  0
  9 10  3  0  0  0  0
 11  6  1  0  0  0  0
 12 14  2  0  0  0  0
 13 12  2  0  0  0  0
M  RAD  2   2   2   3   2
M  END
