Coordinates from ORCA-job 3-NO2-C6H3-N2-v1-B3LYPG-aug-cc-pVDZ-scan-d09-49-n400
 OpenBabel11091809163D

 14 13  0  0  0  0  0  0  0  0999 V2000
   -2.6261    0.1906   -1.4308 C   0  0  0  0  0  0  0  0  0  0  0  0
   -1.3421   -0.2435   -1.1232 C   0  0  0  0  0  0  0  0  0  0  0  0
   -0.5586    0.2495   -0.2801 C   0  0  0  0  0  0  0  0  0  0  0  0
   -0.7736    1.3358    0.5451 C   0  0  0  0  0  0  0  0  0  0  0  0
   -2.0709    1.8466    0.2967 C   0  0  0  0  0  0  0  0  0  0  0  0
   -2.9713    1.3092   -0.6471 C   0  0  0  0  0  0  0  0  0  0  0  0
   -3.3051   -0.2393   -2.1638 H   0  0  0  0  0  0  0  0  0  0  0  0
   -0.1100    1.7790    1.2814 H   0  0  0  0  0  0  0  0  0  0  0  0
    2.8371    0.8018    2.0012 N   0  0  0  0  0  0  0  0  0  0  0  0
    3.7956    0.2545    2.0301 N   0  0  0  0  0  0  0  0  0  0  0  0
   -3.9463    1.7787   -0.7596 H   0  0  0  0  0  0  0  0  0  0  0  0
   -2.5032    3.0230    1.0841 N   0  0  0  0  0  0  0  0  0  0  0  0
   -3.6271    3.4735    0.8782 O   0  0  0  0  0  0  0  0  0  0  0  0
   -1.7098    3.4787    1.9032 O   0  0  0  0  0  0  0  0  0  0  0  0
  1  2  2  0  0  0  0
  1  6  1  0  0  0  0
  2  3  1  0  0  0  0
  3  4  2  0  0  0  0
  4  8  1  0  0  0  0
  5  4  1  0  0  0  0
  5 12  1  0  0  0  0
  6  5  2  0  0  0  0
  7  1  1  0  0  0  0
  9 10  3  0  0  0  0
 11  6  1  0  0  0  0
 12 14  2  0  0  0  0
 13 12  2  0  0  0  0
M  RAD  2   2   2   3   2
M  END
