Coordinates from ORCA-job 3-NO2-C6H3-N2-v1-B3LYPG-aug-cc-pVDZ-scan-d09-49-n400
 OpenBabel11091809163D

 14 13  0  0  0  0  0  0  0  0999 V2000
   -2.1211    0.1316   -1.2142 C   0  0  0  0  0  0  0  0  0  0  0  0
   -0.8347   -0.0983   -0.7296 C   0  0  0  0  0  0  0  0  0  0  0  0
   -0.2669    0.5789    0.1585 C   0  0  0  0  0  0  0  0  0  0  0  0
   -0.7258    1.6701    0.8595 C   0  0  0  0  0  0  0  0  0  0  0  0
   -2.0384    1.9644    0.4168 C   0  0  0  0  0  0  0  0  0  0  0  0
   -2.7223    1.2349   -0.5784 C   0  0  0  0  0  0  0  0  0  0  0  0
   -2.6348   -0.4417   -1.9835 H   0  0  0  0  0  0  0  0  0  0  0  0
   -0.2266    2.2517    1.6284 H   0  0  0  0  0  0  0  0  0  0  0  0
    2.1308    0.3367    1.2224 N   0  0  0  0  0  0  0  0  0  0  0  0
    2.9707   -0.3622    1.0609 N   0  0  0  0  0  0  0  0  0  0  0  0
   -3.7304    1.5438   -0.8467 H   0  0  0  0  0  0  0  0  0  0  0  0
   -2.7281    3.1128    1.0446 N   0  0  0  0  0  0  0  0  0  0  0  0
   -3.8664    3.3782    0.6680 O   0  0  0  0  0  0  0  0  0  0  0  0
   -2.1173    3.7371    1.9085 O   0  0  0  0  0  0  0  0  0  0  0  0
  1  2  2  0  0  0  0
  1  6  1  0  0  0  0
  2  3  1  0  0  0  0
  3  4  2  0  0  0  0
  4  8  1  0  0  0  0
  5  4  1  0  0  0  0
  5 12  1  0  0  0  0
  6  5  2  0  0  0  0
  7  1  1  0  0  0  0
 10  9  3  0  0  0  0
 11  6  1  0  0  0  0
 12 14  2  0  0  0  0
 13 12  2  0  0  0  0
M  RAD  2   2   2   3   2
M  END
