Coordinates from ORCA-job 3-NO2-C6H3-N2-v1-B3LYPG-aug-cc-pVDZ-scan-d09-49-n400
 OpenBabel11091809163D

 14 13  0  0  0  0  0  0  0  0999 V2000
   -2.9650    0.2792   -1.5339 C   0  0  0  0  0  0  0  0  0  0  0  0
   -1.7292   -0.3445   -1.4166 C   0  0  0  0  0  0  0  0  0  0  0  0
   -0.7892   -0.0351   -0.6495 C   0  0  0  0  0  0  0  0  0  0  0  0
   -0.7538    1.0002    0.2648 C   0  0  0  0  0  0  0  0  0  0  0  0
   -1.9846    1.6986    0.2149 C   0  0  0  0  0  0  0  0  0  0  0  0
   -3.0549    1.3658   -0.6417 C   0  0  0  0  0  0  0  0  0  0  0  0
   -3.7775    0.0049   -2.2029 H   0  0  0  0  0  0  0  0  0  0  0  0
    0.0454    1.2904    0.9405 H   0  0  0  0  0  0  0  0  0  0  0  0
    2.8121    1.2437    2.3689 N   0  0  0  0  0  0  0  0  0  0  0  0
    3.8241    1.1138    2.7910 N   0  0  0  0  0  0  0  0  0  0  0  0
   -3.9594    1.9689   -0.6007 H   0  0  0  0  0  0  0  0  0  0  0  0
   -2.1517    2.8536    1.1252 N   0  0  0  0  0  0  0  0  0  0  0  0
   -3.2156    3.4664    1.0900 O   0  0  0  0  0  0  0  0  0  0  0  0
   -1.2121    3.1322    1.8652 O   0  0  0  0  0  0  0  0  0  0  0  0
  1  2  2  0  0  0  0
  1  6  1  0  0  0  0
  2  3  1  0  0  0  0
  3  4  2  0  0  0  0
  4  8  1  0  0  0  0
  5  4  1  0  0  0  0
  5 12  1  0  0  0  0
  6 11  1  0  0  0  0
  6  5  2  0  0  0  0
  7  1  1  0  0  0  0
  9 10  3  0  0  0  0
 12 14  2  0  0  0  0
 13 12  2  0  0  0  0
M  RAD  2   2   2   3   2
M  END
