Coordinates from ORCA-job 3-NO2-C6H3-N2-v1-B3LYPG-aug-cc-pVDZ-scan-d09-49-n400
 OpenBabel11091809163D

 14 13  0  0  0  0  0  0  0  0999 V2000
   -2.6532    0.1957   -1.4412 C   0  0  0  0  0  0  0  0  0  0  0  0
   -1.3711   -0.2512   -1.1461 C   0  0  0  0  0  0  0  0  0  0  0  0
   -0.5738    0.2274   -0.3077 C   0  0  0  0  0  0  0  0  0  0  0  0
   -0.7728    1.3116    0.5251 C   0  0  0  0  0  0  0  0  0  0  0  0
   -2.0672    1.8361    0.2907 C   0  0  0  0  0  0  0  0  0  0  0  0
   -2.9810    1.3130   -0.6482 C   0  0  0  0  0  0  0  0  0  0  0  0
   -3.3422   -0.2238   -2.1708 H   0  0  0  0  0  0  0  0  0  0  0  0
   -0.0995    1.7449    1.2584 H   0  0  0  0  0  0  0  0  0  0  0  0
    2.8450    0.8351    2.0341 N   0  0  0  0  0  0  0  0  0  0  0  0
    3.8150    0.3105    2.0888 N   0  0  0  0  0  0  0  0  0  0  0  0
   -3.9522    1.7925   -0.7497 H   0  0  0  0  0  0  0  0  0  0  0  0
   -2.4815    3.0121    1.0885 N   0  0  0  0  0  0  0  0  0  0  0  0
   -3.6014    3.4765    0.8925 O   0  0  0  0  0  0  0  0  0  0  0  0
   -1.6754    3.4578    1.9008 O   0  0  0  0  0  0  0  0  0  0  0  0
  1  2  2  0  0  0  0
  1  6  1  0  0  0  0
  2  3  1  0  0  0  0
  3  4  2  0  0  0  0
  4  8  1  0  0  0  0
  5  4  1  0  0  0  0
  5 12  1  0  0  0  0
  6  5  2  0  0  0  0
  7  1  1  0  0  0  0
  9 10  3  0  0  0  0
 11  6  1  0  0  0  0
 12 14  2  0  0  0  0
 13 12  2  0  0  0  0
M  RAD  2   2   2   3   2
M  END
