Coordinates from ORCA-job 3-NO2-C6H3-N2-v1-B3LYPG-aug-cc-pVDZ-scan-d09-49-n400
 OpenBabel11091809163D

 14 14  0  0  0  0  0  0  0  0999 V2000
   -1.8642    0.1186   -1.0890 C   0  0  0  0  0  0  0  0  0  0  0  0
   -0.5453   -0.3060   -0.7559 C   0  0  0  0  0  0  0  0  0  0  0  0
    0.0396    0.5664    0.3098 C   0  0  0  0  0  0  0  0  0  0  0  0
   -0.6520    1.6866    0.9121 C   0  0  0  0  0  0  0  0  0  0  0  0
   -1.9187    1.9637    0.4791 C   0  0  0  0  0  0  0  0  0  0  0  0
   -2.5446    1.1869   -0.5258 C   0  0  0  0  0  0  0  0  0  0  0  0
   -2.3827   -0.4561   -1.8617 H   0  0  0  0  0  0  0  0  0  0  0  0
   -0.1772    2.2887    1.6856 H   0  0  0  0  0  0  0  0  0  0  0  0
    1.0603    0.3221    0.6407 N   0  0  0  0  0  0  0  0  0  0  0  0
    2.1154    0.0385    0.9556 N   0  0  0  0  0  0  0  0  0  0  0  0
   -3.5555    1.4531   -0.8324 H   0  0  0  0  0  0  0  0  0  0  0  0
   -2.6422    3.1011    1.0792 N   0  0  0  0  0  0  0  0  0  0  0  0
   -3.7774    3.3243    0.6701 O   0  0  0  0  0  0  0  0  0  0  0  0
   -2.0668    3.7504    1.9480 O   0  0  0  0  0  0  0  0  0  0  0  0
  1  2  2  0  0  0  0
  1  6  1  0  0  0  0
  2  3  1  0  0  0  0
  3  9  1  0  0  0  0
  3  4  2  0  0  0  0
  4  8  1  0  0  0  0
  5  4  1  0  0  0  0
  5 12  1  0  0  0  0
  6  5  2  0  0  0  0
  7  1  1  0  0  0  0
  9 10  1  0  0  0  0
 11  6  1  0  0  0  0
 12 14  2  0  0  0  0
 13 12  2  0  0  0  0
M  RAD  3   2   2   9   2  10   3
M  END
