Coordinates from ORCA-job 3-NO2-C6H3-N2-v1-B3LYPG-aug-cc-pVDZ-scan-d09-49-n400
 OpenBabel11091809163D

 14 14  0  0  0  0  0  0  0  0999 V2000
   -1.8801    0.1218   -1.0947 C   0  0  0  0  0  0  0  0  0  0  0  0
   -0.5554   -0.2636   -0.7245 C   0  0  0  0  0  0  0  0  0  0  0  0
   -0.0826    0.5953    0.2701 C   0  0  0  0  0  0  0  0  0  0  0  0
   -0.6699    1.7031    0.9170 C   0  0  0  0  0  0  0  0  0  0  0  0
   -1.9491    1.9777    0.4751 C   0  0  0  0  0  0  0  0  0  0  0  0
   -2.5641    1.1949   -0.5291 C   0  0  0  0  0  0  0  0  0  0  0  0
   -2.3981   -0.4528   -1.8672 H   0  0  0  0  0  0  0  0  0  0  0  0
   -0.1907    2.3013    1.6893 H   0  0  0  0  0  0  0  0  0  0  0  0
    1.2547    0.2620    0.6918 N   0  0  0  0  0  0  0  0  0  0  0  0
    2.2858   -0.0696    0.9524 N   0  0  0  0  0  0  0  0  0  0  0  0
   -3.5749    1.4564   -0.8398 H   0  0  0  0  0  0  0  0  0  0  0  0
   -2.6749    3.1113    1.0707 N   0  0  0  0  0  0  0  0  0  0  0  0
   -3.8107    3.3367    0.6631 O   0  0  0  0  0  0  0  0  0  0  0  0
   -2.1012    3.7637    1.9411 O   0  0  0  0  0  0  0  0  0  0  0  0
  1  2  2  0  0  0  0
  1  6  1  0  0  0  0
  2  3  1  0  0  0  0
  3  9  1  0  0  0  0
  3  4  2  0  0  0  0
  4  8  1  0  0  0  0
  5  4  1  0  0  0  0
  5 12  1  0  0  0  0
  6  5  2  0  0  0  0
  7  1  1  0  0  0  0
  9 10  1  0  0  0  0
 11  6  1  0  0  0  0
 12 14  2  0  0  0  0
 13 12  2  0  0  0  0
M  RAD  3   2   2   9   2  10   3
M  END
