Coordinates from ORCA-job 3-NO2-C6H3-N2-v1-B3LYPG-aug-cc-pVDZ-scan-d09-49-n400
 OpenBabel11091809163D

 14 14  0  0  0  0  0  0  0  0999 V2000
   -1.8847    0.1252   -1.0943 C   0  0  0  0  0  0  0  0  0  0  0  0
   -0.5658   -0.2003   -0.6757 C   0  0  0  0  0  0  0  0  0  0  0  0
   -0.1372    0.6286    0.2698 C   0  0  0  0  0  0  0  0  0  0  0  0
   -0.6817    1.7205    0.9264 C   0  0  0  0  0  0  0  0  0  0  0  0
   -1.9727    1.9847    0.4695 C   0  0  0  0  0  0  0  0  0  0  0  0
   -2.5796    1.2003   -0.5323 C   0  0  0  0  0  0  0  0  0  0  0  0
   -2.3815   -0.4642   -1.8687 H   0  0  0  0  0  0  0  0  0  0  0  0
   -0.2023    2.3180    1.6985 H   0  0  0  0  0  0  0  0  0  0  0  0
    1.3939    0.2860    0.7863 N   0  0  0  0  0  0  0  0  0  0  0  0
    2.3696   -0.2424    0.8469 N   0  0  0  0  0  0  0  0  0  0  0  0
   -3.5898    1.4529   -0.8500 H   0  0  0  0  0  0  0  0  0  0  0  0
   -2.7050    3.1158    1.0603 N   0  0  0  0  0  0  0  0  0  0  0  0
   -3.8398    3.3401    0.6488 O   0  0  0  0  0  0  0  0  0  0  0  0
   -2.1346    3.7731    1.9298 O   0  0  0  0  0  0  0  0  0  0  0  0
  1  2  2  0  0  0  0
  1  6  1  0  0  0  0
  2  3  1  0  0  0  0
  3  9  1  0  0  0  0
  3  4  2  0  0  0  0
  4  8  1  0  0  0  0
  5  4  1  0  0  0  0
  5 12  1  0  0  0  0
  6  5  2  0  0  0  0
  7  1  1  0  0  0  0
  9 10  1  0  0  0  0
 11  6  1  0  0  0  0
 12 14  2  0  0  0  0
 13 12  2  0  0  0  0
M  RAD  3   2   2   9   2  10   3
M  END
