Coordinates from ORCA-job 3-NO2-C6H3-N2-v1-B3LYPG-aug-cc-pVDZ-scan-d09-49-n400
 OpenBabel11091809163D

 14 13  0  0  0  0  0  0  0  0999 V2000
   -2.4197    0.1608   -1.3472 C   0  0  0  0  0  0  0  0  0  0  0  0
   -1.1298   -0.1759   -0.9530 C   0  0  0  0  0  0  0  0  0  0  0  0
   -0.4322    0.3976   -0.0859 C   0  0  0  0  0  0  0  0  0  0  0  0
   -0.7652    1.4930    0.6852 C   0  0  0  0  0  0  0  0  0  0  0  0
   -2.0766    1.9069    0.3463 C   0  0  0  0  0  0  0  0  0  0  0  0
   -2.8830    1.2788   -0.6259 C   0  0  0  0  0  0  0  0  0  0  0  0
   -3.0252   -0.3379   -2.1008 H   0  0  0  0  0  0  0  0  0  0  0  0
   -0.1759    2.0037    1.4404 H   0  0  0  0  0  0  0  0  0  0  0  0
    2.6604    0.5864    1.7210 N   0  0  0  0  0  0  0  0  0  0  0  0
    3.5271   -0.0857    1.5944 N   0  0  0  0  0  0  0  0  0  0  0  0
   -3.8785    1.6770   -0.8104 H   0  0  0  0  0  0  0  0  0  0  0  0
   -2.6300    3.0766    1.0645 N   0  0  0  0  0  0  0  0  0  0  0  0
   -3.7665    3.4440    0.7788 O   0  0  0  0  0  0  0  0  0  0  0  0
   -1.9162    3.6130    1.9078 O   0  0  0  0  0  0  0  0  0  0  0  0
  1  2  2  0  0  0  0
  1  6  1  0  0  0  0
  2  3  1  0  0  0  0
  3  4  2  0  0  0  0
  4  8  1  0  0  0  0
  5  4  1  0  0  0  0
  5 12  1  0  0  0  0
  6  5  2  0  0  0  0
  7  1  1  0  0  0  0
 10  9  3  0  0  0  0
 11  6  1  0  0  0  0
 12 14  2  0  0  0  0
 13 12  2  0  0  0  0
M  RAD  2   2   2   3   2
M  END
