Coordinates from ORCA-job 3-NO2-C6H3-N2-v1-B3LYPG-aug-cc-pVDZ-scan-d09-49-n400
 OpenBabel11091809163D

 14 13  0  0  0  0  0  0  0  0999 V2000
   -2.5781    0.1828   -1.4126 C   0  0  0  0  0  0  0  0  0  0  0  0
   -1.2915   -0.2277   -1.0836 C   0  0  0  0  0  0  0  0  0  0  0  0
   -0.5294    0.2859   -0.2334 C   0  0  0  0  0  0  0  0  0  0  0  0
   -0.7729    1.3749    0.5801 C   0  0  0  0  0  0  0  0  0  0  0  0
   -2.0751    1.8616    0.3089 C   0  0  0  0  0  0  0  0  0  0  0  0
   -2.9529    1.3017   -0.6430 C   0  0  0  0  0  0  0  0  0  0  0  0
   -3.2395   -0.2642   -2.1515 H   0  0  0  0  0  0  0  0  0  0  0  0
   -0.1279    1.8354    1.3221 H   0  0  0  0  0  0  0  0  0  0  0  0
    2.8077    0.7459    1.9378 N   0  0  0  0  0  0  0  0  0  0  0  0
    3.7476    0.1667    1.9275 N   0  0  0  0  0  0  0  0  0  0  0  0
   -3.9338    1.7540   -0.7732 H   0  0  0  0  0  0  0  0  0  0  0  0
   -2.5382    3.0369    1.0804 N   0  0  0  0  0  0  0  0  0  0  0  0
   -3.6647    3.4695    0.8519 O   0  0  0  0  0  0  0  0  0  0  0  0
   -1.7627    3.5149    1.9039 O   0  0  0  0  0  0  0  0  0  0  0  0
  1  2  2  0  0  0  0
  1  6  1  0  0  0  0
  2  3  1  0  0  0  0
  3  4  2  0  0  0  0
  4  8  1  0  0  0  0
  5  4  1  0  0  0  0
  5 12  1  0  0  0  0
  6  5  2  0  0  0  0
  7  1  1  0  0  0  0
 10  9  3  0  0  0  0
 11  6  1  0  0  0  0
 12 14  2  0  0  0  0
 13 12  2  0  0  0  0
M  RAD  2   2   2   3   2
M  END
