Coordinates from ORCA-job 3-NO2-C6H3-N2-v1-B3LYPG-aug-cc-pVDZ-scan-d09-49-n400
 OpenBabel11091809163D

 14 14  0  0  0  0  0  0  0  0999 V2000
   -1.8810    0.1228   -1.0943 C   0  0  0  0  0  0  0  0  0  0  0  0
   -0.5564   -0.2557   -0.7183 C   0  0  0  0  0  0  0  0  0  0  0  0
   -0.0957    0.6007    0.2678 C   0  0  0  0  0  0  0  0  0  0  0  0
   -0.6726    1.7057    0.9178 C   0  0  0  0  0  0  0  0  0  0  0  0
   -1.9540    1.9795    0.4741 C   0  0  0  0  0  0  0  0  0  0  0  0
   -2.5672    1.1963   -0.5296 C   0  0  0  0  0  0  0  0  0  0  0  0
   -2.3966   -0.4536   -1.8671 H   0  0  0  0  0  0  0  0  0  0  0  0
   -0.1925    2.3031    1.6899 H   0  0  0  0  0  0  0  0  0  0  0  0
    1.2788    0.2611    0.7039 N   0  0  0  0  0  0  0  0  0  0  0  0
    2.3060   -0.0939    0.9421 N   0  0  0  0  0  0  0  0  0  0  0  0
   -3.5779    1.4561   -0.8416 H   0  0  0  0  0  0  0  0  0  0  0  0
   -2.6800    3.1126    1.0692 N   0  0  0  0  0  0  0  0  0  0  0  0
   -3.8158    3.3382    0.6617 O   0  0  0  0  0  0  0  0  0  0  0  0
   -2.1063    3.7653    1.9398 O   0  0  0  0  0  0  0  0  0  0  0  0
  1  2  2  0  0  0  0
  1  6  1  0  0  0  0
  2  3  1  0  0  0  0
  3  9  1  0  0  0  0
  3  4  2  0  0  0  0
  4  8  1  0  0  0  0
  5  4  1  0  0  0  0
  5 12  1  0  0  0  0
  6  5  2  0  0  0  0
  7  1  1  0  0  0  0
  9 10  1  0  0  0  0
 11  6  1  0  0  0  0
 12 14  2  0  0  0  0
 13 12  2  0  0  0  0
M  RAD  3   2   2   9   2  10   3
M  END
