Coordinates from ORCA-job 3-NO2-C6H3-N2-v1-B3LYPG-aug-cc-pVDZ-scan-d09-49-n400
 OpenBabel11091809163D

 14 13  0  0  0  0  0  0  0  0999 V2000
   -2.4010    0.1586   -1.3396 C   0  0  0  0  0  0  0  0  0  0  0  0
   -1.1111   -0.1699   -0.9385 C   0  0  0  0  0  0  0  0  0  0  0  0
   -0.4214    0.4102   -0.0695 C   0  0  0  0  0  0  0  0  0  0  0  0
   -0.7635    1.5054    0.6976 C   0  0  0  0  0  0  0  0  0  0  0  0
   -2.0758    1.9108    0.3513 C   0  0  0  0  0  0  0  0  0  0  0  0
   -2.8740    1.2757   -0.6233 C   0  0  0  0  0  0  0  0  0  0  0  0
   -3.0002   -0.3453   -2.0947 H   0  0  0  0  0  0  0  0  0  0  0  0
   -0.1816    2.0220    1.4545 H   0  0  0  0  0  0  0  0  0  0  0  0
    2.6390    0.5704    1.6956 N   0  0  0  0  0  0  0  0  0  0  0  0
    3.4957   -0.1117    1.5548 N   0  0  0  0  0  0  0  0  0  0  0  0
   -3.8709    1.6679   -0.8134 H   0  0  0  0  0  0  0  0  0  0  0  0
   -2.6394    3.0791    1.0639 N   0  0  0  0  0  0  0  0  0  0  0  0
   -3.7754    3.4412    0.7697 O   0  0  0  0  0  0  0  0  0  0  0  0
   -1.9316    3.6237    1.9070 O   0  0  0  0  0  0  0  0  0  0  0  0
  1  2  2  0  0  0  0
  1  6  1  0  0  0  0
  2  3  1  0  0  0  0
  3  4  2  0  0  0  0
  4  8  1  0  0  0  0
  5  4  1  0  0  0  0
  5 12  1  0  0  0  0
  6  5  2  0  0  0  0
  7  1  1  0  0  0  0
 10  9  3  0  0  0  0
 11  6  1  0  0  0  0
 12 14  2  0  0  0  0
 13 12  2  0  0  0  0
M  RAD  2   2   2   3   2
M  END
