Coordinates from ORCA-job 3-NO2-C6H3-N2-v1-B3LYPG-aug-cc-pVDZ-scan-d09-49-n400
 OpenBabel11091809163D

 14 13  0  0  0  0  0  0  0  0999 V2000
   -2.8292    0.2344   -1.5007 C   0  0  0  0  0  0  0  0  0  0  0  0
   -1.5654   -0.3054   -1.2963 C   0  0  0  0  0  0  0  0  0  0  0  0
   -0.6910    0.0879   -0.4912 C   0  0  0  0  0  0  0  0  0  0  0  0
   -0.7695    1.1515    0.3876 C   0  0  0  0  0  0  0  0  0  0  0  0
   -2.0368    1.7676    0.2472 C   0  0  0  0  0  0  0  0  0  0  0  0
   -3.0355    1.3406   -0.6531 C   0  0  0  0  0  0  0  0  0  0  0  0
   -3.5849   -0.1120   -2.2022 H   0  0  0  0  0  0  0  0  0  0  0  0
   -0.0291    1.5137    1.0946 H   0  0  0  0  0  0  0  0  0  0  0  0
    2.8900    1.0535    2.2455 N   0  0  0  0  0  0  0  0  0  0  0  0
    3.9101    0.7027    2.4809 N   0  0  0  0  0  0  0  0  0  0  0  0
   -3.9764    1.8859   -0.6812 H   0  0  0  0  0  0  0  0  0  0  0  0
   -2.3255    2.9377    1.1066 N   0  0  0  0  0  0  0  0  0  0  0  0
   -3.4211    3.4809    0.9926 O   0  0  0  0  0  0  0  0  0  0  0  0
   -1.4470    3.2993    1.8848 O   0  0  0  0  0  0  0  0  0  0  0  0
  1  2  2  0  0  0  0
  1  6  1  0  0  0  0
  2  3  1  0  0  0  0
  3  4  2  0  0  0  0
  4  8  1  0  0  0  0
  5  4  1  0  0  0  0
  5 12  1  0  0  0  0
  6  5  2  0  0  0  0
  7  1  1  0  0  0  0
  9 10  3  0  0  0  0
 11  6  1  0  0  0  0
 12 14  2  0  0  0  0
 13 12  2  0  0  0  0
M  RAD  2   2   2   3   2
M  END
