Coordinates from ORCA-job 3-NO2-C6H3-N2-v1-B3LYPG-aug-cc-pVDZ-scan-d09-49-n400
 OpenBabel11091809163D

 14 14  0  0  0  0  0  0  0  0999 V2000
   -1.8770    0.1203   -1.0950 C   0  0  0  0  0  0  0  0  0  0  0  0
   -0.5524   -0.2791   -0.7381 C   0  0  0  0  0  0  0  0  0  0  0  0
   -0.0484    0.5830    0.2774 C   0  0  0  0  0  0  0  0  0  0  0  0
   -0.6640    1.6959    0.9161 C   0  0  0  0  0  0  0  0  0  0  0  0
   -1.9387    1.9718    0.4787 C   0  0  0  0  0  0  0  0  0  0  0  0
   -2.5576    1.1911   -0.5273 C   0  0  0  0  0  0  0  0  0  0  0  0
   -2.3980   -0.4516   -1.8677 H   0  0  0  0  0  0  0  0  0  0  0  0
   -0.1872    2.2953    1.6893 H   0  0  0  0  0  0  0  0  0  0  0  0
    1.1961    0.2739    0.6701 N   0  0  0  0  0  0  0  0  0  0  0  0
    2.2337   -0.0203    0.9658 N   0  0  0  0  0  0  0  0  0  0  0  0
   -3.5687    1.4554   -0.8349 H   0  0  0  0  0  0  0  0  0  0  0  0
   -2.6646    3.1054    1.0769 N   0  0  0  0  0  0  0  0  0  0  0  0
   -3.7971    3.3353    0.6629 O   0  0  0  0  0  0  0  0  0  0  0  0
   -2.0875    3.7620    1.9412 O   0  0  0  0  0  0  0  0  0  0  0  0
  1  2  2  0  0  0  0
  1  6  1  0  0  0  0
  2  3  1  0  0  0  0
  3  9  1  0  0  0  0
  3  4  2  0  0  0  0
  4  8  1  0  0  0  0
  5  4  1  0  0  0  0
  5 12  1  0  0  0  0
  6  5  2  0  0  0  0
  7  1  1  0  0  0  0
  9 10  1  0  0  0  0
 11  6  1  0  0  0  0
 12 14  2  0  0  0  0
 13 12  2  0  0  0  0
M  RAD  3   2   2   9   2  10   3
M  END
