Coordinates from ORCA-job 3-NO2-C6H3-N2-v1-B3LYPG-aug-cc-pVDZ-scan-d09-49-n400
 OpenBabel11091809163D

 14 13  0  0  0  0  0  0  0  0999 V2000
   -2.0754    0.1275   -1.1931 C   0  0  0  0  0  0  0  0  0  0  0  0
   -0.7883   -0.0952   -0.7016 C   0  0  0  0  0  0  0  0  0  0  0  0
   -0.2453    0.6010    0.1889 C   0  0  0  0  0  0  0  0  0  0  0  0
   -0.7158    1.6907    0.8812 C   0  0  0  0  0  0  0  0  0  0  0  0
   -2.0272    1.9704    0.4262 C   0  0  0  0  0  0  0  0  0  0  0  0
   -2.6946    1.2279   -0.5705 C   0  0  0  0  0  0  0  0  0  0  0  0
   -2.5784   -0.4543   -1.9634 H   0  0  0  0  0  0  0  0  0  0  0  0
   -0.2270    2.2803    1.6508 H   0  0  0  0  0  0  0  0  0  0  0  0
    2.0263    0.3218    1.1541 N   0  0  0  0  0  0  0  0  0  0  0  0
    2.8576   -0.3854    0.9823 N   0  0  0  0  0  0  0  0  0  0  0  0
   -3.7033    1.5250   -0.8497 H   0  0  0  0  0  0  0  0  0  0  0  0
   -2.7322    3.1157    1.0417 N   0  0  0  0  0  0  0  0  0  0  0  0
   -3.8716    3.3655    0.6578 O   0  0  0  0  0  0  0  0  0  0  0  0
   -2.1362    3.7473    1.9107 O   0  0  0  0  0  0  0  0  0  0  0  0
  1  2  2  0  0  0  0
  1  6  1  0  0  0  0
  2  3  1  0  0  0  0
  3  4  2  0  0  0  0
  4  8  1  0  0  0  0
  5  4  1  0  0  0  0
  5 12  1  0  0  0  0
  6  5  2  0  0  0  0
  7  1  1  0  0  0  0
 10  9  3  0  0  0  0
 11  6  1  0  0  0  0
 12 14  2  0  0  0  0
 13 12  2  0  0  0  0
M  RAD  2   2   2   3   2
M  END
