Coordinates from ORCA-job 3-NO2-C6H3-N2-v1-B3LYPG-aug-cc-pVDZ-scan-d09-49-n400
 OpenBabel11091809163D

 14 13  0  0  0  0  0  0  0  0999 V2000
   -2.8212    0.2321   -1.4981 C   0  0  0  0  0  0  0  0  0  0  0  0
   -1.5564   -0.3036   -1.2888 C   0  0  0  0  0  0  0  0  0  0  0  0
   -0.6855    0.0940   -0.4822 C   0  0  0  0  0  0  0  0  0  0  0  0
   -0.7691    1.1595    0.3942 C   0  0  0  0  0  0  0  0  0  0  0  0
   -2.0379    1.7713    0.2485 C   0  0  0  0  0  0  0  0  0  0  0  0
   -3.0329    1.3395   -0.6535 C   0  0  0  0  0  0  0  0  0  0  0  0
   -3.5740   -0.1181   -2.2008 H   0  0  0  0  0  0  0  0  0  0  0  0
   -0.0323    1.5261    1.1027 H   0  0  0  0  0  0  0  0  0  0  0  0
    2.8883    1.0436    2.2358 N   0  0  0  0  0  0  0  0  0  0  0  0
    3.9069    0.6828    2.4623 N   0  0  0  0  0  0  0  0  0  0  0  0
   -3.9753    1.8822   -0.6854 H   0  0  0  0  0  0  0  0  0  0  0  0
   -2.3324    2.9428    1.1044 N   0  0  0  0  0  0  0  0  0  0  0  0
   -3.4308    3.4799    0.9891 O   0  0  0  0  0  0  0  0  0  0  0  0
   -1.4587    3.3060    1.8873 O   0  0  0  0  0  0  0  0  0  0  0  0
  1  2  2  0  0  0  0
  1  6  1  0  0  0  0
  2  3  1  0  0  0  0
  3  4  2  0  0  0  0
  4  8  1  0  0  0  0
  5  4  1  0  0  0  0
  5 12  1  0  0  0  0
  6  5  2  0  0  0  0
  7  1  1  0  0  0  0
  9 10  3  0  0  0  0
 11  6  1  0  0  0  0
 12 14  2  0  0  0  0
 13 12  2  0  0  0  0
M  RAD  2   2   2   3   2
M  END
