Coordinates from ORCA-job 3-NO2-C6H3-N2-v1-B3LYPG-aug-cc-pVDZ-scan-d09-49-n400
 OpenBabel11091809163D

 14 13  0  0  0  0  0  0  0  0999 V2000
   -2.4718    0.1673   -1.3692 C   0  0  0  0  0  0  0  0  0  0  0  0
   -1.1824   -0.1929   -0.9952 C   0  0  0  0  0  0  0  0  0  0  0  0
   -0.4638    0.3621   -0.1331 C   0  0  0  0  0  0  0  0  0  0  0  0
   -0.7685    1.4564    0.6517 C   0  0  0  0  0  0  0  0  0  0  0  0
   -2.0776    1.8934    0.3337 C   0  0  0  0  0  0  0  0  0  0  0  0
   -2.9072    1.2864   -0.6325 C   0  0  0  0  0  0  0  0  0  0  0  0
   -3.0954   -0.3154   -2.1184 H   0  0  0  0  0  0  0  0  0  0  0  0
   -0.1607    1.9511    1.4029 H   0  0  0  0  0  0  0  0  0  0  0  0
    2.7157    0.6345    1.7923 N   0  0  0  0  0  0  0  0  0  0  0  0
    3.6088   -0.0086    1.7040 N   0  0  0  0  0  0  0  0  0  0  0  0
   -3.8985    1.7021   -0.7999 H   0  0  0  0  0  0  0  0  0  0  0  0
   -2.6028    3.0659    1.0689 N   0  0  0  0  0  0  0  0  0  0  0  0
   -3.7374    3.4529    0.8023 O   0  0  0  0  0  0  0  0  0  0  0  0
   -1.8698    3.5830    1.9077 O   0  0  0  0  0  0  0  0  0  0  0  0
  1  2  2  0  0  0  0
  1  6  1  0  0  0  0
  2  3  1  0  0  0  0
  3  4  2  0  0  0  0
  4  8  1  0  0  0  0
  5  4  1  0  0  0  0
  5 12  1  0  0  0  0
  6  5  2  0  0  0  0
  7  1  1  0  0  0  0
 10  9  3  0  0  0  0
 11  6  1  0  0  0  0
 12 14  2  0  0  0  0
 13 12  2  0  0  0  0
M  RAD  2   2   2   3   2
M  END
