Coordinates from ORCA-job 3-NO2-C6H3-N2-v1-B3LYPG-aug-cc-pVDZ-scan-d09-49-n400
 OpenBabel11091809163D

 14 13  0  0  0  0  0  0  0  0999 V2000
   -2.6898    0.2027   -1.4544 C   0  0  0  0  0  0  0  0  0  0  0  0
   -1.4106   -0.2632   -1.1773 C   0  0  0  0  0  0  0  0  0  0  0  0
   -0.5961    0.1975   -0.3455 C   0  0  0  0  0  0  0  0  0  0  0  0
   -0.7710    1.2785    0.4972 C   0  0  0  0  0  0  0  0  0  0  0  0
   -2.0607    1.8223    0.2819 C   0  0  0  0  0  0  0  0  0  0  0  0
   -2.9927    1.3186   -0.6497 C   0  0  0  0  0  0  0  0  0  0  0  0
   -3.3929   -0.2022   -2.1788 H   0  0  0  0  0  0  0  0  0  0  0  0
   -0.0834    1.6977    1.2256 H   0  0  0  0  0  0  0  0  0  0  0  0
    2.8513    0.8811    2.0768 N   0  0  0  0  0  0  0  0  0  0  0  0
    3.8359    0.3902    2.1695 N   0  0  0  0  0  0  0  0  0  0  0  0
   -3.9584    1.8121   -0.7361 H   0  0  0  0  0  0  0  0  0  0  0  0
   -2.4494    2.9980    1.0928 N   0  0  0  0  0  0  0  0  0  0  0  0
   -3.5654    3.4785    0.9141 O   0  0  0  0  0  0  0  0  0  0  0  0
   -1.6280    3.4264    1.8991 O   0  0  0  0  0  0  0  0  0  0  0  0
  1  2  2  0  0  0  0
  1  6  1  0  0  0  0
  2  3  1  0  0  0  0
  3  4  2  0  0  0  0
  4  8  1  0  0  0  0
  5  4  1  0  0  0  0
  5 12  1  0  0  0  0
  6  5  2  0  0  0  0
  7  1  1  0  0  0  0
  9 10  3  0  0  0  0
 11  6  1  0  0  0  0
 12 14  2  0  0  0  0
 13 12  2  0  0  0  0
M  RAD  2   2   2   3   2
M  END
