Coordinates from ORCA-job 3-NO2-C6H3-N2-v1-B3LYPG-aug-cc-pVDZ-scan-d09-49-n400
 OpenBabel11091809163D

 14 13  0  0  0  0  0  0  0  0999 V2000
   -2.2503    0.1428   -1.2726 C   0  0  0  0  0  0  0  0  0  0  0  0
   -0.9629   -0.1239   -0.8190 C   0  0  0  0  0  0  0  0  0  0  0  0
   -0.3330    0.5061    0.0606 C   0  0  0  0  0  0  0  0  0  0  0  0
   -0.7474    1.6023    0.7883 C   0  0  0  0  0  0  0  0  0  0  0  0
   -2.0612    1.9446    0.3860 C   0  0  0  0  0  0  0  0  0  0  0  0
   -2.7958    1.2546   -0.6012 C   0  0  0  0  0  0  0  0  0  0  0  0
   -2.8002   -0.4026   -2.0366 H   0  0  0  0  0  0  0  0  0  0  0  0
   -0.2105    2.1558    1.5523 H   0  0  0  0  0  0  0  0  0  0  0  0
    2.4001    0.4296    1.4465 N   0  0  0  0  0  0  0  0  0  0  0  0
    3.2337   -0.2744    1.2768 N   0  0  0  0  0  0  0  0  0  0  0  0
   -3.8003    1.5999   -0.8364 H   0  0  0  0  0  0  0  0  0  0  0  0
   -2.6979    3.1038    1.0499 N   0  0  0  0  0  0  0  0  0  0  0  0
   -3.8387    3.4075    0.7112 O   0  0  0  0  0  0  0  0  0  0  0  0
   -2.0469    3.6921    1.9093 O   0  0  0  0  0  0  0  0  0  0  0  0
  1  2  2  0  0  0  0
  1  6  1  0  0  0  0
  2  3  1  0  0  0  0
  3  4  2  0  0  0  0
  4  8  1  0  0  0  0
  5  4  1  0  0  0  0
  5 12  1  0  0  0  0
  6  5  2  0  0  0  0
  7  1  1  0  0  0  0
 10  9  3  0  0  0  0
 11  6  1  0  0  0  0
 12 14  2  0  0  0  0
 13 12  2  0  0  0  0
M  RAD  2   2   2   3   2
M  END
