Coordinates from ORCA-job 3-NO2-C6H3-N2-v1-B3LYPG-aug-cc-pVDZ-scan-d09-49-n400
 OpenBabel11091809163D

 14 13  0  0  0  0  0  0  0  0999 V2000
   -2.6440    0.1939   -1.4375 C   0  0  0  0  0  0  0  0  0  0  0  0
   -1.3613   -0.2487   -1.1379 C   0  0  0  0  0  0  0  0  0  0  0  0
   -0.5686    0.2349   -0.2981 C   0  0  0  0  0  0  0  0  0  0  0  0
   -0.7731    1.3202    0.5318 C   0  0  0  0  0  0  0  0  0  0  0  0
   -2.0684    1.8401    0.2923 C   0  0  0  0  0  0  0  0  0  0  0  0
   -2.9777    1.3119   -0.6481 C   0  0  0  0  0  0  0  0  0  0  0  0
   -3.3296   -0.2294   -2.1682 H   0  0  0  0  0  0  0  0  0  0  0  0
   -0.1030    1.7570    1.2660 H   0  0  0  0  0  0  0  0  0  0  0  0
    2.8431    0.8237    2.0231 N   0  0  0  0  0  0  0  0  0  0  0  0
    3.8089    0.2906    2.0687 N   0  0  0  0  0  0  0  0  0  0  0  0
   -3.9502    1.7880   -0.7536 H   0  0  0  0  0  0  0  0  0  0  0  0
   -2.4887    3.0166    1.0861 N   0  0  0  0  0  0  0  0  0  0  0  0
   -3.6108    3.4749    0.8882 O   0  0  0  0  0  0  0  0  0  0  0  0
   -1.6878    3.4644    1.9024 O   0  0  0  0  0  0  0  0  0  0  0  0
  1  2  2  0  0  0  0
  1  6  1  0  0  0  0
  2  3  1  0  0  0  0
  3  4  2  0  0  0  0
  4  8  1  0  0  0  0
  5  4  1  0  0  0  0
  5 12  1  0  0  0  0
  6  5  2  0  0  0  0
  7  1  1  0  0  0  0
  9 10  3  0  0  0  0
 11  6  1  0  0  0  0
 12 14  2  0  0  0  0
 13 12  2  0  0  0  0
M  RAD  2   2   2   3   2
M  END
