Coordinates from ORCA-job 3-NO2-C6H3-N2-v1-B3LYPG-aug-cc-pVDZ-scan-d09-49-n400
 OpenBabel11091809163D

 14 13  0  0  0  0  0  0  0  0999 V2000
   -2.5863    0.1840   -1.4154 C   0  0  0  0  0  0  0  0  0  0  0  0
   -1.3001   -0.2305   -1.0898 C   0  0  0  0  0  0  0  0  0  0  0  0
   -0.5340    0.2796   -0.2410 C   0  0  0  0  0  0  0  0  0  0  0  0
   -0.7732    1.3686    0.5737 C   0  0  0  0  0  0  0  0  0  0  0  0
   -2.0744    1.8598    0.3063 C   0  0  0  0  0  0  0  0  0  0  0  0
   -2.9561    1.3033   -0.6440 C   0  0  0  0  0  0  0  0  0  0  0  0
   -3.2506   -0.2604   -2.1532 H   0  0  0  0  0  0  0  0  0  0  0  0
   -0.1244    1.8260    1.3145 H   0  0  0  0  0  0  0  0  0  0  0  0
    2.8131    0.7551    1.9485 N   0  0  0  0  0  0  0  0  0  0  0  0
    3.7563    0.1810    1.9451 N   0  0  0  0  0  0  0  0  0  0  0  0
   -3.9359    1.7585   -0.7716 H   0  0  0  0  0  0  0  0  0  0  0  0
   -2.5320    3.0357    1.0799 N   0  0  0  0  0  0  0  0  0  0  0  0
   -3.6592    3.4695    0.8574 O   0  0  0  0  0  0  0  0  0  0  0  0
   -1.7546    3.5082    1.9049 O   0  0  0  0  0  0  0  0  0  0  0  0
  1  2  2  0  0  0  0
  1  6  1  0  0  0  0
  2  3  1  0  0  0  0
  3  4  2  0  0  0  0
  4  8  1  0  0  0  0
  5  4  1  0  0  0  0
  5 12  1  0  0  0  0
  6  5  2  0  0  0  0
  7  1  1  0  0  0  0
 10  9  3  0  0  0  0
 11  6  1  0  0  0  0
 12 14  2  0  0  0  0
 13 12  2  0  0  0  0
M  RAD  2   2   2   3   2
M  END
