Coordinates from ORCA-job 3-NO2-C6H3-N2-v1-B3LYPG-aug-cc-pVDZ-scan-d09-49-n400
 OpenBabel11091809163D

 14 14  0  0  0  0  0  0  0  0999 V2000
   -1.8773    0.1201   -1.0947 C   0  0  0  0  0  0  0  0  0  0  0  0
   -0.5528   -0.2781   -0.7359 C   0  0  0  0  0  0  0  0  0  0  0  0
   -0.0523    0.5842    0.2765 C   0  0  0  0  0  0  0  0  0  0  0  0
   -0.6639    1.6974    0.9154 C   0  0  0  0  0  0  0  0  0  0  0  0
   -1.9390    1.9735    0.4771 C   0  0  0  0  0  0  0  0  0  0  0  0
   -2.5577    1.1920   -0.5281 C   0  0  0  0  0  0  0  0  0  0  0  0
   -2.3983   -0.4523   -1.8670 H   0  0  0  0  0  0  0  0  0  0  0  0
   -0.1866    2.2971    1.6881 H   0  0  0  0  0  0  0  0  0  0  0  0
    1.2013    0.2720    0.6720 N   0  0  0  0  0  0  0  0  0  0  0  0
    2.2381   -0.0252    0.9653 N   0  0  0  0  0  0  0  0  0  0  0  0
   -3.5686    1.4563   -0.8364 H   0  0  0  0  0  0  0  0  0  0  0  0
   -2.6643    3.1080    1.0739 N   0  0  0  0  0  0  0  0  0  0  0  0
   -3.7997    3.3332    0.6655 O   0  0  0  0  0  0  0  0  0  0  0  0
   -2.0901    3.7601    1.9436 O   0  0  0  0  0  0  0  0  0  0  0  0
  1  2  2  0  0  0  0
  1  6  1  0  0  0  0
  2  3  1  0  0  0  0
  3  9  1  0  0  0  0
  3  4  2  0  0  0  0
  4  8  1  0  0  0  0
  5  4  1  0  0  0  0
  5 12  1  0  0  0  0
  6  5  2  0  0  0  0
  7  1  1  0  0  0  0
  9 10  1  0  0  0  0
 11  6  1  0  0  0  0
 12 14  2  0  0  0  0
 13 12  2  0  0  0  0
M  RAD  3   2   2   9   2  10   3
M  END
