Coordinates from ORCA-job 3-NO2-C6H3-N2-v1-B3LYPG-aug-cc-pVDZ-scan-d09-49-n400
 OpenBabel11091809163D

 14 14  0  0  0  0  0  0  0  0999 V2000
   -1.8896    0.1244   -1.0975 C   0  0  0  0  0  0  0  0  0  0  0  0
   -0.5745   -0.1807   -0.6631 C   0  0  0  0  0  0  0  0  0  0  0  0
   -0.1436    0.6347    0.2717 C   0  0  0  0  0  0  0  0  0  0  0  0
   -0.6822    1.7240    0.9287 C   0  0  0  0  0  0  0  0  0  0  0  0
   -1.9757    1.9846    0.4671 C   0  0  0  0  0  0  0  0  0  0  0  0
   -2.5834    1.2009   -0.5341 C   0  0  0  0  0  0  0  0  0  0  0  0
   -2.3808   -0.4688   -1.8720 H   0  0  0  0  0  0  0  0  0  0  0  0
   -0.2044    2.3228    1.7008 H   0  0  0  0  0  0  0  0  0  0  0  0
    1.4329    0.2976    0.8173 N   0  0  0  0  0  0  0  0  0  0  0  0
    2.3810   -0.2822    0.8188 N   0  0  0  0  0  0  0  0  0  0  0  0
   -3.5935    1.4538   -0.8518 H   0  0  0  0  0  0  0  0  0  0  0  0
   -2.7101    3.1159    1.0564 N   0  0  0  0  0  0  0  0  0  0  0  0
   -3.8455    3.3382    0.6454 O   0  0  0  0  0  0  0  0  0  0  0  0
   -2.1418    3.7730    1.9273 O   0  0  0  0  0  0  0  0  0  0  0  0
  1  2  2  0  0  0  0
  1  6  1  0  0  0  0
  2  3  1  0  0  0  0
  3  9  1  0  0  0  0
  3  4  2  0  0  0  0
  4  8  1  0  0  0  0
  5  4  1  0  0  0  0
  5 12  1  0  0  0  0
  6  5  2  0  0  0  0
  7  1  1  0  0  0  0
  9 10  2  0  0  0  0
 11  6  1  0  0  0  0
 12 14  2  0  0  0  0
 13 12  2  0  0  0  0
M  RAD  2   2   2  10   2
M  END
