Coordinates from ORCA-job 3-NO2-C6H3-N2-v1-B3LYPG-aug-cc-pVDZ-scan-d09-49-n400
 OpenBabel11091809163D

 14 14  0  0  0  0  0  0  0  0999 V2000
   -1.8823    0.1251   -1.0929 C   0  0  0  0  0  0  0  0  0  0  0  0
   -0.5606   -0.2200   -0.6894 C   0  0  0  0  0  0  0  0  0  0  0  0
   -0.1283    0.6207    0.2676 C   0  0  0  0  0  0  0  0  0  0  0  0
   -0.6798    1.7165    0.9228 C   0  0  0  0  0  0  0  0  0  0  0  0
   -1.9680    1.9846    0.4705 C   0  0  0  0  0  0  0  0  0  0  0  0
   -2.5758    1.1997   -0.5314 C   0  0  0  0  0  0  0  0  0  0  0  0
   -2.3855   -0.4603   -1.8666 H   0  0  0  0  0  0  0  0  0  0  0  0
   -0.1992    2.3135    1.6947 H   0  0  0  0  0  0  0  0  0  0  0  0
    1.3570    0.2747    0.7573 N   0  0  0  0  0  0  0  0  0  0  0  0
    2.3555   -0.1968    0.8799 N   0  0  0  0  0  0  0  0  0  0  0  0
   -3.5861    1.4538   -0.8483 H   0  0  0  0  0  0  0  0  0  0  0  0
   -2.6975    3.1165    1.0623 N   0  0  0  0  0  0  0  0  0  0  0  0
   -3.8338    3.3397    0.6546 O   0  0  0  0  0  0  0  0  0  0  0  0
   -2.1268    3.7704    1.9343 O   0  0  0  0  0  0  0  0  0  0  0  0
  1  2  2  0  0  0  0
  1  6  1  0  0  0  0
  2  3  1  0  0  0  0
  3  9  1  0  0  0  0
  3  4  2  0  0  0  0
  4  8  1  0  0  0  0
  5  4  1  0  0  0  0
  5 12  1  0  0  0  0
  6  5  2  0  0  0  0
  7  1  1  0  0  0  0
  9 10  1  0  0  0  0
 11  6  1  0  0  0  0
 12 14  2  0  0  0  0
 13 12  2  0  0  0  0
M  RAD  3   2   2   9   2  10   3
M  END
