Coordinates from ORCA-job 3-NO2-C6H3-N2-v1-B3LYPG-aug-cc-pVDZ-scan-d09-49-n400
 OpenBabel11091809163D

 14 13  0  0  0  0  0  0  0  0999 V2000
   -2.1752    0.1361   -1.2387 C   0  0  0  0  0  0  0  0  0  0  0  0
   -0.8885   -0.1082   -0.7661 C   0  0  0  0  0  0  0  0  0  0  0  0
   -0.2950    0.5499    0.1186 C   0  0  0  0  0  0  0  0  0  0  0  0
   -0.7347    1.6434    0.8308 C   0  0  0  0  0  0  0  0  0  0  0  0
   -2.0483    1.9571    0.4039 C   0  0  0  0  0  0  0  0  0  0  0  0
   -2.7534    1.2435   -0.5881 C   0  0  0  0  0  0  0  0  0  0  0  0
   -2.7037   -0.4261   -2.0059 H   0  0  0  0  0  0  0  0  0  0  0  0
   -0.2217    2.2151    1.5979 H   0  0  0  0  0  0  0  0  0  0  0  0
    2.2402    0.3631    1.3038 N   0  0  0  0  0  0  0  0  0  0  0  0
    3.0931   -0.3233    1.1600 N   0  0  0  0  0  0  0  0  0  0  0  0
   -3.7602    1.5676   -0.8429 H   0  0  0  0  0  0  0  0  0  0  0  0
   -2.7168    3.1104    1.0462 N   0  0  0  0  0  0  0  0  0  0  0  0
   -3.8570    3.3904    0.6861 O   0  0  0  0  0  0  0  0  0  0  0  0
   -2.0902    3.7193    1.9096 O   0  0  0  0  0  0  0  0  0  0  0  0
  1  2  2  0  0  0  0
  1  6  1  0  0  0  0
  2  3  1  0  0  0  0
  3  4  2  0  0  0  0
  4  8  1  0  0  0  0
  5  4  1  0  0  0  0
  5 12  1  0  0  0  0
  6  5  2  0  0  0  0
  7  1  1  0  0  0  0
 10  9  3  0  0  0  0
 11  6  1  0  0  0  0
 12 14  2  0  0  0  0
 13 12  2  0  0  0  0
M  RAD  2   2   2   3   2
M  END
