Coordinates from ORCA-job 3-NO2-C6H3-N2-v1-B3LYPG-aug-cc-pVDZ-scan-d09-49-n400
 OpenBabel11091809163D

 14 14  0  0  0  0  0  0  0  0999 V2000
   -1.8814    0.1241   -1.0933 C   0  0  0  0  0  0  0  0  0  0  0  0
   -0.5578   -0.2368   -0.7026 C   0  0  0  0  0  0  0  0  0  0  0  0
   -0.1178    0.6119    0.2657 C   0  0  0  0  0  0  0  0  0  0  0  0
   -0.6766    1.7112    0.9202 C   0  0  0  0  0  0  0  0  0  0  0  0
   -1.9624    1.9825    0.4720 C   0  0  0  0  0  0  0  0  0  0  0  0
   -2.5723    1.1983   -0.5306 C   0  0  0  0  0  0  0  0  0  0  0  0
   -2.3904   -0.4571   -1.8667 H   0  0  0  0  0  0  0  0  0  0  0  0
   -0.1953    2.3076    1.6921 H   0  0  0  0  0  0  0  0  0  0  0  0
    1.3214    0.2678    0.7323 N   0  0  0  0  0  0  0  0  0  0  0  0
    2.3361   -0.1487    0.9109 N   0  0  0  0  0  0  0  0  0  0  0  0
   -3.5828    1.4546   -0.8456 H   0  0  0  0  0  0  0  0  0  0  0  0
   -2.6895    3.1148    1.0657 N   0  0  0  0  0  0  0  0  0  0  0  0
   -3.8256    3.3400    0.6584 O   0  0  0  0  0  0  0  0  0  0  0  0
   -2.1168    3.7680    1.9369 O   0  0  0  0  0  0  0  0  0  0  0  0
  1  2  2  0  0  0  0
  1  6  1  0  0  0  0
  2  3  1  0  0  0  0
  3  9  1  0  0  0  0
  3  4  2  0  0  0  0
  4  8  1  0  0  0  0
  5  4  1  0  0  0  0
  5 12  1  0  0  0  0
  6  5  2  0  0  0  0
  7  1  1  0  0  0  0
  9 10  1  0  0  0  0
 11  6  1  0  0  0  0
 12 14  2  0  0  0  0
 13 12  2  0  0  0  0
M  RAD  3   2   2   9   2  10   3
M  END
