Coordinates from ORCA-job 3-NO2-C6H3-N2-v1-B3LYPG-aug-cc-pVDZ-scan-d09-49-n400
 OpenBabel11091809163D

 14 14  0  0  0  0  0  0  0  0999 V2000
   -1.9077    0.1222   -1.1090 C   0  0  0  0  0  0  0  0  0  0  0  0
   -0.6006   -0.1482   -0.6484 C   0  0  0  0  0  0  0  0  0  0  0  0
   -0.1565    0.6408    0.2705 C   0  0  0  0  0  0  0  0  0  0  0  0
   -0.6831    1.7269    0.9309 C   0  0  0  0  0  0  0  0  0  0  0  0
   -1.9812    1.9823    0.4622 C   0  0  0  0  0  0  0  0  0  0  0  0
   -2.5943    1.2025   -0.5386 C   0  0  0  0  0  0  0  0  0  0  0  0
   -2.3921   -0.4752   -1.8834 H   0  0  0  0  0  0  0  0  0  0  0  0
   -0.2078    2.3271    1.7030 H   0  0  0  0  0  0  0  0  0  0  0  0
    1.5195    0.3126    0.8767 N   0  0  0  0  0  0  0  0  0  0  0  0
    2.4177   -0.3352    0.7915 N   0  0  0  0  0  0  0  0  0  0  0  0
   -3.6041    1.4591   -0.8532 H   0  0  0  0  0  0  0  0  0  0  0  0
   -2.7177    3.1147    1.0511 N   0  0  0  0  0  0  0  0  0  0  0  0
   -3.8532    3.3368    0.6401 O   0  0  0  0  0  0  0  0  0  0  0  0
   -2.1502    3.7718    1.9219 O   0  0  0  0  0  0  0  0  0  0  0  0
  1  2  2  0  0  0  0
  1  6  1  0  0  0  0
  2  3  1  0  0  0  0
  3  9  1  0  0  0  0
  3  4  2  0  0  0  0
  4  8  1  0  0  0  0
  5  4  1  0  0  0  0
  5 12  1  0  0  0  0
  6  5  2  0  0  0  0
  7  1  1  0  0  0  0
 10  9  2  0  0  0  0
 11  6  1  0  0  0  0
 12 14  2  0  0  0  0
 13 12  2  0  0  0  0
M  RAD  2   2   2  10   2
M  END
