Coordinates from ORCA-job 3-NO2-C6H3-N2-v1-B3LYPG-aug-cc-pVDZ-scan-d09-49-n400
 OpenBabel11091809163D

 14 14  0  0  0  0  0  0  0  0999 V2000
   -1.8589    0.1188   -1.0860 C   0  0  0  0  0  0  0  0  0  0  0  0
   -0.5445   -0.3142   -0.7628 C   0  0  0  0  0  0  0  0  0  0  0  0
    0.0773    0.5670    0.3302 C   0  0  0  0  0  0  0  0  0  0  0  0
   -0.6498    1.6851    0.9121 C   0  0  0  0  0  0  0  0  0  0  0  0
   -1.9147    1.9612    0.4792 C   0  0  0  0  0  0  0  0  0  0  0  0
   -2.5416    1.1863   -0.5246 C   0  0  0  0  0  0  0  0  0  0  0  0
   -2.3742   -0.4584   -1.8594 H   0  0  0  0  0  0  0  0  0  0  0  0
   -0.1742    2.2868    1.6858 H   0  0  0  0  0  0  0  0  0  0  0  0
    1.0145    0.3389    0.6307 N   0  0  0  0  0  0  0  0  0  0  0  0
    2.0802    0.0459    0.9434 N   0  0  0  0  0  0  0  0  0  0  0  0
   -3.5525    1.4516   -0.8319 H   0  0  0  0  0  0  0  0  0  0  0  0
   -2.6381    3.0992    1.0802 N   0  0  0  0  0  0  0  0  0  0  0  0
   -3.7728    3.3220    0.6701 O   0  0  0  0  0  0  0  0  0  0  0  0
   -2.0619    3.7481    1.9482 O   0  0  0  0  0  0  0  0  0  0  0  0
  1  2  2  0  0  0  0
  1  6  1  0  0  0  0
  2  3  1  0  0  0  0
  3  9  1  0  0  0  0
  3  4  2  0  0  0  0
  4  8  1  0  0  0  0
  5  4  1  0  0  0  0
  5 12  1  0  0  0  0
  6  5  2  0  0  0  0
  7  1  1  0  0  0  0
  9 10  1  0  0  0  0
 11  6  1  0  0  0  0
 12 14  2  0  0  0  0
 13 12  2  0  0  0  0
M  RAD  3   2   2   9   2  10   3
M  END
