Coordinates from ORCA-job 3-NO2-C6H3-N2-v1-B3LYPG-aug-cc-pVDZ-scan-d09-49-n400
 OpenBabel11091809163D

 14 13  0  0  0  0  0  0  0  0999 V2000
   -2.5362    0.1765   -1.3956 C   0  0  0  0  0  0  0  0  0  0  0  0
   -1.2481   -0.2139   -1.0483 C   0  0  0  0  0  0  0  0  0  0  0  0
   -0.5027    0.3161   -0.1931 C   0  0  0  0  0  0  0  0  0  0  0  0
   -0.7722    1.4076    0.6082 C   0  0  0  0  0  0  0  0  0  0  0  0
   -2.0773    1.8750    0.3186 C   0  0  0  0  0  0  0  0  0  0  0  0
   -2.9358    1.2959   -0.6393 C   0  0  0  0  0  0  0  0  0  0  0  0
   -3.1824   -0.2852   -2.1388 H   0  0  0  0  0  0  0  0  0  0  0  0
   -0.1411    1.8811    1.3537 H   0  0  0  0  0  0  0  0  0  0  0  0
    2.7749    0.6999    1.8806 N   0  0  0  0  0  0  0  0  0  0  0  0
    3.6979    0.0953    1.8400 N   0  0  0  0  0  0  0  0  0  0  0  0
   -3.9212    1.7335   -0.7847 H   0  0  0  0  0  0  0  0  0  0  0  0
   -2.5651    3.0496    1.0757 N   0  0  0  0  0  0  0  0  0  0  0  0
   -3.6954    3.4638    0.8323 O   0  0  0  0  0  0  0  0  0  0  0  0
   -1.8066    3.5429    1.9060 O   0  0  0  0  0  0  0  0  0  0  0  0
  1  2  2  0  0  0  0
  1  6  1  0  0  0  0
  2  3  1  0  0  0  0
  3  4  2  0  0  0  0
  4  8  1  0  0  0  0
  5  4  1  0  0  0  0
  5 12  1  0  0  0  0
  6  5  2  0  0  0  0
  7  1  1  0  0  0  0
 10  9  3  0  0  0  0
 11  6  1  0  0  0  0
 12 14  2  0  0  0  0
 13 12  2  0  0  0  0
M  RAD  2   2   2   3   2
M  END
