Coordinates from ORCA-job 3-NO2-C6H3-N2-v1-B3LYPG-aug-cc-pVDZ-scan-d09-49-n400
 OpenBabel11091809163D

 14 13  0  0  0  0  0  0  0  0999 V2000
   -1.9513    0.1211   -1.1329 C   0  0  0  0  0  0  0  0  0  0  0  0
   -0.6542   -0.1141   -0.6469 C   0  0  0  0  0  0  0  0  0  0  0  0
   -0.1833    0.6410    0.2568 C   0  0  0  0  0  0  0  0  0  0  0  0
   -0.6905    1.7260    0.9264 C   0  0  0  0  0  0  0  0  0  0  0  0
   -1.9943    1.9798    0.4530 C   0  0  0  0  0  0  0  0  0  0  0  0
   -2.6200    1.2082   -0.5475 C   0  0  0  0  0  0  0  0  0  0  0  0
   -2.4337   -0.4765   -1.9066 H   0  0  0  0  0  0  0  0  0  0  0  0
   -0.2163    2.3264    1.6982 H   0  0  0  0  0  0  0  0  0  0  0  0
    1.6833    0.3118    0.9634 N   0  0  0  0  0  0  0  0  0  0  0  0
    2.5304   -0.3850    0.8071 N   0  0  0  0  0  0  0  0  0  0  0  0
   -3.6296    1.4746   -0.8535 H   0  0  0  0  0  0  0  0  0  0  0  0
   -2.7289    3.1151    1.0451 N   0  0  0  0  0  0  0  0  0  0  0  0
   -3.8648    3.3407    0.6371 O   0  0  0  0  0  0  0  0  0  0  0  0
   -2.1582    3.7690    1.9154 O   0  0  0  0  0  0  0  0  0  0  0  0
  1  2  2  0  0  0  0
  1  6  1  0  0  0  0
  2  3  1  0  0  0  0
  3  4  2  0  0  0  0
  4  8  1  0  0  0  0
  5  4  1  0  0  0  0
  5 12  1  0  0  0  0
  6  5  2  0  0  0  0
  7  1  1  0  0  0  0
 10  9  3  0  0  0  0
 11  6  1  0  0  0  0
 12 14  2  0  0  0  0
 13 12  2  0  0  0  0
M  RAD  2   2   2   3   2
M  END
