Coordinates from ORCA-job 3-NO2-C6H3-N2-v1-B3LYPG-aug-cc-pVDZ-scan-d09-49-n400
 OpenBabel11091809163D

 14 13  0  0  0  0  0  0  0  0999 V2000
   -2.8749    0.2474   -1.5136 C   0  0  0  0  0  0  0  0  0  0  0  0
   -1.6187   -0.3187   -1.3359 C   0  0  0  0  0  0  0  0  0  0  0  0
   -0.7231    0.0489   -0.5419 C   0  0  0  0  0  0  0  0  0  0  0  0
   -0.7670    1.1047    0.3483 C   0  0  0  0  0  0  0  0  0  0  0  0
   -2.0240    1.7471    0.2360 C   0  0  0  0  0  0  0  0  0  0  0  0
   -3.0455    1.3486   -0.6516 C   0  0  0  0  0  0  0  0  0  0  0  0
   -3.6488   -0.0771   -2.2057 H   0  0  0  0  0  0  0  0  0  0  0  0
   -0.0079    1.4452    1.0464 H   0  0  0  0  0  0  0  0  0  0  0  0
    2.8823    1.1147    2.2944 N   0  0  0  0  0  0  0  0  0  0  0  0
    3.9073    0.8239    2.5843 N   0  0  0  0  0  0  0  0  0  0  0  0
   -3.9761    1.9121   -0.6585 H   0  0  0  0  0  0  0  0  0  0  0  0
   -2.2753    2.9135    1.1117 N   0  0  0  0  0  0  0  0  0  0  0  0
   -3.3622    3.4784    1.0221 O   0  0  0  0  0  0  0  0  0  0  0  0
   -1.3773    3.2495    1.8792 O   0  0  0  0  0  0  0  0  0  0  0  0
  1  2  2  0  0  0  0
  1  6  1  0  0  0  0
  2  3  1  0  0  0  0
  3  4  2  0  0  0  0
  4  8  1  0  0  0  0
  5  4  1  0  0  0  0
  5 12  1  0  0  0  0
  6  5  2  0  0  0  0
  7  1  1  0  0  0  0
  9 10  3  0  0  0  0
 11  6  1  0  0  0  0
 12 14  2  0  0  0  0
 13 12  2  0  0  0  0
M  RAD  2   2   2   3   2
M  END
