Coordinates from ORCA-job 3-NO2-C6H3-N2-v1-B3LYPG-aug-cc-pVDZ-scan-d09-49-n400
 OpenBabel11091809163D

 14 13  0  0  0  0  0  0  0  0999 V2000
   -2.5433    0.1781   -1.3995 C   0  0  0  0  0  0  0  0  0  0  0  0
   -1.2551   -0.2151   -1.0561 C   0  0  0  0  0  0  0  0  0  0  0  0
   -0.5076    0.3115   -0.2008 C   0  0  0  0  0  0  0  0  0  0  0  0
   -0.7726    1.4010    0.6052 C   0  0  0  0  0  0  0  0  0  0  0  0
   -2.0779    1.8705    0.3192 C   0  0  0  0  0  0  0  0  0  0  0  0
   -2.9393    1.2958   -0.6388 C   0  0  0  0  0  0  0  0  0  0  0  0
   -3.1918   -0.2802   -2.1428 H   0  0  0  0  0  0  0  0  0  0  0  0
   -0.1401    1.8722    1.3512 H   0  0  0  0  0  0  0  0  0  0  0  0
    2.7810    0.7078    1.8909 N   0  0  0  0  0  0  0  0  0  0  0  0
    3.7074    0.1082    1.8541 N   0  0  0  0  0  0  0  0  0  0  0  0
   -3.9243    1.7353   -0.7807 H   0  0  0  0  0  0  0  0  0  0  0  0
   -2.5629    3.0434    1.0809 N   0  0  0  0  0  0  0  0  0  0  0  0
   -3.6878    3.4681    0.8312 O   0  0  0  0  0  0  0  0  0  0  0  0
   -1.7969    3.5417    1.9013 O   0  0  0  0  0  0  0  0  0  0  0  0
  1  2  2  0  0  0  0
  1  6  1  0  0  0  0
  2  3  1  0  0  0  0
  3  4  2  0  0  0  0
  4  8  1  0  0  0  0
  5  4  1  0  0  0  0
  5 12  1  0  0  0  0
  6  5  2  0  0  0  0
  7  1  1  0  0  0  0
 10  9  3  0  0  0  0
 11  6  1  0  0  0  0
 12 14  2  0  0  0  0
 13 12  2  0  0  0  0
M  RAD  2   2   2   3   2
M  END
