Coordinates from ORCA-job 3-NO2-C6H3-N2-v1-B3LYPG-aug-cc-pVDZ-scan-d09-49-n400
 OpenBabel11091809163D

 14 13  0  0  0  0  0  0  0  0999 V2000
   -2.5400    0.1768   -1.3971 C   0  0  0  0  0  0  0  0  0  0  0  0
   -1.2521   -0.2153   -1.0512 C   0  0  0  0  0  0  0  0  0  0  0  0
   -0.5054    0.3135   -0.1967 C   0  0  0  0  0  0  0  0  0  0  0  0
   -0.7718    1.4051    0.6058 C   0  0  0  0  0  0  0  0  0  0  0  0
   -2.0767    1.8741    0.3174 C   0  0  0  0  0  0  0  0  0  0  0  0
   -2.9371    1.2965   -0.6398 C   0  0  0  0  0  0  0  0  0  0  0  0
   -3.1877   -0.2836   -2.1398 H   0  0  0  0  0  0  0  0  0  0  0  0
   -0.1397    1.8780    1.3511 H   0  0  0  0  0  0  0  0  0  0  0  0
    2.7779    0.7039    1.8856 N   0  0  0  0  0  0  0  0  0  0  0  0
    3.7022    0.1012    1.8476 N   0  0  0  0  0  0  0  0  0  0  0  0
   -3.9220    1.7355   -0.7840 H   0  0  0  0  0  0  0  0  0  0  0  0
   -2.5624    3.0490    1.0753 N   0  0  0  0  0  0  0  0  0  0  0  0
   -3.6931    3.4635    0.8345 O   0  0  0  0  0  0  0  0  0  0  0  0
   -1.8033    3.5399    1.9065 O   0  0  0  0  0  0  0  0  0  0  0  0
  1  2  2  0  0  0  0
  1  6  1  0  0  0  0
  2  3  1  0  0  0  0
  3  4  2  0  0  0  0
  4  8  1  0  0  0  0
  5  4  1  0  0  0  0
  5 12  1  0  0  0  0
  6  5  2  0  0  0  0
  7  1  1  0  0  0  0
 10  9  3  0  0  0  0
 11  6  1  0  0  0  0
 12 14  2  0  0  0  0
 13 12  2  0  0  0  0
M  RAD  2   2   2   3   2
M  END
