Coordinates from ORCA-job 3-NO2-C6H3-N2-v1-B3LYPG-aug-cc-pVDZ-scan-d09-49-n400
 OpenBabel11091809163D

 14 13  0  0  0  0  0  0  0  0999 V2000
   -2.2643    0.1456   -1.2804 C   0  0  0  0  0  0  0  0  0  0  0  0
   -0.9761   -0.1253   -0.8319 C   0  0  0  0  0  0  0  0  0  0  0  0
   -0.3404    0.4973    0.0488 C   0  0  0  0  0  0  0  0  0  0  0  0
   -0.7523    1.5909    0.7833 C   0  0  0  0  0  0  0  0  0  0  0  0
   -2.0667    1.9381    0.3874 C   0  0  0  0  0  0  0  0  0  0  0  0
   -2.8056    1.2550   -0.6012 C   0  0  0  0  0  0  0  0  0  0  0  0
   -2.8175   -0.3947   -2.0455 H   0  0  0  0  0  0  0  0  0  0  0  0
   -0.2121    2.1393    1.5486 H   0  0  0  0  0  0  0  0  0  0  0  0
    2.4302    0.4425    1.4726 N   0  0  0  0  0  0  0  0  0  0  0  0
    3.2666   -0.2623    1.2986 N   0  0  0  0  0  0  0  0  0  0  0  0
   -3.8102    1.6033   -0.8314 H   0  0  0  0  0  0  0  0  0  0  0  0
   -2.6994    3.0946    1.0600 N   0  0  0  0  0  0  0  0  0  0  0  0
   -3.8298    3.4195    0.7065 O   0  0  0  0  0  0  0  0  0  0  0  0
   -2.0337    3.6944    1.8999 O   0  0  0  0  0  0  0  0  0  0  0  0
  1  2  2  0  0  0  0
  1  6  1  0  0  0  0
  2  3  1  0  0  0  0
  3  4  2  0  0  0  0
  4  8  1  0  0  0  0
  5  4  1  0  0  0  0
  5 12  1  0  0  0  0
  6  5  2  0  0  0  0
  7  1  1  0  0  0  0
 10  9  3  0  0  0  0
 11  6  1  0  0  0  0
 12 14  2  0  0  0  0
 13 12  2  0  0  0  0
M  RAD  2   2   2   3   2
M  END
