Coordinates from ORCA-job 3-NO2-C6H3-N2-v1-B3LYPG-aug-cc-pVDZ-scan-d09-49-n400
 OpenBabel11091809163D

 14 13  0  0  0  0  0  0  0  0999 V2000
   -2.8449    0.2383   -1.5053 C   0  0  0  0  0  0  0  0  0  0  0  0
   -1.5835   -0.3101   -1.3088 C   0  0  0  0  0  0  0  0  0  0  0  0
   -0.7024    0.0755   -0.5073 C   0  0  0  0  0  0  0  0  0  0  0  0
   -0.7693    1.1373    0.3750 C   0  0  0  0  0  0  0  0  0  0  0  0
   -2.0335    1.7615    0.2425 C   0  0  0  0  0  0  0  0  0  0  0  0
   -3.0396    1.3433   -0.6537 C   0  0  0  0  0  0  0  0  0  0  0  0
   -3.6064   -0.1014   -2.2037 H   0  0  0  0  0  0  0  0  0  0  0  0
   -0.0236    1.4937    1.0794 H   0  0  0  0  0  0  0  0  0  0  0  0
    2.8945    1.0731    2.2646 N   0  0  0  0  0  0  0  0  0  0  0  0
    3.9164    0.7386    2.5155 N   0  0  0  0  0  0  0  0  0  0  0  0
   -3.9771    1.8948   -0.6752 H   0  0  0  0  0  0  0  0  0  0  0  0
   -2.3104    2.9313    1.1064 N   0  0  0  0  0  0  0  0  0  0  0  0
   -3.4045    3.4793    1.0022 O   0  0  0  0  0  0  0  0  0  0  0  0
   -1.4270    3.2829    1.8837 O   0  0  0  0  0  0  0  0  0  0  0  0
  1  2  2  0  0  0  0
  1  6  1  0  0  0  0
  2  3  1  0  0  0  0
  3  4  2  0  0  0  0
  4  8  1  0  0  0  0
  5  4  1  0  0  0  0
  5 12  1  0  0  0  0
  6  5  2  0  0  0  0
  7  1  1  0  0  0  0
  9 10  3  0  0  0  0
 11  6  1  0  0  0  0
 12 14  2  0  0  0  0
 13 12  2  0  0  0  0
M  RAD  2   2   2   3   2
M  END
