Coordinates from ORCA-job 3-NO2-C6H3-N2-v1-B3LYPG-aug-cc-pVDZ-scan-d09-49-n400
 OpenBabel11091809163D

 14 13  0  0  0  0  0  0  0  0999 V2000
   -2.2447    0.1421   -1.2699 C   0  0  0  0  0  0  0  0  0  0  0  0
   -0.9576   -0.1225   -0.8143 C   0  0  0  0  0  0  0  0  0  0  0  0
   -0.3296    0.5094    0.0654 C   0  0  0  0  0  0  0  0  0  0  0  0
   -0.7463    1.6061    0.7911 C   0  0  0  0  0  0  0  0  0  0  0  0
   -2.0600    1.9463    0.3867 C   0  0  0  0  0  0  0  0  0  0  0  0
   -2.7925    1.2541   -0.6005 C   0  0  0  0  0  0  0  0  0  0  0  0
   -2.7929   -0.4049   -2.0338 H   0  0  0  0  0  0  0  0  0  0  0  0
   -0.2111    2.1612    1.5551 H   0  0  0  0  0  0  0  0  0  0  0  0
    2.3886    0.4240    1.4357 N   0  0  0  0  0  0  0  0  0  0  0  0
    3.2234   -0.2793    1.2680 N   0  0  0  0  0  0  0  0  0  0  0  0
   -3.7971    1.5979   -0.8376 H   0  0  0  0  0  0  0  0  0  0  0  0
   -2.6990    3.1056    1.0482 N   0  0  0  0  0  0  0  0  0  0  0  0
   -3.8412    3.4050    0.7105 O   0  0  0  0  0  0  0  0  0  0  0  0
   -2.0514    3.6932    1.9106 O   0  0  0  0  0  0  0  0  0  0  0  0
  1  2  2  0  0  0  0
  1  6  1  0  0  0  0
  2  3  1  0  0  0  0
  3  4  2  0  0  0  0
  4  8  1  0  0  0  0
  5  4  1  0  0  0  0
  5 12  1  0  0  0  0
  6  5  2  0  0  0  0
  7  1  1  0  0  0  0
 10  9  3  0  0  0  0
 11  6  1  0  0  0  0
 12 14  2  0  0  0  0
 13 12  2  0  0  0  0
M  RAD  2   2   2   3   2
M  END
