Coordinates from ORCA-job 3-NO2-C6H3-N2-v1-B3LYPG-aug-cc-pVDZ-scan-d09-49-n400
 OpenBabel11091809163D

 14 13  0  0  0  0  0  0  0  0999 V2000
   -1.9988    0.1230   -1.1566 C   0  0  0  0  0  0  0  0  0  0  0  0
   -0.7086   -0.0946   -0.6593 C   0  0  0  0  0  0  0  0  0  0  0  0
   -0.2063    0.6324    0.2370 C   0  0  0  0  0  0  0  0  0  0  0  0
   -0.7018    1.7189    0.9143 C   0  0  0  0  0  0  0  0  0  0  0  0
   -2.0092    1.9776    0.4435 C   0  0  0  0  0  0  0  0  0  0  0  0
   -2.6491    1.2156   -0.5563 C   0  0  0  0  0  0  0  0  0  0  0  0
   -2.4851   -0.4711   -1.9293 H   0  0  0  0  0  0  0  0  0  0  0  0
   -0.2252    2.3171    1.6855 H   0  0  0  0  0  0  0  0  0  0  0  0
    1.8403    0.3072    1.0425 N   0  0  0  0  0  0  0  0  0  0  0  0
    2.6610   -0.4103    0.8550 N   0  0  0  0  0  0  0  0  0  0  0  0
   -3.6586    1.4927   -0.8529 H   0  0  0  0  0  0  0  0  0  0  0  0
   -2.7371    3.1160    1.0420 N   0  0  0  0  0  0  0  0  0  0  0  0
   -3.8735    3.3488    0.6392 O   0  0  0  0  0  0  0  0  0  0  0  0
   -2.1593    3.7649    1.9109 O   0  0  0  0  0  0  0  0  0  0  0  0
  1  2  2  0  0  0  0
  1  6  1  0  0  0  0
  2  3  1  0  0  0  0
  3  4  2  0  0  0  0
  4  8  1  0  0  0  0
  5  4  1  0  0  0  0
  5 12  1  0  0  0  0
  6  5  2  0  0  0  0
  7  1  1  0  0  0  0
 10  9  3  0  0  0  0
 11  6  1  0  0  0  0
 12 14  2  0  0  0  0
 13 12  2  0  0  0  0
M  RAD  2   2   2   3   2
M  END
