Coordinates from ORCA-job 3-NO2-C6H3-N2-v1-B3LYPG-aug-cc-pVDZ-scan-d09-49-n400
 OpenBabel11091809163D

 14 13  0  0  0  0  0  0  0  0999 V2000
   -1.9629    0.1212   -1.1390 C   0  0  0  0  0  0  0  0  0  0  0  0
   -0.6678   -0.1078   -0.6490 C   0  0  0  0  0  0  0  0  0  0  0  0
   -0.1891    0.6396    0.2524 C   0  0  0  0  0  0  0  0  0  0  0  0
   -0.6928    1.7248    0.9242 C   0  0  0  0  0  0  0  0  0  0  0  0
   -1.9977    1.9791    0.4508 C   0  0  0  0  0  0  0  0  0  0  0  0
   -2.6269    1.2098   -0.5496 C   0  0  0  0  0  0  0  0  0  0  0  0
   -2.4458   -0.4758   -1.9125 H   0  0  0  0  0  0  0  0  0  0  0  0
   -0.2184    2.3248    1.6959 H   0  0  0  0  0  0  0  0  0  0  0  0
    1.7226    0.3111    0.9835 N   0  0  0  0  0  0  0  0  0  0  0  0
    2.5609   -0.3930    0.8165 N   0  0  0  0  0  0  0  0  0  0  0  0
   -3.6365    1.4788   -0.8533 H   0  0  0  0  0  0  0  0  0  0  0  0
   -2.7312    3.1150    1.0443 N   0  0  0  0  0  0  0  0  0  0  0  0
   -3.8671    3.3424    0.6371 O   0  0  0  0  0  0  0  0  0  0  0  0
   -2.1589    3.7682    1.9140 O   0  0  0  0  0  0  0  0  0  0  0  0
  1  2  2  0  0  0  0
  1  6  1  0  0  0  0
  2  3  1  0  0  0  0
  3  4  2  0  0  0  0
  4  8  1  0  0  0  0
  5  4  1  0  0  0  0
  5 12  1  0  0  0  0
  6  5  2  0  0  0  0
  7  1  1  0  0  0  0
 10  9  3  0  0  0  0
 11  6  1  0  0  0  0
 12 14  2  0  0  0  0
 13 12  2  0  0  0  0
M  RAD  2   2   2   3   2
M  END
