Coordinates from ORCA-job 3-NO2-C6H3-N2-v1-B3LYPG-aug-cc-pVDZ-scan-d09-49-n400
 OpenBabel11091809163D

 14 14  0  0  0  0  0  0  0  0999 V2000
   -1.8907    0.1234   -1.0989 C   0  0  0  0  0  0  0  0  0  0  0  0
   -0.5773   -0.1741   -0.6588 C   0  0  0  0  0  0  0  0  0  0  0  0
   -0.1439    0.6362    0.2730 C   0  0  0  0  0  0  0  0  0  0  0  0
   -0.6812    1.7250    0.9302 C   0  0  0  0  0  0  0  0  0  0  0  0
   -1.9756    1.9839    0.4667 C   0  0  0  0  0  0  0  0  0  0  0  0
   -2.5837    1.2007   -0.5344 C   0  0  0  0  0  0  0  0  0  0  0  0
   -2.3802   -0.4708   -1.8734 H   0  0  0  0  0  0  0  0  0  0  0  0
   -0.2045    2.3244    1.7024 H   0  0  0  0  0  0  0  0  0  0  0  0
    1.4415    0.3035    0.8270 N   0  0  0  0  0  0  0  0  0  0  0  0
    2.3791   -0.2932    0.8079 N   0  0  0  0  0  0  0  0  0  0  0  0
   -3.5937    1.4539   -0.8518 H   0  0  0  0  0  0  0  0  0  0  0  0
   -2.7111    3.1153    1.0554 N   0  0  0  0  0  0  0  0  0  0  0  0
   -3.8465    3.3371    0.6438 O   0  0  0  0  0  0  0  0  0  0  0  0
   -2.1435    3.7729    1.9262 O   0  0  0  0  0  0  0  0  0  0  0  0
  1  2  2  0  0  0  0
  1  6  1  0  0  0  0
  2  3  1  0  0  0  0
  3  9  1  0  0  0  0
  3  4  2  0  0  0  0
  4  8  1  0  0  0  0
  5  4  1  0  0  0  0
  5 12  1  0  0  0  0
  6  5  2  0  0  0  0
  7  1  1  0  0  0  0
 10  9  2  0  0  0  0
 11  6  1  0  0  0  0
 12 14  2  0  0  0  0
 13 12  2  0  0  0  0
M  RAD  2   2   2  10   2
M  END
