Coordinates from ORCA-job 3-NO2-C6H3-N2-v1-B3LYPG-aug-cc-pVDZ-scan-d09-49-n400
 OpenBabel11091809163D

 14 13  0  0  0  0  0  0  0  0999 V2000
   -1.9381    0.1212   -1.1259 C   0  0  0  0  0  0  0  0  0  0  0  0
   -0.6384   -0.1223   -0.6456 C   0  0  0  0  0  0  0  0  0  0  0  0
   -0.1760    0.6419    0.2615 C   0  0  0  0  0  0  0  0  0  0  0  0
   -0.6879    1.7268    0.9285 C   0  0  0  0  0  0  0  0  0  0  0  0
   -1.9903    1.9805    0.4556 C   0  0  0  0  0  0  0  0  0  0  0  0
   -2.6122    1.2064   -0.5449 C   0  0  0  0  0  0  0  0  0  0  0  0
   -2.4204   -0.4769   -1.8998 H   0  0  0  0  0  0  0  0  0  0  0  0
   -0.2136    2.3273    1.7004 H   0  0  0  0  0  0  0  0  0  0  0  0
    1.6362    0.3131    0.9396 N   0  0  0  0  0  0  0  0  0  0  0  0
    2.4952   -0.3734    0.7984 N   0  0  0  0  0  0  0  0  0  0  0  0
   -3.6218    1.4698   -0.8536 H   0  0  0  0  0  0  0  0  0  0  0  0
   -2.7258    3.1149    1.0465 N   0  0  0  0  0  0  0  0  0  0  0  0
   -3.8617    3.3391    0.6374 O   0  0  0  0  0  0  0  0  0  0  0  0
   -2.1565    3.7698    1.9171 O   0  0  0  0  0  0  0  0  0  0  0  0
  1  2  2  0  0  0  0
  1  6  1  0  0  0  0
  2  3  1  0  0  0  0
  3  4  2  0  0  0  0
  4  8  1  0  0  0  0
  5  4  1  0  0  0  0
  5 12  1  0  0  0  0
  6  5  2  0  0  0  0
  7  1  1  0  0  0  0
 10  9  3  0  0  0  0
 11  6  1  0  0  0  0
 12 14  2  0  0  0  0
 13 12  2  0  0  0  0
M  RAD  2   2   2   3   2
M  END
