Coordinates from ORCA-job 3-NO2-C6H3-N2-v1-B3LYPG-aug-cc-pVDZ-scan-d09-49-n400
 OpenBabel11091809163D

 14 13  0  0  0  0  0  0  0  0999 V2000
   -2.0964    0.1296   -1.2027 C   0  0  0  0  0  0  0  0  0  0  0  0
   -0.8095   -0.0960   -0.7141 C   0  0  0  0  0  0  0  0  0  0  0  0
   -0.2546    0.5909    0.1753 C   0  0  0  0  0  0  0  0  0  0  0  0
   -0.7212    1.6815    0.8715 C   0  0  0  0  0  0  0  0  0  0  0  0
   -2.0331    1.9678    0.4222 C   0  0  0  0  0  0  0  0  0  0  0  0
   -2.7077    1.2312   -0.5740 C   0  0  0  0  0  0  0  0  0  0  0  0
   -2.6040   -0.4483   -1.9727 H   0  0  0  0  0  0  0  0  0  0  0  0
   -0.2275    2.2672    1.6408 H   0  0  0  0  0  0  0  0  0  0  0  0
    2.0765    0.3272    1.1853 N   0  0  0  0  0  0  0  0  0  0  0  0
    2.9116   -0.3761    1.0179 N   0  0  0  0  0  0  0  0  0  0  0  0
   -3.7162    1.5334   -0.8484 H   0  0  0  0  0  0  0  0  0  0  0  0
   -2.7314    3.1143    1.0434 N   0  0  0  0  0  0  0  0  0  0  0  0
   -3.8697    3.3720    0.6617 O   0  0  0  0  0  0  0  0  0  0  0  0
   -2.1281    3.7435    1.9091 O   0  0  0  0  0  0  0  0  0  0  0  0
  1  2  2  0  0  0  0
  1  6  1  0  0  0  0
  2  3  1  0  0  0  0
  3  4  2  0  0  0  0
  4  8  1  0  0  0  0
  5  4  1  0  0  0  0
  5 12  1  0  0  0  0
  6  5  2  0  0  0  0
  7  1  1  0  0  0  0
 10  9  3  0  0  0  0
 11  6  1  0  0  0  0
 12 14  2  0  0  0  0
 13 12  2  0  0  0  0
M  RAD  2   2   2   3   2
M  END
