Coordinates from ORCA-job 3-NO2-C6H3-N2-v1-B3LYPG-aug-cc-pVDZ-scan-d09-49-n400
 OpenBabel11091809163D

 14 13  0  0  0  0  0  0  0  0999 V2000
   -2.2704    0.1451   -1.2821 C   0  0  0  0  0  0  0  0  0  0  0  0
   -0.9827   -0.1284   -0.8345 C   0  0  0  0  0  0  0  0  0  0  0  0
   -0.3443    0.4942    0.0442 C   0  0  0  0  0  0  0  0  0  0  0  0
   -0.7511    1.5900    0.7775 C   0  0  0  0  0  0  0  0  0  0  0  0
   -2.0651    1.9399    0.3824 C   0  0  0  0  0  0  0  0  0  0  0  0
   -2.8075    1.2571   -0.6040 C   0  0  0  0  0  0  0  0  0  0  0  0
   -2.8261   -0.3950   -2.0455 H   0  0  0  0  0  0  0  0  0  0  0  0
   -0.2085    2.1383    1.5412 H   0  0  0  0  0  0  0  0  0  0  0  0
    2.4412    0.4471    1.4832 N   0  0  0  0  0  0  0  0  0  0  0  0
    3.2730   -0.2582    1.3100 N   0  0  0  0  0  0  0  0  0  0  0  0
   -3.8114    1.6080   -0.8334 H   0  0  0  0  0  0  0  0  0  0  0  0
   -2.6935    3.0996    1.0534 N   0  0  0  0  0  0  0  0  0  0  0  0
   -3.8317    3.4143    0.7158 O   0  0  0  0  0  0  0  0  0  0  0  0
   -2.0332    3.6862    1.9068 O   0  0  0  0  0  0  0  0  0  0  0  0
  1  2  2  0  0  0  0
  1  6  1  0  0  0  0
  2  3  1  0  0  0  0
  3  4  2  0  0  0  0
  4  8  1  0  0  0  0
  5  4  1  0  0  0  0
  5 12  1  0  0  0  0
  6  5  2  0  0  0  0
  7  1  1  0  0  0  0
 10  9  3  0  0  0  0
 11  6  1  0  0  0  0
 12 14  2  0  0  0  0
 13 12  2  0  0  0  0
M  RAD  2   2   2   3   2
M  END
