Coordinates from ORCA-job 3-NO2-C6H3-N2-v1-B3LYPG-aug-cc-pVDZ-scan-d09-49-n400
 OpenBabel11091809163D

 14 13  0  0  0  0  0  0  0  0999 V2000
   -2.1368    0.1331   -1.2212 C   0  0  0  0  0  0  0  0  0  0  0  0
   -0.8502   -0.1008   -0.7398 C   0  0  0  0  0  0  0  0  0  0  0  0
   -0.2744    0.5705    0.1473 C   0  0  0  0  0  0  0  0  0  0  0  0
   -0.7290    1.6628    0.8512 C   0  0  0  0  0  0  0  0  0  0  0  0
   -2.0418    1.9627    0.4131 C   0  0  0  0  0  0  0  0  0  0  0  0
   -2.7316    1.2375   -0.5812 C   0  0  0  0  0  0  0  0  0  0  0  0
   -2.6546   -0.4372   -1.9899 H   0  0  0  0  0  0  0  0  0  0  0  0
   -0.2256    2.2413    1.6195 H   0  0  0  0  0  0  0  0  0  0  0  0
    2.1644    0.3433    1.2460 N   0  0  0  0  0  0  0  0  0  0  0  0
    3.0078   -0.3523    1.0893 N   0  0  0  0  0  0  0  0  0  0  0  0
   -3.7394    1.5506   -0.8458 H   0  0  0  0  0  0  0  0  0  0  0  0
   -2.7255    3.1125    1.0450 N   0  0  0  0  0  0  0  0  0  0  0  0
   -3.8644    3.3819    0.6731 O   0  0  0  0  0  0  0  0  0  0  0  0
   -2.1102    3.7323    1.9088 O   0  0  0  0  0  0  0  0  0  0  0  0
  1  2  2  0  0  0  0
  1  6  1  0  0  0  0
  2  3  1  0  0  0  0
  3  4  2  0  0  0  0
  4  8  1  0  0  0  0
  5  4  1  0  0  0  0
  5 12  1  0  0  0  0
  6  5  2  0  0  0  0
  7  1  1  0  0  0  0
 10  9  3  0  0  0  0
 11  6  1  0  0  0  0
 12 14  2  0  0  0  0
 13 12  2  0  0  0  0
M  RAD  2   2   2   3   2
M  END
