14
Coordinates from ORCA-job 3-NO2-C6H3-N2-v1-B3LYPG-aug-cc-pVDZ-scan-d09-49-n400
  C   -2.88006899607354      0.24880306781679     -1.51477118791154
  C   -1.62496670678878     -0.32061200665796     -1.33976952949658
  C   -0.72683370024362      0.04409443419559     -0.54730138322539
  C   -0.76629567248231      1.09946145299530      0.34368588346540
  C   -2.02187864353509      1.74506928657460      0.23418959083557
  C   -3.04617427038136      1.34980297897712     -0.65168926872211
  H   -3.65606001885753     -0.07329180991710     -2.20550860908419
  H   -0.00531229907809      1.43798354054027      1.04067856239471
  N   2.88004437765042      1.12199811251419      2.29922205283473
  N   3.90507082922127      0.83803575424370      2.59552804652869
  H   -3.97524601847505      1.91574220864749     -0.65646007523180
  N   -2.26844117675184      2.91165451659088      1.11107803415678
  O   -3.35549611446850      3.47702779394278      1.02666169102579
  O   -1.36964158973601      3.24243066953637      1.87975619242992
