14
Coordinates from ORCA-job 3-NO2-C6H3-N2-v1-B3LYPG-aug-cc-pVDZ-scan-d09-49-n400
  C   -2.40547490432736      0.15774058459454     -1.33965984392081
  C   -1.11613921625022     -0.17342083211557     -0.93893979645018
  C   -0.42411550901164      0.40721752325651     -0.07216965798724
  C   -0.76198717377230      1.50570426223942      0.69198712715157
  C   -2.07331481881141      1.91411175374598      0.34558786075604
  C   -2.87448228704909      1.27835758011399     -0.62608619236745
  H   -3.00691639148551     -0.34658381817295     -2.09271271290383
  H   -0.17807253610877      2.02307671070772      1.44688519599531
  N   2.64304526807003      0.57373994045015      1.70076117945951
  N   3.50025281574374     -0.10870931439143      1.56494964413163
  H   -3.87029372790806      1.67296955337879     -0.81648297812301
  N   -2.63256794058993      3.08654249241051      1.05492104333770
  O   -3.77818806542544      3.43370291859763      0.78050668178658
  O   -1.93304551307404      3.61375064518474      1.91575244913419
