14
Coordinates from ORCA-job 3-NO2-C6H3-N2-v1-B3LYPG-aug-cc-pVDZ-scan-d09-49-n400
  C   -2.80945180304738      0.22898035145646     -1.49418665996055
  C   -1.54319631058708     -0.30064928803990     -1.27838764588974
  C   -0.67716283017369      0.10308456181777     -0.46947083045873
  C   -0.76895957259688      1.17063693397489      0.40346594089840
  C   -2.03981210371022      1.77662987563340      0.25105238289253
  C   -3.02934405907858      1.33786610865789     -0.65368334112269
  H   -3.55784499318568     -0.12645156067678     -2.19889339000853
  H   -0.03647602008327      1.54233174095022      1.11375053756546
  N   2.88498440082286      1.02900086632499      2.22118253803027
  N   3.90155700812111      0.65533703058939      2.43580469180186
  H   -3.97386808696640      1.87637773048967     -0.69085060345601
  N   -2.34267735635851      2.94921748267895      1.10231358185031
  O   -3.44415049390165      3.47931526186984      0.98335200836637
  O   -1.47489777925468      3.31652290427325      1.88985078949103
