14
Coordinates from ORCA-job 3-NO2-C6H3-N2-v1-B3LYPG-aug-cc-pVDZ-scan-d09-49-n400
  C   -2.41595366331412      0.15997547220784     -1.34541769194535
  C   -1.12618632606612     -0.17536414971308     -0.94964931882383
  C   -0.43040297455893      0.40015023688143     -0.08245060395909
  C   -0.76414630816064      1.49615966659466      0.68720463413278
  C   -2.07566730873643      1.90849366954665      0.34632272439947
  C   -2.88074831162192      1.27851891744178     -0.62589287487287
  H   -3.02047281784218     -0.34006104166976     -2.09886518861826
  H   -0.17686680870915      2.00905361431430      1.44255306294375
  N   2.65588614281069      0.58329878429751      1.71588185063398
  N   3.51995403283883     -0.09171283940477      1.58649273842908
  H   -3.87633768158137      1.67582397725262     -0.81179605012474
  N   -2.63073443036987      3.07880637164312      1.06239016210083
  O   -3.76929483724156      3.44158037782362      0.77893179799213
  O   -1.92032870744722      3.61347694278410      1.90959475771212
