14
Coordinates from ORCA-job 3-NO2-C6H3-N2-v1-B3LYPG-aug-cc-pVDZ-scan-d09-49-n400
  C   -2.84488809865664      0.23828950634789     -1.50531196229942
  C   -1.58345017372001     -0.31005607149964     -1.30884033055708
  C   -0.70243715233254      0.07551387062000     -0.50731558753388
  C   -0.76925017140412      1.13731532511850      0.37498697196071
  C   -2.03351152849842      1.76148199288917      0.24250933693492
  C   -3.03964378899339      1.34333112852943     -0.65365851392307
  H   -3.60638420759344     -0.10143445892022     -2.20370019473256
  H   -0.02356834264934      1.49372043553908      1.07939402560343
  N   2.89448807309061      1.07314364827971      2.26460383422163
  N   3.91636327233009      0.73855348088037      2.51547974695374
  H   -3.97712287937152      1.89483292117878     -0.67523637202571
  N   -2.31036585247420      2.93126547229077      1.10644288504023
  O   -3.40451133842396      3.47933797676620      1.00219631588816
  O   -1.42701781130315      3.28290477198000      1.88374984446891
