14
Coordinates from ORCA-job 3-NO2-C6H3-N2-v1-B3LYPG-aug-cc-pVDZ-scan-d09-49-n400
  C   -2.52045337256994      0.17441361693742     -1.38987917406902
  C   -1.23172770218712     -0.20818807509068     -1.03638918371801
  C   -0.49374548836271      0.32790610184322     -0.17886132402585
  C   -0.77132379247219      1.41921194687317      0.62027347492794
  C   -2.07802515726919      1.87824779115979      0.32361444655077
  C   -2.92924497453222      1.29283971002880     -0.63707514671347
  H   -3.16101069933571     -0.29193806350016     -2.13508787730557
  H   -0.14698104650708      1.89838939610113      1.36804544488742
  N   2.76181019582373      0.68345753061156      1.85937927623097
  N   3.67786929768792      0.06944358742126      1.80607409350428
  H   -3.91638208320143      1.72479193965364     -0.78731144295203
  N   -2.57610863665322      3.05126965724372      1.07654278371331
  O   -3.70476136733850      3.46319434449200      0.82209539076447
  O   -1.82121517308235      3.55516051622515      1.90387923820480
