14
Coordinates from ORCA-job 3-NO2-C6H3-N2-v1-B3LYPG-aug-cc-pVDZ-scan-d09-49-n400
  C   -2.50916875034501      0.17252235799130     -1.38495478161948
  C   -1.22028449353839     -0.20491640512108     -1.02645283521966
  C   -0.48694276552835      0.33595873011500     -0.16797018042501
  C   -0.77045588314999      1.42835153211327      0.62751256895241
  C   -2.07775533509245      1.88225162698300      0.32548120110793
  C   -2.92403230287141      1.29152217557767     -0.63631432345010
  H   -3.14583812563793     -0.29784987915331     -2.13096786931230
  H   -0.15014706723120      1.91159486115227      1.37600570859772
  N   2.75171014557096      0.67168003500538      1.84369177077145
  N   3.66238268026670      0.05044974169378      1.78233842010395
  H   -3.91210469805141      1.71983666121658     -0.79076133567577
  N   -2.58208041028423      3.05562529438456      1.07372200832171
  O   -3.71320516924174      3.46007076667615      0.81825858321929
  O   -1.83337782486556      3.56110250136547      1.90571106462786
