14
Coordinates from ORCA-job 3-NO2-C6H3-N2-v1-B3LYPG-aug-cc-pVDZ-scan-d09-49-n400
  C   -2.45297156040846      0.16513250576612     -1.36187536492603
  C   -1.16315708836502     -0.18639759868307     -0.98090682246988
  C   -0.45272561180513      0.37506602407168     -0.11640434571001
  C   -0.76729945374755      1.46896630217110      0.66481291632579
  C   -2.07770367268032      1.89711483439589      0.33939295109840
  C   -2.89879548775872      1.28309712082793     -0.62961240999647
  H   -3.06994469588008     -0.32294231520677     -2.11305685465865
  H   -0.16688204190961      1.96953184240202      1.41807513042158
  N   2.69599700695619      0.61735096859741      1.76687706179523
  N   3.57997029117981     -0.03608845552941      1.66387348163527
  H   -3.89184369362569      1.69235175134866     -0.80271127352810
  N   -2.61375740394710      3.06776404891902      1.06953455450949
  O   -3.74678793656607      3.45157036819015      0.79165634383689
  O   -1.88539865144226      3.59568260272929      1.90564463166648
