14
Coordinates from ORCA-job 3-NO2-C6H3-N2-v1-B3LYPG-aug-cc-pVDZ-scan-d09-49-n400
  C   -2.54328166899654      0.17810423481472     -1.39951328685504
  C   -1.25507841903473     -0.21513295814010     -1.05605492732983
  C   -0.50760802304308      0.31146202388078     -0.20084017177561
  C   -0.77259523748164      1.40095315648355      0.60517668439071
  C   -2.07787917265194      1.87054979846803      0.31916437566606
  C   -2.93932246056066      1.29576756765527     -0.63883077621121
  H   -3.19184816888461     -0.28021053819070     -2.14277541411003
  H   -0.14009622929492      1.87216437333474      1.35118628107080
  N   2.78097177316625      0.70780098581212      1.89088354952406
  N   3.70735132666033      0.10822356364302      1.85407977615074
  H   -3.92433973088442      1.73533285529303     -0.78065929549721
  N   -2.56288133263882      3.04335202273298      1.08089923935535
  O   -3.68783385661897      3.46814443288749      0.83124966323251
  O   -1.79685879973626      3.54168848132510      1.90133430238869
