14
Coordinates from ORCA-job 3-NO2-C6H3-N2-v1-B3LYPG-aug-cc-pVDZ-scan-d09-49-n400
  C   -2.83335205557801      0.23493257627782     -1.50139653244927
  C   -1.57049901872682     -0.30761256113302     -1.29812922969971
  C   -0.69424242791033      0.08418882373936     -0.49438628244930
  C   -0.76898435363250      1.14861185265529      0.38404356748655
  C   -2.03517346618709      1.76730048536560      0.24451292441057
  C   -3.03600656950473      1.34200343057095     -0.65421210170153
  H   -3.59067334640085     -0.11019434454097     -2.20167458479343
  H   -0.02734760345972      1.51011872310329      1.09011077674256
  N   2.89135546792150      1.05868958297951      2.25001756100931
  N   3.91161034523252      0.71099720669977      2.48940262766307
  H   -3.97563611266733      1.88958867540890     -0.68141451329666
  N   -2.32012023541836      2.93884739838551      1.10334921626774
  O   -3.41846491497143      3.47814304936664      0.99749019710008
  O   -1.44376570869687      3.29258510112136      1.88758637371001
