14
Coordinates from ORCA-job 3-NO2-C6H3-N2-v1-B3LYPG-aug-cc-pVDZ-scan-d09-49-n400
  C   -2.49760115674933      0.17147760189739     -1.38084528035183
  C   -1.20824939438739     -0.20024258929770     -1.01812648260039
  C   -0.47974994293171      0.34419749739376     -0.15775455181967
  C   -0.77059422661514      1.43585377083490      0.63606019171409
  C   -2.07885283001586      1.88405639036437      0.32988665119491
  C   -2.91956499449049      1.28916960044315     -0.63422732641090
  H   -3.12993883029268     -0.30209449396644     -2.12851406696204
  H   -0.15436395705904      1.92192635742069      1.38607902474290
  N   2.74127542410564      0.66016335611106      1.82825055936413
  N   3.64731015880222      0.03313264945242      1.75793715110951
  H   -3.90899836562742      1.71309939805462     -0.79201153049812
  N   -2.59049050093378      3.05558475263745      1.07599013939828
  O   -3.71879026090970      3.46101594371925      0.80981707070461
  O   -1.84269112289534      3.57085976493509      1.90275845041453
