14
Coordinates from ORCA-job 3-NO2-C6H3-N2-v1-B3LYPG-aug-cc-pVDZ-scan-d09-49-n400
  C   -2.70639459745683      0.20577504052201     -1.46012561972466
  C   -1.42863953882158     -0.26888947624005     -1.19101122075958
  C   -0.60714821213166      0.18452492478255     -0.36217902668823
  C   -0.77026744096061      1.26434216170084      0.48463917382961
  C   -2.05781628483920      1.81647226349193      0.27725254169942
  C   -2.99794154177842      1.32132215778200     -0.65072755174202
  H   -3.41580961430359     -0.19271824618701     -2.18189673127962
  H   -0.07734150919583      1.67822705915813      1.21094505343352
  N   2.85719105441001      0.90128747865849      2.09708118561219
  N   3.84702063915029      0.42427498236446      2.20556343252651
  H   -3.96090436248536      1.82117048219298     -0.73068181443798
  N   -2.43497904958674      2.99250584559172      1.09335557761852
  O   -3.55018682719448      3.47837525486594      0.92420362593625
  O   -1.60808271480605      3.41153007131605      1.89888137397606
