14
Coordinates from ORCA-job 3-NO2-C6H3-N2-v1-B3LYPG-aug-cc-pVDZ-scan-d09-49-n400
  C   -2.61791007595091      0.18932970658229     -1.42803264488586
  C   -1.33327367030497     -0.24053675897519     -1.11689642804070
  C   -0.55377859674901      0.25593704318149     -0.27235550730196
  C   -0.77335190058458      1.34240023277020      0.55168237796543
  C   -2.07184977999308      1.84857302887541      0.29924407518995
  C   -2.96837342273293      1.30757542459318     -0.64616359234620
  H   -3.29384931099843     -0.24332135396141     -2.16221618153757
  H   -0.11357931844122      1.78889946523133      1.28931526132833
  N   2.83254361289143      0.79211404184310      1.99064356046669
  N   3.78800210593089      0.23922066348684      2.01219563230114
  H   -3.94443814464438      1.77402905251021     -0.76145297267265
  N   -2.50990747952306      3.02441810859022      1.08446631132251
  O   -3.63311941226221      3.47365424348164      0.87260327612712
  O   -1.71841460663757      3.48590710179071      1.90226683208377
