14
Coordinates from ORCA-job 3-NO2-C6H3-N2-v1-B3LYPG-aug-cc-pVDZ-scan-d09-49-n400
  C   -2.46408393277767      0.16639235110762     -1.36631041685965
  C   -1.17443432440594     -0.19024555827148     -0.98953709891757
  C   -0.45955553311787      0.36753254917351     -0.12632083477640
  C   -0.76787733427490      1.46151886316550      0.65734157536505
  C   -2.07767977187512      1.89471494347502      0.33619453343158
  C   -2.90377563190457      1.28494096065325     -0.63123424213679
  H   -3.08496609735791     -0.31843861128018     -2.11636508269945
  H   -0.16345032313989      1.95887227662465      1.40952182173576
  N   2.70788920202593      0.62747743259452      1.78200342733144
  N   3.59716464653037     -0.02000624504114      1.68735459487012
  H   -3.89582909917232      1.69803747884363     -0.80086358406592
  N   -2.60746765730255      3.06633852336517      1.06940570261384
  O   -3.74113426853564      3.45259170400547      0.79759206183083
  O   -1.87609987469193      3.58847333158450      1.90651754227716
