14
Coordinates from ORCA-job 3-NO2-C6H3-N2-v1-B3LYPG-aug-cc-pVDZ-scan-d09-49-n400
  C   -2.77327103248536      0.22036379264786     -1.48270756042242
  C   -1.50242696727010     -0.28989604340484     -1.24807083989666
  C   -0.65188123507966      0.13158350670972     -0.43179890018946
  C   -0.76903843946789      1.20373794437893      0.43233530988078
  C   -2.04632942204187      1.79074305165890      0.26053366787087
  C   -3.01870400348175      1.33187282355761     -0.65277686652480
  H   -3.50811590128509     -0.15043449454815     -2.19372310632176
  H   -0.05034059896617      1.59052304116242      1.14856417917399
  N   2.87474792834716      0.98429741231438      2.17723011905043
  N   3.88380424915359      0.57282185569973      2.35496465380293
  H   -3.97015174757934      1.85678547661369     -0.70500537745174
  N   -2.37569697293847      2.96481184407101      1.09982598132108
  O   -3.48216103781209      3.47986923287952      0.96256524849115
  O   -1.52173481909298      3.35112055625924      1.89336349121559
