14
Coordinates from ORCA-job 3-NO2-C6H3-N2-v1-B3LYPG-aug-cc-pVDZ-scan-d09-49-n400
  C   -2.36042789556316      0.15439900873400     -1.32258586385161
  C   -1.07092864840448     -0.15531980673207     -0.90608910895297
  C   -0.39658883882383      0.43702875344209     -0.03335644618957
  C   -0.76111057267569      1.53212715519841      0.72377169807412
  C   -2.07444490759631      1.91945004272054      0.36215135578969
  C   -2.85462016718360      1.26934635605241     -0.61715868533145
  H   -2.94536477246467     -0.36107889245778     -2.08105131345492
  H   -0.19160048442926      2.05839099582191      1.48344972707357
  N   2.59145160282193      0.53623785072561      1.64038535249056
  N   3.42536751886872     -0.16671246258068      1.46883673306995
  H   -3.85424849376681      1.64799512501569     -0.81961851664509
  N   -2.65985930027543      3.08429007778169      1.06271417721644
  O   -3.79431797569197      3.43524723534962      0.74943173473288
  O   -1.96460706481545      3.64679856092857      1.90441915597841
