14
Coordinates from ORCA-job 3-NO2-C6H3-N2-v1-B3LYPG-aug-cc-pVDZ-scan-d09-49-n400
  C   -2.48650416653039      0.16936541163762     -1.37559922213239
  C   -1.19717098761387     -0.19753842523366     -1.00778412606625
  C   -0.47316854044918      0.35198853287914     -0.14687901755793
  C   -0.76925871619737      1.44529630282822      0.64258895052974
  C   -2.07788781389329      1.88870845543650      0.33080570416091
  C   -2.91397262544441      1.28823864674441     -0.63386547879543
  H   -3.11519711528305     -0.30839600980531     -2.12367785118787
  H   -0.15694164179673      1.93573125222573      1.39295125658766
  N   2.73051542968106      0.64893076767210      1.81265878488479
  N   3.63063377331529      0.01433640215496      1.73463354272537
  H   -3.90410508463258      1.70886540217383     -0.79604691689892
  N   -2.59514418329757      3.06130793357541      1.07138468239854
  O   -3.72775468205193      3.45630729759329      0.80786219132627
  O   -1.85534364580600      3.57505803011779      1.90626750002551
