14
Coordinates from ORCA-job 3-NO2-C6H3-N2-v1-B3LYPG-aug-cc-pVDZ-scan-d09-49-n400
  C   -2.39743538924747      0.15807397577604     -1.33783543948764
  C   -1.10767529013270     -0.16881154621760     -0.93513728701421
  C   -0.41913412542390      0.41252668460336     -0.06603564228049
  C   -0.76319814059520      1.50830413631874      0.69941682438257
  C   -2.07540138769246      1.91229514620456      0.35154173792804
  C   -2.87215165667662      1.27551478411157     -0.62308249617932
  H   -2.99542996021382     -0.34719356802020     -2.09299393278716
  H   -0.18210164747979      2.02589613856760      1.45631676271012
  N   2.63492417455049      0.56708305751379      1.69052654492894
  N   3.48951129427057     -0.11717026548274      1.54747969855519
  H   -3.86914215814738      1.66656741801696     -0.81459906471962
  N   -2.64063307134461      3.08087527473560      1.06241387878283
  O   -3.77803132805795      3.43951789273720      0.76919417198465
  O   -1.93540131380916      3.62472087113514      1.90809424319609
