14
Coordinates from ORCA-job 3-NO2-C6H3-N2-v1-B3LYPG-aug-cc-pVDZ-scan-d09-49-n400
  C   -2.52466300149483      0.17470681890336     -1.39096456560986
  C   -1.23624089151108     -0.21011959376299     -1.03876855074822
  C   -0.49592306322596      0.32459729146708     -0.18227077499014
  C   -0.77142467659725      1.41668374513864      0.61636182509277
  C   -2.07742368943911      1.87835468289227      0.32131230773365
  C   -2.93074392432068      1.29412362632208     -0.63814615781470
  H   -3.16682352063546     -0.29077501871128     -2.13533379182658
  H   -0.14483756532837      1.89448314435506      1.36315213660456
  N   2.76517890444367      0.68769017631691      1.86475226731487
  N   3.68290764794572      0.07584078817445      1.81540131372290
  H   -3.91726617914499      1.72776955524191     -0.78752886635225
  N   -2.57225360499219      3.05259557175387      1.07436719121027
  O   -3.70337294335264      3.46183804142782      0.82663866123607
  O   -1.81841349234684      3.55041117048086      1.90632700442666
