14
Coordinates from ORCA-job 3-NO2-C6H3-N2-v1-B3LYPG-aug-cc-pVDZ-scan-d09-49-n400
  C   -2.49058287328442      0.17002778427699     -1.37694201814310
  C   -1.20133482212295     -0.19885066093606     -1.01067597475569
  C   -0.47483797164607      0.34873752888491     -0.15041051694076
  C   -0.77014628645095      1.44216527162182      0.63895750203583
  C   -2.07816921705628      1.88817574865413      0.32946370005706
  C   -2.91600274757626      1.28920426767993     -0.63447755909878
  H   -3.12063121463030     -0.30666134205361     -2.12456361111693
  H   -0.15528610519721      1.93043948374078      1.38853605826610
  N   2.73445501236440      0.65281885264546      1.81813202946592
  N   3.63689595242996      0.02105767741625      1.74403260408036
  H   -3.90575612877302      1.71112377189467     -0.79560094158817
  N   -2.59254282479658      3.06120017195618      1.07119264635365
  O   -3.72564440397995      3.45676877947740      0.81069174337760
  O   -1.85171636928040      3.57199266474116      1.90696433800692
