14
Coordinates from ORCA-job 3-NO2-C6H3-N2-v1-B3LYPG-aug-cc-pVDZ-scan-d09-49-n400
  C   -2.82523308074629      0.23337376839085     -1.49941385409452
  C   -1.56092520432838     -0.30449243984122     -1.29272431027382
  C   -0.68814903917918      0.09096116046779     -0.48678101098059
  C   -0.76995168499994      1.15502485465053      0.39024962767525
  C   -2.03772531370960      1.76957620786227      0.24806487082927
  C   -3.03445562113250      1.34016383172814     -0.65317146324122
  H   -3.57939381187073     -0.11491212411061     -2.20152780233757
  H   -0.03035813745171      1.51826523592076      1.09758534851716
  N   2.88918496708176      1.04850404109668      2.24064928460621
  N   3.90874934538433      0.69384999366405      2.47264975664665
  H   -3.97611950198093      1.88409934049083     -0.68310872690277
  N   -2.32893570636723      2.94014579680431      1.10596858001011
  O   -3.42564368263716      3.48089476385368      0.99099076446759
  O   -1.45234352806247      3.30274556902199      1.88586893507822
