14
Coordinates from ORCA-job 3-NO2-C6H3-N2-v1-B3LYPG-aug-cc-pVDZ-scan-d09-49-n400
  C   -2.46806718910578      0.16699050617197     -1.36761880763350
  C   -1.17848468449151     -0.19153714289458     -0.99227970501918
  C   -0.46123437761409      0.36446750294819     -0.12968859352382
  C   -0.76873558178394      1.45867331228137      0.65387226967882
  C   -2.07798786115017      1.89430361521586      0.33481409409582
  C   -2.90577812331704      1.28589544853112     -0.63190449327508
  H   -3.09026224885231     -0.31685321323149     -2.11722307519236
  H   -0.16186542338913      1.95403744824920      1.40530256891023
  N   2.71215959181189      0.63098990083739      1.78732526178221
  N   3.60373536181203     -0.01387432132179      1.69649916061990
  H   -3.89747138951953      1.70025438801377     -0.80055124781969
  N   -2.60505858607589      3.06640431452551      1.06905389519608
  O   -3.73937340754451      3.45292675550496      0.80038336229835
  O   -1.87287608078004      3.58552148516853      1.90731530988222
