14
Coordinates from ORCA-job 3-NO2-C6H3-N2-v1-B3LYPG-aug-cc-pVDZ-scan-d09-49-n400
  C   -2.45692997532474      0.16546967228851     -1.36303029048795
  C   -1.16726634770948     -0.18797387974369     -0.98326951252255
  C   -0.45467143994936      0.37218761965135     -0.11957998901040
  C   -0.76770627770077      1.46673665095806      0.66133045248761
  C   -2.07757704532778      1.89716534257078      0.33746174450943
  C   -2.90050338441068      1.28420509458403     -0.63057728946225
  H   -3.07531329353629     -0.32182455373300     -2.11355344109948
  H   -0.16505150411541      1.96585042723157      1.41375956536226
  N   2.70028784277562      0.62065966936041      1.77203889633431
  N   3.58620922401271     -0.03071851234302      1.67277493908717
  H   -3.89310369305148      1.69489277232814     -0.80284112825018
  N   -2.61087692713128      3.06878842991698      1.06796229647637
  O   -3.74577785480269      3.45081374936230      0.79533818438794
  O   -1.88301932372837      3.59194751756759      1.90748557218772
