14
Coordinates from ORCA-job 3-NO2-C6H3-N2-v1-B3LYPG-aug-cc-pVDZ-scan-d09-49-n400
  C   -2.74100762335880      0.21337839140596     -1.47212434967142
  C   -1.46652891689535     -0.27977283080915     -1.22126722284105
  C   -0.62962918284636      0.15680357099356     -0.39868661051017
  C   -0.76984373349723      1.23215417693645      0.45716569487885
  C   -2.05209702802100      1.80288296779303      0.26932684725045
  C   -3.00898230588858      1.32666900039276     -0.65137018139847
  H   -3.46369475564670     -0.17063658469249     -2.18855623209899
  H   -0.06222741369513      1.63056611435641      1.17802432987044
  N   2.86406379506999      0.94484775892302      2.13784145954367
  N   3.86521653811103      0.50276162098695      2.28395038793913
  H   -3.96628446667706      1.83934452575440     -0.71671129786896
  N   -2.40435297888491      2.97747860536282      1.09834239043739
  O   -3.51407930872839      3.48051140197495      0.94392151856046
  O   -1.56185261904153      3.38121128062137      1.89544326590867
