14
Coordinates from ORCA-job 3-NO2-C6H3-N2-v1-B3LYPG-aug-cc-pVDZ-scan-d09-49-n400
  C   -2.72865933444447      0.21073915851439     -1.46787911385644
  C   -1.45295487897347     -0.27588017345190     -1.21067124431845
  C   -0.62129872482119      0.16647276442036     -0.38583436050153
  C   -0.77013227078489      1.24329634000139      0.46672064076930
  C   -2.05417625208894      1.80771699699330      0.27241939776122
  C   -3.00508736660945      1.32477929786885     -0.65096579973277
  H   -3.44667289903666     -0.17835896302199     -2.18626275716786
  H   -0.06682632039017      1.64624131204244      1.18925126962902
  N   2.86037255647272      0.92957061517917      2.12283995944047
  N   3.85801329461513      0.47578770363233      2.25653074406088
  H   -3.96450339716512      1.83279968233267     -0.72149454953615
  N   -2.41513110308037      2.98265402301781      1.09709569064714
  O   -3.52654173996000      3.48017380134532      0.93698861586934
  O   -1.57770156373315      3.39220744112589      1.89656150693580
