14
Coordinates from ORCA-job 3-NO2-C6H3-N2-v1-B3LYPG-aug-cc-pVDZ-scan-d09-49-n400
  C   -2.78936070316349      0.22445641480651     -1.48814006801686
  C   -1.52033629121529     -0.29429052248620     -1.26238273056102
  C   -0.66287170733943      0.11905406197390     -0.44904652081087
  C   -0.76969672021834      1.18829019800342      0.41922353456040
  C   -2.04411445102136      1.78397963395833      0.25719671641351
  C   -3.02394015477290      1.33429821591758     -0.65265999725864
  H   -3.53015571461018     -0.13930029806539     -2.19661135668644
  H   -0.04394066830604      1.56707317203234      1.13267676508632
  N   2.87922065498610      1.00413630902535      2.19698736534307
  N   3.89228309206317      0.61067371963601      2.39190837796024
  H   -3.97258136416750      1.86491339385134     -0.69785054018729
  N   -2.36177494737739      2.95659573944155      1.10285422884864
  O   -3.46436566611076      3.48123362048739      0.97078887705151
  O   -1.49966535874663      3.33708634141790      1.89035534825743
