14
Coordinates from ORCA-job 3-NO2-C6H3-N2-v1-B3LYPG-aug-cc-pVDZ-scan-d09-49-n400
  C   -2.59888337932987      0.18623697658874     -1.42037689585300
  C   -1.31334892064773     -0.23413300026360     -1.10031850354131
  C   -0.54091740062764      0.26969629304196     -0.25340069576313
  C   -0.77372845802777      1.35774742209220      0.56439179487070
  C   -2.07359731827080      1.85541713066935      0.30356492537803
  C   -2.96117092257225      1.30514062087364     -0.64481039142750
  H   -3.26773172812743     -0.25358088844604     -2.15678675108003
  H   -0.11951779614942      1.80968302876937      1.30355046546172
  N   2.81994437343672      0.76996356414891      1.96489825562859
  N   3.76862870412482      0.20517242601023      1.97249257459320
  H   -3.93957733534579      1.76473466438141     -0.76755423872287
  N   -2.52307431689729      3.03127851352698      1.08202797975936
  O   -3.64860786161308      3.47153484141572      0.86370606093028
  O   -1.73971763995248      3.49930840719117      1.90391541976593
