14
Coordinates from ORCA-job 3-NO2-C6H3-N2-v1-B3LYPG-aug-cc-pVDZ-scan-d09-49-n400
  C   -2.47929231609799      0.16841250195324     -1.37233567843209
  C   -1.18991037392917     -0.19519714962870     -1.00143499379152
  C   -0.46825874766711      0.35678236214165     -0.13999476122839
  C   -0.76916265704705      1.45066574077940      0.64675015752678
  C   -2.07790966117774      1.89119553619060      0.33214728376201
  C   -2.91076578488820      1.28747144518740     -0.63320730570049
  H   -3.10541901492304     -0.31185802651145     -2.12096122890194
  H   -0.15860442028471      1.94286634279510      1.39740189105899
  N   2.72329365144716      0.64177763638402      1.80259691608405
  N   3.62018170681409      0.00321571501695      1.71989310449112
  H   -3.90148801902735      1.70566370406836     -0.79808272351791
  N   -2.59883255210094      3.06377610712027      1.06999274462156
  O   -3.73262659864004      3.45462816579406      0.80538332283500
  O   -1.86250521247792      3.57879991870912      1.90715127119282
