14
Coordinates from ORCA-job 3-NO2-C6H3-N2-v1-B3LYPG-aug-cc-pVDZ-scan-d09-49-n400
  C   -2.43474703403471      0.16273955823553     -1.35362339522373
  C   -1.14491788844138     -0.18087931992746     -0.96529630811782
  C   -0.44124046619418      0.38728056018657     -0.09949733966969
  C   -0.76609382390322      1.48230913101921      0.67557645620253
  C   -2.07690742346914      1.90289388475133      0.34278252033883
  C   -2.89010376106300      1.28101248502847     -0.62776432004753
  H   -3.04552477296018     -0.33129028051552     -2.10597826128872
  H   -0.17181025092131      1.98868176903774      1.42987888289786
  N   2.67620765212988      0.60050775475346      1.74165797072028
  N   3.55076726587765     -0.06339058208778      1.62596930629625
  H   -3.88445525440115      1.68432489230327     -0.80733842011213
  N   -2.62207098592968      3.07325351775957      1.06591691514909
  O   -3.75792423508230      3.44653528036090      0.78539562898567
  O   -1.90247902160728      3.60422134909473      1.90762036386911
