14
Coordinates from ORCA-job 3-NO2-C6H3-N2-v1-B3LYPG-aug-cc-pVDZ-scan-d09-49-n400
  C   -2.69824377278259      0.20433846056924     -1.45734802307249
  C   -1.41972242456473     -0.26608160847767     -1.18445072458355
  C   -0.60161269071802      0.19083631815704     -0.35406060606867
  C   -0.77094687002622      1.27098915710915      0.49049164609775
  C   -2.05942359881073      1.81933178309066      0.27973837741527
  C   -2.99549710786008      1.32004176204582     -0.65007118173917
  H   -3.40454039198823     -0.19727198231980     -2.18044485601349
  H   -0.08005296131550      1.68679595740288      1.21767666747682
  N   2.85398550798270      0.89142175667242      2.08704693455304
  N   3.84154625119318      0.40816769042730      2.18834008844600
  H   -3.95985738308389      1.81667950548598     -0.73320263661482
  N   -2.44207830217363      2.99505635253824      1.09353603413033
  O   -3.55739593777773      3.47885883922098      0.91925495262511
  O   -1.61746031807457      3.41903600807782      1.89879332734786
