14
Coordinates from ORCA-job 3-NO2-C6H3-N2-v1-B3LYPG-aug-cc-pVDZ-scan-d09-49-n400
  C   -2.83711525868275      0.23644670399191     -1.50306458406239
  C   -1.57449359098068     -0.30772272287996     -1.30274351589484
  C   -0.69668553642748      0.08164209996740     -0.49937819725794
  C   -0.76975328487588      1.14406199781884      0.38089256958143
  C   -2.03536619081498      1.76453931336911      0.24501318338616
  C   -3.03772735709761      1.34202228773038     -0.65325938146056
  H   -3.59570446276653     -0.10658526837751     -2.20299602020706
  H   -0.02603082964105      1.50261391535414      1.08635242491536
  N   2.89217371240006      1.06335008450800      2.25506782252879
  N   3.91332296764762      0.72146833734704      2.49897283982888
  H   -3.97695373344656      1.89042258646257     -0.67802534353614
  N   -2.31788433523341      2.93435112008267      1.10687571487738
  O   -3.41252140311710      3.48044011731483      0.99747107122004
  O   -1.43656069696368      3.29114942731061      1.88412141608088
