14
Coordinates from ORCA-job 3-NO2-C6H3-N2-v1-B3LYPG-aug-cc-pVDZ-scan-d09-49-n400
  C   -2.44594932214218      0.16410390028757     -1.35839662786104
  C   -1.15617993748515     -0.18448205998340     -0.97441741555827
  C   -0.44783794861893      0.37950693895087     -0.10968408733712
  C   -0.76695622641468      1.47431800439075      0.66825312802521
  C   -2.07729297094689      1.90002409812617      0.34009318313903
  C   -2.89538571668764      1.28262467024428     -0.62921178390774
  H   -3.06057508523645     -0.32655480708891     -2.10981890837630
  H   -0.16828246322237      1.97684968170636      1.42153922551332
  N   2.68821863746272      0.61076009311033      1.75700595838590
  N   3.56867018594786     -0.04673565325047      1.64974316262523
  H   -3.88887289623128      1.68960755392462     -0.80510812569741
  N   -2.61642970739241      3.07110121347335      1.06706291511021
  O   -3.75180621007038      3.44892528281655      0.79058358321257
  O   -1.89262033896224      3.59815108329194      1.90765579272641
