14
Coordinates from ORCA-job 3-NO2-C6H3-N2-v1-B3LYPG-aug-cc-pVDZ-scan-d09-49-n400
  C   -2.68567820179851      0.20188113899313     -1.45281435120918
  C   -1.40610853415144     -0.26195811206002     -1.17362314973949
  C   -0.59335827685173      0.20069017926592     -0.34109709354482
  C   -0.77146381689593      1.28208231649273      0.49985959016786
  C   -2.06146716942382      1.82417525857882      0.28283089252469
  C   -2.99139955531233      1.31820030345360     -0.64952603507192
  H   -3.38717989851681     -0.20477290484836     -2.17775419737498
  H   -0.08469869122081      1.70206179949541      1.22849753720515
  N   2.84996513275854      0.87593992893743      2.07168094081297
  N   3.83328243126468      0.38177514315237      2.16087715405416
  H   -3.95773079159952      1.81008357053541     -0.73786534932993
  N   -2.45268787475658      3.00006026460294      1.09219600739276
  O   -3.56951740111350      3.47829307789509      0.91229907734834
  O   -1.63325735238227      3.42968803550556      1.89973897676437
