Coordinates from ORCA-job 4-NO2-Ph-N2+-scan-d090-169-n800
 OpenBabel09191814013D

 15 14  0  0  0  0  0  0  0  0999 V2000
   -3.3212   -0.2075   -0.5372 C   0  0  0  0  0  0  0  0  0  0  0  0
   -1.8994   -0.2465   -0.6586 C   0  0  0  0  0  0  0  0  0  0  0  0
   -1.5044    0.8783   -0.0680 C   0  0  0  0  0  0  0  0  0  0  0  0
   -1.8265    1.9999    0.5712 C   0  0  0  0  0  0  0  0  0  0  0  0
   -3.2513    1.9478    0.6427 C   0  0  0  0  0  0  0  0  0  0  0  0
   -3.9458    0.8671    0.0974 C   0  0  0  0  0  0  0  0  0  0  0  0
   -3.9013   -1.0311   -0.9492 H   0  0  0  0  0  0  0  0  0  0  0  0
   -1.3337   -1.0403   -1.1346 H   0  0  0  0  0  0  0  0  0  0  0  0
   -1.2090    2.7991    0.9672 H   0  0  0  0  0  0  0  0  0  0  0  0
   -3.7780    2.7663    1.1296 H   0  0  0  0  0  0  0  0  0  0  0  0
   -5.4289    0.8603    0.1978 N   0  0  0  0  0  0  0  0  0  0  0  0
   -5.9968   -0.1048   -0.2929 O   0  0  0  0  0  0  0  0  0  0  0  0
   -5.9343    1.8204    0.7612 O   0  0  0  0  0  0  0  0  0  0  0  0
    9.9197    0.8474   -0.8838 N   0  0  0  0  0  0  0  0  0  0  0  0
   11.0224    0.8452   -0.9615 N   0  0  0  0  0  0  0  0  0  0  0  0
  1  6  1  0  0  0  0
  2  1  2  0  0  0  0
  2  3  1  0  0  0  0
  3  4  2  0  0  0  0
  4  5  1  0  0  0  0
  4  9  1  0  0  0  0
  5 10  1  0  0  0  0
  6 11  1  0  0  0  0
  6  5  2  0  0  0  0
  7  1  1  0  0  0  0
  8  2  1  0  0  0  0
 11 13  2  0  0  0  0
 12 11  2  0  0  0  0
 15 14  3  0  0  0  0
M  RAD  1   3   2
M  END
