Coordinates from ORCA-job 4-NO2-Ph-N2+-scan-d090-169-n800
 OpenBabel09191814013D

 15 14  0  0  0  0  0  0  0  0999 V2000
   -3.5136   -0.2066   -0.5233 C   0  0  0  0  0  0  0  0  0  0  0  0
   -2.0916   -0.2434   -0.6434 C   0  0  0  0  0  0  0  0  0  0  0  0
   -1.6986    0.8819   -0.0524 C   0  0  0  0  0  0  0  0  0  0  0  0
   -2.0230    2.0029    0.5866 C   0  0  0  0  0  0  0  0  0  0  0  0
   -3.4477    1.9487    0.6569 C   0  0  0  0  0  0  0  0  0  0  0  0
   -4.1402    0.8670    0.1109 C   0  0  0  0  0  0  0  0  0  0  0  0
   -4.0921   -1.0310   -0.9358 H   0  0  0  0  0  0  0  0  0  0  0  0
   -1.5243   -1.0363   -1.1192 H   0  0  0  0  0  0  0  0  0  0  0  0
   -1.4071    2.8030    0.9831 H   0  0  0  0  0  0  0  0  0  0  0  0
   -3.9761    2.7664    1.1435 H   0  0  0  0  0  0  0  0  0  0  0  0
   -5.6234    0.8580    0.2102 N   0  0  0  0  0  0  0  0  0  0  0  0
   -6.1895   -0.1079   -0.2810 O   0  0  0  0  0  0  0  0  0  0  0  0
   -6.1307    1.8173    0.7733 O   0  0  0  0  0  0  0  0  0  0  0  0
   11.1833    0.8420   -0.9752 N   0  0  0  0  0  0  0  0  0  0  0  0
   12.2860    0.8395   -1.0530 N   0  0  0  0  0  0  0  0  0  0  0  0
  1  6  1  0  0  0  0
  2  1  2  0  0  0  0
  2  3  1  0  0  0  0
  3  4  2  0  0  0  0
  4  5  1  0  0  0  0
  4  9  1  0  0  0  0
  5 10  1  0  0  0  0
  6 11  1  0  0  0  0
  6  5  2  0  0  0  0
  7  1  1  0  0  0  0
  8  2  1  0  0  0  0
 11 13  2  0  0  0  0
 12 11  2  0  0  0  0
 15 14  3  0  0  0  0
M  RAD  1   3   2
M  END
