Coordinates from ORCA-job 4-NO2-Ph-N2+-scan-d090-169-n800
 OpenBabel09191814013D

 15 14  0  0  0  0  0  0  0  0999 V2000
   -2.7163   -0.2100   -0.5809 C   0  0  0  0  0  0  0  0  0  0  0  0
   -1.2949   -0.2538   -0.7047 C   0  0  0  0  0  0  0  0  0  0  0  0
   -0.8948    0.8697   -0.1152 C   0  0  0  0  0  0  0  0  0  0  0  0
   -1.2118    1.9924    0.5242 C   0  0  0  0  0  0  0  0  0  0  0  0
   -2.6365    1.9455    0.5984 C   0  0  0  0  0  0  0  0  0  0  0  0
   -3.3359    0.8670    0.0546 C   0  0  0  0  0  0  0  0  0  0  0  0
   -3.2999   -1.0316   -0.9916 H   0  0  0  0  0  0  0  0  0  0  0  0
   -0.7326   -1.0496   -1.1816 H   0  0  0  0  0  0  0  0  0  0  0  0
   -0.5906    2.7894    0.9187 H   0  0  0  0  0  0  0  0  0  0  0  0
   -3.1594    2.7659    1.0861 H   0  0  0  0  0  0  0  0  0  0  0  0
   -4.8188    0.8654    0.1578 N   0  0  0  0  0  0  0  0  0  0  0  0
   -5.3911   -0.0978   -0.3315 O   0  0  0  0  0  0  0  0  0  0  0  0
   -5.3198    1.8274    0.7219 O   0  0  0  0  0  0  0  0  0  0  0  0
    5.9556    0.8613   -0.5989 N   0  0  0  0  0  0  0  0  0  0  0  0
    7.0583    0.8603   -0.6762 N   0  0  0  0  0  0  0  0  0  0  0  0
  1  6  1  0  0  0  0
  2  1  2  0  0  0  0
  2  3  1  0  0  0  0
  3  4  2  0  0  0  0
  4  5  1  0  0  0  0
  4  9  1  0  0  0  0
  5 10  1  0  0  0  0
  6 11  1  0  0  0  0
  6  5  2  0  0  0  0
  7  1  1  0  0  0  0
  8  2  1  0  0  0  0
 11 13  2  0  0  0  0
 12 11  2  0  0  0  0
 15 14  3  0  0  0  0
M  RAD  1   3   2
M  END
