Coordinates from ORCA-job 4-NO2-Ph-N2+-scan-d090-169-n800
 OpenBabel09191814013D

 15 14  0  0  0  0  0  0  0  0999 V2000
   -3.9081   -0.2045   -0.4945 C   0  0  0  0  0  0  0  0  0  0  0  0
   -2.4858   -0.2363   -0.6119 C   0  0  0  0  0  0  0  0  0  0  0  0
   -2.0978    0.8902   -0.0199 C   0  0  0  0  0  0  0  0  0  0  0  0
   -2.4274    2.0099    0.6187 C   0  0  0  0  0  0  0  0  0  0  0  0
   -3.8520    1.9507    0.6863 C   0  0  0  0  0  0  0  0  0  0  0  0
   -4.5397    0.8668    0.1387 C   0  0  0  0  0  0  0  0  0  0  0  0
   -4.4829   -1.0308   -0.9084 H   0  0  0  0  0  0  0  0  0  0  0  0
   -1.9149   -1.0272   -1.0868 H   0  0  0  0  0  0  0  0  0  0  0  0
   -1.8150    2.8120    1.0167 H   0  0  0  0  0  0  0  0  0  0  0  0
   -4.3841    2.7664    1.1721 H   0  0  0  0  0  0  0  0  0  0  0  0
   -6.0231    0.8526    0.2352 N   0  0  0  0  0  0  0  0  0  0  0  0
   -6.5848   -0.1151   -0.2574 O   0  0  0  0  0  0  0  0  0  0  0  0
   -6.5347    1.8100    0.7975 O   0  0  0  0  0  0  0  0  0  0  0  0
   13.7795    0.8266   -1.1654 N   0  0  0  0  0  0  0  0  0  0  0  0
   14.8825    0.8302   -1.2396 N   0  0  0  0  0  0  0  0  0  0  0  0
  1  6  1  0  0  0  0
  2  1  2  0  0  0  0
  2  3  1  0  0  0  0
  3  4  2  0  0  0  0
  4  5  1  0  0  0  0
  4  9  1  0  0  0  0
  5 10  1  0  0  0  0
  6 11  1  0  0  0  0
  6  5  2  0  0  0  0
  7  1  1  0  0  0  0
  8  2  1  0  0  0  0
 11 13  2  0  0  0  0
 12 11  2  0  0  0  0
 15 14  3  0  0  0  0
M  RAD  1   3   2
M  END
