Coordinates from ORCA-job 4-NO2-Ph-N2+-scan-d090-169-n800
 OpenBabel09191814013D

 15 14  0  0  0  0  0  0  0  0999 V2000
   -3.6320   -0.2060   -0.5147 C   0  0  0  0  0  0  0  0  0  0  0  0
   -2.2099   -0.2414   -0.6340 C   0  0  0  0  0  0  0  0  0  0  0  0
   -1.8184    0.8843   -0.0427 C   0  0  0  0  0  0  0  0  0  0  0  0
   -2.1442    2.0049    0.5962 C   0  0  0  0  0  0  0  0  0  0  0  0
   -3.5690    1.9493    0.6657 C   0  0  0  0  0  0  0  0  0  0  0  0
   -4.2601    0.8670    0.1193 C   0  0  0  0  0  0  0  0  0  0  0  0
   -4.2095   -1.0309   -0.9276 H   0  0  0  0  0  0  0  0  0  0  0  0
   -1.6416   -1.0337   -1.1095 H   0  0  0  0  0  0  0  0  0  0  0  0
   -1.5293    2.8056    0.9931 H   0  0  0  0  0  0  0  0  0  0  0  0
   -4.0984    2.7664    1.1521 H   0  0  0  0  0  0  0  0  0  0  0  0
   -5.7433    0.8564    0.2177 N   0  0  0  0  0  0  0  0  0  0  0  0
   -6.3081   -0.1100   -0.2739 O   0  0  0  0  0  0  0  0  0  0  0  0
   -6.2518    1.8152    0.7806 O   0  0  0  0  0  0  0  0  0  0  0  0
   11.9622    0.8385   -1.0316 N   0  0  0  0  0  0  0  0  0  0  0  0
   13.0649    0.8358   -1.1095 N   0  0  0  0  0  0  0  0  0  0  0  0
  1  6  1  0  0  0  0
  2  1  2  0  0  0  0
  2  3  1  0  0  0  0
  3  4  2  0  0  0  0
  4  5  1  0  0  0  0
  4  9  1  0  0  0  0
  5 10  1  0  0  0  0
  6 11  1  0  0  0  0
  6  5  2  0  0  0  0
  7  1  1  0  0  0  0
  8  2  1  0  0  0  0
 11 13  2  0  0  0  0
 12 11  2  0  0  0  0
 15 14  3  0  0  0  0
M  RAD  1   3   2
M  END
