Coordinates from ORCA-job 4-NO2-Ph-N2+-scan-d090-169-n800
 OpenBabel09191814003D

 15 14  0  0  0  0  0  0  0  0999 V2000
   -2.2075   -0.2111   -0.6170 C   0  0  0  0  0  0  0  0  0  0  0  0
   -0.7882   -0.2551   -0.7407 C   0  0  0  0  0  0  0  0  0  0  0  0
   -0.3751    0.8667   -0.1529 C   0  0  0  0  0  0  0  0  0  0  0  0
   -0.7020    1.9886    0.4867 C   0  0  0  0  0  0  0  0  0  0  0  0
   -2.1248    1.9447    0.5622 C   0  0  0  0  0  0  0  0  0  0  0  0
   -2.8253    0.8669    0.0188 C   0  0  0  0  0  0  0  0  0  0  0  0
   -2.7945   -1.0305   -1.0264 H   0  0  0  0  0  0  0  0  0  0  0  0
   -0.2262   -1.0504   -1.2172 H   0  0  0  0  0  0  0  0  0  0  0  0
   -0.0790    2.7838    0.8802 H   0  0  0  0  0  0  0  0  0  0  0  0
   -2.6487    2.7642    1.0494 H   0  0  0  0  0  0  0  0  0  0  0  0
   -4.3081    0.8670    0.1227 N   0  0  0  0  0  0  0  0  0  0  0  0
   -4.8828   -0.0953   -0.3661 O   0  0  0  0  0  0  0  0  0  0  0  0
   -4.8089    1.8293    0.6868 O   0  0  0  0  0  0  0  0  0  0  0  0
    2.6402    0.8664   -0.3642 N   0  0  0  0  0  0  0  0  0  0  0  0
    3.7424    0.8663   -0.4413 N   0  0  0  0  0  0  0  0  0  0  0  0
  1  6  1  0  0  0  0
  2  1  2  0  0  0  0
  2  3  1  0  0  0  0
  3  4  2  0  0  0  0
  4  5  1  0  0  0  0
  4  9  1  0  0  0  0
  5 10  1  0  0  0  0
  6 11  1  0  0  0  0
  6  5  2  0  0  0  0
  7  1  1  0  0  0  0
  8  2  1  0  0  0  0
 11 13  2  0  0  0  0
 12 11  2  0  0  0  0
 15 14  3  0  0  0  0
M  RAD  1   3   2
M  END
