Coordinates from ORCA-job 4-NO2-Ph-N2+-scan-d090-169-n800
 OpenBabel09191814013D

 15 14  0  0  0  0  0  0  0  0999 V2000
   -3.3819   -0.2072   -0.5328 C   0  0  0  0  0  0  0  0  0  0  0  0
   -1.9600   -0.2456   -0.6538 C   0  0  0  0  0  0  0  0  0  0  0  0
   -1.5656    0.8794   -0.0631 C   0  0  0  0  0  0  0  0  0  0  0  0
   -1.8884    2.0008    0.5760 C   0  0  0  0  0  0  0  0  0  0  0  0
   -3.3131    1.9481    0.6471 C   0  0  0  0  0  0  0  0  0  0  0  0
   -4.0070    0.8671    0.1016 C   0  0  0  0  0  0  0  0  0  0  0  0
   -3.9615   -1.0311   -0.9450 H   0  0  0  0  0  0  0  0  0  0  0  0
   -1.3938   -1.0391   -1.1298 H   0  0  0  0  0  0  0  0  0  0  0  0
   -1.2714    2.8003    0.9722 H   0  0  0  0  0  0  0  0  0  0  0  0
   -3.8404    2.7663    1.1340 H   0  0  0  0  0  0  0  0  0  0  0  0
   -5.4902    0.8596    0.2017 N   0  0  0  0  0  0  0  0  0  0  0  0
   -6.0575   -0.1058   -0.2891 O   0  0  0  0  0  0  0  0  0  0  0  0
   -5.9961    1.8195    0.7650 O   0  0  0  0  0  0  0  0  0  0  0  0
   10.3178    0.8457   -0.9126 N   0  0  0  0  0  0  0  0  0  0  0  0
   11.4205    0.8434   -0.9903 N   0  0  0  0  0  0  0  0  0  0  0  0
  1  6  1  0  0  0  0
  2  1  2  0  0  0  0
  2  3  1  0  0  0  0
  3  4  2  0  0  0  0
  4  5  1  0  0  0  0
  4  9  1  0  0  0  0
  5 10  1  0  0  0  0
  6 11  1  0  0  0  0
  6  5  2  0  0  0  0
  7  1  1  0  0  0  0
  8  2  1  0  0  0  0
 11 13  2  0  0  0  0
 12 11  2  0  0  0  0
 15 14  3  0  0  0  0
M  RAD  1   3   2
M  END
