Coordinates from ORCA-job 4-NO2-Ph-N2+-scan-d090-169-n800
 OpenBabel09191814013D

 15 14  0  0  0  0  0  0  0  0999 V2000
   -3.1498   -0.2083   -0.5497 C   0  0  0  0  0  0  0  0  0  0  0  0
   -1.7281   -0.2489   -0.6719 C   0  0  0  0  0  0  0  0  0  0  0  0
   -1.3314    0.8755   -0.0816 C   0  0  0  0  0  0  0  0  0  0  0  0
   -1.6517    1.9974    0.5576 C   0  0  0  0  0  0  0  0  0  0  0  0
   -3.0765    1.9470    0.6300 C   0  0  0  0  0  0  0  0  0  0  0  0
   -3.7727    0.8671    0.0853 C   0  0  0  0  0  0  0  0  0  0  0  0
   -3.7311   -1.0312   -0.9612 H   0  0  0  0  0  0  0  0  0  0  0  0
   -1.1636   -1.0434   -1.1483 H   0  0  0  0  0  0  0  0  0  0  0  0
   -1.0331    2.7960    0.9531 H   0  0  0  0  0  0  0  0  0  0  0  0
   -3.6020    2.7662    1.1172 H   0  0  0  0  0  0  0  0  0  0  0  0
   -5.2557    0.8620    0.1867 N   0  0  0  0  0  0  0  0  0  0  0  0
   -5.8251   -0.1024   -0.3036 O   0  0  0  0  0  0  0  0  0  0  0  0
   -5.7596    1.8228    0.7503 O   0  0  0  0  0  0  0  0  0  0  0  0
    8.7945    0.8518   -0.8027 N   0  0  0  0  0  0  0  0  0  0  0  0
    9.8973    0.8500   -0.8803 N   0  0  0  0  0  0  0  0  0  0  0  0
  1  6  1  0  0  0  0
  2  1  2  0  0  0  0
  2  3  1  0  0  0  0
  3  4  2  0  0  0  0
  4  5  1  0  0  0  0
  4  9  1  0  0  0  0
  5 10  1  0  0  0  0
  6 11  1  0  0  0  0
  6  5  2  0  0  0  0
  7  1  1  0  0  0  0
  8  2  1  0  0  0  0
 11 13  2  0  0  0  0
 12 11  2  0  0  0  0
 15 14  3  0  0  0  0
M  RAD  1   3   2
M  END
