Coordinates from ORCA-job 4-NO2-Ph-N2+-scan-d090-169-n800
 OpenBabel09191814013D

 15 14  0  0  0  0  0  0  0  0999 V2000
   -4.0131   -0.2039   -0.4868 C   0  0  0  0  0  0  0  0  0  0  0  0
   -2.5907   -0.2342   -0.6034 C   0  0  0  0  0  0  0  0  0  0  0  0
   -2.2044    0.8927   -0.0110 C   0  0  0  0  0  0  0  0  0  0  0  0
   -2.5354    2.0120    0.6275 C   0  0  0  0  0  0  0  0  0  0  0  0
   -3.9601    1.9513    0.6942 C   0  0  0  0  0  0  0  0  0  0  0  0
   -4.6462    0.8667    0.1461 C   0  0  0  0  0  0  0  0  0  0  0  0
   -4.5868   -1.0308   -0.9011 H   0  0  0  0  0  0  0  0  0  0  0  0
   -2.0186   -1.0243   -1.0779 H   0  0  0  0  0  0  0  0  0  0  0  0
   -1.9241    2.8148    1.0259 H   0  0  0  0  0  0  0  0  0  0  0  0
   -4.4934    2.7664    1.1797 H   0  0  0  0  0  0  0  0  0  0  0  0
   -6.1296    0.8509    0.2416 N   0  0  0  0  0  0  0  0  0  0  0  0
   -6.6900   -0.1174   -0.2514 O   0  0  0  0  0  0  0  0  0  0  0  0
   -6.6427    1.8077    0.8037 O   0  0  0  0  0  0  0  0  0  0  0  0
   14.4718    0.8222   -1.2162 N   0  0  0  0  0  0  0  0  0  0  0  0
   15.5748    0.8274   -1.2896 N   0  0  0  0  0  0  0  0  0  0  0  0
  1  6  1  0  0  0  0
  2  1  2  0  0  0  0
  2  3  1  0  0  0  0
  3  4  2  0  0  0  0
  4  5  1  0  0  0  0
  4  9  1  0  0  0  0
  5 10  1  0  0  0  0
  6 11  1  0  0  0  0
  6  5  2  0  0  0  0
  7  1  1  0  0  0  0
  8  2  1  0  0  0  0
 11 13  2  0  0  0  0
 12 11  2  0  0  0  0
 15 14  3  0  0  0  0
M  RAD  1   3   2
M  END
