Coordinates from ORCA-job 4-NO2-Ph-N2+-scan-d090-169-n800
 OpenBabel09191814013D

 15 14  0  0  0  0  0  0  0  0999 V2000
   -3.1577   -0.2083   -0.5491 C   0  0  0  0  0  0  0  0  0  0  0  0
   -1.7361   -0.2487   -0.6712 C   0  0  0  0  0  0  0  0  0  0  0  0
   -1.3392    0.8756   -0.0810 C   0  0  0  0  0  0  0  0  0  0  0  0
   -1.6599    1.9974    0.5582 C   0  0  0  0  0  0  0  0  0  0  0  0
   -3.0846    1.9471    0.6306 C   0  0  0  0  0  0  0  0  0  0  0  0
   -3.7807    0.8671    0.0858 C   0  0  0  0  0  0  0  0  0  0  0  0
   -3.7387   -1.0313   -0.9607 H   0  0  0  0  0  0  0  0  0  0  0  0
   -1.1716   -1.0432   -1.1476 H   0  0  0  0  0  0  0  0  0  0  0  0
   -1.0414    2.7960    0.9537 H   0  0  0  0  0  0  0  0  0  0  0  0
   -3.6099    2.7663    1.1179 H   0  0  0  0  0  0  0  0  0  0  0  0
   -5.2638    0.8619    0.1872 N   0  0  0  0  0  0  0  0  0  0  0  0
   -5.8331   -0.1026   -0.3031 O   0  0  0  0  0  0  0  0  0  0  0  0
   -5.7678    1.8227    0.7508 O   0  0  0  0  0  0  0  0  0  0  0  0
    8.8467    0.8516   -0.8064 N   0  0  0  0  0  0  0  0  0  0  0  0
    9.9494    0.8497   -0.8840 N   0  0  0  0  0  0  0  0  0  0  0  0
  1  6  1  0  0  0  0
  2  1  2  0  0  0  0
  2  3  1  0  0  0  0
  3  4  2  0  0  0  0
  4  5  1  0  0  0  0
  4  9  1  0  0  0  0
  5 10  1  0  0  0  0
  6 11  1  0  0  0  0
  6  5  2  0  0  0  0
  7  1  1  0  0  0  0
  8  2  1  0  0  0  0
 11 13  2  0  0  0  0
 12 11  2  0  0  0  0
 15 14  3  0  0  0  0
M  RAD  1   3   2
M  END
