Coordinates from ORCA-job 4-NO2-Ph-N2+-scan-d090-169-n800
 OpenBabel09191814003D

 15 14  0  0  0  0  0  0  0  0999 V2000
   -2.3291   -0.2109   -0.6085 C   0  0  0  0  0  0  0  0  0  0  0  0
   -0.9082   -0.2559   -0.7328 C   0  0  0  0  0  0  0  0  0  0  0  0
   -0.5054    0.8669   -0.1438 C   0  0  0  0  0  0  0  0  0  0  0  0
   -0.8221    1.9897    0.4957 C   0  0  0  0  0  0  0  0  0  0  0  0
   -2.2465    1.9447    0.5707 C   0  0  0  0  0  0  0  0  0  0  0  0
   -2.9471    0.8669    0.0274 C   0  0  0  0  0  0  0  0  0  0  0  0
   -2.9142   -1.0317   -1.0186 H   0  0  0  0  0  0  0  0  0  0  0  0
   -0.3453   -1.0513   -1.2094 H   0  0  0  0  0  0  0  0  0  0  0  0
   -0.1983    2.7851    0.8892 H   0  0  0  0  0  0  0  0  0  0  0  0
   -2.7687    2.7654    1.0585 H   0  0  0  0  0  0  0  0  0  0  0  0
   -4.4299    0.8669    0.1313 N   0  0  0  0  0  0  0  0  0  0  0  0
   -5.0038   -0.0956   -0.3578 O   0  0  0  0  0  0  0  0  0  0  0  0
   -4.9300    1.8295    0.6954 O   0  0  0  0  0  0  0  0  0  0  0  0
    3.4288    0.8661   -0.4195 N   0  0  0  0  0  0  0  0  0  0  0  0
    4.5313    0.8659   -0.4967 N   0  0  0  0  0  0  0  0  0  0  0  0
  1  6  1  0  0  0  0
  2  1  2  0  0  0  0
  2  3  1  0  0  0  0
  3  4  2  0  0  0  0
  4  5  1  0  0  0  0
  4  9  1  0  0  0  0
  5 10  1  0  0  0  0
  6 11  1  0  0  0  0
  6  5  2  0  0  0  0
  7  1  1  0  0  0  0
  8  2  1  0  0  0  0
 11 13  2  0  0  0  0
 12 11  2  0  0  0  0
 15 14  3  0  0  0  0
M  RAD  1   3   2
M  END
