Coordinates from ORCA-job 4-NO2-Ph-N2+-scan-d090-169-n800
 OpenBabel09191814013D

 15 14  0  0  0  0  0  0  0  0999 V2000
   -3.3476   -0.2074   -0.5353 C   0  0  0  0  0  0  0  0  0  0  0  0
   -1.9258   -0.2460   -0.6565 C   0  0  0  0  0  0  0  0  0  0  0  0
   -1.5309    0.8788   -0.0659 C   0  0  0  0  0  0  0  0  0  0  0  0
   -1.8535    2.0002    0.5732 C   0  0  0  0  0  0  0  0  0  0  0  0
   -3.2782    1.9479    0.6446 C   0  0  0  0  0  0  0  0  0  0  0  0
   -3.9724    0.8671    0.0992 C   0  0  0  0  0  0  0  0  0  0  0  0
   -3.9274   -1.0311   -0.9474 H   0  0  0  0  0  0  0  0  0  0  0  0
   -1.3599   -1.0397   -1.1325 H   0  0  0  0  0  0  0  0  0  0  0  0
   -1.2362    2.7996    0.9693 H   0  0  0  0  0  0  0  0  0  0  0  0
   -3.8050    2.7663    1.1315 H   0  0  0  0  0  0  0  0  0  0  0  0
   -5.4556    0.8600    0.1995 N   0  0  0  0  0  0  0  0  0  0  0  0
   -6.0232   -0.1052   -0.2912 O   0  0  0  0  0  0  0  0  0  0  0  0
   -5.9612    1.8200    0.7629 O   0  0  0  0  0  0  0  0  0  0  0  0
   10.0929    0.8467   -0.8963 N   0  0  0  0  0  0  0  0  0  0  0  0
   11.1956    0.8444   -0.9740 N   0  0  0  0  0  0  0  0  0  0  0  0
  1  6  1  0  0  0  0
  2  1  2  0  0  0  0
  2  3  1  0  0  0  0
  3  4  2  0  0  0  0
  4  5  1  0  0  0  0
  4  9  1  0  0  0  0
  5 10  1  0  0  0  0
  6 11  1  0  0  0  0
  6  5  2  0  0  0  0
  7  1  1  0  0  0  0
  8  2  1  0  0  0  0
 11 13  2  0  0  0  0
 12 11  2  0  0  0  0
 15 14  3  0  0  0  0
M  RAD  1   3   2
M  END
