Coordinates from ORCA-job 4-NO2-Ph-N2+-scan-d090-169-n800
 OpenBabel09191814003D

 15 14  0  0  0  0  0  0  0  0999 V2000
   -2.3317   -0.2110   -0.6082 C   0  0  0  0  0  0  0  0  0  0  0  0
   -0.9107   -0.2561   -0.7326 C   0  0  0  0  0  0  0  0  0  0  0  0
   -0.5081    0.8669   -0.1436 C   0  0  0  0  0  0  0  0  0  0  0  0
   -0.8247    1.9899    0.4959 C   0  0  0  0  0  0  0  0  0  0  0  0
   -2.2491    1.9447    0.5710 C   0  0  0  0  0  0  0  0  0  0  0  0
   -2.9497    0.8668    0.0276 C   0  0  0  0  0  0  0  0  0  0  0  0
   -2.9170   -1.0316   -1.0183 H   0  0  0  0  0  0  0  0  0  0  0  0
   -0.3480   -1.0514   -1.2093 H   0  0  0  0  0  0  0  0  0  0  0  0
   -0.2009    2.7852    0.8894 H   0  0  0  0  0  0  0  0  0  0  0  0
   -2.7715    2.7653    1.0587 H   0  0  0  0  0  0  0  0  0  0  0  0
   -4.4325    0.8668    0.1315 N   0  0  0  0  0  0  0  0  0  0  0  0
   -5.0064   -0.0956   -0.3577 O   0  0  0  0  0  0  0  0  0  0  0  0
   -4.9326    1.8295    0.6954 O   0  0  0  0  0  0  0  0  0  0  0  0
    3.4460    0.8661   -0.4208 N   0  0  0  0  0  0  0  0  0  0  0  0
    4.5486    0.8659   -0.4980 N   0  0  0  0  0  0  0  0  0  0  0  0
  1  6  1  0  0  0  0
  2  1  2  0  0  0  0
  2  3  1  0  0  0  0
  3  4  2  0  0  0  0
  4  5  1  0  0  0  0
  4  9  1  0  0  0  0
  5 10  1  0  0  0  0
  6 11  1  0  0  0  0
  6  5  2  0  0  0  0
  7  1  1  0  0  0  0
  8  2  1  0  0  0  0
 11 13  2  0  0  0  0
 12 11  2  0  0  0  0
 15 14  3  0  0  0  0
M  RAD  1   3   2
M  END
