Coordinates from ORCA-job 4-NO2-Ph-N2+-scan-d090-169-n800
 OpenBabel09191814013D

 15 14  0  0  0  0  0  0  0  0999 V2000
   -3.7583   -0.2053   -0.5055 C   0  0  0  0  0  0  0  0  0  0  0  0
   -2.3363   -0.2391   -0.6239 C   0  0  0  0  0  0  0  0  0  0  0  0
   -1.9460    0.8869   -0.0324 C   0  0  0  0  0  0  0  0  0  0  0  0
   -2.2737    2.0069    0.6063 C   0  0  0  0  0  0  0  0  0  0  0  0
   -3.6983    1.9499    0.6751 C   0  0  0  0  0  0  0  0  0  0  0  0
   -4.3880    0.8669    0.1282 C   0  0  0  0  0  0  0  0  0  0  0  0
   -4.3344   -1.0310   -0.9189 H   0  0  0  0  0  0  0  0  0  0  0  0
   -1.7668   -1.0308   -1.0991 H   0  0  0  0  0  0  0  0  0  0  0  0
   -1.6599    2.8083    1.0038 H   0  0  0  0  0  0  0  0  0  0  0  0
   -4.2286    2.7665    1.1613 H   0  0  0  0  0  0  0  0  0  0  0  0
   -5.8712    0.8548    0.2257 N   0  0  0  0  0  0  0  0  0  0  0  0
   -6.4348   -0.1122   -0.2663 O   0  0  0  0  0  0  0  0  0  0  0  0
   -6.3811    1.8130    0.7884 O   0  0  0  0  0  0  0  0  0  0  0  0
   12.7931    0.8331   -1.0928 N   0  0  0  0  0  0  0  0  0  0  0  0
   13.8960    0.8335   -1.1689 N   0  0  0  0  0  0  0  0  0  0  0  0
  1  6  1  0  0  0  0
  2  1  2  0  0  0  0
  2  3  1  0  0  0  0
  3  4  2  0  0  0  0
  4  5  1  0  0  0  0
  4  9  1  0  0  0  0
  5 10  1  0  0  0  0
  6 11  1  0  0  0  0
  6  5  2  0  0  0  0
  7  1  1  0  0  0  0
  8  2  1  0  0  0  0
 11 13  2  0  0  0  0
 12 11  2  0  0  0  0
 15 14  3  0  0  0  0
M  RAD  1   3   2
M  END
