Coordinates from ORCA-job 4-NO2-Ph-N2+-scan-d090-169-n800
 OpenBabel09191814013D

 15 14  0  0  0  0  0  0  0  0999 V2000
   -3.7609   -0.2053   -0.5053 C   0  0  0  0  0  0  0  0  0  0  0  0
   -2.3388   -0.2391   -0.6237 C   0  0  0  0  0  0  0  0  0  0  0  0
   -1.9489    0.8869   -0.0322 C   0  0  0  0  0  0  0  0  0  0  0  0
   -2.2763    2.0070    0.6066 C   0  0  0  0  0  0  0  0  0  0  0  0
   -3.7010    1.9500    0.6753 C   0  0  0  0  0  0  0  0  0  0  0  0
   -4.3906    0.8669    0.1284 C   0  0  0  0  0  0  0  0  0  0  0  0
   -4.3371   -1.0309   -0.9187 H   0  0  0  0  0  0  0  0  0  0  0  0
   -1.7693   -1.0307   -1.0989 H   0  0  0  0  0  0  0  0  0  0  0  0
   -1.6624    2.8083    1.0039 H   0  0  0  0  0  0  0  0  0  0  0  0
   -4.2314    2.7665    1.1614 H   0  0  0  0  0  0  0  0  0  0  0  0
   -5.8739    0.8548    0.2259 N   0  0  0  0  0  0  0  0  0  0  0  0
   -6.4373   -0.1123   -0.2661 O   0  0  0  0  0  0  0  0  0  0  0  0
   -6.3838    1.8129    0.7886 O   0  0  0  0  0  0  0  0  0  0  0  0
   12.8102    0.8330   -1.0940 N   0  0  0  0  0  0  0  0  0  0  0  0
   13.9131    0.8334   -1.1701 N   0  0  0  0  0  0  0  0  0  0  0  0
  1  6  1  0  0  0  0
  2  1  2  0  0  0  0
  2  3  1  0  0  0  0
  3  4  2  0  0  0  0
  4  5  1  0  0  0  0
  4  9  1  0  0  0  0
  5 10  1  0  0  0  0
  6 11  1  0  0  0  0
  6  5  2  0  0  0  0
  7  1  1  0  0  0  0
  8  2  1  0  0  0  0
 11 13  2  0  0  0  0
 12 11  2  0  0  0  0
 15 14  3  0  0  0  0
M  RAD  1   3   2
M  END
