Coordinates from ORCA-job 4-NO2-Ph-N2+-scan-d090-169-n800
 OpenBabel09191814003D

 15 15  0  0  0  0  0  0  0  0999 V2000
   -1.9944   -0.2128   -0.6329 C   0  0  0  0  0  0  0  0  0  0  0  0
   -0.6205   -0.2268   -0.7368 C   0  0  0  0  0  0  0  0  0  0  0  0
    0.1604    0.8666   -0.1904 C   0  0  0  0  0  0  0  0  0  0  0  0
   -0.5365    1.9602    0.4595 C   0  0  0  0  0  0  0  0  0  0  0  0
   -1.9115    1.9464    0.5482 C   0  0  0  0  0  0  0  0  0  0  0  0
   -2.6127    0.8668    0.0039 C   0  0  0  0  0  0  0  0  0  0  0  0
   -2.6007   -1.0183   -1.0332 H   0  0  0  0  0  0  0  0  0  0  0  0
   -0.0916   -1.0419   -1.2219 H   0  0  0  0  0  0  0  0  0  0  0  0
    0.0550    2.7753    0.8661 H   0  0  0  0  0  0  0  0  0  0  0  0
   -2.4559    2.7520    1.0292 H   0  0  0  0  0  0  0  0  0  0  0  0
   -4.1043    0.8670    0.1084 N   0  0  0  0  0  0  0  0  0  0  0  0
   -4.6787   -0.0952   -0.3804 O   0  0  0  0  0  0  0  0  0  0  0  0
   -4.6048    1.8292    0.6725 O   0  0  0  0  0  0  0  0  0  0  0  0
    1.2380    0.8666   -0.2659 N   0  0  0  0  0  0  0  0  0  0  0  0
    2.3699    0.8665   -0.3453 N   0  0  0  0  0  0  0  0  0  0  0  0
  1  6  1  0  0  0  0
  2  1  2  0  0  0  0
  2  3  1  0  0  0  0
  3  4  2  0  0  0  0
  4  5  1  0  0  0  0
  4  9  1  0  0  0  0
  5 10  1  0  0  0  0
  6 11  1  0  0  0  0
  6  5  2  0  0  0  0
  7  1  1  0  0  0  0
  8  2  1  0  0  0  0
 11 13  2  0  0  0  0
 12 11  2  0  0  0  0
 14  3  1  0  0  0  0
 15 14  1  0  0  0  0
M  RAD  2  14   2  15   3
M  END
