Coordinates from ORCA-job 4-NO2-Ph-N2+-scan-d090-169-n800
 OpenBabel09191814003D

 15 14  0  0  0  0  0  0  0  0999 V2000
   -2.2760   -0.2110   -0.6122 C   0  0  0  0  0  0  0  0  0  0  0  0
   -0.8554   -0.2559   -0.7364 C   0  0  0  0  0  0  0  0  0  0  0  0
   -0.4509    0.8668   -0.1476 C   0  0  0  0  0  0  0  0  0  0  0  0
   -0.7692    1.9895    0.4919 C   0  0  0  0  0  0  0  0  0  0  0  0
   -2.1933    1.9447    0.5670 C   0  0  0  0  0  0  0  0  0  0  0  0
   -2.8939    0.8669    0.0236 C   0  0  0  0  0  0  0  0  0  0  0  0
   -2.8618   -1.0313   -1.0221 H   0  0  0  0  0  0  0  0  0  0  0  0
   -0.2923   -1.0510   -1.2129 H   0  0  0  0  0  0  0  0  0  0  0  0
   -0.1450    2.7845    0.8851 H   0  0  0  0  0  0  0  0  0  0  0  0
   -2.7161    2.7651    1.0546 H   0  0  0  0  0  0  0  0  0  0  0  0
   -4.3767    0.8669    0.1275 N   0  0  0  0  0  0  0  0  0  0  0  0
   -4.9508   -0.0955   -0.3614 O   0  0  0  0  0  0  0  0  0  0  0  0
   -4.8769    1.8295    0.6917 O   0  0  0  0  0  0  0  0  0  0  0  0
    3.0837    0.8663   -0.3952 N   0  0  0  0  0  0  0  0  0  0  0  0
    4.1862    0.8662   -0.4724 N   0  0  0  0  0  0  0  0  0  0  0  0
  1  6  1  0  0  0  0
  2  1  2  0  0  0  0
  2  3  1  0  0  0  0
  3  4  2  0  0  0  0
  4  5  1  0  0  0  0
  4  9  1  0  0  0  0
  5 10  1  0  0  0  0
  6 11  1  0  0  0  0
  6  5  2  0  0  0  0
  7  1  1  0  0  0  0
  8  2  1  0  0  0  0
 11 13  2  0  0  0  0
 12 11  2  0  0  0  0
 15 14  3  0  0  0  0
M  RAD  1   3   2
M  END
