Coordinates from ORCA-job 4-NO2-Ph-N2+-scan-d090-169-n800
 OpenBabel09191814003D

 15 14  0  0  0  0  0  0  0  0999 V2000
   -2.3875   -0.2108   -0.6043 C   0  0  0  0  0  0  0  0  0  0  0  0
   -0.9663   -0.2560   -0.7288 C   0  0  0  0  0  0  0  0  0  0  0  0
   -0.5645    0.8671   -0.1396 C   0  0  0  0  0  0  0  0  0  0  0  0
   -0.8804    1.9902    0.4999 C   0  0  0  0  0  0  0  0  0  0  0  0
   -2.3050    1.9448    0.5748 C   0  0  0  0  0  0  0  0  0  0  0  0
   -3.0056    0.8669    0.0314 C   0  0  0  0  0  0  0  0  0  0  0  0
   -2.9725   -1.0317   -1.0146 H   0  0  0  0  0  0  0  0  0  0  0  0
   -0.4039   -1.0517   -1.2056 H   0  0  0  0  0  0  0  0  0  0  0  0
   -0.2572    2.7859    0.8937 H   0  0  0  0  0  0  0  0  0  0  0  0
   -2.8273    2.7655    1.0626 H   0  0  0  0  0  0  0  0  0  0  0  0
   -4.4884    0.8668    0.1353 N   0  0  0  0  0  0  0  0  0  0  0  0
   -5.0621   -0.0958   -0.3537 O   0  0  0  0  0  0  0  0  0  0  0  0
   -4.9885    1.8293    0.6995 O   0  0  0  0  0  0  0  0  0  0  0  0
    3.8091    0.8657   -0.4463 N   0  0  0  0  0  0  0  0  0  0  0  0
    4.9117    0.8654   -0.5235 N   0  0  0  0  0  0  0  0  0  0  0  0
  1  6  1  0  0  0  0
  2  1  2  0  0  0  0
  2  3  1  0  0  0  0
  3  4  2  0  0  0  0
  4  5  1  0  0  0  0
  4  9  1  0  0  0  0
  5 10  1  0  0  0  0
  6 11  1  0  0  0  0
  6  5  2  0  0  0  0
  7  1  1  0  0  0  0
  8  2  1  0  0  0  0
 11 13  2  0  0  0  0
 12 11  2  0  0  0  0
 15 14  3  0  0  0  0
M  RAD  1   3   2
M  END
