Coordinates from ORCA-job 4-NO2-Ph-N2+-scan-d090-169-n800
 OpenBabel09191814013D

 15 14  0  0  0  0  0  0  0  0999 V2000
   -3.1366   -0.2084   -0.5506 C   0  0  0  0  0  0  0  0  0  0  0  0
   -1.7150   -0.2490   -0.6728 C   0  0  0  0  0  0  0  0  0  0  0  0
   -1.3179    0.8753   -0.0827 C   0  0  0  0  0  0  0  0  0  0  0  0
   -1.6384    1.9972    0.5566 C   0  0  0  0  0  0  0  0  0  0  0  0
   -3.0631    1.9470    0.6291 C   0  0  0  0  0  0  0  0  0  0  0  0
   -3.7594    0.8671    0.0843 C   0  0  0  0  0  0  0  0  0  0  0  0
   -3.7179   -1.0313   -0.9622 H   0  0  0  0  0  0  0  0  0  0  0  0
   -1.1506   -1.0436   -1.1493 H   0  0  0  0  0  0  0  0  0  0  0  0
   -1.0197    2.7957    0.9520 H   0  0  0  0  0  0  0  0  0  0  0  0
   -3.5884    2.7662    1.1163 H   0  0  0  0  0  0  0  0  0  0  0  0
   -5.2424    0.8622    0.1858 N   0  0  0  0  0  0  0  0  0  0  0  0
   -5.8119   -0.1023   -0.3044 O   0  0  0  0  0  0  0  0  0  0  0  0
   -5.7462    1.8230    0.7494 O   0  0  0  0  0  0  0  0  0  0  0  0
    8.7081    0.8522   -0.7964 N   0  0  0  0  0  0  0  0  0  0  0  0
    9.8108    0.8503   -0.8740 N   0  0  0  0  0  0  0  0  0  0  0  0
  1  6  1  0  0  0  0
  2  1  2  0  0  0  0
  2  3  1  0  0  0  0
  3  4  2  0  0  0  0
  4  5  1  0  0  0  0
  4  9  1  0  0  0  0
  5 10  1  0  0  0  0
  6 11  1  0  0  0  0
  6  5  2  0  0  0  0
  7  1  1  0  0  0  0
  8  2  1  0  0  0  0
 11 13  2  0  0  0  0
 12 11  2  0  0  0  0
 15 14  3  0  0  0  0
M  RAD  1   3   2
M  END
