Coordinates from ORCA-job 4-NO2-Ph-N2+-scan-d090-169-n800
 OpenBabel09191814003D

 15 14  0  0  0  0  0  0  0  0999 V2000
   -2.2154   -0.2110   -0.6165 C   0  0  0  0  0  0  0  0  0  0  0  0
   -0.7958   -0.2552   -0.7402 C   0  0  0  0  0  0  0  0  0  0  0  0
   -0.3842    0.8667   -0.1523 C   0  0  0  0  0  0  0  0  0  0  0  0
   -0.7097    1.9887    0.4873 C   0  0  0  0  0  0  0  0  0  0  0  0
   -2.1326    1.9447    0.5628 C   0  0  0  0  0  0  0  0  0  0  0  0
   -2.8332    0.8669    0.0193 C   0  0  0  0  0  0  0  0  0  0  0  0
   -2.8021   -1.0306   -1.0259 H   0  0  0  0  0  0  0  0  0  0  0  0
   -0.2337   -1.0504   -1.2167 H   0  0  0  0  0  0  0  0  0  0  0  0
   -0.0864    2.7838    0.8807 H   0  0  0  0  0  0  0  0  0  0  0  0
   -2.6563    2.7644    1.0500 H   0  0  0  0  0  0  0  0  0  0  0  0
   -4.3160    0.8670    0.1232 N   0  0  0  0  0  0  0  0  0  0  0  0
   -4.8906   -0.0954   -0.3655 O   0  0  0  0  0  0  0  0  0  0  0  0
   -4.8167    1.8293    0.6874 O   0  0  0  0  0  0  0  0  0  0  0  0
    2.6910    0.8664   -0.3677 N   0  0  0  0  0  0  0  0  0  0  0  0
    3.7932    0.8663   -0.4449 N   0  0  0  0  0  0  0  0  0  0  0  0
  1  6  1  0  0  0  0
  2  1  2  0  0  0  0
  2  3  1  0  0  0  0
  3  4  2  0  0  0  0
  4  5  1  0  0  0  0
  4  9  1  0  0  0  0
  5 10  1  0  0  0  0
  6 11  1  0  0  0  0
  6  5  2  0  0  0  0
  7  1  1  0  0  0  0
  8  2  1  0  0  0  0
 11 13  2  0  0  0  0
 12 11  2  0  0  0  0
 15 14  3  0  0  0  0
M  RAD  1   3   2
M  END
