Coordinates from ORCA-job 4-NO2-Ph-N2+-scan-d090-169-n800
 OpenBabel09191814013D

 15 14  0  0  0  0  0  0  0  0999 V2000
   -2.9966   -0.2089   -0.5608 C   0  0  0  0  0  0  0  0  0  0  0  0
   -1.5751   -0.2507   -0.6835 C   0  0  0  0  0  0  0  0  0  0  0  0
   -1.1768    0.8732   -0.0937 C   0  0  0  0  0  0  0  0  0  0  0  0
   -1.4961    1.9954    0.5456 C   0  0  0  0  0  0  0  0  0  0  0  0
   -2.9208    1.9465    0.6188 C   0  0  0  0  0  0  0  0  0  0  0  0
   -3.6183    0.8671    0.0744 C   0  0  0  0  0  0  0  0  0  0  0  0
   -3.5787   -1.0314   -0.9720 H   0  0  0  0  0  0  0  0  0  0  0  0
   -1.0116   -1.0458   -1.1602 H   0  0  0  0  0  0  0  0  0  0  0  0
   -0.8765    2.7934    0.9408 H   0  0  0  0  0  0  0  0  0  0  0  0
   -3.4451    2.7662    1.1062 H   0  0  0  0  0  0  0  0  0  0  0  0
   -5.1013    0.8634    0.1766 N   0  0  0  0  0  0  0  0  0  0  0  0
   -5.6717   -0.1007   -0.3132 O   0  0  0  0  0  0  0  0  0  0  0  0
   -5.6040    1.8246    0.7405 O   0  0  0  0  0  0  0  0  0  0  0  0
    7.7907    0.8555   -0.7304 N   0  0  0  0  0  0  0  0  0  0  0  0
    8.8934    0.8539   -0.8079 N   0  0  0  0  0  0  0  0  0  0  0  0
  1  6  1  0  0  0  0
  2  1  2  0  0  0  0
  2  3  1  0  0  0  0
  3  4  2  0  0  0  0
  4  5  1  0  0  0  0
  4  9  1  0  0  0  0
  5 10  1  0  0  0  0
  6 11  1  0  0  0  0
  6  5  2  0  0  0  0
  7  1  1  0  0  0  0
  8  2  1  0  0  0  0
 11 13  2  0  0  0  0
 12 11  2  0  0  0  0
 15 14  3  0  0  0  0
M  RAD  1   3   2
M  END
