Coordinates from ORCA-job 4-NO2-Ph-N2+-scan-d090-169-n800
 OpenBabel09191814013D

 15 14  0  0  0  0  0  0  0  0999 V2000
   -3.6583   -0.2058   -0.5127 C   0  0  0  0  0  0  0  0  0  0  0  0
   -2.2362   -0.2409   -0.6319 C   0  0  0  0  0  0  0  0  0  0  0  0
   -1.8450    0.8849   -0.0406 C   0  0  0  0  0  0  0  0  0  0  0  0
   -2.1712    2.0054    0.5983 C   0  0  0  0  0  0  0  0  0  0  0  0
   -3.5959    1.9494    0.6677 C   0  0  0  0  0  0  0  0  0  0  0  0
   -4.2867    0.8670    0.1211 C   0  0  0  0  0  0  0  0  0  0  0  0
   -4.2355   -1.0309   -0.9258 H   0  0  0  0  0  0  0  0  0  0  0  0
   -1.6676   -1.0331   -1.1073 H   0  0  0  0  0  0  0  0  0  0  0  0
   -1.5565    2.8062    0.9954 H   0  0  0  0  0  0  0  0  0  0  0  0
   -4.1256    2.7664    1.1540 H   0  0  0  0  0  0  0  0  0  0  0  0
   -5.7699    0.8561    0.2194 N   0  0  0  0  0  0  0  0  0  0  0  0
   -6.3345   -0.1105   -0.2723 O   0  0  0  0  0  0  0  0  0  0  0  0
   -6.2788    1.8148    0.7822 O   0  0  0  0  0  0  0  0  0  0  0  0
   12.1353    0.8377   -1.0442 N   0  0  0  0  0  0  0  0  0  0  0  0
   13.2380    0.8350   -1.1221 N   0  0  0  0  0  0  0  0  0  0  0  0
  1  6  1  0  0  0  0
  2  1  2  0  0  0  0
  2  3  1  0  0  0  0
  3  4  2  0  0  0  0
  4  5  1  0  0  0  0
  4  9  1  0  0  0  0
  5 10  1  0  0  0  0
  6 11  1  0  0  0  0
  6  5  2  0  0  0  0
  7  1  1  0  0  0  0
  8  2  1  0  0  0  0
 11 13  2  0  0  0  0
 12 11  2  0  0  0  0
 15 14  3  0  0  0  0
M  RAD  1   3   2
M  END
