Coordinates from ORCA-job 4-NO2-Ph-N2+-scan-d090-169-n800
 OpenBabel09191814013D

 15 14  0  0  0  0  0  0  0  0999 V2000
   -3.3634   -0.2073   -0.5342 C   0  0  0  0  0  0  0  0  0  0  0  0
   -1.9416   -0.2459   -0.6553 C   0  0  0  0  0  0  0  0  0  0  0  0
   -1.5470    0.8791   -0.0646 C   0  0  0  0  0  0  0  0  0  0  0  0
   -1.8695    2.0005    0.5745 C   0  0  0  0  0  0  0  0  0  0  0  0
   -3.2943    1.9480    0.6458 C   0  0  0  0  0  0  0  0  0  0  0  0
   -3.9884    0.8671    0.1003 C   0  0  0  0  0  0  0  0  0  0  0  0
   -3.9432   -1.0311   -0.9463 H   0  0  0  0  0  0  0  0  0  0  0  0
   -1.3755   -1.0394   -1.1313 H   0  0  0  0  0  0  0  0  0  0  0  0
   -1.2524    2.7999    0.9706 H   0  0  0  0  0  0  0  0  0  0  0  0
   -3.8214    2.7663    1.1326 H   0  0  0  0  0  0  0  0  0  0  0  0
   -5.4715    0.8598    0.2005 N   0  0  0  0  0  0  0  0  0  0  0  0
   -6.0391   -0.1055   -0.2903 O   0  0  0  0  0  0  0  0  0  0  0  0
   -5.9773    1.8198    0.7639 O   0  0  0  0  0  0  0  0  0  0  0  0
   10.1966    0.8462   -0.9038 N   0  0  0  0  0  0  0  0  0  0  0  0
   11.2994    0.8440   -0.9816 N   0  0  0  0  0  0  0  0  0  0  0  0
  1  6  1  0  0  0  0
  2  1  2  0  0  0  0
  2  3  1  0  0  0  0
  3  4  2  0  0  0  0
  4  5  1  0  0  0  0
  4  9  1  0  0  0  0
  5 10  1  0  0  0  0
  6 11  1  0  0  0  0
  6  5  2  0  0  0  0
  7  1  1  0  0  0  0
  8  2  1  0  0  0  0
 11 13  2  0  0  0  0
 12 11  2  0  0  0  0
 15 14  3  0  0  0  0
M  RAD  1   3   2
M  END
