Coordinates from ORCA-job 4-NO2-Ph-N2+-scan-d090-169-n800
 OpenBabel09191814013D

 15 14  0  0  0  0  0  0  0  0999 V2000
   -3.4135   -0.2070   -0.5307 C   0  0  0  0  0  0  0  0  0  0  0  0
   -1.9917   -0.2449   -0.6513 C   0  0  0  0  0  0  0  0  0  0  0  0
   -1.5975    0.8800   -0.0606 C   0  0  0  0  0  0  0  0  0  0  0  0
   -1.9207    2.0012    0.5784 C   0  0  0  0  0  0  0  0  0  0  0  0
   -3.3454    1.9483    0.6494 C   0  0  0  0  0  0  0  0  0  0  0  0
   -4.0390    0.8671    0.1038 C   0  0  0  0  0  0  0  0  0  0  0  0
   -3.9927   -1.0311   -0.9429 H   0  0  0  0  0  0  0  0  0  0  0  0
   -1.4252   -1.0383   -1.1273 H   0  0  0  0  0  0  0  0  0  0  0  0
   -1.3040    2.8009    0.9747 H   0  0  0  0  0  0  0  0  0  0  0  0
   -3.8728    2.7664    1.1362 H   0  0  0  0  0  0  0  0  0  0  0  0
   -5.5222    0.8591    0.2039 N   0  0  0  0  0  0  0  0  0  0  0  0
   -6.0892   -0.1064   -0.2869 O   0  0  0  0  0  0  0  0  0  0  0  0
   -6.0284    1.8189    0.7672 O   0  0  0  0  0  0  0  0  0  0  0  0
   10.5256    0.8448   -0.9275 N   0  0  0  0  0  0  0  0  0  0  0  0
   11.6283    0.8425   -1.0053 N   0  0  0  0  0  0  0  0  0  0  0  0
  1  6  1  0  0  0  0
  2  1  2  0  0  0  0
  2  3  1  0  0  0  0
  3  4  2  0  0  0  0
  4  5  1  0  0  0  0
  4  9  1  0  0  0  0
  5 10  1  0  0  0  0
  6 11  1  0  0  0  0
  6  5  2  0  0  0  0
  7  1  1  0  0  0  0
  8  2  1  0  0  0  0
 11 13  2  0  0  0  0
 12 11  2  0  0  0  0
 15 14  3  0  0  0  0
M  RAD  1   3   2
M  END
