Coordinates from ORCA-job 4-NO2-Ph-N2+-scan-d090-169-n800
 OpenBabel09191814013D

 15 14  0  0  0  0  0  0  0  0999 V2000
   -3.3001   -0.2076   -0.5388 C   0  0  0  0  0  0  0  0  0  0  0  0
   -1.8783   -0.2468   -0.6602 C   0  0  0  0  0  0  0  0  0  0  0  0
   -1.4831    0.8780   -0.0697 C   0  0  0  0  0  0  0  0  0  0  0  0
   -1.8050    1.9996    0.5695 C   0  0  0  0  0  0  0  0  0  0  0  0
   -3.2297    1.9477    0.6411 C   0  0  0  0  0  0  0  0  0  0  0  0
   -3.9245    0.8671    0.0959 C   0  0  0  0  0  0  0  0  0  0  0  0
   -3.8804   -1.0311   -0.9507 H   0  0  0  0  0  0  0  0  0  0  0  0
   -1.3127   -1.0407   -1.1363 H   0  0  0  0  0  0  0  0  0  0  0  0
   -1.1873    2.7987    0.9654 H   0  0  0  0  0  0  0  0  0  0  0  0
   -3.7563    2.7663    1.1281 H   0  0  0  0  0  0  0  0  0  0  0  0
   -5.4076    0.8605    0.1964 N   0  0  0  0  0  0  0  0  0  0  0  0
   -5.9757   -0.1045   -0.2942 O   0  0  0  0  0  0  0  0  0  0  0  0
   -5.9128    1.8207    0.7598 O   0  0  0  0  0  0  0  0  0  0  0  0
    9.7812    0.8480   -0.8738 N   0  0  0  0  0  0  0  0  0  0  0  0
   10.8839    0.8458   -0.9515 N   0  0  0  0  0  0  0  0  0  0  0  0
  1  6  1  0  0  0  0
  2  1  2  0  0  0  0
  2  3  1  0  0  0  0
  3  4  2  0  0  0  0
  4  5  1  0  0  0  0
  4  9  1  0  0  0  0
  5 10  1  0  0  0  0
  6 11  1  0  0  0  0
  6  5  2  0  0  0  0
  7  1  1  0  0  0  0
  8  2  1  0  0  0  0
 11 13  2  0  0  0  0
 12 11  2  0  0  0  0
 15 14  3  0  0  0  0
M  RAD  1   3   2
M  END
