Coordinates from ORCA-job 4-NO2-Ph-N2+-scan-d090-169-n800
 OpenBabel09191814013D

 15 14  0  0  0  0  0  0  0  0999 V2000
   -2.9015   -0.2093   -0.5676 C   0  0  0  0  0  0  0  0  0  0  0  0
   -1.4801   -0.2518   -0.6908 C   0  0  0  0  0  0  0  0  0  0  0  0
   -1.0810    0.8719   -0.1010 C   0  0  0  0  0  0  0  0  0  0  0  0
   -1.3995    1.9942    0.5383 C   0  0  0  0  0  0  0  0  0  0  0  0
   -2.8242    1.9461    0.6119 C   0  0  0  0  0  0  0  0  0  0  0  0
   -3.5224    0.8671    0.0677 C   0  0  0  0  0  0  0  0  0  0  0  0
   -3.4841   -1.0315   -0.9787 H   0  0  0  0  0  0  0  0  0  0  0  0
   -0.9170   -1.0472   -1.1675 H   0  0  0  0  0  0  0  0  0  0  0  0
   -0.7794    2.7919    0.9332 H   0  0  0  0  0  0  0  0  0  0  0  0
   -3.3479    2.7661    1.0994 H   0  0  0  0  0  0  0  0  0  0  0  0
   -5.0053    0.8641    0.1703 N   0  0  0  0  0  0  0  0  0  0  0  0
   -5.5765   -0.0995   -0.3195 O   0  0  0  0  0  0  0  0  0  0  0  0
   -5.5075    1.8257    0.7341 O   0  0  0  0  0  0  0  0  0  0  0  0
    7.1675    0.8576   -0.6857 N   0  0  0  0  0  0  0  0  0  0  0  0
    8.2703    0.8562   -0.7632 N   0  0  0  0  0  0  0  0  0  0  0  0
  1  6  1  0  0  0  0
  2  1  2  0  0  0  0
  2  3  1  0  0  0  0
  3  4  2  0  0  0  0
  4  5  1  0  0  0  0
  4  9  1  0  0  0  0
  5 10  1  0  0  0  0
  6 11  1  0  0  0  0
  6  5  2  0  0  0  0
  7  1  1  0  0  0  0
  8  2  1  0  0  0  0
 11 13  2  0  0  0  0
 12 11  2  0  0  0  0
 15 14  3  0  0  0  0
M  RAD  1   3   2
M  END
