Coordinates from ORCA-job 4-NO2-Ph-N2+-scan-d090-169-n800
 OpenBabel09191814003D

 15 14  0  0  0  0  0  0  0  0999 V2000
   -2.1537   -0.2109   -0.6207 C   0  0  0  0  0  0  0  0  0  0  0  0
   -0.7373   -0.2530   -0.7430 C   0  0  0  0  0  0  0  0  0  0  0  0
   -0.3018    0.8667   -0.1581 C   0  0  0  0  0  0  0  0  0  0  0  0
   -0.6513    1.9864    0.4819 C   0  0  0  0  0  0  0  0  0  0  0  0
   -2.0709    1.9446    0.5584 C   0  0  0  0  0  0  0  0  0  0  0  0
   -2.7710    0.8669    0.0150 C   0  0  0  0  0  0  0  0  0  0  0  0
   -2.7427   -1.0287   -1.0290 H   0  0  0  0  0  0  0  0  0  0  0  0
   -0.1798   -1.0501   -1.2203 H   0  0  0  0  0  0  0  0  0  0  0  0
   -0.0326    2.7834    0.8767 H   0  0  0  0  0  0  0  0  0  0  0  0
   -2.5971    2.7624    1.0448 H   0  0  0  0  0  0  0  0  0  0  0  0
   -4.2543    0.8670    0.1189 N   0  0  0  0  0  0  0  0  0  0  0  0
   -4.8299   -0.0950   -0.3696 O   0  0  0  0  0  0  0  0  0  0  0  0
   -4.7560    1.8290    0.6830 O   0  0  0  0  0  0  0  0  0  0  0  0
    2.2940    0.8665   -0.3399 N   0  0  0  0  0  0  0  0  0  0  0  0
    3.3959    0.8664   -0.4170 N   0  0  0  0  0  0  0  0  0  0  0  0
  1  6  1  0  0  0  0
  2  1  2  0  0  0  0
  2  3  1  0  0  0  0
  3  4  2  0  0  0  0
  4  5  1  0  0  0  0
  4  9  1  0  0  0  0
  5 10  1  0  0  0  0
  6 11  1  0  0  0  0
  6  5  2  0  0  0  0
  7  1  1  0  0  0  0
  8  2  1  0  0  0  0
 11 13  2  0  0  0  0
 12 11  2  0  0  0  0
 15 14  3  0  0  0  0
M  RAD  1   3   2
M  END
