Coordinates from ORCA-job 4-NO2-Ph-N2+-scan-d090-169-n800
 OpenBabel09191814013D

 15 14  0  0  0  0  0  0  0  0999 V2000
   -3.8004   -0.2051   -0.5024 C   0  0  0  0  0  0  0  0  0  0  0  0
   -2.3783   -0.2384   -0.6206 C   0  0  0  0  0  0  0  0  0  0  0  0
   -1.9887    0.8877   -0.0289 C   0  0  0  0  0  0  0  0  0  0  0  0
   -2.3168    2.0077    0.6098 C   0  0  0  0  0  0  0  0  0  0  0  0
   -3.7414    1.9502    0.6782 C   0  0  0  0  0  0  0  0  0  0  0  0
   -4.4306    0.8669    0.1312 C   0  0  0  0  0  0  0  0  0  0  0  0
   -4.3762   -1.0309   -0.9159 H   0  0  0  0  0  0  0  0  0  0  0  0
   -1.8084   -1.0298   -1.0957 H   0  0  0  0  0  0  0  0  0  0  0  0
   -1.7034    2.8093    1.0074 H   0  0  0  0  0  0  0  0  0  0  0  0
   -4.2723    2.7665    1.1643 H   0  0  0  0  0  0  0  0  0  0  0  0
   -5.9138    0.8542    0.2284 N   0  0  0  0  0  0  0  0  0  0  0  0
   -6.4769   -0.1130   -0.2638 O   0  0  0  0  0  0  0  0  0  0  0  0
   -6.4242    1.8122    0.7909 O   0  0  0  0  0  0  0  0  0  0  0  0
   13.0700    0.8312   -1.1132 N   0  0  0  0  0  0  0  0  0  0  0  0
   14.1729    0.8327   -1.1887 N   0  0  0  0  0  0  0  0  0  0  0  0
  1  6  1  0  0  0  0
  2  1  2  0  0  0  0
  2  3  1  0  0  0  0
  3  4  2  0  0  0  0
  4  5  1  0  0  0  0
  4  9  1  0  0  0  0
  5 10  1  0  0  0  0
  6 11  1  0  0  0  0
  6  5  2  0  0  0  0
  7  1  1  0  0  0  0
  8  2  1  0  0  0  0
 11 13  2  0  0  0  0
 12 11  2  0  0  0  0
 15 14  3  0  0  0  0
M  RAD  1   3   2
M  END
