Coordinates from ORCA-job 4-NO2-Ph-N2+-scan-d090-169-n800
 OpenBabel09191814013D

 15 14  0  0  0  0  0  0  0  0999 V2000
   -3.3687   -0.2073   -0.5338 C   0  0  0  0  0  0  0  0  0  0  0  0
   -1.9468   -0.2458   -0.6548 C   0  0  0  0  0  0  0  0  0  0  0  0
   -1.5523    0.8792   -0.0642 C   0  0  0  0  0  0  0  0  0  0  0  0
   -1.8749    2.0006    0.5750 C   0  0  0  0  0  0  0  0  0  0  0  0
   -3.2997    1.9480    0.6462 C   0  0  0  0  0  0  0  0  0  0  0  0
   -3.9937    0.8671    0.1007 C   0  0  0  0  0  0  0  0  0  0  0  0
   -3.9484   -1.0311   -0.9459 H   0  0  0  0  0  0  0  0  0  0  0  0
   -1.3807   -1.0393   -1.1308 H   0  0  0  0  0  0  0  0  0  0  0  0
   -1.2578    2.8000    0.9711 H   0  0  0  0  0  0  0  0  0  0  0  0
   -3.8268    2.7663    1.1330 H   0  0  0  0  0  0  0  0  0  0  0  0
   -5.4769    0.8597    0.2009 N   0  0  0  0  0  0  0  0  0  0  0  0
   -6.0443   -0.1056   -0.2899 O   0  0  0  0  0  0  0  0  0  0  0  0
   -5.9827    1.8197    0.7642 O   0  0  0  0  0  0  0  0  0  0  0  0
   10.2313    0.8461   -0.9063 N   0  0  0  0  0  0  0  0  0  0  0  0
   11.3340    0.8438   -0.9841 N   0  0  0  0  0  0  0  0  0  0  0  0
  1  6  1  0  0  0  0
  2  1  2  0  0  0  0
  2  3  1  0  0  0  0
  3  4  2  0  0  0  0
  4  5  1  0  0  0  0
  4  9  1  0  0  0  0
  5 10  1  0  0  0  0
  6 11  1  0  0  0  0
  6  5  2  0  0  0  0
  7  1  1  0  0  0  0
  8  2  1  0  0  0  0
 11 13  2  0  0  0  0
 12 11  2  0  0  0  0
 15 14  3  0  0  0  0
M  RAD  1   3   2
M  END
