Coordinates from ORCA-job 4-NO2-Ph-N2+-scan-d090-169-n800
 OpenBabel09191814013D

 15 14  0  0  0  0  0  0  0  0999 V2000
   -3.5557   -0.2064   -0.5202 C   0  0  0  0  0  0  0  0  0  0  0  0
   -2.1337   -0.2427   -0.6401 C   0  0  0  0  0  0  0  0  0  0  0  0
   -1.7412    0.8827   -0.0490 C   0  0  0  0  0  0  0  0  0  0  0  0
   -2.0661    2.0036    0.5900 C   0  0  0  0  0  0  0  0  0  0  0  0
   -3.4908    1.9489    0.6600 C   0  0  0  0  0  0  0  0  0  0  0  0
   -4.1828    0.8670    0.1139 C   0  0  0  0  0  0  0  0  0  0  0  0
   -4.1338   -1.0310   -0.9329 H   0  0  0  0  0  0  0  0  0  0  0  0
   -1.5660   -1.0354   -1.1157 H   0  0  0  0  0  0  0  0  0  0  0  0
   -1.4505    2.8039    0.9867 H   0  0  0  0  0  0  0  0  0  0  0  0
   -4.0196    2.7664    1.1465 H   0  0  0  0  0  0  0  0  0  0  0  0
   -5.6660    0.8575    0.2129 N   0  0  0  0  0  0  0  0  0  0  0  0
   -6.2317   -0.1086   -0.2785 O   0  0  0  0  0  0  0  0  0  0  0  0
   -6.1737    1.8166    0.7759 O   0  0  0  0  0  0  0  0  0  0  0  0
   11.4602    0.8408   -0.9952 N   0  0  0  0  0  0  0  0  0  0  0  0
   12.5630    0.8382   -1.0731 N   0  0  0  0  0  0  0  0  0  0  0  0
  1  6  1  0  0  0  0
  2  1  2  0  0  0  0
  2  3  1  0  0  0  0
  3  4  2  0  0  0  0
  4  5  1  0  0  0  0
  4  9  1  0  0  0  0
  5 10  1  0  0  0  0
  6 11  1  0  0  0  0
  6  5  2  0  0  0  0
  7  1  1  0  0  0  0
  8  2  1  0  0  0  0
 11 13  2  0  0  0  0
 12 11  2  0  0  0  0
 15 14  3  0  0  0  0
M  RAD  1   3   2
M  END
