Coordinates from ORCA-job 4-NO2-Ph-N2+-scan-d090-169-n800
 OpenBabel09191814003D

 15 14  0  0  0  0  0  0  0  0999 V2000
   -2.3795   -0.2108   -0.6049 C   0  0  0  0  0  0  0  0  0  0  0  0
   -0.9585   -0.2559   -0.7293 C   0  0  0  0  0  0  0  0  0  0  0  0
   -0.5563    0.8671   -0.1402 C   0  0  0  0  0  0  0  0  0  0  0  0
   -0.8725    1.9900    0.4993 C   0  0  0  0  0  0  0  0  0  0  0  0
   -2.2971    1.9447    0.5743 C   0  0  0  0  0  0  0  0  0  0  0  0
   -2.9977    0.8669    0.0309 C   0  0  0  0  0  0  0  0  0  0  0  0
   -2.9645   -1.0317   -1.0151 H   0  0  0  0  0  0  0  0  0  0  0  0
   -0.3961   -1.0516   -1.2061 H   0  0  0  0  0  0  0  0  0  0  0  0
   -0.2493    2.7858    0.8931 H   0  0  0  0  0  0  0  0  0  0  0  0
   -2.8192    2.7655    1.0621 H   0  0  0  0  0  0  0  0  0  0  0  0
   -4.4805    0.8668    0.1348 N   0  0  0  0  0  0  0  0  0  0  0  0
   -5.0542   -0.0958   -0.3543 O   0  0  0  0  0  0  0  0  0  0  0  0
   -4.9805    1.8293    0.6990 O   0  0  0  0  0  0  0  0  0  0  0  0
    3.7574    0.8658   -0.4427 N   0  0  0  0  0  0  0  0  0  0  0  0
    4.8599    0.8655   -0.5198 N   0  0  0  0  0  0  0  0  0  0  0  0
  1  6  1  0  0  0  0
  2  1  2  0  0  0  0
  2  3  1  0  0  0  0
  3  4  2  0  0  0  0
  4  5  1  0  0  0  0
  4  9  1  0  0  0  0
  5 10  1  0  0  0  0
  6 11  1  0  0  0  0
  6  5  2  0  0  0  0
  7  1  1  0  0  0  0
  8  2  1  0  0  0  0
 11 13  2  0  0  0  0
 12 11  2  0  0  0  0
 15 14  3  0  0  0  0
M  RAD  1   3   2
M  END
