Coordinates from ORCA-job 4-NO2-Ph-N2+-scan-d090-169-n800
 OpenBabel09191814013D

 15 14  0  0  0  0  0  0  0  0999 V2000
   -2.9702   -0.2091   -0.5626 C   0  0  0  0  0  0  0  0  0  0  0  0
   -1.5487   -0.2510   -0.6855 C   0  0  0  0  0  0  0  0  0  0  0  0
   -1.1502    0.8728   -0.0957 C   0  0  0  0  0  0  0  0  0  0  0  0
   -1.4693    1.9950    0.5436 C   0  0  0  0  0  0  0  0  0  0  0  0
   -2.8940    1.9463    0.6169 C   0  0  0  0  0  0  0  0  0  0  0  0
   -3.5916    0.8671    0.0726 C   0  0  0  0  0  0  0  0  0  0  0  0
   -3.5524   -1.0315   -0.9739 H   0  0  0  0  0  0  0  0  0  0  0  0
   -0.9853   -1.0462   -1.1622 H   0  0  0  0  0  0  0  0  0  0  0  0
   -0.8495    2.7929    0.9387 H   0  0  0  0  0  0  0  0  0  0  0  0
   -3.4181    2.7662    1.1044 H   0  0  0  0  0  0  0  0  0  0  0  0
   -5.0746    0.8636    0.1748 N   0  0  0  0  0  0  0  0  0  0  0  0
   -5.6453   -0.1003   -0.3150 O   0  0  0  0  0  0  0  0  0  0  0  0
   -5.5772    1.8250    0.7387 O   0  0  0  0  0  0  0  0  0  0  0  0
    7.6176    0.8561   -0.7180 N   0  0  0  0  0  0  0  0  0  0  0  0
    8.7203    0.8545   -0.7955 N   0  0  0  0  0  0  0  0  0  0  0  0
  1  6  1  0  0  0  0
  2  1  2  0  0  0  0
  2  3  1  0  0  0  0
  3  4  2  0  0  0  0
  4  5  1  0  0  0  0
  4  9  1  0  0  0  0
  5 10  1  0  0  0  0
  6 11  1  0  0  0  0
  6  5  2  0  0  0  0
  7  1  1  0  0  0  0
  8  2  1  0  0  0  0
 11 13  2  0  0  0  0
 12 11  2  0  0  0  0
 15 14  3  0  0  0  0
M  RAD  1   3   2
M  END
