Coordinates from ORCA-job 4-NO2-Ph-N2+-scan-d090-169-n800
 OpenBabel09191814013D

 15 14  0  0  0  0  0  0  0  0999 V2000
   -3.2263   -0.2080   -0.5441 C   0  0  0  0  0  0  0  0  0  0  0  0
   -1.8046   -0.2479   -0.6659 C   0  0  0  0  0  0  0  0  0  0  0  0
   -1.4085    0.8767   -0.0756 C   0  0  0  0  0  0  0  0  0  0  0  0
   -1.7297    1.9985    0.5637 C   0  0  0  0  0  0  0  0  0  0  0  0
   -3.1545    1.9474    0.6357 C   0  0  0  0  0  0  0  0  0  0  0  0
   -3.8499    0.8671    0.0907 C   0  0  0  0  0  0  0  0  0  0  0  0
   -3.8070   -1.0312   -0.9559 H   0  0  0  0  0  0  0  0  0  0  0  0
   -1.2396   -1.0420   -1.1422 H   0  0  0  0  0  0  0  0  0  0  0  0
   -1.1116    2.7973    0.9594 H   0  0  0  0  0  0  0  0  0  0  0  0
   -3.6804    2.7662    1.1228 H   0  0  0  0  0  0  0  0  0  0  0  0
   -5.3330    0.8613    0.1916 N   0  0  0  0  0  0  0  0  0  0  0  0
   -5.9017   -0.1035   -0.2988 O   0  0  0  0  0  0  0  0  0  0  0  0
   -5.8376    1.8218    0.7551 O   0  0  0  0  0  0  0  0  0  0  0  0
    9.2966    0.8499   -0.8389 N   0  0  0  0  0  0  0  0  0  0  0  0
   10.3993    0.8479   -0.9165 N   0  0  0  0  0  0  0  0  0  0  0  0
  1  6  1  0  0  0  0
  2  1  2  0  0  0  0
  2  3  1  0  0  0  0
  3  4  2  0  0  0  0
  4  5  1  0  0  0  0
  4  9  1  0  0  0  0
  5 10  1  0  0  0  0
  6 11  1  0  0  0  0
  6  5  2  0  0  0  0
  7  1  1  0  0  0  0
  8  2  1  0  0  0  0
 11 13  2  0  0  0  0
 12 11  2  0  0  0  0
 15 14  3  0  0  0  0
M  RAD  1   3   2
M  END
