Coordinates from ORCA-job 4-NO2-Ph-N2+-scan-d090-169-n800
 OpenBabel09191814003D

 15 14  0  0  0  0  0  0  0  0999 V2000
   -2.2549   -0.2110   -0.6137 C   0  0  0  0  0  0  0  0  0  0  0  0
   -0.8345   -0.2557   -0.7378 C   0  0  0  0  0  0  0  0  0  0  0  0
   -0.4283    0.8667   -0.1492 C   0  0  0  0  0  0  0  0  0  0  0  0
   -0.7483    1.9893    0.4903 C   0  0  0  0  0  0  0  0  0  0  0  0
   -2.1721    1.9447    0.5655 C   0  0  0  0  0  0  0  0  0  0  0  0
   -2.8727    0.8669    0.0221 C   0  0  0  0  0  0  0  0  0  0  0  0
   -2.8408   -1.0312   -1.0235 H   0  0  0  0  0  0  0  0  0  0  0  0
   -0.2715   -1.0507   -1.2142 H   0  0  0  0  0  0  0  0  0  0  0  0
   -0.1243    2.7842    0.8836 H   0  0  0  0  0  0  0  0  0  0  0  0
   -2.6951    2.7649    1.0531 H   0  0  0  0  0  0  0  0  0  0  0  0
   -4.3555    0.8669    0.1260 N   0  0  0  0  0  0  0  0  0  0  0  0
   -4.9298   -0.0955   -0.3629 O   0  0  0  0  0  0  0  0  0  0  0  0
   -4.8559    1.8294    0.6902 O   0  0  0  0  0  0  0  0  0  0  0  0
    2.9465    0.8663   -0.3856 N   0  0  0  0  0  0  0  0  0  0  0  0
    4.0489    0.8662   -0.4628 N   0  0  0  0  0  0  0  0  0  0  0  0
  1  6  1  0  0  0  0
  2  1  2  0  0  0  0
  2  3  1  0  0  0  0
  3  4  2  0  0  0  0
  4  5  1  0  0  0  0
  4  9  1  0  0  0  0
  5 10  1  0  0  0  0
  6 11  1  0  0  0  0
  6  5  2  0  0  0  0
  7  1  1  0  0  0  0
  8  2  1  0  0  0  0
 11 13  2  0  0  0  0
 12 11  2  0  0  0  0
 15 14  3  0  0  0  0
M  RAD  1   3   2
M  END
