Coordinates from ORCA-job 4-NO2-Ph-N2+-scan-d090-169-n800
 OpenBabel09191814013D

 15 14  0  0  0  0  0  0  0  0999 V2000
   -4.0105   -0.2039   -0.4870 C   0  0  0  0  0  0  0  0  0  0  0  0
   -2.5881   -0.2342   -0.6036 C   0  0  0  0  0  0  0  0  0  0  0  0
   -2.2016    0.8927   -0.0113 C   0  0  0  0  0  0  0  0  0  0  0  0
   -2.5328    2.0119    0.6273 C   0  0  0  0  0  0  0  0  0  0  0  0
   -3.9574    1.9513    0.6940 C   0  0  0  0  0  0  0  0  0  0  0  0
   -4.6436    0.8667    0.1459 C   0  0  0  0  0  0  0  0  0  0  0  0
   -4.5842   -1.0308   -0.9013 H   0  0  0  0  0  0  0  0  0  0  0  0
   -2.0160   -1.0244   -1.0781 H   0  0  0  0  0  0  0  0  0  0  0  0
   -1.9215    2.8147    1.0256 H   0  0  0  0  0  0  0  0  0  0  0  0
   -4.4906    2.7664    1.1795 H   0  0  0  0  0  0  0  0  0  0  0  0
   -6.1270    0.8509    0.2415 N   0  0  0  0  0  0  0  0  0  0  0  0
   -6.6874   -0.1174   -0.2515 O   0  0  0  0  0  0  0  0  0  0  0  0
   -6.6400    1.8078    0.8035 O   0  0  0  0  0  0  0  0  0  0  0  0
   14.4545    0.8223   -1.2149 N   0  0  0  0  0  0  0  0  0  0  0  0
   15.5576    0.8275   -1.2884 N   0  0  0  0  0  0  0  0  0  0  0  0
  1  6  1  0  0  0  0
  2  1  2  0  0  0  0
  2  3  1  0  0  0  0
  3  4  2  0  0  0  0
  4  5  1  0  0  0  0
  4  9  1  0  0  0  0
  5 10  1  0  0  0  0
  6 11  1  0  0  0  0
  6  5  2  0  0  0  0
  7  1  1  0  0  0  0
  8  2  1  0  0  0  0
 11 13  2  0  0  0  0
 12 11  2  0  0  0  0
 15 14  3  0  0  0  0
M  RAD  1   3   2
M  END
