Coordinates from ORCA-job 4-NO2-Ph-N2+-scan-d090-169-n800
 OpenBabel09191814013D

 15 14  0  0  0  0  0  0  0  0999 V2000
   -3.9580   -0.2042   -0.4909 C   0  0  0  0  0  0  0  0  0  0  0  0
   -2.5357   -0.2352   -0.6078 C   0  0  0  0  0  0  0  0  0  0  0  0
   -2.1483    0.8914   -0.0157 C   0  0  0  0  0  0  0  0  0  0  0  0
   -2.4788    2.0107    0.6228 C   0  0  0  0  0  0  0  0  0  0  0  0
   -3.9034    1.9510    0.6900 C   0  0  0  0  0  0  0  0  0  0  0  0
   -4.5904    0.8668    0.1422 C   0  0  0  0  0  0  0  0  0  0  0  0
   -4.5321   -1.0309   -0.9050 H   0  0  0  0  0  0  0  0  0  0  0  0
   -1.9643   -1.0258   -1.0825 H   0  0  0  0  0  0  0  0  0  0  0  0
   -1.8670    2.8132    1.0210 H   0  0  0  0  0  0  0  0  0  0  0  0
   -4.4358    2.7665    1.1757 H   0  0  0  0  0  0  0  0  0  0  0  0
   -6.0737    0.8518    0.2382 N   0  0  0  0  0  0  0  0  0  0  0  0
   -6.6349   -0.1162   -0.2545 O   0  0  0  0  0  0  0  0  0  0  0  0
   -6.5860    1.8089    0.8005 O   0  0  0  0  0  0  0  0  0  0  0  0
   14.1085    0.8245   -1.1895 N   0  0  0  0  0  0  0  0  0  0  0  0
   15.2115    0.8289   -1.2634 N   0  0  0  0  0  0  0  0  0  0  0  0
  1  6  1  0  0  0  0
  2  1  2  0  0  0  0
  2  3  1  0  0  0  0
  3  4  2  0  0  0  0
  4  5  1  0  0  0  0
  4  9  1  0  0  0  0
  5 10  1  0  0  0  0
  6 11  1  0  0  0  0
  6  5  2  0  0  0  0
  7  1  1  0  0  0  0
  8  2  1  0  0  0  0
 11 13  2  0  0  0  0
 12 11  2  0  0  0  0
 15 14  3  0  0  0  0
M  RAD  1   3   2
M  END
