Coordinates from ORCA-job 4-NO2-Ph-N2+-scan-d090-169-n800
 OpenBabel09191814003D

 15 14  0  0  0  0  0  0  0  0999 V2000
   -2.4193   -0.2108   -0.6021 C   0  0  0  0  0  0  0  0  0  0  0  0
   -0.9981   -0.2559   -0.7265 C   0  0  0  0  0  0  0  0  0  0  0  0
   -0.5966    0.8672   -0.1373 C   0  0  0  0  0  0  0  0  0  0  0  0
   -0.9124    1.9903    0.5022 C   0  0  0  0  0  0  0  0  0  0  0  0
   -2.3370    1.9448    0.5771 C   0  0  0  0  0  0  0  0  0  0  0  0
   -3.0376    0.8669    0.0337 C   0  0  0  0  0  0  0  0  0  0  0  0
   -3.0042   -1.0317   -1.0124 H   0  0  0  0  0  0  0  0  0  0  0  0
   -0.4360   -1.0517   -1.2034 H   0  0  0  0  0  0  0  0  0  0  0  0
   -0.2894    2.7862    0.8961 H   0  0  0  0  0  0  0  0  0  0  0  0
   -2.8593    2.7655    1.0649 H   0  0  0  0  0  0  0  0  0  0  0  0
   -4.5204    0.8667    0.1375 N   0  0  0  0  0  0  0  0  0  0  0  0
   -5.0939   -0.0959   -0.3515 O   0  0  0  0  0  0  0  0  0  0  0  0
   -5.0204    1.8292    0.7018 O   0  0  0  0  0  0  0  0  0  0  0  0
    4.0167    0.8655   -0.4609 N   0  0  0  0  0  0  0  0  0  0  0  0
    5.1194    0.8651   -0.5381 N   0  0  0  0  0  0  0  0  0  0  0  0
  1  6  1  0  0  0  0
  2  1  2  0  0  0  0
  2  3  1  0  0  0  0
  3  4  2  0  0  0  0
  4  5  1  0  0  0  0
  4  9  1  0  0  0  0
  5 10  1  0  0  0  0
  6 11  1  0  0  0  0
  6  5  2  0  0  0  0
  7  1  1  0  0  0  0
  8  2  1  0  0  0  0
 11 13  2  0  0  0  0
 12 11  2  0  0  0  0
 15 14  3  0  0  0  0
M  RAD  1   3   2
M  END
