Coordinates from ORCA-job 4-NO2-Ph-N2+-scan-d090-169-n800
 OpenBabel09191814003D

 15 15  0  0  0  0  0  0  0  0999 V2000
   -1.9899   -0.2129   -0.6330 C   0  0  0  0  0  0  0  0  0  0  0  0
   -0.6181   -0.2280   -0.7380 C   0  0  0  0  0  0  0  0  0  0  0  0
    0.1814    0.8679   -0.1942 C   0  0  0  0  0  0  0  0  0  0  0  0
   -0.5340    1.9617    0.4598 C   0  0  0  0  0  0  0  0  0  0  0  0
   -1.9070    1.9463    0.5481 C   0  0  0  0  0  0  0  0  0  0  0  0
   -2.6090    0.8668    0.0038 C   0  0  0  0  0  0  0  0  0  0  0  0
   -2.5960   -1.0191   -1.0329 H   0  0  0  0  0  0  0  0  0  0  0  0
   -0.0868   -1.0423   -1.2222 H   0  0  0  0  0  0  0  0  0  0  0  0
    0.0598    2.7754    0.8661 H   0  0  0  0  0  0  0  0  0  0  0  0
   -2.4512    2.7519    1.0299 H   0  0  0  0  0  0  0  0  0  0  0  0
   -4.1003    0.8665    0.1091 N   0  0  0  0  0  0  0  0  0  0  0  0
   -4.6742   -0.0950   -0.3816 O   0  0  0  0  0  0  0  0  0  0  0  0
   -4.6003    1.8299    0.6716 O   0  0  0  0  0  0  0  0  0  0  0  0
    1.1992    0.8669   -0.2638 N   0  0  0  0  0  0  0  0  0  0  0  0
    2.3379    0.8658   -0.3417 N   0  0  0  0  0  0  0  0  0  0  0  0
  1  6  1  0  0  0  0
  2  1  2  0  0  0  0
  2  3  1  0  0  0  0
  3  4  2  0  0  0  0
  4  5  1  0  0  0  0
  4  9  1  0  0  0  0
  5 10  1  0  0  0  0
  6 11  1  0  0  0  0
  6  5  2  0  0  0  0
  7  1  1  0  0  0  0
  8  2  1  0  0  0  0
 11 13  2  0  0  0  0
 12 11  2  0  0  0  0
 14  3  1  0  0  0  0
 15 14  1  0  0  0  0
M  RAD  2  14   2  15   3
M  END
