Coordinates from ORCA-job 4-NO2-Ph-N2+-scan-d090-169-n800
 OpenBabel09191814013D

 15 14  0  0  0  0  0  0  0  0999 V2000
   -2.6554   -0.2102   -0.5852 C   0  0  0  0  0  0  0  0  0  0  0  0
   -1.2340   -0.2544   -0.7093 C   0  0  0  0  0  0  0  0  0  0  0  0
   -0.8336    0.8690   -0.1198 C   0  0  0  0  0  0  0  0  0  0  0  0
   -1.1502    1.9919    0.5197 C   0  0  0  0  0  0  0  0  0  0  0  0
   -2.5750    1.9452    0.5940 C   0  0  0  0  0  0  0  0  0  0  0  0
   -3.2746    0.8670    0.0504 C   0  0  0  0  0  0  0  0  0  0  0  0
   -3.2394   -1.0316   -0.9958 H   0  0  0  0  0  0  0  0  0  0  0  0
   -0.6719   -1.0503   -1.1862 H   0  0  0  0  0  0  0  0  0  0  0  0
   -0.5287    2.7887    0.9141 H   0  0  0  0  0  0  0  0  0  0  0  0
   -3.0977    2.7658    1.0817 H   0  0  0  0  0  0  0  0  0  0  0  0
   -4.7575    0.8658    0.1537 N   0  0  0  0  0  0  0  0  0  0  0  0
   -5.3301   -0.0973   -0.3356 O   0  0  0  0  0  0  0  0  0  0  0  0
   -5.2583    1.8280    0.7178 O   0  0  0  0  0  0  0  0  0  0  0  0
    5.5575    0.8623   -0.5704 N   0  0  0  0  0  0  0  0  0  0  0  0
    6.6602    0.8615   -0.6477 N   0  0  0  0  0  0  0  0  0  0  0  0
  1  6  1  0  0  0  0
  2  1  2  0  0  0  0
  2  3  1  0  0  0  0
  3  4  2  0  0  0  0
  4  5  1  0  0  0  0
  4  9  1  0  0  0  0
  5 10  1  0  0  0  0
  6 11  1  0  0  0  0
  6  5  2  0  0  0  0
  7  1  1  0  0  0  0
  8  2  1  0  0  0  0
 11 13  2  0  0  0  0
 12 11  2  0  0  0  0
 15 14  3  0  0  0  0
M  RAD  1   3   2
M  END
