Coordinates from ORCA-job 4-NO2-Ph-N2+-scan-d090-169-n800
 OpenBabel09191814003D

 15 14  0  0  0  0  0  0  0  0999 V2000
   -2.3477   -0.2109   -0.6072 C   0  0  0  0  0  0  0  0  0  0  0  0
   -0.9266   -0.2561   -0.7316 C   0  0  0  0  0  0  0  0  0  0  0  0
   -0.5243    0.8669   -0.1424 C   0  0  0  0  0  0  0  0  0  0  0  0
   -0.8406    1.9899    0.4970 C   0  0  0  0  0  0  0  0  0  0  0  0
   -2.2651    1.9447    0.5720 C   0  0  0  0  0  0  0  0  0  0  0  0
   -2.9657    0.8669    0.0286 C   0  0  0  0  0  0  0  0  0  0  0  0
   -2.9329   -1.0316   -1.0173 H   0  0  0  0  0  0  0  0  0  0  0  0
   -0.3640   -1.0515   -1.2083 H   0  0  0  0  0  0  0  0  0  0  0  0
   -0.2170    2.7854    0.8906 H   0  0  0  0  0  0  0  0  0  0  0  0
   -2.7874    2.7654    1.0598 H   0  0  0  0  0  0  0  0  0  0  0  0
   -4.4485    0.8669    0.1325 N   0  0  0  0  0  0  0  0  0  0  0  0
   -5.0223   -0.0957   -0.3564 O   0  0  0  0  0  0  0  0  0  0  0  0
   -4.9485    1.8294    0.6968 O   0  0  0  0  0  0  0  0  0  0  0  0
    3.5497    0.8660   -0.4280 N   0  0  0  0  0  0  0  0  0  0  0  0
    4.6523    0.8658   -0.5051 N   0  0  0  0  0  0  0  0  0  0  0  0
  1  6  1  0  0  0  0
  2  1  2  0  0  0  0
  2  3  1  0  0  0  0
  3  4  2  0  0  0  0
  4  5  1  0  0  0  0
  4  9  1  0  0  0  0
  5 10  1  0  0  0  0
  6 11  1  0  0  0  0
  6  5  2  0  0  0  0
  7  1  1  0  0  0  0
  8  2  1  0  0  0  0
 11 13  2  0  0  0  0
 12 11  2  0  0  0  0
 15 14  3  0  0  0  0
M  RAD  1   3   2
M  END
