Coordinates from ORCA-job 4-NO2-Ph-N2+-scan-d090-169-n800
 OpenBabel09191814013D

 15 14  0  0  0  0  0  0  0  0999 V2000
   -2.8062   -0.2097   -0.5742 C   0  0  0  0  0  0  0  0  0  0  0  0
   -1.3849   -0.2530   -0.6978 C   0  0  0  0  0  0  0  0  0  0  0  0
   -0.9851    0.8707   -0.1082 C   0  0  0  0  0  0  0  0  0  0  0  0
   -1.3030    1.9932    0.5312 C   0  0  0  0  0  0  0  0  0  0  0  0
   -2.7277    1.9456    0.6051 C   0  0  0  0  0  0  0  0  0  0  0  0
   -3.4264    0.8669    0.0612 C   0  0  0  0  0  0  0  0  0  0  0  0
   -3.3894   -1.0317   -0.9851 H   0  0  0  0  0  0  0  0  0  0  0  0
   -0.8223   -1.0486   -1.1747 H   0  0  0  0  0  0  0  0  0  0  0  0
   -0.6824    2.7906    0.9259 H   0  0  0  0  0  0  0  0  0  0  0  0
   -3.2510    2.7658    1.0928 H   0  0  0  0  0  0  0  0  0  0  0  0
   -4.9094    0.8646    0.1642 N   0  0  0  0  0  0  0  0  0  0  0  0
   -5.4812   -0.0982   -0.3265 O   0  0  0  0  0  0  0  0  0  0  0  0
   -5.4110    1.8271    0.7271 O   0  0  0  0  0  0  0  0  0  0  0  0
    6.5444    0.8596   -0.6412 N   0  0  0  0  0  0  0  0  0  0  0  0
    7.6471    0.8585   -0.7186 N   0  0  0  0  0  0  0  0  0  0  0  0
  1  6  1  0  0  0  0
  2  1  2  0  0  0  0
  2  3  1  0  0  0  0
  3  4  2  0  0  0  0
  4  5  1  0  0  0  0
  4  9  1  0  0  0  0
  5 10  1  0  0  0  0
  6 11  1  0  0  0  0
  6  5  2  0  0  0  0
  7  1  1  0  0  0  0
  8  2  1  0  0  0  0
 11 13  2  0  0  0  0
 12 11  2  0  0  0  0
 15 14  3  0  0  0  0
M  RAD  1   3   2
M  END
