Coordinates from ORCA-job 4-NO2-Ph-N2+-scan-d090-169-n800
 OpenBabel09191814013D

 15 14  0  0  0  0  0  0  0  0999 V2000
   -3.6557   -0.2059   -0.5129 C   0  0  0  0  0  0  0  0  0  0  0  0
   -2.2336   -0.2410   -0.6321 C   0  0  0  0  0  0  0  0  0  0  0  0
   -1.8424    0.8848   -0.0408 C   0  0  0  0  0  0  0  0  0  0  0  0
   -2.1685    2.0053    0.5981 C   0  0  0  0  0  0  0  0  0  0  0  0
   -3.5932    1.9494    0.6675 C   0  0  0  0  0  0  0  0  0  0  0  0
   -4.2840    0.8670    0.1210 C   0  0  0  0  0  0  0  0  0  0  0  0
   -4.2329   -1.0309   -0.9259 H   0  0  0  0  0  0  0  0  0  0  0  0
   -1.6650   -1.0331   -1.1075 H   0  0  0  0  0  0  0  0  0  0  0  0
   -1.5538    2.8061    0.9951 H   0  0  0  0  0  0  0  0  0  0  0  0
   -4.1229    2.7664    1.1538 H   0  0  0  0  0  0  0  0  0  0  0  0
   -5.7673    0.8561    0.2192 N   0  0  0  0  0  0  0  0  0  0  0  0
   -6.3319   -0.1104   -0.2725 O   0  0  0  0  0  0  0  0  0  0  0  0
   -6.2761    1.8148    0.7820 O   0  0  0  0  0  0  0  0  0  0  0  0
   12.1180    0.8378   -1.0429 N   0  0  0  0  0  0  0  0  0  0  0  0
   13.2207    0.8351   -1.1208 N   0  0  0  0  0  0  0  0  0  0  0  0
  1  6  1  0  0  0  0
  2  1  2  0  0  0  0
  2  3  1  0  0  0  0
  3  4  2  0  0  0  0
  4  5  1  0  0  0  0
  4  9  1  0  0  0  0
  5 10  1  0  0  0  0
  6 11  1  0  0  0  0
  6  5  2  0  0  0  0
  7  1  1  0  0  0  0
  8  2  1  0  0  0  0
 11 13  2  0  0  0  0
 12 11  2  0  0  0  0
 15 14  3  0  0  0  0
M  RAD  1   3   2
M  END
