Coordinates from ORCA-job 4-NO2-Ph-N2+-scan-d090-169-n800
 OpenBabel09191814013D

 15 14  0  0  0  0  0  0  0  0999 V2000
   -2.6766   -0.2101   -0.5837 C   0  0  0  0  0  0  0  0  0  0  0  0
   -1.2552   -0.2543   -0.7077 C   0  0  0  0  0  0  0  0  0  0  0  0
   -0.8548    0.8692   -0.1182 C   0  0  0  0  0  0  0  0  0  0  0  0
   -1.1716    1.9921    0.5213 C   0  0  0  0  0  0  0  0  0  0  0  0
   -2.5964    1.9453    0.5956 C   0  0  0  0  0  0  0  0  0  0  0  0
   -3.2959    0.8670    0.0519 C   0  0  0  0  0  0  0  0  0  0  0  0
   -3.2605   -1.0316   -0.9943 H   0  0  0  0  0  0  0  0  0  0  0  0
   -0.6930   -1.0501   -1.1847 H   0  0  0  0  0  0  0  0  0  0  0  0
   -0.5502    2.7890    0.9157 H   0  0  0  0  0  0  0  0  0  0  0  0
   -3.1192    2.7658    1.0833 H   0  0  0  0  0  0  0  0  0  0  0  0
   -4.7788    0.8656    0.1552 N   0  0  0  0  0  0  0  0  0  0  0  0
   -5.3513   -0.0974   -0.3343 O   0  0  0  0  0  0  0  0  0  0  0  0
   -5.2797    1.8279    0.7191 O   0  0  0  0  0  0  0  0  0  0  0  0
    5.6960    0.8620   -0.5804 N   0  0  0  0  0  0  0  0  0  0  0  0
    6.7987    0.8611   -0.6577 N   0  0  0  0  0  0  0  0  0  0  0  0
  1  6  1  0  0  0  0
  2  1  2  0  0  0  0
  2  3  1  0  0  0  0
  3  4  2  0  0  0  0
  4  5  1  0  0  0  0
  4  9  1  0  0  0  0
  5 10  1  0  0  0  0
  6 11  1  0  0  0  0
  6  5  2  0  0  0  0
  7  1  1  0  0  0  0
  8  2  1  0  0  0  0
 11 13  2  0  0  0  0
 12 11  2  0  0  0  0
 15 14  3  0  0  0  0
M  RAD  1   3   2
M  END
