Coordinates from ORCA-job 4-NO2-Ph-N2+-scan-d090-169-n800
 OpenBabel09191814013D

 15 14  0  0  0  0  0  0  0  0999 V2000
   -2.7136   -0.2100   -0.5811 C   0  0  0  0  0  0  0  0  0  0  0  0
   -1.2922   -0.2540   -0.7050 C   0  0  0  0  0  0  0  0  0  0  0  0
   -0.8922    0.8696   -0.1154 C   0  0  0  0  0  0  0  0  0  0  0  0
   -1.2091    1.9924    0.5241 C   0  0  0  0  0  0  0  0  0  0  0  0
   -2.6339    1.9454    0.5982 C   0  0  0  0  0  0  0  0  0  0  0  0
   -3.3332    0.8670    0.0545 C   0  0  0  0  0  0  0  0  0  0  0  0
   -3.2974   -1.0315   -0.9917 H   0  0  0  0  0  0  0  0  0  0  0  0
   -0.7299   -1.0497   -1.1819 H   0  0  0  0  0  0  0  0  0  0  0  0
   -0.5878    2.7895    0.9186 H   0  0  0  0  0  0  0  0  0  0  0  0
   -3.1569    2.7658    1.0859 H   0  0  0  0  0  0  0  0  0  0  0  0
   -4.8161    0.8654    0.1576 N   0  0  0  0  0  0  0  0  0  0  0  0
   -5.3884   -0.0978   -0.3317 O   0  0  0  0  0  0  0  0  0  0  0  0
   -5.3171    1.8275    0.7217 O   0  0  0  0  0  0  0  0  0  0  0  0
    5.9383    0.8613   -0.5976 N   0  0  0  0  0  0  0  0  0  0  0  0
    7.0410    0.8604   -0.6750 N   0  0  0  0  0  0  0  0  0  0  0  0
  1  6  1  0  0  0  0
  2  1  2  0  0  0  0
  2  3  1  0  0  0  0
  3  4  2  0  0  0  0
  4  5  1  0  0  0  0
  4  9  1  0  0  0  0
  5 10  1  0  0  0  0
  6 11  1  0  0  0  0
  6  5  2  0  0  0  0
  7  1  1  0  0  0  0
  8  2  1  0  0  0  0
 11 13  2  0  0  0  0
 12 11  2  0  0  0  0
 15 14  3  0  0  0  0
M  RAD  1   3   2
M  END
