Coordinates from ORCA-job 4-NO2-Ph-N2+-scan-d090-169-n800
 OpenBabel09191814013D

 15 14  0  0  0  0  0  0  0  0999 V2000
   -3.6136   -0.2061   -0.5160 C   0  0  0  0  0  0  0  0  0  0  0  0
   -2.1915   -0.2417   -0.6355 C   0  0  0  0  0  0  0  0  0  0  0  0
   -1.7998    0.8839   -0.0442 C   0  0  0  0  0  0  0  0  0  0  0  0
   -2.1254    2.0046    0.5947 C   0  0  0  0  0  0  0  0  0  0  0  0
   -3.5501    1.9492    0.6643 C   0  0  0  0  0  0  0  0  0  0  0  0
   -4.2414    0.8670    0.1180 C   0  0  0  0  0  0  0  0  0  0  0  0
   -4.1912   -1.0309   -0.9289 H   0  0  0  0  0  0  0  0  0  0  0  0
   -1.6233   -1.0341   -1.1110 H   0  0  0  0  0  0  0  0  0  0  0  0
   -1.5103    2.8052    0.9916 H   0  0  0  0  0  0  0  0  0  0  0  0
   -4.0794    2.7664    1.1507 H   0  0  0  0  0  0  0  0  0  0  0  0
   -5.7246    0.8567    0.2165 N   0  0  0  0  0  0  0  0  0  0  0  0
   -6.2897   -0.1096   -0.2750 O   0  0  0  0  0  0  0  0  0  0  0  0
   -6.2330    1.8156    0.7794 O   0  0  0  0  0  0  0  0  0  0  0  0
   11.8410    0.8390   -1.0228 N   0  0  0  0  0  0  0  0  0  0  0  0
   12.9437    0.8364   -1.1007 N   0  0  0  0  0  0  0  0  0  0  0  0
  1  6  1  0  0  0  0
  2  1  2  0  0  0  0
  2  3  1  0  0  0  0
  3  4  2  0  0  0  0
  4  5  1  0  0  0  0
  4  9  1  0  0  0  0
  5 10  1  0  0  0  0
  6 11  1  0  0  0  0
  6  5  2  0  0  0  0
  7  1  1  0  0  0  0
  8  2  1  0  0  0  0
 11 13  2  0  0  0  0
 12 11  2  0  0  0  0
 15 14  3  0  0  0  0
M  RAD  1   3   2
M  END
