Coordinates from ORCA-job 4-NO2-Ph-N2+-scan-d090-169-n800
 OpenBabel09191814013D

 15 14  0  0  0  0  0  0  0  0999 V2000
   -2.6448   -0.2102   -0.5860 C   0  0  0  0  0  0  0  0  0  0  0  0
   -1.2234   -0.2545   -0.7101 C   0  0  0  0  0  0  0  0  0  0  0  0
   -0.8230    0.8689   -0.1206 C   0  0  0  0  0  0  0  0  0  0  0  0
   -1.1395    1.9918    0.5189 C   0  0  0  0  0  0  0  0  0  0  0  0
   -2.5642    1.9452    0.5932 C   0  0  0  0  0  0  0  0  0  0  0  0
   -3.2639    0.8670    0.0496 C   0  0  0  0  0  0  0  0  0  0  0  0
   -3.2288   -1.0316   -0.9966 H   0  0  0  0  0  0  0  0  0  0  0  0
   -0.6613   -1.0504   -1.1871 H   0  0  0  0  0  0  0  0  0  0  0  0
   -0.5179    2.7886    0.9133 H   0  0  0  0  0  0  0  0  0  0  0  0
   -3.0870    2.7658    1.0810 H   0  0  0  0  0  0  0  0  0  0  0  0
   -4.7468    0.8658    0.1530 N   0  0  0  0  0  0  0  0  0  0  0  0
   -5.3195   -0.0972   -0.3363 O   0  0  0  0  0  0  0  0  0  0  0  0
   -5.2475    1.8280    0.7171 O   0  0  0  0  0  0  0  0  0  0  0  0
    5.4882    0.8625   -0.5655 N   0  0  0  0  0  0  0  0  0  0  0  0
    6.5909    0.8617   -0.6428 N   0  0  0  0  0  0  0  0  0  0  0  0
  1  6  1  0  0  0  0
  2  1  2  0  0  0  0
  2  3  1  0  0  0  0
  3  4  2  0  0  0  0
  4  5  1  0  0  0  0
  4  9  1  0  0  0  0
  5 10  1  0  0  0  0
  6 11  1  0  0  0  0
  6  5  2  0  0  0  0
  7  1  1  0  0  0  0
  8  2  1  0  0  0  0
 11 13  2  0  0  0  0
 12 11  2  0  0  0  0
 15 14  3  0  0  0  0
M  RAD  1   3   2
M  END
