Coordinates from ORCA-job 4-NO2-Ph-N2+-scan-d090-169-n800
 OpenBabel09191814003D

 15 14  0  0  0  0  0  0  0  0999 V2000
   -2.4114   -0.2108   -0.6026 C   0  0  0  0  0  0  0  0  0  0  0  0
   -0.9902   -0.2560   -0.7271 C   0  0  0  0  0  0  0  0  0  0  0  0
   -0.5886    0.8672   -0.1379 C   0  0  0  0  0  0  0  0  0  0  0  0
   -0.9044    1.9903    0.5017 C   0  0  0  0  0  0  0  0  0  0  0  0
   -2.3290    1.9448    0.5765 C   0  0  0  0  0  0  0  0  0  0  0  0
   -3.0296    0.8669    0.0331 C   0  0  0  0  0  0  0  0  0  0  0  0
   -2.9963   -1.0317   -1.0129 H   0  0  0  0  0  0  0  0  0  0  0  0
   -0.4279   -1.0517   -1.2040 H   0  0  0  0  0  0  0  0  0  0  0  0
   -0.2813    2.7862    0.8955 H   0  0  0  0  0  0  0  0  0  0  0  0
   -2.8513    2.7655    1.0643 H   0  0  0  0  0  0  0  0  0  0  0  0
   -4.5124    0.8667    0.1370 N   0  0  0  0  0  0  0  0  0  0  0  0
   -5.0860   -0.0959   -0.3520 O   0  0  0  0  0  0  0  0  0  0  0  0
   -5.0124    1.8293    0.7012 O   0  0  0  0  0  0  0  0  0  0  0  0
    3.9648    0.8655   -0.4573 N   0  0  0  0  0  0  0  0  0  0  0  0
    5.0674    0.8652   -0.5345 N   0  0  0  0  0  0  0  0  0  0  0  0
  1  6  1  0  0  0  0
  2  1  2  0  0  0  0
  2  3  1  0  0  0  0
  3  4  2  0  0  0  0
  4  5  1  0  0  0  0
  4  9  1  0  0  0  0
  5 10  1  0  0  0  0
  6 11  1  0  0  0  0
  6  5  2  0  0  0  0
  7  1  1  0  0  0  0
  8  2  1  0  0  0  0
 11 13  2  0  0  0  0
 12 11  2  0  0  0  0
 15 14  3  0  0  0  0
M  RAD  1   3   2
M  END
