Coordinates from ORCA-job 4-NO2-Ph-N2+-scan-d090-169-n800
 OpenBabel09191814003D

 15 15  0  0  0  0  0  0  0  0999 V2000
   -2.0459   -0.2123   -0.6287 C   0  0  0  0  0  0  0  0  0  0  0  0
   -0.6536   -0.2335   -0.7381 C   0  0  0  0  0  0  0  0  0  0  0  0
   -0.0296    0.8667   -0.1771 C   0  0  0  0  0  0  0  0  0  0  0  0
   -0.5691    1.9668    0.4655 C   0  0  0  0  0  0  0  0  0  0  0  0
   -1.9630    1.9456    0.5518 C   0  0  0  0  0  0  0  0  0  0  0  0
   -2.6603    0.8666    0.0076 C   0  0  0  0  0  0  0  0  0  0  0  0
   -2.6522   -1.0174   -1.0287 H   0  0  0  0  0  0  0  0  0  0  0  0
   -0.1207   -1.0440   -1.2210 H   0  0  0  0  0  0  0  0  0  0  0  0
    0.0260    2.7773    0.8693 H   0  0  0  0  0  0  0  0  0  0  0  0
   -2.5075    2.7507    1.0326 H   0  0  0  0  0  0  0  0  0  0  0  0
   -4.1488    0.8666    0.1122 N   0  0  0  0  0  0  0  0  0  0  0  0
   -4.7278   -0.0933   -0.3771 O   0  0  0  0  0  0  0  0  0  0  0  0
   -4.6540    1.8284    0.6742 O   0  0  0  0  0  0  0  0  0  0  0  0
    1.6073    0.8667   -0.2920 N   0  0  0  0  0  0  0  0  0  0  0  0
    2.7108    0.8667   -0.3695 N   0  0  0  0  0  0  0  0  0  0  0  0
  1  6  1  0  0  0  0
  2  1  2  0  0  0  0
  2  3  1  0  0  0  0
  3  4  2  0  0  0  0
  4  5  1  0  0  0  0
  4  9  1  0  0  0  0
  5 10  1  0  0  0  0
  6 11  1  0  0  0  0
  6  5  2  0  0  0  0
  7  1  1  0  0  0  0
  8  2  1  0  0  0  0
 11 13  2  0  0  0  0
 12 11  2  0  0  0  0
 14  3  1  0  0  0  0
 15 14  1  0  0  0  0
M  RAD  2  14   2  15   3
M  END
