Coordinates from ORCA-job 4-NO2-Ph-N2+-scan-d090-169-n800
 OpenBabel09191814013D

 15 14  0  0  0  0  0  0  0  0999 V2000
   -3.7662   -0.2053   -0.5049 C   0  0  0  0  0  0  0  0  0  0  0  0
   -2.3441   -0.2389   -0.6233 C   0  0  0  0  0  0  0  0  0  0  0  0
   -1.9540    0.8870   -0.0317 C   0  0  0  0  0  0  0  0  0  0  0  0
   -2.2818    2.0070    0.6070 C   0  0  0  0  0  0  0  0  0  0  0  0
   -3.7064    1.9500    0.6757 C   0  0  0  0  0  0  0  0  0  0  0  0
   -4.3960    0.8669    0.1288 C   0  0  0  0  0  0  0  0  0  0  0  0
   -4.3423   -1.0310   -0.9183 H   0  0  0  0  0  0  0  0  0  0  0  0
   -1.7747   -1.0306   -1.0985 H   0  0  0  0  0  0  0  0  0  0  0  0
   -1.6681    2.8085    1.0044 H   0  0  0  0  0  0  0  0  0  0  0  0
   -4.2368    2.7666    1.1618 H   0  0  0  0  0  0  0  0  0  0  0  0
   -5.8792    0.8547    0.2262 N   0  0  0  0  0  0  0  0  0  0  0  0
   -6.4427   -0.1123   -0.2658 O   0  0  0  0  0  0  0  0  0  0  0  0
   -6.3892    1.8129    0.7889 O   0  0  0  0  0  0  0  0  0  0  0  0
   12.8450    0.8327   -1.0966 N   0  0  0  0  0  0  0  0  0  0  0  0
   13.9479    0.8333   -1.1726 N   0  0  0  0  0  0  0  0  0  0  0  0
  1  6  1  0  0  0  0
  2  1  2  0  0  0  0
  2  3  1  0  0  0  0
  3  4  2  0  0  0  0
  4  5  1  0  0  0  0
  4  9  1  0  0  0  0
  5 10  1  0  0  0  0
  6 11  1  0  0  0  0
  6  5  2  0  0  0  0
  7  1  1  0  0  0  0
  8  2  1  0  0  0  0
 11 13  2  0  0  0  0
 12 11  2  0  0  0  0
 15 14  3  0  0  0  0
M  RAD  1   3   2
M  END
