Coordinates from ORCA-job 4-NO2-Ph-N2+-scan-d090-169-n800
 OpenBabel09191814003D

 15 15  0  0  0  0  0  0  0  0999 V2000
   -2.0639   -0.2115   -0.6274 C   0  0  0  0  0  0  0  0  0  0  0  0
   -0.6652   -0.2390   -0.7404 C   0  0  0  0  0  0  0  0  0  0  0  0
   -0.0928    0.8667   -0.1727 C   0  0  0  0  0  0  0  0  0  0  0  0
   -0.5803    1.9724    0.4693 C   0  0  0  0  0  0  0  0  0  0  0  0
   -1.9811    1.9452    0.5524 C   0  0  0  0  0  0  0  0  0  0  0  0
   -2.6788    0.8669    0.0085 C   0  0  0  0  0  0  0  0  0  0  0  0
   -2.6666   -1.0193   -1.0292 H   0  0  0  0  0  0  0  0  0  0  0  0
   -0.1268   -1.0461   -1.2217 H   0  0  0  0  0  0  0  0  0  0  0  0
    0.0201    2.7794    0.8709 H   0  0  0  0  0  0  0  0  0  0  0  0
   -2.5217    2.7530    1.0343 H   0  0  0  0  0  0  0  0  0  0  0  0
   -4.1656    0.8670    0.1127 N   0  0  0  0  0  0  0  0  0  0  0  0
   -4.7445   -0.0939   -0.3750 O   0  0  0  0  0  0  0  0  0  0  0  0
   -4.6707    1.8279    0.6763 O   0  0  0  0  0  0  0  0  0  0  0  0
    1.7239    0.8665   -0.2999 N   0  0  0  0  0  0  0  0  0  0  0  0
    2.8255    0.8664   -0.3771 N   0  0  0  0  0  0  0  0  0  0  0  0
  1  6  1  0  0  0  0
  2  1  2  0  0  0  0
  2  3  1  0  0  0  0
  3  4  2  0  0  0  0
  4  5  1  0  0  0  0
  4  9  1  0  0  0  0
  5 10  1  0  0  0  0
  6 11  1  0  0  0  0
  6  5  2  0  0  0  0
  7  1  1  0  0  0  0
  8  2  1  0  0  0  0
 11 13  2  0  0  0  0
 12 11  2  0  0  0  0
 14  3  1  0  0  0  0
 15 14  1  0  0  0  0
M  RAD  2  14   2  15   3
M  END
