Coordinates from ORCA-job 4-NO2-Ph-N2+-scan-d090-169-n800
 OpenBabel09191814013D

 15 14  0  0  0  0  0  0  0  0999 V2000
   -4.0210   -0.2038   -0.4863 C   0  0  0  0  0  0  0  0  0  0  0  0
   -2.5987   -0.2339   -0.6027 C   0  0  0  0  0  0  0  0  0  0  0  0
   -2.2122    0.8929   -0.0104 C   0  0  0  0  0  0  0  0  0  0  0  0
   -2.5436    2.0120    0.6281 C   0  0  0  0  0  0  0  0  0  0  0  0
   -3.9682    1.9514    0.6948 C   0  0  0  0  0  0  0  0  0  0  0  0
   -4.6543    0.8667    0.1467 C   0  0  0  0  0  0  0  0  0  0  0  0
   -4.5944   -1.0309   -0.9006 H   0  0  0  0  0  0  0  0  0  0  0  0
   -2.0265   -1.0240   -1.0772 H   0  0  0  0  0  0  0  0  0  0  0  0
   -1.9325    2.8149    1.0265 H   0  0  0  0  0  0  0  0  0  0  0  0
   -4.5013    2.7665    1.1803 H   0  0  0  0  0  0  0  0  0  0  0  0
   -6.1377    0.8507    0.2421 N   0  0  0  0  0  0  0  0  0  0  0  0
   -6.6980   -0.1176   -0.2509 O   0  0  0  0  0  0  0  0  0  0  0  0
   -6.6508    1.8075    0.8042 O   0  0  0  0  0  0  0  0  0  0  0  0
   14.5239    0.8219   -1.2200 N   0  0  0  0  0  0  0  0  0  0  0  0
   15.6269    0.8272   -1.2934 N   0  0  0  0  0  0  0  0  0  0  0  0
  1  6  1  0  0  0  0
  2  1  2  0  0  0  0
  2  3  1  0  0  0  0
  3  4  2  0  0  0  0
  4  5  1  0  0  0  0
  4  9  1  0  0  0  0
  5 10  1  0  0  0  0
  6 11  1  0  0  0  0
  6  5  2  0  0  0  0
  7  1  1  0  0  0  0
  8  2  1  0  0  0  0
 11 13  2  0  0  0  0
 12 11  2  0  0  0  0
 15 14  3  0  0  0  0
M  RAD  1   3   2
M  END
