Coordinates from ORCA-job 4-NO2-Ph-N2+-scan-d090-169-n800
 OpenBabel09191814013D

 15 14  0  0  0  0  0  0  0  0999 V2000
   -3.1076   -0.2085   -0.5527 C   0  0  0  0  0  0  0  0  0  0  0  0
   -1.6860   -0.2493   -0.6750 C   0  0  0  0  0  0  0  0  0  0  0  0
   -1.2886    0.8748   -0.0850 C   0  0  0  0  0  0  0  0  0  0  0  0
   -1.6089    1.9967    0.5543 C   0  0  0  0  0  0  0  0  0  0  0  0
   -3.0336    1.9469    0.6269 C   0  0  0  0  0  0  0  0  0  0  0  0
   -3.7301    0.8671    0.0823 C   0  0  0  0  0  0  0  0  0  0  0  0
   -3.6889   -1.0314   -0.9642 H   0  0  0  0  0  0  0  0  0  0  0  0
   -1.1218   -1.0440   -1.1515 H   0  0  0  0  0  0  0  0  0  0  0  0
   -0.9900    2.7951    0.9497 H   0  0  0  0  0  0  0  0  0  0  0  0
   -3.5585    2.7663    1.1143 H   0  0  0  0  0  0  0  0  0  0  0  0
   -5.2132    0.8624    0.1839 N   0  0  0  0  0  0  0  0  0  0  0  0
   -5.7828   -0.1019   -0.3063 O   0  0  0  0  0  0  0  0  0  0  0  0
   -5.7167    1.8234    0.7475 O   0  0  0  0  0  0  0  0  0  0  0  0
    8.5178    0.8529   -0.7827 N   0  0  0  0  0  0  0  0  0  0  0  0
    9.6205    0.8511   -0.8603 N   0  0  0  0  0  0  0  0  0  0  0  0
  1  6  1  0  0  0  0
  2  1  2  0  0  0  0
  2  3  1  0  0  0  0
  3  4  2  0  0  0  0
  4  5  1  0  0  0  0
  4  9  1  0  0  0  0
  5 10  1  0  0  0  0
  6 11  1  0  0  0  0
  6  5  2  0  0  0  0
  7  1  1  0  0  0  0
  8  2  1  0  0  0  0
 11 13  2  0  0  0  0
 12 11  2  0  0  0  0
 15 14  3  0  0  0  0
M  RAD  1   3   2
M  END
