Coordinates from ORCA-job 4-NO2-Ph-N2+-scan-d090-169-n800
 OpenBabel09191814013D

 15 14  0  0  0  0  0  0  0  0999 V2000
   -3.3239   -0.2075   -0.5371 C   0  0  0  0  0  0  0  0  0  0  0  0
   -1.9021   -0.2464   -0.6583 C   0  0  0  0  0  0  0  0  0  0  0  0
   -1.5070    0.8784   -0.0678 C   0  0  0  0  0  0  0  0  0  0  0  0
   -1.8292    1.9999    0.5714 C   0  0  0  0  0  0  0  0  0  0  0  0
   -3.2540    1.9478    0.6428 C   0  0  0  0  0  0  0  0  0  0  0  0
   -3.9485    0.8671    0.0975 C   0  0  0  0  0  0  0  0  0  0  0  0
   -3.9039   -1.0311   -0.9491 H   0  0  0  0  0  0  0  0  0  0  0  0
   -1.3363   -1.0402   -1.1344 H   0  0  0  0  0  0  0  0  0  0  0  0
   -1.2118    2.7991    0.9674 H   0  0  0  0  0  0  0  0  0  0  0  0
   -3.7807    2.7663    1.1298 H   0  0  0  0  0  0  0  0  0  0  0  0
   -5.4316    0.8602    0.1980 N   0  0  0  0  0  0  0  0  0  0  0  0
   -5.9995   -0.1049   -0.2927 O   0  0  0  0  0  0  0  0  0  0  0  0
   -5.9370    1.8204    0.7614 O   0  0  0  0  0  0  0  0  0  0  0  0
    9.9370    0.8473   -0.8851 N   0  0  0  0  0  0  0  0  0  0  0  0
   11.0398    0.8451   -0.9628 N   0  0  0  0  0  0  0  0  0  0  0  0
  1  6  1  0  0  0  0
  2  1  2  0  0  0  0
  2  3  1  0  0  0  0
  3  4  2  0  0  0  0
  4  5  1  0  0  0  0
  4  9  1  0  0  0  0
  5 10  1  0  0  0  0
  6 11  1  0  0  0  0
  6  5  2  0  0  0  0
  7  1  1  0  0  0  0
  8  2  1  0  0  0  0
 11 13  2  0  0  0  0
 12 11  2  0  0  0  0
 15 14  3  0  0  0  0
M  RAD  1   3   2
M  END
