Coordinates from ORCA-job 4-NO2-Ph-N2+-scan-d090-169-n800
 OpenBabel09191814013D

 15 14  0  0  0  0  0  0  0  0999 V2000
   -3.4899   -0.2067   -0.5250 C   0  0  0  0  0  0  0  0  0  0  0  0
   -2.0679   -0.2438   -0.6453 C   0  0  0  0  0  0  0  0  0  0  0  0
   -1.6747    0.8815   -0.0544 C   0  0  0  0  0  0  0  0  0  0  0  0
   -1.9988    2.0025    0.5847 C   0  0  0  0  0  0  0  0  0  0  0  0
   -3.4235    1.9486    0.6551 C   0  0  0  0  0  0  0  0  0  0  0  0
   -4.1162    0.8670    0.1093 C   0  0  0  0  0  0  0  0  0  0  0  0
   -4.0686   -1.0310   -0.9375 H   0  0  0  0  0  0  0  0  0  0  0  0
   -1.5008   -1.0368   -1.1211 H   0  0  0  0  0  0  0  0  0  0  0  0
   -1.3826    2.8025    0.9812 H   0  0  0  0  0  0  0  0  0  0  0  0
   -3.9516    2.7664    1.1418 H   0  0  0  0  0  0  0  0  0  0  0  0
   -5.5994    0.8583    0.2087 N   0  0  0  0  0  0  0  0  0  0  0  0
   -6.1657   -0.1075   -0.2825 O   0  0  0  0  0  0  0  0  0  0  0  0
   -6.1065    1.8177    0.7718 O   0  0  0  0  0  0  0  0  0  0  0  0
   11.0275    0.8427   -0.9639 N   0  0  0  0  0  0  0  0  0  0  0  0
   12.1303    0.8402   -1.0417 N   0  0  0  0  0  0  0  0  0  0  0  0
  1  6  1  0  0  0  0
  2  1  2  0  0  0  0
  2  3  1  0  0  0  0
  3  4  2  0  0  0  0
  4  5  1  0  0  0  0
  4  9  1  0  0  0  0
  5 10  1  0  0  0  0
  6 11  1  0  0  0  0
  6  5  2  0  0  0  0
  7  1  1  0  0  0  0
  8  2  1  0  0  0  0
 11 13  2  0  0  0  0
 12 11  2  0  0  0  0
 15 14  3  0  0  0  0
M  RAD  1   3   2
M  END
