Coordinates from ORCA-job 4-NO2-Ph-N2+-scan-d090-169-n800
 OpenBabel09191814013D

 15 14  0  0  0  0  0  0  0  0999 V2000
   -3.6662   -0.2058   -0.5122 C   0  0  0  0  0  0  0  0  0  0  0  0
   -2.2441   -0.2408   -0.6313 C   0  0  0  0  0  0  0  0  0  0  0  0
   -1.8530    0.8850   -0.0399 C   0  0  0  0  0  0  0  0  0  0  0  0
   -2.1793    2.0055    0.5990 C   0  0  0  0  0  0  0  0  0  0  0  0
   -3.6040    1.9495    0.6682 C   0  0  0  0  0  0  0  0  0  0  0  0
   -4.2947    0.8670    0.1217 C   0  0  0  0  0  0  0  0  0  0  0  0
   -4.2433   -1.0309   -0.9252 H   0  0  0  0  0  0  0  0  0  0  0  0
   -1.6754   -1.0329   -1.1067 H   0  0  0  0  0  0  0  0  0  0  0  0
   -1.5647    2.8064    0.9960 H   0  0  0  0  0  0  0  0  0  0  0  0
   -4.1338    2.7664    1.1545 H   0  0  0  0  0  0  0  0  0  0  0  0
   -5.7779    0.8560    0.2199 N   0  0  0  0  0  0  0  0  0  0  0  0
   -6.3424   -0.1106   -0.2719 O   0  0  0  0  0  0  0  0  0  0  0  0
   -6.2869    1.8146    0.7827 O   0  0  0  0  0  0  0  0  0  0  0  0
   12.1872    0.8374   -1.0479 N   0  0  0  0  0  0  0  0  0  0  0  0
   13.2900    0.8347   -1.1258 N   0  0  0  0  0  0  0  0  0  0  0  0
  1  6  1  0  0  0  0
  2  1  2  0  0  0  0
  2  3  1  0  0  0  0
  3  4  2  0  0  0  0
  4  5  1  0  0  0  0
  4  9  1  0  0  0  0
  5 10  1  0  0  0  0
  6 11  1  0  0  0  0
  6  5  2  0  0  0  0
  7  1  1  0  0  0  0
  8  2  1  0  0  0  0
 11 13  2  0  0  0  0
 12 11  2  0  0  0  0
 15 14  3  0  0  0  0
M  RAD  1   3   2
M  END
