Coordinates from ORCA-job 4-NO2-Ph-N2+-scan-d090-169-n800
 OpenBabel09191814013D

 15 14  0  0  0  0  0  0  0  0999 V2000
   -2.7030   -0.2100   -0.5818 C   0  0  0  0  0  0  0  0  0  0  0  0
   -1.2816   -0.2540   -0.7058 C   0  0  0  0  0  0  0  0  0  0  0  0
   -0.8816    0.8695   -0.1162 C   0  0  0  0  0  0  0  0  0  0  0  0
   -1.1984    1.9924    0.5233 C   0  0  0  0  0  0  0  0  0  0  0  0
   -2.6232    1.9454    0.5974 C   0  0  0  0  0  0  0  0  0  0  0  0
   -3.3225    0.8670    0.0537 C   0  0  0  0  0  0  0  0  0  0  0  0
   -3.2868   -1.0316   -0.9925 H   0  0  0  0  0  0  0  0  0  0  0  0
   -0.7193   -1.0498   -1.1827 H   0  0  0  0  0  0  0  0  0  0  0  0
   -0.5770    2.7893    0.9178 H   0  0  0  0  0  0  0  0  0  0  0  0
   -3.1461    2.7658    1.0851 H   0  0  0  0  0  0  0  0  0  0  0  0
   -4.8054    0.8655    0.1569 N   0  0  0  0  0  0  0  0  0  0  0  0
   -5.3778   -0.0977   -0.3324 O   0  0  0  0  0  0  0  0  0  0  0  0
   -5.3064    1.8276    0.7210 O   0  0  0  0  0  0  0  0  0  0  0  0
    5.8690    0.8615   -0.5927 N   0  0  0  0  0  0  0  0  0  0  0  0
    6.9717    0.8606   -0.6700 N   0  0  0  0  0  0  0  0  0  0  0  0
  1  6  1  0  0  0  0
  2  1  2  0  0  0  0
  2  3  1  0  0  0  0
  3  4  2  0  0  0  0
  4  5  1  0  0  0  0
  4  9  1  0  0  0  0
  5 10  1  0  0  0  0
  6 11  1  0  0  0  0
  6  5  2  0  0  0  0
  7  1  1  0  0  0  0
  8  2  1  0  0  0  0
 11 13  2  0  0  0  0
 12 11  2  0  0  0  0
 15 14  3  0  0  0  0
M  RAD  1   3   2
M  END
