Coordinates from ORCA-job 4-NO2-Ph-N2+-scan-d090-169-n800
 OpenBabel09191814013D

 15 14  0  0  0  0  0  0  0  0999 V2000
   -2.4990   -0.2106   -0.5964 C   0  0  0  0  0  0  0  0  0  0  0  0
   -1.0777   -0.2556   -0.7208 C   0  0  0  0  0  0  0  0  0  0  0  0
   -0.6766    0.8677   -0.1315 C   0  0  0  0  0  0  0  0  0  0  0  0
   -0.9924    1.9908    0.5081 C   0  0  0  0  0  0  0  0  0  0  0  0
   -2.4171    1.9449    0.5828 C   0  0  0  0  0  0  0  0  0  0  0  0
   -3.1174    0.8669    0.0393 C   0  0  0  0  0  0  0  0  0  0  0  0
   -3.0836   -1.0317   -1.0068 H   0  0  0  0  0  0  0  0  0  0  0  0
   -0.5157   -1.0515   -1.1978 H   0  0  0  0  0  0  0  0  0  0  0  0
   -0.3700    2.7871    0.9022 H   0  0  0  0  0  0  0  0  0  0  0  0
   -2.9395    2.7656    1.0706 H   0  0  0  0  0  0  0  0  0  0  0  0
   -4.6003    0.8665    0.1430 N   0  0  0  0  0  0  0  0  0  0  0  0
   -5.1736   -0.0963   -0.3461 O   0  0  0  0  0  0  0  0  0  0  0  0
   -5.1005    1.8289    0.7072 O   0  0  0  0  0  0  0  0  0  0  0  0
    4.5360    0.8646   -0.4977 N   0  0  0  0  0  0  0  0  0  0  0  0
    5.6387    0.8641   -0.5749 N   0  0  0  0  0  0  0  0  0  0  0  0
  1  6  1  0  0  0  0
  2  1  2  0  0  0  0
  2  3  1  0  0  0  0
  3  4  2  0  0  0  0
  4  5  1  0  0  0  0
  4  9  1  0  0  0  0
  5 10  1  0  0  0  0
  6 11  1  0  0  0  0
  6  5  2  0  0  0  0
  7  1  1  0  0  0  0
  8  2  1  0  0  0  0
 11 13  2  0  0  0  0
 12 11  2  0  0  0  0
 15 14  3  0  0  0  0
M  RAD  1   3   2
M  END
