Coordinates from ORCA-job 4-NO2-Ph-N2+-scan-d090-169-n800
 OpenBabel09191814003D

 15 15  0  0  0  0  0  0  0  0999 V2000
   -2.0558   -0.2118   -0.6281 C   0  0  0  0  0  0  0  0  0  0  0  0
   -0.6599   -0.2366   -0.7394 C   0  0  0  0  0  0  0  0  0  0  0  0
   -0.0650    0.8667   -0.1746 C   0  0  0  0  0  0  0  0  0  0  0  0
   -0.5751    1.9700    0.4676 C   0  0  0  0  0  0  0  0  0  0  0  0
   -1.9729    1.9454    0.5520 C   0  0  0  0  0  0  0  0  0  0  0  0
   -2.6704    0.8669    0.0079 C   0  0  0  0  0  0  0  0  0  0  0  0
   -2.6603   -1.0182   -1.0290 H   0  0  0  0  0  0  0  0  0  0  0  0
   -0.1240   -1.0452   -1.2214 H   0  0  0  0  0  0  0  0  0  0  0  0
    0.0228    2.7785    0.8702 H   0  0  0  0  0  0  0  0  0  0  0  0
   -2.5155    2.7519    1.0333 H   0  0  0  0  0  0  0  0  0  0  0  0
   -4.1580    0.8670    0.1122 N   0  0  0  0  0  0  0  0  0  0  0  0
   -4.7370   -0.0938   -0.3755 O   0  0  0  0  0  0  0  0  0  0  0  0
   -4.6632    1.8279    0.6758 O   0  0  0  0  0  0  0  0  0  0  0  0
    1.6718    0.8665   -0.2963 N   0  0  0  0  0  0  0  0  0  0  0  0
    2.7739    0.8664   -0.3735 N   0  0  0  0  0  0  0  0  0  0  0  0
  1  6  1  0  0  0  0
  2  1  2  0  0  0  0
  2  3  1  0  0  0  0
  3  4  2  0  0  0  0
  4  5  1  0  0  0  0
  4  9  1  0  0  0  0
  5 10  1  0  0  0  0
  6 11  1  0  0  0  0
  6  5  2  0  0  0  0
  7  1  1  0  0  0  0
  8  2  1  0  0  0  0
 11 13  2  0  0  0  0
 12 11  2  0  0  0  0
 14  3  1  0  0  0  0
 15 14  1  0  0  0  0
M  RAD  2  14   2  15   3
M  END
