Coordinates from ORCA-job 4-NO2-Ph-N2+-scan-d090-169-n800
 OpenBabel09191814013D

 15 14  0  0  0  0  0  0  0  0999 V2000
   -3.9160   -0.2044   -0.4939 C   0  0  0  0  0  0  0  0  0  0  0  0
   -2.4937   -0.2362   -0.6113 C   0  0  0  0  0  0  0  0  0  0  0  0
   -2.1059    0.8904   -0.0193 C   0  0  0  0  0  0  0  0  0  0  0  0
   -2.4355    2.0100    0.6194 C   0  0  0  0  0  0  0  0  0  0  0  0
   -3.8601    1.9508    0.6869 C   0  0  0  0  0  0  0  0  0  0  0  0
   -4.5477    0.8668    0.1393 C   0  0  0  0  0  0  0  0  0  0  0  0
   -4.4908   -1.0308   -0.9078 H   0  0  0  0  0  0  0  0  0  0  0  0
   -1.9226   -1.0270   -1.0861 H   0  0  0  0  0  0  0  0  0  0  0  0
   -1.8231    2.8122    1.0174 H   0  0  0  0  0  0  0  0  0  0  0  0
   -4.3923    2.7664    1.1726 H   0  0  0  0  0  0  0  0  0  0  0  0
   -6.0310    0.8525    0.2356 N   0  0  0  0  0  0  0  0  0  0  0  0
   -6.5927   -0.1153   -0.2570 O   0  0  0  0  0  0  0  0  0  0  0  0
   -6.5428    1.8099    0.7979 O   0  0  0  0  0  0  0  0  0  0  0  0
   13.8314    0.8262   -1.1692 N   0  0  0  0  0  0  0  0  0  0  0  0
   14.9344    0.8300   -1.2434 N   0  0  0  0  0  0  0  0  0  0  0  0
  1  6  1  0  0  0  0
  2  1  2  0  0  0  0
  2  3  1  0  0  0  0
  3  4  2  0  0  0  0
  4  5  1  0  0  0  0
  4  9  1  0  0  0  0
  5 10  1  0  0  0  0
  6 11  1  0  0  0  0
  6  5  2  0  0  0  0
  7  1  1  0  0  0  0
  8  2  1  0  0  0  0
 11 13  2  0  0  0  0
 12 11  2  0  0  0  0
 15 14  3  0  0  0  0
M  RAD  1   3   2
M  END
