Coordinates from ORCA-job 4-NO2-Ph-N2+-scan-d090-169-n800
 OpenBabel09191814013D

 15 14  0  0  0  0  0  0  0  0999 V2000
   -2.7904   -0.2097   -0.5756 C   0  0  0  0  0  0  0  0  0  0  0  0
   -1.3690   -0.2530   -0.6991 C   0  0  0  0  0  0  0  0  0  0  0  0
   -0.9692    0.8705   -0.1096 C   0  0  0  0  0  0  0  0  0  0  0  0
   -1.2869    1.9930    0.5298 C   0  0  0  0  0  0  0  0  0  0  0  0
   -2.7116    1.9457    0.6038 C   0  0  0  0  0  0  0  0  0  0  0  0
   -3.4105    0.8671    0.0599 C   0  0  0  0  0  0  0  0  0  0  0  0
   -3.3736   -1.0316   -0.9865 H   0  0  0  0  0  0  0  0  0  0  0  0
   -0.8065   -1.0486   -1.1760 H   0  0  0  0  0  0  0  0  0  0  0  0
   -0.6662    2.7904    0.9245 H   0  0  0  0  0  0  0  0  0  0  0  0
   -3.2347    2.7660    1.0914 H   0  0  0  0  0  0  0  0  0  0  0  0
   -4.8934    0.8649    0.1628 N   0  0  0  0  0  0  0  0  0  0  0  0
   -5.4653   -0.0985   -0.3267 O   0  0  0  0  0  0  0  0  0  0  0  0
   -5.3949    1.8268    0.7268 O   0  0  0  0  0  0  0  0  0  0  0  0
    6.4405    0.8598   -0.6336 N   0  0  0  0  0  0  0  0  0  0  0  0
    7.5432    0.8587   -0.7109 N   0  0  0  0  0  0  0  0  0  0  0  0
  1  6  1  0  0  0  0
  2  1  2  0  0  0  0
  2  3  1  0  0  0  0
  3  4  2  0  0  0  0
  4  5  1  0  0  0  0
  4  9  1  0  0  0  0
  5 10  1  0  0  0  0
  6 11  1  0  0  0  0
  6  5  2  0  0  0  0
  7  1  1  0  0  0  0
  8  2  1  0  0  0  0
 11 13  2  0  0  0  0
 12 11  2  0  0  0  0
 15 14  3  0  0  0  0
M  RAD  1   3   2
M  END
