Coordinates from ORCA-job 4-NO2-Ph-N2+-scan-d090-169-n800
 OpenBabel09191814013D

 15 14  0  0  0  0  0  0  0  0999 V2000
   -2.8088   -0.2097   -0.5743 C   0  0  0  0  0  0  0  0  0  0  0  0
   -1.3872   -0.2532   -0.6980 C   0  0  0  0  0  0  0  0  0  0  0  0
   -0.9886    0.8708   -0.1081 C   0  0  0  0  0  0  0  0  0  0  0  0
   -1.3053    1.9936    0.5314 C   0  0  0  0  0  0  0  0  0  0  0  0
   -2.7303    1.9458    0.6051 C   0  0  0  0  0  0  0  0  0  0  0  0
   -3.4289    0.8671    0.0612 C   0  0  0  0  0  0  0  0  0  0  0  0
   -3.3923   -1.0314   -0.9851 H   0  0  0  0  0  0  0  0  0  0  0  0
   -0.8242   -1.0485   -1.1747 H   0  0  0  0  0  0  0  0  0  0  0  0
   -0.6843    2.7907    0.9260 H   0  0  0  0  0  0  0  0  0  0  0  0
   -3.2539    2.7659    1.0927 H   0  0  0  0  0  0  0  0  0  0  0  0
   -4.9119    0.8648    0.1640 N   0  0  0  0  0  0  0  0  0  0  0  0
   -5.4836   -0.0987   -0.3255 O   0  0  0  0  0  0  0  0  0  0  0  0
   -5.4134    1.8266    0.7281 O   0  0  0  0  0  0  0  0  0  0  0  0
    6.5608    0.8595   -0.6422 N   0  0  0  0  0  0  0  0  0  0  0  0
    7.6636    0.8583   -0.7196 N   0  0  0  0  0  0  0  0  0  0  0  0
  1  6  1  0  0  0  0
  2  1  2  0  0  0  0
  2  3  1  0  0  0  0
  3  4  2  0  0  0  0
  4  5  1  0  0  0  0
  4  9  1  0  0  0  0
  5 10  1  0  0  0  0
  6 11  1  0  0  0  0
  6  5  2  0  0  0  0
  7  1  1  0  0  0  0
  8  2  1  0  0  0  0
 11 13  2  0  0  0  0
 12 11  2  0  0  0  0
 15 14  3  0  0  0  0
M  RAD  1   3   2
M  END
