Coordinates from ORCA-job 4-NO2-Ph-N2+-scan-d090-169-n800
 OpenBabel09191814003D

 15 14  0  0  0  0  0  0  0  0999 V2000
   -2.2102   -0.2110   -0.6168 C   0  0  0  0  0  0  0  0  0  0  0  0
   -0.7908   -0.2551   -0.7404 C   0  0  0  0  0  0  0  0  0  0  0  0
   -0.3780    0.8667   -0.1527 C   0  0  0  0  0  0  0  0  0  0  0  0
   -0.7046    1.9885    0.4869 C   0  0  0  0  0  0  0  0  0  0  0  0
   -2.1274    1.9447    0.5624 C   0  0  0  0  0  0  0  0  0  0  0  0
   -2.8279    0.8669    0.0190 C   0  0  0  0  0  0  0  0  0  0  0  0
   -2.7969   -1.0306   -1.0262 H   0  0  0  0  0  0  0  0  0  0  0  0
   -0.2288   -1.0503   -1.2170 H   0  0  0  0  0  0  0  0  0  0  0  0
   -0.0816    2.7837    0.8803 H   0  0  0  0  0  0  0  0  0  0  0  0
   -2.6512    2.7643    1.0496 H   0  0  0  0  0  0  0  0  0  0  0  0
   -4.3108    0.8670    0.1229 N   0  0  0  0  0  0  0  0  0  0  0  0
   -4.8855   -0.0953   -0.3659 O   0  0  0  0  0  0  0  0  0  0  0  0
   -4.8116    1.8293    0.6870 O   0  0  0  0  0  0  0  0  0  0  0  0
    2.6572    0.8664   -0.3654 N   0  0  0  0  0  0  0  0  0  0  0  0
    3.7595    0.8663   -0.4425 N   0  0  0  0  0  0  0  0  0  0  0  0
  1  6  1  0  0  0  0
  2  1  2  0  0  0  0
  2  3  1  0  0  0  0
  3  4  2  0  0  0  0
  4  5  1  0  0  0  0
  4  9  1  0  0  0  0
  5 10  1  0  0  0  0
  6 11  1  0  0  0  0
  6  5  2  0  0  0  0
  7  1  1  0  0  0  0
  8  2  1  0  0  0  0
 11 13  2  0  0  0  0
 12 11  2  0  0  0  0
 15 14  3  0  0  0  0
M  RAD  1   3   2
M  END
