Coordinates from ORCA-job 4-NO2-Ph-N2+-scan-d090-169-n800
 OpenBabel09191814013D

 15 14  0  0  0  0  0  0  0  0999 V2000
   -3.7688   -0.2053   -0.5047 C   0  0  0  0  0  0  0  0  0  0  0  0
   -2.3466   -0.2390   -0.6232 C   0  0  0  0  0  0  0  0  0  0  0  0
   -1.9569    0.8871   -0.0315 C   0  0  0  0  0  0  0  0  0  0  0  0
   -2.2843    2.0073    0.6073 C   0  0  0  0  0  0  0  0  0  0  0  0
   -3.7091    1.9500    0.6759 C   0  0  0  0  0  0  0  0  0  0  0  0
   -4.3985    0.8669    0.1289 C   0  0  0  0  0  0  0  0  0  0  0  0
   -4.3451   -1.0308   -0.9180 H   0  0  0  0  0  0  0  0  0  0  0  0
   -1.7771   -1.0306   -1.0983 H   0  0  0  0  0  0  0  0  0  0  0  0
   -1.6706    2.8086    1.0047 H   0  0  0  0  0  0  0  0  0  0  0  0
   -4.2397    2.7664    1.1620 H   0  0  0  0  0  0  0  0  0  0  0  0
   -5.8818    0.8547    0.2264 N   0  0  0  0  0  0  0  0  0  0  0  0
   -6.4452   -0.1124   -0.2657 O   0  0  0  0  0  0  0  0  0  0  0  0
   -6.3918    1.8128    0.7890 O   0  0  0  0  0  0  0  0  0  0  0  0
   12.8622    0.8326   -1.0979 N   0  0  0  0  0  0  0  0  0  0  0  0
   13.9650    0.8333   -1.1738 N   0  0  0  0  0  0  0  0  0  0  0  0
  1  6  1  0  0  0  0
  2  1  2  0  0  0  0
  2  3  1  0  0  0  0
  3  4  2  0  0  0  0
  4  5  1  0  0  0  0
  4  9  1  0  0  0  0
  5 10  1  0  0  0  0
  6 11  1  0  0  0  0
  6  5  2  0  0  0  0
  7  1  1  0  0  0  0
  8  2  1  0  0  0  0
 11 13  2  0  0  0  0
 12 11  2  0  0  0  0
 15 14  3  0  0  0  0
M  RAD  1   3   2
M  END
