Coordinates from ORCA-job 4-NO2-Ph-N2+-scan-d090-169-n800
 OpenBabel09191814013D

 15 14  0  0  0  0  0  0  0  0999 V2000
   -3.1894   -0.2081   -0.5468 C   0  0  0  0  0  0  0  0  0  0  0  0
   -1.7677   -0.2484   -0.6688 C   0  0  0  0  0  0  0  0  0  0  0  0
   -1.3712    0.8761   -0.0785 C   0  0  0  0  0  0  0  0  0  0  0  0
   -1.6921    1.9980    0.5607 C   0  0  0  0  0  0  0  0  0  0  0  0
   -3.1168    1.9472    0.6329 C   0  0  0  0  0  0  0  0  0  0  0  0
   -3.8126    0.8671    0.0881 C   0  0  0  0  0  0  0  0  0  0  0  0
   -3.7704   -1.0312   -0.9584 H   0  0  0  0  0  0  0  0  0  0  0  0
   -1.2029   -1.0427   -1.1451 H   0  0  0  0  0  0  0  0  0  0  0  0
   -1.0737    2.7966    0.9564 H   0  0  0  0  0  0  0  0  0  0  0  0
   -3.6426    2.7662    1.1201 H   0  0  0  0  0  0  0  0  0  0  0  0
   -5.2957    0.8616    0.1892 N   0  0  0  0  0  0  0  0  0  0  0  0
   -5.8647   -0.1030   -0.3011 O   0  0  0  0  0  0  0  0  0  0  0  0
   -5.7999    1.8223    0.7528 O   0  0  0  0  0  0  0  0  0  0  0  0
    9.0542    0.8508   -0.8214 N   0  0  0  0  0  0  0  0  0  0  0  0
   10.1570    0.8489   -0.8990 N   0  0  0  0  0  0  0  0  0  0  0  0
  1  6  1  0  0  0  0
  2  1  2  0  0  0  0
  2  3  1  0  0  0  0
  3  4  2  0  0  0  0
  4  5  1  0  0  0  0
  4  9  1  0  0  0  0
  5 10  1  0  0  0  0
  6 11  1  0  0  0  0
  6  5  2  0  0  0  0
  7  1  1  0  0  0  0
  8  2  1  0  0  0  0
 11 13  2  0  0  0  0
 12 11  2  0  0  0  0
 15 14  3  0  0  0  0
M  RAD  1   3   2
M  END
