Coordinates from ORCA-job 4-NO2-Ph-N2+-scan-d090-169-n800
 OpenBabel09191814013D

 15 14  0  0  0  0  0  0  0  0999 V2000
   -2.9279   -0.2092   -0.5657 C   0  0  0  0  0  0  0  0  0  0  0  0
   -1.5064   -0.2516   -0.6888 C   0  0  0  0  0  0  0  0  0  0  0  0
   -1.1077    0.8723   -0.0990 C   0  0  0  0  0  0  0  0  0  0  0  0
   -1.4263    1.9946    0.5403 C   0  0  0  0  0  0  0  0  0  0  0  0
   -2.8510    1.9462    0.6138 C   0  0  0  0  0  0  0  0  0  0  0  0
   -3.5490    0.8671    0.0696 C   0  0  0  0  0  0  0  0  0  0  0  0
   -3.5105   -1.0314   -0.9768 H   0  0  0  0  0  0  0  0  0  0  0  0
   -0.9432   -1.0468   -1.1655 H   0  0  0  0  0  0  0  0  0  0  0  0
   -0.8063    2.7924    0.9353 H   0  0  0  0  0  0  0  0  0  0  0  0
   -3.3750    2.7661    1.1013 H   0  0  0  0  0  0  0  0  0  0  0  0
   -5.0320    0.8639    0.1720 N   0  0  0  0  0  0  0  0  0  0  0  0
   -5.6029   -0.0999   -0.3177 O   0  0  0  0  0  0  0  0  0  0  0  0
   -5.5342    1.8254    0.7359 O   0  0  0  0  0  0  0  0  0  0  0  0
    7.3406    0.8570   -0.6981 N   0  0  0  0  0  0  0  0  0  0  0  0
    8.4433    0.8556   -0.7756 N   0  0  0  0  0  0  0  0  0  0  0  0
  1  6  1  0  0  0  0
  2  1  2  0  0  0  0
  2  3  1  0  0  0  0
  3  4  2  0  0  0  0
  4  5  1  0  0  0  0
  4  9  1  0  0  0  0
  5 10  1  0  0  0  0
  6 11  1  0  0  0  0
  6  5  2  0  0  0  0
  7  1  1  0  0  0  0
  8  2  1  0  0  0  0
 11 13  2  0  0  0  0
 12 11  2  0  0  0  0
 15 14  3  0  0  0  0
M  RAD  1   3   2
M  END
