Coordinates from ORCA-job 4-NO2-Ph-N2+-scan-d090-169-n800
 OpenBabel09191814013D

 15 14  0  0  0  0  0  0  0  0999 V2000
   -2.5387   -0.2105   -0.5936 C   0  0  0  0  0  0  0  0  0  0  0  0
   -1.1174   -0.2554   -0.7179 C   0  0  0  0  0  0  0  0  0  0  0  0
   -0.7165    0.8680   -0.1285 C   0  0  0  0  0  0  0  0  0  0  0  0
   -1.0325    1.9910    0.5110 C   0  0  0  0  0  0  0  0  0  0  0  0
   -2.4572    1.9450    0.5856 C   0  0  0  0  0  0  0  0  0  0  0  0
   -3.1574    0.8670    0.0421 C   0  0  0  0  0  0  0  0  0  0  0  0
   -3.1232   -1.0317   -1.0040 H   0  0  0  0  0  0  0  0  0  0  0  0
   -0.5555   -1.0513   -1.1949 H   0  0  0  0  0  0  0  0  0  0  0  0
   -0.4103    2.7874    0.9052 H   0  0  0  0  0  0  0  0  0  0  0  0
   -2.9796    2.7657    1.0734 H   0  0  0  0  0  0  0  0  0  0  0  0
   -4.6403    0.8663    0.1458 N   0  0  0  0  0  0  0  0  0  0  0  0
   -5.2134   -0.0965   -0.3434 O   0  0  0  0  0  0  0  0  0  0  0  0
   -5.1406    1.8287    0.7099 O   0  0  0  0  0  0  0  0  0  0  0  0
    4.7957    0.8641   -0.5162 N   0  0  0  0  0  0  0  0  0  0  0  0
    5.8984    0.8636   -0.5934 N   0  0  0  0  0  0  0  0  0  0  0  0
  1  6  1  0  0  0  0
  2  1  2  0  0  0  0
  2  3  1  0  0  0  0
  3  4  2  0  0  0  0
  4  5  1  0  0  0  0
  4  9  1  0  0  0  0
  5 10  1  0  0  0  0
  6 11  1  0  0  0  0
  6  5  2  0  0  0  0
  7  1  1  0  0  0  0
  8  2  1  0  0  0  0
 11 13  2  0  0  0  0
 12 11  2  0  0  0  0
 15 14  3  0  0  0  0
M  RAD  1   3   2
M  END
