Coordinates from ORCA-job 4-NO2-Ph-N2+-scan-d090-169-n800
 OpenBabel09191814013D

 15 14  0  0  0  0  0  0  0  0999 V2000
   -3.8162   -0.2050   -0.5012 C   0  0  0  0  0  0  0  0  0  0  0  0
   -2.3940   -0.2381   -0.6193 C   0  0  0  0  0  0  0  0  0  0  0  0
   -2.0046    0.8881   -0.0276 C   0  0  0  0  0  0  0  0  0  0  0  0
   -2.3330    2.0080    0.6111 C   0  0  0  0  0  0  0  0  0  0  0  0
   -3.7576    1.9502    0.6794 C   0  0  0  0  0  0  0  0  0  0  0  0
   -4.4465    0.8669    0.1323 C   0  0  0  0  0  0  0  0  0  0  0  0
   -4.3919   -1.0309   -0.9148 H   0  0  0  0  0  0  0  0  0  0  0  0
   -1.8240   -1.0295   -1.0944 H   0  0  0  0  0  0  0  0  0  0  0  0
   -1.7197    2.8097    1.0087 H   0  0  0  0  0  0  0  0  0  0  0  0
   -4.2886    2.7665    1.1654 H   0  0  0  0  0  0  0  0  0  0  0  0
   -5.9298    0.8540    0.2294 N   0  0  0  0  0  0  0  0  0  0  0  0
   -6.4927   -0.1132   -0.2629 O   0  0  0  0  0  0  0  0  0  0  0  0
   -6.4404    1.8120    0.7919 O   0  0  0  0  0  0  0  0  0  0  0  0
   13.1738    0.8305   -1.1208 N   0  0  0  0  0  0  0  0  0  0  0  0
   14.2767    0.8324   -1.1961 N   0  0  0  0  0  0  0  0  0  0  0  0
  1  6  1  0  0  0  0
  2  1  2  0  0  0  0
  2  3  1  0  0  0  0
  3  4  2  0  0  0  0
  4  5  1  0  0  0  0
  4  9  1  0  0  0  0
  5 10  1  0  0  0  0
  6 11  1  0  0  0  0
  6  5  2  0  0  0  0
  7  1  1  0  0  0  0
  8  2  1  0  0  0  0
 11 13  2  0  0  0  0
 12 11  2  0  0  0  0
 15 14  3  0  0  0  0
M  RAD  1   3   2
M  END
