Coordinates from ORCA-job 4-NO2-Ph-N2+-scan-d090-169-n800
 OpenBabel09191814013D

 15 14  0  0  0  0  0  0  0  0999 V2000
   -3.0838   -0.2086   -0.5544 C   0  0  0  0  0  0  0  0  0  0  0  0
   -1.6621   -0.2498   -0.6770 C   0  0  0  0  0  0  0  0  0  0  0  0
   -1.2648    0.8745   -0.0868 C   0  0  0  0  0  0  0  0  0  0  0  0
   -1.5846    1.9966    0.5525 C   0  0  0  0  0  0  0  0  0  0  0  0
   -3.0094    1.9468    0.6252 C   0  0  0  0  0  0  0  0  0  0  0  0
   -3.7061    0.8671    0.0806 C   0  0  0  0  0  0  0  0  0  0  0  0
   -3.6655   -1.0313   -0.9658 H   0  0  0  0  0  0  0  0  0  0  0  0
   -1.0980   -1.0445   -1.1534 H   0  0  0  0  0  0  0  0  0  0  0  0
   -0.9655    2.7948    0.9478 H   0  0  0  0  0  0  0  0  0  0  0  0
   -3.5344    2.7661    1.1125 H   0  0  0  0  0  0  0  0  0  0  0  0
   -5.1891    0.8626    0.1823 N   0  0  0  0  0  0  0  0  0  0  0  0
   -5.7590   -0.1016   -0.3078 O   0  0  0  0  0  0  0  0  0  0  0  0
   -5.6925    1.8236    0.7460 O   0  0  0  0  0  0  0  0  0  0  0  0
    8.3618    0.8534   -0.7715 N   0  0  0  0  0  0  0  0  0  0  0  0
    9.4645    0.8517   -0.8491 N   0  0  0  0  0  0  0  0  0  0  0  0
  1  6  1  0  0  0  0
  2  1  2  0  0  0  0
  2  3  1  0  0  0  0
  3  4  2  0  0  0  0
  4  5  1  0  0  0  0
  4  9  1  0  0  0  0
  5 10  1  0  0  0  0
  6 11  1  0  0  0  0
  6  5  2  0  0  0  0
  7  1  1  0  0  0  0
  8  2  1  0  0  0  0
 11 13  2  0  0  0  0
 12 11  2  0  0  0  0
 15 14  3  0  0  0  0
M  RAD  1   3   2
M  END
