Coordinates from ORCA-job 4-NO2-Ph-N2+-scan-d090-169-n800
 OpenBabel09191814013D

 15 14  0  0  0  0  0  0  0  0999 V2000
   -3.2791   -0.2077   -0.5403 C   0  0  0  0  0  0  0  0  0  0  0  0
   -1.8574   -0.2470   -0.6618 C   0  0  0  0  0  0  0  0  0  0  0  0
   -1.4617    0.8776   -0.0714 C   0  0  0  0  0  0  0  0  0  0  0  0
   -1.7835    1.9992    0.5678 C   0  0  0  0  0  0  0  0  0  0  0  0
   -3.2082    1.9476    0.6395 C   0  0  0  0  0  0  0  0  0  0  0  0
   -3.9032    0.8671    0.0944 C   0  0  0  0  0  0  0  0  0  0  0  0
   -3.8594   -1.0312   -0.9522 H   0  0  0  0  0  0  0  0  0  0  0  0
   -1.2919   -1.0410   -1.1380 H   0  0  0  0  0  0  0  0  0  0  0  0
   -1.1658    2.7982    0.9637 H   0  0  0  0  0  0  0  0  0  0  0  0
   -3.7346    2.7663    1.1266 H   0  0  0  0  0  0  0  0  0  0  0  0
   -5.3863    0.8607    0.1951 N   0  0  0  0  0  0  0  0  0  0  0  0
   -5.9546   -0.1042   -0.2955 O   0  0  0  0  0  0  0  0  0  0  0  0
   -5.8913    1.8210    0.7585 O   0  0  0  0  0  0  0  0  0  0  0  0
    9.6428    0.8485   -0.8638 N   0  0  0  0  0  0  0  0  0  0  0  0
   10.7456    0.8464   -0.9415 N   0  0  0  0  0  0  0  0  0  0  0  0
  1  6  1  0  0  0  0
  2  1  2  0  0  0  0
  2  3  1  0  0  0  0
  3  4  2  0  0  0  0
  4  5  1  0  0  0  0
  4  9  1  0  0  0  0
  5 10  1  0  0  0  0
  6 11  1  0  0  0  0
  6  5  2  0  0  0  0
  7  1  1  0  0  0  0
  8  2  1  0  0  0  0
 11 13  2  0  0  0  0
 12 11  2  0  0  0  0
 15 14  3  0  0  0  0
M  RAD  1   3   2
M  END
