Coordinates from ORCA-job 4-NO2-Ph-N2+-scan-d090-169-n800
 OpenBabel09191814003D

 15 14  0  0  0  0  0  0  0  0999 V2000
   -2.0786   -0.2112   -0.6261 C   0  0  0  0  0  0  0  0  0  0  0  0
   -0.6753   -0.2430   -0.7419 C   0  0  0  0  0  0  0  0  0  0  0  0
   -0.1392    0.8667   -0.1694 C   0  0  0  0  0  0  0  0  0  0  0  0
   -0.5900    1.9764    0.4722 C   0  0  0  0  0  0  0  0  0  0  0  0
   -1.9958    1.9448    0.5532 C   0  0  0  0  0  0  0  0  0  0  0  0
   -2.6940    0.8669    0.0096 C   0  0  0  0  0  0  0  0  0  0  0  0
   -2.6779   -1.0214   -1.0296 H   0  0  0  0  0  0  0  0  0  0  0  0
   -0.1328   -1.0476   -1.2222 H   0  0  0  0  0  0  0  0  0  0  0  0
    0.0142    2.7810    0.8722 H   0  0  0  0  0  0  0  0  0  0  0  0
   -2.5328    2.7551    1.0363 H   0  0  0  0  0  0  0  0  0  0  0  0
   -4.1798    0.8670    0.1137 N   0  0  0  0  0  0  0  0  0  0  0  0
   -4.7581   -0.0941   -0.3742 O   0  0  0  0  0  0  0  0  0  0  0  0
   -4.6843    1.8281    0.6774 O   0  0  0  0  0  0  0  0  0  0  0  0
    1.8173    0.8665   -0.3065 N   0  0  0  0  0  0  0  0  0  0  0  0
    2.9186    0.8664   -0.3836 N   0  0  0  0  0  0  0  0  0  0  0  0
  1  6  1  0  0  0  0
  2  1  2  0  0  0  0
  2  3  1  0  0  0  0
  3  4  2  0  0  0  0
  4  5  1  0  0  0  0
  4  9  1  0  0  0  0
  5 10  1  0  0  0  0
  6 11  1  0  0  0  0
  6  5  2  0  0  0  0
  7  1  1  0  0  0  0
  8  2  1  0  0  0  0
 11 13  2  0  0  0  0
 12 11  2  0  0  0  0
 15 14  3  0  0  0  0
M  RAD  1   3   2
M  END
