Coordinates from ORCA-job 4-NO2-Ph-N2+-scan-d090-169-n800
 OpenBabel09191814013D

 15 14  0  0  0  0  0  0  0  0999 V2000
   -2.7109   -0.2100   -0.5813 C   0  0  0  0  0  0  0  0  0  0  0  0
   -1.2894   -0.2541   -0.7053 C   0  0  0  0  0  0  0  0  0  0  0  0
   -0.8900    0.8696   -0.1156 C   0  0  0  0  0  0  0  0  0  0  0  0
   -1.2062    1.9926    0.5239 C   0  0  0  0  0  0  0  0  0  0  0  0
   -2.6311    1.9454    0.5980 C   0  0  0  0  0  0  0  0  0  0  0  0
   -3.3304    0.8670    0.0543 C   0  0  0  0  0  0  0  0  0  0  0  0
   -3.2949   -1.0315   -0.9919 H   0  0  0  0  0  0  0  0  0  0  0  0
   -0.7269   -1.0497   -1.1821 H   0  0  0  0  0  0  0  0  0  0  0  0
   -0.5848    2.7894    0.9184 H   0  0  0  0  0  0  0  0  0  0  0  0
   -3.1543    2.7658    1.0857 H   0  0  0  0  0  0  0  0  0  0  0  0
   -4.8133    0.8654    0.1575 N   0  0  0  0  0  0  0  0  0  0  0  0
   -5.3856   -0.0977   -0.3319 O   0  0  0  0  0  0  0  0  0  0  0  0
   -5.3144    1.8275    0.7215 O   0  0  0  0  0  0  0  0  0  0  0  0
    5.9205    0.8614   -0.5964 N   0  0  0  0  0  0  0  0  0  0  0  0
    7.0232    0.8604   -0.6737 N   0  0  0  0  0  0  0  0  0  0  0  0
  1  6  1  0  0  0  0
  2  1  2  0  0  0  0
  2  3  1  0  0  0  0
  3  4  2  0  0  0  0
  4  5  1  0  0  0  0
  4  9  1  0  0  0  0
  5 10  1  0  0  0  0
  6 11  1  0  0  0  0
  6  5  2  0  0  0  0
  7  1  1  0  0  0  0
  8  2  1  0  0  0  0
 11 13  2  0  0  0  0
 12 11  2  0  0  0  0
 15 14  3  0  0  0  0
M  RAD  1   3   2
M  END
