Coordinates from ORCA-job 4-NO2-Ph-N2+-scan-d090-169-n800
 OpenBabel09191814003D

 15 14  0  0  0  0  0  0  0  0999 V2000
   -2.1739   -0.2110   -0.6193 C   0  0  0  0  0  0  0  0  0  0  0  0
   -0.7561   -0.2540   -0.7423 C   0  0  0  0  0  0  0  0  0  0  0  0
   -0.3316    0.8667   -0.1560 C   0  0  0  0  0  0  0  0  0  0  0  0
   -0.6700    1.9874    0.4838 C   0  0  0  0  0  0  0  0  0  0  0  0
   -2.0912    1.9446    0.5598 C   0  0  0  0  0  0  0  0  0  0  0  0
   -2.7915    0.8669    0.0164 C   0  0  0  0  0  0  0  0  0  0  0  0
   -2.7619   -1.0296   -1.0282 H   0  0  0  0  0  0  0  0  0  0  0  0
   -0.1965   -1.0502   -1.2191 H   0  0  0  0  0  0  0  0  0  0  0  0
   -0.0492    2.7835    0.8780 H   0  0  0  0  0  0  0  0  0  0  0  0
   -2.6163    2.7633    1.0466 H   0  0  0  0  0  0  0  0  0  0  0  0
   -4.2746    0.8670    0.1203 N   0  0  0  0  0  0  0  0  0  0  0  0
   -4.8498   -0.0952   -0.3683 O   0  0  0  0  0  0  0  0  0  0  0  0
   -4.7759    1.8292    0.6844 O   0  0  0  0  0  0  0  0  0  0  0  0
    2.4240    0.8664   -0.3490 N   0  0  0  0  0  0  0  0  0  0  0  0
    3.5260    0.8664   -0.4262 N   0  0  0  0  0  0  0  0  0  0  0  0
  1  6  1  0  0  0  0
  2  1  2  0  0  0  0
  2  3  1  0  0  0  0
  3  4  2  0  0  0  0
  4  5  1  0  0  0  0
  4  9  1  0  0  0  0
  5 10  1  0  0  0  0
  6 11  1  0  0  0  0
  6  5  2  0  0  0  0
  7  1  1  0  0  0  0
  8  2  1  0  0  0  0
 11 13  2  0  0  0  0
 12 11  2  0  0  0  0
 15 14  3  0  0  0  0
M  RAD  1   3   2
M  END
