Coordinates from ORCA-job 4-NO2-Ph-N2+-scan-d090-169-n800
 OpenBabel09191814013D

 15 14  0  0  0  0  0  0  0  0999 V2000
   -3.3924   -0.2072   -0.5321 C   0  0  0  0  0  0  0  0  0  0  0  0
   -1.9706   -0.2453   -0.6529 C   0  0  0  0  0  0  0  0  0  0  0  0
   -1.5761    0.8796   -0.0622 C   0  0  0  0  0  0  0  0  0  0  0  0
   -1.8992    2.0009    0.5768 C   0  0  0  0  0  0  0  0  0  0  0  0
   -3.3239    1.9481    0.6479 C   0  0  0  0  0  0  0  0  0  0  0  0
   -4.0177    0.8671    0.1024 C   0  0  0  0  0  0  0  0  0  0  0  0
   -3.9718   -1.0311   -0.9443 H   0  0  0  0  0  0  0  0  0  0  0  0
   -1.4043   -1.0388   -1.1289 H   0  0  0  0  0  0  0  0  0  0  0  0
   -1.2823    2.8004    0.9730 H   0  0  0  0  0  0  0  0  0  0  0  0
   -3.8511    2.7663    1.1348 H   0  0  0  0  0  0  0  0  0  0  0  0
   -5.5009    0.8595    0.2024 N   0  0  0  0  0  0  0  0  0  0  0  0
   -6.0681   -0.1059   -0.2885 O   0  0  0  0  0  0  0  0  0  0  0  0
   -6.0069    1.8194    0.7656 O   0  0  0  0  0  0  0  0  0  0  0  0
   10.3872    0.8455   -0.9176 N   0  0  0  0  0  0  0  0  0  0  0  0
   11.4899    0.8432   -0.9954 N   0  0  0  0  0  0  0  0  0  0  0  0
  1  6  1  0  0  0  0
  2  1  2  0  0  0  0
  2  3  1  0  0  0  0
  3  4  2  0  0  0  0
  4  5  1  0  0  0  0
  4  9  1  0  0  0  0
  5 10  1  0  0  0  0
  6 11  1  0  0  0  0
  6  5  2  0  0  0  0
  7  1  1  0  0  0  0
  8  2  1  0  0  0  0
 11 13  2  0  0  0  0
 12 11  2  0  0  0  0
 15 14  3  0  0  0  0
M  RAD  1   3   2
M  END
