Coordinates from ORCA-job 4-NO2-Ph-N2+-scan-d090-169-n800
 OpenBabel09191814013D

 15 14  0  0  0  0  0  0  0  0999 V2000
   -2.4909   -0.2106   -0.5970 C   0  0  0  0  0  0  0  0  0  0  0  0
   -1.0695   -0.2557   -0.7214 C   0  0  0  0  0  0  0  0  0  0  0  0
   -0.6693    0.8677   -0.1320 C   0  0  0  0  0  0  0  0  0  0  0  0
   -0.9842    1.9908    0.5075 C   0  0  0  0  0  0  0  0  0  0  0  0
   -2.4090    1.9449    0.5822 C   0  0  0  0  0  0  0  0  0  0  0  0
   -3.1093    0.8670    0.0387 C   0  0  0  0  0  0  0  0  0  0  0  0
   -3.0756   -1.0317   -1.0074 H   0  0  0  0  0  0  0  0  0  0  0  0
   -0.5071   -1.0514   -1.1983 H   0  0  0  0  0  0  0  0  0  0  0  0
   -0.3614    2.7868    0.9014 H   0  0  0  0  0  0  0  0  0  0  0  0
   -2.9314    2.7656    1.0700 H   0  0  0  0  0  0  0  0  0  0  0  0
   -4.5922    0.8665    0.1424 N   0  0  0  0  0  0  0  0  0  0  0  0
   -5.1655   -0.0963   -0.3466 O   0  0  0  0  0  0  0  0  0  0  0  0
   -5.0924    1.8289    0.7067 O   0  0  0  0  0  0  0  0  0  0  0  0
    4.4833    0.8647   -0.4940 N   0  0  0  0  0  0  0  0  0  0  0  0
    5.5860    0.8642   -0.5712 N   0  0  0  0  0  0  0  0  0  0  0  0
  1  6  1  0  0  0  0
  2  1  2  0  0  0  0
  2  3  1  0  0  0  0
  3  4  2  0  0  0  0
  4  5  1  0  0  0  0
  4  9  1  0  0  0  0
  5 10  1  0  0  0  0
  6 11  1  0  0  0  0
  6  5  2  0  0  0  0
  7  1  1  0  0  0  0
  8  2  1  0  0  0  0
 11 13  2  0  0  0  0
 12 11  2  0  0  0  0
 15 14  3  0  0  0  0
M  RAD  1   3   2
M  END
