Coordinates from ORCA-job 4-NO2-Ph-N2+-scan-d090-169-n800
 OpenBabel09191814013D

 15 14  0  0  0  0  0  0  0  0999 V2000
   -3.0362   -0.2088   -0.5579 C   0  0  0  0  0  0  0  0  0  0  0  0
   -1.6146   -0.2504   -0.6806 C   0  0  0  0  0  0  0  0  0  0  0  0
   -1.2169    0.8738   -0.0906 C   0  0  0  0  0  0  0  0  0  0  0  0
   -1.5362    1.9960    0.5488 C   0  0  0  0  0  0  0  0  0  0  0  0
   -2.9610    1.9466    0.6217 C   0  0  0  0  0  0  0  0  0  0  0  0
   -3.6581    0.8671    0.0773 C   0  0  0  0  0  0  0  0  0  0  0  0
   -3.6183   -1.0313   -0.9692 H   0  0  0  0  0  0  0  0  0  0  0  0
   -1.0508   -1.0453   -1.1571 H   0  0  0  0  0  0  0  0  0  0  0  0
   -0.9168    2.7941    0.9440 H   0  0  0  0  0  0  0  0  0  0  0  0
   -3.4858    2.7661    1.1091 H   0  0  0  0  0  0  0  0  0  0  0  0
   -5.1411    0.8630    0.1792 N   0  0  0  0  0  0  0  0  0  0  0  0
   -5.7114   -0.1011   -0.3108 O   0  0  0  0  0  0  0  0  0  0  0  0
   -5.6442    1.8242    0.7429 O   0  0  0  0  0  0  0  0  0  0  0  0
    8.0502    0.8546   -0.7491 N   0  0  0  0  0  0  0  0  0  0  0  0
    9.1529    0.8529   -0.8266 N   0  0  0  0  0  0  0  0  0  0  0  0
  1  6  1  0  0  0  0
  2  1  2  0  0  0  0
  2  3  1  0  0  0  0
  3  4  2  0  0  0  0
  4  5  1  0  0  0  0
  4  9  1  0  0  0  0
  5 10  1  0  0  0  0
  6 11  1  0  0  0  0
  6  5  2  0  0  0  0
  7  1  1  0  0  0  0
  8  2  1  0  0  0  0
 11 13  2  0  0  0  0
 12 11  2  0  0  0  0
 15 14  3  0  0  0  0
M  RAD  1   3   2
M  END
