Coordinates from ORCA-job 4-NO2-Ph-N2+-scan-d090-169-n800
 OpenBabel09191814013D

 15 14  0  0  0  0  0  0  0  0999 V2000
   -3.6714   -0.2058   -0.5118 C   0  0  0  0  0  0  0  0  0  0  0  0
   -2.2494   -0.2407   -0.6309 C   0  0  0  0  0  0  0  0  0  0  0  0
   -1.8583    0.8851   -0.0395 C   0  0  0  0  0  0  0  0  0  0  0  0
   -2.1847    2.0056    0.5994 C   0  0  0  0  0  0  0  0  0  0  0  0
   -3.6094    1.9495    0.6686 C   0  0  0  0  0  0  0  0  0  0  0  0
   -4.3000    0.8669    0.1221 C   0  0  0  0  0  0  0  0  0  0  0  0
   -4.2485   -1.0309   -0.9248 H   0  0  0  0  0  0  0  0  0  0  0  0
   -1.6806   -1.0328   -1.1062 H   0  0  0  0  0  0  0  0  0  0  0  0
   -1.5701    2.8065    0.9965 H   0  0  0  0  0  0  0  0  0  0  0  0
   -4.1392    2.7664    1.1549 H   0  0  0  0  0  0  0  0  0  0  0  0
   -5.7833    0.8559    0.2202 N   0  0  0  0  0  0  0  0  0  0  0  0
   -6.3477   -0.1107   -0.2716 O   0  0  0  0  0  0  0  0  0  0  0  0
   -6.2923    1.8145    0.7830 O   0  0  0  0  0  0  0  0  0  0  0  0
   12.2219    0.8373   -1.0505 N   0  0  0  0  0  0  0  0  0  0  0  0
   13.3246    0.8346   -1.1283 N   0  0  0  0  0  0  0  0  0  0  0  0
  1  6  1  0  0  0  0
  2  1  2  0  0  0  0
  2  3  1  0  0  0  0
  3  4  2  0  0  0  0
  4  5  1  0  0  0  0
  4  9  1  0  0  0  0
  5 10  1  0  0  0  0
  6 11  1  0  0  0  0
  6  5  2  0  0  0  0
  7  1  1  0  0  0  0
  8  2  1  0  0  0  0
 11 13  2  0  0  0  0
 12 11  2  0  0  0  0
 15 14  3  0  0  0  0
M  RAD  1   3   2
M  END
