Coordinates from ORCA-job 4-NO2-Ph-N2+-scan-d090-169-n800
 OpenBabel09191814013D

 15 14  0  0  0  0  0  0  0  0999 V2000
   -2.7930   -0.2097   -0.5754 C   0  0  0  0  0  0  0  0  0  0  0  0
   -1.3717   -0.2530   -0.6989 C   0  0  0  0  0  0  0  0  0  0  0  0
   -0.9718    0.8706   -0.1094 C   0  0  0  0  0  0  0  0  0  0  0  0
   -1.2896    1.9931    0.5300 C   0  0  0  0  0  0  0  0  0  0  0  0
   -2.7143    1.9457    0.6040 C   0  0  0  0  0  0  0  0  0  0  0  0
   -3.4132    0.8671    0.0601 C   0  0  0  0  0  0  0  0  0  0  0  0
   -3.3762   -1.0316   -0.9863 H   0  0  0  0  0  0  0  0  0  0  0  0
   -0.8091   -1.0486   -1.1758 H   0  0  0  0  0  0  0  0  0  0  0  0
   -0.6688    2.7904    0.9247 H   0  0  0  0  0  0  0  0  0  0  0  0
   -3.2374    2.7660    1.0916 H   0  0  0  0  0  0  0  0  0  0  0  0
   -4.8961    0.8649    0.1630 N   0  0  0  0  0  0  0  0  0  0  0  0
   -5.4679   -0.0985   -0.3265 O   0  0  0  0  0  0  0  0  0  0  0  0
   -5.3976    1.8268    0.7270 O   0  0  0  0  0  0  0  0  0  0  0  0
    6.4578    0.8598   -0.6348 N   0  0  0  0  0  0  0  0  0  0  0  0
    7.5605    0.8586   -0.7122 N   0  0  0  0  0  0  0  0  0  0  0  0
  1  6  1  0  0  0  0
  2  1  2  0  0  0  0
  2  3  1  0  0  0  0
  3  4  2  0  0  0  0
  4  5  1  0  0  0  0
  4  9  1  0  0  0  0
  5 10  1  0  0  0  0
  6 11  1  0  0  0  0
  6  5  2  0  0  0  0
  7  1  1  0  0  0  0
  8  2  1  0  0  0  0
 11 13  2  0  0  0  0
 12 11  2  0  0  0  0
 15 14  3  0  0  0  0
M  RAD  1   3   2
M  END
