Coordinates from ORCA-job 4-NO2-Ph-N2+-scan-d090-169-n800
 OpenBabel09191814013D

 15 14  0  0  0  0  0  0  0  0999 V2000
   -3.3502   -0.2074   -0.5351 C   0  0  0  0  0  0  0  0  0  0  0  0
   -1.9284   -0.2461   -0.6563 C   0  0  0  0  0  0  0  0  0  0  0  0
   -1.5337    0.8788   -0.0656 C   0  0  0  0  0  0  0  0  0  0  0  0
   -1.8561    2.0003    0.5735 C   0  0  0  0  0  0  0  0  0  0  0  0
   -3.2808    1.9479    0.6448 C   0  0  0  0  0  0  0  0  0  0  0  0
   -3.9751    0.8671    0.0994 C   0  0  0  0  0  0  0  0  0  0  0  0
   -3.9301   -1.0311   -0.9472 H   0  0  0  0  0  0  0  0  0  0  0  0
   -1.3624   -1.0397   -1.1323 H   0  0  0  0  0  0  0  0  0  0  0  0
   -1.2388    2.7996    0.9695 H   0  0  0  0  0  0  0  0  0  0  0  0
   -3.8078    2.7663    1.1317 H   0  0  0  0  0  0  0  0  0  0  0  0
   -5.4582    0.8599    0.1997 N   0  0  0  0  0  0  0  0  0  0  0  0
   -6.0259   -0.1053   -0.2911 O   0  0  0  0  0  0  0  0  0  0  0  0
   -5.9639    1.8200    0.7630 O   0  0  0  0  0  0  0  0  0  0  0  0
   10.1101    0.8466   -0.8976 N   0  0  0  0  0  0  0  0  0  0  0  0
   11.2128    0.8444   -0.9753 N   0  0  0  0  0  0  0  0  0  0  0  0
  1  6  1  0  0  0  0
  2  1  2  0  0  0  0
  2  3  1  0  0  0  0
  3  4  2  0  0  0  0
  4  5  1  0  0  0  0
  4  9  1  0  0  0  0
  5 10  1  0  0  0  0
  6 11  1  0  0  0  0
  6  5  2  0  0  0  0
  7  1  1  0  0  0  0
  8  2  1  0  0  0  0
 11 13  2  0  0  0  0
 12 11  2  0  0  0  0
 15 14  3  0  0  0  0
M  RAD  1   3   2
M  END
