Coordinates from ORCA-job 4-NO2-Ph-N2+-scan-d090-169-n800
 OpenBabel09191814013D

 15 14  0  0  0  0  0  0  0  0999 V2000
   -2.5944   -0.2103   -0.5897 C   0  0  0  0  0  0  0  0  0  0  0  0
   -1.1731   -0.2549   -0.7139 C   0  0  0  0  0  0  0  0  0  0  0  0
   -0.7723    0.8685   -0.1244 C   0  0  0  0  0  0  0  0  0  0  0  0
   -1.0886    1.9915    0.5151 C   0  0  0  0  0  0  0  0  0  0  0  0
   -2.5134    1.9451    0.5895 C   0  0  0  0  0  0  0  0  0  0  0  0
   -3.2133    0.8670    0.0460 C   0  0  0  0  0  0  0  0  0  0  0  0
   -3.1787   -1.0316   -1.0002 H   0  0  0  0  0  0  0  0  0  0  0  0
   -0.6111   -1.0509   -1.1908 H   0  0  0  0  0  0  0  0  0  0  0  0
   -0.4668    2.7881    0.9094 H   0  0  0  0  0  0  0  0  0  0  0  0
   -3.0360    2.7658    1.0773 H   0  0  0  0  0  0  0  0  0  0  0  0
   -4.6962    0.8661    0.1495 N   0  0  0  0  0  0  0  0  0  0  0  0
   -5.2691   -0.0970   -0.3394 O   0  0  0  0  0  0  0  0  0  0  0  0
   -5.1967    1.8283    0.7139 O   0  0  0  0  0  0  0  0  0  0  0  0
    5.1593    0.8633   -0.5420 N   0  0  0  0  0  0  0  0  0  0  0  0
    6.2620    0.8626   -0.6192 N   0  0  0  0  0  0  0  0  0  0  0  0
  1  6  1  0  0  0  0
  2  1  2  0  0  0  0
  2  3  1  0  0  0  0
  3  4  2  0  0  0  0
  4  5  1  0  0  0  0
  4  9  1  0  0  0  0
  5 10  1  0  0  0  0
  6 11  1  0  0  0  0
  6  5  2  0  0  0  0
  7  1  1  0  0  0  0
  8  2  1  0  0  0  0
 11 13  2  0  0  0  0
 12 11  2  0  0  0  0
 15 14  3  0  0  0  0
M  RAD  1   3   2
M  END
