Coordinates from ORCA-job 4-NO2-Ph-N2+-scan-d090-169-n800
 OpenBabel09191814013D

 15 14  0  0  0  0  0  0  0  0999 V2000
   -3.4188   -0.2071   -0.5302 C   0  0  0  0  0  0  0  0  0  0  0  0
   -1.9969   -0.2450   -0.6509 C   0  0  0  0  0  0  0  0  0  0  0  0
   -1.6029    0.8801   -0.0601 C   0  0  0  0  0  0  0  0  0  0  0  0
   -1.9260    2.0014    0.5790 C   0  0  0  0  0  0  0  0  0  0  0  0
   -3.3508    1.9482    0.6499 C   0  0  0  0  0  0  0  0  0  0  0  0
   -4.0443    0.8671    0.1043 C   0  0  0  0  0  0  0  0  0  0  0  0
   -3.9981   -1.0310   -0.9424 H   0  0  0  0  0  0  0  0  0  0  0  0
   -1.4303   -1.0383   -1.1268 H   0  0  0  0  0  0  0  0  0  0  0  0
   -1.3093    2.8010    0.9752 H   0  0  0  0  0  0  0  0  0  0  0  0
   -3.8783    2.7663    1.1366 H   0  0  0  0  0  0  0  0  0  0  0  0
   -5.5275    0.8592    0.2041 N   0  0  0  0  0  0  0  0  0  0  0  0
   -6.0945   -0.1063   -0.2869 O   0  0  0  0  0  0  0  0  0  0  0  0
   -6.0338    1.8189    0.7673 O   0  0  0  0  0  0  0  0  0  0  0  0
   10.5601    0.8447   -0.9301 N   0  0  0  0  0  0  0  0  0  0  0  0
   11.6628    0.8424   -1.0079 N   0  0  0  0  0  0  0  0  0  0  0  0
  1  6  1  0  0  0  0
  2  1  2  0  0  0  0
  2  3  1  0  0  0  0
  3  4  2  0  0  0  0
  4  5  1  0  0  0  0
  4  9  1  0  0  0  0
  5 10  1  0  0  0  0
  6 11  1  0  0  0  0
  6  5  2  0  0  0  0
  7  1  1  0  0  0  0
  8  2  1  0  0  0  0
 11 13  2  0  0  0  0
 12 11  2  0  0  0  0
 15 14  3  0  0  0  0
M  RAD  1   3   2
M  END
