Coordinates from ORCA-job 4-NO2-Ph-N2+-scan-d090-169-n800
 OpenBabel09191814013D

 15 14  0  0  0  0  0  0  0  0999 V2000
   -3.9711   -0.2041   -0.4899 C   0  0  0  0  0  0  0  0  0  0  0  0
   -2.5489   -0.2349   -0.6067 C   0  0  0  0  0  0  0  0  0  0  0  0
   -2.1616    0.8917   -0.0146 C   0  0  0  0  0  0  0  0  0  0  0  0
   -2.4923    2.0110    0.6239 C   0  0  0  0  0  0  0  0  0  0  0  0
   -3.9169    1.9511    0.6910 C   0  0  0  0  0  0  0  0  0  0  0  0
   -4.6037    0.8667    0.1432 C   0  0  0  0  0  0  0  0  0  0  0  0
   -4.5451   -1.0309   -0.9041 H   0  0  0  0  0  0  0  0  0  0  0  0
   -1.9773   -1.0254   -1.0814 H   0  0  0  0  0  0  0  0  0  0  0  0
   -1.8806    2.8136    1.0221 H   0  0  0  0  0  0  0  0  0  0  0  0
   -4.4495    2.7665    1.1767 H   0  0  0  0  0  0  0  0  0  0  0  0
   -6.0871    0.8516    0.2390 N   0  0  0  0  0  0  0  0  0  0  0  0
   -6.6480   -0.1165   -0.2538 O   0  0  0  0  0  0  0  0  0  0  0  0
   -6.5995    1.8087    0.8012 O   0  0  0  0  0  0  0  0  0  0  0  0
   14.1950    0.8239   -1.1959 N   0  0  0  0  0  0  0  0  0  0  0  0
   15.2980    0.8286   -1.2696 N   0  0  0  0  0  0  0  0  0  0  0  0
  1  6  1  0  0  0  0
  2  1  2  0  0  0  0
  2  3  1  0  0  0  0
  3  4  2  0  0  0  0
  4  5  1  0  0  0  0
  4  9  1  0  0  0  0
  5 10  1  0  0  0  0
  6 11  1  0  0  0  0
  6  5  2  0  0  0  0
  7  1  1  0  0  0  0
  8  2  1  0  0  0  0
 11 13  2  0  0  0  0
 12 11  2  0  0  0  0
 15 14  3  0  0  0  0
M  RAD  1   3   2
M  END
