Coordinates from ORCA-job 4-NO2-Ph-N2+-scan-d090-169-n800
 OpenBabel09191814013D

 15 14  0  0  0  0  0  0  0  0999 V2000
   -3.5373   -0.2065   -0.5216 C   0  0  0  0  0  0  0  0  0  0  0  0
   -2.1153   -0.2430   -0.6416 C   0  0  0  0  0  0  0  0  0  0  0  0
   -1.7226    0.8824   -0.0505 C   0  0  0  0  0  0  0  0  0  0  0  0
   -2.0472    2.0033    0.5885 C   0  0  0  0  0  0  0  0  0  0  0  0
   -3.4720    1.9488    0.6587 C   0  0  0  0  0  0  0  0  0  0  0  0
   -4.1642    0.8670    0.1126 C   0  0  0  0  0  0  0  0  0  0  0  0
   -4.1156   -1.0310   -0.9342 H   0  0  0  0  0  0  0  0  0  0  0  0
   -1.5478   -1.0358   -1.1172 H   0  0  0  0  0  0  0  0  0  0  0  0
   -1.4315    2.8035    0.9851 H   0  0  0  0  0  0  0  0  0  0  0  0
   -4.0005    2.7664    1.1452 H   0  0  0  0  0  0  0  0  0  0  0  0
   -5.6474    0.8577    0.2117 N   0  0  0  0  0  0  0  0  0  0  0  0
   -6.2132   -0.1083   -0.2796 O   0  0  0  0  0  0  0  0  0  0  0  0
   -6.1549    1.8169    0.7747 O   0  0  0  0  0  0  0  0  0  0  0  0
   11.3391    0.8413   -0.9865 N   0  0  0  0  0  0  0  0  0  0  0  0
   12.4418    0.8388   -1.0643 N   0  0  0  0  0  0  0  0  0  0  0  0
  1  6  1  0  0  0  0
  2  1  2  0  0  0  0
  2  3  1  0  0  0  0
  3  4  2  0  0  0  0
  4  5  1  0  0  0  0
  4  9  1  0  0  0  0
  5 10  1  0  0  0  0
  6 11  1  0  0  0  0
  6  5  2  0  0  0  0
  7  1  1  0  0  0  0
  8  2  1  0  0  0  0
 11 13  2  0  0  0  0
 12 11  2  0  0  0  0
 15 14  3  0  0  0  0
M  RAD  1   3   2
M  END
