Coordinates from ORCA-job 4-NO2-Ph-N2+-scan-d090-169-n800
 OpenBabel09191814003D

 15 14  0  0  0  0  0  0  0  0999 V2000
   -2.2893   -0.2110   -0.6113 C   0  0  0  0  0  0  0  0  0  0  0  0
   -0.8686   -0.2559   -0.7355 C   0  0  0  0  0  0  0  0  0  0  0  0
   -0.4645    0.8668   -0.1467 C   0  0  0  0  0  0  0  0  0  0  0  0
   -0.7824    1.9895    0.4928 C   0  0  0  0  0  0  0  0  0  0  0  0
   -2.2066    1.9447    0.5679 C   0  0  0  0  0  0  0  0  0  0  0  0
   -2.9072    0.8669    0.0245 C   0  0  0  0  0  0  0  0  0  0  0  0
   -2.8749   -1.0314   -1.0213 H   0  0  0  0  0  0  0  0  0  0  0  0
   -0.3056   -1.0511   -1.2121 H   0  0  0  0  0  0  0  0  0  0  0  0
   -0.1584    2.7846    0.8861 H   0  0  0  0  0  0  0  0  0  0  0  0
   -2.7291    2.7652    1.0556 H   0  0  0  0  0  0  0  0  0  0  0  0
   -4.3900    0.8669    0.1285 N   0  0  0  0  0  0  0  0  0  0  0  0
   -4.9641   -0.0955   -0.3605 O   0  0  0  0  0  0  0  0  0  0  0  0
   -4.8902    1.8295    0.6926 O   0  0  0  0  0  0  0  0  0  0  0  0
    3.1700    0.8663   -0.4013 N   0  0  0  0  0  0  0  0  0  0  0  0
    4.2725    0.8661   -0.4784 N   0  0  0  0  0  0  0  0  0  0  0  0
  1  6  1  0  0  0  0
  2  1  2  0  0  0  0
  2  3  1  0  0  0  0
  3  4  2  0  0  0  0
  4  5  1  0  0  0  0
  4  9  1  0  0  0  0
  5 10  1  0  0  0  0
  6 11  1  0  0  0  0
  6  5  2  0  0  0  0
  7  1  1  0  0  0  0
  8  2  1  0  0  0  0
 11 13  2  0  0  0  0
 12 11  2  0  0  0  0
 15 14  3  0  0  0  0
M  RAD  1   3   2
M  END
