Coordinates from ORCA-job 4-NO2-Ph-N2+-scan-d090-169-n800
 OpenBabel09191814013D

 15 14  0  0  0  0  0  0  0  0999 V2000
   -2.5069   -0.2106   -0.5958 C   0  0  0  0  0  0  0  0  0  0  0  0
   -1.0857   -0.2554   -0.7201 C   0  0  0  0  0  0  0  0  0  0  0  0
   -0.6843    0.8678   -0.1309 C   0  0  0  0  0  0  0  0  0  0  0  0
   -1.0006    1.9906    0.5086 C   0  0  0  0  0  0  0  0  0  0  0  0
   -2.4252    1.9449    0.5833 C   0  0  0  0  0  0  0  0  0  0  0  0
   -3.1255    0.8669    0.0399 C   0  0  0  0  0  0  0  0  0  0  0  0
   -3.0913   -1.0318   -1.0063 H   0  0  0  0  0  0  0  0  0  0  0  0
   -0.5238   -1.0513   -1.1971 H   0  0  0  0  0  0  0  0  0  0  0  0
   -0.3782    2.7870    0.9027 H   0  0  0  0  0  0  0  0  0  0  0  0
   -2.9473    2.7658    1.0712 H   0  0  0  0  0  0  0  0  0  0  0  0
   -4.6084    0.8665    0.1436 N   0  0  0  0  0  0  0  0  0  0  0  0
   -5.1816   -0.0963   -0.3456 O   0  0  0  0  0  0  0  0  0  0  0  0
   -5.1086    1.8289    0.7077 O   0  0  0  0  0  0  0  0  0  0  0  0
    4.5881    0.8645   -0.5014 N   0  0  0  0  0  0  0  0  0  0  0  0
    5.6908    0.8640   -0.5787 N   0  0  0  0  0  0  0  0  0  0  0  0
  1  6  1  0  0  0  0
  2  1  2  0  0  0  0
  2  3  1  0  0  0  0
  3  4  2  0  0  0  0
  4  5  1  0  0  0  0
  4  9  1  0  0  0  0
  5 10  1  0  0  0  0
  6 11  1  0  0  0  0
  6  5  2  0  0  0  0
  7  1  1  0  0  0  0
  8  2  1  0  0  0  0
 11 13  2  0  0  0  0
 12 11  2  0  0  0  0
 15 14  3  0  0  0  0
M  RAD  1   3   2
M  END
