Coordinates from ORCA-job 4-NO2-Ph-N2+-scan-d090-169-n800
 OpenBabel09191814013D

 15 14  0  0  0  0  0  0  0  0999 V2000
   -3.1788   -0.2082   -0.5476 C   0  0  0  0  0  0  0  0  0  0  0  0
   -1.7571   -0.2486   -0.6696 C   0  0  0  0  0  0  0  0  0  0  0  0
   -1.3607    0.8759   -0.0793 C   0  0  0  0  0  0  0  0  0  0  0  0
   -1.6813    1.9978    0.5599 C   0  0  0  0  0  0  0  0  0  0  0  0
   -3.1061    1.9472    0.6322 C   0  0  0  0  0  0  0  0  0  0  0  0
   -3.8020    0.8671    0.0873 C   0  0  0  0  0  0  0  0  0  0  0  0
   -3.7599   -1.0312   -0.9592 H   0  0  0  0  0  0  0  0  0  0  0  0
   -1.1924   -1.0429   -1.1460 H   0  0  0  0  0  0  0  0  0  0  0  0
   -1.0628    2.7965    0.9555 H   0  0  0  0  0  0  0  0  0  0  0  0
   -3.6318    2.7662    1.1193 H   0  0  0  0  0  0  0  0  0  0  0  0
   -5.2850    0.8617    0.1886 N   0  0  0  0  0  0  0  0  0  0  0  0
   -5.8541   -0.1028   -0.3018 O   0  0  0  0  0  0  0  0  0  0  0  0
   -5.7892    1.8224    0.7521 O   0  0  0  0  0  0  0  0  0  0  0  0
    8.9849    0.8511   -0.8164 N   0  0  0  0  0  0  0  0  0  0  0  0
   10.0877    0.8492   -0.8940 N   0  0  0  0  0  0  0  0  0  0  0  0
  1  6  1  0  0  0  0
  2  1  2  0  0  0  0
  2  3  1  0  0  0  0
  3  4  2  0  0  0  0
  4  5  1  0  0  0  0
  4  9  1  0  0  0  0
  5 10  1  0  0  0  0
  6 11  1  0  0  0  0
  6  5  2  0  0  0  0
  7  1  1  0  0  0  0
  8  2  1  0  0  0  0
 11 13  2  0  0  0  0
 12 11  2  0  0  0  0
 15 14  3  0  0  0  0
M  RAD  1   3   2
M  END
