Coordinates from ORCA-job 4-NO2-Ph-N2+-scan-d090-169-n800
 OpenBabel09191814013D

 15 14  0  0  0  0  0  0  0  0999 V2000
   -3.4635   -0.2069   -0.5269 C   0  0  0  0  0  0  0  0  0  0  0  0
   -2.0414   -0.2444   -0.6475 C   0  0  0  0  0  0  0  0  0  0  0  0
   -1.6486    0.8809   -0.0564 C   0  0  0  0  0  0  0  0  0  0  0  0
   -1.9716    2.0022    0.5827 C   0  0  0  0  0  0  0  0  0  0  0  0
   -3.3965    1.9485    0.6532 C   0  0  0  0  0  0  0  0  0  0  0  0
   -4.0895    0.8670    0.1074 C   0  0  0  0  0  0  0  0  0  0  0  0
   -4.0426   -1.0309   -0.9392 H   0  0  0  0  0  0  0  0  0  0  0  0
   -1.4743   -1.0374   -1.1232 H   0  0  0  0  0  0  0  0  0  0  0  0
   -1.3550    2.8019    0.9789 H   0  0  0  0  0  0  0  0  0  0  0  0
   -3.9247    2.7663    1.1399 H   0  0  0  0  0  0  0  0  0  0  0  0
   -5.5726    0.8586    0.2070 N   0  0  0  0  0  0  0  0  0  0  0  0
   -6.1393   -0.1070   -0.2842 O   0  0  0  0  0  0  0  0  0  0  0  0
   -6.0794    1.8182    0.7700 O   0  0  0  0  0  0  0  0  0  0  0  0
   10.8539    0.8434   -0.9514 N   0  0  0  0  0  0  0  0  0  0  0  0
   11.9567    0.8410   -1.0292 N   0  0  0  0  0  0  0  0  0  0  0  0
  1  6  1  0  0  0  0
  2  1  2  0  0  0  0
  2  3  1  0  0  0  0
  3  4  2  0  0  0  0
  4  5  1  0  0  0  0
  4  9  1  0  0  0  0
  5 10  1  0  0  0  0
  6 11  1  0  0  0  0
  6  5  2  0  0  0  0
  7  1  1  0  0  0  0
  8  2  1  0  0  0  0
 11 13  2  0  0  0  0
 12 11  2  0  0  0  0
 15 14  3  0  0  0  0
M  RAD  1   3   2
M  END
