Coordinates from ORCA-job 4-NO2-Ph-N2+-scan-d090-169-n800
 OpenBabel09191814013D

 15 14  0  0  0  0  0  0  0  0999 V2000
   -2.4937   -0.2106   -0.5968 C   0  0  0  0  0  0  0  0  0  0  0  0
   -1.0724   -0.2556   -0.7212 C   0  0  0  0  0  0  0  0  0  0  0  0
   -0.6712    0.8677   -0.1319 C   0  0  0  0  0  0  0  0  0  0  0  0
   -0.9871    1.9908    0.5077 C   0  0  0  0  0  0  0  0  0  0  0  0
   -2.4118    1.9449    0.5823 C   0  0  0  0  0  0  0  0  0  0  0  0
   -3.1121    0.8670    0.0389 C   0  0  0  0  0  0  0  0  0  0  0  0
   -3.0783   -1.0316   -1.0072 H   0  0  0  0  0  0  0  0  0  0  0  0
   -0.5104   -1.0515   -1.1982 H   0  0  0  0  0  0  0  0  0  0  0  0
   -0.3646    2.7870    0.9018 H   0  0  0  0  0  0  0  0  0  0  0  0
   -2.9341    2.7656    1.0701 H   0  0  0  0  0  0  0  0  0  0  0  0
   -4.5950    0.8665    0.1426 N   0  0  0  0  0  0  0  0  0  0  0  0
   -5.1683   -0.0963   -0.3463 O   0  0  0  0  0  0  0  0  0  0  0  0
   -5.0952    1.8289    0.7070 O   0  0  0  0  0  0  0  0  0  0  0  0
    4.5014    0.8646   -0.4953 N   0  0  0  0  0  0  0  0  0  0  0  0
    5.6041    0.8642   -0.5724 N   0  0  0  0  0  0  0  0  0  0  0  0
  1  6  1  0  0  0  0
  2  1  2  0  0  0  0
  2  3  1  0  0  0  0
  3  4  2  0  0  0  0
  4  5  1  0  0  0  0
  4  9  1  0  0  0  0
  5 10  1  0  0  0  0
  6 11  1  0  0  0  0
  6  5  2  0  0  0  0
  7  1  1  0  0  0  0
  8  2  1  0  0  0  0
 11 13  2  0  0  0  0
 12 11  2  0  0  0  0
 15 14  3  0  0  0  0
M  RAD  1   3   2
M  END
