Coordinates from ORCA-job 4-NO2-Ph-N2+-scan-d090-169-n800
 OpenBabel09191814013D

 15 14  0  0  0  0  0  0  0  0999 V2000
   -2.5547   -0.2105   -0.5924 C   0  0  0  0  0  0  0  0  0  0  0  0
   -1.1333   -0.2553   -0.7168 C   0  0  0  0  0  0  0  0  0  0  0  0
   -0.7325    0.8681   -0.1273 C   0  0  0  0  0  0  0  0  0  0  0  0
   -1.0485    1.9911    0.5122 C   0  0  0  0  0  0  0  0  0  0  0  0
   -2.4733    1.9450    0.5867 C   0  0  0  0  0  0  0  0  0  0  0  0
   -3.1734    0.8670    0.0432 C   0  0  0  0  0  0  0  0  0  0  0  0
   -3.1391   -1.0317   -1.0029 H   0  0  0  0  0  0  0  0  0  0  0  0
   -0.5713   -1.0512   -1.1937 H   0  0  0  0  0  0  0  0  0  0  0  0
   -0.4264    2.7876    0.9064 H   0  0  0  0  0  0  0  0  0  0  0  0
   -2.9957    2.7657    1.0745 H   0  0  0  0  0  0  0  0  0  0  0  0
   -4.6562    0.8663    0.1468 N   0  0  0  0  0  0  0  0  0  0  0  0
   -5.2293   -0.0966   -0.3423 O   0  0  0  0  0  0  0  0  0  0  0  0
   -5.1566    1.8286    0.7110 O   0  0  0  0  0  0  0  0  0  0  0  0
    4.8995    0.8639   -0.5236 N   0  0  0  0  0  0  0  0  0  0  0  0
    6.0022    0.8633   -0.6008 N   0  0  0  0  0  0  0  0  0  0  0  0
  1  6  1  0  0  0  0
  2  1  2  0  0  0  0
  2  3  1  0  0  0  0
  3  4  2  0  0  0  0
  4  5  1  0  0  0  0
  4  9  1  0  0  0  0
  5 10  1  0  0  0  0
  6 11  1  0  0  0  0
  6  5  2  0  0  0  0
  7  1  1  0  0  0  0
  8  2  1  0  0  0  0
 11 13  2  0  0  0  0
 12 11  2  0  0  0  0
 15 14  3  0  0  0  0
M  RAD  1   3   2
M  END
