Coordinates from ORCA-job 4-NO2-Ph-N2+-scan-d090-169-n800
 OpenBabel09191814003D

 15 14  0  0  0  0  0  0  0  0999 V2000
   -2.3928   -0.2108   -0.6039 C   0  0  0  0  0  0  0  0  0  0  0  0
   -0.9716   -0.2560   -0.7284 C   0  0  0  0  0  0  0  0  0  0  0  0
   -0.5698    0.8671   -0.1392 C   0  0  0  0  0  0  0  0  0  0  0  0
   -0.8858    1.9902    0.5004 C   0  0  0  0  0  0  0  0  0  0  0  0
   -2.3104    1.9447    0.5753 C   0  0  0  0  0  0  0  0  0  0  0  0
   -3.0109    0.8669    0.0319 C   0  0  0  0  0  0  0  0  0  0  0  0
   -2.9778   -1.0317   -1.0141 H   0  0  0  0  0  0  0  0  0  0  0  0
   -0.4093   -1.0517   -1.2052 H   0  0  0  0  0  0  0  0  0  0  0  0
   -0.2626    2.7860    0.8941 H   0  0  0  0  0  0  0  0  0  0  0  0
   -2.8326    2.7655    1.0631 H   0  0  0  0  0  0  0  0  0  0  0  0
   -4.4938    0.8667    0.1358 N   0  0  0  0  0  0  0  0  0  0  0  0
   -5.0674   -0.0958   -0.3535 O   0  0  0  0  0  0  0  0  0  0  0  0
   -4.9938    1.8294    0.6997 O   0  0  0  0  0  0  0  0  0  0  0  0
    3.8437    0.8657   -0.4488 N   0  0  0  0  0  0  0  0  0  0  0  0
    4.9463    0.8654   -0.5260 N   0  0  0  0  0  0  0  0  0  0  0  0
  1  6  1  0  0  0  0
  2  1  2  0  0  0  0
  2  3  1  0  0  0  0
  3  4  2  0  0  0  0
  4  5  1  0  0  0  0
  4  9  1  0  0  0  0
  5 10  1  0  0  0  0
  6 11  1  0  0  0  0
  6  5  2  0  0  0  0
  7  1  1  0  0  0  0
  8  2  1  0  0  0  0
 11 13  2  0  0  0  0
 12 11  2  0  0  0  0
 15 14  3  0  0  0  0
M  RAD  1   3   2
M  END
