Coordinates from ORCA-job 4-NO2-Ph-N2+-scan-d090-169-n800
 OpenBabel09191814013D

 15 14  0  0  0  0  0  0  0  0999 V2000
   -3.2632   -0.2078   -0.5415 C   0  0  0  0  0  0  0  0  0  0  0  0
   -1.8415   -0.2474   -0.6631 C   0  0  0  0  0  0  0  0  0  0  0  0
   -1.4458    0.8773   -0.0726 C   0  0  0  0  0  0  0  0  0  0  0  0
   -1.7673    1.9990    0.5666 C   0  0  0  0  0  0  0  0  0  0  0  0
   -3.1921    1.9475    0.6384 C   0  0  0  0  0  0  0  0  0  0  0  0
   -3.8872    0.8671    0.0933 C   0  0  0  0  0  0  0  0  0  0  0  0
   -3.8437   -1.0311   -0.9533 H   0  0  0  0  0  0  0  0  0  0  0  0
   -1.2761   -1.0414   -1.1393 H   0  0  0  0  0  0  0  0  0  0  0  0
   -1.1494    2.7980    0.9624 H   0  0  0  0  0  0  0  0  0  0  0  0
   -3.7184    2.7662    1.1254 H   0  0  0  0  0  0  0  0  0  0  0  0
   -5.3703    0.8609    0.1940 N   0  0  0  0  0  0  0  0  0  0  0  0
   -5.9387   -0.1040   -0.2965 O   0  0  0  0  0  0  0  0  0  0  0  0
   -5.8752    1.8213    0.7575 O   0  0  0  0  0  0  0  0  0  0  0  0
    9.5388    0.8489   -0.8563 N   0  0  0  0  0  0  0  0  0  0  0  0
   10.6416    0.8468   -0.9340 N   0  0  0  0  0  0  0  0  0  0  0  0
  1  6  1  0  0  0  0
  2  1  2  0  0  0  0
  2  3  1  0  0  0  0
  3  4  2  0  0  0  0
  4  5  1  0  0  0  0
  4  9  1  0  0  0  0
  5 10  1  0  0  0  0
  6 11  1  0  0  0  0
  6  5  2  0  0  0  0
  7  1  1  0  0  0  0
  8  2  1  0  0  0  0
 11 13  2  0  0  0  0
 12 11  2  0  0  0  0
 15 14  3  0  0  0  0
M  RAD  1   3   2
M  END
