Coordinates from ORCA-job 4-NO2-Ph-N2+-scan-d090-169-n800
 OpenBabel09191814013D

 15 14  0  0  0  0  0  0  0  0999 V2000
   -3.4714   -0.2068   -0.5263 C   0  0  0  0  0  0  0  0  0  0  0  0
   -2.0496   -0.2441   -0.6467 C   0  0  0  0  0  0  0  0  0  0  0  0
   -1.6560    0.8811   -0.0558 C   0  0  0  0  0  0  0  0  0  0  0  0
   -1.9800    2.0021    0.5832 C   0  0  0  0  0  0  0  0  0  0  0  0
   -3.4046    1.9485    0.6538 C   0  0  0  0  0  0  0  0  0  0  0  0
   -4.0976    0.8670    0.1080 C   0  0  0  0  0  0  0  0  0  0  0  0
   -4.0502   -1.0311   -0.9388 H   0  0  0  0  0  0  0  0  0  0  0  0
   -1.4827   -1.0372   -1.1225 H   0  0  0  0  0  0  0  0  0  0  0  0
   -1.3637    2.8021    0.9796 H   0  0  0  0  0  0  0  0  0  0  0  0
   -3.9325    2.7664    1.1405 H   0  0  0  0  0  0  0  0  0  0  0  0
   -5.5808    0.8585    0.2075 N   0  0  0  0  0  0  0  0  0  0  0  0
   -6.1473   -0.1072   -0.2837 O   0  0  0  0  0  0  0  0  0  0  0  0
   -6.0877    1.8181    0.7706 O   0  0  0  0  0  0  0  0  0  0  0  0
   10.9064    0.8432   -0.9552 N   0  0  0  0  0  0  0  0  0  0  0  0
   12.0092    0.8408   -1.0330 N   0  0  0  0  0  0  0  0  0  0  0  0
  1  6  1  0  0  0  0
  2  1  2  0  0  0  0
  2  3  1  0  0  0  0
  3  4  2  0  0  0  0
  4  5  1  0  0  0  0
  4  9  1  0  0  0  0
  5 10  1  0  0  0  0
  6 11  1  0  0  0  0
  6  5  2  0  0  0  0
  7  1  1  0  0  0  0
  8  2  1  0  0  0  0
 11 13  2  0  0  0  0
 12 11  2  0  0  0  0
 15 14  3  0  0  0  0
M  RAD  1   3   2
M  END
