Coordinates from ORCA-job 4-NO2-Ph-N2+-scan-d090-169-n800
 OpenBabel09191814013D

 15 14  0  0  0  0  0  0  0  0999 V2000
   -3.7031   -0.2056   -0.5095 C   0  0  0  0  0  0  0  0  0  0  0  0
   -2.2810   -0.2402   -0.6284 C   0  0  0  0  0  0  0  0  0  0  0  0
   -1.8903    0.8857   -0.0369 C   0  0  0  0  0  0  0  0  0  0  0  0
   -2.2170    2.0061    0.6019 C   0  0  0  0  0  0  0  0  0  0  0  0
   -3.6417    1.9496    0.6710 C   0  0  0  0  0  0  0  0  0  0  0  0
   -4.3320    0.8669    0.1243 C   0  0  0  0  0  0  0  0  0  0  0  0
   -4.2799   -1.0309   -0.9226 H   0  0  0  0  0  0  0  0  0  0  0  0
   -1.7120   -1.0321   -1.1037 H   0  0  0  0  0  0  0  0  0  0  0  0
   -1.6027    2.8071    0.9991 H   0  0  0  0  0  0  0  0  0  0  0  0
   -4.1718    2.7664    1.1572 H   0  0  0  0  0  0  0  0  0  0  0  0
   -5.8152    0.8555    0.2222 N   0  0  0  0  0  0  0  0  0  0  0  0
   -6.3793   -0.1112   -0.2696 O   0  0  0  0  0  0  0  0  0  0  0  0
   -6.3245    1.8140    0.7849 O   0  0  0  0  0  0  0  0  0  0  0  0
   12.4296    0.8357   -1.0659 N   0  0  0  0  0  0  0  0  0  0  0  0
   13.5323    0.8343   -1.1430 N   0  0  0  0  0  0  0  0  0  0  0  0
  1  6  1  0  0  0  0
  2  1  2  0  0  0  0
  2  3  1  0  0  0  0
  3  4  2  0  0  0  0
  4  5  1  0  0  0  0
  4  9  1  0  0  0  0
  5 10  1  0  0  0  0
  6 11  1  0  0  0  0
  6  5  2  0  0  0  0
  7  1  1  0  0  0  0
  8  2  1  0  0  0  0
 11 13  2  0  0  0  0
 12 11  2  0  0  0  0
 15 14  3  0  0  0  0
M  RAD  1   3   2
M  END
