Coordinates from ORCA-job 4-NO2-Ph-N2+-scan-d090-169-n800
 OpenBabel09191814013D

 15 14  0  0  0  0  0  0  0  0999 V2000
   -3.5188   -0.2066   -0.5229 C   0  0  0  0  0  0  0  0  0  0  0  0
   -2.0969   -0.2433   -0.6430 C   0  0  0  0  0  0  0  0  0  0  0  0
   -1.7039    0.8820   -0.0520 C   0  0  0  0  0  0  0  0  0  0  0  0
   -2.0284    2.0030    0.5870 C   0  0  0  0  0  0  0  0  0  0  0  0
   -3.4531    1.9487    0.6573 C   0  0  0  0  0  0  0  0  0  0  0  0
   -4.1456    0.8670    0.1113 C   0  0  0  0  0  0  0  0  0  0  0  0
   -4.0973   -1.0310   -0.9355 H   0  0  0  0  0  0  0  0  0  0  0  0
   -1.5296   -1.0362   -1.1187 H   0  0  0  0  0  0  0  0  0  0  0  0
   -1.4125    2.8031    0.9836 H   0  0  0  0  0  0  0  0  0  0  0  0
   -3.9815    2.7664    1.1439 H   0  0  0  0  0  0  0  0  0  0  0  0
   -5.6287    0.8579    0.2105 N   0  0  0  0  0  0  0  0  0  0  0  0
   -6.1948   -0.1080   -0.2808 O   0  0  0  0  0  0  0  0  0  0  0  0
   -6.1361    1.8173    0.7736 O   0  0  0  0  0  0  0  0  0  0  0  0
   11.2180    0.8418   -0.9777 N   0  0  0  0  0  0  0  0  0  0  0  0
   12.3207    0.8394   -1.0555 N   0  0  0  0  0  0  0  0  0  0  0  0
  1  6  1  0  0  0  0
  2  1  2  0  0  0  0
  2  3  1  0  0  0  0
  3  4  2  0  0  0  0
  4  5  1  0  0  0  0
  4  9  1  0  0  0  0
  5 10  1  0  0  0  0
  6 11  1  0  0  0  0
  6  5  2  0  0  0  0
  7  1  1  0  0  0  0
  8  2  1  0  0  0  0
 11 13  2  0  0  0  0
 12 11  2  0  0  0  0
 15 14  3  0  0  0  0
M  RAD  1   3   2
M  END
