Coordinates from ORCA-job 4-NO2-Ph-N2+-scan-d090-169-n800
 OpenBabel09191814013D

 15 14  0  0  0  0  0  0  0  0999 V2000
   -2.5520   -0.2105   -0.5926 C   0  0  0  0  0  0  0  0  0  0  0  0
   -1.1307   -0.2552   -0.7169 C   0  0  0  0  0  0  0  0  0  0  0  0
   -0.7299    0.8681   -0.1275 C   0  0  0  0  0  0  0  0  0  0  0  0
   -1.0458    1.9910    0.5119 C   0  0  0  0  0  0  0  0  0  0  0  0
   -2.4706    1.9450    0.5866 C   0  0  0  0  0  0  0  0  0  0  0  0
   -3.1707    0.8670    0.0431 C   0  0  0  0  0  0  0  0  0  0  0  0
   -3.1364   -1.0317   -1.0031 H   0  0  0  0  0  0  0  0  0  0  0  0
   -0.5686   -1.0511   -1.1938 H   0  0  0  0  0  0  0  0  0  0  0  0
   -0.4236    2.7875    0.9061 H   0  0  0  0  0  0  0  0  0  0  0  0
   -2.9929    2.7657    1.0744 H   0  0  0  0  0  0  0  0  0  0  0  0
   -4.6536    0.8663    0.1467 N   0  0  0  0  0  0  0  0  0  0  0  0
   -5.2266   -0.0966   -0.3425 O   0  0  0  0  0  0  0  0  0  0  0  0
   -5.1539    1.8287    0.7108 O   0  0  0  0  0  0  0  0  0  0  0  0
    4.8821    0.8639   -0.5223 N   0  0  0  0  0  0  0  0  0  0  0  0
    5.9848    0.8634   -0.5996 N   0  0  0  0  0  0  0  0  0  0  0  0
  1  6  1  0  0  0  0
  2  1  2  0  0  0  0
  2  3  1  0  0  0  0
  3  4  2  0  0  0  0
  4  5  1  0  0  0  0
  4  9  1  0  0  0  0
  5 10  1  0  0  0  0
  6 11  1  0  0  0  0
  6  5  2  0  0  0  0
  7  1  1  0  0  0  0
  8  2  1  0  0  0  0
 11 13  2  0  0  0  0
 12 11  2  0  0  0  0
 15 14  3  0  0  0  0
M  RAD  1   3   2
M  END
