Coordinates from ORCA-job 4-NO2-Ph-N2+-scan-d090-169-n800
 OpenBabel09191814003D

 15 14  0  0  0  0  0  0  0  0999 V2000
   -2.3503   -0.2109   -0.6070 C   0  0  0  0  0  0  0  0  0  0  0  0
   -0.9293   -0.2560   -0.7314 C   0  0  0  0  0  0  0  0  0  0  0  0
   -0.5268    0.8669   -0.1423 C   0  0  0  0  0  0  0  0  0  0  0  0
   -0.8433    1.9899    0.4972 C   0  0  0  0  0  0  0  0  0  0  0  0
   -2.2677    1.9447    0.5722 C   0  0  0  0  0  0  0  0  0  0  0  0
   -2.9684    0.8669    0.0288 C   0  0  0  0  0  0  0  0  0  0  0  0
   -2.9355   -1.0316   -1.0171 H   0  0  0  0  0  0  0  0  0  0  0  0
   -0.3667   -1.0515   -1.2081 H   0  0  0  0  0  0  0  0  0  0  0  0
   -0.2197    2.7854    0.8908 H   0  0  0  0  0  0  0  0  0  0  0  0
   -2.7900    2.7654    1.0600 H   0  0  0  0  0  0  0  0  0  0  0  0
   -4.4512    0.8669    0.1327 N   0  0  0  0  0  0  0  0  0  0  0  0
   -5.0250   -0.0957   -0.3562 O   0  0  0  0  0  0  0  0  0  0  0  0
   -4.9512    1.8294    0.6970 O   0  0  0  0  0  0  0  0  0  0  0  0
    3.5671    0.8660   -0.4292 N   0  0  0  0  0  0  0  0  0  0  0  0
    4.6697    0.8657   -0.5064 N   0  0  0  0  0  0  0  0  0  0  0  0
  1  6  1  0  0  0  0
  2  1  2  0  0  0  0
  2  3  1  0  0  0  0
  3  4  2  0  0  0  0
  4  5  1  0  0  0  0
  4  9  1  0  0  0  0
  5 10  1  0  0  0  0
  6 11  1  0  0  0  0
  6  5  2  0  0  0  0
  7  1  1  0  0  0  0
  8  2  1  0  0  0  0
 11 13  2  0  0  0  0
 12 11  2  0  0  0  0
 15 14  3  0  0  0  0
M  RAD  1   3   2
M  END
