Coordinates from ORCA-job 4-NO2-Ph-N2+-scan-d090-169-n800
 OpenBabel09191814013D

 15 14  0  0  0  0  0  0  0  0999 V2000
   -3.5215   -0.2066   -0.5227 C   0  0  0  0  0  0  0  0  0  0  0  0
   -2.0995   -0.2433   -0.6428 C   0  0  0  0  0  0  0  0  0  0  0  0
   -1.7066    0.8821   -0.0518 C   0  0  0  0  0  0  0  0  0  0  0  0
   -2.0311    2.0030    0.5872 C   0  0  0  0  0  0  0  0  0  0  0  0
   -3.4558    1.9487    0.6575 C   0  0  0  0  0  0  0  0  0  0  0  0
   -4.1482    0.8670    0.1115 C   0  0  0  0  0  0  0  0  0  0  0  0
   -4.0999   -1.0310   -0.9353 H   0  0  0  0  0  0  0  0  0  0  0  0
   -1.5321   -1.0362   -1.1185 H   0  0  0  0  0  0  0  0  0  0  0  0
   -1.4152    2.8032    0.9838 H   0  0  0  0  0  0  0  0  0  0  0  0
   -3.9842    2.7664    1.1441 H   0  0  0  0  0  0  0  0  0  0  0  0
   -5.6314    0.8579    0.2107 N   0  0  0  0  0  0  0  0  0  0  0  0
   -6.1974   -0.1080   -0.2806 O   0  0  0  0  0  0  0  0  0  0  0  0
   -6.1388    1.8172    0.7737 O   0  0  0  0  0  0  0  0  0  0  0  0
   11.2352    0.8418   -0.9789 N   0  0  0  0  0  0  0  0  0  0  0  0
   12.3379    0.8393   -1.0568 N   0  0  0  0  0  0  0  0  0  0  0  0
  1  6  1  0  0  0  0
  2  1  2  0  0  0  0
  2  3  1  0  0  0  0
  3  4  2  0  0  0  0
  4  5  1  0  0  0  0
  4  9  1  0  0  0  0
  5 10  1  0  0  0  0
  6 11  1  0  0  0  0
  6  5  2  0  0  0  0
  7  1  1  0  0  0  0
  8  2  1  0  0  0  0
 11 13  2  0  0  0  0
 12 11  2  0  0  0  0
 15 14  3  0  0  0  0
M  RAD  1   3   2
M  END
