Coordinates from ORCA-job 4-NO2-Ph-N2+-scan-d090-169-n800
 OpenBabel09191814013D

 15 14  0  0  0  0  0  0  0  0999 V2000
   -3.8897   -0.2046   -0.4959 C   0  0  0  0  0  0  0  0  0  0  0  0
   -2.4674   -0.2367   -0.6134 C   0  0  0  0  0  0  0  0  0  0  0  0
   -2.0793    0.8898   -0.0215 C   0  0  0  0  0  0  0  0  0  0  0  0
   -2.4084    2.0095    0.6172 C   0  0  0  0  0  0  0  0  0  0  0  0
   -3.8331    1.9506    0.6849 C   0  0  0  0  0  0  0  0  0  0  0  0
   -4.5211    0.8668    0.1375 C   0  0  0  0  0  0  0  0  0  0  0  0
   -4.4648   -1.0308   -0.9096 H   0  0  0  0  0  0  0  0  0  0  0  0
   -1.8967   -1.0277   -1.0883 H   0  0  0  0  0  0  0  0  0  0  0  0
   -1.7959    2.8115    1.0151 H   0  0  0  0  0  0  0  0  0  0  0  0
   -4.3650    2.7664    1.1707 H   0  0  0  0  0  0  0  0  0  0  0  0
   -6.0044    0.8529    0.2340 N   0  0  0  0  0  0  0  0  0  0  0  0
   -6.5664   -0.1147   -0.2585 O   0  0  0  0  0  0  0  0  0  0  0  0
   -6.5158    1.8104    0.7963 O   0  0  0  0  0  0  0  0  0  0  0  0
   13.6583    0.8273   -1.1565 N   0  0  0  0  0  0  0  0  0  0  0  0
   14.7613    0.8307   -1.2309 N   0  0  0  0  0  0  0  0  0  0  0  0
  1  6  1  0  0  0  0
  2  1  2  0  0  0  0
  2  3  1  0  0  0  0
  3  4  2  0  0  0  0
  4  5  1  0  0  0  0
  4  9  1  0  0  0  0
  5 10  1  0  0  0  0
  6 11  1  0  0  0  0
  6  5  2  0  0  0  0
  7  1  1  0  0  0  0
  8  2  1  0  0  0  0
 11 13  2  0  0  0  0
 12 11  2  0  0  0  0
 15 14  3  0  0  0  0
M  RAD  1   3   2
M  END
