Coordinates from ORCA-job 4-NO2-Ph-N2+-scan-d090-169-n800
 OpenBabel09191814013D

 15 14  0  0  0  0  0  0  0  0999 V2000
   -3.4609   -0.2068   -0.5272 C   0  0  0  0  0  0  0  0  0  0  0  0
   -2.0391   -0.2442   -0.6476 C   0  0  0  0  0  0  0  0  0  0  0  0
   -1.6452    0.8809   -0.0568 C   0  0  0  0  0  0  0  0  0  0  0  0
   -1.9693    2.0019    0.5822 C   0  0  0  0  0  0  0  0  0  0  0  0
   -3.3939    1.9485    0.6529 C   0  0  0  0  0  0  0  0  0  0  0  0
   -4.0870    0.8671    0.1072 C   0  0  0  0  0  0  0  0  0  0  0  0
   -4.0397   -1.0310   -0.9396 H   0  0  0  0  0  0  0  0  0  0  0  0
   -1.4723   -1.0374   -1.1234 H   0  0  0  0  0  0  0  0  0  0  0  0
   -1.3530    2.8019    0.9787 H   0  0  0  0  0  0  0  0  0  0  0  0
   -3.9217    2.7664    1.1396 H   0  0  0  0  0  0  0  0  0  0  0  0
   -5.5702    0.8587    0.2067 N   0  0  0  0  0  0  0  0  0  0  0  0
   -6.1368   -0.1072   -0.2840 O   0  0  0  0  0  0  0  0  0  0  0  0
   -6.0769    1.8181    0.7702 O   0  0  0  0  0  0  0  0  0  0  0  0
   10.8373    0.8435   -0.9501 N   0  0  0  0  0  0  0  0  0  0  0  0
   11.9400    0.8411   -1.0279 N   0  0  0  0  0  0  0  0  0  0  0  0
  1  6  1  0  0  0  0
  2  1  2  0  0  0  0
  2  3  1  0  0  0  0
  3  4  2  0  0  0  0
  4  5  1  0  0  0  0
  4  9  1  0  0  0  0
  5 10  1  0  0  0  0
  6 11  1  0  0  0  0
  6  5  2  0  0  0  0
  7  1  1  0  0  0  0
  8  2  1  0  0  0  0
 11 13  2  0  0  0  0
 12 11  2  0  0  0  0
 15 14  3  0  0  0  0
M  RAD  1   3   2
M  END
