Coordinates from ORCA-job 4-NO2-Ph-N2+-scan-d090-169-n800
 OpenBabel09191814003D

 15 14  0  0  0  0  0  0  0  0999 V2000
   -2.2813   -0.2110   -0.6119 C   0  0  0  0  0  0  0  0  0  0  0  0
   -0.8606   -0.2560   -0.7361 C   0  0  0  0  0  0  0  0  0  0  0  0
   -0.4565    0.8668   -0.1472 C   0  0  0  0  0  0  0  0  0  0  0  0
   -0.7744    1.9895    0.4922 C   0  0  0  0  0  0  0  0  0  0  0  0
   -2.1986    1.9447    0.5674 C   0  0  0  0  0  0  0  0  0  0  0  0
   -2.8992    0.8669    0.0240 C   0  0  0  0  0  0  0  0  0  0  0  0
   -2.8670   -1.0314   -1.0218 H   0  0  0  0  0  0  0  0  0  0  0  0
   -0.2975   -1.0510   -1.2126 H   0  0  0  0  0  0  0  0  0  0  0  0
   -0.1503    2.7845    0.8855 H   0  0  0  0  0  0  0  0  0  0  0  0
   -2.7213    2.7651    1.0550 H   0  0  0  0  0  0  0  0  0  0  0  0
   -4.3820    0.8669    0.1279 N   0  0  0  0  0  0  0  0  0  0  0  0
   -4.9561   -0.0955   -0.3610 O   0  0  0  0  0  0  0  0  0  0  0  0
   -4.8822    1.8295    0.6921 O   0  0  0  0  0  0  0  0  0  0  0  0
    3.1181    0.8663   -0.3976 N   0  0  0  0  0  0  0  0  0  0  0  0
    4.2206    0.8662   -0.4748 N   0  0  0  0  0  0  0  0  0  0  0  0
  1  6  1  0  0  0  0
  2  1  2  0  0  0  0
  2  3  1  0  0  0  0
  3  4  2  0  0  0  0
  4  5  1  0  0  0  0
  4  9  1  0  0  0  0
  5 10  1  0  0  0  0
  6 11  1  0  0  0  0
  6  5  2  0  0  0  0
  7  1  1  0  0  0  0
  8  2  1  0  0  0  0
 11 13  2  0  0  0  0
 12 11  2  0  0  0  0
 15 14  3  0  0  0  0
M  RAD  1   3   2
M  END
