Coordinates from ORCA-job 4-NO2-Ph-N2+-scan-d090-169-n800
 OpenBabel09191814013D

 15 14  0  0  0  0  0  0  0  0999 V2000
   -3.9055   -0.2045   -0.4947 C   0  0  0  0  0  0  0  0  0  0  0  0
   -2.4832   -0.2364   -0.6122 C   0  0  0  0  0  0  0  0  0  0  0  0
   -2.0953    0.8901   -0.0201 C   0  0  0  0  0  0  0  0  0  0  0  0
   -2.4246    2.0098    0.6185 C   0  0  0  0  0  0  0  0  0  0  0  0
   -3.8493    1.9507    0.6861 C   0  0  0  0  0  0  0  0  0  0  0  0
   -4.5370    0.8668    0.1386 C   0  0  0  0  0  0  0  0  0  0  0  0
   -4.4804   -1.0308   -0.9086 H   0  0  0  0  0  0  0  0  0  0  0  0
   -1.9122   -1.0272   -1.0870 H   0  0  0  0  0  0  0  0  0  0  0  0
   -1.8122    2.8120    1.0164 H   0  0  0  0  0  0  0  0  0  0  0  0
   -4.3814    2.7664    1.1719 H   0  0  0  0  0  0  0  0  0  0  0  0
   -6.0204    0.8526    0.2350 N   0  0  0  0  0  0  0  0  0  0  0  0
   -6.5822   -0.1151   -0.2576 O   0  0  0  0  0  0  0  0  0  0  0  0
   -6.5320    1.8101    0.7973 O   0  0  0  0  0  0  0  0  0  0  0  0
   13.7622    0.8267   -1.1641 N   0  0  0  0  0  0  0  0  0  0  0  0
   14.8651    0.8303   -1.2384 N   0  0  0  0  0  0  0  0  0  0  0  0
  1  6  1  0  0  0  0
  2  1  2  0  0  0  0
  2  3  1  0  0  0  0
  3  4  2  0  0  0  0
  4  5  1  0  0  0  0
  4  9  1  0  0  0  0
  5 10  1  0  0  0  0
  6 11  1  0  0  0  0
  6  5  2  0  0  0  0
  7  1  1  0  0  0  0
  8  2  1  0  0  0  0
 11 13  2  0  0  0  0
 12 11  2  0  0  0  0
 15 14  3  0  0  0  0
M  RAD  1   3   2
M  END
