Coordinates from ORCA-job 4-NO2-Ph-N2+-scan-d090-169-n800
 OpenBabel09191814013D

 15 14  0  0  0  0  0  0  0  0999 V2000
   -2.9570   -0.2091   -0.5636 C   0  0  0  0  0  0  0  0  0  0  0  0
   -1.5354   -0.2514   -0.6867 C   0  0  0  0  0  0  0  0  0  0  0  0
   -1.1371    0.8726   -0.0967 C   0  0  0  0  0  0  0  0  0  0  0  0
   -1.4557    1.9950    0.5426 C   0  0  0  0  0  0  0  0  0  0  0  0
   -2.8805    1.9463    0.6159 C   0  0  0  0  0  0  0  0  0  0  0  0
   -3.5782    0.8671    0.0717 C   0  0  0  0  0  0  0  0  0  0  0  0
   -3.5395   -1.0314   -0.9747 H   0  0  0  0  0  0  0  0  0  0  0  0
   -0.9720   -1.0465   -1.1633 H   0  0  0  0  0  0  0  0  0  0  0  0
   -0.8358    2.7928    0.9377 H   0  0  0  0  0  0  0  0  0  0  0  0
   -3.4048    2.7660    1.1034 H   0  0  0  0  0  0  0  0  0  0  0  0
   -5.0612    0.8637    0.1739 N   0  0  0  0  0  0  0  0  0  0  0  0
   -5.6320   -0.1001   -0.3159 O   0  0  0  0  0  0  0  0  0  0  0  0
   -5.5637    1.8251    0.7378 O   0  0  0  0  0  0  0  0  0  0  0  0
    7.5309    0.8564   -0.7118 N   0  0  0  0  0  0  0  0  0  0  0  0
    8.6336    0.8549   -0.7893 N   0  0  0  0  0  0  0  0  0  0  0  0
  1  6  1  0  0  0  0
  2  1  2  0  0  0  0
  2  3  1  0  0  0  0
  3  4  2  0  0  0  0
  4  5  1  0  0  0  0
  4  9  1  0  0  0  0
  5 10  1  0  0  0  0
  6 11  1  0  0  0  0
  6  5  2  0  0  0  0
  7  1  1  0  0  0  0
  8  2  1  0  0  0  0
 11 13  2  0  0  0  0
 12 11  2  0  0  0  0
 15 14  3  0  0  0  0
M  RAD  1   3   2
M  END
