Coordinates from ORCA-job 4-NO2-Ph-N2+-scan-d090-169-n800
 OpenBabel09191814013D

 15 14  0  0  0  0  0  0  0  0999 V2000
   -2.5494   -0.2105   -0.5928 C   0  0  0  0  0  0  0  0  0  0  0  0
   -1.1280   -0.2553   -0.7171 C   0  0  0  0  0  0  0  0  0  0  0  0
   -0.7271    0.8681   -0.1277 C   0  0  0  0  0  0  0  0  0  0  0  0
   -1.0432    1.9911    0.5118 C   0  0  0  0  0  0  0  0  0  0  0  0
   -2.4679    1.9450    0.5864 C   0  0  0  0  0  0  0  0  0  0  0  0
   -3.1681    0.8669    0.0429 C   0  0  0  0  0  0  0  0  0  0  0  0
   -3.1338   -1.0317   -1.0032 H   0  0  0  0  0  0  0  0  0  0  0  0
   -0.5661   -1.0512   -1.1941 H   0  0  0  0  0  0  0  0  0  0  0  0
   -0.4210    2.7876    0.9060 H   0  0  0  0  0  0  0  0  0  0  0  0
   -2.9903    2.7657    1.0742 H   0  0  0  0  0  0  0  0  0  0  0  0
   -4.6509    0.8663    0.1466 N   0  0  0  0  0  0  0  0  0  0  0  0
   -5.2240   -0.0965   -0.3428 O   0  0  0  0  0  0  0  0  0  0  0  0
   -5.1513    1.8287    0.7105 O   0  0  0  0  0  0  0  0  0  0  0  0
    4.8650    0.8640   -0.5211 N   0  0  0  0  0  0  0  0  0  0  0  0
    5.9676    0.8634   -0.5984 N   0  0  0  0  0  0  0  0  0  0  0  0
  1  6  1  0  0  0  0
  2  1  2  0  0  0  0
  2  3  1  0  0  0  0
  3  4  2  0  0  0  0
  4  5  1  0  0  0  0
  4  9  1  0  0  0  0
  5 10  1  0  0  0  0
  6 11  1  0  0  0  0
  6  5  2  0  0  0  0
  7  1  1  0  0  0  0
  8  2  1  0  0  0  0
 11 13  2  0  0  0  0
 12 11  2  0  0  0  0
 15 14  3  0  0  0  0
M  RAD  1   3   2
M  END
