Coordinates from ORCA-job 4-NO2-Ph-N2+-scan-d090-169-n800
 OpenBabel09191814013D

 15 14  0  0  0  0  0  0  0  0999 V2000
   -3.0732   -0.2086   -0.5552 C   0  0  0  0  0  0  0  0  0  0  0  0
   -1.6516   -0.2499   -0.6778 C   0  0  0  0  0  0  0  0  0  0  0  0
   -1.2541    0.8743   -0.0877 C   0  0  0  0  0  0  0  0  0  0  0  0
   -1.5739    1.9964    0.5517 C   0  0  0  0  0  0  0  0  0  0  0  0
   -2.9986    1.9467    0.6244 C   0  0  0  0  0  0  0  0  0  0  0  0
   -3.6954    0.8671    0.0799 C   0  0  0  0  0  0  0  0  0  0  0  0
   -3.6550   -1.0313   -0.9666 H   0  0  0  0  0  0  0  0  0  0  0  0
   -1.0875   -1.0447   -1.1543 H   0  0  0  0  0  0  0  0  0  0  0  0
   -0.9547    2.7947    0.9470 H   0  0  0  0  0  0  0  0  0  0  0  0
   -3.5236    2.7661    1.1117 H   0  0  0  0  0  0  0  0  0  0  0  0
   -5.1785    0.8627    0.1816 N   0  0  0  0  0  0  0  0  0  0  0  0
   -5.7484   -0.1015   -0.3084 O   0  0  0  0  0  0  0  0  0  0  0  0
   -5.6818    1.8238    0.7453 O   0  0  0  0  0  0  0  0  0  0  0  0
    8.2926    0.8537   -0.7665 N   0  0  0  0  0  0  0  0  0  0  0  0
    9.3953    0.8520   -0.8441 N   0  0  0  0  0  0  0  0  0  0  0  0
  1  6  1  0  0  0  0
  2  1  2  0  0  0  0
  2  3  1  0  0  0  0
  3  4  2  0  0  0  0
  4  5  1  0  0  0  0
  4  9  1  0  0  0  0
  5 10  1  0  0  0  0
  6 11  1  0  0  0  0
  6  5  2  0  0  0  0
  7  1  1  0  0  0  0
  8  2  1  0  0  0  0
 11 13  2  0  0  0  0
 12 11  2  0  0  0  0
 15 14  3  0  0  0  0
M  RAD  1   3   2
M  END
