Coordinates from ORCA-job 4-NO2-Ph-N2+-scan-d090-169-n800
 OpenBabel09191814003D

 15 14  0  0  0  0  0  0  0  0999 V2000
   -2.2866   -0.2110   -0.6115 C   0  0  0  0  0  0  0  0  0  0  0  0
   -0.8659   -0.2560   -0.7357 C   0  0  0  0  0  0  0  0  0  0  0  0
   -0.4620    0.8668   -0.1468 C   0  0  0  0  0  0  0  0  0  0  0  0
   -0.7797    1.9896    0.4926 C   0  0  0  0  0  0  0  0  0  0  0  0
   -2.2039    1.9447    0.5678 C   0  0  0  0  0  0  0  0  0  0  0  0
   -2.9045    0.8669    0.0243 C   0  0  0  0  0  0  0  0  0  0  0  0
   -2.8723   -1.0314   -1.0214 H   0  0  0  0  0  0  0  0  0  0  0  0
   -0.3028   -1.0511   -1.2123 H   0  0  0  0  0  0  0  0  0  0  0  0
   -0.1556    2.7846    0.8859 H   0  0  0  0  0  0  0  0  0  0  0  0
   -2.7266    2.7651    1.0554 H   0  0  0  0  0  0  0  0  0  0  0  0
   -4.3873    0.8669    0.1283 N   0  0  0  0  0  0  0  0  0  0  0  0
   -4.9614   -0.0955   -0.3607 O   0  0  0  0  0  0  0  0  0  0  0  0
   -4.8875    1.8295    0.6924 O   0  0  0  0  0  0  0  0  0  0  0  0
    3.1526    0.8663   -0.4001 N   0  0  0  0  0  0  0  0  0  0  0  0
    4.2550    0.8661   -0.4772 N   0  0  0  0  0  0  0  0  0  0  0  0
  1  6  1  0  0  0  0
  2  1  2  0  0  0  0
  2  3  1  0  0  0  0
  3  4  2  0  0  0  0
  4  5  1  0  0  0  0
  4  9  1  0  0  0  0
  5 10  1  0  0  0  0
  6 11  1  0  0  0  0
  6  5  2  0  0  0  0
  7  1  1  0  0  0  0
  8  2  1  0  0  0  0
 11 13  2  0  0  0  0
 12 11  2  0  0  0  0
 15 14  3  0  0  0  0
M  RAD  1   3   2
M  END
