Coordinates from ORCA-job 4-NO2-Ph-N2+-scan-d090-169-n800
 OpenBabel09191814013D

 15 14  0  0  0  0  0  0  0  0999 V2000
   -3.8451   -0.2049   -0.4991 C   0  0  0  0  0  0  0  0  0  0  0  0
   -2.4229   -0.2375   -0.6169 C   0  0  0  0  0  0  0  0  0  0  0  0
   -2.0339    0.8887   -0.0252 C   0  0  0  0  0  0  0  0  0  0  0  0
   -2.3627    2.0085    0.6135 C   0  0  0  0  0  0  0  0  0  0  0  0
   -3.7873    1.9504    0.6816 C   0  0  0  0  0  0  0  0  0  0  0  0
   -4.4759    0.8668    0.1343 C   0  0  0  0  0  0  0  0  0  0  0  0
   -4.4204   -1.0309   -0.9128 H   0  0  0  0  0  0  0  0  0  0  0  0
   -1.8527   -1.0287   -1.0919 H   0  0  0  0  0  0  0  0  0  0  0  0
   -1.7497    2.8103    1.0112 H   0  0  0  0  0  0  0  0  0  0  0  0
   -4.3185    2.7666    1.1676 H   0  0  0  0  0  0  0  0  0  0  0  0
   -5.9592    0.8536    0.2312 N   0  0  0  0  0  0  0  0  0  0  0  0
   -6.5217   -0.1138   -0.2612 O   0  0  0  0  0  0  0  0  0  0  0  0
   -6.4701    1.8114    0.7936 O   0  0  0  0  0  0  0  0  0  0  0  0
   13.3643    0.8292   -1.1349 N   0  0  0  0  0  0  0  0  0  0  0  0
   14.4672    0.8317   -1.2098 N   0  0  0  0  0  0  0  0  0  0  0  0
  1  6  1  0  0  0  0
  2  1  2  0  0  0  0
  2  3  1  0  0  0  0
  3  4  2  0  0  0  0
  4  5  1  0  0  0  0
  4  9  1  0  0  0  0
  5 10  1  0  0  0  0
  6 11  1  0  0  0  0
  6  5  2  0  0  0  0
  7  1  1  0  0  0  0
  8  2  1  0  0  0  0
 11 13  2  0  0  0  0
 12 11  2  0  0  0  0
 15 14  3  0  0  0  0
M  RAD  1   3   2
M  END
