Coordinates from ORCA-job 4-NO2-Ph-N2+-scan-d090-169-n800
 OpenBabel09191814013D

 15 14  0  0  0  0  0  0  0  0999 V2000
   -3.9422   -0.2043   -0.4920 C   0  0  0  0  0  0  0  0  0  0  0  0
   -2.5199   -0.2357   -0.6092 C   0  0  0  0  0  0  0  0  0  0  0  0
   -2.1325    0.8910   -0.0170 C   0  0  0  0  0  0  0  0  0  0  0  0
   -2.4625    2.0106    0.6216 C   0  0  0  0  0  0  0  0  0  0  0  0
   -3.8871    1.9509    0.6889 C   0  0  0  0  0  0  0  0  0  0  0  0
   -4.5743    0.8668    0.1411 C   0  0  0  0  0  0  0  0  0  0  0  0
   -4.5167   -1.0308   -0.9060 H   0  0  0  0  0  0  0  0  0  0  0  0
   -1.9486   -1.0263   -1.0839 H   0  0  0  0  0  0  0  0  0  0  0  0
   -1.8504    2.8129    1.0196 H   0  0  0  0  0  0  0  0  0  0  0  0
   -4.4196    2.7664    1.1745 H   0  0  0  0  0  0  0  0  0  0  0  0
   -6.0577    0.8520    0.2372 N   0  0  0  0  0  0  0  0  0  0  0  0
   -6.6190   -0.1159   -0.2555 O   0  0  0  0  0  0  0  0  0  0  0  0
   -6.5698    1.8093    0.7995 O   0  0  0  0  0  0  0  0  0  0  0  0
   14.0045    0.8251   -1.1819 N   0  0  0  0  0  0  0  0  0  0  0  0
   15.1075    0.8293   -1.2559 N   0  0  0  0  0  0  0  0  0  0  0  0
  1  6  1  0  0  0  0
  2  1  2  0  0  0  0
  2  3  1  0  0  0  0
  3  4  2  0  0  0  0
  4  5  1  0  0  0  0
  4  9  1  0  0  0  0
  5 10  1  0  0  0  0
  6 11  1  0  0  0  0
  6  5  2  0  0  0  0
  7  1  1  0  0  0  0
  8  2  1  0  0  0  0
 11 13  2  0  0  0  0
 12 11  2  0  0  0  0
 15 14  3  0  0  0  0
M  RAD  1   3   2
M  END
