Coordinates from ORCA-job 4-NO2-Ph-N2+-scan-d090-169-n800
 OpenBabel09191814003D

 15 14  0  0  0  0  0  0  0  0999 V2000
   -2.1147   -0.2109   -0.6235 C   0  0  0  0  0  0  0  0  0  0  0  0
   -0.7032   -0.2495   -0.7435 C   0  0  0  0  0  0  0  0  0  0  0  0
   -0.2305    0.8667   -0.1630 C   0  0  0  0  0  0  0  0  0  0  0  0
   -0.6175    1.9829    0.4776 C   0  0  0  0  0  0  0  0  0  0  0  0
   -2.0319    1.9445    0.5556 C   0  0  0  0  0  0  0  0  0  0  0  0
   -2.7313    0.8669    0.0122 C   0  0  0  0  0  0  0  0  0  0  0  0
   -2.7073   -1.0260   -1.0300 H   0  0  0  0  0  0  0  0  0  0  0  0
   -0.1521   -1.0495   -1.2219 H   0  0  0  0  0  0  0  0  0  0  0  0
   -0.0049    2.7829    0.8745 H   0  0  0  0  0  0  0  0  0  0  0  0
   -2.5620    2.7597    1.0408 H   0  0  0  0  0  0  0  0  0  0  0  0
   -4.2154    0.8670    0.1162 N   0  0  0  0  0  0  0  0  0  0  0  0
   -4.7922   -0.0947   -0.3720 O   0  0  0  0  0  0  0  0  0  0  0  0
   -4.7183    1.8286    0.6801 O   0  0  0  0  0  0  0  0  0  0  0  0
    2.0456    0.8665   -0.3225 N   0  0  0  0  0  0  0  0  0  0  0  0
    3.1472    0.8664   -0.3996 N   0  0  0  0  0  0  0  0  0  0  0  0
  1  6  1  0  0  0  0
  2  1  2  0  0  0  0
  2  3  1  0  0  0  0
  3  4  2  0  0  0  0
  4  5  1  0  0  0  0
  4  9  1  0  0  0  0
  5 10  1  0  0  0  0
  6 11  1  0  0  0  0
  6  5  2  0  0  0  0
  7  1  1  0  0  0  0
  8  2  1  0  0  0  0
 11 13  2  0  0  0  0
 12 11  2  0  0  0  0
 15 14  3  0  0  0  0
M  RAD  1   3   2
M  END
