Coordinates from ORCA-job 4-NO2-Ph-N2+-scan-d090-169-n800
 OpenBabel09191814013D

 15 14  0  0  0  0  0  0  0  0999 V2000
   -3.2764   -0.2077   -0.5405 C   0  0  0  0  0  0  0  0  0  0  0  0
   -1.8546   -0.2472   -0.6621 C   0  0  0  0  0  0  0  0  0  0  0  0
   -1.4591    0.8776   -0.0716 C   0  0  0  0  0  0  0  0  0  0  0  0
   -1.7808    1.9992    0.5676 C   0  0  0  0  0  0  0  0  0  0  0  0
   -3.2055    1.9476    0.6393 C   0  0  0  0  0  0  0  0  0  0  0  0
   -3.9005    0.8671    0.0942 C   0  0  0  0  0  0  0  0  0  0  0  0
   -3.8568   -1.0311   -0.9524 H   0  0  0  0  0  0  0  0  0  0  0  0
   -1.2892   -1.0411   -1.1382 H   0  0  0  0  0  0  0  0  0  0  0  0
   -1.1630    2.7982    0.9635 H   0  0  0  0  0  0  0  0  0  0  0  0
   -3.7319    2.7662    1.1264 H   0  0  0  0  0  0  0  0  0  0  0  0
   -5.3836    0.8608    0.1949 N   0  0  0  0  0  0  0  0  0  0  0  0
   -5.9519   -0.1042   -0.2957 O   0  0  0  0  0  0  0  0  0  0  0  0
   -5.8886    1.8211    0.7583 O   0  0  0  0  0  0  0  0  0  0  0  0
    9.6254    0.8486   -0.8626 N   0  0  0  0  0  0  0  0  0  0  0  0
   10.7281    0.8465   -0.9403 N   0  0  0  0  0  0  0  0  0  0  0  0
  1  6  1  0  0  0  0
  2  1  2  0  0  0  0
  2  3  1  0  0  0  0
  3  4  2  0  0  0  0
  4  5  1  0  0  0  0
  4  9  1  0  0  0  0
  5 10  1  0  0  0  0
  6 11  1  0  0  0  0
  6  5  2  0  0  0  0
  7  1  1  0  0  0  0
  8  2  1  0  0  0  0
 11 13  2  0  0  0  0
 12 11  2  0  0  0  0
 15 14  3  0  0  0  0
M  RAD  1   3   2
M  END
