Coordinates from ORCA-job 4-NO2-Ph-N2+-scan-d090-169-n800
 OpenBabel09191814013D

 15 14  0  0  0  0  0  0  0  0999 V2000
   -3.0627   -0.2087   -0.5560 C   0  0  0  0  0  0  0  0  0  0  0  0
   -1.6410   -0.2501   -0.6786 C   0  0  0  0  0  0  0  0  0  0  0  0
   -1.2435    0.8742   -0.0885 C   0  0  0  0  0  0  0  0  0  0  0  0
   -1.5631    1.9963    0.5508 C   0  0  0  0  0  0  0  0  0  0  0  0
   -2.9879    1.9467    0.6236 C   0  0  0  0  0  0  0  0  0  0  0  0
   -3.6848    0.8671    0.0791 C   0  0  0  0  0  0  0  0  0  0  0  0
   -3.6445   -1.0313   -0.9673 H   0  0  0  0  0  0  0  0  0  0  0  0
   -1.0771   -1.0448   -1.1551 H   0  0  0  0  0  0  0  0  0  0  0  0
   -0.9439    2.7945    0.9461 H   0  0  0  0  0  0  0  0  0  0  0  0
   -3.5128    2.7661    1.1110 H   0  0  0  0  0  0  0  0  0  0  0  0
   -5.1678    0.8628    0.1809 N   0  0  0  0  0  0  0  0  0  0  0  0
   -5.7378   -0.1014   -0.3091 O   0  0  0  0  0  0  0  0  0  0  0  0
   -5.6710    1.8239    0.7447 O   0  0  0  0  0  0  0  0  0  0  0  0
    8.2233    0.8539   -0.7615 N   0  0  0  0  0  0  0  0  0  0  0  0
    9.3261    0.8522   -0.8391 N   0  0  0  0  0  0  0  0  0  0  0  0
  1  6  1  0  0  0  0
  2  1  2  0  0  0  0
  2  3  1  0  0  0  0
  3  4  2  0  0  0  0
  4  5  1  0  0  0  0
  4  9  1  0  0  0  0
  5 10  1  0  0  0  0
  6 11  1  0  0  0  0
  6  5  2  0  0  0  0
  7  1  1  0  0  0  0
  8  2  1  0  0  0  0
 11 13  2  0  0  0  0
 12 11  2  0  0  0  0
 15 14  3  0  0  0  0
M  RAD  1   3   2
M  END
