Coordinates from ORCA-job 4-NO2-Ph-N2+-scan-d090-169-n800
 OpenBabel09191814013D

 15 14  0  0  0  0  0  0  0  0999 V2000
   -2.5255   -0.2105   -0.5945 C   0  0  0  0  0  0  0  0  0  0  0  0
   -1.1042   -0.2554   -0.7189 C   0  0  0  0  0  0  0  0  0  0  0  0
   -0.7032    0.8679   -0.1295 C   0  0  0  0  0  0  0  0  0  0  0  0
   -1.0191    1.9909    0.5100 C   0  0  0  0  0  0  0  0  0  0  0  0
   -2.4439    1.9449    0.5847 C   0  0  0  0  0  0  0  0  0  0  0  0
   -3.1441    0.8670    0.0412 C   0  0  0  0  0  0  0  0  0  0  0  0
   -3.1100   -1.0317   -1.0049 H   0  0  0  0  0  0  0  0  0  0  0  0
   -0.5422   -1.0514   -1.1958 H   0  0  0  0  0  0  0  0  0  0  0  0
   -0.3968    2.7873    0.9042 H   0  0  0  0  0  0  0  0  0  0  0  0
   -2.9662    2.7657    1.0725 H   0  0  0  0  0  0  0  0  0  0  0  0
   -4.6269    0.8664    0.1448 N   0  0  0  0  0  0  0  0  0  0  0  0
   -5.2001   -0.0964   -0.3443 O   0  0  0  0  0  0  0  0  0  0  0  0
   -5.1272    1.8288    0.7090 O   0  0  0  0  0  0  0  0  0  0  0  0
    4.7091    0.8643   -0.5100 N   0  0  0  0  0  0  0  0  0  0  0  0
    5.8118    0.8638   -0.5873 N   0  0  0  0  0  0  0  0  0  0  0  0
  1  6  1  0  0  0  0
  2  1  2  0  0  0  0
  2  3  1  0  0  0  0
  3  4  2  0  0  0  0
  4  5  1  0  0  0  0
  4  9  1  0  0  0  0
  5 10  1  0  0  0  0
  6 11  1  0  0  0  0
  6  5  2  0  0  0  0
  7  1  1  0  0  0  0
  8  2  1  0  0  0  0
 11 13  2  0  0  0  0
 12 11  2  0  0  0  0
 15 14  3  0  0  0  0
M  RAD  1   3   2
M  END
