Coordinates from ORCA-job 4-NO2-Ph-N2+-scan-d090-169-n800
 OpenBabel09191814013D

 15 14  0  0  0  0  0  0  0  0999 V2000
   -3.3898   -0.2072   -0.5323 C   0  0  0  0  0  0  0  0  0  0  0  0
   -1.9679   -0.2455   -0.6532 C   0  0  0  0  0  0  0  0  0  0  0  0
   -1.5736    0.8796   -0.0625 C   0  0  0  0  0  0  0  0  0  0  0  0
   -1.8964    2.0009    0.5767 C   0  0  0  0  0  0  0  0  0  0  0  0
   -3.3212    1.9481    0.6477 C   0  0  0  0  0  0  0  0  0  0  0  0
   -4.0150    0.8671    0.1022 C   0  0  0  0  0  0  0  0  0  0  0  0
   -3.9693   -1.0311   -0.9444 H   0  0  0  0  0  0  0  0  0  0  0  0
   -1.4016   -1.0389   -1.1291 H   0  0  0  0  0  0  0  0  0  0  0  0
   -1.2795    2.8004    0.9728 H   0  0  0  0  0  0  0  0  0  0  0  0
   -3.8485    2.7663    1.1345 H   0  0  0  0  0  0  0  0  0  0  0  0
   -5.4982    0.8595    0.2022 N   0  0  0  0  0  0  0  0  0  0  0  0
   -6.0655   -0.1059   -0.2887 O   0  0  0  0  0  0  0  0  0  0  0  0
   -6.0042    1.8194    0.7655 O   0  0  0  0  0  0  0  0  0  0  0  0
   10.3697    0.8455   -0.9163 N   0  0  0  0  0  0  0  0  0  0  0  0
   11.4724    0.8432   -0.9941 N   0  0  0  0  0  0  0  0  0  0  0  0
  1  6  1  0  0  0  0
  2  1  2  0  0  0  0
  2  3  1  0  0  0  0
  3  4  2  0  0  0  0
  4  5  1  0  0  0  0
  4  9  1  0  0  0  0
  5 10  1  0  0  0  0
  6 11  1  0  0  0  0
  6  5  2  0  0  0  0
  7  1  1  0  0  0  0
  8  2  1  0  0  0  0
 11 13  2  0  0  0  0
 12 11  2  0  0  0  0
 15 14  3  0  0  0  0
M  RAD  1   3   2
M  END
