Coordinates from ORCA-job 4-NO2-Ph-N2+-scan-d090-169-n800
 OpenBabel09191814013D

 15 14  0  0  0  0  0  0  0  0999 V2000
   -3.8215   -0.2050   -0.5009 C   0  0  0  0  0  0  0  0  0  0  0  0
   -2.3993   -0.2379   -0.6188 C   0  0  0  0  0  0  0  0  0  0  0  0
   -2.0099    0.8882   -0.0272 C   0  0  0  0  0  0  0  0  0  0  0  0
   -2.3384    2.0080    0.6115 C   0  0  0  0  0  0  0  0  0  0  0  0
   -3.7630    1.9503    0.6798 C   0  0  0  0  0  0  0  0  0  0  0  0
   -4.4519    0.8669    0.1327 C   0  0  0  0  0  0  0  0  0  0  0  0
   -4.3970   -1.0309   -0.9145 H   0  0  0  0  0  0  0  0  0  0  0  0
   -1.8293   -1.0293   -1.0939 H   0  0  0  0  0  0  0  0  0  0  0  0
   -1.7252    2.8098    1.0091 H   0  0  0  0  0  0  0  0  0  0  0  0
   -4.2940    2.7666    1.1658 H   0  0  0  0  0  0  0  0  0  0  0  0
   -5.9352    0.8539    0.2297 N   0  0  0  0  0  0  0  0  0  0  0  0
   -6.4980   -0.1134   -0.2625 O   0  0  0  0  0  0  0  0  0  0  0  0
   -6.4458    1.8118    0.7922 O   0  0  0  0  0  0  0  0  0  0  0  0
   13.2085    0.8303   -1.1234 N   0  0  0  0  0  0  0  0  0  0  0  0
   14.3114    0.8322   -1.1986 N   0  0  0  0  0  0  0  0  0  0  0  0
  1  6  1  0  0  0  0
  2  1  2  0  0  0  0
  2  3  1  0  0  0  0
  3  4  2  0  0  0  0
  4  5  1  0  0  0  0
  4  9  1  0  0  0  0
  5 10  1  0  0  0  0
  6 11  1  0  0  0  0
  6  5  2  0  0  0  0
  7  1  1  0  0  0  0
  8  2  1  0  0  0  0
 11 13  2  0  0  0  0
 12 11  2  0  0  0  0
 15 14  3  0  0  0  0
M  RAD  1   3   2
M  END
