Coordinates from ORCA-job 4-NO2-Ph-N2+-scan-d090-169-n800
 OpenBabel09191814013D

 15 14  0  0  0  0  0  0  0  0999 V2000
   -3.5688   -0.2063   -0.5193 C   0  0  0  0  0  0  0  0  0  0  0  0
   -2.1469   -0.2425   -0.6390 C   0  0  0  0  0  0  0  0  0  0  0  0
   -1.7545    0.8830   -0.0479 C   0  0  0  0  0  0  0  0  0  0  0  0
   -2.0796    2.0038    0.5910 C   0  0  0  0  0  0  0  0  0  0  0  0
   -3.5043    1.9490    0.6610 C   0  0  0  0  0  0  0  0  0  0  0  0
   -4.1962    0.8670    0.1148 C   0  0  0  0  0  0  0  0  0  0  0  0
   -4.1469   -1.0310   -0.9320 H   0  0  0  0  0  0  0  0  0  0  0  0
   -1.5791   -1.0351   -1.1147 H   0  0  0  0  0  0  0  0  0  0  0  0
   -1.4641    2.8042    0.9878 H   0  0  0  0  0  0  0  0  0  0  0  0
   -4.0331    2.7664    1.1475 H   0  0  0  0  0  0  0  0  0  0  0  0
   -5.6794    0.8573    0.2137 N   0  0  0  0  0  0  0  0  0  0  0  0
   -6.2449   -0.1088   -0.2777 O   0  0  0  0  0  0  0  0  0  0  0  0
   -6.1872    1.8164    0.7767 O   0  0  0  0  0  0  0  0  0  0  0  0
   11.5468    0.8404   -1.0015 N   0  0  0  0  0  0  0  0  0  0  0  0
   12.6495    0.8378   -1.0794 N   0  0  0  0  0  0  0  0  0  0  0  0
  1  6  1  0  0  0  0
  2  1  2  0  0  0  0
  2  3  1  0  0  0  0
  3  4  2  0  0  0  0
  4  5  1  0  0  0  0
  4  9  1  0  0  0  0
  5 10  1  0  0  0  0
  6 11  1  0  0  0  0
  6  5  2  0  0  0  0
  7  1  1  0  0  0  0
  8  2  1  0  0  0  0
 11 13  2  0  0  0  0
 12 11  2  0  0  0  0
 15 14  3  0  0  0  0
M  RAD  1   3   2
M  END
