Coordinates from ORCA-job 4-NO2-Ph-N2+-scan-d090-169-n800
 OpenBabel09191814003D

 15 14  0  0  0  0  0  0  0  0999 V2000
   -2.2390   -0.2111   -0.6148 C   0  0  0  0  0  0  0  0  0  0  0  0
   -0.8189   -0.2556   -0.7388 C   0  0  0  0  0  0  0  0  0  0  0  0
   -0.4112    0.8667   -0.1504 C   0  0  0  0  0  0  0  0  0  0  0  0
   -0.7327    1.9891    0.4891 C   0  0  0  0  0  0  0  0  0  0  0  0
   -2.1562    1.9447    0.5644 C   0  0  0  0  0  0  0  0  0  0  0  0
   -2.8568    0.8669    0.0210 C   0  0  0  0  0  0  0  0  0  0  0  0
   -2.8253   -1.0310   -1.0245 H   0  0  0  0  0  0  0  0  0  0  0  0
   -0.2560   -1.0506   -1.2153 H   0  0  0  0  0  0  0  0  0  0  0  0
   -0.1088    2.7840    0.8824 H   0  0  0  0  0  0  0  0  0  0  0  0
   -2.6795    2.7647    1.0519 H   0  0  0  0  0  0  0  0  0  0  0  0
   -4.3396    0.8670    0.1249 N   0  0  0  0  0  0  0  0  0  0  0  0
   -4.9140   -0.0954   -0.3639 O   0  0  0  0  0  0  0  0  0  0  0  0
   -4.8401    1.8294    0.6891 O   0  0  0  0  0  0  0  0  0  0  0  0
    2.8437    0.8664   -0.3784 N   0  0  0  0  0  0  0  0  0  0  0  0
    3.9461    0.8663   -0.4556 N   0  0  0  0  0  0  0  0  0  0  0  0
  1  6  1  0  0  0  0
  2  1  2  0  0  0  0
  2  3  1  0  0  0  0
  3  4  2  0  0  0  0
  4  5  1  0  0  0  0
  4  9  1  0  0  0  0
  5 10  1  0  0  0  0
  6 11  1  0  0  0  0
  6  5  2  0  0  0  0
  7  1  1  0  0  0  0
  8  2  1  0  0  0  0
 11 13  2  0  0  0  0
 12 11  2  0  0  0  0
 15 14  3  0  0  0  0
M  RAD  1   3   2
M  END
