Coordinates from ORCA-job 4-NO2-Ph-N2+-scan-d090-169-n800
 OpenBabel09191814003D

 15 15  0  0  0  0  0  0  0  0999 V2000
   -2.0267   -0.2128   -0.6306 C   0  0  0  0  0  0  0  0  0  0  0  0
   -0.6413   -0.2282   -0.7361 C   0  0  0  0  0  0  0  0  0  0  0  0
    0.0405    0.8666   -0.1820 C   0  0  0  0  0  0  0  0  0  0  0  0
   -0.5572    1.9616    0.4617 C   0  0  0  0  0  0  0  0  0  0  0  0
   -1.9438    1.9464    0.5505 C   0  0  0  0  0  0  0  0  0  0  0  0
   -2.6416    0.8669    0.0059 C   0  0  0  0  0  0  0  0  0  0  0  0
   -2.6346   -1.0166   -1.0300 H   0  0  0  0  0  0  0  0  0  0  0  0
   -0.1140   -1.0426   -1.2207 H   0  0  0  0  0  0  0  0  0  0  0  0
    0.0327    2.7759    0.8681 H   0  0  0  0  0  0  0  0  0  0  0  0
   -2.4900    2.7503    1.0307 H   0  0  0  0  0  0  0  0  0  0  0  0
   -4.1317    0.8670    0.1103 N   0  0  0  0  0  0  0  0  0  0  0  0
   -4.7097   -0.0941   -0.3776 O   0  0  0  0  0  0  0  0  0  0  0  0
   -4.6358    1.8281    0.6740 O   0  0  0  0  0  0  0  0  0  0  0  0
    1.4777    0.8665   -0.2827 N   0  0  0  0  0  0  0  0  0  0  0  0
    2.5868    0.8664   -0.3604 N   0  0  0  0  0  0  0  0  0  0  0  0
  1  6  1  0  0  0  0
  2  1  2  0  0  0  0
  2  3  1  0  0  0  0
  3  4  2  0  0  0  0
  4  5  1  0  0  0  0
  4  9  1  0  0  0  0
  5 10  1  0  0  0  0
  6 11  1  0  0  0  0
  6  5  2  0  0  0  0
  7  1  1  0  0  0  0
  8  2  1  0  0  0  0
 11 13  2  0  0  0  0
 12 11  2  0  0  0  0
 14  3  1  0  0  0  0
 15 14  1  0  0  0  0
M  RAD  2  14   2  15   3
M  END
