Coordinates from ORCA-job 4-NO2-Ph-N2+-scan-d090-169-n800
 OpenBabel09191814003D

 15 14  0  0  0  0  0  0  0  0999 V2000
   -2.1290   -0.2109   -0.6224 C   0  0  0  0  0  0  0  0  0  0  0  0
   -0.7152   -0.2511   -0.7436 C   0  0  0  0  0  0  0  0  0  0  0  0
   -0.2593    0.8667   -0.1610 C   0  0  0  0  0  0  0  0  0  0  0  0
   -0.6294    1.9845    0.4794 C   0  0  0  0  0  0  0  0  0  0  0  0
   -2.0462    1.9445    0.5566 C   0  0  0  0  0  0  0  0  0  0  0  0
   -2.7459    0.8669    0.0132 C   0  0  0  0  0  0  0  0  0  0  0  0
   -2.7200   -1.0271   -1.0297 H   0  0  0  0  0  0  0  0  0  0  0  0
   -0.1618   -1.0501   -1.2215 H   0  0  0  0  0  0  0  0  0  0  0  0
   -0.0146    2.7835    0.8755 H   0  0  0  0  0  0  0  0  0  0  0  0
   -2.5745    2.7608    1.0424 H   0  0  0  0  0  0  0  0  0  0  0  0
   -4.2296    0.8670    0.1172 N   0  0  0  0  0  0  0  0  0  0  0  0
   -4.8059   -0.0948   -0.3712 O   0  0  0  0  0  0  0  0  0  0  0  0
   -4.7321    1.8288    0.6811 O   0  0  0  0  0  0  0  0  0  0  0  0
    2.1367    0.8665   -0.3289 N   0  0  0  0  0  0  0  0  0  0  0  0
    3.2384    0.8664   -0.4061 N   0  0  0  0  0  0  0  0  0  0  0  0
  1  6  1  0  0  0  0
  2  1  2  0  0  0  0
  2  3  1  0  0  0  0
  3  4  2  0  0  0  0
  4  5  1  0  0  0  0
  4  9  1  0  0  0  0
  5 10  1  0  0  0  0
  6 11  1  0  0  0  0
  6  5  2  0  0  0  0
  7  1  1  0  0  0  0
  8  2  1  0  0  0  0
 11 13  2  0  0  0  0
 12 11  2  0  0  0  0
 15 14  3  0  0  0  0
M  RAD  1   3   2
M  END
