Coordinates from ORCA-job 4-NO2-Ph-N2+-scan-d090-169-n800
 OpenBabel09191814013D

 15 14  0  0  0  0  0  0  0  0999 V2000
   -2.8380   -0.2095   -0.5721 C   0  0  0  0  0  0  0  0  0  0  0  0
   -1.4166   -0.2525   -0.6956 C   0  0  0  0  0  0  0  0  0  0  0  0
   -1.0171    0.8711   -0.1059 C   0  0  0  0  0  0  0  0  0  0  0  0
   -1.3352    1.9935    0.5334 C   0  0  0  0  0  0  0  0  0  0  0  0
   -2.7599    1.9459    0.6072 C   0  0  0  0  0  0  0  0  0  0  0  0
   -3.4585    0.8671    0.0632 C   0  0  0  0  0  0  0  0  0  0  0  0
   -3.4209   -1.0316   -0.9831 H   0  0  0  0  0  0  0  0  0  0  0  0
   -0.8539   -1.0480   -1.1724 H   0  0  0  0  0  0  0  0  0  0  0  0
   -0.7147    2.7910    0.9283 H   0  0  0  0  0  0  0  0  0  0  0  0
   -3.2832    2.7661    1.0949 H   0  0  0  0  0  0  0  0  0  0  0  0
   -4.9414    0.8646    0.1660 N   0  0  0  0  0  0  0  0  0  0  0  0
   -5.5129   -0.0989   -0.3236 O   0  0  0  0  0  0  0  0  0  0  0  0
   -5.4431    1.8264    0.7300 O   0  0  0  0  0  0  0  0  0  0  0  0
    6.7521    0.8589   -0.6559 N   0  0  0  0  0  0  0  0  0  0  0  0
    7.8548    0.8576   -0.7333 N   0  0  0  0  0  0  0  0  0  0  0  0
  1  6  1  0  0  0  0
  2  1  2  0  0  0  0
  2  3  1  0  0  0  0
  3  4  2  0  0  0  0
  4  5  1  0  0  0  0
  4  9  1  0  0  0  0
  5 10  1  0  0  0  0
  6 11  1  0  0  0  0
  6  5  2  0  0  0  0
  7  1  1  0  0  0  0
  8  2  1  0  0  0  0
 11 13  2  0  0  0  0
 12 11  2  0  0  0  0
 15 14  3  0  0  0  0
M  RAD  1   3   2
M  END
