Coordinates from ORCA-job 4-NO2-Ph-N2+-scan-d090-169-n800
 OpenBabel09191814013D

 15 14  0  0  0  0  0  0  0  0999 V2000
   -2.8010   -0.2097   -0.5748 C   0  0  0  0  0  0  0  0  0  0  0  0
   -1.3795   -0.2531   -0.6985 C   0  0  0  0  0  0  0  0  0  0  0  0
   -0.9800    0.8707   -0.1088 C   0  0  0  0  0  0  0  0  0  0  0  0
   -1.2975    1.9933    0.5307 C   0  0  0  0  0  0  0  0  0  0  0  0
   -2.7223    1.9457    0.6045 C   0  0  0  0  0  0  0  0  0  0  0  0
   -3.4211    0.8671    0.0606 C   0  0  0  0  0  0  0  0  0  0  0  0
   -3.3843   -1.0315   -0.9856 H   0  0  0  0  0  0  0  0  0  0  0  0
   -0.8168   -1.0486   -1.1753 H   0  0  0  0  0  0  0  0  0  0  0  0
   -0.6767    2.7906    0.9254 H   0  0  0  0  0  0  0  0  0  0  0  0
   -3.2457    2.7659    1.0922 H   0  0  0  0  0  0  0  0  0  0  0  0
   -4.9040    0.8649    0.1635 N   0  0  0  0  0  0  0  0  0  0  0  0
   -5.4758   -0.0986   -0.3260 O   0  0  0  0  0  0  0  0  0  0  0  0
   -5.4055    1.8267    0.7275 O   0  0  0  0  0  0  0  0  0  0  0  0
    6.5095    0.8596   -0.6385 N   0  0  0  0  0  0  0  0  0  0  0  0
    7.6122    0.8585   -0.7159 N   0  0  0  0  0  0  0  0  0  0  0  0
  1  6  1  0  0  0  0
  2  1  2  0  0  0  0
  2  3  1  0  0  0  0
  3  4  2  0  0  0  0
  4  5  1  0  0  0  0
  4  9  1  0  0  0  0
  5 10  1  0  0  0  0
  6 11  1  0  0  0  0
  6  5  2  0  0  0  0
  7  1  1  0  0  0  0
  8  2  1  0  0  0  0
 11 13  2  0  0  0  0
 12 11  2  0  0  0  0
 15 14  3  0  0  0  0
M  RAD  1   3   2
M  END
