Coordinates from ORCA-job 4-NO2-Ph-N2+-scan-d090-169-n800
 OpenBabel09191814013D

 15 14  0  0  0  0  0  0  0  0999 V2000
   -2.8697   -0.2094   -0.5699 C   0  0  0  0  0  0  0  0  0  0  0  0
   -1.4483   -0.2522   -0.6932 C   0  0  0  0  0  0  0  0  0  0  0  0
   -1.0492    0.8715   -0.1035 C   0  0  0  0  0  0  0  0  0  0  0  0
   -1.3673    1.9940    0.5358 C   0  0  0  0  0  0  0  0  0  0  0  0
   -2.7920    1.9460    0.6095 C   0  0  0  0  0  0  0  0  0  0  0  0
   -3.4904    0.8671    0.0654 C   0  0  0  0  0  0  0  0  0  0  0  0
   -3.4526   -1.0315   -0.9809 H   0  0  0  0  0  0  0  0  0  0  0  0
   -0.8853   -1.0476   -1.1700 H   0  0  0  0  0  0  0  0  0  0  0  0
   -0.7469    2.7915    0.9307 H   0  0  0  0  0  0  0  0  0  0  0  0
   -3.3156    2.7661    1.0971 H   0  0  0  0  0  0  0  0  0  0  0  0
   -4.9733    0.8644    0.1681 N   0  0  0  0  0  0  0  0  0  0  0  0
   -5.5447   -0.0993   -0.3214 O   0  0  0  0  0  0  0  0  0  0  0  0
   -5.4752    1.8260    0.7322 O   0  0  0  0  0  0  0  0  0  0  0  0
    6.9596    0.8582   -0.6707 N   0  0  0  0  0  0  0  0  0  0  0  0
    8.0624    0.8569   -0.7482 N   0  0  0  0  0  0  0  0  0  0  0  0
  1  6  1  0  0  0  0
  2  1  2  0  0  0  0
  2  3  1  0  0  0  0
  3  4  2  0  0  0  0
  4  5  1  0  0  0  0
  4  9  1  0  0  0  0
  5 10  1  0  0  0  0
  6 11  1  0  0  0  0
  6  5  2  0  0  0  0
  7  1  1  0  0  0  0
  8  2  1  0  0  0  0
 11 13  2  0  0  0  0
 12 11  2  0  0  0  0
 15 14  3  0  0  0  0
M  RAD  1   3   2
M  END
