Coordinates from ORCA-job 4-NO2-Ph-N2+-scan-d090-169-n800
 OpenBabel09191814013D

 15 14  0  0  0  0  0  0  0  0999 V2000
   -3.2659   -0.2078   -0.5413 C   0  0  0  0  0  0  0  0  0  0  0  0
   -1.8442   -0.2472   -0.6628 C   0  0  0  0  0  0  0  0  0  0  0  0
   -1.4484    0.8774   -0.0724 C   0  0  0  0  0  0  0  0  0  0  0  0
   -1.7701    1.9990    0.5668 C   0  0  0  0  0  0  0  0  0  0  0  0
   -3.1948    1.9475    0.6386 C   0  0  0  0  0  0  0  0  0  0  0  0
   -3.8899    0.8671    0.0935 C   0  0  0  0  0  0  0  0  0  0  0  0
   -3.8463   -1.0312   -0.9531 H   0  0  0  0  0  0  0  0  0  0  0  0
   -1.2789   -1.0413   -1.1390 H   0  0  0  0  0  0  0  0  0  0  0  0
   -1.1522    2.7980    0.9626 H   0  0  0  0  0  0  0  0  0  0  0  0
   -3.7210    2.7663    1.1256 H   0  0  0  0  0  0  0  0  0  0  0  0
   -5.3730    0.8609    0.1942 N   0  0  0  0  0  0  0  0  0  0  0  0
   -5.9414   -0.1040   -0.2963 O   0  0  0  0  0  0  0  0  0  0  0  0
   -5.8779    1.8213    0.7577 O   0  0  0  0  0  0  0  0  0  0  0  0
    9.5563    0.8489   -0.8576 N   0  0  0  0  0  0  0  0  0  0  0  0
   10.6590    0.8468   -0.9353 N   0  0  0  0  0  0  0  0  0  0  0  0
  1  6  1  0  0  0  0
  2  1  2  0  0  0  0
  2  3  1  0  0  0  0
  3  4  2  0  0  0  0
  4  5  1  0  0  0  0
  4  9  1  0  0  0  0
  5 10  1  0  0  0  0
  6 11  1  0  0  0  0
  6  5  2  0  0  0  0
  7  1  1  0  0  0  0
  8  2  1  0  0  0  0
 11 13  2  0  0  0  0
 12 11  2  0  0  0  0
 15 14  3  0  0  0  0
M  RAD  1   3   2
M  END
