Coordinates from ORCA-job 4-NO2-Ph-N2+-scan-d090-169-n800
 OpenBabel09191814013D

 15 14  0  0  0  0  0  0  0  0999 V2000
   -2.6209   -0.2102   -0.5877 C   0  0  0  0  0  0  0  0  0  0  0  0
   -1.1996   -0.2547   -0.7118 C   0  0  0  0  0  0  0  0  0  0  0  0
   -0.7989    0.8687   -0.1224 C   0  0  0  0  0  0  0  0  0  0  0  0
   -1.1155    1.9916    0.5170 C   0  0  0  0  0  0  0  0  0  0  0  0
   -2.5402    1.9452    0.5915 C   0  0  0  0  0  0  0  0  0  0  0  0
   -3.2400    0.8670    0.0479 C   0  0  0  0  0  0  0  0  0  0  0  0
   -3.2050   -1.0317   -0.9983 H   0  0  0  0  0  0  0  0  0  0  0  0
   -0.6376   -1.0506   -1.1888 H   0  0  0  0  0  0  0  0  0  0  0  0
   -0.4938    2.7883    0.9114 H   0  0  0  0  0  0  0  0  0  0  0  0
   -3.0627    2.7658    1.0793 H   0  0  0  0  0  0  0  0  0  0  0  0
   -4.7229    0.8660    0.1514 N   0  0  0  0  0  0  0  0  0  0  0  0
   -5.2956   -0.0971   -0.3378 O   0  0  0  0  0  0  0  0  0  0  0  0
   -5.2235    1.8282    0.7155 O   0  0  0  0  0  0  0  0  0  0  0  0
    5.3325    0.8629   -0.5544 N   0  0  0  0  0  0  0  0  0  0  0  0
    6.4352    0.8621   -0.6317 N   0  0  0  0  0  0  0  0  0  0  0  0
  1  6  1  0  0  0  0
  2  1  2  0  0  0  0
  2  3  1  0  0  0  0
  3  4  2  0  0  0  0
  4  5  1  0  0  0  0
  4  9  1  0  0  0  0
  5 10  1  0  0  0  0
  6 11  1  0  0  0  0
  6  5  2  0  0  0  0
  7  1  1  0  0  0  0
  8  2  1  0  0  0  0
 11 13  2  0  0  0  0
 12 11  2  0  0  0  0
 15 14  3  0  0  0  0
M  RAD  1   3   2
M  END
