Coordinates from ORCA-job 4-NO2-Ph-N2+-scan-d090-169-n800
 OpenBabel09191814003D

 15 14  0  0  0  0  0  0  0  0999 V2000
   -2.1008   -0.2108   -0.6247 C   0  0  0  0  0  0  0  0  0  0  0  0
   -0.6919   -0.2474   -0.7432 C   0  0  0  0  0  0  0  0  0  0  0  0
   -0.1989    0.8667   -0.1653 C   0  0  0  0  0  0  0  0  0  0  0  0
   -0.6063    1.9809    0.4757 C   0  0  0  0  0  0  0  0  0  0  0  0
   -2.0180    1.9447    0.5544 C   0  0  0  0  0  0  0  0  0  0  0  0
   -2.7170    0.8670    0.0109 C   0  0  0  0  0  0  0  0  0  0  0  0
   -2.6956   -1.0243   -1.0303 H   0  0  0  0  0  0  0  0  0  0  0  0
   -0.1438   -1.0490   -1.2222 H   0  0  0  0  0  0  0  0  0  0  0  0
    0.0034    2.7824    0.8737 H   0  0  0  0  0  0  0  0  0  0  0  0
   -2.5503    2.7584    1.0389 H   0  0  0  0  0  0  0  0  0  0  0  0
   -4.2016    0.8673    0.1147 N   0  0  0  0  0  0  0  0  0  0  0  0
   -4.7789   -0.0949   -0.3721 O   0  0  0  0  0  0  0  0  0  0  0  0
   -4.7050    1.8280    0.6798 O   0  0  0  0  0  0  0  0  0  0  0  0
    1.9574    0.8664   -0.3161 N   0  0  0  0  0  0  0  0  0  0  0  0
    3.0588    0.8662   -0.3931 N   0  0  0  0  0  0  0  0  0  0  0  0
  1  6  1  0  0  0  0
  2  1  2  0  0  0  0
  2  3  1  0  0  0  0
  3  4  2  0  0  0  0
  4  5  1  0  0  0  0
  4  9  1  0  0  0  0
  5 10  1  0  0  0  0
  6 11  1  0  0  0  0
  6  5  2  0  0  0  0
  7  1  1  0  0  0  0
  8  2  1  0  0  0  0
 11 13  2  0  0  0  0
 12 11  2  0  0  0  0
 15 14  3  0  0  0  0
M  RAD  1   3   2
M  END
