Coordinates from ORCA-job 4-NO2-Ph-N2+-scan-d090-169-n800
 OpenBabel09191814013D

 15 14  0  0  0  0  0  0  0  0999 V2000
   -2.8988   -0.2093   -0.5678 C   0  0  0  0  0  0  0  0  0  0  0  0
   -1.4773   -0.2520   -0.6911 C   0  0  0  0  0  0  0  0  0  0  0  0
   -1.0785    0.8719   -0.1012 C   0  0  0  0  0  0  0  0  0  0  0  0
   -1.3967    1.9944    0.5382 C   0  0  0  0  0  0  0  0  0  0  0  0
   -2.8215    1.9461    0.6117 C   0  0  0  0  0  0  0  0  0  0  0  0
   -3.5196    0.8671    0.0675 C   0  0  0  0  0  0  0  0  0  0  0  0
   -3.4816   -1.0314   -0.9788 H   0  0  0  0  0  0  0  0  0  0  0  0
   -0.9142   -1.0473   -1.1678 H   0  0  0  0  0  0  0  0  0  0  0  0
   -0.7765    2.7920    0.9331 H   0  0  0  0  0  0  0  0  0  0  0  0
   -3.3454    2.7660    1.0992 H   0  0  0  0  0  0  0  0  0  0  0  0
   -5.0026    0.8642    0.1701 N   0  0  0  0  0  0  0  0  0  0  0  0
   -5.5738   -0.0995   -0.3196 O   0  0  0  0  0  0  0  0  0  0  0  0
   -5.5047    1.8257    0.7340 O   0  0  0  0  0  0  0  0  0  0  0  0
    7.1500    0.8576   -0.6844 N   0  0  0  0  0  0  0  0  0  0  0  0
    8.2528    0.8562   -0.7619 N   0  0  0  0  0  0  0  0  0  0  0  0
  1  6  1  0  0  0  0
  2  1  2  0  0  0  0
  2  3  1  0  0  0  0
  3  4  2  0  0  0  0
  4  5  1  0  0  0  0
  4  9  1  0  0  0  0
  5 10  1  0  0  0  0
  6 11  1  0  0  0  0
  6  5  2  0  0  0  0
  7  1  1  0  0  0  0
  8  2  1  0  0  0  0
 11 13  2  0  0  0  0
 12 11  2  0  0  0  0
 15 14  3  0  0  0  0
M  RAD  1   3   2
M  END
