Coordinates from ORCA-job 4-NO2-Ph-N2+-scan-d090-169-n800
 OpenBabel09191814013D

 15 14  0  0  0  0  0  0  0  0999 V2000
   -3.1471   -0.2083   -0.5499 C   0  0  0  0  0  0  0  0  0  0  0  0
   -1.7253   -0.2491   -0.6722 C   0  0  0  0  0  0  0  0  0  0  0  0
   -1.3292    0.8754   -0.0818 C   0  0  0  0  0  0  0  0  0  0  0  0
   -1.6489    1.9976    0.5575 C   0  0  0  0  0  0  0  0  0  0  0  0
   -3.0738    1.9471    0.6298 C   0  0  0  0  0  0  0  0  0  0  0  0
   -3.7699    0.8671    0.0851 C   0  0  0  0  0  0  0  0  0  0  0  0
   -3.7286   -1.0312   -0.9614 H   0  0  0  0  0  0  0  0  0  0  0  0
   -1.1605   -1.0434   -1.1485 H   0  0  0  0  0  0  0  0  0  0  0  0
   -1.0300    2.7959    0.9529 H   0  0  0  0  0  0  0  0  0  0  0  0
   -3.5994    2.7661    1.1170 H   0  0  0  0  0  0  0  0  0  0  0  0
   -5.2529    0.8621    0.1865 N   0  0  0  0  0  0  0  0  0  0  0  0
   -5.8223   -0.1024   -0.3037 O   0  0  0  0  0  0  0  0  0  0  0  0
   -5.7569    1.8228    0.7501 O   0  0  0  0  0  0  0  0  0  0  0  0
    8.7768    0.8519   -0.8014 N   0  0  0  0  0  0  0  0  0  0  0  0
    9.8795    0.8500   -0.8790 N   0  0  0  0  0  0  0  0  0  0  0  0
  1  6  1  0  0  0  0
  2  1  2  0  0  0  0
  2  3  1  0  0  0  0
  3  4  2  0  0  0  0
  4  5  1  0  0  0  0
  4  9  1  0  0  0  0
  5 10  1  0  0  0  0
  6 11  1  0  0  0  0
  6  5  2  0  0  0  0
  7  1  1  0  0  0  0
  8  2  1  0  0  0  0
 11 13  2  0  0  0  0
 12 11  2  0  0  0  0
 15 14  3  0  0  0  0
M  RAD  1   3   2
M  END
