Coordinates from ORCA-job 4-NO2-Ph-N2+-scan-d090-169-n800
 OpenBabel09191814013D

 15 14  0  0  0  0  0  0  0  0999 V2000
   -3.5767   -0.2063   -0.5187 C   0  0  0  0  0  0  0  0  0  0  0  0
   -2.1547   -0.2424   -0.6384 C   0  0  0  0  0  0  0  0  0  0  0  0
   -1.7625    0.8832   -0.0473 C   0  0  0  0  0  0  0  0  0  0  0  0
   -2.0876    2.0040    0.5917 C   0  0  0  0  0  0  0  0  0  0  0  0
   -3.5124    1.9490    0.6616 C   0  0  0  0  0  0  0  0  0  0  0  0
   -4.2041    0.8670    0.1154 C   0  0  0  0  0  0  0  0  0  0  0  0
   -4.1547   -1.0309   -0.9314 H   0  0  0  0  0  0  0  0  0  0  0  0
   -1.5869   -1.0349   -1.1140 H   0  0  0  0  0  0  0  0  0  0  0  0
   -1.4722    2.8044    0.9884 H   0  0  0  0  0  0  0  0  0  0  0  0
   -4.0413    2.7664    1.1481 H   0  0  0  0  0  0  0  0  0  0  0  0
   -5.6873    0.8572    0.2142 N   0  0  0  0  0  0  0  0  0  0  0  0
   -6.2528   -0.1090   -0.2772 O   0  0  0  0  0  0  0  0  0  0  0  0
   -6.1953    1.8162    0.7772 O   0  0  0  0  0  0  0  0  0  0  0  0
   11.5987    0.8401   -1.0053 N   0  0  0  0  0  0  0  0  0  0  0  0
   12.7014    0.8376   -1.0831 N   0  0  0  0  0  0  0  0  0  0  0  0
  1  6  1  0  0  0  0
  2  1  2  0  0  0  0
  2  3  1  0  0  0  0
  3  4  2  0  0  0  0
  4  5  1  0  0  0  0
  4  9  1  0  0  0  0
  5 10  1  0  0  0  0
  6 11  1  0  0  0  0
  6  5  2  0  0  0  0
  7  1  1  0  0  0  0
  8  2  1  0  0  0  0
 11 13  2  0  0  0  0
 12 11  2  0  0  0  0
 15 14  3  0  0  0  0
M  RAD  1   3   2
M  END
