Coordinates from ORCA-job 4-NO2-Ph-N2+-scan-d090-169-n800
 OpenBabel09191814013D

 15 14  0  0  0  0  0  0  0  0999 V2000
   -3.8477   -0.2048   -0.4989 C   0  0  0  0  0  0  0  0  0  0  0  0
   -2.4254   -0.2376   -0.6168 C   0  0  0  0  0  0  0  0  0  0  0  0
   -2.0367    0.8888   -0.0250 C   0  0  0  0  0  0  0  0  0  0  0  0
   -2.3653    2.0087    0.6137 C   0  0  0  0  0  0  0  0  0  0  0  0
   -3.7900    1.9504    0.6818 C   0  0  0  0  0  0  0  0  0  0  0  0
   -4.4784    0.8669    0.1345 C   0  0  0  0  0  0  0  0  0  0  0  0
   -4.4232   -1.0308   -0.9126 H   0  0  0  0  0  0  0  0  0  0  0  0
   -1.8551   -1.0287   -1.0918 H   0  0  0  0  0  0  0  0  0  0  0  0
   -1.7522    2.8105    1.0114 H   0  0  0  0  0  0  0  0  0  0  0  0
   -4.3214    2.7664    1.1677 H   0  0  0  0  0  0  0  0  0  0  0  0
   -5.9618    0.8535    0.2314 N   0  0  0  0  0  0  0  0  0  0  0  0
   -6.5243   -0.1139   -0.2610 O   0  0  0  0  0  0  0  0  0  0  0  0
   -6.4727    1.8113    0.7938 O   0  0  0  0  0  0  0  0  0  0  0  0
   13.3814    0.8291   -1.1361 N   0  0  0  0  0  0  0  0  0  0  0  0
   14.4843    0.8317   -1.2110 N   0  0  0  0  0  0  0  0  0  0  0  0
  1  6  1  0  0  0  0
  2  1  2  0  0  0  0
  2  3  1  0  0  0  0
  3  4  2  0  0  0  0
  4  5  1  0  0  0  0
  4  9  1  0  0  0  0
  5 10  1  0  0  0  0
  6 11  1  0  0  0  0
  6  5  2  0  0  0  0
  7  1  1  0  0  0  0
  8  2  1  0  0  0  0
 11 13  2  0  0  0  0
 12 11  2  0  0  0  0
 15 14  3  0  0  0  0
M  RAD  1   3   2
M  END
