Coordinates from ORCA-job 4-NO2-Ph-N2+-scan-d090-169-n800
 OpenBabel09191814013D

 15 14  0  0  0  0  0  0  0  0999 V2000
   -3.3845   -0.2073   -0.5324 C   0  0  0  0  0  0  0  0  0  0  0  0
   -1.9627   -0.2456   -0.6534 C   0  0  0  0  0  0  0  0  0  0  0  0
   -1.5681    0.8794   -0.0627 C   0  0  0  0  0  0  0  0  0  0  0  0
   -1.8911    2.0007    0.5764 C   0  0  0  0  0  0  0  0  0  0  0  0
   -3.3158    1.9480    0.6475 C   0  0  0  0  0  0  0  0  0  0  0  0
   -4.0097    0.8670    0.1020 C   0  0  0  0  0  0  0  0  0  0  0  0
   -3.9640   -1.0312   -0.9447 H   0  0  0  0  0  0  0  0  0  0  0  0
   -1.3965   -1.0391   -1.1294 H   0  0  0  0  0  0  0  0  0  0  0  0
   -1.2741    2.8002    0.9725 H   0  0  0  0  0  0  0  0  0  0  0  0
   -3.8430    2.7662    1.1343 H   0  0  0  0  0  0  0  0  0  0  0  0
   -5.4929    0.8597    0.2016 N   0  0  0  0  0  0  0  0  0  0  0  0
   -6.0602   -0.1055   -0.2895 O   0  0  0  0  0  0  0  0  0  0  0  0
   -5.9989    1.8198    0.7646 O   0  0  0  0  0  0  0  0  0  0  0  0
   10.3352    0.8457   -0.9140 N   0  0  0  0  0  0  0  0  0  0  0  0
   11.4379    0.8435   -0.9918 N   0  0  0  0  0  0  0  0  0  0  0  0
  1  6  1  0  0  0  0
  2  1  2  0  0  0  0
  2  3  1  0  0  0  0
  3  4  2  0  0  0  0
  4  5  1  0  0  0  0
  4  9  1  0  0  0  0
  5 10  1  0  0  0  0
  6 11  1  0  0  0  0
  6  5  2  0  0  0  0
  7  1  1  0  0  0  0
  8  2  1  0  0  0  0
 11 13  2  0  0  0  0
 12 11  2  0  0  0  0
 15 14  3  0  0  0  0
M  RAD  1   3   2
M  END
