Coordinates from ORCA-job 4-NO2-Ph-N2+-scan-d090-169-n800
 OpenBabel09191814013D

 15 14  0  0  0  0  0  0  0  0999 V2000
   -2.5202   -0.2106   -0.5949 C   0  0  0  0  0  0  0  0  0  0  0  0
   -1.0989   -0.2554   -0.7192 C   0  0  0  0  0  0  0  0  0  0  0  0
   -0.6979    0.8678   -0.1299 C   0  0  0  0  0  0  0  0  0  0  0  0
   -1.0138    1.9908    0.5096 C   0  0  0  0  0  0  0  0  0  0  0  0
   -2.4385    1.9449    0.5843 C   0  0  0  0  0  0  0  0  0  0  0  0
   -3.1388    0.8669    0.0408 C   0  0  0  0  0  0  0  0  0  0  0  0
   -3.1046   -1.0318   -1.0053 H   0  0  0  0  0  0  0  0  0  0  0  0
   -0.5369   -1.0513   -1.1961 H   0  0  0  0  0  0  0  0  0  0  0  0
   -0.3915    2.7871    0.9037 H   0  0  0  0  0  0  0  0  0  0  0  0
   -2.9607    2.7657    1.0722 H   0  0  0  0  0  0  0  0  0  0  0  0
   -4.6216    0.8664    0.1445 N   0  0  0  0  0  0  0  0  0  0  0  0
   -5.1948   -0.0963   -0.3448 O   0  0  0  0  0  0  0  0  0  0  0  0
   -5.1219    1.8289    0.7085 O   0  0  0  0  0  0  0  0  0  0  0  0
    4.6745    0.8644   -0.5076 N   0  0  0  0  0  0  0  0  0  0  0  0
    5.7771    0.8639   -0.5848 N   0  0  0  0  0  0  0  0  0  0  0  0
  1  6  1  0  0  0  0
  2  1  2  0  0  0  0
  2  3  1  0  0  0  0
  3  4  2  0  0  0  0
  4  5  1  0  0  0  0
  4  9  1  0  0  0  0
  5 10  1  0  0  0  0
  6 11  1  0  0  0  0
  6  5  2  0  0  0  0
  7  1  1  0  0  0  0
  8  2  1  0  0  0  0
 11 13  2  0  0  0  0
 12 11  2  0  0  0  0
 15 14  3  0  0  0  0
M  RAD  1   3   2
M  END
