Coordinates from ORCA-job 4-NO2-Ph-N2+-scan-d090-169-n800
 OpenBabel09191814003D

 15 14  0  0  0  0  0  0  0  0999 V2000
   -2.0919   -0.2110   -0.6251 C   0  0  0  0  0  0  0  0  0  0  0  0
   -0.6853   -0.2456   -0.7426 C   0  0  0  0  0  0  0  0  0  0  0  0
   -0.1751    0.8667   -0.1669 C   0  0  0  0  0  0  0  0  0  0  0  0
   -0.5998    1.9791    0.4743 C   0  0  0  0  0  0  0  0  0  0  0  0
   -2.0091    1.9446    0.5541 C   0  0  0  0  0  0  0  0  0  0  0  0
   -2.7078    0.8669    0.0106 C   0  0  0  0  0  0  0  0  0  0  0  0
   -2.6884   -1.0233   -1.0298 H   0  0  0  0  0  0  0  0  0  0  0  0
   -0.1394   -1.0484   -1.2222 H   0  0  0  0  0  0  0  0  0  0  0  0
    0.0077    2.7818    0.8730 H   0  0  0  0  0  0  0  0  0  0  0  0
   -2.5432    2.7570    1.0381 H   0  0  0  0  0  0  0  0  0  0  0  0
   -4.1928    0.8670    0.1146 N   0  0  0  0  0  0  0  0  0  0  0  0
   -4.7705   -0.0943   -0.3734 O   0  0  0  0  0  0  0  0  0  0  0  0
   -4.6967    1.8283    0.6784 O   0  0  0  0  0  0  0  0  0  0  0  0
    1.9013    0.8665   -0.3124 N   0  0  0  0  0  0  0  0  0  0  0  0
    3.0026    0.8664   -0.3896 N   0  0  0  0  0  0  0  0  0  0  0  0
  1  6  1  0  0  0  0
  2  1  2  0  0  0  0
  2  3  1  0  0  0  0
  3  4  2  0  0  0  0
  4  5  1  0  0  0  0
  4  9  1  0  0  0  0
  5 10  1  0  0  0  0
  6 11  1  0  0  0  0
  6  5  2  0  0  0  0
  7  1  1  0  0  0  0
  8  2  1  0  0  0  0
 11 13  2  0  0  0  0
 12 11  2  0  0  0  0
 15 14  3  0  0  0  0
M  RAD  1   3   2
M  END
