Coordinates from ORCA-job 4-NO2-Ph-N2+-scan-d090-169-n800
 OpenBabel09191814003D

 15 15  0  0  0  0  0  0  0  0999 V2000
   -1.9914   -0.2127   -0.6331 C   0  0  0  0  0  0  0  0  0  0  0  0
   -0.6189   -0.2276   -0.7373 C   0  0  0  0  0  0  0  0  0  0  0  0
    0.1746    0.8667   -0.1914 C   0  0  0  0  0  0  0  0  0  0  0  0
   -0.5349    1.9610    0.4598 C   0  0  0  0  0  0  0  0  0  0  0  0
   -1.9085    1.9463    0.5480 C   0  0  0  0  0  0  0  0  0  0  0  0
   -2.6103    0.8668    0.0037 C   0  0  0  0  0  0  0  0  0  0  0  0
   -2.5975   -1.0185   -1.0336 H   0  0  0  0  0  0  0  0  0  0  0  0
   -0.0884   -1.0420   -1.2222 H   0  0  0  0  0  0  0  0  0  0  0  0
    0.0582    2.7753    0.8659 H   0  0  0  0  0  0  0  0  0  0  0  0
   -2.4527    2.7522    1.0291 H   0  0  0  0  0  0  0  0  0  0  0  0
   -4.1018    0.8669    0.1083 N   0  0  0  0  0  0  0  0  0  0  0  0
   -4.6757   -0.0954   -0.3807 O   0  0  0  0  0  0  0  0  0  0  0  0
   -4.6018    1.8294    0.6724 O   0  0  0  0  0  0  0  0  0  0  0  0
    1.2122    0.8666   -0.2641 N   0  0  0  0  0  0  0  0  0  0  0  0
    2.3484    0.8665   -0.3437 N   0  0  0  0  0  0  0  0  0  0  0  0
  1  6  1  0  0  0  0
  2  1  2  0  0  0  0
  2  3  1  0  0  0  0
  3  4  2  0  0  0  0
  4  5  1  0  0  0  0
  4  9  1  0  0  0  0
  5 10  1  0  0  0  0
  6 11  1  0  0  0  0
  6  5  2  0  0  0  0
  7  1  1  0  0  0  0
  8  2  1  0  0  0  0
 11 13  2  0  0  0  0
 12 11  2  0  0  0  0
 14  3  1  0  0  0  0
 15 14  1  0  0  0  0
M  RAD  2  14   2  15   3
M  END
