Coordinates from ORCA-job 4-NO2-Ph-N2+-scan-d090-169-n800
 OpenBabel09191814013D

 15 14  0  0  0  0  0  0  0  0999 V2000
   -2.5759   -0.2104   -0.5909 C   0  0  0  0  0  0  0  0  0  0  0  0
   -1.1546   -0.2550   -0.7151 C   0  0  0  0  0  0  0  0  0  0  0  0
   -0.7536    0.8683   -0.1258 C   0  0  0  0  0  0  0  0  0  0  0  0
   -1.0700    1.9912    0.5137 C   0  0  0  0  0  0  0  0  0  0  0  0
   -2.4947    1.9450    0.5883 C   0  0  0  0  0  0  0  0  0  0  0  0
   -3.1947    0.8670    0.0447 C   0  0  0  0  0  0  0  0  0  0  0  0
   -3.1601   -1.0317   -1.0014 H   0  0  0  0  0  0  0  0  0  0  0  0
   -0.5926   -1.0510   -1.1921 H   0  0  0  0  0  0  0  0  0  0  0  0
   -0.4480    2.7878    0.9080 H   0  0  0  0  0  0  0  0  0  0  0  0
   -3.0171    2.7658    1.0761 H   0  0  0  0  0  0  0  0  0  0  0  0
   -4.6776    0.8662    0.1483 N   0  0  0  0  0  0  0  0  0  0  0  0
   -5.2505   -0.0968   -0.3409 O   0  0  0  0  0  0  0  0  0  0  0  0
   -5.1780    1.8285    0.7125 O   0  0  0  0  0  0  0  0  0  0  0  0
    5.0382    0.8636   -0.5334 N   0  0  0  0  0  0  0  0  0  0  0  0
    6.1409    0.8629   -0.6107 N   0  0  0  0  0  0  0  0  0  0  0  0
  1  6  1  0  0  0  0
  2  1  2  0  0  0  0
  2  3  1  0  0  0  0
  3  4  2  0  0  0  0
  4  5  1  0  0  0  0
  4  9  1  0  0  0  0
  5 10  1  0  0  0  0
  6 11  1  0  0  0  0
  6  5  2  0  0  0  0
  7  1  1  0  0  0  0
  8  2  1  0  0  0  0
 11 13  2  0  0  0  0
 12 11  2  0  0  0  0
 15 14  3  0  0  0  0
M  RAD  1   3   2
M  END
