Coordinates from ORCA-job 4-NO2-Ph-N2+-scan-d090-169-n800
 OpenBabel09191814013D

 15 14  0  0  0  0  0  0  0  0999 V2000
   -2.6898   -0.2101   -0.5828 C   0  0  0  0  0  0  0  0  0  0  0  0
   -1.2685   -0.2540   -0.7067 C   0  0  0  0  0  0  0  0  0  0  0  0
   -0.8680    0.8694   -0.1172 C   0  0  0  0  0  0  0  0  0  0  0  0
   -1.1851    1.9920    0.5222 C   0  0  0  0  0  0  0  0  0  0  0  0
   -2.6098    1.9454    0.5965 C   0  0  0  0  0  0  0  0  0  0  0  0
   -3.3093    0.8670    0.0528 C   0  0  0  0  0  0  0  0  0  0  0  0
   -3.2735   -1.0317   -0.9935 H   0  0  0  0  0  0  0  0  0  0  0  0
   -0.7063   -1.0498   -1.1836 H   0  0  0  0  0  0  0  0  0  0  0  0
   -0.5638    2.7890    0.9167 H   0  0  0  0  0  0  0  0  0  0  0  0
   -3.1324    2.7659    1.0843 H   0  0  0  0  0  0  0  0  0  0  0  0
   -4.7922    0.8656    0.1560 N   0  0  0  0  0  0  0  0  0  0  0  0
   -5.3646   -0.0976   -0.3333 O   0  0  0  0  0  0  0  0  0  0  0  0
   -5.2931    1.8277    0.7201 O   0  0  0  0  0  0  0  0  0  0  0  0
    5.7827    0.8617   -0.5865 N   0  0  0  0  0  0  0  0  0  0  0  0
    6.8854    0.8609   -0.6639 N   0  0  0  0  0  0  0  0  0  0  0  0
  1  6  1  0  0  0  0
  2  1  2  0  0  0  0
  2  3  1  0  0  0  0
  3  4  2  0  0  0  0
  4  5  1  0  0  0  0
  4  9  1  0  0  0  0
  5 10  1  0  0  0  0
  6 11  1  0  0  0  0
  6  5  2  0  0  0  0
  7  1  1  0  0  0  0
  8  2  1  0  0  0  0
 11 13  2  0  0  0  0
 12 11  2  0  0  0  0
 15 14  3  0  0  0  0
M  RAD  1   3   2
M  END
