Coordinates from ORCA-job 4-NO2-Ph-N2+-scan-d090-169-n800
 OpenBabel09191814013D

 15 14  0  0  0  0  0  0  0  0999 V2000
   -3.1313   -0.2084   -0.5510 C   0  0  0  0  0  0  0  0  0  0  0  0
   -1.7097   -0.2491   -0.6733 C   0  0  0  0  0  0  0  0  0  0  0  0
   -1.3126    0.8752   -0.0831 C   0  0  0  0  0  0  0  0  0  0  0  0
   -1.6330    1.9971    0.5562 C   0  0  0  0  0  0  0  0  0  0  0  0
   -3.0577    1.9470    0.6287 C   0  0  0  0  0  0  0  0  0  0  0  0
   -3.7540    0.8671    0.0840 C   0  0  0  0  0  0  0  0  0  0  0  0
   -3.7127   -1.0313   -0.9625 H   0  0  0  0  0  0  0  0  0  0  0  0
   -1.1453   -1.0437   -1.1497 H   0  0  0  0  0  0  0  0  0  0  0  0
   -1.0142    2.7956    0.9516 H   0  0  0  0  0  0  0  0  0  0  0  0
   -3.5830    2.7662    1.1159 H   0  0  0  0  0  0  0  0  0  0  0  0
   -5.2371    0.8622    0.1854 N   0  0  0  0  0  0  0  0  0  0  0  0
   -5.8066   -0.1022   -0.3047 O   0  0  0  0  0  0  0  0  0  0  0  0
   -5.7409    1.8230    0.7491 O   0  0  0  0  0  0  0  0  0  0  0  0
    8.6735    0.8523   -0.7939 N   0  0  0  0  0  0  0  0  0  0  0  0
    9.7762    0.8504   -0.8715 N   0  0  0  0  0  0  0  0  0  0  0  0
  1  6  1  0  0  0  0
  2  1  2  0  0  0  0
  2  3  1  0  0  0  0
  3  4  2  0  0  0  0
  4  5  1  0  0  0  0
  4  9  1  0  0  0  0
  5 10  1  0  0  0  0
  6 11  1  0  0  0  0
  6  5  2  0  0  0  0
  7  1  1  0  0  0  0
  8  2  1  0  0  0  0
 11 13  2  0  0  0  0
 12 11  2  0  0  0  0
 15 14  3  0  0  0  0
M  RAD  1   3   2
M  END
