Coordinates from ORCA-job 4-NO2-Ph-N2+-scan-d090-169-n800
 OpenBabel09191814003D

 15 14  0  0  0  0  0  0  0  0999 V2000
   -2.0830   -0.2111   -0.6258 C   0  0  0  0  0  0  0  0  0  0  0  0
   -0.6788   -0.2438   -0.7421 C   0  0  0  0  0  0  0  0  0  0  0  0
   -0.1509    0.8667   -0.1686 C   0  0  0  0  0  0  0  0  0  0  0  0
   -0.5935    1.9772    0.4729 C   0  0  0  0  0  0  0  0  0  0  0  0
   -2.0003    1.9448    0.5536 C   0  0  0  0  0  0  0  0  0  0  0  0
   -2.6986    0.8669    0.0099 C   0  0  0  0  0  0  0  0  0  0  0  0
   -2.6815   -1.0220   -1.0296 H   0  0  0  0  0  0  0  0  0  0  0  0
   -0.1351   -1.0478   -1.2221 H   0  0  0  0  0  0  0  0  0  0  0  0
    0.0119    2.7811    0.8724 H   0  0  0  0  0  0  0  0  0  0  0  0
   -2.5364    2.7557    1.0369 H   0  0  0  0  0  0  0  0  0  0  0  0
   -4.1841    0.8670    0.1140 N   0  0  0  0  0  0  0  0  0  0  0  0
   -4.7623   -0.0942   -0.3739 O   0  0  0  0  0  0  0  0  0  0  0  0
   -4.6885    1.8282    0.6777 O   0  0  0  0  0  0  0  0  0  0  0  0
    1.8456    0.8665   -0.3085 N   0  0  0  0  0  0  0  0  0  0  0  0
    2.9469    0.8664   -0.3856 N   0  0  0  0  0  0  0  0  0  0  0  0
  1  6  1  0  0  0  0
  2  1  2  0  0  0  0
  2  3  1  0  0  0  0
  3  4  2  0  0  0  0
  4  5  1  0  0  0  0
  4  9  1  0  0  0  0
  5 10  1  0  0  0  0
  6 11  1  0  0  0  0
  6  5  2  0  0  0  0
  7  1  1  0  0  0  0
  8  2  1  0  0  0  0
 11 13  2  0  0  0  0
 12 11  2  0  0  0  0
 15 14  3  0  0  0  0
M  RAD  1   3   2
M  END
