Coordinates from ORCA-job 4-NO2-Ph-N2+-scan-d090-169-n800
 OpenBabel09191814013D

 15 14  0  0  0  0  0  0  0  0999 V2000
   -2.4725   -0.2107   -0.5983 C   0  0  0  0  0  0  0  0  0  0  0  0
   -1.0513   -0.2555   -0.7226 C   0  0  0  0  0  0  0  0  0  0  0  0
   -0.6497    0.8675   -0.1334 C   0  0  0  0  0  0  0  0  0  0  0  0
   -0.9658    1.9904    0.5060 C   0  0  0  0  0  0  0  0  0  0  0  0
   -2.3905    1.9449    0.5809 C   0  0  0  0  0  0  0  0  0  0  0  0
   -3.0909    0.8669    0.0374 C   0  0  0  0  0  0  0  0  0  0  0  0
   -3.0569   -1.0318   -1.0087 H   0  0  0  0  0  0  0  0  0  0  0  0
   -0.4893   -1.0515   -1.1996 H   0  0  0  0  0  0  0  0  0  0  0  0
   -0.3433    2.7867    0.9001 H   0  0  0  0  0  0  0  0  0  0  0  0
   -2.9125    2.7657    1.0687 H   0  0  0  0  0  0  0  0  0  0  0  0
   -4.5737    0.8666    0.1412 N   0  0  0  0  0  0  0  0  0  0  0  0
   -5.1471   -0.0962   -0.3478 O   0  0  0  0  0  0  0  0  0  0  0  0
   -5.0739    1.8290    0.7054 O   0  0  0  0  0  0  0  0  0  0  0  0
    4.3631    0.8649   -0.4855 N   0  0  0  0  0  0  0  0  0  0  0  0
    5.4658    0.8645   -0.5627 N   0  0  0  0  0  0  0  0  0  0  0  0
  1  6  1  0  0  0  0
  2  1  2  0  0  0  0
  2  3  1  0  0  0  0
  3  4  2  0  0  0  0
  4  5  1  0  0  0  0
  4  9  1  0  0  0  0
  5 10  1  0  0  0  0
  6 11  1  0  0  0  0
  6  5  2  0  0  0  0
  7  1  1  0  0  0  0
  8  2  1  0  0  0  0
 11 13  2  0  0  0  0
 12 11  2  0  0  0  0
 15 14  3  0  0  0  0
M  RAD  1   3   2
M  END
