Coordinates from ORCA-job 4-NO2-Ph-N2+-scan-d090-169-n800
 OpenBabel09191814013D

 15 14  0  0  0  0  0  0  0  0999 V2000
   -2.7772   -0.2098   -0.5765 C   0  0  0  0  0  0  0  0  0  0  0  0
   -1.3558   -0.2532   -0.7001 C   0  0  0  0  0  0  0  0  0  0  0  0
   -0.9559    0.8704   -0.1106 C   0  0  0  0  0  0  0  0  0  0  0  0
   -1.2735    1.9929    0.5288 C   0  0  0  0  0  0  0  0  0  0  0  0
   -2.6982    1.9456    0.6028 C   0  0  0  0  0  0  0  0  0  0  0  0
   -3.3972    0.8670    0.0589 C   0  0  0  0  0  0  0  0  0  0  0  0
   -3.3604   -1.0316   -0.9874 H   0  0  0  0  0  0  0  0  0  0  0  0
   -0.7933   -1.0488   -1.1770 H   0  0  0  0  0  0  0  0  0  0  0  0
   -0.6527    2.7902    0.9235 H   0  0  0  0  0  0  0  0  0  0  0  0
   -3.2213    2.7660    1.0905 H   0  0  0  0  0  0  0  0  0  0  0  0
   -4.8801    0.8650    0.1619 N   0  0  0  0  0  0  0  0  0  0  0  0
   -5.4520   -0.0983   -0.3276 O   0  0  0  0  0  0  0  0  0  0  0  0
   -5.3815    1.8269    0.7259 O   0  0  0  0  0  0  0  0  0  0  0  0
    6.3539    0.8601   -0.6274 N   0  0  0  0  0  0  0  0  0  0  0  0
    7.4566    0.8590   -0.7047 N   0  0  0  0  0  0  0  0  0  0  0  0
  1  6  1  0  0  0  0
  2  1  2  0  0  0  0
  2  3  1  0  0  0  0
  3  4  2  0  0  0  0
  4  5  1  0  0  0  0
  4  9  1  0  0  0  0
  5 10  1  0  0  0  0
  6 11  1  0  0  0  0
  6  5  2  0  0  0  0
  7  1  1  0  0  0  0
  8  2  1  0  0  0  0
 11 13  2  0  0  0  0
 12 11  2  0  0  0  0
 15 14  3  0  0  0  0
M  RAD  1   3   2
M  END
