Coordinates from ORCA-job 4-NO2-Ph-N2+-scan-d090-169-n800
 OpenBabel09191814003D

 15 14  0  0  0  0  0  0  0  0999 V2000
   -2.2602   -0.2110   -0.6133 C   0  0  0  0  0  0  0  0  0  0  0  0
   -0.8398   -0.2556   -0.7373 C   0  0  0  0  0  0  0  0  0  0  0  0
   -0.4338    0.8668   -0.1488 C   0  0  0  0  0  0  0  0  0  0  0  0
   -0.7536    1.9892    0.4906 C   0  0  0  0  0  0  0  0  0  0  0  0
   -2.1774    1.9447    0.5659 C   0  0  0  0  0  0  0  0  0  0  0  0
   -2.8781    0.8669    0.0225 C   0  0  0  0  0  0  0  0  0  0  0  0
   -2.8459   -1.0313   -1.0232 H   0  0  0  0  0  0  0  0  0  0  0  0
   -0.2768   -1.0507   -1.2138 H   0  0  0  0  0  0  0  0  0  0  0  0
   -0.1296    2.7842    0.8839 H   0  0  0  0  0  0  0  0  0  0  0  0
   -2.7002    2.7650    1.0535 H   0  0  0  0  0  0  0  0  0  0  0  0
   -4.3609    0.8669    0.1264 N   0  0  0  0  0  0  0  0  0  0  0  0
   -4.9351   -0.0955   -0.3625 O   0  0  0  0  0  0  0  0  0  0  0  0
   -4.8612    1.8294    0.6906 O   0  0  0  0  0  0  0  0  0  0  0  0
    2.9809    0.8663   -0.3881 N   0  0  0  0  0  0  0  0  0  0  0  0
    4.0833    0.8662   -0.4652 N   0  0  0  0  0  0  0  0  0  0  0  0
  1  6  1  0  0  0  0
  2  1  2  0  0  0  0
  2  3  1  0  0  0  0
  3  4  2  0  0  0  0
  4  5  1  0  0  0  0
  4  9  1  0  0  0  0
  5 10  1  0  0  0  0
  6 11  1  0  0  0  0
  6  5  2  0  0  0  0
  7  1  1  0  0  0  0
  8  2  1  0  0  0  0
 11 13  2  0  0  0  0
 12 11  2  0  0  0  0
 15 14  3  0  0  0  0
M  RAD  1   3   2
M  END
