Coordinates from ORCA-job 4-NO2-Ph-N2+-scan-d090-169-n800
 OpenBabel09191814013D

 15 14  0  0  0  0  0  0  0  0999 V2000
   -3.7977   -0.2052   -0.5026 C   0  0  0  0  0  0  0  0  0  0  0  0
   -2.3753   -0.2387   -0.6209 C   0  0  0  0  0  0  0  0  0  0  0  0
   -1.9868    0.8877   -0.0291 C   0  0  0  0  0  0  0  0  0  0  0  0
   -2.3138    2.0079    0.6097 C   0  0  0  0  0  0  0  0  0  0  0  0
   -3.7386    1.9502    0.6781 C   0  0  0  0  0  0  0  0  0  0  0  0
   -4.4277    0.8669    0.1310 C   0  0  0  0  0  0  0  0  0  0  0  0
   -4.3738   -1.0308   -0.9160 H   0  0  0  0  0  0  0  0  0  0  0  0
   -1.8051   -1.0299   -1.0959 H   0  0  0  0  0  0  0  0  0  0  0  0
   -1.6999    2.8092    1.0071 H   0  0  0  0  0  0  0  0  0  0  0  0
   -4.2698    2.7664    1.1641 H   0  0  0  0  0  0  0  0  0  0  0  0
   -5.9110    0.8542    0.2283 N   0  0  0  0  0  0  0  0  0  0  0  0
   -6.4741   -0.1128   -0.2641 O   0  0  0  0  0  0  0  0  0  0  0  0
   -6.4214    1.8124    0.7906 O   0  0  0  0  0  0  0  0  0  0  0  0
   13.0519    0.8313   -1.1119 N   0  0  0  0  0  0  0  0  0  0  0  0
   14.1548    0.8327   -1.1874 N   0  0  0  0  0  0  0  0  0  0  0  0
  1  6  1  0  0  0  0
  2  1  2  0  0  0  0
  2  3  1  0  0  0  0
  3  4  2  0  0  0  0
  4  5  1  0  0  0  0
  4  9  1  0  0  0  0
  5 10  1  0  0  0  0
  6 11  1  0  0  0  0
  6  5  2  0  0  0  0
  7  1  1  0  0  0  0
  8  2  1  0  0  0  0
 11 13  2  0  0  0  0
 12 11  2  0  0  0  0
 15 14  3  0  0  0  0
M  RAD  1   3   2
M  END
