Coordinates from ORCA-job 4-NO2-Ph-N2+-scan-d090-169-n800
 OpenBabel09191814013D

 15 14  0  0  0  0  0  0  0  0999 V2000
   -3.9344   -0.2044   -0.4926 C   0  0  0  0  0  0  0  0  0  0  0  0
   -2.5121   -0.2357   -0.6097 C   0  0  0  0  0  0  0  0  0  0  0  0
   -2.1244    0.8908   -0.0177 C   0  0  0  0  0  0  0  0  0  0  0  0
   -2.4545    2.0102    0.6209 C   0  0  0  0  0  0  0  0  0  0  0  0
   -3.8791    1.9509    0.6883 C   0  0  0  0  0  0  0  0  0  0  0  0
   -4.5664    0.8668    0.1406 C   0  0  0  0  0  0  0  0  0  0  0  0
   -4.5087   -1.0309   -0.9066 H   0  0  0  0  0  0  0  0  0  0  0  0
   -1.9410   -1.0264   -1.0845 H   0  0  0  0  0  0  0  0  0  0  0  0
   -1.8424    2.8126    1.0189 H   0  0  0  0  0  0  0  0  0  0  0  0
   -4.4112    2.7665    1.1740 H   0  0  0  0  0  0  0  0  0  0  0  0
   -6.0498    0.8522    0.2367 N   0  0  0  0  0  0  0  0  0  0  0  0
   -6.6112   -0.1157   -0.2560 O   0  0  0  0  0  0  0  0  0  0  0  0
   -6.5618    1.8095    0.7990 O   0  0  0  0  0  0  0  0  0  0  0  0
   13.9527    0.8255   -1.1781 N   0  0  0  0  0  0  0  0  0  0  0  0
   15.0557    0.8296   -1.2521 N   0  0  0  0  0  0  0  0  0  0  0  0
  1  6  1  0  0  0  0
  2  1  2  0  0  0  0
  2  3  1  0  0  0  0
  3  4  2  0  0  0  0
  4  5  1  0  0  0  0
  4  9  1  0  0  0  0
  5 10  1  0  0  0  0
  6 11  1  0  0  0  0
  6  5  2  0  0  0  0
  7  1  1  0  0  0  0
  8  2  1  0  0  0  0
 11 13  2  0  0  0  0
 12 11  2  0  0  0  0
 15 14  3  0  0  0  0
M  RAD  1   3   2
M  END
