Coordinates from ORCA-job 4-NO2-Ph-N2+-scan-d090-169-n800
 OpenBabel09191814003D

 15 14  0  0  0  0  0  0  0  0999 V2000
   -2.0851   -0.2111   -0.6256 C   0  0  0  0  0  0  0  0  0  0  0  0
   -0.6800   -0.2445   -0.7424 C   0  0  0  0  0  0  0  0  0  0  0  0
   -0.1580    0.8667   -0.1681 C   0  0  0  0  0  0  0  0  0  0  0  0
   -0.5946    1.9779    0.4733 C   0  0  0  0  0  0  0  0  0  0  0  0
   -2.0023    1.9447    0.5537 C   0  0  0  0  0  0  0  0  0  0  0  0
   -2.7008    0.8669    0.0101 C   0  0  0  0  0  0  0  0  0  0  0  0
   -2.6829   -1.0224   -1.0297 H   0  0  0  0  0  0  0  0  0  0  0  0
   -0.1358   -1.0482   -1.2223 H   0  0  0  0  0  0  0  0  0  0  0  0
    0.0113    2.7815    0.8726 H   0  0  0  0  0  0  0  0  0  0  0  0
   -2.5378    2.7561    1.0372 H   0  0  0  0  0  0  0  0  0  0  0  0
   -4.1862    0.8670    0.1141 N   0  0  0  0  0  0  0  0  0  0  0  0
   -4.7642   -0.0942   -0.3738 O   0  0  0  0  0  0  0  0  0  0  0  0
   -4.6904    1.8282    0.6779 O   0  0  0  0  0  0  0  0  0  0  0  0
    1.8585    0.8665   -0.3094 N   0  0  0  0  0  0  0  0  0  0  0  0
    2.9597    0.8664   -0.3865 N   0  0  0  0  0  0  0  0  0  0  0  0
  1  6  1  0  0  0  0
  2  1  2  0  0  0  0
  2  3  1  0  0  0  0
  3  4  2  0  0  0  0
  4  5  1  0  0  0  0
  4  9  1  0  0  0  0
  5 10  1  0  0  0  0
  6 11  1  0  0  0  0
  6  5  2  0  0  0  0
  7  1  1  0  0  0  0
  8  2  1  0  0  0  0
 11 13  2  0  0  0  0
 12 11  2  0  0  0  0
 15 14  3  0  0  0  0
M  RAD  1   3   2
M  END
