Coordinates from ORCA-job 4-NO2-Ph-N2+-scan-d090-169-n800
 OpenBabel09191814013D

 15 14  0  0  0  0  0  0  0  0999 V2000
   -3.0574   -0.2087   -0.5564 C   0  0  0  0  0  0  0  0  0  0  0  0
   -1.6359   -0.2500   -0.6789 C   0  0  0  0  0  0  0  0  0  0  0  0
   -1.2380    0.8741   -0.0889 C   0  0  0  0  0  0  0  0  0  0  0  0
   -1.5579    1.9961    0.5503 C   0  0  0  0  0  0  0  0  0  0  0  0
   -2.9826    1.9467    0.6232 C   0  0  0  0  0  0  0  0  0  0  0  0
   -3.6795    0.8671    0.0787 C   0  0  0  0  0  0  0  0  0  0  0  0
   -3.6391   -1.0314   -0.9678 H   0  0  0  0  0  0  0  0  0  0  0  0
   -1.0720   -1.0448   -1.1554 H   0  0  0  0  0  0  0  0  0  0  0  0
   -0.9386    2.7943    0.9456 H   0  0  0  0  0  0  0  0  0  0  0  0
   -3.5072    2.7662    1.1106 H   0  0  0  0  0  0  0  0  0  0  0  0
   -5.1625    0.8629    0.1806 N   0  0  0  0  0  0  0  0  0  0  0  0
   -5.7326   -0.1013   -0.3094 O   0  0  0  0  0  0  0  0  0  0  0  0
   -5.6657    1.8239    0.7444 O   0  0  0  0  0  0  0  0  0  0  0  0
    8.1889    0.8541   -0.7590 N   0  0  0  0  0  0  0  0  0  0  0  0
    9.2916    0.8523   -0.8366 N   0  0  0  0  0  0  0  0  0  0  0  0
  1  6  1  0  0  0  0
  2  1  2  0  0  0  0
  2  3  1  0  0  0  0
  3  4  2  0  0  0  0
  4  5  1  0  0  0  0
  4  9  1  0  0  0  0
  5 10  1  0  0  0  0
  6 11  1  0  0  0  0
  6  5  2  0  0  0  0
  7  1  1  0  0  0  0
  8  2  1  0  0  0  0
 11 13  2  0  0  0  0
 12 11  2  0  0  0  0
 15 14  3  0  0  0  0
M  RAD  1   3   2
M  END
