Coordinates from ORCA-job 4-NO2-Ph-N2+-scan-d090-169-n800
 OpenBabel09191814013D

 15 14  0  0  0  0  0  0  0  0999 V2000
   -3.1339   -0.2084   -0.5508 C   0  0  0  0  0  0  0  0  0  0  0  0
   -1.7123   -0.2492   -0.6731 C   0  0  0  0  0  0  0  0  0  0  0  0
   -1.3154    0.8752   -0.0829 C   0  0  0  0  0  0  0  0  0  0  0  0
   -1.6356    1.9972    0.5564 C   0  0  0  0  0  0  0  0  0  0  0  0
   -3.0604    1.9470    0.6289 C   0  0  0  0  0  0  0  0  0  0  0  0
   -3.7567    0.8671    0.0842 C   0  0  0  0  0  0  0  0  0  0  0  0
   -3.7154   -1.0312   -0.9623 H   0  0  0  0  0  0  0  0  0  0  0  0
   -1.1478   -1.0437   -1.1495 H   0  0  0  0  0  0  0  0  0  0  0  0
   -1.0168    2.7957    0.9519 H   0  0  0  0  0  0  0  0  0  0  0  0
   -3.5858    2.7662    1.1161 H   0  0  0  0  0  0  0  0  0  0  0  0
   -5.2397    0.8622    0.1856 N   0  0  0  0  0  0  0  0  0  0  0  0
   -5.8092   -0.1023   -0.3046 O   0  0  0  0  0  0  0  0  0  0  0  0
   -5.7435    1.8230    0.7493 O   0  0  0  0  0  0  0  0  0  0  0  0
    8.6907    0.8522   -0.7952 N   0  0  0  0  0  0  0  0  0  0  0  0
    9.7934    0.8504   -0.8728 N   0  0  0  0  0  0  0  0  0  0  0  0
  1  6  1  0  0  0  0
  2  1  2  0  0  0  0
  2  3  1  0  0  0  0
  3  4  2  0  0  0  0
  4  5  1  0  0  0  0
  4  9  1  0  0  0  0
  5 10  1  0  0  0  0
  6 11  1  0  0  0  0
  6  5  2  0  0  0  0
  7  1  1  0  0  0  0
  8  2  1  0  0  0  0
 11 13  2  0  0  0  0
 12 11  2  0  0  0  0
 15 14  3  0  0  0  0
M  RAD  1   3   2
M  END
