Coordinates from ORCA-job 4-NO2-Ph-N2+-scan-d090-169-n800
 OpenBabel09191814013D

 15 14  0  0  0  0  0  0  0  0999 V2000
   -2.7216   -0.2099   -0.5806 C   0  0  0  0  0  0  0  0  0  0  0  0
   -1.3002   -0.2537   -0.7044 C   0  0  0  0  0  0  0  0  0  0  0  0
   -0.9000    0.8698   -0.1149 C   0  0  0  0  0  0  0  0  0  0  0  0
   -1.2172    1.9925    0.5245 C   0  0  0  0  0  0  0  0  0  0  0  0
   -2.6419    1.9455    0.5987 C   0  0  0  0  0  0  0  0  0  0  0  0
   -3.3412    0.8671    0.0549 C   0  0  0  0  0  0  0  0  0  0  0  0
   -3.3052   -1.0316   -0.9913 H   0  0  0  0  0  0  0  0  0  0  0  0
   -0.7379   -1.0495   -1.1813 H   0  0  0  0  0  0  0  0  0  0  0  0
   -0.5960    2.7895    0.9191 H   0  0  0  0  0  0  0  0  0  0  0  0
   -3.1648    2.7660    1.0864 H   0  0  0  0  0  0  0  0  0  0  0  0
   -4.8241    0.8653    0.1583 N   0  0  0  0  0  0  0  0  0  0  0  0
   -5.3963   -0.0980   -0.3309 O   0  0  0  0  0  0  0  0  0  0  0  0
   -5.3252    1.8273    0.7225 O   0  0  0  0  0  0  0  0  0  0  0  0
    5.9903    0.8611   -0.6012 N   0  0  0  0  0  0  0  0  0  0  0  0
    7.0930    0.8601   -0.6786 N   0  0  0  0  0  0  0  0  0  0  0  0
  1  6  1  0  0  0  0
  2  1  2  0  0  0  0
  2  3  1  0  0  0  0
  3  4  2  0  0  0  0
  4  5  1  0  0  0  0
  4  9  1  0  0  0  0
  5 10  1  0  0  0  0
  6 11  1  0  0  0  0
  6  5  2  0  0  0  0
  7  1  1  0  0  0  0
  8  2  1  0  0  0  0
 11 13  2  0  0  0  0
 12 11  2  0  0  0  0
 15 14  3  0  0  0  0
M  RAD  1   3   2
M  END
