Coordinates from ORCA-job 4-NO2-Ph-N2+-scan-d090-169-n800
 OpenBabel09191814013D

 15 14  0  0  0  0  0  0  0  0999 V2000
   -3.2422   -0.2079   -0.5430 C   0  0  0  0  0  0  0  0  0  0  0  0
   -1.8205   -0.2475   -0.6646 C   0  0  0  0  0  0  0  0  0  0  0  0
   -1.4244    0.8770   -0.0743 C   0  0  0  0  0  0  0  0  0  0  0  0
   -1.7459    1.9986    0.5648 C   0  0  0  0  0  0  0  0  0  0  0  0
   -3.1706    1.9475    0.6368 C   0  0  0  0  0  0  0  0  0  0  0  0
   -3.8660    0.8671    0.0918 C   0  0  0  0  0  0  0  0  0  0  0  0
   -3.8226   -1.0313   -0.9549 H   0  0  0  0  0  0  0  0  0  0  0  0
   -1.2554   -1.0417   -1.1409 H   0  0  0  0  0  0  0  0  0  0  0  0
   -1.1279    2.7975    0.9606 H   0  0  0  0  0  0  0  0  0  0  0  0
   -3.6965    2.7664    1.1239 H   0  0  0  0  0  0  0  0  0  0  0  0
   -5.3490    0.8611    0.1927 N   0  0  0  0  0  0  0  0  0  0  0  0
   -5.9176   -0.1037   -0.2978 O   0  0  0  0  0  0  0  0  0  0  0  0
   -5.8537    1.8216    0.7562 O   0  0  0  0  0  0  0  0  0  0  0  0
    9.4005    0.8495   -0.8463 N   0  0  0  0  0  0  0  0  0  0  0  0
   10.5033    0.8474   -0.9240 N   0  0  0  0  0  0  0  0  0  0  0  0
  1  6  1  0  0  0  0
  2  1  2  0  0  0  0
  2  3  1  0  0  0  0
  3  4  2  0  0  0  0
  4  5  1  0  0  0  0
  4  9  1  0  0  0  0
  5 10  1  0  0  0  0
  6 11  1  0  0  0  0
  6  5  2  0  0  0  0
  7  1  1  0  0  0  0
  8  2  1  0  0  0  0
 11 13  2  0  0  0  0
 12 11  2  0  0  0  0
 15 14  3  0  0  0  0
M  RAD  1   3   2
M  END
