Coordinates from ORCA-job 4-NO2-Ph-N2+-scan-d090-169-n800
 OpenBabel09191814013D

 15 14  0  0  0  0  0  0  0  0999 V2000
   -3.1551   -0.2083   -0.5493 C   0  0  0  0  0  0  0  0  0  0  0  0
   -1.7334   -0.2489   -0.6715 C   0  0  0  0  0  0  0  0  0  0  0  0
   -1.3367    0.8756   -0.0812 C   0  0  0  0  0  0  0  0  0  0  0  0
   -1.6571    1.9975    0.5581 C   0  0  0  0  0  0  0  0  0  0  0  0
   -3.0819    1.9471    0.6304 C   0  0  0  0  0  0  0  0  0  0  0  0
   -3.7780    0.8671    0.0856 C   0  0  0  0  0  0  0  0  0  0  0  0
   -3.7363   -1.0312   -0.9608 H   0  0  0  0  0  0  0  0  0  0  0  0
   -1.1688   -1.0433   -1.1478 H   0  0  0  0  0  0  0  0  0  0  0  0
   -1.0385    2.7960    0.9536 H   0  0  0  0  0  0  0  0  0  0  0  0
   -3.6074    2.7662    1.1176 H   0  0  0  0  0  0  0  0  0  0  0  0
   -5.2610    0.8620    0.1870 N   0  0  0  0  0  0  0  0  0  0  0  0
   -5.8304   -0.1025   -0.3033 O   0  0  0  0  0  0  0  0  0  0  0  0
   -5.7650    1.8228    0.7506 O   0  0  0  0  0  0  0  0  0  0  0  0
    8.8291    0.8517   -0.8051 N   0  0  0  0  0  0  0  0  0  0  0  0
    9.9319    0.8498   -0.8828 N   0  0  0  0  0  0  0  0  0  0  0  0
  1  6  1  0  0  0  0
  2  1  2  0  0  0  0
  2  3  1  0  0  0  0
  3  4  2  0  0  0  0
  4  5  1  0  0  0  0
  4  9  1  0  0  0  0
  5 10  1  0  0  0  0
  6 11  1  0  0  0  0
  6  5  2  0  0  0  0
  7  1  1  0  0  0  0
  8  2  1  0  0  0  0
 11 13  2  0  0  0  0
 12 11  2  0  0  0  0
 15 14  3  0  0  0  0
M  RAD  1   3   2
M  END
