Coordinates from ORCA-job 4-NO2-Ph-N2+-scan-d090-169-n800
 OpenBabel09191814003D

 15 15  0  0  0  0  0  0  0  0999 V2000
   -2.0248   -0.2127   -0.6309 C   0  0  0  0  0  0  0  0  0  0  0  0
   -0.6400   -0.2278   -0.7360 C   0  0  0  0  0  0  0  0  0  0  0  0
    0.0473    0.8666   -0.1825 C   0  0  0  0  0  0  0  0  0  0  0  0
   -0.5559    1.9612    0.4614 C   0  0  0  0  0  0  0  0  0  0  0  0
   -1.9419    1.9465    0.5503 C   0  0  0  0  0  0  0  0  0  0  0  0
   -2.6398    0.8669    0.0057 C   0  0  0  0  0  0  0  0  0  0  0  0
   -2.6327   -1.0166   -1.0302 H   0  0  0  0  0  0  0  0  0  0  0  0
   -0.1131   -1.0425   -1.2207 H   0  0  0  0  0  0  0  0  0  0  0  0
    0.0335    2.7758    0.8680 H   0  0  0  0  0  0  0  0  0  0  0  0
   -2.4881    2.7504    1.0304 H   0  0  0  0  0  0  0  0  0  0  0  0
   -4.1301    0.8671    0.1100 N   0  0  0  0  0  0  0  0  0  0  0  0
   -4.7078   -0.0943   -0.3774 O   0  0  0  0  0  0  0  0  0  0  0  0
   -4.6340    1.8280    0.6742 O   0  0  0  0  0  0  0  0  0  0  0  0
    1.4644    0.8665   -0.2817 N   0  0  0  0  0  0  0  0  0  0  0  0
    2.5744    0.8664   -0.3594 N   0  0  0  0  0  0  0  0  0  0  0  0
  1  6  1  0  0  0  0
  2  1  2  0  0  0  0
  2  3  1  0  0  0  0
  3  4  2  0  0  0  0
  4  5  1  0  0  0  0
  4  9  1  0  0  0  0
  5 10  1  0  0  0  0
  6 11  1  0  0  0  0
  6  5  2  0  0  0  0
  7  1  1  0  0  0  0
  8  2  1  0  0  0  0
 11 13  2  0  0  0  0
 12 11  2  0  0  0  0
 14  3  1  0  0  0  0
 15 14  1  0  0  0  0
M  RAD  2  14   2  15   3
M  END
