Coordinates from ORCA-job 4-NO2-Ph-N2+-scan-d090-169-n800
 OpenBabel09191814013D

 15 14  0  0  0  0  0  0  0  0999 V2000
   -3.2369   -0.2079   -0.5434 C   0  0  0  0  0  0  0  0  0  0  0  0
   -1.8152   -0.2477   -0.6651 C   0  0  0  0  0  0  0  0  0  0  0  0
   -1.4191    0.8769   -0.0747 C   0  0  0  0  0  0  0  0  0  0  0  0
   -1.7405    1.9986    0.5645 C   0  0  0  0  0  0  0  0  0  0  0  0
   -3.1652    1.9474    0.6364 C   0  0  0  0  0  0  0  0  0  0  0  0
   -3.8606    0.8671    0.0914 C   0  0  0  0  0  0  0  0  0  0  0  0
   -3.8175   -1.0312   -0.9552 H   0  0  0  0  0  0  0  0  0  0  0  0
   -1.2501   -1.0418   -1.1413 H   0  0  0  0  0  0  0  0  0  0  0  0
   -1.1225    2.7975    0.9602 H   0  0  0  0  0  0  0  0  0  0  0  0
   -3.6912    2.7663    1.1235 H   0  0  0  0  0  0  0  0  0  0  0  0
   -5.3437    0.8612    0.1923 N   0  0  0  0  0  0  0  0  0  0  0  0
   -5.9123   -0.1036   -0.2981 O   0  0  0  0  0  0  0  0  0  0  0  0
   -5.8483    1.8216    0.7559 O   0  0  0  0  0  0  0  0  0  0  0  0
    9.3659    0.8496   -0.8438 N   0  0  0  0  0  0  0  0  0  0  0  0
   10.4686    0.8476   -0.9215 N   0  0  0  0  0  0  0  0  0  0  0  0
  1  6  1  0  0  0  0
  2  1  2  0  0  0  0
  2  3  1  0  0  0  0
  3  4  2  0  0  0  0
  4  5  1  0  0  0  0
  4  9  1  0  0  0  0
  5 10  1  0  0  0  0
  6 11  1  0  0  0  0
  6  5  2  0  0  0  0
  7  1  1  0  0  0  0
  8  2  1  0  0  0  0
 11 13  2  0  0  0  0
 12 11  2  0  0  0  0
 15 14  3  0  0  0  0
M  RAD  1   3   2
M  END
