Coordinates from ORCA-job 4-NO2-Ph-N2+-scan-d090-169-n800
 OpenBabel09191814013D

 15 14  0  0  0  0  0  0  0  0999 V2000
   -3.0098   -0.2089   -0.5598 C   0  0  0  0  0  0  0  0  0  0  0  0
   -1.5883   -0.2506   -0.6825 C   0  0  0  0  0  0  0  0  0  0  0  0
   -1.1902    0.8734   -0.0926 C   0  0  0  0  0  0  0  0  0  0  0  0
   -1.5095    1.9955    0.5467 C   0  0  0  0  0  0  0  0  0  0  0  0
   -2.9342    1.9465    0.6198 C   0  0  0  0  0  0  0  0  0  0  0  0
   -3.6315    0.8671    0.0754 C   0  0  0  0  0  0  0  0  0  0  0  0
   -3.5919   -1.0314   -0.9710 H   0  0  0  0  0  0  0  0  0  0  0  0
   -1.0246   -1.0456   -1.1591 H   0  0  0  0  0  0  0  0  0  0  0  0
   -0.8899    2.7936    0.9419 H   0  0  0  0  0  0  0  0  0  0  0  0
   -3.4586    2.7661    1.1072 H   0  0  0  0  0  0  0  0  0  0  0  0
   -5.1145    0.8633    0.1775 N   0  0  0  0  0  0  0  0  0  0  0  0
   -5.6849   -0.1007   -0.3125 O   0  0  0  0  0  0  0  0  0  0  0  0
   -5.6174    1.8245    0.7412 O   0  0  0  0  0  0  0  0  0  0  0  0
    7.8771    0.8552   -0.7367 N   0  0  0  0  0  0  0  0  0  0  0  0
    8.9799    0.8536   -0.8142 N   0  0  0  0  0  0  0  0  0  0  0  0
  1  6  1  0  0  0  0
  2  1  2  0  0  0  0
  2  3  1  0  0  0  0
  3  4  2  0  0  0  0
  4  5  1  0  0  0  0
  4  9  1  0  0  0  0
  5 10  1  0  0  0  0
  6 11  1  0  0  0  0
  6  5  2  0  0  0  0
  7  1  1  0  0  0  0
  8  2  1  0  0  0  0
 11 13  2  0  0  0  0
 12 11  2  0  0  0  0
 15 14  3  0  0  0  0
M  RAD  1   3   2
M  END
