Coordinates from ORCA-job 4-NO2-Ph-N2+-scan-d090-169-n800
 OpenBabel09191814003D

 15 14  0  0  0  0  0  0  0  0999 V2000
   -2.2973   -0.2110   -0.6107 C   0  0  0  0  0  0  0  0  0  0  0  0
   -0.8766   -0.2558   -0.7349 C   0  0  0  0  0  0  0  0  0  0  0  0
   -0.4726    0.8668   -0.1461 C   0  0  0  0  0  0  0  0  0  0  0  0
   -0.7904    1.9894    0.4933 C   0  0  0  0  0  0  0  0  0  0  0  0
   -2.2146    1.9447    0.5685 C   0  0  0  0  0  0  0  0  0  0  0  0
   -2.9153    0.8669    0.0251 C   0  0  0  0  0  0  0  0  0  0  0  0
   -2.8826   -1.0316   -1.0208 H   0  0  0  0  0  0  0  0  0  0  0  0
   -0.3136   -1.0510   -1.2115 H   0  0  0  0  0  0  0  0  0  0  0  0
   -0.1664    2.7846    0.8867 H   0  0  0  0  0  0  0  0  0  0  0  0
   -2.7369    2.7653    1.0562 H   0  0  0  0  0  0  0  0  0  0  0  0
   -4.3980    0.8669    0.1290 N   0  0  0  0  0  0  0  0  0  0  0  0
   -4.9721   -0.0956   -0.3599 O   0  0  0  0  0  0  0  0  0  0  0  0
   -4.8982    1.8295    0.6932 O   0  0  0  0  0  0  0  0  0  0  0  0
    3.2218    0.8662   -0.4049 N   0  0  0  0  0  0  0  0  0  0  0  0
    4.3243    0.8661   -0.4821 N   0  0  0  0  0  0  0  0  0  0  0  0
  1  6  1  0  0  0  0
  2  1  2  0  0  0  0
  2  3  1  0  0  0  0
  3  4  2  0  0  0  0
  4  5  1  0  0  0  0
  4  9  1  0  0  0  0
  5 10  1  0  0  0  0
  6 11  1  0  0  0  0
  6  5  2  0  0  0  0
  7  1  1  0  0  0  0
  8  2  1  0  0  0  0
 11 13  2  0  0  0  0
 12 11  2  0  0  0  0
 15 14  3  0  0  0  0
M  RAD  1   3   2
M  END
