Coordinates from ORCA-job 4-NO2-Ph-N2+-scan-d090-169-n800
 OpenBabel09191814013D

 15 14  0  0  0  0  0  0  0  0999 V2000
   -2.7057   -0.2100   -0.5817 C   0  0  0  0  0  0  0  0  0  0  0  0
   -1.2843   -0.2539   -0.7055 C   0  0  0  0  0  0  0  0  0  0  0  0
   -0.8842    0.8696   -0.1160 C   0  0  0  0  0  0  0  0  0  0  0  0
   -1.2011    1.9923    0.5234 C   0  0  0  0  0  0  0  0  0  0  0  0
   -2.6258    1.9454    0.5976 C   0  0  0  0  0  0  0  0  0  0  0  0
   -3.3252    0.8670    0.0539 C   0  0  0  0  0  0  0  0  0  0  0  0
   -3.2893   -1.0316   -0.9924 H   0  0  0  0  0  0  0  0  0  0  0  0
   -0.7220   -1.0497   -1.1824 H   0  0  0  0  0  0  0  0  0  0  0  0
   -0.5798    2.7892    0.9179 H   0  0  0  0  0  0  0  0  0  0  0  0
   -3.1487    2.7659    1.0854 H   0  0  0  0  0  0  0  0  0  0  0  0
   -4.8082    0.8655    0.1571 N   0  0  0  0  0  0  0  0  0  0  0  0
   -5.3804   -0.0977   -0.3322 O   0  0  0  0  0  0  0  0  0  0  0  0
   -5.3091    1.8275    0.7212 O   0  0  0  0  0  0  0  0  0  0  0  0
    5.8863    0.8614   -0.5939 N   0  0  0  0  0  0  0  0  0  0  0  0
    6.9890    0.8605   -0.6713 N   0  0  0  0  0  0  0  0  0  0  0  0
  1  6  1  0  0  0  0
  2  1  2  0  0  0  0
  2  3  1  0  0  0  0
  3  4  2  0  0  0  0
  4  5  1  0  0  0  0
  4  9  1  0  0  0  0
  5 10  1  0  0  0  0
  6 11  1  0  0  0  0
  6  5  2  0  0  0  0
  7  1  1  0  0  0  0
  8  2  1  0  0  0  0
 11 13  2  0  0  0  0
 12 11  2  0  0  0  0
 15 14  3  0  0  0  0
M  RAD  1   3   2
M  END
