Coordinates from ORCA-job 4-NO2-Ph-N2+-scan-d090-169-n800
 OpenBabel09191814013D

 15 14  0  0  0  0  0  0  0  0999 V2000
   -3.9632   -0.2042   -0.4905 C   0  0  0  0  0  0  0  0  0  0  0  0
   -2.5409   -0.2352   -0.6075 C   0  0  0  0  0  0  0  0  0  0  0  0
   -2.1538    0.8915   -0.0153 C   0  0  0  0  0  0  0  0  0  0  0  0
   -2.4841    2.0110    0.6233 C   0  0  0  0  0  0  0  0  0  0  0  0
   -3.9087    1.9510    0.6904 C   0  0  0  0  0  0  0  0  0  0  0  0
   -4.5956    0.8667    0.1426 C   0  0  0  0  0  0  0  0  0  0  0  0
   -4.5375   -1.0308   -0.9045 H   0  0  0  0  0  0  0  0  0  0  0  0
   -1.9693   -1.0257   -1.0821 H   0  0  0  0  0  0  0  0  0  0  0  0
   -1.8723    2.8135    1.0215 H   0  0  0  0  0  0  0  0  0  0  0  0
   -4.4415    2.7664    1.1761 H   0  0  0  0  0  0  0  0  0  0  0  0
   -6.0790    0.8517    0.2385 N   0  0  0  0  0  0  0  0  0  0  0  0
   -6.6401   -0.1163   -0.2542 O   0  0  0  0  0  0  0  0  0  0  0  0
   -6.5914    1.8088    0.8007 O   0  0  0  0  0  0  0  0  0  0  0  0
   14.1429    0.8243   -1.1921 N   0  0  0  0  0  0  0  0  0  0  0  0
   15.2459    0.8288   -1.2659 N   0  0  0  0  0  0  0  0  0  0  0  0
  1  6  1  0  0  0  0
  2  1  2  0  0  0  0
  2  3  1  0  0  0  0
  3  4  2  0  0  0  0
  4  5  1  0  0  0  0
  4  9  1  0  0  0  0
  5 10  1  0  0  0  0
  6 11  1  0  0  0  0
  6  5  2  0  0  0  0
  7  1  1  0  0  0  0
  8  2  1  0  0  0  0
 11 13  2  0  0  0  0
 12 11  2  0  0  0  0
 15 14  3  0  0  0  0
M  RAD  1   3   2
M  END
