Coordinates from ORCA-job 4-NO2-Ph-N2+-scan-d090-169-n800
 OpenBabel09191814003D

 15 14  0  0  0  0  0  0  0  0999 V2000
   -2.4326   -0.2107   -0.6011 C   0  0  0  0  0  0  0  0  0  0  0  0
   -1.0114   -0.2557   -0.7255 C   0  0  0  0  0  0  0  0  0  0  0  0
   -0.6099    0.8673   -0.1363 C   0  0  0  0  0  0  0  0  0  0  0  0
   -0.9258    1.9902    0.5031 C   0  0  0  0  0  0  0  0  0  0  0  0
   -2.3504    1.9448    0.5780 C   0  0  0  0  0  0  0  0  0  0  0  0
   -3.0509    0.8669    0.0346 C   0  0  0  0  0  0  0  0  0  0  0  0
   -3.0173   -1.0318   -1.0115 H   0  0  0  0  0  0  0  0  0  0  0  0
   -0.4493   -1.0515   -1.2024 H   0  0  0  0  0  0  0  0  0  0  0  0
   -0.3029    2.7862    0.8970 H   0  0  0  0  0  0  0  0  0  0  0  0
   -2.8725    2.7656    1.0659 H   0  0  0  0  0  0  0  0  0  0  0  0
   -4.5337    0.8667    0.1385 N   0  0  0  0  0  0  0  0  0  0  0  0
   -5.1072   -0.0960   -0.3506 O   0  0  0  0  0  0  0  0  0  0  0  0
   -5.0338    1.8292    0.7026 O   0  0  0  0  0  0  0  0  0  0  0  0
    4.1032    0.8653   -0.4671 N   0  0  0  0  0  0  0  0  0  0  0  0
    5.2059    0.8650   -0.5443 N   0  0  0  0  0  0  0  0  0  0  0  0
  1  6  1  0  0  0  0
  2  1  2  0  0  0  0
  2  3  1  0  0  0  0
  3  4  2  0  0  0  0
  4  5  1  0  0  0  0
  4  9  1  0  0  0  0
  5 10  1  0  0  0  0
  6 11  1  0  0  0  0
  6  5  2  0  0  0  0
  7  1  1  0  0  0  0
  8  2  1  0  0  0  0
 11 13  2  0  0  0  0
 12 11  2  0  0  0  0
 15 14  3  0  0  0  0
M  RAD  1   3   2
M  END
