Coordinates from ORCA-job 4-NO2-Ph-N2+-scan-d090-169-n800
 OpenBabel09191814013D

 15 14  0  0  0  0  0  0  0  0999 V2000
   -3.0442   -0.2087   -0.5573 C   0  0  0  0  0  0  0  0  0  0  0  0
   -1.6226   -0.2502   -0.6799 C   0  0  0  0  0  0  0  0  0  0  0  0
   -1.2248    0.8739   -0.0899 C   0  0  0  0  0  0  0  0  0  0  0  0
   -1.5444    1.9960    0.5493 C   0  0  0  0  0  0  0  0  0  0  0  0
   -2.9691    1.9466    0.6223 C   0  0  0  0  0  0  0  0  0  0  0  0
   -3.6662    0.8671    0.0778 C   0  0  0  0  0  0  0  0  0  0  0  0
   -3.6260   -1.0314   -0.9687 H   0  0  0  0  0  0  0  0  0  0  0  0
   -1.0587   -1.0450   -1.1565 H   0  0  0  0  0  0  0  0  0  0  0  0
   -0.9250    2.7941    0.9446 H   0  0  0  0  0  0  0  0  0  0  0  0
   -3.4938    2.7662    1.1097 H   0  0  0  0  0  0  0  0  0  0  0  0
   -5.1492    0.8630    0.1797 N   0  0  0  0  0  0  0  0  0  0  0  0
   -5.7193   -0.1012   -0.3102 O   0  0  0  0  0  0  0  0  0  0  0  0
   -5.6523    1.8241    0.7435 O   0  0  0  0  0  0  0  0  0  0  0  0
    8.1022    0.8544   -0.7528 N   0  0  0  0  0  0  0  0  0  0  0  0
    9.2049    0.8527   -0.8304 N   0  0  0  0  0  0  0  0  0  0  0  0
  1  6  1  0  0  0  0
  2  1  2  0  0  0  0
  2  3  1  0  0  0  0
  3  4  2  0  0  0  0
  4  5  1  0  0  0  0
  4  9  1  0  0  0  0
  5 10  1  0  0  0  0
  6 11  1  0  0  0  0
  6  5  2  0  0  0  0
  7  1  1  0  0  0  0
  8  2  1  0  0  0  0
 11 13  2  0  0  0  0
 12 11  2  0  0  0  0
 15 14  3  0  0  0  0
M  RAD  1   3   2
M  END
