Coordinates from ORCA-job 4-NO2-Ph-N2+-scan-d090-169-n800
 OpenBabel09191814013D

 15 14  0  0  0  0  0  0  0  0999 V2000
   -2.7348   -0.2099   -0.5796 C   0  0  0  0  0  0  0  0  0  0  0  0
   -1.3134   -0.2538   -0.7034 C   0  0  0  0  0  0  0  0  0  0  0  0
   -0.9135    0.8699   -0.1138 C   0  0  0  0  0  0  0  0  0  0  0  0
   -1.2305    1.9927    0.5257 C   0  0  0  0  0  0  0  0  0  0  0  0
   -2.6553    1.9455    0.5997 C   0  0  0  0  0  0  0  0  0  0  0  0
   -3.3545    0.8670    0.0559 C   0  0  0  0  0  0  0  0  0  0  0  0
   -3.3185   -1.0315   -0.9903 H   0  0  0  0  0  0  0  0  0  0  0  0
   -0.7510   -1.0495   -1.1803 H   0  0  0  0  0  0  0  0  0  0  0  0
   -0.6093    2.7897    0.9202 H   0  0  0  0  0  0  0  0  0  0  0  0
   -3.1784    2.7659    1.0874 H   0  0  0  0  0  0  0  0  0  0  0  0
   -4.8374    0.8653    0.1591 N   0  0  0  0  0  0  0  0  0  0  0  0
   -5.4096   -0.0979   -0.3303 O   0  0  0  0  0  0  0  0  0  0  0  0
   -5.3386    1.8273    0.7231 O   0  0  0  0  0  0  0  0  0  0  0  0
    6.0767    0.8609   -0.6075 N   0  0  0  0  0  0  0  0  0  0  0  0
    7.1794    0.8599   -0.6849 N   0  0  0  0  0  0  0  0  0  0  0  0
  1  6  1  0  0  0  0
  2  1  2  0  0  0  0
  2  3  1  0  0  0  0
  3  4  2  0  0  0  0
  4  5  1  0  0  0  0
  4  9  1  0  0  0  0
  5 10  1  0  0  0  0
  6 11  1  0  0  0  0
  6  5  2  0  0  0  0
  7  1  1  0  0  0  0
  8  2  1  0  0  0  0
 11 13  2  0  0  0  0
 12 11  2  0  0  0  0
 15 14  3  0  0  0  0
M  RAD  1   3   2
M  END
