Coordinates from ORCA-job 4-NO2-Ph-N2+-scan-d090-169-n800
 OpenBabel09191814013D

 15 14  0  0  0  0  0  0  0  0999 V2000
   -3.0125   -0.2089   -0.5596 C   0  0  0  0  0  0  0  0  0  0  0  0
   -1.5909   -0.2507   -0.6824 C   0  0  0  0  0  0  0  0  0  0  0  0
   -1.1930    0.8734   -0.0924 C   0  0  0  0  0  0  0  0  0  0  0  0
   -1.5121    1.9957    0.5469 C   0  0  0  0  0  0  0  0  0  0  0  0
   -2.9369    1.9465    0.6200 C   0  0  0  0  0  0  0  0  0  0  0  0
   -3.6342    0.8671    0.0756 C   0  0  0  0  0  0  0  0  0  0  0  0
   -3.5946   -1.0313   -0.9708 H   0  0  0  0  0  0  0  0  0  0  0  0
   -1.0272   -1.0456   -1.1590 H   0  0  0  0  0  0  0  0  0  0  0  0
   -0.8925    2.7937    0.9421 H   0  0  0  0  0  0  0  0  0  0  0  0
   -3.4615    2.7661    1.1074 H   0  0  0  0  0  0  0  0  0  0  0  0
   -5.1172    0.8632    0.1776 N   0  0  0  0  0  0  0  0  0  0  0  0
   -5.6876   -0.1008   -0.3123 O   0  0  0  0  0  0  0  0  0  0  0  0
   -5.6201    1.8245    0.7414 O   0  0  0  0  0  0  0  0  0  0  0  0
    7.8944    0.8551   -0.7379 N   0  0  0  0  0  0  0  0  0  0  0  0
    8.9971    0.8535   -0.8154 N   0  0  0  0  0  0  0  0  0  0  0  0
  1  6  1  0  0  0  0
  2  1  2  0  0  0  0
  2  3  1  0  0  0  0
  3  4  2  0  0  0  0
  4  5  1  0  0  0  0
  4  9  1  0  0  0  0
  5 10  1  0  0  0  0
  6 11  1  0  0  0  0
  6  5  2  0  0  0  0
  7  1  1  0  0  0  0
  8  2  1  0  0  0  0
 11 13  2  0  0  0  0
 12 11  2  0  0  0  0
 15 14  3  0  0  0  0
M  RAD  1   3   2
M  END
