Coordinates from ORCA-job 4-NO2-Ph-N2+-scan-d090-169-n800
 OpenBabel09191814013D

 15 14  0  0  0  0  0  0  0  0999 V2000
   -3.8740   -0.2047   -0.4970 C   0  0  0  0  0  0  0  0  0  0  0  0
   -2.4517   -0.2371   -0.6147 C   0  0  0  0  0  0  0  0  0  0  0  0
   -2.0633    0.8894   -0.0228 C   0  0  0  0  0  0  0  0  0  0  0  0
   -2.3922    2.0092    0.6159 C   0  0  0  0  0  0  0  0  0  0  0  0
   -3.8169    1.9505    0.6837 C   0  0  0  0  0  0  0  0  0  0  0  0
   -4.5051    0.8668    0.1363 C   0  0  0  0  0  0  0  0  0  0  0  0
   -4.4492   -1.0308   -0.9107 H   0  0  0  0  0  0  0  0  0  0  0  0
   -1.8811   -1.0281   -1.0896 H   0  0  0  0  0  0  0  0  0  0  0  0
   -1.7795    2.8111    1.0137 H   0  0  0  0  0  0  0  0  0  0  0  0
   -4.3487    2.7664    1.1696 H   0  0  0  0  0  0  0  0  0  0  0  0
   -5.9884    0.8531    0.2330 N   0  0  0  0  0  0  0  0  0  0  0  0
   -6.5506   -0.1144   -0.2594 O   0  0  0  0  0  0  0  0  0  0  0  0
   -6.4997    1.8108    0.7954 O   0  0  0  0  0  0  0  0  0  0  0  0
   13.5545    0.8280   -1.1488 N   0  0  0  0  0  0  0  0  0  0  0  0
   14.6574    0.8311   -1.2234 N   0  0  0  0  0  0  0  0  0  0  0  0
  1  6  1  0  0  0  0
  2  1  2  0  0  0  0
  2  3  1  0  0  0  0
  3  4  2  0  0  0  0
  4  5  1  0  0  0  0
  4  9  1  0  0  0  0
  5 10  1  0  0  0  0
  6 11  1  0  0  0  0
  6  5  2  0  0  0  0
  7  1  1  0  0  0  0
  8  2  1  0  0  0  0
 11 13  2  0  0  0  0
 12 11  2  0  0  0  0
 15 14  3  0  0  0  0
M  RAD  1   3   2
M  END
