Coordinates from ORCA-job 4-NO2-Ph-N2+-scan-d090-169-n800
 OpenBabel09191814013D

 15 14  0  0  0  0  0  0  0  0999 V2000
   -3.3081   -0.2076   -0.5382 C   0  0  0  0  0  0  0  0  0  0  0  0
   -1.8864   -0.2465   -0.6595 C   0  0  0  0  0  0  0  0  0  0  0  0
   -1.4909    0.8781   -0.0690 C   0  0  0  0  0  0  0  0  0  0  0  0
   -1.8132    1.9995    0.5701 C   0  0  0  0  0  0  0  0  0  0  0  0
   -3.2378    1.9477    0.6417 C   0  0  0  0  0  0  0  0  0  0  0  0
   -3.9325    0.8671    0.0964 C   0  0  0  0  0  0  0  0  0  0  0  0
   -3.8880   -1.0312   -0.9502 H   0  0  0  0  0  0  0  0  0  0  0  0
   -1.3208   -1.0404   -1.1356 H   0  0  0  0  0  0  0  0  0  0  0  0
   -1.1957    2.7987    0.9660 H   0  0  0  0  0  0  0  0  0  0  0  0
   -3.7642    2.7664    1.1287 H   0  0  0  0  0  0  0  0  0  0  0  0
   -5.4156    0.8604    0.1970 N   0  0  0  0  0  0  0  0  0  0  0  0
   -5.9837   -0.1046   -0.2937 O   0  0  0  0  0  0  0  0  0  0  0  0
   -5.9209    1.8206    0.7604 O   0  0  0  0  0  0  0  0  0  0  0  0
    9.8333    0.8477   -0.8776 N   0  0  0  0  0  0  0  0  0  0  0  0
   10.9360    0.8456   -0.9553 N   0  0  0  0  0  0  0  0  0  0  0  0
  1  6  1  0  0  0  0
  2  1  2  0  0  0  0
  2  3  1  0  0  0  0
  3  4  2  0  0  0  0
  4  5  1  0  0  0  0
  4  9  1  0  0  0  0
  5 10  1  0  0  0  0
  6 11  1  0  0  0  0
  6  5  2  0  0  0  0
  7  1  1  0  0  0  0
  8  2  1  0  0  0  0
 11 13  2  0  0  0  0
 12 11  2  0  0  0  0
 15 14  3  0  0  0  0
M  RAD  1   3   2
M  END
