Coordinates from ORCA-job 4-NO2-Ph-N2+-scan-d090-169-n800
 OpenBabel09191814013D

 15 14  0  0  0  0  0  0  0  0999 V2000
   -2.5970   -0.2104   -0.5894 C   0  0  0  0  0  0  0  0  0  0  0  0
   -1.1755   -0.2551   -0.7137 C   0  0  0  0  0  0  0  0  0  0  0  0
   -0.7755    0.8685   -0.1242 C   0  0  0  0  0  0  0  0  0  0  0  0
   -1.0911    1.9916    0.5154 C   0  0  0  0  0  0  0  0  0  0  0  0
   -2.5160    1.9451    0.5898 C   0  0  0  0  0  0  0  0  0  0  0  0
   -3.2159    0.8670    0.0462 C   0  0  0  0  0  0  0  0  0  0  0  0
   -3.1815   -1.0316   -0.9999 H   0  0  0  0  0  0  0  0  0  0  0  0
   -0.6133   -1.0508   -1.1906 H   0  0  0  0  0  0  0  0  0  0  0  0
   -0.4690    2.7881    0.9096 H   0  0  0  0  0  0  0  0  0  0  0  0
   -3.0388    2.7657    1.0775 H   0  0  0  0  0  0  0  0  0  0  0  0
   -4.6988    0.8661    0.1498 N   0  0  0  0  0  0  0  0  0  0  0  0
   -5.2716   -0.0969   -0.3395 O   0  0  0  0  0  0  0  0  0  0  0  0
   -5.1993    1.8284    0.7139 O   0  0  0  0  0  0  0  0  0  0  0  0
    5.1761    0.8633   -0.5432 N   0  0  0  0  0  0  0  0  0  0  0  0
    6.2788    0.8626   -0.6205 N   0  0  0  0  0  0  0  0  0  0  0  0
  1  6  1  0  0  0  0
  2  1  2  0  0  0  0
  2  3  1  0  0  0  0
  3  4  2  0  0  0  0
  4  5  1  0  0  0  0
  4  9  1  0  0  0  0
  5 10  1  0  0  0  0
  6 11  1  0  0  0  0
  6  5  2  0  0  0  0
  7  1  1  0  0  0  0
  8  2  1  0  0  0  0
 11 13  2  0  0  0  0
 12 11  2  0  0  0  0
 15 14  3  0  0  0  0
M  RAD  1   3   2
M  END
