Coordinates from ORCA-job 4-NO2-Ph-N2+-scan-d090-169-n800
 OpenBabel09191814003D

 15 15  0  0  0  0  0  0  0  0999 V2000
   -1.9850   -0.2127   -0.6335 C   0  0  0  0  0  0  0  0  0  0  0  0
   -0.6167   -0.2303   -0.7390 C   0  0  0  0  0  0  0  0  0  0  0  0
    0.2131    0.8666   -0.1941 C   0  0  0  0  0  0  0  0  0  0  0  0
   -0.5325    1.9637    0.4611 C   0  0  0  0  0  0  0  0  0  0  0  0
   -1.9021    1.9463    0.5475 C   0  0  0  0  0  0  0  0  0  0  0  0
   -2.6056    0.8669    0.0034 C   0  0  0  0  0  0  0  0  0  0  0  0
   -2.5908   -1.0192   -1.0345 H   0  0  0  0  0  0  0  0  0  0  0  0
   -0.0796   -1.0416   -1.2226 H   0  0  0  0  0  0  0  0  0  0  0  0
    0.0670    2.7749    0.8651 H   0  0  0  0  0  0  0  0  0  0  0  0
   -2.4459    2.7529    1.0290 H   0  0  0  0  0  0  0  0  0  0  0  0
   -4.0965    0.8670    0.1078 N   0  0  0  0  0  0  0  0  0  0  0  0
   -4.6695   -0.0958   -0.3813 O   0  0  0  0  0  0  0  0  0  0  0  0
   -4.5956    1.8297    0.6723 O   0  0  0  0  0  0  0  0  0  0  0  0
    1.1508    0.8666   -0.2598 N   0  0  0  0  0  0  0  0  0  0  0  0
    2.3004    0.8665   -0.3403 N   0  0  0  0  0  0  0  0  0  0  0  0
  1  6  1  0  0  0  0
  2  1  2  0  0  0  0
  2  3  1  0  0  0  0
  3  4  2  0  0  0  0
  4  5  1  0  0  0  0
  4  9  1  0  0  0  0
  5 10  1  0  0  0  0
  6 11  1  0  0  0  0
  6  5  2  0  0  0  0
  7  1  1  0  0  0  0
  8  2  1  0  0  0  0
 11 13  2  0  0  0  0
 12 11  2  0  0  0  0
 14  3  1  0  0  0  0
 15 14  1  0  0  0  0
M  RAD  2  14   2  15   3
M  END
