Coordinates from ORCA-job 4-NO2-Ph-N2+-scan-d090-169-n800
 OpenBabel09191814013D

 15 14  0  0  0  0  0  0  0  0999 V2000
   -3.1392   -0.2083   -0.5504 C   0  0  0  0  0  0  0  0  0  0  0  0
   -1.7175   -0.2491   -0.6727 C   0  0  0  0  0  0  0  0  0  0  0  0
   -1.3207    0.8753   -0.0825 C   0  0  0  0  0  0  0  0  0  0  0  0
   -1.6410    1.9973    0.5568 C   0  0  0  0  0  0  0  0  0  0  0  0
   -3.0658    1.9470    0.6293 C   0  0  0  0  0  0  0  0  0  0  0  0
   -3.7620    0.8671    0.0845 C   0  0  0  0  0  0  0  0  0  0  0  0
   -3.7206   -1.0312   -0.9619 H   0  0  0  0  0  0  0  0  0  0  0  0
   -1.1531   -1.0436   -1.1491 H   0  0  0  0  0  0  0  0  0  0  0  0
   -1.0222    2.7958    0.9523 H   0  0  0  0  0  0  0  0  0  0  0  0
   -3.5912    2.7662    1.1165 H   0  0  0  0  0  0  0  0  0  0  0  0
   -5.2450    0.8621    0.1860 N   0  0  0  0  0  0  0  0  0  0  0  0
   -5.8145   -0.1023   -0.3043 O   0  0  0  0  0  0  0  0  0  0  0  0
   -5.7489    1.8230    0.7496 O   0  0  0  0  0  0  0  0  0  0  0  0
    8.7253    0.8521   -0.7977 N   0  0  0  0  0  0  0  0  0  0  0  0
    9.8280    0.8502   -0.8753 N   0  0  0  0  0  0  0  0  0  0  0  0
  1  6  1  0  0  0  0
  2  1  2  0  0  0  0
  2  3  1  0  0  0  0
  3  4  2  0  0  0  0
  4  5  1  0  0  0  0
  4  9  1  0  0  0  0
  5 10  1  0  0  0  0
  6 11  1  0  0  0  0
  6  5  2  0  0  0  0
  7  1  1  0  0  0  0
  8  2  1  0  0  0  0
 11 13  2  0  0  0  0
 12 11  2  0  0  0  0
 15 14  3  0  0  0  0
M  RAD  1   3   2
M  END
