Coordinates from ORCA-job 4-NO2-Ph-N2+-scan-d090-169-n800
 OpenBabel09191814013D

 15 14  0  0  0  0  0  0  0  0999 V2000
   -2.5997   -0.2103   -0.5892 C   0  0  0  0  0  0  0  0  0  0  0  0
   -1.1784   -0.2549   -0.7134 C   0  0  0  0  0  0  0  0  0  0  0  0
   -0.7777    0.8685   -0.1240 C   0  0  0  0  0  0  0  0  0  0  0  0
   -1.0940    1.9915    0.5155 C   0  0  0  0  0  0  0  0  0  0  0  0
   -2.5187    1.9451    0.5900 C   0  0  0  0  0  0  0  0  0  0  0  0
   -3.2187    0.8670    0.0464 C   0  0  0  0  0  0  0  0  0  0  0  0
   -3.1840   -1.0316   -0.9997 H   0  0  0  0  0  0  0  0  0  0  0  0
   -0.6163   -1.0508   -1.1904 H   0  0  0  0  0  0  0  0  0  0  0  0
   -0.4721    2.7881    0.9098 H   0  0  0  0  0  0  0  0  0  0  0  0
   -3.0413    2.7657    1.0777 H   0  0  0  0  0  0  0  0  0  0  0  0
   -4.7015    0.8661    0.1499 N   0  0  0  0  0  0  0  0  0  0  0  0
   -5.2744   -0.0969   -0.3393 O   0  0  0  0  0  0  0  0  0  0  0  0
   -5.2021    1.8283    0.7141 O   0  0  0  0  0  0  0  0  0  0  0  0
    5.1939    0.8632   -0.5445 N   0  0  0  0  0  0  0  0  0  0  0  0
    6.2965    0.8625   -0.6218 N   0  0  0  0  0  0  0  0  0  0  0  0
  1  6  1  0  0  0  0
  2  1  2  0  0  0  0
  2  3  1  0  0  0  0
  3  4  2  0  0  0  0
  4  5  1  0  0  0  0
  4  9  1  0  0  0  0
  5 10  1  0  0  0  0
  6 11  1  0  0  0  0
  6  5  2  0  0  0  0
  7  1  1  0  0  0  0
  8  2  1  0  0  0  0
 11 13  2  0  0  0  0
 12 11  2  0  0  0  0
 15 14  3  0  0  0  0
M  RAD  1   3   2
M  END
