Coordinates from ORCA-job 4-NO2-Ph-N2+-scan-d090-169-n800
 OpenBabel09191814003D

 15 15  0  0  0  0  0  0  0  0999 V2000
   -2.0578   -0.2117   -0.6278 C   0  0  0  0  0  0  0  0  0  0  0  0
   -0.6612   -0.2372   -0.7397 C   0  0  0  0  0  0  0  0  0  0  0  0
   -0.0721    0.8667   -0.1741 C   0  0  0  0  0  0  0  0  0  0  0  0
   -0.5764    1.9706    0.4681 C   0  0  0  0  0  0  0  0  0  0  0  0
   -1.9749    1.9453    0.5521 C   0  0  0  0  0  0  0  0  0  0  0  0
   -2.6724    0.8668    0.0081 C   0  0  0  0  0  0  0  0  0  0  0  0
   -2.6619   -1.0185   -1.0290 H   0  0  0  0  0  0  0  0  0  0  0  0
   -0.1247   -1.0454   -1.2215 H   0  0  0  0  0  0  0  0  0  0  0  0
    0.0222    2.7787    0.8704 H   0  0  0  0  0  0  0  0  0  0  0  0
   -2.5170    2.7521    1.0336 H   0  0  0  0  0  0  0  0  0  0  0  0
   -4.1599    0.8669    0.1124 N   0  0  0  0  0  0  0  0  0  0  0  0
   -4.7388   -0.0938   -0.3755 O   0  0  0  0  0  0  0  0  0  0  0  0
   -4.6650    1.8279    0.6758 O   0  0  0  0  0  0  0  0  0  0  0  0
    1.6847    0.8665   -0.2972 N   0  0  0  0  0  0  0  0  0  0  0  0
    2.7867    0.8665   -0.3745 N   0  0  0  0  0  0  0  0  0  0  0  0
  1  6  1  0  0  0  0
  2  1  2  0  0  0  0
  2  3  1  0  0  0  0
  3  4  2  0  0  0  0
  4  5  1  0  0  0  0
  4  9  1  0  0  0  0
  5 10  1  0  0  0  0
  6 11  1  0  0  0  0
  6  5  2  0  0  0  0
  7  1  1  0  0  0  0
  8  2  1  0  0  0  0
 11 13  2  0  0  0  0
 12 11  2  0  0  0  0
 14  3  1  0  0  0  0
 15 14  1  0  0  0  0
M  RAD  2  14   2  15   3
M  END
