Coordinates from ORCA-job 4-NO2-Ph-N2+-scan-d090-169-n800
 OpenBabel09191814013D

 15 14  0  0  0  0  0  0  0  0999 V2000
   -2.9993   -0.2089   -0.5605 C   0  0  0  0  0  0  0  0  0  0  0  0
   -1.5777   -0.2509   -0.6834 C   0  0  0  0  0  0  0  0  0  0  0  0
   -1.1797    0.8732   -0.0934 C   0  0  0  0  0  0  0  0  0  0  0  0
   -1.4987    1.9955    0.5459 C   0  0  0  0  0  0  0  0  0  0  0  0
   -2.9235    1.9464    0.6190 C   0  0  0  0  0  0  0  0  0  0  0  0
   -3.6208    0.8671    0.0746 C   0  0  0  0  0  0  0  0  0  0  0  0
   -3.5815   -1.0313   -0.9717 H   0  0  0  0  0  0  0  0  0  0  0  0
   -1.0140   -1.0458   -1.1600 H   0  0  0  0  0  0  0  0  0  0  0  0
   -0.8790    2.7935    0.9410 H   0  0  0  0  0  0  0  0  0  0  0  0
   -3.4480    2.7661    1.1064 H   0  0  0  0  0  0  0  0  0  0  0  0
   -5.1038    0.8634    0.1767 N   0  0  0  0  0  0  0  0  0  0  0  0
   -5.6743   -0.1006   -0.3132 O   0  0  0  0  0  0  0  0  0  0  0  0
   -5.6066    1.8246    0.7405 O   0  0  0  0  0  0  0  0  0  0  0  0
    7.8078    0.8554   -0.7317 N   0  0  0  0  0  0  0  0  0  0  0  0
    8.9106    0.8538   -0.8092 N   0  0  0  0  0  0  0  0  0  0  0  0
  1  6  1  0  0  0  0
  2  1  2  0  0  0  0
  2  3  1  0  0  0  0
  3  4  2  0  0  0  0
  4  5  1  0  0  0  0
  4  9  1  0  0  0  0
  5 10  1  0  0  0  0
  6 11  1  0  0  0  0
  6  5  2  0  0  0  0
  7  1  1  0  0  0  0
  8  2  1  0  0  0  0
 11 13  2  0  0  0  0
 12 11  2  0  0  0  0
 15 14  3  0  0  0  0
M  RAD  1   3   2
M  END
