Coordinates from ORCA-job 4-NO2-Ph-N2+-scan-d090-169-n800
 OpenBabel09191814003D

 15 14  0  0  0  0  0  0  0  0999 V2000
   -2.1218   -0.2109   -0.6230 C   0  0  0  0  0  0  0  0  0  0  0  0
   -0.7092   -0.2503   -0.7435 C   0  0  0  0  0  0  0  0  0  0  0  0
   -0.2453    0.8667   -0.1620 C   0  0  0  0  0  0  0  0  0  0  0  0
   -0.6234    1.9837    0.4785 C   0  0  0  0  0  0  0  0  0  0  0  0
   -2.0391    1.9445    0.5561 C   0  0  0  0  0  0  0  0  0  0  0  0
   -2.7386    0.8669    0.0127 C   0  0  0  0  0  0  0  0  0  0  0  0
   -2.7136   -1.0266   -1.0299 H   0  0  0  0  0  0  0  0  0  0  0  0
   -0.1566   -1.0497   -1.2217 H   0  0  0  0  0  0  0  0  0  0  0  0
   -0.0094    2.7830    0.8749 H   0  0  0  0  0  0  0  0  0  0  0  0
   -2.5681    2.7604    1.0417 H   0  0  0  0  0  0  0  0  0  0  0  0
   -4.2225    0.8670    0.1167 N   0  0  0  0  0  0  0  0  0  0  0  0
   -4.7990   -0.0947   -0.3716 O   0  0  0  0  0  0  0  0  0  0  0  0
   -4.7252    1.8287    0.6806 O   0  0  0  0  0  0  0  0  0  0  0  0
    2.0908    0.8665   -0.3256 N   0  0  0  0  0  0  0  0  0  0  0  0
    3.1925    0.8664   -0.4028 N   0  0  0  0  0  0  0  0  0  0  0  0
  1  6  1  0  0  0  0
  2  1  2  0  0  0  0
  2  3  1  0  0  0  0
  3  4  2  0  0  0  0
  4  5  1  0  0  0  0
  4  9  1  0  0  0  0
  5 10  1  0  0  0  0
  6 11  1  0  0  0  0
  6  5  2  0  0  0  0
  7  1  1  0  0  0  0
  8  2  1  0  0  0  0
 11 13  2  0  0  0  0
 12 11  2  0  0  0  0
 15 14  3  0  0  0  0
M  RAD  1   3   2
M  END
