Coordinates from ORCA-job 4-NO2-Ph-N2+-scan-d090-169-n800
 OpenBabel09191814013D

 15 14  0  0  0  0  0  0  0  0999 V2000
   -3.8556   -0.2048   -0.4984 C   0  0  0  0  0  0  0  0  0  0  0  0
   -2.4334   -0.2373   -0.6161 C   0  0  0  0  0  0  0  0  0  0  0  0
   -2.0447    0.8890   -0.0243 C   0  0  0  0  0  0  0  0  0  0  0  0
   -2.3734    2.0087    0.6144 C   0  0  0  0  0  0  0  0  0  0  0  0
   -3.7980    1.9505    0.6824 C   0  0  0  0  0  0  0  0  0  0  0  0
   -4.4865    0.8668    0.1351 C   0  0  0  0  0  0  0  0  0  0  0  0
   -4.4309   -1.0309   -0.9121 H   0  0  0  0  0  0  0  0  0  0  0  0
   -1.8629   -1.0284   -1.0911 H   0  0  0  0  0  0  0  0  0  0  0  0
   -1.7604    2.8106    1.0121 H   0  0  0  0  0  0  0  0  0  0  0  0
   -4.3295    2.7665    1.1683 H   0  0  0  0  0  0  0  0  0  0  0  0
   -5.9698    0.8534    0.2319 N   0  0  0  0  0  0  0  0  0  0  0  0
   -6.5322   -0.1140   -0.2606 O   0  0  0  0  0  0  0  0  0  0  0  0
   -6.4808    1.8112    0.7942 O   0  0  0  0  0  0  0  0  0  0  0  0
   13.4333    0.8288   -1.1399 N   0  0  0  0  0  0  0  0  0  0  0  0
   14.5362    0.8315   -1.2147 N   0  0  0  0  0  0  0  0  0  0  0  0
  1  6  1  0  0  0  0
  2  1  2  0  0  0  0
  2  3  1  0  0  0  0
  3  4  2  0  0  0  0
  4  5  1  0  0  0  0
  4  9  1  0  0  0  0
  5 10  1  0  0  0  0
  6 11  1  0  0  0  0
  6  5  2  0  0  0  0
  7  1  1  0  0  0  0
  8  2  1  0  0  0  0
 11 13  2  0  0  0  0
 12 11  2  0  0  0  0
 15 14  3  0  0  0  0
M  RAD  1   3   2
M  END
