Coordinates from ORCA-job 4-NO2-Ph-N2+-scan-d090-169-n800
 OpenBabel09191814013D

 15 14  0  0  0  0  0  0  0  0999 V2000
   -2.5812   -0.2104   -0.5906 C   0  0  0  0  0  0  0  0  0  0  0  0
   -1.1600   -0.2549   -0.7147 C   0  0  0  0  0  0  0  0  0  0  0  0
   -0.7589    0.8683   -0.1254 C   0  0  0  0  0  0  0  0  0  0  0  0
   -1.0754    1.9912    0.5140 C   0  0  0  0  0  0  0  0  0  0  0  0
   -2.5001    1.9451    0.5886 C   0  0  0  0  0  0  0  0  0  0  0  0
   -3.2001    0.8670    0.0451 C   0  0  0  0  0  0  0  0  0  0  0  0
   -3.1653   -1.0318   -1.0011 H   0  0  0  0  0  0  0  0  0  0  0  0
   -0.5980   -1.0508   -1.1917 H   0  0  0  0  0  0  0  0  0  0  0  0
   -0.4535    2.7878    0.9084 H   0  0  0  0  0  0  0  0  0  0  0  0
   -3.0223    2.7658    1.0765 H   0  0  0  0  0  0  0  0  0  0  0  0
   -4.6830    0.8661    0.1487 N   0  0  0  0  0  0  0  0  0  0  0  0
   -5.2559   -0.0968   -0.3405 O   0  0  0  0  0  0  0  0  0  0  0  0
   -5.1834    1.8285    0.7128 O   0  0  0  0  0  0  0  0  0  0  0  0
    5.0729    0.8635   -0.5359 N   0  0  0  0  0  0  0  0  0  0  0  0
    6.1756    0.8629   -0.6132 N   0  0  0  0  0  0  0  0  0  0  0  0
  1  6  1  0  0  0  0
  2  1  2  0  0  0  0
  2  3  1  0  0  0  0
  3  4  2  0  0  0  0
  4  5  1  0  0  0  0
  4  9  1  0  0  0  0
  5 10  1  0  0  0  0
  6 11  1  0  0  0  0
  6  5  2  0  0  0  0
  7  1  1  0  0  0  0
  8  2  1  0  0  0  0
 11 13  2  0  0  0  0
 12 11  2  0  0  0  0
 15 14  3  0  0  0  0
M  RAD  1   3   2
M  END
