Coordinates from ORCA-job 4-NO2-Ph-N2+-scan-d090-169-n800
 OpenBabel09191814013D

 15 14  0  0  0  0  0  0  0  0999 V2000
   -2.7957   -0.2097   -0.5752 C   0  0  0  0  0  0  0  0  0  0  0  0
   -1.3743   -0.2529   -0.6987 C   0  0  0  0  0  0  0  0  0  0  0  0
   -0.9745    0.8706   -0.1092 C   0  0  0  0  0  0  0  0  0  0  0  0
   -1.2923    1.9931    0.5302 C   0  0  0  0  0  0  0  0  0  0  0  0
   -2.7170    1.9457    0.6041 C   0  0  0  0  0  0  0  0  0  0  0  0
   -3.4158    0.8671    0.0602 C   0  0  0  0  0  0  0  0  0  0  0  0
   -3.3788   -1.0316   -0.9861 H   0  0  0  0  0  0  0  0  0  0  0  0
   -0.8118   -1.0486   -1.1756 H   0  0  0  0  0  0  0  0  0  0  0  0
   -0.6716    2.7904    0.9249 H   0  0  0  0  0  0  0  0  0  0  0  0
   -3.2401    2.7660    1.0918 H   0  0  0  0  0  0  0  0  0  0  0  0
   -4.8988    0.8649    0.1632 N   0  0  0  0  0  0  0  0  0  0  0  0
   -5.4706   -0.0985   -0.3263 O   0  0  0  0  0  0  0  0  0  0  0  0
   -5.4002    1.8267    0.7272 O   0  0  0  0  0  0  0  0  0  0  0  0
    6.4751    0.8597   -0.6360 N   0  0  0  0  0  0  0  0  0  0  0  0
    7.5778    0.8586   -0.7134 N   0  0  0  0  0  0  0  0  0  0  0  0
  1  6  1  0  0  0  0
  2  1  2  0  0  0  0
  2  3  1  0  0  0  0
  3  4  2  0  0  0  0
  4  5  1  0  0  0  0
  4  9  1  0  0  0  0
  5 10  1  0  0  0  0
  6 11  1  0  0  0  0
  6  5  2  0  0  0  0
  7  1  1  0  0  0  0
  8  2  1  0  0  0  0
 11 13  2  0  0  0  0
 12 11  2  0  0  0  0
 15 14  3  0  0  0  0
M  RAD  1   3   2
M  END
