Coordinates from ORCA-job 4-NO2-Ph-N2+-scan-d090-169-n800
 OpenBabel09191814003D

 15 14  0  0  0  0  0  0  0  0999 V2000
   -2.3264   -0.2109   -0.6087 C   0  0  0  0  0  0  0  0  0  0  0  0
   -0.9055   -0.2560   -0.7330 C   0  0  0  0  0  0  0  0  0  0  0  0
   -0.5026    0.8669   -0.1440 C   0  0  0  0  0  0  0  0  0  0  0  0
   -0.8194    1.9897    0.4955 C   0  0  0  0  0  0  0  0  0  0  0  0
   -2.2438    1.9447    0.5706 C   0  0  0  0  0  0  0  0  0  0  0  0
   -2.9445    0.8669    0.0272 C   0  0  0  0  0  0  0  0  0  0  0  0
   -2.9116   -1.0316   -1.0188 H   0  0  0  0  0  0  0  0  0  0  0  0
   -0.3427   -1.0513   -1.2096 H   0  0  0  0  0  0  0  0  0  0  0  0
   -0.1957    2.7851    0.8890 H   0  0  0  0  0  0  0  0  0  0  0  0
   -2.7661    2.7654    1.0583 H   0  0  0  0  0  0  0  0  0  0  0  0
   -4.4273    0.8669    0.1311 N   0  0  0  0  0  0  0  0  0  0  0  0
   -5.0011   -0.0957   -0.3579 O   0  0  0  0  0  0  0  0  0  0  0  0
   -4.9273    1.8294    0.6953 O   0  0  0  0  0  0  0  0  0  0  0  0
    3.4116    0.8661   -0.4183 N   0  0  0  0  0  0  0  0  0  0  0  0
    4.5141    0.8659   -0.4955 N   0  0  0  0  0  0  0  0  0  0  0  0
  1  6  1  0  0  0  0
  2  1  2  0  0  0  0
  2  3  1  0  0  0  0
  3  4  2  0  0  0  0
  4  5  1  0  0  0  0
  4  9  1  0  0  0  0
  5 10  1  0  0  0  0
  6 11  1  0  0  0  0
  6  5  2  0  0  0  0
  7  1  1  0  0  0  0
  8  2  1  0  0  0  0
 11 13  2  0  0  0  0
 12 11  2  0  0  0  0
 15 14  3  0  0  0  0
M  RAD  1   3   2
M  END
