Coordinates from ORCA-job 4-NO2-Ph-N2+-scan-d090-169-n800
 OpenBabel09191814013D

 15 14  0  0  0  0  0  0  0  0999 V2000
   -2.8644   -0.2094   -0.5702 C   0  0  0  0  0  0  0  0  0  0  0  0
   -1.4429   -0.2524   -0.6937 C   0  0  0  0  0  0  0  0  0  0  0  0
   -1.0439    0.8714   -0.1039 C   0  0  0  0  0  0  0  0  0  0  0  0
   -1.3618    1.9940    0.5355 C   0  0  0  0  0  0  0  0  0  0  0  0
   -2.7866    1.9459    0.6092 C   0  0  0  0  0  0  0  0  0  0  0  0
   -3.4850    0.8671    0.0651 C   0  0  0  0  0  0  0  0  0  0  0  0
   -3.4475   -1.0314   -0.9812 H   0  0  0  0  0  0  0  0  0  0  0  0
   -0.8800   -1.0478   -1.1704 H   0  0  0  0  0  0  0  0  0  0  0  0
   -0.7414    2.7915    0.9304 H   0  0  0  0  0  0  0  0  0  0  0  0
   -3.3104    2.7660    1.0967 H   0  0  0  0  0  0  0  0  0  0  0  0
   -4.9680    0.8644    0.1678 N   0  0  0  0  0  0  0  0  0  0  0  0
   -5.5393   -0.0992   -0.3219 O   0  0  0  0  0  0  0  0  0  0  0  0
   -5.4699    1.8261    0.7317 O   0  0  0  0  0  0  0  0  0  0  0  0
    6.9250    0.8584   -0.6683 N   0  0  0  0  0  0  0  0  0  0  0  0
    8.0277    0.8571   -0.7457 N   0  0  0  0  0  0  0  0  0  0  0  0
  1  6  1  0  0  0  0
  2  1  2  0  0  0  0
  2  3  1  0  0  0  0
  3  4  2  0  0  0  0
  4  5  1  0  0  0  0
  4  9  1  0  0  0  0
  5 10  1  0  0  0  0
  6 11  1  0  0  0  0
  6  5  2  0  0  0  0
  7  1  1  0  0  0  0
  8  2  1  0  0  0  0
 11 13  2  0  0  0  0
 12 11  2  0  0  0  0
 15 14  3  0  0  0  0
M  RAD  1   3   2
M  END
