Coordinates from ORCA-job 4-NO2-Ph-N2+-scan-d090-169-n800
 OpenBabel09191814003D

 15 14  0  0  0  0  0  0  0  0999 V2000
   -2.3052   -0.2110   -0.6102 C   0  0  0  0  0  0  0  0  0  0  0  0
   -0.8845   -0.2558   -0.7344 C   0  0  0  0  0  0  0  0  0  0  0  0
   -0.4808    0.8668   -0.1455 C   0  0  0  0  0  0  0  0  0  0  0  0
   -0.7983    1.9895    0.4939 C   0  0  0  0  0  0  0  0  0  0  0  0
   -2.2225    1.9447    0.5691 C   0  0  0  0  0  0  0  0  0  0  0  0
   -2.9232    0.8669    0.0257 C   0  0  0  0  0  0  0  0  0  0  0  0
   -2.8905   -1.0316   -1.0203 H   0  0  0  0  0  0  0  0  0  0  0  0
   -0.3216   -1.0511   -1.2110 H   0  0  0  0  0  0  0  0  0  0  0  0
   -0.1744    2.7847    0.8873 H   0  0  0  0  0  0  0  0  0  0  0  0
   -2.7448    2.7654    1.0568 H   0  0  0  0  0  0  0  0  0  0  0  0
   -4.4060    0.8669    0.1296 N   0  0  0  0  0  0  0  0  0  0  0  0
   -4.9800   -0.0956   -0.3594 O   0  0  0  0  0  0  0  0  0  0  0  0
   -4.9061    1.8295    0.6938 O   0  0  0  0  0  0  0  0  0  0  0  0
    3.2736    0.8662   -0.4086 N   0  0  0  0  0  0  0  0  0  0  0  0
    4.3761    0.8660   -0.4857 N   0  0  0  0  0  0  0  0  0  0  0  0
  1  6  1  0  0  0  0
  2  1  2  0  0  0  0
  2  3  1  0  0  0  0
  3  4  2  0  0  0  0
  4  5  1  0  0  0  0
  4  9  1  0  0  0  0
  5 10  1  0  0  0  0
  6 11  1  0  0  0  0
  6  5  2  0  0  0  0
  7  1  1  0  0  0  0
  8  2  1  0  0  0  0
 11 13  2  0  0  0  0
 12 11  2  0  0  0  0
 15 14  3  0  0  0  0
M  RAD  1   3   2
M  END
