Coordinates from ORCA-job 4-NO2-Ph-N2+-scan-d090-169-n800
 OpenBabel09191814003D

 15 14  0  0  0  0  0  0  0  0999 V2000
   -2.1791   -0.2110   -0.6190 C   0  0  0  0  0  0  0  0  0  0  0  0
   -0.7610   -0.2542   -0.7420 C   0  0  0  0  0  0  0  0  0  0  0  0
   -0.3386    0.8667   -0.1555 C   0  0  0  0  0  0  0  0  0  0  0  0
   -0.6749    1.9876    0.4843 C   0  0  0  0  0  0  0  0  0  0  0  0
   -2.0963    1.9446    0.5602 C   0  0  0  0  0  0  0  0  0  0  0  0
   -2.7967    0.8669    0.0168 C   0  0  0  0  0  0  0  0  0  0  0  0
   -2.7668   -1.0298   -1.0279 H   0  0  0  0  0  0  0  0  0  0  0  0
   -0.2008   -1.0502   -1.2188 H   0  0  0  0  0  0  0  0  0  0  0  0
   -0.0536    2.7835    0.8783 H   0  0  0  0  0  0  0  0  0  0  0  0
   -2.6211    2.7635    1.0471 H   0  0  0  0  0  0  0  0  0  0  0  0
   -4.2797    0.8670    0.1207 N   0  0  0  0  0  0  0  0  0  0  0  0
   -4.8548   -0.0952   -0.3680 O   0  0  0  0  0  0  0  0  0  0  0  0
   -4.7809    1.8292    0.6848 O   0  0  0  0  0  0  0  0  0  0  0  0
    2.4569    0.8665   -0.3513 N   0  0  0  0  0  0  0  0  0  0  0  0
    3.5590    0.8664   -0.4285 N   0  0  0  0  0  0  0  0  0  0  0  0
  1  6  1  0  0  0  0
  2  1  2  0  0  0  0
  2  3  1  0  0  0  0
  3  4  2  0  0  0  0
  4  5  1  0  0  0  0
  4  9  1  0  0  0  0
  5 10  1  0  0  0  0
  6 11  1  0  0  0  0
  6  5  2  0  0  0  0
  7  1  1  0  0  0  0
  8  2  1  0  0  0  0
 11 13  2  0  0  0  0
 12 11  2  0  0  0  0
 15 14  3  0  0  0  0
M  RAD  1   3   2
M  END
