Coordinates from ORCA-job 4-NO2-Ph-N2+-scan-d090-169-n800
 OpenBabel09191814013D

 15 14  0  0  0  0  0  0  0  0999 V2000
   -3.3133   -0.2076   -0.5378 C   0  0  0  0  0  0  0  0  0  0  0  0
   -1.8915   -0.2466   -0.6592 C   0  0  0  0  0  0  0  0  0  0  0  0
   -1.4964    0.8782   -0.0686 C   0  0  0  0  0  0  0  0  0  0  0  0
   -1.8184    1.9998    0.5706 C   0  0  0  0  0  0  0  0  0  0  0  0
   -3.2432    1.9478    0.6421 C   0  0  0  0  0  0  0  0  0  0  0  0
   -3.9378    0.8671    0.0968 C   0  0  0  0  0  0  0  0  0  0  0  0
   -3.8935   -1.0311   -0.9498 H   0  0  0  0  0  0  0  0  0  0  0  0
   -1.3258   -1.0404   -1.1353 H   0  0  0  0  0  0  0  0  0  0  0  0
   -1.2009    2.7989    0.9665 H   0  0  0  0  0  0  0  0  0  0  0  0
   -3.7699    2.7663    1.1290 H   0  0  0  0  0  0  0  0  0  0  0  0
   -5.4209    0.8604    0.1973 N   0  0  0  0  0  0  0  0  0  0  0  0
   -5.9889   -0.1047   -0.2934 O   0  0  0  0  0  0  0  0  0  0  0  0
   -5.9262    1.8205    0.7607 O   0  0  0  0  0  0  0  0  0  0  0  0
    9.8677    0.8476   -0.8801 N   0  0  0  0  0  0  0  0  0  0  0  0
   10.9705    0.8454   -0.9578 N   0  0  0  0  0  0  0  0  0  0  0  0
  1  6  1  0  0  0  0
  2  1  2  0  0  0  0
  2  3  1  0  0  0  0
  3  4  2  0  0  0  0
  4  5  1  0  0  0  0
  4  9  1  0  0  0  0
  5 10  1  0  0  0  0
  6 11  1  0  0  0  0
  6  5  2  0  0  0  0
  7  1  1  0  0  0  0
  8  2  1  0  0  0  0
 11 13  2  0  0  0  0
 12 11  2  0  0  0  0
 15 14  3  0  0  0  0
M  RAD  1   3   2
M  END
