Coordinates from ORCA-job 4-NO2-Ph-N2+-scan-d090-169-n800
 OpenBabel09191814003D

 15 14  0  0  0  0  0  0  0  0999 V2000
   -2.3424   -0.2109   -0.6075 C   0  0  0  0  0  0  0  0  0  0  0  0
   -0.9213   -0.2561   -0.7319 C   0  0  0  0  0  0  0  0  0  0  0  0
   -0.5189    0.8669   -0.1428 C   0  0  0  0  0  0  0  0  0  0  0  0
   -0.8353    1.9899    0.4967 C   0  0  0  0  0  0  0  0  0  0  0  0
   -2.2598    1.9447    0.5717 C   0  0  0  0  0  0  0  0  0  0  0  0
   -2.9604    0.8669    0.0283 C   0  0  0  0  0  0  0  0  0  0  0  0
   -2.9276   -1.0316   -1.0177 H   0  0  0  0  0  0  0  0  0  0  0  0
   -0.3586   -1.0515   -1.2086 H   0  0  0  0  0  0  0  0  0  0  0  0
   -0.2116    2.7853    0.8902 H   0  0  0  0  0  0  0  0  0  0  0  0
   -2.7821    2.7654    1.0594 H   0  0  0  0  0  0  0  0  0  0  0  0
   -4.4432    0.8669    0.1322 N   0  0  0  0  0  0  0  0  0  0  0  0
   -5.0170   -0.0957   -0.3568 O   0  0  0  0  0  0  0  0  0  0  0  0
   -4.9432    1.8294    0.6964 O   0  0  0  0  0  0  0  0  0  0  0  0
    3.5151    0.8660   -0.4256 N   0  0  0  0  0  0  0  0  0  0  0  0
    4.6177    0.8658   -0.5027 N   0  0  0  0  0  0  0  0  0  0  0  0
  1  6  1  0  0  0  0
  2  1  2  0  0  0  0
  2  3  1  0  0  0  0
  3  4  2  0  0  0  0
  4  5  1  0  0  0  0
  4  9  1  0  0  0  0
  5 10  1  0  0  0  0
  6 11  1  0  0  0  0
  6  5  2  0  0  0  0
  7  1  1  0  0  0  0
  8  2  1  0  0  0  0
 11 13  2  0  0  0  0
 12 11  2  0  0  0  0
 15 14  3  0  0  0  0
M  RAD  1   3   2
M  END
