Coordinates from ORCA-job 4-NO2-Ph-N2+-scan-d090-169-n800
 OpenBabel09191814013D

 15 14  0  0  0  0  0  0  0  0999 V2000
   -3.9869   -0.2040   -0.4888 C   0  0  0  0  0  0  0  0  0  0  0  0
   -2.5645   -0.2347   -0.6055 C   0  0  0  0  0  0  0  0  0  0  0  0
   -2.1777    0.8921   -0.0133 C   0  0  0  0  0  0  0  0  0  0  0  0
   -2.5084    2.0114    0.6253 C   0  0  0  0  0  0  0  0  0  0  0  0
   -3.9331    1.9512    0.6922 C   0  0  0  0  0  0  0  0  0  0  0  0
   -4.6196    0.8667    0.1443 C   0  0  0  0  0  0  0  0  0  0  0  0
   -4.5608   -1.0308   -0.9029 H   0  0  0  0  0  0  0  0  0  0  0  0
   -1.9927   -1.0251   -1.0801 H   0  0  0  0  0  0  0  0  0  0  0  0
   -1.8969    2.8141    1.0235 H   0  0  0  0  0  0  0  0  0  0  0  0
   -4.4660    2.7664    1.1778 H   0  0  0  0  0  0  0  0  0  0  0  0
   -6.1030    0.8513    0.2400 N   0  0  0  0  0  0  0  0  0  0  0  0
   -6.6638   -0.1168   -0.2529 O   0  0  0  0  0  0  0  0  0  0  0  0
   -6.6157    1.8083    0.8021 O   0  0  0  0  0  0  0  0  0  0  0  0
   14.2988    0.8233   -1.2035 N   0  0  0  0  0  0  0  0  0  0  0  0
   15.4018    0.8281   -1.2771 N   0  0  0  0  0  0  0  0  0  0  0  0
  1  6  1  0  0  0  0
  2  1  2  0  0  0  0
  2  3  1  0  0  0  0
  3  4  2  0  0  0  0
  4  5  1  0  0  0  0
  4  9  1  0  0  0  0
  5 10  1  0  0  0  0
  6 11  1  0  0  0  0
  6  5  2  0  0  0  0
  7  1  1  0  0  0  0
  8  2  1  0  0  0  0
 11 13  2  0  0  0  0
 12 11  2  0  0  0  0
 15 14  3  0  0  0  0
M  RAD  1   3   2
M  END
