Coordinates from ORCA-job 4-NO2-Ph-N2+-scan-d090-169-n800
 OpenBabel09191814013D

 15 14  0  0  0  0  0  0  0  0999 V2000
   -3.1867   -0.2081   -0.5470 C   0  0  0  0  0  0  0  0  0  0  0  0
   -1.7650   -0.2484   -0.6690 C   0  0  0  0  0  0  0  0  0  0  0  0
   -1.3686    0.8761   -0.0787 C   0  0  0  0  0  0  0  0  0  0  0  0
   -1.6894    1.9979    0.5605 C   0  0  0  0  0  0  0  0  0  0  0  0
   -3.1141    1.9472    0.6327 C   0  0  0  0  0  0  0  0  0  0  0  0
   -3.8099    0.8671    0.0879 C   0  0  0  0  0  0  0  0  0  0  0  0
   -3.7678   -1.0312   -0.9586 H   0  0  0  0  0  0  0  0  0  0  0  0
   -1.2002   -1.0428   -1.1453 H   0  0  0  0  0  0  0  0  0  0  0  0
   -1.0709    2.7966    0.9561 H   0  0  0  0  0  0  0  0  0  0  0  0
   -3.6399    2.7662    1.1199 H   0  0  0  0  0  0  0  0  0  0  0  0
   -5.2930    0.8617    0.1891 N   0  0  0  0  0  0  0  0  0  0  0  0
   -5.8621   -0.1029   -0.3013 O   0  0  0  0  0  0  0  0  0  0  0  0
   -5.7972    1.8223    0.7526 O   0  0  0  0  0  0  0  0  0  0  0  0
    9.0369    0.8509   -0.8201 N   0  0  0  0  0  0  0  0  0  0  0  0
   10.1396    0.8490   -0.8978 N   0  0  0  0  0  0  0  0  0  0  0  0
  1  6  1  0  0  0  0
  2  1  2  0  0  0  0
  2  3  1  0  0  0  0
  3  4  2  0  0  0  0
  4  5  1  0  0  0  0
  4  9  1  0  0  0  0
  5 10  1  0  0  0  0
  6 11  1  0  0  0  0
  6  5  2  0  0  0  0
  7  1  1  0  0  0  0
  8  2  1  0  0  0  0
 11 13  2  0  0  0  0
 12 11  2  0  0  0  0
 15 14  3  0  0  0  0
M  RAD  1   3   2
M  END
