Coordinates from ORCA-job 4-NO2-Ph-N2+-scan-d090-169-n800
 OpenBabel09191814003D

 15 15  0  0  0  0  0  0  0  0999 V2000
   -1.9873   -0.2127   -0.6333 C   0  0  0  0  0  0  0  0  0  0  0  0
   -0.6173   -0.2290   -0.7382 C   0  0  0  0  0  0  0  0  0  0  0  0
    0.1970    0.8666   -0.1929 C   0  0  0  0  0  0  0  0  0  0  0  0
   -0.5331    1.9624    0.4605 C   0  0  0  0  0  0  0  0  0  0  0  0
   -1.9044    1.9463    0.5477 C   0  0  0  0  0  0  0  0  0  0  0  0
   -2.6072    0.8668    0.0035 C   0  0  0  0  0  0  0  0  0  0  0  0
   -2.5932   -1.0189   -1.0341 H   0  0  0  0  0  0  0  0  0  0  0  0
   -0.0832   -1.0418   -1.2224 H   0  0  0  0  0  0  0  0  0  0  0  0
    0.0634    2.7751    0.8655 H   0  0  0  0  0  0  0  0  0  0  0  0
   -2.4484    2.7526    1.0290 H   0  0  0  0  0  0  0  0  0  0  0  0
   -4.0984    0.8670    0.1080 N   0  0  0  0  0  0  0  0  0  0  0  0
   -4.6718   -0.0956   -0.3811 O   0  0  0  0  0  0  0  0  0  0  0  0
   -4.5978    1.8296    0.6723 O   0  0  0  0  0  0  0  0  0  0  0  0
    1.1747    0.8666   -0.2615 N   0  0  0  0  0  0  0  0  0  0  0  0
    2.3184    0.8665   -0.3417 N   0  0  0  0  0  0  0  0  0  0  0  0
  1  6  1  0  0  0  0
  2  1  2  0  0  0  0
  2  3  1  0  0  0  0
  3  4  2  0  0  0  0
  4  5  1  0  0  0  0
  4  9  1  0  0  0  0
  5 10  1  0  0  0  0
  6 11  1  0  0  0  0
  6  5  2  0  0  0  0
  7  1  1  0  0  0  0
  8  2  1  0  0  0  0
 11 13  2  0  0  0  0
 12 11  2  0  0  0  0
 14  3  1  0  0  0  0
 15 14  1  0  0  0  0
M  RAD  2  14   2  15   3
M  END
