Coordinates from ORCA-job 4-NO2-Ph-N2+-scan-d090-169-n800
 OpenBabel09191814013D

 15 14  0  0  0  0  0  0  0  0999 V2000
   -2.4485   -0.2107   -0.6000 C   0  0  0  0  0  0  0  0  0  0  0  0
   -1.0273   -0.2558   -0.7245 C   0  0  0  0  0  0  0  0  0  0  0  0
   -0.6259    0.8674   -0.1351 C   0  0  0  0  0  0  0  0  0  0  0  0
   -0.9417    1.9905    0.5044 C   0  0  0  0  0  0  0  0  0  0  0  0
   -2.3664    1.9448    0.5792 C   0  0  0  0  0  0  0  0  0  0  0  0
   -3.0668    0.8669    0.0357 C   0  0  0  0  0  0  0  0  0  0  0  0
   -3.0333   -1.0317   -1.0103 H   0  0  0  0  0  0  0  0  0  0  0  0
   -0.4652   -1.0517   -1.2014 H   0  0  0  0  0  0  0  0  0  0  0  0
   -0.3189    2.7866    0.8983 H   0  0  0  0  0  0  0  0  0  0  0  0
   -2.8886    2.7656    1.0670 H   0  0  0  0  0  0  0  0  0  0  0  0
   -4.5497    0.8666    0.1396 N   0  0  0  0  0  0  0  0  0  0  0  0
   -5.1231   -0.0961   -0.3495 O   0  0  0  0  0  0  0  0  0  0  0  0
   -5.0498    1.8291    0.7038 O   0  0  0  0  0  0  0  0  0  0  0  0
    4.2071    0.8652   -0.4744 N   0  0  0  0  0  0  0  0  0  0  0  0
    5.3097    0.8648   -0.5516 N   0  0  0  0  0  0  0  0  0  0  0  0
  1  6  1  0  0  0  0
  2  1  2  0  0  0  0
  2  3  1  0  0  0  0
  3  4  2  0  0  0  0
  4  5  1  0  0  0  0
  4  9  1  0  0  0  0
  5 10  1  0  0  0  0
  6 11  1  0  0  0  0
  6  5  2  0  0  0  0
  7  1  1  0  0  0  0
  8  2  1  0  0  0  0
 11 13  2  0  0  0  0
 12 11  2  0  0  0  0
 15 14  3  0  0  0  0
M  RAD  1   3   2
M  END
