Coordinates from ORCA-job 4-NO2-Ph-N2+-scan-d090-169-n800
 OpenBabel09191814013D

 15 14  0  0  0  0  0  0  0  0999 V2000
   -3.9816   -0.2041   -0.4891 C   0  0  0  0  0  0  0  0  0  0  0  0
   -2.5593   -0.2348   -0.6060 C   0  0  0  0  0  0  0  0  0  0  0  0
   -2.1724    0.8920   -0.0137 C   0  0  0  0  0  0  0  0  0  0  0  0
   -2.5030    2.0113    0.6248 C   0  0  0  0  0  0  0  0  0  0  0  0
   -3.9276    1.9511    0.6918 C   0  0  0  0  0  0  0  0  0  0  0  0
   -4.6143    0.8667    0.1439 C   0  0  0  0  0  0  0  0  0  0  0  0
   -4.5557   -1.0308   -0.9033 H   0  0  0  0  0  0  0  0  0  0  0  0
   -1.9875   -1.0252   -1.0806 H   0  0  0  0  0  0  0  0  0  0  0  0
   -1.8914    2.8139    1.0231 H   0  0  0  0  0  0  0  0  0  0  0  0
   -4.4606    2.7664    1.1774 H   0  0  0  0  0  0  0  0  0  0  0  0
   -6.0977    0.8514    0.2397 N   0  0  0  0  0  0  0  0  0  0  0  0
   -6.6585   -0.1167   -0.2532 O   0  0  0  0  0  0  0  0  0  0  0  0
   -6.6103    1.8084    0.8018 O   0  0  0  0  0  0  0  0  0  0  0  0
   14.2641    0.8235   -1.2010 N   0  0  0  0  0  0  0  0  0  0  0  0
   15.3671    0.8283   -1.2746 N   0  0  0  0  0  0  0  0  0  0  0  0
  1  6  1  0  0  0  0
  2  1  2  0  0  0  0
  2  3  1  0  0  0  0
  3  4  2  0  0  0  0
  4  5  1  0  0  0  0
  4  9  1  0  0  0  0
  5 10  1  0  0  0  0
  6 11  1  0  0  0  0
  6  5  2  0  0  0  0
  7  1  1  0  0  0  0
  8  2  1  0  0  0  0
 11 13  2  0  0  0  0
 12 11  2  0  0  0  0
 15 14  3  0  0  0  0
M  RAD  1   3   2
M  END
