Coordinates from ORCA-job 4-NO2-Ph-N2+-scan-d090-169-n800
 OpenBabel09191814013D

 15 14  0  0  0  0  0  0  0  0999 V2000
   -3.0494   -0.2087   -0.5569 C   0  0  0  0  0  0  0  0  0  0  0  0
   -1.6278   -0.2502   -0.6796 C   0  0  0  0  0  0  0  0  0  0  0  0
   -1.2302    0.8740   -0.0895 C   0  0  0  0  0  0  0  0  0  0  0  0
   -1.5497    1.9961    0.5498 C   0  0  0  0  0  0  0  0  0  0  0  0
   -2.9745    1.9466    0.6227 C   0  0  0  0  0  0  0  0  0  0  0  0
   -3.6714    0.8671    0.0782 C   0  0  0  0  0  0  0  0  0  0  0  0
   -3.6314   -1.0313   -0.9682 H   0  0  0  0  0  0  0  0  0  0  0  0
   -1.0639   -1.0451   -1.1561 H   0  0  0  0  0  0  0  0  0  0  0  0
   -0.9304    2.7943    0.9451 H   0  0  0  0  0  0  0  0  0  0  0  0
   -3.4993    2.7661    1.1100 H   0  0  0  0  0  0  0  0  0  0  0  0
   -5.1545    0.8629    0.1801 N   0  0  0  0  0  0  0  0  0  0  0  0
   -5.7246   -0.1012   -0.3099 O   0  0  0  0  0  0  0  0  0  0  0  0
   -5.6576    1.8241    0.7438 O   0  0  0  0  0  0  0  0  0  0  0  0
    8.1367    0.8543   -0.7553 N   0  0  0  0  0  0  0  0  0  0  0  0
    9.2395    0.8526   -0.8329 N   0  0  0  0  0  0  0  0  0  0  0  0
  1  6  1  0  0  0  0
  2  1  2  0  0  0  0
  2  3  1  0  0  0  0
  3  4  2  0  0  0  0
  4  5  1  0  0  0  0
  4  9  1  0  0  0  0
  5 10  1  0  0  0  0
  6 11  1  0  0  0  0
  6  5  2  0  0  0  0
  7  1  1  0  0  0  0
  8  2  1  0  0  0  0
 11 13  2  0  0  0  0
 12 11  2  0  0  0  0
 15 14  3  0  0  0  0
M  RAD  1   3   2
M  END
