Coordinates from ORCA-job 4-NO2-Ph-N2+-scan-d090-169-n800
 OpenBabel09191814013D

 15 14  0  0  0  0  0  0  0  0999 V2000
   -3.0706   -0.2086   -0.5554 C   0  0  0  0  0  0  0  0  0  0  0  0
   -1.6490   -0.2500   -0.6780 C   0  0  0  0  0  0  0  0  0  0  0  0
   -1.2515    0.8743   -0.0879 C   0  0  0  0  0  0  0  0  0  0  0  0
   -1.5712    1.9964    0.5514 C   0  0  0  0  0  0  0  0  0  0  0  0
   -2.9960    1.9467    0.6242 C   0  0  0  0  0  0  0  0  0  0  0  0
   -3.6928    0.8671    0.0797 C   0  0  0  0  0  0  0  0  0  0  0  0
   -3.6524   -1.0313   -0.9668 H   0  0  0  0  0  0  0  0  0  0  0  0
   -1.0849   -1.0447   -1.1545 H   0  0  0  0  0  0  0  0  0  0  0  0
   -0.9520    2.7946    0.9468 H   0  0  0  0  0  0  0  0  0  0  0  0
   -3.5209    2.7661    1.1115 H   0  0  0  0  0  0  0  0  0  0  0  0
   -5.1758    0.8627    0.1815 N   0  0  0  0  0  0  0  0  0  0  0  0
   -5.7458   -0.1015   -0.3086 O   0  0  0  0  0  0  0  0  0  0  0  0
   -5.6791    1.8238    0.7452 O   0  0  0  0  0  0  0  0  0  0  0  0
    8.2753    0.8538   -0.7653 N   0  0  0  0  0  0  0  0  0  0  0  0
    9.3780    0.8520   -0.8428 N   0  0  0  0  0  0  0  0  0  0  0  0
  1  6  1  0  0  0  0
  2  1  2  0  0  0  0
  2  3  1  0  0  0  0
  3  4  2  0  0  0  0
  4  5  1  0  0  0  0
  4  9  1  0  0  0  0
  5 10  1  0  0  0  0
  6 11  1  0  0  0  0
  6  5  2  0  0  0  0
  7  1  1  0  0  0  0
  8  2  1  0  0  0  0
 11 13  2  0  0  0  0
 12 11  2  0  0  0  0
 15 14  3  0  0  0  0
M  RAD  1   3   2
M  END
