Coordinates from ORCA-job 4-NO2-Ph-N2+-scan-d090-169-n800
 OpenBabel09191814013D

 15 14  0  0  0  0  0  0  0  0999 V2000
   -2.6818   -0.2101   -0.5833 C   0  0  0  0  0  0  0  0  0  0  0  0
   -1.2604   -0.2542   -0.7074 C   0  0  0  0  0  0  0  0  0  0  0  0
   -0.8603    0.8693   -0.1178 C   0  0  0  0  0  0  0  0  0  0  0  0
   -1.1769    1.9922    0.5217 C   0  0  0  0  0  0  0  0  0  0  0  0
   -2.6017    1.9453    0.5959 C   0  0  0  0  0  0  0  0  0  0  0  0
   -3.3012    0.8670    0.0522 C   0  0  0  0  0  0  0  0  0  0  0  0
   -3.2658   -1.0316   -0.9940 H   0  0  0  0  0  0  0  0  0  0  0  0
   -0.6982   -1.0500   -1.1843 H   0  0  0  0  0  0  0  0  0  0  0  0
   -0.5555    2.7891    0.9161 H   0  0  0  0  0  0  0  0  0  0  0  0
   -3.1246    2.7658    1.0836 H   0  0  0  0  0  0  0  0  0  0  0  0
   -4.7841    0.8656    0.1555 N   0  0  0  0  0  0  0  0  0  0  0  0
   -5.3566   -0.0975   -0.3338 O   0  0  0  0  0  0  0  0  0  0  0  0
   -5.2850    1.8277    0.7196 O   0  0  0  0  0  0  0  0  0  0  0  0
    5.7305    0.8619   -0.5828 N   0  0  0  0  0  0  0  0  0  0  0  0
    6.8332    0.8610   -0.6601 N   0  0  0  0  0  0  0  0  0  0  0  0
  1  6  1  0  0  0  0
  2  1  2  0  0  0  0
  2  3  1  0  0  0  0
  3  4  2  0  0  0  0
  4  5  1  0  0  0  0
  4  9  1  0  0  0  0
  5 10  1  0  0  0  0
  6 11  1  0  0  0  0
  6  5  2  0  0  0  0
  7  1  1  0  0  0  0
  8  2  1  0  0  0  0
 11 13  2  0  0  0  0
 12 11  2  0  0  0  0
 15 14  3  0  0  0  0
M  RAD  1   3   2
M  END
