Coordinates from ORCA-job 4-NO2-Ph-N2+-scan-d090-169-n800
 OpenBabel09191814003D

 15 15  0  0  0  0  0  0  0  0999 V2000
   -2.0618   -0.2116   -0.6275 C   0  0  0  0  0  0  0  0  0  0  0  0
   -0.6638   -0.2384   -0.7401 C   0  0  0  0  0  0  0  0  0  0  0  0
   -0.0859    0.8667   -0.1731 C   0  0  0  0  0  0  0  0  0  0  0  0
   -0.5790    1.9718    0.4689 C   0  0  0  0  0  0  0  0  0  0  0  0
   -1.9790    1.9452    0.5524 C   0  0  0  0  0  0  0  0  0  0  0  0
   -2.6766    0.8668    0.0085 C   0  0  0  0  0  0  0  0  0  0  0  0
   -2.6650   -1.0190   -1.0290 H   0  0  0  0  0  0  0  0  0  0  0  0
   -0.1261   -1.0458   -1.2216 H   0  0  0  0  0  0  0  0  0  0  0  0
    0.0208    2.7791    0.8707 H   0  0  0  0  0  0  0  0  0  0  0  0
   -2.5202    2.7526    1.0342 H   0  0  0  0  0  0  0  0  0  0  0  0
   -4.1637    0.8669    0.1127 N   0  0  0  0  0  0  0  0  0  0  0  0
   -4.7426   -0.0938   -0.3754 O   0  0  0  0  0  0  0  0  0  0  0  0
   -4.6688    1.8280    0.6760 O   0  0  0  0  0  0  0  0  0  0  0  0
    1.7108    0.8665   -0.2991 N   0  0  0  0  0  0  0  0  0  0  0  0
    2.8124    0.8665   -0.3763 N   0  0  0  0  0  0  0  0  0  0  0  0
  1  6  1  0  0  0  0
  2  1  2  0  0  0  0
  2  3  1  0  0  0  0
  3  4  2  0  0  0  0
  4  5  1  0  0  0  0
  4  9  1  0  0  0  0
  5 10  1  0  0  0  0
  6 11  1  0  0  0  0
  6  5  2  0  0  0  0
  7  1  1  0  0  0  0
  8  2  1  0  0  0  0
 11 13  2  0  0  0  0
 12 11  2  0  0  0  0
 14  3  1  0  0  0  0
 15 14  1  0  0  0  0
M  RAD  2  14   2  15   3
M  END
