Coordinates from ORCA-job 4-NO2-Ph-N2+-scan-d090-169-n800
 OpenBabel09191814013D

 15 14  0  0  0  0  0  0  0  0999 V2000
   -3.5662   -0.2063   -0.5195 C   0  0  0  0  0  0  0  0  0  0  0  0
   -2.1442   -0.2425   -0.6393 C   0  0  0  0  0  0  0  0  0  0  0  0
   -1.7519    0.8830   -0.0481 C   0  0  0  0  0  0  0  0  0  0  0  0
   -2.0769    2.0038    0.5908 C   0  0  0  0  0  0  0  0  0  0  0  0
   -3.5016    1.9490    0.6608 C   0  0  0  0  0  0  0  0  0  0  0  0
   -4.1935    0.8670    0.1147 C   0  0  0  0  0  0  0  0  0  0  0  0
   -4.1443   -1.0309   -0.9322 H   0  0  0  0  0  0  0  0  0  0  0  0
   -1.5764   -1.0352   -1.1149 H   0  0  0  0  0  0  0  0  0  0  0  0
   -1.4614    2.8041    0.9876 H   0  0  0  0  0  0  0  0  0  0  0  0
   -4.0304    2.7664    1.1473 H   0  0  0  0  0  0  0  0  0  0  0  0
   -5.6767    0.8573    0.2135 N   0  0  0  0  0  0  0  0  0  0  0  0
   -6.2422   -0.1088   -0.2779 O   0  0  0  0  0  0  0  0  0  0  0  0
   -6.1845    1.8164    0.7765 O   0  0  0  0  0  0  0  0  0  0  0  0
   11.5295    0.8405   -1.0003 N   0  0  0  0  0  0  0  0  0  0  0  0
   12.6322    0.8379   -1.0781 N   0  0  0  0  0  0  0  0  0  0  0  0
  1  6  1  0  0  0  0
  2  1  2  0  0  0  0
  2  3  1  0  0  0  0
  3  4  2  0  0  0  0
  4  5  1  0  0  0  0
  4  9  1  0  0  0  0
  5 10  1  0  0  0  0
  6 11  1  0  0  0  0
  6  5  2  0  0  0  0
  7  1  1  0  0  0  0
  8  2  1  0  0  0  0
 11 13  2  0  0  0  0
 12 11  2  0  0  0  0
 15 14  3  0  0  0  0
M  RAD  1   3   2
M  END
