Coordinates from ORCA-job 4-NO2-Ph-N2+-scan-d090-169-n800
 OpenBabel09191814013D

 15 14  0  0  0  0  0  0  0  0999 V2000
   -3.8714   -0.2047   -0.4972 C   0  0  0  0  0  0  0  0  0  0  0  0
   -2.4491   -0.2371   -0.6149 C   0  0  0  0  0  0  0  0  0  0  0  0
   -2.0606    0.8893   -0.0230 C   0  0  0  0  0  0  0  0  0  0  0  0
   -2.3896    2.0091    0.6157 C   0  0  0  0  0  0  0  0  0  0  0  0
   -3.8142    1.9505    0.6836 C   0  0  0  0  0  0  0  0  0  0  0  0
   -4.5024    0.8668    0.1362 C   0  0  0  0  0  0  0  0  0  0  0  0
   -4.4465   -1.0308   -0.9109 H   0  0  0  0  0  0  0  0  0  0  0  0
   -1.8786   -1.0281   -1.0898 H   0  0  0  0  0  0  0  0  0  0  0  0
   -1.7769    2.8111    1.0135 H   0  0  0  0  0  0  0  0  0  0  0  0
   -4.3459    2.7664    1.1694 H   0  0  0  0  0  0  0  0  0  0  0  0
   -5.9858    0.8532    0.2328 N   0  0  0  0  0  0  0  0  0  0  0  0
   -6.5480   -0.1143   -0.2596 O   0  0  0  0  0  0  0  0  0  0  0  0
   -6.4970    1.8109    0.7952 O   0  0  0  0  0  0  0  0  0  0  0  0
   13.5372    0.8281   -1.1476 N   0  0  0  0  0  0  0  0  0  0  0  0
   14.6402    0.8311   -1.2222 N   0  0  0  0  0  0  0  0  0  0  0  0
  1  6  1  0  0  0  0
  2  1  2  0  0  0  0
  2  3  1  0  0  0  0
  3  4  2  0  0  0  0
  4  5  1  0  0  0  0
  4  9  1  0  0  0  0
  5 10  1  0  0  0  0
  6 11  1  0  0  0  0
  6  5  2  0  0  0  0
  7  1  1  0  0  0  0
  8  2  1  0  0  0  0
 11 13  2  0  0  0  0
 12 11  2  0  0  0  0
 15 14  3  0  0  0  0
M  RAD  1   3   2
M  END
