Coordinates from ORCA-job 4-NO2-Ph-N2+-scan-d090-169-n800
 OpenBabel09191814013D

 15 14  0  0  0  0  0  0  0  0999 V2000
   -3.6241   -0.2060   -0.5152 C   0  0  0  0  0  0  0  0  0  0  0  0
   -2.2020   -0.2416   -0.6347 C   0  0  0  0  0  0  0  0  0  0  0  0
   -1.8105    0.8841   -0.0434 C   0  0  0  0  0  0  0  0  0  0  0  0
   -2.1361    2.0048    0.5955 C   0  0  0  0  0  0  0  0  0  0  0  0
   -3.5609    1.9492    0.6651 C   0  0  0  0  0  0  0  0  0  0  0  0
   -4.2521    0.8670    0.1187 C   0  0  0  0  0  0  0  0  0  0  0  0
   -4.2016   -1.0309   -0.9281 H   0  0  0  0  0  0  0  0  0  0  0  0
   -1.6337   -1.0339   -1.1101 H   0  0  0  0  0  0  0  0  0  0  0  0
   -1.5211    2.8054    0.9925 H   0  0  0  0  0  0  0  0  0  0  0  0
   -4.0902    2.7664    1.1515 H   0  0  0  0  0  0  0  0  0  0  0  0
   -5.7353    0.8566    0.2172 N   0  0  0  0  0  0  0  0  0  0  0  0
   -6.3002   -0.1098   -0.2744 O   0  0  0  0  0  0  0  0  0  0  0  0
   -6.2438    1.8154    0.7801 O   0  0  0  0  0  0  0  0  0  0  0  0
   11.9102    0.8387   -1.0279 N   0  0  0  0  0  0  0  0  0  0  0  0
   13.0130    0.8361   -1.1057 N   0  0  0  0  0  0  0  0  0  0  0  0
  1  6  1  0  0  0  0
  2  1  2  0  0  0  0
  2  3  1  0  0  0  0
  3  4  2  0  0  0  0
  4  5  1  0  0  0  0
  4  9  1  0  0  0  0
  5 10  1  0  0  0  0
  6 11  1  0  0  0  0
  6  5  2  0  0  0  0
  7  1  1  0  0  0  0
  8  2  1  0  0  0  0
 11 13  2  0  0  0  0
 12 11  2  0  0  0  0
 15 14  3  0  0  0  0
M  RAD  1   3   2
M  END
