Coordinates from ORCA-job 4-NO2-Ph-N2+-scan-d090-169-n800
 OpenBabel09191814003D

 15 14  0  0  0  0  0  0  0  0999 V2000
   -2.2919   -0.2110   -0.6111 C   0  0  0  0  0  0  0  0  0  0  0  0
   -0.8712   -0.2560   -0.7354 C   0  0  0  0  0  0  0  0  0  0  0  0
   -0.4674    0.8668   -0.1465 C   0  0  0  0  0  0  0  0  0  0  0  0
   -0.7850    1.9896    0.4930 C   0  0  0  0  0  0  0  0  0  0  0  0
   -2.2092    1.9447    0.5681 C   0  0  0  0  0  0  0  0  0  0  0  0
   -2.9099    0.8669    0.0247 C   0  0  0  0  0  0  0  0  0  0  0  0
   -2.8775   -1.0314   -1.0211 H   0  0  0  0  0  0  0  0  0  0  0  0
   -0.3081   -1.0511   -1.2119 H   0  0  0  0  0  0  0  0  0  0  0  0
   -0.1609    2.7847    0.8864 H   0  0  0  0  0  0  0  0  0  0  0  0
   -2.7318    2.7652    1.0558 H   0  0  0  0  0  0  0  0  0  0  0  0
   -4.3926    0.8669    0.1286 N   0  0  0  0  0  0  0  0  0  0  0  0
   -4.9667   -0.0955   -0.3603 O   0  0  0  0  0  0  0  0  0  0  0  0
   -4.8928    1.8295    0.6928 O   0  0  0  0  0  0  0  0  0  0  0  0
    3.1871    0.8663   -0.4025 N   0  0  0  0  0  0  0  0  0  0  0  0
    4.2895    0.8661   -0.4796 N   0  0  0  0  0  0  0  0  0  0  0  0
  1  6  1  0  0  0  0
  2  1  2  0  0  0  0
  2  3  1  0  0  0  0
  3  4  2  0  0  0  0
  4  5  1  0  0  0  0
  4  9  1  0  0  0  0
  5 10  1  0  0  0  0
  6 11  1  0  0  0  0
  6  5  2  0  0  0  0
  7  1  1  0  0  0  0
  8  2  1  0  0  0  0
 11 13  2  0  0  0  0
 12 11  2  0  0  0  0
 15 14  3  0  0  0  0
M  RAD  1   3   2
M  END
