Coordinates from ORCA-job 4-NO2-Ph-N2+-scan-d090-169-n800
 OpenBabel09191814013D

 15 14  0  0  0  0  0  0  0  0999 V2000
   -3.2580   -0.2078   -0.5419 C   0  0  0  0  0  0  0  0  0  0  0  0
   -1.8363   -0.2473   -0.6634 C   0  0  0  0  0  0  0  0  0  0  0  0
   -1.4403    0.8773   -0.0731 C   0  0  0  0  0  0  0  0  0  0  0  0
   -1.7621    1.9988    0.5661 C   0  0  0  0  0  0  0  0  0  0  0  0
   -3.1867    1.9475    0.6379 C   0  0  0  0  0  0  0  0  0  0  0  0
   -3.8819    0.8671    0.0929 C   0  0  0  0  0  0  0  0  0  0  0  0
   -3.8384   -1.0312   -0.9537 H   0  0  0  0  0  0  0  0  0  0  0  0
   -1.2711   -1.0414   -1.1397 H   0  0  0  0  0  0  0  0  0  0  0  0
   -1.1442    2.7979    0.9619 H   0  0  0  0  0  0  0  0  0  0  0  0
   -3.7129    2.7663    1.1250 H   0  0  0  0  0  0  0  0  0  0  0  0
   -5.3650    0.8610    0.1936 N   0  0  0  0  0  0  0  0  0  0  0  0
   -5.9335   -0.1040   -0.2966 O   0  0  0  0  0  0  0  0  0  0  0  0
   -5.8698    1.8212    0.7574 O   0  0  0  0  0  0  0  0  0  0  0  0
    9.5045    0.8491   -0.8538 N   0  0  0  0  0  0  0  0  0  0  0  0
   10.6072    0.8470   -0.9315 N   0  0  0  0  0  0  0  0  0  0  0  0
  1  6  1  0  0  0  0
  2  1  2  0  0  0  0
  2  3  1  0  0  0  0
  3  4  2  0  0  0  0
  4  5  1  0  0  0  0
  4  9  1  0  0  0  0
  5 10  1  0  0  0  0
  6 11  1  0  0  0  0
  6  5  2  0  0  0  0
  7  1  1  0  0  0  0
  8  2  1  0  0  0  0
 11 13  2  0  0  0  0
 12 11  2  0  0  0  0
 15 14  3  0  0  0  0
M  RAD  1   3   2
M  END
