Coordinates from ORCA-job 4-NO2-Ph-N2+-scan-d090-169-n800
 OpenBabel09191814013D

 15 14  0  0  0  0  0  0  0  0999 V2000
   -3.7925   -0.2051   -0.5030 C   0  0  0  0  0  0  0  0  0  0  0  0
   -2.3703   -0.2386   -0.6213 C   0  0  0  0  0  0  0  0  0  0  0  0
   -1.9808    0.8876   -0.0296 C   0  0  0  0  0  0  0  0  0  0  0  0
   -2.3086    2.0077    0.6092 C   0  0  0  0  0  0  0  0  0  0  0  0
   -3.7333    1.9501    0.6776 C   0  0  0  0  0  0  0  0  0  0  0  0
   -4.4225    0.8669    0.1306 C   0  0  0  0  0  0  0  0  0  0  0  0
   -4.3685   -1.0308   -0.9164 H   0  0  0  0  0  0  0  0  0  0  0  0
   -1.8005   -1.0301   -1.0964 H   0  0  0  0  0  0  0  0  0  0  0  0
   -1.6951    2.8092    1.0067 H   0  0  0  0  0  0  0  0  0  0  0  0
   -4.2642    2.7664    1.1637 H   0  0  0  0  0  0  0  0  0  0  0  0
   -5.9058    0.8543    0.2279 N   0  0  0  0  0  0  0  0  0  0  0  0
   -6.4690   -0.1128   -0.2643 O   0  0  0  0  0  0  0  0  0  0  0  0
   -6.4161    1.8124    0.7904 O   0  0  0  0  0  0  0  0  0  0  0  0
   13.0179    0.8315   -1.1093 N   0  0  0  0  0  0  0  0  0  0  0  0
   14.1208    0.8328   -1.1849 N   0  0  0  0  0  0  0  0  0  0  0  0
  1  6  1  0  0  0  0
  2  1  2  0  0  0  0
  2  3  1  0  0  0  0
  3  4  2  0  0  0  0
  4  5  1  0  0  0  0
  4  9  1  0  0  0  0
  5 10  1  0  0  0  0
  6 11  1  0  0  0  0
  6  5  2  0  0  0  0
  7  1  1  0  0  0  0
  8  2  1  0  0  0  0
 11 13  2  0  0  0  0
 12 11  2  0  0  0  0
 15 14  3  0  0  0  0
M  RAD  1   3   2
M  END
