Coordinates from ORCA-job 4-NO2-Ph-N2+-scan-d090-169-n800
 OpenBabel09191814003D

 15 15  0  0  0  0  0  0  0  0999 V2000
   -2.0305   -0.2127   -0.6303 C   0  0  0  0  0  0  0  0  0  0  0  0
   -0.6437   -0.2291   -0.7364 C   0  0  0  0  0  0  0  0  0  0  0  0
    0.0268    0.8666   -0.1810 C   0  0  0  0  0  0  0  0  0  0  0  0
   -0.5596    1.9625    0.4624 C   0  0  0  0  0  0  0  0  0  0  0  0
   -1.9476    1.9463    0.5507 C   0  0  0  0  0  0  0  0  0  0  0  0
   -2.6452    0.8669    0.0061 C   0  0  0  0  0  0  0  0  0  0  0  0
   -2.6384   -1.0166   -1.0297 H   0  0  0  0  0  0  0  0  0  0  0  0
   -0.1155   -1.0428   -1.2207 H   0  0  0  0  0  0  0  0  0  0  0  0
    0.0311    2.7761    0.8683 H   0  0  0  0  0  0  0  0  0  0  0  0
   -2.4937    2.7503    1.0309 H   0  0  0  0  0  0  0  0  0  0  0  0
   -4.1351    0.8670    0.1105 N   0  0  0  0  0  0  0  0  0  0  0  0
   -4.7133   -0.0940   -0.3772 O   0  0  0  0  0  0  0  0  0  0  0  0
   -4.6395    1.8280    0.6743 O   0  0  0  0  0  0  0  0  0  0  0  0
    1.5039    0.8665   -0.2845 N   0  0  0  0  0  0  0  0  0  0  0  0
    2.6116    0.8664   -0.3621 N   0  0  0  0  0  0  0  0  0  0  0  0
  1  6  1  0  0  0  0
  2  1  2  0  0  0  0
  2  3  1  0  0  0  0
  3  4  2  0  0  0  0
  4  5  1  0  0  0  0
  4  9  1  0  0  0  0
  5 10  1  0  0  0  0
  6 11  1  0  0  0  0
  6  5  2  0  0  0  0
  7  1  1  0  0  0  0
  8  2  1  0  0  0  0
 11 13  2  0  0  0  0
 12 11  2  0  0  0  0
 14  3  1  0  0  0  0
 15 14  1  0  0  0  0
M  RAD  2  14   2  15   3
M  END
