Coordinates from ORCA-job 4-NO2-Ph-N2+-scan-d090-169-n800
 OpenBabel09191814013D

 15 14  0  0  0  0  0  0  0  0999 V2000
   -3.5925   -0.2062   -0.5175 C   0  0  0  0  0  0  0  0  0  0  0  0
   -2.1705   -0.2421   -0.6372 C   0  0  0  0  0  0  0  0  0  0  0  0
   -1.7785    0.8835   -0.0460 C   0  0  0  0  0  0  0  0  0  0  0  0
   -2.1038    2.0042    0.5930 C   0  0  0  0  0  0  0  0  0  0  0  0
   -3.5285    1.9491    0.6628 C   0  0  0  0  0  0  0  0  0  0  0  0
   -4.2201    0.8670    0.1165 C   0  0  0  0  0  0  0  0  0  0  0  0
   -4.1704   -1.0309   -0.9303 H   0  0  0  0  0  0  0  0  0  0  0  0
   -1.6025   -1.0346   -1.1127 H   0  0  0  0  0  0  0  0  0  0  0  0
   -1.4885    2.8047    0.9898 H   0  0  0  0  0  0  0  0  0  0  0  0
   -4.0576    2.7664    1.1492 H   0  0  0  0  0  0  0  0  0  0  0  0
   -5.7033    0.8570    0.2152 N   0  0  0  0  0  0  0  0  0  0  0  0
   -6.2686   -0.1093   -0.2763 O   0  0  0  0  0  0  0  0  0  0  0  0
   -6.2114    1.8160    0.7781 O   0  0  0  0  0  0  0  0  0  0  0  0
   11.7026    0.8397   -1.0128 N   0  0  0  0  0  0  0  0  0  0  0  0
   12.8053    0.8371   -1.0906 N   0  0  0  0  0  0  0  0  0  0  0  0
  1  6  1  0  0  0  0
  2  1  2  0  0  0  0
  2  3  1  0  0  0  0
  3  4  2  0  0  0  0
  4  5  1  0  0  0  0
  4  9  1  0  0  0  0
  5 10  1  0  0  0  0
  6 11  1  0  0  0  0
  6  5  2  0  0  0  0
  7  1  1  0  0  0  0
  8  2  1  0  0  0  0
 11 13  2  0  0  0  0
 12 11  2  0  0  0  0
 15 14  3  0  0  0  0
M  RAD  1   3   2
M  END
