Coordinates from ORCA-job 4-NO2-Ph-N2+-scan-d090-169-n800
 OpenBabel09191814003D

 15 15  0  0  0  0  0  0  0  0999 V2000
   -1.9830   -0.2128   -0.6336 C   0  0  0  0  0  0  0  0  0  0  0  0
   -0.6166   -0.2319   -0.7398 C   0  0  0  0  0  0  0  0  0  0  0  0
    0.2302    0.8666   -0.1952 C   0  0  0  0  0  0  0  0  0  0  0  0
   -0.5322    1.9653    0.4620 C   0  0  0  0  0  0  0  0  0  0  0  0
   -1.9001    1.9464    0.5474 C   0  0  0  0  0  0  0  0  0  0  0  0
   -2.6043    0.8668    0.0033 C   0  0  0  0  0  0  0  0  0  0  0  0
   -2.5891   -1.0195   -1.0345 H   0  0  0  0  0  0  0  0  0  0  0  0
   -0.0762   -1.0416   -1.2230 H   0  0  0  0  0  0  0  0  0  0  0  0
    0.0703    2.7749    0.8651 H   0  0  0  0  0  0  0  0  0  0  0  0
   -2.4442    2.7532    1.0289 H   0  0  0  0  0  0  0  0  0  0  0  0
   -4.0948    0.8669    0.1077 N   0  0  0  0  0  0  0  0  0  0  0  0
   -4.6675   -0.0959   -0.3817 O   0  0  0  0  0  0  0  0  0  0  0  0
   -4.5934    1.8300    0.6721 O   0  0  0  0  0  0  0  0  0  0  0  0
    1.1280    0.8666   -0.2582 N   0  0  0  0  0  0  0  0  0  0  0  0
    2.2844    0.8666   -0.3394 N   0  0  0  0  0  0  0  0  0  0  0  0
  1  6  1  0  0  0  0
  2  1  2  0  0  0  0
  2  3  1  0  0  0  0
  3  4  2  0  0  0  0
  4  5  1  0  0  0  0
  4  9  1  0  0  0  0
  5 10  1  0  0  0  0
  6 11  1  0  0  0  0
  6  5  2  0  0  0  0
  7  1  1  0  0  0  0
  8  2  1  0  0  0  0
 11 13  2  0  0  0  0
 12 11  2  0  0  0  0
 14  3  1  0  0  0  0
 15 14  1  0  0  0  0
M  RAD  2  14   2  15   3
M  END
