Coordinates from ORCA-job 4-NO2-Ph-N2+-scan-d090-169-n800
 OpenBabel09191814013D

 15 14  0  0  0  0  0  0  0  0999 V2000
   -3.9764   -0.2041   -0.4895 C   0  0  0  0  0  0  0  0  0  0  0  0
   -2.5540   -0.2350   -0.6064 C   0  0  0  0  0  0  0  0  0  0  0  0
   -2.1671    0.8918   -0.0142 C   0  0  0  0  0  0  0  0  0  0  0  0
   -2.4976    2.0112    0.6244 C   0  0  0  0  0  0  0  0  0  0  0  0
   -3.9222    1.9511    0.6914 C   0  0  0  0  0  0  0  0  0  0  0  0
   -4.6090    0.8667    0.1435 C   0  0  0  0  0  0  0  0  0  0  0  0
   -4.5505   -1.0308   -0.9036 H   0  0  0  0  0  0  0  0  0  0  0  0
   -1.9823   -1.0253   -1.0810 H   0  0  0  0  0  0  0  0  0  0  0  0
   -1.8859    2.8138    1.0226 H   0  0  0  0  0  0  0  0  0  0  0  0
   -4.4551    2.7664    1.1770 H   0  0  0  0  0  0  0  0  0  0  0  0
   -6.0923    0.8515    0.2394 N   0  0  0  0  0  0  0  0  0  0  0  0
   -6.6532   -0.1166   -0.2535 O   0  0  0  0  0  0  0  0  0  0  0  0
   -6.6049    1.8085    0.8015 O   0  0  0  0  0  0  0  0  0  0  0  0
   14.2295    0.8237   -1.1984 N   0  0  0  0  0  0  0  0  0  0  0  0
   15.3325    0.8284   -1.2721 N   0  0  0  0  0  0  0  0  0  0  0  0
  1  6  1  0  0  0  0
  2  1  2  0  0  0  0
  2  3  1  0  0  0  0
  3  4  2  0  0  0  0
  4  5  1  0  0  0  0
  4  9  1  0  0  0  0
  5 10  1  0  0  0  0
  6 11  1  0  0  0  0
  6  5  2  0  0  0  0
  7  1  1  0  0  0  0
  8  2  1  0  0  0  0
 11 13  2  0  0  0  0
 12 11  2  0  0  0  0
 15 14  3  0  0  0  0
M  RAD  1   3   2
M  END
