Coordinates from ORCA-job 4-NO2-Ph-N2+-scan-d090-169-n800
 OpenBabel09191814003D

 15 14  0  0  0  0  0  0  0  0999 V2000
   -2.3026   -0.2110   -0.6103 C   0  0  0  0  0  0  0  0  0  0  0  0
   -0.8818   -0.2558   -0.7346 C   0  0  0  0  0  0  0  0  0  0  0  0
   -0.4781    0.8668   -0.1457 C   0  0  0  0  0  0  0  0  0  0  0  0
   -0.7957    1.9895    0.4937 C   0  0  0  0  0  0  0  0  0  0  0  0
   -2.2199    1.9447    0.5689 C   0  0  0  0  0  0  0  0  0  0  0  0
   -2.9206    0.8669    0.0255 C   0  0  0  0  0  0  0  0  0  0  0  0
   -2.8879   -1.0316   -1.0204 H   0  0  0  0  0  0  0  0  0  0  0  0
   -0.3189   -1.0511   -1.2111 H   0  0  0  0  0  0  0  0  0  0  0  0
   -0.1718    2.7847    0.8871 H   0  0  0  0  0  0  0  0  0  0  0  0
   -2.7422    2.7653    1.0566 H   0  0  0  0  0  0  0  0  0  0  0  0
   -4.4034    0.8669    0.1294 N   0  0  0  0  0  0  0  0  0  0  0  0
   -4.9773   -0.0956   -0.3595 O   0  0  0  0  0  0  0  0  0  0  0  0
   -4.9035    1.8295    0.6936 O   0  0  0  0  0  0  0  0  0  0  0  0
    3.2563    0.8662   -0.4073 N   0  0  0  0  0  0  0  0  0  0  0  0
    4.3588    0.8660   -0.4845 N   0  0  0  0  0  0  0  0  0  0  0  0
  1  6  1  0  0  0  0
  2  1  2  0  0  0  0
  2  3  1  0  0  0  0
  3  4  2  0  0  0  0
  4  5  1  0  0  0  0
  4  9  1  0  0  0  0
  5 10  1  0  0  0  0
  6 11  1  0  0  0  0
  6  5  2  0  0  0  0
  7  1  1  0  0  0  0
  8  2  1  0  0  0  0
 11 13  2  0  0  0  0
 12 11  2  0  0  0  0
 15 14  3  0  0  0  0
M  RAD  1   3   2
M  END
