Coordinates from ORCA-job 4-NO2-Ph-N2+-scan-d090-169-n800
 OpenBabel09191814013D

 15 14  0  0  0  0  0  0  0  0999 V2000
   -3.1735   -0.2082   -0.5479 C   0  0  0  0  0  0  0  0  0  0  0  0
   -1.7518   -0.2486   -0.6700 C   0  0  0  0  0  0  0  0  0  0  0  0
   -1.3553    0.8759   -0.0797 C   0  0  0  0  0  0  0  0  0  0  0  0
   -1.6759    1.9978    0.5595 C   0  0  0  0  0  0  0  0  0  0  0  0
   -3.1007    1.9471    0.6318 C   0  0  0  0  0  0  0  0  0  0  0  0
   -3.7966    0.8671    0.0869 C   0  0  0  0  0  0  0  0  0  0  0  0
   -3.7547   -1.0312   -0.9595 H   0  0  0  0  0  0  0  0  0  0  0  0
   -1.1871   -1.0430   -1.1464 H   0  0  0  0  0  0  0  0  0  0  0  0
   -1.0574    2.7964    0.9551 H   0  0  0  0  0  0  0  0  0  0  0  0
   -3.6263    2.7662    1.1190 H   0  0  0  0  0  0  0  0  0  0  0  0
   -5.2797    0.8618    0.1882 N   0  0  0  0  0  0  0  0  0  0  0  0
   -5.8489   -0.1028   -0.3021 O   0  0  0  0  0  0  0  0  0  0  0  0
   -5.7838    1.8225    0.7518 O   0  0  0  0  0  0  0  0  0  0  0  0
    8.9503    0.8512   -0.8139 N   0  0  0  0  0  0  0  0  0  0  0  0
   10.0530    0.8493   -0.8915 N   0  0  0  0  0  0  0  0  0  0  0  0
  1  6  1  0  0  0  0
  2  1  2  0  0  0  0
  2  3  1  0  0  0  0
  3  4  2  0  0  0  0
  4  5  1  0  0  0  0
  4  9  1  0  0  0  0
  5 10  1  0  0  0  0
  6 11  1  0  0  0  0
  6  5  2  0  0  0  0
  7  1  1  0  0  0  0
  8  2  1  0  0  0  0
 11 13  2  0  0  0  0
 12 11  2  0  0  0  0
 15 14  3  0  0  0  0
M  RAD  1   3   2
M  END
