Coordinates from ORCA-job 4-NO2-Ph-N2+-scan-d090-169-n800
 OpenBabel09191814013D

 15 14  0  0  0  0  0  0  0  0999 V2000
   -3.5030   -0.2066   -0.5240 C   0  0  0  0  0  0  0  0  0  0  0  0
   -2.0811   -0.2436   -0.6443 C   0  0  0  0  0  0  0  0  0  0  0  0
   -1.6880    0.8817   -0.0533 C   0  0  0  0  0  0  0  0  0  0  0  0
   -2.0122    2.0027    0.5857 C   0  0  0  0  0  0  0  0  0  0  0  0
   -3.4370    1.9486    0.6561 C   0  0  0  0  0  0  0  0  0  0  0  0
   -4.1296    0.8670    0.1102 C   0  0  0  0  0  0  0  0  0  0  0  0
   -4.0816   -1.0310   -0.9366 H   0  0  0  0  0  0  0  0  0  0  0  0
   -1.5139   -1.0365   -1.1200 H   0  0  0  0  0  0  0  0  0  0  0  0
   -1.3962    2.8028    0.9823 H   0  0  0  0  0  0  0  0  0  0  0  0
   -3.9652    2.7663    1.1427 H   0  0  0  0  0  0  0  0  0  0  0  0
   -5.6127    0.8581    0.2095 N   0  0  0  0  0  0  0  0  0  0  0  0
   -6.1789   -0.1077   -0.2817 O   0  0  0  0  0  0  0  0  0  0  0  0
   -6.1199    1.8175    0.7726 O   0  0  0  0  0  0  0  0  0  0  0  0
   11.1140    0.8423   -0.9702 N   0  0  0  0  0  0  0  0  0  0  0  0
   12.2168    0.8398   -1.0480 N   0  0  0  0  0  0  0  0  0  0  0  0
  1  6  1  0  0  0  0
  2  1  2  0  0  0  0
  2  3  1  0  0  0  0
  3  4  2  0  0  0  0
  4  5  1  0  0  0  0
  4  9  1  0  0  0  0
  5 10  1  0  0  0  0
  6 11  1  0  0  0  0
  6  5  2  0  0  0  0
  7  1  1  0  0  0  0
  8  2  1  0  0  0  0
 11 13  2  0  0  0  0
 12 11  2  0  0  0  0
 15 14  3  0  0  0  0
M  RAD  1   3   2
M  END
