Coordinates from ORCA-job 4-NO2-Ph-N2+-scan-d090-169-n800
 OpenBabel09191814013D

 15 14  0  0  0  0  0  0  0  0999 V2000
   -2.9200   -0.2092   -0.5663 C   0  0  0  0  0  0  0  0  0  0  0  0
   -1.4986   -0.2516   -0.6894 C   0  0  0  0  0  0  0  0  0  0  0  0
   -1.0996    0.8722   -0.0996 C   0  0  0  0  0  0  0  0  0  0  0  0
   -1.4183    1.9944    0.5397 C   0  0  0  0  0  0  0  0  0  0  0  0
   -2.8430    1.9461    0.6132 C   0  0  0  0  0  0  0  0  0  0  0  0
   -3.5410    0.8671    0.0690 C   0  0  0  0  0  0  0  0  0  0  0  0
   -3.5025   -1.0315   -0.9774 H   0  0  0  0  0  0  0  0  0  0  0  0
   -0.9354   -1.0469   -1.1661 H   0  0  0  0  0  0  0  0  0  0  0  0
   -0.7983    2.7922    0.9347 H   0  0  0  0  0  0  0  0  0  0  0  0
   -3.3668    2.7661    1.1008 H   0  0  0  0  0  0  0  0  0  0  0  0
   -5.0240    0.8640    0.1715 N   0  0  0  0  0  0  0  0  0  0  0  0
   -5.5950   -0.0998   -0.3182 O   0  0  0  0  0  0  0  0  0  0  0  0
   -5.5262    1.8255    0.7354 O   0  0  0  0  0  0  0  0  0  0  0  0
    7.2887    0.8572   -0.6944 N   0  0  0  0  0  0  0  0  0  0  0  0
    8.3914    0.8557   -0.7718 N   0  0  0  0  0  0  0  0  0  0  0  0
  1  6  1  0  0  0  0
  2  1  2  0  0  0  0
  2  3  1  0  0  0  0
  3  4  2  0  0  0  0
  4  5  1  0  0  0  0
  4  9  1  0  0  0  0
  5 10  1  0  0  0  0
  6 11  1  0  0  0  0
  6  5  2  0  0  0  0
  7  1  1  0  0  0  0
  8  2  1  0  0  0  0
 11 13  2  0  0  0  0
 12 11  2  0  0  0  0
 15 14  3  0  0  0  0
M  RAD  1   3   2
M  END
