Coordinates from ORCA-job 4-NO2-Ph-N2+-scan-d090-169-n800
 OpenBabel09191814013D

 15 14  0  0  0  0  0  0  0  0999 V2000
   -3.0178   -0.2088   -0.5592 C   0  0  0  0  0  0  0  0  0  0  0  0
   -1.5962   -0.2506   -0.6820 C   0  0  0  0  0  0  0  0  0  0  0  0
   -1.1982    0.8735   -0.0920 C   0  0  0  0  0  0  0  0  0  0  0  0
   -1.5175    1.9957    0.5473 C   0  0  0  0  0  0  0  0  0  0  0  0
   -2.9423    1.9465    0.6203 C   0  0  0  0  0  0  0  0  0  0  0  0
   -3.6395    0.8671    0.0759 C   0  0  0  0  0  0  0  0  0  0  0  0
   -3.5998   -1.0313   -0.9705 H   0  0  0  0  0  0  0  0  0  0  0  0
   -1.0325   -1.0455   -1.1586 H   0  0  0  0  0  0  0  0  0  0  0  0
   -0.8980    2.7938    0.9425 H   0  0  0  0  0  0  0  0  0  0  0  0
   -3.4668    2.7661    1.1077 H   0  0  0  0  0  0  0  0  0  0  0  0
   -5.1225    0.8632    0.1780 N   0  0  0  0  0  0  0  0  0  0  0  0
   -5.6929   -0.1008   -0.3120 O   0  0  0  0  0  0  0  0  0  0  0  0
   -5.6254    1.8244    0.7417 O   0  0  0  0  0  0  0  0  0  0  0  0
    7.9291    0.8550   -0.7404 N   0  0  0  0  0  0  0  0  0  0  0  0
    9.0318    0.8534   -0.8179 N   0  0  0  0  0  0  0  0  0  0  0  0
  1  6  1  0  0  0  0
  2  1  2  0  0  0  0
  2  3  1  0  0  0  0
  3  4  2  0  0  0  0
  4  5  1  0  0  0  0
  4  9  1  0  0  0  0
  5 10  1  0  0  0  0
  6 11  1  0  0  0  0
  6  5  2  0  0  0  0
  7  1  1  0  0  0  0
  8  2  1  0  0  0  0
 11 13  2  0  0  0  0
 12 11  2  0  0  0  0
 15 14  3  0  0  0  0
M  RAD  1   3   2
M  END
