Coordinates from ORCA-job 4-NO2-Ph-N2+-scan-d090-169-n800
 OpenBabel09191814013D

 15 14  0  0  0  0  0  0  0  0999 V2000
   -2.5308   -0.2105   -0.5941 C   0  0  0  0  0  0  0  0  0  0  0  0
   -1.1095   -0.2554   -0.7185 C   0  0  0  0  0  0  0  0  0  0  0  0
   -0.7084    0.8679   -0.1291 C   0  0  0  0  0  0  0  0  0  0  0  0
   -1.0245    1.9909    0.5104 C   0  0  0  0  0  0  0  0  0  0  0  0
   -2.4492    1.9449    0.5850 C   0  0  0  0  0  0  0  0  0  0  0  0
   -3.1494    0.8670    0.0415 C   0  0  0  0  0  0  0  0  0  0  0  0
   -3.1153   -1.0317   -1.0046 H   0  0  0  0  0  0  0  0  0  0  0  0
   -0.5475   -1.0513   -1.1954 H   0  0  0  0  0  0  0  0  0  0  0  0
   -0.4023    2.7874    0.9046 H   0  0  0  0  0  0  0  0  0  0  0  0
   -2.9716    2.7657    1.0728 H   0  0  0  0  0  0  0  0  0  0  0  0
   -4.6323    0.8664    0.1452 N   0  0  0  0  0  0  0  0  0  0  0  0
   -5.2054   -0.0965   -0.3439 O   0  0  0  0  0  0  0  0  0  0  0  0
   -5.1326    1.8288    0.7094 O   0  0  0  0  0  0  0  0  0  0  0  0
    4.7438    0.8642   -0.5125 N   0  0  0  0  0  0  0  0  0  0  0  0
    5.8465    0.8637   -0.5897 N   0  0  0  0  0  0  0  0  0  0  0  0
  1  6  1  0  0  0  0
  2  1  2  0  0  0  0
  2  3  1  0  0  0  0
  3  4  2  0  0  0  0
  4  5  1  0  0  0  0
  4  9  1  0  0  0  0
  5 10  1  0  0  0  0
  6 11  1  0  0  0  0
  6  5  2  0  0  0  0
  7  1  1  0  0  0  0
  8  2  1  0  0  0  0
 11 13  2  0  0  0  0
 12 11  2  0  0  0  0
 15 14  3  0  0  0  0
M  RAD  1   3   2
M  END
