Coordinates from ORCA-job 4-NO2-Ph-N2+-scan-d090-169-n800
 OpenBabel09191814013D

 15 14  0  0  0  0  0  0  0  0999 V2000
   -2.7375   -0.2099   -0.5794 C   0  0  0  0  0  0  0  0  0  0  0  0
   -1.3161   -0.2536   -0.7031 C   0  0  0  0  0  0  0  0  0  0  0  0
   -0.9160    0.8699   -0.1136 C   0  0  0  0  0  0  0  0  0  0  0  0
   -1.2333    1.9925    0.5258 C   0  0  0  0  0  0  0  0  0  0  0  0
   -2.6580    1.9455    0.5999 C   0  0  0  0  0  0  0  0  0  0  0  0
   -3.3572    0.8670    0.0561 C   0  0  0  0  0  0  0  0  0  0  0  0
   -3.3209   -1.0317   -0.9902 H   0  0  0  0  0  0  0  0  0  0  0  0
   -0.7538   -1.0493   -1.1800 H   0  0  0  0  0  0  0  0  0  0  0  0
   -0.6122    2.7896    0.9204 H   0  0  0  0  0  0  0  0  0  0  0  0
   -3.1809    2.7660    1.0877 H   0  0  0  0  0  0  0  0  0  0  0  0
   -4.8402    0.8653    0.1593 N   0  0  0  0  0  0  0  0  0  0  0  0
   -5.4123   -0.0980   -0.3302 O   0  0  0  0  0  0  0  0  0  0  0  0
   -5.3413    1.8273    0.7233 O   0  0  0  0  0  0  0  0  0  0  0  0
    6.0942    0.8609   -0.6088 N   0  0  0  0  0  0  0  0  0  0  0  0
    7.1969    0.8599   -0.6861 N   0  0  0  0  0  0  0  0  0  0  0  0
  1  6  1  0  0  0  0
  2  1  2  0  0  0  0
  2  3  1  0  0  0  0
  3  4  2  0  0  0  0
  4  5  1  0  0  0  0
  4  9  1  0  0  0  0
  5 10  1  0  0  0  0
  6 11  1  0  0  0  0
  6  5  2  0  0  0  0
  7  1  1  0  0  0  0
  8  2  1  0  0  0  0
 11 13  2  0  0  0  0
 12 11  2  0  0  0  0
 15 14  3  0  0  0  0
M  RAD  1   3   2
M  END
