Coordinates from ORCA-job 4-NO2-Ph-N2+-scan-d090-169-n800
 OpenBabel09191814013D

 15 14  0  0  0  0  0  0  0  0999 V2000
   -2.8221   -0.2096   -0.5733 C   0  0  0  0  0  0  0  0  0  0  0  0
   -1.4006   -0.2529   -0.6969 C   0  0  0  0  0  0  0  0  0  0  0  0
   -1.0013    0.8709   -0.1071 C   0  0  0  0  0  0  0  0  0  0  0  0
   -1.3189    1.9935    0.5323 C   0  0  0  0  0  0  0  0  0  0  0  0
   -2.7437    1.9458    0.6061 C   0  0  0  0  0  0  0  0  0  0  0  0
   -3.4424    0.8671    0.0621 C   0  0  0  0  0  0  0  0  0  0  0  0
   -3.4053   -1.0315   -0.9842 H   0  0  0  0  0  0  0  0  0  0  0  0
   -0.8379   -1.0484   -1.1737 H   0  0  0  0  0  0  0  0  0  0  0  0
   -0.6983    2.7909    0.9271 H   0  0  0  0  0  0  0  0  0  0  0  0
   -3.2673    2.7659    1.0937 H   0  0  0  0  0  0  0  0  0  0  0  0
   -4.9253    0.8647    0.1649 N   0  0  0  0  0  0  0  0  0  0  0  0
   -5.4970   -0.0988   -0.3246 O   0  0  0  0  0  0  0  0  0  0  0  0
   -5.4270    1.8265    0.7289 O   0  0  0  0  0  0  0  0  0  0  0  0
    6.6480    0.8592   -0.6484 N   0  0  0  0  0  0  0  0  0  0  0  0
    7.7507    0.8580   -0.7258 N   0  0  0  0  0  0  0  0  0  0  0  0
  1  6  1  0  0  0  0
  2  1  2  0  0  0  0
  2  3  1  0  0  0  0
  3  4  2  0  0  0  0
  4  5  1  0  0  0  0
  4  9  1  0  0  0  0
  5 10  1  0  0  0  0
  6 11  1  0  0  0  0
  6  5  2  0  0  0  0
  7  1  1  0  0  0  0
  8  2  1  0  0  0  0
 11 13  2  0  0  0  0
 12 11  2  0  0  0  0
 15 14  3  0  0  0  0
M  RAD  1   3   2
M  END
