Coordinates from ORCA-job 4-NO2-Ph-N2+-scan-d090-169-n800
 OpenBabel09191814003D

 15 14  0  0  0  0  0  0  0  0999 V2000
   -2.2628   -0.2110   -0.6132 C   0  0  0  0  0  0  0  0  0  0  0  0
   -0.8423   -0.2558   -0.7373 C   0  0  0  0  0  0  0  0  0  0  0  0
   -0.4370    0.8668   -0.1486 C   0  0  0  0  0  0  0  0  0  0  0  0
   -0.7561    1.9894    0.4909 C   0  0  0  0  0  0  0  0  0  0  0  0
   -2.1800    1.9447    0.5661 C   0  0  0  0  0  0  0  0  0  0  0  0
   -2.8807    0.8669    0.0227 C   0  0  0  0  0  0  0  0  0  0  0  0
   -2.8487   -1.0312   -1.0230 H   0  0  0  0  0  0  0  0  0  0  0  0
   -0.2792   -1.0508   -1.2138 H   0  0  0  0  0  0  0  0  0  0  0  0
   -0.1320    2.7843    0.8842 H   0  0  0  0  0  0  0  0  0  0  0  0
   -2.7030    2.7650    1.0536 H   0  0  0  0  0  0  0  0  0  0  0  0
   -4.3634    0.8669    0.1266 N   0  0  0  0  0  0  0  0  0  0  0  0
   -4.9377   -0.0955   -0.3623 O   0  0  0  0  0  0  0  0  0  0  0  0
   -4.8638    1.8294    0.6908 O   0  0  0  0  0  0  0  0  0  0  0  0
    2.9978    0.8663   -0.3892 N   0  0  0  0  0  0  0  0  0  0  0  0
    4.1002    0.8662   -0.4664 N   0  0  0  0  0  0  0  0  0  0  0  0
  1  6  1  0  0  0  0
  2  1  2  0  0  0  0
  2  3  1  0  0  0  0
  3  4  2  0  0  0  0
  4  5  1  0  0  0  0
  4  9  1  0  0  0  0
  5 10  1  0  0  0  0
  6 11  1  0  0  0  0
  6  5  2  0  0  0  0
  7  1  1  0  0  0  0
  8  2  1  0  0  0  0
 11 13  2  0  0  0  0
 12 11  2  0  0  0  0
 15 14  3  0  0  0  0
M  RAD  1   3   2
M  END
