Coordinates from ORCA-job 4-NO2-Ph-N2+-scan-d090-169-n800
 OpenBabel09191814013D

 15 14  0  0  0  0  0  0  0  0999 V2000
   -2.4830   -0.2106   -0.5976 C   0  0  0  0  0  0  0  0  0  0  0  0
   -1.0618   -0.2555   -0.7219 C   0  0  0  0  0  0  0  0  0  0  0  0
   -0.6606    0.8676   -0.1326 C   0  0  0  0  0  0  0  0  0  0  0  0
   -0.9764    1.9906    0.5068 C   0  0  0  0  0  0  0  0  0  0  0  0
   -2.4011    1.9449    0.5816 C   0  0  0  0  0  0  0  0  0  0  0  0
   -3.1015    0.8669    0.0382 C   0  0  0  0  0  0  0  0  0  0  0  0
   -3.0676   -1.0318   -1.0080 H   0  0  0  0  0  0  0  0  0  0  0  0
   -0.4998   -1.0514   -1.1988 H   0  0  0  0  0  0  0  0  0  0  0  0
   -0.3539    2.7868    0.9009 H   0  0  0  0  0  0  0  0  0  0  0  0
   -2.9233    2.7657    1.0694 H   0  0  0  0  0  0  0  0  0  0  0  0
   -4.5844    0.8666    0.1419 N   0  0  0  0  0  0  0  0  0  0  0  0
   -5.1577   -0.0963   -0.3471 O   0  0  0  0  0  0  0  0  0  0  0  0
   -5.0845    1.8290    0.7062 O   0  0  0  0  0  0  0  0  0  0  0  0
    4.4322    0.8648   -0.4904 N   0  0  0  0  0  0  0  0  0  0  0  0
    5.5348    0.8643   -0.5676 N   0  0  0  0  0  0  0  0  0  0  0  0
  1  6  1  0  0  0  0
  2  1  2  0  0  0  0
  2  3  1  0  0  0  0
  3  4  2  0  0  0  0
  4  5  1  0  0  0  0
  4  9  1  0  0  0  0
  5 10  1  0  0  0  0
  6 11  1  0  0  0  0
  6  5  2  0  0  0  0
  7  1  1  0  0  0  0
  8  2  1  0  0  0  0
 11 13  2  0  0  0  0
 12 11  2  0  0  0  0
 15 14  3  0  0  0  0
M  RAD  1   3   2
M  END
