Coordinates from ORCA-job 4-NO2-Ph-N2+-scan-d090-169-n800
 OpenBabel09191814013D

 15 14  0  0  0  0  0  0  0  0999 V2000
   -2.6262   -0.2102   -0.5873 C   0  0  0  0  0  0  0  0  0  0  0  0
   -1.2050   -0.2545   -0.7114 C   0  0  0  0  0  0  0  0  0  0  0  0
   -0.8041    0.8688   -0.1220 C   0  0  0  0  0  0  0  0  0  0  0  0
   -1.1209    1.9915    0.5174 C   0  0  0  0  0  0  0  0  0  0  0  0
   -2.5455    1.9452    0.5919 C   0  0  0  0  0  0  0  0  0  0  0  0
   -3.2454    0.8670    0.0483 C   0  0  0  0  0  0  0  0  0  0  0  0
   -3.2102   -1.0317   -0.9980 H   0  0  0  0  0  0  0  0  0  0  0  0
   -0.6430   -1.0505   -1.1883 H   0  0  0  0  0  0  0  0  0  0  0  0
   -0.4992    2.7883    0.9118 H   0  0  0  0  0  0  0  0  0  0  0  0
   -3.0680    2.7659    1.0797 H   0  0  0  0  0  0  0  0  0  0  0  0
   -4.7283    0.8659    0.1517 N   0  0  0  0  0  0  0  0  0  0  0  0
   -5.3010   -0.0971   -0.3375 O   0  0  0  0  0  0  0  0  0  0  0  0
   -5.2289    1.8282    0.7159 O   0  0  0  0  0  0  0  0  0  0  0  0
    5.3672    0.8628   -0.5569 N   0  0  0  0  0  0  0  0  0  0  0  0
    6.4699    0.8620   -0.6341 N   0  0  0  0  0  0  0  0  0  0  0  0
  1  6  1  0  0  0  0
  2  1  2  0  0  0  0
  2  3  1  0  0  0  0
  3  4  2  0  0  0  0
  4  5  1  0  0  0  0
  4  9  1  0  0  0  0
  5 10  1  0  0  0  0
  6 11  1  0  0  0  0
  6  5  2  0  0  0  0
  7  1  1  0  0  0  0
  8  2  1  0  0  0  0
 11 13  2  0  0  0  0
 12 11  2  0  0  0  0
 15 14  3  0  0  0  0
M  RAD  1   3   2
M  END
