Coordinates from ORCA-job 4-NO2-Ph-N2+-scan-d090-169-n800
 OpenBabel09191814003D

 15 15  0  0  0  0  0  0  0  0999 V2000
   -2.0044   -0.2129   -0.6322 C   0  0  0  0  0  0  0  0  0  0  0  0
   -0.6265   -0.2259   -0.7359 C   0  0  0  0  0  0  0  0  0  0  0  0
    0.1199    0.8666   -0.1876 C   0  0  0  0  0  0  0  0  0  0  0  0
   -0.5425    1.9593    0.4595 C   0  0  0  0  0  0  0  0  0  0  0  0
   -1.9215    1.9465    0.5490 C   0  0  0  0  0  0  0  0  0  0  0  0
   -2.6212    0.8668    0.0045 C   0  0  0  0  0  0  0  0  0  0  0  0
   -2.6116   -1.0175   -1.0320 H   0  0  0  0  0  0  0  0  0  0  0  0
   -0.1009   -1.0423   -1.2215 H   0  0  0  0  0  0  0  0  0  0  0  0
    0.0457    2.7756    0.8670 H   0  0  0  0  0  0  0  0  0  0  0  0
   -2.4668    2.7512    1.0295 H   0  0  0  0  0  0  0  0  0  0  0  0
   -4.1127    0.8670    0.1090 N   0  0  0  0  0  0  0  0  0  0  0  0
   -4.6883   -0.0948   -0.3795 O   0  0  0  0  0  0  0  0  0  0  0  0
   -4.6144    1.8288    0.6729 O   0  0  0  0  0  0  0  0  0  0  0  0
    1.3174    0.8666   -0.2715 N   0  0  0  0  0  0  0  0  0  0  0  0
    2.4392    0.8665   -0.3501 N   0  0  0  0  0  0  0  0  0  0  0  0
  1  6  1  0  0  0  0
  2  1  2  0  0  0  0
  2  3  1  0  0  0  0
  3  4  2  0  0  0  0
  4  5  1  0  0  0  0
  4  9  1  0  0  0  0
  5 10  1  0  0  0  0
  6 11  1  0  0  0  0
  6  5  2  0  0  0  0
  7  1  1  0  0  0  0
  8  2  1  0  0  0  0
 11 13  2  0  0  0  0
 12 11  2  0  0  0  0
 14  3  1  0  0  0  0
 15 14  1  0  0  0  0
M  RAD  2  14   2  15   3
M  END
