Coordinates from ORCA-job 4-NO2-Ph-N2+-scan-d090-169-n800
 OpenBabel09191814013D

 15 14  0  0  0  0  0  0  0  0999 V2000
   -2.6871   -0.2101   -0.5830 C   0  0  0  0  0  0  0  0  0  0  0  0
   -1.2657   -0.2542   -0.7070 C   0  0  0  0  0  0  0  0  0  0  0  0
   -0.8656    0.8694   -0.1174 C   0  0  0  0  0  0  0  0  0  0  0  0
   -1.1823    1.9922    0.5221 C   0  0  0  0  0  0  0  0  0  0  0  0
   -2.6071    1.9454    0.5963 C   0  0  0  0  0  0  0  0  0  0  0  0
   -3.3065    0.8670    0.0526 C   0  0  0  0  0  0  0  0  0  0  0  0
   -3.2710   -1.0316   -0.9936 H   0  0  0  0  0  0  0  0  0  0  0  0
   -0.7035   -1.0500   -1.1839 H   0  0  0  0  0  0  0  0  0  0  0  0
   -0.5609    2.7891    0.9165 H   0  0  0  0  0  0  0  0  0  0  0  0
   -3.1300    2.7658    1.0840 H   0  0  0  0  0  0  0  0  0  0  0  0
   -4.7895    0.8656    0.1559 N   0  0  0  0  0  0  0  0  0  0  0  0
   -5.3619   -0.0975   -0.3335 O   0  0  0  0  0  0  0  0  0  0  0  0
   -5.2904    1.8277    0.7199 O   0  0  0  0  0  0  0  0  0  0  0  0
    5.7651    0.8618   -0.5853 N   0  0  0  0  0  0  0  0  0  0  0  0
    6.8678    0.8609   -0.6626 N   0  0  0  0  0  0  0  0  0  0  0  0
  1  6  1  0  0  0  0
  2  1  2  0  0  0  0
  2  3  1  0  0  0  0
  3  4  2  0  0  0  0
  4  5  1  0  0  0  0
  4  9  1  0  0  0  0
  5 10  1  0  0  0  0
  6 11  1  0  0  0  0
  6  5  2  0  0  0  0
  7  1  1  0  0  0  0
  8  2  1  0  0  0  0
 11 13  2  0  0  0  0
 12 11  2  0  0  0  0
 15 14  3  0  0  0  0
M  RAD  1   3   2
M  END
