Coordinates from ORCA-job 4-NO2-Ph-N2+-scan-d090-169-n800
 OpenBabel09191814003D

 15 14  0  0  0  0  0  0  0  0999 V2000
   -2.1124   -0.2109   -0.6236 C   0  0  0  0  0  0  0  0  0  0  0  0
   -0.7013   -0.2491   -0.7434 C   0  0  0  0  0  0  0  0  0  0  0  0
   -0.2255    0.8667   -0.1634 C   0  0  0  0  0  0  0  0  0  0  0  0
   -0.6156    1.9826    0.4774 C   0  0  0  0  0  0  0  0  0  0  0  0
   -2.0296    1.9445    0.5555 C   0  0  0  0  0  0  0  0  0  0  0  0
   -2.7289    0.8669    0.0120 C   0  0  0  0  0  0  0  0  0  0  0  0
   -2.7053   -1.0258   -1.0300 H   0  0  0  0  0  0  0  0  0  0  0  0
   -0.1506   -1.0495   -1.2219 H   0  0  0  0  0  0  0  0  0  0  0  0
   -0.0034    2.7828    0.8744 H   0  0  0  0  0  0  0  0  0  0  0  0
   -2.5599    2.7595    1.0406 H   0  0  0  0  0  0  0  0  0  0  0  0
   -4.2131    0.8670    0.1160 N   0  0  0  0  0  0  0  0  0  0  0  0
   -4.7899   -0.0946   -0.3722 O   0  0  0  0  0  0  0  0  0  0  0  0
   -4.7161    1.8286    0.6799 O   0  0  0  0  0  0  0  0  0  0  0  0
    2.0307    0.8665   -0.3214 N   0  0  0  0  0  0  0  0  0  0  0  0
    3.1323    0.8664   -0.3986 N   0  0  0  0  0  0  0  0  0  0  0  0
  1  6  1  0  0  0  0
  2  1  2  0  0  0  0
  2  3  1  0  0  0  0
  3  4  2  0  0  0  0
  4  5  1  0  0  0  0
  4  9  1  0  0  0  0
  5 10  1  0  0  0  0
  6 11  1  0  0  0  0
  6  5  2  0  0  0  0
  7  1  1  0  0  0  0
  8  2  1  0  0  0  0
 11 13  2  0  0  0  0
 12 11  2  0  0  0  0
 15 14  3  0  0  0  0
M  RAD  1   3   2
M  END
