Coordinates from ORCA-job 4-NO2-Ph-N2+-scan-d090-169-n800
 OpenBabel09191814013D

 15 14  0  0  0  0  0  0  0  0999 V2000
   -3.6925   -0.2057   -0.5103 C   0  0  0  0  0  0  0  0  0  0  0  0
   -2.2704   -0.2403   -0.6292 C   0  0  0  0  0  0  0  0  0  0  0  0
   -1.8796    0.8855   -0.0378 C   0  0  0  0  0  0  0  0  0  0  0  0
   -2.2062    2.0059    0.6011 C   0  0  0  0  0  0  0  0  0  0  0  0
   -3.6309    1.9496    0.6702 C   0  0  0  0  0  0  0  0  0  0  0  0
   -4.3213    0.8669    0.1236 C   0  0  0  0  0  0  0  0  0  0  0  0
   -4.2694   -1.0309   -0.9234 H   0  0  0  0  0  0  0  0  0  0  0  0
   -1.7015   -1.0323   -1.1045 H   0  0  0  0  0  0  0  0  0  0  0  0
   -1.5918    2.8069    0.9982 H   0  0  0  0  0  0  0  0  0  0  0  0
   -4.1609    2.7664    1.1565 H   0  0  0  0  0  0  0  0  0  0  0  0
   -5.8046    0.8557    0.2215 N   0  0  0  0  0  0  0  0  0  0  0  0
   -6.3688   -0.1110   -0.2703 O   0  0  0  0  0  0  0  0  0  0  0  0
   -6.3138    1.8142    0.7843 O   0  0  0  0  0  0  0  0  0  0  0  0
   12.3603    0.8362   -1.0607 N   0  0  0  0  0  0  0  0  0  0  0  0
   13.4631    0.8344   -1.1381 N   0  0  0  0  0  0  0  0  0  0  0  0
  1  6  1  0  0  0  0
  2  1  2  0  0  0  0
  2  3  1  0  0  0  0
  3  4  2  0  0  0  0
  4  5  1  0  0  0  0
  4  9  1  0  0  0  0
  5 10  1  0  0  0  0
  6 11  1  0  0  0  0
  6  5  2  0  0  0  0
  7  1  1  0  0  0  0
  8  2  1  0  0  0  0
 11 13  2  0  0  0  0
 12 11  2  0  0  0  0
 15 14  3  0  0  0  0
M  RAD  1   3   2
M  END
