Coordinates from ORCA-job 4-NO2-Ph-N2+-scan-d090-169-n800
 OpenBabel09191814003D

 15 15  0  0  0  0  0  0  0  0999 V2000
   -2.0722   -0.2113   -0.6266 C   0  0  0  0  0  0  0  0  0  0  0  0
   -0.6708   -0.2414   -0.7413 C   0  0  0  0  0  0  0  0  0  0  0  0
   -0.1197    0.8667   -0.1708 C   0  0  0  0  0  0  0  0  0  0  0  0
   -0.5857    1.9748    0.4710 C   0  0  0  0  0  0  0  0  0  0  0  0
   -1.9894    1.9449    0.5529 C   0  0  0  0  0  0  0  0  0  0  0  0
   -2.6874    0.8669    0.0091 C   0  0  0  0  0  0  0  0  0  0  0  0
   -2.6730   -1.0205   -1.0294 H   0  0  0  0  0  0  0  0  0  0  0  0
   -0.1301   -1.0470   -1.2220 H   0  0  0  0  0  0  0  0  0  0  0  0
    0.0169    2.7803    0.8716 H   0  0  0  0  0  0  0  0  0  0  0  0
   -2.5280    2.7542    1.0355 H   0  0  0  0  0  0  0  0  0  0  0  0
   -4.1736    0.8670    0.1133 N   0  0  0  0  0  0  0  0  0  0  0  0
   -4.7522   -0.0940   -0.3746 O   0  0  0  0  0  0  0  0  0  0  0  0
   -4.6784    1.8280    0.6769 O   0  0  0  0  0  0  0  0  0  0  0  0
    1.7769    0.8665   -0.3037 N   0  0  0  0  0  0  0  0  0  0  0  0
    2.8782    0.8664   -0.3808 N   0  0  0  0  0  0  0  0  0  0  0  0
  1  6  1  0  0  0  0
  2  1  2  0  0  0  0
  2  3  1  0  0  0  0
  3  4  2  0  0  0  0
  4  5  1  0  0  0  0
  4  9  1  0  0  0  0
  5 10  1  0  0  0  0
  6 11  1  0  0  0  0
  6  5  2  0  0  0  0
  7  1  1  0  0  0  0
  8  2  1  0  0  0  0
 11 13  2  0  0  0  0
 12 11  2  0  0  0  0
 14  3  1  0  0  0  0
 15 14  1  0  0  0  0
M  RAD  2  14   2  15   3
M  END
