Coordinates from ORCA-job 4-NO2-Ph-N2+-scan-d090-169-n800
 OpenBabel09191814003D

 15 14  0  0  0  0  0  0  0  0999 V2000
   -2.2946   -0.2110   -0.6109 C   0  0  0  0  0  0  0  0  0  0  0  0
   -0.8739   -0.2558   -0.7351 C   0  0  0  0  0  0  0  0  0  0  0  0
   -0.4699    0.8668   -0.1463 C   0  0  0  0  0  0  0  0  0  0  0  0
   -0.7878    1.9894    0.4931 C   0  0  0  0  0  0  0  0  0  0  0  0
   -2.2119    1.9447    0.5683 C   0  0  0  0  0  0  0  0  0  0  0  0
   -2.9126    0.8669    0.0249 C   0  0  0  0  0  0  0  0  0  0  0  0
   -2.8800   -1.0315   -1.0210 H   0  0  0  0  0  0  0  0  0  0  0  0
   -0.3110   -1.0510   -1.2117 H   0  0  0  0  0  0  0  0  0  0  0  0
   -0.1638    2.7846    0.8865 H   0  0  0  0  0  0  0  0  0  0  0  0
   -2.7343    2.7653    1.0560 H   0  0  0  0  0  0  0  0  0  0  0  0
   -4.3954    0.8669    0.1288 N   0  0  0  0  0  0  0  0  0  0  0  0
   -4.9694   -0.0956   -0.3601 O   0  0  0  0  0  0  0  0  0  0  0  0
   -4.8955    1.8295    0.6930 O   0  0  0  0  0  0  0  0  0  0  0  0
    3.2046    0.8663   -0.4037 N   0  0  0  0  0  0  0  0  0  0  0  0
    4.3071    0.8661   -0.4809 N   0  0  0  0  0  0  0  0  0  0  0  0
  1  6  1  0  0  0  0
  2  1  2  0  0  0  0
  2  3  1  0  0  0  0
  3  4  2  0  0  0  0
  4  5  1  0  0  0  0
  4  9  1  0  0  0  0
  5 10  1  0  0  0  0
  6 11  1  0  0  0  0
  6  5  2  0  0  0  0
  7  1  1  0  0  0  0
  8  2  1  0  0  0  0
 11 13  2  0  0  0  0
 12 11  2  0  0  0  0
 15 14  3  0  0  0  0
M  RAD  1   3   2
M  END
