Coordinates from ORCA-job 4-NO2-Ph-N2+-scan-d090-169-n800
 OpenBabel09191814013D

 15 14  0  0  0  0  0  0  0  0999 V2000
   -2.5228   -0.2106   -0.5947 C   0  0  0  0  0  0  0  0  0  0  0  0
   -1.1015   -0.2555   -0.7190 C   0  0  0  0  0  0  0  0  0  0  0  0
   -0.7007    0.8678   -0.1296 C   0  0  0  0  0  0  0  0  0  0  0  0
   -1.0164    1.9909    0.5099 C   0  0  0  0  0  0  0  0  0  0  0  0
   -2.4412    1.9449    0.5845 C   0  0  0  0  0  0  0  0  0  0  0  0
   -3.1414    0.8669    0.0410 C   0  0  0  0  0  0  0  0  0  0  0  0
   -3.1073   -1.0317   -1.0051 H   0  0  0  0  0  0  0  0  0  0  0  0
   -0.5394   -1.0513   -1.1960 H   0  0  0  0  0  0  0  0  0  0  0  0
   -0.3941    2.7872    0.9040 H   0  0  0  0  0  0  0  0  0  0  0  0
   -2.9635    2.7656    1.0723 H   0  0  0  0  0  0  0  0  0  0  0  0
   -4.6243    0.8664    0.1446 N   0  0  0  0  0  0  0  0  0  0  0  0
   -5.1975   -0.0963   -0.3446 O   0  0  0  0  0  0  0  0  0  0  0  0
   -5.1245    1.8289    0.7087 O   0  0  0  0  0  0  0  0  0  0  0  0
    4.6917    0.8644   -0.5088 N   0  0  0  0  0  0  0  0  0  0  0  0
    5.7943    0.8638   -0.5861 N   0  0  0  0  0  0  0  0  0  0  0  0
  1  6  1  0  0  0  0
  2  1  2  0  0  0  0
  2  3  1  0  0  0  0
  3  4  2  0  0  0  0
  4  5  1  0  0  0  0
  4  9  1  0  0  0  0
  5 10  1  0  0  0  0
  6 11  1  0  0  0  0
  6  5  2  0  0  0  0
  7  1  1  0  0  0  0
  8  2  1  0  0  0  0
 11 13  2  0  0  0  0
 12 11  2  0  0  0  0
 15 14  3  0  0  0  0
M  RAD  1   3   2
M  END
