Coordinates from ORCA-job 4-NO2-Ph-N2+-scan-d090-169-n800
 OpenBabel09191814003D

 15 14  0  0  0  0  0  0  0  0999 V2000
   -2.1437   -0.2109   -0.6214 C   0  0  0  0  0  0  0  0  0  0  0  0
   -0.7282   -0.2524   -0.7434 C   0  0  0  0  0  0  0  0  0  0  0  0
   -0.2859    0.8667   -0.1592 C   0  0  0  0  0  0  0  0  0  0  0  0
   -0.6422    1.9858    0.4810 C   0  0  0  0  0  0  0  0  0  0  0  0
   -2.0609    1.9446    0.5577 C   0  0  0  0  0  0  0  0  0  0  0  0
   -2.7608    0.8669    0.0143 C   0  0  0  0  0  0  0  0  0  0  0  0
   -2.7335   -1.0281   -1.0294 H   0  0  0  0  0  0  0  0  0  0  0  0
   -0.1719   -1.0501   -1.2208 H   0  0  0  0  0  0  0  0  0  0  0  0
   -0.0247    2.7834    0.8762 H   0  0  0  0  0  0  0  0  0  0  0  0
   -2.5880    2.7619    1.0439 H   0  0  0  0  0  0  0  0  0  0  0  0
   -4.2442    0.8670    0.1182 N   0  0  0  0  0  0  0  0  0  0  0  0
   -4.8201   -0.0949   -0.3703 O   0  0  0  0  0  0  0  0  0  0  0  0
   -4.7462    1.8290    0.6822 O   0  0  0  0  0  0  0  0  0  0  0  0
    2.2300    0.8665   -0.3354 N   0  0  0  0  0  0  0  0  0  0  0  0
    3.3319    0.8664   -0.4126 N   0  0  0  0  0  0  0  0  0  0  0  0
  1  6  1  0  0  0  0
  2  1  2  0  0  0  0
  2  3  1  0  0  0  0
  3  4  2  0  0  0  0
  4  5  1  0  0  0  0
  4  9  1  0  0  0  0
  5 10  1  0  0  0  0
  6 11  1  0  0  0  0
  6  5  2  0  0  0  0
  7  1  1  0  0  0  0
  8  2  1  0  0  0  0
 11 13  2  0  0  0  0
 12 11  2  0  0  0  0
 15 14  3  0  0  0  0
M  RAD  1   3   2
M  END
