Coordinates from ORCA-job 4-NO2-Ph-N2+-scan-d090-169-n800
 OpenBabel09191814013D

 15 14  0  0  0  0  0  0  0  0999 V2000
   -2.9781   -0.2090   -0.5620 C   0  0  0  0  0  0  0  0  0  0  0  0
   -1.5567   -0.2509   -0.6849 C   0  0  0  0  0  0  0  0  0  0  0  0
   -1.1582    0.8729   -0.0951 C   0  0  0  0  0  0  0  0  0  0  0  0
   -1.4773    1.9951    0.5442 C   0  0  0  0  0  0  0  0  0  0  0  0
   -2.9020    1.9463    0.6174 C   0  0  0  0  0  0  0  0  0  0  0  0
   -3.5996    0.8671    0.0732 C   0  0  0  0  0  0  0  0  0  0  0  0
   -3.5603   -1.0315   -0.9733 H   0  0  0  0  0  0  0  0  0  0  0  0
   -0.9932   -1.0461   -1.1616 H   0  0  0  0  0  0  0  0  0  0  0  0
   -0.8576    2.7930    0.9393 H   0  0  0  0  0  0  0  0  0  0  0  0
   -3.4262    2.7661    1.1049 H   0  0  0  0  0  0  0  0  0  0  0  0
   -5.0826    0.8635    0.1754 N   0  0  0  0  0  0  0  0  0  0  0  0
   -5.6532   -0.1004   -0.3145 O   0  0  0  0  0  0  0  0  0  0  0  0
   -5.5852    1.8249    0.7391 O   0  0  0  0  0  0  0  0  0  0  0  0
    7.6695    0.8559   -0.7217 N   0  0  0  0  0  0  0  0  0  0  0  0
    8.7722    0.8543   -0.7992 N   0  0  0  0  0  0  0  0  0  0  0  0
  1  6  1  0  0  0  0
  2  1  2  0  0  0  0
  2  3  1  0  0  0  0
  3  4  2  0  0  0  0
  4  5  1  0  0  0  0
  4  9  1  0  0  0  0
  5 10  1  0  0  0  0
  6 11  1  0  0  0  0
  6  5  2  0  0  0  0
  7  1  1  0  0  0  0
  8  2  1  0  0  0  0
 11 13  2  0  0  0  0
 12 11  2  0  0  0  0
 15 14  3  0  0  0  0
M  RAD  1   3   2
M  END
