Coordinates from ORCA-job 4-NO2-Ph-N2+-scan-d090-169-n800
 OpenBabel09191814013D

 15 14  0  0  0  0  0  0  0  0999 V2000
   -3.3318   -0.2075   -0.5365 C   0  0  0  0  0  0  0  0  0  0  0  0
   -1.9100   -0.2464   -0.6577 C   0  0  0  0  0  0  0  0  0  0  0  0
   -1.5150    0.8785   -0.0671 C   0  0  0  0  0  0  0  0  0  0  0  0
   -1.8372    2.0000    0.5720 C   0  0  0  0  0  0  0  0  0  0  0  0
   -3.2620    1.9478    0.6434 C   0  0  0  0  0  0  0  0  0  0  0  0
   -3.9564    0.8671    0.0981 C   0  0  0  0  0  0  0  0  0  0  0  0
   -3.9118   -1.0311   -0.9485 H   0  0  0  0  0  0  0  0  0  0  0  0
   -1.3441   -1.0401   -1.1338 H   0  0  0  0  0  0  0  0  0  0  0  0
   -1.2198    2.7993    0.9680 H   0  0  0  0  0  0  0  0  0  0  0  0
   -3.7888    2.7663    1.1304 H   0  0  0  0  0  0  0  0  0  0  0  0
   -5.4395    0.8602    0.1985 N   0  0  0  0  0  0  0  0  0  0  0  0
   -6.0074   -0.1050   -0.2922 O   0  0  0  0  0  0  0  0  0  0  0  0
   -5.9450    1.8203    0.7618 O   0  0  0  0  0  0  0  0  0  0  0  0
    9.9889    0.8471   -0.8888 N   0  0  0  0  0  0  0  0  0  0  0  0
   11.0916    0.8449   -0.9665 N   0  0  0  0  0  0  0  0  0  0  0  0
  1  6  1  0  0  0  0
  2  1  2  0  0  0  0
  2  3  1  0  0  0  0
  3  4  2  0  0  0  0
  4  5  1  0  0  0  0
  4  9  1  0  0  0  0
  5 10  1  0  0  0  0
  6 11  1  0  0  0  0
  6  5  2  0  0  0  0
  7  1  1  0  0  0  0
  8  2  1  0  0  0  0
 11 13  2  0  0  0  0
 12 11  2  0  0  0  0
 15 14  3  0  0  0  0
M  RAD  1   3   2
M  END
