Coordinates from ORCA-job 4-NO2-Ph-N2+-scan-d090-169-n800
 OpenBabel09191814013D

 15 14  0  0  0  0  0  0  0  0999 V2000
   -3.8661   -0.2047   -0.4976 C   0  0  0  0  0  0  0  0  0  0  0  0
   -2.4438   -0.2372   -0.6154 C   0  0  0  0  0  0  0  0  0  0  0  0
   -2.0553    0.8892   -0.0234 C   0  0  0  0  0  0  0  0  0  0  0  0
   -2.3841    2.0091    0.6153 C   0  0  0  0  0  0  0  0  0  0  0  0
   -3.8088    1.9505    0.6831 C   0  0  0  0  0  0  0  0  0  0  0  0
   -4.4971    0.8668    0.1358 C   0  0  0  0  0  0  0  0  0  0  0  0
   -4.4414   -1.0308   -0.9113 H   0  0  0  0  0  0  0  0  0  0  0  0
   -1.8733   -1.0283   -1.0903 H   0  0  0  0  0  0  0  0  0  0  0  0
   -1.7713    2.8110    1.0130 H   0  0  0  0  0  0  0  0  0  0  0  0
   -4.3405    2.7664    1.1690 H   0  0  0  0  0  0  0  0  0  0  0  0
   -5.9804    0.8533    0.2325 N   0  0  0  0  0  0  0  0  0  0  0  0
   -6.5427   -0.1143   -0.2599 O   0  0  0  0  0  0  0  0  0  0  0  0
   -6.4916    1.8109    0.7949 O   0  0  0  0  0  0  0  0  0  0  0  0
   13.5025    0.8283   -1.1450 N   0  0  0  0  0  0  0  0  0  0  0  0
   14.6055    0.8312   -1.2197 N   0  0  0  0  0  0  0  0  0  0  0  0
  1  6  1  0  0  0  0
  2  1  2  0  0  0  0
  2  3  1  0  0  0  0
  3  4  2  0  0  0  0
  4  5  1  0  0  0  0
  4  9  1  0  0  0  0
  5 10  1  0  0  0  0
  6 11  1  0  0  0  0
  6  5  2  0  0  0  0
  7  1  1  0  0  0  0
  8  2  1  0  0  0  0
 11 13  2  0  0  0  0
 12 11  2  0  0  0  0
 15 14  3  0  0  0  0
M  RAD  1   3   2
M  END
