Coordinates from ORCA-job 4-NO2-Ph-N2+-scan-d090-169-n800
 OpenBabel09191814013D

 15 14  0  0  0  0  0  0  0  0999 V2000
   -2.8724   -0.2094   -0.5697 C   0  0  0  0  0  0  0  0  0  0  0  0
   -1.4509   -0.2522   -0.6930 C   0  0  0  0  0  0  0  0  0  0  0  0
   -1.0518    0.8715   -0.1033 C   0  0  0  0  0  0  0  0  0  0  0  0
   -1.3700    1.9940    0.5361 C   0  0  0  0  0  0  0  0  0  0  0  0
   -2.7947    1.9460    0.6097 C   0  0  0  0  0  0  0  0  0  0  0  0
   -3.4930    0.8671    0.0657 C   0  0  0  0  0  0  0  0  0  0  0  0
   -3.4552   -1.0315   -0.9807 H   0  0  0  0  0  0  0  0  0  0  0  0
   -0.8880   -1.0476   -1.1698 H   0  0  0  0  0  0  0  0  0  0  0  0
   -0.7496    2.7915    0.9310 H   0  0  0  0  0  0  0  0  0  0  0  0
   -3.3184    2.7660    1.0973 H   0  0  0  0  0  0  0  0  0  0  0  0
   -4.9760    0.8644    0.1683 N   0  0  0  0  0  0  0  0  0  0  0  0
   -5.5473   -0.0993   -0.3213 O   0  0  0  0  0  0  0  0  0  0  0  0
   -5.4779    1.8260    0.7322 O   0  0  0  0  0  0  0  0  0  0  0  0
    6.9770    0.8582   -0.6720 N   0  0  0  0  0  0  0  0  0  0  0  0
    8.0798    0.8569   -0.7495 N   0  0  0  0  0  0  0  0  0  0  0  0
  1  6  1  0  0  0  0
  2  1  2  0  0  0  0
  2  3  1  0  0  0  0
  3  4  2  0  0  0  0
  4  5  1  0  0  0  0
  4  9  1  0  0  0  0
  5 10  1  0  0  0  0
  6 11  1  0  0  0  0
  6  5  2  0  0  0  0
  7  1  1  0  0  0  0
  8  2  1  0  0  0  0
 11 13  2  0  0  0  0
 12 11  2  0  0  0  0
 15 14  3  0  0  0  0
M  RAD  1   3   2
M  END
