Coordinates from ORCA-job 4-NO2-Ph-N2+-scan-d090-169-n800
 OpenBabel09191814003D

 15 14  0  0  0  0  0  0  0  0999 V2000
   -2.3132   -0.2109   -0.6096 C   0  0  0  0  0  0  0  0  0  0  0  0
   -0.8923   -0.2560   -0.7339 C   0  0  0  0  0  0  0  0  0  0  0  0
   -0.4891    0.8668   -0.1449 C   0  0  0  0  0  0  0  0  0  0  0  0
   -0.8062    1.9897    0.4945 C   0  0  0  0  0  0  0  0  0  0  0  0
   -2.2305    1.9447    0.5696 C   0  0  0  0  0  0  0  0  0  0  0  0
   -2.9312    0.8669    0.0262 C   0  0  0  0  0  0  0  0  0  0  0  0
   -2.8985   -1.0315   -1.0197 H   0  0  0  0  0  0  0  0  0  0  0  0
   -0.3294   -1.0512   -1.2105 H   0  0  0  0  0  0  0  0  0  0  0  0
   -0.1823    2.7849    0.8880 H   0  0  0  0  0  0  0  0  0  0  0  0
   -2.7529    2.7653    1.0573 H   0  0  0  0  0  0  0  0  0  0  0  0
   -4.4139    0.8669    0.1301 N   0  0  0  0  0  0  0  0  0  0  0  0
   -4.9879   -0.0956   -0.3588 O   0  0  0  0  0  0  0  0  0  0  0  0
   -4.9141    1.8295    0.6943 O   0  0  0  0  0  0  0  0  0  0  0  0
    3.3252    0.8662   -0.4122 N   0  0  0  0  0  0  0  0  0  0  0  0
    4.4277    0.8660   -0.4894 N   0  0  0  0  0  0  0  0  0  0  0  0
  1  6  1  0  0  0  0
  2  1  2  0  0  0  0
  2  3  1  0  0  0  0
  3  4  2  0  0  0  0
  4  5  1  0  0  0  0
  4  9  1  0  0  0  0
  5 10  1  0  0  0  0
  6 11  1  0  0  0  0
  6  5  2  0  0  0  0
  7  1  1  0  0  0  0
  8  2  1  0  0  0  0
 11 13  2  0  0  0  0
 12 11  2  0  0  0  0
 15 14  3  0  0  0  0
M  RAD  1   3   2
M  END
