Coordinates from ORCA-job 4-NO2-Ph-N2+-scan-d090-169-n800
 OpenBabel09191814003D

 15 14  0  0  0  0  0  0  0  0999 V2000
   -2.3822   -0.2108   -0.6047 C   0  0  0  0  0  0  0  0  0  0  0  0
   -0.9610   -0.2560   -0.7292 C   0  0  0  0  0  0  0  0  0  0  0  0
   -0.5592    0.8671   -0.1400 C   0  0  0  0  0  0  0  0  0  0  0  0
   -0.8751    1.9901    0.4996 C   0  0  0  0  0  0  0  0  0  0  0  0
   -2.2997    1.9447    0.5745 C   0  0  0  0  0  0  0  0  0  0  0  0
   -3.0003    0.8669    0.0311 C   0  0  0  0  0  0  0  0  0  0  0  0
   -2.9672   -1.0317   -1.0149 H   0  0  0  0  0  0  0  0  0  0  0  0
   -0.3986   -1.0516   -1.2060 H   0  0  0  0  0  0  0  0  0  0  0  0
   -0.2518    2.7858    0.8933 H   0  0  0  0  0  0  0  0  0  0  0  0
   -2.8220    2.7655    1.0623 H   0  0  0  0  0  0  0  0  0  0  0  0
   -4.4831    0.8668    0.1349 N   0  0  0  0  0  0  0  0  0  0  0  0
   -5.0568   -0.0958   -0.3540 O   0  0  0  0  0  0  0  0  0  0  0  0
   -4.9831    1.8293    0.6992 O   0  0  0  0  0  0  0  0  0  0  0  0
    3.7745    0.8657   -0.4439 N   0  0  0  0  0  0  0  0  0  0  0  0
    4.8771    0.8654   -0.5210 N   0  0  0  0  0  0  0  0  0  0  0  0
  1  6  1  0  0  0  0
  2  1  2  0  0  0  0
  2  3  1  0  0  0  0
  3  4  2  0  0  0  0
  4  5  1  0  0  0  0
  4  9  1  0  0  0  0
  5 10  1  0  0  0  0
  6 11  1  0  0  0  0
  6  5  2  0  0  0  0
  7  1  1  0  0  0  0
  8  2  1  0  0  0  0
 11 13  2  0  0  0  0
 12 11  2  0  0  0  0
 15 14  3  0  0  0  0
M  RAD  1   3   2
M  END
