Coordinates from ORCA-job 4-NO2-Ph-N2+-scan-d090-169-n800
 OpenBabel09191814003D

 15 14  0  0  0  0  0  0  0  0999 V2000
   -2.0894   -0.2114   -0.6246 C   0  0  0  0  0  0  0  0  0  0  0  0
   -0.6832   -0.2455   -0.7425 C   0  0  0  0  0  0  0  0  0  0  0  0
   -0.1704    0.8666   -0.1672 C   0  0  0  0  0  0  0  0  0  0  0  0
   -0.5977    1.9787    0.4743 C   0  0  0  0  0  0  0  0  0  0  0  0
   -2.0066    1.9443    0.5546 C   0  0  0  0  0  0  0  0  0  0  0  0
   -2.7053    0.8664    0.0113 C   0  0  0  0  0  0  0  0  0  0  0  0
   -2.6863   -1.0235   -1.0290 H   0  0  0  0  0  0  0  0  0  0  0  0
   -0.1378   -1.0484   -1.2223 H   0  0  0  0  0  0  0  0  0  0  0  0
    0.0093    2.7817    0.8729 H   0  0  0  0  0  0  0  0  0  0  0  0
   -2.5411    2.7563    1.0386 H   0  0  0  0  0  0  0  0  0  0  0  0
   -4.1904    0.8662    0.1159 N   0  0  0  0  0  0  0  0  0  0  0  0
   -4.7684   -0.0931   -0.3756 O   0  0  0  0  0  0  0  0  0  0  0  0
   -4.6946    1.8294    0.6761 O   0  0  0  0  0  0  0  0  0  0  0  0
    1.8860    0.8668   -0.3119 N   0  0  0  0  0  0  0  0  0  0  0  0
    2.9873    0.8669   -0.3894 N   0  0  0  0  0  0  0  0  0  0  0  0
  1  6  1  0  0  0  0
  2  1  2  0  0  0  0
  2  3  1  0  0  0  0
  3  4  2  0  0  0  0
  4  5  1  0  0  0  0
  4  9  1  0  0  0  0
  5 10  1  0  0  0  0
  6 11  1  0  0  0  0
  6  5  2  0  0  0  0
  7  1  1  0  0  0  0
  8  2  1  0  0  0  0
 11 13  2  0  0  0  0
 12 11  2  0  0  0  0
 15 14  3  0  0  0  0
M  RAD  1   3   2
M  END
