Coordinates from ORCA-job 4-NO2-Ph-N2+-scan-d090-169-n800
 OpenBabel09191814013D

 15 14  0  0  0  0  0  0  0  0999 V2000
   -3.5425   -0.2064   -0.5212 C   0  0  0  0  0  0  0  0  0  0  0  0
   -2.1205   -0.2429   -0.6411 C   0  0  0  0  0  0  0  0  0  0  0  0
   -1.7279    0.8825   -0.0501 C   0  0  0  0  0  0  0  0  0  0  0  0
   -2.0526    2.0034    0.5889 C   0  0  0  0  0  0  0  0  0  0  0  0
   -3.4774    1.9488    0.6590 C   0  0  0  0  0  0  0  0  0  0  0  0
   -4.1695    0.8670    0.1130 C   0  0  0  0  0  0  0  0  0  0  0  0
   -4.1208   -1.0310   -0.9338 H   0  0  0  0  0  0  0  0  0  0  0  0
   -1.5530   -1.0357   -1.1168 H   0  0  0  0  0  0  0  0  0  0  0  0
   -1.4369    2.8036    0.9856 H   0  0  0  0  0  0  0  0  0  0  0  0
   -4.0060    2.7664    1.1456 H   0  0  0  0  0  0  0  0  0  0  0  0
   -5.6527    0.8576    0.2120 N   0  0  0  0  0  0  0  0  0  0  0  0
   -6.2185   -0.1084   -0.2793 O   0  0  0  0  0  0  0  0  0  0  0  0
   -6.1603    1.8168    0.7751 O   0  0  0  0  0  0  0  0  0  0  0  0
   11.3737    0.8412   -0.9890 N   0  0  0  0  0  0  0  0  0  0  0  0
   12.4764    0.8386   -1.0668 N   0  0  0  0  0  0  0  0  0  0  0  0
  1  6  1  0  0  0  0
  2  1  2  0  0  0  0
  2  3  1  0  0  0  0
  3  4  2  0  0  0  0
  4  5  1  0  0  0  0
  4  9  1  0  0  0  0
  5 10  1  0  0  0  0
  6 11  1  0  0  0  0
  6  5  2  0  0  0  0
  7  1  1  0  0  0  0
  8  2  1  0  0  0  0
 11 13  2  0  0  0  0
 12 11  2  0  0  0  0
 15 14  3  0  0  0  0
M  RAD  1   3   2
M  END
