Coordinates from ORCA-job 4-NO2-Ph-N2+-scan-d090-169-n800
 OpenBabel09191814003D

 15 14  0  0  0  0  0  0  0  0999 V2000
   -2.1971   -0.2110   -0.6178 C   0  0  0  0  0  0  0  0  0  0  0  0
   -0.7781   -0.2549   -0.7412 C   0  0  0  0  0  0  0  0  0  0  0  0
   -0.3623    0.8667   -0.1538 C   0  0  0  0  0  0  0  0  0  0  0  0
   -0.6920    1.9883    0.4858 C   0  0  0  0  0  0  0  0  0  0  0  0
   -2.1144    1.9447    0.5615 C   0  0  0  0  0  0  0  0  0  0  0  0
   -2.8148    0.8669    0.0181 C   0  0  0  0  0  0  0  0  0  0  0  0
   -2.7843   -1.0303   -1.0270 H   0  0  0  0  0  0  0  0  0  0  0  0
   -0.2167   -1.0503   -1.2178 H   0  0  0  0  0  0  0  0  0  0  0  0
   -0.0695    2.7837    0.8795 H   0  0  0  0  0  0  0  0  0  0  0  0
   -2.6386    2.7640    1.0486 H   0  0  0  0  0  0  0  0  0  0  0  0
   -4.2977    0.8670    0.1220 N   0  0  0  0  0  0  0  0  0  0  0  0
   -4.8726   -0.0953   -0.3668 O   0  0  0  0  0  0  0  0  0  0  0  0
   -4.7987    1.8293    0.6861 O   0  0  0  0  0  0  0  0  0  0  0  0
    2.5730    0.8664   -0.3595 N   0  0  0  0  0  0  0  0  0  0  0  0
    3.6752    0.8663   -0.4366 N   0  0  0  0  0  0  0  0  0  0  0  0
  1  6  1  0  0  0  0
  2  1  2  0  0  0  0
  2  3  1  0  0  0  0
  3  4  2  0  0  0  0
  4  5  1  0  0  0  0
  4  9  1  0  0  0  0
  5 10  1  0  0  0  0
  6 11  1  0  0  0  0
  6  5  2  0  0  0  0
  7  1  1  0  0  0  0
  8  2  1  0  0  0  0
 11 13  2  0  0  0  0
 12 11  2  0  0  0  0
 15 14  3  0  0  0  0
M  RAD  1   3   2
M  END
