Coordinates from ORCA-job 4-NO2-Ph-N2+-scan-d090-169-n800
 OpenBabel09191814013D

 15 14  0  0  0  0  0  0  0  0999 V2000
   -3.4741   -0.2068   -0.5262 C   0  0  0  0  0  0  0  0  0  0  0  0
   -2.0521   -0.2441   -0.6466 C   0  0  0  0  0  0  0  0  0  0  0  0
   -1.6588    0.8811   -0.0556 C   0  0  0  0  0  0  0  0  0  0  0  0
   -1.9826    2.0023    0.5834 C   0  0  0  0  0  0  0  0  0  0  0  0
   -3.4073    1.9485    0.6540 C   0  0  0  0  0  0  0  0  0  0  0  0
   -4.1003    0.8671    0.1082 C   0  0  0  0  0  0  0  0  0  0  0  0
   -4.0529   -1.0310   -0.9386 H   0  0  0  0  0  0  0  0  0  0  0  0
   -1.4851   -1.0372   -1.1223 H   0  0  0  0  0  0  0  0  0  0  0  0
   -1.3663    2.8022    0.9798 H   0  0  0  0  0  0  0  0  0  0  0  0
   -3.9354    2.7663    1.1406 H   0  0  0  0  0  0  0  0  0  0  0  0
   -5.5834    0.8585    0.2076 N   0  0  0  0  0  0  0  0  0  0  0  0
   -6.1499   -0.1072   -0.2835 O   0  0  0  0  0  0  0  0  0  0  0  0
   -6.0903    1.8180    0.7708 O   0  0  0  0  0  0  0  0  0  0  0  0
   10.9236    0.8431   -0.9564 N   0  0  0  0  0  0  0  0  0  0  0  0
   12.0263    0.8407   -1.0342 N   0  0  0  0  0  0  0  0  0  0  0  0
  1  6  1  0  0  0  0
  2  1  2  0  0  0  0
  2  3  1  0  0  0  0
  3  4  2  0  0  0  0
  4  5  1  0  0  0  0
  4  9  1  0  0  0  0
  5 10  1  0  0  0  0
  6 11  1  0  0  0  0
  6  5  2  0  0  0  0
  7  1  1  0  0  0  0
  8  2  1  0  0  0  0
 11 13  2  0  0  0  0
 12 11  2  0  0  0  0
 15 14  3  0  0  0  0
M  RAD  1   3   2
M  END
