Coordinates from ORCA-job 4-NO2-Ph-N2+-scan-d090-169-n800
 OpenBabel09191814003D

 15 15  0  0  0  0  0  0  0  0999 V2000
   -1.9976   -0.2128   -0.6327 C   0  0  0  0  0  0  0  0  0  0  0  0
   -0.6222   -0.2264   -0.7364 C   0  0  0  0  0  0  0  0  0  0  0  0
    0.1466    0.8666   -0.1894 C   0  0  0  0  0  0  0  0  0  0  0  0
   -0.5383    1.9598    0.4594 C   0  0  0  0  0  0  0  0  0  0  0  0
   -1.9147    1.9464    0.5485 C   0  0  0  0  0  0  0  0  0  0  0  0
   -2.6153    0.8668    0.0041 C   0  0  0  0  0  0  0  0  0  0  0  0
   -2.6042   -1.0180   -1.0328 H   0  0  0  0  0  0  0  0  0  0  0  0
   -0.0949   -1.0421   -1.2218 H   0  0  0  0  0  0  0  0  0  0  0  0
    0.0517    2.7755    0.8665 H   0  0  0  0  0  0  0  0  0  0  0  0
   -2.4594    2.7517    1.0293 H   0  0  0  0  0  0  0  0  0  0  0  0
   -4.1069    0.8670    0.1086 N   0  0  0  0  0  0  0  0  0  0  0  0
   -4.6817   -0.0951   -0.3801 O   0  0  0  0  0  0  0  0  0  0  0  0
   -4.6078    1.8291    0.6726 O   0  0  0  0  0  0  0  0  0  0  0  0
    1.2641    0.8666   -0.2678 N   0  0  0  0  0  0  0  0  0  0  0  0
    2.3923    0.8665   -0.3468 N   0  0  0  0  0  0  0  0  0  0  0  0
  1  6  1  0  0  0  0
  2  1  2  0  0  0  0
  2  3  1  0  0  0  0
  3  4  2  0  0  0  0
  4  5  1  0  0  0  0
  4  9  1  0  0  0  0
  5 10  1  0  0  0  0
  6 11  1  0  0  0  0
  6  5  2  0  0  0  0
  7  1  1  0  0  0  0
  8  2  1  0  0  0  0
 11 13  2  0  0  0  0
 12 11  2  0  0  0  0
 14  3  1  0  0  0  0
 15 14  1  0  0  0  0
M  RAD  2  14   2  15   3
M  END
