Coordinates from ORCA-job 4-NO2-Ph-N2+-scan-d090-169-n800
 OpenBabel09191814013D

 15 14  0  0  0  0  0  0  0  0999 V2000
   -2.8195   -0.2096   -0.5735 C   0  0  0  0  0  0  0  0  0  0  0  0
   -1.3981   -0.2528   -0.6970 C   0  0  0  0  0  0  0  0  0  0  0  0
   -0.9985    0.8709   -0.1073 C   0  0  0  0  0  0  0  0  0  0  0  0
   -1.3164    1.9934    0.5321 C   0  0  0  0  0  0  0  0  0  0  0  0
   -2.7411    1.9458    0.6059 C   0  0  0  0  0  0  0  0  0  0  0  0
   -3.4398    0.8671    0.0619 C   0  0  0  0  0  0  0  0  0  0  0  0
   -3.4026   -1.0315   -0.9844 H   0  0  0  0  0  0  0  0  0  0  0  0
   -0.8354   -1.0483   -1.1738 H   0  0  0  0  0  0  0  0  0  0  0  0
   -0.6957    2.7908    0.9268 H   0  0  0  0  0  0  0  0  0  0  0  0
   -3.2645    2.7660    1.0935 H   0  0  0  0  0  0  0  0  0  0  0  0
   -4.9227    0.8647    0.1648 N   0  0  0  0  0  0  0  0  0  0  0  0
   -5.4944   -0.0987   -0.3248 O   0  0  0  0  0  0  0  0  0  0  0  0
   -5.4243    1.8265    0.7287 O   0  0  0  0  0  0  0  0  0  0  0  0
    6.6308    0.8593   -0.6472 N   0  0  0  0  0  0  0  0  0  0  0  0
    7.7336    0.8581   -0.7246 N   0  0  0  0  0  0  0  0  0  0  0  0
  1  6  1  0  0  0  0
  2  1  2  0  0  0  0
  2  3  1  0  0  0  0
  3  4  2  0  0  0  0
  4  5  1  0  0  0  0
  4  9  1  0  0  0  0
  5 10  1  0  0  0  0
  6 11  1  0  0  0  0
  6  5  2  0  0  0  0
  7  1  1  0  0  0  0
  8  2  1  0  0  0  0
 11 13  2  0  0  0  0
 12 11  2  0  0  0  0
 15 14  3  0  0  0  0
M  RAD  1   3   2
M  END
