Coordinates from ORCA-job 4-NO2-Ph-N2+-scan-d090-169-n800
 OpenBabel09191814013D

 15 14  0  0  0  0  0  0  0  0999 V2000
   -3.6399   -0.2059   -0.5141 C   0  0  0  0  0  0  0  0  0  0  0  0
   -2.2178   -0.2412   -0.6334 C   0  0  0  0  0  0  0  0  0  0  0  0
   -1.8264    0.8845   -0.0421 C   0  0  0  0  0  0  0  0  0  0  0  0
   -2.1523    2.0050    0.5968 C   0  0  0  0  0  0  0  0  0  0  0  0
   -3.5771    1.9493    0.6663 C   0  0  0  0  0  0  0  0  0  0  0  0
   -4.2681    0.8670    0.1198 C   0  0  0  0  0  0  0  0  0  0  0  0
   -4.2173   -1.0309   -0.9270 H   0  0  0  0  0  0  0  0  0  0  0  0
   -1.6494   -1.0335   -1.1088 H   0  0  0  0  0  0  0  0  0  0  0  0
   -1.5375    2.8058    0.9938 H   0  0  0  0  0  0  0  0  0  0  0  0
   -4.1065    2.7664    1.1526 H   0  0  0  0  0  0  0  0  0  0  0  0
   -5.7513    0.8563    0.2182 N   0  0  0  0  0  0  0  0  0  0  0  0
   -6.3161   -0.1101   -0.2734 O   0  0  0  0  0  0  0  0  0  0  0  0
   -6.2599    1.8151    0.7810 O   0  0  0  0  0  0  0  0  0  0  0  0
   12.0142    0.8382   -1.0354 N   0  0  0  0  0  0  0  0  0  0  0  0
   13.1169    0.8356   -1.1133 N   0  0  0  0  0  0  0  0  0  0  0  0
  1  6  1  0  0  0  0
  2  1  2  0  0  0  0
  2  3  1  0  0  0  0
  3  4  2  0  0  0  0
  4  5  1  0  0  0  0
  4  9  1  0  0  0  0
  5 10  1  0  0  0  0
  6 11  1  0  0  0  0
  6  5  2  0  0  0  0
  7  1  1  0  0  0  0
  8  2  1  0  0  0  0
 11 13  2  0  0  0  0
 12 11  2  0  0  0  0
 15 14  3  0  0  0  0
M  RAD  1   3   2
M  END
