Coordinates from ORCA-job 4-NO2-Ph-N2+-scan-d090-169-n800
 OpenBabel09191814003D

 15 14  0  0  0  0  0  0  0  0999 V2000
   -2.2999   -0.2110   -0.6105 C   0  0  0  0  0  0  0  0  0  0  0  0
   -0.8792   -0.2558   -0.7347 C   0  0  0  0  0  0  0  0  0  0  0  0
   -0.4754    0.8668   -0.1459 C   0  0  0  0  0  0  0  0  0  0  0  0
   -0.7931    1.9895    0.4935 C   0  0  0  0  0  0  0  0  0  0  0  0
   -2.2172    1.9447    0.5687 C   0  0  0  0  0  0  0  0  0  0  0  0
   -2.9179    0.8669    0.0253 C   0  0  0  0  0  0  0  0  0  0  0  0
   -2.8852   -1.0316   -1.0206 H   0  0  0  0  0  0  0  0  0  0  0  0
   -0.3163   -1.0510   -1.2113 H   0  0  0  0  0  0  0  0  0  0  0  0
   -0.1691    2.7846    0.8869 H   0  0  0  0  0  0  0  0  0  0  0  0
   -2.7395    2.7653    1.0564 H   0  0  0  0  0  0  0  0  0  0  0  0
   -4.4007    0.8669    0.1292 N   0  0  0  0  0  0  0  0  0  0  0  0
   -4.9747   -0.0956   -0.3597 O   0  0  0  0  0  0  0  0  0  0  0  0
   -4.9008    1.8295    0.6934 O   0  0  0  0  0  0  0  0  0  0  0  0
    3.2391    0.8662   -0.4061 N   0  0  0  0  0  0  0  0  0  0  0  0
    4.3415    0.8661   -0.4833 N   0  0  0  0  0  0  0  0  0  0  0  0
  1  6  1  0  0  0  0
  2  1  2  0  0  0  0
  2  3  1  0  0  0  0
  3  4  2  0  0  0  0
  4  5  1  0  0  0  0
  4  9  1  0  0  0  0
  5 10  1  0  0  0  0
  6 11  1  0  0  0  0
  6  5  2  0  0  0  0
  7  1  1  0  0  0  0
  8  2  1  0  0  0  0
 11 13  2  0  0  0  0
 12 11  2  0  0  0  0
 15 14  3  0  0  0  0
M  RAD  1   3   2
M  END
