Coordinates from ORCA-job 4-NO2-Ph-N2+-scan-d090-169-n800
 OpenBabel09191814013D

 15 14  0  0  0  0  0  0  0  0999 V2000
   -3.4214   -0.2071   -0.5300 C   0  0  0  0  0  0  0  0  0  0  0  0
   -1.9996   -0.2448   -0.6506 C   0  0  0  0  0  0  0  0  0  0  0  0
   -1.6053    0.8802   -0.0599 C   0  0  0  0  0  0  0  0  0  0  0  0
   -1.9289    2.0012    0.5791 C   0  0  0  0  0  0  0  0  0  0  0  0
   -3.3535    1.9483    0.6501 C   0  0  0  0  0  0  0  0  0  0  0  0
   -4.0471    0.8671    0.1044 C   0  0  0  0  0  0  0  0  0  0  0  0
   -4.0005   -1.0312   -0.9423 H   0  0  0  0  0  0  0  0  0  0  0  0
   -1.4331   -1.0382   -1.1265 H   0  0  0  0  0  0  0  0  0  0  0  0
   -1.3122    2.8010    0.9754 H   0  0  0  0  0  0  0  0  0  0  0  0
   -3.8808    2.7664    1.1369 H   0  0  0  0  0  0  0  0  0  0  0  0
   -5.5302    0.8591    0.2043 N   0  0  0  0  0  0  0  0  0  0  0  0
   -6.0972   -0.1064   -0.2867 O   0  0  0  0  0  0  0  0  0  0  0  0
   -6.0366    1.8189    0.7675 O   0  0  0  0  0  0  0  0  0  0  0  0
   10.5776    0.8446   -0.9314 N   0  0  0  0  0  0  0  0  0  0  0  0
   11.6803    0.8423   -1.0091 N   0  0  0  0  0  0  0  0  0  0  0  0
  1  6  1  0  0  0  0
  2  1  2  0  0  0  0
  2  3  1  0  0  0  0
  3  4  2  0  0  0  0
  4  5  1  0  0  0  0
  4  9  1  0  0  0  0
  5 10  1  0  0  0  0
  6 11  1  0  0  0  0
  6  5  2  0  0  0  0
  7  1  1  0  0  0  0
  8  2  1  0  0  0  0
 11 13  2  0  0  0  0
 12 11  2  0  0  0  0
 15 14  3  0  0  0  0
M  RAD  1   3   2
M  END
