Coordinates from ORCA-job 4-NO2-Ph-N2+-scan-d090-169-n800
 OpenBabel09191814013D

 15 14  0  0  0  0  0  0  0  0999 V2000
   -2.9940   -0.2090   -0.5609 C   0  0  0  0  0  0  0  0  0  0  0  0
   -1.5725   -0.2507   -0.6837 C   0  0  0  0  0  0  0  0  0  0  0  0
   -1.1741    0.8732   -0.0939 C   0  0  0  0  0  0  0  0  0  0  0  0
   -1.4934    1.9953    0.5454 C   0  0  0  0  0  0  0  0  0  0  0  0
   -2.9181    1.9464    0.6186 C   0  0  0  0  0  0  0  0  0  0  0  0
   -3.6156    0.8671    0.0743 C   0  0  0  0  0  0  0  0  0  0  0  0
   -3.5760   -1.0315   -0.9722 H   0  0  0  0  0  0  0  0  0  0  0  0
   -1.0090   -1.0458   -1.1604 H   0  0  0  0  0  0  0  0  0  0  0  0
   -0.8738    2.7933    0.9406 H   0  0  0  0  0  0  0  0  0  0  0  0
   -3.4424    2.7662    1.1061 H   0  0  0  0  0  0  0  0  0  0  0  0
   -5.0986    0.8634    0.1764 N   0  0  0  0  0  0  0  0  0  0  0  0
   -5.6691   -0.1006   -0.3135 O   0  0  0  0  0  0  0  0  0  0  0  0
   -5.6013    1.8247    0.7402 O   0  0  0  0  0  0  0  0  0  0  0  0
    7.7734    0.8555   -0.7292 N   0  0  0  0  0  0  0  0  0  0  0  0
    8.8761    0.8539   -0.8067 N   0  0  0  0  0  0  0  0  0  0  0  0
  1  6  1  0  0  0  0
  2  1  2  0  0  0  0
  2  3  1  0  0  0  0
  3  4  2  0  0  0  0
  4  5  1  0  0  0  0
  4  9  1  0  0  0  0
  5 10  1  0  0  0  0
  6 11  1  0  0  0  0
  6  5  2  0  0  0  0
  7  1  1  0  0  0  0
  8  2  1  0  0  0  0
 11 13  2  0  0  0  0
 12 11  2  0  0  0  0
 15 14  3  0  0  0  0
M  RAD  1   3   2
M  END
