Coordinates from ORCA-job 4-NO2-Ph-N2+-scan-d090-169-n800
 OpenBabel09191814013D

 15 14  0  0  0  0  0  0  0  0999 V2000
   -3.5294   -0.2065   -0.5221 C   0  0  0  0  0  0  0  0  0  0  0  0
   -2.1074   -0.2432   -0.6422 C   0  0  0  0  0  0  0  0  0  0  0  0
   -1.7146    0.8822   -0.0511 C   0  0  0  0  0  0  0  0  0  0  0  0
   -2.0392    2.0031    0.5879 C   0  0  0  0  0  0  0  0  0  0  0  0
   -3.4639    1.9488    0.6581 C   0  0  0  0  0  0  0  0  0  0  0  0
   -4.1562    0.8670    0.1121 C   0  0  0  0  0  0  0  0  0  0  0  0
   -4.1077   -1.0310   -0.9347 H   0  0  0  0  0  0  0  0  0  0  0  0
   -1.5400   -1.0360   -1.1179 H   0  0  0  0  0  0  0  0  0  0  0  0
   -1.4234    2.8033    0.9845 H   0  0  0  0  0  0  0  0  0  0  0  0
   -3.9924    2.7664    1.1446 H   0  0  0  0  0  0  0  0  0  0  0  0
   -5.6394    0.8578    0.2112 N   0  0  0  0  0  0  0  0  0  0  0  0
   -6.2053   -0.1082   -0.2801 O   0  0  0  0  0  0  0  0  0  0  0  0
   -6.1468    1.8171    0.7742 O   0  0  0  0  0  0  0  0  0  0  0  0
   11.2872    0.8415   -0.9827 N   0  0  0  0  0  0  0  0  0  0  0  0
   12.3899    0.8390   -1.0605 N   0  0  0  0  0  0  0  0  0  0  0  0
  1  6  1  0  0  0  0
  2  1  2  0  0  0  0
  2  3  1  0  0  0  0
  3  4  2  0  0  0  0
  4  5  1  0  0  0  0
  4  9  1  0  0  0  0
  5 10  1  0  0  0  0
  6 11  1  0  0  0  0
  6  5  2  0  0  0  0
  7  1  1  0  0  0  0
  8  2  1  0  0  0  0
 11 13  2  0  0  0  0
 12 11  2  0  0  0  0
 15 14  3  0  0  0  0
M  RAD  1   3   2
M  END
