Coordinates from ORCA-job 4-NO2-Ph-N2+-scan-d090-169-n800
 OpenBabel09191814013D

 15 14  0  0  0  0  0  0  0  0999 V2000
   -3.0785   -0.2086   -0.5548 C   0  0  0  0  0  0  0  0  0  0  0  0
   -1.6569   -0.2499   -0.6774 C   0  0  0  0  0  0  0  0  0  0  0  0
   -1.2595    0.8744   -0.0873 C   0  0  0  0  0  0  0  0  0  0  0  0
   -1.5792    1.9965    0.5521 C   0  0  0  0  0  0  0  0  0  0  0  0
   -3.0040    1.9467    0.6248 C   0  0  0  0  0  0  0  0  0  0  0  0
   -3.7007    0.8671    0.0802 C   0  0  0  0  0  0  0  0  0  0  0  0
   -3.6603   -1.0313   -0.9662 H   0  0  0  0  0  0  0  0  0  0  0  0
   -1.0928   -1.0446   -1.1539 H   0  0  0  0  0  0  0  0  0  0  0  0
   -0.9601    2.7948    0.9474 H   0  0  0  0  0  0  0  0  0  0  0  0
   -3.5290    2.7661    1.1121 H   0  0  0  0  0  0  0  0  0  0  0  0
   -5.1838    0.8627    0.1820 N   0  0  0  0  0  0  0  0  0  0  0  0
   -5.7537   -0.1016   -0.3081 O   0  0  0  0  0  0  0  0  0  0  0  0
   -5.6871    1.8237    0.7457 O   0  0  0  0  0  0  0  0  0  0  0  0
    8.3272    0.8536   -0.7690 N   0  0  0  0  0  0  0  0  0  0  0  0
    9.4299    0.8518   -0.8466 N   0  0  0  0  0  0  0  0  0  0  0  0
  1  6  1  0  0  0  0
  2  1  2  0  0  0  0
  2  3  1  0  0  0  0
  3  4  2  0  0  0  0
  4  5  1  0  0  0  0
  4  9  1  0  0  0  0
  5 10  1  0  0  0  0
  6 11  1  0  0  0  0
  6  5  2  0  0  0  0
  7  1  1  0  0  0  0
  8  2  1  0  0  0  0
 11 13  2  0  0  0  0
 12 11  2  0  0  0  0
 15 14  3  0  0  0  0
M  RAD  1   3   2
M  END
