Coordinates from ORCA-job 4-NO2-Ph-N2+-scan-d090-169-n800
 OpenBabel09191814013D

 15 14  0  0  0  0  0  0  0  0999 V2000
   -3.9947   -0.2040   -0.4882 C   0  0  0  0  0  0  0  0  0  0  0  0
   -2.5723   -0.2346   -0.6049 C   0  0  0  0  0  0  0  0  0  0  0  0
   -2.1858    0.8923   -0.0126 C   0  0  0  0  0  0  0  0  0  0  0  0
   -2.5165    2.0116    0.6260 C   0  0  0  0  0  0  0  0  0  0  0  0
   -3.9412    1.9512    0.6928 C   0  0  0  0  0  0  0  0  0  0  0  0
   -4.6276    0.8667    0.1448 C   0  0  0  0  0  0  0  0  0  0  0  0
   -4.5687   -1.0308   -0.9024 H   0  0  0  0  0  0  0  0  0  0  0  0
   -2.0004   -1.0248   -1.0795 H   0  0  0  0  0  0  0  0  0  0  0  0
   -1.9050    2.8143    1.0242 H   0  0  0  0  0  0  0  0  0  0  0  0
   -4.4742    2.7664    1.1784 H   0  0  0  0  0  0  0  0  0  0  0  0
   -6.1110    0.8512    0.2405 N   0  0  0  0  0  0  0  0  0  0  0  0
   -6.6716   -0.1170   -0.2524 O   0  0  0  0  0  0  0  0  0  0  0  0
   -6.6238    1.8081    0.8026 O   0  0  0  0  0  0  0  0  0  0  0  0
   14.3506    0.8230   -1.2073 N   0  0  0  0  0  0  0  0  0  0  0  0
   15.4536    0.8279   -1.2809 N   0  0  0  0  0  0  0  0  0  0  0  0
  1  6  1  0  0  0  0
  2  1  2  0  0  0  0
  2  3  1  0  0  0  0
  3  4  2  0  0  0  0
  4  5  1  0  0  0  0
  4  9  1  0  0  0  0
  5 10  1  0  0  0  0
  6 11  1  0  0  0  0
  6  5  2  0  0  0  0
  7  1  1  0  0  0  0
  8  2  1  0  0  0  0
 11 13  2  0  0  0  0
 12 11  2  0  0  0  0
 15 14  3  0  0  0  0
M  RAD  1   3   2
M  END
