Coordinates from ORCA-job 4-NO2-Ph-N2+-scan-d090-169-n800
 OpenBabel09191814013D

 15 14  0  0  0  0  0  0  0  0999 V2000
   -2.7242   -0.2099   -0.5804 C   0  0  0  0  0  0  0  0  0  0  0  0
   -1.3028   -0.2538   -0.7042 C   0  0  0  0  0  0  0  0  0  0  0  0
   -0.9028    0.8698   -0.1147 C   0  0  0  0  0  0  0  0  0  0  0  0
   -1.2198    1.9926    0.5248 C   0  0  0  0  0  0  0  0  0  0  0  0
   -2.6446    1.9455    0.5989 C   0  0  0  0  0  0  0  0  0  0  0  0
   -3.3439    0.8671    0.0551 C   0  0  0  0  0  0  0  0  0  0  0  0
   -3.3079   -1.0315   -0.9911 H   0  0  0  0  0  0  0  0  0  0  0  0
   -0.7405   -1.0496   -1.1811 H   0  0  0  0  0  0  0  0  0  0  0  0
   -0.5986    2.7896    0.9194 H   0  0  0  0  0  0  0  0  0  0  0  0
   -3.1676    2.7659    1.0866 H   0  0  0  0  0  0  0  0  0  0  0  0
   -4.8268    0.8654    0.1583 N   0  0  0  0  0  0  0  0  0  0  0  0
   -5.3990   -0.0980   -0.3308 O   0  0  0  0  0  0  0  0  0  0  0  0
   -5.3278    1.8273    0.7226 O   0  0  0  0  0  0  0  0  0  0  0  0
    6.0076    0.8611   -0.6025 N   0  0  0  0  0  0  0  0  0  0  0  0
    7.1103    0.8601   -0.6799 N   0  0  0  0  0  0  0  0  0  0  0  0
  1  6  1  0  0  0  0
  2  1  2  0  0  0  0
  2  3  1  0  0  0  0
  3  4  2  0  0  0  0
  4  5  1  0  0  0  0
  4  9  1  0  0  0  0
  5 10  1  0  0  0  0
  6 11  1  0  0  0  0
  6  5  2  0  0  0  0
  7  1  1  0  0  0  0
  8  2  1  0  0  0  0
 11 13  2  0  0  0  0
 12 11  2  0  0  0  0
 15 14  3  0  0  0  0
M  RAD  1   3   2
M  END
