Coordinates from ORCA-job 4-NO2-Ph-N2+-scan-d090-169-n800
 OpenBabel09191814013D

 15 14  0  0  0  0  0  0  0  0999 V2000
   -3.2896   -0.2077   -0.5395 C   0  0  0  0  0  0  0  0  0  0  0  0
   -1.8679   -0.2469   -0.6610 C   0  0  0  0  0  0  0  0  0  0  0  0
   -1.4723    0.8778   -0.0705 C   0  0  0  0  0  0  0  0  0  0  0  0
   -1.7943    1.9993    0.5686 C   0  0  0  0  0  0  0  0  0  0  0  0
   -3.2190    1.9477    0.6403 C   0  0  0  0  0  0  0  0  0  0  0  0
   -3.9139    0.8671    0.0951 C   0  0  0  0  0  0  0  0  0  0  0  0
   -3.8698   -1.0312   -0.9515 H   0  0  0  0  0  0  0  0  0  0  0  0
   -1.3024   -1.0408   -1.1371 H   0  0  0  0  0  0  0  0  0  0  0  0
   -1.1766    2.7984    0.9645 H   0  0  0  0  0  0  0  0  0  0  0  0
   -3.7454    2.7663    1.1273 H   0  0  0  0  0  0  0  0  0  0  0  0
   -5.3970    0.8606    0.1958 N   0  0  0  0  0  0  0  0  0  0  0  0
   -5.9652   -0.1044   -0.2948 O   0  0  0  0  0  0  0  0  0  0  0  0
   -5.9021    1.8209    0.7592 O   0  0  0  0  0  0  0  0  0  0  0  0
    9.7121    0.8482   -0.8688 N   0  0  0  0  0  0  0  0  0  0  0  0
   10.8148    0.8461   -0.9465 N   0  0  0  0  0  0  0  0  0  0  0  0
  1  6  1  0  0  0  0
  2  1  2  0  0  0  0
  2  3  1  0  0  0  0
  3  4  2  0  0  0  0
  4  5  1  0  0  0  0
  4  9  1  0  0  0  0
  5 10  1  0  0  0  0
  6 11  1  0  0  0  0
  6  5  2  0  0  0  0
  7  1  1  0  0  0  0
  8  2  1  0  0  0  0
 11 13  2  0  0  0  0
 12 11  2  0  0  0  0
 15 14  3  0  0  0  0
M  RAD  1   3   2
M  END
