Coordinates from ORCA-job 4-NO2-Ph-N2+-scan-d090-169-n800
 OpenBabel09191814013D

 15 14  0  0  0  0  0  0  0  0999 V2000
   -3.3107   -0.2076   -0.5380 C   0  0  0  0  0  0  0  0  0  0  0  0
   -1.8890   -0.2466   -0.6593 C   0  0  0  0  0  0  0  0  0  0  0  0
   -1.4936    0.8782   -0.0688 C   0  0  0  0  0  0  0  0  0  0  0  0
   -1.8158    1.9996    0.5703 C   0  0  0  0  0  0  0  0  0  0  0  0
   -3.2405    1.9477    0.6419 C   0  0  0  0  0  0  0  0  0  0  0  0
   -3.9352    0.8671    0.0966 C   0  0  0  0  0  0  0  0  0  0  0  0
   -3.8907   -1.0312   -0.9500 H   0  0  0  0  0  0  0  0  0  0  0  0
   -1.3233   -1.0404   -1.1355 H   0  0  0  0  0  0  0  0  0  0  0  0
   -1.1983    2.7988    0.9663 H   0  0  0  0  0  0  0  0  0  0  0  0
   -3.7670    2.7663    1.1289 H   0  0  0  0  0  0  0  0  0  0  0  0
   -5.4183    0.8604    0.1971 N   0  0  0  0  0  0  0  0  0  0  0  0
   -5.9863   -0.1047   -0.2935 O   0  0  0  0  0  0  0  0  0  0  0  0
   -5.9236    1.8206    0.7605 O   0  0  0  0  0  0  0  0  0  0  0  0
    9.8505    0.8477   -0.8788 N   0  0  0  0  0  0  0  0  0  0  0  0
   10.9533    0.8455   -0.9565 N   0  0  0  0  0  0  0  0  0  0  0  0
  1  6  1  0  0  0  0
  2  1  2  0  0  0  0
  2  3  1  0  0  0  0
  3  4  2  0  0  0  0
  4  5  1  0  0  0  0
  4  9  1  0  0  0  0
  5 10  1  0  0  0  0
  6 11  1  0  0  0  0
  6  5  2  0  0  0  0
  7  1  1  0  0  0  0
  8  2  1  0  0  0  0
 11 13  2  0  0  0  0
 12 11  2  0  0  0  0
 15 14  3  0  0  0  0
M  RAD  1   3   2
M  END
