Coordinates from ORCA-job 4-NO2-Ph-N2+-scan-d090-169-n800
 OpenBabel09191814003D

 15 14  0  0  0  0  0  0  0  0999 V2000
   -2.3343   -0.2109   -0.6082 C   0  0  0  0  0  0  0  0  0  0  0  0
   -0.9132   -0.2562   -0.7326 C   0  0  0  0  0  0  0  0  0  0  0  0
   -0.5113    0.8669   -0.1434 C   0  0  0  0  0  0  0  0  0  0  0  0
   -0.8271    1.9900    0.4961 C   0  0  0  0  0  0  0  0  0  0  0  0
   -2.2517    1.9448    0.5711 C   0  0  0  0  0  0  0  0  0  0  0  0
   -2.9523    0.8669    0.0277 C   0  0  0  0  0  0  0  0  0  0  0  0
   -2.9198   -1.0315   -1.0182 H   0  0  0  0  0  0  0  0  0  0  0  0
   -0.3502   -1.0514   -1.2092 H   0  0  0  0  0  0  0  0  0  0  0  0
   -0.2032    2.7853    0.8896 H   0  0  0  0  0  0  0  0  0  0  0  0
   -2.7743    2.7653    1.0588 H   0  0  0  0  0  0  0  0  0  0  0  0
   -4.4351    0.8669    0.1316 N   0  0  0  0  0  0  0  0  0  0  0  0
   -5.0089   -0.0957   -0.3573 O   0  0  0  0  0  0  0  0  0  0  0  0
   -4.9352    1.8294    0.6959 O   0  0  0  0  0  0  0  0  0  0  0  0
    3.4628    0.8660   -0.4219 N   0  0  0  0  0  0  0  0  0  0  0  0
    4.5653    0.8658   -0.4990 N   0  0  0  0  0  0  0  0  0  0  0  0
  1  6  1  0  0  0  0
  2  1  2  0  0  0  0
  2  3  1  0  0  0  0
  3  4  2  0  0  0  0
  4  5  1  0  0  0  0
  4  9  1  0  0  0  0
  5 10  1  0  0  0  0
  6 11  1  0  0  0  0
  6  5  2  0  0  0  0
  7  1  1  0  0  0  0
  8  2  1  0  0  0  0
 11 13  2  0  0  0  0
 12 11  2  0  0  0  0
 15 14  3  0  0  0  0
M  RAD  1   3   2
M  END
