Coordinates from ORCA-job 4-NO2-Ph-N2+-scan-d090-169-n800
 OpenBabel09191814003D

 15 14  0  0  0  0  0  0  0  0999 V2000
   -2.1242   -0.2109   -0.6228 C   0  0  0  0  0  0  0  0  0  0  0  0
   -0.7111   -0.2506   -0.7436 C   0  0  0  0  0  0  0  0  0  0  0  0
   -0.2500    0.8667   -0.1617 C   0  0  0  0  0  0  0  0  0  0  0  0
   -0.6253    1.9841    0.4788 C   0  0  0  0  0  0  0  0  0  0  0  0
   -2.0414    1.9445    0.5563 C   0  0  0  0  0  0  0  0  0  0  0  0
   -2.7410    0.8669    0.0129 C   0  0  0  0  0  0  0  0  0  0  0  0
   -2.7157   -1.0268   -1.0298 H   0  0  0  0  0  0  0  0  0  0  0  0
   -0.1585   -1.0500   -1.2217 H   0  0  0  0  0  0  0  0  0  0  0  0
   -0.0112    2.7833    0.8752 H   0  0  0  0  0  0  0  0  0  0  0  0
   -2.5703    2.7605    1.0419 H   0  0  0  0  0  0  0  0  0  0  0  0
   -4.2248    0.8670    0.1168 N   0  0  0  0  0  0  0  0  0  0  0  0
   -4.8013   -0.0948   -0.3715 O   0  0  0  0  0  0  0  0  0  0  0  0
   -4.7274    1.8288    0.6808 O   0  0  0  0  0  0  0  0  0  0  0  0
    2.1060    0.8665   -0.3267 N   0  0  0  0  0  0  0  0  0  0  0  0
    3.2077    0.8664   -0.4039 N   0  0  0  0  0  0  0  0  0  0  0  0
  1  6  1  0  0  0  0
  2  1  2  0  0  0  0
  2  3  1  0  0  0  0
  3  4  2  0  0  0  0
  4  5  1  0  0  0  0
  4  9  1  0  0  0  0
  5 10  1  0  0  0  0
  6 11  1  0  0  0  0
  6  5  2  0  0  0  0
  7  1  1  0  0  0  0
  8  2  1  0  0  0  0
 11 13  2  0  0  0  0
 12 11  2  0  0  0  0
 15 14  3  0  0  0  0
M  RAD  1   3   2
M  END
