Coordinates from ORCA-job 4-NO2-Ph-N2+-scan-d090-169-n800
 OpenBabel09191814003D

 15 15  0  0  0  0  0  0  0  0999 V2000
   -2.0700   -0.2117   -0.6262 C   0  0  0  0  0  0  0  0  0  0  0  0
   -0.6693   -0.2409   -0.7409 C   0  0  0  0  0  0  0  0  0  0  0  0
   -0.1133    0.8667   -0.1712 C   0  0  0  0  0  0  0  0  0  0  0  0
   -0.5842    1.9741    0.4708 C   0  0  0  0  0  0  0  0  0  0  0  0
   -1.9872    1.9447    0.5533 C   0  0  0  0  0  0  0  0  0  0  0  0
   -2.6851    0.8664    0.0098 C   0  0  0  0  0  0  0  0  0  0  0  0
   -2.6712   -1.0206   -1.0286 H   0  0  0  0  0  0  0  0  0  0  0  0
   -0.1291   -1.0468   -1.2220 H   0  0  0  0  0  0  0  0  0  0  0  0
    0.0178    2.7801    0.8714 H   0  0  0  0  0  0  0  0  0  0  0  0
   -2.5263    2.7535    1.0359 H   0  0  0  0  0  0  0  0  0  0  0  0
   -4.1715    0.8662    0.1144 N   0  0  0  0  0  0  0  0  0  0  0  0
   -4.7503   -0.0929   -0.3766 O   0  0  0  0  0  0  0  0  0  0  0  0
   -4.6765    1.8290    0.6749 O   0  0  0  0  0  0  0  0  0  0  0  0
    1.7633    0.8668   -0.3033 N   0  0  0  0  0  0  0  0  0  0  0  0
    2.8646    0.8669   -0.3807 N   0  0  0  0  0  0  0  0  0  0  0  0
  1  6  1  0  0  0  0
  2  1  2  0  0  0  0
  2  3  1  0  0  0  0
  3  4  2  0  0  0  0
  4  5  1  0  0  0  0
  4  9  1  0  0  0  0
  5 10  1  0  0  0  0
  6 11  1  0  0  0  0
  6  5  2  0  0  0  0
  7  1  1  0  0  0  0
  8  2  1  0  0  0  0
 11 13  2  0  0  0  0
 12 11  2  0  0  0  0
 14  3  1  0  0  0  0
 15 14  1  0  0  0  0
M  RAD  2  14   2  15   3
M  END
