Coordinates from ORCA-job 4-NO2-Ph-N2+-scan-d090-169-n800
 OpenBabel09191814013D

 15 14  0  0  0  0  0  0  0  0999 V2000
   -3.0468   -0.2087   -0.5571 C   0  0  0  0  0  0  0  0  0  0  0  0
   -1.6252   -0.2503   -0.6798 C   0  0  0  0  0  0  0  0  0  0  0  0
   -1.2276    0.8739   -0.0897 C   0  0  0  0  0  0  0  0  0  0  0  0
   -1.5470    1.9961    0.5496 C   0  0  0  0  0  0  0  0  0  0  0  0
   -2.9718    1.9466    0.6225 C   0  0  0  0  0  0  0  0  0  0  0  0
   -3.6688    0.8671    0.0780 C   0  0  0  0  0  0  0  0  0  0  0  0
   -3.6288   -1.0313   -0.9684 H   0  0  0  0  0  0  0  0  0  0  0  0
   -1.0613   -1.0451   -1.1563 H   0  0  0  0  0  0  0  0  0  0  0  0
   -0.9276    2.7942    0.9448 H   0  0  0  0  0  0  0  0  0  0  0  0
   -3.4966    2.7661    1.1098 H   0  0  0  0  0  0  0  0  0  0  0  0
   -5.1518    0.8630    0.1799 N   0  0  0  0  0  0  0  0  0  0  0  0
   -5.7219   -0.1012   -0.3101 O   0  0  0  0  0  0  0  0  0  0  0  0
   -5.6549    1.8241    0.7436 O   0  0  0  0  0  0  0  0  0  0  0  0
    8.1194    0.8543   -0.7541 N   0  0  0  0  0  0  0  0  0  0  0  0
    9.2221    0.8526   -0.8316 N   0  0  0  0  0  0  0  0  0  0  0  0
  1  6  1  0  0  0  0
  2  1  2  0  0  0  0
  2  3  1  0  0  0  0
  3  4  2  0  0  0  0
  4  5  1  0  0  0  0
  4  9  1  0  0  0  0
  5 10  1  0  0  0  0
  6 11  1  0  0  0  0
  6  5  2  0  0  0  0
  7  1  1  0  0  0  0
  8  2  1  0  0  0  0
 11 13  2  0  0  0  0
 12 11  2  0  0  0  0
 15 14  3  0  0  0  0
M  RAD  1   3   2
M  END
