Coordinates from ORCA-job 4-NO2-Ph-N2+-scan-d090-169-n800
 OpenBabel09191814013D

 15 14  0  0  0  0  0  0  0  0999 V2000
   -2.5361   -0.2105   -0.5938 C   0  0  0  0  0  0  0  0  0  0  0  0
   -1.1148   -0.2553   -0.7181 C   0  0  0  0  0  0  0  0  0  0  0  0
   -0.7138    0.8680   -0.1287 C   0  0  0  0  0  0  0  0  0  0  0  0
   -1.0298    1.9910    0.5108 C   0  0  0  0  0  0  0  0  0  0  0  0
   -2.4546    1.9450    0.5854 C   0  0  0  0  0  0  0  0  0  0  0  0
   -3.1547    0.8670    0.0419 C   0  0  0  0  0  0  0  0  0  0  0  0
   -3.1206   -1.0317   -1.0042 H   0  0  0  0  0  0  0  0  0  0  0  0
   -0.5529   -1.0513   -1.1950 H   0  0  0  0  0  0  0  0  0  0  0  0
   -0.4076    2.7874    0.9050 H   0  0  0  0  0  0  0  0  0  0  0  0
   -2.9769    2.7657    1.0732 H   0  0  0  0  0  0  0  0  0  0  0  0
   -4.6376    0.8663    0.1456 N   0  0  0  0  0  0  0  0  0  0  0  0
   -5.2107   -0.0965   -0.3436 O   0  0  0  0  0  0  0  0  0  0  0  0
   -5.1379    1.8287    0.7097 O   0  0  0  0  0  0  0  0  0  0  0  0
    4.7784    0.8641   -0.5150 N   0  0  0  0  0  0  0  0  0  0  0  0
    5.8811    0.8636   -0.5922 N   0  0  0  0  0  0  0  0  0  0  0  0
  1  6  1  0  0  0  0
  2  1  2  0  0  0  0
  2  3  1  0  0  0  0
  3  4  2  0  0  0  0
  4  5  1  0  0  0  0
  4  9  1  0  0  0  0
  5 10  1  0  0  0  0
  6 11  1  0  0  0  0
  6  5  2  0  0  0  0
  7  1  1  0  0  0  0
  8  2  1  0  0  0  0
 11 13  2  0  0  0  0
 12 11  2  0  0  0  0
 15 14  3  0  0  0  0
M  RAD  1   3   2
M  END
