Coordinates from ORCA-job 4-NO2-Ph-N2+-scan-d090-169-n800
 OpenBabel09191814013D

 15 14  0  0  0  0  0  0  0  0999 V2000
   -3.4583   -0.2069   -0.5273 C   0  0  0  0  0  0  0  0  0  0  0  0
   -2.0363   -0.2444   -0.6478 C   0  0  0  0  0  0  0  0  0  0  0  0
   -1.6428    0.8808   -0.0569 C   0  0  0  0  0  0  0  0  0  0  0  0
   -1.9664    2.0020    0.5821 C   0  0  0  0  0  0  0  0  0  0  0  0
   -3.3912    1.9484    0.6528 C   0  0  0  0  0  0  0  0  0  0  0  0
   -4.0843    0.8671    0.1070 C   0  0  0  0  0  0  0  0  0  0  0  0
   -4.0372   -1.0310   -0.9397 H   0  0  0  0  0  0  0  0  0  0  0  0
   -1.4695   -1.0375   -1.1236 H   0  0  0  0  0  0  0  0  0  0  0  0
   -1.3500    2.8018    0.9785 H   0  0  0  0  0  0  0  0  0  0  0  0
   -3.9191    2.7663    1.1395 H   0  0  0  0  0  0  0  0  0  0  0  0
   -5.5674    0.8587    0.2066 N   0  0  0  0  0  0  0  0  0  0  0  0
   -6.1341   -0.1070   -0.2844 O   0  0  0  0  0  0  0  0  0  0  0  0
   -6.0742    1.8183    0.7698 O   0  0  0  0  0  0  0  0  0  0  0  0
   10.8198    0.8436   -0.9489 N   0  0  0  0  0  0  0  0  0  0  0  0
   11.9225    0.8412   -1.0267 N   0  0  0  0  0  0  0  0  0  0  0  0
  1  6  1  0  0  0  0
  2  1  2  0  0  0  0
  2  3  1  0  0  0  0
  3  4  2  0  0  0  0
  4  5  1  0  0  0  0
  4  9  1  0  0  0  0
  5 10  1  0  0  0  0
  6 11  1  0  0  0  0
  6  5  2  0  0  0  0
  7  1  1  0  0  0  0
  8  2  1  0  0  0  0
 11 13  2  0  0  0  0
 12 11  2  0  0  0  0
 15 14  3  0  0  0  0
M  RAD  1   3   2
M  END
