Coordinates from ORCA-job 4-NO2-Ph-N2+-scan-d090-169-n800
 OpenBabel09191814013D

 15 14  0  0  0  0  0  0  0  0999 V2000
   -3.4108   -0.2071   -0.5307 C   0  0  0  0  0  0  0  0  0  0  0  0
   -1.9890   -0.2451   -0.6515 C   0  0  0  0  0  0  0  0  0  0  0  0
   -1.5949    0.8799   -0.0607 C   0  0  0  0  0  0  0  0  0  0  0  0
   -1.9180    2.0012    0.5783 C   0  0  0  0  0  0  0  0  0  0  0  0
   -3.3427    1.9482    0.6493 C   0  0  0  0  0  0  0  0  0  0  0  0
   -4.0363    0.8671    0.1037 C   0  0  0  0  0  0  0  0  0  0  0  0
   -3.9902   -1.0310   -0.9430 H   0  0  0  0  0  0  0  0  0  0  0  0
   -1.4225   -1.0385   -1.1274 H   0  0  0  0  0  0  0  0  0  0  0  0
   -1.3012    2.8008    0.9746 H   0  0  0  0  0  0  0  0  0  0  0  0
   -3.8702    2.7663    1.1361 H   0  0  0  0  0  0  0  0  0  0  0  0
   -5.5195    0.8592    0.2036 N   0  0  0  0  0  0  0  0  0  0  0  0
   -6.0866   -0.1062   -0.2874 O   0  0  0  0  0  0  0  0  0  0  0  0
   -6.0257    1.8190    0.7668 O   0  0  0  0  0  0  0  0  0  0  0  0
   10.5082    0.8449   -0.9264 N   0  0  0  0  0  0  0  0  0  0  0  0
   11.6109    0.8426   -1.0041 N   0  0  0  0  0  0  0  0  0  0  0  0
  1  6  1  0  0  0  0
  2  1  2  0  0  0  0
  2  3  1  0  0  0  0
  3  4  2  0  0  0  0
  4  5  1  0  0  0  0
  4  9  1  0  0  0  0
  5 10  1  0  0  0  0
  6 11  1  0  0  0  0
  6  5  2  0  0  0  0
  7  1  1  0  0  0  0
  8  2  1  0  0  0  0
 11 13  2  0  0  0  0
 12 11  2  0  0  0  0
 15 14  3  0  0  0  0
M  RAD  1   3   2
M  END
