Coordinates from ORCA-job 4-NO2-Ph-N2+-scan-d090-169-n800
 OpenBabel09191814013D

 15 14  0  0  0  0  0  0  0  0999 V2000
   -3.9370   -0.2043   -0.4924 C   0  0  0  0  0  0  0  0  0  0  0  0
   -2.5147   -0.2358   -0.6096 C   0  0  0  0  0  0  0  0  0  0  0  0
   -2.1272    0.8909   -0.0175 C   0  0  0  0  0  0  0  0  0  0  0  0
   -2.4571    2.0105    0.6211 C   0  0  0  0  0  0  0  0  0  0  0  0
   -3.8817    1.9509    0.6885 C   0  0  0  0  0  0  0  0  0  0  0  0
   -4.5690    0.8668    0.1408 C   0  0  0  0  0  0  0  0  0  0  0  0
   -4.5115   -1.0308   -0.9064 H   0  0  0  0  0  0  0  0  0  0  0  0
   -1.9434   -1.0264   -1.0843 H   0  0  0  0  0  0  0  0  0  0  0  0
   -1.8450    2.8128    1.0192 H   0  0  0  0  0  0  0  0  0  0  0  0
   -4.4142    2.7664    1.1742 H   0  0  0  0  0  0  0  0  0  0  0  0
   -6.0523    0.8521    0.2369 N   0  0  0  0  0  0  0  0  0  0  0  0
   -6.6138   -0.1158   -0.2558 O   0  0  0  0  0  0  0  0  0  0  0  0
   -6.5644    1.8094    0.7992 O   0  0  0  0  0  0  0  0  0  0  0  0
   13.9699    0.8254   -1.1794 N   0  0  0  0  0  0  0  0  0  0  0  0
   15.0728    0.8295   -1.2534 N   0  0  0  0  0  0  0  0  0  0  0  0
  1  6  1  0  0  0  0
  2  1  2  0  0  0  0
  2  3  1  0  0  0  0
  3  4  2  0  0  0  0
  4  5  1  0  0  0  0
  4  9  1  0  0  0  0
  5 10  1  0  0  0  0
  6 11  1  0  0  0  0
  6  5  2  0  0  0  0
  7  1  1  0  0  0  0
  8  2  1  0  0  0  0
 11 13  2  0  0  0  0
 12 11  2  0  0  0  0
 15 14  3  0  0  0  0
M  RAD  1   3   2
M  END
