Coordinates from ORCA-job 4-NO2-Ph-N2+-scan-d090-169-n800
 OpenBabel09191814003D

 15 14  0  0  0  0  0  0  0  0999 V2000
   -2.2233   -0.2111   -0.6159 C   0  0  0  0  0  0  0  0  0  0  0  0
   -0.8034   -0.2554   -0.7398 C   0  0  0  0  0  0  0  0  0  0  0  0
   -0.3935    0.8667   -0.1516 C   0  0  0  0  0  0  0  0  0  0  0  0
   -0.7172    1.9889    0.4879 C   0  0  0  0  0  0  0  0  0  0  0  0
   -2.1405    1.9447    0.5633 C   0  0  0  0  0  0  0  0  0  0  0  0
   -2.8410    0.8669    0.0199 C   0  0  0  0  0  0  0  0  0  0  0  0
   -2.8098   -1.0308   -1.0255 H   0  0  0  0  0  0  0  0  0  0  0  0
   -0.2409   -1.0505   -1.2162 H   0  0  0  0  0  0  0  0  0  0  0  0
   -0.0937    2.7839    0.8813 H   0  0  0  0  0  0  0  0  0  0  0  0
   -2.6641    2.7645    1.0506 H   0  0  0  0  0  0  0  0  0  0  0  0
   -4.3238    0.8670    0.1238 N   0  0  0  0  0  0  0  0  0  0  0  0
   -4.8984   -0.0954   -0.3650 O   0  0  0  0  0  0  0  0  0  0  0  0
   -4.8245    1.8294    0.6880 O   0  0  0  0  0  0  0  0  0  0  0  0
    2.7416    0.8664   -0.3713 N   0  0  0  0  0  0  0  0  0  0  0  0
    3.8439    0.8663   -0.4484 N   0  0  0  0  0  0  0  0  0  0  0  0
  1  6  1  0  0  0  0
  2  1  2  0  0  0  0
  2  3  1  0  0  0  0
  3  4  2  0  0  0  0
  4  5  1  0  0  0  0
  4  9  1  0  0  0  0
  5 10  1  0  0  0  0
  6 11  1  0  0  0  0
  6  5  2  0  0  0  0
  7  1  1  0  0  0  0
  8  2  1  0  0  0  0
 11 13  2  0  0  0  0
 12 11  2  0  0  0  0
 15 14  3  0  0  0  0
M  RAD  1   3   2
M  END
