Coordinates from ORCA-job 4-NO2-Ph-N2+-scan-d090-169-n800
 OpenBabel09191814013D

 15 14  0  0  0  0  0  0  0  0999 V2000
   -2.5600   -0.2104   -0.5921 C   0  0  0  0  0  0  0  0  0  0  0  0
   -1.1386   -0.2552   -0.7164 C   0  0  0  0  0  0  0  0  0  0  0  0
   -0.7378    0.8681   -0.1270 C   0  0  0  0  0  0  0  0  0  0  0  0
   -1.0538    1.9912    0.5126 C   0  0  0  0  0  0  0  0  0  0  0  0
   -2.4786    1.9450    0.5871 C   0  0  0  0  0  0  0  0  0  0  0  0
   -3.1787    0.8670    0.0436 C   0  0  0  0  0  0  0  0  0  0  0  0
   -3.1444   -1.0317   -1.0025 H   0  0  0  0  0  0  0  0  0  0  0  0
   -0.5766   -1.0511   -1.1933 H   0  0  0  0  0  0  0  0  0  0  0  0
   -0.4318    2.7877    0.9068 H   0  0  0  0  0  0  0  0  0  0  0  0
   -3.0011    2.7657    1.0749 H   0  0  0  0  0  0  0  0  0  0  0  0
   -4.6616    0.8662    0.1472 N   0  0  0  0  0  0  0  0  0  0  0  0
   -5.2346   -0.0966   -0.3420 O   0  0  0  0  0  0  0  0  0  0  0  0
   -5.1619    1.8286    0.7114 O   0  0  0  0  0  0  0  0  0  0  0  0
    4.9342    0.8638   -0.5260 N   0  0  0  0  0  0  0  0  0  0  0  0
    6.0368    0.8632   -0.6033 N   0  0  0  0  0  0  0  0  0  0  0  0
  1  6  1  0  0  0  0
  2  1  2  0  0  0  0
  2  3  1  0  0  0  0
  3  4  2  0  0  0  0
  4  5  1  0  0  0  0
  4  9  1  0  0  0  0
  5 10  1  0  0  0  0
  6 11  1  0  0  0  0
  6  5  2  0  0  0  0
  7  1  1  0  0  0  0
  8  2  1  0  0  0  0
 11 13  2  0  0  0  0
 12 11  2  0  0  0  0
 15 14  3  0  0  0  0
M  RAD  1   3   2
M  END
