Coordinates from ORCA-job 4-NO2-Ph-N2+-scan-d090-169-n800
 OpenBabel09191814013D

 15 14  0  0  0  0  0  0  0  0999 V2000
   -3.8372   -0.2049   -0.4997 C   0  0  0  0  0  0  0  0  0  0  0  0
   -2.4149   -0.2378   -0.6177 C   0  0  0  0  0  0  0  0  0  0  0  0
   -2.0261    0.8886   -0.0258 C   0  0  0  0  0  0  0  0  0  0  0  0
   -2.3545    2.0085    0.6129 C   0  0  0  0  0  0  0  0  0  0  0  0
   -3.7792    1.9503    0.6810 C   0  0  0  0  0  0  0  0  0  0  0  0
   -4.4678    0.8669    0.1338 C   0  0  0  0  0  0  0  0  0  0  0  0
   -4.4128   -1.0308   -0.9133 H   0  0  0  0  0  0  0  0  0  0  0  0
   -1.8447   -1.0290   -1.0927 H   0  0  0  0  0  0  0  0  0  0  0  0
   -1.7413    2.8102    1.0105 H   0  0  0  0  0  0  0  0  0  0  0  0
   -4.3105    2.7664    1.1669 H   0  0  0  0  0  0  0  0  0  0  0  0
   -5.9511    0.8537    0.2307 N   0  0  0  0  0  0  0  0  0  0  0  0
   -6.5137   -0.1137   -0.2616 O   0  0  0  0  0  0  0  0  0  0  0  0
   -6.4619    1.8115    0.7932 O   0  0  0  0  0  0  0  0  0  0  0  0
   13.3121    0.8296   -1.1310 N   0  0  0  0  0  0  0  0  0  0  0  0
   14.4151    0.8319   -1.2060 N   0  0  0  0  0  0  0  0  0  0  0  0
  1  6  1  0  0  0  0
  2  1  2  0  0  0  0
  2  3  1  0  0  0  0
  3  4  2  0  0  0  0
  4  5  1  0  0  0  0
  4  9  1  0  0  0  0
  5 10  1  0  0  0  0
  6 11  1  0  0  0  0
  6  5  2  0  0  0  0
  7  1  1  0  0  0  0
  8  2  1  0  0  0  0
 11 13  2  0  0  0  0
 12 11  2  0  0  0  0
 15 14  3  0  0  0  0
M  RAD  1   3   2
M  END
