Coordinates from ORCA-job 4-NO2-Ph-N2+-scan-d090-169-n800
 OpenBabel09191814013D

 15 14  0  0  0  0  0  0  0  0999 V2000
   -3.0917   -0.2085   -0.5539 C   0  0  0  0  0  0  0  0  0  0  0  0
   -1.6700   -0.2497   -0.6763 C   0  0  0  0  0  0  0  0  0  0  0  0
   -1.2728    0.8746   -0.0862 C   0  0  0  0  0  0  0  0  0  0  0  0
   -1.5926    1.9967    0.5531 C   0  0  0  0  0  0  0  0  0  0  0  0
   -3.0174    1.9468    0.6258 C   0  0  0  0  0  0  0  0  0  0  0  0
   -3.7141    0.8671    0.0812 C   0  0  0  0  0  0  0  0  0  0  0  0
   -3.6734   -1.0313   -0.9653 H   0  0  0  0  0  0  0  0  0  0  0  0
   -1.1059   -1.0444   -1.1528 H   0  0  0  0  0  0  0  0  0  0  0  0
   -0.9736    2.7950    0.9485 H   0  0  0  0  0  0  0  0  0  0  0  0
   -3.5425    2.7661    1.1131 H   0  0  0  0  0  0  0  0  0  0  0  0
   -5.1971    0.8626    0.1828 N   0  0  0  0  0  0  0  0  0  0  0  0
   -5.7669   -0.1017   -0.3073 O   0  0  0  0  0  0  0  0  0  0  0  0
   -5.7006    1.8236    0.7465 O   0  0  0  0  0  0  0  0  0  0  0  0
    8.4137    0.8533   -0.7752 N   0  0  0  0  0  0  0  0  0  0  0  0
    9.5164    0.8515   -0.8528 N   0  0  0  0  0  0  0  0  0  0  0  0
  1  6  1  0  0  0  0
  2  1  2  0  0  0  0
  2  3  1  0  0  0  0
  3  4  2  0  0  0  0
  4  5  1  0  0  0  0
  4  9  1  0  0  0  0
  5 10  1  0  0  0  0
  6 11  1  0  0  0  0
  6  5  2  0  0  0  0
  7  1  1  0  0  0  0
  8  2  1  0  0  0  0
 11 13  2  0  0  0  0
 12 11  2  0  0  0  0
 15 14  3  0  0  0  0
M  RAD  1   3   2
M  END
