Coordinates from ORCA-job 4-NO2-Ph-N2+-scan-d090-169-n800
 OpenBabel09191814013D

 15 14  0  0  0  0  0  0  0  0999 V2000
   -3.9186   -0.2044   -0.4937 C   0  0  0  0  0  0  0  0  0  0  0  0
   -2.4963   -0.2361   -0.6111 C   0  0  0  0  0  0  0  0  0  0  0  0
   -2.1085    0.8904   -0.0190 C   0  0  0  0  0  0  0  0  0  0  0  0
   -2.4382    2.0101    0.6196 C   0  0  0  0  0  0  0  0  0  0  0  0
   -3.8628    1.9508    0.6871 C   0  0  0  0  0  0  0  0  0  0  0  0
   -4.5504    0.8668    0.1395 C   0  0  0  0  0  0  0  0  0  0  0  0
   -4.4933   -1.0308   -0.9076 H   0  0  0  0  0  0  0  0  0  0  0  0
   -1.9253   -1.0269   -1.0859 H   0  0  0  0  0  0  0  0  0  0  0  0
   -1.8259    2.8123    1.0176 H   0  0  0  0  0  0  0  0  0  0  0  0
   -4.3950    2.7664    1.1728 H   0  0  0  0  0  0  0  0  0  0  0  0
   -6.0337    0.8524    0.2358 N   0  0  0  0  0  0  0  0  0  0  0  0
   -6.5954   -0.1153   -0.2569 O   0  0  0  0  0  0  0  0  0  0  0  0
   -6.5455    1.8098    0.7980 O   0  0  0  0  0  0  0  0  0  0  0  0
   13.8488    0.8261   -1.1705 N   0  0  0  0  0  0  0  0  0  0  0  0
   14.9517    0.8300   -1.2446 N   0  0  0  0  0  0  0  0  0  0  0  0
  1  6  1  0  0  0  0
  2  1  2  0  0  0  0
  2  3  1  0  0  0  0
  3  4  2  0  0  0  0
  4  5  1  0  0  0  0
  4  9  1  0  0  0  0
  5 10  1  0  0  0  0
  6 11  1  0  0  0  0
  6  5  2  0  0  0  0
  7  1  1  0  0  0  0
  8  2  1  0  0  0  0
 11 13  2  0  0  0  0
 12 11  2  0  0  0  0
 15 14  3  0  0  0  0
M  RAD  1   3   2
M  END
