Coordinates from ORCA-job 4-NO2-Ph-N2+-scan-d090-169-n800
 OpenBabel09191814013D

 15 14  0  0  0  0  0  0  0  0999 V2000
   -3.3608   -0.2074   -0.5344 C   0  0  0  0  0  0  0  0  0  0  0  0
   -1.9391   -0.2457   -0.6554 C   0  0  0  0  0  0  0  0  0  0  0  0
   -1.5441    0.8790   -0.0648 C   0  0  0  0  0  0  0  0  0  0  0  0
   -1.8670    2.0003    0.5742 C   0  0  0  0  0  0  0  0  0  0  0  0
   -3.2916    1.9480    0.6456 C   0  0  0  0  0  0  0  0  0  0  0  0
   -3.9858    0.8671    0.1002 C   0  0  0  0  0  0  0  0  0  0  0  0
   -3.9403   -1.0312   -0.9466 H   0  0  0  0  0  0  0  0  0  0  0  0
   -1.3731   -1.0394   -1.1314 H   0  0  0  0  0  0  0  0  0  0  0  0
   -1.2499    2.7998    0.9704 H   0  0  0  0  0  0  0  0  0  0  0  0
   -3.8184    2.7664    1.1325 H   0  0  0  0  0  0  0  0  0  0  0  0
   -5.4689    0.8598    0.2004 N   0  0  0  0  0  0  0  0  0  0  0  0
   -6.0365   -0.1054   -0.2904 O   0  0  0  0  0  0  0  0  0  0  0  0
   -5.9747    1.8198    0.7637 O   0  0  0  0  0  0  0  0  0  0  0  0
   10.1795    0.8463   -0.9026 N   0  0  0  0  0  0  0  0  0  0  0  0
   11.2822    0.8441   -0.9803 N   0  0  0  0  0  0  0  0  0  0  0  0
  1  6  1  0  0  0  0
  2  1  2  0  0  0  0
  2  3  1  0  0  0  0
  3  4  2  0  0  0  0
  4  5  1  0  0  0  0
  4  9  1  0  0  0  0
  5 10  1  0  0  0  0
  6 11  1  0  0  0  0
  6  5  2  0  0  0  0
  7  1  1  0  0  0  0
  8  2  1  0  0  0  0
 11 13  2  0  0  0  0
 12 11  2  0  0  0  0
 15 14  3  0  0  0  0
M  RAD  1   3   2
M  END
