Coordinates from ORCA-job 4-NO2-Ph-N2+-scan-d090-169-n800
 OpenBabel09191814003D

 15 15  0  0  0  0  0  0  0  0999 V2000
   -2.0343   -0.2126   -0.6300 C   0  0  0  0  0  0  0  0  0  0  0  0
   -0.6462   -0.2301   -0.7368 C   0  0  0  0  0  0  0  0  0  0  0  0
    0.0129    0.8666   -0.1801 C   0  0  0  0  0  0  0  0  0  0  0  0
   -0.5620    1.9635    0.4631 C   0  0  0  0  0  0  0  0  0  0  0  0
   -1.9514    1.9462    0.5509 C   0  0  0  0  0  0  0  0  0  0  0  0
   -2.6489    0.8669    0.0064 C   0  0  0  0  0  0  0  0  0  0  0  0
   -2.6420   -1.0166   -1.0295 H   0  0  0  0  0  0  0  0  0  0  0  0
   -0.1170   -1.0431   -1.2208 H   0  0  0  0  0  0  0  0  0  0  0  0
    0.0297    2.7764    0.8686 H   0  0  0  0  0  0  0  0  0  0  0  0
   -2.4973    2.7503    1.0312 H   0  0  0  0  0  0  0  0  0  0  0  0
   -4.1384    0.8670    0.1108 N   0  0  0  0  0  0  0  0  0  0  0  0
   -4.7169   -0.0939   -0.3770 O   0  0  0  0  0  0  0  0  0  0  0  0
   -4.6431    1.8279    0.6745 O   0  0  0  0  0  0  0  0  0  0  0  0
    1.5300    0.8665   -0.2863 N   0  0  0  0  0  0  0  0  0  0  0  0
    2.6364    0.8664   -0.3639 N   0  0  0  0  0  0  0  0  0  0  0  0
  1  6  1  0  0  0  0
  2  1  2  0  0  0  0
  2  3  1  0  0  0  0
  3  4  2  0  0  0  0
  4  5  1  0  0  0  0
  4  9  1  0  0  0  0
  5 10  1  0  0  0  0
  6 11  1  0  0  0  0
  6  5  2  0  0  0  0
  7  1  1  0  0  0  0
  8  2  1  0  0  0  0
 11 13  2  0  0  0  0
 12 11  2  0  0  0  0
 14  3  1  0  0  0  0
 15 14  1  0  0  0  0
M  RAD  2  14   2  15   3
M  END
