Coordinates from ORCA-job 4-NO2-Ph-N2+-scan-d090-169-n800
 OpenBabel09191814003D

 15 14  0  0  0  0  0  0  0  0999 V2000
   -2.1487   -0.2109   -0.6211 C   0  0  0  0  0  0  0  0  0  0  0  0
   -0.7328   -0.2526   -0.7431 C   0  0  0  0  0  0  0  0  0  0  0  0
   -0.2937    0.8667   -0.1586 C   0  0  0  0  0  0  0  0  0  0  0  0
   -0.6468    1.9860    0.4814 C   0  0  0  0  0  0  0  0  0  0  0  0
   -2.0659    1.9446    0.5580 C   0  0  0  0  0  0  0  0  0  0  0  0
   -2.7660    0.8669    0.0146 C   0  0  0  0  0  0  0  0  0  0  0  0
   -2.7380   -1.0285   -1.0292 H   0  0  0  0  0  0  0  0  0  0  0  0
   -0.1760   -1.0500   -1.2205 H   0  0  0  0  0  0  0  0  0  0  0  0
   -0.0288    2.7833    0.8765 H   0  0  0  0  0  0  0  0  0  0  0  0
   -2.5924    2.7622    1.0444 H   0  0  0  0  0  0  0  0  0  0  0  0
   -4.2493    0.8670    0.1186 N   0  0  0  0  0  0  0  0  0  0  0  0
   -4.8251   -0.0950   -0.3700 O   0  0  0  0  0  0  0  0  0  0  0  0
   -4.7512    1.8290    0.6826 O   0  0  0  0  0  0  0  0  0  0  0  0
    2.2622    0.8665   -0.3377 N   0  0  0  0  0  0  0  0  0  0  0  0
    3.3641    0.8664   -0.4148 N   0  0  0  0  0  0  0  0  0  0  0  0
  1  6  1  0  0  0  0
  2  1  2  0  0  0  0
  2  3  1  0  0  0  0
  3  4  2  0  0  0  0
  4  5  1  0  0  0  0
  4  9  1  0  0  0  0
  5 10  1  0  0  0  0
  6 11  1  0  0  0  0
  6  5  2  0  0  0  0
  7  1  1  0  0  0  0
  8  2  1  0  0  0  0
 11 13  2  0  0  0  0
 12 11  2  0  0  0  0
 15 14  3  0  0  0  0
M  RAD  1   3   2
M  END
