Coordinates from ORCA-job 4-NO2-Ph-N2+-scan-d090-169-n800
 OpenBabel09191814013D

 15 14  0  0  0  0  0  0  0  0999 V2000
   -2.8301   -0.2096   -0.5727 C   0  0  0  0  0  0  0  0  0  0  0  0
   -1.4086   -0.2527   -0.6962 C   0  0  0  0  0  0  0  0  0  0  0  0
   -1.0092    0.8710   -0.1065 C   0  0  0  0  0  0  0  0  0  0  0  0
   -1.3271    1.9935    0.5329 C   0  0  0  0  0  0  0  0  0  0  0  0
   -2.7518    1.9458    0.6067 C   0  0  0  0  0  0  0  0  0  0  0  0
   -3.4504    0.8671    0.0627 C   0  0  0  0  0  0  0  0  0  0  0  0
   -3.4132   -1.0315   -0.9836 H   0  0  0  0  0  0  0  0  0  0  0  0
   -0.8459   -1.0482   -1.1730 H   0  0  0  0  0  0  0  0  0  0  0  0
   -0.7065    2.7910    0.9277 H   0  0  0  0  0  0  0  0  0  0  0  0
   -3.2753    2.7660    1.0943 H   0  0  0  0  0  0  0  0  0  0  0  0
   -4.9334    0.8647    0.1655 N   0  0  0  0  0  0  0  0  0  0  0  0
   -5.5050   -0.0988   -0.3241 O   0  0  0  0  0  0  0  0  0  0  0  0
   -5.4351    1.8264    0.7294 O   0  0  0  0  0  0  0  0  0  0  0  0
    6.7001    0.8590   -0.6522 N   0  0  0  0  0  0  0  0  0  0  0  0
    7.8028    0.8578   -0.7296 N   0  0  0  0  0  0  0  0  0  0  0  0
  1  6  1  0  0  0  0
  2  1  2  0  0  0  0
  2  3  1  0  0  0  0
  3  4  2  0  0  0  0
  4  5  1  0  0  0  0
  4  9  1  0  0  0  0
  5 10  1  0  0  0  0
  6 11  1  0  0  0  0
  6  5  2  0  0  0  0
  7  1  1  0  0  0  0
  8  2  1  0  0  0  0
 11 13  2  0  0  0  0
 12 11  2  0  0  0  0
 15 14  3  0  0  0  0
M  RAD  1   3   2
M  END
