Coordinates from ORCA-job 4-NO2-Ph-N2+-scan-d090-169-n800
 OpenBabel09191814003D

 15 14  0  0  0  0  0  0  0  0999 V2000
   -2.4087   -0.2108   -0.6028 C   0  0  0  0  0  0  0  0  0  0  0  0
   -0.9876   -0.2559   -0.7272 C   0  0  0  0  0  0  0  0  0  0  0  0
   -0.5858    0.8672   -0.1380 C   0  0  0  0  0  0  0  0  0  0  0  0
   -0.9018    1.9901    0.5014 C   0  0  0  0  0  0  0  0  0  0  0  0
   -2.3264    1.9447    0.5763 C   0  0  0  0  0  0  0  0  0  0  0  0
   -3.0270    0.8669    0.0330 C   0  0  0  0  0  0  0  0  0  0  0  0
   -2.9936   -1.0317   -1.0131 H   0  0  0  0  0  0  0  0  0  0  0  0
   -0.4254   -1.0516   -1.2041 H   0  0  0  0  0  0  0  0  0  0  0  0
   -0.2788    2.7861    0.8953 H   0  0  0  0  0  0  0  0  0  0  0  0
   -2.8485    2.7656    1.0642 H   0  0  0  0  0  0  0  0  0  0  0  0
   -4.5098    0.8667    0.1368 N   0  0  0  0  0  0  0  0  0  0  0  0
   -5.0834   -0.0959   -0.3522 O   0  0  0  0  0  0  0  0  0  0  0  0
   -5.0098    1.8293    0.7010 O   0  0  0  0  0  0  0  0  0  0  0  0
    3.9477    0.8655   -0.4561 N   0  0  0  0  0  0  0  0  0  0  0  0
    5.0503    0.8652   -0.5333 N   0  0  0  0  0  0  0  0  0  0  0  0
  1  6  1  0  0  0  0
  2  1  2  0  0  0  0
  2  3  1  0  0  0  0
  3  4  2  0  0  0  0
  4  5  1  0  0  0  0
  4  9  1  0  0  0  0
  5 10  1  0  0  0  0
  6 11  1  0  0  0  0
  6  5  2  0  0  0  0
  7  1  1  0  0  0  0
  8  2  1  0  0  0  0
 11 13  2  0  0  0  0
 12 11  2  0  0  0  0
 15 14  3  0  0  0  0
M  RAD  1   3   2
M  END
