Coordinates from ORCA-job 4-NO2-Ph-N2+-scan-d090-169-n800
 OpenBabel09191814003D

 15 14  0  0  0  0  0  0  0  0999 V2000
   -2.3450   -0.2109   -0.6074 C   0  0  0  0  0  0  0  0  0  0  0  0
   -0.9240   -0.2560   -0.7318 C   0  0  0  0  0  0  0  0  0  0  0  0
   -0.5215    0.8669   -0.1426 C   0  0  0  0  0  0  0  0  0  0  0  0
   -0.8379    1.9899    0.4968 C   0  0  0  0  0  0  0  0  0  0  0  0
   -2.2624    1.9447    0.5718 C   0  0  0  0  0  0  0  0  0  0  0  0
   -2.9631    0.8669    0.0284 C   0  0  0  0  0  0  0  0  0  0  0  0
   -2.9302   -1.0316   -1.0175 H   0  0  0  0  0  0  0  0  0  0  0  0
   -0.3613   -1.0515   -1.2085 H   0  0  0  0  0  0  0  0  0  0  0  0
   -0.2143    2.7854    0.8904 H   0  0  0  0  0  0  0  0  0  0  0  0
   -2.7847    2.7654    1.0596 H   0  0  0  0  0  0  0  0  0  0  0  0
   -4.4459    0.8669    0.1324 N   0  0  0  0  0  0  0  0  0  0  0  0
   -5.0197   -0.0957   -0.3566 O   0  0  0  0  0  0  0  0  0  0  0  0
   -4.9459    1.8294    0.6966 O   0  0  0  0  0  0  0  0  0  0  0  0
    3.5325    0.8660   -0.4268 N   0  0  0  0  0  0  0  0  0  0  0  0
    4.6350    0.8658   -0.5039 N   0  0  0  0  0  0  0  0  0  0  0  0
  1  6  1  0  0  0  0
  2  1  2  0  0  0  0
  2  3  1  0  0  0  0
  3  4  2  0  0  0  0
  4  5  1  0  0  0  0
  4  9  1  0  0  0  0
  5 10  1  0  0  0  0
  6 11  1  0  0  0  0
  6  5  2  0  0  0  0
  7  1  1  0  0  0  0
  8  2  1  0  0  0  0
 11 13  2  0  0  0  0
 12 11  2  0  0  0  0
 15 14  3  0  0  0  0
M  RAD  1   3   2
M  END
