Coordinates from ORCA-job 4-NO2-Ph-N2+-scan-d090-169-n800
 OpenBabel09191814003D

 15 15  0  0  0  0  0  0  0  0999 V2000
   -2.0117   -0.2126   -0.6323 C   0  0  0  0  0  0  0  0  0  0  0  0
   -0.6312   -0.2260   -0.7358 C   0  0  0  0  0  0  0  0  0  0  0  0
    0.0936    0.8666   -0.1857 C   0  0  0  0  0  0  0  0  0  0  0  0
   -0.5473    1.9595    0.4597 C   0  0  0  0  0  0  0  0  0  0  0  0
   -1.9287    1.9468    0.5490 C   0  0  0  0  0  0  0  0  0  0  0  0
   -2.6277    0.8672    0.0042 C   0  0  0  0  0  0  0  0  0  0  0  0
   -2.6193   -1.0168   -1.0320 H   0  0  0  0  0  0  0  0  0  0  0  0
   -0.1059   -1.0422   -1.2210 H   0  0  0  0  0  0  0  0  0  0  0  0
    0.0407    2.7755    0.8673 H   0  0  0  0  0  0  0  0  0  0  0  0
   -2.4745    2.7512    1.0292 H   0  0  0  0  0  0  0  0  0  0  0  0
   -4.1189    0.8676    0.1082 N   0  0  0  0  0  0  0  0  0  0  0  0
   -4.6951   -0.0954   -0.3772 O   0  0  0  0  0  0  0  0  0  0  0  0
   -4.6213    1.8277    0.6749 O   0  0  0  0  0  0  0  0  0  0  0  0
    1.3710    0.8663   -0.2748 N   0  0  0  0  0  0  0  0  0  0  0  0
    2.4877    0.8661   -0.3527 N   0  0  0  0  0  0  0  0  0  0  0  0
  1  6  1  0  0  0  0
  2  1  2  0  0  0  0
  2  3  1  0  0  0  0
  3  4  2  0  0  0  0
  4  5  1  0  0  0  0
  4  9  1  0  0  0  0
  5 10  1  0  0  0  0
  6 11  1  0  0  0  0
  6  5  2  0  0  0  0
  7  1  1  0  0  0  0
  8  2  1  0  0  0  0
 11 13  2  0  0  0  0
 12 11  2  0  0  0  0
 14  3  1  0  0  0  0
 15 14  1  0  0  0  0
M  RAD  2  14   2  15   3
M  END
