Coordinates from ORCA-job 4-NO2-Ph-N2+-scan-d090-169-n800
 OpenBabel09191814003D

 15 14  0  0  0  0  0  0  0  0999 V2000
   -2.1054   -0.2109   -0.6241 C   0  0  0  0  0  0  0  0  0  0  0  0
   -0.6956   -0.2482   -0.7433 C   0  0  0  0  0  0  0  0  0  0  0  0
   -0.2096    0.8667   -0.1645 C   0  0  0  0  0  0  0  0  0  0  0  0
   -0.6100    1.9816    0.4764 C   0  0  0  0  0  0  0  0  0  0  0  0
   -2.0226    1.9446    0.5550 C   0  0  0  0  0  0  0  0  0  0  0  0
   -2.7217    0.8669    0.0115 C   0  0  0  0  0  0  0  0  0  0  0  0
   -2.6994   -1.0250   -1.0300 H   0  0  0  0  0  0  0  0  0  0  0  0
   -0.1465   -1.0492   -1.2221 H   0  0  0  0  0  0  0  0  0  0  0  0
    0.0007    2.7826    0.8740 H   0  0  0  0  0  0  0  0  0  0  0  0
   -2.5541    2.7587    1.0398 H   0  0  0  0  0  0  0  0  0  0  0  0
   -4.2061    0.8670    0.1155 N   0  0  0  0  0  0  0  0  0  0  0  0
   -4.7833   -0.0945   -0.3726 O   0  0  0  0  0  0  0  0  0  0  0  0
   -4.7095    1.8285    0.6794 O   0  0  0  0  0  0  0  0  0  0  0  0
    1.9866    0.8665   -0.3184 N   0  0  0  0  0  0  0  0  0  0  0  0
    3.0881    0.8664   -0.3955 N   0  0  0  0  0  0  0  0  0  0  0  0
  1  6  1  0  0  0  0
  2  1  2  0  0  0  0
  2  3  1  0  0  0  0
  3  4  2  0  0  0  0
  4  5  1  0  0  0  0
  4  9  1  0  0  0  0
  5 10  1  0  0  0  0
  6 11  1  0  0  0  0
  6  5  2  0  0  0  0
  7  1  1  0  0  0  0
  8  2  1  0  0  0  0
 11 13  2  0  0  0  0
 12 11  2  0  0  0  0
 15 14  3  0  0  0  0
M  RAD  1   3   2
M  END
