Coordinates from ORCA-job 4-NO2-Ph-N2+-scan-d090-169-n800
 OpenBabel09191814013D

 15 14  0  0  0  0  0  0  0  0999 V2000
   -3.0653   -0.2087   -0.5558 C   0  0  0  0  0  0  0  0  0  0  0  0
   -1.6437   -0.2500   -0.6784 C   0  0  0  0  0  0  0  0  0  0  0  0
   -1.2461    0.8742   -0.0883 C   0  0  0  0  0  0  0  0  0  0  0  0
   -1.5658    1.9963    0.5510 C   0  0  0  0  0  0  0  0  0  0  0  0
   -2.9906    1.9467    0.6238 C   0  0  0  0  0  0  0  0  0  0  0  0
   -3.6874    0.8671    0.0793 C   0  0  0  0  0  0  0  0  0  0  0  0
   -3.6471   -1.0313   -0.9671 H   0  0  0  0  0  0  0  0  0  0  0  0
   -1.0797   -1.0448   -1.1549 H   0  0  0  0  0  0  0  0  0  0  0  0
   -0.9466    2.7945    0.9463 H   0  0  0  0  0  0  0  0  0  0  0  0
   -3.5155    2.7661    1.1112 H   0  0  0  0  0  0  0  0  0  0  0  0
   -5.1705    0.8628    0.1811 N   0  0  0  0  0  0  0  0  0  0  0  0
   -5.7405   -0.1014   -0.3089 O   0  0  0  0  0  0  0  0  0  0  0  0
   -5.6737    1.8239    0.7448 O   0  0  0  0  0  0  0  0  0  0  0  0
    8.2407    0.8539   -0.7628 N   0  0  0  0  0  0  0  0  0  0  0  0
    9.3434    0.8522   -0.8404 N   0  0  0  0  0  0  0  0  0  0  0  0
  1  6  1  0  0  0  0
  2  1  2  0  0  0  0
  2  3  1  0  0  0  0
  3  4  2  0  0  0  0
  4  5  1  0  0  0  0
  4  9  1  0  0  0  0
  5 10  1  0  0  0  0
  6 11  1  0  0  0  0
  6  5  2  0  0  0  0
  7  1  1  0  0  0  0
  8  2  1  0  0  0  0
 11 13  2  0  0  0  0
 12 11  2  0  0  0  0
 15 14  3  0  0  0  0
M  RAD  1   3   2
M  END
