Coordinates from ORCA-job 4-NO2-Ph-N2+-scan-d090-169-n800
 OpenBabel09191814013D

 15 14  0  0  0  0  0  0  0  0999 V2000
   -3.8108   -0.2051   -0.5017 C   0  0  0  0  0  0  0  0  0  0  0  0
   -2.3885   -0.2383   -0.6198 C   0  0  0  0  0  0  0  0  0  0  0  0
   -2.0002    0.8880   -0.0280 C   0  0  0  0  0  0  0  0  0  0  0  0
   -2.3273    2.0080    0.6107 C   0  0  0  0  0  0  0  0  0  0  0  0
   -3.7521    1.9502    0.6790 C   0  0  0  0  0  0  0  0  0  0  0  0
   -4.4410    0.8669    0.1319 C   0  0  0  0  0  0  0  0  0  0  0  0
   -4.3867   -1.0308   -0.9151 H   0  0  0  0  0  0  0  0  0  0  0  0
   -1.8181   -1.0295   -1.0948 H   0  0  0  0  0  0  0  0  0  0  0  0
   -1.7136    2.8095    1.0082 H   0  0  0  0  0  0  0  0  0  0  0  0
   -4.2833    2.7664    1.1650 H   0  0  0  0  0  0  0  0  0  0  0  0
   -5.9243    0.8541    0.2290 N   0  0  0  0  0  0  0  0  0  0  0  0
   -6.4873   -0.1132   -0.2631 O   0  0  0  0  0  0  0  0  0  0  0  0
   -6.4349    1.8120    0.7916 O   0  0  0  0  0  0  0  0  0  0  0  0
   13.1384    0.8307   -1.1182 N   0  0  0  0  0  0  0  0  0  0  0  0
   14.2413    0.8325   -1.1936 N   0  0  0  0  0  0  0  0  0  0  0  0
  1  6  1  0  0  0  0
  2  1  2  0  0  0  0
  2  3  1  0  0  0  0
  3  4  2  0  0  0  0
  4  5  1  0  0  0  0
  4  9  1  0  0  0  0
  5 10  1  0  0  0  0
  6 11  1  0  0  0  0
  6  5  2  0  0  0  0
  7  1  1  0  0  0  0
  8  2  1  0  0  0  0
 11 13  2  0  0  0  0
 12 11  2  0  0  0  0
 15 14  3  0  0  0  0
M  RAD  1   3   2
M  END
