Coordinates from ORCA-job 4-NO2-Ph-N2+-scan-d090-169-n800
 OpenBabel09191814013D

 15 14  0  0  0  0  0  0  0  0999 V2000
   -3.2527   -0.2078   -0.5422 C   0  0  0  0  0  0  0  0  0  0  0  0
   -1.8309   -0.2475   -0.6639 C   0  0  0  0  0  0  0  0  0  0  0  0
   -1.4352    0.8772   -0.0735 C   0  0  0  0  0  0  0  0  0  0  0  0
   -1.7566    1.9989    0.5658 C   0  0  0  0  0  0  0  0  0  0  0  0
   -3.1813    1.9475    0.6376 C   0  0  0  0  0  0  0  0  0  0  0  0
   -3.8765    0.8671    0.0925 C   0  0  0  0  0  0  0  0  0  0  0  0
   -3.8333   -1.0311   -0.9540 H   0  0  0  0  0  0  0  0  0  0  0  0
   -1.2657   -1.0416   -1.1401 H   0  0  0  0  0  0  0  0  0  0  0  0
   -1.1386    2.7978    0.9615 H   0  0  0  0  0  0  0  0  0  0  0  0
   -3.7076    2.7662    1.1247 H   0  0  0  0  0  0  0  0  0  0  0  0
   -5.3596    0.8610    0.1934 N   0  0  0  0  0  0  0  0  0  0  0  0
   -5.9281   -0.1038   -0.2971 O   0  0  0  0  0  0  0  0  0  0  0  0
   -5.8644    1.8214    0.7568 O   0  0  0  0  0  0  0  0  0  0  0  0
    9.4696    0.8492   -0.8513 N   0  0  0  0  0  0  0  0  0  0  0  0
   10.5723    0.8471   -0.9290 N   0  0  0  0  0  0  0  0  0  0  0  0
  1  6  1  0  0  0  0
  2  1  2  0  0  0  0
  2  3  1  0  0  0  0
  3  4  2  0  0  0  0
  4  5  1  0  0  0  0
  4  9  1  0  0  0  0
  5 10  1  0  0  0  0
  6 11  1  0  0  0  0
  6  5  2  0  0  0  0
  7  1  1  0  0  0  0
  8  2  1  0  0  0  0
 11 13  2  0  0  0  0
 12 11  2  0  0  0  0
 15 14  3  0  0  0  0
M  RAD  1   3   2
M  END
