Coordinates from ORCA-job 4-NO2-Ph-N2+-scan-d090-169-n800
 OpenBabel09191814013D

 15 14  0  0  0  0  0  0  0  0999 V2000
   -4.0341   -0.2037   -0.4853 C   0  0  0  0  0  0  0  0  0  0  0  0
   -2.6116   -0.2338   -0.6017 C   0  0  0  0  0  0  0  0  0  0  0  0
   -2.2257    0.8933   -0.0093 C   0  0  0  0  0  0  0  0  0  0  0  0
   -2.5570    2.0125    0.6293 C   0  0  0  0  0  0  0  0  0  0  0  0
   -3.9817    1.9514    0.6958 C   0  0  0  0  0  0  0  0  0  0  0  0
   -4.6675    0.8667    0.1476 C   0  0  0  0  0  0  0  0  0  0  0  0
   -4.6076   -1.0307   -0.8996 H   0  0  0  0  0  0  0  0  0  0  0  0
   -2.0393   -1.0237   -1.0761 H   0  0  0  0  0  0  0  0  0  0  0  0
   -1.9460    2.8154    1.0277 H   0  0  0  0  0  0  0  0  0  0  0  0
   -4.5152    2.7664    1.1812 H   0  0  0  0  0  0  0  0  0  0  0  0
   -6.1509    0.8505    0.2429 N   0  0  0  0  0  0  0  0  0  0  0  0
   -6.7111   -0.1179   -0.2502 O   0  0  0  0  0  0  0  0  0  0  0  0
   -6.6643    1.8072    0.8049 O   0  0  0  0  0  0  0  0  0  0  0  0
   14.6102    0.8214   -1.2263 N   0  0  0  0  0  0  0  0  0  0  0  0
   15.7132    0.8268   -1.2997 N   0  0  0  0  0  0  0  0  0  0  0  0
  1  6  1  0  0  0  0
  2  1  2  0  0  0  0
  2  3  1  0  0  0  0
  3  4  2  0  0  0  0
  4  5  1  0  0  0  0
  4  9  1  0  0  0  0
  5 10  1  0  0  0  0
  6 11  1  0  0  0  0
  6  5  2  0  0  0  0
  7  1  1  0  0  0  0
  8  2  1  0  0  0  0
 11 13  2  0  0  0  0
 12 11  2  0  0  0  0
 15 14  3  0  0  0  0
M  RAD  1   3   2
M  END
