Coordinates from ORCA-job 4-NO2-Ph-N2+-scan-d090-169-n800
 OpenBabel09191814013D

 15 14  0  0  0  0  0  0  0  0999 V2000
   -3.9396   -0.2043   -0.4922 C   0  0  0  0  0  0  0  0  0  0  0  0
   -2.5173   -0.2357   -0.6094 C   0  0  0  0  0  0  0  0  0  0  0  0
   -2.1298    0.8909   -0.0173 C   0  0  0  0  0  0  0  0  0  0  0  0
   -2.4598    2.0105    0.6213 C   0  0  0  0  0  0  0  0  0  0  0  0
   -3.8844    1.9509    0.6887 C   0  0  0  0  0  0  0  0  0  0  0  0
   -4.5717    0.8668    0.1410 C   0  0  0  0  0  0  0  0  0  0  0  0
   -4.5141   -1.0308   -0.9062 H   0  0  0  0  0  0  0  0  0  0  0  0
   -1.9460   -1.0263   -1.0841 H   0  0  0  0  0  0  0  0  0  0  0  0
   -1.8477    2.8128    1.0194 H   0  0  0  0  0  0  0  0  0  0  0  0
   -4.4169    2.7664    1.1744 H   0  0  0  0  0  0  0  0  0  0  0  0
   -6.0550    0.8521    0.2371 N   0  0  0  0  0  0  0  0  0  0  0  0
   -6.6164   -0.1158   -0.2556 O   0  0  0  0  0  0  0  0  0  0  0  0
   -6.5671    1.8094    0.7993 O   0  0  0  0  0  0  0  0  0  0  0  0
   13.9872    0.8252   -1.1806 N   0  0  0  0  0  0  0  0  0  0  0  0
   15.0902    0.8294   -1.2546 N   0  0  0  0  0  0  0  0  0  0  0  0
  1  6  1  0  0  0  0
  2  1  2  0  0  0  0
  2  3  1  0  0  0  0
  3  4  2  0  0  0  0
  4  5  1  0  0  0  0
  4  9  1  0  0  0  0
  5 10  1  0  0  0  0
  6 11  1  0  0  0  0
  6  5  2  0  0  0  0
  7  1  1  0  0  0  0
  8  2  1  0  0  0  0
 11 13  2  0  0  0  0
 12 11  2  0  0  0  0
 15 14  3  0  0  0  0
M  RAD  1   3   2
M  END
