Coordinates from ORCA-job 4-NO2-Ph-N2+-scan-d090-169-n800
 OpenBabel09191814013D

 15 14  0  0  0  0  0  0  0  0999 V2000
   -2.6501   -0.2102   -0.5856 C   0  0  0  0  0  0  0  0  0  0  0  0
   -1.2287   -0.2545   -0.7097 C   0  0  0  0  0  0  0  0  0  0  0  0
   -0.8282    0.8690   -0.1202 C   0  0  0  0  0  0  0  0  0  0  0  0
   -1.1448    1.9919    0.5193 C   0  0  0  0  0  0  0  0  0  0  0  0
   -2.5696    1.9452    0.5936 C   0  0  0  0  0  0  0  0  0  0  0  0
   -3.2693    0.8670    0.0500 C   0  0  0  0  0  0  0  0  0  0  0  0
   -3.2341   -1.0316   -0.9962 H   0  0  0  0  0  0  0  0  0  0  0  0
   -0.6666   -1.0503   -1.1867 H   0  0  0  0  0  0  0  0  0  0  0  0
   -0.5233    2.7887    0.9137 H   0  0  0  0  0  0  0  0  0  0  0  0
   -3.0923    2.7658    1.0813 H   0  0  0  0  0  0  0  0  0  0  0  0
   -4.7522    0.8658    0.1533 N   0  0  0  0  0  0  0  0  0  0  0  0
   -5.3248   -0.0973   -0.3359 O   0  0  0  0  0  0  0  0  0  0  0  0
   -5.2529    1.8280    0.7175 O   0  0  0  0  0  0  0  0  0  0  0  0
    5.5228    0.8624   -0.5680 N   0  0  0  0  0  0  0  0  0  0  0  0
    6.6255    0.8616   -0.6452 N   0  0  0  0  0  0  0  0  0  0  0  0
  1  6  1  0  0  0  0
  2  1  2  0  0  0  0
  2  3  1  0  0  0  0
  3  4  2  0  0  0  0
  4  5  1  0  0  0  0
  4  9  1  0  0  0  0
  5 10  1  0  0  0  0
  6 11  1  0  0  0  0
  6  5  2  0  0  0  0
  7  1  1  0  0  0  0
  8  2  1  0  0  0  0
 11 13  2  0  0  0  0
 12 11  2  0  0  0  0
 15 14  3  0  0  0  0
M  RAD  1   3   2
M  END
