Coordinates from ORCA-job 4-NO2-Ph-N2+-scan-d090-169-n800
 OpenBabel09191814003D

 15 14  0  0  0  0  0  0  0  0999 V2000
   -2.2470   -0.2110   -0.6143 C   0  0  0  0  0  0  0  0  0  0  0  0
   -0.8268   -0.2555   -0.7382 C   0  0  0  0  0  0  0  0  0  0  0  0
   -0.4196    0.8667   -0.1498 C   0  0  0  0  0  0  0  0  0  0  0  0
   -0.7406    1.9890    0.4896 C   0  0  0  0  0  0  0  0  0  0  0  0
   -2.1642    1.9447    0.5650 C   0  0  0  0  0  0  0  0  0  0  0  0
   -2.8649    0.8669    0.0216 C   0  0  0  0  0  0  0  0  0  0  0  0
   -2.8329   -1.0312   -1.0241 H   0  0  0  0  0  0  0  0  0  0  0  0
   -0.2639   -1.0506   -1.2147 H   0  0  0  0  0  0  0  0  0  0  0  0
   -0.1167    2.7840    0.8829 H   0  0  0  0  0  0  0  0  0  0  0  0
   -2.6871    2.7649    1.0525 H   0  0  0  0  0  0  0  0  0  0  0  0
   -4.3476    0.8670    0.1255 N   0  0  0  0  0  0  0  0  0  0  0  0
   -4.9220   -0.0954   -0.3634 O   0  0  0  0  0  0  0  0  0  0  0  0
   -4.8481    1.8294    0.6897 O   0  0  0  0  0  0  0  0  0  0  0  0
    2.8953    0.8664   -0.3820 N   0  0  0  0  0  0  0  0  0  0  0  0
    3.9977    0.8663   -0.4592 N   0  0  0  0  0  0  0  0  0  0  0  0
  1  6  1  0  0  0  0
  2  1  2  0  0  0  0
  2  3  1  0  0  0  0
  3  4  2  0  0  0  0
  4  5  1  0  0  0  0
  4  9  1  0  0  0  0
  5 10  1  0  0  0  0
  6 11  1  0  0  0  0
  6  5  2  0  0  0  0
  7  1  1  0  0  0  0
  8  2  1  0  0  0  0
 11 13  2  0  0  0  0
 12 11  2  0  0  0  0
 15 14  3  0  0  0  0
M  RAD  1   3   2
M  END
