Coordinates from ORCA-job 4-NO2-Ph-N2+-scan-d090-169-n800
 OpenBabel09191814013D

 15 14  0  0  0  0  0  0  0  0999 V2000
   -2.6236   -0.2103   -0.5875 C   0  0  0  0  0  0  0  0  0  0  0  0
   -1.2022   -0.2547   -0.7117 C   0  0  0  0  0  0  0  0  0  0  0  0
   -0.8017    0.8687   -0.1222 C   0  0  0  0  0  0  0  0  0  0  0  0
   -1.1180    1.9917    0.5173 C   0  0  0  0  0  0  0  0  0  0  0  0
   -2.5428    1.9452    0.5917 C   0  0  0  0  0  0  0  0  0  0  0  0
   -3.2426    0.8670    0.0481 C   0  0  0  0  0  0  0  0  0  0  0  0
   -3.2077   -1.0316   -0.9981 H   0  0  0  0  0  0  0  0  0  0  0  0
   -0.6401   -1.0506   -1.1886 H   0  0  0  0  0  0  0  0  0  0  0  0
   -0.4963    2.7884    0.9116 H   0  0  0  0  0  0  0  0  0  0  0  0
   -3.0655    2.7658    1.0795 H   0  0  0  0  0  0  0  0  0  0  0  0
   -4.7255    0.8659    0.1515 N   0  0  0  0  0  0  0  0  0  0  0  0
   -5.2982   -0.0971   -0.3377 O   0  0  0  0  0  0  0  0  0  0  0  0
   -5.2261    1.8282    0.7157 O   0  0  0  0  0  0  0  0  0  0  0  0
    5.3496    0.8628   -0.5556 N   0  0  0  0  0  0  0  0  0  0  0  0
    6.4523    0.8621   -0.6329 N   0  0  0  0  0  0  0  0  0  0  0  0
  1  6  1  0  0  0  0
  2  1  2  0  0  0  0
  2  3  1  0  0  0  0
  3  4  2  0  0  0  0
  4  5  1  0  0  0  0
  4  9  1  0  0  0  0
  5 10  1  0  0  0  0
  6 11  1  0  0  0  0
  6  5  2  0  0  0  0
  7  1  1  0  0  0  0
  8  2  1  0  0  0  0
 11 13  2  0  0  0  0
 12 11  2  0  0  0  0
 15 14  3  0  0  0  0
M  RAD  1   3   2
M  END
