Coordinates from ORCA-job 4-NO2-Ph-N2+-scan-d090-169-n800
 OpenBabel09191814013D

 15 14  0  0  0  0  0  0  0  0999 V2000
   -2.6050   -0.2103   -0.5888 C   0  0  0  0  0  0  0  0  0  0  0  0
   -1.1837   -0.2549   -0.7131 C   0  0  0  0  0  0  0  0  0  0  0  0
   -0.7831    0.8686   -0.1236 C   0  0  0  0  0  0  0  0  0  0  0  0
   -1.0993    1.9915    0.5159 C   0  0  0  0  0  0  0  0  0  0  0  0
   -2.5241    1.9451    0.5904 C   0  0  0  0  0  0  0  0  0  0  0  0
   -3.2240    0.8670    0.0468 C   0  0  0  0  0  0  0  0  0  0  0  0
   -3.1893   -1.0316   -0.9994 H   0  0  0  0  0  0  0  0  0  0  0  0
   -0.6216   -1.0508   -1.1900 H   0  0  0  0  0  0  0  0  0  0  0  0
   -0.4775    2.7882    0.9102 H   0  0  0  0  0  0  0  0  0  0  0  0
   -3.0467    2.7657    1.0781 H   0  0  0  0  0  0  0  0  0  0  0  0
   -4.7069    0.8660    0.1503 N   0  0  0  0  0  0  0  0  0  0  0  0
   -5.2797   -0.0969   -0.3389 O   0  0  0  0  0  0  0  0  0  0  0  0
   -5.2074    1.8283    0.7144 O   0  0  0  0  0  0  0  0  0  0  0  0
    5.2285    0.8631   -0.5470 N   0  0  0  0  0  0  0  0  0  0  0  0
    6.3312    0.8624   -0.6242 N   0  0  0  0  0  0  0  0  0  0  0  0
  1  6  1  0  0  0  0
  2  1  2  0  0  0  0
  2  3  1  0  0  0  0
  3  4  2  0  0  0  0
  4  5  1  0  0  0  0
  4  9  1  0  0  0  0
  5 10  1  0  0  0  0
  6 11  1  0  0  0  0
  6  5  2  0  0  0  0
  7  1  1  0  0  0  0
  8  2  1  0  0  0  0
 11 13  2  0  0  0  0
 12 11  2  0  0  0  0
 15 14  3  0  0  0  0
M  RAD  1   3   2
M  END
