Coordinates from ORCA-job 4-NO2-Ph-N2+-scan-d090-169-n800
 OpenBabel09191814013D

 15 14  0  0  0  0  0  0  0  0999 V2000
   -2.6077   -0.2103   -0.5886 C   0  0  0  0  0  0  0  0  0  0  0  0
   -1.1864   -0.2547   -0.7127 C   0  0  0  0  0  0  0  0  0  0  0  0
   -0.7855    0.8686   -0.1234 C   0  0  0  0  0  0  0  0  0  0  0  0
   -1.1021    1.9914    0.5160 C   0  0  0  0  0  0  0  0  0  0  0  0
   -2.5268    1.9451    0.5906 C   0  0  0  0  0  0  0  0  0  0  0  0
   -3.2267    0.8670    0.0470 C   0  0  0  0  0  0  0  0  0  0  0  0
   -3.1917   -1.0318   -0.9992 H   0  0  0  0  0  0  0  0  0  0  0  0
   -0.6244   -1.0506   -1.1897 H   0  0  0  0  0  0  0  0  0  0  0  0
   -0.4804    2.7881    0.9104 H   0  0  0  0  0  0  0  0  0  0  0  0
   -3.0492    2.7658    1.0784 H   0  0  0  0  0  0  0  0  0  0  0  0
   -4.7096    0.8660    0.1504 N   0  0  0  0  0  0  0  0  0  0  0  0
   -5.2824   -0.0969   -0.3389 O   0  0  0  0  0  0  0  0  0  0  0  0
   -5.2101    1.8284    0.7145 O   0  0  0  0  0  0  0  0  0  0  0  0
    5.2460    0.8631   -0.5483 N   0  0  0  0  0  0  0  0  0  0  0  0
    6.3486    0.8624   -0.6255 N   0  0  0  0  0  0  0  0  0  0  0  0
  1  6  1  0  0  0  0
  2  1  2  0  0  0  0
  2  3  1  0  0  0  0
  3  4  2  0  0  0  0
  4  5  1  0  0  0  0
  4  9  1  0  0  0  0
  5 10  1  0  0  0  0
  6 11  1  0  0  0  0
  6  5  2  0  0  0  0
  7  1  1  0  0  0  0
  8  2  1  0  0  0  0
 11 13  2  0  0  0  0
 12 11  2  0  0  0  0
 15 14  3  0  0  0  0
M  RAD  1   3   2
M  END
