Coordinates from ORCA-job 4-NO2-Ph-N2+-scan-d090-169-n800
 OpenBabel09191814013D

 15 14  0  0  0  0  0  0  0  0999 V2000
   -3.6899   -0.2057   -0.5104 C   0  0  0  0  0  0  0  0  0  0  0  0
   -2.2678   -0.2404   -0.6294 C   0  0  0  0  0  0  0  0  0  0  0  0
   -1.8770    0.8855   -0.0380 C   0  0  0  0  0  0  0  0  0  0  0  0
   -2.2035    2.0059    0.6009 C   0  0  0  0  0  0  0  0  0  0  0  0
   -3.6282    1.9496    0.6700 C   0  0  0  0  0  0  0  0  0  0  0  0
   -4.3187    0.8669    0.1234 C   0  0  0  0  0  0  0  0  0  0  0  0
   -4.2668   -1.0309   -0.9236 H   0  0  0  0  0  0  0  0  0  0  0  0
   -1.6989   -1.0324   -1.1048 H   0  0  0  0  0  0  0  0  0  0  0  0
   -1.5891    2.8069    0.9980 H   0  0  0  0  0  0  0  0  0  0  0  0
   -4.1582    2.7664    1.1563 H   0  0  0  0  0  0  0  0  0  0  0  0
   -5.8019    0.8557    0.2214 N   0  0  0  0  0  0  0  0  0  0  0  0
   -6.3661   -0.1110   -0.2704 O   0  0  0  0  0  0  0  0  0  0  0  0
   -6.3111    1.8142    0.7841 O   0  0  0  0  0  0  0  0  0  0  0  0
   12.3430    0.8363   -1.0594 N   0  0  0  0  0  0  0  0  0  0  0  0
   13.4458    0.8344   -1.1369 N   0  0  0  0  0  0  0  0  0  0  0  0
  1  6  1  0  0  0  0
  2  1  2  0  0  0  0
  2  3  1  0  0  0  0
  3  4  2  0  0  0  0
  4  5  1  0  0  0  0
  4  9  1  0  0  0  0
  5 10  1  0  0  0  0
  6 11  1  0  0  0  0
  6  5  2  0  0  0  0
  7  1  1  0  0  0  0
  8  2  1  0  0  0  0
 11 13  2  0  0  0  0
 12 11  2  0  0  0  0
 15 14  3  0  0  0  0
M  RAD  1   3   2
M  END
