Coordinates from ORCA-job 4-NO2-Ph-N2+-scan-d090-169-n800
 OpenBabel09191814013D

 15 14  0  0  0  0  0  0  0  0999 V2000
   -3.5846   -0.2062   -0.5181 C   0  0  0  0  0  0  0  0  0  0  0  0
   -2.1626   -0.2422   -0.6378 C   0  0  0  0  0  0  0  0  0  0  0  0
   -1.7705    0.8833   -0.0466 C   0  0  0  0  0  0  0  0  0  0  0  0
   -2.0957    2.0041    0.5923 C   0  0  0  0  0  0  0  0  0  0  0  0
   -3.5205    1.9490    0.6622 C   0  0  0  0  0  0  0  0  0  0  0  0
   -4.2121    0.8670    0.1159 C   0  0  0  0  0  0  0  0  0  0  0  0
   -4.1625   -1.0309   -0.9309 H   0  0  0  0  0  0  0  0  0  0  0  0
   -1.5947   -1.0348   -1.1134 H   0  0  0  0  0  0  0  0  0  0  0  0
   -1.4804    2.8045    0.9891 H   0  0  0  0  0  0  0  0  0  0  0  0
   -4.0494    2.7664    1.1486 H   0  0  0  0  0  0  0  0  0  0  0  0
   -5.6953    0.8571    0.2147 N   0  0  0  0  0  0  0  0  0  0  0  0
   -6.2607   -0.1091   -0.2767 O   0  0  0  0  0  0  0  0  0  0  0  0
   -6.2034    1.8161    0.7777 O   0  0  0  0  0  0  0  0  0  0  0  0
   11.6507    0.8399   -1.0090 N   0  0  0  0  0  0  0  0  0  0  0  0
   12.7534    0.8373   -1.0869 N   0  0  0  0  0  0  0  0  0  0  0  0
  1  6  1  0  0  0  0
  2  1  2  0  0  0  0
  2  3  1  0  0  0  0
  3  4  2  0  0  0  0
  4  5  1  0  0  0  0
  4  9  1  0  0  0  0
  5 10  1  0  0  0  0
  6 11  1  0  0  0  0
  6  5  2  0  0  0  0
  7  1  1  0  0  0  0
  8  2  1  0  0  0  0
 11 13  2  0  0  0  0
 12 11  2  0  0  0  0
 15 14  3  0  0  0  0
M  RAD  1   3   2
M  END
