Coordinates from ORCA-job 4-NO2-Ph-N2+-scan-d090-169-n800
 OpenBabel09191814013D

 15 14  0  0  0  0  0  0  0  0999 V2000
   -2.7295   -0.2099   -0.5799 C   0  0  0  0  0  0  0  0  0  0  0  0
   -1.3081   -0.2538   -0.7038 C   0  0  0  0  0  0  0  0  0  0  0  0
   -0.9082    0.8698   -0.1142 C   0  0  0  0  0  0  0  0  0  0  0  0
   -1.2251    1.9926    0.5253 C   0  0  0  0  0  0  0  0  0  0  0  0
   -2.6499    1.9455    0.5993 C   0  0  0  0  0  0  0  0  0  0  0  0
   -3.3492    0.8670    0.0556 C   0  0  0  0  0  0  0  0  0  0  0  0
   -3.3132   -1.0315   -0.9906 H   0  0  0  0  0  0  0  0  0  0  0  0
   -0.7457   -1.0495   -1.1807 H   0  0  0  0  0  0  0  0  0  0  0  0
   -0.6040    2.7897    0.9198 H   0  0  0  0  0  0  0  0  0  0  0  0
   -3.1730    2.7659    1.0870 H   0  0  0  0  0  0  0  0  0  0  0  0
   -4.8321    0.8653    0.1587 N   0  0  0  0  0  0  0  0  0  0  0  0
   -5.4043   -0.0979   -0.3307 O   0  0  0  0  0  0  0  0  0  0  0  0
   -5.3332    1.8274    0.7228 O   0  0  0  0  0  0  0  0  0  0  0  0
    6.0421    0.8610   -0.6050 N   0  0  0  0  0  0  0  0  0  0  0  0
    7.1448    0.8600   -0.6824 N   0  0  0  0  0  0  0  0  0  0  0  0
  1  6  1  0  0  0  0
  2  1  2  0  0  0  0
  2  3  1  0  0  0  0
  3  4  2  0  0  0  0
  4  5  1  0  0  0  0
  4  9  1  0  0  0  0
  5 10  1  0  0  0  0
  6 11  1  0  0  0  0
  6  5  2  0  0  0  0
  7  1  1  0  0  0  0
  8  2  1  0  0  0  0
 11 13  2  0  0  0  0
 12 11  2  0  0  0  0
 15 14  3  0  0  0  0
M  RAD  1   3   2
M  END
