Coordinates from ORCA-job 4-NO2-Ph-N2+-scan-d090-169-n800
 OpenBabel09191814013D

 15 14  0  0  0  0  0  0  0  0999 V2000
   -3.2738   -0.2077   -0.5407 C   0  0  0  0  0  0  0  0  0  0  0  0
   -1.8521   -0.2472   -0.6622 C   0  0  0  0  0  0  0  0  0  0  0  0
   -1.4564    0.8775   -0.0718 C   0  0  0  0  0  0  0  0  0  0  0  0
   -1.7781    1.9991    0.5674 C   0  0  0  0  0  0  0  0  0  0  0  0
   -3.2029    1.9476    0.6392 C   0  0  0  0  0  0  0  0  0  0  0  0
   -3.8979    0.8671    0.0940 C   0  0  0  0  0  0  0  0  0  0  0  0
   -3.8541   -1.0312   -0.9526 H   0  0  0  0  0  0  0  0  0  0  0  0
   -1.2867   -1.0412   -1.1384 H   0  0  0  0  0  0  0  0  0  0  0  0
   -1.1603    2.7982    0.9633 H   0  0  0  0  0  0  0  0  0  0  0  0
   -3.7292    2.7663    1.1262 H   0  0  0  0  0  0  0  0  0  0  0  0
   -5.3810    0.8608    0.1947 N   0  0  0  0  0  0  0  0  0  0  0  0
   -5.9493   -0.1041   -0.2958 O   0  0  0  0  0  0  0  0  0  0  0  0
   -5.8859    1.8211    0.7582 O   0  0  0  0  0  0  0  0  0  0  0  0
    9.6082    0.8487   -0.8613 N   0  0  0  0  0  0  0  0  0  0  0  0
   10.7109    0.8465   -0.9390 N   0  0  0  0  0  0  0  0  0  0  0  0
  1  6  1  0  0  0  0
  2  1  2  0  0  0  0
  2  3  1  0  0  0  0
  3  4  2  0  0  0  0
  4  5  1  0  0  0  0
  4  9  1  0  0  0  0
  5 10  1  0  0  0  0
  6 11  1  0  0  0  0
  6  5  2  0  0  0  0
  7  1  1  0  0  0  0
  8  2  1  0  0  0  0
 11 13  2  0  0  0  0
 12 11  2  0  0  0  0
 15 14  3  0  0  0  0
M  RAD  1   3   2
M  END
