Coordinates from ORCA-job 4-NO2-Ph-N2+-scan-d090-169-n800
 OpenBabel09191814013D

 15 14  0  0  0  0  0  0  0  0999 V2000
   -2.9385   -0.2092   -0.5649 C   0  0  0  0  0  0  0  0  0  0  0  0
   -1.5169   -0.2516   -0.6880 C   0  0  0  0  0  0  0  0  0  0  0  0
   -1.1184    0.8724   -0.0982 C   0  0  0  0  0  0  0  0  0  0  0  0
   -1.4370    1.9948    0.5412 C   0  0  0  0  0  0  0  0  0  0  0  0
   -2.8617    1.9462    0.6146 C   0  0  0  0  0  0  0  0  0  0  0  0
   -3.5596    0.8671    0.0704 C   0  0  0  0  0  0  0  0  0  0  0  0
   -3.5211   -1.0314   -0.9760 H   0  0  0  0  0  0  0  0  0  0  0  0
   -0.9537   -1.0468   -1.1647 H   0  0  0  0  0  0  0  0  0  0  0  0
   -0.8170    2.7926    0.9362 H   0  0  0  0  0  0  0  0  0  0  0  0
   -3.3859    2.7660    1.1020 H   0  0  0  0  0  0  0  0  0  0  0  0
   -5.0426    0.8639    0.1727 N   0  0  0  0  0  0  0  0  0  0  0  0
   -5.6135   -0.0999   -0.3171 O   0  0  0  0  0  0  0  0  0  0  0  0
   -5.5449    1.8253    0.7365 O   0  0  0  0  0  0  0  0  0  0  0  0
    7.4097    0.8568   -0.7031 N   0  0  0  0  0  0  0  0  0  0  0  0
    8.5125    0.8553   -0.7805 N   0  0  0  0  0  0  0  0  0  0  0  0
  1  6  1  0  0  0  0
  2  1  2  0  0  0  0
  2  3  1  0  0  0  0
  3  4  2  0  0  0  0
  4  5  1  0  0  0  0
  4  9  1  0  0  0  0
  5 10  1  0  0  0  0
  6 11  1  0  0  0  0
  6  5  2  0  0  0  0
  7  1  1  0  0  0  0
  8  2  1  0  0  0  0
 11 13  2  0  0  0  0
 12 11  2  0  0  0  0
 15 14  3  0  0  0  0
M  RAD  1   3   2
M  END
