Coordinates from ORCA-job 4-NO2-Ph-N2+-scan-d090-169-n800
 OpenBabel09191814013D

 15 14  0  0  0  0  0  0  0  0999 V2000
   -3.4161   -0.2071   -0.5304 C   0  0  0  0  0  0  0  0  0  0  0  0
   -1.9943   -0.2450   -0.6511 C   0  0  0  0  0  0  0  0  0  0  0  0
   -1.6001    0.8801   -0.0603 C   0  0  0  0  0  0  0  0  0  0  0  0
   -1.9234    2.0013    0.5787 C   0  0  0  0  0  0  0  0  0  0  0  0
   -3.3481    1.9482    0.6497 C   0  0  0  0  0  0  0  0  0  0  0  0
   -4.0417    0.8671    0.1041 C   0  0  0  0  0  0  0  0  0  0  0  0
   -3.9954   -1.0311   -0.9426 H   0  0  0  0  0  0  0  0  0  0  0  0
   -1.4278   -1.0384   -1.1270 H   0  0  0  0  0  0  0  0  0  0  0  0
   -1.3067    2.8009    0.9750 H   0  0  0  0  0  0  0  0  0  0  0  0
   -3.8756    2.7663    1.1365 H   0  0  0  0  0  0  0  0  0  0  0  0
   -5.5248    0.8592    0.2039 N   0  0  0  0  0  0  0  0  0  0  0  0
   -6.0919   -0.1063   -0.2870 O   0  0  0  0  0  0  0  0  0  0  0  0
   -6.0311    1.8189    0.7672 O   0  0  0  0  0  0  0  0  0  0  0  0
   10.5429    0.8448   -0.9289 N   0  0  0  0  0  0  0  0  0  0  0  0
   11.6456    0.8424   -1.0066 N   0  0  0  0  0  0  0  0  0  0  0  0
  1  6  1  0  0  0  0
  2  1  2  0  0  0  0
  2  3  1  0  0  0  0
  3  4  2  0  0  0  0
  4  5  1  0  0  0  0
  4  9  1  0  0  0  0
  5 10  1  0  0  0  0
  6 11  1  0  0  0  0
  6  5  2  0  0  0  0
  7  1  1  0  0  0  0
  8  2  1  0  0  0  0
 11 13  2  0  0  0  0
 12 11  2  0  0  0  0
 15 14  3  0  0  0  0
M  RAD  1   3   2
M  END
