Coordinates from ORCA-job 4-NO2-Ph-N2+-scan-d090-169-n800
 OpenBabel09191814003D

 15 14  0  0  0  0  0  0  0  0999 V2000
   -2.3689   -0.2109   -0.6056 C   0  0  0  0  0  0  0  0  0  0  0  0
   -0.9479   -0.2558   -0.7300 C   0  0  0  0  0  0  0  0  0  0  0  0
   -0.5455    0.8670   -0.1409 C   0  0  0  0  0  0  0  0  0  0  0  0
   -0.8620    1.9899    0.4985 C   0  0  0  0  0  0  0  0  0  0  0  0
   -2.2864    1.9447    0.5735 C   0  0  0  0  0  0  0  0  0  0  0  0
   -2.9871    0.8669    0.0301 C   0  0  0  0  0  0  0  0  0  0  0  0
   -2.9538   -1.0318   -1.0159 H   0  0  0  0  0  0  0  0  0  0  0  0
   -0.3855   -1.0515   -1.2068 H   0  0  0  0  0  0  0  0  0  0  0  0
   -0.2386    2.7856    0.8922 H   0  0  0  0  0  0  0  0  0  0  0  0
   -2.8085    2.7656    1.0614 H   0  0  0  0  0  0  0  0  0  0  0  0
   -4.4699    0.8668    0.1340 N   0  0  0  0  0  0  0  0  0  0  0  0
   -5.0436   -0.0958   -0.3550 O   0  0  0  0  0  0  0  0  0  0  0  0
   -4.9699    1.8294    0.6982 O   0  0  0  0  0  0  0  0  0  0  0  0
    3.6883    0.8658   -0.4378 N   0  0  0  0  0  0  0  0  0  0  0  0
    4.7909    0.8656   -0.5149 N   0  0  0  0  0  0  0  0  0  0  0  0
  1  6  1  0  0  0  0
  2  1  2  0  0  0  0
  2  3  1  0  0  0  0
  3  4  2  0  0  0  0
  4  5  1  0  0  0  0
  4  9  1  0  0  0  0
  5 10  1  0  0  0  0
  6 11  1  0  0  0  0
  6  5  2  0  0  0  0
  7  1  1  0  0  0  0
  8  2  1  0  0  0  0
 11 13  2  0  0  0  0
 12 11  2  0  0  0  0
 15 14  3  0  0  0  0
M  RAD  1   3   2
M  END
