Coordinates from ORCA-job 4-NO2-Ph-N2+-scan-d090-169-n800
 OpenBabel09191814013D

 15 14  0  0  0  0  0  0  0  0999 V2000
   -3.4029   -0.2072   -0.5313 C   0  0  0  0  0  0  0  0  0  0  0  0
   -1.9812   -0.2451   -0.6520 C   0  0  0  0  0  0  0  0  0  0  0  0
   -1.5867    0.8798   -0.0614 C   0  0  0  0  0  0  0  0  0  0  0  0
   -1.9100    2.0009    0.5776 C   0  0  0  0  0  0  0  0  0  0  0  0
   -3.3347    1.9482    0.6487 C   0  0  0  0  0  0  0  0  0  0  0  0
   -4.0284    0.8671    0.1032 C   0  0  0  0  0  0  0  0  0  0  0  0
   -3.9822   -1.0312   -0.9436 H   0  0  0  0  0  0  0  0  0  0  0  0
   -1.4148   -1.0385   -1.1280 H   0  0  0  0  0  0  0  0  0  0  0  0
   -1.2932    2.8006    0.9739 H   0  0  0  0  0  0  0  0  0  0  0  0
   -3.8619    2.7664    1.1356 H   0  0  0  0  0  0  0  0  0  0  0  0
   -5.5116    0.8593    0.2031 N   0  0  0  0  0  0  0  0  0  0  0  0
   -6.0787   -0.1060   -0.2879 O   0  0  0  0  0  0  0  0  0  0  0  0
   -6.0177    1.8192    0.7663 O   0  0  0  0  0  0  0  0  0  0  0  0
   10.4564    0.8452   -0.9226 N   0  0  0  0  0  0  0  0  0  0  0  0
   11.5592    0.8428   -1.0004 N   0  0  0  0  0  0  0  0  0  0  0  0
  1  6  1  0  0  0  0
  2  1  2  0  0  0  0
  2  3  1  0  0  0  0
  3  4  2  0  0  0  0
  4  5  1  0  0  0  0
  4  9  1  0  0  0  0
  5 10  1  0  0  0  0
  6 11  1  0  0  0  0
  6  5  2  0  0  0  0
  7  1  1  0  0  0  0
  8  2  1  0  0  0  0
 11 13  2  0  0  0  0
 12 11  2  0  0  0  0
 15 14  3  0  0  0  0
M  RAD  1   3   2
M  END
