Coordinates from ORCA-job 4-NO2-Ph-N2+-scan-d090-169-n800
 OpenBabel09191814013D

 15 14  0  0  0  0  0  0  0  0999 V2000
   -2.5573   -0.2104   -0.5923 C   0  0  0  0  0  0  0  0  0  0  0  0
   -1.1361   -0.2551   -0.7165 C   0  0  0  0  0  0  0  0  0  0  0  0
   -0.7350    0.8681   -0.1272 C   0  0  0  0  0  0  0  0  0  0  0  0
   -1.0513    1.9911    0.5123 C   0  0  0  0  0  0  0  0  0  0  0  0
   -2.4759    1.9450    0.5869 C   0  0  0  0  0  0  0  0  0  0  0  0
   -3.1761    0.8670    0.0434 C   0  0  0  0  0  0  0  0  0  0  0  0
   -3.1416   -1.0317   -1.0027 H   0  0  0  0  0  0  0  0  0  0  0  0
   -0.5741   -1.0511   -1.1935 H   0  0  0  0  0  0  0  0  0  0  0  0
   -0.4292    2.7876    0.9066 H   0  0  0  0  0  0  0  0  0  0  0  0
   -2.9983    2.7657    1.0747 H   0  0  0  0  0  0  0  0  0  0  0  0
   -4.6590    0.8663    0.1470 N   0  0  0  0  0  0  0  0  0  0  0  0
   -5.2320   -0.0966   -0.3421 O   0  0  0  0  0  0  0  0  0  0  0  0
   -5.1593    1.8286    0.7112 O   0  0  0  0  0  0  0  0  0  0  0  0
    4.9170    0.8639   -0.5248 N   0  0  0  0  0  0  0  0  0  0  0  0
    6.0197    0.8633   -0.6020 N   0  0  0  0  0  0  0  0  0  0  0  0
  1  6  1  0  0  0  0
  2  1  2  0  0  0  0
  2  3  1  0  0  0  0
  3  4  2  0  0  0  0
  4  5  1  0  0  0  0
  4  9  1  0  0  0  0
  5 10  1  0  0  0  0
  6 11  1  0  0  0  0
  6  5  2  0  0  0  0
  7  1  1  0  0  0  0
  8  2  1  0  0  0  0
 11 13  2  0  0  0  0
 12 11  2  0  0  0  0
 15 14  3  0  0  0  0
M  RAD  1   3   2
M  END
