Coordinates from ORCA-job 4-NO2-Ph-N2+-scan-d090-169-n800
 OpenBabel09191814013D

 15 14  0  0  0  0  0  0  0  0999 V2000
   -2.9649   -0.2090   -0.5631 C   0  0  0  0  0  0  0  0  0  0  0  0
   -1.5435   -0.2511   -0.6860 C   0  0  0  0  0  0  0  0  0  0  0  0
   -1.1449    0.8728   -0.0962 C   0  0  0  0  0  0  0  0  0  0  0  0
   -1.4639    1.9950    0.5431 C   0  0  0  0  0  0  0  0  0  0  0  0
   -2.8886    1.9463    0.6164 C   0  0  0  0  0  0  0  0  0  0  0  0
   -3.5863    0.8671    0.0722 C   0  0  0  0  0  0  0  0  0  0  0  0
   -3.5472   -1.0315   -0.9743 H   0  0  0  0  0  0  0  0  0  0  0  0
   -0.9801   -1.0462   -1.1627 H   0  0  0  0  0  0  0  0  0  0  0  0
   -0.8441    2.7929    0.9382 H   0  0  0  0  0  0  0  0  0  0  0  0
   -3.4127    2.7662    1.1039 H   0  0  0  0  0  0  0  0  0  0  0  0
   -5.0693    0.8636    0.1745 N   0  0  0  0  0  0  0  0  0  0  0  0
   -5.6400   -0.1003   -0.3152 O   0  0  0  0  0  0  0  0  0  0  0  0
   -5.5718    1.8250    0.7384 O   0  0  0  0  0  0  0  0  0  0  0  0
    7.5830    0.8562   -0.7155 N   0  0  0  0  0  0  0  0  0  0  0  0
    8.6857    0.8546   -0.7930 N   0  0  0  0  0  0  0  0  0  0  0  0
  1  6  1  0  0  0  0
  2  1  2  0  0  0  0
  2  3  1  0  0  0  0
  3  4  2  0  0  0  0
  4  5  1  0  0  0  0
  4  9  1  0  0  0  0
  5 10  1  0  0  0  0
  6 11  1  0  0  0  0
  6  5  2  0  0  0  0
  7  1  1  0  0  0  0
  8  2  1  0  0  0  0
 11 13  2  0  0  0  0
 12 11  2  0  0  0  0
 15 14  3  0  0  0  0
M  RAD  1   3   2
M  END
