Coordinates from ORCA-job 4-NO2-Ph-N2+-scan-d090-169-n800
 OpenBabel09191814013D

 15 14  0  0  0  0  0  0  0  0999 V2000
   -3.3371   -0.2074   -0.5361 C   0  0  0  0  0  0  0  0  0  0  0  0
   -1.9153   -0.2462   -0.6573 C   0  0  0  0  0  0  0  0  0  0  0  0
   -1.5203    0.8786   -0.0667 C   0  0  0  0  0  0  0  0  0  0  0  0
   -1.8426    2.0001    0.5724 C   0  0  0  0  0  0  0  0  0  0  0  0
   -3.2674    1.9479    0.6438 C   0  0  0  0  0  0  0  0  0  0  0  0
   -3.9618    0.8671    0.0985 C   0  0  0  0  0  0  0  0  0  0  0  0
   -3.9170   -1.0311   -0.9481 H   0  0  0  0  0  0  0  0  0  0  0  0
   -1.3494   -1.0400   -1.1334 H   0  0  0  0  0  0  0  0  0  0  0  0
   -1.2253    2.7994    0.9685 H   0  0  0  0  0  0  0  0  0  0  0  0
   -3.7942    2.7663    1.1307 H   0  0  0  0  0  0  0  0  0  0  0  0
   -5.4449    0.8601    0.1988 N   0  0  0  0  0  0  0  0  0  0  0  0
   -6.0127   -0.1051   -0.2919 O   0  0  0  0  0  0  0  0  0  0  0  0
   -5.9504    1.8202    0.7622 O   0  0  0  0  0  0  0  0  0  0  0  0
   10.0236    0.8470   -0.8913 N   0  0  0  0  0  0  0  0  0  0  0  0
   11.1263    0.8447   -0.9690 N   0  0  0  0  0  0  0  0  0  0  0  0
  1  6  1  0  0  0  0
  2  1  2  0  0  0  0
  2  3  1  0  0  0  0
  3  4  2  0  0  0  0
  4  5  1  0  0  0  0
  4  9  1  0  0  0  0
  5 10  1  0  0  0  0
  6 11  1  0  0  0  0
  6  5  2  0  0  0  0
  7  1  1  0  0  0  0
  8  2  1  0  0  0  0
 11 13  2  0  0  0  0
 12 11  2  0  0  0  0
 15 14  3  0  0  0  0
M  RAD  1   3   2
M  END
