Coordinates from ORCA-job 4-NO2-Ph-N2+-scan-d090-169-n800
 OpenBabel09191814013D

 15 14  0  0  0  0  0  0  0  0999 V2000
   -3.7504   -0.2054   -0.5060 C   0  0  0  0  0  0  0  0  0  0  0  0
   -2.3282   -0.2394   -0.6246 C   0  0  0  0  0  0  0  0  0  0  0  0
   -1.9382    0.8867   -0.0330 C   0  0  0  0  0  0  0  0  0  0  0  0
   -2.2655    2.0069    0.6058 C   0  0  0  0  0  0  0  0  0  0  0  0
   -3.6902    1.9499    0.6745 C   0  0  0  0  0  0  0  0  0  0  0  0
   -4.3799    0.8669    0.1276 C   0  0  0  0  0  0  0  0  0  0  0  0
   -4.3268   -1.0308   -0.9193 H   0  0  0  0  0  0  0  0  0  0  0  0
   -1.7588   -1.0310   -1.0998 H   0  0  0  0  0  0  0  0  0  0  0  0
   -1.6515    2.8082    1.0031 H   0  0  0  0  0  0  0  0  0  0  0  0
   -4.2207    2.7664    1.1606 H   0  0  0  0  0  0  0  0  0  0  0  0
   -5.8632    0.8549    0.2252 N   0  0  0  0  0  0  0  0  0  0  0  0
   -6.4268   -0.1120   -0.2668 O   0  0  0  0  0  0  0  0  0  0  0  0
   -6.3730    1.8132    0.7879 O   0  0  0  0  0  0  0  0  0  0  0  0
   12.7410    0.8334   -1.0889 N   0  0  0  0  0  0  0  0  0  0  0  0
   13.8438    0.8336   -1.1652 N   0  0  0  0  0  0  0  0  0  0  0  0
  1  6  1  0  0  0  0
  2  1  2  0  0  0  0
  2  3  1  0  0  0  0
  3  4  2  0  0  0  0
  4  5  1  0  0  0  0
  4  9  1  0  0  0  0
  5 10  1  0  0  0  0
  6 11  1  0  0  0  0
  6  5  2  0  0  0  0
  7  1  1  0  0  0  0
  8  2  1  0  0  0  0
 11 13  2  0  0  0  0
 12 11  2  0  0  0  0
 15 14  3  0  0  0  0
M  RAD  1   3   2
M  END
