Coordinates from ORCA-job 4-NO2-Ph-N2+-scan-d090-169-n800
 OpenBabel09191814013D

 15 14  0  0  0  0  0  0  0  0999 V2000
   -2.9808   -0.2090   -0.5619 C   0  0  0  0  0  0  0  0  0  0  0  0
   -1.5592   -0.2511   -0.6848 C   0  0  0  0  0  0  0  0  0  0  0  0
   -1.1610    0.8730   -0.0949 C   0  0  0  0  0  0  0  0  0  0  0  0
   -1.4799    1.9953    0.5445 C   0  0  0  0  0  0  0  0  0  0  0  0
   -2.9047    1.9464    0.6176 C   0  0  0  0  0  0  0  0  0  0  0  0
   -3.6022    0.8671    0.0733 C   0  0  0  0  0  0  0  0  0  0  0  0
   -3.5631   -1.0314   -0.9730 H   0  0  0  0  0  0  0  0  0  0  0  0
   -0.9956   -1.0461   -1.1615 H   0  0  0  0  0  0  0  0  0  0  0  0
   -0.8601    2.7932    0.9396 H   0  0  0  0  0  0  0  0  0  0  0  0
   -3.4291    2.7661    1.1051 H   0  0  0  0  0  0  0  0  0  0  0  0
   -5.0852    0.8635    0.1755 N   0  0  0  0  0  0  0  0  0  0  0  0
   -5.6558   -0.1004   -0.3143 O   0  0  0  0  0  0  0  0  0  0  0  0
   -5.5879    1.8249    0.7393 O   0  0  0  0  0  0  0  0  0  0  0  0
    7.6866    0.8558   -0.7230 N   0  0  0  0  0  0  0  0  0  0  0  0
    8.7894    0.8543   -0.8005 N   0  0  0  0  0  0  0  0  0  0  0  0
  1  6  1  0  0  0  0
  2  1  2  0  0  0  0
  2  3  1  0  0  0  0
  3  4  2  0  0  0  0
  4  5  1  0  0  0  0
  4  9  1  0  0  0  0
  5 10  1  0  0  0  0
  6 11  1  0  0  0  0
  6  5  2  0  0  0  0
  7  1  1  0  0  0  0
  8  2  1  0  0  0  0
 11 13  2  0  0  0  0
 12 11  2  0  0  0  0
 15 14  3  0  0  0  0
M  RAD  1   3   2
M  END
