Coordinates from ORCA-job 4-NO2-Ph-N2+-scan-d090-169-n800
 OpenBabel09191814013D

 15 14  0  0  0  0  0  0  0  0999 V2000
   -3.3160   -0.2076   -0.5377 C   0  0  0  0  0  0  0  0  0  0  0  0
   -1.8943   -0.2464   -0.6589 C   0  0  0  0  0  0  0  0  0  0  0  0
   -1.4989    0.8783   -0.0684 C   0  0  0  0  0  0  0  0  0  0  0  0
   -1.8212    1.9996    0.5707 C   0  0  0  0  0  0  0  0  0  0  0  0
   -3.2459    1.9478    0.6423 C   0  0  0  0  0  0  0  0  0  0  0  0
   -3.9405    0.8671    0.0970 C   0  0  0  0  0  0  0  0  0  0  0  0
   -3.8959   -1.0312   -0.9497 H   0  0  0  0  0  0  0  0  0  0  0  0
   -1.3286   -1.0403   -1.1350 H   0  0  0  0  0  0  0  0  0  0  0  0
   -1.2038    2.7989    0.9667 H   0  0  0  0  0  0  0  0  0  0  0  0
   -3.7724    2.7664    1.1293 H   0  0  0  0  0  0  0  0  0  0  0  0
   -5.4236    0.8603    0.1975 N   0  0  0  0  0  0  0  0  0  0  0  0
   -5.9916   -0.1048   -0.2932 O   0  0  0  0  0  0  0  0  0  0  0  0
   -5.9290    1.8205    0.7609 O   0  0  0  0  0  0  0  0  0  0  0  0
    9.8852    0.8475   -0.8813 N   0  0  0  0  0  0  0  0  0  0  0  0
   10.9880    0.8453   -0.9590 N   0  0  0  0  0  0  0  0  0  0  0  0
  1  6  1  0  0  0  0
  2  1  2  0  0  0  0
  2  3  1  0  0  0  0
  3  4  2  0  0  0  0
  4  5  1  0  0  0  0
  4  9  1  0  0  0  0
  5 10  1  0  0  0  0
  6 11  1  0  0  0  0
  6  5  2  0  0  0  0
  7  1  1  0  0  0  0
  8  2  1  0  0  0  0
 11 13  2  0  0  0  0
 12 11  2  0  0  0  0
 15 14  3  0  0  0  0
M  RAD  1   3   2
M  END
