Coordinates from ORCA-job 4-NO2-Ph-N2+-scan-d090-169-n800
 OpenBabel09191814013D

 15 14  0  0  0  0  0  0  0  0999 V2000
   -2.4777   -0.2106   -0.5979 C   0  0  0  0  0  0  0  0  0  0  0  0
   -1.0565   -0.2556   -0.7223 C   0  0  0  0  0  0  0  0  0  0  0  0
   -0.6551    0.8676   -0.1330 C   0  0  0  0  0  0  0  0  0  0  0  0
   -0.9711    1.9905    0.5065 C   0  0  0  0  0  0  0  0  0  0  0  0
   -2.3958    1.9448    0.5812 C   0  0  0  0  0  0  0  0  0  0  0  0
   -3.0962    0.8669    0.0378 C   0  0  0  0  0  0  0  0  0  0  0  0
   -3.0623   -1.0317   -1.0083 H   0  0  0  0  0  0  0  0  0  0  0  0
   -0.4946   -1.0515   -1.1992 H   0  0  0  0  0  0  0  0  0  0  0  0
   -0.3486    2.7868    0.9005 H   0  0  0  0  0  0  0  0  0  0  0  0
   -2.9179    2.7657    1.0691 H   0  0  0  0  0  0  0  0  0  0  0  0
   -4.5790    0.8665    0.1416 N   0  0  0  0  0  0  0  0  0  0  0  0
   -5.1524   -0.0962   -0.3475 O   0  0  0  0  0  0  0  0  0  0  0  0
   -5.0792    1.8290    0.7058 O   0  0  0  0  0  0  0  0  0  0  0  0
    4.3977    0.8649   -0.4879 N   0  0  0  0  0  0  0  0  0  0  0  0
    5.5003    0.8644   -0.5651 N   0  0  0  0  0  0  0  0  0  0  0  0
  1  6  1  0  0  0  0
  2  1  2  0  0  0  0
  2  3  1  0  0  0  0
  3  4  2  0  0  0  0
  4  5  1  0  0  0  0
  4  9  1  0  0  0  0
  5 10  1  0  0  0  0
  6 11  1  0  0  0  0
  6  5  2  0  0  0  0
  7  1  1  0  0  0  0
  8  2  1  0  0  0  0
 11 13  2  0  0  0  0
 12 11  2  0  0  0  0
 15 14  3  0  0  0  0
M  RAD  1   3   2
M  END
