Coordinates from ORCA-job 4-NO2-Ph-N2+-scan-d090-169-n800
 OpenBabel09191814013D

 15 14  0  0  0  0  0  0  0  0999 V2000
   -3.8582   -0.2048   -0.4982 C   0  0  0  0  0  0  0  0  0  0  0  0
   -2.4360   -0.2373   -0.6159 C   0  0  0  0  0  0  0  0  0  0  0  0
   -2.0472    0.8890   -0.0241 C   0  0  0  0  0  0  0  0  0  0  0  0
   -2.3761    2.0088    0.6146 C   0  0  0  0  0  0  0  0  0  0  0  0
   -3.8008    1.9505    0.6826 C   0  0  0  0  0  0  0  0  0  0  0  0
   -4.4891    0.8668    0.1352 C   0  0  0  0  0  0  0  0  0  0  0  0
   -4.4335   -1.0309   -0.9119 H   0  0  0  0  0  0  0  0  0  0  0  0
   -1.8656   -1.0284   -1.0909 H   0  0  0  0  0  0  0  0  0  0  0  0
   -1.7633    2.8107    1.0123 H   0  0  0  0  0  0  0  0  0  0  0  0
   -4.3322    2.7665    1.1685 H   0  0  0  0  0  0  0  0  0  0  0  0
   -5.9725    0.8534    0.2320 N   0  0  0  0  0  0  0  0  0  0  0  0
   -6.5348   -0.1141   -0.2604 O   0  0  0  0  0  0  0  0  0  0  0  0
   -6.4835    1.8111    0.7944 O   0  0  0  0  0  0  0  0  0  0  0  0
   13.4507    0.8287   -1.1412 N   0  0  0  0  0  0  0  0  0  0  0  0
   14.5537    0.8314   -1.2160 N   0  0  0  0  0  0  0  0  0  0  0  0
  1  6  1  0  0  0  0
  2  1  2  0  0  0  0
  2  3  1  0  0  0  0
  3  4  2  0  0  0  0
  4  5  1  0  0  0  0
  4  9  1  0  0  0  0
  5 10  1  0  0  0  0
  6 11  1  0  0  0  0
  6  5  2  0  0  0  0
  7  1  1  0  0  0  0
  8  2  1  0  0  0  0
 11 13  2  0  0  0  0
 12 11  2  0  0  0  0
 15 14  3  0  0  0  0
M  RAD  1   3   2
M  END
