Coordinates from ORCA-job 4-NO2-Ph-N2+-scan-d090-169-n800
 OpenBabel09191814013D

 15 14  0  0  0  0  0  0  0  0999 V2000
   -3.9501   -0.2042   -0.4915 C   0  0  0  0  0  0  0  0  0  0  0  0
   -2.5278   -0.2354   -0.6085 C   0  0  0  0  0  0  0  0  0  0  0  0
   -2.1404    0.8912   -0.0164 C   0  0  0  0  0  0  0  0  0  0  0  0
   -2.4706    2.0106    0.6222 C   0  0  0  0  0  0  0  0  0  0  0  0
   -3.8952    1.9510    0.6894 C   0  0  0  0  0  0  0  0  0  0  0  0
   -4.5824    0.8668    0.1417 C   0  0  0  0  0  0  0  0  0  0  0  0
   -4.5244   -1.0308   -0.9055 H   0  0  0  0  0  0  0  0  0  0  0  0
   -1.9565   -1.0260   -1.0832 H   0  0  0  0  0  0  0  0  0  0  0  0
   -1.8587    2.8131    1.0203 H   0  0  0  0  0  0  0  0  0  0  0  0
   -4.4277    2.7665    1.1751 H   0  0  0  0  0  0  0  0  0  0  0  0
   -6.0657    0.8519    0.2377 N   0  0  0  0  0  0  0  0  0  0  0  0
   -6.6269   -0.1161   -0.2550 O   0  0  0  0  0  0  0  0  0  0  0  0
   -6.5779    1.8091    0.8000 O   0  0  0  0  0  0  0  0  0  0  0  0
   14.0565    0.8248   -1.1857 N   0  0  0  0  0  0  0  0  0  0  0  0
   15.1595    0.8291   -1.2596 N   0  0  0  0  0  0  0  0  0  0  0  0
  1  6  1  0  0  0  0
  2  1  2  0  0  0  0
  2  3  1  0  0  0  0
  3  4  2  0  0  0  0
  4  5  1  0  0  0  0
  4  9  1  0  0  0  0
  5 10  1  0  0  0  0
  6 11  1  0  0  0  0
  6  5  2  0  0  0  0
  7  1  1  0  0  0  0
  8  2  1  0  0  0  0
 11 13  2  0  0  0  0
 12 11  2  0  0  0  0
 15 14  3  0  0  0  0
M  RAD  1   3   2
M  END
