Coordinates from ORCA-job 4-NO2-Ph-N2+-scan-d090-169-n800
 OpenBabel09191814013D

 15 14  0  0  0  0  0  0  0  0999 V2000
   -3.7715   -0.2052   -0.5045 C   0  0  0  0  0  0  0  0  0  0  0  0
   -2.3494   -0.2389   -0.6229 C   0  0  0  0  0  0  0  0  0  0  0  0
   -1.9594    0.8871   -0.0313 C   0  0  0  0  0  0  0  0  0  0  0  0
   -2.2871    2.0072    0.6075 C   0  0  0  0  0  0  0  0  0  0  0  0
   -3.7118    1.9500    0.6761 C   0  0  0  0  0  0  0  0  0  0  0  0
   -4.4012    0.8669    0.1291 C   0  0  0  0  0  0  0  0  0  0  0  0
   -4.3476   -1.0309   -0.9179 H   0  0  0  0  0  0  0  0  0  0  0  0
   -1.7798   -1.0305   -1.0981 H   0  0  0  0  0  0  0  0  0  0  0  0
   -1.6734    2.8086    1.0049 H   0  0  0  0  0  0  0  0  0  0  0  0
   -4.2424    2.7665    1.1622 H   0  0  0  0  0  0  0  0  0  0  0  0
   -5.8845    0.8546    0.2266 N   0  0  0  0  0  0  0  0  0  0  0  0
   -6.4479   -0.1124   -0.2655 O   0  0  0  0  0  0  0  0  0  0  0  0
   -6.3946    1.8128    0.7892 O   0  0  0  0  0  0  0  0  0  0  0  0
   12.8796    0.8325   -1.0991 N   0  0  0  0  0  0  0  0  0  0  0  0
   13.9825    0.8332   -1.1751 N   0  0  0  0  0  0  0  0  0  0  0  0
  1  6  1  0  0  0  0
  2  1  2  0  0  0  0
  2  3  1  0  0  0  0
  3  4  2  0  0  0  0
  4  5  1  0  0  0  0
  4  9  1  0  0  0  0
  5 10  1  0  0  0  0
  6 11  1  0  0  0  0
  6  5  2  0  0  0  0
  7  1  1  0  0  0  0
  8  2  1  0  0  0  0
 11 13  2  0  0  0  0
 12 11  2  0  0  0  0
 15 14  3  0  0  0  0
M  RAD  1   3   2
M  END
