Coordinates from ORCA-job 4-NO2-Ph-N2+-scan-d090-169-n800
 OpenBabel09191814003D

 15 14  0  0  0  0  0  0  0  0999 V2000
   -2.2840   -0.2110   -0.6117 C   0  0  0  0  0  0  0  0  0  0  0  0
   -0.8634   -0.2559   -0.7359 C   0  0  0  0  0  0  0  0  0  0  0  0
   -0.4590    0.8668   -0.1471 C   0  0  0  0  0  0  0  0  0  0  0  0
   -0.7772    1.9894    0.4924 C   0  0  0  0  0  0  0  0  0  0  0  0
   -2.2013    1.9447    0.5676 C   0  0  0  0  0  0  0  0  0  0  0  0
   -2.9019    0.8669    0.0242 C   0  0  0  0  0  0  0  0  0  0  0  0
   -2.8696   -1.0314   -1.0216 H   0  0  0  0  0  0  0  0  0  0  0  0
   -0.3003   -1.0510   -1.2124 H   0  0  0  0  0  0  0  0  0  0  0  0
   -0.1531    2.7845    0.8857 H   0  0  0  0  0  0  0  0  0  0  0  0
   -2.7238    2.7652    1.0552 H   0  0  0  0  0  0  0  0  0  0  0  0
   -4.3847    0.8670    0.1281 N   0  0  0  0  0  0  0  0  0  0  0  0
   -4.9588   -0.0955   -0.3608 O   0  0  0  0  0  0  0  0  0  0  0  0
   -4.8849    1.8294    0.6923 O   0  0  0  0  0  0  0  0  0  0  0  0
    3.1355    0.8663   -0.3989 N   0  0  0  0  0  0  0  0  0  0  0  0
    4.2380    0.8661   -0.4760 N   0  0  0  0  0  0  0  0  0  0  0  0
  1  6  1  0  0  0  0
  2  1  2  0  0  0  0
  2  3  1  0  0  0  0
  3  4  2  0  0  0  0
  4  5  1  0  0  0  0
  4  9  1  0  0  0  0
  5 10  1  0  0  0  0
  6 11  1  0  0  0  0
  6  5  2  0  0  0  0
  7  1  1  0  0  0  0
  8  2  1  0  0  0  0
 11 13  2  0  0  0  0
 12 11  2  0  0  0  0
 15 14  3  0  0  0  0
M  RAD  1   3   2
M  END
