Coordinates from ORCA-job 4-NO2-Ph-N2+-scan-d090-169-n800
 OpenBabel09191814013D

 15 14  0  0  0  0  0  0  0  0999 V2000
   -3.0072   -0.2089   -0.5600 C   0  0  0  0  0  0  0  0  0  0  0  0
   -1.5857   -0.2506   -0.6827 C   0  0  0  0  0  0  0  0  0  0  0  0
   -1.1874    0.8734   -0.0928 C   0  0  0  0  0  0  0  0  0  0  0  0
   -1.5069    1.9955    0.5464 C   0  0  0  0  0  0  0  0  0  0  0  0
   -2.9315    1.9465    0.6196 C   0  0  0  0  0  0  0  0  0  0  0  0
   -3.6289    0.8671    0.0752 C   0  0  0  0  0  0  0  0  0  0  0  0
   -3.5892   -1.0315   -0.9713 H   0  0  0  0  0  0  0  0  0  0  0  0
   -1.0221   -1.0456   -1.1593 H   0  0  0  0  0  0  0  0  0  0  0  0
   -0.8873    2.7935    0.9416 H   0  0  0  0  0  0  0  0  0  0  0  0
   -3.4559    2.7662    1.1070 H   0  0  0  0  0  0  0  0  0  0  0  0
   -5.1119    0.8633    0.1773 N   0  0  0  0  0  0  0  0  0  0  0  0
   -5.6823   -0.1007   -0.3127 O   0  0  0  0  0  0  0  0  0  0  0  0
   -5.6148    1.8246    0.7410 O   0  0  0  0  0  0  0  0  0  0  0  0
    7.8600    0.8552   -0.7354 N   0  0  0  0  0  0  0  0  0  0  0  0
    8.9627    0.8536   -0.8130 N   0  0  0  0  0  0  0  0  0  0  0  0
  1  6  1  0  0  0  0
  2  1  2  0  0  0  0
  2  3  1  0  0  0  0
  3  4  2  0  0  0  0
  4  5  1  0  0  0  0
  4  9  1  0  0  0  0
  5 10  1  0  0  0  0
  6 11  1  0  0  0  0
  6  5  2  0  0  0  0
  7  1  1  0  0  0  0
  8  2  1  0  0  0  0
 11 13  2  0  0  0  0
 12 11  2  0  0  0  0
 15 14  3  0  0  0  0
M  RAD  1   3   2
M  END
