Coordinates from ORCA-job 4-NO2-Ph-N2+-scan-d090-169-n800
 OpenBabel09191814013D

 15 14  0  0  0  0  0  0  0  0999 V2000
   -2.5096   -0.2106   -0.5956 C   0  0  0  0  0  0  0  0  0  0  0  0
   -1.0883   -0.2554   -0.7200 C   0  0  0  0  0  0  0  0  0  0  0  0
   -0.6871    0.8678   -0.1307 C   0  0  0  0  0  0  0  0  0  0  0  0
   -1.0032    1.9908    0.5088 C   0  0  0  0  0  0  0  0  0  0  0  0
   -2.4278    1.9449    0.5835 C   0  0  0  0  0  0  0  0  0  0  0  0
   -3.1281    0.8669    0.0401 C   0  0  0  0  0  0  0  0  0  0  0  0
   -3.0941   -1.0317   -1.0061 H   0  0  0  0  0  0  0  0  0  0  0  0
   -0.5264   -1.0514   -1.1970 H   0  0  0  0  0  0  0  0  0  0  0  0
   -0.3808    2.7871    0.9029 H   0  0  0  0  0  0  0  0  0  0  0  0
   -2.9501    2.7657    1.0713 H   0  0  0  0  0  0  0  0  0  0  0  0
   -4.6110    0.8664    0.1438 N   0  0  0  0  0  0  0  0  0  0  0  0
   -5.1842   -0.0963   -0.3454 O   0  0  0  0  0  0  0  0  0  0  0  0
   -5.1112    1.8289    0.7079 O   0  0  0  0  0  0  0  0  0  0  0  0
    4.6054    0.8645   -0.5027 N   0  0  0  0  0  0  0  0  0  0  0  0
    5.7080    0.8640   -0.5799 N   0  0  0  0  0  0  0  0  0  0  0  0
  1  6  1  0  0  0  0
  2  1  2  0  0  0  0
  2  3  1  0  0  0  0
  3  4  2  0  0  0  0
  4  5  1  0  0  0  0
  4  9  1  0  0  0  0
  5 10  1  0  0  0  0
  6 11  1  0  0  0  0
  6  5  2  0  0  0  0
  7  1  1  0  0  0  0
  8  2  1  0  0  0  0
 11 13  2  0  0  0  0
 12 11  2  0  0  0  0
 15 14  3  0  0  0  0
M  RAD  1   3   2
M  END
