1,2-(CH3)2-C2H3+-UB3LYP-aug-cc-pVDZ-Triplet.log
 OpenBabel04131813123D
Gaussian home/ubuntu/g09/g09 #p Temperature=298.15 opt freq UB3LYP/aug-cc-pVDZ
 13 12  0  0  0  0  0  0  0  0999 V2000
    0.0520   -0.2105   -0.2606 C   0  0  0  0  0  0  0  0  0  0  0  0
   -1.2075   -0.9061    0.0476 C   0  0  0  0  0  0  0  0  0  0  0  0
   -0.9658   -1.9730   -0.1720 H   0  0  0  0  0  0  0  0  0  0  0  0
   -1.5162   -0.8294    1.1038 H   0  0  0  0  0  0  0  0  0  0  0  0
   -2.0431   -0.6363   -0.6125 H   0  0  0  0  0  0  0  0  0  0  0  0
   -0.3059    1.5348    0.0284 C   0  0  0  0  0  0  0  0  0  0  0  0
   -0.0449    1.6772    1.0809 H   0  0  0  0  0  0  0  0  0  0  0  0
    0.3945    1.9416   -0.7081 H   0  0  0  0  0  0  0  0  0  0  0  0
   -1.3630    1.6427   -0.2151 H   0  0  0  0  0  0  0  0  0  0  0  0
    1.4649   -0.4452    0.0509 C   0  0  0  0  0  0  0  0  0  0  0  0
    1.6958   -0.3697    1.1279 H   0  0  0  0  0  0  0  0  0  0  0  0
    1.6663   -1.4855   -0.2849 H   0  0  0  0  0  0  0  0  0  0  0  0
    2.1547    0.1941   -0.5180 H   0  0  0  0  0  0  0  0  0  0  0  0
  1  6  1  0  0  0  0
  1  2  1  0  0  0  0
  1 10  1  0  0  0  0
  2  4  1  0  0  0  0
  3  2  1  0  0  0  0
  5  2  1  0  0  0  0
  6  7  1  0  0  0  0
  8  6  1  0  0  0  0
  9  6  1  0  0  0  0
 10 11  1  0  0  0  0
 12 10  1  0  0  0  0
 13 10  1  0  0  0  0
M  RAD  1   1   2
M  END
