4-CH3O-Ph-UB3LYP-aug-cc-pVDZ-Doublet.log
 OpenBabel04131813133D
Gaussian home/ubuntu/g09/g09 #p Temperature=298.15 opt freq UB3LYP/aug-cc-pVDZ
 15 15  0  0  0  0  0  0  0  0999 V2000
   -0.5866   -1.2881    0.0002 C   0  0  0  0  0  0  0  0  0  0  0  0
   -1.9486   -0.9651    0.0001 C   0  0  0  0  0  0  0  0  0  0  0  0
   -2.2792    0.3783    0.0000 C   0  0  0  0  0  0  0  0  0  0  0  0
   -1.3719    1.4130    0.0001 C   0  0  0  0  0  0  0  0  0  0  0  0
   -0.0019    1.0798   -0.0002 C   0  0  0  0  0  0  0  0  0  0  0  0
    0.3828   -0.2693   -0.0002 C   0  0  0  0  0  0  0  0  0  0  0  0
   -0.2562   -2.3272    0.0004 H   0  0  0  0  0  0  0  0  0  0  0  0
   -2.7033   -1.7523    0.0002 H   0  0  0  0  0  0  0  0  0  0  0  0
   -1.6803    2.4588   -0.0001 H   0  0  0  0  0  0  0  0  0  0  0  0
    0.7362    1.8791   -0.0002 H   0  0  0  0  0  0  0  0  0  0  0  0
    1.6836   -0.6991   -0.0005 O   0  0  0  0  0  0  0  0  0  0  0  0
    2.7139    0.2815    0.0003 C   0  0  0  0  0  0  0  0  0  0  0  0
    3.6557   -0.2760    0.0007 H   0  0  0  0  0  0  0  0  0  0  0  0
    2.6633    0.9145    0.9000 H   0  0  0  0  0  0  0  0  0  0  0  0
    2.6643    0.9155   -0.8988 H   0  0  0  0  0  0  0  0  0  0  0  0
  1  7  1  0  0  0  0
  2  1  2  0  0  0  0
  2  8  1  0  0  0  0
  3  2  1  0  0  0  0
  3  4  2  0  0  0  0
  5 10  1  0  0  0  0
  5  6  2  0  0  0  0
  5  4  1  0  0  0  0
  6  1  1  0  0  0  0
  9  4  1  0  0  0  0
 11  6  1  0  0  0  0
 11 12  1  0  0  0  0
 12 13  1  0  0  0  0
 12 14  1  0  0  0  0
 15 12  1  0  0  0  0
M  RAD  1   3   2
M  END
