C13H18N6-N2++-UB3LYP-aug-cc-pVDZ-Triplet.log
 OpenBabel04131813133D
Gaussian home/ubuntu/g09/g09 #p Temperature=298.15 opt freq UB3LYP/aug-cc-pVDZ
 39 40  0  0  0  0  0  0  0  0999 V2000
    5.6737   -0.1014    0.7307 N   0  0  0  0  0  0  0  0  0  0  0  0
    6.7232   -0.2330    1.0977 N   0  0  0  0  0  0  0  0  0  0  0  0
    4.4167    0.1105    0.3046 C   0  0  0  0  0  0  0  0  0  0  0  0
    3.6803    1.3523    0.3855 C   0  0  0  0  0  0  0  0  0  0  0  0
    2.4530   -0.1771   -0.5487 N   0  0  0  0  0  0  0  0  0  0  0  0
    3.5835   -0.8560   -0.3139 C   0  0  0  0  0  0  0  0  0  0  0  0
    2.4951    1.1407   -0.1432 N   0  0  0  0  0  0  0  0  0  0  0  0
    3.8534   -2.2794   -0.6660 C   0  0  0  0  0  0  0  0  0  0  0  0
    3.8572   -2.4183   -1.7566 H   0  0  0  0  0  0  0  0  0  0  0  0
    4.8308   -2.5939   -0.2850 H   0  0  0  0  0  0  0  0  0  0  0  0
    3.0949   -2.9464   -0.2346 H   0  0  0  0  0  0  0  0  0  0  0  0
    4.1160    2.6627    0.9437 C   0  0  0  0  0  0  0  0  0  0  0  0
    4.3564    2.5751    2.0129 H   0  0  0  0  0  0  0  0  0  0  0  0
    5.0120    3.0316    0.4248 H   0  0  0  0  0  0  0  0  0  0  0  0
    3.3135    3.3966    0.8223 H   0  0  0  0  0  0  0  0  0  0  0  0
    1.2526   -0.6316   -1.2625 C   0  0  0  0  0  0  0  0  0  0  0  0
    1.3833   -1.6975   -1.4758 H   0  0  0  0  0  0  0  0  0  0  0  0
    1.2243   -0.0925   -2.2195 H   0  0  0  0  0  0  0  0  0  0  0  0
   -0.0264   -0.3746   -0.4495 C   0  0  0  0  0  0  0  0  0  0  0  0
   -0.0091   -0.9661    0.4752 H   0  0  0  0  0  0  0  0  0  0  0  0
   -0.0674    0.6858   -0.1727 H   0  0  0  0  0  0  0  0  0  0  0  0
   -1.2658   -0.7624   -1.2751 C   0  0  0  0  0  0  0  0  0  0  0  0
   -1.2507   -1.8224   -1.5518 H   0  0  0  0  0  0  0  0  0  0  0  0
   -1.3462   -0.1668   -2.1910 H   0  0  0  0  0  0  0  0  0  0  0  0
   -2.5172   -0.5688   -0.5169 N   0  0  0  0  0  0  0  0  0  0  0  0
   -3.4040    0.5367   -0.5655 C   0  0  0  0  0  0  0  0  0  0  0  0
   -4.4369    0.2089    0.3333 C   0  0  0  0  0  0  0  0  0  0  0  0
   -4.1358   -1.0367    0.8712 C   0  0  0  0  0  0  0  0  0  0  0  0
   -2.9191   -1.4943    0.3030 N   0  0  0  0  0  0  0  0  0  0  0  0
   -3.2131    1.7122   -1.4292 C   0  0  0  0  0  0  0  0  0  0  0  0
   -2.1558    1.9326   -1.6172 H   0  0  0  0  0  0  0  0  0  0  0  0
   -3.7001    1.5317   -2.4068 H   0  0  0  0  0  0  0  0  0  0  0  0
   -3.7162    2.5844   -0.9944 H   0  0  0  0  0  0  0  0  0  0  0  0
   -4.8519   -1.8707    1.8462 C   0  0  0  0  0  0  0  0  0  0  0  0
   -4.1794   -2.1502    2.6740 H   0  0  0  0  0  0  0  0  0  0  0  0
   -5.7384   -1.3588    2.2309 H   0  0  0  0  0  0  0  0  0  0  0  0
   -5.1499   -2.8227    1.3717 H   0  0  0  0  0  0  0  0  0  0  0  0
   -5.5917    0.9751    0.7052 N   0  0  0  0  0  0  0  0  0  0  0  0
   -5.9127    1.9826    0.1662 N   0  0  0  0  0  0  0  0  0  0  0  0
  1  2  1  0  0  0  0
  3  4  1  0  0  0  0
  3  1  1  0  0  0  0
  4 12  1  0  0  0  0
  5  6  1  0  0  0  0
  5  7  1  0  0  0  0
  6  3  2  0  0  0  0
  7  4  2  0  0  0  0
  8  6  1  0  0  0  0
  8 10  1  0  0  0  0
  8 11  1  0  0  0  0
  9  8  1  0  0  0  0
 12 13  1  0  0  0  0
 14 12  1  0  0  0  0
 15 12  1  0  0  0  0
 16  5  1  0  0  0  0
 16 19  1  0  0  0  0
 17 16  1  0  0  0  0
 18 16  1  0  0  0  0
 19 21  1  0  0  0  0
 19 20  1  0  0  0  0
 22 25  1  0  0  0  0
 22 19  1  0  0  0  0
 23 22  1  0  0  0  0
 24 22  1  0  0  0  0
 25 29  1  0  0  0  0
 26 25  1  0  0  0  0
 26 27  2  0  0  0  0
 27 38  1  0  0  0  0
 27 28  1  0  0  0  0
 28 34  1  0  0  0  0
 29 28  2  0  0  0  0
 30 33  1  0  0  0  0
 30 26  1  0  0  0  0
 31 30  1  0  0  0  0
 32 30  1  0  0  0  0
 34 36  1  0  0  0  0
 34 35  1  0  0  0  0
 37 34  1  0  0  0  0
 39 38  2  0  0  0  0
M  RAD  3   1   2   2   3  39   2
M  END
