CH3-N2+-UB3LYP-aug-cc-pVDZ-Singlet.log
 OpenBabel04131813133D
Gaussian home/ubuntu/g09/g09 #p Temperature=298.15 opt freq UB3LYP/aug-cc-pVDZ
  6  5  0  0  0  0  0  0  0  0999 V2000
    1.1817    0.0000   -0.0000 C   0  0  0  0  0  0  0  0  0  0  0  0
    1.4891   -0.9135   -0.5277 H   0  0  0  0  0  0  0  0  0  0  0  0
    1.4891    0.9138   -0.5272 H   0  0  0  0  0  0  0  0  0  0  0  0
    1.4890   -0.0003    1.0550 H   0  0  0  0  0  0  0  0  0  0  0  0
   -0.2741    0.0000   -0.0000 N   0  0  0  0  0  0  0  0  0  0  0  0
   -1.3770    0.0000    0.0000 N   0  0  0  0  0  0  0  0  0  0  0  0
  1  5  1  0  0  0  0
  1  4  1  0  0  0  0
  2  1  1  0  0  0  0
  3  1  1  0  0  0  0
  5  6  1  0  0  0  0
M  RAD  2   5   2   6   3
M  END
