Imidazole-2-N2+-RB3LYP-aug-cc-pVDZ-Singlet.log
 OpenBabel04131813133D
Gaussian home/ubuntu/g09/g09 #p Temperature=298.15 opt freq RB3LYP/aug-cc-pVDZ
 10 10  0  0  0  0  0  0  0  0999 V2000
   -1.6402   -0.0059   -0.0003 N   0  0  0  0  0  0  0  0  0  0  0  0
   -2.7602   -0.0211    0.0001 N   0  0  0  0  0  0  0  0  0  0  0  0
   -0.2891   -0.0405   -0.0003 C   0  0  0  0  0  0  0  0  0  0  0  0
    1.7747    0.6331   -0.0001 C   0  0  0  0  0  0  0  0  0  0  0  0
    2.6277    1.3054    0.0006 H   0  0  0  0  0  0  0  0  0  0  0  0
    0.5022    1.0883    0.0001 N   0  0  0  0  0  0  0  0  0  0  0  0
    0.2061    2.0606    0.0011 H   0  0  0  0  0  0  0  0  0  0  0  0
    1.6935   -0.7743   -0.0006 C   0  0  0  0  0  0  0  0  0  0  0  0
    2.5141   -1.4854    0.0004 H   0  0  0  0  0  0  0  0  0  0  0  0
    0.4093   -1.1743    0.0007 N   0  0  0  0  0  0  0  0  0  0  0  0
  1  2  1  0  0  0  0
  3  1  1  0  0  0  0
  3  6  1  0  0  0  0
  3 10  2  0  0  0  0
  4  6  1  0  0  0  0
  4  5  1  0  0  0  0
  6  7  1  0  0  0  0
  8  4  2  0  0  0  0
  8  9  1  0  0  0  0
  8 10  1  0  0  0  0
M  RAD  2   1   2   2   3
M  END
