Imidazole-2+-UB3LYP-aug-cc-pVDZ-Triplet.log
 OpenBabel04131813133D
Gaussian home/ubuntu/g09/g09 #p Temperature=298.15 opt freq UB3LYP/aug-cc-pVDZ
  8  8  0  0  0  0  0  0  0  0999 V2000
    0.0152   -1.1610   -0.0001 C   0  0  0  0  0  0  0  0  0  0  0  0
    0.5987    0.9389    0.0000 C   0  0  0  0  0  0  0  0  0  0  0  0
    1.2075    1.8424    0.0001 H   0  0  0  0  0  0  0  0  0  0  0  0
    1.1055   -0.3035   -0.0000 N   0  0  0  0  0  0  0  0  0  0  0  0
    2.0875   -0.5731    0.0002 H   0  0  0  0  0  0  0  0  0  0  0  0
   -0.8561    0.7548   -0.0001 C   0  0  0  0  0  0  0  0  0  0  0  0
   -1.6157    1.5354    0.0002 H   0  0  0  0  0  0  0  0  0  0  0  0
   -1.1378   -0.5538    0.0001 N   0  0  0  0  0  0  0  0  0  0  0  0
  1  4  1  0  0  0  0
  1  8  2  0  0  0  0
  2  3  1  0  0  0  0
  4  2  1  0  0  0  0
  4  5  1  0  0  0  0
  6  2  2  0  0  0  0
  6  8  1  0  0  0  0
  6  7  1  0  0  0  0
M  RAD  1   1   2
M  END
