Imidazole-4+-UB3LYP-aug-cc-pVDZ-Triplet.log
 OpenBabel04131813133D
Gaussian home/ubuntu/g09/g09 #p Temperature=298.15 opt freq UB3LYP/aug-cc-pVDZ
  8  8  0  0  0  0  0  0  0  0999 V2000
   -0.2536   -1.2028    0.0003 C   0  0  0  0  0  0  0  0  0  0  0  0
   -0.6401    0.8693    0.0004 C   0  0  0  0  0  0  0  0  0  0  0  0
   -1.1561    1.8278    0.0003 H   0  0  0  0  0  0  0  0  0  0  0  0
    0.7488    0.7572   -0.0002 N   0  0  0  0  0  0  0  0  0  0  0  0
    1.4097    1.5335   -0.0001 H   0  0  0  0  0  0  0  0  0  0  0  0
    1.0567   -0.5494    0.0000 C   0  0  0  0  0  0  0  0  0  0  0  0
    2.0669   -0.9522    0.0000 H   0  0  0  0  0  0  0  0  0  0  0  0
   -1.2200   -0.3445   -0.0004 N   0  0  0  0  0  0  0  0  0  0  0  0
  3  2  1  0  0  0  0
  4  5  1  0  0  0  0
  4  6  1  0  0  0  0
  4  2  1  0  0  0  0
  6  1  2  0  0  0  0
  7  6  1  0  0  0  0
  8  1  1  0  0  0  0
  8  2  2  0  0  0  0
M  RAD  1   1   2
M  END
