N-O-Pyridine-2+-UB3LYP-aug-cc-pVDZ-Triplet.log
 OpenBabel04131813133D
Gaussian home/ubuntu/g09/g09 #p Temperature=298.15 opt freq UB3LYP/aug-cc-pVDZ
 11 11  0  0  0  0  0  0  0  0999 V2000
    0.2179   -1.2162    0.0000 C   0  0  0  0  0  0  0  0  0  0  0  0
   -1.1463   -1.2269    0.0002 C   0  0  0  0  0  0  0  0  0  0  0  0
   -1.7680    0.0412   -0.0001 C   0  0  0  0  0  0  0  0  0  0  0  0
   -2.8581    0.0997   -0.0001 H   0  0  0  0  0  0  0  0  0  0  0  0
   -1.7141   -2.1570    0.0004 H   0  0  0  0  0  0  0  0  0  0  0  0
   -0.9990    1.2281    0.0001 C   0  0  0  0  0  0  0  0  0  0  0  0
   -1.4853    2.2027    0.0002 H   0  0  0  0  0  0  0  0  0  0  0  0
    0.3733    1.1641    0.0001 C   0  0  0  0  0  0  0  0  0  0  0  0
    1.0674    2.0038    0.0004 H   0  0  0  0  0  0  0  0  0  0  0  0
    0.9782   -0.0879   -0.0007 N   0  0  0  0  0  0  0  0  0  0  0  0
    2.2594   -0.1845    0.0003 O   0  0  0  0  0  0  0  0  0  0  0  0
  1  2  2  0  0  0  0
  2  5  1  0  0  0  0
  3  6  1  0  0  0  0
  3  2  1  0  0  0  0
  4  3  1  0  0  0  0
  6  8  2  0  0  0  0
  6  7  1  0  0  0  0
  8  9  1  0  0  0  0
 10  1  1  0  0  0  0
 10  8  1  0  0  0  0
 10 11  1  0  0  0  0
M  RAD  2   1   2  11   2
M  END
