N-O-Pyridine-4-N2-UB3LYP-aug-cc-pVDZ-Doublet.log
 OpenBabel04131813133D
Gaussian home/ubuntu/g09/g09 #p Temperature=298.15 opt freq UB3LYP/aug-cc-pVDZ
 13 13  0  0  0  0  0  0  0  0999 V2000
   -1.0609   -1.1911    0.0000 C   0  0  0  0  0  0  0  0  0  0  0  0
    0.3060   -1.2292    0.0000 C   0  0  0  0  0  0  0  0  0  0  0  0
    1.0453    0.0000   -0.0000 C   0  0  0  0  0  0  0  0  0  0  0  0
    0.3060    1.2292    0.0000 C   0  0  0  0  0  0  0  0  0  0  0  0
   -1.0609    1.1911   -0.0000 C   0  0  0  0  0  0  0  0  0  0  0  0
   -1.6904   -2.0763   -0.0000 H   0  0  0  0  0  0  0  0  0  0  0  0
    0.8204   -2.1875    0.0001 H   0  0  0  0  0  0  0  0  0  0  0  0
    2.3734   -0.0000    0.0005 N   0  0  0  0  0  0  0  0  0  0  0  0
    3.5289    0.0000   -0.0004 N   0  0  0  0  0  0  0  0  0  0  0  0
   -1.6904    2.0764   -0.0000 H   0  0  0  0  0  0  0  0  0  0  0  0
    0.8204    2.1875    0.0001 H   0  0  0  0  0  0  0  0  0  0  0  0
   -1.7659    0.0000   -0.0000 N   0  0  0  0  0  0  0  0  0  0  0  0
   -3.0535   -0.0000   -0.0001 O   0  0  0  0  0  0  0  0  0  0  0  0
  1  2  2  0  0  0  0
  2  7  1  0  0  0  0
  3  2  1  0  0  0  0
  3  4  2  0  0  0  0
  3  8  1  0  0  0  0
  4 11  1  0  0  0  0
  5  4  1  0  0  0  0
  6  1  1  0  0  0  0
  9  8  1  0  0  0  0
 10  5  1  0  0  0  0
 12  5  1  0  0  0  0
 12  1  1  0  0  0  0
 13 12  1  0  0  0  0
M  RAD  3   8   2   9   3  13   2
M  END
