N-O-Pyridine-2-N2+-UB3LYP-aug-cc-pVDZ-Triplet.log
 OpenBabel04131813133D
Gaussian home/ubuntu/g09/g09 #p Temperature=298.15 opt freq UB3LYP/aug-cc-pVDZ
 13 13  0  0  0  0  0  0  0  0999 V2000
   -0.5025   -0.3890   -0.0004 C   0  0  0  0  0  0  0  0  0  0  0  0
    0.3465   -1.5062   -0.0012 C   0  0  0  0  0  0  0  0  0  0  0  0
    1.7220   -1.2958   -0.0005 C   0  0  0  0  0  0  0  0  0  0  0  0
   -1.8331   -0.4588    0.0013 N   0  0  0  0  0  0  0  0  0  0  0  0
   -2.9749   -0.5431    0.0005 N   0  0  0  0  0  0  0  0  0  0  0  0
    2.3851   -2.1612   -0.0008 H   0  0  0  0  0  0  0  0  0  0  0  0
   -0.0817   -2.5072   -0.0015 H   0  0  0  0  0  0  0  0  0  0  0  0
    2.2791    0.0197    0.0010 C   0  0  0  0  0  0  0  0  0  0  0  0
    3.3557    0.1722    0.0023 H   0  0  0  0  0  0  0  0  0  0  0  0
    1.4397    1.0969    0.0004 C   0  0  0  0  0  0  0  0  0  0  0  0
    1.7389    2.1437    0.0011 H   0  0  0  0  0  0  0  0  0  0  0  0
    0.0632    0.9141   -0.0001 N   0  0  0  0  0  0  0  0  0  0  0  0
   -0.7367    1.9266   -0.0013 O   0  0  0  0  0  0  0  0  0  0  0  0
  1 12  1  0  0  0  0
  1  4  1  0  0  0  0
  2  3  1  0  0  0  0
  2  1  2  0  0  0  0
  3  8  1  0  0  0  0
  5  4  1  0  0  0  0
  6  3  1  0  0  0  0
  7  2  1  0  0  0  0
  8  9  1  0  0  0  0
 10  8  2  0  0  0  0
 10 11  1  0  0  0  0
 12 10  1  0  0  0  0
 13 12  1  0  0  0  0
M  RAD  3   4   2   5   3  13   2
M  END
