Pyrazine-2-N2+-RB3LYP-aug-cc-pVDZ-Singlet.log
 OpenBabel04131813133D
Gaussian home/ubuntu/g09/g09 #p Temperature=298.15 opt freq RB3LYP/aug-cc-pVDZ
 11 11  0  0  0  0  0  0  0  0999 V2000
   -0.4990   -0.0151   -0.0001 C   0  0  0  0  0  0  0  0  0  0  0  0
    0.1521    1.2246   -0.0001 C   0  0  0  0  0  0  0  0  0  0  0  0
   -1.9164   -0.0419    0.0000 N   0  0  0  0  0  0  0  0  0  0  0  0
   -3.0261   -0.0231    0.0001 N   0  0  0  0  0  0  0  0  0  0  0  0
   -0.3752    2.1807   -0.0000 H   0  0  0  0  0  0  0  0  0  0  0  0
    2.1058    0.0381    0.0000 C   0  0  0  0  0  0  0  0  0  0  0  0
    3.1975    0.0511    0.0001 H   0  0  0  0  0  0  0  0  0  0  0  0
    1.3991   -1.1915    0.0001 C   0  0  0  0  0  0  0  0  0  0  0  0
    1.9188   -2.1504    0.0001 H   0  0  0  0  0  0  0  0  0  0  0  0
    0.0720   -1.2153   -0.0002 N   0  0  0  0  0  0  0  0  0  0  0  0
    1.4864    1.2206    0.0001 N   0  0  0  0  0  0  0  0  0  0  0  0
  1  3  1  0  0  0  0
  2  1  1  0  0  0  0
  2  5  1  0  0  0  0
  2 11  2  0  0  0  0
  3  4  1  0  0  0  0
  6 11  1  0  0  0  0
  6  8  2  0  0  0  0
  6  7  1  0  0  0  0
  9  8  1  0  0  0  0
 10  1  2  0  0  0  0
 10  8  1  0  0  0  0
M  RAD  2   3   2   4   3
M  END
