Pyrazine-2+-UB3LYP-aug-cc-pVDZ-Singlet.log
 OpenBabel04131813133D
Gaussian home/ubuntu/g09/g09 #p Temperature=298.15 opt freq UB3LYP/aug-cc-pVDZ
  9  9  0  0  0  0  0  0  0  0999 V2000
    0.5010   -1.1450    0.0001 C   0  0  0  0  0  0  0  0  0  0  0  0
    1.4738   -0.1489   -0.0001 C   0  0  0  0  0  0  0  0  0  0  0  0
    2.5573   -0.2270    0.0006 H   0  0  0  0  0  0  0  0  0  0  0  0
   -0.5289    1.1329    0.0002 C   0  0  0  0  0  0  0  0  0  0  0  0
   -0.9344    2.1474   -0.0000 H   0  0  0  0  0  0  0  0  0  0  0  0
   -1.3973    0.0148    0.0001 C   0  0  0  0  0  0  0  0  0  0  0  0
   -2.4853    0.0428   -0.0005 H   0  0  0  0  0  0  0  0  0  0  0  0
   -0.7087   -1.1465   -0.0001 N   0  0  0  0  0  0  0  0  0  0  0  0
    0.7903    0.9914   -0.0002 N   0  0  0  0  0  0  0  0  0  0  0  0
  2  1  1  0  0  0  0
  2  3  1  0  0  0  0
  5  4  1  0  0  0  0
  6  4  2  0  0  0  0
  7  6  1  0  0  0  0
  8  6  1  0  0  0  0
  8  1  2  0  0  0  0
  9  2  2  0  0  0  0
  9  4  1  0  0  0  0
M  RAD  1   1   2
M  END
