Pyrazole-3-UB3LYP-aug-cc-pVDZ-Doublet.log
 OpenBabel04131813133D
Gaussian home/ubuntu/g09/g09 #p Temperature=298.15 opt freq UB3LYP/aug-cc-pVDZ
  8  8  0  0  0  0  0  0  0  0999 V2000
    0.1502   -1.1910   -0.0001 C   0  0  0  0  0  0  0  0  0  0  0  0
    1.2086   -0.2520    0.0001 C   0  0  0  0  0  0  0  0  0  0  0  0
    2.2783   -0.4194    0.0000 H   0  0  0  0  0  0  0  0  0  0  0  0
   -0.8021    0.6728   -0.0001 N   0  0  0  0  0  0  0  0  0  0  0  0
   -1.5808    1.3155    0.0004 H   0  0  0  0  0  0  0  0  0  0  0  0
    0.5289    0.9605   -0.0000 C   0  0  0  0  0  0  0  0  0  0  0  0
    0.8917    1.9837   -0.0002 H   0  0  0  0  0  0  0  0  0  0  0  0
   -1.0431   -0.6706    0.0001 N   0  0  0  0  0  0  0  0  0  0  0  0
  1  8  2  0  0  0  0
  1  2  1  0  0  0  0
  3  2  1  0  0  0  0
  4  6  1  0  0  0  0
  4  8  1  0  0  0  0
  4  5  1  0  0  0  0
  6  2  2  0  0  0  0
  7  6  1  0  0  0  0
M  RAD  1   1   2
M  END
