Pyridine-4+-RB3LYP-aug-cc-pVDZ-Singlet.log
 OpenBabel04131813133D
Gaussian home/ubuntu/g09/g09 #p Temperature=298.15 opt freq RB3LYP/aug-cc-pVDZ
 10 10  0  0  0  0  0  0  0  0999 V2000
    1.1431    0.6687    0.0001 C   0  0  0  0  0  0  0  0  0  0  0  0
    1.2451   -0.7934   -0.0001 C   0  0  0  0  0  0  0  0  0  0  0  0
   -0.0001   -1.2465    0.0000 C   0  0  0  0  0  0  0  0  0  0  0  0
   -1.2453   -0.7933    0.0001 C   0  0  0  0  0  0  0  0  0  0  0  0
   -1.1430    0.6690   -0.0001 C   0  0  0  0  0  0  0  0  0  0  0  0
    2.0962    1.2060    0.0002 H   0  0  0  0  0  0  0  0  0  0  0  0
    2.2158   -1.2847   -0.0002 H   0  0  0  0  0  0  0  0  0  0  0  0
   -2.0959    1.2063   -0.0001 H   0  0  0  0  0  0  0  0  0  0  0  0
   -2.2161   -1.2843    0.0002 H   0  0  0  0  0  0  0  0  0  0  0  0
    0.0001    1.3042    0.0000 N   0  0  0  0  0  0  0  0  0  0  0  0
  1  6  1  0  0  0  0
  2  3  1  0  0  0  0
  2  1  2  0  0  0  0
  3  4  2  0  0  0  0
  4  9  1  0  0  0  0
  5 10  2  0  0  0  0
  5  4  1  0  0  0  0
  7  2  1  0  0  0  0
  8  5  1  0  0  0  0
 10  1  1  0  0  0  0
M  RAD  1   3   2
M  END
