Pyridine-2-N2+-UB3LYP-aug-cc-pVDZ-Triplet.log
 OpenBabel04131813133D
Gaussian home/ubuntu/g09/g09 #p Temperature=298.15 opt freq UB3LYP/aug-cc-pVDZ
 12 12  0  0  0  0  0  0  0  0999 V2000
   -0.5852   -0.0087   -0.0921 C   0  0  0  0  0  0  0  0  0  0  0  0
    0.1394    1.2471   -0.1553 C   0  0  0  0  0  0  0  0  0  0  0  0
    1.5118    1.1821    0.0083 C   0  0  0  0  0  0  0  0  0  0  0  0
   -1.9203   -0.0032    0.3582 N   0  0  0  0  0  0  0  0  0  0  0  0
   -2.9866   -0.0277   -0.1248 N   0  0  0  0  0  0  0  0  0  0  0  0
    2.1015    2.0992    0.0433 H   0  0  0  0  0  0  0  0  0  0  0  0
   -0.4105    2.1881   -0.1698 H   0  0  0  0  0  0  0  0  0  0  0  0
    2.1445   -0.0690    0.1337 C   0  0  0  0  0  0  0  0  0  0  0  0
    3.2301   -0.1607    0.1700 H   0  0  0  0  0  0  0  0  0  0  0  0
    1.3426   -1.2585   -0.0124 C   0  0  0  0  0  0  0  0  0  0  0  0
    1.8160   -2.2264   -0.1982 H   0  0  0  0  0  0  0  0  0  0  0  0
    0.0417   -1.1774   -0.1105 N   0  0  0  0  0  0  0  0  0  0  0  0
  1  4  1  0  0  0  0
  2  1  2  0  0  0  0
  2  3  1  0  0  0  0
  3  6  1  0  0  0  0
  3  8  2  0  0  0  0
  5  4  2  0  0  0  0
  7  2  1  0  0  0  0
  8  9  1  0  0  0  0
 10  8  1  0  0  0  0
 11 10  1  0  0  0  0
 12  1  1  0  0  0  0
 12 10  2  0  0  0  0
M  RAD  1   5   2
M  END
