Pyridine-4-UB3LYP-aug-cc-pVDZ-Doublet.log
 OpenBabel04131813133D
Gaussian home/ubuntu/g09/g09 #p Temperature=298.15 opt freq UB3LYP/aug-cc-pVDZ
 10 10  0  0  0  0  0  0  0  0999 V2000
    1.1467   -0.6605    0.0000 C   0  0  0  0  0  0  0  0  0  0  0  0
    1.2153    0.7470   -0.0000 C   0  0  0  0  0  0  0  0  0  0  0  0
    0.0000    1.3943    0.0000 C   0  0  0  0  0  0  0  0  0  0  0  0
   -1.2153    0.7471    0.0000 C   0  0  0  0  0  0  0  0  0  0  0  0
   -1.1467   -0.6605   -0.0000 C   0  0  0  0  0  0  0  0  0  0  0  0
    2.0695   -1.2475    0.0000 H   0  0  0  0  0  0  0  0  0  0  0  0
    2.1766    1.2610    0.0000 H   0  0  0  0  0  0  0  0  0  0  0  0
   -2.0696   -1.2476    0.0000 H   0  0  0  0  0  0  0  0  0  0  0  0
   -2.1767    1.2610   -0.0000 H   0  0  0  0  0  0  0  0  0  0  0  0
   -0.0000   -1.3474    0.0000 N   0  0  0  0  0  0  0  0  0  0  0  0
  1  6  1  0  0  0  0
  2  3  2  0  0  0  0
  2  7  1  0  0  0  0
  2  1  1  0  0  0  0
  3  4  1  0  0  0  0
  5 10  1  0  0  0  0
  5  8  1  0  0  0  0
  5  4  2  0  0  0  0
  9  4  1  0  0  0  0
 10  1  2  0  0  0  0
M  RAD  1   3   2
M  END
