Pyridine-4-N2-UB3LYP-aug-cc-pVDZ-Doublet.log
 OpenBabel04131813133D
Gaussian home/ubuntu/g09/g09 #p Temperature=298.15 opt freq UB3LYP/aug-cc-pVDZ
 12 12  0  0  0  0  0  0  0  0999 V2000
    1.3091    1.2613    0.0000 C   0  0  0  0  0  0  0  0  0  0  0  0
   -0.0786    1.1096   -0.0001 C   0  0  0  0  0  0  0  0  0  0  0  0
   -0.5809   -0.1936   -0.0001 C   0  0  0  0  0  0  0  0  0  0  0  0
    0.2929   -1.2767   -0.0000 C   0  0  0  0  0  0  0  0  0  0  0  0
    1.6656   -1.0039   -0.0000 C   0  0  0  0  0  0  0  0  0  0  0  0
    1.7490    2.2610   -0.0001 H   0  0  0  0  0  0  0  0  0  0  0  0
   -0.7462    1.9697    0.0002 H   0  0  0  0  0  0  0  0  0  0  0  0
   -2.0144   -0.4914    0.0000 N   0  0  0  0  0  0  0  0  0  0  0  0
   -2.8662    0.3296    0.0000 N   0  0  0  0  0  0  0  0  0  0  0  0
    2.3872   -1.8236    0.0001 H   0  0  0  0  0  0  0  0  0  0  0  0
   -0.0882   -2.2969    0.0000 H   0  0  0  0  0  0  0  0  0  0  0  0
    2.1734    0.2345    0.0000 N   0  0  0  0  0  0  0  0  0  0  0  0
  1 12  2  0  0  0  0
  2  3  2  0  0  0  0
  2  1  1  0  0  0  0
  2  7  1  0  0  0  0
  3  4  1  0  0  0  0
  3  8  1  0  0  0  0
  4 11  1  0  0  0  0
  5  4  2  0  0  0  0
  5 12  1  0  0  0  0
  5 10  1  0  0  0  0
  6  1  1  0  0  0  0
  9  8  2  0  0  0  0
M  RAD  1   9   2
M  END
