Pyrimidine-4-UB3LYP-aug-cc-pVDZ-Doublet.log
 OpenBabel04131813133D
Gaussian home/ubuntu/g09/g09 #p Temperature=298.15 opt freq UB3LYP/aug-cc-pVDZ
  9  9  0  0  0  0  0  0  0  0999 V2000
   -1.2489    0.3779   -0.0001 C   0  0  0  0  0  0  0  0  0  0  0  0
    0.1974   -1.3548    0.0000 C   0  0  0  0  0  0  0  0  0  0  0  0
    1.3065   -0.5120   -0.0000 C   0  0  0  0  0  0  0  0  0  0  0  0
    0.9784    0.8489    0.0000 C   0  0  0  0  0  0  0  0  0  0  0  0
   -2.2849    0.7175    0.0003 H   0  0  0  0  0  0  0  0  0  0  0  0
    1.7647    1.6090    0.0000 H   0  0  0  0  0  0  0  0  0  0  0  0
    2.3370   -0.8620   -0.0001 H   0  0  0  0  0  0  0  0  0  0  0  0
   -0.2877    1.2961    0.0000 N   0  0  0  0  0  0  0  0  0  0  0  0
   -1.0290   -0.9568    0.0000 N   0  0  0  0  0  0  0  0  0  0  0  0
  1  8  2  0  0  0  0
  1  9  1  0  0  0  0
  1  5  1  0  0  0  0
  2  9  2  0  0  0  0
  3  2  1  0  0  0  0
  3  4  2  0  0  0  0
  6  4  1  0  0  0  0
  7  3  1  0  0  0  0
  8  4  1  0  0  0  0
M  RAD  1   2   2
M  END
