Pyrimidine-4-N2-UB3LYP-aug-cc-pVDZ-Doublet.log
 OpenBabel04131813133D
Gaussian home/ubuntu/g09/g09 #p Temperature=298.15 opt freq UB3LYP/aug-cc-pVDZ
 11 11  0  0  0  0  0  0  0  0999 V2000
   -1.2066   -1.2480   -0.0184 C   0  0  0  0  0  0  0  0  0  0  0  0
    0.5469    0.1682   -0.0670 C   0  0  0  0  0  0  0  0  0  0  0  0
   -0.3012    1.2708   -0.0158 C   0  0  0  0  0  0  0  0  0  0  0  0
   -1.6635    0.9773    0.0621 C   0  0  0  0  0  0  0  0  0  0  0  0
   -1.5738   -2.2751   -0.0344 H   0  0  0  0  0  0  0  0  0  0  0  0
    1.9902    0.4302   -0.1714 N   0  0  0  0  0  0  0  0  0  0  0  0
    2.8210   -0.3171    0.2146 N   0  0  0  0  0  0  0  0  0  0  0  0
   -2.4070    1.7751    0.1221 H   0  0  0  0  0  0  0  0  0  0  0  0
    0.0837    2.2887   -0.0339 H   0  0  0  0  0  0  0  0  0  0  0  0
   -2.1269   -0.2798    0.0580 N   0  0  0  0  0  0  0  0  0  0  0  0
    0.1220   -1.0903   -0.0754 N   0  0  0  0  0  0  0  0  0  0  0  0
  1 10  2  0  0  0  0
  2  3  1  0  0  0  0
  3  4  2  0  0  0  0
  4  8  1  0  0  0  0
  5  1  1  0  0  0  0
  6  2  1  0  0  0  0
  6  7  2  0  0  0  0
  9  3  1  0  0  0  0
 10  4  1  0  0  0  0
 11  2  2  0  0  0  0
 11  1  1  0  0  0  0
M  RAD  1   7   2
M  END
