Pyrrole-3-N2+-UB3LYP-aug-cc-pVDZ-Singlet.log
 OpenBabel04131813133D
Gaussian home/ubuntu/g09/g09 #p Temperature=298.15 opt freq UB3LYP/aug-cc-pVDZ
 11 11  0  0  0  0  0  0  0  0999 V2000
    1.7022   -0.0107   -0.0001 N   0  0  0  0  0  0  0  0  0  0  0  0
    2.8201   -0.0030    0.0001 N   0  0  0  0  0  0  0  0  0  0  0  0
    0.3531    0.0167   -0.0002 C   0  0  0  0  0  0  0  0  0  0  0  0
   -0.4762    1.1945    0.0002 C   0  0  0  0  0  0  0  0  0  0  0  0
   -0.1483    2.2279    0.0002 H   0  0  0  0  0  0  0  0  0  0  0  0
   -1.7585    0.7188   -0.0001 C   0  0  0  0  0  0  0  0  0  0  0  0
   -2.7030    1.2514   -0.0002 H   0  0  0  0  0  0  0  0  0  0  0  0
   -1.7175   -0.6722    0.0001 N   0  0  0  0  0  0  0  0  0  0  0  0
   -2.5382   -1.2693    0.0001 H   0  0  0  0  0  0  0  0  0  0  0  0
   -0.4592   -1.1338   -0.0000 C   0  0  0  0  0  0  0  0  0  0  0  0
   -0.1990   -2.1868    0.0000 H   0  0  0  0  0  0  0  0  0  0  0  0
  1  2  1  0  0  0  0
  3  1  1  0  0  0  0
  3 10  2  0  0  0  0
  3  4  1  0  0  0  0
  4  5  1  0  0  0  0
  6  8  1  0  0  0  0
  6  4  2  0  0  0  0
  7  6  1  0  0  0  0
  9  8  1  0  0  0  0
 10 11  1  0  0  0  0
 10  8  1  0  0  0  0
M  RAD  2   1   2   2   3
M  END
