Pyrrole-3+-RB3LYP-aug-cc-pVDZ-Singlet.log
 OpenBabel04131813133D
Gaussian home/ubuntu/g09/g09 #p Temperature=298.15 opt freq RB3LYP/aug-cc-pVDZ
  9  9  0  0  0  0  0  0  0  0999 V2000
   -0.2454   -1.0964    0.1948 C   0  0  0  0  0  0  0  0  0  0  0  0
   -1.2879   -0.2866   -0.1518 C   0  0  0  0  0  0  0  0  0  0  0  0
   -2.3615   -0.3713   -0.0129 H   0  0  0  0  0  0  0  0  0  0  0  0
   -0.5427    0.9116   -0.0276 C   0  0  0  0  0  0  0  0  0  0  0  0
   -0.9565    1.8421    0.3647 H   0  0  0  0  0  0  0  0  0  0  0  0
    0.8431    0.6940   -0.0042 N   0  0  0  0  0  0  0  0  0  0  0  0
    1.5426    1.4297    0.0631 H   0  0  0  0  0  0  0  0  0  0  0  0
    1.0564   -0.6310   -0.0397 C   0  0  0  0  0  0  0  0  0  0  0  0
    1.9915   -1.1438   -0.2403 H   0  0  0  0  0  0  0  0  0  0  0  0
  2  4  2  0  0  0  0
  2  3  1  0  0  0  0
  2  1  1  0  0  0  0
  4  6  1  0  0  0  0
  4  5  1  0  0  0  0
  6  7  1  0  0  0  0
  8  6  1  0  0  0  0
  8  1  2  0  0  0  0
  9  8  1  0  0  0  0
M  RAD  1   1   2
M  END
