Pyrrole-3-UB3LYP-aug-cc-pVDZ-Doublet.log
 OpenBabel04131813133D
Gaussian home/ubuntu/g09/g09 #p Temperature=298.15 opt freq UB3LYP/aug-cc-pVDZ
  9  9  0  0  0  0  0  0  0  0999 V2000
    0.0558   -1.2479    0.0003 C   0  0  0  0  0  0  0  0  0  0  0  0
    1.1909   -0.4036    0.0001 C   0  0  0  0  0  0  0  0  0  0  0  0
    2.2400   -0.6785   -0.0005 H   0  0  0  0  0  0  0  0  0  0  0  0
    0.6768    0.8873    0.0001 C   0  0  0  0  0  0  0  0  0  0  0  0
    1.1873    1.8448   -0.0001 H   0  0  0  0  0  0  0  0  0  0  0  0
   -0.6967    0.8117   -0.0006 N   0  0  0  0  0  0  0  0  0  0  0  0
   -1.3170    1.6077    0.0029 H   0  0  0  0  0  0  0  0  0  0  0  0
   -1.1041   -0.5128   -0.0000 C   0  0  0  0  0  0  0  0  0  0  0  0
   -2.1498   -0.7942   -0.0006 H   0  0  0  0  0  0  0  0  0  0  0  0
  2  4  2  0  0  0  0
  2  1  1  0  0  0  0
  3  2  1  0  0  0  0
  5  4  1  0  0  0  0
  6  8  1  0  0  0  0
  6  4  1  0  0  0  0
  6  7  1  0  0  0  0
  8  1  2  0  0  0  0
  9  8  1  0  0  0  0
M  RAD  1   1   2
M  END
