Thiophene-2+-UB3LYP-aug-cc-pVDZ-Triplet.log
 OpenBabel04131813133D
Gaussian home/ubuntu/g09/g09 #p Temperature=298.15 opt freq UB3LYP/aug-cc-pVDZ
  8  8  0  0  0  0  0  0  0  0999 V2000
   -0.0553   -1.2304   -0.0002 C   0  0  0  0  0  0  0  0  0  0  0  0
   -1.3670   -0.7027    0.0004 C   0  0  0  0  0  0  0  0  0  0  0  0
   -2.2730   -1.3074    0.0004 H   0  0  0  0  0  0  0  0  0  0  0  0
   -1.2927    0.6813   -0.0004 C   0  0  0  0  0  0  0  0  0  0  0  0
   -2.1520    1.3523   -0.0008 H   0  0  0  0  0  0  0  0  0  0  0  0
    0.0532    1.1613    0.0003 C   0  0  0  0  0  0  0  0  0  0  0  0
    0.3712    2.2061    0.0006 H   0  0  0  0  0  0  0  0  0  0  0  0
    1.2515   -0.1068   -0.0001 S   0  0  0  0  0  0  0  0  0  0  0  0
  1  8  1  0  0  0  0
  1  2  2  0  0  0  0
  3  2  1  0  0  0  0
  4  6  2  0  0  0  0
  4  2  1  0  0  0  0
  5  4  1  0  0  0  0
  6  7  1  0  0  0  0
  8  6  1  0  0  0  0
M  RAD  1   1   2
M  END
