Coordinates from ORCA-job NH2-N2+-scan-d09-169-n800
 OpenBabel09191813403D

  5  3  0  0  0  0  0  0  0  0999 V2000
    0.4886   -1.8015    0.0560 N   0  0  0  0  0  0  0  0  0  0  0  0
    0.6206   -2.8975    0.0559 N   0  0  0  0  0  0  0  0  0  0  0  0
    0.5926    0.2173    0.0563 N   0  0  0  0  0  0  0  0  0  0  0  0
   -0.0347    0.2827    0.8905 H   0  0  0  0  0  0  0  0  0  0  0  0
   -0.0334    0.2829   -0.7787 H   0  0  0  0  0  0  0  0  0  0  0  0
  2  1  3  0  0  0  0
  3  4  1  0  0  0  0
  5  3  1  0  0  0  0
M  RAD  1   3   2
M  END
