Coordinates from ORCA-job NH2-N2+-scan-d09-169-n800
 OpenBabel09191813403D

  5  3  0  0  0  0  0  0  0  0999 V2000
    1.0229   -5.4229    0.0559 N   0  0  0  0  0  0  0  0  0  0  0  0
    1.2022   -6.5142    0.0559 N   0  0  0  0  0  0  0  0  0  0  0  0
   -0.1831    2.2515    0.0561 N   0  0  0  0  0  0  0  0  0  0  0  0
   -0.2048    2.8848    0.8960 H   0  0  0  0  0  0  0  0  0  0  0  0
   -0.2034    2.8848   -0.7839 H   0  0  0  0  0  0  0  0  0  0  0  0
  2  1  3  0  0  0  0
  3  4  1  0  0  0  0
  5  3  1  0  0  0  0
M  RAD  1   3   2
M  END
