Coordinates from ORCA-job NH2-N2+-scan-d09-169-n800
 OpenBabel09191813403D

  5  3  0  0  0  0  0  0  0  0999 V2000
    1.0379   -5.5176    0.0559 N   0  0  0  0  0  0  0  0  0  0  0  0
    1.2163   -6.6091    0.0559 N   0  0  0  0  0  0  0  0  0  0  0  0
   -0.1960    2.3146    0.0561 N   0  0  0  0  0  0  0  0  0  0  0  0
   -0.2129    2.9480    0.8959 H   0  0  0  0  0  0  0  0  0  0  0  0
   -0.2115    2.9480   -0.7838 H   0  0  0  0  0  0  0  0  0  0  0  0
  2  1  3  0  0  0  0
  3  4  1  0  0  0  0
  5  3  1  0  0  0  0
M  RAD  1   3   2
M  END
