Coordinates from ORCA-job NH2-N2+-scan-d09-169-n800
 OpenBabel09191813403D

  5  3  0  0  0  0  0  0  0  0999 V2000
    1.7749  -10.5950    0.0524 N   0  0  0  0  0  0  0  0  0  0  0  0
    2.0097  -11.6759    0.0588 N   0  0  0  0  0  0  0  0  0  0  0  0
   -0.7100    5.6961    0.0562 N   0  0  0  0  0  0  0  0  0  0  0  0
   -0.7210    6.3293    0.8953 H   0  0  0  0  0  0  0  0  0  0  0  0
   -0.7197    6.3294   -0.7827 H   0  0  0  0  0  0  0  0  0  0  0  0
  1  2  3  0  0  0  0
  3  4  1  0  0  0  0
  5  3  1  0  0  0  0
M  RAD  1   3   2
M  END
