Coordinates from ORCA-job NH2-N2+-scan-d09-169-n800
 OpenBabel09191813403D

  5  3  0  0  0  0  0  0  0  0999 V2000
    1.6219   -9.5610    0.0524 N   0  0  0  0  0  0  0  0  0  0  0  0
    1.8509  -10.6431    0.0590 N   0  0  0  0  0  0  0  0  0  0  0  0
   -0.6046    5.0071    0.0561 N   0  0  0  0  0  0  0  0  0  0  0  0
   -0.6178    5.6402    0.8954 H   0  0  0  0  0  0  0  0  0  0  0  0
   -0.6166    5.6406   -0.7828 H   0  0  0  0  0  0  0  0  0  0  0  0
  1  2  3  0  0  0  0
  3  4  1  0  0  0  0
  5  3  1  0  0  0  0
M  RAD  1   3   2
M  END
