Coordinates from ORCA-job NH2-N2+-scan-d09-169-n800
 OpenBabel09191813403D

  5  3  0  0  0  0  0  0  0  0999 V2000
    0.9986   -5.2690    0.0559 N   0  0  0  0  0  0  0  0  0  0  0  0
    1.1793   -6.3601    0.0559 N   0  0  0  0  0  0  0  0  0  0  0  0
   -0.1616    2.1490    0.0561 N   0  0  0  0  0  0  0  0  0  0  0  0
   -0.1920    2.7820    0.8960 H   0  0  0  0  0  0  0  0  0  0  0  0
   -0.1906    2.7820   -0.7839 H   0  0  0  0  0  0  0  0  0  0  0  0
  2  1  3  0  0  0  0
  3  4  1  0  0  0  0
  5  3  1  0  0  0  0
M  RAD  1   3   2
M  END
