Coordinates from ORCA-job NH2-N2+-scan-d09-169-n800
 OpenBabel09191813403D

  5  3  0  0  0  0  0  0  0  0999 V2000
    1.3711   -7.8492    0.0529 N   0  0  0  0  0  0  0  0  0  0  0  0
    1.5856   -8.9342    0.0586 N   0  0  0  0  0  0  0  0  0  0  0  0
   -0.4295    3.8669    0.0561 N   0  0  0  0  0  0  0  0  0  0  0  0
   -0.4473    4.5000    0.8955 H   0  0  0  0  0  0  0  0  0  0  0  0
   -0.4461    4.5004   -0.7831 H   0  0  0  0  0  0  0  0  0  0  0  0
  1  2  3  0  0  0  0
  3  4  1  0  0  0  0
  5  3  1  0  0  0  0
M  RAD  1   3   2
M  END
