Coordinates from ORCA-job NH2-N2+-scan-d09-169-n800
 OpenBabel09191813403D

  5  3  0  0  0  0  0  0  0  0999 V2000
    1.2421   -6.9696    0.0558 N   0  0  0  0  0  0  0  0  0  0  0  0
    1.4493   -8.0560    0.0559 N   0  0  0  0  0  0  0  0  0  0  0  0
   -0.3387    3.2811    0.0561 N   0  0  0  0  0  0  0  0  0  0  0  0
   -0.3602    3.9143    0.8956 H   0  0  0  0  0  0  0  0  0  0  0  0
   -0.3587    3.9142   -0.7834 H   0  0  0  0  0  0  0  0  0  0  0  0
  1  2  3  0  0  0  0
  3  4  1  0  0  0  0
  5  3  1  0  0  0  0
M  RAD  1   3   2
M  END
