Coordinates from ORCA-job NH2-N2+-scan-d09-169-n800
 OpenBabel09191813403D

  5  3  0  0  0  0  0  0  0  0999 V2000
    0.9120   -4.7244    0.0559 N   0  0  0  0  0  0  0  0  0  0  0  0
    1.0986   -5.8144    0.0559 N   0  0  0  0  0  0  0  0  0  0  0  0
   -0.0823    1.7873    0.0560 N   0  0  0  0  0  0  0  0  0  0  0  0
   -0.1480    2.4176    0.8963 H   0  0  0  0  0  0  0  0  0  0  0  0
   -0.1466    2.4178   -0.7842 H   0  0  0  0  0  0  0  0  0  0  0  0
  2  1  3  0  0  0  0
  3  4  1  0  0  0  0
  5  3  1  0  0  0  0
M  RAD  1   3   2
M  END
