Coordinates from ORCA-job NH2-N2+-scan-d09-169-n800
 OpenBabel09191813403D

  5  3  0  0  0  0  0  0  0  0999 V2000
    1.3400   -7.6352    0.0531 N   0  0  0  0  0  0  0  0  0  0  0  0
    1.5522   -8.7207    0.0584 N   0  0  0  0  0  0  0  0  0  0  0  0
   -0.4072    3.7245    0.0561 N   0  0  0  0  0  0  0  0  0  0  0  0
   -0.4262    4.3575    0.8955 H   0  0  0  0  0  0  0  0  0  0  0  0
   -0.4250    4.3578   -0.7831 H   0  0  0  0  0  0  0  0  0  0  0  0
  1  2  3  0  0  0  0
  3  4  1  0  0  0  0
  5  3  1  0  0  0  0
M  RAD  1   3   2
M  END
