Coordinates from ORCA-job NH2-N2+-scan-d09-169-n800
 OpenBabel09191813403D

  5  3  0  0  0  0  0  0  0  0999 V2000
    1.6359   -9.6561    0.0523 N   0  0  0  0  0  0  0  0  0  0  0  0
    1.8656  -10.7380    0.0590 N   0  0  0  0  0  0  0  0  0  0  0  0
   -0.6145    5.0705    0.0561 N   0  0  0  0  0  0  0  0  0  0  0  0
   -0.6272    5.7036    0.8954 H   0  0  0  0  0  0  0  0  0  0  0  0
   -0.6260    5.7040   -0.7828 H   0  0  0  0  0  0  0  0  0  0  0  0
  1  2  3  0  0  0  0
  3  4  1  0  0  0  0
  5  3  1  0  0  0  0
M  RAD  1   3   2
M  END
