Coordinates from ORCA-job NH2-N2+-scan-d09-169-n800
 OpenBabel09191813403D

  5  3  0  0  0  0  0  0  0  0999 V2000
    1.3130   -7.4449    0.0536 N   0  0  0  0  0  0  0  0  0  0  0  0
    1.5220   -8.5310    0.0580 N   0  0  0  0  0  0  0  0  0  0  0  0
   -0.3875    3.5978    0.0561 N   0  0  0  0  0  0  0  0  0  0  0  0
   -0.4075    4.2309    0.8955 H   0  0  0  0  0  0  0  0  0  0  0  0
   -0.4062    4.2311   -0.7832 H   0  0  0  0  0  0  0  0  0  0  0  0
  1  2  3  0  0  0  0
  3  4  1  0  0  0  0
  5  3  1  0  0  0  0
M  RAD  1   3   2
M  END
