Coordinates from ORCA-job NH2-N2+-scan-d09-169-n800
 OpenBabel09191813403D

  5  3  0  0  0  0  0  0  0  0999 V2000
    1.7989  -10.7615    0.0524 N   0  0  0  0  0  0  0  0  0  0  0  0
    2.0358  -11.8419    0.0588 N   0  0  0  0  0  0  0  0  0  0  0  0
   -0.7268    5.8069    0.0562 N   0  0  0  0  0  0  0  0  0  0  0  0
   -0.7377    6.4402    0.8952 H   0  0  0  0  0  0  0  0  0  0  0  0
   -0.7364    6.4403   -0.7827 H   0  0  0  0  0  0  0  0  0  0  0  0
  1  2  3  0  0  0  0
  3  4  1  0  0  0  0
  5  3  1  0  0  0  0
M  RAD  1   3   2
M  END
