Coordinates from ORCA-job NH2-N2+-scan-d09-169-n800
 OpenBabel09191813403D

  5  3  0  0  0  0  0  0  0  0999 V2000
    1.4247   -8.2178    0.0526 N   0  0  0  0  0  0  0  0  0  0  0  0
    1.6431   -9.3020    0.0588 N   0  0  0  0  0  0  0  0  0  0  0  0
   -0.4671    4.1124    0.0561 N   0  0  0  0  0  0  0  0  0  0  0  0
   -0.4840    4.7454    0.8955 H   0  0  0  0  0  0  0  0  0  0  0  0
   -0.4829    4.7459   -0.7830 H   0  0  0  0  0  0  0  0  0  0  0  0
  1  2  3  0  0  0  0
  3  4  1  0  0  0  0
  5  3  1  0  0  0  0
M  RAD  1   3   2
M  END
