Coordinates from ORCA-job NH2-N2+-scan-d09-169-n800
 OpenBabel09191813403D

  5  3  0  0  0  0  0  0  0  0999 V2000
    1.1653   -6.3615    0.0559 N   0  0  0  0  0  0  0  0  0  0  0  0
    1.3443   -7.4529    0.0559 N   0  0  0  0  0  0  0  0  0  0  0  0
   -0.2753    2.8774    0.0561 N   0  0  0  0  0  0  0  0  0  0  0  0
   -0.3010    3.5105    0.8957 H   0  0  0  0  0  0  0  0  0  0  0  0
   -0.2996    3.5104   -0.7835 H   0  0  0  0  0  0  0  0  0  0  0  0
  2  1  3  0  0  0  0
  3  4  1  0  0  0  0
  5  3  1  0  0  0  0
M  RAD  1   3   2
M  END
