Coordinates from ORCA-job NH2-N2+-scan-d09-169-n800
 OpenBabel09191813403D

  5  4  0  0  0  0  0  0  0  0999 V2000
    0.4419   -1.4150    0.0560 N   0  0  0  0  0  0  0  0  0  0  0  0
    0.6432   -2.5263    0.0560 N   0  0  0  0  0  0  0  0  0  0  0  0
    0.2489   -0.3522    0.0560 N   0  0  0  0  0  0  0  0  0  0  0  0
    0.1491    0.1886    0.9295 H   0  0  0  0  0  0  0  0  0  0  0  0
    0.1507    0.1888   -0.8175 H   0  0  0  0  0  0  0  0  0  0  0  0
  1  2  1  0  0  0  0
  3  1  1  0  0  0  0
  3  4  1  0  0  0  0
  5  3  1  0  0  0  0
M  RAD  2   1   2   2   3
M  END
