Coordinates from ORCA-job NH2-N2+-scan-d09-169-n800
 OpenBabel09191813403D

  5  3  0  0  0  0  0  0  0  0999 V2000
    1.4405   -8.3248    0.0526 N   0  0  0  0  0  0  0  0  0  0  0  0
    1.6596   -9.4089    0.0589 N   0  0  0  0  0  0  0  0  0  0  0  0
   -0.4780    4.1837    0.0561 N   0  0  0  0  0  0  0  0  0  0  0  0
   -0.4947    4.8166    0.8955 H   0  0  0  0  0  0  0  0  0  0  0  0
   -0.4935    4.8172   -0.7830 H   0  0  0  0  0  0  0  0  0  0  0  0
  1  2  3  0  0  0  0
  3  4  1  0  0  0  0
  5  3  1  0  0  0  0
M  RAD  1   3   2
M  END
