Coordinates from ORCA-job NH2-N2+-scan-d09-169-n800
 OpenBabel09191813403D

  5  3  0  0  0  0  0  0  0  0999 V2000
    1.5535   -9.0974    0.0523 N   0  0  0  0  0  0  0  0  0  0  0  0
    1.7794  -10.1802    0.0591 N   0  0  0  0  0  0  0  0  0  0  0  0
   -0.5573    4.6983    0.0561 N   0  0  0  0  0  0  0  0  0  0  0  0
   -0.5715    5.3313    0.8954 H   0  0  0  0  0  0  0  0  0  0  0  0
   -0.5703    5.3319   -0.7828 H   0  0  0  0  0  0  0  0  0  0  0  0
  1  2  3  0  0  0  0
  3  4  1  0  0  0  0
  5  3  1  0  0  0  0
M  RAD  1   3   2
M  END
