Coordinates from ORCA-job NH2-N2+-scan-d09-169-n800
 OpenBabel09191813403D

  5  3  0  0  0  0  0  0  0  0999 V2000
    0.4787   -1.7519    0.0560 N   0  0  0  0  0  0  0  0  0  0  0  0
    0.6187   -2.8468    0.0559 N   0  0  0  0  0  0  0  0  0  0  0  0
    0.5928    0.1660    0.0563 N   0  0  0  0  0  0  0  0  0  0  0  0
   -0.0288    0.2582    0.8902 H   0  0  0  0  0  0  0  0  0  0  0  0
   -0.0276    0.2584   -0.7785 H   0  0  0  0  0  0  0  0  0  0  0  0
  2  1  3  0  0  0  0
  3  4  1  0  0  0  0
  5  3  1  0  0  0  0
M  RAD  1   3   2
M  END
