Coordinates from ORCA-job NH2-N2+-scan-d09-169-n800
 OpenBabel09191813403D

  5  3  0  0  0  0  0  0  0  0999 V2000
    0.9422   -4.9139    0.0559 N   0  0  0  0  0  0  0  0  0  0  0  0
    1.1266   -6.0043    0.0559 N   0  0  0  0  0  0  0  0  0  0  0  0
   -0.1104    1.9130    0.0560 N   0  0  0  0  0  0  0  0  0  0  0  0
   -0.1630    2.5445    0.8962 H   0  0  0  0  0  0  0  0  0  0  0  0
   -0.1616    2.5446   -0.7841 H   0  0  0  0  0  0  0  0  0  0  0  0
  2  1  3  0  0  0  0
  3  4  1  0  0  0  0
  5  3  1  0  0  0  0
M  RAD  1   3   2
M  END
