Coordinates from ORCA-job NH2-N2+-scan-d09-169-n800
 OpenBabel09191813403D

  5  3  0  0  0  0  0  0  0  0999 V2000
    1.5906   -9.3470    0.0523 N   0  0  0  0  0  0  0  0  0  0  0  0
    1.8177  -10.4295    0.0590 N   0  0  0  0  0  0  0  0  0  0  0  0
   -0.5831    4.8646    0.0561 N   0  0  0  0  0  0  0  0  0  0  0  0
   -0.5963    5.4977    0.8954 H   0  0  0  0  0  0  0  0  0  0  0  0
   -0.5951    5.4981   -0.7828 H   0  0  0  0  0  0  0  0  0  0  0  0
  1  2  3  0  0  0  0
  3  4  1  0  0  0  0
  5  3  1  0  0  0  0
M  RAD  1   3   2
M  END
