Coordinates from ORCA-job NH2-N2+-scan-d09-169-n800
 OpenBabel09191813403D

  5  3  0  0  0  0  0  0  0  0999 V2000
    0.9893   -5.2099    0.0559 N   0  0  0  0  0  0  0  0  0  0  0  0
    1.1705   -6.3008    0.0559 N   0  0  0  0  0  0  0  0  0  0  0  0
   -0.1533    2.1096    0.0561 N   0  0  0  0  0  0  0  0  0  0  0  0
   -0.1871    2.7424    0.8961 H   0  0  0  0  0  0  0  0  0  0  0  0
   -0.1857    2.7425   -0.7840 H   0  0  0  0  0  0  0  0  0  0  0  0
  2  1  3  0  0  0  0
  3  4  1  0  0  0  0
  5  3  1  0  0  0  0
M  RAD  1   3   2
M  END
