Coordinates from ORCA-job NH2-N2+-scan-d09-169-n800
 OpenBabel09191813403D

  5  4  0  0  0  0  0  0  0  0999 V2000
    0.4646   -1.5025    0.0560 N   0  0  0  0  0  0  0  0  0  0  0  0
    0.6264   -2.6059    0.0560 N   0  0  0  0  0  0  0  0  0  0  0  0
    0.3917   -0.2040    0.0561 N   0  0  0  0  0  0  0  0  0  0  0  0
    0.0748    0.1980    0.9440 H   0  0  0  0  0  0  0  0  0  0  0  0
    0.0762    0.1983   -0.8321 H   0  0  0  0  0  0  0  0  0  0  0  0
  1  2  1  0  0  0  0
  1  3  1  0  0  0  0
  3  4  1  0  0  0  0
  5  3  1  0  0  0  0
M  RAD  2   1   2   2   3
M  END
