Coordinates from ORCA-job NH2-N2+-scan-d09-169-n800
 OpenBabel09191813403D

  5  3  0  0  0  0  0  0  0  0999 V2000
    1.3871   -7.9561    0.0529 N   0  0  0  0  0  0  0  0  0  0  0  0
    1.6019   -9.0411    0.0586 N   0  0  0  0  0  0  0  0  0  0  0  0
   -0.4407    3.9382    0.0561 N   0  0  0  0  0  0  0  0  0  0  0  0
   -0.4578    4.5712    0.8955 H   0  0  0  0  0  0  0  0  0  0  0  0
   -0.4566    4.5717   -0.7830 H   0  0  0  0  0  0  0  0  0  0  0  0
  1  2  3  0  0  0  0
  3  4  1  0  0  0  0
  5  3  1  0  0  0  0
M  RAD  1   3   2
M  END
