Coordinates from ORCA-job NH2-N2+-scan-d09-169-n800
 OpenBabel09191813403D

  5  3  0  0  0  0  0  0  0  0999 V2000
    1.2683   -7.1601    0.0558 N   0  0  0  0  0  0  0  0  0  0  0  0
    1.4803   -8.2456    0.0559 N   0  0  0  0  0  0  0  0  0  0  0  0
   -0.3582    3.4077    0.0561 N   0  0  0  0  0  0  0  0  0  0  0  0
   -0.3790    4.0410    0.8955 H   0  0  0  0  0  0  0  0  0  0  0  0
   -0.3776    4.0408   -0.7833 H   0  0  0  0  0  0  0  0  0  0  0  0
  1  2  3  0  0  0  0
  3  4  1  0  0  0  0
  5  3  1  0  0  0  0
M  RAD  1   3   2
M  END
