Coordinates from ORCA-job NH2-N2+-scan-d09-169-n800
 OpenBabel09191813403D

  5  3  0  0  0  0  0  0  0  0999 V2000
    1.3353   -7.5995    0.0532 N   0  0  0  0  0  0  0  0  0  0  0  0
    1.5463   -8.6852    0.0583 N   0  0  0  0  0  0  0  0  0  0  0  0
   -0.4036    3.7007    0.0561 N   0  0  0  0  0  0  0  0  0  0  0  0
   -0.4227    4.3338    0.8955 H   0  0  0  0  0  0  0  0  0  0  0  0
   -0.4215    4.3341   -0.7831 H   0  0  0  0  0  0  0  0  0  0  0  0
  1  2  3  0  0  0  0
  3  4  1  0  0  0  0
  5  3  1  0  0  0  0
M  RAD  1   3   2
M  END
