Coordinates from ORCA-job NH2-N2+-scan-d09-169-n800
 OpenBabel09191813403D

  5  3  0  0  0  0  0  0  0  0999 V2000
    0.5251   -2.0347    0.0560 N   0  0  0  0  0  0  0  0  0  0  0  0
    0.6425   -3.1332    0.0559 N   0  0  0  0  0  0  0  0  0  0  0  0
    0.5773    0.4267    0.0564 N   0  0  0  0  0  0  0  0  0  0  0  0
   -0.0562    0.4125    0.8942 H   0  0  0  0  0  0  0  0  0  0  0  0
   -0.0549    0.4127   -0.7825 H   0  0  0  0  0  0  0  0  0  0  0  0
  2  1  3  0  0  0  0
  3  4  1  0  0  0  0
  5  3  1  0  0  0  0
M  RAD  1   3   2
M  END
