Coordinates from ORCA-job NH2-N2+-scan-d09-169-n800
 OpenBabel09191813403D

  5  3  0  0  0  0  0  0  0  0999 V2000
    0.6560   -3.1922    0.0560 N   0  0  0  0  0  0  0  0  0  0  0  0
    0.8406   -4.2822    0.0560 N   0  0  0  0  0  0  0  0  0  0  0  0
    0.4560    1.0873    0.0562 N   0  0  0  0  0  0  0  0  0  0  0  0
   -0.1601    1.2350    0.8985 H   0  0  0  0  0  0  0  0  0  0  0  0
   -0.1588    1.2360   -0.7867 H   0  0  0  0  0  0  0  0  0  0  0  0
  1  2  3  0  0  0  0
  3  4  1  0  0  0  0
  5  3  1  0  0  0  0
M  RAD  1   3   2
M  END
