Coordinates from ORCA-job NH2-N2+-scan-d09-169-n800
 OpenBabel09191813403D

  5  3  0  0  0  0  0  0  0  0999 V2000
    1.5601   -9.1451    0.0523 N   0  0  0  0  0  0  0  0  0  0  0  0
    1.7872  -10.2276    0.0591 N   0  0  0  0  0  0  0  0  0  0  0  0
   -0.5621    4.7300    0.0561 N   0  0  0  0  0  0  0  0  0  0  0  0
   -0.5763    5.3630    0.8954 H   0  0  0  0  0  0  0  0  0  0  0  0
   -0.5751    5.3635   -0.7828 H   0  0  0  0  0  0  0  0  0  0  0  0
  1  2  3  0  0  0  0
  3  4  1  0  0  0  0
  5  3  1  0  0  0  0
M  RAD  1   3   2
M  END
