Coordinates from ORCA-job NH2-N2+-scan-d09-169-n800
 OpenBabel09191813403D

  5  3  0  0  0  0  0  0  0  0999 V2000
    0.5278   -2.0568    0.0560 N   0  0  0  0  0  0  0  0  0  0  0  0
    0.6454   -3.1553    0.0559 N   0  0  0  0  0  0  0  0  0  0  0  0
    0.5754    0.4447    0.0564 N   0  0  0  0  0  0  0  0  0  0  0  0
   -0.0580    0.4255    0.8946 H   0  0  0  0  0  0  0  0  0  0  0  0
   -0.0567    0.4258   -0.7828 H   0  0  0  0  0  0  0  0  0  0  0  0
  2  1  3  0  0  0  0
  3  4  1  0  0  0  0
  5  3  1  0  0  0  0
M  RAD  1   3   2
M  END
