Coordinates from ORCA-job NH2-N2+-scan-d09-169-n800
 OpenBabel09191813403D

  5  3  0  0  0  0  0  0  0  0999 V2000
    1.0061   -5.3164    0.0559 N   0  0  0  0  0  0  0  0  0  0  0  0
    1.1864   -6.4075    0.0559 N   0  0  0  0  0  0  0  0  0  0  0  0
   -0.1683    2.1805    0.0561 N   0  0  0  0  0  0  0  0  0  0  0  0
   -0.1959    2.8136    0.8960 H   0  0  0  0  0  0  0  0  0  0  0  0
   -0.1945    2.8137   -0.7839 H   0  0  0  0  0  0  0  0  0  0  0  0
  2  1  3  0  0  0  0
  3  4  1  0  0  0  0
  5  3  1  0  0  0  0
M  RAD  1   3   2
M  END
