Coordinates from ORCA-job NH2-N2+-scan-d09-169-n800
 OpenBabel09191813403D

  5  3  0  0  0  0  0  0  0  0999 V2000
    1.7222  -10.2384    0.0524 N   0  0  0  0  0  0  0  0  0  0  0  0
    1.9549  -11.3198    0.0588 N   0  0  0  0  0  0  0  0  0  0  0  0
   -0.6736    5.4585    0.0562 N   0  0  0  0  0  0  0  0  0  0  0  0
   -0.6855    6.0917    0.8953 H   0  0  0  0  0  0  0  0  0  0  0  0
   -0.6842    6.0919   -0.7827 H   0  0  0  0  0  0  0  0  0  0  0  0
  1  2  3  0  0  0  0
  3  4  1  0  0  0  0
  5  3  1  0  0  0  0
M  RAD  1   3   2
M  END
