Coordinates from ORCA-job NH2-N2+-scan-d09-169-n800
 OpenBabel09191813403D

  5  3  0  0  0  0  0  0  0  0999 V2000
    0.8796   -4.5229    0.0559 N   0  0  0  0  0  0  0  0  0  0  0  0
    1.0690   -5.6124    0.0559 N   0  0  0  0  0  0  0  0  0  0  0  0
   -0.0521    1.6539    0.0560 N   0  0  0  0  0  0  0  0  0  0  0  0
   -0.1320    2.2825    0.8964 H   0  0  0  0  0  0  0  0  0  0  0  0
   -0.1306    2.2828   -0.7843 H   0  0  0  0  0  0  0  0  0  0  0  0
  2  1  3  0  0  0  0
  3  4  1  0  0  0  0
  5  3  1  0  0  0  0
M  RAD  1   3   2
M  END
