Coordinates from ORCA-job NH2-N2+-scan-d09-169-n800
 OpenBabel09191813403D

  5  3  0  0  0  0  0  0  0  0999 V2000
    1.4718   -8.5387    0.0525 N   0  0  0  0  0  0  0  0  0  0  0  0
    1.6927   -9.6225    0.0589 N   0  0  0  0  0  0  0  0  0  0  0  0
   -0.4999    4.3262    0.0561 N   0  0  0  0  0  0  0  0  0  0  0  0
   -0.5160    4.9592    0.8955 H   0  0  0  0  0  0  0  0  0  0  0  0
   -0.5148    4.9597   -0.7829 H   0  0  0  0  0  0  0  0  0  0  0  0
  1  2  3  0  0  0  0
  3  4  1  0  0  0  0
  5  3  1  0  0  0  0
M  RAD  1   3   2
M  END
