Coordinates from ORCA-job NH2-N2+-scan-d09-169-n800
 OpenBabel09191813403D

  5  3  0  0  0  0  0  0  0  0999 V2000
    1.4156   -8.1584    0.0526 N   0  0  0  0  0  0  0  0  0  0  0  0
    1.6342   -9.2426    0.0589 N   0  0  0  0  0  0  0  0  0  0  0  0
   -0.4610    4.0728    0.0561 N   0  0  0  0  0  0  0  0  0  0  0  0
   -0.4781    4.7058    0.8955 H   0  0  0  0  0  0  0  0  0  0  0  0
   -0.4769    4.7063   -0.7830 H   0  0  0  0  0  0  0  0  0  0  0  0
  1  2  3  0  0  0  0
  3  4  1  0  0  0  0
  5  3  1  0  0  0  0
M  RAD  1   3   2
M  END
