Coordinates from ORCA-job NH2-N2+-scan-d09-169-n800
 OpenBabel09191813403D

  5  3  0  0  0  0  0  0  0  0999 V2000
    1.3165   -7.4686    0.0535 N   0  0  0  0  0  0  0  0  0  0  0  0
    1.5256   -8.5547    0.0580 N   0  0  0  0  0  0  0  0  0  0  0  0
   -0.3901    3.6136    0.0561 N   0  0  0  0  0  0  0  0  0  0  0  0
   -0.4097    4.2467    0.8955 H   0  0  0  0  0  0  0  0  0  0  0  0
   -0.4085    4.2469   -0.7832 H   0  0  0  0  0  0  0  0  0  0  0  0
  1  2  3  0  0  0  0
  3  4  1  0  0  0  0
  5  3  1  0  0  0  0
M  RAD  1   3   2
M  END
