Coordinates from ORCA-job NH2-N2+-scan-d09-169-n800
 OpenBabel09191813403D

  5  3  0  0  0  0  0  0  0  0999 V2000
    1.1287   -6.0977    0.0559 N   0  0  0  0  0  0  0  0  0  0  0  0
    1.3029   -7.1899    0.0559 N   0  0  0  0  0  0  0  0  0  0  0  0
   -0.2723    2.7015    0.0561 N   0  0  0  0  0  0  0  0  0  0  0  0
   -0.2634    3.3350    0.8957 H   0  0  0  0  0  0  0  0  0  0  0  0
   -0.2620    3.3350   -0.7836 H   0  0  0  0  0  0  0  0  0  0  0  0
  2  1  3  0  0  0  0
  3  4  1  0  0  0  0
  5  3  1  0  0  0  0
M  RAD  1   3   2
M  END
