Coordinates from ORCA-job NH2-N2+-scan-d09-169-n800
 OpenBabel09191813403D

  5  3  0  0  0  0  0  0  0  0999 V2000
    0.7621   -3.9146    0.0559 N   0  0  0  0  0  0  0  0  0  0  0  0
    0.9825   -4.9981    0.0559 N   0  0  0  0  0  0  0  0  0  0  0  0
    0.1712    1.2974    0.0562 N   0  0  0  0  0  0  0  0  0  0  0  0
   -0.1416    1.8496    0.8965 H   0  0  0  0  0  0  0  0  0  0  0  0
   -0.1403    1.8496   -0.7846 H   0  0  0  0  0  0  0  0  0  0  0  0
  2  1  3  0  0  0  0
  3  4  1  0  0  0  0
  5  3  1  0  0  0  0
M  RAD  1   3   2
M  END
