Coordinates from ORCA-job NH2-N2+-scan-d09-169-n800
 OpenBabel09191813403D

  5  3  0  0  0  0  0  0  0  0999 V2000
    0.5759   -2.5210    0.0559 N   0  0  0  0  0  0  0  0  0  0  0  0
    0.7181   -3.6170    0.0559 N   0  0  0  0  0  0  0  0  0  0  0  0
    0.5331    0.7817    0.0564 N   0  0  0  0  0  0  0  0  0  0  0  0
   -0.0973    0.7201    0.8989 H   0  0  0  0  0  0  0  0  0  0  0  0
   -0.0960    0.7202   -0.7871 H   0  0  0  0  0  0  0  0  0  0  0  0
  2  1  3  0  0  0  0
  3  4  1  0  0  0  0
  5  3  1  0  0  0  0
M  RAD  1   3   2
M  END
