Coordinates from ORCA-job NH2-N2+-scan-d09-169-n800
 OpenBabel09191813403D

  5  3  0  0  0  0  0  0  0  0999 V2000
    0.6022   -2.7569    0.0559 N   0  0  0  0  0  0  0  0  0  0  0  0
    0.7605   -3.8508    0.0559 N   0  0  0  0  0  0  0  0  0  0  0  0
    0.5120    0.9055    0.0564 N   0  0  0  0  0  0  0  0  0  0  0  0
   -0.1211    0.8930    0.8993 H   0  0  0  0  0  0  0  0  0  0  0  0
   -0.1198    0.8931   -0.7875 H   0  0  0  0  0  0  0  0  0  0  0  0
  2  1  3  0  0  0  0
  3  4  1  0  0  0  0
  5  3  1  0  0  0  0
M  RAD  1   3   2
M  END
