Coordinates from ORCA-job NH2-N2+-scan-d09-169-n800
 OpenBabel09191813403D

  5  3  0  0  0  0  0  0  0  0999 V2000
    0.6338   -3.0284    0.0559 N   0  0  0  0  0  0  0  0  0  0  0  0
    0.8078   -4.1199    0.0559 N   0  0  0  0  0  0  0  0  0  0  0  0
    0.4850    1.0529    0.0564 N   0  0  0  0  0  0  0  0  0  0  0  0
   -0.1470    1.0894    0.8992 H   0  0  0  0  0  0  0  0  0  0  0  0
   -0.1458    1.0898   -0.7874 H   0  0  0  0  0  0  0  0  0  0  0  0
  2  1  3  0  0  0  0
  3  4  1  0  0  0  0
  5  3  1  0  0  0  0
M  RAD  1   3   2
M  END
