Coordinates from ORCA-job NH2-N2+-scan-d09-169-n800
 OpenBabel09191813403D

  5  3  0  0  0  0  0  0  0  0999 V2000
    1.4145   -8.1464    0.0526 N   0  0  0  0  0  0  0  0  0  0  0  0
    1.6318   -9.2309    0.0588 N   0  0  0  0  0  0  0  0  0  0  0  0
   -0.4598    4.0649    0.0561 N   0  0  0  0  0  0  0  0  0  0  0  0
   -0.4770    4.6979    0.8955 H   0  0  0  0  0  0  0  0  0  0  0  0
   -0.4758    4.6984   -0.7830 H   0  0  0  0  0  0  0  0  0  0  0  0
  1  2  3  0  0  0  0
  3  4  1  0  0  0  0
  5  3  1  0  0  0  0
M  RAD  1   3   2
M  END
