Coordinates from ORCA-job NH2-N2+-scan-d09-169-n800
 OpenBabel09191813403D

  5  3  0  0  0  0  0  0  0  0999 V2000
    1.2453   -6.9934    0.0558 N   0  0  0  0  0  0  0  0  0  0  0  0
    1.4532   -8.0797    0.0559 N   0  0  0  0  0  0  0  0  0  0  0  0
   -0.3414    3.2969    0.0561 N   0  0  0  0  0  0  0  0  0  0  0  0
   -0.3624    3.9301    0.8956 H   0  0  0  0  0  0  0  0  0  0  0  0
   -0.3610    3.9300   -0.7834 H   0  0  0  0  0  0  0  0  0  0  0  0
  1  2  3  0  0  0  0
  3  4  1  0  0  0  0
  5  3  1  0  0  0  0
M  RAD  1   3   2
M  END
