Coordinates from ORCA-job NH2-N2+-scan-d09-169-n800
 OpenBabel09191813403D

  5  3  0  0  0  0  0  0  0  0999 V2000
    0.5944   -2.6860    0.0559 N   0  0  0  0  0  0  0  0  0  0  0  0
    0.7466   -3.7807    0.0559 N   0  0  0  0  0  0  0  0  0  0  0  0
    0.5185    0.8765    0.0564 N   0  0  0  0  0  0  0  0  0  0  0  0
   -0.1135    0.8370    0.8993 H   0  0  0  0  0  0  0  0  0  0  0  0
   -0.1122    0.8371   -0.7875 H   0  0  0  0  0  0  0  0  0  0  0  0
  2  1  3  0  0  0  0
  3  4  1  0  0  0  0
  5  3  1  0  0  0  0
M  RAD  1   3   2
M  END
