Coordinates from ORCA-job NH2-N2+-scan-d09-169-n800
 OpenBabel09191813403D

  5  3  0  0  0  0  0  0  0  0999 V2000
    0.5608   -2.3661    0.0560 N   0  0  0  0  0  0  0  0  0  0  0  0
    0.6921   -3.4635    0.0559 N   0  0  0  0  0  0  0  0  0  0  0  0
    0.5471    0.6765    0.0564 N   0  0  0  0  0  0  0  0  0  0  0  0
   -0.0838    0.6184    0.8980 H   0  0  0  0  0  0  0  0  0  0  0  0
   -0.0825    0.6186   -0.7863 H   0  0  0  0  0  0  0  0  0  0  0  0
  2  1  3  0  0  0  0
  3  4  1  0  0  0  0
  5  3  1  0  0  0  0
M  RAD  1   3   2
M  END
