Coordinates from ORCA-job NH2-N2+-scan-d09-169-n800
 OpenBabel09191813403D

  5  3  0  0  0  0  0  0  0  0999 V2000
    1.7264  -10.2742    0.0523 N   0  0  0  0  0  0  0  0  0  0  0  0
    1.9614  -11.3551    0.0589 N   0  0  0  0  0  0  0  0  0  0  0  0
   -0.6777    5.4822    0.0562 N   0  0  0  0  0  0  0  0  0  0  0  0
   -0.6888    6.1154    0.8953 H   0  0  0  0  0  0  0  0  0  0  0  0
   -0.6875    6.1156   -0.7827 H   0  0  0  0  0  0  0  0  0  0  0  0
  1  2  3  0  0  0  0
  3  4  1  0  0  0  0
  5  3  1  0  0  0  0
M  RAD  1   3   2
M  END
