Coordinates from ORCA-job NH2-N2+-scan-d09-169-n800
 OpenBabel09191813403D

  5  3  0  0  0  0  0  0  0  0999 V2000
    1.7148  -10.1910    0.0524 N   0  0  0  0  0  0  0  0  0  0  0  0
    1.9479  -11.2722    0.0589 N   0  0  0  0  0  0  0  0  0  0  0  0
   -0.6688    5.4268    0.0562 N   0  0  0  0  0  0  0  0  0  0  0  0
   -0.6807    6.0600    0.8953 H   0  0  0  0  0  0  0  0  0  0  0  0
   -0.6794    6.0602   -0.7827 H   0  0  0  0  0  0  0  0  0  0  0  0
  1  2  3  0  0  0  0
  3  4  1  0  0  0  0
  5  3  1  0  0  0  0
M  RAD  1   3   2
M  END
