Coordinates from ORCA-job NH2-N2+-scan-d09-169-n800
 OpenBabel09191813403D

  5  3  0  0  0  0  0  0  0  0999 V2000
    1.1084   -5.9675    0.0559 N   0  0  0  0  0  0  0  0  0  0  0  0
    1.2834   -7.0595    0.0559 N   0  0  0  0  0  0  0  0  0  0  0  0
   -0.2556    2.6145    0.0561 N   0  0  0  0  0  0  0  0  0  0  0  0
   -0.2519    3.2482    0.8958 H   0  0  0  0  0  0  0  0  0  0  0  0
   -0.2505    3.2481   -0.7837 H   0  0  0  0  0  0  0  0  0  0  0  0
  2  1  3  0  0  0  0
  3  4  1  0  0  0  0
  5  3  1  0  0  0  0
M  RAD  1   3   2
M  END
