Coordinates from ORCA-job NH2-N2+-scan-d09-169-n800
 OpenBabel09191813403D

  5  3  0  0  0  0  0  0  0  0999 V2000
    1.6904  -10.0245    0.0523 N   0  0  0  0  0  0  0  0  0  0  0  0
    1.9221  -11.1060    0.0589 N   0  0  0  0  0  0  0  0  0  0  0  0
   -0.6521    5.3159    0.0562 N   0  0  0  0  0  0  0  0  0  0  0  0
   -0.6640    5.9491    0.8953 H   0  0  0  0  0  0  0  0  0  0  0  0
   -0.6627    5.9494   -0.7828 H   0  0  0  0  0  0  0  0  0  0  0  0
  1  2  3  0  0  0  0
  3  4  1  0  0  0  0
  5  3  1  0  0  0  0
M  RAD  1   3   2
M  END
