Coordinates from ORCA-job NH2-N2+-scan-d09-169-n800
 OpenBabel09191813403D

  5  3  0  0  0  0  0  0  0  0999 V2000
    1.5007   -8.7409    0.0523 N   0  0  0  0  0  0  0  0  0  0  0  0
    1.7247   -9.8240    0.0590 N   0  0  0  0  0  0  0  0  0  0  0  0
   -0.5208    4.4608    0.0561 N   0  0  0  0  0  0  0  0  0  0  0  0
   -0.5360    5.0938    0.8954 H   0  0  0  0  0  0  0  0  0  0  0  0
   -0.5348    5.0943   -0.7829 H   0  0  0  0  0  0  0  0  0  0  0  0
  1  2  3  0  0  0  0
  3  4  1  0  0  0  0
  5  3  1  0  0  0  0
M  RAD  1   3   2
M  END
