Coordinates from ORCA-job NH2-N2+-scan-d09-169-n800
 OpenBabel09191813403D

  5  3  0  0  0  0  0  0  0  0999 V2000
    0.8410   -4.2858    0.0560 N   0  0  0  0  0  0  0  0  0  0  0  0
    1.0346   -5.3746    0.0559 N   0  0  0  0  0  0  0  0  0  0  0  0
   -0.0176    1.4969    0.0560 N   0  0  0  0  0  0  0  0  0  0  0  0
   -0.1127    2.1234    0.8966 H   0  0  0  0  0  0  0  0  0  0  0  0
   -0.1114    2.1239   -0.7844 H   0  0  0  0  0  0  0  0  0  0  0  0
  2  1  3  0  0  0  0
  3  4  1  0  0  0  0
  5  3  1  0  0  0  0
M  RAD  1   3   2
M  END
