Coordinates from ORCA-job NH2-N2+-scan-d09-169-n800
 OpenBabel09191813403D

  5  3  0  0  0  0  0  0  0  0999 V2000
    1.0918   -5.8609    0.0559 N   0  0  0  0  0  0  0  0  0  0  0  0
    1.2675   -6.9528    0.0559 N   0  0  0  0  0  0  0  0  0  0  0  0
   -0.2417    2.5435    0.0561 N   0  0  0  0  0  0  0  0  0  0  0  0
   -0.2426    3.1771    0.8958 H   0  0  0  0  0  0  0  0  0  0  0  0
   -0.2411    3.1771   -0.7837 H   0  0  0  0  0  0  0  0  0  0  0  0
  2  1  3  0  0  0  0
  3  4  1  0  0  0  0
  5  3  1  0  0  0  0
M  RAD  1   3   2
M  END
