Coordinates from ORCA-job NH2-N2+-scan-d09-169-n800
 OpenBabel09191813403D

  5  3  0  0  0  0  0  0  0  0999 V2000
    1.2723   -7.1837    0.0558 N   0  0  0  0  0  0  0  0  0  0  0  0
    1.4836   -8.2693    0.0559 N   0  0  0  0  0  0  0  0  0  0  0  0
   -0.3617    3.4235    0.0561 N   0  0  0  0  0  0  0  0  0  0  0  0
   -0.3809    4.0568    0.8955 H   0  0  0  0  0  0  0  0  0  0  0  0
   -0.3795    4.0566   -0.7834 H   0  0  0  0  0  0  0  0  0  0  0  0
  1  2  3  0  0  0  0
  3  4  1  0  0  0  0
  5  3  1  0  0  0  0
M  RAD  1   3   2
M  END
