Coordinates from ORCA-job NH2-N2+-scan-d09-169-n800
 OpenBabel09191813403D

  5  3  0  0  0  0  0  0  0  0999 V2000
    1.2837   -7.2550    0.0548 N   0  0  0  0  0  0  0  0  0  0  0  0
    1.4937   -8.3408    0.0568 N   0  0  0  0  0  0  0  0  0  0  0  0
   -0.3676    3.4711    0.0561 N   0  0  0  0  0  0  0  0  0  0  0  0
   -0.3887    4.1043    0.8955 H   0  0  0  0  0  0  0  0  0  0  0  0
   -0.3873    4.1043   -0.7833 H   0  0  0  0  0  0  0  0  0  0  0  0
  1  2  3  0  0  0  0
  3  4  1  0  0  0  0
  5  3  1  0  0  0  0
M  RAD  1   3   2
M  END
