Coordinates from ORCA-job NH2-N2+-scan-d09-169-n800
 OpenBabel09191813403D

  5  3  0  0  0  0  0  0  0  0999 V2000
    1.2048   -6.6593    0.0559 N   0  0  0  0  0  0  0  0  0  0  0  0
    1.3941   -7.7490    0.0559 N   0  0  0  0  0  0  0  0  0  0  0  0
   -0.3063    3.0753    0.0561 N   0  0  0  0  0  0  0  0  0  0  0  0
   -0.3301    3.7085    0.8956 H   0  0  0  0  0  0  0  0  0  0  0  0
   -0.3287    3.7084   -0.7835 H   0  0  0  0  0  0  0  0  0  0  0  0
  1  2  3  0  0  0  0
  3  4  1  0  0  0  0
  5  3  1  0  0  0  0
M  RAD  1   3   2
M  END
