Coordinates from ORCA-job NH2-N2+-scan-d09-169-n800
 OpenBabel09191813403D

  5  3  0  0  0  0  0  0  0  0999 V2000
    0.5662   -2.4226    0.0560 N   0  0  0  0  0  0  0  0  0  0  0  0
    0.7009   -3.5195    0.0559 N   0  0  0  0  0  0  0  0  0  0  0  0
    0.5418    0.7201    0.0564 N   0  0  0  0  0  0  0  0  0  0  0  0
   -0.0882    0.6529    0.8984 H   0  0  0  0  0  0  0  0  0  0  0  0
   -0.0869    0.6530   -0.7866 H   0  0  0  0  0  0  0  0  0  0  0  0
  2  1  3  0  0  0  0
  3  4  1  0  0  0  0
  5  3  1  0  0  0  0
M  RAD  1   3   2
M  END
