Coordinates from ORCA-job NH2-N2+-scan-d09-169-n800
 OpenBabel09191813403D

  5  3  0  0  0  0  0  0  0  0999 V2000
    1.3906   -7.9799    0.0528 N   0  0  0  0  0  0  0  0  0  0  0  0
    1.6056   -9.0648    0.0586 N   0  0  0  0  0  0  0  0  0  0  0  0
   -0.4428    3.9540    0.0561 N   0  0  0  0  0  0  0  0  0  0  0  0
   -0.4604    4.5871    0.8955 H   0  0  0  0  0  0  0  0  0  0  0  0
   -0.4592    4.5875   -0.7830 H   0  0  0  0  0  0  0  0  0  0  0  0
  1  2  3  0  0  0  0
  3  4  1  0  0  0  0
  5  3  1  0  0  0  0
M  RAD  1   3   2
M  END
