Coordinates from ORCA-job NH2-N2+-scan-d09-169-n800
 OpenBabel09191813403D

  5  3  0  0  0  0  0  0  0  0999 V2000
    0.5831   -2.5881    0.0559 N   0  0  0  0  0  0  0  0  0  0  0  0
    0.7307   -3.6834    0.0559 N   0  0  0  0  0  0  0  0  0  0  0  0
    0.5273    0.8146    0.0564 N   0  0  0  0  0  0  0  0  0  0  0  0
   -0.1043    0.7703    0.8991 H   0  0  0  0  0  0  0  0  0  0  0  0
   -0.1030    0.7704   -0.7874 H   0  0  0  0  0  0  0  0  0  0  0  0
  2  1  3  0  0  0  0
  3  4  1  0  0  0  0
  5  3  1  0  0  0  0
M  RAD  1   3   2
M  END
