Coordinates from ORCA-job NH2-N2+-scan-d09-169-n800
 OpenBabel09191813403D

  5  3  0  0  0  0  0  0  0  0999 V2000
    0.8311   -4.2266    0.0560 N   0  0  0  0  0  0  0  0  0  0  0  0
    1.0262   -5.3150    0.0560 N   0  0  0  0  0  0  0  0  0  0  0  0
   -0.0095    1.4577    0.0559 N   0  0  0  0  0  0  0  0  0  0  0  0
   -0.1077    2.0837    0.8966 H   0  0  0  0  0  0  0  0  0  0  0  0
   -0.1064    2.0842   -0.7845 H   0  0  0  0  0  0  0  0  0  0  0  0
  2  1  3  0  0  0  0
  3  4  1  0  0  0  0
  5  3  1  0  0  0  0
M  RAD  1   3   2
M  END
