Coordinates from ORCA-job NH2-N2+-scan-d09-169-n800
 OpenBabel09191813403D

  5  3  0  0  0  0  0  0  0  0999 V2000
    1.2294   -6.8622    0.0559 N   0  0  0  0  0  0  0  0  0  0  0  0
    1.4299   -7.9499    0.0559 N   0  0  0  0  0  0  0  0  0  0  0  0
   -0.3269    3.2099    0.0561 N   0  0  0  0  0  0  0  0  0  0  0  0
   -0.3501    3.8431    0.8955 H   0  0  0  0  0  0  0  0  0  0  0  0
   -0.3486    3.8430   -0.7834 H   0  0  0  0  0  0  0  0  0  0  0  0
  1  2  3  0  0  0  0
  3  4  1  0  0  0  0
  5  3  1  0  0  0  0
M  RAD  1   3   2
M  END
