Coordinates from ORCA-job NH2-N2+-scan-d09-169-n800
 OpenBabel09191813403D

  5  3  0  0  0  0  0  0  0  0999 V2000
    0.7353   -3.7632    0.0559 N   0  0  0  0  0  0  0  0  0  0  0  0
    0.9644   -4.8449    0.0559 N   0  0  0  0  0  0  0  0  0  0  0  0
    0.1758    1.1904    0.0562 N   0  0  0  0  0  0  0  0  0  0  0  0
   -0.1215    1.7509    0.8968 H   0  0  0  0  0  0  0  0  0  0  0  0
   -0.1202    1.7508   -0.7848 H   0  0  0  0  0  0  0  0  0  0  0  0
  2  1  3  0  0  0  0
  3  4  1  0  0  0  0
  5  3  1  0  0  0  0
M  RAD  1   3   2
M  END
