Coordinates from ORCA-job NH2-N2+-scan-d09-169-n800
 OpenBabel09191813403D

  5  3  0  0  0  0  0  0  0  0999 V2000
    1.3849   -7.9443    0.0528 N   0  0  0  0  0  0  0  0  0  0  0  0
    1.6005   -9.0291    0.0587 N   0  0  0  0  0  0  0  0  0  0  0  0
   -0.4392    3.9303    0.0561 N   0  0  0  0  0  0  0  0  0  0  0  0
   -0.4568    4.5633    0.8955 H   0  0  0  0  0  0  0  0  0  0  0  0
   -0.4556    4.5638   -0.7830 H   0  0  0  0  0  0  0  0  0  0  0  0
  1  2  3  0  0  0  0
  3  4  1  0  0  0  0
  5  3  1  0  0  0  0
M  RAD  1   3   2
M  END
