Coordinates from ORCA-job NH2-N2+-scan-d09-169-n800
 OpenBabel09191813403D

  5  3  0  0  0  0  0  0  0  0999 V2000
    1.3318   -7.5757    0.0533 N   0  0  0  0  0  0  0  0  0  0  0  0
    1.5426   -8.6615    0.0582 N   0  0  0  0  0  0  0  0  0  0  0  0
   -0.4008    3.6849    0.0561 N   0  0  0  0  0  0  0  0  0  0  0  0
   -0.4205    4.3179    0.8955 H   0  0  0  0  0  0  0  0  0  0  0  0
   -0.4192    4.3183   -0.7831 H   0  0  0  0  0  0  0  0  0  0  0  0
  1  2  3  0  0  0  0
  3  4  1  0  0  0  0
  5  3  1  0  0  0  0
M  RAD  1   3   2
M  END
