Coordinates from ORCA-job NH2-N2+-scan-d09-169-n800
 OpenBabel09191813403D

  5  3  0  0  0  0  0  0  0  0999 V2000
    1.4696   -8.5269    0.0524 N   0  0  0  0  0  0  0  0  0  0  0  0
    1.6913   -9.6105    0.0590 N   0  0  0  0  0  0  0  0  0  0  0  0
   -0.4989    4.3183    0.0561 N   0  0  0  0  0  0  0  0  0  0  0  0
   -0.5147    4.9512    0.8955 H   0  0  0  0  0  0  0  0  0  0  0  0
   -0.5135    4.9518   -0.7829 H   0  0  0  0  0  0  0  0  0  0  0  0
  1  2  3  0  0  0  0
  3  4  1  0  0  0  0
  5  3  1  0  0  0  0
M  RAD  1   3   2
M  END
