Coordinates from ORCA-job NH2-N2+-scan-d09-169-n800
 OpenBabel09191813403D

  5  3  0  0  0  0  0  0  0  0999 V2000
    1.4008   -8.0513    0.0528 N   0  0  0  0  0  0  0  0  0  0  0  0
    1.6169   -9.1360    0.0587 N   0  0  0  0  0  0  0  0  0  0  0  0
   -0.4500    4.0016    0.0561 N   0  0  0  0  0  0  0  0  0  0  0  0
   -0.4675    4.6346    0.8955 H   0  0  0  0  0  0  0  0  0  0  0  0
   -0.4663    4.6351   -0.7830 H   0  0  0  0  0  0  0  0  0  0  0  0
  1  2  3  0  0  0  0
  3  4  1  0  0  0  0
  5  3  1  0  0  0  0
M  RAD  1   3   2
M  END
