Coordinates from ORCA-job NH2-N2+-scan-d09-169-n800
 OpenBabel09191813403D

  5  3  0  0  0  0  0  0  0  0999 V2000
    1.1177   -6.0267    0.0559 N   0  0  0  0  0  0  0  0  0  0  0  0
    1.2923   -7.1188    0.0559 N   0  0  0  0  0  0  0  0  0  0  0  0
   -0.2632    2.6541    0.0561 N   0  0  0  0  0  0  0  0  0  0  0  0
   -0.2571    3.2877    0.8958 H   0  0  0  0  0  0  0  0  0  0  0  0
   -0.2557    3.2876   -0.7836 H   0  0  0  0  0  0  0  0  0  0  0  0
  2  1  3  0  0  0  0
  3  4  1  0  0  0  0
  5  3  1  0  0  0  0
M  RAD  1   3   2
M  END
