Coordinates from ORCA-job NH2-N2+-scan-d09-169-n800
 OpenBabel09191813403D

  5  3  0  0  0  0  0  0  0  0999 V2000
    1.5206   -8.8716    0.0524 N   0  0  0  0  0  0  0  0  0  0  0  0
    1.7443   -9.9547    0.0589 N   0  0  0  0  0  0  0  0  0  0  0  0
   -0.5343    4.5479    0.0561 N   0  0  0  0  0  0  0  0  0  0  0  0
   -0.5490    5.1809    0.8954 H   0  0  0  0  0  0  0  0  0  0  0  0
   -0.5478    5.1814   -0.7829 H   0  0  0  0  0  0  0  0  0  0  0  0
  1  2  3  0  0  0  0
  3  4  1  0  0  0  0
  5  3  1  0  0  0  0
M  RAD  1   3   2
M  END
