Coordinates from ORCA-job NH2-N2+-scan-d09-169-n800
 OpenBabel09191813403D

  5  4  0  0  0  0  0  0  0  0999 V2000
    0.4686   -1.7041    0.0560 N   0  0  0  0  0  0  0  0  0  0  0  0
    0.6179   -2.7979    0.0560 N   0  0  0  0  0  0  0  0  0  0  0  0
    0.5903    0.1129    0.0563 N   0  0  0  0  0  0  0  0  0  0  0  0
   -0.0221    0.2364    0.8908 H   0  0  0  0  0  0  0  0  0  0  0  0
   -0.0209    0.2366   -0.7790 H   0  0  0  0  0  0  0  0  0  0  0  0
  1  3  1  0  0  0  0
  2  1  1  0  0  0  0
  3  4  1  0  0  0  0
  5  3  1  0  0  0  0
M  RAD  2   1   2   2   3
M  END
