Coordinates from ORCA-job NH2-N2+-scan-d09-169-n800
 OpenBabel09191813403D

  5  4  0  0  0  0  0  0  0  0999 V2000
    0.4485   -1.4515    0.0560 N   0  0  0  0  0  0  0  0  0  0  0  0
    0.6488   -2.5570    0.0560 N   0  0  0  0  0  0  0  0  0  0  0  0
    0.2413   -0.3098    0.0560 N   0  0  0  0  0  0  0  0  0  0  0  0
    0.1468    0.2010    0.9415 H   0  0  0  0  0  0  0  0  0  0  0  0
    0.1484    0.2012   -0.8296 H   0  0  0  0  0  0  0  0  0  0  0  0
  1  2  1  0  0  0  0
  3  1  1  0  0  0  0
  3  4  1  0  0  0  0
  5  3  1  0  0  0  0
M  RAD  2   1   2   2   3
M  END
