Coordinates from ORCA-job NH2-N2+-scan-d09-169-n800
 OpenBabel09191813403D

  5  3  0  0  0  0  0  0  0  0999 V2000
    1.1894   -6.5401    0.0559 N   0  0  0  0  0  0  0  0  0  0  0  0
    1.3738   -7.6306    0.0559 N   0  0  0  0  0  0  0  0  0  0  0  0
   -0.2939    2.9961    0.0561 N   0  0  0  0  0  0  0  0  0  0  0  0
   -0.3185    3.6293    0.8956 H   0  0  0  0  0  0  0  0  0  0  0  0
   -0.3171    3.6292   -0.7835 H   0  0  0  0  0  0  0  0  0  0  0  0
  1  2  3  0  0  0  0
  3  4  1  0  0  0  0
  5  3  1  0  0  0  0
M  RAD  1   3   2
M  END
