Coordinates from ORCA-job NH2-N2+-scan-d09-169-n800
 OpenBabel09191813403D

  5  3  0  0  0  0  0  0  0  0999 V2000
    1.3002   -7.3618    0.0539 N   0  0  0  0  0  0  0  0  0  0  0  0
    1.5096   -8.4478    0.0577 N   0  0  0  0  0  0  0  0  0  0  0  0
   -0.3790    3.5424    0.0561 N   0  0  0  0  0  0  0  0  0  0  0  0
   -0.3991    4.1755    0.8955 H   0  0  0  0  0  0  0  0  0  0  0  0
   -0.3979    4.1756   -0.7832 H   0  0  0  0  0  0  0  0  0  0  0  0
  1  2  3  0  0  0  0
  3  4  1  0  0  0  0
  5  3  1  0  0  0  0
M  RAD  1   3   2
M  END
