Coordinates from ORCA-job NH2-N2+-scan-d09-169-n800
 OpenBabel09191813403D

  5  3  0  0  0  0  0  0  0  0999 V2000
    1.7465  -10.4049    0.0524 N   0  0  0  0  0  0  0  0  0  0  0  0
    1.9808  -11.4859    0.0588 N   0  0  0  0  0  0  0  0  0  0  0  0
   -0.6906    5.5693    0.0562 N   0  0  0  0  0  0  0  0  0  0  0  0
   -0.7021    6.2026    0.8953 H   0  0  0  0  0  0  0  0  0  0  0  0
   -0.7008    6.2027   -0.7827 H   0  0  0  0  0  0  0  0  0  0  0  0
  1  2  3  0  0  0  0
  3  4  1  0  0  0  0
  5  3  1  0  0  0  0
M  RAD  1   3   2
M  END
