Coordinates from ORCA-job NH2-N2+-scan-d09-169-n800
 OpenBabel09191813403D

  5  3  0  0  0  0  0  0  0  0999 V2000
    0.6391   -3.0692    0.0559 N   0  0  0  0  0  0  0  0  0  0  0  0
    0.8174   -4.1601    0.0559 N   0  0  0  0  0  0  0  0  0  0  0  0
    0.4777    1.0517    0.0563 N   0  0  0  0  0  0  0  0  0  0  0  0
   -0.1508    1.1305    0.8989 H   0  0  0  0  0  0  0  0  0  0  0  0
   -0.1495    1.1310   -0.7871 H   0  0  0  0  0  0  0  0  0  0  0  0
  1  2  3  0  0  0  0
  3  4  1  0  0  0  0
  5  3  1  0  0  0  0
M  RAD  1   3   2
M  END
