Coordinates from ORCA-job NH2-N2+-scan-d09-169-n800
 OpenBabel09191813403D

  5  3  0  0  0  0  0  0  0  0999 V2000
    1.1435   -6.1924    0.0559 N   0  0  0  0  0  0  0  0  0  0  0  0
    1.3171   -7.2847    0.0559 N   0  0  0  0  0  0  0  0  0  0  0  0
   -0.2844    2.7647    0.0561 N   0  0  0  0  0  0  0  0  0  0  0  0
   -0.2719    3.3982    0.8957 H   0  0  0  0  0  0  0  0  0  0  0  0
   -0.2705    3.3981   -0.7836 H   0  0  0  0  0  0  0  0  0  0  0  0
  2  1  3  0  0  0  0
  3  4  1  0  0  0  0
  5  3  1  0  0  0  0
M  RAD  1   3   2
M  END
