Coordinates from ORCA-job NH2-N2+-scan-d09-169-n800
 OpenBabel09191813403D

  5  3  0  0  0  0  0  0  0  0999 V2000
    0.5483   -2.2493    0.0560 N   0  0  0  0  0  0  0  0  0  0  0  0
    0.6739   -3.3472    0.0559 N   0  0  0  0  0  0  0  0  0  0  0  0
    0.5580    0.5931    0.0564 N   0  0  0  0  0  0  0  0  0  0  0  0
   -0.0738    0.5435    0.8970 H   0  0  0  0  0  0  0  0  0  0  0  0
   -0.0725    0.5437   -0.7853 H   0  0  0  0  0  0  0  0  0  0  0  0
  2  1  3  0  0  0  0
  3  4  1  0  0  0  0
  5  3  1  0  0  0  0
M  RAD  1   3   2
M  END
