Coordinates from ORCA-job NH2-N2+-scan-d09-169-n800
 OpenBabel09191813403D

  5  3  0  0  0  0  0  0  0  0999 V2000
    0.6885   -3.5201    0.0559 N   0  0  0  0  0  0  0  0  0  0  0  0
    0.9266   -4.5998    0.0560 N   0  0  0  0  0  0  0  0  0  0  0  0
    0.2890    1.0872    0.0562 N   0  0  0  0  0  0  0  0  0  0  0  0
   -0.1358    1.5581    0.8972 H   0  0  0  0  0  0  0  0  0  0  0  0
   -0.1345    1.5585   -0.7853 H   0  0  0  0  0  0  0  0  0  0  0  0
  1  2  3  0  0  0  0
  3  4  1  0  0  0  0
  5  3  1  0  0  0  0
M  RAD  1   3   2
M  END
