Coordinates from ORCA-job NH2-N2+-scan-d09-169-n800
 OpenBabel09191813403D

  5  3  0  0  0  0  0  0  0  0999 V2000
    1.5294   -8.9310    0.0524 N   0  0  0  0  0  0  0  0  0  0  0  0
    1.7535  -10.0141    0.0590 N   0  0  0  0  0  0  0  0  0  0  0  0
   -0.5403    4.5875    0.0561 N   0  0  0  0  0  0  0  0  0  0  0  0
   -0.5550    5.2205    0.8954 H   0  0  0  0  0  0  0  0  0  0  0  0
   -0.5538    5.2210   -0.7829 H   0  0  0  0  0  0  0  0  0  0  0  0
  1  2  3  0  0  0  0
  3  4  1  0  0  0  0
  5  3  1  0  0  0  0
M  RAD  1   3   2
M  END
