Coordinates from ORCA-job NH2-N2+-scan-d09-169-n800
 OpenBabel09191813403D

  5  3  0  0  0  0  0  0  0  0999 V2000
    0.9911   -5.2217    0.0559 N   0  0  0  0  0  0  0  0  0  0  0  0
    1.1723   -6.3127    0.0559 N   0  0  0  0  0  0  0  0  0  0  0  0
   -0.1549    2.1175    0.0561 N   0  0  0  0  0  0  0  0  0  0  0  0
   -0.1880    2.7503    0.8961 H   0  0  0  0  0  0  0  0  0  0  0  0
   -0.1866    2.7504   -0.7840 H   0  0  0  0  0  0  0  0  0  0  0  0
  2  1  3  0  0  0  0
  3  4  1  0  0  0  0
  5  3  1  0  0  0  0
M  RAD  1   3   2
M  END
