Coordinates from ORCA-job NH2-N2+-scan-d09-169-n800
 OpenBabel09191813403D

  5  3  0  0  0  0  0  0  0  0999 V2000
    1.5503   -9.0736    0.0523 N   0  0  0  0  0  0  0  0  0  0  0  0
    1.7756  -10.1565    0.0590 N   0  0  0  0  0  0  0  0  0  0  0  0
   -0.5549    4.6825    0.0561 N   0  0  0  0  0  0  0  0  0  0  0  0
   -0.5692    5.3155    0.8954 H   0  0  0  0  0  0  0  0  0  0  0  0
   -0.5680    5.3160   -0.7829 H   0  0  0  0  0  0  0  0  0  0  0  0
  1  2  3  0  0  0  0
  3  4  1  0  0  0  0
  5  3  1  0  0  0  0
M  RAD  1   3   2
M  END
