Coordinates from ORCA-job NH2-N2+-scan-d09-169-n800
 OpenBabel09191813403D

  5  3  0  0  0  0  0  0  0  0999 V2000
    1.3746   -7.8730    0.0529 N   0  0  0  0  0  0  0  0  0  0  0  0
    1.5893   -8.9580    0.0586 N   0  0  0  0  0  0  0  0  0  0  0  0
   -0.4317    3.8828    0.0561 N   0  0  0  0  0  0  0  0  0  0  0  0
   -0.4498    4.5158    0.8955 H   0  0  0  0  0  0  0  0  0  0  0  0
   -0.4486    4.5163   -0.7831 H   0  0  0  0  0  0  0  0  0  0  0  0
  1  2  3  0  0  0  0
  3  4  1  0  0  0  0
  5  3  1  0  0  0  0
M  RAD  1   3   2
M  END
