Coordinates from ORCA-job NH2-N2+-scan-d09-169-n800
 OpenBabel09191813403D

  5  3  0  0  0  0  0  0  0  0999 V2000
    0.5784   -2.5460    0.0559 N   0  0  0  0  0  0  0  0  0  0  0  0
    0.7226   -3.6418    0.0559 N   0  0  0  0  0  0  0  0  0  0  0  0
    0.5309    0.7967    0.0564 N   0  0  0  0  0  0  0  0  0  0  0  0
   -0.0997    0.7375    0.8990 H   0  0  0  0  0  0  0  0  0  0  0  0
   -0.0984    0.7376   -0.7872 H   0  0  0  0  0  0  0  0  0  0  0  0
  2  1  3  0  0  0  0
  3  4  1  0  0  0  0
  5  3  1  0  0  0  0
M  RAD  1   3   2
M  END
