Coordinates from ORCA-job NH2-N2+-scan-d09-169-n800
 OpenBabel09191813403D

  5  3  0  0  0  0  0  0  0  0999 V2000
    1.3699   -7.8373    0.0530 N   0  0  0  0  0  0  0  0  0  0  0  0
    1.5833   -8.9225    0.0585 N   0  0  0  0  0  0  0  0  0  0  0  0
   -0.4278    3.8591    0.0561 N   0  0  0  0  0  0  0  0  0  0  0  0
   -0.4464    4.4921    0.8955 H   0  0  0  0  0  0  0  0  0  0  0  0
   -0.4452    4.4925   -0.7831 H   0  0  0  0  0  0  0  0  0  0  0  0
  1  2  3  0  0  0  0
  3  4  1  0  0  0  0
  5  3  1  0  0  0  0
M  RAD  1   3   2
M  END
