Coordinates from ORCA-job NH2-N2+-scan-d09-169-n800
 OpenBabel09191813403D

  5  3  0  0  0  0  0  0  0  0999 V2000
    1.1972   -6.5997    0.0559 N   0  0  0  0  0  0  0  0  0  0  0  0
    1.3839   -7.6898    0.0559 N   0  0  0  0  0  0  0  0  0  0  0  0
   -0.3002    3.0357    0.0561 N   0  0  0  0  0  0  0  0  0  0  0  0
   -0.3243    3.6689    0.8956 H   0  0  0  0  0  0  0  0  0  0  0  0
   -0.3229    3.6688   -0.7835 H   0  0  0  0  0  0  0  0  0  0  0  0
  1  2  3  0  0  0  0
  3  4  1  0  0  0  0
  5  3  1  0  0  0  0
M  RAD  1   3   2
M  END
