Coordinates from ORCA-job NH2-N2+-scan-d09-169-n800
 OpenBabel09191813403D

  5  3  0  0  0  0  0  0  0  0999 V2000
    0.7417   -3.7980    0.0559 N   0  0  0  0  0  0  0  0  0  0  0  0
    0.9684   -4.8802    0.0559 N   0  0  0  0  0  0  0  0  0  0  0  0
    0.1753    1.2153    0.0562 N   0  0  0  0  0  0  0  0  0  0  0  0
   -0.1264    1.7734    0.8967 H   0  0  0  0  0  0  0  0  0  0  0  0
   -0.1251    1.7734   -0.7848 H   0  0  0  0  0  0  0  0  0  0  0  0
  2  1  3  0  0  0  0
  3  4  1  0  0  0  0
  5  3  1  0  0  0  0
M  RAD  1   3   2
M  END
