Coordinates from ORCA-job NH2-N2+-scan-d09-169-n800
 OpenBabel09191813403D

  5  3  0  0  0  0  0  0  0  0999 V2000
    0.9101   -4.7125    0.0559 N   0  0  0  0  0  0  0  0  0  0  0  0
    1.0969   -5.8025    0.0559 N   0  0  0  0  0  0  0  0  0  0  0  0
   -0.0805    1.7794    0.0560 N   0  0  0  0  0  0  0  0  0  0  0  0
   -0.1470    2.4096    0.8963 H   0  0  0  0  0  0  0  0  0  0  0  0
   -0.1456    2.4098   -0.7842 H   0  0  0  0  0  0  0  0  0  0  0  0
  2  1  3  0  0  0  0
  3  4  1  0  0  0  0
  5  3  1  0  0  0  0
M  RAD  1   3   2
M  END
