Coordinates from ORCA-job NH2-N2+-scan-d09-169-n800
 OpenBabel09191813403D

  5  3  0  0  0  0  0  0  0  0999 V2000
    0.7934   -4.0136    0.0560 N   0  0  0  0  0  0  0  0  0  0  0  0
    0.9981   -5.1002    0.0560 N   0  0  0  0  0  0  0  0  0  0  0  0
    0.0168    1.3158    0.0559 N   0  0  0  0  0  0  0  0  0  0  0  0
   -0.0879    1.9406    0.8968 H   0  0  0  0  0  0  0  0  0  0  0  0
   -0.0866    1.9414   -0.7846 H   0  0  0  0  0  0  0  0  0  0  0  0
  1  2  3  0  0  0  0
  3  4  1  0  0  0  0
  5  3  1  0  0  0  0
M  RAD  1   3   2
M  END
