Coordinates from ORCA-job NH2-N2+-scan-d09-169-n800
 OpenBabel09191813403D

  5  3  0  0  0  0  0  0  0  0999 V2000
    1.2003   -6.6235    0.0559 N   0  0  0  0  0  0  0  0  0  0  0  0
    1.3880   -7.7135    0.0559 N   0  0  0  0  0  0  0  0  0  0  0  0
   -0.3025    3.0516    0.0561 N   0  0  0  0  0  0  0  0  0  0  0  0
   -0.3267    3.6847    0.8956 H   0  0  0  0  0  0  0  0  0  0  0  0
   -0.3252    3.6846   -0.7835 H   0  0  0  0  0  0  0  0  0  0  0  0
  1  2  3  0  0  0  0
  3  4  1  0  0  0  0
  5  3  1  0  0  0  0
M  RAD  1   3   2
M  END
