Coordinates from ORCA-job NH2-N2+-scan-d09-169-n800
 OpenBabel09191813403D

  5  3  0  0  0  0  0  0  0  0999 V2000
    0.7561   -3.8795    0.0559 N   0  0  0  0  0  0  0  0  0  0  0  0
    0.9781   -4.9627    0.0559 N   0  0  0  0  0  0  0  0  0  0  0  0
    0.1728    1.2729    0.0562 N   0  0  0  0  0  0  0  0  0  0  0  0
   -0.1372    1.8266    0.8966 H   0  0  0  0  0  0  0  0  0  0  0  0
   -0.1359    1.8266   -0.7846 H   0  0  0  0  0  0  0  0  0  0  0  0
  2  1  3  0  0  0  0
  3  4  1  0  0  0  0
  5  3  1  0  0  0  0
M  RAD  1   3   2
M  END
