Coordinates from ORCA-job NH2-N2+-scan-d09-169-n800
 OpenBabel09191813403D

  5  3  0  0  0  0  0  0  0  0999 V2000
    1.0248   -5.4348    0.0559 N   0  0  0  0  0  0  0  0  0  0  0  0
    1.2040   -6.5261    0.0559 N   0  0  0  0  0  0  0  0  0  0  0  0
   -0.1847    2.2594    0.0561 N   0  0  0  0  0  0  0  0  0  0  0  0
   -0.2058    2.8927    0.8960 H   0  0  0  0  0  0  0  0  0  0  0  0
   -0.2044    2.8927   -0.7839 H   0  0  0  0  0  0  0  0  0  0  0  0
  2  1  3  0  0  0  0
  3  4  1  0  0  0  0
  5  3  1  0  0  0  0
M  RAD  1   3   2
M  END
