Coordinates from ORCA-job NH2-N2+-scan-d09-169-n800
 OpenBabel09191813403D

  5  3  0  0  0  0  0  0  0  0999 V2000
    1.1343   -6.1332    0.0559 N   0  0  0  0  0  0  0  0  0  0  0  0
    1.3082   -7.2254    0.0559 N   0  0  0  0  0  0  0  0  0  0  0  0
   -0.2769    2.7252    0.0561 N   0  0  0  0  0  0  0  0  0  0  0  0
   -0.2666    3.3587    0.8957 H   0  0  0  0  0  0  0  0  0  0  0  0
   -0.2652    3.3587   -0.7836 H   0  0  0  0  0  0  0  0  0  0  0  0
  2  1  3  0  0  0  0
  3  4  1  0  0  0  0
  5  3  1  0  0  0  0
M  RAD  1   3   2
M  END
