Coordinates from ORCA-job NH2-N2+-scan-d09-169-n800
 OpenBabel09191813403D

  5  3  0  0  0  0  0  0  0  0999 V2000
    1.7539  -10.4524    0.0524 N   0  0  0  0  0  0  0  0  0  0  0  0
    1.9877  -11.5334    0.0588 N   0  0  0  0  0  0  0  0  0  0  0  0
   -0.6955    5.6010    0.0562 N   0  0  0  0  0  0  0  0  0  0  0  0
   -0.7068    6.2342    0.8953 H   0  0  0  0  0  0  0  0  0  0  0  0
   -0.7055    6.2344   -0.7827 H   0  0  0  0  0  0  0  0  0  0  0  0
  1  2  3  0  0  0  0
  3  4  1  0  0  0  0
  5  3  1  0  0  0  0
M  RAD  1   3   2
M  END
