Coordinates from ORCA-job NH2-N2+-scan-d09-169-n800
 OpenBabel09191813403D

  5  3  0  0  0  0  0  0  0  0999 V2000
    1.3837   -7.9324    0.0529 N   0  0  0  0  0  0  0  0  0  0  0  0
    1.5982   -9.0174    0.0586 N   0  0  0  0  0  0  0  0  0  0  0  0
   -0.4375    3.9224    0.0561 N   0  0  0  0  0  0  0  0  0  0  0  0
   -0.4559    4.5554    0.8955 H   0  0  0  0  0  0  0  0  0  0  0  0
   -0.4547    4.5559   -0.7831 H   0  0  0  0  0  0  0  0  0  0  0  0
  1  2  3  0  0  0  0
  3  4  1  0  0  0  0
  5  3  1  0  0  0  0
M  RAD  1   3   2
M  END
