Coordinates from ORCA-job NH2-N2+-scan-d09-169-n800
 OpenBabel09191813403D

  5  3  0  0  0  0  0  0  0  0999 V2000
    0.9498   -4.9612    0.0559 N   0  0  0  0  0  0  0  0  0  0  0  0
    1.1337   -6.0517    0.0559 N   0  0  0  0  0  0  0  0  0  0  0  0
   -0.1174    1.9444    0.0560 N   0  0  0  0  0  0  0  0  0  0  0  0
   -0.1668    2.5762    0.8962 H   0  0  0  0  0  0  0  0  0  0  0  0
   -0.1654    2.5763   -0.7841 H   0  0  0  0  0  0  0  0  0  0  0  0
  2  1  3  0  0  0  0
  3  4  1  0  0  0  0
  5  3  1  0  0  0  0
M  RAD  1   3   2
M  END
