Coordinates from ORCA-job NH2-N2+-scan-d09-169-n800
 OpenBabel09191813403D

  5  3  0  0  0  0  0  0  0  0999 V2000
    0.9252   -4.8073    0.0559 N   0  0  0  0  0  0  0  0  0  0  0  0
    1.1109   -5.8975    0.0559 N   0  0  0  0  0  0  0  0  0  0  0  0
   -0.0946    1.8422    0.0560 N   0  0  0  0  0  0  0  0  0  0  0  0
   -0.1545    2.4731    0.8963 H   0  0  0  0  0  0  0  0  0  0  0  0
   -0.1531    2.4733   -0.7841 H   0  0  0  0  0  0  0  0  0  0  0  0
  2  1  3  0  0  0  0
  3  4  1  0  0  0  0
  5  3  1  0  0  0  0
M  RAD  1   3   2
M  END
