Coordinates from ORCA-job NH2-N2+-scan-d09-169-n800
 OpenBabel09191813403D

  5  3  0  0  0  0  0  0  0  0999 V2000
    1.6659   -9.8581    0.0524 N   0  0  0  0  0  0  0  0  0  0  0  0
    1.8965  -10.9399    0.0589 N   0  0  0  0  0  0  0  0  0  0  0  0
   -0.6348    5.2051    0.0562 N   0  0  0  0  0  0  0  0  0  0  0  0
   -0.6475    5.8382    0.8953 H   0  0  0  0  0  0  0  0  0  0  0  0
   -0.6463    5.8386   -0.7828 H   0  0  0  0  0  0  0  0  0  0  0  0
  1  2  3  0  0  0  0
  3  4  1  0  0  0  0
  5  3  1  0  0  0  0
M  RAD  1   3   2
M  END
