Coordinates from ORCA-job NH2-N2+-scan-d09-169-n800
 OpenBabel09191813403D

  5  3  0  0  0  0  0  0  0  0999 V2000
    1.3918   -7.9919    0.0528 N   0  0  0  0  0  0  0  0  0  0  0  0
    1.6080   -9.0766    0.0587 N   0  0  0  0  0  0  0  0  0  0  0  0
   -0.4441    3.9620    0.0561 N   0  0  0  0  0  0  0  0  0  0  0  0
   -0.4615    4.5949    0.8955 H   0  0  0  0  0  0  0  0  0  0  0  0
   -0.4603    4.5955   -0.7830 H   0  0  0  0  0  0  0  0  0  0  0  0
  1  2  3  0  0  0  0
  3  4  1  0  0  0  0
  5  3  1  0  0  0  0
M  RAD  1   3   2
M  END
