Coordinates from ORCA-job NH2-N2+-scan-d09-169-n800
 OpenBabel09191813403D

  5  3  0  0  0  0  0  0  0  0999 V2000
    1.5916   -9.3590    0.0523 N   0  0  0  0  0  0  0  0  0  0  0  0
    1.8202  -10.4412    0.0591 N   0  0  0  0  0  0  0  0  0  0  0  0
   -0.5839    4.8725    0.0561 N   0  0  0  0  0  0  0  0  0  0  0  0
   -0.5977    5.5056    0.8954 H   0  0  0  0  0  0  0  0  0  0  0  0
   -0.5965    5.5060   -0.7828 H   0  0  0  0  0  0  0  0  0  0  0  0
  1  2  3  0  0  0  0
  3  4  1  0  0  0  0
  5  3  1  0  0  0  0
M  RAD  1   3   2
M  END
