Coordinates from ORCA-job NH2-N2+-scan-d09-169-n800
 OpenBabel09191813403D

  5  3  0  0  0  0  0  0  0  0999 V2000
    1.0360   -5.5058    0.0559 N   0  0  0  0  0  0  0  0  0  0  0  0
    1.2145   -6.5972    0.0559 N   0  0  0  0  0  0  0  0  0  0  0  0
   -0.1944    2.3067    0.0561 N   0  0  0  0  0  0  0  0  0  0  0  0
   -0.2119    2.9401    0.8960 H   0  0  0  0  0  0  0  0  0  0  0  0
   -0.2105    2.9401   -0.7838 H   0  0  0  0  0  0  0  0  0  0  0  0
  2  1  3  0  0  0  0
  3  4  1  0  0  0  0
  5  3  1  0  0  0  0
M  RAD  1   3   2
M  END
