Coordinates from ORCA-job NH2-N2+-scan-d09-169-n800
 OpenBabel09191813403D

  5  3  0  0  0  0  0  0  0  0999 V2000
    1.4382   -8.3129    0.0525 N   0  0  0  0  0  0  0  0  0  0  0  0
    1.6582   -9.3969    0.0589 N   0  0  0  0  0  0  0  0  0  0  0  0
   -0.4769    4.1757    0.0561 N   0  0  0  0  0  0  0  0  0  0  0  0
   -0.4934    4.8087    0.8955 H   0  0  0  0  0  0  0  0  0  0  0  0
   -0.4923    4.8093   -0.7830 H   0  0  0  0  0  0  0  0  0  0  0  0
  1  2  3  0  0  0  0
  3  4  1  0  0  0  0
  5  3  1  0  0  0  0
M  RAD  1   3   2
M  END
