Coordinates from ORCA-job NH2-N2+-scan-d09-169-n800
 OpenBabel09191813403D

  5  3  0  0  0  0  0  0  0  0999 V2000
    1.2362   -6.9219    0.0558 N   0  0  0  0  0  0  0  0  0  0  0  0
    1.4409   -8.0088    0.0559 N   0  0  0  0  0  0  0  0  0  0  0  0
   -0.3331    3.2495    0.0561 N   0  0  0  0  0  0  0  0  0  0  0  0
   -0.3558    3.8827    0.8956 H   0  0  0  0  0  0  0  0  0  0  0  0
   -0.3544    3.8825   -0.7834 H   0  0  0  0  0  0  0  0  0  0  0  0
  1  2  3  0  0  0  0
  3  4  1  0  0  0  0
  5  3  1  0  0  0  0
M  RAD  1   3   2
M  END
