Coordinates from ORCA-job NH2-N2+-scan-d09-169-n800
 OpenBabel09191813403D

  5  3  0  0  0  0  0  0  0  0999 V2000
    1.5721   -9.2283    0.0522 N   0  0  0  0  0  0  0  0  0  0  0  0
    1.8003  -10.3106    0.0591 N   0  0  0  0  0  0  0  0  0  0  0  0
   -0.5708    4.7854    0.0561 N   0  0  0  0  0  0  0  0  0  0  0  0
   -0.5845    5.4184    0.8954 H   0  0  0  0  0  0  0  0  0  0  0  0
   -0.5833    5.4189   -0.7828 H   0  0  0  0  0  0  0  0  0  0  0  0
  1  2  3  0  0  0  0
  3  4  1  0  0  0  0
  5  3  1  0  0  0  0
M  RAD  1   3   2
M  END
