Coordinates from ORCA-job NH2-N2+-scan-d09-169-n800
 OpenBabel09191813403D

  5  3  0  0  0  0  0  0  0  0999 V2000
    0.5315   -2.0902    0.0560 N   0  0  0  0  0  0  0  0  0  0  0  0
    0.6500   -3.1886    0.0559 N   0  0  0  0  0  0  0  0  0  0  0  0
    0.5725    0.4716    0.0564 N   0  0  0  0  0  0  0  0  0  0  0  0
   -0.0607    0.4455    0.8950 H   0  0  0  0  0  0  0  0  0  0  0  0
   -0.0595    0.4457   -0.7833 H   0  0  0  0  0  0  0  0  0  0  0  0
  2  1  3  0  0  0  0
  3  4  1  0  0  0  0
  5  3  1  0  0  0  0
M  RAD  1   3   2
M  END
