Coordinates from ORCA-job NH2-N2+-scan-d09-169-n800
 OpenBabel09191813403D

  5  4  0  0  0  0  0  0  0  0999 V2000
    0.4435   -1.4241    0.0560 N   0  0  0  0  0  0  0  0  0  0  0  0
    0.6446   -2.5338    0.0560 N   0  0  0  0  0  0  0  0  0  0  0  0
    0.2470   -0.3416    0.0560 N   0  0  0  0  0  0  0  0  0  0  0  0
    0.1486    0.1916    0.9324 H   0  0  0  0  0  0  0  0  0  0  0  0
    0.1502    0.1918   -0.8205 H   0  0  0  0  0  0  0  0  0  0  0  0
  1  2  1  0  0  0  0
  3  1  1  0  0  0  0
  3  4  1  0  0  0  0
  5  3  1  0  0  0  0
M  RAD  2   1   2   2   3
M  END
