Coordinates from ORCA-job NH2-N2+-scan-d09-169-n800
 OpenBabel09191813403D

  5  3  0  0  0  0  0  0  0  0999 V2000
    0.9347   -4.8665    0.0559 N   0  0  0  0  0  0  0  0  0  0  0  0
    1.1196   -5.9568    0.0559 N   0  0  0  0  0  0  0  0  0  0  0  0
   -0.1034    1.8815    0.0560 N   0  0  0  0  0  0  0  0  0  0  0  0
   -0.1592    2.5128    0.8962 H   0  0  0  0  0  0  0  0  0  0  0  0
   -0.1579    2.5129   -0.7841 H   0  0  0  0  0  0  0  0  0  0  0  0
  2  1  3  0  0  0  0
  3  4  1  0  0  0  0
  5  3  1  0  0  0  0
M  RAD  1   3   2
M  END
