Coordinates from ORCA-job NH2-N2+-scan-d09-169-n800
 OpenBabel09191813403D

  5  3  0  0  0  0  0  0  0  0999 V2000
    1.6637   -9.8463    0.0523 N   0  0  0  0  0  0  0  0  0  0  0  0
    1.8951  -10.9279    0.0590 N   0  0  0  0  0  0  0  0  0  0  0  0
   -0.6336    5.1972    0.0562 N   0  0  0  0  0  0  0  0  0  0  0  0
   -0.6463    5.8303    0.8953 H   0  0  0  0  0  0  0  0  0  0  0  0
   -0.6451    5.8306   -0.7828 H   0  0  0  0  0  0  0  0  0  0  0  0
  1  2  3  0  0  0  0
  3  4  1  0  0  0  0
  5  3  1  0  0  0  0
M  RAD  1   3   2
M  END
