Coordinates from ORCA-job NH2-N2+-scan-d09-169-n800
 OpenBabel09191813403D

  5  3  0  0  0  0  0  0  0  0999 V2000
    1.2063   -6.6712    0.0559 N   0  0  0  0  0  0  0  0  0  0  0  0
    1.3961   -7.7608    0.0559 N   0  0  0  0  0  0  0  0  0  0  0  0
   -0.3075    3.0832    0.0561 N   0  0  0  0  0  0  0  0  0  0  0  0
   -0.3313    3.7164    0.8956 H   0  0  0  0  0  0  0  0  0  0  0  0
   -0.3299    3.7163   -0.7835 H   0  0  0  0  0  0  0  0  0  0  0  0
  1  2  3  0  0  0  0
  3  4  1  0  0  0  0
  5  3  1  0  0  0  0
M  RAD  1   3   2
M  END
