Coordinates from ORCA-job NH2-N2+-scan-d09-169-n800
 OpenBabel09191813403D

  5  3  0  0  0  0  0  0  0  0999 V2000
    0.6752   -3.4380    0.0560 N   0  0  0  0  0  0  0  0  0  0  0  0
    0.9069   -4.5190    0.0560 N   0  0  0  0  0  0  0  0  0  0  0  0
    0.3567    1.0954    0.0561 N   0  0  0  0  0  0  0  0  0  0  0  0
   -0.1532    1.4723    0.8974 H   0  0  0  0  0  0  0  0  0  0  0  0
   -0.1519    1.4733   -0.7855 H   0  0  0  0  0  0  0  0  0  0  0  0
  2  1  3  0  0  0  0
  3  4  1  0  0  0  0
  5  3  1  0  0  0  0
M  RAD  1   3   2
M  END
