Coordinates from ORCA-job NH2-N2+-scan-d09-169-n800
 OpenBabel09191813403D

  5  4  0  0  0  0  0  0  0  0999 V2000
    0.4468   -1.4424    0.0560 N   0  0  0  0  0  0  0  0  0  0  0  0
    0.6474   -2.5492    0.0560 N   0  0  0  0  0  0  0  0  0  0  0  0
    0.2432   -0.3204    0.0560 N   0  0  0  0  0  0  0  0  0  0  0  0
    0.1474    0.1978    0.9384 H   0  0  0  0  0  0  0  0  0  0  0  0
    0.1490    0.1981   -0.8265 H   0  0  0  0  0  0  0  0  0  0  0  0
  1  2  1  0  0  0  0
  3  1  1  0  0  0  0
  3  4  1  0  0  0  0
  5  3  1  0  0  0  0
M  RAD  2   1   2   2   3
M  END
