Coordinates from ORCA-job NH2-N2+-scan-d09-169-n800
 OpenBabel09191813403D

  5  3  0  0  0  0  0  0  0  0999 V2000
    0.5733   -2.4962    0.0560 N   0  0  0  0  0  0  0  0  0  0  0  0
    0.7138   -3.5924    0.0559 N   0  0  0  0  0  0  0  0  0  0  0  0
    0.5353    0.7665    0.0564 N   0  0  0  0  0  0  0  0  0  0  0  0
   -0.0950    0.7029    0.8988 H   0  0  0  0  0  0  0  0  0  0  0  0
   -0.0937    0.7030   -0.7870 H   0  0  0  0  0  0  0  0  0  0  0  0
  2  1  3  0  0  0  0
  3  4  1  0  0  0  0
  5  3  1  0  0  0  0
M  RAD  1   3   2
M  END
