Coordinates from ORCA-job NH2-N2+-scan-d09-169-n800
 OpenBabel09191813403D

  5  3  0  0  0  0  0  0  0  0999 V2000
    1.1010   -5.9201    0.0559 N   0  0  0  0  0  0  0  0  0  0  0  0
    1.2763   -7.0121    0.0559 N   0  0  0  0  0  0  0  0  0  0  0  0
   -0.2494    2.5830    0.0561 N   0  0  0  0  0  0  0  0  0  0  0  0
   -0.2478    3.2166    0.8958 H   0  0  0  0  0  0  0  0  0  0  0  0
   -0.2463    3.2166   -0.7837 H   0  0  0  0  0  0  0  0  0  0  0  0
  2  1  3  0  0  0  0
  3  4  1  0  0  0  0
  5  3  1  0  0  0  0
M  RAD  1   3   2
M  END
