Coordinates from ORCA-job NH2-N2+-scan-d09-169-n800
 OpenBabel09191813403D

  5  3  0  0  0  0  0  0  0  0999 V2000
    1.3780   -7.8968    0.0528 N   0  0  0  0  0  0  0  0  0  0  0  0
    1.5930   -8.9817    0.0586 N   0  0  0  0  0  0  0  0  0  0  0  0
   -0.4341    3.8986    0.0561 N   0  0  0  0  0  0  0  0  0  0  0  0
   -0.4522    4.5316    0.8955 H   0  0  0  0  0  0  0  0  0  0  0  0
   -0.4510    4.5321   -0.7831 H   0  0  0  0  0  0  0  0  0  0  0  0
  1  2  3  0  0  0  0
  3  4  1  0  0  0  0
  5  3  1  0  0  0  0
M  RAD  1   3   2
M  END
