Coordinates from ORCA-job NH2-N2+-scan-d09-169-n800
 OpenBabel09191813403D

  5  3  0  0  0  0  0  0  0  0999 V2000
    1.2335   -6.8980    0.0558 N   0  0  0  0  0  0  0  0  0  0  0  0
    1.4365   -7.9852    0.0559 N   0  0  0  0  0  0  0  0  0  0  0  0
   -0.3309    3.2336    0.0561 N   0  0  0  0  0  0  0  0  0  0  0  0
   -0.3534    3.8668    0.8955 H   0  0  0  0  0  0  0  0  0  0  0  0
   -0.3519    3.8667   -0.7834 H   0  0  0  0  0  0  0  0  0  0  0  0
  1  2  3  0  0  0  0
  3  4  1  0  0  0  0
  5  3  1  0  0  0  0
M  RAD  1   3   2
M  END
