Coordinates from ORCA-job NH2-N2+-scan-d09-169-n800
 OpenBabel09191813403D

  5  3  0  0  0  0  0  0  0  0999 V2000
    1.4472   -8.3724    0.0525 N   0  0  0  0  0  0  0  0  0  0  0  0
    1.6672   -9.4563    0.0589 N   0  0  0  0  0  0  0  0  0  0  0  0
   -0.4825    4.2154    0.0561 N   0  0  0  0  0  0  0  0  0  0  0  0
   -0.4996    4.8483    0.8955 H   0  0  0  0  0  0  0  0  0  0  0  0
   -0.4985    4.8489   -0.7830 H   0  0  0  0  0  0  0  0  0  0  0  0
  1  2  3  0  0  0  0
  3  4  1  0  0  0  0
  5  3  1  0  0  0  0
M  RAD  1   3   2
M  END
