Coordinates from ORCA-job NH2-N2+-scan-d09-169-n800
 OpenBabel09191813403D

  5  3  0  0  0  0  0  0  0  0999 V2000
    0.5103   -1.9262    0.0560 N   0  0  0  0  0  0  0  0  0  0  0  0
    0.6300   -3.0241    0.0559 N   0  0  0  0  0  0  0  0  0  0  0  0
    0.5860    0.3343    0.0563 N   0  0  0  0  0  0  0  0  0  0  0  0
   -0.0469    0.3498    0.8924 H   0  0  0  0  0  0  0  0  0  0  0  0
   -0.0456    0.3501   -0.7806 H   0  0  0  0  0  0  0  0  0  0  0  0
  2  1  3  0  0  0  0
  3  4  1  0  0  0  0
  5  3  1  0  0  0  0
M  RAD  1   3   2
M  END
