Coordinates from ORCA-job NH2-N2+-scan-d09-169-n800
 OpenBabel09191813403D

  5  3  0  0  0  0  0  0  0  0999 V2000
    1.4213   -8.1940    0.0526 N   0  0  0  0  0  0  0  0  0  0  0  0
    1.6393   -9.2783    0.0588 N   0  0  0  0  0  0  0  0  0  0  0  0
   -0.4647    4.0966    0.0561 N   0  0  0  0  0  0  0  0  0  0  0  0
   -0.4816    4.7295    0.8955 H   0  0  0  0  0  0  0  0  0  0  0  0
   -0.4805    4.7301   -0.7830 H   0  0  0  0  0  0  0  0  0  0  0  0
  1  2  3  0  0  0  0
  3  4  1  0  0  0  0
  5  3  1  0  0  0  0
M  RAD  1   3   2
M  END
