Coordinates from ORCA-job NH2-N2+-scan-d09-169-n800
 OpenBabel09191813403D

  5  3  0  0  0  0  0  0  0  0999 V2000
    1.2537   -7.0529    0.0558 N   0  0  0  0  0  0  0  0  0  0  0  0
    1.4628   -8.1390    0.0559 N   0  0  0  0  0  0  0  0  0  0  0  0
   -0.3475    3.3365    0.0561 N   0  0  0  0  0  0  0  0  0  0  0  0
   -0.3683    3.9697    0.8955 H   0  0  0  0  0  0  0  0  0  0  0  0
   -0.3668    3.9696   -0.7834 H   0  0  0  0  0  0  0  0  0  0  0  0
  1  2  3  0  0  0  0
  3  4  1  0  0  0  0
  5  3  1  0  0  0  0
M  RAD  1   3   2
M  END
