Coordinates from ORCA-job NH2-N2+-scan-d09-169-n800
 OpenBabel09191813403D

  5  3  0  0  0  0  0  0  0  0999 V2000
    0.5436   -2.2033    0.0560 N   0  0  0  0  0  0  0  0  0  0  0  0
    0.6667   -3.3014    0.0559 N   0  0  0  0  0  0  0  0  0  0  0  0
    0.5622    0.5590    0.0564 N   0  0  0  0  0  0  0  0  0  0  0  0
   -0.0700    0.5147    0.8965 H   0  0  0  0  0  0  0  0  0  0  0  0
   -0.0687    0.5149   -0.7848 H   0  0  0  0  0  0  0  0  0  0  0  0
  2  1  3  0  0  0  0
  3  4  1  0  0  0  0
  5  3  1  0  0  0  0
M  RAD  1   3   2
M  END
