Coordinates from ORCA-job NH2-N2+-scan-d09-169-n800
 OpenBabel09191813403D

  5  3  0  0  0  0  0  0  0  0999 V2000
    1.1361   -6.1451    0.0559 N   0  0  0  0  0  0  0  0  0  0  0  0
    1.3100   -7.2373    0.0559 N   0  0  0  0  0  0  0  0  0  0  0  0
   -0.2784    2.7331    0.0561 N   0  0  0  0  0  0  0  0  0  0  0  0
   -0.2677    3.3666    0.8957 H   0  0  0  0  0  0  0  0  0  0  0  0
   -0.2662    3.3666   -0.7836 H   0  0  0  0  0  0  0  0  0  0  0  0
  2  1  3  0  0  0  0
  3  4  1  0  0  0  0
  5  3  1  0  0  0  0
M  RAD  1   3   2
M  END
