Coordinates from ORCA-job NH2-N2+-scan-d09-169-n800
 OpenBabel09191813403D

  5  3  0  0  0  0  0  0  0  0999 V2000
    1.6883  -10.0128    0.0523 N   0  0  0  0  0  0  0  0  0  0  0  0
    1.9207  -11.0941    0.0590 N   0  0  0  0  0  0  0  0  0  0  0  0
   -0.6501    5.3081    0.0562 N   0  0  0  0  0  0  0  0  0  0  0  0
   -0.6632    5.9412    0.8953 H   0  0  0  0  0  0  0  0  0  0  0  0
   -0.6619    5.9415   -0.7827 H   0  0  0  0  0  0  0  0  0  0  0  0
  1  2  3  0  0  0  0
  3  4  1  0  0  0  0
  5  3  1  0  0  0  0
M  RAD  1   3   2
M  END
