Coordinates from ORCA-job NH2-N2+-scan-d09-169-n800
 OpenBabel09191813403D

  5  3  0  0  0  0  0  0  0  0999 V2000
    0.8271   -4.2029    0.0560 N   0  0  0  0  0  0  0  0  0  0  0  0
    1.0229   -5.2912    0.0560 N   0  0  0  0  0  0  0  0  0  0  0  0
   -0.0063    1.4419    0.0559 N   0  0  0  0  0  0  0  0  0  0  0  0
   -0.1056    2.0677    0.8966 H   0  0  0  0  0  0  0  0  0  0  0  0
   -0.1043    2.0683   -0.7845 H   0  0  0  0  0  0  0  0  0  0  0  0
  2  1  3  0  0  0  0
  3  4  1  0  0  0  0
  5  3  1  0  0  0  0
M  RAD  1   3   2
M  END
