Coordinates from ORCA-job NH2-N2+-scan-d09-169-n800
 OpenBabel09191813403D

  5  3  0  0  0  0  0  0  0  0999 V2000
    1.6552   -9.7868    0.0523 N   0  0  0  0  0  0  0  0  0  0  0  0
    1.8857  -10.8686    0.0590 N   0  0  0  0  0  0  0  0  0  0  0  0
   -0.6278    5.1576    0.0562 N   0  0  0  0  0  0  0  0  0  0  0  0
   -0.6403    5.7907    0.8953 H   0  0  0  0  0  0  0  0  0  0  0  0
   -0.6390    5.7911   -0.7828 H   0  0  0  0  0  0  0  0  0  0  0  0
  1  2  3  0  0  0  0
  3  4  1  0  0  0  0
  5  3  1  0  0  0  0
M  RAD  1   3   2
M  END
