Coordinates from ORCA-job NH2-N2+-scan-d09-169-n800
 OpenBabel09191813403D

  5  3  0  0  0  0  0  0  0  0999 V2000
    1.2034   -6.6473    0.0559 N   0  0  0  0  0  0  0  0  0  0  0  0
    1.3920   -7.7371    0.0559 N   0  0  0  0  0  0  0  0  0  0  0  0
   -0.3062    3.0673    0.0561 N   0  0  0  0  0  0  0  0  0  0  0  0
   -0.3284    3.7006    0.8955 H   0  0  0  0  0  0  0  0  0  0  0  0
   -0.3270    3.7005   -0.7834 H   0  0  0  0  0  0  0  0  0  0  0  0
  1  2  3  0  0  0  0
  3  4  1  0  0  0  0
  5  3  1  0  0  0  0
M  RAD  1   3   2
M  END
