Coordinates from ORCA-job NH2-N2+-scan-d09-169-n800
 OpenBabel09191813403D

  5  3  0  0  0  0  0  0  0  0999 V2000
    0.5035   -1.8838    0.0560 N   0  0  0  0  0  0  0  0  0  0  0  0
    0.6262   -2.9812    0.0559 N   0  0  0  0  0  0  0  0  0  0  0  0
    0.5888    0.2961    0.0563 N   0  0  0  0  0  0  0  0  0  0  0  0
   -0.0430    0.3263    0.8916 H   0  0  0  0  0  0  0  0  0  0  0  0
   -0.0417    0.3265   -0.7799 H   0  0  0  0  0  0  0  0  0  0  0  0
  2  1  3  0  0  0  0
  3  4  1  0  0  0  0
  5  3  1  0  0  0  0
M  RAD  1   3   2
M  END
