Coordinates from ORCA-job NH2-N2+-scan-d09-169-n800
 OpenBabel09191813403D

  5  3  0  0  0  0  0  0  0  0999 V2000
    1.4919   -8.6815    0.0524 N   0  0  0  0  0  0  0  0  0  0  0  0
    1.7156   -9.7647    0.0590 N   0  0  0  0  0  0  0  0  0  0  0  0
   -0.5146    4.4212    0.0561 N   0  0  0  0  0  0  0  0  0  0  0  0
   -0.5301    5.0542    0.8955 H   0  0  0  0  0  0  0  0  0  0  0  0
   -0.5289    5.0547   -0.7829 H   0  0  0  0  0  0  0  0  0  0  0  0
  1  2  3  0  0  0  0
  3  4  1  0  0  0  0
  5  3  1  0  0  0  0
M  RAD  1   3   2
M  END
