Coordinates from ORCA-job NH2-N2+-scan-d09-169-n800
 OpenBabel09191813403D

  5  3  0  0  0  0  0  0  0  0999 V2000
    0.4766   -1.7422    0.0560 N   0  0  0  0  0  0  0  0  0  0  0  0
    0.6184   -2.8369    0.0560 N   0  0  0  0  0  0  0  0  0  0  0  0
    0.5926    0.1555    0.0563 N   0  0  0  0  0  0  0  0  0  0  0  0
   -0.0276    0.2536    0.8903 H   0  0  0  0  0  0  0  0  0  0  0  0
   -0.0263    0.2538   -0.7785 H   0  0  0  0  0  0  0  0  0  0  0  0
  2  1  3  0  0  0  0
  3  4  1  0  0  0  0
  5  3  1  0  0  0  0
M  RAD  1   3   2
M  END
