Coordinates from ORCA-job NH2-N2+-scan-d09-169-n800
 OpenBabel09191813403D

  5  3  0  0  0  0  0  0  0  0999 V2000
    1.1767   -6.4448    0.0559 N   0  0  0  0  0  0  0  0  0  0  0  0
    1.3580   -7.5359    0.0559 N   0  0  0  0  0  0  0  0  0  0  0  0
   -0.2840    2.9328    0.0561 N   0  0  0  0  0  0  0  0  0  0  0  0
   -0.3091    3.5660    0.8956 H   0  0  0  0  0  0  0  0  0  0  0  0
   -0.3077    3.5659   -0.7835 H   0  0  0  0  0  0  0  0  0  0  0  0
  1  2  3  0  0  0  0
  3  4  1  0  0  0  0
  5  3  1  0  0  0  0
M  RAD  1   3   2
M  END
