Coordinates from ORCA-job NH2-N2+-scan-d09-169-n800
 OpenBabel09191813403D

  5  3  0  0  0  0  0  0  0  0999 V2000
    0.6399   -3.0775    0.0559 N   0  0  0  0  0  0  0  0  0  0  0  0
    0.8181   -4.1685    0.0559 N   0  0  0  0  0  0  0  0  0  0  0  0
    0.4776    1.0633    0.0563 N   0  0  0  0  0  0  0  0  0  0  0  0
   -0.1515    1.1330    0.8992 H   0  0  0  0  0  0  0  0  0  0  0  0
   -0.1503    1.1336   -0.7874 H   0  0  0  0  0  0  0  0  0  0  0  0
  1  2  3  0  0  0  0
  3  4  1  0  0  0  0
  5  3  1  0  0  0  0
M  RAD  1   3   2
M  END
