Coordinates from ORCA-job NH2-N2+-scan-d09-169-n800
 OpenBabel09191813403D

  5  3  0  0  0  0  0  0  0  0999 V2000
    1.0397   -5.5295    0.0559 N   0  0  0  0  0  0  0  0  0  0  0  0
    1.2181   -6.6209    0.0559 N   0  0  0  0  0  0  0  0  0  0  0  0
   -0.1976    2.3225    0.0561 N   0  0  0  0  0  0  0  0  0  0  0  0
   -0.2139    2.9559    0.8959 H   0  0  0  0  0  0  0  0  0  0  0  0
   -0.2125    2.9559   -0.7838 H   0  0  0  0  0  0  0  0  0  0  0  0
  2  1  3  0  0  0  0
  3  4  1  0  0  0  0
  5  3  1  0  0  0  0
M  RAD  1   3   2
M  END
