Coordinates from ORCA-job NH2-N2+-scan-d09-169-n800
 OpenBabel09191813403D

  5  3  0  0  0  0  0  0  0  0999 V2000
    1.2018   -6.6355    0.0559 N   0  0  0  0  0  0  0  0  0  0  0  0
    1.3900   -7.7253    0.0559 N   0  0  0  0  0  0  0  0  0  0  0  0
   -0.3037    3.0595    0.0561 N   0  0  0  0  0  0  0  0  0  0  0  0
   -0.3279    3.6927    0.8956 H   0  0  0  0  0  0  0  0  0  0  0  0
   -0.3264    3.6925   -0.7835 H   0  0  0  0  0  0  0  0  0  0  0  0
  1  2  3  0  0  0  0
  3  4  1  0  0  0  0
  5  3  1  0  0  0  0
M  RAD  1   3   2
M  END
