Coordinates from ORCA-job NH2-N2+-scan-d09-169-n800
 OpenBabel09191813403D

  5  3  0  0  0  0  0  0  0  0999 V2000
    0.5585   -2.3424    0.0560 N   0  0  0  0  0  0  0  0  0  0  0  0
    0.6881   -3.4399    0.0559 N   0  0  0  0  0  0  0  0  0  0  0  0
    0.5493    0.6602    0.0564 N   0  0  0  0  0  0  0  0  0  0  0  0
   -0.0817    0.6029    0.8978 H   0  0  0  0  0  0  0  0  0  0  0  0
   -0.0804    0.6031   -0.7861 H   0  0  0  0  0  0  0  0  0  0  0  0
  2  1  3  0  0  0  0
  3  4  1  0  0  0  0
  5  3  1  0  0  0  0
M  RAD  1   3   2
M  END
