Coordinates from ORCA-job NH2-N2+-scan-d09-169-n800
 OpenBabel09191813403D

  5  3  0  0  0  0  0  0  0  0999 V2000
    1.3270   -7.5400    0.0534 N   0  0  0  0  0  0  0  0  0  0  0  0
    1.5366   -8.6259    0.0581 N   0  0  0  0  0  0  0  0  0  0  0  0
   -0.3974    3.6611    0.0561 N   0  0  0  0  0  0  0  0  0  0  0  0
   -0.4168    4.2942    0.8955 H   0  0  0  0  0  0  0  0  0  0  0  0
   -0.4156    4.2945   -0.7832 H   0  0  0  0  0  0  0  0  0  0  0  0
  1  2  3  0  0  0  0
  3  4  1  0  0  0  0
  5  3  1  0  0  0  0
M  RAD  1   3   2
M  END
