Coordinates from ORCA-job NH2-N2+-scan-d09-169-n800
 OpenBabel09191813403D

  5  3  0  0  0  0  0  0  0  0999 V2000
    0.5210   -2.0018    0.0560 N   0  0  0  0  0  0  0  0  0  0  0  0
    0.6383   -3.1002    0.0559 N   0  0  0  0  0  0  0  0  0  0  0  0
    0.5801    0.3994    0.0563 N   0  0  0  0  0  0  0  0  0  0  0  0
   -0.0534    0.3931    0.8937 H   0  0  0  0  0  0  0  0  0  0  0  0
   -0.0522    0.3934   -0.7819 H   0  0  0  0  0  0  0  0  0  0  0  0
  2  1  3  0  0  0  0
  3  4  1  0  0  0  0
  5  3  1  0  0  0  0
M  RAD  1   3   2
M  END
