Coordinates from ORCA-job NH2-N2+-scan-d09-169-n800
 OpenBabel09191813403D

  5  3  0  0  0  0  0  0  0  0999 V2000
    1.2267   -6.8383    0.0559 N   0  0  0  0  0  0  0  0  0  0  0  0
    1.4256   -7.9262    0.0559 N   0  0  0  0  0  0  0  0  0  0  0  0
   -0.3247    3.1940    0.0561 N   0  0  0  0  0  0  0  0  0  0  0  0
   -0.3476    3.8273    0.8956 H   0  0  0  0  0  0  0  0  0  0  0  0
   -0.3462    3.8271   -0.7834 H   0  0  0  0  0  0  0  0  0  0  0  0
  1  2  3  0  0  0  0
  3  4  1  0  0  0  0
  5  3  1  0  0  0  0
M  RAD  1   3   2
M  END
