Coordinates from ORCA-job NH2-N2+-scan-d09-169-n800
 OpenBabel09191813403D

  5  4  0  0  0  0  0  0  0  0999 V2000
    0.4584   -1.5381    0.0560 N   0  0  0  0  0  0  0  0  0  0  0  0
    0.6155   -2.6365    0.0560 N   0  0  0  0  0  0  0  0  0  0  0  0
    0.5025   -0.1181    0.0562 N   0  0  0  0  0  0  0  0  0  0  0  0
    0.0280    0.1882    0.9181 H   0  0  0  0  0  0  0  0  0  0  0  0
    0.0293    0.1884   -0.8063 H   0  0  0  0  0  0  0  0  0  0  0  0
  1  3  1  0  0  0  0
  2  1  1  0  0  0  0
  3  4  1  0  0  0  0
  5  3  1  0  0  0  0
M  RAD  2   1   2   2   3
M  END
