Coordinates from ORCA-job NH2-N2+-scan-d09-169-n800
 OpenBabel09191813403D

  5  3  0  0  0  0  0  0  0  0999 V2000
    1.3235   -7.5162    0.0534 N   0  0  0  0  0  0  0  0  0  0  0  0
    1.5329   -8.6022    0.0581 N   0  0  0  0  0  0  0  0  0  0  0  0
   -0.3948    3.6453    0.0561 N   0  0  0  0  0  0  0  0  0  0  0  0
   -0.4145    4.2784    0.8955 H   0  0  0  0  0  0  0  0  0  0  0  0
   -0.4133    4.2786   -0.7832 H   0  0  0  0  0  0  0  0  0  0  0  0
  1  2  3  0  0  0  0
  3  4  1  0  0  0  0
  5  3  1  0  0  0  0
M  RAD  1   3   2
M  END
