Coordinates from ORCA-job NH2-N2+-scan-d09-169-n800
 OpenBabel09191813403D

  5  3  0  0  0  0  0  0  0  0999 V2000
    0.8949   -4.6177    0.0559 N   0  0  0  0  0  0  0  0  0  0  0  0
    1.0829   -5.7075    0.0559 N   0  0  0  0  0  0  0  0  0  0  0  0
   -0.0663    1.7166    0.0560 N   0  0  0  0  0  0  0  0  0  0  0  0
   -0.1395    2.3461    0.8964 H   0  0  0  0  0  0  0  0  0  0  0  0
   -0.1382    2.3464   -0.7842 H   0  0  0  0  0  0  0  0  0  0  0  0
  2  1  3  0  0  0  0
  3  4  1  0  0  0  0
  5  3  1  0  0  0  0
M  RAD  1   3   2
M  END
