Coordinates from ORCA-job NH2-N2+-scan-d09-169-n800
 OpenBabel09191813403D

  5  3  0  0  0  0  0  0  0  0999 V2000
    0.8585   -4.3925    0.0560 N   0  0  0  0  0  0  0  0  0  0  0  0
    1.0499   -5.4817    0.0559 N   0  0  0  0  0  0  0  0  0  0  0  0
   -0.0329    1.5676    0.0560 N   0  0  0  0  0  0  0  0  0  0  0  0
   -0.1215    2.1951    0.8965 H   0  0  0  0  0  0  0  0  0  0  0  0
   -0.1202    2.1954   -0.7844 H   0  0  0  0  0  0  0  0  0  0  0  0
  2  1  3  0  0  0  0
  3  4  1  0  0  0  0
  5  3  1  0  0  0  0
M  RAD  1   3   2
M  END
