Coordinates from ORCA-job NH2-N2+-scan-d09-169-n800
 OpenBabel09191813403D

  5  3  0  0  0  0  0  0  0  0999 V2000
    0.6447   -3.1226    0.0560 N   0  0  0  0  0  0  0  0  0  0  0  0
    0.8275   -4.2128    0.0560 N   0  0  0  0  0  0  0  0  0  0  0  0
    0.4713    1.0779    0.0563 N   0  0  0  0  0  0  0  0  0  0  0  0
   -0.1555    1.1704    0.8987 H   0  0  0  0  0  0  0  0  0  0  0  0
   -0.1542    1.1711   -0.7869 H   0  0  0  0  0  0  0  0  0  0  0  0
  1  2  3  0  0  0  0
  3  4  1  0  0  0  0
  5  3  1  0  0  0  0
M  RAD  1   3   2
M  END
