Coordinates from ORCA-job NH2-N2+-scan-d09-169-n800
 OpenBabel09191813403D

  5  3  0  0  0  0  0  0  0  0999 V2000
    1.1941   -6.5759    0.0559 N   0  0  0  0  0  0  0  0  0  0  0  0
    1.3799   -7.6661    0.0559 N   0  0  0  0  0  0  0  0  0  0  0  0
   -0.2976    3.0199    0.0561 N   0  0  0  0  0  0  0  0  0  0  0  0
   -0.3220    3.6531    0.8956 H   0  0  0  0  0  0  0  0  0  0  0  0
   -0.3205    3.6530   -0.7835 H   0  0  0  0  0  0  0  0  0  0  0  0
  1  2  3  0  0  0  0
  3  4  1  0  0  0  0
  5  3  1  0  0  0  0
M  RAD  1   3   2
M  END
