Coordinates from ORCA-job NH2-N2+-scan-d09-169-n800
 OpenBabel09191813403D

  5  3  0  0  0  0  0  0  0  0999 V2000
    0.8547   -4.3688    0.0560 N   0  0  0  0  0  0  0  0  0  0  0  0
    1.0465   -5.4579    0.0559 N   0  0  0  0  0  0  0  0  0  0  0  0
   -0.0295    1.5519    0.0560 N   0  0  0  0  0  0  0  0  0  0  0  0
   -0.1196    2.1791    0.8965 H   0  0  0  0  0  0  0  0  0  0  0  0
   -0.1183    2.1796   -0.7844 H   0  0  0  0  0  0  0  0  0  0  0  0
  2  1  3  0  0  0  0
  3  4  1  0  0  0  0
  5  3  1  0  0  0  0
M  RAD  1   3   2
M  END
