Coordinates from ORCA-job NH2-N2+-scan-d09-169-n800
 OpenBabel09191813403D

  5  3  0  0  0  0  0  0  0  0999 V2000
    1.5830   -9.2996    0.0522 N   0  0  0  0  0  0  0  0  0  0  0  0
    1.8109  -10.3819    0.0591 N   0  0  0  0  0  0  0  0  0  0  0  0
   -0.5782    4.8329    0.0561 N   0  0  0  0  0  0  0  0  0  0  0  0
   -0.5915    5.4660    0.8954 H   0  0  0  0  0  0  0  0  0  0  0  0
   -0.5903    5.4664   -0.7828 H   0  0  0  0  0  0  0  0  0  0  0  0
  1  2  3  0  0  0  0
  3  4  1  0  0  0  0
  5  3  1  0  0  0  0
M  RAD  1   3   2
M  END
