Coordinates from ORCA-job NH2-N2+-scan-d09-169-n800
 OpenBabel09191813403D

  5  3  0  0  0  0  0  0  0  0999 V2000
    1.6808   -9.9653    0.0522 N   0  0  0  0  0  0  0  0  0  0  0  0
    1.9138  -11.0465    0.0590 N   0  0  0  0  0  0  0  0  0  0  0  0
   -0.6457    5.2764    0.0562 N   0  0  0  0  0  0  0  0  0  0  0  0
   -0.6581    5.9095    0.8953 H   0  0  0  0  0  0  0  0  0  0  0  0
   -0.6569    5.9098   -0.7828 H   0  0  0  0  0  0  0  0  0  0  0  0
  1  2  3  0  0  0  0
  3  4  1  0  0  0  0
  5  3  1  0  0  0  0
M  RAD  1   3   2
M  END
