Coordinates from ORCA-job NH2-N2+-scan-d09-169-n800
 OpenBabel09191813403D

  5  4  0  0  0  0  0  0  0  0999 V2000
    0.4535   -1.4787    0.0560 N   0  0  0  0  0  0  0  0  0  0  0  0
    0.6530   -2.5809    0.0560 N   0  0  0  0  0  0  0  0  0  0  0  0
    0.2360   -0.2778    0.0560 N   0  0  0  0  0  0  0  0  0  0  0  0
    0.1449    0.2105    0.9511 H   0  0  0  0  0  0  0  0  0  0  0  0
    0.1465    0.2108   -0.8392 H   0  0  0  0  0  0  0  0  0  0  0  0
  1  2  1  0  0  0  0
  3  1  1  0  0  0  0
  3  4  1  0  0  0  0
  5  3  1  0  0  0  0
M  RAD  2   1   2   2   3
M  END
