Coordinates from ORCA-job NH2-N2+-scan-d09-169-n800
 OpenBabel09191813403D

  5  3  0  0  0  0  0  0  0  0999 V2000
    0.8508   -4.3451    0.0560 N   0  0  0  0  0  0  0  0  0  0  0  0
    1.0431   -5.4341    0.0559 N   0  0  0  0  0  0  0  0  0  0  0  0
   -0.0261    1.5362    0.0560 N   0  0  0  0  0  0  0  0  0  0  0  0
   -0.1177    2.1632    0.8965 H   0  0  0  0  0  0  0  0  0  0  0  0
   -0.1163    2.1637   -0.7844 H   0  0  0  0  0  0  0  0  0  0  0  0
  2  1  3  0  0  0  0
  3  4  1  0  0  0  0
  5  3  1  0  0  0  0
M  RAD  1   3   2
M  END
