Coordinates from ORCA-job NH2-N2+-scan-d09-169-n800
 OpenBabel09191813403D

  5  4  0  0  0  0  0  0  0  0999 V2000
    0.4402   -1.4059    0.0560 N   0  0  0  0  0  0  0  0  0  0  0  0
    0.6419   -2.5189    0.0560 N   0  0  0  0  0  0  0  0  0  0  0  0
    0.2508   -0.3628    0.0560 N   0  0  0  0  0  0  0  0  0  0  0  0
    0.1497    0.1856    0.9267 H   0  0  0  0  0  0  0  0  0  0  0  0
    0.1513    0.1858   -0.8147 H   0  0  0  0  0  0  0  0  0  0  0  0
  1  2  1  0  0  0  0
  3  1  1  0  0  0  0
  3  4  1  0  0  0  0
  5  3  1  0  0  0  0
M  RAD  2   1   2   2   3
M  END
