Coordinates from ORCA-job NH2-N2+-scan-d09-169-n800
 OpenBabel09191813403D

  5  3  0  0  0  0  0  0  0  0999 V2000
    0.7396   -3.7864    0.0559 N   0  0  0  0  0  0  0  0  0  0  0  0
    0.9670   -4.8684    0.0559 N   0  0  0  0  0  0  0  0  0  0  0  0
    0.1755    1.2070    0.0562 N   0  0  0  0  0  0  0  0  0  0  0  0
   -0.1248    1.7659    0.8967 H   0  0  0  0  0  0  0  0  0  0  0  0
   -0.1235    1.7658   -0.7848 H   0  0  0  0  0  0  0  0  0  0  0  0
  2  1  3  0  0  0  0
  3  4  1  0  0  0  0
  5  3  1  0  0  0  0
M  RAD  1   3   2
M  END
