Coordinates from ORCA-job NH2-N2+-scan-d09-169-n800
 OpenBabel09191813403D

  5  3  0  0  0  0  0  0  0  0999 V2000
    0.6686   -3.3973    0.0560 N   0  0  0  0  0  0  0  0  0  0  0  0
    0.9031   -4.4778    0.0560 N   0  0  0  0  0  0  0  0  0  0  0  0
    0.3507    1.0558    0.0561 N   0  0  0  0  0  0  0  0  0  0  0  0
   -0.1449    1.4511    0.8975 H   0  0  0  0  0  0  0  0  0  0  0  0
   -0.1437    1.4521   -0.7856 H   0  0  0  0  0  0  0  0  0  0  0  0
  2  1  3  0  0  0  0
  3  4  1  0  0  0  0
  5  3  1  0  0  0  0
M  RAD  1   3   2
M  END
