Coordinates from ORCA-job NH2-N2+-scan-d09-169-n800
 OpenBabel09191813403D

  5  3  0  0  0  0  0  0  0  0999 V2000
    1.5393   -9.0024    0.0523 N   0  0  0  0  0  0  0  0  0  0  0  0
    1.7650  -10.0852    0.0590 N   0  0  0  0  0  0  0  0  0  0  0  0
   -0.5476    4.6350    0.0561 N   0  0  0  0  0  0  0  0  0  0  0  0
   -0.5620    5.2680    0.8954 H   0  0  0  0  0  0  0  0  0  0  0  0
   -0.5609    5.2685   -0.7829 H   0  0  0  0  0  0  0  0  0  0  0  0
  1  2  3  0  0  0  0
  3  4  1  0  0  0  0
  5  3  1  0  0  0  0
M  RAD  1   3   2
M  END
