Coordinates from ORCA-job NH2-N2+-scan-d09-169-n800
 OpenBabel09191813403D

  5  4  0  0  0  0  0  0  0  0999 V2000
    0.4643   -1.5074    0.0560 N   0  0  0  0  0  0  0  0  0  0  0  0
    0.6223   -2.6101    0.0560 N   0  0  0  0  0  0  0  0  0  0  0  0
    0.4204   -0.1876    0.0561 N   0  0  0  0  0  0  0  0  0  0  0  0
    0.0628    0.1944    0.9385 H   0  0  0  0  0  0  0  0  0  0  0  0
    0.0641    0.1947   -0.8267 H   0  0  0  0  0  0  0  0  0  0  0  0
  1  2  1  0  0  0  0
  1  3  1  0  0  0  0
  3  4  1  0  0  0  0
  5  3  1  0  0  0  0
M  RAD  2   1   2   2   3
M  END
