Coordinates from ORCA-job NH2-N2+-scan-d09-169-n800
 OpenBabel09191813403D

  5  3  0  0  0  0  0  0  0  0999 V2000
    1.0862   -5.8254    0.0559 N   0  0  0  0  0  0  0  0  0  0  0  0
    1.2622   -6.9173    0.0559 N   0  0  0  0  0  0  0  0  0  0  0  0
   -0.2371    2.5198    0.0561 N   0  0  0  0  0  0  0  0  0  0  0  0
   -0.2395    3.1534    0.8958 H   0  0  0  0  0  0  0  0  0  0  0  0
   -0.2380    3.1534   -0.7837 H   0  0  0  0  0  0  0  0  0  0  0  0
  2  1  3  0  0  0  0
  3  4  1  0  0  0  0
  5  3  1  0  0  0  0
M  RAD  1   3   2
M  END
