Coordinates from ORCA-job NH2-N2+-scan-d09-169-n800
 OpenBabel09191813403D

  5  3  0  0  0  0  0  0  0  0999 V2000
    1.0490   -5.5886    0.0559 N   0  0  0  0  0  0  0  0  0  0  0  0
    1.2269   -6.6802    0.0559 N   0  0  0  0  0  0  0  0  0  0  0  0
   -0.2056    2.3619    0.0561 N   0  0  0  0  0  0  0  0  0  0  0  0
   -0.2189    2.9954    0.8959 H   0  0  0  0  0  0  0  0  0  0  0  0
   -0.2175    2.9954   -0.7838 H   0  0  0  0  0  0  0  0  0  0  0  0
  2  1  3  0  0  0  0
  3  4  1  0  0  0  0
  5  3  1  0  0  0  0
M  RAD  1   3   2
M  END
