Coordinates from ORCA-job NH2-N2+-scan-d09-169-n800
 OpenBabel09191813403D

  5  3  0  0  0  0  0  0  0  0999 V2000
    1.4122   -8.1346    0.0526 N   0  0  0  0  0  0  0  0  0  0  0  0
    1.6304   -9.2189    0.0588 N   0  0  0  0  0  0  0  0  0  0  0  0
   -0.4582    4.0570    0.0561 N   0  0  0  0  0  0  0  0  0  0  0  0
   -0.4759    4.6900    0.8955 H   0  0  0  0  0  0  0  0  0  0  0  0
   -0.4747    4.6905   -0.7830 H   0  0  0  0  0  0  0  0  0  0  0  0
  1  2  3  0  0  0  0
  3  4  1  0  0  0  0
  5  3  1  0  0  0  0
M  RAD  1   3   2
M  END
