Coordinates from ORCA-job NH2-N2+-scan-d09-169-n800
 OpenBabel09191813403D

  5  3  0  0  0  0  0  0  0  0999 V2000
    1.4963   -8.7051    0.0525 N   0  0  0  0  0  0  0  0  0  0  0  0
    1.7185   -9.7886    0.0589 N   0  0  0  0  0  0  0  0  0  0  0  0
   -0.5174    4.4370    0.0561 N   0  0  0  0  0  0  0  0  0  0  0  0
   -0.5324    5.0700    0.8954 H   0  0  0  0  0  0  0  0  0  0  0  0
   -0.5312    5.0706   -0.7829 H   0  0  0  0  0  0  0  0  0  0  0  0
  1  2  3  0  0  0  0
  3  4  1  0  0  0  0
  5  3  1  0  0  0  0
M  RAD  1   3   2
M  END
