Coordinates from ORCA-job NH2-N2+-scan-d09-169-n800
 OpenBabel09191813403D

  5  3  0  0  0  0  0  0  0  0999 V2000
    0.6427   -3.1055    0.0560 N   0  0  0  0  0  0  0  0  0  0  0  0
    0.8261   -4.1956    0.0560 N   0  0  0  0  0  0  0  0  0  0  0  0
    0.4705    1.0550    0.0563 N   0  0  0  0  0  0  0  0  0  0  0  0
   -0.1534    1.1647    0.8987 H   0  0  0  0  0  0  0  0  0  0  0  0
   -0.1521    1.1654   -0.7869 H   0  0  0  0  0  0  0  0  0  0  0  0
  1  2  3  0  0  0  0
  3  4  1  0  0  0  0
  5  3  1  0  0  0  0
M  RAD  1   3   2
M  END
