Coordinates from ORCA-job NH2-N2+-scan-d09-169-n800
 OpenBabel09191813403D

  5  3  0  0  0  0  0  0  0  0999 V2000
    0.9573   -5.0086    0.0559 N   0  0  0  0  0  0  0  0  0  0  0  0
    1.1407   -6.0992    0.0559 N   0  0  0  0  0  0  0  0  0  0  0  0
   -0.1243    1.9759    0.0561 N   0  0  0  0  0  0  0  0  0  0  0  0
   -0.1706    2.6078    0.8962 H   0  0  0  0  0  0  0  0  0  0  0  0
   -0.1693    2.6080   -0.7841 H   0  0  0  0  0  0  0  0  0  0  0  0
  2  1  3  0  0  0  0
  3  4  1  0  0  0  0
  5  3  1  0  0  0  0
M  RAD  1   3   2
M  END
