Coordinates from ORCA-job NH2-N2+-scan-d09-169-n800
 OpenBabel09191813403D

  5  3  0  0  0  0  0  0  0  0999 V2000
    0.6703   -3.4074    0.0560 N   0  0  0  0  0  0  0  0  0  0  0  0
    0.9040   -4.4880    0.0560 N   0  0  0  0  0  0  0  0  0  0  0  0
    0.3524    1.0658    0.0561 N   0  0  0  0  0  0  0  0  0  0  0  0
   -0.1471    1.4563    0.8975 H   0  0  0  0  0  0  0  0  0  0  0  0
   -0.1458    1.4572   -0.7856 H   0  0  0  0  0  0  0  0  0  0  0  0
  2  1  3  0  0  0  0
  3  4  1  0  0  0  0
  5  3  1  0  0  0  0
M  RAD  1   3   2
M  END
