Coordinates from ORCA-job NH2-N2+-scan-d09-169-n800
 OpenBabel09191813403D

  5  3  0  0  0  0  0  0  0  0999 V2000
    1.6444   -9.7156    0.0523 N   0  0  0  0  0  0  0  0  0  0  0  0
    1.8749  -10.7973    0.0590 N   0  0  0  0  0  0  0  0  0  0  0  0
   -0.6203    5.1101    0.0561 N   0  0  0  0  0  0  0  0  0  0  0  0
   -0.6332    5.7432    0.8953 H   0  0  0  0  0  0  0  0  0  0  0  0
   -0.6320    5.7436   -0.7828 H   0  0  0  0  0  0  0  0  0  0  0  0
  1  2  3  0  0  0  0
  3  4  1  0  0  0  0
  5  3  1  0  0  0  0
M  RAD  1   3   2
M  END
