Coordinates from ORCA-job NH2-N2+-scan-d09-169-n800
 OpenBabel09191813403D

  5  3  0  0  0  0  0  0  0  0999 V2000
    0.4807   -1.7616    0.0560 N   0  0  0  0  0  0  0  0  0  0  0  0
    0.6190   -2.8568    0.0559 N   0  0  0  0  0  0  0  0  0  0  0  0
    0.5930    0.1764    0.0563 N   0  0  0  0  0  0  0  0  0  0  0  0
   -0.0301    0.2629    0.8902 H   0  0  0  0  0  0  0  0  0  0  0  0
   -0.0288    0.2631   -0.7785 H   0  0  0  0  0  0  0  0  0  0  0  0
  2  1  3  0  0  0  0
  3  4  1  0  0  0  0
  5  3  1  0  0  0  0
M  RAD  1   3   2
M  END
