Coordinates from ORCA-job NH2-N2+-scan-d09-169-n800
 OpenBabel09191813403D

  5  3  0  0  0  0  0  0  0  0999 V2000
    0.5709   -2.4717    0.0560 N   0  0  0  0  0  0  0  0  0  0  0  0
    0.7095   -3.5681    0.0559 N   0  0  0  0  0  0  0  0  0  0  0  0
    0.5375    0.7511    0.0564 N   0  0  0  0  0  0  0  0  0  0  0  0
   -0.0927    0.6862    0.8986 H   0  0  0  0  0  0  0  0  0  0  0  0
   -0.0914    0.6863   -0.7869 H   0  0  0  0  0  0  0  0  0  0  0  0
  2  1  3  0  0  0  0
  3  4  1  0  0  0  0
  5  3  1  0  0  0  0
M  RAD  1   3   2
M  END
