Coordinates from ORCA-job NH2-N2+-scan-d09-169-n800
 OpenBabel09191813403D

  5  3  0  0  0  0  0  0  0  0999 V2000
    0.6036   -2.7735    0.0559 N   0  0  0  0  0  0  0  0  0  0  0  0
    0.7619   -3.8674    0.0559 N   0  0  0  0  0  0  0  0  0  0  0  0
    0.5106    0.9288    0.0564 N   0  0  0  0  0  0  0  0  0  0  0  0
   -0.1218    0.8980    0.8994 H   0  0  0  0  0  0  0  0  0  0  0  0
   -0.1205    0.8980   -0.7876 H   0  0  0  0  0  0  0  0  0  0  0  0
  2  1  3  0  0  0  0
  3  4  1  0  0  0  0
  5  3  1  0  0  0  0
M  RAD  1   3   2
M  END
