Coordinates from ORCA-job NH2-N2+-scan-d09-169-n800
 OpenBabel09191813403D

  5  3  0  0  0  0  0  0  0  0999 V2000
    1.7391  -10.3574    0.0523 N   0  0  0  0  0  0  0  0  0  0  0  0
    1.9738  -11.4382    0.0589 N   0  0  0  0  0  0  0  0  0  0  0  0
   -0.6862    5.5376    0.0562 N   0  0  0  0  0  0  0  0  0  0  0  0
   -0.6971    6.1708    0.8953 H   0  0  0  0  0  0  0  0  0  0  0  0
   -0.6958    6.1710   -0.7827 H   0  0  0  0  0  0  0  0  0  0  0  0
  1  2  3  0  0  0  0
  3  4  1  0  0  0  0
  5  3  1  0  0  0  0
M  RAD  1   3   2
M  END
