Coordinates from ORCA-job NH2-N2+-scan-d09-169-n800
 OpenBabel09191813403D

  5  4  0  0  0  0  0  0  0  0999 V2000
    0.4385   -1.3968    0.0560 N   0  0  0  0  0  0  0  0  0  0  0  0
    0.6406   -2.5116    0.0560 N   0  0  0  0  0  0  0  0  0  0  0  0
    0.2527   -0.3734    0.0560 N   0  0  0  0  0  0  0  0  0  0  0  0
    0.1502    0.1827    0.9239 H   0  0  0  0  0  0  0  0  0  0  0  0
    0.1518    0.1830   -0.8119 H   0  0  0  0  0  0  0  0  0  0  0  0
  1  2  1  0  0  0  0
  3  1  1  0  0  0  0
  3  4  1  0  0  0  0
  5  3  1  0  0  0  0
M  RAD  2   1   2   2   3
M  END
