Coordinates from ORCA-job NH2-N2+-scan-d09-169-n800
 OpenBabel09191813403D

  5  3  0  0  0  0  0  0  0  0999 V2000
    1.4020   -8.0633    0.0527 N   0  0  0  0  0  0  0  0  0  0  0  0
    1.6192   -9.1478    0.0587 N   0  0  0  0  0  0  0  0  0  0  0  0
   -0.4511    4.0095    0.0561 N   0  0  0  0  0  0  0  0  0  0  0  0
   -0.4687    4.6425    0.8955 H   0  0  0  0  0  0  0  0  0  0  0  0
   -0.4676    4.6430   -0.7830 H   0  0  0  0  0  0  0  0  0  0  0  0
  1  2  3  0  0  0  0
  3  4  1  0  0  0  0
  5  3  1  0  0  0  0
M  RAD  1   3   2
M  END
