Coordinates from ORCA-job NH2-N2+-scan-d09-169-n800
 OpenBabel09191813403D

  5  3  0  0  0  0  0  0  0  0999 V2000
    1.4088   -8.1109    0.0526 N   0  0  0  0  0  0  0  0  0  0  0  0
    1.6267   -9.1952    0.0588 N   0  0  0  0  0  0  0  0  0  0  0  0
   -0.4559    4.0412    0.0561 N   0  0  0  0  0  0  0  0  0  0  0  0
   -0.4735    4.6741    0.8955 H   0  0  0  0  0  0  0  0  0  0  0  0
   -0.4723    4.6747   -0.7830 H   0  0  0  0  0  0  0  0  0  0  0  0
  1  2  3  0  0  0  0
  3  4  1  0  0  0  0
  5  3  1  0  0  0  0
M  RAD  1   3   2
M  END
