Coordinates from ORCA-job NH2-N2+-scan-d09-169-n800
 OpenBabel09191813403D

  5  4  0  0  0  0  0  0  0  0999 V2000
    0.4574   -1.6408    0.0560 N   0  0  0  0  0  0  0  0  0  0  0  0
    0.6173   -2.7337    0.0560 N   0  0  0  0  0  0  0  0  0  0  0  0
    0.5788    0.0358    0.0563 N   0  0  0  0  0  0  0  0  0  0  0  0
   -0.0105    0.2112    0.8942 H   0  0  0  0  0  0  0  0  0  0  0  0
   -0.0093    0.2114   -0.7824 H   0  0  0  0  0  0  0  0  0  0  0  0
  1  3  1  0  0  0  0
  2  1  1  0  0  0  0
  3  4  1  0  0  0  0
  5  3  1  0  0  0  0
M  RAD  2   1   2   2   3
M  END
