Coordinates from ORCA-job NH2-N2+-scan-d09-169-n800
 OpenBabel09191813403D

  5  3  0  0  0  0  0  0  0  0999 V2000
    0.6627   -3.3057    0.0560 N   0  0  0  0  0  0  0  0  0  0  0  0
    0.8675   -4.3920    0.0561 N   0  0  0  0  0  0  0  0  0  0  0  0
    0.4372    1.1330    0.0562 N   0  0  0  0  0  0  0  0  0  0  0  0
   -0.1674    1.3235    0.8980 H   0  0  0  0  0  0  0  0  0  0  0  0
   -0.1662    1.3250   -0.7862 H   0  0  0  0  0  0  0  0  0  0  0  0
  1  2  3  0  0  0  0
  3  4  1  0  0  0  0
  5  3  1  0  0  0  0
M  RAD  1   3   2
M  END
