Coordinates from ORCA-job NH2-N2+-scan-d09-169-n800
 OpenBabel09191813403D

  5  3  0  0  0  0  0  0  0  0999 V2000
    1.6057   -9.4541    0.0523 N   0  0  0  0  0  0  0  0  0  0  0  0
    1.8348  -10.5361    0.0591 N   0  0  0  0  0  0  0  0  0  0  0  0
   -0.5940    4.9358    0.0561 N   0  0  0  0  0  0  0  0  0  0  0  0
   -0.6070    5.5689    0.8954 H   0  0  0  0  0  0  0  0  0  0  0  0
   -0.6058    5.5694   -0.7828 H   0  0  0  0  0  0  0  0  0  0  0  0
  1  2  3  0  0  0  0
  3  4  1  0  0  0  0
  5  3  1  0  0  0  0
M  RAD  1   3   2
M  END
