Coordinates from ORCA-job NH2-N2+-scan-d09-169-n800
 OpenBabel09191813403D

  5  3  0  0  0  0  0  0  0  0999 V2000
    1.7074  -10.1435    0.0523 N   0  0  0  0  0  0  0  0  0  0  0  0
    1.9410  -11.2246    0.0589 N   0  0  0  0  0  0  0  0  0  0  0  0
   -0.6639    5.3951    0.0562 N   0  0  0  0  0  0  0  0  0  0  0  0
   -0.6759    6.0283    0.8953 H   0  0  0  0  0  0  0  0  0  0  0  0
   -0.6747    6.0286   -0.7828 H   0  0  0  0  0  0  0  0  0  0  0  0
  1  2  3  0  0  0  0
  3  4  1  0  0  0  0
  5  3  1  0  0  0  0
M  RAD  1   3   2
M  END
