Coordinates from ORCA-job NH2-N2+-scan-d09-169-n800
 OpenBabel09191813403D

  5  3  0  0  0  0  0  0  0  0999 V2000
    1.8032  -10.7852    0.0525 N   0  0  0  0  0  0  0  0  0  0  0  0
    2.0388  -11.8658    0.0587 N   0  0  0  0  0  0  0  0  0  0  0  0
   -0.7292    5.8228    0.0563 N   0  0  0  0  0  0  0  0  0  0  0  0
   -0.7402    6.4560    0.8952 H   0  0  0  0  0  0  0  0  0  0  0  0
   -0.7388    6.4561   -0.7827 H   0  0  0  0  0  0  0  0  0  0  0  0
  1  2  3  0  0  0  0
  3  4  1  0  0  0  0
  5  3  1  0  0  0  0
M  RAD  1   3   2
M  END
