Coordinates from ORCA-job NH2-N2+-scan-d09-169-n800
 OpenBabel09191813403D

  5  3  0  0  0  0  0  0  0  0999 V2000
    1.1416   -6.1806    0.0559 N   0  0  0  0  0  0  0  0  0  0  0  0
    1.3153   -7.2728    0.0559 N   0  0  0  0  0  0  0  0  0  0  0  0
   -0.2829    2.7568    0.0561 N   0  0  0  0  0  0  0  0  0  0  0  0
   -0.2708    3.3903    0.8957 H   0  0  0  0  0  0  0  0  0  0  0  0
   -0.2694    3.3902   -0.7836 H   0  0  0  0  0  0  0  0  0  0  0  0
  2  1  3  0  0  0  0
  3  4  1  0  0  0  0
  5  3  1  0  0  0  0
M  RAD  1   3   2
M  END
