Coordinates from ORCA-job NH2-N2+-scan-d09-169-n800
 OpenBabel09191813403D

  5  3  0  0  0  0  0  0  0  0999 V2000
    1.0843   -5.8136    0.0559 N   0  0  0  0  0  0  0  0  0  0  0  0
    1.2604   -6.9054    0.0559 N   0  0  0  0  0  0  0  0  0  0  0  0
   -0.2355    2.5119    0.0561 N   0  0  0  0  0  0  0  0  0  0  0  0
   -0.2384    3.1455    0.8958 H   0  0  0  0  0  0  0  0  0  0  0  0
   -0.2370    3.1455   -0.7837 H   0  0  0  0  0  0  0  0  0  0  0  0
  2  1  3  0  0  0  0
  3  4  1  0  0  0  0
  5  3  1  0  0  0  0
M  RAD  1   3   2
M  END
