Coordinates from ORCA-job NH2-N2+-scan-d09-169-n800
 OpenBabel09191813403D

  5  3  0  0  0  0  0  0  0  0999 V2000
    1.4235   -8.2058    0.0527 N   0  0  0  0  0  0  0  0  0  0  0  0
    1.6408   -9.2903    0.0588 N   0  0  0  0  0  0  0  0  0  0  0  0
   -0.4658    4.1045    0.0561 N   0  0  0  0  0  0  0  0  0  0  0  0
   -0.4829    4.7375    0.8955 H   0  0  0  0  0  0  0  0  0  0  0  0
   -0.4818    4.7380   -0.7830 H   0  0  0  0  0  0  0  0  0  0  0  0
  1  2  3  0  0  0  0
  3  4  1  0  0  0  0
  5  3  1  0  0  0  0
M  RAD  1   3   2
M  END
