Coordinates from ORCA-job NH2-N2+-scan-d09-169-n800
 OpenBabel09191813403D

  5  3  0  0  0  0  0  0  0  0999 V2000
    0.5892   -2.6474    0.0559 N   0  0  0  0  0  0  0  0  0  0  0  0
    0.7404   -3.7422    0.0559 N   0  0  0  0  0  0  0  0  0  0  0  0
    0.5220    0.8553    0.0564 N   0  0  0  0  0  0  0  0  0  0  0  0
   -0.1096    0.8091    0.8993 H   0  0  0  0  0  0  0  0  0  0  0  0
   -0.1083    0.8091   -0.7875 H   0  0  0  0  0  0  0  0  0  0  0  0
  2  1  3  0  0  0  0
  3  4  1  0  0  0  0
  5  3  1  0  0  0  0
M  RAD  1   3   2
M  END
