Coordinates from ORCA-job NH2-N2+-scan-d09-169-n800
 OpenBabel09191813403D

  5  3  0  0  0  0  0  0  0  0999 V2000
    1.2152   -6.7428    0.0559 N   0  0  0  0  0  0  0  0  0  0  0  0
    1.4086   -7.8317    0.0559 N   0  0  0  0  0  0  0  0  0  0  0  0
   -0.3150    3.1307    0.0561 N   0  0  0  0  0  0  0  0  0  0  0  0
   -0.3382    3.7639    0.8956 H   0  0  0  0  0  0  0  0  0  0  0  0
   -0.3368    3.7638   -0.7834 H   0  0  0  0  0  0  0  0  0  0  0  0
  1  2  3  0  0  0  0
  3  4  1  0  0  0  0
  5  3  1  0  0  0  0
M  RAD  1   3   2
M  END
