Coordinates from ORCA-job NH2-N2+-scan-d09-169-n800
 OpenBabel09191813403D

  5  3  0  0  0  0  0  0  0  0999 V2000
    0.9930   -5.2335    0.0559 N   0  0  0  0  0  0  0  0  0  0  0  0
    1.1741   -6.3245    0.0559 N   0  0  0  0  0  0  0  0  0  0  0  0
   -0.1566    2.1254    0.0561 N   0  0  0  0  0  0  0  0  0  0  0  0
   -0.1890    2.7582    0.8961 H   0  0  0  0  0  0  0  0  0  0  0  0
   -0.1876    2.7583   -0.7839 H   0  0  0  0  0  0  0  0  0  0  0  0
  2  1  3  0  0  0  0
  3  4  1  0  0  0  0
  5  3  1  0  0  0  0
M  RAD  1   3   2
M  END
