Coordinates from ORCA-job NH2-N2+-scan-d09-169-n800
 OpenBabel09191813403D

  5  3  0  0  0  0  0  0  0  0999 V2000
    1.2517   -7.0411    0.0558 N   0  0  0  0  0  0  0  0  0  0  0  0
    1.4611   -8.1271    0.0559 N   0  0  0  0  0  0  0  0  0  0  0  0
   -0.3458    3.3286    0.0561 N   0  0  0  0  0  0  0  0  0  0  0  0
   -0.3673    3.9618    0.8955 H   0  0  0  0  0  0  0  0  0  0  0  0
   -0.3659    3.9617   -0.7834 H   0  0  0  0  0  0  0  0  0  0  0  0
  1  2  3  0  0  0  0
  3  4  1  0  0  0  0
  5  3  1  0  0  0  0
M  RAD  1   3   2
M  END
