Coordinates from ORCA-job NH2-N2+-scan-d09-169-n800
 OpenBabel09191813403D

  5  3  0  0  0  0  0  0  0  0999 V2000
    0.5291   -2.0679    0.0560 N   0  0  0  0  0  0  0  0  0  0  0  0
    0.6469   -3.1664    0.0559 N   0  0  0  0  0  0  0  0  0  0  0  0
    0.5744    0.4537    0.0564 N   0  0  0  0  0  0  0  0  0  0  0  0
   -0.0589    0.4321    0.8947 H   0  0  0  0  0  0  0  0  0  0  0  0
   -0.0576    0.4324   -0.7830 H   0  0  0  0  0  0  0  0  0  0  0  0
  2  1  3  0  0  0  0
  3  4  1  0  0  0  0
  5  3  1  0  0  0  0
M  RAD  1   3   2
M  END
