Coordinates from ORCA-job NH2-N2+-scan-d09-169-n800
 OpenBabel09191813403D

  5  3  0  0  0  0  0  0  0  0999 V2000
    1.2632   -7.1244    0.0558 N   0  0  0  0  0  0  0  0  0  0  0  0
    1.4746   -8.2100    0.0559 N   0  0  0  0  0  0  0  0  0  0  0  0
   -0.3544    3.3840    0.0561 N   0  0  0  0  0  0  0  0  0  0  0  0
   -0.3756    4.0172    0.8955 H   0  0  0  0  0  0  0  0  0  0  0  0
   -0.3741    4.0171   -0.7834 H   0  0  0  0  0  0  0  0  0  0  0  0
  1  2  3  0  0  0  0
  3  4  1  0  0  0  0
  5  3  1  0  0  0  0
M  RAD  1   3   2
M  END
