Coordinates from ORCA-job NH2-N2+-scan-d09-169-n800
 OpenBabel09191813403D

  5  3  0  0  0  0  0  0  0  0999 V2000
    1.3059   -7.3973    0.0538 N   0  0  0  0  0  0  0  0  0  0  0  0
    1.5147   -8.4835    0.0578 N   0  0  0  0  0  0  0  0  0  0  0  0
   -0.3827    3.5661    0.0561 N   0  0  0  0  0  0  0  0  0  0  0  0
   -0.4027    4.1992    0.8955 H   0  0  0  0  0  0  0  0  0  0  0  0
   -0.4014    4.1994   -0.7832 H   0  0  0  0  0  0  0  0  0  0  0  0
  1  2  3  0  0  0  0
  3  4  1  0  0  0  0
  5  3  1  0  0  0  0
M  RAD  1   3   2
M  END
