Coordinates from ORCA-job NH2-N2+-scan-d09-169-n800
 OpenBabel09191813403D

  5  3  0  0  0  0  0  0  0  0999 V2000
    1.3642   -7.8016    0.0529 N   0  0  0  0  0  0  0  0  0  0  0  0
    1.5782   -8.8868    0.0586 N   0  0  0  0  0  0  0  0  0  0  0  0
   -0.4244    3.8353    0.0561 N   0  0  0  0  0  0  0  0  0  0  0  0
   -0.4427    4.4683    0.8955 H   0  0  0  0  0  0  0  0  0  0  0  0
   -0.4415    4.4687   -0.7831 H   0  0  0  0  0  0  0  0  0  0  0  0
  1  2  3  0  0  0  0
  3  4  1  0  0  0  0
  5  3  1  0  0  0  0
M  RAD  1   3   2
M  END
