Coordinates from ORCA-job NH2-N2+-scan-d09-169-n800
 OpenBabel09191813403D

  5  3  0  0  0  0  0  0  0  0999 V2000
    1.1956   -6.5878    0.0559 N   0  0  0  0  0  0  0  0  0  0  0  0
    1.3819   -7.6780    0.0559 N   0  0  0  0  0  0  0  0  0  0  0  0
   -0.2988    3.0278    0.0561 N   0  0  0  0  0  0  0  0  0  0  0  0
   -0.3232    3.6610    0.8956 H   0  0  0  0  0  0  0  0  0  0  0  0
   -0.3217    3.6609   -0.7835 H   0  0  0  0  0  0  0  0  0  0  0  0
  1  2  3  0  0  0  0
  3  4  1  0  0  0  0
  5  3  1  0  0  0  0
M  RAD  1   3   2
M  END
