Coordinates from ORCA-job NH2-N2+-scan-d09-169-n800
 OpenBabel09191813403D

  5  3  0  0  0  0  0  0  0  0999 V2000
    0.5899   -2.6558    0.0559 N   0  0  0  0  0  0  0  0  0  0  0  0
    0.7411   -3.7506    0.0559 N   0  0  0  0  0  0  0  0  0  0  0  0
    0.5211    0.8668    0.0564 N   0  0  0  0  0  0  0  0  0  0  0  0
   -0.1098    0.8117    0.8993 H   0  0  0  0  0  0  0  0  0  0  0  0
   -0.1085    0.8118   -0.7875 H   0  0  0  0  0  0  0  0  0  0  0  0
  2  1  3  0  0  0  0
  3  4  1  0  0  0  0
  5  3  1  0  0  0  0
M  RAD  1   3   2
M  END
