Coordinates from ORCA-job NH2-N2+-scan-d09-169-n800
 OpenBabel09191813403D

  5  3  0  0  0  0  0  0  0  0999 V2000
    1.6175   -9.5374    0.0522 N   0  0  0  0  0  0  0  0  0  0  0  0
    1.8480  -10.6192    0.0591 N   0  0  0  0  0  0  0  0  0  0  0  0
   -0.6022    4.9913    0.0561 N   0  0  0  0  0  0  0  0  0  0  0  0
   -0.6154    5.6244    0.8954 H   0  0  0  0  0  0  0  0  0  0  0  0
   -0.6141    5.6248   -0.7828 H   0  0  0  0  0  0  0  0  0  0  0  0
  1  2  3  0  0  0  0
  3  4  1  0  0  0  0
  5  3  1  0  0  0  0
M  RAD  1   3   2
M  END
