Coordinates from ORCA-job NH2-N2+-scan-d09-169-n800
 OpenBabel09191813403D

  5  3  0  0  0  0  0  0  0  0999 V2000
    1.2281   -6.8502    0.0559 N   0  0  0  0  0  0  0  0  0  0  0  0
    1.4278   -7.9381    0.0559 N   0  0  0  0  0  0  0  0  0  0  0  0
   -0.3258    3.2020    0.0561 N   0  0  0  0  0  0  0  0  0  0  0  0
   -0.3488    3.8352    0.8956 H   0  0  0  0  0  0  0  0  0  0  0  0
   -0.3474    3.8350   -0.7834 H   0  0  0  0  0  0  0  0  0  0  0  0
  1  2  3  0  0  0  0
  3  4  1  0  0  0  0
  5  3  1  0  0  0  0
M  RAD  1   3   2
M  END
