Coordinates from ORCA-job NH2-N2+-scan-d09-169-n800
 OpenBabel09191813403D

  5  4  0  0  0  0  0  0  0  0999 V2000
    0.4546   -1.6066    0.0560 N   0  0  0  0  0  0  0  0  0  0  0  0
    0.6163   -2.7001    0.0560 N   0  0  0  0  0  0  0  0  0  0  0  0
    0.5658   -0.0096    0.0563 N   0  0  0  0  0  0  0  0  0  0  0  0
   -0.0021    0.2000    0.8984 H   0  0  0  0  0  0  0  0  0  0  0  0
   -0.0008    0.2002   -0.7866 H   0  0  0  0  0  0  0  0  0  0  0  0
  1  3  1  0  0  0  0
  2  1  1  0  0  0  0
  3  4  1  0  0  0  0
  5  3  1  0  0  0  0
M  RAD  2   1   2   2   3
M  END
