Coordinates from ORCA-job NH2-N2+-scan-d09-169-n800
 OpenBabel09191813403D

  5  3  0  0  0  0  0  0  0  0999 V2000
    0.7179   -3.6710    0.0559 N   0  0  0  0  0  0  0  0  0  0  0  0
    0.9546   -4.7510    0.0559 N   0  0  0  0  0  0  0  0  0  0  0  0
    0.1747    1.1232    0.0563 N   0  0  0  0  0  0  0  0  0  0  0  0
   -0.1074    1.6914    0.8969 H   0  0  0  0  0  0  0  0  0  0  0  0
   -0.1060    1.6913   -0.7850 H   0  0  0  0  0  0  0  0  0  0  0  0
  2  1  3  0  0  0  0
  3  4  1  0  0  0  0
  5  3  1  0  0  0  0
M  RAD  1   3   2
M  END
