Coordinates from ORCA-job NH2-N2+-scan-d09-169-n800
 OpenBabel09191813403D

  5  3  0  0  0  0  0  0  0  0999 V2000
    0.9366   -4.8783    0.0559 N   0  0  0  0  0  0  0  0  0  0  0  0
    1.1214   -5.9687    0.0559 N   0  0  0  0  0  0  0  0  0  0  0  0
   -0.1052    1.8894    0.0560 N   0  0  0  0  0  0  0  0  0  0  0  0
   -0.1602    2.5207    0.8962 H   0  0  0  0  0  0  0  0  0  0  0  0
   -0.1588    2.5208   -0.7841 H   0  0  0  0  0  0  0  0  0  0  0  0
  2  1  3  0  0  0  0
  3  4  1  0  0  0  0
  5  3  1  0  0  0  0
M  RAD  1   3   2
M  END
