Coordinates from ORCA-job NH2-N2+-scan-d09-169-n800
 OpenBabel09191813403D

  5  3  0  0  0  0  0  0  0  0999 V2000
    0.8469   -4.3214    0.0560 N   0  0  0  0  0  0  0  0  0  0  0  0
    1.0397   -5.4103    0.0559 N   0  0  0  0  0  0  0  0  0  0  0  0
   -0.0227    1.5205    0.0560 N   0  0  0  0  0  0  0  0  0  0  0  0
   -0.1157    2.1473    0.8965 H   0  0  0  0  0  0  0  0  0  0  0  0
   -0.1144    2.1478   -0.7844 H   0  0  0  0  0  0  0  0  0  0  0  0
  2  1  3  0  0  0  0
  3  4  1  0  0  0  0
  5  3  1  0  0  0  0
M  RAD  1   3   2
M  END
