Coordinates from ORCA-job NH2-N2+-scan-d09-169-n800
 OpenBabel09191813403D

  5  3  0  0  0  0  0  0  0  0999 V2000
    1.2703   -7.1719    0.0558 N   0  0  0  0  0  0  0  0  0  0  0  0
    1.4820   -8.2574    0.0559 N   0  0  0  0  0  0  0  0  0  0  0  0
   -0.3600    3.4156    0.0561 N   0  0  0  0  0  0  0  0  0  0  0  0
   -0.3799    4.0489    0.8955 H   0  0  0  0  0  0  0  0  0  0  0  0
   -0.3785    4.0487   -0.7834 H   0  0  0  0  0  0  0  0  0  0  0  0
  1  2  3  0  0  0  0
  3  4  1  0  0  0  0
  5  3  1  0  0  0  0
M  RAD  1   3   2
M  END
