Coordinates from ORCA-job NH2-N2+-scan-d09-169-n800
 OpenBabel09191813403D

  5  3  0  0  0  0  0  0  0  0999 V2000
    1.6968  -10.0722    0.0523 N   0  0  0  0  0  0  0  0  0  0  0  0
    1.9301  -11.1534    0.0590 N   0  0  0  0  0  0  0  0  0  0  0  0
   -0.6565    5.3476    0.0562 N   0  0  0  0  0  0  0  0  0  0  0  0
   -0.6689    5.9808    0.8953 H   0  0  0  0  0  0  0  0  0  0  0  0
   -0.6676    5.9811   -0.7827 H   0  0  0  0  0  0  0  0  0  0  0  0
  1  2  3  0  0  0  0
  3  4  1  0  0  0  0
  5  3  1  0  0  0  0
M  RAD  1   3   2
M  END
