Coordinates from ORCA-job NH2-N2+-scan-d09-169-n800
 OpenBabel09191813403D

  5  3  0  0  0  0  0  0  0  0999 V2000
    1.4974   -8.7171    0.0524 N   0  0  0  0  0  0  0  0  0  0  0  0
    1.7209   -9.8003    0.0590 N   0  0  0  0  0  0  0  0  0  0  0  0
   -0.5183    4.4449    0.0561 N   0  0  0  0  0  0  0  0  0  0  0  0
   -0.5337    5.0779    0.8955 H   0  0  0  0  0  0  0  0  0  0  0  0
   -0.5325    5.0785   -0.7829 H   0  0  0  0  0  0  0  0  0  0  0  0
  1  2  3  0  0  0  0
  3  4  1  0  0  0  0
  5  3  1  0  0  0  0
M  RAD  1   3   2
M  END
