Coordinates from ORCA-job NH2-N2+-scan-d09-169-n800
 OpenBabel09191813403D

  5  3  0  0  0  0  0  0  0  0999 V2000
    0.5489   -2.2578    0.0560 N   0  0  0  0  0  0  0  0  0  0  0  0
    0.6746   -3.3557    0.0559 N   0  0  0  0  0  0  0  0  0  0  0  0
    0.5572    0.6046    0.0564 N   0  0  0  0  0  0  0  0  0  0  0  0
   -0.0740    0.5463    0.8971 H   0  0  0  0  0  0  0  0  0  0  0  0
   -0.0727    0.5465   -0.7853 H   0  0  0  0  0  0  0  0  0  0  0  0
  2  1  3  0  0  0  0
  3  4  1  0  0  0  0
  5  3  1  0  0  0  0
M  RAD  1   3   2
M  END
