Coordinates from ORCA-job NH2-N2+-scan-d09-169-n800
 OpenBabel09191813403D

  5  3  0  0  0  0  0  0  0  0999 V2000
    1.4996   -8.7289    0.0524 N   0  0  0  0  0  0  0  0  0  0  0  0
    1.7223   -9.8123    0.0590 N   0  0  0  0  0  0  0  0  0  0  0  0
   -0.5196    4.4529    0.0561 N   0  0  0  0  0  0  0  0  0  0  0  0
   -0.5348    5.0859    0.8954 H   0  0  0  0  0  0  0  0  0  0  0  0
   -0.5337    5.0864   -0.7829 H   0  0  0  0  0  0  0  0  0  0  0  0
  1  2  3  0  0  0  0
  3  4  1  0  0  0  0
  5  3  1  0  0  0  0
M  RAD  1   3   2
M  END
