Coordinates from ORCA-job NH2-N2+-scan-d09-169-n800
 OpenBabel09191813403D

  5  3  0  0  0  0  0  0  0  0999 V2000
    1.4874   -8.6457    0.0525 N   0  0  0  0  0  0  0  0  0  0  0  0
    1.7094   -9.7292    0.0589 N   0  0  0  0  0  0  0  0  0  0  0  0
   -0.5111    4.3974    0.0561 N   0  0  0  0  0  0  0  0  0  0  0  0
   -0.5265    5.0304    0.8955 H   0  0  0  0  0  0  0  0  0  0  0  0
   -0.5254    5.0310   -0.7829 H   0  0  0  0  0  0  0  0  0  0  0  0
  1  2  3  0  0  0  0
  3  4  1  0  0  0  0
  5  3  1  0  0  0  0
M  RAD  1   3   2
M  END
