Coordinates from ORCA-job NH2-N2+-scan-d09-169-n800
 OpenBabel09191813403D

  5  3  0  0  0  0  0  0  0  0999 V2000
    0.6719   -3.4176    0.0560 N   0  0  0  0  0  0  0  0  0  0  0  0
    0.9049   -4.4983    0.0560 N   0  0  0  0  0  0  0  0  0  0  0  0
    0.3540    1.0757    0.0561 N   0  0  0  0  0  0  0  0  0  0  0  0
   -0.1492    1.4615    0.8975 H   0  0  0  0  0  0  0  0  0  0  0  0
   -0.1479    1.4625   -0.7856 H   0  0  0  0  0  0  0  0  0  0  0  0
  2  1  3  0  0  0  0
  3  4  1  0  0  0  0
  5  3  1  0  0  0  0
M  RAD  1   3   2
M  END
