Coordinates from ORCA-job NH2-N2+-scan-d09-169-n800
 OpenBabel09191813403D

  5  3  0  0  0  0  0  0  0  0999 V2000
    1.1195   -6.0385    0.0559 N   0  0  0  0  0  0  0  0  0  0  0  0
    1.2940   -7.1306    0.0559 N   0  0  0  0  0  0  0  0  0  0  0  0
   -0.2647    2.6620    0.0561 N   0  0  0  0  0  0  0  0  0  0  0  0
   -0.2582    3.2956    0.8958 H   0  0  0  0  0  0  0  0  0  0  0  0
   -0.2568    3.2955   -0.7836 H   0  0  0  0  0  0  0  0  0  0  0  0
  2  1  3  0  0  0  0
  3  4  1  0  0  0  0
  5  3  1  0  0  0  0
M  RAD  1   3   2
M  END
