Coordinates from ORCA-job NH2-N2+-scan-d09-169-n800
 OpenBabel09191813403D

  5  3  0  0  0  0  0  0  0  0999 V2000
    0.7811   -3.9547    0.0559 N   0  0  0  0  0  0  0  0  0  0  0  0
    0.9919   -5.0402    0.0560 N   0  0  0  0  0  0  0  0  0  0  0  0
    0.0229    1.2761    0.0558 N   0  0  0  0  0  0  0  0  0  0  0  0
   -0.0817    1.9009    0.8969 H   0  0  0  0  0  0  0  0  0  0  0  0
   -0.0804    1.9018   -0.7847 H   0  0  0  0  0  0  0  0  0  0  0  0
  1  2  3  0  0  0  0
  3  4  1  0  0  0  0
  5  3  1  0  0  0  0
M  RAD  1   3   2
M  END
