Coordinates from ORCA-job NH2-N2+-scan-d09-169-n800
 OpenBabel09191813403D

  5  3  0  0  0  0  0  0  0  0999 V2000
    0.8087   -4.0963    0.0560 N   0  0  0  0  0  0  0  0  0  0  0  0
    1.0085   -5.1839    0.0560 N   0  0  0  0  0  0  0  0  0  0  0  0
    0.0074    1.3711    0.0559 N   0  0  0  0  0  0  0  0  0  0  0  0
   -0.0960    1.9962    0.8967 H   0  0  0  0  0  0  0  0  0  0  0  0
   -0.0947    1.9968   -0.7846 H   0  0  0  0  0  0  0  0  0  0  0  0
  1  2  3  0  0  0  0
  3  4  1  0  0  0  0
  5  3  1  0  0  0  0
M  RAD  1   3   2
M  END
