Coordinates from ORCA-job NH2-N2+-scan-d09-169-n800
 OpenBabel09191813403D

  5  3  0  0  0  0  0  0  0  0999 V2000
    1.3986   -8.0395    0.0527 N   0  0  0  0  0  0  0  0  0  0  0  0
    1.6155   -9.1240    0.0587 N   0  0  0  0  0  0  0  0  0  0  0  0
   -0.4487    3.9936    0.0561 N   0  0  0  0  0  0  0  0  0  0  0  0
   -0.4664    4.6266    0.8955 H   0  0  0  0  0  0  0  0  0  0  0  0
   -0.4652    4.6271   -0.7830 H   0  0  0  0  0  0  0  0  0  0  0  0
  1  2  3  0  0  0  0
  3  4  1  0  0  0  0
  5  3  1  0  0  0  0
M  RAD  1   3   2
M  END
