Coordinates from ORCA-job NH2-N2+-scan-d09-169-n800
 OpenBabel09191813403D

  5  3  0  0  0  0  0  0  0  0999 V2000
    1.2600   -7.1006    0.0558 N   0  0  0  0  0  0  0  0  0  0  0  0
    1.4707   -8.1864    0.0559 N   0  0  0  0  0  0  0  0  0  0  0  0
   -0.3518    3.3682    0.0561 N   0  0  0  0  0  0  0  0  0  0  0  0
   -0.3733    4.0014    0.8955 H   0  0  0  0  0  0  0  0  0  0  0  0
   -0.3718    4.0013   -0.7834 H   0  0  0  0  0  0  0  0  0  0  0  0
  1  2  3  0  0  0  0
  3  4  1  0  0  0  0
  5  3  1  0  0  0  0
M  RAD  1   3   2
M  END
