Coordinates from ORCA-job NH2-N2+-scan-d09-169-n800
 OpenBabel09191813403D

  5  3  0  0  0  0  0  0  0  0999 V2000
    1.6508   -9.7632    0.0522 N   0  0  0  0  0  0  0  0  0  0  0  0
    1.8828  -10.8447    0.0591 N   0  0  0  0  0  0  0  0  0  0  0  0
   -0.6254    5.1417    0.0561 N   0  0  0  0  0  0  0  0  0  0  0  0
   -0.6378    5.7748    0.8953 H   0  0  0  0  0  0  0  0  0  0  0  0
   -0.6366    5.7752   -0.7828 H   0  0  0  0  0  0  0  0  0  0  0  0
  1  2  3  0  0  0  0
  3  4  1  0  0  0  0
  5  3  1  0  0  0  0
M  RAD  1   3   2
M  END
