Coordinates from ORCA-job NH2-N2+-scan-d09-169-n800
 OpenBabel09191813403D

  5  3  0  0  0  0  0  0  0  0999 V2000
    1.7654  -10.5357    0.0524 N   0  0  0  0  0  0  0  0  0  0  0  0
    2.0012  -11.6163    0.0589 N   0  0  0  0  0  0  0  0  0  0  0  0
   -0.7042    5.6564    0.0562 N   0  0  0  0  0  0  0  0  0  0  0  0
   -0.7150    6.2897    0.8953 H   0  0  0  0  0  0  0  0  0  0  0  0
   -0.7137    6.2898   -0.7827 H   0  0  0  0  0  0  0  0  0  0  0  0
  1  2  3  0  0  0  0
  3  4  1  0  0  0  0
  5  3  1  0  0  0  0
M  RAD  1   3   2
M  END
