Coordinates from ORCA-job NH2-N2+-scan-d09-169-n800
 OpenBabel09191813403D

  5  3  0  0  0  0  0  0  0  0999 V2000
    0.4925   -1.8217    0.0560 N   0  0  0  0  0  0  0  0  0  0  0  0
    0.6217   -2.9182    0.0559 N   0  0  0  0  0  0  0  0  0  0  0  0
    0.5919    0.2373    0.0563 N   0  0  0  0  0  0  0  0  0  0  0  0
   -0.0368    0.2931    0.8907 H   0  0  0  0  0  0  0  0  0  0  0  0
   -0.0356    0.2933   -0.7790 H   0  0  0  0  0  0  0  0  0  0  0  0
  2  1  3  0  0  0  0
  3  4  1  0  0  0  0
  5  3  1  0  0  0  0
M  RAD  1   3   2
M  END
