Coordinates from ORCA-job NH2-N2+-scan-d09-169-n800
 OpenBabel09191813403D

  5  3  0  0  0  0  0  0  0  0999 V2000
    1.4852   -8.6339    0.0524 N   0  0  0  0  0  0  0  0  0  0  0  0
    1.7080   -9.7173    0.0590 N   0  0  0  0  0  0  0  0  0  0  0  0
   -0.5099    4.3895    0.0561 N   0  0  0  0  0  0  0  0  0  0  0  0
   -0.5253    5.0225    0.8955 H   0  0  0  0  0  0  0  0  0  0  0  0
   -0.5242    5.0231   -0.7829 H   0  0  0  0  0  0  0  0  0  0  0  0
  1  2  3  0  0  0  0
  3  4  1  0  0  0  0
  5  3  1  0  0  0  0
M  RAD  1   3   2
M  END
