Coordinates from ORCA-job NH2-N2+-scan-d09-169-n800
 OpenBabel09191813403D

  5  3  0  0  0  0  0  0  0  0999 V2000
    0.5638   -2.3985    0.0560 N   0  0  0  0  0  0  0  0  0  0  0  0
    0.6968   -3.4956    0.0559 N   0  0  0  0  0  0  0  0  0  0  0  0
    0.5440    0.7042    0.0564 N   0  0  0  0  0  0  0  0  0  0  0  0
   -0.0860    0.6368    0.8982 H   0  0  0  0  0  0  0  0  0  0  0  0
   -0.0847    0.6369   -0.7865 H   0  0  0  0  0  0  0  0  0  0  0  0
  2  1  3  0  0  0  0
  3  4  1  0  0  0  0
  5  3  1  0  0  0  0
M  RAD  1   3   2
M  END
