Coordinates from ORCA-job NH2-N2+-scan-d09-169-n800
 OpenBabel09191813403D

  5  3  0  0  0  0  0  0  0  0999 V2000
    1.4595   -8.4555    0.0525 N   0  0  0  0  0  0  0  0  0  0  0  0
    1.6799   -9.5394    0.0589 N   0  0  0  0  0  0  0  0  0  0  0  0
   -0.4913    4.2708    0.0561 N   0  0  0  0  0  0  0  0  0  0  0  0
   -0.5077    4.9037    0.8955 H   0  0  0  0  0  0  0  0  0  0  0  0
   -0.5066    4.9043   -0.7829 H   0  0  0  0  0  0  0  0  0  0  0  0
  1  2  3  0  0  0  0
  3  4  1  0  0  0  0
  5  3  1  0  0  0  0
M  RAD  1   3   2
M  END
