Coordinates from ORCA-job NH2-N2+-scan-d09-169-n800
 OpenBabel09191813403D

  5  3  0  0  0  0  0  0  0  0999 V2000
    0.8624   -4.4162    0.0560 N   0  0  0  0  0  0  0  0  0  0  0  0
    1.0534   -5.5054    0.0559 N   0  0  0  0  0  0  0  0  0  0  0  0
   -0.0364    1.5833    0.0560 N   0  0  0  0  0  0  0  0  0  0  0  0
   -0.1235    2.2110    0.8965 H   0  0  0  0  0  0  0  0  0  0  0  0
   -0.1221    2.2113   -0.7844 H   0  0  0  0  0  0  0  0  0  0  0  0
  2  1  3  0  0  0  0
  3  4  1  0  0  0  0
  5  3  1  0  0  0  0
M  RAD  1   3   2
M  END
