Coordinates from ORCA-job NH2-N2+-scan-d09-169-n800
 OpenBabel09191813403D

  5  3  0  0  0  0  0  0  0  0999 V2000
    0.9517   -4.9731    0.0559 N   0  0  0  0  0  0  0  0  0  0  0  0
    1.1354   -6.0636    0.0559 N   0  0  0  0  0  0  0  0  0  0  0  0
   -0.1191    1.9523    0.0560 N   0  0  0  0  0  0  0  0  0  0  0  0
   -0.1678    2.5841    0.8962 H   0  0  0  0  0  0  0  0  0  0  0  0
   -0.1664    2.5842   -0.7841 H   0  0  0  0  0  0  0  0  0  0  0  0
  2  1  3  0  0  0  0
  3  4  1  0  0  0  0
  5  3  1  0  0  0  0
M  RAD  1   3   2
M  END
