Coordinates from ORCA-job NH2-N2+-scan-d09-169-n800
 OpenBabel09191813403D

  5  3  0  0  0  0  0  0  0  0999 V2000
    0.6552   -3.1836    0.0560 N   0  0  0  0  0  0  0  0  0  0  0  0
    0.8397   -4.2735    0.0560 N   0  0  0  0  0  0  0  0  0  0  0  0
    0.4552    1.0759    0.0562 N   0  0  0  0  0  0  0  0  0  0  0  0
   -0.1588    1.2321    0.8984 H   0  0  0  0  0  0  0  0  0  0  0  0
   -0.1576    1.2331   -0.7867 H   0  0  0  0  0  0  0  0  0  0  0  0
  1  2  3  0  0  0  0
  3  4  1  0  0  0  0
  5  3  1  0  0  0  0
M  RAD  1   3   2
M  END
