Coordinates from ORCA-job NH2-N2+-scan-d09-169-n800
 OpenBabel09191813403D

  5  3  0  0  0  0  0  0  0  0999 V2000
    1.7021  -10.1078    0.0523 N   0  0  0  0  0  0  0  0  0  0  0  0
    1.9355  -11.1890    0.0589 N   0  0  0  0  0  0  0  0  0  0  0  0
   -0.6604    5.3714    0.0562 N   0  0  0  0  0  0  0  0  0  0  0  0
   -0.6723    6.0045    0.8953 H   0  0  0  0  0  0  0  0  0  0  0  0
   -0.6711    6.0048   -0.7827 H   0  0  0  0  0  0  0  0  0  0  0  0
  1  2  3  0  0  0  0
  3  4  1  0  0  0  0
  5  3  1  0  0  0  0
M  RAD  1   3   2
M  END
