Coordinates from ORCA-job NH2-N2+-scan-d09-169-n800
 OpenBabel09191813403D

  5  3  0  0  0  0  0  0  0  0999 V2000
    1.1783   -6.4568    0.0559 N   0  0  0  0  0  0  0  0  0  0  0  0
    1.3599   -7.5477    0.0559 N   0  0  0  0  0  0  0  0  0  0  0  0
   -0.2851    2.9408    0.0561 N   0  0  0  0  0  0  0  0  0  0  0  0
   -0.3104    3.5739    0.8957 H   0  0  0  0  0  0  0  0  0  0  0  0
   -0.3090    3.5738   -0.7835 H   0  0  0  0  0  0  0  0  0  0  0  0
  1  2  3  0  0  0  0
  3  4  1  0  0  0  0
  5  3  1  0  0  0  0
M  RAD  1   3   2
M  END
