Coordinates from ORCA-job NH2-N2+-scan-d09-169-n800
 OpenBabel09191813403D

  5  3  0  0  0  0  0  0  0  0999 V2000
    1.1029   -5.9320    0.0559 N   0  0  0  0  0  0  0  0  0  0  0  0
    1.2781   -7.0239    0.0559 N   0  0  0  0  0  0  0  0  0  0  0  0
   -0.2510    2.5909    0.0561 N   0  0  0  0  0  0  0  0  0  0  0  0
   -0.2488    3.2245    0.8958 H   0  0  0  0  0  0  0  0  0  0  0  0
   -0.2474    3.2244   -0.7837 H   0  0  0  0  0  0  0  0  0  0  0  0
  2  1  3  0  0  0  0
  3  4  1  0  0  0  0
  5  3  1  0  0  0  0
M  RAD  1   3   2
M  END
