Coordinates from ORCA-job NH2-N2+-scan-d09-169-n800
 OpenBabel09191813403D

  5  3  0  0  0  0  0  0  0  0999 V2000
    1.1066   -5.9556    0.0559 N   0  0  0  0  0  0  0  0  0  0  0  0
    1.2816   -7.0476    0.0559 N   0  0  0  0  0  0  0  0  0  0  0  0
   -0.2541    2.6066    0.0561 N   0  0  0  0  0  0  0  0  0  0  0  0
   -0.2509    3.2403    0.8958 H   0  0  0  0  0  0  0  0  0  0  0  0
   -0.2495    3.2402   -0.7837 H   0  0  0  0  0  0  0  0  0  0  0  0
  2  1  3  0  0  0  0
  3  4  1  0  0  0  0
  5  3  1  0  0  0  0
M  RAD  1   3   2
M  END
