Coordinates from ORCA-job NH2-N2+-scan-d09-169-n800
 OpenBabel09191813403D

  5  3  0  0  0  0  0  0  0  0999 V2000
    0.9799   -5.1507    0.0559 N   0  0  0  0  0  0  0  0  0  0  0  0
    1.1618   -6.2415    0.0559 N   0  0  0  0  0  0  0  0  0  0  0  0
   -0.1448    2.0703    0.0561 N   0  0  0  0  0  0  0  0  0  0  0  0
   -0.1822    2.7029    0.8961 H   0  0  0  0  0  0  0  0  0  0  0  0
   -0.1808    2.7029   -0.7840 H   0  0  0  0  0  0  0  0  0  0  0  0
  2  1  3  0  0  0  0
  3  4  1  0  0  0  0
  5  3  1  0  0  0  0
M  RAD  1   3   2
M  END
