Coordinates from ORCA-job NH2-N2+-scan-d09-169-n800
 OpenBabel09191813403D

  5  3  0  0  0  0  0  0  0  0999 V2000
    0.6978   -3.5741    0.0559 N   0  0  0  0  0  0  0  0  0  0  0  0
    0.9319   -4.6546    0.0560 N   0  0  0  0  0  0  0  0  0  0  0  0
    0.2950    1.1335    0.0562 N   0  0  0  0  0  0  0  0  0  0  0  0
   -0.1461    1.5894    0.8971 H   0  0  0  0  0  0  0  0  0  0  0  0
   -0.1448    1.5897   -0.7852 H   0  0  0  0  0  0  0  0  0  0  0  0
  1  2  3  0  0  0  0
  3  4  1  0  0  0  0
  5  3  1  0  0  0  0
M  RAD  1   3   2
M  END
