Coordinates from ORCA-job NH2-N2+-scan-d09-169-n800
 OpenBabel09191813403D

  5  3  0  0  0  0  0  0  0  0999 V2000
    1.0472   -5.5768    0.0559 N   0  0  0  0  0  0  0  0  0  0  0  0
    1.2251   -6.6683    0.0559 N   0  0  0  0  0  0  0  0  0  0  0  0
   -0.2040    2.3540    0.0561 N   0  0  0  0  0  0  0  0  0  0  0  0
   -0.2179    2.9875    0.8959 H   0  0  0  0  0  0  0  0  0  0  0  0
   -0.2165    2.9875   -0.7838 H   0  0  0  0  0  0  0  0  0  0  0  0
  2  1  3  0  0  0  0
  3  4  1  0  0  0  0
  5  3  1  0  0  0  0
M  RAD  1   3   2
M  END
