Coordinates from ORCA-job NH2-N2+-scan-d09-169-n800
 OpenBabel09191813403D

  5  3  0  0  0  0  0  0  0  0999 V2000
    1.5862   -9.3234    0.0522 N   0  0  0  0  0  0  0  0  0  0  0  0
    1.8148  -10.4055    0.0591 N   0  0  0  0  0  0  0  0  0  0  0  0
   -0.5805    4.8487    0.0561 N   0  0  0  0  0  0  0  0  0  0  0  0
   -0.5940    5.4818    0.8954 H   0  0  0  0  0  0  0  0  0  0  0  0
   -0.5928    5.4823   -0.7828 H   0  0  0  0  0  0  0  0  0  0  0  0
  1  2  3  0  0  0  0
  3  4  1  0  0  0  0
  5  3  1  0  0  0  0
M  RAD  1   3   2
M  END
