Coordinates from ORCA-job NH2-N2+-scan-d09-169-n800
 OpenBabel09191813403D

  5  3  0  0  0  0  0  0  0  0999 V2000
    1.8042  -10.7971    0.0524 N   0  0  0  0  0  0  0  0  0  0  0  0
    2.0414  -11.8775    0.0588 N   0  0  0  0  0  0  0  0  0  0  0  0
   -0.7307    5.8306    0.0562 N   0  0  0  0  0  0  0  0  0  0  0  0
   -0.7412    6.4639    0.8952 H   0  0  0  0  0  0  0  0  0  0  0  0
   -0.7398    6.4640   -0.7827 H   0  0  0  0  0  0  0  0  0  0  0  0
  1  2  3  0  0  0  0
  3  4  1  0  0  0  0
  5  3  1  0  0  0  0
M  RAD  1   3   2
M  END
