Coordinates from ORCA-job NH2-N2+-scan-d09-169-n800
 OpenBabel09191813403D

  5  3  0  0  0  0  0  0  0  0999 V2000
    1.7906  -10.7020    0.0525 N   0  0  0  0  0  0  0  0  0  0  0  0
    2.0263  -11.7826    0.0588 N   0  0  0  0  0  0  0  0  0  0  0  0
   -0.7213    5.7673    0.0562 N   0  0  0  0  0  0  0  0  0  0  0  0
   -0.7316    6.4005    0.8952 H   0  0  0  0  0  0  0  0  0  0  0  0
   -0.7303    6.4007   -0.7827 H   0  0  0  0  0  0  0  0  0  0  0  0
  1  2  3  0  0  0  0
  3  4  1  0  0  0  0
  5  3  1  0  0  0  0
M  RAD  1   3   2
M  END
