Coordinates from ORCA-job NH2-N2+-scan-d09-169-n800
 OpenBabel09191813403D

  5  3  0  0  0  0  0  0  0  0999 V2000
    1.4562   -8.4317    0.0525 N   0  0  0  0  0  0  0  0  0  0  0  0
    1.6762   -9.5156    0.0589 N   0  0  0  0  0  0  0  0  0  0  0  0
   -0.4896    4.2549    0.0561 N   0  0  0  0  0  0  0  0  0  0  0  0
   -0.5050    4.8879    0.8955 H   0  0  0  0  0  0  0  0  0  0  0  0
   -0.5039    4.8884   -0.7830 H   0  0  0  0  0  0  0  0  0  0  0  0
  1  2  3  0  0  0  0
  3  4  1  0  0  0  0
  5  3  1  0  0  0  0
M  RAD  1   3   2
M  END
