Coordinates from ORCA-job NH2-N2+-scan-d09-169-n800
 OpenBabel09191813403D

  5  3  0  0  0  0  0  0  0  0999 V2000
    1.7802  -10.6307    0.0525 N   0  0  0  0  0  0  0  0  0  0  0  0
    2.0152  -11.7115    0.0588 N   0  0  0  0  0  0  0  0  0  0  0  0
   -0.7135    5.7198    0.0562 N   0  0  0  0  0  0  0  0  0  0  0  0
   -0.7247    6.3531    0.8953 H   0  0  0  0  0  0  0  0  0  0  0  0
   -0.7234    6.3532   -0.7827 H   0  0  0  0  0  0  0  0  0  0  0  0
  1  2  3  0  0  0  0
  3  4  1  0  0  0  0
  5  3  1  0  0  0  0
M  RAD  1   3   2
M  END
