Coordinates from ORCA-job NH2-N2+-scan-d09-169-n800
 OpenBabel09191813403D

  5  3  0  0  0  0  0  0  0  0999 V2000
    0.6960   -3.5632    0.0559 N   0  0  0  0  0  0  0  0  0  0  0  0
    0.9308   -4.6436    0.0560 N   0  0  0  0  0  0  0  0  0  0  0  0
    0.2940    1.1244    0.0562 N   0  0  0  0  0  0  0  0  0  0  0  0
   -0.1442    1.5830    0.8971 H   0  0  0  0  0  0  0  0  0  0  0  0
   -0.1428    1.5834   -0.7852 H   0  0  0  0  0  0  0  0  0  0  0  0
  1  2  3  0  0  0  0
  3  4  1  0  0  0  0
  5  3  1  0  0  0  0
M  RAD  1   3   2
M  END
