Coordinates from ORCA-job NH2-N2+-scan-d09-169-n800
 OpenBabel09191813403D

  5  3  0  0  0  0  0  0  0  0999 V2000
    1.5338   -8.9668    0.0523 N   0  0  0  0  0  0  0  0  0  0  0  0
    1.7597  -10.0495    0.0591 N   0  0  0  0  0  0  0  0  0  0  0  0
   -0.5439    4.6112    0.0561 N   0  0  0  0  0  0  0  0  0  0  0  0
   -0.5585    5.2442    0.8954 H   0  0  0  0  0  0  0  0  0  0  0  0
   -0.5573    5.2448   -0.7829 H   0  0  0  0  0  0  0  0  0  0  0  0
  1  2  3  0  0  0  0
  3  4  1  0  0  0  0
  5  3  1  0  0  0  0
M  RAD  1   3   2
M  END
