Coordinates from ORCA-job NH2-N2+-scan-d09-169-n800
 OpenBabel09191813403D

  5  4  0  0  0  0  0  0  0  0999 V2000
    0.4554   -1.5594    0.0560 N   0  0  0  0  0  0  0  0  0  0  0  0
    0.6153   -2.6556    0.0560 N   0  0  0  0  0  0  0  0  0  0  0  0
    0.5310   -0.0806    0.0562 N   0  0  0  0  0  0  0  0  0  0  0  0
    0.0154    0.1897    0.9095 H   0  0  0  0  0  0  0  0  0  0  0  0
    0.0167    0.1899   -0.7977 H   0  0  0  0  0  0  0  0  0  0  0  0
  1  3  1  0  0  0  0
  2  1  1  0  0  0  0
  3  4  1  0  0  0  0
  5  3  1  0  0  0  0
M  RAD  2   1   2   2   3
M  END
