Coordinates from ORCA-job NH2-N2+-scan-d09-169-n800
 OpenBabel09191813403D

  5  3  0  0  0  0  0  0  0  0999 V2000
    1.4629   -8.4793    0.0525 N   0  0  0  0  0  0  0  0  0  0  0  0
    1.6837   -9.5631    0.0589 N   0  0  0  0  0  0  0  0  0  0  0  0
   -0.4940    4.2866    0.0561 N   0  0  0  0  0  0  0  0  0  0  0  0
   -0.5100    4.9196    0.8955 H   0  0  0  0  0  0  0  0  0  0  0  0
   -0.5088    4.9201   -0.7829 H   0  0  0  0  0  0  0  0  0  0  0  0
  1  2  3  0  0  0  0
  3  4  1  0  0  0  0
  5  3  1  0  0  0  0
M  RAD  1   3   2
M  END
