Coordinates from ORCA-job NH2-N2+-scan-d09-169-n800
 OpenBabel09191813403D

  5  3  0  0  0  0  0  0  0  0999 V2000
    0.7887   -3.9900    0.0560 N   0  0  0  0  0  0  0  0  0  0  0  0
    0.9954   -5.0762    0.0560 N   0  0  0  0  0  0  0  0  0  0  0  0
    0.0193    1.2999    0.0559 N   0  0  0  0  0  0  0  0  0  0  0  0
   -0.0855    1.9247    0.8968 H   0  0  0  0  0  0  0  0  0  0  0  0
   -0.0842    1.9255   -0.7846 H   0  0  0  0  0  0  0  0  0  0  0  0
  1  2  3  0  0  0  0
  3  4  1  0  0  0  0
  5  3  1  0  0  0  0
M  RAD  1   3   2
M  END
