Coordinates from ORCA-job NH2-N2+-scan-d09-169-n800
 OpenBabel09191813403D

  5  3  0  0  0  0  0  0  0  0999 V2000
    1.7444  -10.3931    0.0523 N   0  0  0  0  0  0  0  0  0  0  0  0
    1.9793  -11.4739    0.0589 N   0  0  0  0  0  0  0  0  0  0  0  0
   -0.6895    5.5614    0.0562 N   0  0  0  0  0  0  0  0  0  0  0  0
   -0.7008    6.1946    0.8953 H   0  0  0  0  0  0  0  0  0  0  0  0
   -0.6995    6.1948   -0.7827 H   0  0  0  0  0  0  0  0  0  0  0  0
  1  2  3  0  0  0  0
  3  4  1  0  0  0  0
  5  3  1  0  0  0  0
M  RAD  1   3   2
M  END
