Coordinates from ORCA-job NH2-N2+-scan-d09-169-n800
 OpenBabel09191813403D

  5  3  0  0  0  0  0  0  0  0999 V2000
    1.7042  -10.1196    0.0524 N   0  0  0  0  0  0  0  0  0  0  0  0
    1.9370  -11.2009    0.0589 N   0  0  0  0  0  0  0  0  0  0  0  0
   -0.6619    5.3793    0.0562 N   0  0  0  0  0  0  0  0  0  0  0  0
   -0.6734    6.0124    0.8953 H   0  0  0  0  0  0  0  0  0  0  0  0
   -0.6721    6.0127   -0.7828 H   0  0  0  0  0  0  0  0  0  0  0  0
  1  2  3  0  0  0  0
  3  4  1  0  0  0  0
  5  3  1  0  0  0  0
M  RAD  1   3   2
M  END
