Coordinates from ORCA-job NH2-N2+-scan-d09-169-n800
 OpenBabel09191813403D

  5  3  0  0  0  0  0  0  0  0999 V2000
    1.2108   -6.7070    0.0559 N   0  0  0  0  0  0  0  0  0  0  0  0
    1.4023   -7.7963    0.0559 N   0  0  0  0  0  0  0  0  0  0  0  0
   -0.3111    3.1070    0.0561 N   0  0  0  0  0  0  0  0  0  0  0  0
   -0.3348    3.7402    0.8956 H   0  0  0  0  0  0  0  0  0  0  0  0
   -0.3334    3.7400   -0.7835 H   0  0  0  0  0  0  0  0  0  0  0  0
  1  2  3  0  0  0  0
  3  4  1  0  0  0  0
  5  3  1  0  0  0  0
M  RAD  1   3   2
M  END
