Coordinates from ORCA-job NH2-N2+-scan-d09-169-n800
 OpenBabel09191813403D

  5  3  0  0  0  0  0  0  0  0999 V2000
    0.6578   -3.2783    0.0560 N   0  0  0  0  0  0  0  0  0  0  0  0
    0.8660   -4.3640    0.0561 N   0  0  0  0  0  0  0  0  0  0  0  0
    0.4344    1.1004    0.0561 N   0  0  0  0  0  0  0  0  0  0  0  0
   -0.1628    1.3122    0.8981 H   0  0  0  0  0  0  0  0  0  0  0  0
   -0.1616    1.3137   -0.7863 H   0  0  0  0  0  0  0  0  0  0  0  0
  1  2  3  0  0  0  0
  3  4  1  0  0  0  0
  5  3  1  0  0  0  0
M  RAD  1   3   2
M  END
