Coordinates from ORCA-job NH2-N2+-scan-d09-169-n800
 OpenBabel09191813403D

  5  3  0  0  0  0  0  0  0  0999 V2000
    0.7375   -3.7748    0.0559 N   0  0  0  0  0  0  0  0  0  0  0  0
    0.9657   -4.8567    0.0559 N   0  0  0  0  0  0  0  0  0  0  0  0
    0.1757    1.1987    0.0562 N   0  0  0  0  0  0  0  0  0  0  0  0
   -0.1232    1.7584    0.8968 H   0  0  0  0  0  0  0  0  0  0  0  0
   -0.1218    1.7583   -0.7848 H   0  0  0  0  0  0  0  0  0  0  0  0
  2  1  3  0  0  0  0
  3  4  1  0  0  0  0
  5  3  1  0  0  0  0
M  RAD  1   3   2
M  END
