Coordinates from ORCA-job NH2-N2+-scan-d09-169-n800
 OpenBabel09191813403D

  5  3  0  0  0  0  0  0  0  0999 V2000
    1.1863   -6.5163    0.0559 N   0  0  0  0  0  0  0  0  0  0  0  0
    1.3698   -7.6070    0.0559 N   0  0  0  0  0  0  0  0  0  0  0  0
   -0.2913    2.9803    0.0561 N   0  0  0  0  0  0  0  0  0  0  0  0
   -0.3162    3.6135    0.8956 H   0  0  0  0  0  0  0  0  0  0  0  0
   -0.3148    3.6134   -0.7835 H   0  0  0  0  0  0  0  0  0  0  0  0
  1  2  3  0  0  0  0
  3  4  1  0  0  0  0
  5  3  1  0  0  0  0
M  RAD  1   3   2
M  END
