Coordinates from ORCA-job NH2-N2+-scan-d09-169-n800
 OpenBabel09191813403D

  5  3  0  0  0  0  0  0  0  0999 V2000
    1.0936   -5.8728    0.0559 N   0  0  0  0  0  0  0  0  0  0  0  0
    1.2692   -6.9647    0.0559 N   0  0  0  0  0  0  0  0  0  0  0  0
   -0.2433    2.5514    0.0561 N   0  0  0  0  0  0  0  0  0  0  0  0
   -0.2436    3.1850    0.8958 H   0  0  0  0  0  0  0  0  0  0  0  0
   -0.2422    3.1850   -0.7837 H   0  0  0  0  0  0  0  0  0  0  0  0
  2  1  3  0  0  0  0
  3  4  1  0  0  0  0
  5  3  1  0  0  0  0
M  RAD  1   3   2
M  END
