Coordinates from ORCA-job NH2-N2+-scan-d09-169-n800
 OpenBabel09191813403D

  5  3  0  0  0  0  0  0  0  0999 V2000
    1.2124   -6.7189    0.0559 N   0  0  0  0  0  0  0  0  0  0  0  0
    1.4044   -7.8081    0.0559 N   0  0  0  0  0  0  0  0  0  0  0  0
   -0.3134    3.1148    0.0561 N   0  0  0  0  0  0  0  0  0  0  0  0
   -0.3355    3.7481    0.8955 H   0  0  0  0  0  0  0  0  0  0  0  0
   -0.3341    3.7480   -0.7834 H   0  0  0  0  0  0  0  0  0  0  0  0
  1  2  3  0  0  0  0
  3  4  1  0  0  0  0
  5  3  1  0  0  0  0
M  RAD  1   3   2
M  END
