Coordinates from ORCA-job NH2-N2+-scan-d09-169-n800
 OpenBabel09191813403D

  5  3  0  0  0  0  0  0  0  0999 V2000
    0.6215   -2.9271    0.0559 N   0  0  0  0  0  0  0  0  0  0  0  0
    0.7909   -4.0194    0.0559 N   0  0  0  0  0  0  0  0  0  0  0  0
    0.4951    0.9946    0.0564 N   0  0  0  0  0  0  0  0  0  0  0  0
   -0.1375    1.0178    0.8994 H   0  0  0  0  0  0  0  0  0  0  0  0
   -0.1362    1.0180   -0.7876 H   0  0  0  0  0  0  0  0  0  0  0  0
  2  1  3  0  0  0  0
  3  4  1  0  0  0  0
  5  3  1  0  0  0  0
M  RAD  1   3   2
M  END
