Coordinates from ORCA-job NH2-N2+-scan-d09-169-n800
 OpenBabel09191813403D

  5  3  0  0  0  0  0  0  0  0999 V2000
    1.2505   -7.0291    0.0558 N   0  0  0  0  0  0  0  0  0  0  0  0
    1.4588   -8.1153    0.0559 N   0  0  0  0  0  0  0  0  0  0  0  0
   -0.3451    3.3206    0.0561 N   0  0  0  0  0  0  0  0  0  0  0  0
   -0.3659    3.9539    0.8956 H   0  0  0  0  0  0  0  0  0  0  0  0
   -0.3645    3.9537   -0.7834 H   0  0  0  0  0  0  0  0  0  0  0  0
  1  2  3  0  0  0  0
  3  4  1  0  0  0  0
  5  3  1  0  0  0  0
M  RAD  1   3   2
M  END
