Coordinates from ORCA-job NH2-N2+-scan-d09-169-n800
 OpenBabel09191813403D

  5  3  0  0  0  0  0  0  0  0999 V2000
    1.4054   -8.0870    0.0527 N   0  0  0  0  0  0  0  0  0  0  0  0
    1.6229   -9.1715    0.0588 N   0  0  0  0  0  0  0  0  0  0  0  0
   -0.4536    4.0253    0.0561 N   0  0  0  0  0  0  0  0  0  0  0  0
   -0.4711    4.6583    0.8955 H   0  0  0  0  0  0  0  0  0  0  0  0
   -0.4699    4.6588   -0.7830 H   0  0  0  0  0  0  0  0  0  0  0  0
  1  2  3  0  0  0  0
  3  4  1  0  0  0  0
  5  3  1  0  0  0  0
M  RAD  1   3   2
M  END
