Coordinates from ORCA-job NH2-N2+-scan-d09-169-n800
 OpenBabel09191813403D

  5  3  0  0  0  0  0  0  0  0999 V2000
    1.5040   -8.7648    0.0523 N   0  0  0  0  0  0  0  0  0  0  0  0
    1.7286   -9.8478    0.0590 N   0  0  0  0  0  0  0  0  0  0  0  0
   -0.5222    4.4767    0.0561 N   0  0  0  0  0  0  0  0  0  0  0  0
   -0.5389    5.1096    0.8954 H   0  0  0  0  0  0  0  0  0  0  0  0
   -0.5377    5.1102   -0.7829 H   0  0  0  0  0  0  0  0  0  0  0  0
  1  2  3  0  0  0  0
  3  4  1  0  0  0  0
  5  3  1  0  0  0  0
M  RAD  1   3   2
M  END
