Coordinates from ORCA-job NH2-N2+-scan-d09-169-n800
 OpenBabel09191813403D

  5  3  0  0  0  0  0  0  0  0999 V2000
    0.8682   -4.4518    0.0560 N   0  0  0  0  0  0  0  0  0  0  0  0
    1.0585   -5.5411    0.0559 N   0  0  0  0  0  0  0  0  0  0  0  0
   -0.0416    1.6068    0.0560 N   0  0  0  0  0  0  0  0  0  0  0  0
   -0.1263    2.2348    0.8965 H   0  0  0  0  0  0  0  0  0  0  0  0
   -0.1250    2.2352   -0.7843 H   0  0  0  0  0  0  0  0  0  0  0  0
  2  1  3  0  0  0  0
  3  4  1  0  0  0  0
  5  3  1  0  0  0  0
M  RAD  1   3   2
M  END
