Coordinates from ORCA-job NH2-N2+-scan-d09-169-n800
 OpenBabel09191813403D

  5  3  0  0  0  0  0  0  0  0999 V2000
    0.5704   -2.4633    0.0560 N   0  0  0  0  0  0  0  0  0  0  0  0
    0.7088   -3.5598    0.0559 N   0  0  0  0  0  0  0  0  0  0  0  0
    0.5384    0.7394    0.0564 N   0  0  0  0  0  0  0  0  0  0  0  0
   -0.0925    0.6837    0.8986 H   0  0  0  0  0  0  0  0  0  0  0  0
   -0.0912    0.6839   -0.7869 H   0  0  0  0  0  0  0  0  0  0  0  0
  2  1  3  0  0  0  0
  3  4  1  0  0  0  0
  5  3  1  0  0  0  0
M  RAD  1   3   2
M  END
