Coordinates from ORCA-job NH2-N2+-scan-d09-169-n800
 OpenBabel09191813403D

  5  3  0  0  0  0  0  0  0  0999 V2000
    1.6143   -9.5136    0.0523 N   0  0  0  0  0  0  0  0  0  0  0  0
    1.8441  -10.5955    0.0591 N   0  0  0  0  0  0  0  0  0  0  0  0
   -0.5993    4.9755    0.0561 N   0  0  0  0  0  0  0  0  0  0  0  0
   -0.6133    5.6086    0.8954 H   0  0  0  0  0  0  0  0  0  0  0  0
   -0.6121    5.6090   -0.7828 H   0  0  0  0  0  0  0  0  0  0  0  0
  1  2  3  0  0  0  0
  3  4  1  0  0  0  0
  5  3  1  0  0  0  0
M  RAD  1   3   2
M  END
