Coordinates from ORCA-job NH2-N2+-scan-d09-169-n800
 OpenBabel09191813403D

  5  3  0  0  0  0  0  0  0  0999 V2000
    1.7518  -10.4405    0.0524 N   0  0  0  0  0  0  0  0  0  0  0  0
    1.9863  -11.5215    0.0588 N   0  0  0  0  0  0  0  0  0  0  0  0
   -0.6943    5.5931    0.0562 N   0  0  0  0  0  0  0  0  0  0  0  0
   -0.7056    6.2263    0.8953 H   0  0  0  0  0  0  0  0  0  0  0  0
   -0.7043    6.2265   -0.7827 H   0  0  0  0  0  0  0  0  0  0  0  0
  1  2  3  0  0  0  0
  3  4  1  0  0  0  0
  5  3  1  0  0  0  0
M  RAD  1   3   2
M  END
