Coordinates from ORCA-job NH2-N2+-scan-d09-169-n800
 OpenBabel09191813403D

  5  3  0  0  0  0  0  0  0  0999 V2000
    1.5217   -8.8836    0.0524 N   0  0  0  0  0  0  0  0  0  0  0  0
    1.7468   -9.9665    0.0590 N   0  0  0  0  0  0  0  0  0  0  0  0
   -0.5353    4.5558    0.0561 N   0  0  0  0  0  0  0  0  0  0  0  0
   -0.5502    5.1888    0.8954 H   0  0  0  0  0  0  0  0  0  0  0  0
   -0.5491    5.1893   -0.7829 H   0  0  0  0  0  0  0  0  0  0  0  0
  1  2  3  0  0  0  0
  3  4  1  0  0  0  0
  5  3  1  0  0  0  0
M  RAD  1   3   2
M  END
