Coordinates from ORCA-job NH2-N2+-scan-d09-169-n800
 OpenBabel09191813403D

  5  3  0  0  0  0  0  0  0  0999 V2000
    0.9836   -5.1743    0.0559 N   0  0  0  0  0  0  0  0  0  0  0  0
    1.1653   -6.2652    0.0559 N   0  0  0  0  0  0  0  0  0  0  0  0
   -0.1482    2.0860    0.0561 N   0  0  0  0  0  0  0  0  0  0  0  0
   -0.1841    2.7187    0.8961 H   0  0  0  0  0  0  0  0  0  0  0  0
   -0.1827    2.7188   -0.7840 H   0  0  0  0  0  0  0  0  0  0  0  0
  2  1  3  0  0  0  0
  3  4  1  0  0  0  0
  5  3  1  0  0  0  0
M  RAD  1   3   2
M  END
