Coordinates from ORCA-job NH2-N2+-scan-d09-169-n800
 OpenBabel09191813403D

  5  3  0  0  0  0  0  0  0  0999 V2000
    0.5613   -2.3746    0.0560 N   0  0  0  0  0  0  0  0  0  0  0  0
    0.6928   -3.4719    0.0559 N   0  0  0  0  0  0  0  0  0  0  0  0
    0.5462    0.6881    0.0564 N   0  0  0  0  0  0  0  0  0  0  0  0
   -0.0839    0.6210    0.8981 H   0  0  0  0  0  0  0  0  0  0  0  0
   -0.0826    0.6212   -0.7863 H   0  0  0  0  0  0  0  0  0  0  0  0
  2  1  3  0  0  0  0
  3  4  1  0  0  0  0
  5  3  1  0  0  0  0
M  RAD  1   3   2
M  END
