Coordinates from ORCA-job NH2-N2+-scan-d09-169-n800
 OpenBabel09191813403D

  5  3  0  0  0  0  0  0  0  0999 V2000
    0.9404   -4.9020    0.0559 N   0  0  0  0  0  0  0  0  0  0  0  0
    1.1249   -5.9924    0.0559 N   0  0  0  0  0  0  0  0  0  0  0  0
   -0.1087    1.9051    0.0560 N   0  0  0  0  0  0  0  0  0  0  0  0
   -0.1621    2.5365    0.8962 H   0  0  0  0  0  0  0  0  0  0  0  0
   -0.1607    2.5367   -0.7841 H   0  0  0  0  0  0  0  0  0  0  0  0
  2  1  3  0  0  0  0
  3  4  1  0  0  0  0
  5  3  1  0  0  0  0
M  RAD  1   3   2
M  END
