Coordinates from ORCA-job NH2-N2+-scan-d09-169-n800
 OpenBabel09191813403D

  5  3  0  0  0  0  0  0  0  0999 V2000
    1.5151   -8.8359    0.0524 N   0  0  0  0  0  0  0  0  0  0  0  0
    1.7391   -9.9191    0.0590 N   0  0  0  0  0  0  0  0  0  0  0  0
   -0.5305    4.5241    0.0561 N   0  0  0  0  0  0  0  0  0  0  0  0
   -0.5455    5.1571    0.8954 H   0  0  0  0  0  0  0  0  0  0  0  0
   -0.5443    5.1577   -0.7829 H   0  0  0  0  0  0  0  0  0  0  0  0
  1  2  3  0  0  0  0
  3  4  1  0  0  0  0
  5  3  1  0  0  0  0
M  RAD  1   3   2
M  END
