Coordinates from ORCA-job NH2-N2+-scan-d09-169-n800
 OpenBabel09191813403D

  5  3  0  0  0  0  0  0  0  0999 V2000
    1.7486  -10.4167    0.0524 N   0  0  0  0  0  0  0  0  0  0  0  0
    1.9822  -11.4978    0.0588 N   0  0  0  0  0  0  0  0  0  0  0  0
   -0.6918    5.5773    0.0562 N   0  0  0  0  0  0  0  0  0  0  0  0
   -0.7033    6.2105    0.8953 H   0  0  0  0  0  0  0  0  0  0  0  0
   -0.7020    6.2107   -0.7827 H   0  0  0  0  0  0  0  0  0  0  0  0
  1  2  3  0  0  0  0
  3  4  1  0  0  0  0
  5  3  1  0  0  0  0
M  RAD  1   3   2
M  END
