Coordinates from ORCA-job NH2-N2+-scan-d09-169-n800
 OpenBabel09191813403D

  5  3  0  0  0  0  0  0  0  0999 V2000
    0.9233   -4.7954    0.0559 N   0  0  0  0  0  0  0  0  0  0  0  0
    1.1091   -5.8856    0.0559 N   0  0  0  0  0  0  0  0  0  0  0  0
   -0.0929    1.8344    0.0560 N   0  0  0  0  0  0  0  0  0  0  0  0
   -0.1536    2.4652    0.8963 H   0  0  0  0  0  0  0  0  0  0  0  0
   -0.1522    2.4654   -0.7841 H   0  0  0  0  0  0  0  0  0  0  0  0
  2  1  3  0  0  0  0
  3  4  1  0  0  0  0
  5  3  1  0  0  0  0
M  RAD  1   3   2
M  END
