Coordinates from ORCA-job NH2-N2+-scan-d09-169-n800
 OpenBabel09191813403D

  5  3  0  0  0  0  0  0  0  0999 V2000
    1.1588   -6.3139    0.0559 N   0  0  0  0  0  0  0  0  0  0  0  0
    1.3366   -7.4055    0.0559 N   0  0  0  0  0  0  0  0  0  0  0  0
   -0.2705    2.8457    0.0561 N   0  0  0  0  0  0  0  0  0  0  0  0
   -0.2962    3.4788    0.8957 H   0  0  0  0  0  0  0  0  0  0  0  0
   -0.2948    3.4788   -0.7835 H   0  0  0  0  0  0  0  0  0  0  0  0
  2  1  3  0  0  0  0
  3  4  1  0  0  0  0
  5  3  1  0  0  0  0
M  RAD  1   3   2
M  END
