Coordinates from ORCA-job NH2-N2+-scan-d09-169-n800
 OpenBabel09191813403D

  5  3  0  0  0  0  0  0  0  0999 V2000
    1.5710   -9.2163    0.0523 N   0  0  0  0  0  0  0  0  0  0  0  0
    1.7978  -10.2989    0.0590 N   0  0  0  0  0  0  0  0  0  0  0  0
   -0.5695    4.7775    0.0561 N   0  0  0  0  0  0  0  0  0  0  0  0
   -0.5834    5.4105    0.8954 H   0  0  0  0  0  0  0  0  0  0  0  0
   -0.5822    5.4110   -0.7828 H   0  0  0  0  0  0  0  0  0  0  0  0
  1  2  3  0  0  0  0
  3  4  1  0  0  0  0
  5  3  1  0  0  0  0
M  RAD  1   3   2
M  END
