Coordinates from ORCA-job NH2-N2+-scan-d09-169-n800
 OpenBabel09191813403D

  5  3  0  0  0  0  0  0  0  0999 V2000
    1.3330   -7.5877    0.0532 N   0  0  0  0  0  0  0  0  0  0  0  0
    1.5449   -8.6732    0.0583 N   0  0  0  0  0  0  0  0  0  0  0  0
   -0.4023    3.6928    0.0561 N   0  0  0  0  0  0  0  0  0  0  0  0
   -0.4215    4.3258    0.8955 H   0  0  0  0  0  0  0  0  0  0  0  0
   -0.4203    4.3262   -0.7831 H   0  0  0  0  0  0  0  0  0  0  0  0
  1  2  3  0  0  0  0
  3  4  1  0  0  0  0
  5  3  1  0  0  0  0
M  RAD  1   3   2
M  END
