Coordinates from ORCA-job NH2-N2+-scan-d09-169-n800
 OpenBabel09191813403D

  5  3  0  0  0  0  0  0  0  0999 V2000
    1.7116  -10.1671    0.0524 N   0  0  0  0  0  0  0  0  0  0  0  0
    1.9439  -11.2485    0.0589 N   0  0  0  0  0  0  0  0  0  0  0  0
   -0.6666    5.4110    0.0562 N   0  0  0  0  0  0  0  0  0  0  0  0
   -0.6782    6.0442    0.8953 H   0  0  0  0  0  0  0  0  0  0  0  0
   -0.6770    6.0444   -0.7827 H   0  0  0  0  0  0  0  0  0  0  0  0
  1  2  3  0  0  0  0
  3  4  1  0  0  0  0
  5  3  1  0  0  0  0
M  RAD  1   3   2
M  END
