Coordinates from ORCA-job NH2-N2+-scan-d09-169-n800
 OpenBabel09191813403D

  5  3  0  0  0  0  0  0  0  0999 V2000
    0.5810   -2.5711    0.0559 N   0  0  0  0  0  0  0  0  0  0  0  0
    0.7269   -3.6666    0.0559 N   0  0  0  0  0  0  0  0  0  0  0  0
    0.5287    0.8116    0.0564 N   0  0  0  0  0  0  0  0  0  0  0  0
   -0.1021    0.7549    0.8991 H   0  0  0  0  0  0  0  0  0  0  0  0
   -0.1008    0.7550   -0.7873 H   0  0  0  0  0  0  0  0  0  0  0  0
  2  1  3  0  0  0  0
  3  4  1  0  0  0  0
  5  3  1  0  0  0  0
M  RAD  1   3   2
M  END
