Coordinates from ORCA-job NH2-N2+-scan-d09-169-n800
 OpenBabel09191813403D

  5  4  0  0  0  0  0  0  0  0999 V2000
    0.4352   -1.3786    0.0560 N   0  0  0  0  0  0  0  0  0  0  0  0
    0.6381   -2.4977    0.0560 N   0  0  0  0  0  0  0  0  0  0  0  0
    0.2565   -0.3946    0.0560 N   0  0  0  0  0  0  0  0  0  0  0  0
    0.1512    0.1773    0.9186 H   0  0  0  0  0  0  0  0  0  0  0  0
    0.1528    0.1776   -0.8067 H   0  0  0  0  0  0  0  0  0  0  0  0
  1  2  1  0  0  0  0
  3  1  1  0  0  0  0
  3  4  1  0  0  0  0
  5  3  1  0  0  0  0
M  RAD  2   1   2   2   3
M  END
