Coordinates from ORCA-job NH2-N2+-scan-d09-169-n800
 OpenBabel09191813403D

  5  3  0  0  0  0  0  0  0  0999 V2000
    0.6437   -3.1140    0.0560 N   0  0  0  0  0  0  0  0  0  0  0  0
    0.8268   -4.2041    0.0560 N   0  0  0  0  0  0  0  0  0  0  0  0
    0.4709    1.0665    0.0563 N   0  0  0  0  0  0  0  0  0  0  0  0
   -0.1544    1.1674    0.8987 H   0  0  0  0  0  0  0  0  0  0  0  0
   -0.1532    1.1681   -0.7869 H   0  0  0  0  0  0  0  0  0  0  0  0
  1  2  3  0  0  0  0
  3  4  1  0  0  0  0
  5  3  1  0  0  0  0
M  RAD  1   3   2
M  END
