Coordinates from ORCA-job NH2-N2+-scan-d09-169-n800
 OpenBabel09191813403D

  5  3  0  0  0  0  0  0  0  0999 V2000
    1.2210   -6.7905    0.0559 N   0  0  0  0  0  0  0  0  0  0  0  0
    1.4170   -7.8790    0.0559 N   0  0  0  0  0  0  0  0  0  0  0  0
   -0.3199    3.1624    0.0561 N   0  0  0  0  0  0  0  0  0  0  0  0
   -0.3429    3.7956    0.8956 H   0  0  0  0  0  0  0  0  0  0  0  0
   -0.3415    3.7955   -0.7834 H   0  0  0  0  0  0  0  0  0  0  0  0
  1  2  3  0  0  0  0
  3  4  1  0  0  0  0
  5  3  1  0  0  0  0
M  RAD  1   3   2
M  END
