Coordinates from ORCA-job C6H6+HOTf+NH2N2+-scan
 OpenBabel10221816143D

 26 24  0  0  0  0  0  0  0  0999 V2000
   -0.8066    0.4507    0.6643 N   0  0  0  0  0  0  0  0  0  0  0  0
   -1.4039    1.3923    0.5183 N   0  0  0  0  0  0  0  0  0  0  0  0
   -0.1300   -0.6102    0.7668 N   0  0  0  0  0  0  0  0  0  0  0  0
   -0.1058   -1.0771    1.7100 H   0  0  0  0  0  0  0  0  0  0  0  0
   -0.8576   -3.8708    4.4429 H   0  0  0  0  0  0  0  0  0  0  0  0
    0.0908   -3.2340   -1.8122 C   0  0  0  0  0  0  0  0  0  0  0  0
    1.1603   -2.8638   -0.9957 C   0  0  0  0  0  0  0  0  0  0  0  0
    1.7137   -1.5742   -1.1115 C   0  0  0  0  0  0  0  0  0  0  0  0
    1.2245   -0.6832   -2.0862 C   0  0  0  0  0  0  0  0  0  0  0  0
    0.1493   -1.0602   -2.8957 C   0  0  0  0  0  0  0  0  0  0  0  0
   -0.4139   -2.3332   -2.7569 C   0  0  0  0  0  0  0  0  0  0  0  0
   -0.3410   -4.2263   -1.7243 H   0  0  0  0  0  0  0  0  0  0  0  0
    1.5610   -3.5571   -0.2624 H   0  0  0  0  0  0  0  0  0  0  0  0
    2.5902   -1.3079   -0.5244 H   0  0  0  0  0  0  0  0  0  0  0  0
    1.6864    0.2931   -2.2079 H   0  0  0  0  0  0  0  0  0  0  0  0
   -0.2321   -0.3752   -3.6469 H   0  0  0  0  0  0  0  0  0  0  0  0
   -1.2421   -2.6279   -3.3947 H   0  0  0  0  0  0  0  0  0  0  0  0
    0.8442   -2.9720    3.4610 S   0  0  0  0  0  0  0  0  0  0  0  0
    1.7194   -3.4701    2.4227 O   0  0  0  0  0  0  0  0  0  0  0  0
   -0.0365   -1.8109    3.1997 O   0  0  0  0  0  0  0  0  0  0  0  0
   -0.0535   -4.1933    3.9933 O   0  0  0  0  0  0  0  0  0  0  0  0
    1.8426   -2.5467    4.9953 C   0  0  0  0  0  0  0  0  0  0  0  0
    0.9869   -2.3208    5.9860 F   0  0  0  0  0  0  0  0  0  0  0  0
    2.6368   -3.5599    5.2795 F   0  0  0  0  0  0  0  0  0  0  0  0
    2.5417   -1.4552    4.7221 F   0  0  0  0  0  0  0  0  0  0  0  0
    0.4980   -0.8840   -0.0530 H   0  0  0  0  0  0  0  0  0  0  0  0
  1  3  1  0  0  0  0
  2  1  1  0  0  0  0
  3  4  1  0  0  0  0
  6 12  1  0  0  0  0
  6  7  2  0  0  0  0
  7 13  1  0  0  0  0
  8  7  1  0  0  0  0
  8 14  1  0  0  0  0
  9  8  2  0  0  0  0
 10 11  2  0  0  0  0
 10  9  1  0  0  0  0
 11  6  1  0  0  0  0
 15  9  1  0  0  0  0
 16 10  1  0  0  0  0
 17 11  1  0  0  0  0
 18 21  1  0  0  0  0
 18 22  1  0  0  0  0
 19 18  2  0  0  0  0
 20 18  2  0  0  0  0
 21  5  1  0  0  0  0
 22 24  1  0  0  0  0
 22 23  1  0  0  0  0
 25 22  1  0  0  0  0
 26  3  1  0  0  0  0
M  RAD  2   1   2   2   3
M  END
