Coordinates from ORCA-job C6H6+HOTf+NH2N2+-scan
 OpenBabel10221816143D

 26 24  0  0  0  0  0  0  0  0999 V2000
   -2.8076   -2.2962    1.7671 N   0  0  0  0  0  0  0  0  0  0  0  0
   -3.9199   -2.4397    1.7997 N   0  0  0  0  0  0  0  0  0  0  0  0
   -1.5535   -2.1191    1.7624 N   0  0  0  0  0  0  0  0  0  0  0  0
   -1.0308   -1.9991    2.6963 H   0  0  0  0  0  0  0  0  0  0  0  0
    1.5355   -3.0151    5.4218 H   0  0  0  0  0  0  0  0  0  0  0  0
   -0.1715   -1.7340   -2.6350 C   0  0  0  0  0  0  0  0  0  0  0  0
    0.3480   -2.4562   -3.7128 C   0  0  0  0  0  0  0  0  0  0  0  0
    1.5314   -3.1882   -3.5656 C   0  0  0  0  0  0  0  0  0  0  0  0
    2.1833   -3.2118   -2.3278 C   0  0  0  0  0  0  0  0  0  0  0  0
    1.6693   -2.4903   -1.2461 C   0  0  0  0  0  0  0  0  0  0  0  0
    0.4946   -1.7444   -1.4032 C   0  0  0  0  0  0  0  0  0  0  0  0
   -1.0738   -1.1426   -2.7665 H   0  0  0  0  0  0  0  0  0  0  0  0
   -0.1615   -2.4355   -4.6717 H   0  0  0  0  0  0  0  0  0  0  0  0
    1.9402   -3.7385   -4.4076 H   0  0  0  0  0  0  0  0  0  0  0  0
    3.1015   -3.7799   -2.2095 H   0  0  0  0  0  0  0  0  0  0  0  0
    2.1956   -2.4854   -0.2953 H   0  0  0  0  0  0  0  0  0  0  0  0
    0.1515   -1.0941   -0.5951 H   0  0  0  0  0  0  0  0  0  0  0  0
    1.2920   -1.6230    3.7844 S   0  0  0  0  0  0  0  0  0  0  0  0
    1.8357   -1.6144    2.4446 O   0  0  0  0  0  0  0  0  0  0  0  0
   -0.1738   -1.8052    3.9698 O   0  0  0  0  0  0  0  0  0  0  0  0
    2.0595   -2.7336    4.6473 O   0  0  0  0  0  0  0  0  0  0  0  0
    1.7482   -0.0404    4.6975 C   0  0  0  0  0  0  0  0  0  0  0  0
    1.4133   -0.2021    5.9712 F   0  0  0  0  0  0  0  0  0  0  0  0
    3.0437    0.1580    4.5675 F   0  0  0  0  0  0  0  0  0  0  0  0
    1.0538    0.9422    4.1473 F   0  0  0  0  0  0  0  0  0  0  0  0
   -1.0822   -2.1893    0.8493 H   0  0  0  0  0  0  0  0  0  0  0  0
  1  2  1  0  0  0  0
  3  1  1  0  0  0  0
  3  4  1  0  0  0  0
  6 11  2  0  0  0  0
  7  8  2  0  0  0  0
  7  6  1  0  0  0  0
  8  9  1  0  0  0  0
  9 15  1  0  0  0  0
  9 10  2  0  0  0  0
 10 16  1  0  0  0  0
 11 10  1  0  0  0  0
 11 17  1  0  0  0  0
 12  6  1  0  0  0  0
 13  7  1  0  0  0  0
 14  8  1  0  0  0  0
 18 20  2  0  0  0  0
 18 21  1  0  0  0  0
 18 22  1  0  0  0  0
 19 18  2  0  0  0  0
 21  5  1  0  0  0  0
 22 23  1  0  0  0  0
 24 22  1  0  0  0  0
 25 22  1  0  0  0  0
 26  3  1  0  0  0  0
M  RAD  2   1   2   2   3
M  END
