Coordinates from ORCA-job C6H6+HOTf+NH2N2+-scan
 OpenBabel10221816143D

 26 25  0  0  1  0  0  0  0  0999 V2000
   -2.0662    0.5121    5.9624 N   0  0  0  0  0  0  0  0  0  0  0  0
   -1.7088   -0.3398    5.3583 N   0  0  0  0  0  0  0  0  0  0  0  0
    0.6807   -1.2847   -0.3601 N   0  0  0  0  0  0  0  0  0  0  0  0
    0.5925   -1.2482    0.6818 H   0  0  0  0  0  0  0  0  0  0  0  0
   -1.1510   -1.8975    4.3396 H   0  0  0  0  0  0  0  0  0  0  0  0
   -0.3371   -2.6121   -2.2326 C   0  0  0  0  0  0  0  0  0  0  0  0
    0.4081   -2.6272   -0.9793 C   0  0  1  0  0  0  0  0  0  0  0  0
    1.6573   -1.7239   -0.8798 C   0  0  1  0  0  0  0  0  0  0  0  0
    2.1510   -1.1745   -2.1748 C   0  0  0  0  0  0  0  0  0  0  0  0
    1.3321   -1.1356   -3.2492 C   0  0  0  0  0  0  0  0  0  0  0  0
    0.0552   -1.8304   -3.2677 C   0  0  0  0  0  0  0  0  0  0  0  0
   -1.1915   -3.2763   -2.3086 H   0  0  0  0  0  0  0  0  0  0  0  0
    0.2713   -3.3815   -0.2142 H   0  0  0  0  0  0  0  0  0  0  0  0
    2.4652   -2.0581   -0.2248 H   0  0  0  0  0  0  0  0  0  0  0  0
    3.1845   -0.8499   -2.2273 H   0  0  0  0  0  0  0  0  0  0  0  0
    1.6782   -0.6814   -4.1728 H   0  0  0  0  0  0  0  0  0  0  0  0
   -0.5315   -1.8104   -4.1804 H   0  0  0  0  0  0  0  0  0  0  0  0
    0.3549   -2.7325    3.0181 S   0  0  0  0  0  0  0  0  0  0  0  0
    0.3509   -3.8943    2.1494 O   0  0  0  0  0  0  0  0  0  0  0  0
    0.5294   -1.3904    2.4221 O   0  0  0  0  0  0  0  0  0  0  0  0
   -0.9638   -2.7651    3.9112 O   0  0  0  0  0  0  0  0  0  0  0  0
    1.6980   -2.9207    4.3137 C   0  0  0  0  0  0  0  0  0  0  0  0
    1.5273   -1.9629    5.2203 F   0  0  0  0  0  0  0  0  0  0  0  0
    1.5981   -4.1136    4.8680 F   0  0  0  0  0  0  0  0  0  0  0  0
    2.8660   -2.7794    3.7013 F   0  0  0  0  0  0  0  0  0  0  0  0
    0.1718   -0.4994   -0.7846 H   0  0  0  0  0  0  0  0  0  0  0  0
  2  1  3  0  0  0  0
  3  4  1  0  0  0  0
  6  7  1  0  0  0  0
  7  8  1  0  0  0  0
  7  3  1  0  0  0  0
  7 13  1  1  0  0  0
  8  3  1  0  0  0  0
  8 14  1  1  0  0  0
  9  8  1  0  0  0  0
 10  9  2  0  0  0  0
 11 10  1  0  0  0  0
 11  6  2  0  0  0  0
 12  6  1  0  0  0  0
 15  9  1  0  0  0  0
 16 10  1  0  0  0  0
 17 11  1  0  0  0  0
 18 21  1  0  0  0  0
 18 22  1  0  0  0  0
 19 18  2  0  0  0  0
 20 18  2  0  0  0  0
 21  5  1  0  0  0  0
 22 24  1  0  0  0  0
 22 23  1  0  0  0  0
 25 22  1  0  0  0  0
 26  3  1  0  0  0  0
M  END
