Coordinates from ORCA-job C6H6+HOTf+NH2N2+-scan
 OpenBabel10221816143D

 26 24  0  0  0  0  0  0  0  0999 V2000
   -1.1352    0.3714    0.8171 N   0  0  0  0  0  0  0  0  0  0  0  0
   -1.8929    1.2031    0.7911 N   0  0  0  0  0  0  0  0  0  0  0  0
   -0.2515   -0.5343    0.7386 N   0  0  0  0  0  0  0  0  0  0  0  0
   -0.0889   -1.0799    1.6162 H   0  0  0  0  0  0  0  0  0  0  0  0
   -0.6474   -3.7741    4.5967 H   0  0  0  0  0  0  0  0  0  0  0  0
   -0.0723   -3.2188   -2.0233 C   0  0  0  0  0  0  0  0  0  0  0  0
    0.6648   -2.9464   -0.8730 C   0  0  0  0  0  0  0  0  0  0  0  0
    1.3194   -1.7060   -0.7358 C   0  0  0  0  0  0  0  0  0  0  0  0
    1.3128   -0.7913   -1.8107 C   0  0  0  0  0  0  0  0  0  0  0  0
    0.5643   -1.0694   -2.9583 C   0  0  0  0  0  0  0  0  0  0  0  0
   -0.1287   -2.2785   -3.0605 C   0  0  0  0  0  0  0  0  0  0  0  0
   -0.5885   -4.1684   -2.1249 H   0  0  0  0  0  0  0  0  0  0  0  0
    0.7373   -3.6792   -0.0752 H   0  0  0  0  0  0  0  0  0  0  0  0
    1.9753   -1.5377    0.1147 H   0  0  0  0  0  0  0  0  0  0  0  0
    1.8721    0.1375   -1.7328 H   0  0  0  0  0  0  0  0  0  0  0  0
    0.5451   -0.3581   -3.7781 H   0  0  0  0  0  0  0  0  0  0  0  0
   -0.7017   -2.4973   -3.9565 H   0  0  0  0  0  0  0  0  0  0  0  0
    0.9693   -2.9479    3.4252 S   0  0  0  0  0  0  0  0  0  0  0  0
    1.7639   -3.5199    2.3593 O   0  0  0  0  0  0  0  0  0  0  0  0
    0.0726   -1.8043    3.1524 O   0  0  0  0  0  0  0  0  0  0  0  0
    0.1169   -4.1288    4.1042 O   0  0  0  0  0  0  0  0  0  0  0  0
    2.0843   -2.4303    4.8465 C   0  0  0  0  0  0  0  0  0  0  0  0
    1.3082   -2.1346    5.8836 F   0  0  0  0  0  0  0  0  0  0  0  0
    2.8974   -3.4271    5.1352 F   0  0  0  0  0  0  0  0  0  0  0  0
    2.7613   -1.3628    4.4494 F   0  0  0  0  0  0  0  0  0  0  0  0
    0.1646   -0.7947   -0.2109 H   0  0  0  0  0  0  0  0  0  0  0  0
  2  1  1  0  0  0  0
  3  1  1  0  0  0  0
  3  4  1  0  0  0  0
  6  7  2  0  0  0  0
  7  8  1  0  0  0  0
  7 13  1  0  0  0  0
  8 14  1  0  0  0  0
  9 15  1  0  0  0  0
  9  8  2  0  0  0  0
 10  9  1  0  0  0  0
 11 10  2  0  0  0  0
 11  6  1  0  0  0  0
 12  6  1  0  0  0  0
 16 10  1  0  0  0  0
 17 11  1  0  0  0  0
 18 21  1  0  0  0  0
 18 22  1  0  0  0  0
 19 18  2  0  0  0  0
 20 18  2  0  0  0  0
 21  5  1  0  0  0  0
 22 24  1  0  0  0  0
 22 23  1  0  0  0  0
 25 22  1  0  0  0  0
 26  3  1  0  0  0  0
M  RAD  2   1   2   2   3
M  END
