Coordinates from ORCA-job C6H6+HOTf+NH2N2+-scan
 OpenBabel10221816143D

 26 24  0  0  0  0  0  0  0  0999 V2000
   -2.0647   -2.6252    0.6553 N   0  0  0  0  0  0  0  0  0  0  0  0
   -3.0721   -3.0724    0.4370 N   0  0  0  0  0  0  0  0  0  0  0  0
   -0.9396   -2.0962    0.8799 N   0  0  0  0  0  0  0  0  0  0  0  0
   -0.5752   -2.1006    1.8734 H   0  0  0  0  0  0  0  0  0  0  0  0
    1.7067   -3.2471    4.9109 H   0  0  0  0  0  0  0  0  0  0  0  0
   -0.1607   -1.3363   -2.2950 C   0  0  0  0  0  0  0  0  0  0  0  0
   -0.2411   -2.5816   -2.9249 C   0  0  0  0  0  0  0  0  0  0  0  0
    0.6892   -3.5816   -2.6188 C   0  0  0  0  0  0  0  0  0  0  0  0
    1.6926   -3.3473   -1.6732 C   0  0  0  0  0  0  0  0  0  0  0  0
    1.7773   -2.1061   -1.0361 C   0  0  0  0  0  0  0  0  0  0  0  0
    0.8487   -1.0960   -1.3451 C   0  0  0  0  0  0  0  0  0  0  0  0
   -0.8598   -0.5460   -2.5546 H   0  0  0  0  0  0  0  0  0  0  0  0
   -1.0109   -2.7650   -3.6687 H   0  0  0  0  0  0  0  0  0  0  0  0
    0.6337   -4.5426   -3.1217 H   0  0  0  0  0  0  0  0  0  0  0  0
    2.4160   -4.1243   -1.4451 H   0  0  0  0  0  0  0  0  0  0  0  0
    2.5613   -1.9124   -0.3099 H   0  0  0  0  0  0  0  0  0  0  0  0
    0.9518   -0.1101   -0.8973 H   0  0  0  0  0  0  0  0  0  0  0  0
    1.4669   -1.5858    3.5497 S   0  0  0  0  0  0  0  0  0  0  0  0
    2.2420   -1.1713    2.4010 O   0  0  0  0  0  0  0  0  0  0  0  0
    0.0718   -2.0540    3.3694 O   0  0  0  0  0  0  0  0  0  0  0  0
    2.2919   -2.7141    4.3395 O   0  0  0  0  0  0  0  0  0  0  0  0
    1.4045   -0.2047    4.8240 C   0  0  0  0  0  0  0  0  0  0  0  0
    0.8868   -0.7067    5.9391 F   0  0  0  0  0  0  0  0  0  0  0  0
    2.6294    0.2374    5.0286 F   0  0  0  0  0  0  0  0  0  0  0  0
    0.6282    0.7495    4.3336 F   0  0  0  0  0  0  0  0  0  0  0  0
   -0.3520   -1.8373    0.0392 H   0  0  0  0  0  0  0  0  0  0  0  0
  1  3  1  0  0  0  0
  2  1  1  0  0  0  0
  3  4  1  0  0  0  0
  6 11  2  0  0  0  0
  7  8  2  0  0  0  0
  7  6  1  0  0  0  0
  8  9  1  0  0  0  0
  9 15  1  0  0  0  0
  9 10  2  0  0  0  0
 10 16  1  0  0  0  0
 11 10  1  0  0  0  0
 11 17  1  0  0  0  0
 12  6  1  0  0  0  0
 13  7  1  0  0  0  0
 14  8  1  0  0  0  0
 18 21  1  0  0  0  0
 18 22  1  0  0  0  0
 19 18  2  0  0  0  0
 20 18  2  0  0  0  0
 21  5  1  0  0  0  0
 22 24  1  0  0  0  0
 22 23  1  0  0  0  0
 25 22  1  0  0  0  0
 26  3  1  0  0  0  0
M  RAD  2   1   2   2   3
M  END
