Coordinates from ORCA-job C6H6+HOTf+NH2N2+-scan
 OpenBabel10221816143D

 26 24  0  0  0  0  0  0  0  0999 V2000
   -2.6787   -2.3580    1.5644 N   0  0  0  0  0  0  0  0  0  0  0  0
   -3.7773   -2.5862    1.5580 N   0  0  0  0  0  0  0  0  0  0  0  0
   -1.4437   -2.0784    1.5909 N   0  0  0  0  0  0  0  0  0  0  0  0
   -0.9488   -1.9916    2.5388 H   0  0  0  0  0  0  0  0  0  0  0  0
    1.5663   -3.0574    5.3220 H   0  0  0  0  0  0  0  0  0  0  0  0
   -0.1966   -1.6850   -2.5480 C   0  0  0  0  0  0  0  0  0  0  0  0
    0.2529   -2.4820   -3.6039 C   0  0  0  0  0  0  0  0  0  0  0  0
    1.4084   -3.2586   -3.4586 C   0  0  0  0  0  0  0  0  0  0  0  0
    2.0987   -3.2561   -2.2412 C   0  0  0  0  0  0  0  0  0  0  0  0
    1.6555   -2.4601   -1.1808 C   0  0  0  0  0  0  0  0  0  0  0  0
    0.5114   -1.6653   -1.3380 C   0  0  0  0  0  0  0  0  0  0  0  0
   -1.0714   -1.0541   -2.6818 H   0  0  0  0  0  0  0  0  0  0  0  0
   -0.2862   -2.4828   -4.5467 H   0  0  0  0  0  0  0  0  0  0  0  0
    1.7649   -3.8646   -4.2861 H   0  0  0  0  0  0  0  0  0  0  0  0
    2.9941   -3.8597   -2.1249 H   0  0  0  0  0  0  0  0  0  0  0  0
    2.2155   -2.4301   -0.2501 H   0  0  0  0  0  0  0  0  0  0  0  0
    0.2426   -0.9428   -0.5642 H   0  0  0  0  0  0  0  0  0  0  0  0
    1.3354   -1.5979    3.7430 S   0  0  0  0  0  0  0  0  0  0  0  0
    1.9326   -1.5051    2.4293 O   0  0  0  0  0  0  0  0  0  0  0  0
   -0.1275   -1.8391    3.8611 O   0  0  0  0  0  0  0  0  0  0  0  0
    2.1100   -2.7214    4.5836 O   0  0  0  0  0  0  0  0  0  0  0  0
    1.6999   -0.0472    4.7465 C   0  0  0  0  0  0  0  0  0  0  0  0
    1.3220   -0.2806    5.9970 F   0  0  0  0  0  0  0  0  0  0  0  0
    2.9918    0.2010    4.6788 F   0  0  0  0  0  0  0  0  0  0  0  0
    0.9934    0.9377    4.2158 F   0  0  0  0  0  0  0  0  0  0  0  0
   -0.9427   -2.1126    0.6853 H   0  0  0  0  0  0  0  0  0  0  0  0
  1  3  1  0  0  0  0
  2  1  1  0  0  0  0
  3  4  1  0  0  0  0
  6 11  2  0  0  0  0
  7  8  2  0  0  0  0
  7  6  1  0  0  0  0
  8  9  1  0  0  0  0
  9 15  1  0  0  0  0
  9 10  2  0  0  0  0
 10 16  1  0  0  0  0
 11 10  1  0  0  0  0
 11 17  1  0  0  0  0
 12  6  1  0  0  0  0
 13  7  1  0  0  0  0
 14  8  1  0  0  0  0
 18 20  2  0  0  0  0
 18 21  1  0  0  0  0
 18 22  1  0  0  0  0
 19 18  2  0  0  0  0
 21  5  1  0  0  0  0
 22 23  1  0  0  0  0
 24 22  1  0  0  0  0
 25 22  1  0  0  0  0
 26  3  1  0  0  0  0
M  RAD  2   1   2   2   3
M  END
