Coordinates from ORCA-job C6H6+HOTf+NH2N2+-scan
 OpenBabel10221816143D

 26 24  0  0  0  0  0  0  0  0999 V2000
   -2.7294   -2.3304    1.6417 N   0  0  0  0  0  0  0  0  0  0  0  0
   -3.8347   -2.5236    1.6499 N   0  0  0  0  0  0  0  0  0  0  0  0
   -1.4853   -2.0942    1.6571 N   0  0  0  0  0  0  0  0  0  0  0  0
   -0.9808   -1.9937    2.6005 H   0  0  0  0  0  0  0  0  0  0  0  0
    1.5513   -3.0419    5.3624 H   0  0  0  0  0  0  0  0  0  0  0  0
   -0.1898   -1.7085   -2.5809 C   0  0  0  0  0  0  0  0  0  0  0  0
    0.2893   -2.4745   -3.6470 C   0  0  0  0  0  0  0  0  0  0  0  0
    1.4584   -3.2304   -3.5030 C   0  0  0  0  0  0  0  0  0  0  0  0
    2.1341   -3.2366   -2.2775 C   0  0  0  0  0  0  0  0  0  0  0  0
    1.6610   -2.4716   -1.2069 C   0  0  0  0  0  0  0  0  0  0  0  0
    0.5024   -1.6989   -1.3623 C   0  0  0  0  0  0  0  0  0  0  0  0
   -1.0774   -1.0954   -2.7126 H   0  0  0  0  0  0  0  0  0  0  0  0
   -0.2388   -2.4677   -4.5960 H   0  0  0  0  0  0  0  0  0  0  0  0
    1.8370   -3.8130   -4.3374 H   0  0  0  0  0  0  0  0  0  0  0  0
    3.0405   -3.8236   -2.1614 H   0  0  0  0  0  0  0  0  0  0  0  0
    2.2084   -2.4502   -0.2685 H   0  0  0  0  0  0  0  0  0  0  0  0
    0.2029   -1.0046   -0.5736 H   0  0  0  0  0  0  0  0  0  0  0  0
    1.3183   -1.6079    3.7602 S   0  0  0  0  0  0  0  0  0  0  0  0
    1.8956   -1.5487    2.4358 O   0  0  0  0  0  0  0  0  0  0  0  0
   -0.1466   -1.8247    3.9044 O   0  0  0  0  0  0  0  0  0  0  0  0
    2.0884   -2.7275    4.6098 O   0  0  0  0  0  0  0  0  0  0  0  0
    1.7205   -0.0444    4.7293 C   0  0  0  0  0  0  0  0  0  0  0  0
    1.3580   -0.2492    5.9892 F   0  0  0  0  0  0  0  0  0  0  0  0
    3.0146    0.1830    4.6377 F   0  0  0  0  0  0  0  0  0  0  0  0
    1.0204    0.9407    4.1906 F   0  0  0  0  0  0  0  0  0  0  0  0
   -0.9953   -2.1407    0.7486 H   0  0  0  0  0  0  0  0  0  0  0  0
  1  2  1  0  0  0  0
  1  3  1  0  0  0  0
  3  4  1  0  0  0  0
  6 11  2  0  0  0  0
  7  8  2  0  0  0  0
  7  6  1  0  0  0  0
  8  9  1  0  0  0  0
  9 15  1  0  0  0  0
  9 10  2  0  0  0  0
 10 16  1  0  0  0  0
 11 10  1  0  0  0  0
 11 17  1  0  0  0  0
 12  6  1  0  0  0  0
 13  7  1  0  0  0  0
 14  8  1  0  0  0  0
 18 20  2  0  0  0  0
 18 21  1  0  0  0  0
 18 22  1  0  0  0  0
 19 18  2  0  0  0  0
 21  5  1  0  0  0  0
 22 23  1  0  0  0  0
 24 22  1  0  0  0  0
 25 22  1  0  0  0  0
 26  3  1  0  0  0  0
M  RAD  2   1   2   2   3
M  END
