Coordinates from ORCA-job C6H6+HOTf+NH2N2+-scan
 OpenBabel10221816143D

 26 24  0  0  0  0  0  0  0  0999 V2000
   -1.5297   -0.2338    0.5226 N   0  0  0  0  0  0  0  0  0  0  0  0
   -2.4069    0.4429    0.3368 N   0  0  0  0  0  0  0  0  0  0  0  0
   -0.5529   -1.0153    0.7046 N   0  0  0  0  0  0  0  0  0  0  0  0
   -0.3796   -1.3645    1.6885 H   0  0  0  0  0  0  0  0  0  0  0  0
   -0.1084   -4.0426    4.5676 H   0  0  0  0  0  0  0  0  0  0  0  0
   -0.2878   -2.9420   -2.4605 C   0  0  0  0  0  0  0  0  0  0  0  0
    0.6711   -3.4300   -1.5675 C   0  0  0  0  0  0  0  0  0  0  0  0
    1.6392   -2.5695   -1.0396 C   0  0  0  0  0  0  0  0  0  0  0  0
    1.6441   -1.2126   -1.4076 C   0  0  0  0  0  0  0  0  0  0  0  0
    0.6806   -0.7261   -2.3089 C   0  0  0  0  0  0  0  0  0  0  0  0
   -0.2866   -1.5921   -2.8295 C   0  0  0  0  0  0  0  0  0  0  0  0
   -1.0319   -3.6148   -2.8766 H   0  0  0  0  0  0  0  0  0  0  0  0
    0.6727   -4.4804   -1.2922 H   0  0  0  0  0  0  0  0  0  0  0  0
    2.3882   -2.9458   -0.3493 H   0  0  0  0  0  0  0  0  0  0  0  0
    2.4187   -0.5502   -1.0300 H   0  0  0  0  0  0  0  0  0  0  0  0
    0.7032    0.3163   -2.6151 H   0  0  0  0  0  0  0  0  0  0  0  0
   -1.0233   -1.2212   -3.5362 H   0  0  0  0  0  0  0  0  0  0  0  0
    1.1673   -2.6591    3.5046 S   0  0  0  0  0  0  0  0  0  0  0  0
    2.1640   -2.8725    2.4794 O   0  0  0  0  0  0  0  0  0  0  0  0
   -0.0686   -1.9011    3.1943 O   0  0  0  0  0  0  0  0  0  0  0  0
    0.7570   -4.0852    4.1180 O   0  0  0  0  0  0  0  0  0  0  0  0
    1.9391   -1.8166    4.9974 C   0  0  0  0  0  0  0  0  0  0  0  0
    1.0539   -1.8561    5.9868 F   0  0  0  0  0  0  0  0  0  0  0  0
    3.0419   -2.4608    5.3240 F   0  0  0  0  0  0  0  0  0  0  0  0
    2.2019   -0.5652    4.6527 F   0  0  0  0  0  0  0  0  0  0  0  0
    0.1555   -1.0798   -0.0742 H   0  0  0  0  0  0  0  0  0  0  0  0
  1  3  1  0  0  0  0
  2  1  1  0  0  0  0
  3  4  1  0  0  0  0
  6  7  1  0  0  0  0
  7 13  1  0  0  0  0
  7  8  2  0  0  0  0
  8 14  1  0  0  0  0
  9  8  1  0  0  0  0
  9 15  1  0  0  0  0
 10  9  2  0  0  0  0
 11  6  2  0  0  0  0
 11 10  1  0  0  0  0
 12  6  1  0  0  0  0
 16 10  1  0  0  0  0
 17 11  1  0  0  0  0
 18 21  1  0  0  0  0
 18 22  1  0  0  0  0
 19 18  2  0  0  0  0
 20 18  2  0  0  0  0
 21  5  1  0  0  0  0
 22 24  1  0  0  0  0
 22 23  1  0  0  0  0
 25 22  1  0  0  0  0
 26  3  1  0  0  0  0
M  RAD  2   1   2   2   3
M  END
