Coordinates from ORCA-job C6H6+HOTf+NH2N2+-scan
 OpenBabel10221816143D

 26 24  0  0  0  0  0  0  0  0999 V2000
   -2.0860   -2.4328    0.5712 N   0  0  0  0  0  0  0  0  0  0  0  0
   -3.1264   -2.8087    0.3749 N   0  0  0  0  0  0  0  0  0  0  0  0
   -0.9203   -1.9919    0.7755 N   0  0  0  0  0  0  0  0  0  0  0  0
   -0.5332   -2.0410    1.7594 H   0  0  0  0  0  0  0  0  0  0  0  0
    1.6633   -3.4083    4.7643 H   0  0  0  0  0  0  0  0  0  0  0  0
   -0.2239   -1.4142   -2.3904 C   0  0  0  0  0  0  0  0  0  0  0  0
   -0.2629   -2.7561   -2.7828 C   0  0  0  0  0  0  0  0  0  0  0  0
    0.7136   -3.6473   -2.3235 C   0  0  0  0  0  0  0  0  0  0  0  0
    1.7254   -3.2053   -1.4654 C   0  0  0  0  0  0  0  0  0  0  0  0
    1.7688   -1.8661   -1.0654 C   0  0  0  0  0  0  0  0  0  0  0  0
    0.7906   -0.9669   -1.5253 C   0  0  0  0  0  0  0  0  0  0  0  0
   -0.9617   -0.7117   -2.7686 H   0  0  0  0  0  0  0  0  0  0  0  0
   -1.0372   -3.1011   -3.4618 H   0  0  0  0  0  0  0  0  0  0  0  0
    0.6894   -4.6855   -2.6417 H   0  0  0  0  0  0  0  0  0  0  0  0
    2.4864   -3.8987   -1.1201 H   0  0  0  0  0  0  0  0  0  0  0  0
    2.5555   -1.5168   -0.4033 H   0  0  0  0  0  0  0  0  0  0  0  0
    0.8479    0.0839   -1.2521 H   0  0  0  0  0  0  0  0  0  0  0  0
    1.5057   -1.6624    3.5003 S   0  0  0  0  0  0  0  0  0  0  0  0
    2.3254   -1.1977    2.4038 O   0  0  0  0  0  0  0  0  0  0  0  0
    0.1045   -2.0808    3.2548 O   0  0  0  0  0  0  0  0  0  0  0  0
    2.2778   -2.8603    4.2400 O   0  0  0  0  0  0  0  0  0  0  0  0
    1.4390   -0.3639    4.8582 C   0  0  0  0  0  0  0  0  0  0  0  0
    0.8785   -0.9227    5.9248 F   0  0  0  0  0  0  0  0  0  0  0  0
    2.6673    0.0341    5.1238 F   0  0  0  0  0  0  0  0  0  0  0  0
    0.6989    0.6386    4.4100 F   0  0  0  0  0  0  0  0  0  0  0  0
   -0.3637   -1.6944   -0.0703 H   0  0  0  0  0  0  0  0  0  0  0  0
  1  3  1  0  0  0  0
  2  1  1  0  0  0  0
  3  4  1  0  0  0  0
  6 11  1  0  0  0  0
  7  6  2  0  0  0  0
  7  8  1  0  0  0  0
  8  9  2  0  0  0  0
  9 15  1  0  0  0  0
  9 10  1  0  0  0  0
 10 16  1  0  0  0  0
 11 17  1  0  0  0  0
 11 10  2  0  0  0  0
 12  6  1  0  0  0  0
 13  7  1  0  0  0  0
 14  8  1  0  0  0  0
 18 21  1  0  0  0  0
 18 22  1  0  0  0  0
 19 18  2  0  0  0  0
 20 18  2  0  0  0  0
 21  5  1  0  0  0  0
 22 24  1  0  0  0  0
 22 23  1  0  0  0  0
 25 22  1  0  0  0  0
 26  3  1  0  0  0  0
M  RAD  2   1   2   2   3
M  END
