Coordinates from ORCA-job C6H6+HOTf+NH2N2+-scan
 OpenBabel10221816143D

 26 24  0  0  0  0  0  0  0  0999 V2000
   -2.1882   -2.1136    0.4689 N   0  0  0  0  0  0  0  0  0  0  0  0
   -3.2955   -2.2812    0.3808 N   0  0  0  0  0  0  0  0  0  0  0  0
   -0.9348   -1.9624    0.5476 N   0  0  0  0  0  0  0  0  0  0  0  0
   -0.4996   -2.0305    1.5094 H   0  0  0  0  0  0  0  0  0  0  0  0
    1.2727   -3.7090    4.6223 H   0  0  0  0  0  0  0  0  0  0  0  0
   -0.2716   -1.6311   -2.5761 C   0  0  0  0  0  0  0  0  0  0  0  0
   -0.1346   -3.0162   -2.4320 C   0  0  0  0  0  0  0  0  0  0  0  0
    0.8710   -3.5362   -1.6098 C   0  0  0  0  0  0  0  0  0  0  0  0
    1.7608   -2.6810   -0.9525 C   0  0  0  0  0  0  0  0  0  0  0  0
    1.6284   -1.2947   -1.0928 C   0  0  0  0  0  0  0  0  0  0  0  0
    0.6036   -0.7670   -1.8960 C   0  0  0  0  0  0  0  0  0  0  0  0
   -1.0424   -1.2211   -3.2227 H   0  0  0  0  0  0  0  0  0  0  0  0
   -0.8029   -3.6865   -2.9647 H   0  0  0  0  0  0  0  0  0  0  0  0
    0.9774   -4.6119   -1.5035 H   0  0  0  0  0  0  0  0  0  0  0  0
    2.5540   -3.0860   -0.3318 H   0  0  0  0  0  0  0  0  0  0  0  0
    2.3162   -0.6282   -0.5813 H   0  0  0  0  0  0  0  0  0  0  0  0
    0.5078    0.3084   -2.0172 H   0  0  0  0  0  0  0  0  0  0  0  0
    1.5448   -1.9764    3.3577 S   0  0  0  0  0  0  0  0  0  0  0  0
    2.5182   -1.6848    2.3303 O   0  0  0  0  0  0  0  0  0  0  0  0
    0.1081   -2.1095    3.0171 O   0  0  0  0  0  0  0  0  0  0  0  0
    2.0135   -3.3022    4.1340 O   0  0  0  0  0  0  0  0  0  0  0  0
    1.6368   -0.6892    4.7243 C   0  0  0  0  0  0  0  0  0  0  0  0
    0.9091   -1.1299    5.7450 F   0  0  0  0  0  0  0  0  0  0  0  0
    2.8976   -0.5337    5.0761 F   0  0  0  0  0  0  0  0  0  0  0  0
    1.1336    0.4371    4.2420 F   0  0  0  0  0  0  0  0  0  0  0  0
   -0.4613   -1.5412   -0.2850 H   0  0  0  0  0  0  0  0  0  0  0  0
  1  3  1  0  0  0  0
  2  1  1  0  0  0  0
  3  4  1  0  0  0  0
  6  7  2  0  0  0  0
  6 11  1  0  0  0  0
  7  8  1  0  0  0  0
  8 14  1  0  0  0  0
  8  9  2  0  0  0  0
  9 15  1  0  0  0  0
 10  9  1  0  0  0  0
 10 16  1  0  0  0  0
 11 10  2  0  0  0  0
 12  6  1  0  0  0  0
 13  7  1  0  0  0  0
 17 11  1  0  0  0  0
 18 21  1  0  0  0  0
 18 22  1  0  0  0  0
 19 18  2  0  0  0  0
 20 18  2  0  0  0  0
 21  5  1  0  0  0  0
 22 24  1  0  0  0  0
 22 23  1  0  0  0  0
 25 22  1  0  0  0  0
 26  3  1  0  0  0  0
M  RAD  2   1   2   2   3
M  END
