Coordinates from ORCA-job C6H6+HOTf+NH2N2+-scan
 OpenBabel10221816143D

 26 24  0  0  0  0  0  0  0  0999 V2000
   -2.3568   -2.5997    1.1091 N   0  0  0  0  0  0  0  0  0  0  0  0
   -3.3923   -3.0136    0.9781 N   0  0  0  0  0  0  0  0  0  0  0  0
   -1.2025   -2.0947    1.2371 N   0  0  0  0  0  0  0  0  0  0  0  0
   -0.7832   -2.0524    2.2117 H   0  0  0  0  0  0  0  0  0  0  0  0
    1.6871   -3.0682    5.1305 H   0  0  0  0  0  0  0  0  0  0  0  0
   -0.1412   -1.4623   -2.3094 C   0  0  0  0  0  0  0  0  0  0  0  0
    0.0362   -2.4190   -3.3112 C   0  0  0  0  0  0  0  0  0  0  0  0
    1.0401   -3.3875   -3.1883 C   0  0  0  0  0  0  0  0  0  0  0  0
    1.8456   -3.4205   -2.0442 C   0  0  0  0  0  0  0  0  0  0  0  0
    1.6747   -2.4668   -1.0376 C   0  0  0  0  0  0  0  0  0  0  0  0
    0.6850   -1.4772   -1.1718 C   0  0  0  0  0  0  0  0  0  0  0  0
   -0.8874   -0.6814   -2.4310 H   0  0  0  0  0  0  0  0  0  0  0  0
   -0.5890   -2.3955   -4.1988 H   0  0  0  0  0  0  0  0  0  0  0  0
    1.1898   -4.1166   -3.9790 H   0  0  0  0  0  0  0  0  0  0  0  0
    2.6220   -4.1738   -1.9493 H   0  0  0  0  0  0  0  0  0  0  0  0
    2.3280   -2.4620   -0.1696 H   0  0  0  0  0  0  0  0  0  0  0  0
    0.6552   -0.6455   -0.4672 H   0  0  0  0  0  0  0  0  0  0  0  0
    1.3935   -1.5303    3.6405 S   0  0  0  0  0  0  0  0  0  0  0  0
    2.0641   -1.2765    2.3837 O   0  0  0  0  0  0  0  0  0  0  0  0
   -0.0348   -1.9320    3.6392 O   0  0  0  0  0  0  0  0  0  0  0  0
    2.2372   -2.6233    4.4576 O   0  0  0  0  0  0  0  0  0  0  0  0
    1.5276   -0.0289    4.7662 C   0  0  0  0  0  0  0  0  0  0  0  0
    1.0992   -0.3886    5.9701 F   0  0  0  0  0  0  0  0  0  0  0  0
    2.7873    0.3559    4.8068 F   0  0  0  0  0  0  0  0  0  0  0  0
    0.7548    0.9162    4.2543 F   0  0  0  0  0  0  0  0  0  0  0  0
   -0.6174   -2.0339    0.3628 H   0  0  0  0  0  0  0  0  0  0  0  0
  1  3  1  0  0  0  0
  2  1  1  0  0  0  0
  3  4  1  0  0  0  0
  6 11  2  0  0  0  0
  7  8  2  0  0  0  0
  7  6  1  0  0  0  0
  8  9  1  0  0  0  0
  9 15  1  0  0  0  0
  9 10  2  0  0  0  0
 10 16  1  0  0  0  0
 11 10  1  0  0  0  0
 11 17  1  0  0  0  0
 12  6  1  0  0  0  0
 13  7  1  0  0  0  0
 14  8  1  0  0  0  0
 18 21  1  0  0  0  0
 18 22  1  0  0  0  0
 19 18  2  0  0  0  0
 20 18  2  0  0  0  0
 21  5  1  0  0  0  0
 22 24  1  0  0  0  0
 22 23  1  0  0  0  0
 25 22  1  0  0  0  0
 26  3  1  0  0  0  0
M  RAD  2   1   2   2   3
M  END
