Coordinates from ORCA-job C6H6+HOTf+NH2N2+-scan
 OpenBabel10221816143D

 26 24  0  0  0  0  0  0  0  0999 V2000
   -2.5369   -2.4786    1.3595 N   0  0  0  0  0  0  0  0  0  0  0  0
   -3.6023   -2.8266    1.3033 N   0  0  0  0  0  0  0  0  0  0  0  0
   -1.3471   -2.0463    1.4247 N   0  0  0  0  0  0  0  0  0  0  0  0
   -0.8804   -1.9935    2.3834 H   0  0  0  0  0  0  0  0  0  0  0  0
    1.6153   -3.0685    5.2241 H   0  0  0  0  0  0  0  0  0  0  0  0
   -0.1781   -1.5853   -2.4366 C   0  0  0  0  0  0  0  0  0  0  0  0
    0.1604   -2.4553   -3.4759 C   0  0  0  0  0  0  0  0  0  0  0  0
    1.2524   -3.3218   -3.3425 C   0  0  0  0  0  0  0  0  0  0  0  0
    1.9857   -3.3390   -2.1501 C   0  0  0  0  0  0  0  0  0  0  0  0
    1.6537   -2.4708   -1.1061 C   0  0  0  0  0  0  0  0  0  0  0  0
    0.5760   -1.5829   -1.2522 C   0  0  0  0  0  0  0  0  0  0  0  0
   -0.9965   -0.8818   -2.5654 H   0  0  0  0  0  0  0  0  0  0  0  0
   -0.4114   -2.4420   -4.3990 H   0  0  0  0  0  0  0  0  0  0  0  0
    1.5258   -3.9825   -4.1595 H   0  0  0  0  0  0  0  0  0  0  0  0
    2.8307   -4.0126   -2.0435 H   0  0  0  0  0  0  0  0  0  0  0  0
    2.2517   -2.4529   -0.1992 H   0  0  0  0  0  0  0  0  0  0  0  0
    0.4159   -0.8000   -0.5087 H   0  0  0  0  0  0  0  0  0  0  0  0
    1.3650   -1.5643    3.6914 S   0  0  0  0  0  0  0  0  0  0  0  0
    2.0002   -1.3954    2.4030 O   0  0  0  0  0  0  0  0  0  0  0  0
   -0.0866   -1.8741    3.7538 O   0  0  0  0  0  0  0  0  0  0  0  0
    2.1657   -2.6827    4.5158 O   0  0  0  0  0  0  0  0  0  0  0  0
    1.6311   -0.0384    4.7604 C   0  0  0  0  0  0  0  0  0  0  0  0
    1.2265   -0.3334    5.9896 F   0  0  0  0  0  0  0  0  0  0  0  0
    2.9124    0.2681    4.7432 F   0  0  0  0  0  0  0  0  0  0  0  0
    0.8984    0.9352    4.2437 F   0  0  0  0  0  0  0  0  0  0  0  0
   -0.8051   -2.0527    0.5330 H   0  0  0  0  0  0  0  0  0  0  0  0
  1  3  1  0  0  0  0
  2  1  1  0  0  0  0
  3  4  1  0  0  0  0
  6 11  2  0  0  0  0
  7  8  2  0  0  0  0
  7  6  1  0  0  0  0
  8  9  1  0  0  0  0
  9 15  1  0  0  0  0
  9 10  2  0  0  0  0
 10 16  1  0  0  0  0
 11 10  1  0  0  0  0
 11 17  1  0  0  0  0
 12  6  1  0  0  0  0
 13  7  1  0  0  0  0
 14  8  1  0  0  0  0
 18 20  2  0  0  0  0
 18 21  1  0  0  0  0
 18 22  1  0  0  0  0
 19 18  2  0  0  0  0
 21  5  1  0  0  0  0
 22 23  1  0  0  0  0
 24 22  1  0  0  0  0
 25 22  1  0  0  0  0
 26  3  1  0  0  0  0
M  RAD  2   1   2   2   3
M  END
