Coordinates from ORCA-job C6H6+HOTf+NH2N2+-scan
 OpenBabel10221816143D

 26 24  0  0  0  0  0  0  0  0999 V2000
   -3.1740   -2.8570    2.2452 N   0  0  0  0  0  0  0  0  0  0  0  0
   -4.2885   -2.8637    2.3660 N   0  0  0  0  0  0  0  0  0  0  0  0
   -1.9060   -2.8746    2.1719 N   0  0  0  0  0  0  0  0  0  0  0  0
   -1.3288   -2.3724    2.9379 H   0  0  0  0  0  0  0  0  0  0  0  0
    1.2502   -1.9826    5.8145 H   0  0  0  0  0  0  0  0  0  0  0  0
    0.3794   -1.1419   -2.1365 C   0  0  0  0  0  0  0  0  0  0  0  0
    0.7593   -1.6349   -3.3877 C   0  0  0  0  0  0  0  0  0  0  0  0
    1.6358   -2.7204   -3.4773 C   0  0  0  0  0  0  0  0  0  0  0  0
    2.1231   -3.3203   -2.3124 C   0  0  0  0  0  0  0  0  0  0  0  0
    1.7460   -2.8288   -1.0591 C   0  0  0  0  0  0  0  0  0  0  0  0
    0.8761   -1.7372   -0.9725 C   0  0  0  0  0  0  0  0  0  0  0  0
   -0.2866   -0.2852   -2.0726 H   0  0  0  0  0  0  0  0  0  0  0  0
    0.3807   -1.1667   -4.2917 H   0  0  0  0  0  0  0  0  0  0  0  0
    1.9369   -3.0974   -4.4503 H   0  0  0  0  0  0  0  0  0  0  0  0
    2.8055   -4.1628   -2.3806 H   0  0  0  0  0  0  0  0  0  0  0  0
    2.1436   -3.2820   -0.1548 H   0  0  0  0  0  0  0  0  0  0  0  0
    0.6243   -1.3189    0.0015 H   0  0  0  0  0  0  0  0  0  0  0  0
    1.0735   -1.8292    3.6655 S   0  0  0  0  0  0  0  0  0  0  0  0
    1.5041   -2.7156    2.6077 O   0  0  0  0  0  0  0  0  0  0  0  0
   -0.3868   -1.6564    3.9107 O   0  0  0  0  0  0  0  0  0  0  0  0
    1.7730   -2.2612    5.0378 O   0  0  0  0  0  0  0  0  0  0  0  0
    1.7711   -0.1024    3.3915 C   0  0  0  0  0  0  0  0  0  0  0  0
    1.5039    0.6206    4.4700 F   0  0  0  0  0  0  0  0  0  0  0  0
    3.0681   -0.2003    3.1906 F   0  0  0  0  0  0  0  0  0  0  0  0
    1.1556    0.3936    2.3268 F   0  0  0  0  0  0  0  0  0  0  0  0
   -1.5169   -3.0802    1.2482 H   0  0  0  0  0  0  0  0  0  0  0  0
  1  2  1  0  0  0  0
  3  1  1  0  0  0  0
  3  4  1  0  0  0  0
  6 12  1  0  0  0  0
  6 11  2  0  0  0  0
  7  6  1  0  0  0  0
  8  7  2  0  0  0  0
  8  9  1  0  0  0  0
  9 10  2  0  0  0  0
 10 11  1  0  0  0  0
 10 16  1  0  0  0  0
 11 17  1  0  0  0  0
 13  7  1  0  0  0  0
 14  8  1  0  0  0  0
 15  9  1  0  0  0  0
 18 20  2  0  0  0  0
 18 21  1  0  0  0  0
 19 18  2  0  0  0  0
 21  5  1  0  0  0  0
 22 18  1  0  0  0  0
 22 23  1  0  0  0  0
 24 22  1  0  0  0  0
 25 22  1  0  0  0  0
 26  3  1  0  0  0  0
M  RAD  2   1   2   2   3
M  END
