Coordinates from ORCA-job C6H6+HOTf+NH2N2+-scan
 OpenBabel10221816143D

 26 24  0  0  0  0  0  0  0  0999 V2000
   -2.3366   -2.6104    1.0820 N   0  0  0  0  0  0  0  0  0  0  0  0
   -3.3685   -3.0308    0.9426 N   0  0  0  0  0  0  0  0  0  0  0  0
   -1.1865   -2.0984    1.2177 N   0  0  0  0  0  0  0  0  0  0  0  0
   -0.7724   -2.0581    2.1941 H   0  0  0  0  0  0  0  0  0  0  0  0
    1.6939   -3.0704    5.1203 H   0  0  0  0  0  0  0  0  0  0  0  0
   -0.1378   -1.4502   -2.2997 C   0  0  0  0  0  0  0  0  0  0  0  0
    0.0215   -2.4188   -3.2931 C   0  0  0  0  0  0  0  0  0  0  0  0
    1.0164   -3.3963   -3.1683 C   0  0  0  0  0  0  0  0  0  0  0  0
    1.8314   -3.4261   -2.0309 C   0  0  0  0  0  0  0  0  0  0  0  0
    1.6787   -2.4606   -1.0327 C   0  0  0  0  0  0  0  0  0  0  0  0
    0.6976   -1.4624   -1.1685 C   0  0  0  0  0  0  0  0  0  0  0  0
   -0.8770   -0.6630   -2.4227 H   0  0  0  0  0  0  0  0  0  0  0  0
   -0.6106   -2.3979   -4.1758 H   0  0  0  0  0  0  0  0  0  0  0  0
    1.1519   -4.1350   -3.9526 H   0  0  0  0  0  0  0  0  0  0  0  0
    2.6009   -4.1863   -1.9351 H   0  0  0  0  0  0  0  0  0  0  0  0
    2.3386   -2.4539   -0.1697 H   0  0  0  0  0  0  0  0  0  0  0  0
    0.6801   -0.6253   -0.4702 H   0  0  0  0  0  0  0  0  0  0  0  0
    1.3963   -1.5281    3.6358 S   0  0  0  0  0  0  0  0  0  0  0  0
    2.0704   -1.2647    2.3827 O   0  0  0  0  0  0  0  0  0  0  0  0
   -0.0293   -1.9387    3.6273 O   0  0  0  0  0  0  0  0  0  0  0  0
    2.2438   -2.6192    4.4515 O   0  0  0  0  0  0  0  0  0  0  0  0
    1.5168   -0.0308    4.7682 C   0  0  0  0  0  0  0  0  0  0  0  0
    1.0861   -0.3980    5.9690 F   0  0  0  0  0  0  0  0  0  0  0  0
    2.7741    0.3617    4.8153 F   0  0  0  0  0  0  0  0  0  0  0  0
    0.7402    0.9118    4.2574 F   0  0  0  0  0  0  0  0  0  0  0  0
   -0.5973   -2.0281    0.3457 H   0  0  0  0  0  0  0  0  0  0  0  0
  1  3  1  0  0  0  0
  2  1  1  0  0  0  0
  3  4  1  0  0  0  0
  6 11  2  0  0  0  0
  7  8  2  0  0  0  0
  7  6  1  0  0  0  0
  8  9  1  0  0  0  0
  9 15  1  0  0  0  0
  9 10  2  0  0  0  0
 10 16  1  0  0  0  0
 11 10  1  0  0  0  0
 11 17  1  0  0  0  0
 12  6  1  0  0  0  0
 13  7  1  0  0  0  0
 14  8  1  0  0  0  0
 18 21  1  0  0  0  0
 18 22  1  0  0  0  0
 19 18  2  0  0  0  0
 20 18  2  0  0  0  0
 21  5  1  0  0  0  0
 22 24  1  0  0  0  0
 22 23  1  0  0  0  0
 25 22  1  0  0  0  0
 26  3  1  0  0  0  0
M  RAD  2   1   2   2   3
M  END
