Coordinates from ORCA-job C6H6+HOTf+NH2N2+-scan
 OpenBabel10221816143D

 26 24  0  0  1  0  0  0  0  0999 V2000
   -1.6410    0.4557    6.2693 N   0  0  0  0  0  0  0  0  0  0  0  0
   -1.3958   -0.3892    5.6026 N   0  0  0  0  0  0  0  0  0  0  0  0
   -0.3808   -1.0694   -0.3525 N   0  0  0  0  0  0  0  0  0  0  0  0
   -0.1528   -0.9069    0.6295 H   0  0  0  0  0  0  0  0  0  0  0  0
   -1.0106   -1.9392    4.4563 H   0  0  0  0  0  0  0  0  0  0  0  0
   -0.2333   -2.5668   -2.3377 C   0  0  0  0  0  0  0  0  0  0  0  0
    0.2361   -2.2981   -0.9448 C   0  0  1  0  0  0  0  0  0  0  0  0
    1.5649   -1.6664   -0.8357 C   0  0  0  0  0  0  0  0  0  0  0  0
    2.2238   -1.1378   -1.9583 C   0  0  0  0  0  0  0  0  0  0  0  0
    1.6987   -1.3858   -3.2116 C   0  0  0  0  0  0  0  0  0  0  0  0
    0.4714   -2.1194   -3.4034 C   0  0  0  0  0  0  0  0  0  0  0  0
   -1.1524   -3.1315   -2.4621 H   0  0  0  0  0  0  0  0  0  0  0  0
    0.0550   -3.1310   -0.2618 H   0  0  0  0  0  0  0  0  0  0  0  0
    1.9902   -1.5778    0.1591 H   0  0  0  0  0  0  0  0  0  0  0  0
    3.1470   -0.5811   -1.8395 H   0  0  0  0  0  0  0  0  0  0  0  0
    2.2253   -1.0223   -4.0906 H   0  0  0  0  0  0  0  0  0  0  0  0
    0.1313   -2.3141   -4.4153 H   0  0  0  0  0  0  0  0  0  0  0  0
    0.3399   -2.7372    2.9632 S   0  0  0  0  0  0  0  0  0  0  0  0
    0.1897   -3.8263    2.0139 O   0  0  0  0  0  0  0  0  0  0  0  0
    0.5484   -1.3646    2.4781 O   0  0  0  0  0  0  0  0  0  0  0  0
   -0.8956   -2.7897    3.9753 O   0  0  0  0  0  0  0  0  0  0  0  0
    1.7686   -3.1274    4.1083 C   0  0  0  0  0  0  0  0  0  0  0  0
    1.7538   -2.2462    5.1053 F   0  0  0  0  0  0  0  0  0  0  0  0
    1.6370   -4.3570    4.5726 F   0  0  0  0  0  0  0  0  0  0  0  0
    2.8903   -3.0095    3.4053 F   0  0  0  0  0  0  0  0  0  0  0  0
   -0.3865   -0.2391   -0.9355 H   0  0  0  0  0  0  0  0  0  0  0  0
  2  1  3  0  0  0  0
  3  4  1  0  0  0  0
  6  7  1  0  0  0  0
  7  8  1  0  0  0  0
  7  3  1  0  0  0  0
  7 13  1  1  0  0  0
  8 14  1  0  0  0  0
  9 15  1  0  0  0  0
  9  8  1  0  0  0  0
 10  9  2  0  0  0  0
 11 10  1  0  0  0  0
 11  6  2  0  0  0  0
 12  6  1  0  0  0  0
 16 10  1  0  0  0  0
 17 11  1  0  0  0  0
 18 21  1  0  0  0  0
 18 22  1  0  0  0  0
 19 18  2  0  0  0  0
 20 18  2  0  0  0  0
 21  5  1  0  0  0  0
 22 24  1  0  0  0  0
 22 23  1  0  0  0  0
 25 22  1  0  0  0  0
 26  3  1  0  0  0  0
M  RAD  1   8   2
M  END
