Coordinates from ORCA-job C6H6+HOTf+NH2N2+-scan
 OpenBabel10221816143D

 26 24  0  0  0  0  0  0  0  0999 V2000
   -2.6088   -2.4417    1.4661 N   0  0  0  0  0  0  0  0  0  0  0  0
   -3.6836   -2.7622    1.4343 N   0  0  0  0  0  0  0  0  0  0  0  0
   -1.4073   -2.0396    1.5128 N   0  0  0  0  0  0  0  0  0  0  0  0
   -0.9266   -1.9787    2.4671 H   0  0  0  0  0  0  0  0  0  0  0  0
    1.5920   -3.0546    5.2718 H   0  0  0  0  0  0  0  0  0  0  0  0
   -0.1744   -1.6239   -2.4826 C   0  0  0  0  0  0  0  0  0  0  0  0
    0.2110   -2.4523   -3.5398 C   0  0  0  0  0  0  0  0  0  0  0  0
    1.3268   -3.2881   -3.4102 C   0  0  0  0  0  0  0  0  0  0  0  0
    2.0389   -3.3148   -2.2053 C   0  0  0  0  0  0  0  0  0  0  0  0
    1.6597   -2.4881   -1.1437 C   0  0  0  0  0  0  0  0  0  0  0  0
    0.5572   -1.6323   -1.2855 C   0  0  0  0  0  0  0  0  0  0  0  0
   -1.0144   -0.9454   -2.6066 H   0  0  0  0  0  0  0  0  0  0  0  0
   -0.3449   -2.4307   -4.4724 H   0  0  0  0  0  0  0  0  0  0  0  0
    1.6352   -3.9172   -4.2396 H   0  0  0  0  0  0  0  0  0  0  0  0
    2.9030   -3.9642   -2.1010 H   0  0  0  0  0  0  0  0  0  0  0  0
    2.2396   -2.4790   -0.2249 H   0  0  0  0  0  0  0  0  0  0  0  0
    0.3518   -0.8829   -0.5183 H   0  0  0  0  0  0  0  0  0  0  0  0
    1.3428   -1.5747    3.7150 S   0  0  0  0  0  0  0  0  0  0  0  0
    1.9529   -1.4450    2.4101 O   0  0  0  0  0  0  0  0  0  0  0  0
   -0.1145   -1.8515    3.8125 O   0  0  0  0  0  0  0  0  0  0  0  0
    2.1351   -2.6948    4.5443 O   0  0  0  0  0  0  0  0  0  0  0  0
    1.6627   -0.0345    4.7488 C   0  0  0  0  0  0  0  0  0  0  0  0
    1.2776   -0.2979    5.9912 F   0  0  0  0  0  0  0  0  0  0  0  0
    2.9495    0.2436    4.6993 F   0  0  0  0  0  0  0  0  0  0  0  0
    0.9400    0.9441    4.2281 F   0  0  0  0  0  0  0  0  0  0  0  0
   -0.8786   -2.0715    0.6186 H   0  0  0  0  0  0  0  0  0  0  0  0
  1  3  1  0  0  0  0
  2  1  1  0  0  0  0
  3  4  1  0  0  0  0
  6 11  2  0  0  0  0
  7  8  2  0  0  0  0
  7  6  1  0  0  0  0
  8  9  1  0  0  0  0
  9 15  1  0  0  0  0
  9 10  2  0  0  0  0
 10 16  1  0  0  0  0
 11 10  1  0  0  0  0
 11 17  1  0  0  0  0
 12  6  1  0  0  0  0
 13  7  1  0  0  0  0
 14  8  1  0  0  0  0
 18 20  2  0  0  0  0
 18 21  1  0  0  0  0
 18 22  1  0  0  0  0
 19 18  2  0  0  0  0
 21  5  1  0  0  0  0
 22 23  1  0  0  0  0
 24 22  1  0  0  0  0
 25 22  1  0  0  0  0
 26  3  1  0  0  0  0
M  RAD  2   1   2   2   3
M  END
