Coordinates from ORCA-job C6H6+HOTf+NH2N2+-scan
 OpenBabel10221816143D

 26 24  0  0  0  0  0  0  0  0999 V2000
   -2.9333   -2.2791    1.9785 N   0  0  0  0  0  0  0  0  0  0  0  0
   -4.0471   -2.3856    2.0576 N   0  0  0  0  0  0  0  0  0  0  0  0
   -1.6748   -2.1407    1.9304 N   0  0  0  0  0  0  0  0  0  0  0  0
   -1.1181   -1.9845    2.8435 H   0  0  0  0  0  0  0  0  0  0  0  0
    1.4627   -2.9475    5.5679 H   0  0  0  0  0  0  0  0  0  0  0  0
   -0.1453   -1.7630   -2.7295 C   0  0  0  0  0  0  0  0  0  0  0  0
    0.4410   -2.4308   -3.8082 C   0  0  0  0  0  0  0  0  0  0  0  0
    1.6497   -3.1139   -3.6395 C   0  0  0  0  0  0  0  0  0  0  0  0
    2.2641   -3.1397   -2.3834 C   0  0  0  0  0  0  0  0  0  0  0  0
    1.6824   -2.4722   -1.3013 C   0  0  0  0  0  0  0  0  0  0  0  0
    0.4798   -1.7795   -1.4780 C   0  0  0  0  0  0  0  0  0  0  0  0
   -1.0724   -1.2143   -2.8733 H   0  0  0  0  0  0  0  0  0  0  0  0
   -0.0385   -2.4084   -4.7825 H   0  0  0  0  0  0  0  0  0  0  0  0
    2.1087   -3.6245   -4.4809 H   0  0  0  0  0  0  0  0  0  0  0  0
    3.2028   -3.6696   -2.2498 H   0  0  0  0  0  0  0  0  0  0  0  0
    2.1744   -2.4743   -0.3322 H   0  0  0  0  0  0  0  0  0  0  0  0
    0.0646   -1.1918   -0.6563 H   0  0  0  0  0  0  0  0  0  0  0  0
    1.2460   -1.6795    3.8285 S   0  0  0  0  0  0  0  0  0  0  0  0
    1.7434   -1.8113    2.4776 O   0  0  0  0  0  0  0  0  0  0  0  0
   -0.2221   -1.7605    4.0682 O   0  0  0  0  0  0  0  0  0  0  0  0
    1.9759   -2.7600    4.7584 O   0  0  0  0  0  0  0  0  0  0  0  0
    1.8184   -0.0572    4.5960 C   0  0  0  0  0  0  0  0  0  0  0  0
    1.5156   -0.0967    5.8871 F   0  0  0  0  0  0  0  0  0  0  0  0
    3.1179    0.0540    4.4145 F   0  0  0  0  0  0  0  0  0  0  0  0
    1.1623    0.9161    3.9858 F   0  0  0  0  0  0  0  0  0  0  0  0
   -1.2358   -2.2637    1.0112 H   0  0  0  0  0  0  0  0  0  0  0  0
  1  2  1  0  0  0  0
  3  1  1  0  0  0  0
  3  4  1  0  0  0  0
  6 11  2  0  0  0  0
  7  8  2  0  0  0  0
  7  6  1  0  0  0  0
  8  9  1  0  0  0  0
  9 15  1  0  0  0  0
  9 10  2  0  0  0  0
 10 16  1  0  0  0  0
 11 10  1  0  0  0  0
 11 17  1  0  0  0  0
 12  6  1  0  0  0  0
 13  7  1  0  0  0  0
 14  8  1  0  0  0  0
 18 20  2  0  0  0  0
 18 22  1  0  0  0  0
 18 21  1  0  0  0  0
 19 18  2  0  0  0  0
 21  5  1  0  0  0  0
 22 23  1  0  0  0  0
 24 22  1  0  0  0  0
 25 22  1  0  0  0  0
 26  3  1  0  0  0  0
M  RAD  2   1   2   2   3
M  END
