Coordinates from ORCA-job C6H6+HOTf+NH2N2+-scan
 OpenBabel10221816143D

 26 24  0  0  1  0  0  0  0  0999 V2000
   -3.2198   -1.1364    6.0988 N   0  0  0  0  0  0  0  0  0  0  0  0
   -2.5851   -1.6975    5.3911 N   0  0  0  0  0  0  0  0  0  0  0  0
    1.3670   -0.3842    0.0003 N   0  0  0  0  0  0  0  0  0  0  0  0
    0.8623   -0.3106    0.8829 H   0  0  0  0  0  0  0  0  0  0  0  0
   -1.4705   -2.7290    4.1367 H   0  0  0  0  0  0  0  0  0  0  0  0
   -0.2388   -1.6651   -1.5058 C   0  0  0  0  0  0  0  0  0  0  0  0
    1.0353   -1.5642   -0.7475 C   0  0  1  0  0  0  0  0  0  0  0  0
    2.2602   -1.7077   -1.5014 C   0  0  0  0  0  0  0  0  0  0  0  0
    2.2594   -1.9596   -2.8587 C   0  0  0  0  0  0  0  0  0  0  0  0
    1.0189   -2.0996   -3.5075 C   0  0  0  0  0  0  0  0  0  0  0  0
   -0.2293   -1.9717   -2.8387 C   0  0  0  0  0  0  0  0  0  0  0  0
   -1.1679   -1.5202   -0.9602 H   0  0  0  0  0  0  0  0  0  0  0  0
    0.9980   -2.4212   -0.0239 H   0  0  0  0  0  0  0  0  0  0  0  0
    3.1814   -1.5857   -0.9428 H   0  0  0  0  0  0  0  0  0  0  0  0
    3.1810   -2.0326   -3.4261 H   0  0  0  0  0  0  0  0  0  0  0  0
    1.0096   -2.3017   -4.5768 H   0  0  0  0  0  0  0  0  0  0  0  0
   -1.1501   -2.0740   -3.4034 H   0  0  0  0  0  0  0  0  0  0  0  0
    0.3061   -2.5851    2.9162 S   0  0  0  0  0  0  0  0  0  0  0  0
    0.7348   -3.3748    1.7657 O   0  0  0  0  0  0  0  0  0  0  0  0
    0.0401   -1.1549    2.7699 O   0  0  0  0  0  0  0  0  0  0  0  0
   -0.9565   -3.3330    3.5547 O   0  0  0  0  0  0  0  0  0  0  0  0
    1.5780   -2.8039    4.2728 C   0  0  0  0  0  0  0  0  0  0  0  0
    1.0828   -2.2770    5.3897 F   0  0  0  0  0  0  0  0  0  0  0  0
    1.8264   -4.0923    4.4383 F   0  0  0  0  0  0  0  0  0  0  0  0
    2.6779   -2.1593    3.9048 F   0  0  0  0  0  0  0  0  0  0  0  0
    1.2214    0.4634   -0.5389 H   0  0  0  0  0  0  0  0  0  0  0  0
  2  1  3  0  0  0  0
  3  4  1  0  0  0  0
  6 12  1  0  0  0  0
  6  7  1  0  0  0  0
  7 13  1  1  0  0  0
  7  3  1  0  0  0  0
  8 14  1  0  0  0  0
  8  7  1  0  0  0  0
  9  8  2  0  0  0  0
 10  9  1  0  0  0  0
 10 11  1  0  0  0  0
 11  6  2  0  0  0  0
 15  9  1  0  0  0  0
 16 10  1  0  0  0  0
 17 11  1  0  0  0  0
 18 21  1  0  0  0  0
 18 22  1  0  0  0  0
 19 18  2  0  0  0  0
 20 18  2  0  0  0  0
 21  5  1  0  0  0  0
 22 24  1  0  0  0  0
 22 23  1  0  0  0  0
 25 22  1  0  0  0  0
 26  3  1  0  0  0  0
M  RAD  1  10   2
M  END
