Coordinates from ORCA-job C6H6+HOTf+NH2N2+-scan
 OpenBabel10221816143D

 26 24  0  0  0  0  0  0  0  0999 V2000
   -0.9930    0.4479    0.9239 N   0  0  0  0  0  0  0  0  0  0  0  0
   -1.6908    1.3192    1.0600 N   0  0  0  0  0  0  0  0  0  0  0  0
   -0.1682   -0.4880    0.6647 N   0  0  0  0  0  0  0  0  0  0  0  0
   -0.0065   -1.1510    1.4550 H   0  0  0  0  0  0  0  0  0  0  0  0
   -0.6490   -3.9108    4.3926 H   0  0  0  0  0  0  0  0  0  0  0  0
   -0.0767   -3.2344   -1.9181 C   0  0  0  0  0  0  0  0  0  0  0  0
    0.7014   -2.9141   -0.8063 C   0  0  0  0  0  0  0  0  0  0  0  0
    1.3417   -1.6650   -0.7363 C   0  0  0  0  0  0  0  0  0  0  0  0
    1.2845   -0.7891   -1.8406 C   0  0  0  0  0  0  0  0  0  0  0  0
    0.4943   -1.1152   -2.9499 C   0  0  0  0  0  0  0  0  0  0  0  0
   -0.1905   -2.3318   -2.9831 C   0  0  0  0  0  0  0  0  0  0  0  0
   -0.5814   -4.1945   -1.9672 H   0  0  0  0  0  0  0  0  0  0  0  0
    0.8208   -3.6235    0.0066 H   0  0  0  0  0  0  0  0  0  0  0  0
    2.0111   -1.4464    0.0910 H   0  0  0  0  0  0  0  0  0  0  0  0
    1.8423    0.1438   -1.8208 H   0  0  0  0  0  0  0  0  0  0  0  0
    0.4387   -0.4335   -3.7931 H   0  0  0  0  0  0  0  0  0  0  0  0
   -0.7964   -2.5876   -3.8470 H   0  0  0  0  0  0  0  0  0  0  0  0
    1.0149   -3.0051    3.3530 S   0  0  0  0  0  0  0  0  0  0  0  0
    1.9326   -3.5421    2.3721 O   0  0  0  0  0  0  0  0  0  0  0  0
    0.0775   -1.9225    2.9837 O   0  0  0  0  0  0  0  0  0  0  0  0
    0.1771   -4.2253    3.9790 O   0  0  0  0  0  0  0  0  0  0  0  0
    1.9675   -2.4004    4.8553 C   0  0  0  0  0  0  0  0  0  0  0  0
    1.0875   -2.1398    5.8164 F   0  0  0  0  0  0  0  0  0  0  0  0
    2.8125   -3.3394    5.2318 F   0  0  0  0  0  0  0  0  0  0  0  0
    2.6094   -1.2970    4.4984 F   0  0  0  0  0  0  0  0  0  0  0  0
    0.1615   -0.6325   -0.3312 H   0  0  0  0  0  0  0  0  0  0  0  0
  1  2  1  0  0  0  0
  3  1  1  0  0  0  0
  3  4  1  0  0  0  0
  6  7  2  0  0  0  0
  7  8  1  0  0  0  0
  7 13  1  0  0  0  0
  8 14  1  0  0  0  0
  9 15  1  0  0  0  0
  9  8  2  0  0  0  0
 10  9  1  0  0  0  0
 11 10  2  0  0  0  0
 11  6  1  0  0  0  0
 12  6  1  0  0  0  0
 16 10  1  0  0  0  0
 17 11  1  0  0  0  0
 18 21  1  0  0  0  0
 18 22  1  0  0  0  0
 19 18  2  0  0  0  0
 20 18  2  0  0  0  0
 21  5  1  0  0  0  0
 22 24  1  0  0  0  0
 22 23  1  0  0  0  0
 25 22  1  0  0  0  0
 26  3  1  0  0  0  0
M  RAD  2   1   2   2   3
M  END
