Coordinates from ORCA-job C6H6+HOTf+NH2N2+-scan
 OpenBabel10221816143D

 26 24  0  0  0  0  0  0  0  0999 V2000
   -2.3738   -2.5932    1.1311 N   0  0  0  0  0  0  0  0  0  0  0  0
   -3.4109   -3.0050    1.0068 N   0  0  0  0  0  0  0  0  0  0  0  0
   -1.2179   -2.0903    1.2532 N   0  0  0  0  0  0  0  0  0  0  0  0
   -0.7946   -2.0456    2.2265 H   0  0  0  0  0  0  0  0  0  0  0  0
    1.6702   -3.0684    5.1448 H   0  0  0  0  0  0  0  0  0  0  0  0
   -0.1480   -1.4732   -2.3194 C   0  0  0  0  0  0  0  0  0  0  0  0
    0.0481   -2.4224   -3.3250 C   0  0  0  0  0  0  0  0  0  0  0  0
    1.0629   -3.3793   -3.2003 C   0  0  0  0  0  0  0  0  0  0  0  0
    1.8606   -3.4084   -2.0506 C   0  0  0  0  0  0  0  0  0  0  0  0
    1.6710   -2.4622   -1.0402 C   0  0  0  0  0  0  0  0  0  0  0  0
    0.6704   -1.4841   -1.1763 C   0  0  0  0  0  0  0  0  0  0  0  0
   -0.9030   -0.7010   -2.4423 H   0  0  0  0  0  0  0  0  0  0  0  0
   -0.5712   -2.4017   -4.2168 H   0  0  0  0  0  0  0  0  0  0  0  0
    1.2271   -4.1022   -3.9937 H   0  0  0  0  0  0  0  0  0  0  0  0
    2.6454   -4.1527   -1.9540 H   0  0  0  0  0  0  0  0  0  0  0  0
    2.3184   -2.4540   -0.1677 H   0  0  0  0  0  0  0  0  0  0  0  0
    0.6264   -0.6556   -0.4685 H   0  0  0  0  0  0  0  0  0  0  0  0
    1.3904   -1.5381    3.6443 S   0  0  0  0  0  0  0  0  0  0  0  0
    2.0606   -1.3009    2.3840 O   0  0  0  0  0  0  0  0  0  0  0  0
   -0.0424   -1.9238    3.6491 O   0  0  0  0  0  0  0  0  0  0  0  0
    2.2235   -2.6346    4.4673 O   0  0  0  0  0  0  0  0  0  0  0  0
    1.5436   -0.0302    4.7588 C   0  0  0  0  0  0  0  0  0  0  0  0
    1.1141   -0.3765    5.9662 F   0  0  0  0  0  0  0  0  0  0  0  0
    2.8076    0.3410    4.7937 F   0  0  0  0  0  0  0  0  0  0  0  0
    0.7801    0.9196    4.2419 F   0  0  0  0  0  0  0  0  0  0  0  0
   -0.6361   -2.0351    0.3773 H   0  0  0  0  0  0  0  0  0  0  0  0
  1  3  1  0  0  0  0
  2  1  1  0  0  0  0
  3  4  1  0  0  0  0
  6 11  2  0  0  0  0
  7  8  2  0  0  0  0
  7  6  1  0  0  0  0
  8  9  1  0  0  0  0
  9 15  1  0  0  0  0
  9 10  2  0  0  0  0
 10 16  1  0  0  0  0
 11 10  1  0  0  0  0
 11 17  1  0  0  0  0
 12  6  1  0  0  0  0
 13  7  1  0  0  0  0
 14  8  1  0  0  0  0
 18 20  2  0  0  0  0
 18 21  1  0  0  0  0
 18 22  1  0  0  0  0
 19 18  2  0  0  0  0
 21  5  1  0  0  0  0
 22 24  1  0  0  0  0
 22 23  1  0  0  0  0
 25 22  1  0  0  0  0
 26  3  1  0  0  0  0
M  RAD  2   1   2   2   3
M  END
