Coordinates from ORCA-job C6H6+HOTf+NH2N2+-scan
 OpenBabel10221816143D

 26 25  0  0  1  0  0  0  0  0999 V2000
   -2.0617    0.5091    5.9777 N   0  0  0  0  0  0  0  0  0  0  0  0
   -1.7062   -0.3419    5.3712 N   0  0  0  0  0  0  0  0  0  0  0  0
    0.6679   -1.2761   -0.3580 N   0  0  0  0  0  0  0  0  0  0  0  0
    0.5833   -1.2398    0.6831 H   0  0  0  0  0  0  0  0  0  0  0  0
   -1.1508   -1.8980    4.3477 H   0  0  0  0  0  0  0  0  0  0  0  0
   -0.3352   -2.6137   -2.2359 C   0  0  0  0  0  0  0  0  0  0  0  0
    0.4077   -2.6207   -0.9796 C   0  0  1  0  0  0  0  0  0  0  0  0
    1.6601   -1.7269   -0.8846 C   0  0  1  0  0  0  0  0  0  0  0  0
    2.1529   -1.1741   -2.1776 C   0  0  0  0  0  0  0  0  0  0  0  0
    1.3380   -1.1422   -3.2551 C   0  0  0  0  0  0  0  0  0  0  0  0
    0.0624   -1.8405   -3.2748 C   0  0  0  0  0  0  0  0  0  0  0  0
   -1.1906   -3.2767   -2.3102 H   0  0  0  0  0  0  0  0  0  0  0  0
    0.2674   -3.3758   -0.2156 H   0  0  0  0  0  0  0  0  0  0  0  0
    2.4632   -2.0568   -0.2228 H   0  0  0  0  0  0  0  0  0  0  0  0
    3.1836   -0.8405   -2.2270 H   0  0  0  0  0  0  0  0  0  0  0  0
    1.6850   -0.6887   -4.1787 H   0  0  0  0  0  0  0  0  0  0  0  0
   -0.5201   -1.8270   -4.1904 H   0  0  0  0  0  0  0  0  0  0  0  0
    0.3521   -2.7287    3.0204 S   0  0  0  0  0  0  0  0  0  0  0  0
    0.3454   -3.8874    2.1474 O   0  0  0  0  0  0  0  0  0  0  0  0
    0.5260   -1.3846    2.4294 O   0  0  0  0  0  0  0  0  0  0  0  0
   -0.9644   -2.7645    3.9168 O   0  0  0  0  0  0  0  0  0  0  0  0
    1.6980   -2.9235    4.3120 C   0  0  0  0  0  0  0  0  0  0  0  0
    1.5307   -1.9689    5.2227 F   0  0  0  0  0  0  0  0  0  0  0  0
    1.5982   -4.1184    4.8621 F   0  0  0  0  0  0  0  0  0  0  0  0
    2.8647   -2.7812    3.6973 F   0  0  0  0  0  0  0  0  0  0  0  0
    0.1653   -0.4909   -0.7875 H   0  0  0  0  0  0  0  0  0  0  0  0
  2  1  3  0  0  0  0
  3  4  1  0  0  0  0
  6  7  1  0  0  0  0
  7  8  1  0  0  0  0
  7  3  1  0  0  0  0
  7 13  1  1  0  0  0
  8  3  1  0  0  0  0
  8 14  1  1  0  0  0
  9  8  1  0  0  0  0
 10  9  2  0  0  0  0
 11 10  1  0  0  0  0
 11  6  2  0  0  0  0
 12  6  1  0  0  0  0
 15  9  1  0  0  0  0
 16 10  1  0  0  0  0
 17 11  1  0  0  0  0
 18 21  1  0  0  0  0
 18 22  1  0  0  0  0
 19 18  2  0  0  0  0
 20 18  2  0  0  0  0
 21  5  1  0  0  0  0
 22 24  1  0  0  0  0
 22 23  1  0  0  0  0
 25 22  1  0  0  0  0
 26  3  1  0  0  0  0
M  END
