Coordinates from ORCA-job C6H6+HOTf+NH2N2+-scan
 OpenBabel10221816143D

 26 24  0  0  0  0  0  0  0  0999 V2000
   -3.1563   -2.8247    2.2012 N   0  0  0  0  0  0  0  0  0  0  0  0
   -4.2720   -2.8386    2.3112 N   0  0  0  0  0  0  0  0  0  0  0  0
   -1.8878   -2.8362    2.1384 N   0  0  0  0  0  0  0  0  0  0  0  0
   -1.3188   -2.3503    2.9200 H   0  0  0  0  0  0  0  0  0  0  0  0
    1.2414   -2.0017    5.8235 H   0  0  0  0  0  0  0  0  0  0  0  0
    0.3276   -1.1832   -2.1316 C   0  0  0  0  0  0  0  0  0  0  0  0
    0.7262   -1.6605   -3.3831 C   0  0  0  0  0  0  0  0  0  0  0  0
    1.6391   -2.7157   -3.4736 C   0  0  0  0  0  0  0  0  0  0  0  0
    2.1434   -3.3018   -2.3088 C   0  0  0  0  0  0  0  0  0  0  0  0
    1.7478   -2.8262   -1.0550 C   0  0  0  0  0  0  0  0  0  0  0  0
    0.8419   -1.7641   -0.9677 C   0  0  0  0  0  0  0  0  0  0  0  0
   -0.3661   -0.3488   -2.0675 H   0  0  0  0  0  0  0  0  0  0  0  0
    0.3340   -1.2029   -4.2867 H   0  0  0  0  0  0  0  0  0  0  0  0
    1.9548   -3.0800   -4.4467 H   0  0  0  0  0  0  0  0  0  0  0  0
    2.8535   -4.1210   -2.3772 H   0  0  0  0  0  0  0  0  0  0  0  0
    2.1583   -3.2682   -0.1510 H   0  0  0  0  0  0  0  0  0  0  0  0
    0.5784   -1.3537    0.0070 H   0  0  0  0  0  0  0  0  0  0  0  0
    1.0813   -1.8316    3.6746 S   0  0  0  0  0  0  0  0  0  0  0  0
    1.5141   -2.7138    2.6141 O   0  0  0  0  0  0  0  0  0  0  0  0
   -0.3793   -1.6526    3.9119 O   0  0  0  0  0  0  0  0  0  0  0  0
    1.7701   -2.2748    5.0488 O   0  0  0  0  0  0  0  0  0  0  0  0
    1.7897   -0.1073    3.4138 C   0  0  0  0  0  0  0  0  0  0  0  0
    1.5171    0.6130    4.4926 F   0  0  0  0  0  0  0  0  0  0  0  0
    3.0879   -0.2106    3.2233 F   0  0  0  0  0  0  0  0  0  0  0  0
    1.1856    0.3953    2.3457 F   0  0  0  0  0  0  0  0  0  0  0  0
   -1.4892   -3.0178    1.2132 H   0  0  0  0  0  0  0  0  0  0  0  0
  1  2  1  0  0  0  0
  3  1  1  0  0  0  0
  3  4  1  0  0  0  0
  6 12  1  0  0  0  0
  6 11  2  0  0  0  0
  7  6  1  0  0  0  0
  8  7  2  0  0  0  0
  8  9  1  0  0  0  0
  9 10  2  0  0  0  0
 10 11  1  0  0  0  0
 10 16  1  0  0  0  0
 11 17  1  0  0  0  0
 13  7  1  0  0  0  0
 14  8  1  0  0  0  0
 15  9  1  0  0  0  0
 18 20  2  0  0  0  0
 18 21  1  0  0  0  0
 19 18  2  0  0  0  0
 21  5  1  0  0  0  0
 22 18  1  0  0  0  0
 22 23  1  0  0  0  0
 24 22  1  0  0  0  0
 25 22  1  0  0  0  0
 26  3  1  0  0  0  0
M  RAD  2   1   2   2   3
M  END
