Coordinates from ORCA-job C6H6+HOTf+NH2N2+-scan
 OpenBabel10221816143D

 26 25  0  0  1  0  0  0  0  0999 V2000
   -2.3846    0.1184    6.0780 N   0  0  0  0  0  0  0  0  0  0  0  0
   -1.9140   -0.6590    5.4515 N   0  0  0  0  0  0  0  0  0  0  0  0
    0.6007   -1.1889   -0.3283 N   0  0  0  0  0  0  0  0  0  0  0  0
    0.5343   -1.1402    0.7052 H   0  0  0  0  0  0  0  0  0  0  0  0
   -1.1358   -2.0850    4.3829 H   0  0  0  0  0  0  0  0  0  0  0  0
   -0.5046   -2.3831   -2.2796 C   0  0  0  0  0  0  0  0  0  0  0  0
    0.1933   -2.4878   -0.9906 C   0  0  1  0  0  0  0  0  0  0  0  0
    1.6189   -1.9730   -0.9101 C   0  0  1  0  0  0  0  0  0  0  0  0
    2.2346   -1.4908   -2.1675 C   0  0  0  0  0  0  0  0  0  0  0  0
    1.4805   -1.3372   -3.2773 C   0  0  0  0  0  0  0  0  0  0  0  0
    0.0923   -1.7786   -3.3315 C   0  0  0  0  0  0  0  0  0  0  0  0
   -1.4850   -2.8396   -2.3624 H   0  0  0  0  0  0  0  0  0  0  0  0
   -0.1274   -3.2115   -0.2487 H   0  0  0  0  0  0  0  0  0  0  0  0
    2.2803   -2.4220   -0.1739 H   0  0  0  0  0  0  0  0  0  0  0  0
    3.3033   -1.3055   -2.1719 H   0  0  0  0  0  0  0  0  0  0  0  0
    1.9335   -0.9604   -4.1892 H   0  0  0  0  0  0  0  0  0  0  0  0
   -0.4367   -1.6941   -4.2758 H   0  0  0  0  0  0  0  0  0  0  0  0
    0.4716   -2.6123    3.0266 S   0  0  0  0  0  0  0  0  0  0  0  0
    0.6201   -3.7032    2.0782 O   0  0  0  0  0  0  0  0  0  0  0  0
    0.4484   -1.2274    2.5186 O   0  0  0  0  0  0  0  0  0  0  0  0
   -0.8172   -2.8951    3.9210 O   0  0  0  0  0  0  0  0  0  0  0  0
    1.8429   -2.7095    4.3014 C   0  0  0  0  0  0  0  0  0  0  0  0
    1.5658   -1.8396    5.2678 F   0  0  0  0  0  0  0  0  0  0  0  0
    1.9022   -3.9381    4.7799 F   0  0  0  0  0  0  0  0  0  0  0  0
    2.9767   -2.3846    3.6934 F   0  0  0  0  0  0  0  0  0  0  0  0
    0.3286   -0.3302   -0.8073 H   0  0  0  0  0  0  0  0  0  0  0  0
  2  1  3  0  0  0  0
  3  4  1  0  0  0  0
  6  7  1  0  0  0  0
  7  8  1  0  0  0  0
  7  3  1  0  0  0  0
  7 13  1  1  0  0  0
  8  3  1  0  0  0  0
  8 14  1  1  0  0  0
  9  8  1  0  0  0  0
 10  9  2  0  0  0  0
 11 10  1  0  0  0  0
 11  6  2  0  0  0  0
 12  6  1  0  0  0  0
 15  9  1  0  0  0  0
 16 10  1  0  0  0  0
 17 11  1  0  0  0  0
 18 21  1  0  0  0  0
 18 22  1  0  0  0  0
 19 18  2  0  0  0  0
 20 18  2  0  0  0  0
 21  5  1  0  0  0  0
 22 24  1  0  0  0  0
 22 23  1  0  0  0  0
 25 22  1  0  0  0  0
 26  3  1  0  0  0  0
M  END
