Coordinates from ORCA-job C6H6+HOTf+NH2N2+-scan
 OpenBabel10221816143D

 26 24  0  0  0  0  0  0  0  0999 V2000
   -0.9868    0.4537    0.9211 N   0  0  0  0  0  0  0  0  0  0  0  0
   -1.6850    1.3250    1.0539 N   0  0  0  0  0  0  0  0  0  0  0  0
   -0.1620   -0.4833    0.6693 N   0  0  0  0  0  0  0  0  0  0  0  0
   -0.0052   -1.1468    1.4607 H   0  0  0  0  0  0  0  0  0  0  0  0
   -0.6470   -3.9246    4.3771 H   0  0  0  0  0  0  0  0  0  0  0  0
   -0.0784   -3.2357   -1.9143 C   0  0  0  0  0  0  0  0  0  0  0  0
    0.7122   -2.9185   -0.8104 C   0  0  0  0  0  0  0  0  0  0  0  0
    1.3569   -1.6715   -0.7465 C   0  0  0  0  0  0  0  0  0  0  0  0
    1.2870   -0.7924   -1.8471 C   0  0  0  0  0  0  0  0  0  0  0  0
    0.4842   -1.1153   -2.9484 C   0  0  0  0  0  0  0  0  0  0  0  0
   -0.2023   -2.3310   -2.9765 C   0  0  0  0  0  0  0  0  0  0  0  0
   -0.5856   -4.1947   -1.9595 H   0  0  0  0  0  0  0  0  0  0  0  0
    0.8387   -3.6289    0.0005 H   0  0  0  0  0  0  0  0  0  0  0  0
    2.0327   -1.4540    0.0760 H   0  0  0  0  0  0  0  0  0  0  0  0
    1.8465    0.1396   -1.8319 H   0  0  0  0  0  0  0  0  0  0  0  0
    0.4198   -0.4316   -3.7893 H   0  0  0  0  0  0  0  0  0  0  0  0
   -0.8179   -2.5844   -3.8343 H   0  0  0  0  0  0  0  0  0  0  0  0
    1.0162   -3.0013    3.3522 S   0  0  0  0  0  0  0  0  0  0  0  0
    1.9427   -3.5259    2.3729 O   0  0  0  0  0  0  0  0  0  0  0  0
    0.0730   -1.9230    2.9845 O   0  0  0  0  0  0  0  0  0  0  0  0
    0.1836   -4.2309    3.9666 O   0  0  0  0  0  0  0  0  0  0  0  0
    1.9569   -2.3990    4.8630 C   0  0  0  0  0  0  0  0  0  0  0  0
    1.0702   -2.1500    5.8210 F   0  0  0  0  0  0  0  0  0  0  0  0
    2.8063   -3.3345    5.2383 F   0  0  0  0  0  0  0  0  0  0  0  0
    2.5931   -1.2892    4.5160 F   0  0  0  0  0  0  0  0  0  0  0  0
    0.1729   -0.6299   -0.3246 H   0  0  0  0  0  0  0  0  0  0  0  0
  1  2  1  0  0  0  0
  3  1  1  0  0  0  0
  3  4  1  0  0  0  0
  6  7  2  0  0  0  0
  7  8  1  0  0  0  0
  7 13  1  0  0  0  0
  8 14  1  0  0  0  0
  9 15  1  0  0  0  0
  9  8  2  0  0  0  0
 10  9  1  0  0  0  0
 11 10  2  0  0  0  0
 11  6  1  0  0  0  0
 12  6  1  0  0  0  0
 16 10  1  0  0  0  0
 17 11  1  0  0  0  0
 18 21  1  0  0  0  0
 18 22  1  0  0  0  0
 19 18  2  0  0  0  0
 20 18  2  0  0  0  0
 21  5  1  0  0  0  0
 22 24  1  0  0  0  0
 22 23  1  0  0  0  0
 25 22  1  0  0  0  0
 26  3  1  0  0  0  0
M  RAD  2   1   2   2   3
M  END
