Coordinates from ORCA-job C6H6+HOTf+NH2N2+-scan
 OpenBabel10221816143D

 26 24  0  0  0  0  0  0  0  0999 V2000
   -2.7764   -2.3100    1.7160 N   0  0  0  0  0  0  0  0  0  0  0  0
   -3.8863   -2.4728    1.7387 N   0  0  0  0  0  0  0  0  0  0  0  0
   -1.5258   -2.1102    1.7203 N   0  0  0  0  0  0  0  0  0  0  0  0
   -1.0112   -1.9963    2.6585 H   0  0  0  0  0  0  0  0  0  0  0  0
    1.5371   -3.0242    5.4023 H   0  0  0  0  0  0  0  0  0  0  0  0
   -0.1805   -1.7254   -2.6123 C   0  0  0  0  0  0  0  0  0  0  0  0
    0.3247   -2.4628   -3.6865 C   0  0  0  0  0  0  0  0  0  0  0  0
    1.5038   -3.2023   -3.5410 C   0  0  0  0  0  0  0  0  0  0  0  0
    2.1652   -3.2193   -2.3082 C   0  0  0  0  0  0  0  0  0  0  0  0
    1.6657   -2.4827   -1.2298 C   0  0  0  0  0  0  0  0  0  0  0  0
    0.4960   -1.7283   -1.3857 C   0  0  0  0  0  0  0  0  0  0  0  0
   -1.0783   -1.1270   -2.7428 H   0  0  0  0  0  0  0  0  0  0  0  0
   -0.1919   -2.4477   -4.6417 H   0  0  0  0  0  0  0  0  0  0  0  0
    1.9017   -3.7638   -4.3808 H   0  0  0  0  0  0  0  0  0  0  0  0
    3.0797   -3.7934   -2.1916 H   0  0  0  0  0  0  0  0  0  0  0  0
    2.1998   -2.4713   -0.2835 H   0  0  0  0  0  0  0  0  0  0  0  0
    0.1680   -1.0629   -0.5836 H   0  0  0  0  0  0  0  0  0  0  0  0
    1.3019   -1.6185    3.7754 S   0  0  0  0  0  0  0  0  0  0  0  0
    1.8597   -1.5942    2.4416 O   0  0  0  0  0  0  0  0  0  0  0  0
   -0.1643   -1.8111    3.9443 O   0  0  0  0  0  0  0  0  0  0  0  0
    2.0675   -2.7323    4.6360 O   0  0  0  0  0  0  0  0  0  0  0  0
    1.7396   -0.0418    4.7075 C   0  0  0  0  0  0  0  0  0  0  0  0
    1.3924   -0.2169    5.9761 F   0  0  0  0  0  0  0  0  0  0  0  0
    3.0353    0.1650    4.5930 F   0  0  0  0  0  0  0  0  0  0  0  0
    1.0456    0.9420    4.1590 F   0  0  0  0  0  0  0  0  0  0  0  0
   -1.0465   -2.1698    0.8091 H   0  0  0  0  0  0  0  0  0  0  0  0
  1  3  1  0  0  0  0
  1  2  1  0  0  0  0
  3  4  1  0  0  0  0
  6 11  2  0  0  0  0
  7  8  2  0  0  0  0
  7  6  1  0  0  0  0
  8  9  1  0  0  0  0
  9 15  1  0  0  0  0
  9 10  2  0  0  0  0
 10 16  1  0  0  0  0
 11 10  1  0  0  0  0
 11 17  1  0  0  0  0
 12  6  1  0  0  0  0
 13  7  1  0  0  0  0
 14  8  1  0  0  0  0
 18 20  2  0  0  0  0
 18 21  1  0  0  0  0
 18 22  1  0  0  0  0
 19 18  2  0  0  0  0
 21  5  1  0  0  0  0
 22 23  1  0  0  0  0
 24 22  1  0  0  0  0
 25 22  1  0  0  0  0
 26  3  1  0  0  0  0
M  RAD  2   1   2   2   3
M  END
