Coordinates from ORCA-job C6H6+HOTf+NH2N2+-scan
 OpenBabel10221816143D

 26 24  0  0  0  0  0  0  0  0999 V2000
   -2.1240    0.5347    5.8022 N   0  0  0  0  0  0  0  0  0  0  0  0
   -1.7445   -0.3242    5.2220 N   0  0  0  0  0  0  0  0  0  0  0  0
    0.8117   -1.3610   -0.3760 N   0  0  0  0  0  0  0  0  0  0  0  0
    0.6868   -1.3272    0.6765 H   0  0  0  0  0  0  0  0  0  0  0  0
   -1.1573   -1.8937    4.2524 H   0  0  0  0  0  0  0  0  0  0  0  0
   -0.3566   -2.5919   -2.1865 C   0  0  0  0  0  0  0  0  0  0  0  0
    0.4166   -2.6982   -0.9762 C   0  0  0  0  0  0  0  0  0  0  0  0
    1.6528   -1.7030   -0.8408 C   0  0  0  0  0  0  0  0  0  0  0  0
    2.1416   -1.1910   -2.1593 C   0  0  0  0  0  0  0  0  0  0  0  0
    1.2692   -1.0710   -3.1886 C   0  0  0  0  0  0  0  0  0  0  0  0
   -0.0231   -1.7228   -3.1794 C   0  0  0  0  0  0  0  0  0  0  0  0
   -1.2010   -3.2679   -2.2790 H   0  0  0  0  0  0  0  0  0  0  0  0
    0.3332   -3.4393   -0.1948 H   0  0  0  0  0  0  0  0  0  0  0  0
    2.5045   -2.0807   -0.2531 H   0  0  0  0  0  0  0  0  0  0  0  0
    3.1972   -0.9638   -2.2529 H   0  0  0  0  0  0  0  0  0  0  0  0
    1.5936   -0.6037   -4.1141 H   0  0  0  0  0  0  0  0  0  0  0  0
   -0.6603   -1.6332   -4.0524 H   0  0  0  0  0  0  0  0  0  0  0  0
    0.3831   -2.7657    2.9930 S   0  0  0  0  0  0  0  0  0  0  0  0
    0.4089   -3.9549    2.1641 O   0  0  0  0  0  0  0  0  0  0  0  0
    0.5662   -1.4418    2.3522 O   0  0  0  0  0  0  0  0  0  0  0  0
   -0.9590   -2.7710    3.8482 O   0  0  0  0  0  0  0  0  0  0  0  0
    1.6948   -2.8923    4.3298 C   0  0  0  0  0  0  0  0  0  0  0  0
    1.4871   -1.9056    5.1966 F   0  0  0  0  0  0  0  0  0  0  0  0
    1.5916   -4.0663    4.9212 F   0  0  0  0  0  0  0  0  0  0  0  0
    2.8758   -2.7575    3.7433 F   0  0  0  0  0  0  0  0  0  0  0  0
    0.2337   -0.5852   -0.7583 H   0  0  0  0  0  0  0  0  0  0  0  0
  2  1  3  0  0  0  0
  3  4  1  0  0  0  0
  6  7  1  0  0  0  0
  7  3  1  0  0  0  0
  7 13  1  0  0  0  0
  8  3  1  0  0  0  0
  8 14  1  0  0  0  0
  9  8  1  0  0  0  0
 10 11  2  0  0  0  0
 10  9  1  0  0  0  0
 11  6  1  0  0  0  0
 12  6  1  0  0  0  0
 15  9  1  0  0  0  0
 16 10  1  0  0  0  0
 17 11  1  0  0  0  0
 18 21  1  0  0  0  0
 18 22  1  0  0  0  0
 19 18  2  0  0  0  0
 20 18  2  0  0  0  0
 21  5  1  0  0  0  0
 22 24  1  0  0  0  0
 22 23  1  0  0  0  0
 25 22  1  0  0  0  0
 26  3  1  0  0  0  0
M  RAD  4   6   2   7   2   8   2   9   2
M  END
