Coordinates from ORCA-job C6H6+HOTf+NH2N2+-scan
 OpenBabel10221816143D

 26 24  0  0  0  0  0  0  0  0999 V2000
   -2.4132   -2.5639    1.1857 N   0  0  0  0  0  0  0  0  0  0  0  0
   -3.4581   -2.9601    1.0789 N   0  0  0  0  0  0  0  0  0  0  0  0
   -1.2481   -2.0782    1.2926 N   0  0  0  0  0  0  0  0  0  0  0  0
   -0.8133   -2.0322    2.2621 H   0  0  0  0  0  0  0  0  0  0  0  0
    1.6609   -3.0685    5.1607 H   0  0  0  0  0  0  0  0  0  0  0  0
   -0.1562   -1.5007   -2.3462 C   0  0  0  0  0  0  0  0  0  0  0  0
    0.0756   -2.4298   -3.3630 C   0  0  0  0  0  0  0  0  0  0  0  0
    1.1092   -3.3663   -3.2380 C   0  0  0  0  0  0  0  0  0  0  0  0
    1.8895   -3.3956   -2.0763 C   0  0  0  0  0  0  0  0  0  0  0  0
    1.6643   -2.4692   -1.0548 C   0  0  0  0  0  0  0  0  0  0  0  0
    0.6454   -1.5108   -1.1917 C   0  0  0  0  0  0  0  0  0  0  0  0
   -0.9260   -0.7434   -2.4695 H   0  0  0  0  0  0  0  0  0  0  0  0
   -0.5311   -2.4086   -4.2634 H   0  0  0  0  0  0  0  0  0  0  0  0
    1.3012   -4.0732   -4.0396 H   0  0  0  0  0  0  0  0  0  0  0  0
    2.6888   -4.1241   -1.9785 H   0  0  0  0  0  0  0  0  0  0  0  0
    2.2991   -2.4605   -0.1731 H   0  0  0  0  0  0  0  0  0  0  0  0
    0.5752   -0.6919   -0.4746 H   0  0  0  0  0  0  0  0  0  0  0  0
    1.3863   -1.5415    3.6556 S   0  0  0  0  0  0  0  0  0  0  0  0
    2.0489   -1.3168    2.3892 O   0  0  0  0  0  0  0  0  0  0  0  0
   -0.0508   -1.9123    3.6728 O   0  0  0  0  0  0  0  0  0  0  0  0
    2.2135   -2.6435    4.4770 O   0  0  0  0  0  0  0  0  0  0  0  0
    1.5629   -0.0307    4.7629 C   0  0  0  0  0  0  0  0  0  0  0  0
    1.1388   -0.3680    5.9747 F   0  0  0  0  0  0  0  0  0  0  0  0
    2.8308    0.3276    4.7869 F   0  0  0  0  0  0  0  0  0  0  0  0
    0.8052    0.9246    4.2476 F   0  0  0  0  0  0  0  0  0  0  0  0
   -0.6760   -2.0404    0.4120 H   0  0  0  0  0  0  0  0  0  0  0  0
  1  3  1  0  0  0  0
  2  1  1  0  0  0  0
  3  4  1  0  0  0  0
  6 11  2  0  0  0  0
  7  8  2  0  0  0  0
  7  6  1  0  0  0  0
  8  9  1  0  0  0  0
  9 15  1  0  0  0  0
  9 10  2  0  0  0  0
 10 16  1  0  0  0  0
 11 10  1  0  0  0  0
 11 17  1  0  0  0  0
 12  6  1  0  0  0  0
 13  7  1  0  0  0  0
 14  8  1  0  0  0  0
 18 20  2  0  0  0  0
 18 21  1  0  0  0  0
 18 22  1  0  0  0  0
 19 18  2  0  0  0  0
 21  5  1  0  0  0  0
 22 24  1  0  0  0  0
 22 23  1  0  0  0  0
 25 22  1  0  0  0  0
 26  3  1  0  0  0  0
M  RAD  2   1   2   2   3
M  END
