Coordinates from ORCA-job C6H6+HOTf+NH2N2+-scan
 OpenBabel10221816143D

 26 24  0  0  0  0  0  0  0  0999 V2000
   -2.7447   -2.3216    1.6662 N   0  0  0  0  0  0  0  0  0  0  0  0
   -3.8521   -2.5018    1.6791 N   0  0  0  0  0  0  0  0  0  0  0  0
   -1.4976   -2.1013    1.6785 N   0  0  0  0  0  0  0  0  0  0  0  0
   -0.9901   -1.9957    2.6205 H   0  0  0  0  0  0  0  0  0  0  0  0
    1.5476   -3.0360    5.3754 H   0  0  0  0  0  0  0  0  0  0  0  0
   -0.1873   -1.7149   -2.5917 C   0  0  0  0  0  0  0  0  0  0  0  0
    0.3018   -2.4698   -3.6612 C   0  0  0  0  0  0  0  0  0  0  0  0
    1.4744   -3.2199   -3.5162 C   0  0  0  0  0  0  0  0  0  0  0  0
    2.1446   -3.2310   -2.2879 C   0  0  0  0  0  0  0  0  0  0  0  0
    1.6614   -2.4769   -1.2142 C   0  0  0  0  0  0  0  0  0  0  0  0
    0.4988   -1.7109   -1.3701 C   0  0  0  0  0  0  0  0  0  0  0  0
   -1.0787   -1.1071   -2.7226 H   0  0  0  0  0  0  0  0  0  0  0  0
   -0.2215   -2.4597   -4.6128 H   0  0  0  0  0  0  0  0  0  0  0  0
    1.8603   -3.7945   -4.3528 H   0  0  0  0  0  0  0  0  0  0  0  0
    3.0539   -3.8135   -2.1720 H   0  0  0  0  0  0  0  0  0  0  0  0
    2.2032   -2.4596   -0.2724 H   0  0  0  0  0  0  0  0  0  0  0  0
    0.1879   -1.0285   -0.5755 H   0  0  0  0  0  0  0  0  0  0  0  0
    1.3131   -1.6110    3.7653 S   0  0  0  0  0  0  0  0  0  0  0  0
    1.8835   -1.5629    2.4376 O   0  0  0  0  0  0  0  0  0  0  0  0
   -0.1523   -1.8205    3.9181 O   0  0  0  0  0  0  0  0  0  0  0  0
    2.0823   -2.7286    4.6181 O   0  0  0  0  0  0  0  0  0  0  0  0
    1.7266   -0.0430    4.7225 C   0  0  0  0  0  0  0  0  0  0  0  0
    1.3698   -0.2386    5.9855 F   0  0  0  0  0  0  0  0  0  0  0  0
    3.0212    0.1784    4.6227 F   0  0  0  0  0  0  0  0  0  0  0  0
    1.0278    0.9415    4.1812 F   0  0  0  0  0  0  0  0  0  0  0  0
   -1.0113   -2.1507    0.7691 H   0  0  0  0  0  0  0  0  0  0  0  0
  1  3  1  0  0  0  0
  1  2  1  0  0  0  0
  3  4  1  0  0  0  0
  6 11  2  0  0  0  0
  7  8  2  0  0  0  0
  7  6  1  0  0  0  0
  8  9  1  0  0  0  0
  9 15  1  0  0  0  0
  9 10  2  0  0  0  0
 10 16  1  0  0  0  0
 11 10  1  0  0  0  0
 11 17  1  0  0  0  0
 12  6  1  0  0  0  0
 13  7  1  0  0  0  0
 14  8  1  0  0  0  0
 18 20  2  0  0  0  0
 18 21  1  0  0  0  0
 18 22  1  0  0  0  0
 19 18  2  0  0  0  0
 21  5  1  0  0  0  0
 22 23  1  0  0  0  0
 24 22  1  0  0  0  0
 25 22  1  0  0  0  0
 26  3  1  0  0  0  0
M  RAD  2   1   2   2   3
M  END
