Coordinates from ORCA-job C6H6+HOTf+NH2N2+-scan
 OpenBabel10221816143D

 26 24  0  0  0  0  0  0  0  0999 V2000
   -3.2606   -2.9752    2.4273 N   0  0  0  0  0  0  0  0  0  0  0  0
   -4.3702   -2.9040    2.5710 N   0  0  0  0  0  0  0  0  0  0  0  0
   -1.9971   -3.0665    2.3334 N   0  0  0  0  0  0  0  0  0  0  0  0
   -1.3791   -2.4945    3.0175 H   0  0  0  0  0  0  0  0  0  0  0  0
    1.2770   -1.9681    5.7712 H   0  0  0  0  0  0  0  0  0  0  0  0
    0.6233   -0.9500   -2.2246 C   0  0  0  0  0  0  0  0  0  0  0  0
    0.8485   -1.5939   -3.4441 C   0  0  0  0  0  0  0  0  0  0  0  0
    1.5586   -2.7970   -3.4797 C   0  0  0  0  0  0  0  0  0  0  0  0
    2.0374   -3.3604   -2.2937 C   0  0  0  0  0  0  0  0  0  0  0  0
    1.8134   -2.7177   -1.0727 C   0  0  0  0  0  0  0  0  0  0  0  0
    1.1079   -1.5113   -1.0398 C   0  0  0  0  0  0  0  0  0  0  0  0
    0.0841   -0.0066   -2.2019 H   0  0  0  0  0  0  0  0  0  0  0  0
    0.4791   -1.1538   -4.3661 H   0  0  0  0  0  0  0  0  0  0  0  0
    1.7402   -3.2930   -4.4288 H   0  0  0  0  0  0  0  0  0  0  0  0
    2.5939   -4.2931   -2.3220 H   0  0  0  0  0  0  0  0  0  0  0  0
    2.2029   -3.1466   -0.1529 H   0  0  0  0  0  0  0  0  0  0  0  0
    0.9600   -0.9919   -0.0951 H   0  0  0  0  0  0  0  0  0  0  0  0
    1.0290   -1.8459    3.6258 S   0  0  0  0  0  0  0  0  0  0  0  0
    1.4516   -2.7279    2.5617 O   0  0  0  0  0  0  0  0  0  0  0  0
   -0.4286   -1.7022    3.9053 O   0  0  0  0  0  0  0  0  0  0  0  0
    1.7704   -2.2627    4.9812 O   0  0  0  0  0  0  0  0  0  0  0  0
    1.6846   -0.1037    3.3399 C   0  0  0  0  0  0  0  0  0  0  0  0
    1.4382    0.6055    4.4326 F   0  0  0  0  0  0  0  0  0  0  0  0
    2.9758   -0.1768    3.0976 F   0  0  0  0  0  0  0  0  0  0  0  0
    1.0271    0.3904    2.3000 F   0  0  0  0  0  0  0  0  0  0  0  0
   -1.6448   -3.4313    1.4470 H   0  0  0  0  0  0  0  0  0  0  0  0
  1  2  1  0  0  0  0
  3  1  1  0  0  0  0
  3  4  1  0  0  0  0
  6 12  1  0  0  0  0
  6 11  2  0  0  0  0
  7  6  1  0  0  0  0
  8  7  2  0  0  0  0
  8  9  1  0  0  0  0
  9 10  2  0  0  0  0
 10 11  1  0  0  0  0
 10 16  1  0  0  0  0
 11 17  1  0  0  0  0
 13  7  1  0  0  0  0
 14  8  1  0  0  0  0
 15  9  1  0  0  0  0
 18 20  2  0  0  0  0
 18 21  1  0  0  0  0
 19 18  2  0  0  0  0
 21  5  1  0  0  0  0
 22 18  1  0  0  0  0
 22 23  1  0  0  0  0
 24 22  1  0  0  0  0
 25 22  1  0  0  0  0
 26  3  1  0  0  0  0
M  RAD  2   1   2   2   3
M  END
