Coordinates from ORCA-job C6H6+HOTf+NH2N2+-scan
 OpenBabel10221816143D

 26 24  0  0  0  0  0  0  0  0999 V2000
   -3.1074   -2.7375    2.1319 N   0  0  0  0  0  0  0  0  0  0  0  0
   -4.2242   -2.7588    2.2292 N   0  0  0  0  0  0  0  0  0  0  0  0
   -1.8386   -2.7448    2.0790 N   0  0  0  0  0  0  0  0  0  0  0  0
   -1.2776   -2.2926    2.8845 H   0  0  0  0  0  0  0  0  0  0  0  0
    1.2465   -2.1213    5.8344 H   0  0  0  0  0  0  0  0  0  0  0  0
    0.2129   -1.3056   -2.1936 C   0  0  0  0  0  0  0  0  0  0  0  0
    0.6738   -1.7406   -3.4389 C   0  0  0  0  0  0  0  0  0  0  0  0
    1.6590   -2.7300   -3.5172 C   0  0  0  0  0  0  0  0  0  0  0  0
    2.1732   -3.2934   -2.3454 C   0  0  0  0  0  0  0  0  0  0  0  0
    1.7153   -2.8611   -1.0976 C   0  0  0  0  0  0  0  0  0  0  0  0
    0.7380   -1.8632   -1.0230 C   0  0  0  0  0  0  0  0  0  0  0  0
   -0.5370   -0.5205   -2.1397 H   0  0  0  0  0  0  0  0  0  0  0  0
    0.2728   -1.3006   -4.3474 H   0  0  0  0  0  0  0  0  0  0  0  0
    2.0223   -3.0609   -4.4856 H   0  0  0  0  0  0  0  0  0  0  0  0
    2.9382   -4.0624   -2.4035 H   0  0  0  0  0  0  0  0  0  0  0  0
    2.1333   -3.2843   -0.1881 H   0  0  0  0  0  0  0  0  0  0  0  0
    0.4298   -1.4784   -0.0499 H   0  0  0  0  0  0  0  0  0  0  0  0
    1.1139   -1.7918    3.7017 S   0  0  0  0  0  0  0  0  0  0  0  0
    1.5731   -2.5817    2.5813 O   0  0  0  0  0  0  0  0  0  0  0  0
   -0.3517   -1.6360    3.9219 O   0  0  0  0  0  0  0  0  0  0  0  0
    1.7763   -2.3517    5.0467 O   0  0  0  0  0  0  0  0  0  0  0  0
    1.8218   -0.0502    3.6069 C   0  0  0  0  0  0  0  0  0  0  0  0
    1.5246    0.5712    4.7400 F   0  0  0  0  0  0  0  0  0  0  0  0
    3.1246   -0.1357    3.4372 F   0  0  0  0  0  0  0  0  0  0  0  0
    1.2407    0.5439    2.5752 F   0  0  0  0  0  0  0  0  0  0  0  0
   -1.4309   -2.8902    1.1502 H   0  0  0  0  0  0  0  0  0  0  0  0
  1  2  1  0  0  0  0
  3  1  1  0  0  0  0
  3  4  1  0  0  0  0
  6 12  1  0  0  0  0
  6 11  2  0  0  0  0
  7  6  1  0  0  0  0
  8  7  2  0  0  0  0
  8  9  1  0  0  0  0
  9 10  2  0  0  0  0
 10 11  1  0  0  0  0
 10 16  1  0  0  0  0
 11 17  1  0  0  0  0
 13  7  1  0  0  0  0
 14  8  1  0  0  0  0
 15  9  1  0  0  0  0
 18 20  2  0  0  0  0
 18 21  1  0  0  0  0
 19 18  2  0  0  0  0
 21  5  1  0  0  0  0
 22 18  1  0  0  0  0
 22 23  1  0  0  0  0
 24 22  1  0  0  0  0
 25 22  1  0  0  0  0
 26  3  1  0  0  0  0
M  RAD  2   1   2   2   3
M  END
