Coordinates from ORCA-job C6H6+HOTf+NH2N2+-scan
 OpenBabel10221816143D

 26 24  0  0  0  0  0  0  0  0999 V2000
   -2.8442   -2.3088    1.8258 N   0  0  0  0  0  0  0  0  0  0  0  0
   -3.9563   -2.4487    1.8732 N   0  0  0  0  0  0  0  0  0  0  0  0
   -1.5896   -2.1353    1.8075 N   0  0  0  0  0  0  0  0  0  0  0  0
   -1.0589   -1.9928    2.7353 H   0  0  0  0  0  0  0  0  0  0  0  0
    1.4593   -2.9701    5.5187 H   0  0  0  0  0  0  0  0  0  0  0  0
   -0.1764   -1.7461   -2.6565 C   0  0  0  0  0  0  0  0  0  0  0  0
    0.3755   -2.4435   -3.7346 C   0  0  0  0  0  0  0  0  0  0  0  0
    1.5760   -3.1448   -3.5790 C   0  0  0  0  0  0  0  0  0  0  0  0
    2.2144   -3.1618   -2.3343 C   0  0  0  0  0  0  0  0  0  0  0  0
    1.6679   -2.4648   -1.2523 C   0  0  0  0  0  0  0  0  0  0  0  0
    0.4751   -1.7509   -1.4174 C   0  0  0  0  0  0  0  0  0  0  0  0
   -1.0941   -1.1798   -2.7923 H   0  0  0  0  0  0  0  0  0  0  0  0
   -0.1229   -2.4283   -4.6994 H   0  0  0  0  0  0  0  0  0  0  0  0
    2.0091   -3.6768   -4.4207 H   0  0  0  0  0  0  0  0  0  0  0  0
    3.1460   -3.7062   -2.2103 H   0  0  0  0  0  0  0  0  0  0  0  0
    2.1812   -2.4563   -0.2945 H   0  0  0  0  0  0  0  0  0  0  0  0
    0.0984   -1.1260   -0.6041 H   0  0  0  0  0  0  0  0  0  0  0  0
    1.2750   -1.6644    3.8039 S   0  0  0  0  0  0  0  0  0  0  0  0
    1.8166   -1.7563    2.4667 O   0  0  0  0  0  0  0  0  0  0  0  0
   -0.1975   -1.7737    3.9967 O   0  0  0  0  0  0  0  0  0  0  0  0
    1.9949   -2.7546    4.7309 O   0  0  0  0  0  0  0  0  0  0  0  0
    1.7980   -0.0523    4.6254 C   0  0  0  0  0  0  0  0  0  0  0  0
    1.4566   -0.1258    5.9053 F   0  0  0  0  0  0  0  0  0  0  0  0
    3.1006    0.0830    4.4869 F   0  0  0  0  0  0  0  0  0  0  0  0
    1.1458    0.9252    4.0175 F   0  0  0  0  0  0  0  0  0  0  0  0
   -1.1277   -2.2180    0.8918 H   0  0  0  0  0  0  0  0  0  0  0  0
  1  2  1  0  0  0  0
  3  1  1  0  0  0  0
  3  4  1  0  0  0  0
  6 11  2  0  0  0  0
  7  8  2  0  0  0  0
  7  6  1  0  0  0  0
  8  9  1  0  0  0  0
  9 15  1  0  0  0  0
  9 10  2  0  0  0  0
 10 16  1  0  0  0  0
 11 10  1  0  0  0  0
 11 17  1  0  0  0  0
 12  6  1  0  0  0  0
 13  7  1  0  0  0  0
 14  8  1  0  0  0  0
 18 20  2  0  0  0  0
 18 22  1  0  0  0  0
 18 21  1  0  0  0  0
 19 18  2  0  0  0  0
 21  5  1  0  0  0  0
 22 23  1  0  0  0  0
 24 22  1  0  0  0  0
 25 22  1  0  0  0  0
 26  3  1  0  0  0  0
M  RAD  2   1   2   2   3
M  END
