Coordinates from ORCA-job C6H6+HOTf+NH2N2+-scan
 OpenBabel10221816143D

 26 24  0  0  0  0  0  0  0  0999 V2000
   -2.2692   -2.6328    0.9781 N   0  0  0  0  0  0  0  0  0  0  0  0
   -3.2931   -3.0640    0.8133 N   0  0  0  0  0  0  0  0  0  0  0  0
   -1.1277   -2.1095    1.1356 N   0  0  0  0  0  0  0  0  0  0  0  0
   -0.7273   -2.0796    2.1162 H   0  0  0  0  0  0  0  0  0  0  0  0
    1.7223   -3.0919    5.0676 H   0  0  0  0  0  0  0  0  0  0  0  0
   -0.1297   -1.4103   -2.2683 C   0  0  0  0  0  0  0  0  0  0  0  0
   -0.0388   -2.4342   -3.2134 C   0  0  0  0  0  0  0  0  0  0  0  0
    0.9279   -3.4369   -3.0709 C   0  0  0  0  0  0  0  0  0  0  0  0
    1.7852   -3.4346   -1.9650 C   0  0  0  0  0  0  0  0  0  0  0  0
    1.7005   -2.4144   -1.0147 C   0  0  0  0  0  0  0  0  0  0  0  0
    0.7456   -1.3927   -1.1671 C   0  0  0  0  0  0  0  0  0  0  0  0
   -0.8482   -0.6063   -2.4053 H   0  0  0  0  0  0  0  0  0  0  0  0
   -0.7021   -2.4381   -4.0732 H   0  0  0  0  0  0  0  0  0  0  0  0
    1.0097   -4.2202   -3.8186 H   0  0  0  0  0  0  0  0  0  0  0  0
    2.5335   -4.2141   -1.8571 H   0  0  0  0  0  0  0  0  0  0  0  0
    2.3897   -2.3860   -0.1754 H   0  0  0  0  0  0  0  0  0  0  0  0
    0.7705   -0.5282   -0.5042 H   0  0  0  0  0  0  0  0  0  0  0  0
    1.4119   -1.5257    3.6113 S   0  0  0  0  0  0  0  0  0  0  0  0
    2.1022   -1.2182    2.3771 O   0  0  0  0  0  0  0  0  0  0  0  0
   -0.0020   -1.9708    3.5691 O   0  0  0  0  0  0  0  0  0  0  0  0
    2.2728   -2.6129    4.4189 O   0  0  0  0  0  0  0  0  0  0  0  0
    1.4762   -0.0511    4.7770 C   0  0  0  0  0  0  0  0  0  0  0  0
    1.0341   -0.4543    5.9621 F   0  0  0  0  0  0  0  0  0  0  0  0
    2.7224    0.3711    4.8549 F   0  0  0  0  0  0  0  0  0  0  0  0
    0.6856    0.8836    4.2729 F   0  0  0  0  0  0  0  0  0  0  0  0
   -0.5296   -2.0060    0.2692 H   0  0  0  0  0  0  0  0  0  0  0  0
  1  3  1  0  0  0  0
  2  1  1  0  0  0  0
  3  4  1  0  0  0  0
  6 11  2  0  0  0  0
  7  8  2  0  0  0  0
  7  6  1  0  0  0  0
  8  9  1  0  0  0  0
  9 15  1  0  0  0  0
  9 10  2  0  0  0  0
 10 16  1  0  0  0  0
 11 10  1  0  0  0  0
 11 17  1  0  0  0  0
 12  6  1  0  0  0  0
 13  7  1  0  0  0  0
 14  8  1  0  0  0  0
 18 21  1  0  0  0  0
 18 22  1  0  0  0  0
 19 18  2  0  0  0  0
 20 18  2  0  0  0  0
 21  5  1  0  0  0  0
 22 24  1  0  0  0  0
 22 23  1  0  0  0  0
 25 22  1  0  0  0  0
 26  3  1  0  0  0  0
M  RAD  2   1   2   2   3
M  END
