Coordinates from ORCA-job C6H6+HOTf+NH2N2+-scan
 OpenBabel10221816143D

 26 24  0  0  0  0  0  0  0  0999 V2000
   -2.1527   -2.6761    0.8144 N   0  0  0  0  0  0  0  0  0  0  0  0
   -3.1615   -3.1285    0.6150 N   0  0  0  0  0  0  0  0  0  0  0  0
   -1.0279   -2.1320    1.0091 N   0  0  0  0  0  0  0  0  0  0  0  0
   -0.6497   -2.1146    1.9973 H   0  0  0  0  0  0  0  0  0  0  0  0
    1.7491   -3.1341    4.9951 H   0  0  0  0  0  0  0  0  0  0  0  0
   -0.1177   -1.3426   -2.2470 C   0  0  0  0  0  0  0  0  0  0  0  0
   -0.1391   -2.4633   -3.0806 C   0  0  0  0  0  0  0  0  0  0  0  0
    0.7818   -3.4991   -2.8843 C   0  0  0  0  0  0  0  0  0  0  0  0
    1.7121   -3.4289   -1.8421 C   0  0  0  0  0  0  0  0  0  0  0  0
    1.7387   -2.3122   -1.0028 C   0  0  0  0  0  0  0  0  0  0  0  0
    0.8236   -1.2629   -1.2044 C   0  0  0  0  0  0  0  0  0  0  0  0
   -0.8053   -0.5193   -2.4214 H   0  0  0  0  0  0  0  0  0  0  0  0
   -0.8547   -2.5201   -3.8954 H   0  0  0  0  0  0  0  0  0  0  0  0
    0.7737   -4.3611   -3.5449 H   0  0  0  0  0  0  0  0  0  0  0  0
    2.4266   -4.2335   -1.6972 H   0  0  0  0  0  0  0  0  0  0  0  0
    2.4748   -2.2375   -0.2075 H   0  0  0  0  0  0  0  0  0  0  0  0
    0.9064   -0.3531   -0.6124 H   0  0  0  0  0  0  0  0  0  0  0  0
    1.4364   -1.5347    3.5760 S   0  0  0  0  0  0  0  0  0  0  0  0
    2.1569   -1.1677    2.3761 O   0  0  0  0  0  0  0  0  0  0  0  0
    0.0394   -2.0206    3.4752 O   0  0  0  0  0  0  0  0  0  0  0  0
    2.3049   -2.6199    4.3788 O   0  0  0  0  0  0  0  0  0  0  0  0
    1.4177   -0.0963    4.7873 C   0  0  0  0  0  0  0  0  0  0  0  0
    0.9508   -0.5492    5.9448 F   0  0  0  0  0  0  0  0  0  0  0  0
    2.6470    0.3608    4.9191 F   0  0  0  0  0  0  0  0  0  0  0  0
    0.6148    0.8298    4.2864 F   0  0  0  0  0  0  0  0  0  0  0  0
   -0.4234   -1.9610    0.1555 H   0  0  0  0  0  0  0  0  0  0  0  0
  1  3  1  0  0  0  0
  2  1  1  0  0  0  0
  3  4  1  0  0  0  0
  6 11  2  0  0  0  0
  7  8  2  0  0  0  0
  7  6  1  0  0  0  0
  8  9  1  0  0  0  0
  9 15  1  0  0  0  0
  9 10  2  0  0  0  0
 10 16  1  0  0  0  0
 11 10  1  0  0  0  0
 11 17  1  0  0  0  0
 12  6  1  0  0  0  0
 13  7  1  0  0  0  0
 14  8  1  0  0  0  0
 18 21  1  0  0  0  0
 18 22  1  0  0  0  0
 19 18  2  0  0  0  0
 20 18  2  0  0  0  0
 21  5  1  0  0  0  0
 22 24  1  0  0  0  0
 22 23  1  0  0  0  0
 25 22  1  0  0  0  0
 26  3  1  0  0  0  0
M  RAD  2   1   2   2   3
M  END
