Coordinates from ORCA-job C6H6+HOTf+NH2N2+-scan
 OpenBabel10221816143D

 26 24  0  0  0  0  0  0  0  0999 V2000
   -1.0208    0.3558    0.6866 N   0  0  0  0  0  0  0  0  0  0  0  0
   -1.6598    1.2631    0.4977 N   0  0  0  0  0  0  0  0  0  0  0  0
   -0.2822   -0.6590    0.8139 N   0  0  0  0  0  0  0  0  0  0  0  0
   -0.2126   -1.0796    1.7721 H   0  0  0  0  0  0  0  0  0  0  0  0
   -0.6521   -3.8518    4.6341 H   0  0  0  0  0  0  0  0  0  0  0  0
   -0.0606   -3.2138   -2.0492 C   0  0  0  0  0  0  0  0  0  0  0  0
    0.7889   -2.9767   -0.9695 C   0  0  0  0  0  0  0  0  0  0  0  0
    1.4475   -1.7350   -0.8539 C   0  0  0  0  0  0  0  0  0  0  0  0
    1.3115   -0.7722   -1.8761 C   0  0  0  0  0  0  0  0  0  0  0  0
    0.4543   -1.0153   -2.9506 C   0  0  0  0  0  0  0  0  0  0  0  0
   -0.2293   -2.2336   -3.0340 C   0  0  0  0  0  0  0  0  0  0  0  0
   -0.5779   -4.1644   -2.1354 H   0  0  0  0  0  0  0  0  0  0  0  0
    0.9396   -3.7330   -0.2051 H   0  0  0  0  0  0  0  0  0  0  0  0
    2.1875   -1.5934   -0.0687 H   0  0  0  0  0  0  0  0  0  0  0  0
    1.8650    0.1612   -1.8168 H   0  0  0  0  0  0  0  0  0  0  0  0
    0.3377   -0.2711   -3.7324 H   0  0  0  0  0  0  0  0  0  0  0  0
   -0.8877   -2.4239   -3.8765 H   0  0  0  0  0  0  0  0  0  0  0  0
    0.9127   -2.8956    3.4928 S   0  0  0  0  0  0  0  0  0  0  0  0
    1.7023   -3.3712    2.3760 O   0  0  0  0  0  0  0  0  0  0  0  0
   -0.0325   -1.7738    3.3053 O   0  0  0  0  0  0  0  0  0  0  0  0
    0.1223   -4.1467    4.1181 O   0  0  0  0  0  0  0  0  0  0  0  0
    2.0419   -2.4188    4.9173 C   0  0  0  0  0  0  0  0  0  0  0  0
    1.2811   -2.2096    5.9854 F   0  0  0  0  0  0  0  0  0  0  0  0
    2.8952   -3.4013    5.1305 F   0  0  0  0  0  0  0  0  0  0  0  0
    2.6728   -1.3080    4.5660 F   0  0  0  0  0  0  0  0  0  0  0  0
    0.2779   -1.0106   -0.0372 H   0  0  0  0  0  0  0  0  0  0  0  0
  1  3  1  0  0  0  0
  2  1  1  0  0  0  0
  3  4  1  0  0  0  0
  6  7  2  0  0  0  0
  7  8  1  0  0  0  0
  7 13  1  0  0  0  0
  8 14  1  0  0  0  0
  9 15  1  0  0  0  0
  9  8  2  0  0  0  0
 10  9  1  0  0  0  0
 11 10  2  0  0  0  0
 11  6  1  0  0  0  0
 12  6  1  0  0  0  0
 16 10  1  0  0  0  0
 17 11  1  0  0  0  0
 18 21  1  0  0  0  0
 18 22  1  0  0  0  0
 19 18  2  0  0  0  0
 20 18  2  0  0  0  0
 21  5  1  0  0  0  0
 22 24  1  0  0  0  0
 22 23  1  0  0  0  0
 25 22  1  0  0  0  0
 26  3  1  0  0  0  0
M  RAD  2   1   2   2   3
M  END
