Coordinates from ORCA-job C6H6+HOTf+NH2N2+-scan
 OpenBabel10221816143D

 26 24  0  0  0  0  0  0  0  0999 V2000
   -2.8400   -2.3102    1.8192 N   0  0  0  0  0  0  0  0  0  0  0  0
   -3.9520   -2.4518    1.8652 N   0  0  0  0  0  0  0  0  0  0  0  0
   -1.5857   -2.1348    1.8022 N   0  0  0  0  0  0  0  0  0  0  0  0
   -1.0561   -1.9931    2.7306 H   0  0  0  0  0  0  0  0  0  0  0  0
    1.4594   -2.9711    5.5166 H   0  0  0  0  0  0  0  0  0  0  0  0
   -0.1776   -1.7451   -2.6536 C   0  0  0  0  0  0  0  0  0  0  0  0
    0.3724   -2.4441   -3.7316 C   0  0  0  0  0  0  0  0  0  0  0  0
    1.5724   -3.1466   -3.5766 C   0  0  0  0  0  0  0  0  0  0  0  0
    2.2120   -3.1632   -2.3325 C   0  0  0  0  0  0  0  0  0  0  0  0
    1.6674   -2.4645   -1.2506 C   0  0  0  0  0  0  0  0  0  0  0  0
    0.4753   -1.7494   -1.4152 C   0  0  0  0  0  0  0  0  0  0  0  0
   -1.0946   -1.1778   -2.7890 H   0  0  0  0  0  0  0  0  0  0  0  0
   -0.1270   -2.4293   -4.6959 H   0  0  0  0  0  0  0  0  0  0  0  0
    2.0040   -3.6798   -4.4183 H   0  0  0  0  0  0  0  0  0  0  0  0
    3.1432   -3.7085   -2.2090 H   0  0  0  0  0  0  0  0  0  0  0  0
    2.1818   -2.4555   -0.2934 H   0  0  0  0  0  0  0  0  0  0  0  0
    0.1006   -1.1225   -0.6024 H   0  0  0  0  0  0  0  0  0  0  0  0
    1.2764   -1.6636    3.8032 S   0  0  0  0  0  0  0  0  0  0  0  0
    1.8202   -1.7533    2.4666 O   0  0  0  0  0  0  0  0  0  0  0  0
   -0.1962   -1.7746    3.9936 O   0  0  0  0  0  0  0  0  0  0  0  0
    1.9961   -2.7542    4.7299 O   0  0  0  0  0  0  0  0  0  0  0  0
    1.7966   -0.0520    4.6273 C   0  0  0  0  0  0  0  0  0  0  0  0
    1.4534   -0.1273    5.9066 F   0  0  0  0  0  0  0  0  0  0  0  0
    3.0993    0.0848    4.4910 F   0  0  0  0  0  0  0  0  0  0  0  0
    1.1444    0.9256    4.0196 F   0  0  0  0  0  0  0  0  0  0  0  0
   -1.1228   -2.2159    0.8867 H   0  0  0  0  0  0  0  0  0  0  0  0
  1  2  1  0  0  0  0
  3  1  1  0  0  0  0
  3  4  1  0  0  0  0
  6 11  2  0  0  0  0
  7  8  2  0  0  0  0
  7  6  1  0  0  0  0
  8  9  1  0  0  0  0
  9 15  1  0  0  0  0
  9 10  2  0  0  0  0
 10 16  1  0  0  0  0
 11 10  1  0  0  0  0
 11 17  1  0  0  0  0
 12  6  1  0  0  0  0
 13  7  1  0  0  0  0
 14  8  1  0  0  0  0
 18 20  2  0  0  0  0
 18 22  1  0  0  0  0
 18 21  1  0  0  0  0
 19 18  2  0  0  0  0
 21  5  1  0  0  0  0
 22 23  1  0  0  0  0
 24 22  1  0  0  0  0
 25 22  1  0  0  0  0
 26  3  1  0  0  0  0
M  RAD  2   1   2   2   3
M  END
