Coordinates from ORCA-job C6H6+HOTf+NH2N2+-scan
 OpenBabel10221816143D

 26 24  0  0  0  0  0  0  0  0999 V2000
   -2.7598   -2.3150    1.6903 N   0  0  0  0  0  0  0  0  0  0  0  0
   -3.8684   -2.4868    1.7077 N   0  0  0  0  0  0  0  0  0  0  0  0
   -1.5110   -2.1046    1.6986 N   0  0  0  0  0  0  0  0  0  0  0  0
   -1.0000   -1.9958    2.6387 H   0  0  0  0  0  0  0  0  0  0  0  0
    1.5451   -3.0313    5.3861 H   0  0  0  0  0  0  0  0  0  0  0  0
   -0.1834   -1.7203   -2.6017 C   0  0  0  0  0  0  0  0  0  0  0  0
    0.3124   -2.4670   -3.6739 C   0  0  0  0  0  0  0  0  0  0  0  0
    1.4878   -3.2129   -3.5300 C   0  0  0  0  0  0  0  0  0  0  0  0
    2.1540   -3.2272   -2.2994 C   0  0  0  0  0  0  0  0  0  0  0  0
    1.6640   -2.4814   -1.2230 C   0  0  0  0  0  0  0  0  0  0  0  0
    0.4983   -1.7199   -1.3777 C   0  0  0  0  0  0  0  0  0  0  0  0
   -1.0774   -1.1163   -2.7323 H   0  0  0  0  0  0  0  0  0  0  0  0
   -0.2083   -2.4537   -4.6269 H   0  0  0  0  0  0  0  0  0  0  0  0
    1.8789   -3.7812   -4.3684 H   0  0  0  0  0  0  0  0  0  0  0  0
    3.0655   -3.8063   -2.1834 H   0  0  0  0  0  0  0  0  0  0  0  0
    2.2029   -2.4676   -0.2794 H   0  0  0  0  0  0  0  0  0  0  0  0
    0.1808   -1.0444   -0.5797 H   0  0  0  0  0  0  0  0  0  0  0  0
    1.3080   -1.6129    3.7706 S   0  0  0  0  0  0  0  0  0  0  0  0
    1.8721   -1.5730    2.4398 O   0  0  0  0  0  0  0  0  0  0  0  0
   -0.1575   -1.8167    3.9310 O   0  0  0  0  0  0  0  0  0  0  0  0
    2.0772   -2.7292    4.6249 O   0  0  0  0  0  0  0  0  0  0  0  0
    1.7311   -0.0419    4.7185 C   0  0  0  0  0  0  0  0  0  0  0  0
    1.3791   -0.2302    5.9839 F   0  0  0  0  0  0  0  0  0  0  0  0
    3.0259    0.1745    4.6120 F   0  0  0  0  0  0  0  0  0  0  0  0
    1.0333    0.9424    4.1755 F   0  0  0  0  0  0  0  0  0  0  0  0
   -1.0280   -2.1594    0.7883 H   0  0  0  0  0  0  0  0  0  0  0  0
  1  3  1  0  0  0  0
  1  2  1  0  0  0  0
  3  4  1  0  0  0  0
  6 11  2  0  0  0  0
  7  8  2  0  0  0  0
  7  6  1  0  0  0  0
  8  9  1  0  0  0  0
  9 15  1  0  0  0  0
  9 10  2  0  0  0  0
 10 16  1  0  0  0  0
 11 10  1  0  0  0  0
 11 17  1  0  0  0  0
 12  6  1  0  0  0  0
 13  7  1  0  0  0  0
 14  8  1  0  0  0  0
 18 20  2  0  0  0  0
 18 21  1  0  0  0  0
 18 22  1  0  0  0  0
 19 18  2  0  0  0  0
 21  5  1  0  0  0  0
 22 23  1  0  0  0  0
 24 22  1  0  0  0  0
 25 22  1  0  0  0  0
 26  3  1  0  0  0  0
M  RAD  2   1   2   2   3
M  END
