Coordinates from ORCA-job C6H6+HOTf+NH2N2+-scan
 OpenBabel10221816143D

 26 24  0  0  0  0  0  0  0  0999 V2000
   -2.0935    0.5266    5.8782 N   0  0  0  0  0  0  0  0  0  0  0  0
   -1.7252   -0.3295    5.2868 N   0  0  0  0  0  0  0  0  0  0  0  0
    0.7505   -1.3291   -0.3704 N   0  0  0  0  0  0  0  0  0  0  0  0
    0.6426   -1.2924    0.6769 H   0  0  0  0  0  0  0  0  0  0  0  0
   -1.1533   -1.8947    4.2944 H   0  0  0  0  0  0  0  0  0  0  0  0
   -0.3468   -2.6029   -2.2110 C   0  0  0  0  0  0  0  0  0  0  0  0
    0.4126   -2.6645   -0.9776 C   0  0  0  0  0  0  0  0  0  0  0  0
    1.6485   -1.7110   -0.8563 C   0  0  0  0  0  0  0  0  0  0  0  0
    2.1437   -1.1800   -2.1628 C   0  0  0  0  0  0  0  0  0  0  0  0
    1.2991   -1.1001   -3.2166 C   0  0  0  0  0  0  0  0  0  0  0  0
    0.0145   -1.7742   -3.2241 C   0  0  0  0  0  0  0  0  0  0  0  0
   -1.1957   -3.2735   -2.2958 H   0  0  0  0  0  0  0  0  0  0  0  0
    0.3006   -3.4135   -0.2056 H   0  0  0  0  0  0  0  0  0  0  0  0
    2.4817   -2.0672   -0.2380 H   0  0  0  0  0  0  0  0  0  0  0  0
    3.1903   -0.9061   -2.2346 H   0  0  0  0  0  0  0  0  0  0  0  0
    1.6363   -0.6400   -4.1409 H   0  0  0  0  0  0  0  0  0  0  0  0
   -0.5977   -1.7174   -4.1179 H   0  0  0  0  0  0  0  0  0  0  0  0
    0.3695   -2.7515    3.0049 S   0  0  0  0  0  0  0  0  0  0  0  0
    0.3804   -3.9292    2.1588 O   0  0  0  0  0  0  0  0  0  0  0  0
    0.5482   -1.4197    2.3833 O   0  0  0  0  0  0  0  0  0  0  0  0
   -0.9611   -2.7680    3.8792 O   0  0  0  0  0  0  0  0  0  0  0  0
    1.6970   -2.9057    4.3220 C   0  0  0  0  0  0  0  0  0  0  0  0
    1.5071   -1.9314    5.2068 F   0  0  0  0  0  0  0  0  0  0  0  0
    1.5960   -4.0881    4.8974 F   0  0  0  0  0  0  0  0  0  0  0  0
    2.8716   -2.7686    3.7223 F   0  0  0  0  0  0  0  0  0  0  0  0
    0.2057   -0.5463   -0.7696 H   0  0  0  0  0  0  0  0  0  0  0  0
  2  1  3  0  0  0  0
  3  4  1  0  0  0  0
  6  7  1  0  0  0  0
  7  3  1  0  0  0  0
  7 13  1  0  0  0  0
  8  3  1  0  0  0  0
  8 14  1  0  0  0  0
  9  8  1  0  0  0  0
 10  9  2  0  0  0  0
 11 10  1  0  0  0  0
 11  6  2  0  0  0  0
 12  6  1  0  0  0  0
 15  9  1  0  0  0  0
 16 10  1  0  0  0  0
 17 11  1  0  0  0  0
 18 21  1  0  0  0  0
 18 22  1  0  0  0  0
 19 18  2  0  0  0  0
 20 18  2  0  0  0  0
 21  5  1  0  0  0  0
 22 24  1  0  0  0  0
 22 23  1  0  0  0  0
 25 22  1  0  0  0  0
 26  3  1  0  0  0  0
M  RAD  2   7   2   8   2
M  END
