Coordinates from ORCA-job C6H6+HOTf+NH2N2+-scan
 OpenBabel10221816143D

 26 24  0  0  0  0  0  0  0  0999 V2000
   -3.1696   -2.8481    2.2338 N   0  0  0  0  0  0  0  0  0  0  0  0
   -4.2845   -2.8567    2.3518 N   0  0  0  0  0  0  0  0  0  0  0  0
   -1.9016   -2.8641    2.1632 N   0  0  0  0  0  0  0  0  0  0  0  0
   -1.3264   -2.3664    2.9334 H   0  0  0  0  0  0  0  0  0  0  0  0
    1.2483   -1.9878    5.8173 H   0  0  0  0  0  0  0  0  0  0  0  0
    0.3655   -1.1529   -2.1355 C   0  0  0  0  0  0  0  0  0  0  0  0
    0.7502   -1.6421   -3.3866 C   0  0  0  0  0  0  0  0  0  0  0  0
    1.6368   -2.7194   -3.4765 C   0  0  0  0  0  0  0  0  0  0  0  0
    2.1290   -3.3150   -2.3115 C   0  0  0  0  0  0  0  0  0  0  0  0
    1.7471   -2.8275   -1.0582 C   0  0  0  0  0  0  0  0  0  0  0  0
    0.8673   -1.7438   -0.9714 C   0  0  0  0  0  0  0  0  0  0  0  0
   -0.3081   -0.3021   -2.0719 H   0  0  0  0  0  0  0  0  0  0  0  0
    0.3676   -1.1770   -4.2906 H   0  0  0  0  0  0  0  0  0  0  0  0
    1.9418   -3.0933   -4.4495 H   0  0  0  0  0  0  0  0  0  0  0  0
    2.8190   -4.1513   -2.3795 H   0  0  0  0  0  0  0  0  0  0  0  0
    2.1485   -3.2775   -0.1539 H   0  0  0  0  0  0  0  0  0  0  0  0
    0.6128   -1.3270    0.0027 H   0  0  0  0  0  0  0  0  0  0  0  0
    1.0754   -1.8303    3.6683 S   0  0  0  0  0  0  0  0  0  0  0  0
    1.5065   -2.7157    2.6098 O   0  0  0  0  0  0  0  0  0  0  0  0
   -0.3849   -1.6556    3.9117 O   0  0  0  0  0  0  0  0  0  0  0  0
    1.7722   -2.2653    5.0410 O   0  0  0  0  0  0  0  0  0  0  0  0
    1.7758   -0.1042    3.3972 C   0  0  0  0  0  0  0  0  0  0  0  0
    1.5075    0.6184    4.4757 F   0  0  0  0  0  0  0  0  0  0  0  0
    3.0731   -0.2034    3.1988 F   0  0  0  0  0  0  0  0  0  0  0  0
    1.1631    0.3932    2.3317 F   0  0  0  0  0  0  0  0  0  0  0  0
   -1.5098   -3.0631    1.2391 H   0  0  0  0  0  0  0  0  0  0  0  0
  1  2  1  0  0  0  0
  3  1  1  0  0  0  0
  3  4  1  0  0  0  0
  6 12  1  0  0  0  0
  6 11  2  0  0  0  0
  7  6  1  0  0  0  0
  8  7  2  0  0  0  0
  8  9  1  0  0  0  0
  9 10  2  0  0  0  0
 10 11  1  0  0  0  0
 10 16  1  0  0  0  0
 11 17  1  0  0  0  0
 13  7  1  0  0  0  0
 14  8  1  0  0  0  0
 15  9  1  0  0  0  0
 18 20  2  0  0  0  0
 18 21  1  0  0  0  0
 19 18  2  0  0  0  0
 21  5  1  0  0  0  0
 22 18  1  0  0  0  0
 22 23  1  0  0  0  0
 24 22  1  0  0  0  0
 25 22  1  0  0  0  0
 26  3  1  0  0  0  0
M  RAD  2   1   2   2   3
M  END
