Coordinates from ORCA-job C6H6+HOTf+NH2N2+-scan
 OpenBabel10221816143D

 26 24  0  0  0  0  0  0  0  0999 V2000
   -2.0455   -2.6190    0.6211 N   0  0  0  0  0  0  0  0  0  0  0  0
   -3.0520   -3.0678    0.4020 N   0  0  0  0  0  0  0  0  0  0  0  0
   -0.9219   -2.0888    0.8499 N   0  0  0  0  0  0  0  0  0  0  0  0
   -0.5584   -2.0984    1.8437 H   0  0  0  0  0  0  0  0  0  0  0  0
    1.6984   -3.2713    4.8892 H   0  0  0  0  0  0  0  0  0  0  0  0
   -0.1670   -1.3330   -2.3041 C   0  0  0  0  0  0  0  0  0  0  0  0
   -0.2626   -2.6020   -2.8833 C   0  0  0  0  0  0  0  0  0  0  0  0
    0.6674   -3.5940   -2.5517 C   0  0  0  0  0  0  0  0  0  0  0  0
    1.6869   -3.3273   -1.6325 C   0  0  0  0  0  0  0  0  0  0  0  0
    1.7866   -2.0623   -1.0458 C   0  0  0  0  0  0  0  0  0  0  0  0
    0.8574   -1.0609   -1.3794 C   0  0  0  0  0  0  0  0  0  0  0  0
   -0.8671   -0.5501   -2.5830 H   0  0  0  0  0  0  0  0  0  0  0  0
   -1.0443   -2.8104   -3.6080 H   0  0  0  0  0  0  0  0  0  0  0  0
    0.5998   -4.5739   -3.0153 H   0  0  0  0  0  0  0  0  0  0  0  0
    2.4106   -4.0981   -1.3851 H   0  0  0  0  0  0  0  0  0  0  0  0
    2.5815   -1.8451   -0.3384 H   0  0  0  0  0  0  0  0  0  0  0  0
    0.9668   -0.0608   -0.9665 H   0  0  0  0  0  0  0  0  0  0  0  0
    1.4736   -1.5976    3.5408 S   0  0  0  0  0  0  0  0  0  0  0  0
    2.2605   -1.1726    2.4042 O   0  0  0  0  0  0  0  0  0  0  0  0
    0.0798   -2.0626    3.3426 O   0  0  0  0  0  0  0  0  0  0  0  0
    2.2896   -2.7344    4.3278 O   0  0  0  0  0  0  0  0  0  0  0  0
    1.3994   -0.2292    4.8281 C   0  0  0  0  0  0  0  0  0  0  0  0
    0.8707   -0.7421    5.9331 F   0  0  0  0  0  0  0  0  0  0  0  0
    2.6224    0.2103    5.0490 F   0  0  0  0  0  0  0  0  0  0  0  0
    0.6282    0.7302    4.3399 F   0  0  0  0  0  0  0  0  0  0  0  0
   -0.3380   -1.8168    0.0119 H   0  0  0  0  0  0  0  0  0  0  0  0
  1  3  1  0  0  0  0
  2  1  1  0  0  0  0
  3  4  1  0  0  0  0
  6 11  2  0  0  0  0
  7  8  2  0  0  0  0
  7  6  1  0  0  0  0
  8  9  1  0  0  0  0
  9 15  1  0  0  0  0
  9 10  2  0  0  0  0
 10 16  1  0  0  0  0
 11 10  1  0  0  0  0
 11 17  1  0  0  0  0
 12  6  1  0  0  0  0
 13  7  1  0  0  0  0
 14  8  1  0  0  0  0
 18 21  1  0  0  0  0
 18 22  1  0  0  0  0
 19 18  2  0  0  0  0
 20 18  2  0  0  0  0
 21  5  1  0  0  0  0
 22 24  1  0  0  0  0
 22 23  1  0  0  0  0
 25 22  1  0  0  0  0
 26  3  1  0  0  0  0
M  RAD  2   1   2   2   3
M  END
