Coordinates from ORCA-job C6H6+HOTf+NH2N2+-scan
 OpenBabel10221816143D

 26 25  0  0  1  0  0  0  0  0999 V2000
   -2.4094    0.0825    6.0815 N   0  0  0  0  0  0  0  0  0  0  0  0
   -1.9291   -0.6881    5.4540 N   0  0  0  0  0  0  0  0  0  0  0  0
    0.5985   -1.1831   -0.3268 N   0  0  0  0  0  0  0  0  0  0  0  0
    0.5316   -1.1332    0.7062 H   0  0  0  0  0  0  0  0  0  0  0  0
   -1.1325   -2.1021    4.3832 H   0  0  0  0  0  0  0  0  0  0  0  0
   -0.5172   -2.3612   -2.2832 C   0  0  0  0  0  0  0  0  0  0  0  0
    0.1752   -2.4762   -0.9915 C   0  0  1  0  0  0  0  0  0  0  0  0
    1.6107   -1.9922   -0.9092 C   0  0  1  0  0  0  0  0  0  0  0  0
    2.2382   -1.5195   -2.1639 C   0  0  0  0  0  0  0  0  0  0  0  0
    1.4905   -1.3542   -3.2763 C   0  0  0  0  0  0  0  0  0  0  0  0
    0.0946   -1.7710   -3.3345 C   0  0  0  0  0  0  0  0  0  0  0  0
   -1.5060   -2.7988   -2.3680 H   0  0  0  0  0  0  0  0  0  0  0  0
   -0.1611   -3.1949   -0.2517 H   0  0  0  0  0  0  0  0  0  0  0  0
    2.2593   -2.4515   -0.1684 H   0  0  0  0  0  0  0  0  0  0  0  0
    3.3096   -1.3504   -2.1643 H   0  0  0  0  0  0  0  0  0  0  0  0
    1.9528   -0.9855   -4.1868 H   0  0  0  0  0  0  0  0  0  0  0  0
   -0.4292   -1.6790   -4.2809 H   0  0  0  0  0  0  0  0  0  0  0  0
    0.4822   -2.6036    3.0259 S   0  0  0  0  0  0  0  0  0  0  0  0
    0.6445   -3.6889    2.0731 O   0  0  0  0  0  0  0  0  0  0  0  0
    0.4413   -1.2175    2.5230 O   0  0  0  0  0  0  0  0  0  0  0  0
   -0.8027   -2.9066    3.9193 O   0  0  0  0  0  0  0  0  0  0  0  0
    1.8547   -2.6892    4.3003 C   0  0  0  0  0  0  0  0  0  0  0  0
    1.5674   -1.8262    5.2699 F   0  0  0  0  0  0  0  0  0  0  0  0
    1.9286   -3.9188    4.7743 F   0  0  0  0  0  0  0  0  0  0  0  0
    2.9845   -2.3486    3.6934 F   0  0  0  0  0  0  0  0  0  0  0  0
    0.3456   -0.3202   -0.8085 H   0  0  0  0  0  0  0  0  0  0  0  0
  2  1  3  0  0  0  0
  3  4  1  0  0  0  0
  6  7  1  0  0  0  0
  7  8  1  0  0  0  0
  7  3  1  0  0  0  0
  7 13  1  1  0  0  0
  8  3  1  0  0  0  0
  8 14  1  1  0  0  0
  9  8  1  0  0  0  0
 10  9  2  0  0  0  0
 11 10  1  0  0  0  0
 11  6  2  0  0  0  0
 12  6  1  0  0  0  0
 15  9  1  0  0  0  0
 16 10  1  0  0  0  0
 17 11  1  0  0  0  0
 18 21  1  0  0  0  0
 18 22  1  0  0  0  0
 19 18  2  0  0  0  0
 20 18  2  0  0  0  0
 21  5  1  0  0  0  0
 22 24  1  0  0  0  0
 22 23  1  0  0  0  0
 25 22  1  0  0  0  0
 26  3  1  0  0  0  0
M  END
