Coordinates from ORCA-job C6H6+HOTf+NH2N2+-scan
 OpenBabel10221816143D

 26 24  0  0  1  0  0  0  0  0999 V2000
   -2.8548   -1.0640    6.1637 N   0  0  0  0  0  0  0  0  0  0  0  0
   -2.1221   -1.6236    5.5567 N   0  0  0  0  0  0  0  0  0  0  0  0
    0.2563   -0.8775   -0.3115 N   0  0  0  0  0  0  0  0  0  0  0  0
    0.2596   -0.9672    0.7069 H   0  0  0  0  0  0  0  0  0  0  0  0
   -0.8397   -2.6740    4.5093 H   0  0  0  0  0  0  0  0  0  0  0  0
   -0.6055   -1.5743   -2.5577 C   0  0  0  0  0  0  0  0  0  0  0  0
   -0.2595   -1.9842   -1.1609 C   0  0  1  0  0  0  0  0  0  0  0  0
    1.1113   -2.5369   -0.9764 C   0  0  0  0  0  0  0  0  0  0  0  0
    2.0871   -2.4211   -2.0041 C   0  0  0  0  0  0  0  0  0  0  0  0
    1.7073   -1.9564   -3.2348 C   0  0  0  0  0  0  0  0  0  0  0  0
    0.3432   -1.5458   -3.5173 C   0  0  0  0  0  0  0  0  0  0  0  0
   -1.6378   -1.3155   -2.7717 H   0  0  0  0  0  0  0  0  0  0  0  0
   -1.0679   -2.5038   -0.6458 H   0  0  0  0  0  0  0  0  0  0  0  0
    1.3337   -3.0262   -0.0323 H   0  0  0  0  0  0  0  0  0  0  0  0
    3.1033   -2.7475   -1.8119 H   0  0  0  0  0  0  0  0  0  0  0  0
    2.4367   -1.9078   -4.0387 H   0  0  0  0  0  0  0  0  0  0  0  0
    0.0927   -1.2440   -4.5293 H   0  0  0  0  0  0  0  0  0  0  0  0
    0.8045   -2.5310    3.1097 S   0  0  0  0  0  0  0  0  0  0  0  0
    1.3602   -3.4998    2.1791 O   0  0  0  0  0  0  0  0  0  0  0  0
    0.1990   -1.2924    2.6005 O   0  0  0  0  0  0  0  0  0  0  0  0
   -0.2246   -3.2977    4.0606 O   0  0  0  0  0  0  0  0  0  0  0  0
    2.1346   -2.0394    4.3329 C   0  0  0  0  0  0  0  0  0  0  0  0
    1.5614   -1.3338    5.3042 F   0  0  0  0  0  0  0  0  0  0  0  0
    2.7027   -3.1277    4.8212 F   0  0  0  0  0  0  0  0  0  0  0  0
    3.0237   -1.2968    3.6842 F   0  0  0  0  0  0  0  0  0  0  0  0
    0.7174   -0.0897   -0.7465 H   0  0  0  0  0  0  0  0  0  0  0  0
  2  1  3  0  0  0  0
  3  4  1  0  0  0  0
  6  7  1  0  0  0  0
  7  8  1  0  0  0  0
  7 13  1  1  0  0  0
  7  3  1  0  0  0  0
  8 14  1  0  0  0  0
  9 15  1  0  0  0  0
  9  8  1  0  0  0  0
 10  9  2  0  0  0  0
 11 10  1  0  0  0  0
 11  6  2  0  0  0  0
 12  6  1  0  0  0  0
 16 10  1  0  0  0  0
 17 11  1  0  0  0  0
 18 21  1  0  0  0  0
 18 22  1  0  0  0  0
 19 18  2  0  0  0  0
 20 18  2  0  0  0  0
 21  5  1  0  0  0  0
 22 24  1  0  0  0  0
 22 23  1  0  0  0  0
 25 22  1  0  0  0  0
 26  3  1  0  0  0  0
M  RAD  1   8   2
M  END
