Coordinates from ORCA-job C6H6+HOTf+NH2N2+-scan
 OpenBabel10221816143D

 26 24  0  0  0  0  0  0  0  0999 V2000
   -2.0496   -2.4545    0.5156 N   0  0  0  0  0  0  0  0  0  0  0  0
   -3.0836   -2.8448    0.3143 N   0  0  0  0  0  0  0  0  0  0  0  0
   -0.8920   -1.9985    0.7322 N   0  0  0  0  0  0  0  0  0  0  0  0
   -0.5107   -2.0523    1.7182 H   0  0  0  0  0  0  0  0  0  0  0  0
    1.6556   -3.4375    4.7366 H   0  0  0  0  0  0  0  0  0  0  0  0
   -0.2264   -1.3999   -2.3981 C   0  0  0  0  0  0  0  0  0  0  0  0
   -0.2947   -2.7626   -2.7080 C   0  0  0  0  0  0  0  0  0  0  0  0
    0.6726   -3.6423   -2.2085 C   0  0  0  0  0  0  0  0  0  0  0  0
    1.7075   -3.1670   -1.3971 C   0  0  0  0  0  0  0  0  0  0  0  0
    1.7796   -1.8067   -1.0794 C   0  0  0  0  0  0  0  0  0  0  0  0
    0.8084   -0.9202   -1.5761 C   0  0  0  0  0  0  0  0  0  0  0  0
   -0.9595   -0.7084   -2.8043 H   0  0  0  0  0  0  0  0  0  0  0  0
   -1.0851   -3.1337   -3.3541 H   0  0  0  0  0  0  0  0  0  0  0  0
    0.6250   -4.6974   -2.4622 H   0  0  0  0  0  0  0  0  0  0  0  0
    2.4627   -3.8516   -1.0226 H   0  0  0  0  0  0  0  0  0  0  0  0
    2.5819   -1.4330   -0.4504 H   0  0  0  0  0  0  0  0  0  0  0  0
    0.8809    0.1420   -1.3575 H   0  0  0  0  0  0  0  0  0  0  0  0
    1.5124   -1.6841    3.4810 S   0  0  0  0  0  0  0  0  0  0  0  0
    2.3445   -1.2124    2.3971 O   0  0  0  0  0  0  0  0  0  0  0  0
    0.1136   -2.0999    3.2177 O   0  0  0  0  0  0  0  0  0  0  0  0
    2.2757   -2.8878    4.2207 O   0  0  0  0  0  0  0  0  0  0  0  0
    1.4311   -0.3955    4.8476 C   0  0  0  0  0  0  0  0  0  0  0  0
    0.8594   -0.9623    5.9041 F   0  0  0  0  0  0  0  0  0  0  0  0
    2.6564    0.0006    5.1291 F   0  0  0  0  0  0  0  0  0  0  0  0
    0.6955    0.6101    4.3990 F   0  0  0  0  0  0  0  0  0  0  0  0
   -0.3387   -1.6783   -0.1046 H   0  0  0  0  0  0  0  0  0  0  0  0
  1  3  1  0  0  0  0
  2  1  1  0  0  0  0
  3  4  1  0  0  0  0
  6 11  1  0  0  0  0
  7  6  2  0  0  0  0
  7  8  1  0  0  0  0
  8  9  2  0  0  0  0
  9 10  1  0  0  0  0
  9 15  1  0  0  0  0
 10 16  1  0  0  0  0
 11 17  1  0  0  0  0
 11 10  2  0  0  0  0
 12  6  1  0  0  0  0
 13  7  1  0  0  0  0
 14  8  1  0  0  0  0
 18 21  1  0  0  0  0
 18 22  1  0  0  0  0
 19 18  2  0  0  0  0
 20 18  2  0  0  0  0
 21  5  1  0  0  0  0
 22 24  1  0  0  0  0
 22 23  1  0  0  0  0
 25 22  1  0  0  0  0
 26  3  1  0  0  0  0
M  RAD  2   1   2   2   3
M  END
