Coordinates from ORCA-job C6H6+HOTf+NH2N2+-scan
 OpenBabel10221816143D

 26 24  0  0  0  0  0  0  0  0999 V2000
   -3.2287   -2.9103    2.3587 N   0  0  0  0  0  0  0  0  0  0  0  0
   -4.3399   -2.8647    2.4996 N   0  0  0  0  0  0  0  0  0  0  0  0
   -1.9636   -2.9820    2.2668 N   0  0  0  0  0  0  0  0  0  0  0  0
   -1.3563   -2.4439    2.9850 H   0  0  0  0  0  0  0  0  0  0  0  0
    1.2673   -1.9925    5.7935 H   0  0  0  0  0  0  0  0  0  0  0  0
    0.4888   -1.0345   -2.2166 C   0  0  0  0  0  0  0  0  0  0  0  0
    0.8111   -1.6271   -3.4403 C   0  0  0  0  0  0  0  0  0  0  0  0
    1.6162   -2.7691   -3.4750 C   0  0  0  0  0  0  0  0  0  0  0  0
    2.0914   -3.3240   -2.2835 C   0  0  0  0  0  0  0  0  0  0  0  0
    1.7709   -2.7326   -1.0579 C   0  0  0  0  0  0  0  0  0  0  0  0
    0.9713   -1.5861   -1.0262 C   0  0  0  0  0  0  0  0  0  0  0  0
   -0.1233   -0.1365   -2.1949 H   0  0  0  0  0  0  0  0  0  0  0  0
    0.4432   -1.1937   -4.3660 H   0  0  0  0  0  0  0  0  0  0  0  0
    1.8730   -3.2245   -4.4270 H   0  0  0  0  0  0  0  0  0  0  0  0
    2.7199   -4.2098   -2.3100 H   0  0  0  0  0  0  0  0  0  0  0  0
    2.1577   -3.1533   -0.1333 H   0  0  0  0  0  0  0  0  0  0  0  0
    0.7539   -1.0991   -0.0770 H   0  0  0  0  0  0  0  0  0  0  0  0
    1.0543   -1.8520    3.6462 S   0  0  0  0  0  0  0  0  0  0  0  0
    1.4761   -2.7370    2.5840 O   0  0  0  0  0  0  0  0  0  0  0  0
   -0.4037   -1.6862    3.9086 O   0  0  0  0  0  0  0  0  0  0  0  0
    1.7730   -2.2824    5.0097 O   0  0  0  0  0  0  0  0  0  0  0  0
    1.7410   -0.1211    3.3687 C   0  0  0  0  0  0  0  0  0  0  0  0
    1.4896    0.5946    4.4560 F   0  0  0  0  0  0  0  0  0  0  0  0
    3.0346   -0.2141    3.1458 F   0  0  0  0  0  0  0  0  0  0  0  0
    1.1064    0.3798    2.3179 F   0  0  0  0  0  0  0  0  0  0  0  0
   -1.6016   -3.2759    1.3574 H   0  0  0  0  0  0  0  0  0  0  0  0
  1  2  1  0  0  0  0
  3  1  1  0  0  0  0
  3  4  1  0  0  0  0
  6 12  1  0  0  0  0
  6 11  2  0  0  0  0
  7  6  1  0  0  0  0
  8  7  2  0  0  0  0
  8  9  1  0  0  0  0
  9 10  2  0  0  0  0
 10 11  1  0  0  0  0
 10 16  1  0  0  0  0
 11 17  1  0  0  0  0
 13  7  1  0  0  0  0
 14  8  1  0  0  0  0
 15  9  1  0  0  0  0
 18 20  2  0  0  0  0
 18 21  1  0  0  0  0
 19 18  2  0  0  0  0
 21  5  1  0  0  0  0
 22 18  1  0  0  0  0
 22 23  1  0  0  0  0
 24 22  1  0  0  0  0
 25 22  1  0  0  0  0
 26  3  1  0  0  0  0
M  RAD  2   1   2   2   3
M  END
