Coordinates from ORCA-job C6H6+HOTf+NH2N2+-scan
 OpenBabel10221816143D

 26 24  0  0  0  0  0  0  0  0999 V2000
   -0.8065    0.4687    0.6935 N   0  0  0  0  0  0  0  0  0  0  0  0
   -1.3933    1.4197    0.5618 N   0  0  0  0  0  0  0  0  0  0  0  0
   -0.1374   -0.5991    0.7637 N   0  0  0  0  0  0  0  0  0  0  0  0
   -0.1005   -1.0750    1.6994 H   0  0  0  0  0  0  0  0  0  0  0  0
   -0.8343   -3.8667    4.4653 H   0  0  0  0  0  0  0  0  0  0  0  0
    0.0743   -3.2422   -1.8426 C   0  0  0  0  0  0  0  0  0  0  0  0
    1.0843   -2.8588   -0.9608 C   0  0  0  0  0  0  0  0  0  0  0  0
    1.6284   -1.5611   -1.0424 C   0  0  0  0  0  0  0  0  0  0  0  0
    1.2065   -0.6849   -2.0628 C   0  0  0  0  0  0  0  0  0  0  0  0
    0.1895   -1.0750   -2.9372 C   0  0  0  0  0  0  0  0  0  0  0  0
   -0.3737   -2.3505   -2.8245 C   0  0  0  0  0  0  0  0  0  0  0  0
   -0.3540   -4.2377   -1.7781 H   0  0  0  0  0  0  0  0  0  0  0  0
    1.4431   -3.5441   -0.1988 H   0  0  0  0  0  0  0  0  0  0  0  0
    2.4750   -1.2918   -0.4136 H   0  0  0  0  0  0  0  0  0  0  0  0
    1.6695    0.2934   -2.1618 H   0  0  0  0  0  0  0  0  0  0  0  0
   -0.1450   -0.3992   -3.7184 H   0  0  0  0  0  0  0  0  0  0  0  0
   -1.1571   -2.6553   -3.5122 H   0  0  0  0  0  0  0  0  0  0  0  0
    0.8599   -2.9756    3.4639 S   0  0  0  0  0  0  0  0  0  0  0  0
    1.7247   -3.4819    2.4204 O   0  0  0  0  0  0  0  0  0  0  0  0
   -0.0203   -1.8150    3.2044 O   0  0  0  0  0  0  0  0  0  0  0  0
   -0.0341   -4.1931    4.0117 O   0  0  0  0  0  0  0  0  0  0  0  0
    1.8753   -2.5458    4.9855 C   0  0  0  0  0  0  0  0  0  0  0  0
    1.0309   -2.3115    5.9838 F   0  0  0  0  0  0  0  0  0  0  0  0
    2.6692   -3.5601    5.2674 F   0  0  0  0  0  0  0  0  0  0  0  0
    2.5756   -1.4582    4.6993 F   0  0  0  0  0  0  0  0  0  0  0  0
    0.4727   -0.8771   -0.0766 H   0  0  0  0  0  0  0  0  0  0  0  0
  1  3  1  0  0  0  0
  2  1  1  0  0  0  0
  3  4  1  0  0  0  0
  6 12  1  0  0  0  0
  6  7  2  0  0  0  0
  7 13  1  0  0  0  0
  8  7  1  0  0  0  0
  8 14  1  0  0  0  0
  9  8  2  0  0  0  0
 10 11  2  0  0  0  0
 10  9  1  0  0  0  0
 11  6  1  0  0  0  0
 15  9  1  0  0  0  0
 16 10  1  0  0  0  0
 17 11  1  0  0  0  0
 18 21  1  0  0  0  0
 18 22  1  0  0  0  0
 19 18  2  0  0  0  0
 20 18  2  0  0  0  0
 21  5  1  0  0  0  0
 22 24  1  0  0  0  0
 22 23  1  0  0  0  0
 25 22  1  0  0  0  0
 26  3  1  0  0  0  0
M  RAD  2   1   2   2   3
M  END
