Coordinates from ORCA-job C6H6+HOTf+NH2N2+-scan
 OpenBabel10221816143D

 26 24  0  0  0  0  0  0  0  0999 V2000
   -3.0971   -2.7369    2.1176 N   0  0  0  0  0  0  0  0  0  0  0  0
   -4.2142   -2.7612    2.2112 N   0  0  0  0  0  0  0  0  0  0  0  0
   -1.8282   -2.7402    2.0684 N   0  0  0  0  0  0  0  0  0  0  0  0
   -1.2709   -2.2894    2.8777 H   0  0  0  0  0  0  0  0  0  0  0  0
    1.2401   -2.1358    5.8320 H   0  0  0  0  0  0  0  0  0  0  0  0
    0.2076   -1.3079   -2.1922 C   0  0  0  0  0  0  0  0  0  0  0  0
    0.6659   -1.7466   -3.4375 C   0  0  0  0  0  0  0  0  0  0  0  0
    1.6517   -2.7357   -3.5152 C   0  0  0  0  0  0  0  0  0  0  0  0
    2.1691   -3.2951   -2.3426 C   0  0  0  0  0  0  0  0  0  0  0  0
    1.7143   -2.8586   -1.0947 C   0  0  0  0  0  0  0  0  0  0  0  0
    0.7362   -1.8612   -1.0209 C   0  0  0  0  0  0  0  0  0  0  0  0
   -0.5427   -0.5232   -2.1388 H   0  0  0  0  0  0  0  0  0  0  0  0
    0.2626   -1.3098   -4.3465 H   0  0  0  0  0  0  0  0  0  0  0  0
    2.0128   -3.0695   -4.4834 H   0  0  0  0  0  0  0  0  0  0  0  0
    2.9347   -4.0634   -2.4002 H   0  0  0  0  0  0  0  0  0  0  0  0
    2.1348   -3.2781   -0.1847 H   0  0  0  0  0  0  0  0  0  0  0  0
    0.4294   -1.4737   -0.0482 H   0  0  0  0  0  0  0  0  0  0  0  0
    1.1154   -1.7891    3.7016 S   0  0  0  0  0  0  0  0  0  0  0  0
    1.5754   -2.5745    2.5781 O   0  0  0  0  0  0  0  0  0  0  0  0
   -0.3506   -1.6345    3.9203 O   0  0  0  0  0  0  0  0  0  0  0  0
    1.7761   -2.3543    5.0451 O   0  0  0  0  0  0  0  0  0  0  0  0
    1.8234   -0.0468    3.6162 C   0  0  0  0  0  0  0  0  0  0  0  0
    1.5234    0.5688    4.7517 F   0  0  0  0  0  0  0  0  0  0  0  0
    3.1265   -0.1315    3.4491 F   0  0  0  0  0  0  0  0  0  0  0  0
    1.2445    0.5521    2.5862 F   0  0  0  0  0  0  0  0  0  0  0  0
   -1.4175   -2.8817    1.1399 H   0  0  0  0  0  0  0  0  0  0  0  0
  1  2  1  0  0  0  0
  3  1  1  0  0  0  0
  3  4  1  0  0  0  0
  6 12  1  0  0  0  0
  6 11  2  0  0  0  0
  7  6  1  0  0  0  0
  8  7  2  0  0  0  0
  8  9  1  0  0  0  0
  9 10  2  0  0  0  0
 10 11  1  0  0  0  0
 10 16  1  0  0  0  0
 11 17  1  0  0  0  0
 13  7  1  0  0  0  0
 14  8  1  0  0  0  0
 15  9  1  0  0  0  0
 18 20  2  0  0  0  0
 18 21  1  0  0  0  0
 19 18  2  0  0  0  0
 21  5  1  0  0  0  0
 22 18  1  0  0  0  0
 22 23  1  0  0  0  0
 24 22  1  0  0  0  0
 25 22  1  0  0  0  0
 26  3  1  0  0  0  0
M  RAD  2   1   2   2   3
M  END
