Coordinates from ORCA-job C6H6+HOTf+NH2N2+-scan
 OpenBabel10221816143D

 26 24  0  0  0  0  0  0  0  0999 V2000
   -2.0614   -2.6236    0.6477 N   0  0  0  0  0  0  0  0  0  0  0  0
   -3.0685   -3.0717    0.4298 N   0  0  0  0  0  0  0  0  0  0  0  0
   -0.9369   -2.0938    0.8729 N   0  0  0  0  0  0  0  0  0  0  0  0
   -0.5725   -2.0989    1.8663 H   0  0  0  0  0  0  0  0  0  0  0  0
    1.6966   -3.2549    4.9096 H   0  0  0  0  0  0  0  0  0  0  0  0
   -0.1649   -1.3371   -2.2976 C   0  0  0  0  0  0  0  0  0  0  0  0
   -0.2461   -2.5893   -2.9136 C   0  0  0  0  0  0  0  0  0  0  0  0
    0.6870   -3.5849   -2.6019 C   0  0  0  0  0  0  0  0  0  0  0  0
    1.6930   -3.3386   -1.6623 C   0  0  0  0  0  0  0  0  0  0  0  0
    1.7788   -2.0906   -1.0388 C   0  0  0  0  0  0  0  0  0  0  0  0
    0.8486   -1.0843   -1.3554 C   0  0  0  0  0  0  0  0  0  0  0  0
   -0.8658   -0.5506   -2.5644 H   0  0  0  0  0  0  0  0  0  0  0  0
   -1.0189   -2.7811   -3.6524 H   0  0  0  0  0  0  0  0  0  0  0  0
    0.6313   -4.5510   -3.0949 H   0  0  0  0  0  0  0  0  0  0  0  0
    2.4188   -4.1118   -1.4284 H   0  0  0  0  0  0  0  0  0  0  0  0
    2.5664   -1.8888   -0.3188 H   0  0  0  0  0  0  0  0  0  0  0  0
    0.9529   -0.0931   -0.9198 H   0  0  0  0  0  0  0  0  0  0  0  0
    1.4683   -1.5920    3.5485 S   0  0  0  0  0  0  0  0  0  0  0  0
    2.2491   -1.1798    2.4029 O   0  0  0  0  0  0  0  0  0  0  0  0
    0.0719   -2.0543    3.3633 O   0  0  0  0  0  0  0  0  0  0  0  0
    2.2859   -2.7242    4.3403 O   0  0  0  0  0  0  0  0  0  0  0  0
    1.4070   -0.2116    4.8237 C   0  0  0  0  0  0  0  0  0  0  0  0
    0.8835   -0.7125    5.9365 F   0  0  0  0  0  0  0  0  0  0  0  0
    2.6330    0.2254    5.0329 F   0  0  0  0  0  0  0  0  0  0  0  0
    0.6363    0.7461    4.3314 F   0  0  0  0  0  0  0  0  0  0  0  0
   -0.3509   -1.8310    0.0327 H   0  0  0  0  0  0  0  0  0  0  0  0
  1  3  1  0  0  0  0
  2  1  1  0  0  0  0
  3  4  1  0  0  0  0
  6 11  2  0  0  0  0
  7  8  2  0  0  0  0
  7  6  1  0  0  0  0
  8  9  1  0  0  0  0
  9 15  1  0  0  0  0
  9 10  2  0  0  0  0
 10 16  1  0  0  0  0
 11 10  1  0  0  0  0
 11 17  1  0  0  0  0
 12  6  1  0  0  0  0
 13  7  1  0  0  0  0
 14  8  1  0  0  0  0
 18 21  1  0  0  0  0
 18 22  1  0  0  0  0
 19 18  2  0  0  0  0
 20 18  2  0  0  0  0
 21  5  1  0  0  0  0
 22 24  1  0  0  0  0
 22 23  1  0  0  0  0
 25 22  1  0  0  0  0
 26  3  1  0  0  0  0
M  RAD  2   1   2   2   3
M  END
