Coordinates from ORCA-job C6H6+HOTf+NH2N2+-scan
 OpenBabel10221816143D

 26 24  0  0  0  0  0  0  0  0999 V2000
   -2.2052   -2.6555    0.8858 N   0  0  0  0  0  0  0  0  0  0  0  0
   -3.2208   -3.0988    0.7016 N   0  0  0  0  0  0  0  0  0  0  0  0
   -1.0729   -2.1201    1.0630 N   0  0  0  0  0  0  0  0  0  0  0  0
   -0.6839   -2.0981    2.0474 H   0  0  0  0  0  0  0  0  0  0  0  0
    1.7380   -3.1166    5.0253 H   0  0  0  0  0  0  0  0  0  0  0  0
   -0.1247   -1.3729   -2.2544 C   0  0  0  0  0  0  0  0  0  0  0  0
   -0.0945   -2.4525   -3.1400 C   0  0  0  0  0  0  0  0  0  0  0  0
    0.8477   -3.4735   -2.9684 C   0  0  0  0  0  0  0  0  0  0  0  0
    1.7444   -3.4318   -1.8953 C   0  0  0  0  0  0  0  0  0  0  0  0
    1.7201   -2.3561   -1.0042 C   0  0  0  0  0  0  0  0  0  0  0  0
    0.7867   -1.3189   -1.1838 C   0  0  0  0  0  0  0  0  0  0  0  0
   -0.8262   -0.5580   -2.4123 H   0  0  0  0  0  0  0  0  0  0  0  0
   -0.7861   -2.4870   -3.9765 H   0  0  0  0  0  0  0  0  0  0  0  0
    0.8809   -4.3019   -3.6698 H   0  0  0  0  0  0  0  0  0  0  0  0
    2.4745   -4.2252   -1.7671 H   0  0  0  0  0  0  0  0  0  0  0  0
    2.4348   -2.3006   -0.1880 H   0  0  0  0  0  0  0  0  0  0  0  0
    0.8430   -0.4281   -0.5597 H   0  0  0  0  0  0  0  0  0  0  0  0
    1.4269   -1.5309    3.5906 S   0  0  0  0  0  0  0  0  0  0  0  0
    2.1349   -1.1894    2.3756 O   0  0  0  0  0  0  0  0  0  0  0  0
    0.0222   -1.9991    3.5151 O   0  0  0  0  0  0  0  0  0  0  0  0
    2.2919   -2.6173    4.3952 O   0  0  0  0  0  0  0  0  0  0  0  0
    1.4446   -0.0766    4.7829 C   0  0  0  0  0  0  0  0  0  0  0  0
    0.9878   -0.5080    5.9525 F   0  0  0  0  0  0  0  0  0  0  0  0
    2.6818    0.3652    4.8916 F   0  0  0  0  0  0  0  0  0  0  0  0
    0.6475    0.8538    4.2807 F   0  0  0  0  0  0  0  0  0  0  0  0
   -0.4707   -1.9803    0.2024 H   0  0  0  0  0  0  0  0  0  0  0  0
  1  3  1  0  0  0  0
  2  1  1  0  0  0  0
  3  4  1  0  0  0  0
  6 11  2  0  0  0  0
  7  8  2  0  0  0  0
  7  6  1  0  0  0  0
  8  9  1  0  0  0  0
  9 15  1  0  0  0  0
  9 10  2  0  0  0  0
 10 16  1  0  0  0  0
 11 10  1  0  0  0  0
 11 17  1  0  0  0  0
 12  6  1  0  0  0  0
 13  7  1  0  0  0  0
 14  8  1  0  0  0  0
 18 21  1  0  0  0  0
 18 22  1  0  0  0  0
 19 18  2  0  0  0  0
 20 18  2  0  0  0  0
 21  5  1  0  0  0  0
 22 24  1  0  0  0  0
 22 23  1  0  0  0  0
 25 22  1  0  0  0  0
 26  3  1  0  0  0  0
M  RAD  2   1   2   2   3
M  END
