Coordinates from ORCA-job C6H6+HOTf+NH2N2+-scan
 OpenBabel10221816143D

 26 24  0  0  0  0  0  0  0  0999 V2000
   -3.3114   -2.9939    2.5335 N   0  0  0  0  0  0  0  0  0  0  0  0
   -4.4161   -2.8818    2.6879 N   0  0  0  0  0  0  0  0  0  0  0  0
   -2.0524   -3.1260    2.4285 N   0  0  0  0  0  0  0  0  0  0  0  0
   -1.4094   -2.5295    3.0683 H   0  0  0  0  0  0  0  0  0  0  0  0
    1.2956   -1.9320    5.7535 H   0  0  0  0  0  0  0  0  0  0  0  0
    0.6952   -0.9097   -2.2456 C   0  0  0  0  0  0  0  0  0  0  0  0
    0.9069   -1.5591   -3.4645 C   0  0  0  0  0  0  0  0  0  0  0  0
    1.5815   -2.7824   -3.4975 C   0  0  0  0  0  0  0  0  0  0  0  0
    2.0400   -3.3597   -2.3103 C   0  0  0  0  0  0  0  0  0  0  0  0
    1.8291   -2.7115   -1.0901 C   0  0  0  0  0  0  0  0  0  0  0  0
    1.1579   -1.4858   -1.0594 C   0  0  0  0  0  0  0  0  0  0  0  0
    0.1820    0.0481   -2.2240 H   0  0  0  0  0  0  0  0  0  0  0  0
    0.5539   -1.1085   -4.3878 H   0  0  0  0  0  0  0  0  0  0  0  0
    1.7521   -3.2832   -4.4462 H   0  0  0  0  0  0  0  0  0  0  0  0
    2.5695   -4.3080   -2.3371 H   0  0  0  0  0  0  0  0  0  0  0  0
    2.2000   -3.1527   -0.1684 H   0  0  0  0  0  0  0  0  0  0  0  0
    1.0150   -0.9668   -0.1140 H   0  0  0  0  0  0  0  0  0  0  0  0
    1.0103   -1.8522    3.6103 S   0  0  0  0  0  0  0  0  0  0  0  0
    1.4215   -2.7495    2.5548 O   0  0  0  0  0  0  0  0  0  0  0  0
   -0.4438   -1.7096    3.9085 O   0  0  0  0  0  0  0  0  0  0  0  0
    1.7726   -2.2463    4.9611 O   0  0  0  0  0  0  0  0  0  0  0  0
    1.6544   -0.1109    3.2924 C   0  0  0  0  0  0  0  0  0  0  0  0
    1.4318    0.6072    4.3847 F   0  0  0  0  0  0  0  0  0  0  0  0
    2.9397   -0.1835    3.0209 F   0  0  0  0  0  0  0  0  0  0  0  0
    0.9717    0.3733    2.2643 F   0  0  0  0  0  0  0  0  0  0  0  0
   -1.7248   -3.5638    1.5664 H   0  0  0  0  0  0  0  0  0  0  0  0
  1  2  1  0  0  0  0
  3  1  1  0  0  0  0
  3  4  1  0  0  0  0
  6 12  1  0  0  0  0
  6 11  2  0  0  0  0
  7  6  1  0  0  0  0
  8  7  2  0  0  0  0
  8  9  1  0  0  0  0
  9 10  2  0  0  0  0
 10 11  1  0  0  0  0
 10 16  1  0  0  0  0
 11 17  1  0  0  0  0
 13  7  1  0  0  0  0
 14  8  1  0  0  0  0
 15  9  1  0  0  0  0
 18 20  2  0  0  0  0
 18 21  1  0  0  0  0
 19 18  2  0  0  0  0
 21  5  1  0  0  0  0
 22 18  1  0  0  0  0
 22 23  1  0  0  0  0
 24 22  1  0  0  0  0
 25 22  1  0  0  0  0
 26  3  1  0  0  0  0
M  RAD  2   1   2   2   3
M  END
