Coordinates from ORCA-job C6H6+HOTf+NH2N2+-scan
 OpenBabel10221816143D

 26 24  0  0  0  0  0  0  0  0999 V2000
   -2.8565   -2.3048    1.8457 N   0  0  0  0  0  0  0  0  0  0  0  0
   -3.9690   -2.4399    1.8974 N   0  0  0  0  0  0  0  0  0  0  0  0
   -1.6012   -2.1365    1.8236 N   0  0  0  0  0  0  0  0  0  0  0  0
   -1.0672   -1.9919    2.7495 H   0  0  0  0  0  0  0  0  0  0  0  0
    1.4590   -2.9669    5.5250 H   0  0  0  0  0  0  0  0  0  0  0  0
   -0.1727   -1.7489   -2.6654 C   0  0  0  0  0  0  0  0  0  0  0  0
    0.3846   -2.4415   -3.7437 C   0  0  0  0  0  0  0  0  0  0  0  0
    1.5867   -3.1397   -3.5863 C   0  0  0  0  0  0  0  0  0  0  0  0
    2.2215   -3.1579   -2.3399 C   0  0  0  0  0  0  0  0  0  0  0  0
    1.6694   -2.4657   -1.2576 C   0  0  0  0  0  0  0  0  0  0  0  0
    0.4749   -1.7554   -1.4244 C   0  0  0  0  0  0  0  0  0  0  0  0
   -1.0920   -1.1855   -2.8022 H   0  0  0  0  0  0  0  0  0  0  0  0
   -0.1110   -2.4253   -4.7100 H   0  0  0  0  0  0  0  0  0  0  0  0
    2.0238   -3.6682   -4.4282 H   0  0  0  0  0  0  0  0  0  0  0  0
    3.1544   -3.6998   -2.2146 H   0  0  0  0  0  0  0  0  0  0  0  0
    2.1796   -2.4585   -0.2982 H   0  0  0  0  0  0  0  0  0  0  0  0
    0.0921   -1.1361   -0.6096 H   0  0  0  0  0  0  0  0  0  0  0  0
    1.2707   -1.6667    3.8065 S   0  0  0  0  0  0  0  0  0  0  0  0
    1.8059   -1.7649    2.4671 O   0  0  0  0  0  0  0  0  0  0  0  0
   -0.2013   -1.7712    4.0060 O   0  0  0  0  0  0  0  0  0  0  0  0
    1.9916   -2.7557    4.7340 O   0  0  0  0  0  0  0  0  0  0  0  0
    1.8018   -0.0531    4.6199 C   0  0  0  0  0  0  0  0  0  0  0  0
    1.4659   -0.1212    5.9016 F   0  0  0  0  0  0  0  0  0  0  0  0
    3.1043    0.0780    4.4752 F   0  0  0  0  0  0  0  0  0  0  0  0
    1.1497    0.9240    4.0114 F   0  0  0  0  0  0  0  0  0  0  0  0
   -1.1423   -2.2245    0.9074 H   0  0  0  0  0  0  0  0  0  0  0  0
  1  2  1  0  0  0  0
  3  1  1  0  0  0  0
  3  4  1  0  0  0  0
  6 11  2  0  0  0  0
  7  8  2  0  0  0  0
  7  6  1  0  0  0  0
  8  9  1  0  0  0  0
  9 15  1  0  0  0  0
  9 10  2  0  0  0  0
 10 16  1  0  0  0  0
 11 10  1  0  0  0  0
 11 17  1  0  0  0  0
 12  6  1  0  0  0  0
 13  7  1  0  0  0  0
 14  8  1  0  0  0  0
 18 20  2  0  0  0  0
 18 22  1  0  0  0  0
 18 21  1  0  0  0  0
 19 18  2  0  0  0  0
 21  5  1  0  0  0  0
 22 23  1  0  0  0  0
 24 22  1  0  0  0  0
 25 22  1  0  0  0  0
 26  3  1  0  0  0  0
M  RAD  2   1   2   2   3
M  END
