Coordinates from ORCA-job C6H6+HOTf+NH2N2+-scan
 OpenBabel10221816143D

 26 24  0  0  0  0  0  0  0  0999 V2000
   -2.6233   -2.4339    1.4886 N   0  0  0  0  0  0  0  0  0  0  0  0
   -3.7001   -2.7479    1.4619 N   0  0  0  0  0  0  0  0  0  0  0  0
   -1.4192   -2.0387    1.5313 N   0  0  0  0  0  0  0  0  0  0  0  0
   -0.9354   -1.9764    2.4847 H   0  0  0  0  0  0  0  0  0  0  0  0
    1.5915   -3.0509    5.2796 H   0  0  0  0  0  0  0  0  0  0  0  0
   -0.1712   -1.6304   -2.4916 C   0  0  0  0  0  0  0  0  0  0  0  0
    0.2213   -2.4497   -3.5533 C   0  0  0  0  0  0  0  0  0  0  0  0
    1.3400   -3.2817   -3.4260 C   0  0  0  0  0  0  0  0  0  0  0  0
    2.0485   -3.3134   -2.2192 C   0  0  0  0  0  0  0  0  0  0  0  0
    1.6623   -2.4959   -1.1530 C   0  0  0  0  0  0  0  0  0  0  0  0
    0.5565   -1.6442   -1.2923 C   0  0  0  0  0  0  0  0  0  0  0  0
   -1.0141   -0.9552   -2.6133 H   0  0  0  0  0  0  0  0  0  0  0  0
   -0.3319   -2.4240   -4.4875 H   0  0  0  0  0  0  0  0  0  0  0  0
    1.6537   -3.9040   -4.2586 H   0  0  0  0  0  0  0  0  0  0  0  0
    2.9151   -3.9599   -2.1165 H   0  0  0  0  0  0  0  0  0  0  0  0
    2.2388   -2.4912   -0.2320 H   0  0  0  0  0  0  0  0  0  0  0  0
    0.3437   -0.9029   -0.5192 H   0  0  0  0  0  0  0  0  0  0  0  0
    1.3383   -1.5744    3.7201 S   0  0  0  0  0  0  0  0  0  0  0  0
    1.9423   -1.4492    2.4120 O   0  0  0  0  0  0  0  0  0  0  0  0
   -0.1193   -1.8481    3.8248 O   0  0  0  0  0  0  0  0  0  0  0  0
    2.1318   -2.6942    4.5486 O   0  0  0  0  0  0  0  0  0  0  0  0
    1.6657   -0.0322    4.7488 C   0  0  0  0  0  0  0  0  0  0  0  0
    1.2856   -0.2920    5.9935 F   0  0  0  0  0  0  0  0  0  0  0  0
    2.9528    0.2432    4.6928 F   0  0  0  0  0  0  0  0  0  0  0  0
    0.9425    0.9464    4.2289 F   0  0  0  0  0  0  0  0  0  0  0  0
   -0.8933   -2.0773    0.6368 H   0  0  0  0  0  0  0  0  0  0  0  0
  1  3  1  0  0  0  0
  2  1  1  0  0  0  0
  3  4  1  0  0  0  0
  6 11  2  0  0  0  0
  7  8  2  0  0  0  0
  7  6  1  0  0  0  0
  8  9  1  0  0  0  0
  9 15  1  0  0  0  0
  9 10  2  0  0  0  0
 10 16  1  0  0  0  0
 11 10  1  0  0  0  0
 11 17  1  0  0  0  0
 12  6  1  0  0  0  0
 13  7  1  0  0  0  0
 14  8  1  0  0  0  0
 18 20  2  0  0  0  0
 18 21  1  0  0  0  0
 18 22  1  0  0  0  0
 19 18  2  0  0  0  0
 21  5  1  0  0  0  0
 22 23  1  0  0  0  0
 24 22  1  0  0  0  0
 25 22  1  0  0  0  0
 26  3  1  0  0  0  0
M  RAD  2   1   2   2   3
M  END
