Coordinates from ORCA-job C6H6+HOTf+NH2N2+-scan
 OpenBabel10221816143D

 26 24  0  0  0  0  0  0  0  0999 V2000
   -2.7639   -2.3136    1.6966 N   0  0  0  0  0  0  0  0  0  0  0  0
   -3.8730   -2.4828    1.7154 N   0  0  0  0  0  0  0  0  0  0  0  0
   -1.5146   -2.1062    1.7040 N   0  0  0  0  0  0  0  0  0  0  0  0
   -1.0028   -1.9961    2.6437 H   0  0  0  0  0  0  0  0  0  0  0  0
    1.5429   -3.0293    5.3903 H   0  0  0  0  0  0  0  0  0  0  0  0
   -0.1828   -1.7217   -2.6041 C   0  0  0  0  0  0  0  0  0  0  0  0
    0.3157   -2.4656   -3.6770 C   0  0  0  0  0  0  0  0  0  0  0  0
    1.4921   -3.2098   -3.5327 C   0  0  0  0  0  0  0  0  0  0  0  0
    2.1568   -3.2252   -2.3014 C   0  0  0  0  0  0  0  0  0  0  0  0
    1.6641   -2.4820   -1.2243 C   0  0  0  0  0  0  0  0  0  0  0  0
    0.4974   -1.7224   -1.3793 C   0  0  0  0  0  0  0  0  0  0  0  0
   -1.0778   -1.1191   -2.7347 H   0  0  0  0  0  0  0  0  0  0  0  0
   -0.2038   -2.4516   -4.6307 H   0  0  0  0  0  0  0  0  0  0  0  0
    1.8852   -3.7761   -4.3716 H   0  0  0  0  0  0  0  0  0  0  0  0
    3.0692   -3.8029   -2.1853 H   0  0  0  0  0  0  0  0  0  0  0  0
    2.2016   -2.4690   -0.2800 H   0  0  0  0  0  0  0  0  0  0  0  0
    0.1768   -1.0499   -0.5801 H   0  0  0  0  0  0  0  0  0  0  0  0
    1.3064   -1.6144    3.7716 S   0  0  0  0  0  0  0  0  0  0  0  0
    1.8689   -1.5788    2.4401 O   0  0  0  0  0  0  0  0  0  0  0  0
   -0.1592   -1.8153    3.9343 O   0  0  0  0  0  0  0  0  0  0  0  0
    2.0747   -2.7300    4.6278 O   0  0  0  0  0  0  0  0  0  0  0  0
    1.7334   -0.0418    4.7153 C   0  0  0  0  0  0  0  0  0  0  0  0
    1.3830   -0.2267    5.9816 F   0  0  0  0  0  0  0  0  0  0  0  0
    3.0284    0.1723    4.6063 F   0  0  0  0  0  0  0  0  0  0  0  0
    1.0363    0.9423    4.1709 F   0  0  0  0  0  0  0  0  0  0  0  0
   -1.0325   -2.1621    0.7935 H   0  0  0  0  0  0  0  0  0  0  0  0
  1  3  1  0  0  0  0
  1  2  1  0  0  0  0
  3  4  1  0  0  0  0
  6 11  2  0  0  0  0
  7  8  2  0  0  0  0
  7  6  1  0  0  0  0
  8  9  1  0  0  0  0
  9 15  1  0  0  0  0
  9 10  2  0  0  0  0
 10 16  1  0  0  0  0
 11 10  1  0  0  0  0
 11 17  1  0  0  0  0
 12  6  1  0  0  0  0
 13  7  1  0  0  0  0
 14  8  1  0  0  0  0
 18 20  2  0  0  0  0
 18 21  1  0  0  0  0
 18 22  1  0  0  0  0
 19 18  2  0  0  0  0
 21  5  1  0  0  0  0
 22 23  1  0  0  0  0
 24 22  1  0  0  0  0
 25 22  1  0  0  0  0
 26  3  1  0  0  0  0
M  RAD  2   1   2   2   3
M  END
