Coordinates from ORCA-job C6H6+HOTf+NH2N2+-scan
 OpenBabel10221816143D

 26 24  0  0  0  0  0  0  0  0999 V2000
   -0.8048    0.4498    0.6639 N   0  0  0  0  0  0  0  0  0  0  0  0
   -1.4021    1.3918    0.5198 N   0  0  0  0  0  0  0  0  0  0  0  0
   -0.1276   -0.6109    0.7626 N   0  0  0  0  0  0  0  0  0  0  0  0
   -0.1023   -1.0787    1.7048 H   0  0  0  0  0  0  0  0  0  0  0  0
   -0.8554   -3.8702    4.4445 H   0  0  0  0  0  0  0  0  0  0  0  0
    0.0879   -3.2334   -1.8132 C   0  0  0  0  0  0  0  0  0  0  0  0
    1.1510   -2.8610   -0.9895 C   0  0  0  0  0  0  0  0  0  0  0  0
    1.7026   -1.5701   -1.1016 C   0  0  0  0  0  0  0  0  0  0  0  0
    1.2216   -0.6819   -2.0832 C   0  0  0  0  0  0  0  0  0  0  0  0
    0.1526   -1.0610   -2.8996 C   0  0  0  0  0  0  0  0  0  0  0  0
   -0.4108   -2.3341   -2.7627 C   0  0  0  0  0  0  0  0  0  0  0  0
   -0.3433   -4.2261   -1.7275 H   0  0  0  0  0  0  0  0  0  0  0  0
    1.5470   -3.5528   -0.2522 H   0  0  0  0  0  0  0  0  0  0  0  0
    2.5762   -1.3032   -0.5103 H   0  0  0  0  0  0  0  0  0  0  0  0
    1.6839    0.2944   -2.2034 H   0  0  0  0  0  0  0  0  0  0  0  0
   -0.2236   -0.3778   -3.6551 H   0  0  0  0  0  0  0  0  0  0  0  0
   -1.2343   -2.6304   -3.4058 H   0  0  0  0  0  0  0  0  0  0  0  0
    0.8468   -2.9739    3.4612 S   0  0  0  0  0  0  0  0  0  0  0  0
    1.7218   -3.4745    2.4239 O   0  0  0  0  0  0  0  0  0  0  0  0
   -0.0330   -1.8128    3.1979 O   0  0  0  0  0  0  0  0  0  0  0  0
   -0.0515   -4.1939    3.9955 O   0  0  0  0  0  0  0  0  0  0  0  0
    1.8456   -2.5469    4.9947 C   0  0  0  0  0  0  0  0  0  0  0  0
    0.9902   -2.3187    5.9850 F   0  0  0  0  0  0  0  0  0  0  0  0
    2.6391   -3.5604    5.2806 F   0  0  0  0  0  0  0  0  0  0  0  0
    2.5457   -1.4565    4.7197 F   0  0  0  0  0  0  0  0  0  0  0  0
    0.4993   -0.8848   -0.0598 H   0  0  0  0  0  0  0  0  0  0  0  0
  1  3  1  0  0  0  0
  2  1  1  0  0  0  0
  3  4  1  0  0  0  0
  6 12  1  0  0  0  0
  6  7  2  0  0  0  0
  7 13  1  0  0  0  0
  8  7  1  0  0  0  0
  8 14  1  0  0  0  0
  9  8  2  0  0  0  0
 10 11  2  0  0  0  0
 10  9  1  0  0  0  0
 11  6  1  0  0  0  0
 15  9  1  0  0  0  0
 16 10  1  0  0  0  0
 17 11  1  0  0  0  0
 18 21  1  0  0  0  0
 18 22  1  0  0  0  0
 19 18  2  0  0  0  0
 20 18  2  0  0  0  0
 21  5  1  0  0  0  0
 22 24  1  0  0  0  0
 22 23  1  0  0  0  0
 25 22  1  0  0  0  0
 26  3  1  0  0  0  0
M  RAD  2   1   2   2   3
M  END
