Coordinates from ORCA-job C6H6+HOTf+NH2N2+-scan
 OpenBabel10221816143D

 26 24  0  0  0  0  0  0  0  0999 V2000
   -1.0327    0.3593    0.6982 N   0  0  0  0  0  0  0  0  0  0  0  0
   -1.6761    1.2650    0.5166 N   0  0  0  0  0  0  0  0  0  0  0  0
   -0.2889   -0.6534    0.8127 N   0  0  0  0  0  0  0  0  0  0  0  0
   -0.2104   -1.0783    1.7678 H   0  0  0  0  0  0  0  0  0  0  0  0
   -0.6495   -3.8401    4.6441 H   0  0  0  0  0  0  0  0  0  0  0  0
   -0.0590   -3.2159   -2.0561 C   0  0  0  0  0  0  0  0  0  0  0  0
    0.7712   -2.9743   -0.9627 C   0  0  0  0  0  0  0  0  0  0  0  0
    1.4253   -1.7309   -0.8386 C   0  0  0  0  0  0  0  0  0  0  0  0
    1.3077   -0.7724   -1.8676 C   0  0  0  0  0  0  0  0  0  0  0  0
    0.4697   -1.0199   -2.9560 C   0  0  0  0  0  0  0  0  0  0  0  0
   -0.2113   -2.2389   -3.0470 C   0  0  0  0  0  0  0  0  0  0  0  0
   -0.5736   -4.1673   -2.1485 H   0  0  0  0  0  0  0  0  0  0  0  0
    0.9099   -3.7284   -0.1937 H   0  0  0  0  0  0  0  0  0  0  0  0
    2.1544   -1.5877   -0.0435 H   0  0  0  0  0  0  0  0  0  0  0  0
    1.8591    0.1619   -1.8016 H   0  0  0  0  0  0  0  0  0  0  0  0
    0.3665   -0.2785   -3.7423 H   0  0  0  0  0  0  0  0  0  0  0  0
   -0.8548   -2.4328   -3.9002 H   0  0  0  0  0  0  0  0  0  0  0  0
    0.9153   -2.8976    3.4916 S   0  0  0  0  0  0  0  0  0  0  0  0
    1.6973   -3.3826    2.3734 O   0  0  0  0  0  0  0  0  0  0  0  0
   -0.0242   -1.7713    3.3035 O   0  0  0  0  0  0  0  0  0  0  0  0
    0.1208   -4.1416    4.1259 O   0  0  0  0  0  0  0  0  0  0  0  0
    2.0540   -2.4215    4.9087 C   0  0  0  0  0  0  0  0  0  0  0  0
    1.2994   -2.2030    5.9795 F   0  0  0  0  0  0  0  0  0  0  0  0
    2.9024   -3.4081    5.1223 F   0  0  0  0  0  0  0  0  0  0  0  0
    2.6898   -1.3160    4.5497 F   0  0  0  0  0  0  0  0  0  0  0  0
    0.2607   -1.0038   -0.0459 H   0  0  0  0  0  0  0  0  0  0  0  0
  1  3  1  0  0  0  0
  2  1  1  0  0  0  0
  3  4  1  0  0  0  0
  6  7  2  0  0  0  0
  7  8  1  0  0  0  0
  7 13  1  0  0  0  0
  8 14  1  0  0  0  0
  9 15  1  0  0  0  0
  9  8  2  0  0  0  0
 10  9  1  0  0  0  0
 11 10  2  0  0  0  0
 11  6  1  0  0  0  0
 12  6  1  0  0  0  0
 16 10  1  0  0  0  0
 17 11  1  0  0  0  0
 18 21  1  0  0  0  0
 18 22  1  0  0  0  0
 19 18  2  0  0  0  0
 20 18  2  0  0  0  0
 21  5  1  0  0  0  0
 22 24  1  0  0  0  0
 22 23  1  0  0  0  0
 25 22  1  0  0  0  0
 26  3  1  0  0  0  0
M  RAD  2   1   2   2   3
M  END
