Coordinates from ORCA-job C6H6+HOTf+NH2N2+-scan
 OpenBabel10221816143D

 26 24  0  0  0  0  0  0  0  0999 V2000
   -2.4377   -2.5471    1.2190 N   0  0  0  0  0  0  0  0  0  0  0  0
   -3.4869   -2.9344    1.1225 N   0  0  0  0  0  0  0  0  0  0  0  0
   -1.2675   -2.0714    1.3170 N   0  0  0  0  0  0  0  0  0  0  0  0
   -0.8261   -2.0242    2.2842 H   0  0  0  0  0  0  0  0  0  0  0  0
    1.6518   -3.0689    5.1723 H   0  0  0  0  0  0  0  0  0  0  0  0
   -0.1617   -1.5175   -2.3627 C   0  0  0  0  0  0  0  0  0  0  0  0
    0.0923   -2.4350   -3.3848 C   0  0  0  0  0  0  0  0  0  0  0  0
    1.1381   -3.3578   -3.2587 C   0  0  0  0  0  0  0  0  0  0  0  0
    1.9083   -3.3849   -2.0901 C   0  0  0  0  0  0  0  0  0  0  0  0
    1.6609   -2.4699   -1.0632 C   0  0  0  0  0  0  0  0  0  0  0  0
    0.6300   -1.5250   -1.2016 C   0  0  0  0  0  0  0  0  0  0  0  0
   -0.9412   -0.7703   -2.4872 H   0  0  0  0  0  0  0  0  0  0  0  0
   -0.5070   -2.4151   -4.2902 H   0  0  0  0  0  0  0  0  0  0  0  0
    1.3471   -4.0554   -4.0641 H   0  0  0  0  0  0  0  0  0  0  0  0
    2.7171   -4.1027   -1.9906 H   0  0  0  0  0  0  0  0  0  0  0  0
    2.2884   -2.4593   -0.1763 H   0  0  0  0  0  0  0  0  0  0  0  0
    0.5426   -0.7118   -0.4795 H   0  0  0  0  0  0  0  0  0  0  0  0
    1.3829   -1.5459    3.6620 S   0  0  0  0  0  0  0  0  0  0  0  0
    2.0411   -1.3320    2.3915 O   0  0  0  0  0  0  0  0  0  0  0  0
   -0.0574   -1.9047    3.6874 O   0  0  0  0  0  0  0  0  0  0  0  0
    2.2045   -2.6515    4.4841 O   0  0  0  0  0  0  0  0  0  0  0  0
    1.5767   -0.0320    4.7624 C   0  0  0  0  0  0  0  0  0  0  0  0
    1.1558   -0.3612    5.9775 F   0  0  0  0  0  0  0  0  0  0  0  0
    2.8476    0.3161    4.7789 F   0  0  0  0  0  0  0  0  0  0  0  0
    0.8242    0.9271    4.2468 F   0  0  0  0  0  0  0  0  0  0  0  0
   -0.7012   -2.0431    0.4337 H   0  0  0  0  0  0  0  0  0  0  0  0
  1  3  1  0  0  0  0
  2  1  1  0  0  0  0
  3  4  1  0  0  0  0
  6 11  2  0  0  0  0
  7  8  2  0  0  0  0
  7  6  1  0  0  0  0
  8  9  1  0  0  0  0
  9 15  1  0  0  0  0
  9 10  2  0  0  0  0
 10 16  1  0  0  0  0
 11 10  1  0  0  0  0
 11 17  1  0  0  0  0
 12  6  1  0  0  0  0
 13  7  1  0  0  0  0
 14  8  1  0  0  0  0
 18 20  2  0  0  0  0
 18 21  1  0  0  0  0
 18 22  1  0  0  0  0
 19 18  2  0  0  0  0
 21  5  1  0  0  0  0
 22 24  1  0  0  0  0
 22 23  1  0  0  0  0
 25 22  1  0  0  0  0
 26  3  1  0  0  0  0
M  RAD  2   1   2   2   3
M  END
