Coordinates from ORCA-job C6H6+HOTf+NH2N2+-scan
 OpenBabel10221816143D

 26 24  0  0  0  0  0  0  0  0999 V2000
   -2.1062   -2.6219    0.7220 N   0  0  0  0  0  0  0  0  0  0  0  0
   -3.1170   -3.0630    0.5072 N   0  0  0  0  0  0  0  0  0  0  0  0
   -0.9768   -2.0991    0.9396 N   0  0  0  0  0  0  0  0  0  0  0  0
   -0.6108   -2.0940    1.9325 H   0  0  0  0  0  0  0  0  0  0  0  0
    1.7095   -3.2090    4.9506 H   0  0  0  0  0  0  0  0  0  0  0  0
   -0.1571   -1.3560   -2.2856 C   0  0  0  0  0  0  0  0  0  0  0  0
   -0.1987   -2.5554   -3.0009 C   0  0  0  0  0  0  0  0  0  0  0  0
    0.7414   -3.5590   -2.7401 C   0  0  0  0  0  0  0  0  0  0  0  0
    1.7127   -3.3757   -1.7507 C   0  0  0  0  0  0  0  0  0  0  0  0
    1.7596   -2.1804   -1.0287 C   0  0  0  0  0  0  0  0  0  0  0  0
    0.8242   -1.1640   -1.2957 C   0  0  0  0  0  0  0  0  0  0  0  0
   -0.8611   -0.5597   -2.5129 H   0  0  0  0  0  0  0  0  0  0  0  0
   -0.9457   -2.6993   -3.7760 H   0  0  0  0  0  0  0  0  0  0  0  0
    0.7171   -4.4832   -3.3099 H   0  0  0  0  0  0  0  0  0  0  0  0
    2.4427   -4.1556   -1.5556 H   0  0  0  0  0  0  0  0  0  0  0  0
    2.5235   -2.0232   -0.2727 H   0  0  0  0  0  0  0  0  0  0  0  0
    0.9105   -0.2029   -0.7926 H   0  0  0  0  0  0  0  0  0  0  0  0
    1.4535   -1.5664    3.5698 S   0  0  0  0  0  0  0  0  0  0  0  0
    2.2096   -1.1735    2.4008 O   0  0  0  0  0  0  0  0  0  0  0  0
    0.0530   -2.0294    3.4206 O   0  0  0  0  0  0  0  0  0  0  0  0
    2.2868   -2.6872    4.3611 O   0  0  0  0  0  0  0  0  0  0  0  0
    1.4212   -0.1658    4.8241 C   0  0  0  0  0  0  0  0  0  0  0  0
    0.9208   -0.6483    5.9554 F   0  0  0  0  0  0  0  0  0  0  0  0
    2.6520    0.2723    5.0001 F   0  0  0  0  0  0  0  0  0  0  0  0
    0.6415    0.7851    4.3331 F   0  0  0  0  0  0  0  0  0  0  0  0
   -0.3835   -1.8633    0.0945 H   0  0  0  0  0  0  0  0  0  0  0  0
  1  3  1  0  0  0  0
  2  1  1  0  0  0  0
  3  4  1  0  0  0  0
  6 11  2  0  0  0  0
  7  8  2  0  0  0  0
  7  6  1  0  0  0  0
  8  9  1  0  0  0  0
  9 15  1  0  0  0  0
  9 10  2  0  0  0  0
 10 16  1  0  0  0  0
 11 10  1  0  0  0  0
 11 17  1  0  0  0  0
 12  6  1  0  0  0  0
 13  7  1  0  0  0  0
 14  8  1  0  0  0  0
 18 21  1  0  0  0  0
 18 22  1  0  0  0  0
 19 18  2  0  0  0  0
 20 18  2  0  0  0  0
 21  5  1  0  0  0  0
 22 24  1  0  0  0  0
 22 23  1  0  0  0  0
 25 22  1  0  0  0  0
 26  3  1  0  0  0  0
M  RAD  2   1   2   2   3
M  END
