Coordinates from ORCA-job C6H6+HOTf+NH2N2+-scan
 OpenBabel10221816143D

 26 24  0  0  0  0  0  0  0  0999 V2000
   -2.0373   -2.4429    0.4615 N   0  0  0  0  0  0  0  0  0  0  0  0
   -3.0698   -2.8396    0.2651 N   0  0  0  0  0  0  0  0  0  0  0  0
   -0.8803   -1.9862    0.6775 N   0  0  0  0  0  0  0  0  0  0  0  0
   -0.4955   -2.0468    1.6618 H   0  0  0  0  0  0  0  0  0  0  0  0
    1.6196   -3.4952    4.6857 H   0  0  0  0  0  0  0  0  0  0  0  0
   -0.2339   -1.4118   -2.4253 C   0  0  0  0  0  0  0  0  0  0  0  0
   -0.3083   -2.7964   -2.6164 C   0  0  0  0  0  0  0  0  0  0  0  0
    0.6574   -3.6333   -2.0453 C   0  0  0  0  0  0  0  0  0  0  0  0
    1.7007   -3.0927   -1.2870 C   0  0  0  0  0  0  0  0  0  0  0  0
    1.7790   -1.7101   -1.0891 C   0  0  0  0  0  0  0  0  0  0  0  0
    0.8064   -0.8669   -1.6530 C   0  0  0  0  0  0  0  0  0  0  0  0
   -0.9674   -0.7552   -2.8852 H   0  0  0  0  0  0  0  0  0  0  0  0
   -1.1026   -3.2188   -3.2253 H   0  0  0  0  0  0  0  0  0  0  0  0
    0.6048   -4.7062   -2.2059 H   0  0  0  0  0  0  0  0  0  0  0  0
    2.4567   -3.7444   -0.8594 H   0  0  0  0  0  0  0  0  0  0  0  0
    2.5869   -1.2873   -0.4998 H   0  0  0  0  0  0  0  0  0  0  0  0
    0.8790    0.2094   -1.5223 H   0  0  0  0  0  0  0  0  0  0  0  0
    1.5226   -1.7254    3.4484 S   0  0  0  0  0  0  0  0  0  0  0  0
    2.3772   -1.2541    2.3823 O   0  0  0  0  0  0  0  0  0  0  0  0
    0.1199   -2.1126    3.1628 O   0  0  0  0  0  0  0  0  0  0  0  0
    2.2550   -2.9526    4.1810 O   0  0  0  0  0  0  0  0  0  0  0  0
    1.4457   -0.4548    4.8318 C   0  0  0  0  0  0  0  0  0  0  0  0
    0.8520   -1.0267    5.8735 F   0  0  0  0  0  0  0  0  0  0  0  0
    2.6738   -0.0829    5.1337 F   0  0  0  0  0  0  0  0  0  0  0  0
    0.7322    0.5691    4.3889 F   0  0  0  0  0  0  0  0  0  0  0  0
   -0.3511   -1.6136   -0.1498 H   0  0  0  0  0  0  0  0  0  0  0  0
  1  3  1  0  0  0  0
  2  1  1  0  0  0  0
  3  4  1  0  0  0  0
  6 11  1  0  0  0  0
  7  6  2  0  0  0  0
  7  8  1  0  0  0  0
  8  9  2  0  0  0  0
  9 10  1  0  0  0  0
  9 15  1  0  0  0  0
 10 16  1  0  0  0  0
 11 17  1  0  0  0  0
 11 10  2  0  0  0  0
 12  6  1  0  0  0  0
 13  7  1  0  0  0  0
 14  8  1  0  0  0  0
 18 21  1  0  0  0  0
 18 22  1  0  0  0  0
 19 18  2  0  0  0  0
 20 18  2  0  0  0  0
 21  5  1  0  0  0  0
 22 24  1  0  0  0  0
 22 23  1  0  0  0  0
 25 22  1  0  0  0  0
 26  3  1  0  0  0  0
M  RAD  2   1   2   2   3
M  END
