Coordinates from ORCA-job C6H6+HOTf+NH2N2+-scan
 OpenBabel10221816143D

 26 24  0  0  1  0  0  0  0  0999 V2000
   -1.6582    0.4295    6.2594 N   0  0  0  0  0  0  0  0  0  0  0  0
   -1.4085   -0.4150    5.5939 N   0  0  0  0  0  0  0  0  0  0  0  0
   -0.4450   -1.0464   -0.3455 N   0  0  0  0  0  0  0  0  0  0  0  0
   -0.1969   -0.8829    0.6314 H   0  0  0  0  0  0  0  0  0  0  0  0
   -1.0118   -1.9626    4.4464 H   0  0  0  0  0  0  0  0  0  0  0  0
   -0.2400   -2.5411   -2.3160 C   0  0  0  0  0  0  0  0  0  0  0  0
    0.2331   -2.2439   -0.9307 C   0  0  1  0  0  0  0  0  0  0  0  0
    1.5679   -1.6271   -0.8374 C   0  0  0  0  0  0  0  0  0  0  0  0
    2.2403   -1.1506   -1.9662 C   0  0  0  0  0  0  0  0  0  0  0  0
    1.7178   -1.4384   -3.2186 C   0  0  0  0  0  0  0  0  0  0  0  0
    0.4815   -2.1522   -3.3957 C   0  0  0  0  0  0  0  0  0  0  0  0
   -1.1806   -3.0733   -2.4240 H   0  0  0  0  0  0  0  0  0  0  0  0
    0.0722   -3.0831   -0.2472 H   0  0  0  0  0  0  0  0  0  0  0  0
    1.9782   -1.4945    0.1593 H   0  0  0  0  0  0  0  0  0  0  0  0
    3.1687   -0.5989   -1.8656 H   0  0  0  0  0  0  0  0  0  0  0  0
    2.2570   -1.1129   -4.1050 H   0  0  0  0  0  0  0  0  0  0  0  0
    0.1397   -2.3687   -4.4024 H   0  0  0  0  0  0  0  0  0  0  0  0
    0.3528   -2.7383    2.9552 S   0  0  0  0  0  0  0  0  0  0  0  0
    0.2127   -3.8180    1.9931 O   0  0  0  0  0  0  0  0  0  0  0  0
    0.5566   -1.3598    2.4867 O   0  0  0  0  0  0  0  0  0  0  0  0
   -0.8876   -2.8091    3.9607 O   0  0  0  0  0  0  0  0  0  0  0  0
    1.7766   -3.1369    4.1032 C   0  0  0  0  0  0  0  0  0  0  0  0
    1.7542   -2.2670    5.1100 F   0  0  0  0  0  0  0  0  0  0  0  0
    1.6465   -4.3720    4.5533 F   0  0  0  0  0  0  0  0  0  0  0  0
    2.9018   -3.0079    3.4077 F   0  0  0  0  0  0  0  0  0  0  0  0
   -0.4064   -0.2067   -0.9157 H   0  0  0  0  0  0  0  0  0  0  0  0
  2  1  3  0  0  0  0
  3  4  1  0  0  0  0
  6  7  1  0  0  0  0
  7  8  1  0  0  0  0
  7  3  1  0  0  0  0
  7 13  1  1  0  0  0
  8 14  1  0  0  0  0
  9 15  1  0  0  0  0
  9  8  1  0  0  0  0
 10  9  2  0  0  0  0
 11 10  1  0  0  0  0
 11  6  2  0  0  0  0
 12  6  1  0  0  0  0
 16 10  1  0  0  0  0
 17 11  1  0  0  0  0
 18 21  1  0  0  0  0
 18 22  1  0  0  0  0
 19 18  2  0  0  0  0
 20 18  2  0  0  0  0
 21  5  1  0  0  0  0
 22 24  1  0  0  0  0
 22 23  1  0  0  0  0
 25 22  1  0  0  0  0
 26  3  1  0  0  0  0
M  RAD  1   8   2
M  END
