Coordinates from ORCA-job C6H6+HOTf+NH2N2+-scan
 OpenBabel10221816143D

 26 25  0  0  1  0  0  0  0  0999 V2000
   -2.9208   -0.9921    6.0563 N   0  0  0  0  0  0  0  0  0  0  0  0
   -2.1831   -1.5564    5.4600 N   0  0  0  0  0  0  0  0  0  0  0  0
    0.5535   -1.0153   -0.3090 N   0  0  0  0  0  0  0  0  0  0  0  0
    0.4785   -1.0186    0.7164 H   0  0  0  0  0  0  0  0  0  0  0  0
   -0.9010   -2.6216    4.4387 H   0  0  0  0  0  0  0  0  0  0  0  0
   -0.6602   -1.6280   -2.4536 C   0  0  0  0  0  0  0  0  0  0  0  0
   -0.2147   -2.0409   -1.0973 C   0  0  1  0  0  0  0  0  0  0  0  0
    1.2073   -2.5006   -0.9672 C   0  0  1  0  0  0  0  0  0  0  0  0
    2.1084   -2.3556   -2.0961 C   0  0  0  0  0  0  0  0  0  0  0  0
    1.6400   -1.8670   -3.2713 C   0  0  0  0  0  0  0  0  0  0  0  0
    0.2369   -1.5131   -3.4547 C   0  0  0  0  0  0  0  0  0  0  0  0
   -1.7194   -1.4565   -2.6141 H   0  0  0  0  0  0  0  0  0  0  0  0
   -0.9659   -2.5205   -0.4738 H   0  0  0  0  0  0  0  0  0  0  0  0
    1.4775   -3.0929   -0.0987 H   0  0  0  0  0  0  0  0  0  0  0  0
    3.1343   -2.6882   -1.9827 H   0  0  0  0  0  0  0  0  0  0  0  0
    2.3078   -1.7783   -4.1230 H   0  0  0  0  0  0  0  0  0  0  0  0
   -0.0895   -1.2064   -4.4437 H   0  0  0  0  0  0  0  0  0  0  0  0
    0.7975   -2.5355    3.0970 S   0  0  0  0  0  0  0  0  0  0  0  0
    1.3712   -3.5248    2.2008 O   0  0  0  0  0  0  0  0  0  0  0  0
    0.2416   -1.2894    2.5423 O   0  0  0  0  0  0  0  0  0  0  0  0
   -0.2924   -3.2640    4.0069 O   0  0  0  0  0  0  0  0  0  0  0  0
    2.0798   -2.0497    4.3741 C   0  0  0  0  0  0  0  0  0  0  0  0
    1.4721   -1.3264    5.3107 F   0  0  0  0  0  0  0  0  0  0  0  0
    2.6079   -3.1411    4.8972 F   0  0  0  0  0  0  0  0  0  0  0  0
    3.0067   -1.3268    3.7583 F   0  0  0  0  0  0  0  0  0  0  0  0
    0.8488   -0.1685   -0.7833 H   0  0  0  0  0  0  0  0  0  0  0  0
  2  1  3  0  0  0  0
  3  4  1  0  0  0  0
  6  7  1  0  0  0  0
  7  8  1  0  0  0  0
  7 13  1  1  0  0  0
  7  3  1  0  0  0  0
  8  3  1  0  0  0  0
  8 14  1  1  0  0  0
  9 15  1  0  0  0  0
  9  8  1  0  0  0  0
 10  9  2  0  0  0  0
 11 10  1  0  0  0  0
 11  6  2  0  0  0  0
 12  6  1  0  0  0  0
 16 10  1  0  0  0  0
 17 11  1  0  0  0  0
 18 21  1  0  0  0  0
 18 22  1  0  0  0  0
 19 18  2  0  0  0  0
 20 18  2  0  0  0  0
 21  5  1  0  0  0  0
 22 24  1  0  0  0  0
 22 23  1  0  0  0  0
 25 22  1  0  0  0  0
 26  3  1  0  0  0  0
M  END
