Coordinates from ORCA-job C6H6+HOTf+NH2N2+-scan
 OpenBabel10221816143D

 26 24  0  0  0  0  0  0  0  0999 V2000
   -2.0933   -2.4294    0.5817 N   0  0  0  0  0  0  0  0  0  0  0  0
   -3.1347   -2.8032    0.3863 N   0  0  0  0  0  0  0  0  0  0  0  0
   -0.9265   -1.9908    0.7842 N   0  0  0  0  0  0  0  0  0  0  0  0
   -0.5385   -2.0389    1.7677 H   0  0  0  0  0  0  0  0  0  0  0  0
    1.6615   -3.4037    4.7711 H   0  0  0  0  0  0  0  0  0  0  0  0
   -0.2239   -1.4173   -2.3894 C   0  0  0  0  0  0  0  0  0  0  0  0
   -0.2564   -2.7551   -2.7959 C   0  0  0  0  0  0  0  0  0  0  0  0
    0.7226   -3.6474   -2.3437 C   0  0  0  0  0  0  0  0  0  0  0  0
    1.7291   -3.2104   -1.4769 C   0  0  0  0  0  0  0  0  0  0  0  0
    1.7661   -1.8753   -1.0627 C   0  0  0  0  0  0  0  0  0  0  0  0
    0.7865   -0.9747   -1.5169 C   0  0  0  0  0  0  0  0  0  0  0  0
   -0.9628   -0.7137   -2.7636 H   0  0  0  0  0  0  0  0  0  0  0  0
   -1.0273   -3.0957   -3.4810 H   0  0  0  0  0  0  0  0  0  0  0  0
    0.7037   -4.6821   -2.6733 H   0  0  0  0  0  0  0  0  0  0  0  0
    2.4918   -3.9043   -1.1362 H   0  0  0  0  0  0  0  0  0  0  0  0
    2.5500   -1.5300   -0.3953 H   0  0  0  0  0  0  0  0  0  0  0  0
    0.8410    0.0741   -1.2355 H   0  0  0  0  0  0  0  0  0  0  0  0
    1.5039   -1.6601    3.5038 S   0  0  0  0  0  0  0  0  0  0  0  0
    2.3220   -1.1992    2.4045 O   0  0  0  0  0  0  0  0  0  0  0  0
    0.1016   -2.0769    3.2622 O   0  0  0  0  0  0  0  0  0  0  0  0
    2.2758   -2.8575    4.2446 O   0  0  0  0  0  0  0  0  0  0  0  0
    1.4422   -0.3583    4.8589 C   0  0  0  0  0  0  0  0  0  0  0  0
    0.8831   -0.9138    5.9280 F   0  0  0  0  0  0  0  0  0  0  0  0
    2.6717    0.0383    5.1209 F   0  0  0  0  0  0  0  0  0  0  0  0
    0.7027    0.6442    4.4099 F   0  0  0  0  0  0  0  0  0  0  0  0
   -0.3693   -1.6970   -0.0631 H   0  0  0  0  0  0  0  0  0  0  0  0
  1  3  1  0  0  0  0
  2  1  1  0  0  0  0
  3  4  1  0  0  0  0
  6 11  1  0  0  0  0
  7  6  2  0  0  0  0
  7  8  1  0  0  0  0
  8  9  2  0  0  0  0
  9 15  1  0  0  0  0
  9 10  1  0  0  0  0
 10 16  1  0  0  0  0
 11 17  1  0  0  0  0
 11 10  2  0  0  0  0
 12  6  1  0  0  0  0
 13  7  1  0  0  0  0
 14  8  1  0  0  0  0
 18 21  1  0  0  0  0
 18 22  1  0  0  0  0
 19 18  2  0  0  0  0
 20 18  2  0  0  0  0
 21  5  1  0  0  0  0
 22 24  1  0  0  0  0
 22 23  1  0  0  0  0
 25 22  1  0  0  0  0
 26  3  1  0  0  0  0
M  RAD  2   1   2   2   3
M  END
