Coordinates from ORCA-job C6H6+HOTf+NH2N2+-scan
 OpenBabel10221816143D

 26 24  0  0  0  0  0  0  0  0999 V2000
   -1.4825   -0.2409    0.5042 N   0  0  0  0  0  0  0  0  0  0  0  0
   -2.3739    0.4162    0.3139 N   0  0  0  0  0  0  0  0  0  0  0  0
   -0.4873   -0.9987    0.6860 N   0  0  0  0  0  0  0  0  0  0  0  0
   -0.3242   -1.3639    1.6640 H   0  0  0  0  0  0  0  0  0  0  0  0
   -0.1448   -4.0712    4.5432 H   0  0  0  0  0  0  0  0  0  0  0  0
   -0.3005   -2.9478   -2.3875 C   0  0  0  0  0  0  0  0  0  0  0  0
    0.6472   -3.3531   -1.4442 C   0  0  0  0  0  0  0  0  0  0  0  0
    1.6073   -2.4448   -0.9825 C   0  0  0  0  0  0  0  0  0  0  0  0
    1.6218   -1.1284   -1.4763 C   0  0  0  0  0  0  0  0  0  0  0  0
    0.6665   -0.7252   -2.4255 C   0  0  0  0  0  0  0  0  0  0  0  0
   -0.2953   -1.6348   -2.8743 C   0  0  0  0  0  0  0  0  0  0  0  0
   -1.0398   -3.6554   -2.7512 H   0  0  0  0  0  0  0  0  0  0  0  0
    0.6472   -4.3743   -1.0751 H   0  0  0  0  0  0  0  0  0  0  0  0
    2.3482   -2.7581   -0.2527 H   0  0  0  0  0  0  0  0  0  0  0  0
    2.3936   -0.4357   -1.1508 H   0  0  0  0  0  0  0  0  0  0  0  0
    0.6902    0.2859   -2.8222 H   0  0  0  0  0  0  0  0  0  0  0  0
   -1.0269   -1.3283   -3.6162 H   0  0  0  0  0  0  0  0  0  0  0  0
    1.1726   -2.7078    3.5058 S   0  0  0  0  0  0  0  0  0  0  0  0
    2.1845   -2.9368    2.4989 O   0  0  0  0  0  0  0  0  0  0  0  0
   -0.0442   -1.9288    3.1750 O   0  0  0  0  0  0  0  0  0  0  0  0
    0.7274   -4.1282    4.1085 O   0  0  0  0  0  0  0  0  0  0  0  0
    1.9327   -1.8824    5.0138 C   0  0  0  0  0  0  0  0  0  0  0  0
    1.0297   -1.9080    5.9875 F   0  0  0  0  0  0  0  0  0  0  0  0
    3.0180   -2.5466    5.3586 F   0  0  0  0  0  0  0  0  0  0  0  0
    2.2238   -0.6350    4.6767 F   0  0  0  0  0  0  0  0  0  0  0  0
    0.2314   -1.0459   -0.0873 H   0  0  0  0  0  0  0  0  0  0  0  0
  1  3  1  0  0  0  0
  2  1  1  0  0  0  0
  3  4  1  0  0  0  0
  6  7  2  0  0  0  0
  7 13  1  0  0  0  0
  7  8  1  0  0  0  0
  8 14  1  0  0  0  0
  9 15  1  0  0  0  0
  9  8  2  0  0  0  0
 10  9  1  0  0  0  0
 11 10  2  0  0  0  0
 11  6  1  0  0  0  0
 12  6  1  0  0  0  0
 16 10  1  0  0  0  0
 17 11  1  0  0  0  0
 18 21  1  0  0  0  0
 18 22  1  0  0  0  0
 19 18  2  0  0  0  0
 20 18  2  0  0  0  0
 21  5  1  0  0  0  0
 22 24  1  0  0  0  0
 22 23  1  0  0  0  0
 25 22  1  0  0  0  0
 26  3  1  0  0  0  0
M  RAD  2   1   2   2   3
M  END
