Coordinates from ORCA-job C6H6+HOTf+NH2N2+-scan
 OpenBabel10221816143D

 26 25  0  0  1  0  0  0  0  0999 V2000
   -2.5591   -0.1831    6.1335 N   0  0  0  0  0  0  0  0  0  0  0  0
   -2.0164   -0.8998    5.4929 N   0  0  0  0  0  0  0  0  0  0  0  0
    0.5591   -1.1125   -0.3155 N   0  0  0  0  0  0  0  0  0  0  0  0
    0.4935   -1.0605    0.7138 H   0  0  0  0  0  0  0  0  0  0  0  0
   -1.1020   -2.2215    4.3957 H   0  0  0  0  0  0  0  0  0  0  0  0
   -0.5832   -2.2046   -2.3141 C   0  0  0  0  0  0  0  0  0  0  0  0
    0.0679   -2.3721   -1.0003 C   0  0  1  0  0  0  0  0  0  0  0  0
    1.5546   -2.1364   -0.9205 C   0  0  1  0  0  0  0  0  0  0  0  0
    2.2576   -1.7247   -2.1459 C   0  0  0  0  0  0  0  0  0  0  0  0
    1.5600   -1.4916   -3.2797 C   0  0  0  0  0  0  0  0  0  0  0  0
    0.1244   -1.7375   -3.3656 C   0  0  0  0  0  0  0  0  0  0  0  0
   -1.6213   -2.5039   -2.4105 H   0  0  0  0  0  0  0  0  0  0  0  0
   -0.3767   -3.0512   -0.2793 H   0  0  0  0  0  0  0  0  0  0  0  0
    2.1052   -2.6299   -0.1266 H   0  0  0  0  0  0  0  0  0  0  0  0
    3.3395   -1.6562   -2.1149 H   0  0  0  0  0  0  0  0  0  0  0  0
    2.0820   -1.1831   -4.1803 H   0  0  0  0  0  0  0  0  0  0  0  0
   -0.3604   -1.6086   -4.3284 H   0  0  0  0  0  0  0  0  0  0  0  0
    0.5462   -2.5464    3.0267 S   0  0  0  0  0  0  0  0  0  0  0  0
    0.7943   -3.5901    2.0448 O   0  0  0  0  0  0  0  0  0  0  0  0
    0.3840   -1.1581    2.5606 O   0  0  0  0  0  0  0  0  0  0  0  0
   -0.7031   -2.9841    3.9159 O   0  0  0  0  0  0  0  0  0  0  0  0
    1.9272   -2.5528    4.2943 C   0  0  0  0  0  0  0  0  0  0  0  0
    1.5767   -1.7401    5.2863 F   0  0  0  0  0  0  0  0  0  0  0  0
    2.1025   -3.7840    4.7375 F   0  0  0  0  0  0  0  0  0  0  0  0
    3.0234   -2.1078    3.6931 F   0  0  0  0  0  0  0  0  0  0  0  0
    0.4469   -0.2374   -0.8229 H   0  0  0  0  0  0  0  0  0  0  0  0
  2  1  3  0  0  0  0
  3  4  1  0  0  0  0
  6  7  1  0  0  0  0
  7  8  1  0  0  0  0
  7  3  1  0  0  0  0
  7 13  1  1  0  0  0
  8  3  1  0  0  0  0
  8 14  1  1  0  0  0
  9 15  1  0  0  0  0
  9  8  1  0  0  0  0
 10  9  2  0  0  0  0
 11 10  1  0  0  0  0
 11  6  2  0  0  0  0
 12  6  1  0  0  0  0
 16 10  1  0  0  0  0
 17 11  1  0  0  0  0
 18 21  1  0  0  0  0
 18 22  1  0  0  0  0
 19 18  2  0  0  0  0
 20 18  2  0  0  0  0
 21  5  1  0  0  0  0
 22 24  1  0  0  0  0
 22 23  1  0  0  0  0
 25 22  1  0  0  0  0
 26  3  1  0  0  0  0
M  END
