Coordinates from ORCA-job C6H6+HOTf+NH2N2+-scan
 OpenBabel10221816143D

 26 24  0  0  0  0  0  0  0  0999 V2000
   -2.1822   -2.6651    0.8545 N   0  0  0  0  0  0  0  0  0  0  0  0
   -3.1950   -3.1120    0.6635 N   0  0  0  0  0  0  0  0  0  0  0  0
   -1.0530   -2.1263    1.0393 N   0  0  0  0  0  0  0  0  0  0  0  0
   -0.6687   -2.1063    2.0254 H   0  0  0  0  0  0  0  0  0  0  0  0
    1.7451   -3.1234    5.0111 H   0  0  0  0  0  0  0  0  0  0  0  0
   -0.1207   -1.3589   -2.2501 C   0  0  0  0  0  0  0  0  0  0  0  0
   -0.1138   -2.4563   -3.1142 C   0  0  0  0  0  0  0  0  0  0  0  0
    0.8181   -3.4849   -2.9326 C   0  0  0  0  0  0  0  0  0  0  0  0
    1.7291   -3.4320   -1.8723 C   0  0  0  0  0  0  0  0  0  0  0  0
    1.7280   -2.3386   -1.0027 C   0  0  0  0  0  0  0  0  0  0  0  0
    0.8037   -1.2948   -1.1913 C   0  0  0  0  0  0  0  0  0  0  0  0
   -0.8153   -0.5394   -2.4150 H   0  0  0  0  0  0  0  0  0  0  0  0
   -0.8158   -2.4995   -3.9416 H   0  0  0  0  0  0  0  0  0  0  0  0
    0.8327   -4.3278   -3.6172 H   0  0  0  0  0  0  0  0  0  0  0  0
    2.4517   -4.2312   -1.7373 H   0  0  0  0  0  0  0  0  0  0  0  0
    2.4521   -2.2757   -0.1955 H   0  0  0  0  0  0  0  0  0  0  0  0
    0.8726   -0.3958   -0.5808 H   0  0  0  0  0  0  0  0  0  0  0  0
    1.4312   -1.5316    3.5838 S   0  0  0  0  0  0  0  0  0  0  0  0
    2.1439   -1.1778    2.3752 O   0  0  0  0  0  0  0  0  0  0  0  0
    0.0303   -2.0092    3.4976 O   0  0  0  0  0  0  0  0  0  0  0  0
    2.2992   -2.6168    4.3870 O   0  0  0  0  0  0  0  0  0  0  0  0
    1.4317   -0.0845    4.7850 C   0  0  0  0  0  0  0  0  0  0  0  0
    0.9714   -0.5263    5.9493 F   0  0  0  0  0  0  0  0  0  0  0  0
    2.6650    0.3654    4.9035 F   0  0  0  0  0  0  0  0  0  0  0  0
    0.6308    0.8432    4.2840 F   0  0  0  0  0  0  0  0  0  0  0  0
   -0.4495   -1.9728    0.1817 H   0  0  0  0  0  0  0  0  0  0  0  0
  1  3  1  0  0  0  0
  2  1  1  0  0  0  0
  3  4  1  0  0  0  0
  6 11  2  0  0  0  0
  7  8  2  0  0  0  0
  7  6  1  0  0  0  0
  8  9  1  0  0  0  0
  9 15  1  0  0  0  0
  9 10  2  0  0  0  0
 10 16  1  0  0  0  0
 11 10  1  0  0  0  0
 11 17  1  0  0  0  0
 12  6  1  0  0  0  0
 13  7  1  0  0  0  0
 14  8  1  0  0  0  0
 18 21  1  0  0  0  0
 18 22  1  0  0  0  0
 19 18  2  0  0  0  0
 20 18  2  0  0  0  0
 21  5  1  0  0  0  0
 22 24  1  0  0  0  0
 22 23  1  0  0  0  0
 25 22  1  0  0  0  0
 26  3  1  0  0  0  0
M  RAD  2   1   2   2   3
M  END
