Coordinates from ORCA-job C6H6+HOTf+NH2N2+-scan
 OpenBabel10221816143D

 26 24  0  0  0  0  0  0  0  0999 V2000
   -2.1173   -2.4106    0.6210 N   0  0  0  0  0  0  0  0  0  0  0  0
   -3.1631   -2.7733    0.4282 N   0  0  0  0  0  0  0  0  0  0  0  0
   -0.9448   -1.9842    0.8168 N   0  0  0  0  0  0  0  0  0  0  0  0
   -0.5537   -2.0310    1.7992 H   0  0  0  0  0  0  0  0  0  0  0  0
    1.6735   -3.3854    4.7871 H   0  0  0  0  0  0  0  0  0  0  0  0
   -0.2212   -1.4292   -2.3884 C   0  0  0  0  0  0  0  0  0  0  0  0
   -0.2340   -2.7498   -2.8477 C   0  0  0  0  0  0  0  0  0  0  0  0
    0.7501   -3.6485   -2.4202 C   0  0  0  0  0  0  0  0  0  0  0  0
    1.7402   -3.2361   -1.5229 C   0  0  0  0  0  0  0  0  0  0  0  0
    1.7579   -1.9184   -1.0561 C   0  0  0  0  0  0  0  0  0  0  0  0
    0.7744   -1.0103   -1.4874 C   0  0  0  0  0  0  0  0  0  0  0  0
   -0.9623   -0.7190   -2.7452 H   0  0  0  0  0  0  0  0  0  0  0  0
   -0.9933   -3.0713   -3.5546 H   0  0  0  0  0  0  0  0  0  0  0  0
    0.7469   -4.6693   -2.7911 H   0  0  0  0  0  0  0  0  0  0  0  0
    2.5060   -3.9352   -1.2003 H   0  0  0  0  0  0  0  0  0  0  0  0
    2.5308   -1.5908   -0.3672 H   0  0  0  0  0  0  0  0  0  0  0  0
    0.8202    0.0296   -1.1725 H   0  0  0  0  0  0  0  0  0  0  0  0
    1.4985   -1.6450    3.5180 S   0  0  0  0  0  0  0  0  0  0  0  0
    2.3042   -1.1851    2.4091 O   0  0  0  0  0  0  0  0  0  0  0  0
    0.0956   -2.0678    3.2907 O   0  0  0  0  0  0  0  0  0  0  0  0
    2.2815   -2.8367    4.2559 O   0  0  0  0  0  0  0  0  0  0  0  0
    1.4453   -0.3381    4.8686 C   0  0  0  0  0  0  0  0  0  0  0  0
    0.8972   -0.8907    5.9447 F   0  0  0  0  0  0  0  0  0  0  0  0
    2.6761    0.0628    5.1179 F   0  0  0  0  0  0  0  0  0  0  0  0
    0.6992    0.6607    4.4220 F   0  0  0  0  0  0  0  0  0  0  0  0
   -0.3852   -1.7054   -0.0355 H   0  0  0  0  0  0  0  0  0  0  0  0
  1  3  1  0  0  0  0
  2  1  1  0  0  0  0
  3  4  1  0  0  0  0
  6 11  2  0  0  0  0
  7  8  2  0  0  0  0
  7  6  1  0  0  0  0
  8  9  1  0  0  0  0
  9 15  1  0  0  0  0
  9 10  2  0  0  0  0
 10 16  1  0  0  0  0
 11 17  1  0  0  0  0
 11 10  1  0  0  0  0
 12  6  1  0  0  0  0
 13  7  1  0  0  0  0
 14  8  1  0  0  0  0
 18 21  1  0  0  0  0
 18 22  1  0  0  0  0
 19 18  2  0  0  0  0
 20 18  2  0  0  0  0
 21  5  1  0  0  0  0
 22 24  1  0  0  0  0
 22 23  1  0  0  0  0
 25 22  1  0  0  0  0
 26  3  1  0  0  0  0
M  RAD  2   1   2   2   3
M  END
