Coordinates from ORCA-job C6H6+HOTf+NH2N2+-scan
 OpenBabel10221816143D

 26 24  0  0  0  0  0  0  0  0999 V2000
   -2.2509   -2.6348    0.9491 N   0  0  0  0  0  0  0  0  0  0  0  0
   -3.2728   -3.0686    0.7782 N   0  0  0  0  0  0  0  0  0  0  0  0
   -1.1116   -2.1090    1.1129 N   0  0  0  0  0  0  0  0  0  0  0  0
   -0.7144   -2.0831    2.0946 H   0  0  0  0  0  0  0  0  0  0  0  0
    1.7265   -3.1022    5.0526 H   0  0  0  0  0  0  0  0  0  0  0  0
   -0.1308   -1.4015   -2.2646 C   0  0  0  0  0  0  0  0  0  0  0  0
   -0.0564   -2.4442   -3.1909 C   0  0  0  0  0  0  0  0  0  0  0  0
    0.9054   -3.4500   -3.0386 C   0  0  0  0  0  0  0  0  0  0  0  0
    1.7755   -3.4319   -1.9429 C   0  0  0  0  0  0  0  0  0  0  0  0
    1.7071   -2.3931   -1.0114 C   0  0  0  0  0  0  0  0  0  0  0  0
    0.7559   -1.3693   -1.1728 C   0  0  0  0  0  0  0  0  0  0  0  0
   -0.8460   -0.5959   -2.4084 H   0  0  0  0  0  0  0  0  0  0  0  0
   -0.7286   -2.4607   -4.0436 H   0  0  0  0  0  0  0  0  0  0  0  0
    0.9737   -4.2485   -3.7715 H   0  0  0  0  0  0  0  0  0  0  0  0
    2.5202   -4.2139   -1.8286 H   0  0  0  0  0  0  0  0  0  0  0  0
    2.4038   -2.3533   -0.1789 H   0  0  0  0  0  0  0  0  0  0  0  0
    0.7884   -0.4959   -0.5222 H   0  0  0  0  0  0  0  0  0  0  0  0
    1.4168   -1.5281    3.6047 S   0  0  0  0  0  0  0  0  0  0  0  0
    2.1127   -1.2093    2.3766 O   0  0  0  0  0  0  0  0  0  0  0  0
    0.0053   -1.9795    3.5520 O   0  0  0  0  0  0  0  0  0  0  0  0
    2.2784   -2.6165    4.4101 O   0  0  0  0  0  0  0  0  0  0  0  0
    1.4679   -0.0609    4.7803 C   0  0  0  0  0  0  0  0  0  0  0  0
    1.0209   -0.4737    5.9603 F   0  0  0  0  0  0  0  0  0  0  0  0
    2.7117    0.3663    4.8681 F   0  0  0  0  0  0  0  0  0  0  0  0
    0.6759    0.8735    4.2778 F   0  0  0  0  0  0  0  0  0  0  0  0
   -0.5123   -1.9942    0.2477 H   0  0  0  0  0  0  0  0  0  0  0  0
  1  3  1  0  0  0  0
  2  1  1  0  0  0  0
  3  4  1  0  0  0  0
  6 11  2  0  0  0  0
  7  8  2  0  0  0  0
  7  6  1  0  0  0  0
  8  9  1  0  0  0  0
  9 15  1  0  0  0  0
  9 10  2  0  0  0  0
 10 16  1  0  0  0  0
 11 10  1  0  0  0  0
 11 17  1  0  0  0  0
 12  6  1  0  0  0  0
 13  7  1  0  0  0  0
 14  8  1  0  0  0  0
 18 21  1  0  0  0  0
 18 22  1  0  0  0  0
 19 18  2  0  0  0  0
 20 18  2  0  0  0  0
 21  5  1  0  0  0  0
 22 24  1  0  0  0  0
 22 23  1  0  0  0  0
 25 22  1  0  0  0  0
 26  3  1  0  0  0  0
M  RAD  2   1   2   2   3
M  END
