Coordinates from ORCA-job C6H6+HOTf+NH2N2+-scan
 OpenBabel10221816143D

 26 24  0  0  0  0  0  0  0  0999 V2000
   -2.0150   -2.4826    0.4151 N   0  0  0  0  0  0  0  0  0  0  0  0
   -3.0381   -2.9037    0.2205 N   0  0  0  0  0  0  0  0  0  0  0  0
   -0.8678   -2.0034    0.6341 N   0  0  0  0  0  0  0  0  0  0  0  0
   -0.4848   -2.0581    1.6193 H   0  0  0  0  0  0  0  0  0  0  0  0
    1.5476   -3.5307    4.6892 H   0  0  0  0  0  0  0  0  0  0  0  0
   -0.2389   -1.4046   -2.4425 C   0  0  0  0  0  0  0  0  0  0  0  0
   -0.3204   -2.7986   -2.5439 C   0  0  0  0  0  0  0  0  0  0  0  0
    0.6385   -3.6006   -1.9147 C   0  0  0  0  0  0  0  0  0  0  0  0
    1.6896   -3.0180   -1.1998 C   0  0  0  0  0  0  0  0  0  0  0  0
    1.7755   -1.6257   -1.0934 C   0  0  0  0  0  0  0  0  0  0  0  0
    0.8042   -0.8169   -1.7068 C   0  0  0  0  0  0  0  0  0  0  0  0
   -0.9711   -0.7750   -2.9404 H   0  0  0  0  0  0  0  0  0  0  0  0
   -1.1168   -3.2553   -3.1247 H   0  0  0  0  0  0  0  0  0  0  0  0
    0.5792   -4.6818   -2.0031 H   0  0  0  0  0  0  0  0  0  0  0  0
    2.4428   -3.6444   -0.7314 H   0  0  0  0  0  0  0  0  0  0  0  0
    2.5866   -1.1699   -0.5340 H   0  0  0  0  0  0  0  0  0  0  0  0
    0.8759    0.2650   -1.6377 H   0  0  0  0  0  0  0  0  0  0  0  0
    1.5274   -1.7761    3.4266 S   0  0  0  0  0  0  0  0  0  0  0  0
    2.4133   -1.3469    2.3684 O   0  0  0  0  0  0  0  0  0  0  0  0
    0.1166   -2.1194    3.1253 O   0  0  0  0  0  0  0  0  0  0  0  0
    2.2074   -3.0180    4.1845 O   0  0  0  0  0  0  0  0  0  0  0  0
    1.4726   -0.4870    4.7938 C   0  0  0  0  0  0  0  0  0  0  0  0
    0.8463   -1.0269    5.8336 F   0  0  0  0  0  0  0  0  0  0  0  0
    2.7078   -0.1512    5.1089 F   0  0  0  0  0  0  0  0  0  0  0  0
    0.7988    0.5539    4.3291 F   0  0  0  0  0  0  0  0  0  0  0  0
   -0.3542   -1.6022   -0.1857 H   0  0  0  0  0  0  0  0  0  0  0  0
  1  3  1  0  0  0  0
  2  1  1  0  0  0  0
  3  4  1  0  0  0  0
  6 11  1  0  0  0  0
  7  6  2  0  0  0  0
  7  8  1  0  0  0  0
  8  9  2  0  0  0  0
  9 10  1  0  0  0  0
  9 15  1  0  0  0  0
 10 16  1  0  0  0  0
 11 17  1  0  0  0  0
 11 10  2  0  0  0  0
 12  6  1  0  0  0  0
 13  7  1  0  0  0  0
 14  8  1  0  0  0  0
 18 21  1  0  0  0  0
 18 22  1  0  0  0  0
 19 18  2  0  0  0  0
 20 18  2  0  0  0  0
 21  5  1  0  0  0  0
 22 24  1  0  0  0  0
 22 23  1  0  0  0  0
 25 22  1  0  0  0  0
 26  3  1  0  0  0  0
M  RAD  2   1   2   2   3
M  END
