Coordinates from ORCA-job C6H6+HOTf+NH2N2+-scan
 OpenBabel10221816143D

 26 24  0  0  0  0  0  0  0  0999 V2000
   -2.0629    0.5244    5.9422 N   0  0  0  0  0  0  0  0  0  0  0  0
   -1.7063   -0.3299    5.3410 N   0  0  0  0  0  0  0  0  0  0  0  0
    0.6993   -1.2983   -0.3635 N   0  0  0  0  0  0  0  0  0  0  0  0
    0.6055   -1.2619    0.6798 H   0  0  0  0  0  0  0  0  0  0  0  0
   -1.1516   -1.8917    4.3288 H   0  0  0  0  0  0  0  0  0  0  0  0
   -0.3338   -2.6162   -2.2271 C   0  0  0  0  0  0  0  0  0  0  0  0
    0.4153   -2.6397   -0.9788 C   0  0  0  0  0  0  0  0  0  0  0  0
    1.6549   -1.7149   -0.8729 C   0  0  0  0  0  0  0  0  0  0  0  0
    2.1463   -1.1680   -2.1711 C   0  0  0  0  0  0  0  0  0  0  0  0
    1.3203   -1.1225   -3.2403 C   0  0  0  0  0  0  0  0  0  0  0  0
    0.0453   -1.8190   -3.2562 C   0  0  0  0  0  0  0  0  0  0  0  0
   -1.1827   -3.2872   -2.3056 H   0  0  0  0  0  0  0  0  0  0  0  0
    0.2893   -3.3933   -0.2118 H   0  0  0  0  0  0  0  0  0  0  0  0
    2.4720   -2.0506   -0.2284 H   0  0  0  0  0  0  0  0  0  0  0  0
    3.1821   -0.8519   -2.2288 H   0  0  0  0  0  0  0  0  0  0  0  0
    1.6618   -0.6651   -4.1641 H   0  0  0  0  0  0  0  0  0  0  0  0
   -0.5486   -1.7921   -4.1639 H   0  0  0  0  0  0  0  0  0  0  0  0
    0.3544   -2.7385    3.0144 S   0  0  0  0  0  0  0  0  0  0  0  0
    0.3494   -3.9050    2.1522 O   0  0  0  0  0  0  0  0  0  0  0  0
    0.5343   -1.4000    2.4109 O   0  0  0  0  0  0  0  0  0  0  0  0
   -0.9669   -2.7616    3.9037 O   0  0  0  0  0  0  0  0  0  0  0  0
    1.6938   -2.9220    4.3148 C   0  0  0  0  0  0  0  0  0  0  0  0
    1.5222   -1.9586    5.2154 F   0  0  0  0  0  0  0  0  0  0  0  0
    1.5897   -4.1115    4.8754 F   0  0  0  0  0  0  0  0  0  0  0  0
    2.8635   -2.7863    3.7047 F   0  0  0  0  0  0  0  0  0  0  0  0
    0.1761   -0.5163   -0.7805 H   0  0  0  0  0  0  0  0  0  0  0  0
  2  1  3  0  0  0  0
  3  4  1  0  0  0  0
  6  7  1  0  0  0  0
  7  3  1  0  0  0  0
  7 13  1  0  0  0  0
  8  3  1  0  0  0  0
  8 14  1  0  0  0  0
  9  8  1  0  0  0  0
 10  9  2  0  0  0  0
 11 10  1  0  0  0  0
 11  6  2  0  0  0  0
 12  6  1  0  0  0  0
 15  9  1  0  0  0  0
 16 10  1  0  0  0  0
 17 11  1  0  0  0  0
 18 21  1  0  0  0  0
 18 22  1  0  0  0  0
 19 18  2  0  0  0  0
 20 18  2  0  0  0  0
 21  5  1  0  0  0  0
 22 24  1  0  0  0  0
 22 23  1  0  0  0  0
 25 22  1  0  0  0  0
 26  3  1  0  0  0  0
M  RAD  2   7   2   8   2
M  END
