Coordinates from ORCA-job C6H6+HOTf+NH2N2+-scan
 OpenBabel10221816143D

 26 25  0  0  1  0  0  0  0  0999 V2000
   -2.5236   -0.1145    6.1202 N   0  0  0  0  0  0  0  0  0  0  0  0
   -1.9964   -0.8453    5.4827 N   0  0  0  0  0  0  0  0  0  0  0  0
    0.5718   -1.1334   -0.3185 N   0  0  0  0  0  0  0  0  0  0  0  0
    0.5052   -1.0806    0.7118 H   0  0  0  0  0  0  0  0  0  0  0  0
   -1.1111   -2.1905    4.3914 H   0  0  0  0  0  0  0  0  0  0  0  0
   -0.5693   -2.2460   -2.3052 C   0  0  0  0  0  0  0  0  0  0  0  0
    0.0926   -2.4011   -0.9973 C   0  0  1  0  0  0  0  0  0  0  0  0
    1.5696   -2.0982   -0.9153 C   0  0  1  0  0  0  0  0  0  0  0  0
    2.2541   -1.6714   -2.1495 C   0  0  0  0  0  0  0  0  0  0  0  0
    1.5431   -1.4546   -3.2778 C   0  0  0  0  0  0  0  0  0  0  0  0
    0.1157   -1.7450   -3.3565 C   0  0  0  0  0  0  0  0  0  0  0  0
   -1.5963   -2.5821   -2.3988 H   0  0  0  0  0  0  0  0  0  0  0  0
   -0.3246   -3.0906   -0.2702 H   0  0  0  0  0  0  0  0  0  0  0  0
    2.1458   -2.5878   -0.1367 H   0  0  0  0  0  0  0  0  0  0  0  0
    3.3344   -1.5782   -2.1270 H   0  0  0  0  0  0  0  0  0  0  0  0
    2.0506   -1.1303   -4.1811 H   0  0  0  0  0  0  0  0  0  0  0  0
   -0.3793   -1.6246   -4.3152 H   0  0  0  0  0  0  0  0  0  0  0  0
    0.5305   -2.5594    3.0251 S   0  0  0  0  0  0  0  0  0  0  0  0
    0.7573   -3.6132    2.0492 O   0  0  0  0  0  0  0  0  0  0  0  0
    0.3993   -1.1702    2.5507 O   0  0  0  0  0  0  0  0  0  0  0  0
   -0.7291   -2.9640    3.9151 O   0  0  0  0  0  0  0  0  0  0  0  0
    1.9098   -2.5874    4.2945 C   0  0  0  0  0  0  0  0  0  0  0  0
    1.5750   -1.7622    5.2815 F   0  0  0  0  0  0  0  0  0  0  0  0
    2.0588   -3.8195    4.7445 F   0  0  0  0  0  0  0  0  0  0  0  0
    3.0155   -2.1685    3.6921 F   0  0  0  0  0  0  0  0  0  0  0  0
    0.4233   -0.2595   -0.8197 H   0  0  0  0  0  0  0  0  0  0  0  0
  2  1  3  0  0  0  0
  3  4  1  0  0  0  0
  6  7  1  0  0  0  0
  7  8  1  0  0  0  0
  7  3  1  0  0  0  0
  7 13  1  1  0  0  0
  8  3  1  0  0  0  0
  8 14  1  1  0  0  0
  9 15  1  0  0  0  0
  9  8  1  0  0  0  0
 10  9  2  0  0  0  0
 11 10  1  0  0  0  0
 11  6  2  0  0  0  0
 12  6  1  0  0  0  0
 16 10  1  0  0  0  0
 17 11  1  0  0  0  0
 18 21  1  0  0  0  0
 18 22  1  0  0  0  0
 19 18  2  0  0  0  0
 20 18  2  0  0  0  0
 21  5  1  0  0  0  0
 22 24  1  0  0  0  0
 22 23  1  0  0  0  0
 25 22  1  0  0  0  0
 26  3  1  0  0  0  0
M  END
