Coordinates from ORCA-job C6H6+HOTf+NH2N2+-scan
 OpenBabel10221816143D

 26 24  0  0  0  0  0  0  0  0999 V2000
   -2.1129   -2.4143    0.6138 N   0  0  0  0  0  0  0  0  0  0  0  0
   -3.1579   -2.7794    0.4210 N   0  0  0  0  0  0  0  0  0  0  0  0
   -0.9415   -1.9853    0.8103 N   0  0  0  0  0  0  0  0  0  0  0  0
   -0.5507   -2.0319    1.7928 H   0  0  0  0  0  0  0  0  0  0  0  0
    1.6701   -3.3884    4.7847 H   0  0  0  0  0  0  0  0  0  0  0  0
   -0.2220   -1.4272   -2.3887 C   0  0  0  0  0  0  0  0  0  0  0  0
   -0.2380   -2.7510   -2.8387 C   0  0  0  0  0  0  0  0  0  0  0  0
    0.7452   -3.6485   -2.4067 C   0  0  0  0  0  0  0  0  0  0  0  0
    1.7382   -3.2314   -1.5147 C   0  0  0  0  0  0  0  0  0  0  0  0
    1.7591   -1.9104   -1.0572 C   0  0  0  0  0  0  0  0  0  0  0  0
    0.7761   -1.0038   -1.4926 C   0  0  0  0  0  0  0  0  0  0  0  0
   -0.9629   -0.7183   -2.7486 H   0  0  0  0  0  0  0  0  0  0  0  0
   -0.9993   -3.0761   -3.5419 H   0  0  0  0  0  0  0  0  0  0  0  0
    0.7394   -4.6719   -2.7703 H   0  0  0  0  0  0  0  0  0  0  0  0
    2.5036   -3.9294   -1.1888 H   0  0  0  0  0  0  0  0  0  0  0  0
    2.5338   -1.5795   -0.3719 H   0  0  0  0  0  0  0  0  0  0  0  0
    0.8228    0.0377   -1.1830 H   0  0  0  0  0  0  0  0  0  0  0  0
    1.4999   -1.6474    3.5156 S   0  0  0  0  0  0  0  0  0  0  0  0
    2.3088   -1.1877    2.4089 O   0  0  0  0  0  0  0  0  0  0  0  0
    0.0969   -2.0682    3.2849 O   0  0  0  0  0  0  0  0  0  0  0  0
    2.2798   -2.8409    4.2542 O   0  0  0  0  0  0  0  0  0  0  0  0
    1.4452   -0.3417    4.8672 C   0  0  0  0  0  0  0  0  0  0  0  0
    0.8944   -0.8949    5.9417 F   0  0  0  0  0  0  0  0  0  0  0  0
    2.6759    0.0577    5.1195 F   0  0  0  0  0  0  0  0  0  0  0  0
    0.7010    0.6582    4.4201 F   0  0  0  0  0  0  0  0  0  0  0  0
   -0.3824   -1.7039   -0.0414 H   0  0  0  0  0  0  0  0  0  0  0  0
  1  3  1  0  0  0  0
  2  1  1  0  0  0  0
  3  4  1  0  0  0  0
  6 11  2  0  0  0  0
  7  8  2  0  0  0  0
  7  6  1  0  0  0  0
  8  9  1  0  0  0  0
  9 15  1  0  0  0  0
  9 10  2  0  0  0  0
 10 16  1  0  0  0  0
 11 17  1  0  0  0  0
 11 10  1  0  0  0  0
 12  6  1  0  0  0  0
 13  7  1  0  0  0  0
 14  8  1  0  0  0  0
 18 21  1  0  0  0  0
 18 22  1  0  0  0  0
 19 18  2  0  0  0  0
 20 18  2  0  0  0  0
 21  5  1  0  0  0  0
 22 24  1  0  0  0  0
 22 23  1  0  0  0  0
 25 22  1  0  0  0  0
 26  3  1  0  0  0  0
M  RAD  2   1   2   2   3
M  END
