Coordinates from ORCA-job C6H6+HOTf+NH2N2+-scan
 OpenBabel10221816143D

 26 24  0  0  0  0  0  0  0  0999 V2000
   -2.0239   -2.4710    0.4761 N   0  0  0  0  0  0  0  0  0  0  0  0
   -3.0530   -2.8727    0.2719 N   0  0  0  0  0  0  0  0  0  0  0  0
   -0.8728   -2.0037    0.7017 N   0  0  0  0  0  0  0  0  0  0  0  0
   -0.4959   -2.0601    1.6894 H   0  0  0  0  0  0  0  0  0  0  0  0
    1.6398   -3.4621    4.7219 H   0  0  0  0  0  0  0  0  0  0  0  0
   -0.2296   -1.3922   -2.4091 C   0  0  0  0  0  0  0  0  0  0  0  0
   -0.3152   -2.7676   -2.6530 C   0  0  0  0  0  0  0  0  0  0  0  0
    0.6462   -3.6336   -2.1188 C   0  0  0  0  0  0  0  0  0  0  0  0
    1.6949   -3.1309   -1.3424 C   0  0  0  0  0  0  0  0  0  0  0  0
    1.7841   -1.7574   -1.0910 C   0  0  0  0  0  0  0  0  0  0  0  0
    0.8173   -0.8853   -1.6200 C   0  0  0  0  0  0  0  0  0  0  0  0
   -0.9598   -0.7130   -2.8406 H   0  0  0  0  0  0  0  0  0  0  0  0
   -1.1150   -3.1601   -3.2746 H   0  0  0  0  0  0  0  0  0  0  0  0
    0.5849   -4.6991   -2.3209 H   0  0  0  0  0  0  0  0  0  0  0  0
    2.4468   -3.8045   -0.9423 H   0  0  0  0  0  0  0  0  0  0  0  0
    2.5963   -1.3635   -0.4878 H   0  0  0  0  0  0  0  0  0  0  0  0
    0.8994    0.1845   -1.4479 H   0  0  0  0  0  0  0  0  0  0  0  0
    1.5169   -1.7058    3.4681 S   0  0  0  0  0  0  0  0  0  0  0  0
    2.3609   -1.2359    2.3927 O   0  0  0  0  0  0  0  0  0  0  0  0
    0.1180   -2.1129    3.1920 O   0  0  0  0  0  0  0  0  0  0  0  0
    2.2670   -2.9158    4.2109 O   0  0  0  0  0  0  0  0  0  0  0  0
    1.4309   -0.4207    4.8376 C   0  0  0  0  0  0  0  0  0  0  0  0
    0.8477   -0.9876    5.8878 F   0  0  0  0  0  0  0  0  0  0  0  0
    2.6559   -0.0316    5.1304 F   0  0  0  0  0  0  0  0  0  0  0  0
    0.7042    0.5900    4.3859 F   0  0  0  0  0  0  0  0  0  0  0  0
   -0.3229   -1.6654   -0.1275 H   0  0  0  0  0  0  0  0  0  0  0  0
  1  3  1  0  0  0  0
  2  1  1  0  0  0  0
  3  4  1  0  0  0  0
  6 11  1  0  0  0  0
  7  6  2  0  0  0  0
  7  8  1  0  0  0  0
  8  9  2  0  0  0  0
  9 10  1  0  0  0  0
  9 15  1  0  0  0  0
 10 16  1  0  0  0  0
 11 17  1  0  0  0  0
 11 10  2  0  0  0  0
 12  6  1  0  0  0  0
 13  7  1  0  0  0  0
 14  8  1  0  0  0  0
 18 21  1  0  0  0  0
 18 22  1  0  0  0  0
 19 18  2  0  0  0  0
 20 18  2  0  0  0  0
 21  5  1  0  0  0  0
 22 24  1  0  0  0  0
 22 23  1  0  0  0  0
 25 22  1  0  0  0  0
 26  3  1  0  0  0  0
M  RAD  2   1   2   2   3
M  END
