Coordinates from ORCA-job C6H6+HOTf+NH2N2+-scan
 OpenBabel10221816143D

 26 25  0  0  1  0  0  0  0  0999 V2000
   -2.9196   -0.9694    6.0447 N   0  0  0  0  0  0  0  0  0  0  0  0
   -2.1839   -1.5382    5.4501 N   0  0  0  0  0  0  0  0  0  0  0  0
    0.5709   -1.0333   -0.3109 N   0  0  0  0  0  0  0  0  0  0  0  0
    0.4917   -1.0307    0.7150 H   0  0  0  0  0  0  0  0  0  0  0  0
   -0.9067   -2.6117    4.4328 H   0  0  0  0  0  0  0  0  0  0  0  0
   -0.6663   -1.6403   -2.4467 C   0  0  0  0  0  0  0  0  0  0  0  0
   -0.2138   -2.0530   -1.0943 C   0  0  1  0  0  0  0  0  0  0  0  0
    1.2162   -2.4900   -0.9623 C   0  0  1  0  0  0  0  0  0  0  0  0
    2.1114   -2.3389   -2.0995 C   0  0  0  0  0  0  0  0  0  0  0  0
    1.6357   -1.8497   -3.2703 C   0  0  0  0  0  0  0  0  0  0  0  0
    0.2283   -1.5094   -3.4484 C   0  0  0  0  0  0  0  0  0  0  0  0
   -1.7279   -1.4833   -2.6052 H   0  0  0  0  0  0  0  0  0  0  0  0
   -0.9574   -2.5331   -0.4626 H   0  0  0  0  0  0  0  0  0  0  0  0
    1.4919   -3.0945   -0.1039 H   0  0  0  0  0  0  0  0  0  0  0  0
    3.1390   -2.6680   -1.9917 H   0  0  0  0  0  0  0  0  0  0  0  0
    2.2994   -1.7537   -4.1243 H   0  0  0  0  0  0  0  0  0  0  0  0
   -0.1038   -1.2021   -4.4352 H   0  0  0  0  0  0  0  0  0  0  0  0
    0.7963   -2.5392    3.0957 S   0  0  0  0  0  0  0  0  0  0  0  0
    1.3673   -3.5335    2.2035 O   0  0  0  0  0  0  0  0  0  0  0  0
    0.2495   -1.2911    2.5353 O   0  0  0  0  0  0  0  0  0  0  0  0
   -0.3013   -3.2587    4.0031 O   0  0  0  0  0  0  0  0  0  0  0  0
    2.0764   -2.0566    4.3763 C   0  0  0  0  0  0  0  0  0  0  0  0
    1.4689   -1.3278    5.3088 F   0  0  0  0  0  0  0  0  0  0  0  0
    2.5969   -3.1494    4.9040 F   0  0  0  0  0  0  0  0  0  0  0  0
    3.0091   -1.3400    3.7620 F   0  0  0  0  0  0  0  0  0  0  0  0
    0.8544   -0.1823   -0.7859 H   0  0  0  0  0  0  0  0  0  0  0  0
  2  1  3  0  0  0  0
  3  4  1  0  0  0  0
  6  7  1  0  0  0  0
  7  8  1  0  0  0  0
  7 13  1  1  0  0  0
  7  3  1  0  0  0  0
  8  3  1  0  0  0  0
  8 14  1  1  0  0  0
  9 15  1  0  0  0  0
  9  8  1  0  0  0  0
 10  9  2  0  0  0  0
 11 10  1  0  0  0  0
 11  6  2  0  0  0  0
 12  6  1  0  0  0  0
 16 10  1  0  0  0  0
 17 11  1  0  0  0  0
 18 21  1  0  0  0  0
 18 22  1  0  0  0  0
 19 18  2  0  0  0  0
 20 18  2  0  0  0  0
 21  5  1  0  0  0  0
 22 24  1  0  0  0  0
 22 23  1  0  0  0  0
 25 22  1  0  0  0  0
 26  3  1  0  0  0  0
M  END
