Coordinates from ORCA-job C6H6+HOTf+NH2N2+-scan
 OpenBabel10221816143D

 26 24  0  0  0  0  0  0  0  0999 V2000
   -1.1055    0.3316    0.7116 N   0  0  0  0  0  0  0  0  0  0  0  0
   -1.8218    1.1834    0.5423 N   0  0  0  0  0  0  0  0  0  0  0  0
   -0.2711   -0.6108    0.8110 N   0  0  0  0  0  0  0  0  0  0  0  0
   -0.1749   -1.0556    1.7551 H   0  0  0  0  0  0  0  0  0  0  0  0
   -0.6385   -3.8045    4.6599 H   0  0  0  0  0  0  0  0  0  0  0  0
   -0.0789   -3.2057   -2.0680 C   0  0  0  0  0  0  0  0  0  0  0  0
    0.7192   -2.9765   -0.9488 C   0  0  0  0  0  0  0  0  0  0  0  0
    1.3925   -1.7453   -0.8062 C   0  0  0  0  0  0  0  0  0  0  0  0
    1.3286   -0.7891   -1.8421 C   0  0  0  0  0  0  0  0  0  0  0  0
    0.5218   -1.0240   -2.9570 C   0  0  0  0  0  0  0  0  0  0  0  0
   -0.1797   -2.2294   -3.0666 C   0  0  0  0  0  0  0  0  0  0  0  0
   -0.6081   -4.1476   -2.1748 H   0  0  0  0  0  0  0  0  0  0  0  0
    0.8205   -3.7317   -0.1752 H   0  0  0  0  0  0  0  0  0  0  0  0
    2.0984   -1.6144    0.0114 H   0  0  0  0  0  0  0  0  0  0  0  0
    1.8946    0.1350   -1.7600 H   0  0  0  0  0  0  0  0  0  0  0  0
    0.4596   -0.2836   -3.7484 H   0  0  0  0  0  0  0  0  0  0  0  0
   -0.7986   -2.4139   -3.9399 H   0  0  0  0  0  0  0  0  0  0  0  0
    0.9303   -2.8976    3.4841 S   0  0  0  0  0  0  0  0  0  0  0  0
    1.6996   -3.4070    2.3682 O   0  0  0  0  0  0  0  0  0  0  0  0
    0.0052   -1.7608    3.2876 O   0  0  0  0  0  0  0  0  0  0  0  0
    0.1219   -4.1228    4.1372 O   0  0  0  0  0  0  0  0  0  0  0  0
    2.0825   -2.4207    4.8900 C   0  0  0  0  0  0  0  0  0  0  0  0
    1.3362   -2.1804    5.9621 F   0  0  0  0  0  0  0  0  0  0  0  0
    2.9190   -3.4158    5.1105 F   0  0  0  0  0  0  0  0  0  0  0  0
    2.7308   -1.3276    4.5156 F   0  0  0  0  0  0  0  0  0  0  0  0
    0.2392   -0.9629   -0.0695 H   0  0  0  0  0  0  0  0  0  0  0  0
  1  3  1  0  0  0  0
  2  1  1  0  0  0  0
  3  4  1  0  0  0  0
  6  7  2  0  0  0  0
  7  8  1  0  0  0  0
  7 13  1  0  0  0  0
  8 14  1  0  0  0  0
  9 15  1  0  0  0  0
  9  8  2  0  0  0  0
 10  9  1  0  0  0  0
 11 10  2  0  0  0  0
 11  6  1  0  0  0  0
 12  6  1  0  0  0  0
 16 10  1  0  0  0  0
 17 11  1  0  0  0  0
 18 21  1  0  0  0  0
 18 22  1  0  0  0  0
 19 18  2  0  0  0  0
 20 18  2  0  0  0  0
 21  5  1  0  0  0  0
 22 24  1  0  0  0  0
 22 23  1  0  0  0  0
 25 22  1  0  0  0  0
 26  3  1  0  0  0  0
M  RAD  2   1   2   2   3
M  END
