Coordinates from ORCA-job C6H6+HOTf+NH2N2+-scan
 OpenBabel10221816143D

 26 24  0  0  0  0  0  0  0  0999 V2000
   -2.3688   -2.5924    1.1253 N   0  0  0  0  0  0  0  0  0  0  0  0
   -3.4061   -3.0033    0.9993 N   0  0  0  0  0  0  0  0  0  0  0  0
   -1.2126   -2.0906    1.2489 N   0  0  0  0  0  0  0  0  0  0  0  0
   -0.7900   -2.0475    2.2224 H   0  0  0  0  0  0  0  0  0  0  0  0
    1.6798   -3.0687    5.1377 H   0  0  0  0  0  0  0  0  0  0  0  0
   -0.1453   -1.4707   -2.3174 C   0  0  0  0  0  0  0  0  0  0  0  0
    0.0447   -2.4218   -3.3223 C   0  0  0  0  0  0  0  0  0  0  0  0
    1.0557   -3.3828   -3.1985 C   0  0  0  0  0  0  0  0  0  0  0  0
    1.8555   -3.4142   -2.0503 C   0  0  0  0  0  0  0  0  0  0  0  0
    1.6719   -2.4661   -1.0406 C   0  0  0  0  0  0  0  0  0  0  0  0
    0.6753   -1.4837   -1.1758 C   0  0  0  0  0  0  0  0  0  0  0  0
   -0.8971   -0.6953   -2.4397 H   0  0  0  0  0  0  0  0  0  0  0  0
   -0.5762   -2.3994   -4.2129 H   0  0  0  0  0  0  0  0  0  0  0  0
    1.2152   -4.1074   -3.9914 H   0  0  0  0  0  0  0  0  0  0  0  0
    2.6372   -4.1618   -1.9545 H   0  0  0  0  0  0  0  0  0  0  0  0
    2.3210   -2.4597   -0.1694 H   0  0  0  0  0  0  0  0  0  0  0  0
    0.6362   -0.6545   -0.4687 H   0  0  0  0  0  0  0  0  0  0  0  0
    1.3919   -1.5336    3.6436 S   0  0  0  0  0  0  0  0  0  0  0  0
    2.0612   -1.2873    2.3846 O   0  0  0  0  0  0  0  0  0  0  0  0
   -0.0387   -1.9273    3.6464 O   0  0  0  0  0  0  0  0  0  0  0  0
    2.2310   -2.6289    4.4623 O   0  0  0  0  0  0  0  0  0  0  0  0
    1.5364   -0.0296    4.7646 C   0  0  0  0  0  0  0  0  0  0  0  0
    1.1085   -0.3835    5.9704 F   0  0  0  0  0  0  0  0  0  0  0  0
    2.7983    0.3485    4.8015 F   0  0  0  0  0  0  0  0  0  0  0  0
    0.7677    0.9181    4.2515 F   0  0  0  0  0  0  0  0  0  0  0  0
   -0.6301   -2.0344    0.3732 H   0  0  0  0  0  0  0  0  0  0  0  0
  1  3  1  0  0  0  0
  2  1  1  0  0  0  0
  3  4  1  0  0  0  0
  6 11  2  0  0  0  0
  7  8  2  0  0  0  0
  7  6  1  0  0  0  0
  8  9  1  0  0  0  0
  9 15  1  0  0  0  0
  9 10  2  0  0  0  0
 10 16  1  0  0  0  0
 11 10  1  0  0  0  0
 11 17  1  0  0  0  0
 12  6  1  0  0  0  0
 13  7  1  0  0  0  0
 14  8  1  0  0  0  0
 18 20  2  0  0  0  0
 18 21  1  0  0  0  0
 18 22  1  0  0  0  0
 19 18  2  0  0  0  0
 21  5  1  0  0  0  0
 22 24  1  0  0  0  0
 22 23  1  0  0  0  0
 25 22  1  0  0  0  0
 26  3  1  0  0  0  0
M  RAD  2   1   2   2   3
M  END
