Coordinates from ORCA-job C6H6+HOTf+NH2N2+-scan
 OpenBabel10221816143D

 26 25  0  0  1  0  0  0  0  0999 V2000
   -2.5733   -0.2127    6.1403 N   0  0  0  0  0  0  0  0  0  0  0  0
   -2.0243   -0.9231    5.4983 N   0  0  0  0  0  0  0  0  0  0  0  0
    0.5520   -1.1022   -0.3142 N   0  0  0  0  0  0  0  0  0  0  0  0
    0.4872   -1.0511    0.7148 H   0  0  0  0  0  0  0  0  0  0  0  0
   -1.0979   -2.2348    4.3983 H   0  0  0  0  0  0  0  0  0  0  0  0
   -0.5882   -2.1867   -2.3184 C   0  0  0  0  0  0  0  0  0  0  0  0
    0.0582   -2.3588   -1.0017 C   0  0  1  0  0  0  0  0  0  0  0  0
    1.5481   -2.1531   -0.9235 C   0  0  1  0  0  0  0  0  0  0  0  0
    2.2591   -1.7478   -2.1444 C   0  0  0  0  0  0  0  0  0  0  0  0
    1.5674   -1.5082   -3.2809 C   0  0  0  0  0  0  0  0  0  0  0  0
    0.1288   -1.7351   -3.3700 C   0  0  0  0  0  0  0  0  0  0  0  0
   -1.6307   -2.4698   -2.4159 H   0  0  0  0  0  0  0  0  0  0  0  0
   -0.3981   -3.0338   -0.2839 H   0  0  0  0  0  0  0  0  0  0  0  0
    2.0876   -2.6466   -0.1221 H   0  0  0  0  0  0  0  0  0  0  0  0
    3.3415   -1.6894   -2.1096 H   0  0  0  0  0  0  0  0  0  0  0  0
    2.0956   -1.2067   -4.1802 H   0  0  0  0  0  0  0  0  0  0  0  0
   -0.3514   -1.6030   -4.3347 H   0  0  0  0  0  0  0  0  0  0  0  0
    0.5523   -2.5411    3.0276 S   0  0  0  0  0  0  0  0  0  0  0  0
    0.8090   -3.5804    2.0432 O   0  0  0  0  0  0  0  0  0  0  0  0
    0.3768   -1.1534    2.5652 O   0  0  0  0  0  0  0  0  0  0  0  0
   -0.6920   -2.9928    3.9171 O   0  0  0  0  0  0  0  0  0  0  0  0
    1.9344   -2.5381    4.2940 C   0  0  0  0  0  0  0  0  0  0  0  0
    1.5778   -1.7309    5.2881 F   0  0  0  0  0  0  0  0  0  0  0  0
    2.1210   -3.7688    4.7342 F   0  0  0  0  0  0  0  0  0  0  0  0
    3.0262   -2.0823    3.6928 F   0  0  0  0  0  0  0  0  0  0  0  0
    0.4557   -0.2272   -0.8242 H   0  0  0  0  0  0  0  0  0  0  0  0
  2  1  3  0  0  0  0
  3  4  1  0  0  0  0
  6  7  1  0  0  0  0
  7  8  1  0  0  0  0
  7  3  1  0  0  0  0
  7 13  1  1  0  0  0
  8  3  1  0  0  0  0
  8 14  1  1  0  0  0
  9 15  1  0  0  0  0
  9  8  1  0  0  0  0
 10  9  2  0  0  0  0
 11 10  1  0  0  0  0
 11  6  2  0  0  0  0
 12  6  1  0  0  0  0
 16 10  1  0  0  0  0
 17 11  1  0  0  0  0
 18 21  1  0  0  0  0
 18 22  1  0  0  0  0
 19 18  2  0  0  0  0
 20 18  2  0  0  0  0
 21  5  1  0  0  0  0
 22 24  1  0  0  0  0
 22 23  1  0  0  0  0
 25 22  1  0  0  0  0
 26  3  1  0  0  0  0
M  END
