Coordinates from ORCA-job C6H6+HOTf+NH2N2+-scan
 OpenBabel10221816143D

 26 24  0  0  0  0  0  0  0  0999 V2000
   -1.1573    0.3419    0.7720 N   0  0  0  0  0  0  0  0  0  0  0  0
   -1.9078    1.1749    0.6722 N   0  0  0  0  0  0  0  0  0  0  0  0
   -0.2821   -0.5716    0.7807 N   0  0  0  0  0  0  0  0  0  0  0  0
   -0.1387   -1.0596    1.6957 H   0  0  0  0  0  0  0  0  0  0  0  0
   -0.6354   -3.7559    4.6665 H   0  0  0  0  0  0  0  0  0  0  0  0
   -0.0751   -3.2106   -2.0680 C   0  0  0  0  0  0  0  0  0  0  0  0
    0.6608   -2.9620   -0.9116 C   0  0  0  0  0  0  0  0  0  0  0  0
    1.3237   -1.7270   -0.7520 C   0  0  0  0  0  0  0  0  0  0  0  0
    1.3231   -0.7931   -1.8106 C   0  0  0  0  0  0  0  0  0  0  0  0
    0.5775   -1.0475   -2.9638 C   0  0  0  0  0  0  0  0  0  0  0  0
   -0.1206   -2.2526   -3.0889 C   0  0  0  0  0  0  0  0  0  0  0  0
   -0.5979   -4.1546   -2.1869 H   0  0  0  0  0  0  0  0  0  0  0  0
    0.7230   -3.7059   -0.1232 H   0  0  0  0  0  0  0  0  0  0  0  0
    1.9874   -1.5831    0.0975 H   0  0  0  0  0  0  0  0  0  0  0  0
    1.8853    0.1321   -1.7144 H   0  0  0  0  0  0  0  0  0  0  0  0
    0.5623   -0.3221   -3.7712 H   0  0  0  0  0  0  0  0  0  0  0  0
   -0.6917   -2.4526   -3.9907 H   0  0  0  0  0  0  0  0  0  0  0  0
    0.9493   -2.9176    3.4609 S   0  0  0  0  0  0  0  0  0  0  0  0
    1.7060   -3.4753    2.3599 O   0  0  0  0  0  0  0  0  0  0  0  0
    0.0508   -1.7654    3.2348 O   0  0  0  0  0  0  0  0  0  0  0  0
    0.1132   -4.1059    4.1472 O   0  0  0  0  0  0  0  0  0  0  0  0
    2.1129   -2.4297    4.8535 C   0  0  0  0  0  0  0  0  0  0  0  0
    1.3727   -2.1452    5.9193 F   0  0  0  0  0  0  0  0  0  0  0  0
    2.9275   -3.4367    5.1002 F   0  0  0  0  0  0  0  0  0  0  0  0
    2.7848   -1.3612    4.4511 F   0  0  0  0  0  0  0  0  0  0  0  0
    0.1690   -0.8917   -0.1403 H   0  0  0  0  0  0  0  0  0  0  0  0
  1  3  1  0  0  0  0
  2  1  1  0  0  0  0
  3  4  1  0  0  0  0
  6  7  2  0  0  0  0
  7  8  1  0  0  0  0
  7 13  1  0  0  0  0
  8 14  1  0  0  0  0
  9 15  1  0  0  0  0
  9  8  2  0  0  0  0
 10  9  1  0  0  0  0
 11 10  2  0  0  0  0
 11  6  1  0  0  0  0
 12  6  1  0  0  0  0
 16 10  1  0  0  0  0
 17 11  1  0  0  0  0
 18 21  1  0  0  0  0
 18 22  1  0  0  0  0
 19 18  2  0  0  0  0
 20 18  2  0  0  0  0
 21  5  1  0  0  0  0
 22 24  1  0  0  0  0
 22 23  1  0  0  0  0
 25 22  1  0  0  0  0
 26  3  1  0  0  0  0
M  RAD  2   1   2   2   3
M  END
