Coordinates from ORCA-job C6H6+HOTf+NH2N2+-scan
 OpenBabel10221816143D

 26 24  0  0  1  0  0  0  0  0999 V2000
   -2.0146    0.6558    2.2273 N   0  0  0  0  0  0  0  0  0  0  0  0
   -2.6976    1.0158    3.0178 N   0  0  0  0  0  0  0  0  0  0  0  0
    0.7450   -0.3033    0.3690 N   0  0  0  0  0  0  0  0  0  0  0  0
    0.1108   -0.2954    1.1656 H   0  0  0  0  0  0  0  0  0  0  0  0
   -0.7113   -3.9990    4.4122 H   0  0  0  0  0  0  0  0  0  0  0  0
   -0.5971   -1.8605   -1.1759 C   0  0  0  0  0  0  0  0  0  0  0  0
    0.6250   -1.4507   -0.4512 C   0  0  1  0  0  0  0  0  0  0  0  0
    1.8608   -1.4487   -1.1738 C   0  0  0  0  0  0  0  0  0  0  0  0
    1.9480   -1.9543   -2.4571 C   0  0  0  0  0  0  0  0  0  0  0  0
    0.7744   -2.4326   -3.0684 C   0  0  0  0  0  0  0  0  0  0  0  0
   -0.4918   -2.4029   -2.4319 C   0  0  0  0  0  0  0  0  0  0  0  0
   -1.5516   -1.7869   -0.6609 H   0  0  0  0  0  0  0  0  0  0  0  0
    0.7788   -2.3640    0.2176 H   0  0  0  0  0  0  0  0  0  0  0  0
    2.7264   -1.0613   -0.6479 H   0  0  0  0  0  0  0  0  0  0  0  0
    2.8874   -1.9683   -2.9996 H   0  0  0  0  0  0  0  0  0  0  0  0
    0.8351   -2.8333   -4.0778 H   0  0  0  0  0  0  0  0  0  0  0  0
   -1.3664   -2.7652   -2.9624 H   0  0  0  0  0  0  0  0  0  0  0  0
    0.6704   -3.0094    3.0917 S   0  0  0  0  0  0  0  0  0  0  0  0
    1.1684   -3.4396    1.7862 O   0  0  0  0  0  0  0  0  0  0  0  0
   -0.1639   -1.8210    3.2210 O   0  0  0  0  0  0  0  0  0  0  0  0
   -0.0661   -4.2892    3.7403 O   0  0  0  0  0  0  0  0  0  0  0  0
    2.1466   -2.8389    4.2350 C   0  0  0  0  0  0  0  0  0  0  0  0
    1.6903   -2.6707    5.4713 F   0  0  0  0  0  0  0  0  0  0  0  0
    2.8872   -3.9312    4.1551 F   0  0  0  0  0  0  0  0  0  0  0  0
    2.8358   -1.7753    3.8441 F   0  0  0  0  0  0  0  0  0  0  0  0
    0.5926    0.5520   -0.1570 H   0  0  0  0  0  0  0  0  0  0  0  0
  1  2  3  0  0  0  0
  3  4  1  0  0  0  0
  6 12  1  0  0  0  0
  6  7  1  0  0  0  0
  7 13  1  1  0  0  0
  7  3  1  0  0  0  0
  8 14  1  0  0  0  0
  8  7  1  0  0  0  0
  9  8  2  0  0  0  0
 10  9  1  0  0  0  0
 10 11  1  0  0  0  0
 11  6  2  0  0  0  0
 15  9  1  0  0  0  0
 16 10  1  0  0  0  0
 17 11  1  0  0  0  0
 18 20  2  0  0  0  0
 18 21  1  0  0  0  0
 18 22  1  0  0  0  0
 19 18  2  0  0  0  0
 21  5  1  0  0  0  0
 22 23  1  0  0  0  0
 24 22  1  0  0  0  0
 25 22  1  0  0  0  0
 26  3  1  0  0  0  0
M  RAD  1  10   2
M  END
