Coordinates from ORCA-job C6H6+HOTf+NH2N2+-scan
 OpenBabel10221816143D

 26 25  0  0  1  0  0  0  0  0999 V2000
   -2.4956   -0.0625    6.1086 N   0  0  0  0  0  0  0  0  0  0  0  0
   -1.9802   -0.8039    5.4737 N   0  0  0  0  0  0  0  0  0  0  0  0
    0.5817   -1.1489   -0.3210 N   0  0  0  0  0  0  0  0  0  0  0  0
    0.5143   -1.0959    0.7101 H   0  0  0  0  0  0  0  0  0  0  0  0
   -1.1173   -2.1673    4.3879 H   0  0  0  0  0  0  0  0  0  0  0  0
   -0.5577   -2.2767   -2.2985 C   0  0  0  0  0  0  0  0  0  0  0  0
    0.1124   -2.4226   -0.9952 C   0  0  1  0  0  0  0  0  0  0  0  0
    1.5802   -2.0691   -0.9118 C   0  0  1  0  0  0  0  0  0  0  0  0
    2.2503   -1.6313   -2.1526 C   0  0  0  0  0  0  0  0  0  0  0  0
    1.5293   -1.4269   -3.2765 C   0  0  0  0  0  0  0  0  0  0  0  0
    0.1090   -1.7503   -3.3496 C   0  0  0  0  0  0  0  0  0  0  0  0
   -1.5755   -2.6401   -2.3900 H   0  0  0  0  0  0  0  0  0  0  0  0
   -0.2835   -3.1196   -0.2638 H   0  0  0  0  0  0  0  0  0  0  0  0
    2.1762   -2.5541   -0.1449 H   0  0  0  0  0  0  0  0  0  0  0  0
    3.3291   -1.5198   -2.1365 H   0  0  0  0  0  0  0  0  0  0  0  0
    2.0254   -1.0910   -4.1819 H   0  0  0  0  0  0  0  0  0  0  0  0
   -0.3940   -1.6361   -4.3049 H   0  0  0  0  0  0  0  0  0  0  0  0
    0.5188   -2.5705    3.0244 S   0  0  0  0  0  0  0  0  0  0  0  0
    0.7296   -3.6326    2.0542 O   0  0  0  0  0  0  0  0  0  0  0  0
    0.4112   -1.1815    2.5424 O   0  0  0  0  0  0  0  0  0  0  0  0
   -0.7485   -2.9490    3.9146 O   0  0  0  0  0  0  0  0  0  0  0  0
    1.8960   -2.6135    4.2958 C   0  0  0  0  0  0  0  0  0  0  0  0
    1.5725   -1.7784    5.2782 F   0  0  0  0  0  0  0  0  0  0  0  0
    2.0254   -3.8455    4.7519 F   0  0  0  0  0  0  0  0  0  0  0  0
    3.0086   -2.2145    3.6927 F   0  0  0  0  0  0  0  0  0  0  0  0
    0.4049   -0.2766   -0.8169 H   0  0  0  0  0  0  0  0  0  0  0  0
  2  1  3  0  0  0  0
  3  4  1  0  0  0  0
  6  7  1  0  0  0  0
  7  8  1  0  0  0  0
  7  3  1  0  0  0  0
  7 13  1  1  0  0  0
  8  3  1  0  0  0  0
  8 14  1  1  0  0  0
  9 15  1  0  0  0  0
  9  8  1  0  0  0  0
 10  9  2  0  0  0  0
 11 10  1  0  0  0  0
 11  6  2  0  0  0  0
 12  6  1  0  0  0  0
 16 10  1  0  0  0  0
 17 11  1  0  0  0  0
 18 21  1  0  0  0  0
 18 22  1  0  0  0  0
 19 18  2  0  0  0  0
 20 18  2  0  0  0  0
 21  5  1  0  0  0  0
 22 24  1  0  0  0  0
 22 23  1  0  0  0  0
 25 22  1  0  0  0  0
 26  3  1  0  0  0  0
M  END
