Coordinates from ORCA-job C6H6+HOTf+NH2N2+-scan
 OpenBabel10221816143D

 26 24  0  0  0  0  0  0  0  0999 V2000
   -0.8067    0.4655    0.6882 N   0  0  0  0  0  0  0  0  0  0  0  0
   -1.3955    1.4146    0.5529 N   0  0  0  0  0  0  0  0  0  0  0  0
   -0.1362   -0.6011    0.7662 N   0  0  0  0  0  0  0  0  0  0  0  0
   -0.1020   -1.0744    1.7038 H   0  0  0  0  0  0  0  0  0  0  0  0
   -0.8386   -3.8666    4.4623 H   0  0  0  0  0  0  0  0  0  0  0  0
    0.0776   -3.2413   -1.8391 C   0  0  0  0  0  0  0  0  0  0  0  0
    1.0981   -2.8605   -0.9680 C   0  0  0  0  0  0  0  0  0  0  0  0
    1.6440   -1.5643   -1.0550 C   0  0  0  0  0  0  0  0  0  0  0  0
    1.2095   -0.6847   -2.0668 C   0  0  0  0  0  0  0  0  0  0  0  0
    0.1822   -1.0723   -2.9305 C   0  0  0  0  0  0  0  0  0  0  0  0
   -0.3806   -2.3476   -2.8142 C   0  0  0  0  0  0  0  0  0  0  0  0
   -0.3513   -4.2364   -1.7711 H   0  0  0  0  0  0  0  0  0  0  0  0
    1.4644   -3.5476   -0.2112 H   0  0  0  0  0  0  0  0  0  0  0  0
    2.4954   -1.2953   -0.4327 H   0  0  0  0  0  0  0  0  0  0  0  0
    1.6720    0.2935   -2.1690 H   0  0  0  0  0  0  0  0  0  0  0  0
   -0.1609   -0.3944   -3.7062 H   0  0  0  0  0  0  0  0  0  0  0  0
   -1.1719   -2.6505   -3.4938 H   0  0  0  0  0  0  0  0  0  0  0  0
    0.8566   -2.9740    3.4640 S   0  0  0  0  0  0  0  0  0  0  0  0
    1.7225   -3.4785    2.4206 O   0  0  0  0  0  0  0  0  0  0  0  0
   -0.0236   -1.8129    3.2054 O   0  0  0  0  0  0  0  0  0  0  0  0
   -0.0380   -4.1923    4.0089 O   0  0  0  0  0  0  0  0  0  0  0  0
    1.8701   -2.5460    4.9875 C   0  0  0  0  0  0  0  0  0  0  0  0
    1.0243   -2.3135    5.9850 F   0  0  0  0  0  0  0  0  0  0  0  0
    2.6640   -3.5605    5.2688 F   0  0  0  0  0  0  0  0  0  0  0  0
    2.5702   -1.4578    4.7037 F   0  0  0  0  0  0  0  0  0  0  0  0
    0.4770   -0.8790   -0.0696 H   0  0  0  0  0  0  0  0  0  0  0  0
  1  3  1  0  0  0  0
  2  1  1  0  0  0  0
  3  4  1  0  0  0  0
  6 12  1  0  0  0  0
  6  7  2  0  0  0  0
  7 13  1  0  0  0  0
  8  7  1  0  0  0  0
  8 14  1  0  0  0  0
  9  8  2  0  0  0  0
 10 11  2  0  0  0  0
 10  9  1  0  0  0  0
 11  6  1  0  0  0  0
 15  9  1  0  0  0  0
 16 10  1  0  0  0  0
 17 11  1  0  0  0  0
 18 21  1  0  0  0  0
 18 22  1  0  0  0  0
 19 18  2  0  0  0  0
 20 18  2  0  0  0  0
 21  5  1  0  0  0  0
 22 24  1  0  0  0  0
 22 23  1  0  0  0  0
 25 22  1  0  0  0  0
 26  3  1  0  0  0  0
M  RAD  2   1   2   2   3
M  END
