Coordinates from ORCA-job C6H6+HOTf+NH2N2+-scan
 OpenBabel10221816143D

 26 24  0  0  0  0  0  0  0  0999 V2000
   -2.6394   -2.4288    1.5124 N   0  0  0  0  0  0  0  0  0  0  0  0
   -3.7177   -2.7380    1.4911 N   0  0  0  0  0  0  0  0  0  0  0  0
   -1.4334   -2.0388    1.5503 N   0  0  0  0  0  0  0  0  0  0  0  0
   -0.9461   -1.9739    2.5024 H   0  0  0  0  0  0  0  0  0  0  0  0
    1.5858   -3.0460    5.2909 H   0  0  0  0  0  0  0  0  0  0  0  0
   -0.1682   -1.6363   -2.5000 C   0  0  0  0  0  0  0  0  0  0  0  0
    0.2319   -2.4468   -3.5657 C   0  0  0  0  0  0  0  0  0  0  0  0
    1.3544   -3.2739   -3.4400 C   0  0  0  0  0  0  0  0  0  0  0  0
    2.0593   -3.3093   -2.2313 C   0  0  0  0  0  0  0  0  0  0  0  0
    1.6654   -2.5006   -1.1613 C   0  0  0  0  0  0  0  0  0  0  0  0
    0.5556   -1.6541   -1.2987 C   0  0  0  0  0  0  0  0  0  0  0  0
   -1.0146   -0.9652   -2.6200 H   0  0  0  0  0  0  0  0  0  0  0  0
   -0.3186   -2.4182   -4.5014 H   0  0  0  0  0  0  0  0  0  0  0  0
    1.6737   -3.8895   -4.2755 H   0  0  0  0  0  0  0  0  0  0  0  0
    2.9289   -3.9519   -2.1299 H   0  0  0  0  0  0  0  0  0  0  0  0
    2.2388   -2.4990   -0.2383 H   0  0  0  0  0  0  0  0  0  0  0  0
    0.3351   -0.9204   -0.5205 H   0  0  0  0  0  0  0  0  0  0  0  0
    1.3330   -1.5765    3.7246 S   0  0  0  0  0  0  0  0  0  0  0  0
    1.9320   -1.4609    2.4134 O   0  0  0  0  0  0  0  0  0  0  0  0
   -0.1255   -1.8427    3.8366 O   0  0  0  0  0  0  0  0  0  0  0  0
    2.1245   -2.6959    4.5554 O   0  0  0  0  0  0  0  0  0  0  0  0
    1.6718   -0.0307    4.7443 C   0  0  0  0  0  0  0  0  0  0  0  0
    1.2957   -0.2827    5.9918 F   0  0  0  0  0  0  0  0  0  0  0  0
    2.9598    0.2386    4.6815 F   0  0  0  0  0  0  0  0  0  0  0  0
    0.9507    0.9485    4.2225 F   0  0  0  0  0  0  0  0  0  0  0  0
   -0.9103   -2.0850    0.6555 H   0  0  0  0  0  0  0  0  0  0  0  0
  1  3  1  0  0  0  0
  2  1  1  0  0  0  0
  3  4  1  0  0  0  0
  6 11  2  0  0  0  0
  7  8  2  0  0  0  0
  7  6  1  0  0  0  0
  8  9  1  0  0  0  0
  9 15  1  0  0  0  0
  9 10  2  0  0  0  0
 10 16  1  0  0  0  0
 11 10  1  0  0  0  0
 11 17  1  0  0  0  0
 12  6  1  0  0  0  0
 13  7  1  0  0  0  0
 14  8  1  0  0  0  0
 18 20  2  0  0  0  0
 18 21  1  0  0  0  0
 18 22  1  0  0  0  0
 19 18  2  0  0  0  0
 21  5  1  0  0  0  0
 22 23  1  0  0  0  0
 24 22  1  0  0  0  0
 25 22  1  0  0  0  0
 26  3  1  0  0  0  0
M  RAD  2   1   2   2   3
M  END
