Coordinates from ORCA-job C6H6+HOTf+NH2N2+-scan
 OpenBabel10221816143D

 26 24  0  0  0  0  0  0  0  0999 V2000
   -2.1164   -2.6844    0.7658 N   0  0  0  0  0  0  0  0  0  0  0  0
   -3.1209   -3.1429    0.5580 N   0  0  0  0  0  0  0  0  0  0  0  0
   -0.9967   -2.1349    0.9719 N   0  0  0  0  0  0  0  0  0  0  0  0
   -0.6252   -2.1207    1.9624 H   0  0  0  0  0  0  0  0  0  0  0  0
    1.7481   -3.1517    4.9768 H   0  0  0  0  0  0  0  0  0  0  0  0
   -0.1185   -1.3272   -2.2490 C   0  0  0  0  0  0  0  0  0  0  0  0
   -0.1723   -2.4790   -3.0381 C   0  0  0  0  0  0  0  0  0  0  0  0
    0.7392   -3.5191   -2.8219 C   0  0  0  0  0  0  0  0  0  0  0  0
    1.6932   -3.4208   -1.8037 C   0  0  0  0  0  0  0  0  0  0  0  0
    1.7522   -2.2733   -1.0085 C   0  0  0  0  0  0  0  0  0  0  0  0
    0.8459   -1.2203   -1.2302 C   0  0  0  0  0  0  0  0  0  0  0  0
   -0.7998   -0.5023   -2.4400 H   0  0  0  0  0  0  0  0  0  0  0  0
   -0.9061   -2.5569   -3.8348 H   0  0  0  0  0  0  0  0  0  0  0  0
    0.7057   -4.4056   -3.4482 H   0  0  0  0  0  0  0  0  0  0  0  0
    2.4011   -4.2285   -1.6432 H   0  0  0  0  0  0  0  0  0  0  0  0
    2.5051   -2.1793   -0.2312 H   0  0  0  0  0  0  0  0  0  0  0  0
    0.9464   -0.2934   -0.6689 H   0  0  0  0  0  0  0  0  0  0  0  0
    1.4437   -1.5404    3.5695 S   0  0  0  0  0  0  0  0  0  0  0  0
    2.1769   -1.1572    2.3825 O   0  0  0  0  0  0  0  0  0  0  0  0
    0.0507   -2.0326    3.4475 O   0  0  0  0  0  0  0  0  0  0  0  0
    2.3084   -2.6291    4.3718 O   0  0  0  0  0  0  0  0  0  0  0  0
    1.4025   -0.1149    4.7953 C   0  0  0  0  0  0  0  0  0  0  0  0
    0.9244   -0.5823    5.9424 F   0  0  0  0  0  0  0  0  0  0  0  0
    2.6275    0.3478    4.9466 F   0  0  0  0  0  0  0  0  0  0  0  0
    0.6004    0.8120    4.2945 F   0  0  0  0  0  0  0  0  0  0  0  0
   -0.3927   -1.9408    0.1229 H   0  0  0  0  0  0  0  0  0  0  0  0
  1  3  1  0  0  0  0
  2  1  1  0  0  0  0
  3  4  1  0  0  0  0
  6 11  2  0  0  0  0
  7  8  2  0  0  0  0
  7  6  1  0  0  0  0
  8  9  1  0  0  0  0
  9 15  1  0  0  0  0
  9 10  2  0  0  0  0
 10 16  1  0  0  0  0
 11 10  1  0  0  0  0
 11 17  1  0  0  0  0
 12  6  1  0  0  0  0
 13  7  1  0  0  0  0
 14  8  1  0  0  0  0
 18 21  1  0  0  0  0
 18 22  1  0  0  0  0
 19 18  2  0  0  0  0
 20 18  2  0  0  0  0
 21  5  1  0  0  0  0
 22 24  1  0  0  0  0
 22 23  1  0  0  0  0
 25 22  1  0  0  0  0
 26  3  1  0  0  0  0
M  RAD  2   1   2   2   3
M  END
