Coordinates from ORCA-job C6H6+HOTf+NH2N2+-scan
 OpenBabel10221816143D

 26 24  0  0  0  0  0  0  0  0999 V2000
   -2.5787   -2.4549    1.4211 N   0  0  0  0  0  0  0  0  0  0  0  0
   -3.6502   -2.7856    1.3795 N   0  0  0  0  0  0  0  0  0  0  0  0
   -1.3815   -2.0415    1.4752 N   0  0  0  0  0  0  0  0  0  0  0  0
   -0.9063   -1.9847    2.4313 H   0  0  0  0  0  0  0  0  0  0  0  0
    1.6036   -3.0621    5.2493 H   0  0  0  0  0  0  0  0  0  0  0  0
   -0.1770   -1.6089   -2.4643 C   0  0  0  0  0  0  0  0  0  0  0  0
    0.1900   -2.4552   -3.5136 C   0  0  0  0  0  0  0  0  0  0  0  0
    1.2963   -3.3032   -3.3816 C   0  0  0  0  0  0  0  0  0  0  0  0
    2.0166   -3.3249   -2.1815 C   0  0  0  0  0  0  0  0  0  0  0  0
    1.6561   -2.4803   -1.1276 C   0  0  0  0  0  0  0  0  0  0  0  0
    0.5634   -1.6117   -1.2720 C   0  0  0  0  0  0  0  0  0  0  0  0
   -1.0084   -0.9204   -2.5909 H   0  0  0  0  0  0  0  0  0  0  0  0
   -0.3721   -2.4379   -4.4427 H   0  0  0  0  0  0  0  0  0  0  0  0
    1.5910   -3.9459   -4.2056 H   0  0  0  0  0  0  0  0  0  0  0  0
    2.8732   -3.9840   -2.0756 H   0  0  0  0  0  0  0  0  0  0  0  0
    2.2430   -2.4667   -0.2134 H   0  0  0  0  0  0  0  0  0  0  0  0
    0.3762   -0.8475   -0.5151 H   0  0  0  0  0  0  0  0  0  0  0  0
    1.3530   -1.5698    3.7048 S   0  0  0  0  0  0  0  0  0  0  0  0
    1.9737   -1.4212    2.4069 O   0  0  0  0  0  0  0  0  0  0  0  0
   -0.1019   -1.8617    3.7871 O   0  0  0  0  0  0  0  0  0  0  0  0
    2.1496   -2.6899    4.5303 O   0  0  0  0  0  0  0  0  0  0  0  0
    1.6493   -0.0367    4.7558 C   0  0  0  0  0  0  0  0  0  0  0  0
    1.2560   -0.3155    5.9924 F   0  0  0  0  0  0  0  0  0  0  0  0
    2.9337    0.2544    4.7203 F   0  0  0  0  0  0  0  0  0  0  0  0
    0.9216    0.9400    4.2383 F   0  0  0  0  0  0  0  0  0  0  0  0
   -0.8477   -2.0623    0.5818 H   0  0  0  0  0  0  0  0  0  0  0  0
  1  3  1  0  0  0  0
  2  1  1  0  0  0  0
  3  4  1  0  0  0  0
  6 11  2  0  0  0  0
  7  8  2  0  0  0  0
  7  6  1  0  0  0  0
  8  9  1  0  0  0  0
  9 15  1  0  0  0  0
  9 10  2  0  0  0  0
 10 16  1  0  0  0  0
 11 10  1  0  0  0  0
 11 17  1  0  0  0  0
 12  6  1  0  0  0  0
 13  7  1  0  0  0  0
 14  8  1  0  0  0  0
 18 20  2  0  0  0  0
 18 21  1  0  0  0  0
 18 22  1  0  0  0  0
 19 18  2  0  0  0  0
 21  5  1  0  0  0  0
 22 23  1  0  0  0  0
 24 22  1  0  0  0  0
 25 22  1  0  0  0  0
 26  3  1  0  0  0  0
M  RAD  2   1   2   2   3
M  END
