Coordinates from ORCA-job C6H6+HOTf+NH2N2+-scan
 OpenBabel10221816143D

 26 24  0  0  0  0  0  0  0  0999 V2000
   -2.3152   -2.6256    1.0507 N   0  0  0  0  0  0  0  0  0  0  0  0
   -3.3424   -3.0544    0.9019 N   0  0  0  0  0  0  0  0  0  0  0  0
   -1.1705   -2.1044    1.1948 N   0  0  0  0  0  0  0  0  0  0  0  0
   -0.7625   -2.0647    2.1731 H   0  0  0  0  0  0  0  0  0  0  0  0
    1.6936   -3.0736    5.1127 H   0  0  0  0  0  0  0  0  0  0  0  0
   -0.1358   -1.4362   -2.2875 C   0  0  0  0  0  0  0  0  0  0  0  0
    0.0050   -2.4191   -3.2698 C   0  0  0  0  0  0  0  0  0  0  0  0
    0.9918   -3.4042   -3.1413 C   0  0  0  0  0  0  0  0  0  0  0  0
    1.8175   -3.4271   -2.0114 C   0  0  0  0  0  0  0  0  0  0  0  0
    1.6831   -2.4475   -1.0244 C   0  0  0  0  0  0  0  0  0  0  0  0
    0.7098   -1.4420   -1.1636 C   0  0  0  0  0  0  0  0  0  0  0  0
   -0.8688   -0.6436   -2.4135 H   0  0  0  0  0  0  0  0  0  0  0  0
   -0.6349   -2.4035   -4.1469 H   0  0  0  0  0  0  0  0  0  0  0  0
    1.1128   -4.1544   -3.9171 H   0  0  0  0  0  0  0  0  0  0  0  0
    2.5807   -4.1933   -1.9131 H   0  0  0  0  0  0  0  0  0  0  0  0
    2.3503   -2.4361   -0.1671 H   0  0  0  0  0  0  0  0  0  0  0  0
    0.7043   -0.5980   -0.4737 H   0  0  0  0  0  0  0  0  0  0  0  0
    1.3988   -1.5303    3.6287 S   0  0  0  0  0  0  0  0  0  0  0  0
    2.0787   -1.2632    2.3795 O   0  0  0  0  0  0  0  0  0  0  0  0
   -0.0253   -1.9449    3.6127 O   0  0  0  0  0  0  0  0  0  0  0  0
    2.2457   -2.6199    4.4473 O   0  0  0  0  0  0  0  0  0  0  0  0
    1.5097   -0.0341    4.7636 C   0  0  0  0  0  0  0  0  0  0  0  0
    1.0741   -0.4040    5.9618 F   0  0  0  0  0  0  0  0  0  0  0  0
    2.7657    0.3618    4.8174 F   0  0  0  0  0  0  0  0  0  0  0  0
    0.7331    0.9071    4.2501 F   0  0  0  0  0  0  0  0  0  0  0  0
   -0.5768   -2.0227    0.3252 H   0  0  0  0  0  0  0  0  0  0  0  0
  1  3  1  0  0  0  0
  2  1  1  0  0  0  0
  3  4  1  0  0  0  0
  6 11  2  0  0  0  0
  7  8  2  0  0  0  0
  7  6  1  0  0  0  0
  8  9  1  0  0  0  0
  9 15  1  0  0  0  0
  9 10  2  0  0  0  0
 10 16  1  0  0  0  0
 11 10  1  0  0  0  0
 11 17  1  0  0  0  0
 12  6  1  0  0  0  0
 13  7  1  0  0  0  0
 14  8  1  0  0  0  0
 18 21  1  0  0  0  0
 18 22  1  0  0  0  0
 19 18  2  0  0  0  0
 20 18  2  0  0  0  0
 21  5  1  0  0  0  0
 22 24  1  0  0  0  0
 22 23  1  0  0  0  0
 25 22  1  0  0  0  0
 26  3  1  0  0  0  0
M  RAD  2   1   2   2   3
M  END
