Coordinates from ORCA-job C6H6+HOTf+NH2N2+-scan
 OpenBabel10221816143D

 26 24  0  0  0  0  0  0  0  0999 V2000
   -2.0512   -2.6211    0.6323 N   0  0  0  0  0  0  0  0  0  0  0  0
   -3.0582   -3.0689    0.4133 N   0  0  0  0  0  0  0  0  0  0  0  0
   -0.9269   -2.0917    0.8596 N   0  0  0  0  0  0  0  0  0  0  0  0
   -0.5631   -2.0998    1.8533 H   0  0  0  0  0  0  0  0  0  0  0  0
    1.7056   -3.2619    4.8946 H   0  0  0  0  0  0  0  0  0  0  0  0
   -0.1636   -1.3333   -2.3003 C   0  0  0  0  0  0  0  0  0  0  0  0
   -0.2557   -2.5938   -2.8981 C   0  0  0  0  0  0  0  0  0  0  0  0
    0.6731   -3.5901   -2.5757 C   0  0  0  0  0  0  0  0  0  0  0  0
    1.6875   -3.3364   -1.6471 C   0  0  0  0  0  0  0  0  0  0  0  0
    1.7837   -2.0799   -1.0420 C   0  0  0  0  0  0  0  0  0  0  0  0
    0.8557   -1.0742   -1.3664 C   0  0  0  0  0  0  0  0  0  0  0  0
   -0.8626   -0.5467   -2.5716 H   0  0  0  0  0  0  0  0  0  0  0  0
   -1.0334   -2.7924   -3.6296 H   0  0  0  0  0  0  0  0  0  0  0  0
    0.6083   -4.5633   -3.0535 H   0  0  0  0  0  0  0  0  0  0  0  0
    2.4101   -4.1106   -1.4071 H   0  0  0  0  0  0  0  0  0  0  0  0
    2.5748   -1.8722   -0.3275 H   0  0  0  0  0  0  0  0  0  0  0  0
    0.9635   -0.0797   -0.9396 H   0  0  0  0  0  0  0  0  0  0  0  0
    1.4717   -1.5916    3.5435 S   0  0  0  0  0  0  0  0  0  0  0  0
    2.2533   -1.1674    2.4030 O   0  0  0  0  0  0  0  0  0  0  0  0
    0.0783   -2.0605    3.3514 O   0  0  0  0  0  0  0  0  0  0  0  0
    2.2934   -2.7245    4.3301 O   0  0  0  0  0  0  0  0  0  0  0  0
    1.3989   -0.2202    4.8278 C   0  0  0  0  0  0  0  0  0  0  0  0
    0.8755   -0.7316    5.9359 F   0  0  0  0  0  0  0  0  0  0  0  0
    2.6217    0.2227    5.0431 F   0  0  0  0  0  0  0  0  0  0  0  0
    0.6238    0.7362    4.3400 F   0  0  0  0  0  0  0  0  0  0  0  0
   -0.3414   -1.8247    0.0206 H   0  0  0  0  0  0  0  0  0  0  0  0
  1  3  1  0  0  0  0
  2  1  1  0  0  0  0
  3  4  1  0  0  0  0
  6 11  2  0  0  0  0
  7  8  2  0  0  0  0
  7  6  1  0  0  0  0
  8  9  1  0  0  0  0
  9 15  1  0  0  0  0
  9 10  2  0  0  0  0
 10 16  1  0  0  0  0
 11 10  1  0  0  0  0
 11 17  1  0  0  0  0
 12  6  1  0  0  0  0
 13  7  1  0  0  0  0
 14  8  1  0  0  0  0
 18 21  1  0  0  0  0
 18 22  1  0  0  0  0
 19 18  2  0  0  0  0
 20 18  2  0  0  0  0
 21  5  1  0  0  0  0
 22 24  1  0  0  0  0
 22 23  1  0  0  0  0
 25 22  1  0  0  0  0
 26  3  1  0  0  0  0
M  RAD  2   1   2   2   3
M  END
