Coordinates from ORCA-job C6H6+HOTf+NH2N2+-scan
 OpenBabel10221816143D

 26 24  0  0  0  0  0  0  0  0999 V2000
   -2.4899   -2.5115    1.2922 N   0  0  0  0  0  0  0  0  0  0  0  0
   -3.5475   -2.8799    1.2178 N   0  0  0  0  0  0  0  0  0  0  0  0
   -1.3097   -2.0569    1.3719 N   0  0  0  0  0  0  0  0  0  0  0  0
   -0.8544   -2.0063    2.3344 H   0  0  0  0  0  0  0  0  0  0  0  0
    1.6261   -3.0698    5.2029 H   0  0  0  0  0  0  0  0  0  0  0  0
   -0.1742   -1.5547   -2.4025 C   0  0  0  0  0  0  0  0  0  0  0  0
    0.1279   -2.4482   -3.4329 C   0  0  0  0  0  0  0  0  0  0  0  0
    1.2008   -3.3385   -3.3013 C   0  0  0  0  0  0  0  0  0  0  0  0
    1.9505   -3.3569   -2.1193 C   0  0  0  0  0  0  0  0  0  0  0  0
    1.6550   -2.4656   -1.0842 C   0  0  0  0  0  0  0  0  0  0  0  0
    0.5968   -1.5533   -1.2283 C   0  0  0  0  0  0  0  0  0  0  0  0
   -0.9762   -0.8324   -2.5305 H   0  0  0  0  0  0  0  0  0  0  0  0
   -0.4562   -2.4345   -4.3482 H   0  0  0  0  0  0  0  0  0  0  0  0
    1.4466   -4.0173   -4.1123 H   0  0  0  0  0  0  0  0  0  0  0  0
    2.7805   -4.0494   -2.0148 H   0  0  0  0  0  0  0  0  0  0  0  0
    2.2663   -2.4482   -0.1861 H   0  0  0  0  0  0  0  0  0  0  0  0
    0.4690   -0.7541   -0.4963 H   0  0  0  0  0  0  0  0  0  0  0  0
    1.3747   -1.5584    3.6778 S   0  0  0  0  0  0  0  0  0  0  0  0
    2.0238   -1.3724    2.3985 O   0  0  0  0  0  0  0  0  0  0  0  0
   -0.0730   -1.8868    3.7209 O   0  0  0  0  0  0  0  0  0  0  0  0
    2.1803   -2.6720    4.5043 O   0  0  0  0  0  0  0  0  0  0  0  0
    1.6096   -0.0367    4.7597 C   0  0  0  0  0  0  0  0  0  0  0  0
    1.1935   -0.3443    5.9821 F   0  0  0  0  0  0  0  0  0  0  0  0
    2.8873    0.2852    4.7604 F   0  0  0  0  0  0  0  0  0  0  0  0
    0.8719    0.9317    4.2404 F   0  0  0  0  0  0  0  0  0  0  0  0
   -0.7568   -2.0467    0.4836 H   0  0  0  0  0  0  0  0  0  0  0  0
  1  3  1  0  0  0  0
  2  1  1  0  0  0  0
  3  4  1  0  0  0  0
  6 11  2  0  0  0  0
  7  8  2  0  0  0  0
  7  6  1  0  0  0  0
  8  9  1  0  0  0  0
  9 15  1  0  0  0  0
  9 10  2  0  0  0  0
 10 16  1  0  0  0  0
 11 10  1  0  0  0  0
 11 17  1  0  0  0  0
 12  6  1  0  0  0  0
 13  7  1  0  0  0  0
 14  8  1  0  0  0  0
 18 20  2  0  0  0  0
 18 21  1  0  0  0  0
 18 22  1  0  0  0  0
 19 18  2  0  0  0  0
 21  5  1  0  0  0  0
 22 24  1  0  0  0  0
 22 23  1  0  0  0  0
 25 22  1  0  0  0  0
 26  3  1  0  0  0  0
M  RAD  2   1   2   2   3
M  END
