Coordinates from ORCA-job C6H6+HOTf+NH2N2+-scan
 OpenBabel10221816143D

 26 24  0  0  0  0  0  0  0  0999 V2000
   -2.8524   -2.3061    1.8391 N   0  0  0  0  0  0  0  0  0  0  0  0
   -3.9648   -2.4428    1.8893 N   0  0  0  0  0  0  0  0  0  0  0  0
   -1.5973   -2.1361    1.8183 N   0  0  0  0  0  0  0  0  0  0  0  0
   -1.0645   -1.9922    2.7448 H   0  0  0  0  0  0  0  0  0  0  0  0
    1.4590   -2.9679    5.5229 H   0  0  0  0  0  0  0  0  0  0  0  0
   -0.1740   -1.7480   -2.6624 C   0  0  0  0  0  0  0  0  0  0  0  0
    0.3816   -2.4422   -3.7406 C   0  0  0  0  0  0  0  0  0  0  0  0
    1.5832   -3.1414   -3.5838 C   0  0  0  0  0  0  0  0  0  0  0  0
    2.2192   -3.1591   -2.3380 C   0  0  0  0  0  0  0  0  0  0  0  0
    1.6689   -2.4654   -1.2558 C   0  0  0  0  0  0  0  0  0  0  0  0
    0.4749   -1.7539   -1.4220 C   0  0  0  0  0  0  0  0  0  0  0  0
   -1.0928   -1.1837   -2.7988 H   0  0  0  0  0  0  0  0  0  0  0  0
   -0.1149   -2.4263   -4.7065 H   0  0  0  0  0  0  0  0  0  0  0  0
    2.0190   -3.6710   -4.4256 H   0  0  0  0  0  0  0  0  0  0  0  0
    3.1517   -3.7019   -2.2131 H   0  0  0  0  0  0  0  0  0  0  0  0
    2.1801   -2.4578   -0.2969 H   0  0  0  0  0  0  0  0  0  0  0  0
    0.0941   -1.1328   -0.6077 H   0  0  0  0  0  0  0  0  0  0  0  0
    1.2721   -1.6660    3.8056 S   0  0  0  0  0  0  0  0  0  0  0  0
    1.8094   -1.7621    2.4669 O   0  0  0  0  0  0  0  0  0  0  0  0
   -0.2001   -1.7720    4.0029 O   0  0  0  0  0  0  0  0  0  0  0  0
    1.9927   -2.7554    4.7330 O   0  0  0  0  0  0  0  0  0  0  0  0
    1.8006   -0.0529    4.6216 C   0  0  0  0  0  0  0  0  0  0  0  0
    1.4629   -0.1228    5.9028 F   0  0  0  0  0  0  0  0  0  0  0  0
    3.1031    0.0796    4.4789 F   0  0  0  0  0  0  0  0  0  0  0  0
    1.1484    0.9244    4.0134 F   0  0  0  0  0  0  0  0  0  0  0  0
   -1.1375   -2.2224    0.9022 H   0  0  0  0  0  0  0  0  0  0  0  0
  1  2  1  0  0  0  0
  3  1  1  0  0  0  0
  3  4  1  0  0  0  0
  6 11  2  0  0  0  0
  7  8  2  0  0  0  0
  7  6  1  0  0  0  0
  8  9  1  0  0  0  0
  9 15  1  0  0  0  0
  9 10  2  0  0  0  0
 10 16  1  0  0  0  0
 11 10  1  0  0  0  0
 11 17  1  0  0  0  0
 12  6  1  0  0  0  0
 13  7  1  0  0  0  0
 14  8  1  0  0  0  0
 18 20  2  0  0  0  0
 18 22  1  0  0  0  0
 18 21  1  0  0  0  0
 19 18  2  0  0  0  0
 21  5  1  0  0  0  0
 22 23  1  0  0  0  0
 24 22  1  0  0  0  0
 25 22  1  0  0  0  0
 26  3  1  0  0  0  0
M  RAD  2   1   2   2   3
M  END
