Coordinates from ORCA-job C6H6+HOTf+NH2N2+-scan
 OpenBabel10221816143D

 26 24  0  0  0  0  0  0  0  0999 V2000
   -1.1081    0.3329    0.7156 N   0  0  0  0  0  0  0  0  0  0  0  0
   -1.8239    1.1859    0.5501 N   0  0  0  0  0  0  0  0  0  0  0  0
   -0.2743   -0.6107    0.8088 N   0  0  0  0  0  0  0  0  0  0  0  0
   -0.1749   -1.0570    1.7517 H   0  0  0  0  0  0  0  0  0  0  0  0
   -0.6354   -3.8038    4.6611 H   0  0  0  0  0  0  0  0  0  0  0  0
   -0.0801   -3.2057   -2.0698 C   0  0  0  0  0  0  0  0  0  0  0  0
    0.7107   -2.9752   -0.9458 C   0  0  0  0  0  0  0  0  0  0  0  0
    1.3830   -1.7435   -0.8001 C   0  0  0  0  0  0  0  0  0  0  0  0
    1.3276   -0.7897   -1.8388 C   0  0  0  0  0  0  0  0  0  0  0  0
    0.5281   -1.0259   -2.9585 C   0  0  0  0  0  0  0  0  0  0  0  0
   -0.1737   -2.2309   -3.0707 C   0  0  0  0  0  0  0  0  0  0  0  0
   -0.6090   -4.1475   -2.1787 H   0  0  0  0  0  0  0  0  0  0  0  0
    0.8067   -3.7293   -0.1705 H   0  0  0  0  0  0  0  0  0  0  0  0
    2.0852   -1.6127    0.0207 H   0  0  0  0  0  0  0  0  0  0  0  0
    1.8936    0.1343   -1.7544 H   0  0  0  0  0  0  0  0  0  0  0  0
    0.4719   -0.2868   -3.7517 H   0  0  0  0  0  0  0  0  0  0  0  0
   -0.7869   -2.4164   -3.9477 H   0  0  0  0  0  0  0  0  0  0  0  0
    0.9327   -2.8984    3.4832 S   0  0  0  0  0  0  0  0  0  0  0  0
    1.7013   -3.4092    2.3674 O   0  0  0  0  0  0  0  0  0  0  0  0
    0.0078   -1.7617    3.2860 O   0  0  0  0  0  0  0  0  0  0  0  0
    0.1246   -4.1229    4.1381 O   0  0  0  0  0  0  0  0  0  0  0  0
    2.0859   -2.4202    4.8878 C   0  0  0  0  0  0  0  0  0  0  0  0
    1.3404   -2.1787    5.9601 F   0  0  0  0  0  0  0  0  0  0  0  0
    2.9225   -3.4152    5.1088 F   0  0  0  0  0  0  0  0  0  0  0  0
    2.7341   -1.3276    4.5119 F   0  0  0  0  0  0  0  0  0  0  0  0
    0.2329   -0.9620   -0.0743 H   0  0  0  0  0  0  0  0  0  0  0  0
  1  3  1  0  0  0  0
  2  1  1  0  0  0  0
  3  4  1  0  0  0  0
  6  7  2  0  0  0  0
  7  8  1  0  0  0  0
  7 13  1  0  0  0  0
  8 14  1  0  0  0  0
  9 15  1  0  0  0  0
  9  8  2  0  0  0  0
 10  9  1  0  0  0  0
 11 10  2  0  0  0  0
 11  6  1  0  0  0  0
 12  6  1  0  0  0  0
 16 10  1  0  0  0  0
 17 11  1  0  0  0  0
 18 21  1  0  0  0  0
 18 22  1  0  0  0  0
 19 18  2  0  0  0  0
 20 18  2  0  0  0  0
 21  5  1  0  0  0  0
 22 24  1  0  0  0  0
 22 23  1  0  0  0  0
 25 22  1  0  0  0  0
 26  3  1  0  0  0  0
M  RAD  2   1   2   2   3
M  END
