Coordinates from ORCA-job C6H6+HOTf+NH2N2+-scan
 OpenBabel10221816143D

 26 24  0  0  0  0  0  0  0  0999 V2000
   -2.0346   -2.4473    0.4561 N   0  0  0  0  0  0  0  0  0  0  0  0
   -3.0663   -2.8463    0.2600 N   0  0  0  0  0  0  0  0  0  0  0  0
   -0.8784   -1.9887    0.6724 N   0  0  0  0  0  0  0  0  0  0  0  0
   -0.4938   -2.0488    1.6567 H   0  0  0  0  0  0  0  0  0  0  0  0
    1.6134   -3.4991    4.6854 H   0  0  0  0  0  0  0  0  0  0  0  0
   -0.2343   -1.4103   -2.4264 C   0  0  0  0  0  0  0  0  0  0  0  0
   -0.3105   -2.7962   -2.6073 C   0  0  0  0  0  0  0  0  0  0  0  0
    0.6545   -3.6300   -2.0305 C   0  0  0  0  0  0  0  0  0  0  0  0
    1.6995   -3.0851   -1.2777 C   0  0  0  0  0  0  0  0  0  0  0  0
    1.7795   -1.7012   -1.0900 C   0  0  0  0  0  0  0  0  0  0  0  0
    0.8073   -0.8611   -1.6588 C   0  0  0  0  0  0  0  0  0  0  0  0
   -0.9677   -0.7563   -2.8901 H   0  0  0  0  0  0  0  0  0  0  0  0
   -1.1057   -3.2221   -3.2126 H   0  0  0  0  0  0  0  0  0  0  0  0
    0.6004   -4.7041   -2.1831 H   0  0  0  0  0  0  0  0  0  0  0  0
    2.4551   -3.7346   -0.8461 H   0  0  0  0  0  0  0  0  0  0  0  0
    2.5885   -1.2751   -0.5047 H   0  0  0  0  0  0  0  0  0  0  0  0
    0.8804    0.2160   -1.5352 H   0  0  0  0  0  0  0  0  0  0  0  0
    1.5232   -1.7306    3.4459 S   0  0  0  0  0  0  0  0  0  0  0  0
    2.3810   -1.2627    2.3807 O   0  0  0  0  0  0  0  0  0  0  0  0
    0.1200   -2.1142    3.1583 O   0  0  0  0  0  0  0  0  0  0  0  0
    2.2510   -2.9589    4.1810 O   0  0  0  0  0  0  0  0  0  0  0  0
    1.4474   -0.4583    4.8277 C   0  0  0  0  0  0  0  0  0  0  0  0
    0.8504   -1.0274    5.8690 F   0  0  0  0  0  0  0  0  0  0  0  0
    2.6760   -0.0892    5.1313 F   0  0  0  0  0  0  0  0  0  0  0  0
    0.7373    0.5670    4.3825 F   0  0  0  0  0  0  0  0  0  0  0  0
   -0.3508   -1.6133   -0.1543 H   0  0  0  0  0  0  0  0  0  0  0  0
  1  3  1  0  0  0  0
  2  1  1  0  0  0  0
  3  4  1  0  0  0  0
  6 11  1  0  0  0  0
  7  6  2  0  0  0  0
  7  8  1  0  0  0  0
  8  9  2  0  0  0  0
  9 10  1  0  0  0  0
  9 15  1  0  0  0  0
 10 16  1  0  0  0  0
 11 17  1  0  0  0  0
 11 10  2  0  0  0  0
 12  6  1  0  0  0  0
 13  7  1  0  0  0  0
 14  8  1  0  0  0  0
 18 21  1  0  0  0  0
 18 22  1  0  0  0  0
 19 18  2  0  0  0  0
 20 18  2  0  0  0  0
 21  5  1  0  0  0  0
 22 24  1  0  0  0  0
 22 23  1  0  0  0  0
 25 22  1  0  0  0  0
 26  3  1  0  0  0  0
M  RAD  2   1   2   2   3
M  END
