Coordinates from ORCA-job C6H6+HOTf+NH2N2+-scan
 OpenBabel10221816143D

 26 24  0  0  1  0  0  0  0  0999 V2000
   -2.0230    0.6662    2.2291 N   0  0  0  0  0  0  0  0  0  0  0  0
   -2.7100    1.0217    3.0182 N   0  0  0  0  0  0  0  0  0  0  0  0
    0.7371   -0.2788    0.3731 N   0  0  0  0  0  0  0  0  0  0  0  0
    0.1005   -0.2761    1.1676 H   0  0  0  0  0  0  0  0  0  0  0  0
   -0.7055   -4.0168    4.3923 H   0  0  0  0  0  0  0  0  0  0  0  0
   -0.5971   -1.8434   -1.1726 C   0  0  0  0  0  0  0  0  0  0  0  0
    0.6226   -1.4231   -0.4516 C   0  0  1  0  0  0  0  0  0  0  0  0
    1.8610   -1.4361   -1.1695 C   0  0  0  0  0  0  0  0  0  0  0  0
    1.9526   -1.9725   -2.4401 C   0  0  0  0  0  0  0  0  0  0  0  0
    0.7809   -2.4613   -3.0463 C   0  0  0  0  0  0  0  0  0  0  0  0
   -0.4875   -2.4135   -2.4164 C   0  0  0  0  0  0  0  0  0  0  0  0
   -1.5533   -1.7575   -0.6629 H   0  0  0  0  0  0  0  0  0  0  0  0
    0.7757   -2.3390    0.2175 H   0  0  0  0  0  0  0  0  0  0  0  0
    2.7250   -1.0382   -0.6487 H   0  0  0  0  0  0  0  0  0  0  0  0
    2.8948   -2.0019   -2.9771 H   0  0  0  0  0  0  0  0  0  0  0  0
    0.8453   -2.8854   -4.0459 H   0  0  0  0  0  0  0  0  0  0  0  0
   -1.3611   -2.7851   -2.9422 H   0  0  0  0  0  0  0  0  0  0  0  0
    0.6692   -3.0083    3.0787 S   0  0  0  0  0  0  0  0  0  0  0  0
    1.1626   -3.4225    1.7659 O   0  0  0  0  0  0  0  0  0  0  0  0
   -0.1665   -1.8230    3.2248 O   0  0  0  0  0  0  0  0  0  0  0  0
   -0.0620   -4.2974    3.7146 O   0  0  0  0  0  0  0  0  0  0  0  0
    2.1504   -2.8489    4.2174 C   0  0  0  0  0  0  0  0  0  0  0  0
    1.6992   -2.6960    5.4574 F   0  0  0  0  0  0  0  0  0  0  0  0
    2.8921   -3.9392    4.1212 F   0  0  0  0  0  0  0  0  0  0  0  0
    2.8362   -1.7798    3.8358 F   0  0  0  0  0  0  0  0  0  0  0  0
    0.5833    0.5780   -0.1501 H   0  0  0  0  0  0  0  0  0  0  0  0
  1  2  3  0  0  0  0
  3  4  1  0  0  0  0
  6 12  1  0  0  0  0
  6  7  1  0  0  0  0
  7 13  1  1  0  0  0
  7  3  1  0  0  0  0
  8 14  1  0  0  0  0
  8  7  1  0  0  0  0
  9  8  2  0  0  0  0
 10  9  1  0  0  0  0
 10 11  1  0  0  0  0
 11  6  2  0  0  0  0
 15  9  1  0  0  0  0
 16 10  1  0  0  0  0
 17 11  1  0  0  0  0
 18 20  2  0  0  0  0
 18 21  1  0  0  0  0
 18 22  1  0  0  0  0
 19 18  2  0  0  0  0
 21  5  1  0  0  0  0
 22 23  1  0  0  0  0
 24 22  1  0  0  0  0
 25 22  1  0  0  0  0
 26  3  1  0  0  0  0
M  RAD  1  10   2
M  END
