Coordinates from ORCA-job C6H6+HOTf+NH2N2+-scan
 OpenBabel10221816143D

 26 24  0  0  0  0  0  0  0  0999 V2000
   -2.5564   -2.4687    1.3879 N   0  0  0  0  0  0  0  0  0  0  0  0
   -3.6243   -2.8097    1.3388 N   0  0  0  0  0  0  0  0  0  0  0  0
   -1.3635   -2.0440    1.4478 N   0  0  0  0  0  0  0  0  0  0  0  0
   -0.8929   -1.9886    2.4053 H   0  0  0  0  0  0  0  0  0  0  0  0
    1.6049   -3.0655    5.2390 H   0  0  0  0  0  0  0  0  0  0  0  0
   -0.1793   -1.5968   -2.4499 C   0  0  0  0  0  0  0  0  0  0  0  0
    0.1740   -2.4562   -3.4931 C   0  0  0  0  0  0  0  0  0  0  0  0
    1.2740   -3.3122   -3.3592 C   0  0  0  0  0  0  0  0  0  0  0  0
    2.0013   -3.3293   -2.1633 C   0  0  0  0  0  0  0  0  0  0  0  0
    1.6545   -2.4718   -1.1154 C   0  0  0  0  0  0  0  0  0  0  0  0
    0.5683   -1.5949   -1.2618 C   0  0  0  0  0  0  0  0  0  0  0  0
   -1.0050   -0.9018   -2.5780 H   0  0  0  0  0  0  0  0  0  0  0  0
   -0.3931   -2.4429   -4.4191 H   0  0  0  0  0  0  0  0  0  0  0  0
    1.5584   -3.9649   -4.1789 H   0  0  0  0  0  0  0  0  0  0  0  0
    2.8528   -3.9949   -2.0565 H   0  0  0  0  0  0  0  0  0  0  0  0
    2.2469   -2.4541   -0.2048 H   0  0  0  0  0  0  0  0  0  0  0  0
    0.3938   -0.8207   -0.5122 H   0  0  0  0  0  0  0  0  0  0  0  0
    1.3594   -1.5691    3.6978 S   0  0  0  0  0  0  0  0  0  0  0  0
    1.9892   -1.4136    2.4050 O   0  0  0  0  0  0  0  0  0  0  0  0
   -0.0946   -1.8670    3.7689 O   0  0  0  0  0  0  0  0  0  0  0  0
    2.1548   -2.6887    4.5254 O   0  0  0  0  0  0  0  0  0  0  0  0
    1.6424   -0.0385    4.7558 C   0  0  0  0  0  0  0  0  0  0  0  0
    1.2412   -0.3226    5.9887 F   0  0  0  0  0  0  0  0  0  0  0  0
    2.9260    0.2575    4.7307 F   0  0  0  0  0  0  0  0  0  0  0  0
    0.9151    0.9374    4.2362 F   0  0  0  0  0  0  0  0  0  0  0  0
   -0.8255   -2.0565    0.5553 H   0  0  0  0  0  0  0  0  0  0  0  0
  1  3  1  0  0  0  0
  2  1  1  0  0  0  0
  3  4  1  0  0  0  0
  6 11  2  0  0  0  0
  7  8  2  0  0  0  0
  7  6  1  0  0  0  0
  8  9  1  0  0  0  0
  9 15  1  0  0  0  0
  9 10  2  0  0  0  0
 10 16  1  0  0  0  0
 11 10  1  0  0  0  0
 11 17  1  0  0  0  0
 12  6  1  0  0  0  0
 13  7  1  0  0  0  0
 14  8  1  0  0  0  0
 18 20  2  0  0  0  0
 18 21  1  0  0  0  0
 18 22  1  0  0  0  0
 19 18  2  0  0  0  0
 21  5  1  0  0  0  0
 22 23  1  0  0  0  0
 24 22  1  0  0  0  0
 25 22  1  0  0  0  0
 26  3  1  0  0  0  0
M  RAD  2   1   2   2   3
M  END
