Coordinates from ORCA-job C6H6+HOTf+NH2N2+-scan
 OpenBabel10221816143D

 26 24  0  0  0  0  0  0  0  0999 V2000
   -2.2122   -2.6539    0.8948 N   0  0  0  0  0  0  0  0  0  0  0  0
   -3.2282   -3.0970    0.7124 N   0  0  0  0  0  0  0  0  0  0  0  0
   -1.0795   -2.1186    1.0701 N   0  0  0  0  0  0  0  0  0  0  0  0
   -0.6895   -2.0957    2.0541 H   0  0  0  0  0  0  0  0  0  0  0  0
    1.7319   -3.1150    5.0317 H   0  0  0  0  0  0  0  0  0  0  0  0
   -0.1267   -1.3769   -2.2555 C   0  0  0  0  0  0  0  0  0  0  0  0
   -0.0886   -2.4515   -3.1470 C   0  0  0  0  0  0  0  0  0  0  0  0
    0.8576   -3.4693   -2.9775 C   0  0  0  0  0  0  0  0  0  0  0  0
    1.7501   -3.4296   -1.9008 C   0  0  0  0  0  0  0  0  0  0  0  0
    1.7178   -2.3588   -1.0039 C   0  0  0  0  0  0  0  0  0  0  0  0
    0.7805   -1.3248   -1.1813 C   0  0  0  0  0  0  0  0  0  0  0  0
   -0.8312   -0.5641   -2.4114 H   0  0  0  0  0  0  0  0  0  0  0  0
   -0.7770   -2.4846   -3.9861 H   0  0  0  0  0  0  0  0  0  0  0  0
    0.8969   -4.2937   -3.6833 H   0  0  0  0  0  0  0  0  0  0  0  0
    2.4832   -4.2206   -1.7742 H   0  0  0  0  0  0  0  0  0  0  0  0
    2.4294   -2.3044   -0.1849 H   0  0  0  0  0  0  0  0  0  0  0  0
    0.8318   -0.4364   -0.5532 H   0  0  0  0  0  0  0  0  0  0  0  0
    1.4252   -1.5327    3.5921 S   0  0  0  0  0  0  0  0  0  0  0  0
    2.1326   -1.1983    2.3749 O   0  0  0  0  0  0  0  0  0  0  0  0
    0.0184   -1.9954    3.5203 O   0  0  0  0  0  0  0  0  0  0  0  0
    2.2869   -2.6201    4.3991 O   0  0  0  0  0  0  0  0  0  0  0  0
    1.4507   -0.0745    4.7796 C   0  0  0  0  0  0  0  0  0  0  0  0
    0.9940   -0.5001    5.9513 F   0  0  0  0  0  0  0  0  0  0  0  0
    2.6898    0.3625    4.8849 F   0  0  0  0  0  0  0  0  0  0  0  0
    0.6566    0.8574    4.2755 F   0  0  0  0  0  0  0  0  0  0  0  0
   -0.4775   -1.9820    0.2086 H   0  0  0  0  0  0  0  0  0  0  0  0
  1  3  1  0  0  0  0
  2  1  1  0  0  0  0
  3  4  1  0  0  0  0
  6 11  2  0  0  0  0
  7  8  2  0  0  0  0
  7  6  1  0  0  0  0
  8  9  1  0  0  0  0
  9 15  1  0  0  0  0
  9 10  2  0  0  0  0
 10 16  1  0  0  0  0
 11 10  1  0  0  0  0
 11 17  1  0  0  0  0
 12  6  1  0  0  0  0
 13  7  1  0  0  0  0
 14  8  1  0  0  0  0
 18 21  1  0  0  0  0
 18 22  1  0  0  0  0
 19 18  2  0  0  0  0
 20 18  2  0  0  0  0
 21  5  1  0  0  0  0
 22 24  1  0  0  0  0
 22 23  1  0  0  0  0
 25 22  1  0  0  0  0
 26  3  1  0  0  0  0
M  RAD  2   1   2   2   3
M  END
