Coordinates from ORCA-job C6H6+HOTf+NH2N2+-scan
 OpenBabel10221816143D

 26 24  0  0  0  0  0  0  0  0999 V2000
   -2.0979   -2.4268    0.5888 N   0  0  0  0  0  0  0  0  0  0  0  0
   -3.1399   -2.7990    0.3939 N   0  0  0  0  0  0  0  0  0  0  0  0
   -0.9302   -1.9898    0.7899 N   0  0  0  0  0  0  0  0  0  0  0  0
   -0.5416   -2.0373    1.7732 H   0  0  0  0  0  0  0  0  0  0  0  0
    1.6617   -3.4002    4.7750 H   0  0  0  0  0  0  0  0  0  0  0  0
   -0.2237   -1.4194   -2.3890 C   0  0  0  0  0  0  0  0  0  0  0  0
   -0.2520   -2.7542   -2.8053 C   0  0  0  0  0  0  0  0  0  0  0  0
    0.7281   -3.6475   -2.3577 C   0  0  0  0  0  0  0  0  0  0  0  0
    1.7314   -3.2145   -1.4851 C   0  0  0  0  0  0  0  0  0  0  0  0
    1.7644   -1.8825   -1.0610 C   0  0  0  0  0  0  0  0  0  0  0  0
    0.7838   -0.9807   -1.5111 C   0  0  0  0  0  0  0  0  0  0  0  0
   -0.9631   -0.7148   -2.7600 H   0  0  0  0  0  0  0  0  0  0  0  0
   -1.0207   -3.0916   -3.4946 H   0  0  0  0  0  0  0  0  0  0  0  0
    0.7124   -4.6797   -2.6950 H   0  0  0  0  0  0  0  0  0  0  0  0
    2.4948   -3.9092   -1.1476 H   0  0  0  0  0  0  0  0  0  0  0  0
    2.5460   -1.5401   -0.3894 H   0  0  0  0  0  0  0  0  0  0  0  0
    0.8361    0.0665   -1.2232 H   0  0  0  0  0  0  0  0  0  0  0  0
    1.5030   -1.6578    3.5063 S   0  0  0  0  0  0  0  0  0  0  0  0
    2.3196   -1.1985    2.4052 O   0  0  0  0  0  0  0  0  0  0  0  0
    0.1002   -2.0744    3.2671 O   0  0  0  0  0  0  0  0  0  0  0  0
    2.2755   -2.8546    4.2473 O   0  0  0  0  0  0  0  0  0  0  0  0
    1.4437   -0.3545    4.8599 C   0  0  0  0  0  0  0  0  0  0  0  0
    0.8859   -0.9085    5.9304 F   0  0  0  0  0  0  0  0  0  0  0  0
    2.6738    0.0419    5.1197 F   0  0  0  0  0  0  0  0  0  0  0  0
    0.7040    0.6479    4.4108 F   0  0  0  0  0  0  0  0  0  0  0  0
   -0.3726   -1.6987   -0.0584 H   0  0  0  0  0  0  0  0  0  0  0  0
  1  3  1  0  0  0  0
  2  1  1  0  0  0  0
  3  4  1  0  0  0  0
  6 11  1  0  0  0  0
  7  6  2  0  0  0  0
  7  8  1  0  0  0  0
  8  9  2  0  0  0  0
  9 15  1  0  0  0  0
  9 10  1  0  0  0  0
 10 16  1  0  0  0  0
 11 17  1  0  0  0  0
 11 10  2  0  0  0  0
 12  6  1  0  0  0  0
 13  7  1  0  0  0  0
 14  8  1  0  0  0  0
 18 21  1  0  0  0  0
 18 22  1  0  0  0  0
 19 18  2  0  0  0  0
 20 18  2  0  0  0  0
 21  5  1  0  0  0  0
 22 24  1  0  0  0  0
 22 23  1  0  0  0  0
 25 22  1  0  0  0  0
 26  3  1  0  0  0  0
M  RAD  2   1   2   2   3
M  END
