Coordinates from ORCA-job C6H6+HOTf+NH2N2+-scan
 OpenBabel10221816143D

 26 24  0  0  0  0  0  0  0  0999 V2000
   -3.2881   -2.9968    2.4868 N   0  0  0  0  0  0  0  0  0  0  0  0
   -4.3960   -2.9008    2.6286 N   0  0  0  0  0  0  0  0  0  0  0  0
   -2.0264   -3.1118    2.3954 N   0  0  0  0  0  0  0  0  0  0  0  0
   -1.3985   -2.5183    3.0522 H   0  0  0  0  0  0  0  0  0  0  0  0
    1.2917   -1.9357    5.7605 H   0  0  0  0  0  0  0  0  0  0  0  0
    0.6798   -0.9158   -2.2348 C   0  0  0  0  0  0  0  0  0  0  0  0
    0.8880   -1.5665   -3.4536 C   0  0  0  0  0  0  0  0  0  0  0  0
    1.5645   -2.7888   -3.4875 C   0  0  0  0  0  0  0  0  0  0  0  0
    2.0279   -3.3639   -2.3011 C   0  0  0  0  0  0  0  0  0  0  0  0
    1.8206   -2.7144   -1.0809 C   0  0  0  0  0  0  0  0  0  0  0  0
    1.1478   -1.4895   -1.0494 C   0  0  0  0  0  0  0  0  0  0  0  0
    0.1656    0.0415   -2.2126 H   0  0  0  0  0  0  0  0  0  0  0  0
    0.5311   -1.1175   -4.3761 H   0  0  0  0  0  0  0  0  0  0  0  0
    1.7326   -3.2905   -4.4362 H   0  0  0  0  0  0  0  0  0  0  0  0
    2.5588   -4.3114   -2.3286 H   0  0  0  0  0  0  0  0  0  0  0  0
    2.1964   -3.1534   -0.1602 H   0  0  0  0  0  0  0  0  0  0  0  0
    1.0092   -0.9686   -0.1044 H   0  0  0  0  0  0  0  0  0  0  0  0
    1.0130   -1.8484    3.6167 S   0  0  0  0  0  0  0  0  0  0  0  0
    1.4244   -2.7444    2.5601 O   0  0  0  0  0  0  0  0  0  0  0  0
   -0.4415   -1.7034    3.9109 O   0  0  0  0  0  0  0  0  0  0  0  0
    1.7712   -2.2472    4.9684 O   0  0  0  0  0  0  0  0  0  0  0  0
    1.6624   -0.1082    3.3031 C   0  0  0  0  0  0  0  0  0  0  0  0
    1.4403    0.6087    4.3962 F   0  0  0  0  0  0  0  0  0  0  0  0
    2.9478   -0.1837    3.0329 F   0  0  0  0  0  0  0  0  0  0  0  0
    0.9821    0.3792    2.2748 F   0  0  0  0  0  0  0  0  0  0  0  0
   -1.6820   -3.5285    1.5292 H   0  0  0  0  0  0  0  0  0  0  0  0
  1  2  1  0  0  0  0
  3  1  1  0  0  0  0
  3  4  1  0  0  0  0
  6 12  1  0  0  0  0
  6 11  2  0  0  0  0
  7  6  1  0  0  0  0
  8  7  2  0  0  0  0
  8  9  1  0  0  0  0
  9 10  2  0  0  0  0
 10 11  1  0  0  0  0
 10 16  1  0  0  0  0
 11 17  1  0  0  0  0
 13  7  1  0  0  0  0
 14  8  1  0  0  0  0
 15  9  1  0  0  0  0
 18 20  2  0  0  0  0
 18 21  1  0  0  0  0
 19 18  2  0  0  0  0
 21  5  1  0  0  0  0
 22 18  1  0  0  0  0
 22 23  1  0  0  0  0
 24 22  1  0  0  0  0
 25 22  1  0  0  0  0
 26  3  1  0  0  0  0
M  RAD  2   1   2   2   3
M  END
