Coordinates from ORCA-job C6H6+HOTf+NH2N2+-scan
 OpenBabel10221816143D

 26 24  0  0  0  0  0  0  0  0999 V2000
   -0.8063    0.4667    0.6903 N   0  0  0  0  0  0  0  0  0  0  0  0
   -1.3942    1.4166    0.5566 N   0  0  0  0  0  0  0  0  0  0  0  0
   -0.1364   -0.6005    0.7646 N   0  0  0  0  0  0  0  0  0  0  0  0
   -0.1011   -1.0750    1.7013 H   0  0  0  0  0  0  0  0  0  0  0  0
   -0.8363   -3.8671    4.4632 H   0  0  0  0  0  0  0  0  0  0  0  0
    0.0757   -3.2415   -1.8405 C   0  0  0  0  0  0  0  0  0  0  0  0
    1.0915   -2.8597   -0.9646 C   0  0  0  0  0  0  0  0  0  0  0  0
    1.6367   -1.5629   -1.0490 C   0  0  0  0  0  0  0  0  0  0  0  0
    1.2082   -0.6848   -2.0649 C   0  0  0  0  0  0  0  0  0  0  0  0
    0.1855   -1.0733   -2.9335 C   0  0  0  0  0  0  0  0  0  0  0  0
   -0.3778   -2.3487   -2.8188 C   0  0  0  0  0  0  0  0  0  0  0  0
   -0.3531   -4.2367   -1.7742 H   0  0  0  0  0  0  0  0  0  0  0  0
    1.4542   -3.5460   -0.2053 H   0  0  0  0  0  0  0  0  0  0  0  0
    2.4860   -1.2939   -0.4238 H   0  0  0  0  0  0  0  0  0  0  0  0
    1.6711    0.2934   -2.1657 H   0  0  0  0  0  0  0  0  0  0  0  0
   -0.1536   -0.3964   -3.7117 H   0  0  0  0  0  0  0  0  0  0  0  0
   -1.1655   -2.6523   -3.5021 H   0  0  0  0  0  0  0  0  0  0  0  0
    0.8585   -2.9748    3.4640 S   0  0  0  0  0  0  0  0  0  0  0  0
    1.7243   -3.4800    2.4208 O   0  0  0  0  0  0  0  0  0  0  0  0
   -0.0220   -1.8142    3.2046 O   0  0  0  0  0  0  0  0  0  0  0  0
   -0.0356   -4.1930    4.0100 O   0  0  0  0  0  0  0  0  0  0  0  0
    1.8723   -2.5457    4.9868 C   0  0  0  0  0  0  0  0  0  0  0  0
    1.0267   -2.3126    5.9845 F   0  0  0  0  0  0  0  0  0  0  0  0
    2.6664   -3.5598    5.2687 F   0  0  0  0  0  0  0  0  0  0  0  0
    2.5722   -1.4575    4.7021 F   0  0  0  0  0  0  0  0  0  0  0  0
    0.4753   -0.8784   -0.0732 H   0  0  0  0  0  0  0  0  0  0  0  0
  1  3  1  0  0  0  0
  2  1  1  0  0  0  0
  3  4  1  0  0  0  0
  6 12  1  0  0  0  0
  6  7  2  0  0  0  0
  7 13  1  0  0  0  0
  8  7  1  0  0  0  0
  8 14  1  0  0  0  0
  9  8  2  0  0  0  0
 10 11  2  0  0  0  0
 10  9  1  0  0  0  0
 11  6  1  0  0  0  0
 15  9  1  0  0  0  0
 16 10  1  0  0  0  0
 17 11  1  0  0  0  0
 18 21  1  0  0  0  0
 18 22  1  0  0  0  0
 19 18  2  0  0  0  0
 20 18  2  0  0  0  0
 21  5  1  0  0  0  0
 22 24  1  0  0  0  0
 22 23  1  0  0  0  0
 25 22  1  0  0  0  0
 26  3  1  0  0  0  0
M  RAD  2   1   2   2   3
M  END
