Coordinates from ORCA-job C6H6+HOTf+NH2N2+-scan
 OpenBabel10221816143D

 26 24  0  0  0  0  0  0  0  0999 V2000
   -3.1938   -2.8927    2.2911 N   0  0  0  0  0  0  0  0  0  0  0  0
   -4.3075   -2.8848    2.4189 N   0  0  0  0  0  0  0  0  0  0  0  0
   -1.9264   -2.9236    2.2115 N   0  0  0  0  0  0  0  0  0  0  0  0
   -1.3409   -2.4023    2.9589 H   0  0  0  0  0  0  0  0  0  0  0  0
    1.2590   -1.9719    5.8043 H   0  0  0  0  0  0  0  0  0  0  0  0
    0.4443   -1.0898   -2.1509 C   0  0  0  0  0  0  0  0  0  0  0  0
    0.7893   -1.6159   -3.3986 C   0  0  0  0  0  0  0  0  0  0  0  0
    1.6197   -2.7375   -3.4813 C   0  0  0  0  0  0  0  0  0  0  0  0
    2.0965   -3.3392   -2.3132 C   0  0  0  0  0  0  0  0  0  0  0  0
    1.7539   -2.8144   -1.0635 C   0  0  0  0  0  0  0  0  0  0  0  0
    0.9296   -1.6877   -0.9837 C   0  0  0  0  0  0  0  0  0  0  0  0
   -0.1864   -0.2065   -2.0923 H   0  0  0  0  0  0  0  0  0  0  0  0
    0.4195   -1.1461   -4.3055 H   0  0  0  0  0  0  0  0  0  0  0  0
    1.8939   -3.1408   -4.4517 H   0  0  0  0  0  0  0  0  0  0  0  0
    2.7439   -4.2093   -2.3762 H   0  0  0  0  0  0  0  0  0  0  0  0
    2.1434   -3.2701   -0.1567 H   0  0  0  0  0  0  0  0  0  0  0  0
    0.7010   -1.2487   -0.0136 H   0  0  0  0  0  0  0  0  0  0  0  0
    1.0631   -1.8291    3.6559 S   0  0  0  0  0  0  0  0  0  0  0  0
    1.4925   -2.7153    2.5975 O   0  0  0  0  0  0  0  0  0  0  0  0
   -0.3967   -1.6654    3.9106 O   0  0  0  0  0  0  0  0  0  0  0  0
    1.7747   -2.2542    5.0242 O   0  0  0  0  0  0  0  0  0  0  0  0
    1.7474   -0.0978    3.3751 C   0  0  0  0  0  0  0  0  0  0  0  0
    1.4857    0.6231    4.4564 F   0  0  0  0  0  0  0  0  0  0  0  0
    3.0429   -0.1879    3.1622 F   0  0  0  0  0  0  0  0  0  0  0  0
    1.1191    0.3951    2.3166 F   0  0  0  0  0  0  0  0  0  0  0  0
   -1.5449   -3.1651    1.2940 H   0  0  0  0  0  0  0  0  0  0  0  0
  1  2  1  0  0  0  0
  3  1  1  0  0  0  0
  3  4  1  0  0  0  0
  6 12  1  0  0  0  0
  6 11  2  0  0  0  0
  7  6  1  0  0  0  0
  8  7  2  0  0  0  0
  8  9  1  0  0  0  0
  9 10  2  0  0  0  0
 10 11  1  0  0  0  0
 10 16  1  0  0  0  0
 11 17  1  0  0  0  0
 13  7  1  0  0  0  0
 14  8  1  0  0  0  0
 15  9  1  0  0  0  0
 18 20  2  0  0  0  0
 18 21  1  0  0  0  0
 19 18  2  0  0  0  0
 21  5  1  0  0  0  0
 22 18  1  0  0  0  0
 22 23  1  0  0  0  0
 24 22  1  0  0  0  0
 25 22  1  0  0  0  0
 26  3  1  0  0  0  0
M  RAD  2   1   2   2   3
M  END
