Coordinates from ORCA-job C6H6+HOTf+NH2N2+-scan
 OpenBabel10221816143D

 26 24  0  0  0  0  0  0  0  0999 V2000
   -2.5980   -2.4473    1.4498 N   0  0  0  0  0  0  0  0  0  0  0  0
   -3.6716   -2.7715    1.4145 N   0  0  0  0  0  0  0  0  0  0  0  0
   -1.3980   -2.0411    1.4985 N   0  0  0  0  0  0  0  0  0  0  0  0
   -0.9190   -1.9814    2.4532 H   0  0  0  0  0  0  0  0  0  0  0  0
    1.5963   -3.0573    5.2637 H   0  0  0  0  0  0  0  0  0  0  0  0
   -0.1749   -1.6180   -2.4759 C   0  0  0  0  0  0  0  0  0  0  0  0
    0.2031   -2.4534   -3.5299 C   0  0  0  0  0  0  0  0  0  0  0  0
    1.3151   -3.2941   -3.3997 C   0  0  0  0  0  0  0  0  0  0  0  0
    2.0301   -3.3187   -2.1966 C   0  0  0  0  0  0  0  0  0  0  0  0
    1.6585   -2.4851   -1.1381 C   0  0  0  0  0  0  0  0  0  0  0  0
    0.5598   -1.6241   -1.2804 C   0  0  0  0  0  0  0  0  0  0  0  0
   -1.0115   -0.9355   -2.6013 H   0  0  0  0  0  0  0  0  0  0  0  0
   -0.3556   -2.4332   -4.4610 H   0  0  0  0  0  0  0  0  0  0  0  0
    1.6182   -3.9284   -4.2271 H   0  0  0  0  0  0  0  0  0  0  0  0
    2.8913   -3.9720   -2.0913 H   0  0  0  0  0  0  0  0  0  0  0  0
    2.2414   -2.4745   -0.2212 H   0  0  0  0  0  0  0  0  0  0  0  0
    0.3628   -0.8675   -0.5182 H   0  0  0  0  0  0  0  0  0  0  0  0
    1.3469   -1.5728    3.7114 S   0  0  0  0  0  0  0  0  0  0  0  0
    1.9614   -1.4359    2.4093 O   0  0  0  0  0  0  0  0  0  0  0  0
   -0.1095   -1.8554    3.8029 O   0  0  0  0  0  0  0  0  0  0  0  0
    2.1407   -2.6928    4.5396 O   0  0  0  0  0  0  0  0  0  0  0  0
    1.6576   -0.0352    4.7517 C   0  0  0  0  0  0  0  0  0  0  0  0
    1.2688   -0.3042    5.9919 F   0  0  0  0  0  0  0  0  0  0  0  0
    2.9435    0.2478    4.7080 F   0  0  0  0  0  0  0  0  0  0  0  0
    0.9333    0.9428    4.2318 F   0  0  0  0  0  0  0  0  0  0  0  0
   -0.8679   -2.0693    0.6046 H   0  0  0  0  0  0  0  0  0  0  0  0
  1  3  1  0  0  0  0
  2  1  1  0  0  0  0
  3  4  1  0  0  0  0
  6 11  2  0  0  0  0
  7  8  2  0  0  0  0
  7  6  1  0  0  0  0
  8  9  1  0  0  0  0
  9 15  1  0  0  0  0
  9 10  2  0  0  0  0
 10 16  1  0  0  0  0
 11 10  1  0  0  0  0
 11 17  1  0  0  0  0
 12  6  1  0  0  0  0
 13  7  1  0  0  0  0
 14  8  1  0  0  0  0
 18 20  2  0  0  0  0
 18 21  1  0  0  0  0
 18 22  1  0  0  0  0
 19 18  2  0  0  0  0
 21  5  1  0  0  0  0
 22 23  1  0  0  0  0
 24 22  1  0  0  0  0
 25 22  1  0  0  0  0
 26  3  1  0  0  0  0
M  RAD  2   1   2   2   3
M  END
