Coordinates from ORCA-job C6H6+HOTf+NH2N2+-scan
 OpenBabel10221816143D

 26 24  0  0  0  0  0  0  0  0999 V2000
   -2.2358   -2.6432    0.9260 N   0  0  0  0  0  0  0  0  0  0  0  0
   -3.2547   -3.0819    0.7499 N   0  0  0  0  0  0  0  0  0  0  0  0
   -1.0998   -2.1123    1.0948 N   0  0  0  0  0  0  0  0  0  0  0  0
   -0.7057   -2.0875    2.0775 H   0  0  0  0  0  0  0  0  0  0  0  0
    1.7233   -3.1088    5.0463 H   0  0  0  0  0  0  0  0  0  0  0  0
   -0.1313   -1.3920   -2.2606 C   0  0  0  0  0  0  0  0  0  0  0  0
   -0.0695   -2.4487   -3.1718 C   0  0  0  0  0  0  0  0  0  0  0  0
    0.8880   -3.4575   -3.0114 C   0  0  0  0  0  0  0  0  0  0  0  0
    1.7669   -3.4275   -1.9231 C   0  0  0  0  0  0  0  0  0  0  0  0
    1.7110   -2.3746   -1.0066 C   0  0  0  0  0  0  0  0  0  0  0  0
    0.7634   -1.3487   -1.1757 C   0  0  0  0  0  0  0  0  0  0  0  0
   -0.8438   -0.5850   -2.4100 H   0  0  0  0  0  0  0  0  0  0  0  0
   -0.7481   -2.4743   -4.0192 H   0  0  0  0  0  0  0  0  0  0  0  0
    0.9462   -4.2673   -3.7325 H   0  0  0  0  0  0  0  0  0  0  0  0
    2.5084   -4.2117   -1.8029 H   0  0  0  0  0  0  0  0  0  0  0  0
    2.4136   -2.3265   -0.1795 H   0  0  0  0  0  0  0  0  0  0  0  0
    0.8016   -0.4683   -0.5352 H   0  0  0  0  0  0  0  0  0  0  0  0
    1.4200   -1.5331    3.5988 S   0  0  0  0  0  0  0  0  0  0  0  0
    2.1221   -1.2122    2.3748 O   0  0  0  0  0  0  0  0  0  0  0  0
    0.0091   -1.9851    3.5386 O   0  0  0  0  0  0  0  0  0  0  0  0
    2.2781   -2.6221    4.4072 O   0  0  0  0  0  0  0  0  0  0  0  0
    1.4645   -0.0675    4.7767 C   0  0  0  0  0  0  0  0  0  0  0  0
    1.0120   -0.4821    5.9539 F   0  0  0  0  0  0  0  0  0  0  0  0
    2.7077    0.3604    4.8712 F   0  0  0  0  0  0  0  0  0  0  0  0
    0.6745    0.8672    4.2716 F   0  0  0  0  0  0  0  0  0  0  0  0
   -0.4992   -1.9876    0.2312 H   0  0  0  0  0  0  0  0  0  0  0  0
  1  3  1  0  0  0  0
  2  1  1  0  0  0  0
  3  4  1  0  0  0  0
  6 11  2  0  0  0  0
  7  8  2  0  0  0  0
  7  6  1  0  0  0  0
  8  9  1  0  0  0  0
  9 15  1  0  0  0  0
  9 10  2  0  0  0  0
 10 16  1  0  0  0  0
 11 10  1  0  0  0  0
 11 17  1  0  0  0  0
 12  6  1  0  0  0  0
 13  7  1  0  0  0  0
 14  8  1  0  0  0  0
 18 21  1  0  0  0  0
 18 22  1  0  0  0  0
 19 18  2  0  0  0  0
 20 18  2  0  0  0  0
 21  5  1  0  0  0  0
 22 24  1  0  0  0  0
 22 23  1  0  0  0  0
 25 22  1  0  0  0  0
 26  3  1  0  0  0  0
M  RAD  2   1   2   2   3
M  END
