Coordinates from ORCA-job C6H6+HOTf+NH2N2+-scan
 OpenBabel10221816143D

 26 24  0  0  0  0  0  0  0  0999 V2000
   -2.3397   -2.6058    1.0872 N   0  0  0  0  0  0  0  0  0  0  0  0
   -3.3730   -3.0233    0.9496 N   0  0  0  0  0  0  0  0  0  0  0  0
   -1.1880   -2.0969    1.2213 N   0  0  0  0  0  0  0  0  0  0  0  0
   -0.7725   -2.0573    2.1974 H   0  0  0  0  0  0  0  0  0  0  0  0
    1.6985   -3.0700    5.1188 H   0  0  0  0  0  0  0  0  0  0  0  0
   -0.1370   -1.4526   -2.3023 C   0  0  0  0  0  0  0  0  0  0  0  0
    0.0239   -2.4189   -3.2977 C   0  0  0  0  0  0  0  0  0  0  0  0
    1.0190   -3.3962   -3.1738 C   0  0  0  0  0  0  0  0  0  0  0  0
    1.8328   -3.4282   -2.0355 C   0  0  0  0  0  0  0  0  0  0  0  0
    1.6783   -2.4650   -1.0353 C   0  0  0  0  0  0  0  0  0  0  0  0
    0.6969   -1.4670   -1.1702 C   0  0  0  0  0  0  0  0  0  0  0  0
   -0.8766   -0.6655   -2.4244 H   0  0  0  0  0  0  0  0  0  0  0  0
   -0.6071   -2.3963   -4.1812 H   0  0  0  0  0  0  0  0  0  0  0  0
    1.1558   -4.1331   -3.9595 H   0  0  0  0  0  0  0  0  0  0  0  0
    2.6024   -4.1883   -1.9404 H   0  0  0  0  0  0  0  0  0  0  0  0
    2.3371   -2.4599   -0.1714 H   0  0  0  0  0  0  0  0  0  0  0  0
    0.6782   -0.6313   -0.4702 H   0  0  0  0  0  0  0  0  0  0  0  0
    1.3965   -1.5256    3.6373 S   0  0  0  0  0  0  0  0  0  0  0  0
    2.0688   -1.2586    2.3841 O   0  0  0  0  0  0  0  0  0  0  0  0
   -0.0284   -1.9389    3.6295 O   0  0  0  0  0  0  0  0  0  0  0  0
    2.2469   -2.6166    4.4503 O   0  0  0  0  0  0  0  0  0  0  0  0
    1.5152   -0.0300    4.7723 C   0  0  0  0  0  0  0  0  0  0  0  0
    1.0863   -0.4003    5.9728 F   0  0  0  0  0  0  0  0  0  0  0  0
    2.7718    0.3647    4.8189 F   0  0  0  0  0  0  0  0  0  0  0  0
    0.7364    0.9119    4.2639 F   0  0  0  0  0  0  0  0  0  0  0  0
   -0.5997   -2.0290    0.3486 H   0  0  0  0  0  0  0  0  0  0  0  0
  1  3  1  0  0  0  0
  2  1  1  0  0  0  0
  3  4  1  0  0  0  0
  6 11  2  0  0  0  0
  7  8  2  0  0  0  0
  7  6  1  0  0  0  0
  8  9  1  0  0  0  0
  9 15  1  0  0  0  0
  9 10  2  0  0  0  0
 10 16  1  0  0  0  0
 11 10  1  0  0  0  0
 11 17  1  0  0  0  0
 12  6  1  0  0  0  0
 13  7  1  0  0  0  0
 14  8  1  0  0  0  0
 18 21  1  0  0  0  0
 18 22  1  0  0  0  0
 19 18  2  0  0  0  0
 20 18  2  0  0  0  0
 21  5  1  0  0  0  0
 22 24  1  0  0  0  0
 22 23  1  0  0  0  0
 25 22  1  0  0  0  0
 26  3  1  0  0  0  0
M  RAD  2   1   2   2   3
M  END
