Coordinates from ORCA-job C6H6+HOTf+NH2N2+-scan
 OpenBabel10221816143D

 26 24  0  0  0  0  0  0  0  0999 V2000
   -2.0282   -2.4586    0.4426 N   0  0  0  0  0  0  0  0  0  0  0  0
   -3.0576   -2.8639    0.2473 N   0  0  0  0  0  0  0  0  0  0  0  0
   -0.8744   -1.9944    0.6595 N   0  0  0  0  0  0  0  0  0  0  0  0
   -0.4901   -2.0529    1.6440 H   0  0  0  0  0  0  0  0  0  0  0  0
    1.5949   -3.5093    4.6853 H   0  0  0  0  0  0  0  0  0  0  0  0
   -0.2356   -1.4074   -2.4303 C   0  0  0  0  0  0  0  0  0  0  0  0
   -0.3149   -2.7964   -2.5853 C   0  0  0  0  0  0  0  0  0  0  0  0
    0.6481   -3.6213   -1.9929 C   0  0  0  0  0  0  0  0  0  0  0  0
    1.6963   -3.0647   -1.2531 C   0  0  0  0  0  0  0  0  0  0  0  0
    1.7796   -1.6775   -1.0917 C   0  0  0  0  0  0  0  0  0  0  0  0
    0.8080   -0.8464   -1.6742 C   0  0  0  0  0  0  0  0  0  0  0  0
   -0.9684   -0.7605   -2.9046 H   0  0  0  0  0  0  0  0  0  0  0  0
   -1.1116   -3.2318   -3.1819 H   0  0  0  0  0  0  0  0  0  0  0  0
    0.5913   -4.6980   -2.1248 H   0  0  0  0  0  0  0  0  0  0  0  0
    2.4511   -3.7075   -0.8102 H   0  0  0  0  0  0  0  0  0  0  0  0
    2.5904   -1.2425   -0.5156 H   0  0  0  0  0  0  0  0  0  0  0  0
    0.8819    0.2325   -1.5685 H   0  0  0  0  0  0  0  0  0  0  0  0
    1.5248   -1.7443    3.4393 S   0  0  0  0  0  0  0  0  0  0  0  0
    2.3911   -1.2869    2.3766 O   0  0  0  0  0  0  0  0  0  0  0  0
    0.1196   -2.1170    3.1471 O   0  0  0  0  0  0  0  0  0  0  0  0
    2.2391   -2.9765    4.1813 O   0  0  0  0  0  0  0  0  0  0  0  0
    1.4535   -0.4674    4.8171 C   0  0  0  0  0  0  0  0  0  0  0  0
    0.8477   -1.0287    5.8576 F   0  0  0  0  0  0  0  0  0  0  0  0
    2.6838   -0.1074    5.1247 F   0  0  0  0  0  0  0  0  0  0  0  0
    0.7536    0.5623    4.3660 F   0  0  0  0  0  0  0  0  0  0  0  0
   -0.3511   -1.6112   -0.1652 H   0  0  0  0  0  0  0  0  0  0  0  0
  1  3  1  0  0  0  0
  2  1  1  0  0  0  0
  3  4  1  0  0  0  0
  6 11  1  0  0  0  0
  7  6  2  0  0  0  0
  7  8  1  0  0  0  0
  8  9  2  0  0  0  0
  9 10  1  0  0  0  0
  9 15  1  0  0  0  0
 10 16  1  0  0  0  0
 11 17  1  0  0  0  0
 11 10  2  0  0  0  0
 12  6  1  0  0  0  0
 13  7  1  0  0  0  0
 14  8  1  0  0  0  0
 18 21  1  0  0  0  0
 18 22  1  0  0  0  0
 19 18  2  0  0  0  0
 20 18  2  0  0  0  0
 21  5  1  0  0  0  0
 22 24  1  0  0  0  0
 22 23  1  0  0  0  0
 25 22  1  0  0  0  0
 26  3  1  0  0  0  0
M  RAD  2   1   2   2   3
M  END
