Coordinates from ORCA-job C6H6+HOTf+NH2N2+-scan
 OpenBabel10221816143D

 26 24  0  0  0  0  0  0  0  0999 V2000
   -2.2569   -2.6335    0.9587 N   0  0  0  0  0  0  0  0  0  0  0  0
   -3.2797   -3.0658    0.7899 N   0  0  0  0  0  0  0  0  0  0  0  0
   -1.1166   -2.1093    1.1204 N   0  0  0  0  0  0  0  0  0  0  0  0
   -0.7182   -2.0823    2.1017 H   0  0  0  0  0  0  0  0  0  0  0  0
    1.7275   -3.0985    5.0561 H   0  0  0  0  0  0  0  0  0  0  0  0
   -0.1297   -1.4043   -2.2656 C   0  0  0  0  0  0  0  0  0  0  0  0
   -0.0505   -2.4404   -3.1986 C   0  0  0  0  0  0  0  0  0  0  0  0
    0.9123   -3.4459   -3.0499 C   0  0  0  0  0  0  0  0  0  0  0  0
    1.7781   -3.4340   -1.9507 C   0  0  0  0  0  0  0  0  0  0  0  0
    1.7050   -2.4017   -1.0126 C   0  0  0  0  0  0  0  0  0  0  0  0
    0.7532   -1.3779   -1.1706 C   0  0  0  0  0  0  0  0  0  0  0  0
   -0.8455   -0.5986   -2.4068 H   0  0  0  0  0  0  0  0  0  0  0  0
   -0.7197   -2.4520   -4.0537 H   0  0  0  0  0  0  0  0  0  0  0  0
    0.9846   -4.2391   -3.7880 H   0  0  0  0  0  0  0  0  0  0  0  0
    2.5234   -4.2158   -1.8389 H   0  0  0  0  0  0  0  0  0  0  0  0
    2.3992   -2.3665   -0.1777 H   0  0  0  0  0  0  0  0  0  0  0  0
    0.7838   -0.5078   -0.5156 H   0  0  0  0  0  0  0  0  0  0  0  0
    1.4153   -1.5262    3.6067 S   0  0  0  0  0  0  0  0  0  0  0  0
    2.1086   -1.2094    2.3766 O   0  0  0  0  0  0  0  0  0  0  0  0
    0.0035   -1.9772    3.5575 O   0  0  0  0  0  0  0  0  0  0  0  0
    2.2782   -2.6138    4.4118 O   0  0  0  0  0  0  0  0  0  0  0  0
    1.4694   -0.0574    4.7802 C   0  0  0  0  0  0  0  0  0  0  0  0
    1.0250   -0.4685    5.9617 F   0  0  0  0  0  0  0  0  0  0  0  0
    2.7134    0.3697    4.8645 F   0  0  0  0  0  0  0  0  0  0  0  0
    0.6764    0.8765    4.2781 F   0  0  0  0  0  0  0  0  0  0  0  0
   -0.5176   -1.9985    0.2549 H   0  0  0  0  0  0  0  0  0  0  0  0
  1  3  1  0  0  0  0
  2  1  1  0  0  0  0
  3  4  1  0  0  0  0
  6 11  2  0  0  0  0
  7  8  2  0  0  0  0
  7  6  1  0  0  0  0
  8  9  1  0  0  0  0
  9 15  1  0  0  0  0
  9 10  2  0  0  0  0
 10 16  1  0  0  0  0
 11 10  1  0  0  0  0
 11 17  1  0  0  0  0
 12  6  1  0  0  0  0
 13  7  1  0  0  0  0
 14  8  1  0  0  0  0
 18 21  1  0  0  0  0
 18 22  1  0  0  0  0
 19 18  2  0  0  0  0
 20 18  2  0  0  0  0
 21  5  1  0  0  0  0
 22 24  1  0  0  0  0
 22 23  1  0  0  0  0
 25 22  1  0  0  0  0
 26  3  1  0  0  0  0
M  RAD  2   1   2   2   3
M  END
