Coordinates from ORCA-job C6H6+HOTf+NH2N2+-scan
 OpenBabel10221816143D

 26 24  0  0  1  0  0  0  0  0999 V2000
   -1.8107    0.3710    6.3212 N   0  0  0  0  0  0  0  0  0  0  0  0
   -1.5225   -0.4570    5.6505 N   0  0  0  0  0  0  0  0  0  0  0  0
   -0.1485   -1.0534   -0.3329 N   0  0  0  0  0  0  0  0  0  0  0  0
   -0.0010   -0.9375    0.6712 H   0  0  0  0  0  0  0  0  0  0  0  0
   -1.0601   -1.9773    4.4998 H   0  0  0  0  0  0  0  0  0  0  0  0
   -0.2792   -2.5317   -2.3513 C   0  0  0  0  0  0  0  0  0  0  0  0
    0.2539   -2.3441   -0.9677 C   0  0  1  0  0  0  0  0  0  0  0  0
    1.6230   -1.7765   -0.8858 C   0  0  0  0  0  0  0  0  0  0  0  0
    2.2577   -1.2198   -2.0258 C   0  0  0  0  0  0  0  0  0  0  0  0
    1.6637   -1.3685   -3.2531 C   0  0  0  0  0  0  0  0  0  0  0  0
    0.3925   -2.0462   -3.4180 C   0  0  0  0  0  0  0  0  0  0  0  0
   -1.2087   -3.0803   -2.4676 H   0  0  0  0  0  0  0  0  0  0  0  0
    0.0279   -3.1640   -0.2855 H   0  0  0  0  0  0  0  0  0  0  0  0
    2.1162   -1.7962    0.0800 H   0  0  0  0  0  0  0  0  0  0  0  0
    3.2172   -0.7258   -1.9192 H   0  0  0  0  0  0  0  0  0  0  0  0
    2.1618   -0.9842   -4.1391 H   0  0  0  0  0  0  0  0  0  0  0  0
    0.0043   -2.1825   -4.4222 H   0  0  0  0  0  0  0  0  0  0  0  0
    0.3249   -2.6979    2.9993 S   0  0  0  0  0  0  0  0  0  0  0  0
    0.2201   -3.7772    2.0327 O   0  0  0  0  0  0  0  0  0  0  0  0
    0.4716   -1.3106    2.5331 O   0  0  0  0  0  0  0  0  0  0  0  0
   -0.9021   -2.8188    4.0145 O   0  0  0  0  0  0  0  0  0  0  0  0
    1.7762   -3.0418    4.1306 C   0  0  0  0  0  0  0  0  0  0  0  0
    1.7338   -2.1736    5.1374 F   0  0  0  0  0  0  0  0  0  0  0  0
    1.6988   -4.2810    4.5808 F   0  0  0  0  0  0  0  0  0  0  0  0
    2.8860   -2.8702    3.4190 F   0  0  0  0  0  0  0  0  0  0  0  0
   -0.2742   -0.2329   -0.9117 H   0  0  0  0  0  0  0  0  0  0  0  0
  2  1  3  0  0  0  0
  3  4  1  0  0  0  0
  6  7  1  0  0  0  0
  7  8  1  0  0  0  0
  7  3  1  0  0  0  0
  7 13  1  1  0  0  0
  8 14  1  0  0  0  0
  9 15  1  0  0  0  0
  9  8  1  0  0  0  0
 10  9  2  0  0  0  0
 11 10  1  0  0  0  0
 11  6  2  0  0  0  0
 12  6  1  0  0  0  0
 16 10  1  0  0  0  0
 17 11  1  0  0  0  0
 18 21  1  0  0  0  0
 18 22  1  0  0  0  0
 19 18  2  0  0  0  0
 20 18  2  0  0  0  0
 21  5  1  0  0  0  0
 22 24  1  0  0  0  0
 22 23  1  0  0  0  0
 25 22  1  0  0  0  0
 26  3  1  0  0  0  0
M  RAD  1   8   2
M  END
