Coordinates from ORCA-job C6H6+HOTf+NH2N2+-scan
 OpenBabel10221816143D

 26 24  0  0  0  0  0  0  0  0999 V2000
   -2.1006   -2.6864    0.7444 N   0  0  0  0  0  0  0  0  0  0  0  0
   -3.1030   -3.1479    0.5337 N   0  0  0  0  0  0  0  0  0  0  0  0
   -0.9832   -2.1340    0.9549 N   0  0  0  0  0  0  0  0  0  0  0  0
   -0.6141   -2.1214    1.9464 H   0  0  0  0  0  0  0  0  0  0  0  0
    1.7446   -3.1617    4.9686 H   0  0  0  0  0  0  0  0  0  0  0  0
   -0.1203   -1.3216   -2.2521 C   0  0  0  0  0  0  0  0  0  0  0  0
   -0.1872   -2.4881   -3.0185 C   0  0  0  0  0  0  0  0  0  0  0  0
    0.7215   -3.5284   -2.7913 C   0  0  0  0  0  0  0  0  0  0  0  0
    1.6863   -3.4149   -1.7850 C   0  0  0  0  0  0  0  0  0  0  0  0
    1.7582   -2.2527   -1.0122 C   0  0  0  0  0  0  0  0  0  0  0  0
    0.8543   -1.2001   -1.2448 C   0  0  0  0  0  0  0  0  0  0  0  0
   -0.7999   -0.4974   -2.4516 H   0  0  0  0  0  0  0  0  0  0  0  0
   -0.9291   -2.5776   -3.8065 H   0  0  0  0  0  0  0  0  0  0  0  0
    0.6776   -4.4266   -3.4001 H   0  0  0  0  0  0  0  0  0  0  0  0
    2.3922   -4.2226   -1.6161 H   0  0  0  0  0  0  0  0  0  0  0  0
    2.5184   -2.1481   -0.2435 H   0  0  0  0  0  0  0  0  0  0  0  0
    0.9613   -0.2648   -0.6989 H   0  0  0  0  0  0  0  0  0  0  0  0
    1.4473   -1.5442    3.5667 S   0  0  0  0  0  0  0  0  0  0  0  0
    2.1874   -1.1546    2.3862 O   0  0  0  0  0  0  0  0  0  0  0  0
    0.0554   -2.0370    3.4341 O   0  0  0  0  0  0  0  0  0  0  0  0
    2.3080   -2.6362    4.3689 O   0  0  0  0  0  0  0  0  0  0  0  0
    1.3972   -0.1250    4.7992 C   0  0  0  0  0  0  0  0  0  0  0  0
    0.9132   -0.5987    5.9413 F   0  0  0  0  0  0  0  0  0  0  0  0
    2.6207    0.3385    4.9599 F   0  0  0  0  0  0  0  0  0  0  0  0
    0.5967    0.8035    4.2986 F   0  0  0  0  0  0  0  0  0  0  0  0
   -0.3801   -1.9298    0.1079 H   0  0  0  0  0  0  0  0  0  0  0  0
  1  3  1  0  0  0  0
  2  1  1  0  0  0  0
  3  4  1  0  0  0  0
  6 11  2  0  0  0  0
  7  8  2  0  0  0  0
  7  6  1  0  0  0  0
  8  9  1  0  0  0  0
  9 15  1  0  0  0  0
  9 10  2  0  0  0  0
 10 16  1  0  0  0  0
 11 10  1  0  0  0  0
 11 17  1  0  0  0  0
 12  6  1  0  0  0  0
 13  7  1  0  0  0  0
 14  8  1  0  0  0  0
 18 21  1  0  0  0  0
 18 22  1  0  0  0  0
 19 18  2  0  0  0  0
 20 18  2  0  0  0  0
 21  5  1  0  0  0  0
 22 24  1  0  0  0  0
 22 23  1  0  0  0  0
 25 22  1  0  0  0  0
 26  3  1  0  0  0  0
M  RAD  2   1   2   2   3
M  END
