Coordinates from ORCA-job C6H6+HOTf+NH2N2+-scan
 OpenBabel10221816143D

 26 24  0  0  1  0  0  0  0  0999 V2000
   -2.8769   -1.0921    6.1640 N   0  0  0  0  0  0  0  0  0  0  0  0
   -2.1391   -1.6408    5.5532 N   0  0  0  0  0  0  0  0  0  0  0  0
    0.3178   -0.8885   -0.3084 N   0  0  0  0  0  0  0  0  0  0  0  0
    0.3031   -0.9622    0.7115 H   0  0  0  0  0  0  0  0  0  0  0  0
   -0.8481   -2.6733    4.4993 H   0  0  0  0  0  0  0  0  0  0  0  0
   -0.6085   -1.5656   -2.5393 C   0  0  0  0  0  0  0  0  0  0  0  0
   -0.2451   -1.9793   -1.1484 C   0  0  1  0  0  0  0  0  0  0  0  0
    1.1259   -2.5435   -0.9835 C   0  0  0  0  0  0  0  0  0  0  0  0
    2.0874   -2.4351   -2.0289 C   0  0  0  0  0  0  0  0  0  0  0  0
    1.6931   -1.9637   -3.2507 C   0  0  0  0  0  0  0  0  0  0  0  0
    0.3269   -1.5418   -3.5115 C   0  0  0  0  0  0  0  0  0  0  0  0
   -1.6424   -1.3026   -2.7397 H   0  0  0  0  0  0  0  0  0  0  0  0
   -1.0504   -2.4871   -0.6173 H   0  0  0  0  0  0  0  0  0  0  0  0
    1.3550   -3.0437   -0.0469 H   0  0  0  0  0  0  0  0  0  0  0  0
    3.1027   -2.7730   -1.8529 H   0  0  0  0  0  0  0  0  0  0  0  0
    2.4097   -1.9195   -4.0662 H   0  0  0  0  0  0  0  0  0  0  0  0
    0.0634   -1.2379   -4.5196 H   0  0  0  0  0  0  0  0  0  0  0  0
    0.8038   -2.5244    3.1088 S   0  0  0  0  0  0  0  0  0  0  0  0
    1.3704   -3.4909    2.1826 O   0  0  0  0  0  0  0  0  0  0  0  0
    0.1974   -1.2879    2.5945 O   0  0  0  0  0  0  0  0  0  0  0  0
   -0.2303   -3.2947    4.0511 O   0  0  0  0  0  0  0  0  0  0  0  0
    2.1214   -2.0267    4.3431 C   0  0  0  0  0  0  0  0  0  0  0  0
    1.5357   -1.3260    5.3106 F   0  0  0  0  0  0  0  0  0  0  0  0
    2.6919   -3.1122    4.8346 F   0  0  0  0  0  0  0  0  0  0  0  0
    3.0112   -1.2779    3.7028 F   0  0  0  0  0  0  0  0  0  0  0  0
    0.7467   -0.0877   -0.7527 H   0  0  0  0  0  0  0  0  0  0  0  0
  2  1  3  0  0  0  0
  3  4  1  0  0  0  0
  6  7  1  0  0  0  0
  7  8  1  0  0  0  0
  7 13  1  1  0  0  0
  7  3  1  0  0  0  0
  8 14  1  0  0  0  0
  9 15  1  0  0  0  0
  9  8  1  0  0  0  0
 10  9  2  0  0  0  0
 11 10  1  0  0  0  0
 11  6  2  0  0  0  0
 12  6  1  0  0  0  0
 16 10  1  0  0  0  0
 17 11  1  0  0  0  0
 18 21  1  0  0  0  0
 18 22  1  0  0  0  0
 19 18  2  0  0  0  0
 20 18  2  0  0  0  0
 21  5  1  0  0  0  0
 22 24  1  0  0  0  0
 22 23  1  0  0  0  0
 25 22  1  0  0  0  0
 26  3  1  0  0  0  0
M  RAD  1   8   2
M  END
