Coordinates from ORCA-job C6H6+HOTf+NH2N2+-scan
 OpenBabel10221816143D

 26 24  0  0  0  0  0  0  0  0999 V2000
   -1.0202    0.3485    0.6794 N   0  0  0  0  0  0  0  0  0  0  0  0
   -1.6596    1.2537    0.4836 N   0  0  0  0  0  0  0  0  0  0  0  0
   -0.2818   -0.6644    0.8207 N   0  0  0  0  0  0  0  0  0  0  0  0
   -0.2162   -1.0796    1.7823 H   0  0  0  0  0  0  0  0  0  0  0  0
   -0.6598   -3.8461    4.6384 H   0  0  0  0  0  0  0  0  0  0  0  0
   -0.0567   -3.2134   -2.0500 C   0  0  0  0  0  0  0  0  0  0  0  0
    0.8086   -2.9819   -0.9814 C   0  0  0  0  0  0  0  0  0  0  0  0
    1.4703   -1.7420   -0.8702 C   0  0  0  0  0  0  0  0  0  0  0  0
    1.3159   -0.7717   -1.8822 C   0  0  0  0  0  0  0  0  0  0  0  0
    0.4432   -1.0092   -2.9455 C   0  0  0  0  0  0  0  0  0  0  0  0
   -0.2402   -2.2277   -3.0266 C   0  0  0  0  0  0  0  0  0  0  0  0
   -0.5751   -4.1636   -2.1339 H   0  0  0  0  0  0  0  0  0  0  0  0
    0.9696   -3.7423   -0.2231 H   0  0  0  0  0  0  0  0  0  0  0  0
    2.2183   -1.6025   -0.0921 H   0  0  0  0  0  0  0  0  0  0  0  0
    1.8700    0.1616   -1.8254 H   0  0  0  0  0  0  0  0  0  0  0  0
    0.3141   -0.2602   -3.7208 H   0  0  0  0  0  0  0  0  0  0  0  0
   -0.9106   -2.4137   -3.8606 H   0  0  0  0  0  0  0  0  0  0  0  0
    0.9058   -2.8918    3.4966 S   0  0  0  0  0  0  0  0  0  0  0  0
    1.6931   -3.3670    2.3781 O   0  0  0  0  0  0  0  0  0  0  0  0
   -0.0376   -1.7676    3.3116 O   0  0  0  0  0  0  0  0  0  0  0  0
    0.1133   -4.1419    4.1210 O   0  0  0  0  0  0  0  0  0  0  0  0
    2.0371   -2.4184    4.9209 C   0  0  0  0  0  0  0  0  0  0  0  0
    1.2773   -2.2093    5.9898 F   0  0  0  0  0  0  0  0  0  0  0  0
    2.8888   -3.4025    5.1320 F   0  0  0  0  0  0  0  0  0  0  0  0
    2.6693   -1.3083    4.5704 F   0  0  0  0  0  0  0  0  0  0  0  0
    0.2856   -1.0167   -0.0226 H   0  0  0  0  0  0  0  0  0  0  0  0
  1  3  1  0  0  0  0
  2  1  1  0  0  0  0
  3  4  1  0  0  0  0
  6  7  2  0  0  0  0
  7  8  1  0  0  0  0
  7 13  1  0  0  0  0
  8 14  1  0  0  0  0
  9 15  1  0  0  0  0
  9  8  2  0  0  0  0
 10  9  1  0  0  0  0
 11 10  2  0  0  0  0
 11  6  1  0  0  0  0
 12  6  1  0  0  0  0
 16 10  1  0  0  0  0
 17 11  1  0  0  0  0
 18 21  1  0  0  0  0
 18 22  1  0  0  0  0
 19 18  2  0  0  0  0
 20 18  2  0  0  0  0
 21  5  1  0  0  0  0
 22 24  1  0  0  0  0
 22 23  1  0  0  0  0
 25 22  1  0  0  0  0
 26  3  1  0  0  0  0
M  RAD  2   1   2   2   3
M  END
