Coordinates from ORCA-job C6H6+HOTf+NH2N2+-scan
 OpenBabel10221816143D

 26 24  0  0  0  0  0  0  0  0999 V2000
   -2.0696   -2.4413    0.5468 N   0  0  0  0  0  0  0  0  0  0  0  0
   -3.1076   -2.8227    0.3484 N   0  0  0  0  0  0  0  0  0  0  0  0
   -0.9071   -1.9946    0.7562 N   0  0  0  0  0  0  0  0  0  0  0  0
   -0.5223   -2.0462    1.7410 H   0  0  0  0  0  0  0  0  0  0  0  0
    1.6647   -3.4204    4.7494 H   0  0  0  0  0  0  0  0  0  0  0  0
   -0.2244   -1.4075   -2.3931 C   0  0  0  0  0  0  0  0  0  0  0  0
   -0.2779   -2.7590   -2.7499 C   0  0  0  0  0  0  0  0  0  0  0  0
    0.6939   -3.6467   -2.2741 C   0  0  0  0  0  0  0  0  0  0  0  0
    1.7167   -3.1909   -1.4367 C   0  0  0  0  0  0  0  0  0  0  0  0
    1.7745   -1.8420   -1.0720 C   0  0  0  0  0  0  0  0  0  0  0  0
    0.8002   -0.9468   -1.5473 C   0  0  0  0  0  0  0  0  0  0  0  0
   -0.9595   -0.7087   -2.7832 H   0  0  0  0  0  0  0  0  0  0  0  0
   -1.0602   -3.1146   -3.4143 H   0  0  0  0  0  0  0  0  0  0  0  0
    0.6581   -4.6926   -2.5647 H   0  0  0  0  0  0  0  0  0  0  0  0
    2.4747   -3.8815   -1.0792 H   0  0  0  0  0  0  0  0  0  0  0  0
    2.5690   -1.4829   -0.4248 H   0  0  0  0  0  0  0  0  0  0  0  0
    0.8656    0.1092   -1.2978 H   0  0  0  0  0  0  0  0  0  0  0  0
    1.5091   -1.6696    3.4919 S   0  0  0  0  0  0  0  0  0  0  0  0
    2.3330   -1.1981    2.4016 O   0  0  0  0  0  0  0  0  0  0  0  0
    0.1099   -2.0899    3.2380 O   0  0  0  0  0  0  0  0  0  0  0  0
    2.2803   -2.8693    4.2296 O   0  0  0  0  0  0  0  0  0  0  0  0
    1.4329   -0.3778    4.8556 C   0  0  0  0  0  0  0  0  0  0  0  0
    0.8691   -0.9432    5.9171 F   0  0  0  0  0  0  0  0  0  0  0  0
    2.6590    0.0221    5.1286 F   0  0  0  0  0  0  0  0  0  0  0  0
    0.6921    0.6249    4.4089 F   0  0  0  0  0  0  0  0  0  0  0  0
   -0.3517   -1.6877   -0.0858 H   0  0  0  0  0  0  0  0  0  0  0  0
  1  3  1  0  0  0  0
  2  1  1  0  0  0  0
  3  4  1  0  0  0  0
  6 11  1  0  0  0  0
  7  6  2  0  0  0  0
  7  8  1  0  0  0  0
  8  9  2  0  0  0  0
  9 15  1  0  0  0  0
  9 10  1  0  0  0  0
 10 16  1  0  0  0  0
 11 17  1  0  0  0  0
 11 10  2  0  0  0  0
 12  6  1  0  0  0  0
 13  7  1  0  0  0  0
 14  8  1  0  0  0  0
 18 21  1  0  0  0  0
 18 22  1  0  0  0  0
 19 18  2  0  0  0  0
 20 18  2  0  0  0  0
 21  5  1  0  0  0  0
 22 24  1  0  0  0  0
 22 23  1  0  0  0  0
 25 22  1  0  0  0  0
 26  3  1  0  0  0  0
M  RAD  2   1   2   2   3
M  END
