Coordinates from ORCA-job C6H6+HOTf+NH2N2+-scan
 OpenBabel10221816143D

 26 24  0  0  0  0  0  0  0  0999 V2000
   -0.1124    0.8281    1.2263 N   0  0  0  0  0  0  0  0  0  0  0  0
   -0.2279    1.7937    1.7853 N   0  0  0  0  0  0  0  0  0  0  0  0
    0.3418   -0.1642    0.4523 N   0  0  0  0  0  0  0  0  0  0  0  0
    0.3541   -1.0341    1.0330 H   0  0  0  0  0  0  0  0  0  0  0  0
   -1.3384   -3.6399    3.7216 H   0  0  0  0  0  0  0  0  0  0  0  0
    0.6861   -3.2391   -1.1491 C   0  0  0  0  0  0  0  0  0  0  0  0
    1.6431   -2.3233   -0.6950 C   0  0  0  0  0  0  0  0  0  0  0  0
    1.6556   -1.0148   -1.1948 C   0  0  0  0  0  0  0  0  0  0  0  0
    0.7818   -0.6631   -2.2430 C   0  0  0  0  0  0  0  0  0  0  0  0
   -0.1803   -1.5762   -2.6854 C   0  0  0  0  0  0  0  0  0  0  0  0
   -0.2344   -2.8632   -2.1306 C   0  0  0  0  0  0  0  0  0  0  0  0
    0.6737   -4.2465   -0.7444 H   0  0  0  0  0  0  0  0  0  0  0  0
    2.3644   -2.6286    0.0570 H   0  0  0  0  0  0  0  0  0  0  0  0
    2.4359   -0.3248   -0.8900 H   0  0  0  0  0  0  0  0  0  0  0  0
    0.8488    0.3220   -2.6981 H   0  0  0  0  0  0  0  0  0  0  0  0
   -0.8672   -1.2981   -3.4793 H   0  0  0  0  0  0  0  0  0  0  0  0
   -0.9754   -3.5739   -2.4837 H   0  0  0  0  0  0  0  0  0  0  0  0
    0.6672   -3.2168    3.0311 S   0  0  0  0  0  0  0  0  0  0  0  0
    1.5824   -3.9917    2.2255 O   0  0  0  0  0  0  0  0  0  0  0  0
    0.1454   -1.9159    2.5602 O   0  0  0  0  0  0  0  0  0  0  0  0
   -0.5748   -4.1643    3.4161 O   0  0  0  0  0  0  0  0  0  0  0  0
    1.4204   -2.8929    4.7203 C   0  0  0  0  0  0  0  0  0  0  0  0
    0.4592   -2.4171    5.5087 F   0  0  0  0  0  0  0  0  0  0  0  0
    1.9048   -4.0210    5.1995 F   0  0  0  0  0  0  0  0  0  0  0  0
    2.3795   -1.9913    4.5631 F   0  0  0  0  0  0  0  0  0  0  0  0
   -0.2107   -0.2209   -0.4162 H   0  0  0  0  0  0  0  0  0  0  0  0
  1  2  1  0  0  0  0
  3  4  1  0  0  0  0
  3  1  1  0  0  0  0
  6 12  1  0  0  0  0
  6  7  1  0  0  0  0
  7 13  1  0  0  0  0
  8 14  1  0  0  0  0
  8  7  2  0  0  0  0
  9  8  1  0  0  0  0
 10  9  2  0  0  0  0
 10 11  1  0  0  0  0
 11  6  2  0  0  0  0
 15  9  1  0  0  0  0
 16 10  1  0  0  0  0
 17 11  1  0  0  0  0
 18 21  1  0  0  0  0
 18 22  1  0  0  0  0
 19 18  2  0  0  0  0
 20 18  2  0  0  0  0
 21  5  1  0  0  0  0
 22 24  1  0  0  0  0
 22 23  1  0  0  0  0
 25 22  1  0  0  0  0
 26  3  1  0  0  0  0
M  RAD  2   1   2   2   3
M  END
