Coordinates from ORCA-job C6H6+HOTf+NH2N2+-scan
 OpenBabel10221816143D

 26 24  0  0  0  0  0  0  0  0999 V2000
   -3.2425   -2.9760    2.3932 N   0  0  0  0  0  0  0  0  0  0  0  0
   -4.3541   -2.9160    2.5253 N   0  0  0  0  0  0  0  0  0  0  0  0
   -1.9773   -3.0558    2.3119 N   0  0  0  0  0  0  0  0  0  0  0  0
   -1.3713   -2.4863    3.0081 H   0  0  0  0  0  0  0  0  0  0  0  0
    1.2752   -1.9686    5.7776 H   0  0  0  0  0  0  0  0  0  0  0  0
    0.6108   -0.9549   -2.2172 C   0  0  0  0  0  0  0  0  0  0  0  0
    0.8359   -1.5984   -3.4368 C   0  0  0  0  0  0  0  0  0  0  0  0
    1.5486   -2.8001   -3.4731 C   0  0  0  0  0  0  0  0  0  0  0  0
    2.0296   -3.3625   -2.2876 C   0  0  0  0  0  0  0  0  0  0  0  0
    1.8058   -2.7200   -1.0664 C   0  0  0  0  0  0  0  0  0  0  0  0
    1.0980   -1.5149   -1.0328 C   0  0  0  0  0  0  0  0  0  0  0  0
    0.0700   -0.0123   -2.1940 H   0  0  0  0  0  0  0  0  0  0  0  0
    0.4647   -1.1592   -4.3584 H   0  0  0  0  0  0  0  0  0  0  0  0
    1.7302   -3.2957   -4.4224 H   0  0  0  0  0  0  0  0  0  0  0  0
    2.5879   -4.2941   -2.3163 H   0  0  0  0  0  0  0  0  0  0  0  0
    2.1978   -3.1476   -0.1470 H   0  0  0  0  0  0  0  0  0  0  0  0
    0.9516   -0.9949   -0.0882 H   0  0  0  0  0  0  0  0  0  0  0  0
    1.0303   -1.8441    3.6320 S   0  0  0  0  0  0  0  0  0  0  0  0
    1.4516   -2.7272    2.5682 O   0  0  0  0  0  0  0  0  0  0  0  0
   -0.4273   -1.6977    3.9094 O   0  0  0  0  0  0  0  0  0  0  0  0
    1.7698   -2.2622    4.9880 O   0  0  0  0  0  0  0  0  0  0  0  0
    1.6900   -0.1035    3.3458 C   0  0  0  0  0  0  0  0  0  0  0  0
    1.4473    0.6063    4.4389 F   0  0  0  0  0  0  0  0  0  0  0  0
    2.9806   -0.1798    3.1011 F   0  0  0  0  0  0  0  0  0  0  0  0
    1.0316    0.3921    2.3070 F   0  0  0  0  0  0  0  0  0  0  0  0
   -1.6120   -3.4048    1.4241 H   0  0  0  0  0  0  0  0  0  0  0  0
  1  2  1  0  0  0  0
  3  1  1  0  0  0  0
  3  4  1  0  0  0  0
  6 12  1  0  0  0  0
  6 11  2  0  0  0  0
  7  6  1  0  0  0  0
  8  7  2  0  0  0  0
  8  9  1  0  0  0  0
  9 10  2  0  0  0  0
 10 11  1  0  0  0  0
 10 16  1  0  0  0  0
 11 17  1  0  0  0  0
 13  7  1  0  0  0  0
 14  8  1  0  0  0  0
 15  9  1  0  0  0  0
 18 20  2  0  0  0  0
 18 21  1  0  0  0  0
 19 18  2  0  0  0  0
 21  5  1  0  0  0  0
 22 18  1  0  0  0  0
 22 23  1  0  0  0  0
 24 22  1  0  0  0  0
 25 22  1  0  0  0  0
 26  3  1  0  0  0  0
M  RAD  2   1   2   2   3
M  END
