Coordinates from ORCA-job C6H6+HOTf+NH2N2+-scan
 OpenBabel10221816143D

 26 24  0  0  0  0  0  0  0  0999 V2000
   -2.0239   -2.4712    0.4306 N   0  0  0  0  0  0  0  0  0  0  0  0
   -3.0505   -2.8844    0.2374 N   0  0  0  0  0  0  0  0  0  0  0  0
   -0.8730   -1.9999    0.6474 N   0  0  0  0  0  0  0  0  0  0  0  0
   -0.4887   -2.0554    1.6322 H   0  0  0  0  0  0  0  0  0  0  0  0
    1.5638   -3.5216    4.6905 H   0  0  0  0  0  0  0  0  0  0  0  0
   -0.2382   -1.4066   -2.4375 C   0  0  0  0  0  0  0  0  0  0  0  0
   -0.3166   -2.7986   -2.5628 C   0  0  0  0  0  0  0  0  0  0  0  0
    0.6461   -3.6100   -1.9517 C   0  0  0  0  0  0  0  0  0  0  0  0
    1.6946   -3.0370   -1.2253 C   0  0  0  0  0  0  0  0  0  0  0  0
    1.7774   -1.6467   -1.0943 C   0  0  0  0  0  0  0  0  0  0  0  0
    0.8053   -0.8287   -1.6942 C   0  0  0  0  0  0  0  0  0  0  0  0
   -0.9714   -0.7709   -2.9261 H   0  0  0  0  0  0  0  0  0  0  0  0
   -1.1130   -3.2469   -3.1502 H   0  0  0  0  0  0  0  0  0  0  0  0
    0.5899   -4.6894   -2.0604 H   0  0  0  0  0  0  0  0  0  0  0  0
    2.4500   -3.6693   -0.7684 H   0  0  0  0  0  0  0  0  0  0  0  0
    2.5892   -1.1998   -0.5289 H   0  0  0  0  0  0  0  0  0  0  0  0
    0.8789    0.2522   -1.6124 H   0  0  0  0  0  0  0  0  0  0  0  0
    1.5256   -1.7634    3.4336 S   0  0  0  0  0  0  0  0  0  0  0  0
    2.4042   -1.3243    2.3733 O   0  0  0  0  0  0  0  0  0  0  0  0
    0.1164   -2.1169    3.1362 O   0  0  0  0  0  0  0  0  0  0  0  0
    2.2179   -3.0020    4.1856 O   0  0  0  0  0  0  0  0  0  0  0  0
    1.4657   -0.4785    4.8045 C   0  0  0  0  0  0  0  0  0  0  0  0
    0.8472   -1.0259    5.8449 F   0  0  0  0  0  0  0  0  0  0  0  0
    2.6994   -0.1341    5.1161 F   0  0  0  0  0  0  0  0  0  0  0  0
    0.7824    0.5586    4.3449 F   0  0  0  0  0  0  0  0  0  0  0  0
   -0.3562   -1.6071   -0.1748 H   0  0  0  0  0  0  0  0  0  0  0  0
  1  3  1  0  0  0  0
  2  1  1  0  0  0  0
  3  4  1  0  0  0  0
  6 11  1  0  0  0  0
  7  6  2  0  0  0  0
  7  8  1  0  0  0  0
  8  9  2  0  0  0  0
  9 10  1  0  0  0  0
  9 15  1  0  0  0  0
 10 16  1  0  0  0  0
 11 17  1  0  0  0  0
 11 10  2  0  0  0  0
 12  6  1  0  0  0  0
 13  7  1  0  0  0  0
 14  8  1  0  0  0  0
 18 21  1  0  0  0  0
 18 22  1  0  0  0  0
 19 18  2  0  0  0  0
 20 18  2  0  0  0  0
 21  5  1  0  0  0  0
 22 24  1  0  0  0  0
 22 23  1  0  0  0  0
 25 22  1  0  0  0  0
 26  3  1  0  0  0  0
M  RAD  2   1   2   2   3
M  END
