Coordinates from ORCA-job C6H6+HOTf+NH2N2+-scan
 OpenBabel10221816143D

 26 24  0  0  0  0  0  0  0  0999 V2000
   -0.7686    0.4295    0.5890 N   0  0  0  0  0  0  0  0  0  0  0  0
   -1.4153    1.3307    0.4100 N   0  0  0  0  0  0  0  0  0  0  0  0
   -0.0439   -0.5897    0.7643 N   0  0  0  0  0  0  0  0  0  0  0  0
   -0.0657   -1.0571    1.7130 H   0  0  0  0  0  0  0  0  0  0  0  0
   -0.9701   -3.8643    4.3462 H   0  0  0  0  0  0  0  0  0  0  0  0
    0.1764   -3.2030   -1.6449 C   0  0  0  0  0  0  0  0  0  0  0  0
    1.3873   -2.8157   -1.0641 C   0  0  0  0  0  0  0  0  0  0  0  0
    1.9149   -1.5405   -1.3332 C   0  0  0  0  0  0  0  0  0  0  0  0
    1.2329   -0.6652   -2.1970 C   0  0  0  0  0  0  0  0  0  0  0  0
    0.0196   -1.0590   -2.7716 C   0  0  0  0  0  0  0  0  0  0  0  0
   -0.5046   -2.3266   -2.4961 C   0  0  0  0  0  0  0  0  0  0  0  0
   -0.2288   -4.1904   -1.4448 H   0  0  0  0  0  0  0  0  0  0  0  0
    1.9215   -3.4940   -0.4059 H   0  0  0  0  0  0  0  0  0  0  0  0
    2.8769   -1.2526   -0.9167 H   0  0  0  0  0  0  0  0  0  0  0  0
    1.6597    0.3066   -2.4309 H   0  0  0  0  0  0  0  0  0  0  0  0
   -0.5033   -0.3905   -3.4494 H   0  0  0  0  0  0  0  0  0  0  0  0
   -1.4400   -2.6347   -2.9540 H   0  0  0  0  0  0  0  0  0  0  0  0
    0.7810   -2.9862    3.4330 S   0  0  0  0  0  0  0  0  0  0  0  0
    1.6802   -3.4827    2.4159 O   0  0  0  0  0  0  0  0  0  0  0  0
   -0.0672   -1.8006    3.1629 O   0  0  0  0  0  0  0  0  0  0  0  0
   -0.1617   -4.1954    3.9106 O   0  0  0  0  0  0  0  0  0  0  0  0
    1.7299   -2.6052    5.0104 C   0  0  0  0  0  0  0  0  0  0  0  0
    0.8419   -2.3824    5.9728 F   0  0  0  0  0  0  0  0  0  0  0  0
    2.4955   -3.6374    5.3039 F   0  0  0  0  0  0  0  0  0  0  0  0
    2.4565   -1.5216    4.7826 F   0  0  0  0  0  0  0  0  0  0  0  0
    0.6176   -0.8499   -0.0158 H   0  0  0  0  0  0  0  0  0  0  0  0
  1  3  1  0  0  0  0
  2  1  1  0  0  0  0
  3  4  1  0  0  0  0
  6 12  1  0  0  0  0
  6  7  2  0  0  0  0
  7 13  1  0  0  0  0
  8  7  1  0  0  0  0
  8 14  1  0  0  0  0
  9  8  2  0  0  0  0
 10 11  2  0  0  0  0
 10  9  1  0  0  0  0
 11  6  1  0  0  0  0
 15  9  1  0  0  0  0
 16 10  1  0  0  0  0
 17 11  1  0  0  0  0
 18 21  1  0  0  0  0
 18 22  1  0  0  0  0
 19 18  2  0  0  0  0
 20 18  2  0  0  0  0
 21  5  1  0  0  0  0
 22 24  1  0  0  0  0
 22 23  1  0  0  0  0
 25 22  1  0  0  0  0
 26  3  1  0  0  0  0
M  RAD  2   1   2   2   3
M  END
