Coordinates from ORCA-job C6H6+HOTf+NH2N2+-scan
 OpenBabel10221816143D

 26 24  0  0  0  0  0  0  0  0999 V2000
   -2.0588   -2.6215    0.6440 N   0  0  0  0  0  0  0  0  0  0  0  0
   -3.0662   -3.0687    0.4259 N   0  0  0  0  0  0  0  0  0  0  0  0
   -0.9338   -2.0928    0.8696 N   0  0  0  0  0  0  0  0  0  0  0  0
   -0.5693   -2.0990    1.8630 H   0  0  0  0  0  0  0  0  0  0  0  0
    1.7020   -3.2565    4.9038 H   0  0  0  0  0  0  0  0  0  0  0  0
   -0.1639   -1.3362   -2.2988 C   0  0  0  0  0  0  0  0  0  0  0  0
   -0.2488   -2.5906   -2.9103 C   0  0  0  0  0  0  0  0  0  0  0  0
    0.6827   -3.5868   -2.5956 C   0  0  0  0  0  0  0  0  0  0  0  0
    1.6914   -3.3394   -1.6592 C   0  0  0  0  0  0  0  0  0  0  0  0
    1.7806   -2.0891   -1.0404 C   0  0  0  0  0  0  0  0  0  0  0  0
    0.8511   -1.0827   -1.3585 C   0  0  0  0  0  0  0  0  0  0  0  0
   -0.8640   -0.5492   -2.5661 H   0  0  0  0  0  0  0  0  0  0  0  0
   -1.0230   -2.7838   -3.6471 H   0  0  0  0  0  0  0  0  0  0  0  0
    0.6238   -4.5549   -3.0845 H   0  0  0  0  0  0  0  0  0  0  0  0
    2.4158   -4.1134   -1.4239 H   0  0  0  0  0  0  0  0  0  0  0  0
    2.5689   -1.8861   -0.3215 H   0  0  0  0  0  0  0  0  0  0  0  0
    0.9565   -0.0910   -0.9246 H   0  0  0  0  0  0  0  0  0  0  0  0
    1.4695   -1.5904    3.5472 S   0  0  0  0  0  0  0  0  0  0  0  0
    2.2496   -1.1727    2.4032 O   0  0  0  0  0  0  0  0  0  0  0  0
    0.0745   -2.0564    3.3600 O   0  0  0  0  0  0  0  0  0  0  0  0
    2.2900   -2.7226    4.3362 O   0  0  0  0  0  0  0  0  0  0  0  0
    1.4034   -0.2140    4.8264 C   0  0  0  0  0  0  0  0  0  0  0  0
    0.8809   -0.7197    5.9376 F   0  0  0  0  0  0  0  0  0  0  0  0
    2.6279    0.2262    5.0374 F   0  0  0  0  0  0  0  0  0  0  0  0
    0.6299    0.7427    4.3366 F   0  0  0  0  0  0  0  0  0  0  0  0
   -0.3479   -1.8293    0.0295 H   0  0  0  0  0  0  0  0  0  0  0  0
  1  3  1  0  0  0  0
  2  1  1  0  0  0  0
  3  4  1  0  0  0  0
  6 11  2  0  0  0  0
  7  8  2  0  0  0  0
  7  6  1  0  0  0  0
  8  9  1  0  0  0  0
  9 15  1  0  0  0  0
  9 10  2  0  0  0  0
 10 16  1  0  0  0  0
 11 10  1  0  0  0  0
 11 17  1  0  0  0  0
 12  6  1  0  0  0  0
 13  7  1  0  0  0  0
 14  8  1  0  0  0  0
 18 21  1  0  0  0  0
 18 22  1  0  0  0  0
 19 18  2  0  0  0  0
 20 18  2  0  0  0  0
 21  5  1  0  0  0  0
 22 24  1  0  0  0  0
 22 23  1  0  0  0  0
 25 22  1  0  0  0  0
 26  3  1  0  0  0  0
M  RAD  2   1   2   2   3
M  END
