Coordinates from ORCA-job C6H6+HOTf+NH2N2+-scan
 OpenBabel10221816143D

 26 25  0  0  1  0  0  0  0  0999 V2000
   -2.9204   -1.0063    6.0648 N   0  0  0  0  0  0  0  0  0  0  0  0
   -2.1816   -1.5680    5.4672 N   0  0  0  0  0  0  0  0  0  0  0  0
    0.5402   -1.0033   -0.3079 N   0  0  0  0  0  0  0  0  0  0  0  0
    0.4684   -1.0111    0.7172 H   0  0  0  0  0  0  0  0  0  0  0  0
   -0.8969   -2.6280    4.4430 H   0  0  0  0  0  0  0  0  0  0  0  0
   -0.6559   -1.6200   -2.4589 C   0  0  0  0  0  0  0  0  0  0  0  0
   -0.2156   -2.0332   -1.0998 C   0  0  1  0  0  0  0  0  0  0  0  0
    1.2011   -2.5073   -0.9703 C   0  0  1  0  0  0  0  0  0  0  0  0
    2.1063   -2.3663   -2.0932 C   0  0  0  0  0  0  0  0  0  0  0  0
    1.6432   -1.8783   -3.2716 C   0  0  0  0  0  0  0  0  0  0  0  0
    0.2432   -1.5154   -3.4593 C   0  0  0  0  0  0  0  0  0  0  0  0
   -1.7132   -1.4388   -2.6212 H   0  0  0  0  0  0  0  0  0  0  0  0
   -0.9720   -2.5130   -0.4824 H   0  0  0  0  0  0  0  0  0  0  0  0
    1.4675   -3.0913   -0.0950 H   0  0  0  0  0  0  0  0  0  0  0  0
    3.1311   -2.7011   -1.9758 H   0  0  0  0  0  0  0  0  0  0  0  0
    2.3141   -1.7945   -4.1215 H   0  0  0  0  0  0  0  0  0  0  0  0
   -0.0790   -1.2091   -4.4496 H   0  0  0  0  0  0  0  0  0  0  0  0
    0.7982   -2.5333    3.0979 S   0  0  0  0  0  0  0  0  0  0  0  0
    1.3734   -3.5194    2.1990 O   0  0  0  0  0  0  0  0  0  0  0  0
    0.2362   -1.2885    2.5470 O   0  0  0  0  0  0  0  0  0  0  0  0
   -0.2864   -3.2676    4.0097 O   0  0  0  0  0  0  0  0  0  0  0  0
    2.0821   -2.0453    4.3724 C   0  0  0  0  0  0  0  0  0  0  0  0
    1.4745   -1.3255    5.3119 F   0  0  0  0  0  0  0  0  0  0  0  0
    2.6154   -3.1358    4.8925 F   0  0  0  0  0  0  0  0  0  0  0  0
    3.0050   -1.3183    3.7554 F   0  0  0  0  0  0  0  0  0  0  0  0
    0.8438   -0.1594   -0.7813 H   0  0  0  0  0  0  0  0  0  0  0  0
  2  1  3  0  0  0  0
  3  4  1  0  0  0  0
  6  7  1  0  0  0  0
  7  8  1  0  0  0  0
  7 13  1  1  0  0  0
  7  3  1  0  0  0  0
  8  3  1  0  0  0  0
  8 14  1  1  0  0  0
  9 15  1  0  0  0  0
  9  8  1  0  0  0  0
 10  9  2  0  0  0  0
 11 10  1  0  0  0  0
 11  6  2  0  0  0  0
 12  6  1  0  0  0  0
 16 10  1  0  0  0  0
 17 11  1  0  0  0  0
 18 21  1  0  0  0  0
 18 22  1  0  0  0  0
 19 18  2  0  0  0  0
 20 18  2  0  0  0  0
 21  5  1  0  0  0  0
 22 24  1  0  0  0  0
 22 23  1  0  0  0  0
 25 22  1  0  0  0  0
 26  3  1  0  0  0  0
M  END
