Coordinates from ORCA-job C6H6+HOTf+NH2N2+-scan
 OpenBabel10221816143D

 26 24  0  0  0  0  0  0  0  0999 V2000
   -2.1395   -2.6807    0.7964 N   0  0  0  0  0  0  0  0  0  0  0  0
   -3.1465   -3.1358    0.5935 N   0  0  0  0  0  0  0  0  0  0  0  0
   -1.0169   -2.1341    0.9957 N   0  0  0  0  0  0  0  0  0  0  0  0
   -0.6414   -2.1177    1.9848 H   0  0  0  0  0  0  0  0  0  0  0  0
    1.7478   -3.1401    4.9896 H   0  0  0  0  0  0  0  0  0  0  0  0
   -0.1180   -1.3364   -2.2466 C   0  0  0  0  0  0  0  0  0  0  0  0
   -0.1512   -2.4685   -3.0646 C   0  0  0  0  0  0  0  0  0  0  0  0
    0.7664   -3.5060   -2.8619 C   0  0  0  0  0  0  0  0  0  0  0  0
    1.7048   -3.4258   -1.8278 C   0  0  0  0  0  0  0  0  0  0  0  0
    1.7435   -2.2979   -1.0039 C   0  0  0  0  0  0  0  0  0  0  0  0
    0.8320   -1.2467   -1.2126 C   0  0  0  0  0  0  0  0  0  0  0  0
   -0.8030   -0.5123   -2.4273 H   0  0  0  0  0  0  0  0  0  0  0  0
   -0.8735   -2.5326   -3.8729 H   0  0  0  0  0  0  0  0  0  0  0  0
    0.7491   -4.3768   -3.5107 H   0  0  0  0  0  0  0  0  0  0  0  0
    2.4170   -4.2316   -1.6774 H   0  0  0  0  0  0  0  0  0  0  0  0
    2.4860   -2.2164   -0.2153 H   0  0  0  0  0  0  0  0  0  0  0  0
    0.9218   -0.3304   -0.6319 H   0  0  0  0  0  0  0  0  0  0  0  0
    1.4387   -1.5374    3.5734 S   0  0  0  0  0  0  0  0  0  0  0  0
    2.1640   -1.1659    2.3777 O   0  0  0  0  0  0  0  0  0  0  0  0
    0.0429   -2.0251    3.4654 O   0  0  0  0  0  0  0  0  0  0  0  0
    2.3054   -2.6236    4.3769 O   0  0  0  0  0  0  0  0  0  0  0  0
    1.4127   -0.1026    4.7887 C   0  0  0  0  0  0  0  0  0  0  0  0
    0.9416   -0.5595    5.9429 F   0  0  0  0  0  0  0  0  0  0  0  0
    2.6407    0.3561    4.9272 F   0  0  0  0  0  0  0  0  0  0  0  0
    0.6105    0.8238    4.2871 F   0  0  0  0  0  0  0  0  0  0  0  0
   -0.4122   -1.9542    0.1438 H   0  0  0  0  0  0  0  0  0  0  0  0
  1  3  1  0  0  0  0
  2  1  1  0  0  0  0
  3  4  1  0  0  0  0
  6 11  2  0  0  0  0
  7  8  2  0  0  0  0
  7  6  1  0  0  0  0
  8  9  1  0  0  0  0
  9 15  1  0  0  0  0
  9 10  2  0  0  0  0
 10 16  1  0  0  0  0
 11 10  1  0  0  0  0
 11 17  1  0  0  0  0
 12  6  1  0  0  0  0
 13  7  1  0  0  0  0
 14  8  1  0  0  0  0
 18 21  1  0  0  0  0
 18 22  1  0  0  0  0
 19 18  2  0  0  0  0
 20 18  2  0  0  0  0
 21  5  1  0  0  0  0
 22 24  1  0  0  0  0
 22 23  1  0  0  0  0
 25 22  1  0  0  0  0
 26  3  1  0  0  0  0
M  RAD  2   1   2   2   3
M  END
