Coordinates from ORCA-job C6H6+HOTf+NH2N2+-scan
 OpenBabel10221816143D

 26 24  0  0  0  0  0  0  0  0999 V2000
   -2.0689   -2.6219    0.6631 N   0  0  0  0  0  0  0  0  0  0  0  0
   -3.0777   -3.0664    0.4458 N   0  0  0  0  0  0  0  0  0  0  0  0
   -0.9421   -2.0960    0.8862 N   0  0  0  0  0  0  0  0  0  0  0  0
   -0.5768   -2.1003    1.8792 H   0  0  0  0  0  0  0  0  0  0  0  0
    1.7159   -3.2425    4.9105 H   0  0  0  0  0  0  0  0  0  0  0  0
   -0.1588   -1.3386   -2.2942 C   0  0  0  0  0  0  0  0  0  0  0  0
   -0.2376   -2.5792   -2.9333 C   0  0  0  0  0  0  0  0  0  0  0  0
    0.6922   -3.5814   -2.6336 C   0  0  0  0  0  0  0  0  0  0  0  0
    1.6923   -3.3540   -1.6829 C   0  0  0  0  0  0  0  0  0  0  0  0
    1.7759   -2.1176   -1.0366 C   0  0  0  0  0  0  0  0  0  0  0  0
    0.8491   -1.1043   -1.3411 C   0  0  0  0  0  0  0  0  0  0  0  0
   -0.8567   -0.5463   -2.5514 H   0  0  0  0  0  0  0  0  0  0  0  0
   -1.0059   -2.7566   -3.6802 H   0  0  0  0  0  0  0  0  0  0  0  0
    0.6384   -4.5384   -3.1443 H   0  0  0  0  0  0  0  0  0  0  0  0
    2.4153   -4.1325   -1.4584 H   0  0  0  0  0  0  0  0  0  0  0  0
    2.5593   -1.9295   -0.3083 H   0  0  0  0  0  0  0  0  0  0  0  0
    0.9539   -0.1204   -0.8892 H   0  0  0  0  0  0  0  0  0  0  0  0
    1.4664   -1.5801    3.5524 S   0  0  0  0  0  0  0  0  0  0  0  0
    2.2371   -1.1608    2.4025 O   0  0  0  0  0  0  0  0  0  0  0  0
    0.0727   -2.0535    3.3747 O   0  0  0  0  0  0  0  0  0  0  0  0
    2.2976   -2.7062    4.3387 O   0  0  0  0  0  0  0  0  0  0  0  0
    1.4015   -0.2009    4.8288 C   0  0  0  0  0  0  0  0  0  0  0  0
    0.8884   -0.7066    5.9444 F   0  0  0  0  0  0  0  0  0  0  0  0
    2.6251    0.2457    5.0312 F   0  0  0  0  0  0  0  0  0  0  0  0
    0.6203    0.7508    4.3416 F   0  0  0  0  0  0  0  0  0  0  0  0
   -0.3541   -1.8406    0.0446 H   0  0  0  0  0  0  0  0  0  0  0  0
  1  3  1  0  0  0  0
  2  1  1  0  0  0  0
  3  4  1  0  0  0  0
  6 11  2  0  0  0  0
  7  8  2  0  0  0  0
  7  6  1  0  0  0  0
  8  9  1  0  0  0  0
  9 15  1  0  0  0  0
  9 10  2  0  0  0  0
 10 16  1  0  0  0  0
 11 10  1  0  0  0  0
 11 17  1  0  0  0  0
 12  6  1  0  0  0  0
 13  7  1  0  0  0  0
 14  8  1  0  0  0  0
 18 21  1  0  0  0  0
 18 22  1  0  0  0  0
 19 18  2  0  0  0  0
 20 18  2  0  0  0  0
 21  5  1  0  0  0  0
 22 24  1  0  0  0  0
 22 23  1  0  0  0  0
 25 22  1  0  0  0  0
 26  3  1  0  0  0  0
M  RAD  2   1   2   2   3
M  END
