Coordinates from ORCA-job C6H6+HOTf+NH2N2+-scan
 OpenBabel10221816143D

 26 24  0  0  0  0  0  0  0  0999 V2000
   -2.0976    0.5276    5.8683 N   0  0  0  0  0  0  0  0  0  0  0  0
   -1.7278   -0.3289    5.2784 N   0  0  0  0  0  0  0  0  0  0  0  0
    0.7583   -1.3336   -0.3712 N   0  0  0  0  0  0  0  0  0  0  0  0
    0.6482   -1.2969    0.6768 H   0  0  0  0  0  0  0  0  0  0  0  0
   -1.1536   -1.8947    4.2890 H   0  0  0  0  0  0  0  0  0  0  0  0
   -0.3482   -2.6014   -2.2081 C   0  0  0  0  0  0  0  0  0  0  0  0
    0.4129   -2.6686   -0.9773 C   0  0  0  0  0  0  0  0  0  0  0  0
    1.6482   -1.7101   -0.8540 C   0  0  0  0  0  0  0  0  0  0  0  0
    2.1434   -1.1814   -2.1619 C   0  0  0  0  0  0  0  0  0  0  0  0
    1.2955   -1.0964   -3.2129 C   0  0  0  0  0  0  0  0  0  0  0  0
    0.0097   -1.7676   -3.2187 C   0  0  0  0  0  0  0  0  0  0  0  0
   -1.1969   -3.2723   -2.2937 H   0  0  0  0  0  0  0  0  0  0  0  0
    0.3038   -3.4169   -0.2044 H   0  0  0  0  0  0  0  0  0  0  0  0
    2.4840   -2.0690   -0.2398 H   0  0  0  0  0  0  0  0  0  0  0  0
    3.1912   -0.9135   -2.2361 H   0  0  0  0  0  0  0  0  0  0  0  0
    1.6315   -0.6356   -4.1373 H   0  0  0  0  0  0  0  0  0  0  0  0
   -0.6054   -1.7065   -4.1101 H   0  0  0  0  0  0  0  0  0  0  0  0
    0.3714   -2.7535    3.0034 S   0  0  0  0  0  0  0  0  0  0  0  0
    0.3844   -3.9328    2.1596 O   0  0  0  0  0  0  0  0  0  0  0  0
    0.5504   -1.4226    2.3791 O   0  0  0  0  0  0  0  0  0  0  0  0
   -0.9606   -2.7685    3.8754 O   0  0  0  0  0  0  0  0  0  0  0  0
    1.6971   -2.9038    4.3229 C   0  0  0  0  0  0  0  0  0  0  0  0
    1.5048   -1.9277    5.2054 F   0  0  0  0  0  0  0  0  0  0  0  0
    1.5960   -4.0851    4.9006 F   0  0  0  0  0  0  0  0  0  0  0  0
    2.8724   -2.7668    3.7248 F   0  0  0  0  0  0  0  0  0  0  0  0
    0.2096   -0.5512   -0.7678 H   0  0  0  0  0  0  0  0  0  0  0  0
  2  1  3  0  0  0  0
  3  4  1  0  0  0  0
  6  7  1  0  0  0  0
  7  3  1  0  0  0  0
  7 13  1  0  0  0  0
  8  3  1  0  0  0  0
  8 14  1  0  0  0  0
  9  8  1  0  0  0  0
 10  9  2  0  0  0  0
 11 10  1  0  0  0  0
 11  6  2  0  0  0  0
 12  6  1  0  0  0  0
 15  9  1  0  0  0  0
 16 10  1  0  0  0  0
 17 11  1  0  0  0  0
 18 21  1  0  0  0  0
 18 22  1  0  0  0  0
 19 18  2  0  0  0  0
 20 18  2  0  0  0  0
 21  5  1  0  0  0  0
 22 24  1  0  0  0  0
 22 23  1  0  0  0  0
 25 22  1  0  0  0  0
 26  3  1  0  0  0  0
M  RAD  2   7   2   8   2
M  END
