Coordinates from ORCA-job C6H6+HOTf+NH2N2+-scan
 OpenBabel10221816143D

 26 24  0  0  0  0  0  0  0  0999 V2000
   -0.8103    0.4383    0.6469 N   0  0  0  0  0  0  0  0  0  0  0  0
   -1.4165    1.3739    0.5010 N   0  0  0  0  0  0  0  0  0  0  0  0
   -0.1284   -0.6185    0.7583 N   0  0  0  0  0  0  0  0  0  0  0  0
   -0.1089   -1.0853    1.7029 H   0  0  0  0  0  0  0  0  0  0  0  0
   -0.8709   -3.8720    4.4282 H   0  0  0  0  0  0  0  0  0  0  0  0
    0.0997   -3.2264   -1.7863 C   0  0  0  0  0  0  0  0  0  0  0  0
    1.2033   -2.8653   -1.0112 C   0  0  0  0  0  0  0  0  0  0  0  0
    1.7629   -1.5813   -1.1486 C   0  0  0  0  0  0  0  0  0  0  0  0
    1.2385   -0.6824   -2.0967 C   0  0  0  0  0  0  0  0  0  0  0  0
    0.1297   -1.0505   -2.8649 C   0  0  0  0  0  0  0  0  0  0  0  0
   -0.4359   -2.3202   -2.7083 C   0  0  0  0  0  0  0  0  0  0  0  0
   -0.3352   -4.2160   -1.6832 H   0  0  0  0  0  0  0  0  0  0  0  0
    1.6270   -3.5637   -0.2959 H   0  0  0  0  0  0  0  0  0  0  0  0
    2.6575   -1.3186   -0.5884 H   0  0  0  0  0  0  0  0  0  0  0  0
    1.7015    0.2912   -2.2338 H   0  0  0  0  0  0  0  0  0  0  0  0
   -0.2766   -0.3603   -3.5983 H   0  0  0  0  0  0  0  0  0  0  0  0
   -1.2902   -2.6080   -3.3141 H   0  0  0  0  0  0  0  0  0  0  0  0
    0.8362   -2.9733    3.4549 S   0  0  0  0  0  0  0  0  0  0  0  0
    1.7182   -3.4715    2.4227 O   0  0  0  0  0  0  0  0  0  0  0  0
   -0.0435   -1.8123    3.1872 O   0  0  0  0  0  0  0  0  0  0  0  0
   -0.0649   -4.1943    3.9819 O   0  0  0  0  0  0  0  0  0  0  0  0
    1.8231   -2.5454    4.9960 C   0  0  0  0  0  0  0  0  0  0  0  0
    0.9600   -2.3203    5.9803 F   0  0  0  0  0  0  0  0  0  0  0  0
    2.6168   -3.5573    5.2863 F   0  0  0  0  0  0  0  0  0  0  0  0
    2.5225   -1.4531    4.7270 F   0  0  0  0  0  0  0  0  0  0  0  0
    0.5071   -0.8857   -0.0540 H   0  0  0  0  0  0  0  0  0  0  0  0
  1  3  1  0  0  0  0
  2  1  1  0  0  0  0
  3  4  1  0  0  0  0
  6 12  1  0  0  0  0
  6  7  2  0  0  0  0
  7 13  1  0  0  0  0
  8  7  1  0  0  0  0
  8 14  1  0  0  0  0
  9  8  2  0  0  0  0
 10 11  2  0  0  0  0
 10  9  1  0  0  0  0
 11  6  1  0  0  0  0
 15  9  1  0  0  0  0
 16 10  1  0  0  0  0
 17 11  1  0  0  0  0
 18 21  1  0  0  0  0
 18 22  1  0  0  0  0
 19 18  2  0  0  0  0
 20 18  2  0  0  0  0
 21  5  1  0  0  0  0
 22 24  1  0  0  0  0
 22 23  1  0  0  0  0
 25 22  1  0  0  0  0
 26  3  1  0  0  0  0
M  RAD  2   1   2   2   3
M  END
