Coordinates from ORCA-job C6H6+HOTf+NH2N2+-scan
 OpenBabel10221816143D

 26 24  0  0  0  0  0  0  0  0999 V2000
   -2.1886   -2.6627    0.8634 N   0  0  0  0  0  0  0  0  0  0  0  0
   -3.2022   -3.1088    0.6744 N   0  0  0  0  0  0  0  0  0  0  0  0
   -1.0586   -2.1246    1.0460 N   0  0  0  0  0  0  0  0  0  0  0  0
   -0.6730   -2.1039    2.0315 H   0  0  0  0  0  0  0  0  0  0  0  0
    1.7427   -3.1214    5.0156 H   0  0  0  0  0  0  0  0  0  0  0  0
   -0.1219   -1.3628   -2.2513 C   0  0  0  0  0  0  0  0  0  0  0  0
   -0.1084   -2.4552   -3.1216 C   0  0  0  0  0  0  0  0  0  0  0  0
    0.8265   -3.4816   -2.9431 C   0  0  0  0  0  0  0  0  0  0  0  0
    1.7333   -3.4319   -1.8790 C   0  0  0  0  0  0  0  0  0  0  0  0
    1.7256   -2.3435   -1.0031 C   0  0  0  0  0  0  0  0  0  0  0  0
    0.7988   -1.3015   -1.1891 C   0  0  0  0  0  0  0  0  0  0  0  0
   -0.8185   -0.5445   -2.4142 H   0  0  0  0  0  0  0  0  0  0  0  0
   -0.8074   -2.4959   -3.9516 H   0  0  0  0  0  0  0  0  0  0  0  0
    0.8465   -4.3204   -3.6326 H   0  0  0  0  0  0  0  0  0  0  0  0
    2.4581   -4.2295   -1.7459 H   0  0  0  0  0  0  0  0  0  0  0  0
    2.4471   -2.2827   -0.1933 H   0  0  0  0  0  0  0  0  0  0  0  0
    0.8641   -0.4048   -0.5747 H   0  0  0  0  0  0  0  0  0  0  0  0
    1.4300   -1.5314    3.5859 S   0  0  0  0  0  0  0  0  0  0  0  0
    2.1417   -1.1814    2.3756 O   0  0  0  0  0  0  0  0  0  0  0  0
    0.0280   -2.0062    3.5026 O   0  0  0  0  0  0  0  0  0  0  0  0
    2.2969   -2.6170    4.3898 O   0  0  0  0  0  0  0  0  0  0  0  0
    1.4355   -0.0821    4.7844 C   0  0  0  0  0  0  0  0  0  0  0  0
    0.9758   -0.5206    5.9502 F   0  0  0  0  0  0  0  0  0  0  0  0
    2.6700    0.3652    4.9003 F   0  0  0  0  0  0  0  0  0  0  0  0
    0.6360    0.8464    4.2827 F   0  0  0  0  0  0  0  0  0  0  0  0
   -0.4555   -1.9751    0.1873 H   0  0  0  0  0  0  0  0  0  0  0  0
  1  3  1  0  0  0  0
  2  1  1  0  0  0  0
  3  4  1  0  0  0  0
  6 11  2  0  0  0  0
  7  8  2  0  0  0  0
  7  6  1  0  0  0  0
  8  9  1  0  0  0  0
  9 15  1  0  0  0  0
  9 10  2  0  0  0  0
 10 16  1  0  0  0  0
 11 10  1  0  0  0  0
 11 17  1  0  0  0  0
 12  6  1  0  0  0  0
 13  7  1  0  0  0  0
 14  8  1  0  0  0  0
 18 21  1  0  0  0  0
 18 22  1  0  0  0  0
 19 18  2  0  0  0  0
 20 18  2  0  0  0  0
 21  5  1  0  0  0  0
 22 24  1  0  0  0  0
 22 23  1  0  0  0  0
 25 22  1  0  0  0  0
 26  3  1  0  0  0  0
M  RAD  2   1   2   2   3
M  END
