Coordinates from ORCA-job C6H6+HOTf+NH2N2+-scan
 OpenBabel10221816143D

 26 24  0  0  0  0  0  0  0  0999 V2000
   -2.1106   -2.6871    0.7575 N   0  0  0  0  0  0  0  0  0  0  0  0
   -3.1138   -3.1477    0.5483 N   0  0  0  0  0  0  0  0  0  0  0  0
   -0.9922   -2.1354    0.9654 N   0  0  0  0  0  0  0  0  0  0  0  0
   -0.6219   -2.1216    1.9564 H   0  0  0  0  0  0  0  0  0  0  0  0
    1.7447   -3.1550    4.9751 H   0  0  0  0  0  0  0  0  0  0  0  0
   -0.1190   -1.3241   -2.2493 C   0  0  0  0  0  0  0  0  0  0  0  0
   -0.1771   -2.4809   -3.0308 C   0  0  0  0  0  0  0  0  0  0  0  0
    0.7330   -3.5210   -2.8095 C   0  0  0  0  0  0  0  0  0  0  0  0
    1.6914   -3.4177   -1.7960 C   0  0  0  0  0  0  0  0  0  0  0  0
    1.7544   -2.2651   -1.0084 C   0  0  0  0  0  0  0  0  0  0  0  0
    0.8482   -1.2130   -1.2337 C   0  0  0  0  0  0  0  0  0  0  0  0
   -0.8000   -0.4995   -2.4422 H   0  0  0  0  0  0  0  0  0  0  0  0
   -0.9133   -2.5632   -3.8248 H   0  0  0  0  0  0  0  0  0  0  0  0
    0.6956   -4.4120   -3.4295 H   0  0  0  0  0  0  0  0  0  0  0  0
    2.3983   -4.2256   -1.6328 H   0  0  0  0  0  0  0  0  0  0  0  0
    2.5089   -2.1673   -0.2332 H   0  0  0  0  0  0  0  0  0  0  0  0
    0.9494   -0.2839   -0.6760 H   0  0  0  0  0  0  0  0  0  0  0  0
    1.4447   -1.5430    3.5675 S   0  0  0  0  0  0  0  0  0  0  0  0
    2.1807   -1.1600    2.3822 O   0  0  0  0  0  0  0  0  0  0  0  0
    0.0515   -2.0340    3.4423 O   0  0  0  0  0  0  0  0  0  0  0  0
    2.3067   -2.6328    4.3713 O   0  0  0  0  0  0  0  0  0  0  0  0
    1.4019   -0.1180    4.7937 C   0  0  0  0  0  0  0  0  0  0  0  0
    0.9211   -0.5855    5.9397 F   0  0  0  0  0  0  0  0  0  0  0  0
    2.6269    0.3437    4.9478 F   0  0  0  0  0  0  0  0  0  0  0  0
    0.6015    0.8097    4.2917 F   0  0  0  0  0  0  0  0  0  0  0  0
   -0.3884   -1.9377    0.1174 H   0  0  0  0  0  0  0  0  0  0  0  0
  1  3  1  0  0  0  0
  2  1  1  0  0  0  0
  3  4  1  0  0  0  0
  6 11  2  0  0  0  0
  7  8  2  0  0  0  0
  7  6  1  0  0  0  0
  8  9  1  0  0  0  0
  9 15  1  0  0  0  0
  9 10  2  0  0  0  0
 10 16  1  0  0  0  0
 11 10  1  0  0  0  0
 11 17  1  0  0  0  0
 12  6  1  0  0  0  0
 13  7  1  0  0  0  0
 14  8  1  0  0  0  0
 18 21  1  0  0  0  0
 18 22  1  0  0  0  0
 19 18  2  0  0  0  0
 20 18  2  0  0  0  0
 21  5  1  0  0  0  0
 22 24  1  0  0  0  0
 22 23  1  0  0  0  0
 25 22  1  0  0  0  0
 26  3  1  0  0  0  0
M  RAD  2   1   2   2   3
M  END
