Coordinates from ORCA-job C6H6+HOTf+NH2N2+-scan
 OpenBabel10221816143D

 26 24  0  0  0  0  0  0  0  0999 V2000
   -2.0023   -2.5270    0.3818 N   0  0  0  0  0  0  0  0  0  0  0  0
   -3.0103   -2.9821    0.1846 N   0  0  0  0  0  0  0  0  0  0  0  0
   -0.8715   -2.0140    0.6073 N   0  0  0  0  0  0  0  0  0  0  0  0
   -0.4928   -2.0584    1.5947 H   0  0  0  0  0  0  0  0  0  0  0  0
    1.4231   -3.5542    4.7299 H   0  0  0  0  0  0  0  0  0  0  0  0
   -0.2499   -1.4061   -2.4590 C   0  0  0  0  0  0  0  0  0  0  0  0
   -0.3137   -2.8044   -2.4940 C   0  0  0  0  0  0  0  0  0  0  0  0
    0.6483   -3.5628   -1.8172 C   0  0  0  0  0  0  0  0  0  0  0  0
    1.6910   -2.9342   -1.1296 C   0  0  0  0  0  0  0  0  0  0  0  0
    1.7592   -1.5373   -1.0909 C   0  0  0  0  0  0  0  0  0  0  0  0
    0.7810   -0.7712   -1.7460 C   0  0  0  0  0  0  0  0  0  0  0  0
   -0.9869   -0.8102   -2.9901 H   0  0  0  0  0  0  0  0  0  0  0  0
   -1.1002   -3.2987   -3.0573 H   0  0  0  0  0  0  0  0  0  0  0  0
    0.6017   -4.6477   -1.8526 H   0  0  0  0  0  0  0  0  0  0  0  0
    2.4488   -3.5268   -0.6262 H   0  0  0  0  0  0  0  0  0  0  0  0
    2.5627   -1.0458   -0.5511 H   0  0  0  0  0  0  0  0  0  0  0  0
    0.8368    0.3135   -1.7256 H   0  0  0  0  0  0  0  0  0  0  0  0
    1.5222   -1.8411    3.4150 S   0  0  0  0  0  0  0  0  0  0  0  0
    2.4450   -1.4967    2.3574 O   0  0  0  0  0  0  0  0  0  0  0  0
    0.0967   -2.1080    3.1054 O   0  0  0  0  0  0  0  0  0  0  0  0
    2.1176   -3.0986    4.2171 O   0  0  0  0  0  0  0  0  0  0  0  0
    1.5285   -0.5116    4.7440 C   0  0  0  0  0  0  0  0  0  0  0  0
    0.8586   -0.9824    5.7902 F   0  0  0  0  0  0  0  0  0  0  0  0
    2.7778   -0.2409    5.0663 F   0  0  0  0  0  0  0  0  0  0  0  0
    0.9240    0.5537    4.2407 F   0  0  0  0  0  0  0  0  0  0  0  0
   -0.3726   -1.5849   -0.2045 H   0  0  0  0  0  0  0  0  0  0  0  0
  1  3  1  0  0  0  0
  2  1  1  0  0  0  0
  3  4  1  0  0  0  0
  6 11  1  0  0  0  0
  7  6  2  0  0  0  0
  7  8  1  0  0  0  0
  8  9  2  0  0  0  0
  9 10  1  0  0  0  0
  9 15  1  0  0  0  0
 10 16  1  0  0  0  0
 11 17  1  0  0  0  0
 11 10  2  0  0  0  0
 12  6  1  0  0  0  0
 13  7  1  0  0  0  0
 14  8  1  0  0  0  0
 18 21  1  0  0  0  0
 18 22  1  0  0  0  0
 19 18  2  0  0  0  0
 20 18  2  0  0  0  0
 21  5  1  0  0  0  0
 22 24  1  0  0  0  0
 22 23  1  0  0  0  0
 25 22  1  0  0  0  0
 26  3  1  0  0  0  0
M  RAD  2   1   2   2   3
M  END
