Coordinates from ORCA-job C6H6+HOTf+NH2N2+-scan
 OpenBabel10221816143D

 26 24  0  0  0  0  0  0  0  0999 V2000
   -2.1040   -2.4207    0.5995 N   0  0  0  0  0  0  0  0  0  0  0  0
   -3.1475   -2.7894    0.4058 N   0  0  0  0  0  0  0  0  0  0  0  0
   -0.9344   -1.9877    0.7983 N   0  0  0  0  0  0  0  0  0  0  0  0
   -0.5447   -2.0349    1.7813 H   0  0  0  0  0  0  0  0  0  0  0  0
    1.6679   -3.3948    4.7778 H   0  0  0  0  0  0  0  0  0  0  0  0
   -0.2227   -1.4227   -2.3890 C   0  0  0  0  0  0  0  0  0  0  0  0
   -0.2466   -2.7529   -2.8200 C   0  0  0  0  0  0  0  0  0  0  0  0
    0.7345   -3.6486   -2.3793 C   0  0  0  0  0  0  0  0  0  0  0  0
    1.7338   -3.2230   -1.4985 C   0  0  0  0  0  0  0  0  0  0  0  0
    1.7624   -1.8957   -1.0599 C   0  0  0  0  0  0  0  0  0  0  0  0
    0.7812   -0.9912   -1.5034 C   0  0  0  0  0  0  0  0  0  0  0  0
   -0.9624   -0.7158   -2.7551 H   0  0  0  0  0  0  0  0  0  0  0  0
   -1.0123   -3.0846   -3.5151 H   0  0  0  0  0  0  0  0  0  0  0  0
    0.7224   -4.6771   -2.7280 H   0  0  0  0  0  0  0  0  0  0  0  0
    2.4977   -3.9196   -1.1662 H   0  0  0  0  0  0  0  0  0  0  0  0
    2.5413   -1.5586   -0.3825 H   0  0  0  0  0  0  0  0  0  0  0  0
    0.8317    0.0535   -1.2060 H   0  0  0  0  0  0  0  0  0  0  0  0
    1.5021   -1.6520    3.5105 S   0  0  0  0  0  0  0  0  0  0  0  0
    2.3150   -1.1903    2.4076 O   0  0  0  0  0  0  0  0  0  0  0  0
    0.0998   -2.0719    3.2744 O   0  0  0  0  0  0  0  0  0  0  0  0
    2.2792   -2.8471    4.2494 O   0  0  0  0  0  0  0  0  0  0  0  0
    1.4430   -0.3491    4.8647 C   0  0  0  0  0  0  0  0  0  0  0  0
    0.8888   -0.9046    5.9362 F   0  0  0  0  0  0  0  0  0  0  0  0
    2.6728    0.0499    5.1218 F   0  0  0  0  0  0  0  0  0  0  0  0
    0.7001    0.6517    4.4174 F   0  0  0  0  0  0  0  0  0  0  0  0
   -0.3762   -1.7011   -0.0516 H   0  0  0  0  0  0  0  0  0  0  0  0
  1  3  1  0  0  0  0
  2  1  1  0  0  0  0
  3  4  1  0  0  0  0
  6 11  1  0  0  0  0
  7  6  2  0  0  0  0
  7  8  1  0  0  0  0
  8  9  2  0  0  0  0
  9 15  1  0  0  0  0
  9 10  1  0  0  0  0
 10 16  1  0  0  0  0
 11 17  1  0  0  0  0
 11 10  2  0  0  0  0
 12  6  1  0  0  0  0
 13  7  1  0  0  0  0
 14  8  1  0  0  0  0
 18 21  1  0  0  0  0
 18 22  1  0  0  0  0
 19 18  2  0  0  0  0
 20 18  2  0  0  0  0
 21  5  1  0  0  0  0
 22 24  1  0  0  0  0
 22 23  1  0  0  0  0
 25 22  1  0  0  0  0
 26  3  1  0  0  0  0
M  RAD  2   1   2   2   3
M  END
