Coordinates from ORCA-job C6H6+HOTf+NH2N2+-scan
 OpenBabel10221816143D

 26 24  0  0  1  0  0  0  0  0999 V2000
   -1.6604    0.4506    6.2830 N   0  0  0  0  0  0  0  0  0  0  0  0
   -1.4109   -0.3919    5.6150 N   0  0  0  0  0  0  0  0  0  0  0  0
   -0.3182   -1.0735   -0.3515 N   0  0  0  0  0  0  0  0  0  0  0  0
   -0.1120   -0.9198    0.6368 H   0  0  0  0  0  0  0  0  0  0  0  0
   -1.0193   -1.9384    4.4681 H   0  0  0  0  0  0  0  0  0  0  0  0
   -0.2380   -2.5705   -2.3478 C   0  0  0  0  0  0  0  0  0  0  0  0
    0.2405   -2.3245   -0.9538 C   0  0  1  0  0  0  0  0  0  0  0  0
    1.5737   -1.6969   -0.8432 C   0  0  0  0  0  0  0  0  0  0  0  0
    2.2242   -1.1466   -1.9668 C   0  0  0  0  0  0  0  0  0  0  0  0
    1.6864   -1.3649   -3.2160 C   0  0  0  0  0  0  0  0  0  0  0  0
    0.4549   -2.0968   -3.4085 C   0  0  0  0  0  0  0  0  0  0  0  0
   -1.1505   -3.1445   -2.4770 H   0  0  0  0  0  0  0  0  0  0  0  0
    0.0450   -3.1529   -0.2708 H   0  0  0  0  0  0  0  0  0  0  0  0
    2.0166   -1.6411    0.1460 H   0  0  0  0  0  0  0  0  0  0  0  0
    3.1521   -0.5988   -1.8434 H   0  0  0  0  0  0  0  0  0  0  0  0
    2.2037   -0.9854   -4.0934 H   0  0  0  0  0  0  0  0  0  0  0  0
    0.1073   -2.2749   -4.4209 H   0  0  0  0  0  0  0  0  0  0  0  0
    0.3314   -2.7305    2.9718 S   0  0  0  0  0  0  0  0  0  0  0  0
    0.1853   -3.8214    2.0240 O   0  0  0  0  0  0  0  0  0  0  0  0
    0.5308   -1.3572    2.4839 O   0  0  0  0  0  0  0  0  0  0  0  0
   -0.9009   -2.7885    3.9872 O   0  0  0  0  0  0  0  0  0  0  0  0
    1.7664   -3.1095    4.1129 C   0  0  0  0  0  0  0  0  0  0  0  0
    1.7492   -2.2268    5.1084 F   0  0  0  0  0  0  0  0  0  0  0  0
    1.6443   -4.3391    4.5794 F   0  0  0  0  0  0  0  0  0  0  0  0
    2.8846   -2.9854    3.4054 F   0  0  0  0  0  0  0  0  0  0  0  0
   -0.3636   -0.2486   -0.9386 H   0  0  0  0  0  0  0  0  0  0  0  0
  2  1  3  0  0  0  0
  3  4  1  0  0  0  0
  6  7  1  0  0  0  0
  7  8  1  0  0  0  0
  7  3  1  0  0  0  0
  7 13  1  1  0  0  0
  8 14  1  0  0  0  0
  9 15  1  0  0  0  0
  9  8  1  0  0  0  0
 10  9  2  0  0  0  0
 11 10  1  0  0  0  0
 11  6  2  0  0  0  0
 12  6  1  0  0  0  0
 16 10  1  0  0  0  0
 17 11  1  0  0  0  0
 18 21  1  0  0  0  0
 18 22  1  0  0  0  0
 19 18  2  0  0  0  0
 20 18  2  0  0  0  0
 21  5  1  0  0  0  0
 22 24  1  0  0  0  0
 22 23  1  0  0  0  0
 25 22  1  0  0  0  0
 26  3  1  0  0  0  0
M  RAD  1   8   2
M  END
