Coordinates from ORCA-job C6H6+HOTf+NH2N2+-scan
 OpenBabel10221816143D

 26 24  0  0  0  0  0  0  0  0999 V2000
   -3.2652   -2.9735    2.4347 N   0  0  0  0  0  0  0  0  0  0  0  0
   -4.3742   -2.8991    2.5804 N   0  0  0  0  0  0  0  0  0  0  0  0
   -2.0021   -3.0683    2.3385 N   0  0  0  0  0  0  0  0  0  0  0  0
   -1.3812   -2.4963    3.0200 H   0  0  0  0  0  0  0  0  0  0  0  0
    1.2779   -1.9688    5.7699 H   0  0  0  0  0  0  0  0  0  0  0  0
    0.6250   -0.9499   -2.2262 C   0  0  0  0  0  0  0  0  0  0  0  0
    0.8509   -1.5934   -3.4458 C   0  0  0  0  0  0  0  0  0  0  0  0
    1.5616   -2.7962   -3.4814 C   0  0  0  0  0  0  0  0  0  0  0  0
    2.0402   -3.3594   -2.2953 C   0  0  0  0  0  0  0  0  0  0  0  0
    1.8155   -2.7170   -1.0742 C   0  0  0  0  0  0  0  0  0  0  0  0
    1.1094   -1.5110   -1.0413 C   0  0  0  0  0  0  0  0  0  0  0  0
    0.0853   -0.0067   -2.2035 H   0  0  0  0  0  0  0  0  0  0  0  0
    0.4815   -1.1533   -4.3678 H   0  0  0  0  0  0  0  0  0  0  0  0
    1.7437   -3.2919   -4.4306 H   0  0  0  0  0  0  0  0  0  0  0  0
    2.5971   -4.2919   -2.3235 H   0  0  0  0  0  0  0  0  0  0  0  0
    2.2048   -3.1459   -0.1543 H   0  0  0  0  0  0  0  0  0  0  0  0
    0.9609   -0.9918   -0.0965 H   0  0  0  0  0  0  0  0  0  0  0  0
    1.0291   -1.8467    3.6245 S   0  0  0  0  0  0  0  0  0  0  0  0
    1.4525   -2.7281    2.5601 O   0  0  0  0  0  0  0  0  0  0  0  0
   -0.4285   -1.7038    3.9049 O   0  0  0  0  0  0  0  0  0  0  0  0
    1.7711   -2.2631    4.9797 O   0  0  0  0  0  0  0  0  0  0  0  0
    1.6833   -0.1040    3.3386 C   0  0  0  0  0  0  0  0  0  0  0  0
    1.4362    0.6049    4.4314 F   0  0  0  0  0  0  0  0  0  0  0  0
    2.9747   -0.1759    3.0966 F   0  0  0  0  0  0  0  0  0  0  0  0
    1.0257    0.3898    2.2986 F   0  0  0  0  0  0  0  0  0  0  0  0
   -1.6524   -3.4367    1.4524 H   0  0  0  0  0  0  0  0  0  0  0  0
  1  2  1  0  0  0  0
  3  1  1  0  0  0  0
  3  4  1  0  0  0  0
  6 12  1  0  0  0  0
  6 11  2  0  0  0  0
  7  6  1  0  0  0  0
  8  7  2  0  0  0  0
  8  9  1  0  0  0  0
  9 10  2  0  0  0  0
 10 11  1  0  0  0  0
 10 16  1  0  0  0  0
 11 17  1  0  0  0  0
 13  7  1  0  0  0  0
 14  8  1  0  0  0  0
 15  9  1  0  0  0  0
 18 20  2  0  0  0  0
 18 21  1  0  0  0  0
 19 18  2  0  0  0  0
 21  5  1  0  0  0  0
 22 18  1  0  0  0  0
 22 23  1  0  0  0  0
 24 22  1  0  0  0  0
 25 22  1  0  0  0  0
 26  3  1  0  0  0  0
M  RAD  2   1   2   2   3
M  END
