Coordinates from ORCA-job C6H6+HOTf+NH2N2+-scan
 OpenBabel10221816143D

 26 25  0  0  1  0  0  0  0  0999 V2000
   -2.4565    0.0047    6.0965 N   0  0  0  0  0  0  0  0  0  0  0  0
   -1.9572   -0.7503    5.4648 N   0  0  0  0  0  0  0  0  0  0  0  0
    0.5901   -1.1656   -0.3237 N   0  0  0  0  0  0  0  0  0  0  0  0
    0.5226   -1.1134    0.7083 H   0  0  0  0  0  0  0  0  0  0  0  0
   -1.1248   -2.1372    4.3855 H   0  0  0  0  0  0  0  0  0  0  0  0
   -0.5400   -2.3162   -2.2910 C   0  0  0  0  0  0  0  0  0  0  0  0
    0.1404   -2.4482   -0.9931 C   0  0  1  0  0  0  0  0  0  0  0  0
    1.5945   -2.0331   -0.9096 C   0  0  1  0  0  0  0  0  0  0  0  0
    2.2454   -1.5795   -2.1572 C   0  0  0  0  0  0  0  0  0  0  0  0
    1.5119   -1.3929   -3.2759 C   0  0  0  0  0  0  0  0  0  0  0  0
    0.1021   -1.7595   -3.3422 C   0  0  0  0  0  0  0  0  0  0  0  0
   -1.5450   -2.7143   -2.3795 H   0  0  0  0  0  0  0  0  0  0  0  0
   -0.2280   -3.1554   -0.2574 H   0  0  0  0  0  0  0  0  0  0  0  0
    2.2151   -2.5077   -0.1552 H   0  0  0  0  0  0  0  0  0  0  0  0
    3.3213   -1.4419   -2.1489 H   0  0  0  0  0  0  0  0  0  0  0  0
    1.9928   -1.0419   -4.1837 H   0  0  0  0  0  0  0  0  0  0  0  0
   -0.4106   -1.6552   -4.2934 H   0  0  0  0  0  0  0  0  0  0  0  0
    0.5020   -2.5852    3.0244 S   0  0  0  0  0  0  0  0  0  0  0  0
    0.6906   -3.6577    2.0615 O   0  0  0  0  0  0  0  0  0  0  0  0
    0.4249   -1.1968    2.5332 O   0  0  0  0  0  0  0  0  0  0  0  0
   -0.7739   -2.9295    3.9161 O   0  0  0  0  0  0  0  0  0  0  0  0
    1.8773   -2.6482    4.2969 C   0  0  0  0  0  0  0  0  0  0  0  0
    1.5703   -1.8005    5.2739 F   0  0  0  0  0  0  0  0  0  0  0  0
    1.9813   -3.8797    4.7607 F   0  0  0  0  0  0  0  0  0  0  0  0
    2.9981   -2.2757    3.6921 F   0  0  0  0  0  0  0  0  0  0  0  0
    0.3779   -0.2969   -0.8131 H   0  0  0  0  0  0  0  0  0  0  0  0
  2  1  3  0  0  0  0
  3  4  1  0  0  0  0
  6  7  1  0  0  0  0
  7  8  1  0  0  0  0
  7  3  1  0  0  0  0
  7 13  1  1  0  0  0
  8  3  1  0  0  0  0
  8 14  1  1  0  0  0
  9 15  1  0  0  0  0
  9  8  1  0  0  0  0
 10  9  2  0  0  0  0
 11 10  1  0  0  0  0
 11  6  2  0  0  0  0
 12  6  1  0  0  0  0
 16 10  1  0  0  0  0
 17 11  1  0  0  0  0
 18 21  1  0  0  0  0
 18 22  1  0  0  0  0
 19 18  2  0  0  0  0
 20 18  2  0  0  0  0
 21  5  1  0  0  0  0
 22 24  1  0  0  0  0
 22 23  1  0  0  0  0
 25 22  1  0  0  0  0
 26  3  1  0  0  0  0
M  END
