Coordinates from ORCA-job C6H6+HOTf+NH2N2+-scan
 OpenBabel10221816143D

 26 24  0  0  0  0  0  0  0  0999 V2000
   -2.5445   -2.4736    1.3707 N   0  0  0  0  0  0  0  0  0  0  0  0
   -3.6111   -2.8182    1.3172 N   0  0  0  0  0  0  0  0  0  0  0  0
   -1.3532   -2.0450    1.4337 N   0  0  0  0  0  0  0  0  0  0  0  0
   -0.8849   -1.9917    2.3920 H   0  0  0  0  0  0  0  0  0  0  0  0
    1.6134   -3.0678    5.2282 H   0  0  0  0  0  0  0  0  0  0  0  0
   -0.1783   -1.5900   -2.4421 C   0  0  0  0  0  0  0  0  0  0  0  0
    0.1658   -2.4560   -3.4830 C   0  0  0  0  0  0  0  0  0  0  0  0
    1.2606   -3.3187   -3.3495 C   0  0  0  0  0  0  0  0  0  0  0  0
    1.9914   -3.3362   -2.1557 C   0  0  0  0  0  0  0  0  0  0  0  0
    1.6539   -2.4721   -1.1101 C   0  0  0  0  0  0  0  0  0  0  0  0
    0.5731   -1.5880   -1.2562 C   0  0  0  0  0  0  0  0  0  0  0  0
   -0.9993   -0.8896   -2.5707 H   0  0  0  0  0  0  0  0  0  0  0  0
   -0.4042   -2.4424   -4.4073 H   0  0  0  0  0  0  0  0  0  0  0  0
    1.5382   -3.9763   -4.1677 H   0  0  0  0  0  0  0  0  0  0  0  0
    2.8388   -4.0069   -2.0489 H   0  0  0  0  0  0  0  0  0  0  0  0
    2.2498   -2.4545   -0.2017 H   0  0  0  0  0  0  0  0  0  0  0  0
    0.4079   -0.8082   -0.5104 H   0  0  0  0  0  0  0  0  0  0  0  0
    1.3631   -1.5652    3.6939 S   0  0  0  0  0  0  0  0  0  0  0  0
    1.9958   -1.3995    2.4038 O   0  0  0  0  0  0  0  0  0  0  0  0
   -0.0891   -1.8720    3.7597 O   0  0  0  0  0  0  0  0  0  0  0  0
    2.1631   -2.6842    4.5181 O   0  0  0  0  0  0  0  0  0  0  0  0
    1.6345   -0.0383    4.7603 C   0  0  0  0  0  0  0  0  0  0  0  0
    1.2319   -0.3309    5.9907 F   0  0  0  0  0  0  0  0  0  0  0  0
    2.9164    0.2654    4.7399 F   0  0  0  0  0  0  0  0  0  0  0  0
    0.9027    0.9359    4.2437 F   0  0  0  0  0  0  0  0  0  0  0  0
   -0.8129   -2.0539    0.5416 H   0  0  0  0  0  0  0  0  0  0  0  0
  1  3  1  0  0  0  0
  2  1  1  0  0  0  0
  3  4  1  0  0  0  0
  6 11  2  0  0  0  0
  7  8  2  0  0  0  0
  7  6  1  0  0  0  0
  8  9  1  0  0  0  0
  9 15  1  0  0  0  0
  9 10  2  0  0  0  0
 10 16  1  0  0  0  0
 11 10  1  0  0  0  0
 11 17  1  0  0  0  0
 12  6  1  0  0  0  0
 13  7  1  0  0  0  0
 14  8  1  0  0  0  0
 18 20  2  0  0  0  0
 18 21  1  0  0  0  0
 18 22  1  0  0  0  0
 19 18  2  0  0  0  0
 21  5  1  0  0  0  0
 22 23  1  0  0  0  0
 24 22  1  0  0  0  0
 25 22  1  0  0  0  0
 26  3  1  0  0  0  0
M  RAD  2   1   2   2   3
M  END
