Coordinates from ORCA-job C6H6+HOTf+NH2N2+-scan
 OpenBabel10221816143D

 26 24  0  0  0  0  0  0  0  0999 V2000
   -1.5269   -0.2544    0.5138 N   0  0  0  0  0  0  0  0  0  0  0  0
   -2.4137    0.4105    0.3303 N   0  0  0  0  0  0  0  0  0  0  0  0
   -0.5384   -1.0219    0.6923 N   0  0  0  0  0  0  0  0  0  0  0  0
   -0.3627   -1.3743    1.6739 H   0  0  0  0  0  0  0  0  0  0  0  0
   -0.1059   -4.0525    4.5606 H   0  0  0  0  0  0  0  0  0  0  0  0
   -0.2980   -2.9323   -2.4438 C   0  0  0  0  0  0  0  0  0  0  0  0
    0.6487   -3.4070   -1.5312 C   0  0  0  0  0  0  0  0  0  0  0  0
    1.6195   -2.5416   -1.0153 C   0  0  0  0  0  0  0  0  0  0  0  0
    1.6415   -1.1949   -1.4182 C   0  0  0  0  0  0  0  0  0  0  0  0
    0.6892   -0.7216   -2.3380 C   0  0  0  0  0  0  0  0  0  0  0  0
   -0.2818   -1.5914   -2.8447 C   0  0  0  0  0  0  0  0  0  0  0  0
   -1.0447   -3.6083   -2.8501 H   0  0  0  0  0  0  0  0  0  0  0  0
    0.6388   -4.4502   -1.2302 H   0  0  0  0  0  0  0  0  0  0  0  0
    2.3590   -2.9077   -0.3094 H   0  0  0  0  0  0  0  0  0  0  0  0
    2.4187   -0.5305   -1.0495 H   0  0  0  0  0  0  0  0  0  0  0  0
    0.7225    0.3131   -2.6680 H   0  0  0  0  0  0  0  0  0  0  0  0
   -1.0103   -1.2308   -3.5651 H   0  0  0  0  0  0  0  0  0  0  0  0
    1.1785   -2.6720    3.5044 S   0  0  0  0  0  0  0  0  0  0  0  0
    2.1838   -2.8884    2.4884 O   0  0  0  0  0  0  0  0  0  0  0  0
   -0.0550   -1.9153    3.1823 O   0  0  0  0  0  0  0  0  0  0  0  0
    0.7634   -4.0965    4.1187 O   0  0  0  0  0  0  0  0  0  0  0  0
    1.9386   -1.8255    5.0009 C   0  0  0  0  0  0  0  0  0  0  0  0
    1.0454   -1.8615    5.9833 F   0  0  0  0  0  0  0  0  0  0  0  0
    3.0383   -2.4692    5.3384 F   0  0  0  0  0  0  0  0  0  0  0  0
    2.2048   -0.5752    4.6546 F   0  0  0  0  0  0  0  0  0  0  0  0
    0.1695   -1.0787   -0.0883 H   0  0  0  0  0  0  0  0  0  0  0  0
  1  3  1  0  0  0  0
  2  1  1  0  0  0  0
  3  4  1  0  0  0  0
  6  7  1  0  0  0  0
  7 13  1  0  0  0  0
  7  8  2  0  0  0  0
  8 14  1  0  0  0  0
  9 15  1  0  0  0  0
  9  8  1  0  0  0  0
 10  9  2  0  0  0  0
 11  6  2  0  0  0  0
 11 10  1  0  0  0  0
 12  6  1  0  0  0  0
 16 10  1  0  0  0  0
 17 11  1  0  0  0  0
 18 21  1  0  0  0  0
 18 22  1  0  0  0  0
 19 18  2  0  0  0  0
 20 18  2  0  0  0  0
 21  5  1  0  0  0  0
 22 24  1  0  0  0  0
 22 23  1  0  0  0  0
 25 22  1  0  0  0  0
 26  3  1  0  0  0  0
M  RAD  2   1   2   2   3
M  END
