Coordinates from ORCA-job C6H6+HOTf+NH2N2+-scan
 OpenBabel10221816143D

 26 25  0  0  1  0  0  0  0  0999 V2000
   -2.5501   -0.1659    6.1306 N   0  0  0  0  0  0  0  0  0  0  0  0
   -2.0114   -0.8861    5.4907 N   0  0  0  0  0  0  0  0  0  0  0  0
    0.5621   -1.1176   -0.3162 N   0  0  0  0  0  0  0  0  0  0  0  0
    0.4963   -1.0654    0.7134 H   0  0  0  0  0  0  0  0  0  0  0  0
   -1.1044   -2.2136    4.3948 H   0  0  0  0  0  0  0  0  0  0  0  0
   -0.5799   -2.2152   -2.3120 C   0  0  0  0  0  0  0  0  0  0  0  0
    0.0739   -2.3794   -0.9995 C   0  0  1  0  0  0  0  0  0  0  0  0
    1.5585   -2.1267   -0.9191 C   0  0  1  0  0  0  0  0  0  0  0  0
    2.2570   -1.7112   -2.1467 C   0  0  0  0  0  0  0  0  0  0  0  0
    1.5560   -1.4823   -3.2792 C   0  0  0  0  0  0  0  0  0  0  0  0
    0.1223   -1.7396   -3.3634 C   0  0  0  0  0  0  0  0  0  0  0  0
   -1.6152   -2.5238   -2.4077 H   0  0  0  0  0  0  0  0  0  0  0  0
   -0.3639   -3.0613   -0.2771 H   0  0  0  0  0  0  0  0  0  0  0  0
    2.1152   -2.6198   -0.1290 H   0  0  0  0  0  0  0  0  0  0  0  0
    3.3385   -1.6363   -2.1179 H   0  0  0  0  0  0  0  0  0  0  0  0
    2.0744   -1.1697   -4.1804 H   0  0  0  0  0  0  0  0  0  0  0  0
   -0.3649   -1.6129   -4.3253 H   0  0  0  0  0  0  0  0  0  0  0  0
    0.5421   -2.5495    3.0263 S   0  0  0  0  0  0  0  0  0  0  0  0
    0.7847   -3.5956    2.0457 O   0  0  0  0  0  0  0  0  0  0  0  0
    0.3877   -1.1608    2.5583 O   0  0  0  0  0  0  0  0  0  0  0  0
   -0.7097   -2.9790    3.9158 O   0  0  0  0  0  0  0  0  0  0  0  0
    1.9229   -2.5615    4.2941 C   0  0  0  0  0  0  0  0  0  0  0  0
    1.5765   -1.7458    5.2850 F   0  0  0  0  0  0  0  0  0  0  0  0
    2.0916   -3.7930    4.7388 F   0  0  0  0  0  0  0  0  0  0  0  0
    3.0215   -2.1231    3.6925 F   0  0  0  0  0  0  0  0  0  0  0  0
    0.4410   -0.2428   -0.8222 H   0  0  0  0  0  0  0  0  0  0  0  0
  2  1  3  0  0  0  0
  3  4  1  0  0  0  0
  6  7  1  0  0  0  0
  7  8  1  0  0  0  0
  7  3  1  0  0  0  0
  7 13  1  1  0  0  0
  8  3  1  0  0  0  0
  8 14  1  1  0  0  0
  9 15  1  0  0  0  0
  9  8  1  0  0  0  0
 10  9  2  0  0  0  0
 11 10  1  0  0  0  0
 11  6  2  0  0  0  0
 12  6  1  0  0  0  0
 16 10  1  0  0  0  0
 17 11  1  0  0  0  0
 18 21  1  0  0  0  0
 18 22  1  0  0  0  0
 19 18  2  0  0  0  0
 20 18  2  0  0  0  0
 21  5  1  0  0  0  0
 22 24  1  0  0  0  0
 22 23  1  0  0  0  0
 25 22  1  0  0  0  0
 26  3  1  0  0  0  0
M  END
