Coordinates from ORCA-job C6H6+HOTf+NH2N2+-scan
 OpenBabel10221816143D

 26 24  0  0  0  0  0  0  0  0999 V2000
   -2.1620   -2.6697    0.8275 N   0  0  0  0  0  0  0  0  0  0  0  0
   -3.1731   -3.1182    0.6307 N   0  0  0  0  0  0  0  0  0  0  0  0
   -1.0346   -2.1298    1.0189 N   0  0  0  0  0  0  0  0  0  0  0  0
   -0.6542   -2.1124    2.0063 H   0  0  0  0  0  0  0  0  0  0  0  0
    1.7567   -3.1299    4.9951 H   0  0  0  0  0  0  0  0  0  0  0  0
   -0.1168   -1.3482   -2.2480 C   0  0  0  0  0  0  0  0  0  0  0  0
   -0.1315   -2.4612   -3.0918 C   0  0  0  0  0  0  0  0  0  0  0  0
    0.7911   -3.4965   -2.9019 C   0  0  0  0  0  0  0  0  0  0  0  0
    1.7150   -3.4340   -1.8536 C   0  0  0  0  0  0  0  0  0  0  0  0
    1.7355   -2.3252   -1.0040 C   0  0  0  0  0  0  0  0  0  0  0  0
    0.8202   -1.2749   -1.2009 C   0  0  0  0  0  0  0  0  0  0  0  0
   -0.8046   -0.5245   -2.4200 H   0  0  0  0  0  0  0  0  0  0  0  0
   -0.8434   -2.5115   -3.9104 H   0  0  0  0  0  0  0  0  0  0  0  0
    0.7887   -4.3519   -3.5711 H   0  0  0  0  0  0  0  0  0  0  0  0
    2.4308   -4.2382   -1.7122 H   0  0  0  0  0  0  0  0  0  0  0  0
    2.4691   -2.2562   -0.2058 H   0  0  0  0  0  0  0  0  0  0  0  0
    0.9022   -0.3680   -0.6041 H   0  0  0  0  0  0  0  0  0  0  0  0
    1.4353   -1.5297    3.5789 S   0  0  0  0  0  0  0  0  0  0  0  0
    2.1507   -1.1598    2.3767 O   0  0  0  0  0  0  0  0  0  0  0  0
    0.0391   -2.0188    3.4824 O   0  0  0  0  0  0  0  0  0  0  0  0
    2.3092   -2.6136    4.3775 O   0  0  0  0  0  0  0  0  0  0  0  0
    1.4174   -0.0925    4.7916 C   0  0  0  0  0  0  0  0  0  0  0  0
    0.9558   -0.5477    5.9503 F   0  0  0  0  0  0  0  0  0  0  0  0
    2.6461    0.3675    4.9195 F   0  0  0  0  0  0  0  0  0  0  0  0
    0.6105    0.8321    4.2945 F   0  0  0  0  0  0  0  0  0  0  0  0
   -0.4305   -1.9651    0.1640 H   0  0  0  0  0  0  0  0  0  0  0  0
  1  3  1  0  0  0  0
  2  1  1  0  0  0  0
  3  4  1  0  0  0  0
  6 11  2  0  0  0  0
  7  8  2  0  0  0  0
  7  6  1  0  0  0  0
  8  9  1  0  0  0  0
  9 15  1  0  0  0  0
  9 10  2  0  0  0  0
 10 16  1  0  0  0  0
 11 10  1  0  0  0  0
 11 17  1  0  0  0  0
 12  6  1  0  0  0  0
 13  7  1  0  0  0  0
 14  8  1  0  0  0  0
 18 21  1  0  0  0  0
 18 22  1  0  0  0  0
 19 18  2  0  0  0  0
 20 18  2  0  0  0  0
 21  5  1  0  0  0  0
 22 24  1  0  0  0  0
 22 23  1  0  0  0  0
 25 22  1  0  0  0  0
 26  3  1  0  0  0  0
M  RAD  2   1   2   2   3
M  END
