Coordinates from ORCA-job C6H6+HOTf+NH2N2+-scan
 OpenBabel10221816143D

 26 25  0  0  1  0  0  0  0  0999 V2000
   -2.9203   -1.0133    6.0689 N   0  0  0  0  0  0  0  0  0  0  0  0
   -2.1809   -1.5736    5.4708 N   0  0  0  0  0  0  0  0  0  0  0  0
    0.5330   -0.9973   -0.3074 N   0  0  0  0  0  0  0  0  0  0  0  0
    0.4630   -1.0075    0.7175 H   0  0  0  0  0  0  0  0  0  0  0  0
   -0.8948   -2.6312    4.4453 H   0  0  0  0  0  0  0  0  0  0  0  0
   -0.6537   -1.6161   -2.4617 C   0  0  0  0  0  0  0  0  0  0  0  0
   -0.2162   -2.0294   -1.1012 C   0  0  1  0  0  0  0  0  0  0  0  0
    1.1978   -2.5105   -0.9718 C   0  0  1  0  0  0  0  0  0  0  0  0
    2.1053   -2.3716   -2.0916 C   0  0  0  0  0  0  0  0  0  0  0  0
    1.6449   -1.8838   -3.2717 C   0  0  0  0  0  0  0  0  0  0  0  0
    0.2465   -1.5166   -3.4616 C   0  0  0  0  0  0  0  0  0  0  0  0
   -1.7101   -1.4301   -2.6250 H   0  0  0  0  0  0  0  0  0  0  0  0
   -0.9752   -2.5095   -0.4871 H   0  0  0  0  0  0  0  0  0  0  0  0
    1.4624   -3.0903   -0.0931 H   0  0  0  0  0  0  0  0  0  0  0  0
    3.1294   -2.7074   -1.9720 H   0  0  0  0  0  0  0  0  0  0  0  0
    2.3174   -1.8025   -4.1205 H   0  0  0  0  0  0  0  0  0  0  0  0
   -0.0736   -1.2103   -4.4527 H   0  0  0  0  0  0  0  0  0  0  0  0
    0.7986   -2.5323    3.0985 S   0  0  0  0  0  0  0  0  0  0  0  0
    1.3744   -3.5168    2.1982 O   0  0  0  0  0  0  0  0  0  0  0  0
    0.2336   -1.2881    2.5494 O   0  0  0  0  0  0  0  0  0  0  0  0
   -0.2834   -3.2693    4.0113 O   0  0  0  0  0  0  0  0  0  0  0  0
    2.0835   -2.0432    4.3715 C   0  0  0  0  0  0  0  0  0  0  0  0
    1.4762   -1.3250    5.3123 F   0  0  0  0  0  0  0  0  0  0  0  0
    2.6192   -3.1332    4.8900 F   0  0  0  0  0  0  0  0  0  0  0  0
    3.0045   -1.3143    3.7538 F   0  0  0  0  0  0  0  0  0  0  0  0
    0.8409   -0.1548   -0.7801 H   0  0  0  0  0  0  0  0  0  0  0  0
  2  1  3  0  0  0  0
  3  4  1  0  0  0  0
  6  7  1  0  0  0  0
  7  8  1  0  0  0  0
  7 13  1  1  0  0  0
  7  3  1  0  0  0  0
  8  3  1  0  0  0  0
  8 14  1  1  0  0  0
  9 15  1  0  0  0  0
  9  8  1  0  0  0  0
 10  9  2  0  0  0  0
 11 10  1  0  0  0  0
 11  6  2  0  0  0  0
 12  6  1  0  0  0  0
 16 10  1  0  0  0  0
 17 11  1  0  0  0  0
 18 21  1  0  0  0  0
 18 22  1  0  0  0  0
 19 18  2  0  0  0  0
 20 18  2  0  0  0  0
 21  5  1  0  0  0  0
 22 24  1  0  0  0  0
 22 23  1  0  0  0  0
 25 22  1  0  0  0  0
 26  3  1  0  0  0  0
M  END
