Coordinates from ORCA-job C6H6+HOTf+NH2N2+-scan
 OpenBabel10221816143D

 26 24  0  0  0  0  0  0  0  0999 V2000
   -0.8152    0.4403    0.6512 N   0  0  0  0  0  0  0  0  0  0  0  0
   -1.4225    1.3750    0.5047 N   0  0  0  0  0  0  0  0  0  0  0  0
   -0.1333   -0.6163    0.7644 N   0  0  0  0  0  0  0  0  0  0  0  0
   -0.1134   -1.0835    1.7095 H   0  0  0  0  0  0  0  0  0  0  0  0
   -0.8745   -3.8679    4.4314 H   0  0  0  0  0  0  0  0  0  0  0  0
    0.1040   -3.2276   -1.7860 C   0  0  0  0  0  0  0  0  0  0  0  0
    1.2112   -2.8668   -1.0157 C   0  0  0  0  0  0  0  0  0  0  0  0
    1.7717   -1.5836   -1.1567 C   0  0  0  0  0  0  0  0  0  0  0  0
    1.2416   -0.6835   -2.1002 C   0  0  0  0  0  0  0  0  0  0  0  0
    0.1294   -1.0514   -2.8639 C   0  0  0  0  0  0  0  0  0  0  0  0
   -0.4354   -2.3213   -2.7056 C   0  0  0  0  0  0  0  0  0  0  0  0
   -0.3306   -4.2170   -1.6810 H   0  0  0  0  0  0  0  0  0  0  0  0
    1.6378   -3.5653   -0.3023 H   0  0  0  0  0  0  0  0  0  0  0  0
    2.6680   -1.3210   -0.5991 H   0  0  0  0  0  0  0  0  0  0  0  0
    1.7037    0.2903   -2.2389 H   0  0  0  0  0  0  0  0  0  0  0  0
   -0.2802   -0.3608   -3.5950 H   0  0  0  0  0  0  0  0  0  0  0  0
   -1.2921   -2.6089   -3.3080 H   0  0  0  0  0  0  0  0  0  0  0  0
    0.8320   -2.9716    3.4548 S   0  0  0  0  0  0  0  0  0  0  0  0
    1.7104   -3.4700    2.4197 O   0  0  0  0  0  0  0  0  0  0  0  0
   -0.0461   -1.8083    3.1906 O   0  0  0  0  0  0  0  0  0  0  0  0
   -0.0705   -4.1912    3.9821 O   0  0  0  0  0  0  0  0  0  0  0  0
    1.8232   -2.5470    4.9943 C   0  0  0  0  0  0  0  0  0  0  0  0
    0.9625   -2.3219    5.9807 F   0  0  0  0  0  0  0  0  0  0  0  0
    2.6158   -3.5607    5.2814 F   0  0  0  0  0  0  0  0  0  0  0  0
    2.5236   -1.4556    4.7250 F   0  0  0  0  0  0  0  0  0  0  0  0
    0.5018   -0.8823   -0.0470 H   0  0  0  0  0  0  0  0  0  0  0  0
  1  3  1  0  0  0  0
  2  1  1  0  0  0  0
  3  4  1  0  0  0  0
  6 12  1  0  0  0  0
  6  7  2  0  0  0  0
  7 13  1  0  0  0  0
  8  7  1  0  0  0  0
  8 14  1  0  0  0  0
  9  8  2  0  0  0  0
 10 11  2  0  0  0  0
 10  9  1  0  0  0  0
 11  6  1  0  0  0  0
 15  9  1  0  0  0  0
 16 10  1  0  0  0  0
 17 11  1  0  0  0  0
 18 21  1  0  0  0  0
 18 22  1  0  0  0  0
 19 18  2  0  0  0  0
 20 18  2  0  0  0  0
 21  5  1  0  0  0  0
 22 24  1  0  0  0  0
 22 23  1  0  0  0  0
 25 22  1  0  0  0  0
 26  3  1  0  0  0  0
M  RAD  2   1   2   2   3
M  END
