Coordinates from ORCA-job C6H6+HOTf+NH2N2+-scan
 OpenBabel10221816143D

 26 24  0  0  0  0  0  0  0  0999 V2000
   -2.1228   -2.6814    0.7745 N   0  0  0  0  0  0  0  0  0  0  0  0
   -3.1287   -3.1374    0.5681 N   0  0  0  0  0  0  0  0  0  0  0  0
   -1.0015   -2.1344    0.9786 N   0  0  0  0  0  0  0  0  0  0  0  0
   -0.6286   -2.1203    1.9686 H   0  0  0  0  0  0  0  0  0  0  0  0
    1.7552   -3.1476    4.9759 H   0  0  0  0  0  0  0  0  0  0  0  0
   -0.1165   -1.3296   -2.2479 C   0  0  0  0  0  0  0  0  0  0  0  0
   -0.1663   -2.4753   -3.0460 C   0  0  0  0  0  0  0  0  0  0  0  0
    0.7451   -3.5164   -2.8343 C   0  0  0  0  0  0  0  0  0  0  0  0
    1.6949   -3.4254   -1.8115 C   0  0  0  0  0  0  0  0  0  0  0  0
    1.7500   -2.2839   -1.0073 C   0  0  0  0  0  0  0  0  0  0  0  0
    0.8441   -1.2298   -1.2247 C   0  0  0  0  0  0  0  0  0  0  0  0
   -0.7973   -0.5036   -2.4354 H   0  0  0  0  0  0  0  0  0  0  0  0
   -0.8970   -2.5476   -3.8462 H   0  0  0  0  0  0  0  0  0  0  0  0
    0.7147   -4.3981   -3.4676 H   0  0  0  0  0  0  0  0  0  0  0  0
    2.4026   -4.2339   -1.6544 H   0  0  0  0  0  0  0  0  0  0  0  0
    2.5001   -2.1952   -0.2268 H   0  0  0  0  0  0  0  0  0  0  0  0
    0.9430   -0.3064   -0.6571 H   0  0  0  0  0  0  0  0  0  0  0  0
    1.4426   -1.5365    3.5701 S   0  0  0  0  0  0  0  0  0  0  0  0
    2.1711   -1.1514    2.3807 O   0  0  0  0  0  0  0  0  0  0  0  0
    0.0504   -2.0320    3.4521 O   0  0  0  0  0  0  0  0  0  0  0  0
    2.3124   -2.6233    4.3694 O   0  0  0  0  0  0  0  0  0  0  0  0
    1.4018   -0.1113    4.7962 C   0  0  0  0  0  0  0  0  0  0  0  0
    0.9287   -0.5801    5.9448 F   0  0  0  0  0  0  0  0  0  0  0  0
    2.6262    0.3544    4.9435 F   0  0  0  0  0  0  0  0  0  0  0  0
    0.5957    0.8137    4.2982 F   0  0  0  0  0  0  0  0  0  0  0  0
   -0.3970   -1.9451    0.1287 H   0  0  0  0  0  0  0  0  0  0  0  0
  1  3  1  0  0  0  0
  2  1  1  0  0  0  0
  3  4  1  0  0  0  0
  6 11  2  0  0  0  0
  7  8  2  0  0  0  0
  7  6  1  0  0  0  0
  8  9  1  0  0  0  0
  9 15  1  0  0  0  0
  9 10  2  0  0  0  0
 10 16  1  0  0  0  0
 11 10  1  0  0  0  0
 11 17  1  0  0  0  0
 12  6  1  0  0  0  0
 13  7  1  0  0  0  0
 14  8  1  0  0  0  0
 18 21  1  0  0  0  0
 18 22  1  0  0  0  0
 19 18  2  0  0  0  0
 20 18  2  0  0  0  0
 21  5  1  0  0  0  0
 22 24  1  0  0  0  0
 22 23  1  0  0  0  0
 25 22  1  0  0  0  0
 26  3  1  0  0  0  0
M  RAD  2   1   2   2   3
M  END
