Coordinates from ORCA-job C6H6+HOTf+NH2N2+-scan
 OpenBabel10221816143D

 26 24  0  0  0  0  0  0  0  0999 V2000
   -2.0067   -2.5185    0.3913 N   0  0  0  0  0  0  0  0  0  0  0  0
   -3.0177   -2.9673    0.1954 N   0  0  0  0  0  0  0  0  0  0  0  0
   -0.8725   -2.0119    0.6150 N   0  0  0  0  0  0  0  0  0  0  0  0
   -0.4926   -2.0576    1.6018 H   0  0  0  0  0  0  0  0  0  0  0  0
    1.4432   -3.5495    4.7263 H   0  0  0  0  0  0  0  0  0  0  0  0
   -0.2491   -1.4058   -2.4555 C   0  0  0  0  0  0  0  0  0  0  0  0
   -0.3141   -2.8035   -2.5055 C   0  0  0  0  0  0  0  0  0  0  0  0
    0.6497   -3.5712   -1.8417 C   0  0  0  0  0  0  0  0  0  0  0  0
    1.6917   -2.9502   -1.1462 C   0  0  0  0  0  0  0  0  0  0  0  0
    1.7616   -1.5539   -1.0920 C   0  0  0  0  0  0  0  0  0  0  0  0
    0.7844   -0.7792   -1.7388 C   0  0  0  0  0  0  0  0  0  0  0  0
   -0.9857   -0.8043   -2.9808 H   0  0  0  0  0  0  0  0  0  0  0  0
   -1.1018   -3.2912   -3.0731 H   0  0  0  0  0  0  0  0  0  0  0  0
    0.6029   -4.6554   -1.8903 H   0  0  0  0  0  0  0  0  0  0  0  0
    2.4497   -3.5494   -0.6508 H   0  0  0  0  0  0  0  0  0  0  0  0
    2.5676   -1.0701   -0.5492 H   0  0  0  0  0  0  0  0  0  0  0  0
    0.8448    0.3051   -1.7116 H   0  0  0  0  0  0  0  0  0  0  0  0
    1.5227   -1.8292    3.4195 S   0  0  0  0  0  0  0  0  0  0  0  0
    2.4398   -1.4710    2.3614 O   0  0  0  0  0  0  0  0  0  0  0  0
    0.0993   -2.1086    3.1116 O   0  0  0  0  0  0  0  0  0  0  0  0
    2.1321   -3.0844    4.2146 O   0  0  0  0  0  0  0  0  0  0  0  0
    1.5190   -0.5058    4.7545 C   0  0  0  0  0  0  0  0  0  0  0  0
    0.8559   -0.9877    5.7999 F   0  0  0  0  0  0  0  0  0  0  0  0
    2.7663   -0.2246    5.0754 F   0  0  0  0  0  0  0  0  0  0  0  0
    0.9033    0.5560    4.2572 F   0  0  0  0  0  0  0  0  0  0  0  0
   -0.3711   -1.5888   -0.1984 H   0  0  0  0  0  0  0  0  0  0  0  0
  1  3  1  0  0  0  0
  2  1  1  0  0  0  0
  3  4  1  0  0  0  0
  6 11  1  0  0  0  0
  7  6  2  0  0  0  0
  7  8  1  0  0  0  0
  8  9  2  0  0  0  0
  9 10  1  0  0  0  0
  9 15  1  0  0  0  0
 10 16  1  0  0  0  0
 11 17  1  0  0  0  0
 11 10  2  0  0  0  0
 12  6  1  0  0  0  0
 13  7  1  0  0  0  0
 14  8  1  0  0  0  0
 18 21  1  0  0  0  0
 18 22  1  0  0  0  0
 19 18  2  0  0  0  0
 20 18  2  0  0  0  0
 21  5  1  0  0  0  0
 22 24  1  0  0  0  0
 22 23  1  0  0  0  0
 25 22  1  0  0  0  0
 26  3  1  0  0  0  0
M  RAD  2   1   2   2   3
M  END
