Coordinates from ORCA-job C6H6+HOTf+NH2N2+-scan
 OpenBabel10221816143D

 26 24  0  0  0  0  0  0  0  0999 V2000
   -2.8606   -2.3035    1.8524 N   0  0  0  0  0  0  0  0  0  0  0  0
   -3.9732   -2.4369    1.9055 N   0  0  0  0  0  0  0  0  0  0  0  0
   -1.6051   -2.1369    1.8290 N   0  0  0  0  0  0  0  0  0  0  0  0
   -1.0700   -1.9916    2.7543 H   0  0  0  0  0  0  0  0  0  0  0  0
    1.4589   -2.9658    5.5270 H   0  0  0  0  0  0  0  0  0  0  0  0
   -0.1715   -1.7498   -2.6683 C   0  0  0  0  0  0  0  0  0  0  0  0
    0.3877   -2.4408   -3.7467 C   0  0  0  0  0  0  0  0  0  0  0  0
    1.5902   -3.1380   -3.5887 C   0  0  0  0  0  0  0  0  0  0  0  0
    2.2238   -3.1566   -2.3417 C   0  0  0  0  0  0  0  0  0  0  0  0
    1.6699   -2.4659   -1.2594 C   0  0  0  0  0  0  0  0  0  0  0  0
    0.4748   -1.7568   -1.4267 C   0  0  0  0  0  0  0  0  0  0  0  0
   -1.0913   -1.1874   -2.8055 H   0  0  0  0  0  0  0  0  0  0  0  0
   -0.1069   -2.4243   -4.7135 H   0  0  0  0  0  0  0  0  0  0  0  0
    2.0287   -3.6654   -4.4305 H   0  0  0  0  0  0  0  0  0  0  0  0
    3.1571   -3.6977   -2.2159 H   0  0  0  0  0  0  0  0  0  0  0  0
    2.1790   -2.4592   -0.2993 H   0  0  0  0  0  0  0  0  0  0  0  0
    0.0901   -1.1394   -0.6115 H   0  0  0  0  0  0  0  0  0  0  0  0
    1.2693   -1.6675    3.8072 S   0  0  0  0  0  0  0  0  0  0  0  0
    1.8023   -1.7678    2.4671 O   0  0  0  0  0  0  0  0  0  0  0  0
   -0.2025   -1.7704    4.0091 O   0  0  0  0  0  0  0  0  0  0  0  0
    1.9906   -2.7561    4.7350 O   0  0  0  0  0  0  0  0  0  0  0  0
    1.8031   -0.0535    4.6180 C   0  0  0  0  0  0  0  0  0  0  0  0
    1.4691   -0.1198    5.9002 F   0  0  0  0  0  0  0  0  0  0  0  0
    3.1054    0.0763    4.4712 F   0  0  0  0  0  0  0  0  0  0  0  0
    1.1510    0.9236    4.0093 F   0  0  0  0  0  0  0  0  0  0  0  0
   -1.1472   -2.2267    0.9125 H   0  0  0  0  0  0  0  0  0  0  0  0
  1  2  1  0  0  0  0
  3  1  1  0  0  0  0
  3  4  1  0  0  0  0
  6 11  2  0  0  0  0
  7  8  2  0  0  0  0
  7  6  1  0  0  0  0
  8  9  1  0  0  0  0
  9 15  1  0  0  0  0
  9 10  2  0  0  0  0
 10 16  1  0  0  0  0
 11 10  1  0  0  0  0
 11 17  1  0  0  0  0
 12  6  1  0  0  0  0
 13  7  1  0  0  0  0
 14  8  1  0  0  0  0
 18 20  2  0  0  0  0
 18 22  1  0  0  0  0
 18 21  1  0  0  0  0
 19 18  2  0  0  0  0
 21  5  1  0  0  0  0
 22 23  1  0  0  0  0
 24 22  1  0  0  0  0
 25 22  1  0  0  0  0
 26  3  1  0  0  0  0
M  RAD  2   1   2   2   3
M  END
