Coordinates from ORCA-job C6H6+HOTf+NH2N2+-scan
 OpenBabel10221816143D

 26 24  0  0  0  0  0  0  0  0999 V2000
   -2.1010    0.5292    5.8583 N   0  0  0  0  0  0  0  0  0  0  0  0
   -1.7299   -0.3278    5.2699 N   0  0  0  0  0  0  0  0  0  0  0  0
    0.7662   -1.3381   -0.3721 N   0  0  0  0  0  0  0  0  0  0  0  0
    0.6539   -1.3016    0.6766 H   0  0  0  0  0  0  0  0  0  0  0  0
   -1.1541   -1.8944    4.2836 H   0  0  0  0  0  0  0  0  0  0  0  0
   -0.3493   -2.6002   -2.2052 C   0  0  0  0  0  0  0  0  0  0  0  0
    0.4137   -2.6731   -0.9771 C   0  0  0  0  0  0  0  0  0  0  0  0
    1.6480   -1.7089   -0.8517 C   0  0  0  0  0  0  0  0  0  0  0  0
    2.1428   -1.1823   -2.1611 C   0  0  0  0  0  0  0  0  0  0  0  0
    1.2916   -1.0925   -3.2092 C   0  0  0  0  0  0  0  0  0  0  0  0
    0.0049   -1.7612   -3.2131 C   0  0  0  0  0  0  0  0  0  0  0  0
   -1.1974   -3.2719   -2.2916 H   0  0  0  0  0  0  0  0  0  0  0  0
    0.3080   -3.4206   -0.2032 H   0  0  0  0  0  0  0  0  0  0  0  0
    2.4867   -2.0703   -0.2417 H   0  0  0  0  0  0  0  0  0  0  0  0
    3.1919   -0.9201   -2.2378 H   0  0  0  0  0  0  0  0  0  0  0  0
    1.6261   -0.6308   -4.1338 H   0  0  0  0  0  0  0  0  0  0  0  0
   -0.6134   -1.6959   -4.1020 H   0  0  0  0  0  0  0  0  0  0  0  0
    0.3731   -2.7555    3.0018 S   0  0  0  0  0  0  0  0  0  0  0  0
    0.3878   -3.9364    2.1604 O   0  0  0  0  0  0  0  0  0  0  0  0
    0.5527   -1.4257    2.3749 O   0  0  0  0  0  0  0  0  0  0  0  0
   -0.9604   -2.7688    3.8715 O   0  0  0  0  0  0  0  0  0  0  0  0
    1.6968   -2.9022    4.3239 C   0  0  0  0  0  0  0  0  0  0  0  0
    1.5024   -1.9244    5.2039 F   0  0  0  0  0  0  0  0  0  0  0  0
    1.5953   -4.0823    4.9037 F   0  0  0  0  0  0  0  0  0  0  0  0
    2.8729   -2.7658    3.7273 F   0  0  0  0  0  0  0  0  0  0  0  0
    0.2132   -0.5563   -0.7661 H   0  0  0  0  0  0  0  0  0  0  0  0
  2  1  3  0  0  0  0
  3  4  1  0  0  0  0
  6  7  1  0  0  0  0
  7  3  1  0  0  0  0
  7 13  1  0  0  0  0
  8  3  1  0  0  0  0
  8 14  1  0  0  0  0
  9  8  1  0  0  0  0
 10  9  2  0  0  0  0
 11 10  1  0  0  0  0
 11  6  2  0  0  0  0
 12  6  1  0  0  0  0
 15  9  1  0  0  0  0
 16 10  1  0  0  0  0
 17 11  1  0  0  0  0
 18 21  1  0  0  0  0
 18 22  1  0  0  0  0
 19 18  2  0  0  0  0
 20 18  2  0  0  0  0
 21  5  1  0  0  0  0
 22 24  1  0  0  0  0
 22 23  1  0  0  0  0
 25 22  1  0  0  0  0
 26  3  1  0  0  0  0
M  RAD  2   7   2   8   2
M  END
