Coordinates from ORCA-job C6H6+HOTf+NH2N2+-scan
 OpenBabel10221816143D

 26 24  0  0  0  0  0  0  0  0999 V2000
   -2.6703   -2.3618    1.5523 N   0  0  0  0  0  0  0  0  0  0  0  0
   -3.7680   -2.5946    1.5435 N   0  0  0  0  0  0  0  0  0  0  0  0
   -1.4367   -2.0767    1.5810 N   0  0  0  0  0  0  0  0  0  0  0  0
   -0.9434   -1.9917    2.5296 H   0  0  0  0  0  0  0  0  0  0  0  0
    1.5681   -3.0595    5.3167 H   0  0  0  0  0  0  0  0  0  0  0  0
   -0.1981   -1.6817   -2.5433 C   0  0  0  0  0  0  0  0  0  0  0  0
    0.2473   -2.4831   -3.5977 C   0  0  0  0  0  0  0  0  0  0  0  0
    1.4009   -3.2625   -3.4520 C   0  0  0  0  0  0  0  0  0  0  0  0
    2.0934   -3.2587   -2.2358 C   0  0  0  0  0  0  0  0  0  0  0  0
    1.6542   -2.4583   -1.1769 C   0  0  0  0  0  0  0  0  0  0  0  0
    0.5121   -1.6605   -1.3345 C   0  0  0  0  0  0  0  0  0  0  0  0
   -1.0712   -1.0485   -2.6775 H   0  0  0  0  0  0  0  0  0  0  0  0
   -0.2931   -2.4851   -4.5397 H   0  0  0  0  0  0  0  0  0  0  0  0
    1.7544   -3.8718   -4.2783 H   0  0  0  0  0  0  0  0  0  0  0  0
    2.9872   -3.8645   -2.1193 H   0  0  0  0  0  0  0  0  0  0  0  0
    2.2158   -2.4269   -0.2472 H   0  0  0  0  0  0  0  0  0  0  0  0
    0.2472   -0.9345   -0.5627 H   0  0  0  0  0  0  0  0  0  0  0  0
    1.3381   -1.5965    3.7408 S   0  0  0  0  0  0  0  0  0  0  0  0
    1.9385   -1.4992    2.4289 O   0  0  0  0  0  0  0  0  0  0  0  0
   -0.1246   -1.8411    3.8547 O   0  0  0  0  0  0  0  0  0  0  0  0
    2.1130   -2.7205    4.5806 O   0  0  0  0  0  0  0  0  0  0  0  0
    1.6970   -0.0477    4.7490 C   0  0  0  0  0  0  0  0  0  0  0  0
    1.3165   -0.2849    5.9981 F   0  0  0  0  0  0  0  0  0  0  0  0
    2.9886    0.2034    4.6852 F   0  0  0  0  0  0  0  0  0  0  0  0
    0.9898    0.9372    4.2190 F   0  0  0  0  0  0  0  0  0  0  0  0
   -0.9339   -2.1082    0.6757 H   0  0  0  0  0  0  0  0  0  0  0  0
  1  3  1  0  0  0  0
  2  1  1  0  0  0  0
  3  4  1  0  0  0  0
  6 11  2  0  0  0  0
  7  8  2  0  0  0  0
  7  6  1  0  0  0  0
  8  9  1  0  0  0  0
  9 15  1  0  0  0  0
  9 10  2  0  0  0  0
 10 16  1  0  0  0  0
 11 10  1  0  0  0  0
 11 17  1  0  0  0  0
 12  6  1  0  0  0  0
 13  7  1  0  0  0  0
 14  8  1  0  0  0  0
 18 20  2  0  0  0  0
 18 21  1  0  0  0  0
 18 22  1  0  0  0  0
 19 18  2  0  0  0  0
 21  5  1  0  0  0  0
 22 23  1  0  0  0  0
 24 22  1  0  0  0  0
 25 22  1  0  0  0  0
 26  3  1  0  0  0  0
M  RAD  2   1   2   2   3
M  END
