Coordinates from ORCA-job C6H6+HOTf+NH2N2+-scan
 OpenBabel10221816143D

 26 24  0  0  0  0  0  0  0  0999 V2000
   -2.4856   -2.5123    1.2865 N   0  0  0  0  0  0  0  0  0  0  0  0
   -3.5430   -2.8810    1.2105 N   0  0  0  0  0  0  0  0  0  0  0  0
   -1.3057   -2.0573    1.3675 N   0  0  0  0  0  0  0  0  0  0  0  0
   -0.8512   -2.0077    2.3304 H   0  0  0  0  0  0  0  0  0  0  0  0
    1.6319   -3.0706    5.1973 H   0  0  0  0  0  0  0  0  0  0  0  0
   -0.1727   -1.5520   -2.3999 C   0  0  0  0  0  0  0  0  0  0  0  0
    0.1251   -2.4476   -3.4297 C   0  0  0  0  0  0  0  0  0  0  0  0
    1.1952   -3.3412   -3.2985 C   0  0  0  0  0  0  0  0  0  0  0  0
    1.9466   -3.3608   -2.1175 C   0  0  0  0  0  0  0  0  0  0  0  0
    1.6554   -2.4675   -1.0830 C   0  0  0  0  0  0  0  0  0  0  0  0
    0.5999   -1.5519   -1.2267 C   0  0  0  0  0  0  0  0  0  0  0  0
   -0.9725   -0.8272   -2.5276 H   0  0  0  0  0  0  0  0  0  0  0  0
   -0.4602   -2.4330   -4.3443 H   0  0  0  0  0  0  0  0  0  0  0  0
    1.4377   -4.0217   -4.1091 H   0  0  0  0  0  0  0  0  0  0  0  0
    2.7744   -4.0560   -2.0135 H   0  0  0  0  0  0  0  0  0  0  0  0
    2.2679   -2.4510   -0.1858 H   0  0  0  0  0  0  0  0  0  0  0  0
    0.4757   -0.7516   -0.4954 H   0  0  0  0  0  0  0  0  0  0  0  0
    1.3759   -1.5557    3.6764 S   0  0  0  0  0  0  0  0  0  0  0  0
    2.0249   -1.3639    2.3979 O   0  0  0  0  0  0  0  0  0  0  0  0
   -0.0707   -1.8893    3.7179 O   0  0  0  0  0  0  0  0  0  0  0  0
    2.1850   -2.6688    4.5001 O   0  0  0  0  0  0  0  0  0  0  0  0
    1.6050   -0.0363    4.7627 C   0  0  0  0  0  0  0  0  0  0  0  0
    1.1899   -0.3489    5.9841 F   0  0  0  0  0  0  0  0  0  0  0  0
    2.8816    0.2902    4.7645 F   0  0  0  0  0  0  0  0  0  0  0  0
    0.8639    0.9309    4.2460 F   0  0  0  0  0  0  0  0  0  0  0  0
   -0.7519   -2.0459    0.4795 H   0  0  0  0  0  0  0  0  0  0  0  0
  1  3  1  0  0  0  0
  2  1  1  0  0  0  0
  3  4  1  0  0  0  0
  6 11  2  0  0  0  0
  7  8  2  0  0  0  0
  7  6  1  0  0  0  0
  8  9  1  0  0  0  0
  9 15  1  0  0  0  0
  9 10  2  0  0  0  0
 10 16  1  0  0  0  0
 11 10  1  0  0  0  0
 11 17  1  0  0  0  0
 12  6  1  0  0  0  0
 13  7  1  0  0  0  0
 14  8  1  0  0  0  0
 18 20  2  0  0  0  0
 18 21  1  0  0  0  0
 18 22  1  0  0  0  0
 19 18  2  0  0  0  0
 21  5  1  0  0  0  0
 22 24  1  0  0  0  0
 22 23  1  0  0  0  0
 25 22  1  0  0  0  0
 26  3  1  0  0  0  0
M  RAD  2   1   2   2   3
M  END
