Coordinates from ORCA-job C6H6+HOTf+NH2N2+-scan
 OpenBabel10221816143D

 26 25  0  0  1  0  0  0  0  0999 V2000
   -2.9117   -1.0520    6.1007 N   0  0  0  0  0  0  0  0  0  0  0  0
   -2.1706   -1.6059    5.4986 N   0  0  0  0  0  0  0  0  0  0  0  0
    0.4673   -0.9555   -0.3049 N   0  0  0  0  0  0  0  0  0  0  0  0
    0.4139   -0.9863    0.7186 H   0  0  0  0  0  0  0  0  0  0  0  0
   -0.8784   -2.6503    4.4639 H   0  0  0  0  0  0  0  0  0  0  0  0
   -0.6375   -1.5927   -2.4868 C   0  0  0  0  0  0  0  0  0  0  0  0
   -0.2242   -2.0071   -1.1153 C   0  0  1  0  0  0  0  0  0  0  0  0
    1.1725   -2.5288   -0.9796 C   0  0  1  0  0  0  0  0  0  0  0  0
    2.0984   -2.4025   -2.0742 C   0  0  0  0  0  0  0  0  0  0  0  0
    1.6604   -1.9183   -3.2680 C   0  0  0  0  0  0  0  0  0  0  0  0
    0.2734   -1.5252   -3.4794 C   0  0  0  0  0  0  0  0  0  0  0  0
   -1.6864   -1.3757   -2.6612 H   0  0  0  0  0  0  0  0  0  0  0  0
   -1.0017   -2.4931   -0.5282 H   0  0  0  0  0  0  0  0  0  0  0  0
    1.4237   -3.0785   -0.0778 H   0  0  0  0  0  0  0  0  0  0  0  0
    3.1188   -2.7424   -1.9361 H   0  0  0  0  0  0  0  0  0  0  0  0
    2.3470   -1.8524   -4.1070 H   0  0  0  0  0  0  0  0  0  0  0  0
   -0.0280   -1.2194   -4.4764 H   0  0  0  0  0  0  0  0  0  0  0  0
    0.8012   -2.5274    3.1027 S   0  0  0  0  0  0  0  0  0  0  0  0
    1.3773   -3.5033    2.1927 O   0  0  0  0  0  0  0  0  0  0  0  0
    0.2175   -1.2870    2.5668 O   0  0  0  0  0  0  0  0  0  0  0  0
   -0.2622   -3.2803    4.0250 O   0  0  0  0  0  0  0  0  0  0  0  0
    2.0959   -2.0327    4.3630 C   0  0  0  0  0  0  0  0  0  0  0  0
    1.4936   -1.3233    5.3138 F   0  0  0  0  0  0  0  0  0  0  0  0
    2.6470   -3.1200    4.8713 F   0  0  0  0  0  0  0  0  0  0  0  0
    3.0040   -1.2935    3.7382 F   0  0  0  0  0  0  0  0  0  0  0  0
    0.8111   -0.1244   -0.7704 H   0  0  0  0  0  0  0  0  0  0  0  0
  2  1  3  0  0  0  0
  3  4  1  0  0  0  0
  6  7  1  0  0  0  0
  7  8  1  0  0  0  0
  7 13  1  1  0  0  0
  7  3  1  0  0  0  0
  8  3  1  0  0  0  0
  8 14  1  1  0  0  0
  9 15  1  0  0  0  0
  9  8  1  0  0  0  0
 10  9  2  0  0  0  0
 11 10  1  0  0  0  0
 11  6  2  0  0  0  0
 12  6  1  0  0  0  0
 16 10  1  0  0  0  0
 17 11  1  0  0  0  0
 18 21  1  0  0  0  0
 18 22  1  0  0  0  0
 19 18  2  0  0  0  0
 20 18  2  0  0  0  0
 21  5  1  0  0  0  0
 22 24  1  0  0  0  0
 22 23  1  0  0  0  0
 25 22  1  0  0  0  0
 26  3  1  0  0  0  0
M  END
