Coordinates from ORCA-job C6H6+HOTf+NH2N2+-scan
 OpenBabel10221816143D

 26 24  0  0  0  0  0  0  0  0999 V2000
   -2.0040   -2.5251    0.3847 N   0  0  0  0  0  0  0  0  0  0  0  0
   -3.0127   -2.9787    0.1877 N   0  0  0  0  0  0  0  0  0  0  0  0
   -0.8724   -2.0136    0.6098 N   0  0  0  0  0  0  0  0  0  0  0  0
   -0.4935   -2.0581    1.5971 H   0  0  0  0  0  0  0  0  0  0  0  0
    1.4266   -3.5526    4.7303 H   0  0  0  0  0  0  0  0  0  0  0  0
   -0.2497   -1.4060   -2.4579 C   0  0  0  0  0  0  0  0  0  0  0  0
   -0.3131   -2.8042   -2.4976 C   0  0  0  0  0  0  0  0  0  0  0  0
    0.6498   -3.5653   -1.8248 C   0  0  0  0  0  0  0  0  0  0  0  0
    1.6917   -2.9381   -1.1343 C   0  0  0  0  0  0  0  0  0  0  0  0
    1.7596   -1.5413   -1.0907 C   0  0  0  0  0  0  0  0  0  0  0  0
    0.7813   -0.7732   -1.7433 C   0  0  0  0  0  0  0  0  0  0  0  0
   -0.9868   -0.8087   -2.9871 H   0  0  0  0  0  0  0  0  0  0  0  0
   -1.0996   -3.2969   -3.0624 H   0  0  0  0  0  0  0  0  0  0  0  0
    0.6037   -4.6500   -1.8642 H   0  0  0  0  0  0  0  0  0  0  0  0
    2.4498   -3.5324   -0.6332 H   0  0  0  0  0  0  0  0  0  0  0  0
    2.5632   -1.0516   -0.5496 H   0  0  0  0  0  0  0  0  0  0  0  0
    0.8376    0.3115   -1.7203 H   0  0  0  0  0  0  0  0  0  0  0  0
    1.5219   -1.8385    3.4163 S   0  0  0  0  0  0  0  0  0  0  0  0
    2.4433   -1.4921    2.3581 O   0  0  0  0  0  0  0  0  0  0  0  0
    0.0966   -2.1076    3.1075 O   0  0  0  0  0  0  0  0  0  0  0  0
    2.1199   -3.0954    4.2173 O   0  0  0  0  0  0  0  0  0  0  0  0
    1.5270   -0.5097    4.7459 C   0  0  0  0  0  0  0  0  0  0  0  0
    0.8586   -0.9821    5.7923 F   0  0  0  0  0  0  0  0  0  0  0  0
    2.7761   -0.2372    5.0674 F   0  0  0  0  0  0  0  0  0  0  0  0
    0.9205    0.5549    4.2435 F   0  0  0  0  0  0  0  0  0  0  0  0
   -0.3727   -1.5861   -0.2026 H   0  0  0  0  0  0  0  0  0  0  0  0
  1  3  1  0  0  0  0
  2  1  1  0  0  0  0
  3  4  1  0  0  0  0
  6 11  1  0  0  0  0
  7  6  2  0  0  0  0
  7  8  1  0  0  0  0
  8  9  2  0  0  0  0
  9 10  1  0  0  0  0
  9 15  1  0  0  0  0
 10 16  1  0  0  0  0
 11 17  1  0  0  0  0
 11 10  2  0  0  0  0
 12  6  1  0  0  0  0
 13  7  1  0  0  0  0
 14  8  1  0  0  0  0
 18 21  1  0  0  0  0
 18 22  1  0  0  0  0
 19 18  2  0  0  0  0
 20 18  2  0  0  0  0
 21  5  1  0  0  0  0
 22 24  1  0  0  0  0
 22 23  1  0  0  0  0
 25 22  1  0  0  0  0
 26  3  1  0  0  0  0
M  RAD  2   1   2   2   3
M  END
