Coordinates from ORCA-job C6H6+HOTf+NH2N2+-scan
 OpenBabel10221816143D

 26 24  0  0  0  0  0  0  0  0999 V2000
   -2.7686   -2.3141    1.7035 N   0  0  0  0  0  0  0  0  0  0  0  0
   -3.8777   -2.4823    1.7237 N   0  0  0  0  0  0  0  0  0  0  0  0
   -1.5190   -2.1081    1.7098 N   0  0  0  0  0  0  0  0  0  0  0  0
   -1.0064   -1.9956    2.6490 H   0  0  0  0  0  0  0  0  0  0  0  0
    1.5363   -3.0262    5.3985 H   0  0  0  0  0  0  0  0  0  0  0  0
   -0.1829   -1.7232   -2.6070 C   0  0  0  0  0  0  0  0  0  0  0  0
    0.3188   -2.4647   -3.6800 C   0  0  0  0  0  0  0  0  0  0  0  0
    1.4970   -3.2058   -3.5346 C   0  0  0  0  0  0  0  0  0  0  0  0
    2.1606   -3.2205   -2.3029 C   0  0  0  0  0  0  0  0  0  0  0  0
    1.6647   -2.4798   -1.2258 C   0  0  0  0  0  0  0  0  0  0  0  0
    0.4960   -1.7235   -1.3817 C   0  0  0  0  0  0  0  0  0  0  0  0
   -1.0796   -1.1232   -2.7376 H   0  0  0  0  0  0  0  0  0  0  0  0
   -0.1995   -2.4515   -4.6342 H   0  0  0  0  0  0  0  0  0  0  0  0
    1.8924   -3.7704   -4.3736 H   0  0  0  0  0  0  0  0  0  0  0  0
    3.0744   -3.7960   -2.1865 H   0  0  0  0  0  0  0  0  0  0  0  0
    2.2007   -2.4664   -0.2806 H   0  0  0  0  0  0  0  0  0  0  0  0
    0.1719   -1.0539   -0.5815 H   0  0  0  0  0  0  0  0  0  0  0  0
    1.3044   -1.6178    3.7734 S   0  0  0  0  0  0  0  0  0  0  0  0
    1.8660   -1.5906    2.4413 O   0  0  0  0  0  0  0  0  0  0  0  0
   -0.1620   -1.8121    3.9379 O   0  0  0  0  0  0  0  0  0  0  0  0
    2.0687   -2.7325    4.6341 O   0  0  0  0  0  0  0  0  0  0  0  0
    1.7382   -0.0425    4.7094 C   0  0  0  0  0  0  0  0  0  0  0  0
    1.3874   -0.2200    5.9768 F   0  0  0  0  0  0  0  0  0  0  0  0
    3.0340    0.1657    4.5990 F   0  0  0  0  0  0  0  0  0  0  0  0
    1.0449    0.9418    4.1607 F   0  0  0  0  0  0  0  0  0  0  0  0
   -1.0378   -2.1649    0.7992 H   0  0  0  0  0  0  0  0  0  0  0  0
  1  3  1  0  0  0  0
  1  2  1  0  0  0  0
  3  4  1  0  0  0  0
  6 11  2  0  0  0  0
  7  8  2  0  0  0  0
  7  6  1  0  0  0  0
  8  9  1  0  0  0  0
  9 15  1  0  0  0  0
  9 10  2  0  0  0  0
 10 16  1  0  0  0  0
 11 10  1  0  0  0  0
 11 17  1  0  0  0  0
 12  6  1  0  0  0  0
 13  7  1  0  0  0  0
 14  8  1  0  0  0  0
 18 20  2  0  0  0  0
 18 21  1  0  0  0  0
 18 22  1  0  0  0  0
 19 18  2  0  0  0  0
 21  5  1  0  0  0  0
 22 23  1  0  0  0  0
 24 22  1  0  0  0  0
 25 22  1  0  0  0  0
 26  3  1  0  0  0  0
M  RAD  2   1   2   2   3
M  END
