Coordinates from ORCA-job C6H6+HOTf+NH2N2+-scan
 OpenBabel10221816143D

 26 24  0  0  0  0  0  0  0  0999 V2000
   -2.1125    0.5290    5.8361 N   0  0  0  0  0  0  0  0  0  0  0  0
   -1.7372   -0.3285    5.2511 N   0  0  0  0  0  0  0  0  0  0  0  0
    0.7831   -1.3471   -0.3737 N   0  0  0  0  0  0  0  0  0  0  0  0
    0.6662   -1.3110    0.6766 H   0  0  0  0  0  0  0  0  0  0  0  0
   -1.1549   -1.8958    4.2716 H   0  0  0  0  0  0  0  0  0  0  0  0
   -0.3540   -2.5952   -2.1987 C   0  0  0  0  0  0  0  0  0  0  0  0
    0.4127   -2.6815   -0.9767 C   0  0  0  0  0  0  0  0  0  0  0  0
    1.6480   -1.7084   -0.8471 C   0  0  0  0  0  0  0  0  0  0  0  0
    2.1428   -1.1875   -2.1597 C   0  0  0  0  0  0  0  0  0  0  0  0
    1.2845   -1.0856   -3.2015 C   0  0  0  0  0  0  0  0  0  0  0  0
   -0.0055   -1.7459   -3.2012 C   0  0  0  0  0  0  0  0  0  0  0  0
   -1.2024   -3.2663   -2.2870 H   0  0  0  0  0  0  0  0  0  0  0  0
    0.3127   -3.4270   -0.2006 H   0  0  0  0  0  0  0  0  0  0  0  0
    2.4915   -2.0769   -0.2457 H   0  0  0  0  0  0  0  0  0  0  0  0
    3.1948   -0.9395   -2.2418 H   0  0  0  0  0  0  0  0  0  0  0  0
    1.6167   -0.6226   -4.1263 H   0  0  0  0  0  0  0  0  0  0  0  0
   -0.6304   -1.6704   -4.0846 H   0  0  0  0  0  0  0  0  0  0  0  0
    0.3784   -2.7593    2.9986 S   0  0  0  0  0  0  0  0  0  0  0  0
    0.3989   -3.9435    2.1621 O   0  0  0  0  0  0  0  0  0  0  0  0
    0.5578   -1.4316    2.3663 O   0  0  0  0  0  0  0  0  0  0  0  0
   -0.9584   -2.7712    3.8627 O   0  0  0  0  0  0  0  0  0  0  0  0
    1.6977   -2.8967    4.3264 C   0  0  0  0  0  0  0  0  0  0  0  0
    1.4969   -1.9157    5.2013 F   0  0  0  0  0  0  0  0  0  0  0  0
    1.5970   -4.0746    4.9107 F   0  0  0  0  0  0  0  0  0  0  0  0
    2.8756   -2.7595    3.7337 F   0  0  0  0  0  0  0  0  0  0  0  0
    0.2227   -0.5656   -0.7625 H   0  0  0  0  0  0  0  0  0  0  0  0
  2  1  3  0  0  0  0
  3  4  1  0  0  0  0
  6  7  1  0  0  0  0
  7  3  1  0  0  0  0
  7 13  1  0  0  0  0
  8  3  1  0  0  0  0
  8 14  1  0  0  0  0
  9  8  1  0  0  0  0
 10 11  1  0  0  0  0
 10  9  2  0  0  0  0
 11  6  2  0  0  0  0
 12  6  1  0  0  0  0
 15  9  1  0  0  0  0
 16 10  1  0  0  0  0
 17 11  1  0  0  0  0
 18 21  1  0  0  0  0
 18 22  1  0  0  0  0
 19 18  2  0  0  0  0
 20 18  2  0  0  0  0
 21  5  1  0  0  0  0
 22 24  1  0  0  0  0
 22 23  1  0  0  0  0
 25 22  1  0  0  0  0
 26  3  1  0  0  0  0
M  RAD  2   7   2   8   2
M  END
