Coordinates from ORCA-job C6H6+HOTf+NH2N2+-scan
 OpenBabel10221816143D

 26 24  0  0  0  0  0  0  0  0999 V2000
   -2.0169   -2.4810    0.4180 N   0  0  0  0  0  0  0  0  0  0  0  0
   -3.0404   -2.9011    0.2235 N   0  0  0  0  0  0  0  0  0  0  0  0
   -0.8692   -2.0028    0.6366 N   0  0  0  0  0  0  0  0  0  0  0  0
   -0.4860   -2.0574    1.6218 H   0  0  0  0  0  0  0  0  0  0  0  0
    1.5480   -3.5289    4.6908 H   0  0  0  0  0  0  0  0  0  0  0  0
   -0.2391   -1.4050   -2.4414 C   0  0  0  0  0  0  0  0  0  0  0  0
   -0.3192   -2.7987   -2.5477 C   0  0  0  0  0  0  0  0  0  0  0  0
    0.6408   -3.6021   -1.9219 C   0  0  0  0  0  0  0  0  0  0  0  0
    1.6911   -3.0208   -1.2045 C   0  0  0  0  0  0  0  0  0  0  0  0
    1.7755   -1.6289   -1.0931 C   0  0  0  0  0  0  0  0  0  0  0  0
    0.8036   -0.8188   -1.7039 C   0  0  0  0  0  0  0  0  0  0  0  0
   -0.9718   -0.7745   -2.9374 H   0  0  0  0  0  0  0  0  0  0  0  0
   -1.1152   -3.2543   -3.1300 H   0  0  0  0  0  0  0  0  0  0  0  0
    0.5828   -4.6829   -2.0143 H   0  0  0  0  0  0  0  0  0  0  0  0
    2.4449   -3.6481   -0.7383 H   0  0  0  0  0  0  0  0  0  0  0  0
    2.5862   -1.1743   -0.5321 H   0  0  0  0  0  0  0  0  0  0  0  0
    0.8748    0.2630   -1.6318 H   0  0  0  0  0  0  0  0  0  0  0  0
    1.5268   -1.7746    3.4280 S   0  0  0  0  0  0  0  0  0  0  0  0
    2.4120   -1.3455    2.3691 O   0  0  0  0  0  0  0  0  0  0  0  0
    0.1159   -2.1183    3.1275 O   0  0  0  0  0  0  0  0  0  0  0  0
    2.2074   -3.0162    4.1858 O   0  0  0  0  0  0  0  0  0  0  0  0
    1.4725   -0.4852    4.7948 C   0  0  0  0  0  0  0  0  0  0  0  0
    0.8469   -1.0248    5.8350 F   0  0  0  0  0  0  0  0  0  0  0  0
    2.7079   -0.1492    5.1091 F   0  0  0  0  0  0  0  0  0  0  0  0
    0.7985    0.5556    4.3301 F   0  0  0  0  0  0  0  0  0  0  0  0
   -0.3550   -1.6031   -0.1836 H   0  0  0  0  0  0  0  0  0  0  0  0
  1  3  1  0  0  0  0
  2  1  1  0  0  0  0
  3  4  1  0  0  0  0
  6 11  1  0  0  0  0
  7  6  2  0  0  0  0
  7  8  1  0  0  0  0
  8  9  2  0  0  0  0
  9 10  1  0  0  0  0
  9 15  1  0  0  0  0
 10 16  1  0  0  0  0
 11 17  1  0  0  0  0
 11 10  2  0  0  0  0
 12  6  1  0  0  0  0
 13  7  1  0  0  0  0
 14  8  1  0  0  0  0
 18 21  1  0  0  0  0
 18 22  1  0  0  0  0
 19 18  2  0  0  0  0
 20 18  2  0  0  0  0
 21  5  1  0  0  0  0
 22 24  1  0  0  0  0
 22 23  1  0  0  0  0
 25 22  1  0  0  0  0
 26  3  1  0  0  0  0
M  RAD  2   1   2   2   3
M  END
