Coordinates from ORCA-job C6H6+HOTf+NH2N2+-scan
 OpenBabel10221816143D

 26 24  0  0  0  0  0  0  0  0999 V2000
   -2.0406   -2.4593    0.5024 N   0  0  0  0  0  0  0  0  0  0  0  0
   -3.0732   -2.8528    0.3003 N   0  0  0  0  0  0  0  0  0  0  0  0
   -0.8849   -2.0000    0.7219 N   0  0  0  0  0  0  0  0  0  0  0  0
   -0.5049   -2.0550    1.7084 H   0  0  0  0  0  0  0  0  0  0  0  0
    1.6540   -3.4452    4.7297 H   0  0  0  0  0  0  0  0  0  0  0  0
   -0.2270   -1.3971   -2.4015 C   0  0  0  0  0  0  0  0  0  0  0  0
   -0.3024   -2.7642   -2.6897 C   0  0  0  0  0  0  0  0  0  0  0  0
    0.6624   -3.6404   -2.1792 C   0  0  0  0  0  0  0  0  0  0  0  0
    1.7027   -3.1568   -1.3799 C   0  0  0  0  0  0  0  0  0  0  0  0
    1.7819   -1.7919   -1.0839 C   0  0  0  0  0  0  0  0  0  0  0  0
    0.8127   -0.9091   -1.5908 C   0  0  0  0  0  0  0  0  0  0  0  0
   -0.9588   -0.7088   -2.8157 H   0  0  0  0  0  0  0  0  0  0  0  0
   -1.0966   -3.1418   -3.3273 H   0  0  0  0  0  0  0  0  0  0  0  0
    0.6093   -4.6991   -2.4160 H   0  0  0  0  0  0  0  0  0  0  0  0
    2.4564   -3.8385   -0.9972 H   0  0  0  0  0  0  0  0  0  0  0  0
    2.5882   -1.4121   -0.4638 H   0  0  0  0  0  0  0  0  0  0  0  0
    0.8895    0.1558   -1.3876 H   0  0  0  0  0  0  0  0  0  0  0  0
    1.5142   -1.6896    3.4768 S   0  0  0  0  0  0  0  0  0  0  0  0
    2.3493   -1.2157    2.3962 O   0  0  0  0  0  0  0  0  0  0  0  0
    0.1161   -2.1049    3.2088 O   0  0  0  0  0  0  0  0  0  0  0  0
    2.2754   -2.8949    4.2161 O   0  0  0  0  0  0  0  0  0  0  0  0
    1.4290   -0.4040    4.8458 C   0  0  0  0  0  0  0  0  0  0  0  0
    0.8547   -0.9731    5.8997 F   0  0  0  0  0  0  0  0  0  0  0  0
    2.6535   -0.0081    5.1314 F   0  0  0  0  0  0  0  0  0  0  0  0
    0.6944    0.6024    4.3974 F   0  0  0  0  0  0  0  0  0  0  0  0
   -0.3327   -1.6742   -0.1124 H   0  0  0  0  0  0  0  0  0  0  0  0
  1  3  1  0  0  0  0
  2  1  1  0  0  0  0
  3  4  1  0  0  0  0
  6 11  1  0  0  0  0
  7  6  2  0  0  0  0
  7  8  1  0  0  0  0
  8  9  2  0  0  0  0
  9 10  1  0  0  0  0
  9 15  1  0  0  0  0
 10 16  1  0  0  0  0
 11 17  1  0  0  0  0
 11 10  2  0  0  0  0
 12  6  1  0  0  0  0
 13  7  1  0  0  0  0
 14  8  1  0  0  0  0
 18 21  1  0  0  0  0
 18 22  1  0  0  0  0
 19 18  2  0  0  0  0
 20 18  2  0  0  0  0
 21  5  1  0  0  0  0
 22 24  1  0  0  0  0
 22 23  1  0  0  0  0
 25 22  1  0  0  0  0
 26  3  1  0  0  0  0
M  RAD  2   1   2   2   3
M  END
