Coordinates from ORCA-job C6H6+HOTf+NH2N2+-scan
 OpenBabel10221816143D

 26 24  0  0  0  0  0  0  0  0999 V2000
   -3.1652   -2.8394    2.2223 N   0  0  0  0  0  0  0  0  0  0  0  0
   -4.2804   -2.8494    2.3373 N   0  0  0  0  0  0  0  0  0  0  0  0
   -1.8970   -2.8543    2.1548 N   0  0  0  0  0  0  0  0  0  0  0  0
   -1.3240   -2.3609    2.9290 H   0  0  0  0  0  0  0  0  0  0  0  0
    1.2461   -1.9928    5.8197 H   0  0  0  0  0  0  0  0  0  0  0  0
    0.3521   -1.1636   -2.1342 C   0  0  0  0  0  0  0  0  0  0  0  0
    0.7416   -1.6487   -3.3854 C   0  0  0  0  0  0  0  0  0  0  0  0
    1.6377   -2.7182   -3.4756 C   0  0  0  0  0  0  0  0  0  0  0  0
    2.1345   -3.3102   -2.3106 C   0  0  0  0  0  0  0  0  0  0  0  0
    1.7478   -2.8266   -1.0571 C   0  0  0  0  0  0  0  0  0  0  0  0
    0.8586   -1.7506   -0.9702 C   0  0  0  0  0  0  0  0  0  0  0  0
   -0.3288   -0.3186   -2.0705 H   0  0  0  0  0  0  0  0  0  0  0  0
    0.3552   -1.1865   -4.2893 H   0  0  0  0  0  0  0  0  0  0  0  0
    1.9464   -3.0889   -4.4486 H   0  0  0  0  0  0  0  0  0  0  0  0
    2.8318   -4.1403   -2.3786 H   0  0  0  0  0  0  0  0  0  0  0  0
    2.1527   -3.2737   -0.1530 H   0  0  0  0  0  0  0  0  0  0  0  0
    0.6011   -1.3359    0.0041 H   0  0  0  0  0  0  0  0  0  0  0  0
    1.0774   -1.8311    3.6707 S   0  0  0  0  0  0  0  0  0  0  0  0
    1.5091   -2.7154    2.6116 O   0  0  0  0  0  0  0  0  0  0  0  0
   -0.3829   -1.6548    3.9122 O   0  0  0  0  0  0  0  0  0  0  0  0
    1.7717   -2.2688    5.0439 O   0  0  0  0  0  0  0  0  0  0  0  0
    1.7805   -0.1056    3.4029 C   0  0  0  0  0  0  0  0  0  0  0  0
    1.5108    0.6164    4.4813 F   0  0  0  0  0  0  0  0  0  0  0  0
    3.0781   -0.2061    3.2070 F   0  0  0  0  0  0  0  0  0  0  0  0
    1.1705    0.3934    2.3364 F   0  0  0  0  0  0  0  0  0  0  0  0
   -1.5026   -3.0475    1.2304 H   0  0  0  0  0  0  0  0  0  0  0  0
  1  2  1  0  0  0  0
  3  1  1  0  0  0  0
  3  4  1  0  0  0  0
  6 12  1  0  0  0  0
  6 11  2  0  0  0  0
  7  6  1  0  0  0  0
  8  7  2  0  0  0  0
  8  9  1  0  0  0  0
  9 10  2  0  0  0  0
 10 11  1  0  0  0  0
 10 16  1  0  0  0  0
 11 17  1  0  0  0  0
 13  7  1  0  0  0  0
 14  8  1  0  0  0  0
 15  9  1  0  0  0  0
 18 20  2  0  0  0  0
 18 21  1  0  0  0  0
 19 18  2  0  0  0  0
 21  5  1  0  0  0  0
 22 18  1  0  0  0  0
 22 23  1  0  0  0  0
 24 22  1  0  0  0  0
 25 22  1  0  0  0  0
 26  3  1  0  0  0  0
M  RAD  2   1   2   2   3
M  END
