Coordinates from ORCA-job C6H6+HOTf+NH2N2+-scan
 OpenBabel10221816143D

 26 24  0  0  0  0  0  0  0  0999 V2000
   -2.0519   -2.4533    0.5190 N   0  0  0  0  0  0  0  0  0  0  0  0
   -3.0864   -2.8426    0.3180 N   0  0  0  0  0  0  0  0  0  0  0  0
   -0.8939   -1.9981    0.7349 N   0  0  0  0  0  0  0  0  0  0  0  0
   -0.5122   -2.0516    1.7208 H   0  0  0  0  0  0  0  0  0  0  0  0
    1.6556   -3.4358    4.7384 H   0  0  0  0  0  0  0  0  0  0  0  0
   -0.2263   -1.4008   -2.3974 C   0  0  0  0  0  0  0  0  0  0  0  0
   -0.2927   -2.7623   -2.7125 C   0  0  0  0  0  0  0  0  0  0  0  0
    0.6753   -3.6427   -2.2155 C   0  0  0  0  0  0  0  0  0  0  0  0
    1.7087   -3.1693   -1.4013 C   0  0  0  0  0  0  0  0  0  0  0  0
    1.7790   -1.8101   -1.0785 C   0  0  0  0  0  0  0  0  0  0  0  0
    0.8073   -0.9228   -1.5729 C   0  0  0  0  0  0  0  0  0  0  0  0
   -0.9598   -0.7086   -2.8020 H   0  0  0  0  0  0  0  0  0  0  0  0
   -1.0822   -3.1320   -3.3605 H   0  0  0  0  0  0  0  0  0  0  0  0
    0.6292   -4.6969   -2.4733 H   0  0  0  0  0  0  0  0  0  0  0  0
    2.4644   -3.8543   -1.0286 H   0  0  0  0  0  0  0  0  0  0  0  0
    2.5805   -1.4378   -0.4476 H   0  0  0  0  0  0  0  0  0  0  0  0
    0.8790    0.1388   -1.3511 H   0  0  0  0  0  0  0  0  0  0  0  0
    1.5119   -1.6829    3.4822 S   0  0  0  0  0  0  0  0  0  0  0  0
    2.3433   -1.2119    2.3974 O   0  0  0  0  0  0  0  0  0  0  0  0
    0.1129   -2.0987    3.2199 O   0  0  0  0  0  0  0  0  0  0  0  0
    2.2755   -2.8863    4.2219 O   0  0  0  0  0  0  0  0  0  0  0  0
    1.4317   -0.3936    4.8481 C   0  0  0  0  0  0  0  0  0  0  0  0
    0.8607   -0.9597    5.9053 F   0  0  0  0  0  0  0  0  0  0  0  0
    2.6573    0.0025    5.1285 F   0  0  0  0  0  0  0  0  0  0  0  0
    0.6960    0.6119    4.3994 F   0  0  0  0  0  0  0  0  0  0  0  0
   -0.3403   -1.6793   -0.1024 H   0  0  0  0  0  0  0  0  0  0  0  0
  1  3  1  0  0  0  0
  2  1  1  0  0  0  0
  3  4  1  0  0  0  0
  6 11  1  0  0  0  0
  7  6  2  0  0  0  0
  7  8  1  0  0  0  0
  8  9  2  0  0  0  0
  9 10  1  0  0  0  0
  9 15  1  0  0  0  0
 10 16  1  0  0  0  0
 11 17  1  0  0  0  0
 11 10  2  0  0  0  0
 12  6  1  0  0  0  0
 13  7  1  0  0  0  0
 14  8  1  0  0  0  0
 18 21  1  0  0  0  0
 18 22  1  0  0  0  0
 19 18  2  0  0  0  0
 20 18  2  0  0  0  0
 21  5  1  0  0  0  0
 22 24  1  0  0  0  0
 22 23  1  0  0  0  0
 25 22  1  0  0  0  0
 26  3  1  0  0  0  0
M  RAD  2   1   2   2   3
M  END
