Coordinates from ORCA-job C6H6+HOTf+NH2N2+-scan
 OpenBabel10221816143D

 26 24  0  0  0  0  0  0  0  0999 V2000
   -2.3889   -2.5784    1.1525 N   0  0  0  0  0  0  0  0  0  0  0  0
   -3.4303   -2.9812    1.0348 N   0  0  0  0  0  0  0  0  0  0  0  0
   -1.2279   -2.0857    1.2684 N   0  0  0  0  0  0  0  0  0  0  0  0
   -0.7997   -2.0421    2.2399 H   0  0  0  0  0  0  0  0  0  0  0  0
    1.6786   -3.0680    5.1435 H   0  0  0  0  0  0  0  0  0  0  0  0
   -0.1479   -1.4834   -2.3292 C   0  0  0  0  0  0  0  0  0  0  0  0
    0.0590   -2.4238   -3.3408 C   0  0  0  0  0  0  0  0  0  0  0  0
    1.0781   -3.3764   -3.2182 C   0  0  0  0  0  0  0  0  0  0  0  0
    1.8685   -3.4100   -2.0634 C   0  0  0  0  0  0  0  0  0  0  0  0
    1.6682   -2.4725   -1.0470 C   0  0  0  0  0  0  0  0  0  0  0  0
    0.6639   -1.4980   -1.1814 C   0  0  0  0  0  0  0  0  0  0  0  0
   -0.9058   -0.7140   -2.4514 H   0  0  0  0  0  0  0  0  0  0  0  0
   -0.5554   -2.3991   -4.2358 H   0  0  0  0  0  0  0  0  0  0  0  0
    1.2510   -4.0922   -4.0162 H   0  0  0  0  0  0  0  0  0  0  0  0
    2.6566   -4.1509   -1.9673 H   0  0  0  0  0  0  0  0  0  0  0  0
    2.3111   -2.4678   -0.1712 H   0  0  0  0  0  0  0  0  0  0  0  0
    0.6138   -0.6732   -0.4696 H   0  0  0  0  0  0  0  0  0  0  0  0
    1.3898   -1.5339    3.6485 S   0  0  0  0  0  0  0  0  0  0  0  0
    2.0541   -1.2919    2.3861 O   0  0  0  0  0  0  0  0  0  0  0  0
   -0.0424   -1.9225    3.6582 O   0  0  0  0  0  0  0  0  0  0  0  0
    2.2283   -2.6312    4.4649 O   0  0  0  0  0  0  0  0  0  0  0  0
    1.5444   -0.0289    4.7667 C   0  0  0  0  0  0  0  0  0  0  0  0
    1.1208   -0.3797    5.9748 F   0  0  0  0  0  0  0  0  0  0  0  0
    2.8078    0.3448    4.7974 F   0  0  0  0  0  0  0  0  0  0  0  0
    0.7767    0.9207    4.2557 F   0  0  0  0  0  0  0  0  0  0  0  0
   -0.6499   -2.0388    0.3902 H   0  0  0  0  0  0  0  0  0  0  0  0
  1  3  1  0  0  0  0
  2  1  1  0  0  0  0
  3  4  1  0  0  0  0
  6 11  2  0  0  0  0
  7  8  2  0  0  0  0
  7  6  1  0  0  0  0
  8  9  1  0  0  0  0
  9 15  1  0  0  0  0
  9 10  2  0  0  0  0
 10 16  1  0  0  0  0
 11 10  1  0  0  0  0
 11 17  1  0  0  0  0
 12  6  1  0  0  0  0
 13  7  1  0  0  0  0
 14  8  1  0  0  0  0
 18 20  2  0  0  0  0
 18 21  1  0  0  0  0
 18 22  1  0  0  0  0
 19 18  2  0  0  0  0
 21  5  1  0  0  0  0
 22 24  1  0  0  0  0
 22 23  1  0  0  0  0
 25 22  1  0  0  0  0
 26  3  1  0  0  0  0
M  RAD  2   1   2   2   3
M  END
