Coordinates from ORCA-job C6H6+HOTf+NH2N2+-scan
 OpenBabel10221816143D

 26 25  0  0  1  0  0  0  0  0999 V2000
   -2.0656    0.4914    6.0084 N   0  0  0  0  0  0  0  0  0  0  0  0
   -1.7094   -0.3559    5.3973 N   0  0  0  0  0  0  0  0  0  0  0  0
    0.6393   -1.2548   -0.3521 N   0  0  0  0  0  0  0  0  0  0  0  0
    0.5630   -1.2189    0.6871 H   0  0  0  0  0  0  0  0  0  0  0  0
   -1.1504   -1.9058    4.3638 H   0  0  0  0  0  0  0  0  0  0  0  0
   -0.3385   -2.6083   -2.2430 C   0  0  0  0  0  0  0  0  0  0  0  0
    0.3992   -2.6027   -0.9802 C   0  0  1  0  0  0  0  0  0  0  0  0
    1.6668   -1.7414   -0.8963 C   0  0  1  0  0  0  0  0  0  0  0  0
    2.1608   -1.1839   -2.1845 C   0  0  0  0  0  0  0  0  0  0  0  0
    1.3546   -1.1614   -3.2682 C   0  0  0  0  0  0  0  0  0  0  0  0
    0.0768   -1.8575   -3.2903 C   0  0  0  0  0  0  0  0  0  0  0  0
   -1.2012   -3.2621   -2.3135 H   0  0  0  0  0  0  0  0  0  0  0  0
    0.2457   -3.3587   -0.2187 H   0  0  0  0  0  0  0  0  0  0  0  0
    2.4557   -2.0671   -0.2182 H   0  0  0  0  0  0  0  0  0  0  0  0
    3.1877   -0.8375   -2.2269 H   0  0  0  0  0  0  0  0  0  0  0  0
    1.7065   -0.7113   -4.1916 H   0  0  0  0  0  0  0  0  0  0  0  0
   -0.4963   -1.8546   -4.2120 H   0  0  0  0  0  0  0  0  0  0  0  0
    0.3517   -2.7191    3.0256 S   0  0  0  0  0  0  0  0  0  0  0  0
    0.3456   -3.8705    2.1425 O   0  0  0  0  0  0  0  0  0  0  0  0
    0.5182   -1.3698    2.4464 O   0  0  0  0  0  0  0  0  0  0  0  0
   -0.9610   -2.7689    3.9276 O   0  0  0  0  0  0  0  0  0  0  0  0
    1.7031   -2.9223    4.3097 C   0  0  0  0  0  0  0  0  0  0  0  0
    1.5381   -1.9760    5.2296 F   0  0  0  0  0  0  0  0  0  0  0  0
    1.6085   -4.1222    4.8501 F   0  0  0  0  0  0  0  0  0  0  0  0
    2.8671   -2.7723    3.6914 F   0  0  0  0  0  0  0  0  0  0  0  0
    0.1566   -0.4665   -0.7937 H   0  0  0  0  0  0  0  0  0  0  0  0
  2  1  3  0  0  0  0
  3  4  1  0  0  0  0
  6  7  1  0  0  0  0
  7  8  1  0  0  0  0
  7  3  1  0  0  0  0
  7 13  1  1  0  0  0
  8  3  1  0  0  0  0
  8 14  1  1  0  0  0
  9  8  1  0  0  0  0
 10  9  2  0  0  0  0
 11 10  1  0  0  0  0
 11  6  2  0  0  0  0
 12  6  1  0  0  0  0
 15  9  1  0  0  0  0
 16 10  1  0  0  0  0
 17 11  1  0  0  0  0
 18 21  1  0  0  0  0
 18 22  1  0  0  0  0
 19 18  2  0  0  0  0
 20 18  2  0  0  0  0
 21  5  1  0  0  0  0
 22 24  1  0  0  0  0
 22 23  1  0  0  0  0
 25 22  1  0  0  0  0
 26  3  1  0  0  0  0
M  END
