Coordinates from ORCA-job C6H6+HOTf+NH2N2+-scan
 OpenBabel10221816143D

 26 25  0  0  1  0  0  0  0  0999 V2000
   -2.9183   -0.9539    6.0371 N   0  0  0  0  0  0  0  0  0  0  0  0
   -2.1840   -1.5259    5.4438 N   0  0  0  0  0  0  0  0  0  0  0  0
    0.5813   -1.0453   -0.3123 N   0  0  0  0  0  0  0  0  0  0  0  0
    0.4995   -1.0392    0.7140 H   0  0  0  0  0  0  0  0  0  0  0  0
   -0.9102   -2.6052    4.4292 H   0  0  0  0  0  0  0  0  0  0  0  0
   -0.6701   -1.6486   -2.4426 C   0  0  0  0  0  0  0  0  0  0  0  0
   -0.2136   -2.0613   -1.0928 C   0  0  1  0  0  0  0  0  0  0  0  0
    1.2218   -2.4826   -0.9588 C   0  0  1  0  0  0  0  0  0  0  0  0
    2.1133   -2.3277   -2.1013 C   0  0  0  0  0  0  0  0  0  0  0  0
    1.6330   -1.8382   -3.2694 C   0  0  0  0  0  0  0  0  0  0  0  0
    0.2230   -1.5069   -3.4443 C   0  0  0  0  0  0  0  0  0  0  0  0
   -1.7332   -1.5010   -2.6001 H   0  0  0  0  0  0  0  0  0  0  0  0
   -0.9521   -2.5421   -0.4561 H   0  0  0  0  0  0  0  0  0  0  0  0
    1.5012   -3.0950   -0.1074 H   0  0  0  0  0  0  0  0  0  0  0  0
    3.1420   -2.6546   -1.9971 H   0  0  0  0  0  0  0  0  0  0  0  0
    2.2943   -1.7373   -4.1247 H   0  0  0  0  0  0  0  0  0  0  0  0
   -0.1126   -1.1990   -4.4299 H   0  0  0  0  0  0  0  0  0  0  0  0
    0.7956   -2.5418    3.0949 S   0  0  0  0  0  0  0  0  0  0  0  0
    1.3646   -3.5395    2.2055 O   0  0  0  0  0  0  0  0  0  0  0  0
    0.2548   -1.2925    2.5308 O   0  0  0  0  0  0  0  0  0  0  0  0
   -0.3071   -3.2552    4.0009 O   0  0  0  0  0  0  0  0  0  0  0  0
    2.0744   -2.0613    4.3777 C   0  0  0  0  0  0  0  0  0  0  0  0
    1.4671   -1.3287    5.3074 F   0  0  0  0  0  0  0  0  0  0  0  0
    2.5898   -3.1550    4.9084 F   0  0  0  0  0  0  0  0  0  0  0  0
    3.0109   -1.3490    3.7642 F   0  0  0  0  0  0  0  0  0  0  0  0
    0.8571   -0.1914   -0.7873 H   0  0  0  0  0  0  0  0  0  0  0  0
  2  1  3  0  0  0  0
  3  4  1  0  0  0  0
  6  7  1  0  0  0  0
  7  8  1  0  0  0  0
  7 13  1  1  0  0  0
  7  3  1  0  0  0  0
  8  3  1  0  0  0  0
  8 14  1  1  0  0  0
  9 15  1  0  0  0  0
  9  8  1  0  0  0  0
 10  9  2  0  0  0  0
 11 10  1  0  0  0  0
 11  6  2  0  0  0  0
 12  6  1  0  0  0  0
 16 10  1  0  0  0  0
 17 11  1  0  0  0  0
 18 21  1  0  0  0  0
 18 22  1  0  0  0  0
 19 18  2  0  0  0  0
 20 18  2  0  0  0  0
 21  5  1  0  0  0  0
 22 24  1  0  0  0  0
 22 23  1  0  0  0  0
 25 22  1  0  0  0  0
 26  3  1  0  0  0  0
M  END
