Coordinates from ORCA-job C6H6+HOTf+NH2N2+-scan
 OpenBabel10221816143D

 26 24  0  0  0  0  0  0  0  0999 V2000
   -2.5399   -2.4747    1.3648 N   0  0  0  0  0  0  0  0  0  0  0  0
   -3.6063   -2.8201    1.3100 N   0  0  0  0  0  0  0  0  0  0  0  0
   -1.3491   -2.0454    1.4288 N   0  0  0  0  0  0  0  0  0  0  0  0
   -0.8814   -1.9930    2.3873 H   0  0  0  0  0  0  0  0  0  0  0  0
    1.6180   -3.0685    5.2240 H   0  0  0  0  0  0  0  0  0  0  0  0
   -0.1775   -1.5876   -2.4396 C   0  0  0  0  0  0  0  0  0  0  0  0
    0.1627   -2.4557   -3.4801 C   0  0  0  0  0  0  0  0  0  0  0  0
    1.2553   -3.3214   -3.3473 C   0  0  0  0  0  0  0  0  0  0  0  0
    1.9875   -3.3398   -2.1542 C   0  0  0  0  0  0  0  0  0  0  0  0
    1.6538   -2.4737   -1.1091 C   0  0  0  0  0  0  0  0  0  0  0  0
    0.5755   -1.5864   -1.2546 C   0  0  0  0  0  0  0  0  0  0  0  0
   -0.9965   -0.8847   -2.5680 H   0  0  0  0  0  0  0  0  0  0  0  0
   -0.4085   -2.4413   -4.4036 H   0  0  0  0  0  0  0  0  0  0  0  0
    1.5299   -3.9806   -4.1651 H   0  0  0  0  0  0  0  0  0  0  0  0
    2.8330   -4.0129   -2.0479 H   0  0  0  0  0  0  0  0  0  0  0  0
    2.2510   -2.4568   -0.2016 H   0  0  0  0  0  0  0  0  0  0  0  0
    0.4139   -0.8049   -0.5098 H   0  0  0  0  0  0  0  0  0  0  0  0
    1.3647   -1.5629    3.6931 S   0  0  0  0  0  0  0  0  0  0  0  0
    1.9984   -1.3920    2.4042 O   0  0  0  0  0  0  0  0  0  0  0  0
   -0.0866   -1.8741    3.7566 O   0  0  0  0  0  0  0  0  0  0  0  0
    2.1672   -2.6814    4.5154 O   0  0  0  0  0  0  0  0  0  0  0  0
    1.6304   -0.0378    4.7635 C   0  0  0  0  0  0  0  0  0  0  0  0
    1.2272   -0.3345    5.9928 F   0  0  0  0  0  0  0  0  0  0  0  0
    2.9115    0.2697    4.7454 F   0  0  0  0  0  0  0  0  0  0  0  0
    0.8965    0.9356    4.2485 F   0  0  0  0  0  0  0  0  0  0  0  0
   -0.8080   -2.0533    0.5367 H   0  0  0  0  0  0  0  0  0  0  0  0
  1  3  1  0  0  0  0
  2  1  1  0  0  0  0
  3  4  1  0  0  0  0
  6 11  2  0  0  0  0
  7  8  2  0  0  0  0
  7  6  1  0  0  0  0
  8  9  1  0  0  0  0
  9 15  1  0  0  0  0
  9 10  2  0  0  0  0
 10 16  1  0  0  0  0
 11 10  1  0  0  0  0
 11 17  1  0  0  0  0
 12  6  1  0  0  0  0
 13  7  1  0  0  0  0
 14  8  1  0  0  0  0
 18 20  2  0  0  0  0
 18 21  1  0  0  0  0
 18 22  1  0  0  0  0
 19 18  2  0  0  0  0
 21  5  1  0  0  0  0
 22 23  1  0  0  0  0
 24 22  1  0  0  0  0
 25 22  1  0  0  0  0
 26  3  1  0  0  0  0
M  RAD  2   1   2   2   3
M  END
