Coordinates from ORCA-job C6H6+HOTf+NH2N2+-scan
 OpenBabel10221816143D

 26 24  0  0  0  0  0  0  0  0999 V2000
   -2.3602   -2.5947    1.1145 N   0  0  0  0  0  0  0  0  0  0  0  0
   -3.3972   -3.0053    0.9852 N   0  0  0  0  0  0  0  0  0  0  0  0
   -1.2041   -2.0933    1.2408 N   0  0  0  0  0  0  0  0  0  0  0  0
   -0.7833   -2.0520    2.2149 H   0  0  0  0  0  0  0  0  0  0  0  0
    1.6933   -3.0679    5.1279 H   0  0  0  0  0  0  0  0  0  0  0  0
   -0.1400   -1.4644   -2.3122 C   0  0  0  0  0  0  0  0  0  0  0  0
    0.0387   -2.4191   -3.3158 C   0  0  0  0  0  0  0  0  0  0  0  0
    1.0425   -3.3878   -3.1938 C   0  0  0  0  0  0  0  0  0  0  0  0
    1.8466   -3.4231   -2.0487 C   0  0  0  0  0  0  0  0  0  0  0  0
    1.6744   -2.4715   -1.0403 C   0  0  0  0  0  0  0  0  0  0  0  0
    0.6847   -1.4818   -1.1735 C   0  0  0  0  0  0  0  0  0  0  0  0
   -0.8862   -0.6835   -2.4330 H   0  0  0  0  0  0  0  0  0  0  0  0
   -0.5854   -2.3936   -4.2041 H   0  0  0  0  0  0  0  0  0  0  0  0
    1.1933   -4.1152   -3.9858 H   0  0  0  0  0  0  0  0  0  0  0  0
    2.6229   -4.1766   -1.9544 H   0  0  0  0  0  0  0  0  0  0  0  0
    2.3266   -2.4687   -0.1714 H   0  0  0  0  0  0  0  0  0  0  0  0
    0.6544   -0.6512   -0.4675 H   0  0  0  0  0  0  0  0  0  0  0  0
    1.3938   -1.5273    3.6419 S   0  0  0  0  0  0  0  0  0  0  0  0
    2.0621   -1.2688    2.3848 O   0  0  0  0  0  0  0  0  0  0  0  0
   -0.0335   -1.9328    3.6415 O   0  0  0  0  0  0  0  0  0  0  0  0
    2.2413   -2.6201    4.4553 O   0  0  0  0  0  0  0  0  0  0  0  0
    1.5253   -0.0282    4.7709 C   0  0  0  0  0  0  0  0  0  0  0  0
    1.0993   -0.3918    5.9744 F   0  0  0  0  0  0  0  0  0  0  0  0
    2.7841    0.3598    4.8108 F   0  0  0  0  0  0  0  0  0  0  0  0
    0.7494    0.9160    4.2621 F   0  0  0  0  0  0  0  0  0  0  0  0
   -0.6200   -2.0351    0.3658 H   0  0  0  0  0  0  0  0  0  0  0  0
  1  3  1  0  0  0  0
  2  1  1  0  0  0  0
  3  4  1  0  0  0  0
  6 11  2  0  0  0  0
  7  8  2  0  0  0  0
  7  6  1  0  0  0  0
  8  9  1  0  0  0  0
  9 15  1  0  0  0  0
  9 10  2  0  0  0  0
 10 16  1  0  0  0  0
 11 10  1  0  0  0  0
 11 17  1  0  0  0  0
 12  6  1  0  0  0  0
 13  7  1  0  0  0  0
 14  8  1  0  0  0  0
 18 21  1  0  0  0  0
 18 22  1  0  0  0  0
 19 18  2  0  0  0  0
 20 18  2  0  0  0  0
 21  5  1  0  0  0  0
 22 24  1  0  0  0  0
 22 23  1  0  0  0  0
 25 22  1  0  0  0  0
 26  3  1  0  0  0  0
M  RAD  2   1   2   2   3
M  END
