Coordinates from ORCA-job C6H6+HOTf+NH2N2+-scan
 OpenBabel10221816143D

 26 24  0  0  0  0  0  0  0  0999 V2000
   -2.8850   -2.2958    1.8927 N   0  0  0  0  0  0  0  0  0  0  0  0
   -3.9982   -2.4198    1.9543 N   0  0  0  0  0  0  0  0  0  0  0  0
   -1.6282   -2.1391    1.8613 N   0  0  0  0  0  0  0  0  0  0  0  0
   -1.0862   -1.9897    2.7827 H   0  0  0  0  0  0  0  0  0  0  0  0
    1.4592   -2.9598    5.5391 H   0  0  0  0  0  0  0  0  0  0  0  0
   -0.1636   -1.7545   -2.6866 C   0  0  0  0  0  0  0  0  0  0  0  0
    0.4058   -2.4369   -3.7652 C   0  0  0  0  0  0  0  0  0  0  0  0
    1.6109   -3.1286   -3.6033 C   0  0  0  0  0  0  0  0  0  0  0  0
    2.2374   -3.1497   -2.3528 C   0  0  0  0  0  0  0  0  0  0  0  0
    1.6731   -2.4676   -1.2705 C   0  0  0  0  0  0  0  0  0  0  0  0
    0.4750   -1.7647   -1.4413 C   0  0  0  0  0  0  0  0  0  0  0  0
   -1.0862   -1.1973   -2.8261 H   0  0  0  0  0  0  0  0  0  0  0  0
   -0.0832   -2.4184   -4.7348 H   0  0  0  0  0  0  0  0  0  0  0  0
    2.0571   -3.6497   -4.4450 H   0  0  0  0  0  0  0  0  0  0  0  0
    3.1729   -3.6864   -2.2241 H   0  0  0  0  0  0  0  0  0  0  0  0
    2.1760   -2.4636   -0.3071 H   0  0  0  0  0  0  0  0  0  0  0  0
    0.0790   -1.1579   -0.6236 H   0  0  0  0  0  0  0  0  0  0  0  0
    1.2612   -1.6719    3.8123 S   0  0  0  0  0  0  0  0  0  0  0  0
    1.7814   -1.7839    2.4682 O   0  0  0  0  0  0  0  0  0  0  0  0
   -0.2096   -1.7661    4.0276 O   0  0  0  0  0  0  0  0  0  0  0  0
    1.9848   -2.7581    4.7409 O   0  0  0  0  0  0  0  0  0  0  0  0
    1.8100   -0.0551    4.6077 C   0  0  0  0  0  0  0  0  0  0  0  0
    1.4868   -0.1114    5.8932 F   0  0  0  0  0  0  0  0  0  0  0  0
    3.1116    0.0670    4.4486 F   0  0  0  0  0  0  0  0  0  0  0  0
    1.1573    0.9210    3.9982 F   0  0  0  0  0  0  0  0  0  0  0  0
   -1.1766   -2.2397    0.9438 H   0  0  0  0  0  0  0  0  0  0  0  0
  1  2  1  0  0  0  0
  3  1  1  0  0  0  0
  3  4  1  0  0  0  0
  6 11  2  0  0  0  0
  7  8  2  0  0  0  0
  7  6  1  0  0  0  0
  8  9  1  0  0  0  0
  9 15  1  0  0  0  0
  9 10  2  0  0  0  0
 10 16  1  0  0  0  0
 11 10  1  0  0  0  0
 11 17  1  0  0  0  0
 12  6  1  0  0  0  0
 13  7  1  0  0  0  0
 14  8  1  0  0  0  0
 18 20  2  0  0  0  0
 18 22  1  0  0  0  0
 18 21  1  0  0  0  0
 19 18  2  0  0  0  0
 21  5  1  0  0  0  0
 22 23  1  0  0  0  0
 24 22  1  0  0  0  0
 25 22  1  0  0  0  0
 26  3  1  0  0  0  0
M  RAD  2   1   2   2   3
M  END
