Coordinates from ORCA-job C6H6+HOTf+NH2N2+-scan
 OpenBabel10221816143D

 26 24  0  0  0  0  0  0  0  0999 V2000
   -2.1041   -2.6879    0.7488 N   0  0  0  0  0  0  0  0  0  0  0  0
   -3.1065   -3.1499    0.5384 N   0  0  0  0  0  0  0  0  0  0  0  0
   -0.9868   -2.1350    0.9586 N   0  0  0  0  0  0  0  0  0  0  0  0
   -0.6175   -2.1218    1.9499 H   0  0  0  0  0  0  0  0  0  0  0  0
    1.7424   -3.1594    4.9722 H   0  0  0  0  0  0  0  0  0  0  0  0
   -0.1201   -1.3220   -2.2507 C   0  0  0  0  0  0  0  0  0  0  0  0
   -0.1835   -2.4852   -3.0225 C   0  0  0  0  0  0  0  0  0  0  0  0
    0.7260   -3.5252   -2.7971 C   0  0  0  0  0  0  0  0  0  0  0  0
    1.6885   -3.4150   -1.7882 C   0  0  0  0  0  0  0  0  0  0  0  0
    1.7568   -2.2559   -1.0102 C   0  0  0  0  0  0  0  0  0  0  0  0
    0.8517   -1.2039   -1.2403 C   0  0  0  0  0  0  0  0  0  0  0  0
   -0.8005   -0.4979   -2.4479 H   0  0  0  0  0  0  0  0  0  0  0  0
   -0.9233   -2.5725   -3.8126 H   0  0  0  0  0  0  0  0  0  0  0  0
    0.6846   -4.4210   -3.4097 H   0  0  0  0  0  0  0  0  0  0  0  0
    2.3949   -4.2225   -1.6212 H   0  0  0  0  0  0  0  0  0  0  0  0
    2.5148   -2.1534   -0.2390 H   0  0  0  0  0  0  0  0  0  0  0  0
    0.9560   -0.2709   -0.6900 H   0  0  0  0  0  0  0  0  0  0  0  0
    1.4461   -1.5450    3.5667 S   0  0  0  0  0  0  0  0  0  0  0  0
    2.1853   -1.1597    2.3841 O   0  0  0  0  0  0  0  0  0  0  0  0
    0.0532   -2.0357    3.4370 O   0  0  0  0  0  0  0  0  0  0  0  0
    2.3060   -2.6363    4.3707 O   0  0  0  0  0  0  0  0  0  0  0  0
    1.4000   -0.1223    4.7955 C   0  0  0  0  0  0  0  0  0  0  0  0
    0.9165   -0.5922    5.9394 F   0  0  0  0  0  0  0  0  0  0  0  0
    2.6246    0.3393    4.9535 F   0  0  0  0  0  0  0  0  0  0  0  0
    0.6007    0.8062    4.2934 F   0  0  0  0  0  0  0  0  0  0  0  0
   -0.3833   -1.9328    0.1113 H   0  0  0  0  0  0  0  0  0  0  0  0
  1  3  1  0  0  0  0
  2  1  1  0  0  0  0
  3  4  1  0  0  0  0
  6 11  2  0  0  0  0
  7  8  2  0  0  0  0
  7  6  1  0  0  0  0
  8  9  1  0  0  0  0
  9 15  1  0  0  0  0
  9 10  2  0  0  0  0
 10 16  1  0  0  0  0
 11 10  1  0  0  0  0
 11 17  1  0  0  0  0
 12  6  1  0  0  0  0
 13  7  1  0  0  0  0
 14  8  1  0  0  0  0
 18 21  1  0  0  0  0
 18 22  1  0  0  0  0
 19 18  2  0  0  0  0
 20 18  2  0  0  0  0
 21  5  1  0  0  0  0
 22 24  1  0  0  0  0
 22 23  1  0  0  0  0
 25 22  1  0  0  0  0
 26  3  1  0  0  0  0
M  RAD  2   1   2   2   3
M  END
