Coordinates from ORCA-job C6H6+HOTf+NH2N2+-scan
 OpenBabel10221816143D

 26 24  0  0  0  0  0  0  0  0999 V2000
   -0.8057    0.4498    0.6634 N   0  0  0  0  0  0  0  0  0  0  0  0
   -1.4033    1.3915    0.5184 N   0  0  0  0  0  0  0  0  0  0  0  0
   -0.1286   -0.6108    0.7643 N   0  0  0  0  0  0  0  0  0  0  0  0
   -0.1040   -1.0780    1.7071 H   0  0  0  0  0  0  0  0  0  0  0  0
   -0.8566   -3.8706    4.4435 H   0  0  0  0  0  0  0  0  0  0  0  0
    0.0894   -3.2334   -1.8121 C   0  0  0  0  0  0  0  0  0  0  0  0
    1.1561   -2.8623   -0.9925 C   0  0  0  0  0  0  0  0  0  0  0  0
    1.7087   -1.5721   -1.1067 C   0  0  0  0  0  0  0  0  0  0  0  0
    1.2233   -0.6824   -2.0847 C   0  0  0  0  0  0  0  0  0  0  0  0
    0.1507   -1.0604   -2.8971 C   0  0  0  0  0  0  0  0  0  0  0  0
   -0.4127   -2.3334   -2.7589 C   0  0  0  0  0  0  0  0  0  0  0  0
   -0.3422   -4.2259   -1.7251 H   0  0  0  0  0  0  0  0  0  0  0  0
    1.5547   -3.5548   -0.2574 H   0  0  0  0  0  0  0  0  0  0  0  0
    2.5839   -1.3055   -0.5178 H   0  0  0  0  0  0  0  0  0  0  0  0
    1.6855    0.2937   -2.2060 H   0  0  0  0  0  0  0  0  0  0  0  0
   -0.2284   -0.3763   -3.6503 H   0  0  0  0  0  0  0  0  0  0  0  0
   -1.2390   -2.6288   -3.3989 H   0  0  0  0  0  0  0  0  0  0  0  0
    0.8454   -2.9730    3.4609 S   0  0  0  0  0  0  0  0  0  0  0  0
    1.7205   -3.4724    2.4231 O   0  0  0  0  0  0  0  0  0  0  0  0
   -0.0349   -1.8119    3.1985 O   0  0  0  0  0  0  0  0  0  0  0  0
   -0.0526   -4.1937    3.9942 O   0  0  0  0  0  0  0  0  0  0  0  0
    1.8438   -2.5468    4.9949 C   0  0  0  0  0  0  0  0  0  0  0  0
    0.9882   -2.3199    5.9853 F   0  0  0  0  0  0  0  0  0  0  0  0
    2.6378   -3.5601    5.2800 F   0  0  0  0  0  0  0  0  0  0  0  0
    2.5434   -1.4558    4.7208 F   0  0  0  0  0  0  0  0  0  0  0  0
    0.4991   -0.8846   -0.0567 H   0  0  0  0  0  0  0  0  0  0  0  0
  1  3  1  0  0  0  0
  2  1  1  0  0  0  0
  3  4  1  0  0  0  0
  6 12  1  0  0  0  0
  6  7  2  0  0  0  0
  7 13  1  0  0  0  0
  8  7  1  0  0  0  0
  8 14  1  0  0  0  0
  9  8  2  0  0  0  0
 10 11  2  0  0  0  0
 10  9  1  0  0  0  0
 11  6  1  0  0  0  0
 15  9  1  0  0  0  0
 16 10  1  0  0  0  0
 17 11  1  0  0  0  0
 18 21  1  0  0  0  0
 18 22  1  0  0  0  0
 19 18  2  0  0  0  0
 20 18  2  0  0  0  0
 21  5  1  0  0  0  0
 22 24  1  0  0  0  0
 22 23  1  0  0  0  0
 25 22  1  0  0  0  0
 26  3  1  0  0  0  0
M  RAD  2   1   2   2   3
M  END
