Coordinates from ORCA-job C6H6+HOTf+NH2N2+-scan
 OpenBabel10221816143D

 26 24  0  0  0  0  0  0  0  0999 V2000
   -2.8810   -2.2970    1.8860 N   0  0  0  0  0  0  0  0  0  0  0  0
   -3.9941   -2.4226    1.9461 N   0  0  0  0  0  0  0  0  0  0  0  0
   -1.6244   -2.1388    1.8559 N   0  0  0  0  0  0  0  0  0  0  0  0
   -1.0835   -1.9900    2.7780 H   0  0  0  0  0  0  0  0  0  0  0  0
    1.4591   -2.9608    5.5371 H   0  0  0  0  0  0  0  0  0  0  0  0
   -0.1649   -1.7538   -2.6835 C   0  0  0  0  0  0  0  0  0  0  0  0
    0.4028   -2.4376   -3.7621 C   0  0  0  0  0  0  0  0  0  0  0  0
    1.6075   -3.1301   -3.6008 C   0  0  0  0  0  0  0  0  0  0  0  0
    2.2352   -3.1507   -2.3509 C   0  0  0  0  0  0  0  0  0  0  0  0
    1.6725   -2.4673   -1.2685 C   0  0  0  0  0  0  0  0  0  0  0  0
    0.4749   -1.7635   -1.4388 C   0  0  0  0  0  0  0  0  0  0  0  0
   -1.0871   -1.1958   -2.8226 H   0  0  0  0  0  0  0  0  0  0  0  0
   -0.0871   -2.4194   -4.7312 H   0  0  0  0  0  0  0  0  0  0  0  0
    2.0525   -3.6522   -4.4426 H   0  0  0  0  0  0  0  0  0  0  0  0
    3.1704   -3.6881   -2.2227 H   0  0  0  0  0  0  0  0  0  0  0  0
    2.1764   -2.4628   -0.3057 H   0  0  0  0  0  0  0  0  0  0  0  0
    0.0806   -1.1549   -0.6215 H   0  0  0  0  0  0  0  0  0  0  0  0
    1.2625   -1.6712    3.8115 S   0  0  0  0  0  0  0  0  0  0  0  0
    1.7848   -1.7813    2.4679 O   0  0  0  0  0  0  0  0  0  0  0  0
   -0.2085   -1.7668    4.0245 O   0  0  0  0  0  0  0  0  0  0  0  0
    1.9857   -2.7578    4.7399 O   0  0  0  0  0  0  0  0  0  0  0  0
    1.8090   -0.0549    4.6093 C   0  0  0  0  0  0  0  0  0  0  0  0
    1.4840   -0.1128    5.8943 F   0  0  0  0  0  0  0  0  0  0  0  0
    3.1107    0.0685    4.4522 F   0  0  0  0  0  0  0  0  0  0  0  0
    1.1564    0.9214    3.9999 F   0  0  0  0  0  0  0  0  0  0  0  0
   -1.1717   -2.2376    0.9386 H   0  0  0  0  0  0  0  0  0  0  0  0
  1  2  1  0  0  0  0
  3  1  1  0  0  0  0
  3  4  1  0  0  0  0
  6 11  2  0  0  0  0
  7  8  2  0  0  0  0
  7  6  1  0  0  0  0
  8  9  1  0  0  0  0
  9 15  1  0  0  0  0
  9 10  2  0  0  0  0
 10 16  1  0  0  0  0
 11 10  1  0  0  0  0
 11 17  1  0  0  0  0
 12  6  1  0  0  0  0
 13  7  1  0  0  0  0
 14  8  1  0  0  0  0
 18 20  2  0  0  0  0
 18 22  1  0  0  0  0
 18 21  1  0  0  0  0
 19 18  2  0  0  0  0
 21  5  1  0  0  0  0
 22 23  1  0  0  0  0
 24 22  1  0  0  0  0
 25 22  1  0  0  0  0
 26  3  1  0  0  0  0
M  RAD  2   1   2   2   3
M  END
