Coordinates from ORCA-job C6H6+HOTf+NH2N2+-scan
 OpenBabel10221816143D

 26 24  0  0  0  0  0  0  0  0999 V2000
   -2.6824   -2.3562    1.5700 N   0  0  0  0  0  0  0  0  0  0  0  0
   -3.7815   -2.5824    1.5647 N   0  0  0  0  0  0  0  0  0  0  0  0
   -1.4468   -2.0791    1.5956 N   0  0  0  0  0  0  0  0  0  0  0  0
   -0.9512   -1.9915    2.5430 H   0  0  0  0  0  0  0  0  0  0  0  0
    1.5652   -3.0563    5.3249 H   0  0  0  0  0  0  0  0  0  0  0  0
   -0.1960   -1.6869   -2.5502 C   0  0  0  0  0  0  0  0  0  0  0  0
    0.2554   -2.4816   -3.6071 C   0  0  0  0  0  0  0  0  0  0  0  0
    1.4120   -3.2569   -3.4625 C   0  0  0  0  0  0  0  0  0  0  0  0
    2.1011   -3.2550   -2.2443 C   0  0  0  0  0  0  0  0  0  0  0  0
    1.6559   -2.4613   -1.1829 C   0  0  0  0  0  0  0  0  0  0  0  0
    0.5108   -1.6677   -1.3394 C   0  0  0  0  0  0  0  0  0  0  0  0
   -1.0716   -1.0570   -2.6839 H   0  0  0  0  0  0  0  0  0  0  0  0
   -0.2831   -2.4816   -4.5502 H   0  0  0  0  0  0  0  0  0  0  0  0
    1.7700   -3.8610   -4.2905 H   0  0  0  0  0  0  0  0  0  0  0  0
    2.9973   -3.8573   -2.1279 H   0  0  0  0  0  0  0  0  0  0  0  0
    2.2153   -2.4319   -0.2518 H   0  0  0  0  0  0  0  0  0  0  0  0
    0.2404   -0.9465   -0.5648 H   0  0  0  0  0  0  0  0  0  0  0  0
    1.3342   -1.5984    3.7444 S   0  0  0  0  0  0  0  0  0  0  0  0
    1.9302   -1.5078    2.4301 O   0  0  0  0  0  0  0  0  0  0  0  0
   -0.1289   -1.8380    3.8642 O   0  0  0  0  0  0  0  0  0  0  0  0
    2.1085   -2.7217    4.5856 O   0  0  0  0  0  0  0  0  0  0  0  0
    1.7013   -0.0469    4.7457 C   0  0  0  0  0  0  0  0  0  0  0  0
    1.3242   -0.2783    5.9968 F   0  0  0  0  0  0  0  0  0  0  0  0
    2.9934    0.1999    4.6766 F   0  0  0  0  0  0  0  0  0  0  0  0
    0.9954    0.9381    4.2144 F   0  0  0  0  0  0  0  0  0  0  0  0
   -0.9466   -2.1146    0.6896 H   0  0  0  0  0  0  0  0  0  0  0  0
  1  3  1  0  0  0  0
  2  1  1  0  0  0  0
  3  4  1  0  0  0  0
  6 11  2  0  0  0  0
  7  8  2  0  0  0  0
  7  6  1  0  0  0  0
  8  9  1  0  0  0  0
  9 15  1  0  0  0  0
  9 10  2  0  0  0  0
 10 16  1  0  0  0  0
 11 10  1  0  0  0  0
 11 17  1  0  0  0  0
 12  6  1  0  0  0  0
 13  7  1  0  0  0  0
 14  8  1  0  0  0  0
 18 20  2  0  0  0  0
 18 21  1  0  0  0  0
 18 22  1  0  0  0  0
 19 18  2  0  0  0  0
 21  5  1  0  0  0  0
 22 23  1  0  0  0  0
 24 22  1  0  0  0  0
 25 22  1  0  0  0  0
 26  3  1  0  0  0  0
M  RAD  2   1   2   2   3
M  END
