Coordinates from ORCA-job C6H6+HOTf+NH2N2+-scan
 OpenBabel10221816143D

 26 24  0  0  0  0  0  0  0  0999 V2000
   -0.7622    0.4233    0.5819 N   0  0  0  0  0  0  0  0  0  0  0  0
   -1.4071    1.3262    0.4030 N   0  0  0  0  0  0  0  0  0  0  0  0
   -0.0366   -0.5957    0.7517 N   0  0  0  0  0  0  0  0  0  0  0  0
   -0.0581   -1.0642    1.6982 H   0  0  0  0  0  0  0  0  0  0  0  0
   -0.9655   -3.8596    4.3577 H   0  0  0  0  0  0  0  0  0  0  0  0
    0.1677   -3.2024   -1.6509 C   0  0  0  0  0  0  0  0  0  0  0  0
    1.3640   -2.8103   -1.0444 C   0  0  0  0  0  0  0  0  0  0  0  0
    1.8885   -1.5303   -1.2981 C   0  0  0  0  0  0  0  0  0  0  0  0
    1.2246   -0.6597   -2.1813 C   0  0  0  0  0  0  0  0  0  0  0  0
    0.0254   -1.0583   -2.7809 C   0  0  0  0  0  0  0  0  0  0  0  0
   -0.4992   -2.3281   -2.5155 C   0  0  0  0  0  0  0  0  0  0  0  0
   -0.2372   -4.1919   -1.4609 H   0  0  0  0  0  0  0  0  0  0  0  0
    1.8870   -3.4863   -0.3749 H   0  0  0  0  0  0  0  0  0  0  0  0
    2.8428   -1.2399   -0.8655 H   0  0  0  0  0  0  0  0  0  0  0  0
    1.6530    0.3132   -2.4069 H   0  0  0  0  0  0  0  0  0  0  0  0
   -0.4853   -0.3920   -3.4700 H   0  0  0  0  0  0  0  0  0  0  0  0
   -1.4237   -2.6401   -2.9925 H   0  0  0  0  0  0  0  0  0  0  0  0
    0.7846   -2.9919    3.4332 S   0  0  0  0  0  0  0  0  0  0  0  0
    1.6794   -3.4983    2.4167 O   0  0  0  0  0  0  0  0  0  0  0  0
   -0.0615   -1.8067    3.1578 O   0  0  0  0  0  0  0  0  0  0  0  0
   -0.1589   -4.1959    3.9229 O   0  0  0  0  0  0  0  0  0  0  0  0
    1.7409   -2.6032    5.0040 C   0  0  0  0  0  0  0  0  0  0  0  0
    0.8577   -2.3712    5.9686 F   0  0  0  0  0  0  0  0  0  0  0  0
    2.5048   -3.6357    5.3016 F   0  0  0  0  0  0  0  0  0  0  0  0
    2.4700   -1.5234    4.7660 F   0  0  0  0  0  0  0  0  0  0  0  0
    0.6276   -0.8555   -0.0314 H   0  0  0  0  0  0  0  0  0  0  0  0
  1  3  1  0  0  0  0
  2  1  1  0  0  0  0
  3  4  1  0  0  0  0
  6 12  1  0  0  0  0
  6  7  2  0  0  0  0
  7 13  1  0  0  0  0
  8  7  1  0  0  0  0
  8 14  1  0  0  0  0
  9  8  2  0  0  0  0
 10 11  2  0  0  0  0
 10  9  1  0  0  0  0
 11  6  1  0  0  0  0
 15  9  1  0  0  0  0
 16 10  1  0  0  0  0
 17 11  1  0  0  0  0
 18 21  1  0  0  0  0
 18 22  1  0  0  0  0
 19 18  2  0  0  0  0
 20 18  2  0  0  0  0
 21  5  1  0  0  0  0
 22 24  1  0  0  0  0
 22 23  1  0  0  0  0
 25 22  1  0  0  0  0
 26  3  1  0  0  0  0
M  RAD  2   1   2   2   3
M  END
