Coordinates from ORCA-job C6H6+HOTf+NH2N2+-scan
 OpenBabel10221816143D

 26 25  0  0  1  0  0  0  0  0999 V2000
   -2.0601    0.4984    6.0038 N   0  0  0  0  0  0  0  0  0  0  0  0
   -1.7058   -0.3503    5.3933 N   0  0  0  0  0  0  0  0  0  0  0  0
    0.6442   -1.2591   -0.3533 N   0  0  0  0  0  0  0  0  0  0  0  0
    0.5663   -1.2233    0.6862 H   0  0  0  0  0  0  0  0  0  0  0  0
   -1.1505   -1.9022    4.3614 H   0  0  0  0  0  0  0  0  0  0  0  0
   -0.3353   -2.6122   -2.2416 C   0  0  0  0  0  0  0  0  0  0  0  0
    0.4034   -2.6069   -0.9800 C   0  0  1  0  0  0  0  0  0  0  0  0
    1.6658   -1.7363   -0.8940 C   0  0  1  0  0  0  0  0  0  0  0  0
    2.1582   -1.1785   -2.1831 C   0  0  0  0  0  0  0  0  0  0  0  0
    1.3505   -1.1565   -3.2658 C   0  0  0  0  0  0  0  0  0  0  0  0
    0.0749   -1.8563   -3.2875 C   0  0  0  0  0  0  0  0  0  0  0  0
   -1.1950   -3.2699   -2.3128 H   0  0  0  0  0  0  0  0  0  0  0  0
    0.2540   -3.3631   -0.2180 H   0  0  0  0  0  0  0  0  0  0  0  0
    2.4582   -2.0609   -0.2190 H   0  0  0  0  0  0  0  0  0  0  0  0
    3.1850   -0.8319   -2.2269 H   0  0  0  0  0  0  0  0  0  0  0  0
    1.7004   -0.7050   -4.1892 H   0  0  0  0  0  0  0  0  0  0  0  0
   -0.5000   -1.8530   -4.2081 H   0  0  0  0  0  0  0  0  0  0  0  0
    0.3498   -2.7212    3.0246 S   0  0  0  0  0  0  0  0  0  0  0  0
    0.3413   -3.8739    2.1433 O   0  0  0  0  0  0  0  0  0  0  0  0
    0.5196   -1.3731    2.4431 O   0  0  0  0  0  0  0  0  0  0  0  0
   -0.9633   -2.7662    3.9261 O   0  0  0  0  0  0  0  0  0  0  0  0
    1.7004   -2.9250    4.3095 C   0  0  0  0  0  0  0  0  0  0  0  0
    1.5370   -1.9769    5.2277 F   0  0  0  0  0  0  0  0  0  0  0  0
    1.6030   -4.1238    4.8518 F   0  0  0  0  0  0  0  0  0  0  0  0
    2.8649   -2.7784    3.6913 F   0  0  0  0  0  0  0  0  0  0  0  0
    0.1558   -0.4725   -0.7927 H   0  0  0  0  0  0  0  0  0  0  0  0
  2  1  3  0  0  0  0
  3  4  1  0  0  0  0
  6  7  1  0  0  0  0
  7  8  1  0  0  0  0
  7  3  1  0  0  0  0
  7 13  1  1  0  0  0
  8  3  1  0  0  0  0
  8 14  1  1  0  0  0
  9  8  1  0  0  0  0
 10  9  2  0  0  0  0
 11 10  1  0  0  0  0
 11  6  2  0  0  0  0
 12  6  1  0  0  0  0
 15  9  1  0  0  0  0
 16 10  1  0  0  0  0
 17 11  1  0  0  0  0
 18 21  1  0  0  0  0
 18 22  1  0  0  0  0
 19 18  2  0  0  0  0
 20 18  2  0  0  0  0
 21  5  1  0  0  0  0
 22 24  1  0  0  0  0
 22 23  1  0  0  0  0
 25 22  1  0  0  0  0
 26  3  1  0  0  0  0
M  END
