Coordinates from ORCA-job C6H6+HOTf+NH2N2+-scan
 OpenBabel10221816143D

 26 24  0  0  0  0  0  0  0  0999 V2000
   -2.0949   -2.4263    0.5854 N   0  0  0  0  0  0  0  0  0  0  0  0
   -3.1371   -2.7981    0.3906 N   0  0  0  0  0  0  0  0  0  0  0  0
   -0.9271   -1.9898    0.7868 N   0  0  0  0  0  0  0  0  0  0  0  0
   -0.5386   -2.0381    1.7702 H   0  0  0  0  0  0  0  0  0  0  0  0
    1.6673   -3.4014    4.7700 H   0  0  0  0  0  0  0  0  0  0  0  0
   -0.2231   -1.4184   -2.3895 C   0  0  0  0  0  0  0  0  0  0  0  0
   -0.2552   -2.7547   -2.8011 C   0  0  0  0  0  0  0  0  0  0  0  0
    0.7235   -3.6486   -2.3516 C   0  0  0  0  0  0  0  0  0  0  0  0
    1.7293   -3.2148   -1.4822 C   0  0  0  0  0  0  0  0  0  0  0  0
    1.7659   -1.8813   -1.0630 C   0  0  0  0  0  0  0  0  0  0  0  0
    0.7866   -0.9790   -1.5147 C   0  0  0  0  0  0  0  0  0  0  0  0
   -0.9616   -0.7134   -2.7618 H   0  0  0  0  0  0  0  0  0  0  0  0
   -1.0256   -3.0927   -3.4880 H   0  0  0  0  0  0  0  0  0  0  0  0
    0.7049   -4.6821   -2.6851 H   0  0  0  0  0  0  0  0  0  0  0  0
    2.4916   -3.9100   -1.1435 H   0  0  0  0  0  0  0  0  0  0  0  0
    2.5493   -1.5384   -0.3938 H   0  0  0  0  0  0  0  0  0  0  0  0
    0.8414    0.0690   -1.2300 H   0  0  0  0  0  0  0  0  0  0  0  0
    1.5041   -1.6564    3.5055 S   0  0  0  0  0  0  0  0  0  0  0  0
    2.3200   -1.1918    2.4061 O   0  0  0  0  0  0  0  0  0  0  0  0
    0.1027   -2.0766    3.2644 O   0  0  0  0  0  0  0  0  0  0  0  0
    2.2797   -2.8527    4.2440 O   0  0  0  0  0  0  0  0  0  0  0  0
    1.4400   -0.3567    4.8624 C   0  0  0  0  0  0  0  0  0  0  0  0
    0.8832   -0.9151    5.9311 F   0  0  0  0  0  0  0  0  0  0  0  0
    2.6687    0.0428    5.1240 F   0  0  0  0  0  0  0  0  0  0  0  0
    0.6975    0.6446    4.4153 F   0  0  0  0  0  0  0  0  0  0  0  0
   -0.3697   -1.6979   -0.0611 H   0  0  0  0  0  0  0  0  0  0  0  0
  1  3  1  0  0  0  0
  2  1  1  0  0  0  0
  3  4  1  0  0  0  0
  6 11  1  0  0  0  0
  7  6  2  0  0  0  0
  7  8  1  0  0  0  0
  8  9  2  0  0  0  0
  9 15  1  0  0  0  0
  9 10  1  0  0  0  0
 10 16  1  0  0  0  0
 11 17  1  0  0  0  0
 11 10  2  0  0  0  0
 12  6  1  0  0  0  0
 13  7  1  0  0  0  0
 14  8  1  0  0  0  0
 18 21  1  0  0  0  0
 18 22  1  0  0  0  0
 19 18  2  0  0  0  0
 20 18  2  0  0  0  0
 21  5  1  0  0  0  0
 22 24  1  0  0  0  0
 22 23  1  0  0  0  0
 25 22  1  0  0  0  0
 26  3  1  0  0  0  0
M  RAD  2   1   2   2   3
M  END
