Coordinates from ORCA-job C6H6+HOTf+NH2N2+-scan
 OpenBabel10221816143D

 26 24  0  0  0  0  0  0  0  0999 V2000
   -2.8156   -2.2930    1.7828 N   0  0  0  0  0  0  0  0  0  0  0  0
   -3.9288   -2.4273    1.8209 N   0  0  0  0  0  0  0  0  0  0  0  0
   -1.5601   -2.1265    1.7735 N   0  0  0  0  0  0  0  0  0  0  0  0
   -1.0336   -2.0027    2.7054 H   0  0  0  0  0  0  0  0  0  0  0  0
    1.5300   -3.0080    5.4348 H   0  0  0  0  0  0  0  0  0  0  0  0
   -0.1702   -1.7353   -2.6407 C   0  0  0  0  0  0  0  0  0  0  0  0
    0.3576   -2.4482   -3.7206 C   0  0  0  0  0  0  0  0  0  0  0  0
    1.5422   -3.1777   -3.5715 C   0  0  0  0  0  0  0  0  0  0  0  0
    2.1879   -3.2079   -2.3307 C   0  0  0  0  0  0  0  0  0  0  0  0
    1.6656   -2.4956   -1.2468 C   0  0  0  0  0  0  0  0  0  0  0  0
    0.4895   -1.7527   -1.4057 C   0  0  0  0  0  0  0  0  0  0  0  0
   -1.0742   -1.1464   -2.7722 H   0  0  0  0  0  0  0  0  0  0  0  0
   -0.1465   -2.4228   -4.6822 H   0  0  0  0  0  0  0  0  0  0  0  0
    1.9570   -3.7212   -4.4150 H   0  0  0  0  0  0  0  0  0  0  0  0
    3.1070   -3.7742   -2.2117 H   0  0  0  0  0  0  0  0  0  0  0  0
    2.1859   -2.4960   -0.2928 H   0  0  0  0  0  0  0  0  0  0  0  0
    0.1370   -1.1128   -0.5932 H   0  0  0  0  0  0  0  0  0  0  0  0
    1.2907   -1.6276    3.7869 S   0  0  0  0  0  0  0  0  0  0  0  0
    1.8328   -1.6319    2.4465 O   0  0  0  0  0  0  0  0  0  0  0  0
   -0.1757   -1.8034    3.9752 O   0  0  0  0  0  0  0  0  0  0  0  0
    2.0550   -2.7335    4.6584 O   0  0  0  0  0  0  0  0  0  0  0  0
    1.7530   -0.0389    4.6864 C   0  0  0  0  0  0  0  0  0  0  0  0
    1.4184   -0.1886    5.9615 F   0  0  0  0  0  0  0  0  0  0  0  0
    3.0491    0.1539    4.5538 F   0  0  0  0  0  0  0  0  0  0  0  0
    1.0617    0.9414    4.1282 F   0  0  0  0  0  0  0  0  0  0  0  0
   -1.0928   -2.2010    0.8588 H   0  0  0  0  0  0  0  0  0  0  0  0
  1  2  1  0  0  0  0
  3  1  1  0  0  0  0
  3  4  1  0  0  0  0
  6 11  2  0  0  0  0
  7  8  2  0  0  0  0
  7  6  1  0  0  0  0
  8  9  1  0  0  0  0
  9 15  1  0  0  0  0
  9 10  2  0  0  0  0
 10 16  1  0  0  0  0
 11 10  1  0  0  0  0
 11 17  1  0  0  0  0
 12  6  1  0  0  0  0
 13  7  1  0  0  0  0
 14  8  1  0  0  0  0
 18 20  2  0  0  0  0
 18 21  1  0  0  0  0
 18 22  1  0  0  0  0
 19 18  2  0  0  0  0
 21  5  1  0  0  0  0
 22 23  1  0  0  0  0
 24 22  1  0  0  0  0
 25 22  1  0  0  0  0
 26  3  1  0  0  0  0
M  RAD  2   1   2   2   3
M  END
