Coordinates from ORCA-job C6H6+HOTf+NH2N2+-scan
 OpenBabel10221816143D

 26 24  0  0  0  0  0  0  0  0999 V2000
   -2.6745   -2.3595    1.5583 N   0  0  0  0  0  0  0  0  0  0  0  0
   -3.7727   -2.5898    1.5507 N   0  0  0  0  0  0  0  0  0  0  0  0
   -1.4401   -2.0775    1.5859 N   0  0  0  0  0  0  0  0  0  0  0  0
   -0.9460   -1.9918    2.5342 H   0  0  0  0  0  0  0  0  0  0  0  0
    1.5681   -3.0586    5.3186 H   0  0  0  0  0  0  0  0  0  0  0  0
   -0.1972   -1.6833   -2.5456 C   0  0  0  0  0  0  0  0  0  0  0  0
    0.2501   -2.4824   -3.6009 C   0  0  0  0  0  0  0  0  0  0  0  0
    1.4045   -3.2607   -3.4554 C   0  0  0  0  0  0  0  0  0  0  0  0
    2.0959   -3.2579   -2.2386 C   0  0  0  0  0  0  0  0  0  0  0  0
    1.6549   -2.4597   -1.1789 C   0  0  0  0  0  0  0  0  0  0  0  0
    0.5119   -1.6631   -1.3362 C   0  0  0  0  0  0  0  0  0  0  0  0
   -1.0710   -1.0510   -2.6795 H   0  0  0  0  0  0  0  0  0  0  0  0
   -0.2896   -2.4837   -4.5433 H   0  0  0  0  0  0  0  0  0  0  0  0
    1.7594   -3.8683   -4.2824 H   0  0  0  0  0  0  0  0  0  0  0  0
    2.9904   -3.8627   -2.1222 H   0  0  0  0  0  0  0  0  0  0  0  0
    2.2156   -2.4292   -0.2486 H   0  0  0  0  0  0  0  0  0  0  0  0
    0.2451   -0.9390   -0.5633 H   0  0  0  0  0  0  0  0  0  0  0  0
    1.3368   -1.5968    3.7418 S   0  0  0  0  0  0  0  0  0  0  0  0
    1.9354   -1.5011    2.4290 O   0  0  0  0  0  0  0  0  0  0  0  0
   -0.1259   -1.8404    3.8578 O   0  0  0  0  0  0  0  0  0  0  0  0
    2.1122   -2.7206    4.5815 O   0  0  0  0  0  0  0  0  0  0  0  0
    1.6980   -0.0473    4.7482 C   0  0  0  0  0  0  0  0  0  0  0  0
    1.3191   -0.2833    5.9980 F   0  0  0  0  0  0  0  0  0  0  0  0
    2.9896    0.2029    4.6823 F   0  0  0  0  0  0  0  0  0  0  0  0
    0.9906    0.9374    4.2184 F   0  0  0  0  0  0  0  0  0  0  0  0
   -0.9382   -2.1104    0.6805 H   0  0  0  0  0  0  0  0  0  0  0  0
  1  3  1  0  0  0  0
  2  1  1  0  0  0  0
  3  4  1  0  0  0  0
  6 11  2  0  0  0  0
  7  8  2  0  0  0  0
  7  6  1  0  0  0  0
  8  9  1  0  0  0  0
  9 15  1  0  0  0  0
  9 10  2  0  0  0  0
 10 16  1  0  0  0  0
 11 10  1  0  0  0  0
 11 17  1  0  0  0  0
 12  6  1  0  0  0  0
 13  7  1  0  0  0  0
 14  8  1  0  0  0  0
 18 20  2  0  0  0  0
 18 21  1  0  0  0  0
 18 22  1  0  0  0  0
 19 18  2  0  0  0  0
 21  5  1  0  0  0  0
 22 23  1  0  0  0  0
 24 22  1  0  0  0  0
 25 22  1  0  0  0  0
 26  3  1  0  0  0  0
M  RAD  2   1   2   2   3
M  END
