Coordinates from ORCA-job C6H6+HOTf+NH2N2+-scan
 OpenBabel10221816143D

 26 24  0  0  0  0  0  0  0  0999 V2000
   -2.0908    0.5247    5.8875 N   0  0  0  0  0  0  0  0  0  0  0  0
   -1.7235   -0.3309    5.2946 N   0  0  0  0  0  0  0  0  0  0  0  0
    0.7430   -1.3245   -0.3694 N   0  0  0  0  0  0  0  0  0  0  0  0
    0.6372   -1.2876    0.6773 H   0  0  0  0  0  0  0  0  0  0  0  0
   -1.1529   -1.8952    4.2993 H   0  0  0  0  0  0  0  0  0  0  0  0
   -0.3460   -2.6037   -2.2136 C   0  0  0  0  0  0  0  0  0  0  0  0
    0.4117   -2.6602   -0.9777 C   0  0  0  0  0  0  0  0  0  0  0  0
    1.6489   -1.7124   -0.8586 C   0  0  0  0  0  0  0  0  0  0  0  0
    2.1444   -1.1795   -2.1638 C   0  0  0  0  0  0  0  0  0  0  0  0
    1.3029   -1.1040   -3.2201 C   0  0  0  0  0  0  0  0  0  0  0  0
    0.0189   -1.7802   -3.2292 C   0  0  0  0  0  0  0  0  0  0  0  0
   -1.1957   -3.2735   -2.2974 H   0  0  0  0  0  0  0  0  0  0  0  0
    0.2965   -3.4099   -0.2065 H   0  0  0  0  0  0  0  0  0  0  0  0
    2.4793   -2.0664   -0.2363 H   0  0  0  0  0  0  0  0  0  0  0  0
    3.1897   -0.9003   -2.2332 H   0  0  0  0  0  0  0  0  0  0  0  0
    1.6415   -0.6449   -4.1443 H   0  0  0  0  0  0  0  0  0  0  0  0
   -0.5903   -1.7274   -4.1253 H   0  0  0  0  0  0  0  0  0  0  0  0
    0.3682   -2.7495    3.0063 S   0  0  0  0  0  0  0  0  0  0  0  0
    0.3777   -3.9255    2.1578 O   0  0  0  0  0  0  0  0  0  0  0  0
    0.5462   -1.4165    2.3874 O   0  0  0  0  0  0  0  0  0  0  0  0
   -0.9612   -2.7678    3.8827 O   0  0  0  0  0  0  0  0  0  0  0  0
    1.6974   -2.9071    4.3212 C   0  0  0  0  0  0  0  0  0  0  0  0
    1.5093   -1.9345    5.2083 F   0  0  0  0  0  0  0  0  0  0  0  0
    1.5967   -4.0907    4.8944 F   0  0  0  0  0  0  0  0  0  0  0  0
    2.8712   -2.7693    3.7201 F   0  0  0  0  0  0  0  0  0  0  0  0
    0.2025   -0.5411   -0.7712 H   0  0  0  0  0  0  0  0  0  0  0  0
  2  1  3  0  0  0  0
  3  4  1  0  0  0  0
  6  7  1  0  0  0  0
  7  3  1  0  0  0  0
  7 13  1  0  0  0  0
  8  3  1  0  0  0  0
  8 14  1  0  0  0  0
  9  8  1  0  0  0  0
 10  9  2  0  0  0  0
 11 10  1  0  0  0  0
 11  6  2  0  0  0  0
 12  6  1  0  0  0  0
 15  9  1  0  0  0  0
 16 10  1  0  0  0  0
 17 11  1  0  0  0  0
 18 21  1  0  0  0  0
 18 22  1  0  0  0  0
 19 18  2  0  0  0  0
 20 18  2  0  0  0  0
 21  5  1  0  0  0  0
 22 24  1  0  0  0  0
 22 23  1  0  0  0  0
 25 22  1  0  0  0  0
 26  3  1  0  0  0  0
M  RAD  2   7   2   8   2
M  END
