Coordinates from ORCA-job C6H6+HOTf+NH2N2+-scan
 OpenBabel10221816143D

 26 25  0  0  1  0  0  0  0  0999 V2000
   -2.4236    0.0572    6.0887 N   0  0  0  0  0  0  0  0  0  0  0  0
   -1.9377   -0.7083    5.4593 N   0  0  0  0  0  0  0  0  0  0  0  0
    0.5951   -1.1771   -0.3257 N   0  0  0  0  0  0  0  0  0  0  0  0
    0.5279   -1.1262    0.7069 H   0  0  0  0  0  0  0  0  0  0  0  0
   -1.1302   -2.1133    4.3847 H   0  0  0  0  0  0  0  0  0  0  0  0
   -0.5243   -2.3475   -2.2858 C   0  0  0  0  0  0  0  0  0  0  0  0
    0.1640   -2.4673   -0.9918 C   0  0  1  0  0  0  0  0  0  0  0  0
    1.6056   -2.0052   -0.9089 C   0  0  1  0  0  0  0  0  0  0  0  0
    2.2410   -1.5386   -2.1613 C   0  0  0  0  0  0  0  0  0  0  0  0
    1.4981   -1.3670   -3.2760 C   0  0  0  0  0  0  0  0  0  0  0  0
    0.0977   -1.7683   -3.3371 C   0  0  0  0  0  0  0  0  0  0  0  0
   -1.5184   -2.7726   -2.3718 H   0  0  0  0  0  0  0  0  0  0  0  0
   -0.1828   -3.1825   -0.2535 H   0  0  0  0  0  0  0  0  0  0  0  0
    2.2449   -2.4696   -0.1634 H   0  0  0  0  0  0  0  0  0  0  0  0
    3.3138   -1.3790   -2.1586 H   0  0  0  0  0  0  0  0  0  0  0  0
    1.9666   -1.0040   -4.1856 H   0  0  0  0  0  0  0  0  0  0  0  0
   -0.4222   -1.6728   -4.2854 H   0  0  0  0  0  0  0  0  0  0  0  0
    0.4878   -2.5967    3.0250 S   0  0  0  0  0  0  0  0  0  0  0  0
    0.6579   -3.6772    2.0679 O   0  0  0  0  0  0  0  0  0  0  0  0
    0.4350   -1.2094    2.5268 O   0  0  0  0  0  0  0  0  0  0  0  0
   -0.7939   -2.9136    3.9183 O   0  0  0  0  0  0  0  0  0  0  0  0
    1.8619   -2.6762    4.2979 C   0  0  0  0  0  0  0  0  0  0  0  0
    1.5689   -1.8186    5.2706 F   0  0  0  0  0  0  0  0  0  0  0  0
    1.9455   -3.9068    4.7678 F   0  0  0  0  0  0  0  0  0  0  0  0
    2.9887   -2.3251    3.6913 F   0  0  0  0  0  0  0  0  0  0  0  0
    0.3554   -0.3124   -0.8103 H   0  0  0  0  0  0  0  0  0  0  0  0
  2  1  3  0  0  0  0
  3  4  1  0  0  0  0
  6  7  1  0  0  0  0
  7  8  1  0  0  0  0
  7  3  1  0  0  0  0
  7 13  1  1  0  0  0
  8  3  1  0  0  0  0
  8 14  1  1  0  0  0
  9 15  1  0  0  0  0
  9  8  1  0  0  0  0
 10  9  2  0  0  0  0
 11 10  1  0  0  0  0
 11  6  2  0  0  0  0
 12  6  1  0  0  0  0
 16 10  1  0  0  0  0
 17 11  1  0  0  0  0
 18 21  1  0  0  0  0
 18 22  1  0  0  0  0
 19 18  2  0  0  0  0
 20 18  2  0  0  0  0
 21  5  1  0  0  0  0
 22 24  1  0  0  0  0
 22 23  1  0  0  0  0
 25 22  1  0  0  0  0
 26  3  1  0  0  0  0
M  END
