Coordinates from ORCA-job C6H6+HOTf+NH2N2+-scan
 OpenBabel10221816143D

 26 24  0  0  0  0  0  0  0  0999 V2000
   -1.5283   -0.2436    0.5174 N   0  0  0  0  0  0  0  0  0  0  0  0
   -2.4103    0.4272    0.3326 N   0  0  0  0  0  0  0  0  0  0  0  0
   -0.5456   -1.0181    0.6980 N   0  0  0  0  0  0  0  0  0  0  0  0
   -0.3714   -1.3687    1.6809 H   0  0  0  0  0  0  0  0  0  0  0  0
   -0.1063   -4.0487    4.5612 H   0  0  0  0  0  0  0  0  0  0  0  0
   -0.2934   -2.9372   -2.4516 C   0  0  0  0  0  0  0  0  0  0  0  0
    0.6595   -3.4190   -1.5489 C   0  0  0  0  0  0  0  0  0  0  0  0
    1.6292   -2.5564   -1.0270 C   0  0  0  0  0  0  0  0  0  0  0  0
    1.6428   -1.2044   -1.4123 C   0  0  0  0  0  0  0  0  0  0  0  0
    0.6850   -0.7240   -2.3227 C   0  0  0  0  0  0  0  0  0  0  0  0
   -0.2844   -1.5917   -2.8364 C   0  0  0  0  0  0  0  0  0  0  0  0
   -1.0389   -3.6115   -2.8627 H   0  0  0  0  0  0  0  0  0  0  0  0
    0.6551   -4.4659   -1.2608 H   0  0  0  0  0  0  0  0  0  0  0  0
    2.3734   -2.9279   -0.3289 H   0  0  0  0  0  0  0  0  0  0  0  0
    2.4189   -0.5411   -1.0390 H   0  0  0  0  0  0  0  0  0  0  0  0
    0.7131    0.3147   -2.6406 H   0  0  0  0  0  0  0  0  0  0  0  0
   -1.0170   -1.2256   -3.5498 H   0  0  0  0  0  0  0  0  0  0  0  0
    1.1737   -2.6649    3.5039 S   0  0  0  0  0  0  0  0  0  0  0  0
    2.1753   -2.8783    2.4836 O   0  0  0  0  0  0  0  0  0  0  0  0
   -0.0615   -1.9083    3.1877 O   0  0  0  0  0  0  0  0  0  0  0  0
    0.7617   -4.0909    4.1166 O   0  0  0  0  0  0  0  0  0  0  0  0
    1.9384   -1.8209    4.9994 C   0  0  0  0  0  0  0  0  0  0  0  0
    1.0488   -1.8595    5.9849 F   0  0  0  0  0  0  0  0  0  0  0  0
    3.0399   -2.4645    5.3316 F   0  0  0  0  0  0  0  0  0  0  0  0
    2.2026   -0.5697    4.6546 F   0  0  0  0  0  0  0  0  0  0  0  0
    0.1624   -1.0791   -0.0817 H   0  0  0  0  0  0  0  0  0  0  0  0
  1  3  1  0  0  0  0
  2  1  1  0  0  0  0
  3  4  1  0  0  0  0
  6  7  1  0  0  0  0
  7 13  1  0  0  0  0
  7  8  2  0  0  0  0
  8 14  1  0  0  0  0
  9 15  1  0  0  0  0
  9  8  1  0  0  0  0
 10  9  2  0  0  0  0
 11  6  2  0  0  0  0
 11 10  1  0  0  0  0
 12  6  1  0  0  0  0
 16 10  1  0  0  0  0
 17 11  1  0  0  0  0
 18 21  1  0  0  0  0
 18 22  1  0  0  0  0
 19 18  2  0  0  0  0
 20 18  2  0  0  0  0
 21  5  1  0  0  0  0
 22 24  1  0  0  0  0
 22 23  1  0  0  0  0
 25 22  1  0  0  0  0
 26  3  1  0  0  0  0
M  RAD  2   1   2   2   3
M  END
