Coordinates from ORCA-job C6H6+HOTf+NH2N2+-scan
 OpenBabel10221816143D

 26 24  0  0  0  0  0  0  0  0999 V2000
   -3.2048   -2.9137    2.3173 N   0  0  0  0  0  0  0  0  0  0  0  0
   -4.3178   -2.8974    2.4509 N   0  0  0  0  0  0  0  0  0  0  0  0
   -1.9380   -2.9520    2.2321 N   0  0  0  0  0  0  0  0  0  0  0  0
   -1.3466   -2.4189    2.9670 H   0  0  0  0  0  0  0  0  0  0  0  0
    1.2591   -1.9613    5.7997 H   0  0  0  0  0  0  0  0  0  0  0  0
    0.4815   -1.0614   -2.1583 C   0  0  0  0  0  0  0  0  0  0  0  0
    0.8043   -1.6056   -3.4041 C   0  0  0  0  0  0  0  0  0  0  0  0
    1.6083   -2.7464   -3.4835 C   0  0  0  0  0  0  0  0  0  0  0  0
    2.0812   -3.3486   -2.3142 C   0  0  0  0  0  0  0  0  0  0  0  0
    1.7606   -2.8057   -1.0665 C   0  0  0  0  0  0  0  0  0  0  0  0
    0.9624   -1.6602   -0.9900 C   0  0  0  0  0  0  0  0  0  0  0  0
   -0.1291   -0.1638   -2.1021 H   0  0  0  0  0  0  0  0  0  0  0  0
    0.4379   -1.1353   -4.3121 H   0  0  0  0  0  0  0  0  0  0  0  0
    1.8654   -3.1640   -4.4526 H   0  0  0  0  0  0  0  0  0  0  0  0
    2.7087   -4.2334   -2.3750 H   0  0  0  0  0  0  0  0  0  0  0  0
    2.1470   -3.2624   -0.1589 H   0  0  0  0  0  0  0  0  0  0  0  0
    0.7489   -1.2098   -0.0219 H   0  0  0  0  0  0  0  0  0  0  0  0
    1.0568   -1.8291    3.6509 S   0  0  0  0  0  0  0  0  0  0  0  0
    1.4881   -2.7168    2.5945 O   0  0  0  0  0  0  0  0  0  0  0  0
   -0.4032   -1.6689    3.9067 O   0  0  0  0  0  0  0  0  0  0  0  0
    1.7712   -2.2495    5.0193 O   0  0  0  0  0  0  0  0  0  0  0  0
    1.7354   -0.0960    3.3662 C   0  0  0  0  0  0  0  0  0  0  0  0
    1.4754    0.6247    4.4481 F   0  0  0  0  0  0  0  0  0  0  0  0
    3.0304   -0.1828    3.1490 F   0  0  0  0  0  0  0  0  0  0  0  0
    1.1023    0.3949    2.3096 F   0  0  0  0  0  0  0  0  0  0  0  0
   -1.5626   -3.2147    1.3182 H   0  0  0  0  0  0  0  0  0  0  0  0
  1  2  1  0  0  0  0
  3  1  1  0  0  0  0
  3  4  1  0  0  0  0
  6 12  1  0  0  0  0
  6 11  2  0  0  0  0
  7  6  1  0  0  0  0
  8  7  2  0  0  0  0
  8  9  1  0  0  0  0
  9 10  2  0  0  0  0
 10 11  1  0  0  0  0
 10 16  1  0  0  0  0
 11 17  1  0  0  0  0
 13  7  1  0  0  0  0
 14  8  1  0  0  0  0
 15  9  1  0  0  0  0
 18 20  2  0  0  0  0
 18 21  1  0  0  0  0
 19 18  2  0  0  0  0
 21  5  1  0  0  0  0
 22 18  1  0  0  0  0
 22 23  1  0  0  0  0
 24 22  1  0  0  0  0
 25 22  1  0  0  0  0
 26  3  1  0  0  0  0
M  RAD  2   1   2   2   3
M  END
