Coordinates from ORCA-job C6H6+HOTf+NH2N2+-scan
 OpenBabel10221816143D

 26 25  0  0  1  0  0  0  0  0999 V2000
   -2.4837   -0.0424    6.1055 N   0  0  0  0  0  0  0  0  0  0  0  0
   -1.9732   -0.7878    5.4714 N   0  0  0  0  0  0  0  0  0  0  0  0
    0.5843   -1.1541   -0.3218 N   0  0  0  0  0  0  0  0  0  0  0  0
    0.5167   -1.1012    0.7095 H   0  0  0  0  0  0  0  0  0  0  0  0
   -1.1196   -2.1582    4.3872 H   0  0  0  0  0  0  0  0  0  0  0  0
   -0.5525   -2.2888   -2.2963 C   0  0  0  0  0  0  0  0  0  0  0  0
    0.1205   -2.4304   -0.9945 C   0  0  1  0  0  0  0  0  0  0  0  0
    1.5843   -2.0578   -0.9105 C   0  0  1  0  0  0  0  0  0  0  0  0
    2.2490   -1.6156   -2.1535 C   0  0  0  0  0  0  0  0  0  0  0  0
    1.5244   -1.4167   -3.2759 C   0  0  0  0  0  0  0  0  0  0  0  0
    0.1071   -1.7532   -3.3473 C   0  0  0  0  0  0  0  0  0  0  0  0
   -1.5666   -2.6628   -2.3870 H   0  0  0  0  0  0  0  0  0  0  0  0
   -0.2675   -3.1306   -0.2619 H   0  0  0  0  0  0  0  0  0  0  0  0
    2.1874   -2.5404   -0.1475 H   0  0  0  0  0  0  0  0  0  0  0  0
    3.3269   -1.4962   -2.1396 H   0  0  0  0  0  0  0  0  0  0  0  0
    2.0161   -1.0763   -4.1820 H   0  0  0  0  0  0  0  0  0  0  0  0
   -0.3986   -1.6421   -4.3016 H   0  0  0  0  0  0  0  0  0  0  0  0
    0.5136   -2.5746    3.0241 S   0  0  0  0  0  0  0  0  0  0  0  0
    0.7176   -3.6397    2.0558 O   0  0  0  0  0  0  0  0  0  0  0  0
    0.4151   -1.1856    2.5396 O   0  0  0  0  0  0  0  0  0  0  0  0
   -0.7562   -2.9431    3.9149 O   0  0  0  0  0  0  0  0  0  0  0  0
    1.8905   -2.6239    4.2955 C   0  0  0  0  0  0  0  0  0  0  0  0
    1.5722   -1.7851    5.2765 F   0  0  0  0  0  0  0  0  0  0  0  0
    2.0123   -3.8558    4.7538 F   0  0  0  0  0  0  0  0  0  0  0  0
    3.0056   -2.2328    3.6918 F   0  0  0  0  0  0  0  0  0  0  0  0
    0.3970   -0.2827   -0.8159 H   0  0  0  0  0  0  0  0  0  0  0  0
  2  1  3  0  0  0  0
  3  4  1  0  0  0  0
  6  7  1  0  0  0  0
  7  8  1  0  0  0  0
  7  3  1  0  0  0  0
  7 13  1  1  0  0  0
  8  3  1  0  0  0  0
  8 14  1  1  0  0  0
  9 15  1  0  0  0  0
  9  8  1  0  0  0  0
 10  9  2  0  0  0  0
 11 10  1  0  0  0  0
 11  6  2  0  0  0  0
 12  6  1  0  0  0  0
 16 10  1  0  0  0  0
 17 11  1  0  0  0  0
 18 21  1  0  0  0  0
 18 22  1  0  0  0  0
 19 18  2  0  0  0  0
 20 18  2  0  0  0  0
 21  5  1  0  0  0  0
 22 24  1  0  0  0  0
 22 23  1  0  0  0  0
 25 22  1  0  0  0  0
 26  3  1  0  0  0  0
M  END
