Coordinates from ORCA-job C6H6+HOTf+NH2N2+-scan
 OpenBabel10221816143D

 26 24  0  0  0  0  0  0  0  0999 V2000
   -2.7021   -2.3441    1.5998 N   0  0  0  0  0  0  0  0  0  0  0  0
   -3.8042   -2.5550    1.6000 N   0  0  0  0  0  0  0  0  0  0  0  0
   -1.4624   -2.0862    1.6216 N   0  0  0  0  0  0  0  0  0  0  0  0
   -0.9634   -1.9927    2.5675 H   0  0  0  0  0  0  0  0  0  0  0  0
    1.5586   -3.0505    5.3411 H   0  0  0  0  0  0  0  0  0  0  0  0
   -0.1943   -1.6969   -2.5635 C   0  0  0  0  0  0  0  0  0  0  0  0
    0.2697   -2.4790   -3.6243 C   0  0  0  0  0  0  0  0  0  0  0  0
    1.4322   -3.2451   -3.4793 C   0  0  0  0  0  0  0  0  0  0  0  0
    2.1157   -3.2462   -2.2581 C   0  0  0  0  0  0  0  0  0  0  0  0
    1.6577   -2.4650   -1.1929 C   0  0  0  0  0  0  0  0  0  0  0  0
    0.5061   -1.6815   -1.3494 C   0  0  0  0  0  0  0  0  0  0  0  0
   -1.0758   -1.0750   -2.6962 H   0  0  0  0  0  0  0  0  0  0  0  0
   -0.2640   -2.4769   -4.5701 H   0  0  0  0  0  0  0  0  0  0  0  0
    1.7996   -3.8400   -4.3100 H   0  0  0  0  0  0  0  0  0  0  0  0
    3.0167   -3.8414   -2.1419 H   0  0  0  0  0  0  0  0  0  0  0  0
    2.2115   -2.4385   -0.2584 H   0  0  0  0  0  0  0  0  0  0  0  0
    0.2221   -0.9726   -0.5683 H   0  0  0  0  0  0  0  0  0  0  0  0
    1.3276   -1.6027    3.7512 S   0  0  0  0  0  0  0  0  0  0  0  0
    1.9158   -1.5259    2.4325 O   0  0  0  0  0  0  0  0  0  0  0  0
   -0.1365   -1.8322    3.8813 O   0  0  0  0  0  0  0  0  0  0  0  0
    2.0996   -2.7247    4.5961 O   0  0  0  0  0  0  0  0  0  0  0  0
    1.7100   -0.0460    4.7388 C   0  0  0  0  0  0  0  0  0  0  0  0
    1.3390   -0.2660    5.9937 F   0  0  0  0  0  0  0  0  0  0  0  0
    3.0031    0.1922    4.6600 F   0  0  0  0  0  0  0  0  0  0  0  0
    1.0068    0.9392    4.2043 F   0  0  0  0  0  0  0  0  0  0  0  0
   -0.9665   -2.1252    0.7146 H   0  0  0  0  0  0  0  0  0  0  0  0
  1  2  1  0  0  0  0
  1  3  1  0  0  0  0
  3  4  1  0  0  0  0
  6 11  2  0  0  0  0
  7  8  2  0  0  0  0
  7  6  1  0  0  0  0
  8  9  1  0  0  0  0
  9 15  1  0  0  0  0
  9 10  2  0  0  0  0
 10 16  1  0  0  0  0
 11 10  1  0  0  0  0
 11 17  1  0  0  0  0
 12  6  1  0  0  0  0
 13  7  1  0  0  0  0
 14  8  1  0  0  0  0
 18 20  2  0  0  0  0
 18 21  1  0  0  0  0
 18 22  1  0  0  0  0
 19 18  2  0  0  0  0
 21  5  1  0  0  0  0
 22 23  1  0  0  0  0
 24 22  1  0  0  0  0
 25 22  1  0  0  0  0
 26  3  1  0  0  0  0
M  RAD  2   1   2   2   3
M  END
