Coordinates from ORCA-job C6H6+HOTf+NH2N2+-scan
 OpenBabel10221816143D

 26 24  0  0  0  0  0  0  0  0999 V2000
   -2.3851   -2.5822    1.1473 N   0  0  0  0  0  0  0  0  0  0  0  0
   -3.4255   -2.9872    1.0281 N   0  0  0  0  0  0  0  0  0  0  0  0
   -1.2253   -2.0871    1.2646 N   0  0  0  0  0  0  0  0  0  0  0  0
   -0.7983   -2.0431    2.2367 H   0  0  0  0  0  0  0  0  0  0  0  0
    1.6766   -3.0678    5.1440 H   0  0  0  0  0  0  0  0  0  0  0  0
   -0.1477   -1.4806   -2.3266 C   0  0  0  0  0  0  0  0  0  0  0  0
    0.0563   -2.4230   -3.3370 C   0  0  0  0  0  0  0  0  0  0  0  0
    1.0742   -3.3769   -3.2139 C   0  0  0  0  0  0  0  0  0  0  0  0
    1.8665   -3.4099   -2.0605 C   0  0  0  0  0  0  0  0  0  0  0  0
    1.6690   -2.4704   -1.0453 C   0  0  0  0  0  0  0  0  0  0  0  0
    0.6657   -1.4949   -1.1801 C   0  0  0  0  0  0  0  0  0  0  0  0
   -0.9048   -0.7104   -2.4487 H   0  0  0  0  0  0  0  0  0  0  0  0
   -0.5592   -2.3991   -4.2313 H   0  0  0  0  0  0  0  0  0  0  0  0
    1.2448   -4.0943   -4.0109 H   0  0  0  0  0  0  0  0  0  0  0  0
    2.6536   -4.1519   -1.9646 H   0  0  0  0  0  0  0  0  0  0  0  0
    2.3129   -2.4651   -0.1703 H   0  0  0  0  0  0  0  0  0  0  0  0
    0.6170   -0.6695   -0.4689 H   0  0  0  0  0  0  0  0  0  0  0  0
    1.3900   -1.5348    3.6475 S   0  0  0  0  0  0  0  0  0  0  0  0
    2.0558   -1.2941    2.3856 O   0  0  0  0  0  0  0  0  0  0  0  0
   -0.0424   -1.9229    3.6559 O   0  0  0  0  0  0  0  0  0  0  0  0
    2.2272   -2.6318    4.4657 O   0  0  0  0  0  0  0  0  0  0  0  0
    1.5440   -0.0290    4.7647 C   0  0  0  0  0  0  0  0  0  0  0  0
    1.1188   -0.3786    5.9726 F   0  0  0  0  0  0  0  0  0  0  0  0
    2.8076    0.3442    4.7965 F   0  0  0  0  0  0  0  0  0  0  0  0
    0.7774    0.9206    4.2520 F   0  0  0  0  0  0  0  0  0  0  0  0
   -0.6464   -2.0384    0.3871 H   0  0  0  0  0  0  0  0  0  0  0  0
  1  3  1  0  0  0  0
  2  1  1  0  0  0  0
  3  4  1  0  0  0  0
  6 11  2  0  0  0  0
  7  8  2  0  0  0  0
  7  6  1  0  0  0  0
  8  9  1  0  0  0  0
  9 15  1  0  0  0  0
  9 10  2  0  0  0  0
 10 16  1  0  0  0  0
 11 10  1  0  0  0  0
 11 17  1  0  0  0  0
 12  6  1  0  0  0  0
 13  7  1  0  0  0  0
 14  8  1  0  0  0  0
 18 20  2  0  0  0  0
 18 21  1  0  0  0  0
 18 22  1  0  0  0  0
 19 18  2  0  0  0  0
 21  5  1  0  0  0  0
 22 24  1  0  0  0  0
 22 23  1  0  0  0  0
 25 22  1  0  0  0  0
 26  3  1  0  0  0  0
M  RAD  2   1   2   2   3
M  END
