Coordinates from ORCA-job C6H6+HOTf+NH2N2+-scan
 OpenBabel10221816143D

 26 24  0  0  0  0  0  0  0  0999 V2000
   -0.7662    0.4265    0.5864 N   0  0  0  0  0  0  0  0  0  0  0  0
   -1.4128    1.3281    0.4082 N   0  0  0  0  0  0  0  0  0  0  0  0
   -0.0416   -0.5928    0.7607 N   0  0  0  0  0  0  0  0  0  0  0  0
   -0.0637   -1.0608    1.7088 H   0  0  0  0  0  0  0  0  0  0  0  0
   -0.9680   -3.8666    4.3469 H   0  0  0  0  0  0  0  0  0  0  0  0
    0.1739   -3.2018   -1.6453 C   0  0  0  0  0  0  0  0  0  0  0  0
    1.3839   -2.8152   -1.0621 C   0  0  0  0  0  0  0  0  0  0  0  0
    1.9119   -1.5398   -1.3291 C   0  0  0  0  0  0  0  0  0  0  0  0
    1.2322   -0.6641   -2.1946 C   0  0  0  0  0  0  0  0  0  0  0  0
    0.0196   -1.0570   -2.7713 C   0  0  0  0  0  0  0  0  0  0  0  0
   -0.5054   -2.3247   -2.4972 C   0  0  0  0  0  0  0  0  0  0  0  0
   -0.2320   -4.1892   -1.4467 H   0  0  0  0  0  0  0  0  0  0  0  0
    1.9163   -3.4941   -0.4029 H   0  0  0  0  0  0  0  0  0  0  0  0
    2.8737   -1.2525   -0.9117 H   0  0  0  0  0  0  0  0  0  0  0  0
    1.6599    0.3073   -2.4277 H   0  0  0  0  0  0  0  0  0  0  0  0
   -0.5016   -0.3875   -3.4494 H   0  0  0  0  0  0  0  0  0  0  0  0
   -1.4401   -2.6325   -2.9568 H   0  0  0  0  0  0  0  0  0  0  0  0
    0.7825   -2.9878    3.4333 S   0  0  0  0  0  0  0  0  0  0  0  0
    1.6832   -3.4851    2.4179 O   0  0  0  0  0  0  0  0  0  0  0  0
   -0.0671   -1.8040    3.1603 O   0  0  0  0  0  0  0  0  0  0  0  0
   -0.1590   -4.1975    3.9124 O   0  0  0  0  0  0  0  0  0  0  0  0
    1.7298   -2.6027    5.0106 C   0  0  0  0  0  0  0  0  0  0  0  0
    0.8409   -2.3795    5.9721 F   0  0  0  0  0  0  0  0  0  0  0  0
    2.4966   -3.6334    5.3064 F   0  0  0  0  0  0  0  0  0  0  0  0
    2.4551   -1.5186    4.7814 F   0  0  0  0  0  0  0  0  0  0  0  0
    0.6207   -0.8527   -0.0201 H   0  0  0  0  0  0  0  0  0  0  0  0
  1  3  1  0  0  0  0
  2  1  1  0  0  0  0
  3  4  1  0  0  0  0
  6 12  1  0  0  0  0
  6  7  2  0  0  0  0
  7 13  1  0  0  0  0
  8  7  1  0  0  0  0
  8 14  1  0  0  0  0
  9  8  2  0  0  0  0
 10 11  2  0  0  0  0
 10  9  1  0  0  0  0
 11  6  1  0  0  0  0
 15  9  1  0  0  0  0
 16 10  1  0  0  0  0
 17 11  1  0  0  0  0
 18 21  1  0  0  0  0
 18 22  1  0  0  0  0
 19 18  2  0  0  0  0
 20 18  2  0  0  0  0
 21  5  1  0  0  0  0
 22 24  1  0  0  0  0
 22 23  1  0  0  0  0
 25 22  1  0  0  0  0
 26  3  1  0  0  0  0
M  RAD  2   1   2   2   3
M  END
