Coordinates from ORCA-job C6H6+HOTf+NH2N2+-scan
 OpenBabel10221816143D

 26 24  0  0  0  0  0  0  0  0999 V2000
   -2.0771    0.5169    5.9307 N   0  0  0  0  0  0  0  0  0  0  0  0
   -1.7153   -0.3365    5.3313 N   0  0  0  0  0  0  0  0  0  0  0  0
    0.7072   -1.3020   -0.3644 N   0  0  0  0  0  0  0  0  0  0  0  0
    0.6117   -1.2650    0.6795 H   0  0  0  0  0  0  0  0  0  0  0  0
   -1.1515   -1.8970    4.3226 H   0  0  0  0  0  0  0  0  0  0  0  0
   -0.3415   -2.6081   -2.2251 C   0  0  0  0  0  0  0  0  0  0  0  0
    0.4087   -2.6408   -0.9785 C   0  0  0  0  0  0  0  0  0  0  0  0
    1.6524   -1.7190   -0.8702 C   0  0  0  0  0  0  0  0  0  0  0  0
    2.1479   -1.1768   -2.1694 C   0  0  0  0  0  0  0  0  0  0  0  0
    1.3202   -1.1226   -3.2369 C   0  0  0  0  0  0  0  0  0  0  0  0
    0.0399   -1.8091   -3.2522 C   0  0  0  0  0  0  0  0  0  0  0  0
   -1.1943   -3.2742   -2.3044 H   0  0  0  0  0  0  0  0  0  0  0  0
    0.2799   -3.3933   -0.2112 H   0  0  0  0  0  0  0  0  0  0  0  0
    2.4698   -2.0620   -0.2292 H   0  0  0  0  0  0  0  0  0  0  0  0
    3.1868   -0.8718   -2.2286 H   0  0  0  0  0  0  0  0  0  0  0  0
    1.6640   -0.6668   -4.1608 H   0  0  0  0  0  0  0  0  0  0  0  0
   -0.5559   -1.7750   -4.1584 H   0  0  0  0  0  0  0  0  0  0  0  0
    0.3611   -2.7398    3.0132 S   0  0  0  0  0  0  0  0  0  0  0  0
    0.3632   -3.9078    2.1531 O   0  0  0  0  0  0  0  0  0  0  0  0
    0.5366   -1.4015    2.4072 O   0  0  0  0  0  0  0  0  0  0  0  0
   -0.9622   -2.7667    3.8992 O   0  0  0  0  0  0  0  0  0  0  0  0
    1.6984   -2.9145    4.3171 C   0  0  0  0  0  0  0  0  0  0  0  0
    1.5197   -1.9504    5.2155 F   0  0  0  0  0  0  0  0  0  0  0  0
    1.5986   -4.1035    4.8794 F   0  0  0  0  0  0  0  0  0  0  0  0
    2.8688   -2.7741    3.7095 F   0  0  0  0  0  0  0  0  0  0  0  0
    0.1858   -0.5167   -0.7788 H   0  0  0  0  0  0  0  0  0  0  0  0
  2  1  3  0  0  0  0
  3  4  1  0  0  0  0
  6  7  1  0  0  0  0
  7  3  1  0  0  0  0
  7 13  1  0  0  0  0
  8  3  1  0  0  0  0
  8 14  1  0  0  0  0
  9  8  1  0  0  0  0
 10  9  2  0  0  0  0
 11 10  1  0  0  0  0
 11  6  2  0  0  0  0
 12  6  1  0  0  0  0
 15  9  1  0  0  0  0
 16 10  1  0  0  0  0
 17 11  1  0  0  0  0
 18 21  1  0  0  0  0
 18 22  1  0  0  0  0
 19 18  2  0  0  0  0
 20 18  2  0  0  0  0
 21  5  1  0  0  0  0
 22 24  1  0  0  0  0
 22 23  1  0  0  0  0
 25 22  1  0  0  0  0
 26  3  1  0  0  0  0
M  RAD  2   7   2   8   2
M  END
