Coordinates from ORCA-job C6H6+HOTf+NH2N2+-scan
 OpenBabel10221816143D

 26 25  0  0  1  0  0  0  0  0999 V2000
   -2.9116   -0.8997    6.0115 N   0  0  0  0  0  0  0  0  0  0  0  0
   -2.1826   -1.4829    5.4226 N   0  0  0  0  0  0  0  0  0  0  0  0
    0.6118   -1.0874   -0.3176 N   0  0  0  0  0  0  0  0  0  0  0  0
    0.5223   -1.0709    0.7099 H   0  0  0  0  0  0  0  0  0  0  0  0
   -0.9211   -2.5828    4.4179 H   0  0  0  0  0  0  0  0  0  0  0  0
   -0.6818   -1.6764   -2.4306 C   0  0  0  0  0  0  0  0  0  0  0  0
   -0.2138   -2.0906   -1.0893 C   0  0  1  0  0  0  0  0  0  0  0  0
    1.2393   -2.4554   -0.9462 C   0  0  1  0  0  0  0  0  0  0  0  0
    2.1189   -2.2893   -2.1054 C   0  0  0  0  0  0  0  0  0  0  0  0
    1.6245   -1.7986   -3.2650 C   0  0  0  0  0  0  0  0  0  0  0  0
    0.2067   -1.4971   -3.4311 C   0  0  0  0  0  0  0  0  0  0  0  0
   -1.7490   -1.5599   -2.5859 H   0  0  0  0  0  0  0  0  0  0  0  0
   -0.9355   -2.5759   -0.4379 H   0  0  0  0  0  0  0  0  0  0  0  0
    1.5319   -3.0945   -0.1190 H   0  0  0  0  0  0  0  0  0  0  0  0
    3.1509   -2.6095   -2.0126 H   0  0  0  0  0  0  0  0  0  0  0  0
    2.2781   -1.6823   -4.1241 H   0  0  0  0  0  0  0  0  0  0  0  0
   -0.1393   -1.1859   -4.4120 H   0  0  0  0  0  0  0  0  0  0  0  0
    0.7934   -2.5514    3.0929 S   0  0  0  0  0  0  0  0  0  0  0  0
    1.3554   -3.5612    2.2131 O   0  0  0  0  0  0  0  0  0  0  0  0
    0.2733   -1.2985    2.5155 O   0  0  0  0  0  0  0  0  0  0  0  0
   -0.3257   -3.2435    3.9946 O   0  0  0  0  0  0  0  0  0  0  0  0
    2.0684   -2.0771    4.3821 C   0  0  0  0  0  0  0  0  0  0  0  0
    1.4625   -1.3312    5.3021 F   0  0  0  0  0  0  0  0  0  0  0  0
    2.5665   -3.1732    4.9238 F   0  0  0  0  0  0  0  0  0  0  0  0
    3.0175   -1.3800    3.7707 F   0  0  0  0  0  0  0  0  0  0  0  0
    0.8618   -0.2229   -0.7900 H   0  0  0  0  0  0  0  0  0  0  0  0
  2  1  3  0  0  0  0
  3  4  1  0  0  0  0
  6  7  1  0  0  0  0
  7  8  1  0  0  0  0
  7 13  1  1  0  0  0
  7  3  1  0  0  0  0
  8  3  1  0  0  0  0
  8 14  1  1  0  0  0
  9 15  1  0  0  0  0
  9  8  1  0  0  0  0
 10  9  2  0  0  0  0
 11 10  1  0  0  0  0
 11  6  2  0  0  0  0
 12  6  1  0  0  0  0
 16 10  1  0  0  0  0
 17 11  1  0  0  0  0
 18 21  1  0  0  0  0
 18 22  1  0  0  0  0
 19 18  2  0  0  0  0
 20 18  2  0  0  0  0
 21  5  1  0  0  0  0
 22 24  1  0  0  0  0
 22 23  1  0  0  0  0
 25 22  1  0  0  0  0
 26  3  1  0  0  0  0
M  END
