Coordinates from ORCA-job C6H6+HOTf+NH2N2+-scan
 OpenBabel10221816143D

 26 24  0  0  0  0  0  0  0  0999 V2000
   -2.7836   -2.3052    1.7282 N   0  0  0  0  0  0  0  0  0  0  0  0
   -3.8943   -2.4625    1.7532 N   0  0  0  0  0  0  0  0  0  0  0  0
   -1.5320   -2.1121    1.7303 N   0  0  0  0  0  0  0  0  0  0  0  0
   -1.0154   -1.9973    2.6676 H   0  0  0  0  0  0  0  0  0  0  0  0
    1.5395   -3.0227    5.4047 H   0  0  0  0  0  0  0  0  0  0  0  0
   -0.1778   -1.7277   -2.6176 C   0  0  0  0  0  0  0  0  0  0  0  0
    0.3304   -2.4610   -3.6932 C   0  0  0  0  0  0  0  0  0  0  0  0
    1.5101   -3.1995   -3.5482 C   0  0  0  0  0  0  0  0  0  0  0  0
    2.1690   -3.2193   -2.3139 C   0  0  0  0  0  0  0  0  0  0  0  0
    1.6665   -2.4867   -1.2342 C   0  0  0  0  0  0  0  0  0  0  0  0
    0.4960   -1.7334   -1.3896 C   0  0  0  0  0  0  0  0  0  0  0  0
   -1.0763   -1.1303   -2.7480 H   0  0  0  0  0  0  0  0  0  0  0  0
   -0.1846   -2.4435   -4.6493 H   0  0  0  0  0  0  0  0  0  0  0  0
    1.9104   -3.7580   -4.3889 H   0  0  0  0  0  0  0  0  0  0  0  0
    3.0842   -3.7925   -2.1973 H   0  0  0  0  0  0  0  0  0  0  0  0
    2.1989   -2.4779   -0.2869 H   0  0  0  0  0  0  0  0  0  0  0  0
    0.1650   -1.0717   -0.5856 H   0  0  0  0  0  0  0  0  0  0  0  0
    1.2998   -1.6182    3.7775 S   0  0  0  0  0  0  0  0  0  0  0  0
    1.8538   -1.5948    2.4421 O   0  0  0  0  0  0  0  0  0  0  0  0
   -0.1660   -1.8107    3.9505 O   0  0  0  0  0  0  0  0  0  0  0  0
    2.0678   -2.7314    4.6367 O   0  0  0  0  0  0  0  0  0  0  0  0
    1.7400   -0.0408    4.7073 C   0  0  0  0  0  0  0  0  0  0  0  0
    1.3966   -0.2152    5.9770 F   0  0  0  0  0  0  0  0  0  0  0  0
    3.0353    0.1663    4.5887 F   0  0  0  0  0  0  0  0  0  0  0  0
    1.0441    0.9425    4.1603 F   0  0  0  0  0  0  0  0  0  0  0  0
   -1.0546   -2.1744    0.8187 H   0  0  0  0  0  0  0  0  0  0  0  0
  1  3  1  0  0  0  0
  1  2  1  0  0  0  0
  3  4  1  0  0  0  0
  6 11  2  0  0  0  0
  7  8  2  0  0  0  0
  7  6  1  0  0  0  0
  8  9  1  0  0  0  0
  9 15  1  0  0  0  0
  9 10  2  0  0  0  0
 10 16  1  0  0  0  0
 11 10  1  0  0  0  0
 11 17  1  0  0  0  0
 12  6  1  0  0  0  0
 13  7  1  0  0  0  0
 14  8  1  0  0  0  0
 18 20  2  0  0  0  0
 18 21  1  0  0  0  0
 18 22  1  0  0  0  0
 19 18  2  0  0  0  0
 21  5  1  0  0  0  0
 22 23  1  0  0  0  0
 24 22  1  0  0  0  0
 25 22  1  0  0  0  0
 26  3  1  0  0  0  0
M  RAD  2   1   2   2   3
M  END
