Coordinates from ORCA-job C6H6+HOTf+NH2N2+-scan
 OpenBabel10221816143D

 26 24  0  0  0  0  0  0  0  0999 V2000
   -2.1182    0.5292    5.8246 N   0  0  0  0  0  0  0  0  0  0  0  0
   -1.7408   -0.3286    5.2414 N   0  0  0  0  0  0  0  0  0  0  0  0
    0.7919   -1.3517   -0.3745 N   0  0  0  0  0  0  0  0  0  0  0  0
    0.6727   -1.3159    0.6765 H   0  0  0  0  0  0  0  0  0  0  0  0
   -1.1554   -1.8963    4.2655 H   0  0  0  0  0  0  0  0  0  0  0  0
   -0.3562   -2.5927   -2.1954 C   0  0  0  0  0  0  0  0  0  0  0  0
    0.4124   -2.6860   -0.9767 C   0  0  0  0  0  0  0  0  0  0  0  0
    1.6483   -1.7081   -0.8449 C   0  0  0  0  0  0  0  0  0  0  0  0
    2.1426   -1.1900   -2.1591 C   0  0  0  0  0  0  0  0  0  0  0  0
    1.2806   -1.0818   -3.1975 C   0  0  0  0  0  0  0  0  0  0  0  0
   -0.0110   -1.7381   -3.1950 C   0  0  0  0  0  0  0  0  0  0  0  0
   -1.2046   -3.2639   -2.2847 H   0  0  0  0  0  0  0  0  0  0  0  0
    0.3158   -3.4303   -0.1992 H   0  0  0  0  0  0  0  0  0  0  0  0
    2.4941   -2.0801   -0.2478 H   0  0  0  0  0  0  0  0  0  0  0  0
    3.1960   -0.9492   -2.2441 H   0  0  0  0  0  0  0  0  0  0  0  0
    1.6113   -0.6180   -4.1225 H   0  0  0  0  0  0  0  0  0  0  0  0
   -0.6392   -1.6574   -4.0754 H   0  0  0  0  0  0  0  0  0  0  0  0
    0.3811   -2.7614    2.9970 S   0  0  0  0  0  0  0  0  0  0  0  0
    0.4043   -3.9472    2.1631 O   0  0  0  0  0  0  0  0  0  0  0  0
    0.5605   -1.4347    2.3620 O   0  0  0  0  0  0  0  0  0  0  0  0
   -0.9575   -2.7722    3.8582 O   0  0  0  0  0  0  0  0  0  0  0  0
    1.6979   -2.8941    4.3278 C   0  0  0  0  0  0  0  0  0  0  0  0
    1.4940   -1.9114    5.2001 F   0  0  0  0  0  0  0  0  0  0  0  0
    1.5975   -4.0708    4.9144 F   0  0  0  0  0  0  0  0  0  0  0  0
    2.8767   -2.7567    3.7371 F   0  0  0  0  0  0  0  0  0  0  0  0
    0.2275   -0.5707   -0.7608 H   0  0  0  0  0  0  0  0  0  0  0  0
  2  1  3  0  0  0  0
  3  4  1  0  0  0  0
  6  7  1  0  0  0  0
  7  3  1  0  0  0  0
  7 13  1  0  0  0  0
  8  3  1  0  0  0  0
  8 14  1  0  0  0  0
  9  8  1  0  0  0  0
 10 11  2  0  0  0  0
 10  9  1  0  0  0  0
 11  6  1  0  0  0  0
 12  6  1  0  0  0  0
 15  9  1  0  0  0  0
 16 10  1  0  0  0  0
 17 11  1  0  0  0  0
 18 21  1  0  0  0  0
 18 22  1  0  0  0  0
 19 18  2  0  0  0  0
 20 18  2  0  0  0  0
 21  5  1  0  0  0  0
 22 24  1  0  0  0  0
 22 23  1  0  0  0  0
 25 22  1  0  0  0  0
 26  3  1  0  0  0  0
M  RAD  4   6   2   7   2   8   2   9   2
M  END
