Coordinates from ORCA-job C6H6+HOTf+NH2N2+-scan
 OpenBabel10221816143D

 26 24  0  0  0  0  0  0  0  0999 V2000
   -2.1463   -2.6799    0.8053 N   0  0  0  0  0  0  0  0  0  0  0  0
   -3.1538   -3.1345    0.6040 N   0  0  0  0  0  0  0  0  0  0  0  0
   -1.0231   -2.1336    1.0025 N   0  0  0  0  0  0  0  0  0  0  0  0
   -0.6465   -2.1163    1.9912 H   0  0  0  0  0  0  0  0  0  0  0  0
    1.7451   -3.1373    4.9944 H   0  0  0  0  0  0  0  0  0  0  0  0
   -0.1185   -1.3392   -2.2463 C   0  0  0  0  0  0  0  0  0  0  0  0
   -0.1449   -2.4658   -3.0721 C   0  0  0  0  0  0  0  0  0  0  0  0
    0.7750   -3.5019   -2.8727 C   0  0  0  0  0  0  0  0  0  0  0  0
    1.7090   -3.4259   -1.8341 C   0  0  0  0  0  0  0  0  0  0  0  0
    1.7408   -2.3034   -1.0025 C   0  0  0  0  0  0  0  0  0  0  0  0
    0.8269   -1.2537   -1.2078 C   0  0  0  0  0  0  0  0  0  0  0  0
   -0.8052   -0.5159   -2.4241 H   0  0  0  0  0  0  0  0  0  0  0  0
   -0.8638   -2.5267   -3.8838 H   0  0  0  0  0  0  0  0  0  0  0  0
    0.7630   -4.3684   -3.5273 H   0  0  0  0  0  0  0  0  0  0  0  0
    2.4229   -4.2306   -1.6861 H   0  0  0  0  0  0  0  0  0  0  0  0
    2.4800   -2.2247   -0.2104 H   0  0  0  0  0  0  0  0  0  0  0  0
    0.9126   -0.3405   -0.6215 H   0  0  0  0  0  0  0  0  0  0  0  0
    1.4372   -1.5377    3.5745 S   0  0  0  0  0  0  0  0  0  0  0  0
    2.1609   -1.1713    2.3762 O   0  0  0  0  0  0  0  0  0  0  0  0
    0.0400   -2.0223    3.4705 O   0  0  0  0  0  0  0  0  0  0  0  0
    2.3029   -2.6237    4.3793 O   0  0  0  0  0  0  0  0  0  0  0  0
    1.4170   -0.0994    4.7858 C   0  0  0  0  0  0  0  0  0  0  0  0
    0.9471   -0.5519    5.9422 F   0  0  0  0  0  0  0  0  0  0  0  0
    2.6464    0.3568    4.9204 F   0  0  0  0  0  0  0  0  0  0  0  0
    0.6161    0.8275    4.2831 F   0  0  0  0  0  0  0  0  0  0  0  0
   -0.4183   -1.9576    0.1497 H   0  0  0  0  0  0  0  0  0  0  0  0
  1  3  1  0  0  0  0
  2  1  1  0  0  0  0
  3  4  1  0  0  0  0
  6 11  2  0  0  0  0
  7  8  2  0  0  0  0
  7  6  1  0  0  0  0
  8  9  1  0  0  0  0
  9 15  1  0  0  0  0
  9 10  2  0  0  0  0
 10 16  1  0  0  0  0
 11 10  1  0  0  0  0
 11 17  1  0  0  0  0
 12  6  1  0  0  0  0
 13  7  1  0  0  0  0
 14  8  1  0  0  0  0
 18 21  1  0  0  0  0
 18 22  1  0  0  0  0
 19 18  2  0  0  0  0
 20 18  2  0  0  0  0
 21  5  1  0  0  0  0
 22 24  1  0  0  0  0
 22 23  1  0  0  0  0
 25 22  1  0  0  0  0
 26  3  1  0  0  0  0
M  RAD  2   1   2   2   3
M  END
