Coordinates from ORCA-job C6H6+HOTf+NH2N2+-scan
 OpenBabel10221816143D

 26 24  0  0  0  0  0  0  0  0999 V2000
   -2.1554   -2.6735    0.8186 N   0  0  0  0  0  0  0  0  0  0  0  0
   -3.1651   -3.1244    0.6202 N   0  0  0  0  0  0  0  0  0  0  0  0
   -1.0296   -2.1312    1.0123 N   0  0  0  0  0  0  0  0  0  0  0  0
   -0.6507   -2.1139    2.0002 H   0  0  0  0  0  0  0  0  0  0  0  0
    1.7525   -3.1327    4.9947 H   0  0  0  0  0  0  0  0  0  0  0  0
   -0.1172   -1.3445   -2.2475 C   0  0  0  0  0  0  0  0  0  0  0  0
   -0.1369   -2.4628   -3.0844 C   0  0  0  0  0  0  0  0  0  0  0  0
    0.7844   -3.4987   -2.8906 C   0  0  0  0  0  0  0  0  0  0  0  0
    1.7127   -3.4312   -1.8463 C   0  0  0  0  0  0  0  0  0  0  0  0
    1.7379   -2.3168   -1.0037 C   0  0  0  0  0  0  0  0  0  0  0  0
    0.8229   -1.2670   -1.2036 C   0  0  0  0  0  0  0  0  0  0  0  0
   -0.8047   -0.5208   -2.4210 H   0  0  0  0  0  0  0  0  0  0  0  0
   -0.8515   -2.5174   -3.9003 H   0  0  0  0  0  0  0  0  0  0  0  0
    0.7777   -4.3587   -3.5538 H   0  0  0  0  0  0  0  0  0  0  0  0
    2.4275   -4.2358   -1.7026 H   0  0  0  0  0  0  0  0  0  0  0  0
    2.4732   -2.2441   -0.2075 H   0  0  0  0  0  0  0  0  0  0  0  0
    0.9057   -0.3581   -0.6101 H   0  0  0  0  0  0  0  0  0  0  0  0
    1.4362   -1.5325    3.5772 S   0  0  0  0  0  0  0  0  0  0  0  0
    2.1549   -1.1636    2.3768 O   0  0  0  0  0  0  0  0  0  0  0  0
    0.0397   -2.0202    3.4776 O   0  0  0  0  0  0  0  0  0  0  0  0
    2.3070   -2.6172    4.3782 O   0  0  0  0  0  0  0  0  0  0  0  0
    1.4169   -0.0951    4.7897 C   0  0  0  0  0  0  0  0  0  0  0  0
    0.9518   -0.5495    5.9473 F   0  0  0  0  0  0  0  0  0  0  0  0
    2.6458    0.3636    4.9206 F   0  0  0  0  0  0  0  0  0  0  0  0
    0.6123    0.8304    4.2904 F   0  0  0  0  0  0  0  0  0  0  0  0
   -0.4252   -1.9622    0.1580 H   0  0  0  0  0  0  0  0  0  0  0  0
  1  3  1  0  0  0  0
  2  1  1  0  0  0  0
  3  4  1  0  0  0  0
  6 11  2  0  0  0  0
  7  8  2  0  0  0  0
  7  6  1  0  0  0  0
  8  9  1  0  0  0  0
  9 15  1  0  0  0  0
  9 10  2  0  0  0  0
 10 16  1  0  0  0  0
 11 10  1  0  0  0  0
 11 17  1  0  0  0  0
 12  6  1  0  0  0  0
 13  7  1  0  0  0  0
 14  8  1  0  0  0  0
 18 21  1  0  0  0  0
 18 22  1  0  0  0  0
 19 18  2  0  0  0  0
 20 18  2  0  0  0  0
 21  5  1  0  0  0  0
 22 24  1  0  0  0  0
 22 23  1  0  0  0  0
 25 22  1  0  0  0  0
 26  3  1  0  0  0  0
M  RAD  2   1   2   2   3
M  END
