Coordinates from ORCA-job C6H6+HOTf+NH2N2+-scan
 OpenBabel10221816143D

 26 24  0  0  0  0  0  0  0  0999 V2000
   -2.6046   -2.4424    1.4603 N   0  0  0  0  0  0  0  0  0  0  0  0
   -3.6792   -2.7634    1.4273 N   0  0  0  0  0  0  0  0  0  0  0  0
   -1.4033   -2.0396    1.5079 N   0  0  0  0  0  0  0  0  0  0  0  0
   -0.9232   -1.9797    2.4624 H   0  0  0  0  0  0  0  0  0  0  0  0
    1.5957   -3.0559    5.2675 H   0  0  0  0  0  0  0  0  0  0  0  0
   -0.1744   -1.6221   -2.4807 C   0  0  0  0  0  0  0  0  0  0  0  0
    0.2081   -2.4528   -3.5370 C   0  0  0  0  0  0  0  0  0  0  0  0
    1.3223   -3.2908   -3.4074 C   0  0  0  0  0  0  0  0  0  0  0  0
    2.0355   -3.3174   -2.2032 C   0  0  0  0  0  0  0  0  0  0  0  0
    1.6593   -2.4884   -1.1423 C   0  0  0  0  0  0  0  0  0  0  0  0
    0.5584   -1.6303   -1.2842 C   0  0  0  0  0  0  0  0  0  0  0  0
   -1.0129   -0.9418   -2.6048 H   0  0  0  0  0  0  0  0  0  0  0  0
   -0.3486   -2.4313   -4.4692 H   0  0  0  0  0  0  0  0  0  0  0  0
    1.6286   -3.9217   -4.2362 H   0  0  0  0  0  0  0  0  0  0  0  0
    2.8983   -3.9686   -2.0989 H   0  0  0  0  0  0  0  0  0  0  0  0
    2.2401   -2.4792   -0.2241 H   0  0  0  0  0  0  0  0  0  0  0  0
    0.3558   -0.8790   -0.5182 H   0  0  0  0  0  0  0  0  0  0  0  0
    1.3445   -1.5730    3.7140 S   0  0  0  0  0  0  0  0  0  0  0  0
    1.9557   -1.4385    2.4102 O   0  0  0  0  0  0  0  0  0  0  0  0
   -0.1122   -1.8536    3.8093 O   0  0  0  0  0  0  0  0  0  0  0  0
    2.1387   -2.6931    4.5415 O   0  0  0  0  0  0  0  0  0  0  0  0
    1.6596   -0.0344    4.7519 C   0  0  0  0  0  0  0  0  0  0  0  0
    1.2736   -0.3017    5.9932 F   0  0  0  0  0  0  0  0  0  0  0  0
    2.9458    0.2469    4.7045 F   0  0  0  0  0  0  0  0  0  0  0  0
    0.9351    0.9437    4.2326 F   0  0  0  0  0  0  0  0  0  0  0  0
   -0.8742   -2.0702    0.6137 H   0  0  0  0  0  0  0  0  0  0  0  0
  1  3  1  0  0  0  0
  2  1  1  0  0  0  0
  3  4  1  0  0  0  0
  6 11  2  0  0  0  0
  7  8  2  0  0  0  0
  7  6  1  0  0  0  0
  8  9  1  0  0  0  0
  9 15  1  0  0  0  0
  9 10  2  0  0  0  0
 10 16  1  0  0  0  0
 11 10  1  0  0  0  0
 11 17  1  0  0  0  0
 12  6  1  0  0  0  0
 13  7  1  0  0  0  0
 14  8  1  0  0  0  0
 18 20  2  0  0  0  0
 18 21  1  0  0  0  0
 18 22  1  0  0  0  0
 19 18  2  0  0  0  0
 21  5  1  0  0  0  0
 22 23  1  0  0  0  0
 24 22  1  0  0  0  0
 25 22  1  0  0  0  0
 26  3  1  0  0  0  0
M  RAD  2   1   2   2   3
M  END
