Coordinates from ORCA-job C6H6+HOTf+NH2N2+-scan
 OpenBabel10221816143D

 26 24  0  0  0  0  0  0  0  0999 V2000
   -2.4209   -2.5565    1.1967 N   0  0  0  0  0  0  0  0  0  0  0  0
   -3.4677   -2.9487    1.0933 N   0  0  0  0  0  0  0  0  0  0  0  0
   -1.2536   -2.0754    1.3005 N   0  0  0  0  0  0  0  0  0  0  0  0
   -0.8164   -2.0298    2.2692 H   0  0  0  0  0  0  0  0  0  0  0  0
    1.6619   -3.0690    5.1618 H   0  0  0  0  0  0  0  0  0  0  0  0
   -0.1573   -1.5064   -2.3521 C   0  0  0  0  0  0  0  0  0  0  0  0
    0.0810   -2.4317   -3.3709 C   0  0  0  0  0  0  0  0  0  0  0  0
    1.1178   -3.3647   -3.2457 C   0  0  0  0  0  0  0  0  0  0  0  0
    1.8949   -3.3941   -2.0818 C   0  0  0  0  0  0  0  0  0  0  0  0
    1.6632   -2.4714   -1.0583 C   0  0  0  0  0  0  0  0  0  0  0  0
    0.6412   -1.5165   -1.1954 C   0  0  0  0  0  0  0  0  0  0  0  0
   -0.9296   -0.7516   -2.4755 H   0  0  0  0  0  0  0  0  0  0  0  0
   -0.5233   -2.4102   -4.2728 H   0  0  0  0  0  0  0  0  0  0  0  0
    1.3147   -4.0685   -4.0488 H   0  0  0  0  0  0  0  0  0  0  0  0
    2.6966   -4.1199   -1.9837 H   0  0  0  0  0  0  0  0  0  0  0  0
    2.2957   -2.4628   -0.1749 H   0  0  0  0  0  0  0  0  0  0  0  0
    0.5660   -0.6996   -0.4765 H   0  0  0  0  0  0  0  0  0  0  0  0
    1.3857   -1.5411    3.6579 S   0  0  0  0  0  0  0  0  0  0  0  0
    2.0460   -1.3162    2.3904 O   0  0  0  0  0  0  0  0  0  0  0  0
   -0.0517   -1.9109    3.6774 O   0  0  0  0  0  0  0  0  0  0  0  0
    2.2135   -2.6441    4.4772 O   0  0  0  0  0  0  0  0  0  0  0  0
    1.5651   -0.0309    4.7656 C   0  0  0  0  0  0  0  0  0  0  0  0
    1.1432   -0.3687    5.9780 F   0  0  0  0  0  0  0  0  0  0  0  0
    2.8333    0.3266    4.7875 F   0  0  0  0  0  0  0  0  0  0  0  0
    0.8070    0.9250    4.2523 F   0  0  0  0  0  0  0  0  0  0  0  0
   -0.6835   -2.0410    0.4190 H   0  0  0  0  0  0  0  0  0  0  0  0
  1  3  1  0  0  0  0
  2  1  1  0  0  0  0
  3  4  1  0  0  0  0
  6 11  2  0  0  0  0
  7  8  2  0  0  0  0
  7  6  1  0  0  0  0
  8  9  1  0  0  0  0
  9 15  1  0  0  0  0
  9 10  2  0  0  0  0
 10 16  1  0  0  0  0
 11 10  1  0  0  0  0
 11 17  1  0  0  0  0
 12  6  1  0  0  0  0
 13  7  1  0  0  0  0
 14  8  1  0  0  0  0
 18 20  2  0  0  0  0
 18 21  1  0  0  0  0
 18 22  1  0  0  0  0
 19 18  2  0  0  0  0
 21  5  1  0  0  0  0
 22 24  1  0  0  0  0
 22 23  1  0  0  0  0
 25 22  1  0  0  0  0
 26  3  1  0  0  0  0
M  RAD  2   1   2   2   3
M  END
