Coordinates from ORCA-job C6H6+HOTf+NH2N2+-scan
 OpenBabel10221816143D

 26 24  0  0  0  0  0  0  0  0999 V2000
   -2.0922   -2.6222    0.7004 N   0  0  0  0  0  0  0  0  0  0  0  0
   -3.1025   -3.0636    0.4836 N   0  0  0  0  0  0  0  0  0  0  0  0
   -0.9632   -2.0993    0.9197 N   0  0  0  0  0  0  0  0  0  0  0  0
   -0.5973   -2.0987    1.9124 H   0  0  0  0  0  0  0  0  0  0  0  0
    1.7204   -3.2200    4.9325 H   0  0  0  0  0  0  0  0  0  0  0  0
   -0.1550   -1.3472   -2.2877 C   0  0  0  0  0  0  0  0  0  0  0  0
   -0.2124   -2.5615   -2.9771 C   0  0  0  0  0  0  0  0  0  0  0  0
    0.7211   -3.5674   -2.7020 C   0  0  0  0  0  0  0  0  0  0  0  0
    1.7026   -3.3712   -1.7250 C   0  0  0  0  0  0  0  0  0  0  0  0
    1.7649   -2.1611   -1.0287 C   0  0  0  0  0  0  0  0  0  0  0  0
    0.8350   -1.1434   -1.3090 C   0  0  0  0  0  0  0  0  0  0  0  0
   -0.8547   -0.5503   -2.5253 H   0  0  0  0  0  0  0  0  0  0  0  0
   -0.9665   -2.7151   -3.7434 H   0  0  0  0  0  0  0  0  0  0  0  0
    0.6841   -4.5034   -3.2515 H   0  0  0  0  0  0  0  0  0  0  0  0
    2.4279   -4.1527   -1.5195 H   0  0  0  0  0  0  0  0  0  0  0  0
    2.5351   -1.9950   -0.2812 H   0  0  0  0  0  0  0  0  0  0  0  0
    0.9291   -0.1749   -0.8221 H   0  0  0  0  0  0  0  0  0  0  0  0
    1.4583   -1.5697    3.5622 S   0  0  0  0  0  0  0  0  0  0  0  0
    2.2164   -1.1633    2.3991 O   0  0  0  0  0  0  0  0  0  0  0  0
    0.0620   -2.0422    3.4043 O   0  0  0  0  0  0  0  0  0  0  0  0
    2.2967   -2.6895    4.3498 O   0  0  0  0  0  0  0  0  0  0  0  0
    1.4109   -0.1776    4.8253 C   0  0  0  0  0  0  0  0  0  0  0  0
    0.9090   -0.6708    5.9514 F   0  0  0  0  0  0  0  0  0  0  0  0
    2.6378    0.2680    5.0095 F   0  0  0  0  0  0  0  0  0  0  0  0
    0.6266    0.7710    4.3371 F   0  0  0  0  0  0  0  0  0  0  0  0
   -0.3714   -1.8570    0.0754 H   0  0  0  0  0  0  0  0  0  0  0  0
  1  3  1  0  0  0  0
  2  1  1  0  0  0  0
  3  4  1  0  0  0  0
  6 11  2  0  0  0  0
  7  8  2  0  0  0  0
  7  6  1  0  0  0  0
  8  9  1  0  0  0  0
  9 15  1  0  0  0  0
  9 10  2  0  0  0  0
 10 16  1  0  0  0  0
 11 10  1  0  0  0  0
 11 17  1  0  0  0  0
 12  6  1  0  0  0  0
 13  7  1  0  0  0  0
 14  8  1  0  0  0  0
 18 21  1  0  0  0  0
 18 22  1  0  0  0  0
 19 18  2  0  0  0  0
 20 18  2  0  0  0  0
 21  5  1  0  0  0  0
 22 24  1  0  0  0  0
 22 23  1  0  0  0  0
 25 22  1  0  0  0  0
 26  3  1  0  0  0  0
M  RAD  2   1   2   2   3
M  END
