Coordinates from ORCA-job C6H6+HOTf+NH2N2+-scan
 OpenBabel10221816143D

 26 24  0  0  0  0  0  0  0  0999 V2000
   -2.6276   -2.4338    1.4946 N   0  0  0  0  0  0  0  0  0  0  0  0
   -3.7045   -2.7474    1.4693 N   0  0  0  0  0  0  0  0  0  0  0  0
   -1.4233   -2.0388    1.5362 N   0  0  0  0  0  0  0  0  0  0  0  0
   -0.9389   -1.9753    2.4893 H   0  0  0  0  0  0  0  0  0  0  0  0
    1.5867   -3.0491    5.2850 H   0  0  0  0  0  0  0  0  0  0  0  0
   -0.1712   -1.6322   -2.4935 C   0  0  0  0  0  0  0  0  0  0  0  0
    0.2241   -2.4490   -3.5560 C   0  0  0  0  0  0  0  0  0  0  0  0
    1.3446   -3.2787   -3.4288 C   0  0  0  0  0  0  0  0  0  0  0  0
    2.0520   -3.3104   -2.2214 C   0  0  0  0  0  0  0  0  0  0  0  0
    1.6629   -2.4953   -1.1544 C   0  0  0  0  0  0  0  0  0  0  0  0
    0.5553   -1.6461   -1.2937 C   0  0  0  0  0  0  0  0  0  0  0  0
   -1.0157   -0.9589   -2.6150 H   0  0  0  0  0  0  0  0  0  0  0  0
   -0.3282   -2.4233   -4.4907 H   0  0  0  0  0  0  0  0  0  0  0  0
    1.6603   -3.8991   -4.2620 H   0  0  0  0  0  0  0  0  0  0  0  0
    2.9200   -3.9551   -2.1189 H   0  0  0  0  0  0  0  0  0  0  0  0
    2.2385   -2.4907   -0.2329 H   0  0  0  0  0  0  0  0  0  0  0  0
    0.3396   -0.9070   -0.5192 H   0  0  0  0  0  0  0  0  0  0  0  0
    1.3365   -1.5766    3.7213 S   0  0  0  0  0  0  0  0  0  0  0  0
    1.9397   -1.4570    2.4123 O   0  0  0  0  0  0  0  0  0  0  0  0
   -0.1218   -1.8456    3.8280 O   0  0  0  0  0  0  0  0  0  0  0  0
    2.1274   -2.6962    4.5524 O   0  0  0  0  0  0  0  0  0  0  0  0
    1.6693   -0.0323    4.7452 C   0  0  0  0  0  0  0  0  0  0  0  0
    1.2894   -0.2873    5.9909 F   0  0  0  0  0  0  0  0  0  0  0  0
    2.9571    0.2392    4.6873 F   0  0  0  0  0  0  0  0  0  0  0  0
    0.9485    0.9469    4.2230 F   0  0  0  0  0  0  0  0  0  0  0  0
   -0.8980   -2.0790    0.6417 H   0  0  0  0  0  0  0  0  0  0  0  0
  1  3  1  0  0  0  0
  2  1  1  0  0  0  0
  3  4  1  0  0  0  0
  6 11  2  0  0  0  0
  7  8  2  0  0  0  0
  7  6  1  0  0  0  0
  8  9  1  0  0  0  0
  9 15  1  0  0  0  0
  9 10  2  0  0  0  0
 10 16  1  0  0  0  0
 11 10  1  0  0  0  0
 11 17  1  0  0  0  0
 12  6  1  0  0  0  0
 13  7  1  0  0  0  0
 14  8  1  0  0  0  0
 18 20  2  0  0  0  0
 18 21  1  0  0  0  0
 18 22  1  0  0  0  0
 19 18  2  0  0  0  0
 21  5  1  0  0  0  0
 22 23  1  0  0  0  0
 24 22  1  0  0  0  0
 25 22  1  0  0  0  0
 26  3  1  0  0  0  0
M  RAD  2   1   2   2   3
M  END
