Coordinates from ORCA-job C6H6+HOTf+NH2N2+-scan
 OpenBabel10221816143D

 26 24  0  0  1  0  0  0  0  0999 V2000
   -2.8766   -1.0828    6.1578 N   0  0  0  0  0  0  0  0  0  0  0  0
   -2.1393   -1.6335    5.5482 N   0  0  0  0  0  0  0  0  0  0  0  0
    0.3211   -0.8933   -0.3089 N   0  0  0  0  0  0  0  0  0  0  0  0
    0.3066   -0.9651    0.7113 H   0  0  0  0  0  0  0  0  0  0  0  0
   -0.8496   -2.6696    4.4969 H   0  0  0  0  0  0  0  0  0  0  0  0
   -0.6119   -1.5715   -2.5388 C   0  0  0  0  0  0  0  0  0  0  0  0
   -0.2477   -1.9835   -1.1480 C   0  0  1  0  0  0  0  0  0  0  0  0
    1.1266   -2.5392   -0.9805 C   0  0  0  0  0  0  0  0  0  0  0  0
    2.0885   -2.4272   -2.0269 C   0  0  0  0  0  0  0  0  0  0  0  0
    1.6933   -1.9569   -3.2480 C   0  0  0  0  0  0  0  0  0  0  0  0
    0.3248   -1.5417   -3.5095 C   0  0  0  0  0  0  0  0  0  0  0  0
   -1.6474   -1.3161   -2.7406 H   0  0  0  0  0  0  0  0  0  0  0  0
   -1.0515   -2.4904   -0.6141 H   0  0  0  0  0  0  0  0  0  0  0  0
    1.3557   -3.0417   -0.0452 H   0  0  0  0  0  0  0  0  0  0  0  0
    3.1047   -2.7619   -1.8502 H   0  0  0  0  0  0  0  0  0  0  0  0
    2.4100   -1.9093   -4.0632 H   0  0  0  0  0  0  0  0  0  0  0  0
    0.0606   -1.2391   -4.5178 H   0  0  0  0  0  0  0  0  0  0  0  0
    0.8042   -2.5257    3.1080 S   0  0  0  0  0  0  0  0  0  0  0  0
    1.3686   -3.4940    2.1822 O   0  0  0  0  0  0  0  0  0  0  0  0
    0.2012   -1.2876    2.5929 O   0  0  0  0  0  0  0  0  0  0  0  0
   -0.2326   -3.2928    4.0499 O   0  0  0  0  0  0  0  0  0  0  0  0
    2.1227   -2.0313    4.3427 C   0  0  0  0  0  0  0  0  0  0  0  0
    1.5387   -1.3281    5.3094 F   0  0  0  0  0  0  0  0  0  0  0  0
    2.6894   -3.1183    4.8351 F   0  0  0  0  0  0  0  0  0  0  0  0
    3.0151   -1.2857    3.7023 F   0  0  0  0  0  0  0  0  0  0  0  0
    0.7474   -0.0918   -0.7545 H   0  0  0  0  0  0  0  0  0  0  0  0
  2  1  3  0  0  0  0
  3  4  1  0  0  0  0
  6  7  1  0  0  0  0
  7  8  1  0  0  0  0
  7 13  1  1  0  0  0
  7  3  1  0  0  0  0
  8 14  1  0  0  0  0
  9 15  1  0  0  0  0
  9  8  1  0  0  0  0
 10  9  2  0  0  0  0
 11 10  1  0  0  0  0
 11  6  2  0  0  0  0
 12  6  1  0  0  0  0
 16 10  1  0  0  0  0
 17 11  1  0  0  0  0
 18 21  1  0  0  0  0
 18 22  1  0  0  0  0
 19 18  2  0  0  0  0
 20 18  2  0  0  0  0
 21  5  1  0  0  0  0
 22 24  1  0  0  0  0
 22 23  1  0  0  0  0
 25 22  1  0  0  0  0
 26  3  1  0  0  0  0
M  RAD  1   8   2
M  END
