Coordinates from ORCA-job C6H6+HOTf+NH2N2+-scan
 OpenBabel10221816143D

 26 24  0  0  0  0  0  0  0  0999 V2000
   -0.0845    0.8487    1.2154 N   0  0  0  0  0  0  0  0  0  0  0  0
   -0.2633    1.8119    1.7616 N   0  0  0  0  0  0  0  0  0  0  0  0
    0.3738   -0.1452    0.4757 N   0  0  0  0  0  0  0  0  0  0  0  0
    0.3747   -1.0191    1.0505 H   0  0  0  0  0  0  0  0  0  0  0  0
   -1.3425   -3.6572    3.6740 H   0  0  0  0  0  0  0  0  0  0  0  0
    0.6973   -3.2414   -1.1379 C   0  0  0  0  0  0  0  0  0  0  0  0
    1.6610   -2.3212   -0.7059 C   0  0  0  0  0  0  0  0  0  0  0  0
    1.6590   -1.0165   -1.2105 C   0  0  0  0  0  0  0  0  0  0  0  0
    0.7575   -0.6681   -2.2359 C   0  0  0  0  0  0  0  0  0  0  0  0
   -0.2113   -1.5870   -2.6562 C   0  0  0  0  0  0  0  0  0  0  0  0
   -0.2474   -2.8721   -2.0989 C   0  0  0  0  0  0  0  0  0  0  0  0
    0.6979   -4.2480   -0.7306 H   0  0  0  0  0  0  0  0  0  0  0  0
    2.3987   -2.6219    0.0316 H   0  0  0  0  0  0  0  0  0  0  0  0
    2.4375   -0.3191   -0.9180 H   0  0  0  0  0  0  0  0  0  0  0  0
    0.8137    0.3146   -2.6982 H   0  0  0  0  0  0  0  0  0  0  0  0
   -0.9173   -1.3119   -3.4343 H   0  0  0  0  0  0  0  0  0  0  0  0
   -0.9929   -3.5869   -2.4335 H   0  0  0  0  0  0  0  0  0  0  0  0
    0.6711   -3.2149    3.0203 S   0  0  0  0  0  0  0  0  0  0  0  0
    1.6032   -3.9752    2.2203 O   0  0  0  0  0  0  0  0  0  0  0  0
    0.1470   -1.9127    2.5552 O   0  0  0  0  0  0  0  0  0  0  0  0
   -0.5702   -4.1740    3.3776 O   0  0  0  0  0  0  0  0  0  0  0  0
    1.3977   -2.9029    4.7235 C   0  0  0  0  0  0  0  0  0  0  0  0
    0.4224   -2.4407    5.5023 F   0  0  0  0  0  0  0  0  0  0  0  0
    1.8820   -4.0328    5.1985 F   0  0  0  0  0  0  0  0  0  0  0  0
    2.3534   -1.9942    4.5887 F   0  0  0  0  0  0  0  0  0  0  0  0
   -0.0959   -0.1901   -0.4450 H   0  0  0  0  0  0  0  0  0  0  0  0
  1  2  1  0  0  0  0
  3  4  1  0  0  0  0
  3  1  1  0  0  0  0
  6 12  1  0  0  0  0
  6  7  1  0  0  0  0
  7 13  1  0  0  0  0
  8 14  1  0  0  0  0
  8  7  2  0  0  0  0
  9  8  1  0  0  0  0
 10  9  2  0  0  0  0
 10 11  1  0  0  0  0
 11  6  2  0  0  0  0
 15  9  1  0  0  0  0
 16 10  1  0  0  0  0
 17 11  1  0  0  0  0
 18 21  1  0  0  0  0
 18 22  1  0  0  0  0
 19 18  2  0  0  0  0
 20 18  2  0  0  0  0
 21  5  1  0  0  0  0
 22 24  1  0  0  0  0
 22 23  1  0  0  0  0
 25 22  1  0  0  0  0
 26  3  1  0  0  0  0
M  RAD  2   1   2   2   3
M  END
