Coordinates from ORCA-job C6H6+HOTf+NH2N2+-scan
 OpenBabel10221816143D

 26 24  0  0  0  0  0  0  0  0999 V2000
   -1.0002    0.4425    0.9290 N   0  0  0  0  0  0  0  0  0  0  0  0
   -1.6973    1.3136    1.0695 N   0  0  0  0  0  0  0  0  0  0  0  0
   -0.1755   -0.4919    0.6600 N   0  0  0  0  0  0  0  0  0  0  0  0
   -0.0077   -1.1553    1.4481 H   0  0  0  0  0  0  0  0  0  0  0  0
   -0.6539   -3.8920    4.4101 H   0  0  0  0  0  0  0  0  0  0  0  0
   -0.0722   -3.2341   -1.9220 C   0  0  0  0  0  0  0  0  0  0  0  0
    0.6921   -2.9091   -0.8020 C   0  0  0  0  0  0  0  0  0  0  0  0
    1.3260   -1.6570   -0.7261 C   0  0  0  0  0  0  0  0  0  0  0  0
    1.2806   -0.7845   -1.8342 C   0  0  0  0  0  0  0  0  0  0  0  0
    0.5045   -1.1155   -2.9518 C   0  0  0  0  0  0  0  0  0  0  0  0
   -0.1766   -2.3341   -2.9902 C   0  0  0  0  0  0  0  0  0  0  0  0
   -0.5729   -4.1961   -1.9751 H   0  0  0  0  0  0  0  0  0  0  0  0
    0.8049   -3.6170    0.0131 H   0  0  0  0  0  0  0  0  0  0  0  0
    1.9881   -1.4361    0.1062 H   0  0  0  0  0  0  0  0  0  0  0  0
    1.8350    0.1502   -1.8097 H   0  0  0  0  0  0  0  0  0  0  0  0
    0.4571   -0.4360   -3.7972 H   0  0  0  0  0  0  0  0  0  0  0  0
   -0.7717   -2.5935   -3.8605 H   0  0  0  0  0  0  0  0  0  0  0  0
    1.0123   -3.0098    3.3541 S   0  0  0  0  0  0  0  0  0  0  0  0
    1.9191   -3.5626    2.3719 O   0  0  0  0  0  0  0  0  0  0  0  0
    0.0833   -1.9208    2.9825 O   0  0  0  0  0  0  0  0  0  0  0  0
    0.1666   -4.2174    3.9939 O   0  0  0  0  0  0  0  0  0  0  0  0
    1.9796   -2.4036    4.8463 C   0  0  0  0  0  0  0  0  0  0  0  0
    1.1078   -2.1276    5.8108 F   0  0  0  0  0  0  0  0  0  0  0  0
    2.8178   -3.3479    5.2248 F   0  0  0  0  0  0  0  0  0  0  0  0
    2.6298   -1.3089    4.4778 F   0  0  0  0  0  0  0  0  0  0  0  0
    0.1461   -0.6336   -0.3387 H   0  0  0  0  0  0  0  0  0  0  0  0
  1  2  1  0  0  0  0
  3  1  1  0  0  0  0
  3  4  1  0  0  0  0
  6  7  2  0  0  0  0
  7  8  1  0  0  0  0
  7 13  1  0  0  0  0
  8 14  1  0  0  0  0
  9 15  1  0  0  0  0
  9  8  2  0  0  0  0
 10  9  1  0  0  0  0
 11 10  2  0  0  0  0
 11  6  1  0  0  0  0
 12  6  1  0  0  0  0
 16 10  1  0  0  0  0
 17 11  1  0  0  0  0
 18 21  1  0  0  0  0
 18 22  1  0  0  0  0
 19 18  2  0  0  0  0
 20 18  2  0  0  0  0
 21  5  1  0  0  0  0
 22 24  1  0  0  0  0
 22 23  1  0  0  0  0
 25 22  1  0  0  0  0
 26  3  1  0  0  0  0
M  RAD  2   1   2   2   3
M  END
