Coordinates from ORCA-job C6H6+HOTf+NH2N2+-scan
 OpenBabel10221816143D

 26 24  0  0  0  0  0  0  0  0999 V2000
   -2.0080   -2.4990    0.3999 N   0  0  0  0  0  0  0  0  0  0  0  0
   -3.0257   -2.9325    0.2042 N   0  0  0  0  0  0  0  0  0  0  0  0
   -0.8667   -2.0075    0.6220 N   0  0  0  0  0  0  0  0  0  0  0  0
   -0.4854   -2.0595    1.6080 H   0  0  0  0  0  0  0  0  0  0  0  0
    1.5094   -3.5415    4.6988 H   0  0  0  0  0  0  0  0  0  0  0  0
   -0.2422   -1.4039   -2.4486 C   0  0  0  0  0  0  0  0  0  0  0  0
   -0.3214   -2.7999   -2.5214 C   0  0  0  0  0  0  0  0  0  0  0  0
    0.6372   -3.5870   -1.8731 C   0  0  0  0  0  0  0  0  0  0  0  0
    1.6884   -2.9885   -1.1718 C   0  0  0  0  0  0  0  0  0  0  0  0
    1.7717   -1.5940   -1.0942 C   0  0  0  0  0  0  0  0  0  0  0  0
    0.7990   -0.7998   -1.7238 C   0  0  0  0  0  0  0  0  0  0  0  0
   -0.9752   -0.7858   -2.9594 H   0  0  0  0  0  0  0  0  0  0  0  0
   -1.1163   -3.2699   -3.0936 H   0  0  0  0  0  0  0  0  0  0  0  0
    0.5792   -4.6699   -1.9389 H   0  0  0  0  0  0  0  0  0  0  0  0
    2.4427   -3.6032   -0.6900 H   0  0  0  0  0  0  0  0  0  0  0  0
    2.5820   -1.1257   -0.5441 H   0  0  0  0  0  0  0  0  0  0  0  0
    0.8675    0.2834   -1.6749 H   0  0  0  0  0  0  0  0  0  0  0  0
    1.5266   -1.7980    3.4209 S   0  0  0  0  0  0  0  0  0  0  0  0
    2.4252   -1.3936    2.3637 O   0  0  0  0  0  0  0  0  0  0  0  0
    0.1112   -2.1180    3.1159 O   0  0  0  0  0  0  0  0  0  0  0  0
    2.1804   -3.0458    4.1920 O   0  0  0  0  0  0  0  0  0  0  0  0
    1.4887   -0.4971    4.7775 C   0  0  0  0  0  0  0  0  0  0  0  0
    0.8482   -1.0172    5.8186 F   0  0  0  0  0  0  0  0  0  0  0  0
    2.7283   -0.1809    5.0956 F   0  0  0  0  0  0  0  0  0  0  0  0
    0.8359    0.5520    4.3013 F   0  0  0  0  0  0  0  0  0  0  0  0
   -0.3583   -1.5952   -0.1943 H   0  0  0  0  0  0  0  0  0  0  0  0
  1  3  1  0  0  0  0
  2  1  1  0  0  0  0
  3  4  1  0  0  0  0
  6 11  1  0  0  0  0
  7  6  2  0  0  0  0
  7  8  1  0  0  0  0
  8  9  2  0  0  0  0
  9 10  1  0  0  0  0
  9 15  1  0  0  0  0
 10 16  1  0  0  0  0
 11 17  1  0  0  0  0
 11 10  2  0  0  0  0
 12  6  1  0  0  0  0
 13  7  1  0  0  0  0
 14  8  1  0  0  0  0
 18 21  1  0  0  0  0
 18 22  1  0  0  0  0
 19 18  2  0  0  0  0
 20 18  2  0  0  0  0
 21  5  1  0  0  0  0
 22 24  1  0  0  0  0
 22 23  1  0  0  0  0
 25 22  1  0  0  0  0
 26  3  1  0  0  0  0
M  RAD  2   1   2   2   3
M  END
