Coordinates from ORCA-job C6H6+HOTf+NH2N2+-scan
 OpenBabel10221816143D

 26 24  0  0  0  0  0  0  0  0999 V2000
   -2.2869   -2.6297    1.0071 N   0  0  0  0  0  0  0  0  0  0  0  0
   -3.3127   -3.0587    0.8489 N   0  0  0  0  0  0  0  0  0  0  0  0
   -1.1435   -2.1085    1.1587 N   0  0  0  0  0  0  0  0  0  0  0  0
   -0.7399   -2.0748    2.1384 H   0  0  0  0  0  0  0  0  0  0  0  0
    1.7159   -3.0828    5.0832 H   0  0  0  0  0  0  0  0  0  0  0  0
   -0.1300   -1.4197   -2.2739 C   0  0  0  0  0  0  0  0  0  0  0  0
   -0.0213   -2.4258   -3.2364 C   0  0  0  0  0  0  0  0  0  0  0  0
    0.9514   -3.4238   -3.1018 C   0  0  0  0  0  0  0  0  0  0  0  0
    1.7963   -3.4356   -1.9863 C   0  0  0  0  0  0  0  0  0  0  0  0
    1.6940   -2.4331   -1.0189 C   0  0  0  0  0  0  0  0  0  0  0  0
    0.7337   -1.4155   -1.1636 C   0  0  0  0  0  0  0  0  0  0  0  0
   -0.8526   -0.6184   -2.4046 H   0  0  0  0  0  0  0  0  0  0  0  0
   -0.6753   -2.4190   -4.1032 H   0  0  0  0  0  0  0  0  0  0  0  0
    1.0471   -4.1927   -3.8626 H   0  0  0  0  0  0  0  0  0  0  0  0
    2.5490   -4.2116   -1.8842 H   0  0  0  0  0  0  0  0  0  0  0  0
    2.3744   -2.4144   -0.1722 H   0  0  0  0  0  0  0  0  0  0  0  0
    0.7484   -0.5606   -0.4878 H   0  0  0  0  0  0  0  0  0  0  0  0
    1.4069   -1.5244    3.6182 S   0  0  0  0  0  0  0  0  0  0  0  0
    2.0920   -1.2292    2.3782 O   0  0  0  0  0  0  0  0  0  0  0  0
   -0.0100   -1.9613    3.5862 O   0  0  0  0  0  0  0  0  0  0  0  0
    2.2655   -2.6114    4.4283 O   0  0  0  0  0  0  0  0  0  0  0  0
    1.4860   -0.0424    4.7738 C   0  0  0  0  0  0  0  0  0  0  0  0
    1.0479   -0.4352    5.9638 F   0  0  0  0  0  0  0  0  0  0  0  0
    2.7351    0.3728    4.8423 F   0  0  0  0  0  0  0  0  0  0  0  0
    0.6982    0.8935    4.2676 F   0  0  0  0  0  0  0  0  0  0  0  0
   -0.5468   -2.0157    0.2908 H   0  0  0  0  0  0  0  0  0  0  0  0
  1  3  1  0  0  0  0
  2  1  1  0  0  0  0
  3  4  1  0  0  0  0
  6 11  2  0  0  0  0
  7  8  2  0  0  0  0
  7  6  1  0  0  0  0
  8  9  1  0  0  0  0
  9 15  1  0  0  0  0
  9 10  2  0  0  0  0
 10 16  1  0  0  0  0
 11 10  1  0  0  0  0
 11 17  1  0  0  0  0
 12  6  1  0  0  0  0
 13  7  1  0  0  0  0
 14  8  1  0  0  0  0
 18 21  1  0  0  0  0
 18 22  1  0  0  0  0
 19 18  2  0  0  0  0
 20 18  2  0  0  0  0
 21  5  1  0  0  0  0
 22 24  1  0  0  0  0
 22 23  1  0  0  0  0
 25 22  1  0  0  0  0
 26  3  1  0  0  0  0
M  RAD  2   1   2   2   3
M  END
