Coordinates from ORCA-job C6H6+HOTf+NH2N2+-scan
 OpenBabel10221816143D

 26 24  0  0  0  0  0  0  0  0999 V2000
   -0.8076    0.4701    0.6920 N   0  0  0  0  0  0  0  0  0  0  0  0
   -1.3947    1.4195    0.5525 N   0  0  0  0  0  0  0  0  0  0  0  0
   -0.1392   -0.5974    0.7759 N   0  0  0  0  0  0  0  0  0  0  0  0
   -0.1069   -1.0693    1.7148 H   0  0  0  0  0  0  0  0  0  0  0  0
   -0.8408   -3.8684    4.4608 H   0  0  0  0  0  0  0  0  0  0  0  0
    0.0818   -3.2440   -1.8419 C   0  0  0  0  0  0  0  0  0  0  0  0
    1.1099   -2.8652   -0.9785 C   0  0  0  0  0  0  0  0  0  0  0  0
    1.6573   -1.5703   -1.0693 C   0  0  0  0  0  0  0  0  0  0  0  0
    1.2112   -0.6870   -2.0721 C   0  0  0  0  0  0  0  0  0  0  0  0
    0.1771   -1.0726   -2.9288 C   0  0  0  0  0  0  0  0  0  0  0  0
   -0.3841   -2.3485   -2.8116 C   0  0  0  0  0  0  0  0  0  0  0  0
   -0.3471   -4.2390   -1.7721 H   0  0  0  0  0  0  0  0  0  0  0  0
    1.4824   -3.5541   -0.2264 H   0  0  0  0  0  0  0  0  0  0  0  0
    2.5125   -1.3022   -0.4522 H   0  0  0  0  0  0  0  0  0  0  0  0
    1.6722    0.2919   -2.1751 H   0  0  0  0  0  0  0  0  0  0  0  0
   -0.1732   -0.3923   -3.6991 H   0  0  0  0  0  0  0  0  0  0  0  0
   -1.1805   -2.6502   -3.4857 H   0  0  0  0  0  0  0  0  0  0  0  0
    0.8534   -2.9701    3.4658 S   0  0  0  0  0  0  0  0  0  0  0  0
    1.7197   -3.4693    2.4203 O   0  0  0  0  0  0  0  0  0  0  0  0
   -0.0285   -1.8091    3.2116 O   0  0  0  0  0  0  0  0  0  0  0  0
   -0.0398   -4.1914    4.0061 O   0  0  0  0  0  0  0  0  0  0  0  0
    1.8662   -2.5464    4.9909 C   0  0  0  0  0  0  0  0  0  0  0  0
    1.0201   -2.3186    5.9892 F   0  0  0  0  0  0  0  0  0  0  0  0
    2.6612   -3.5610    5.2684 F   0  0  0  0  0  0  0  0  0  0  0  0
    2.5650   -1.4563    4.7110 F   0  0  0  0  0  0  0  0  0  0  0  0
    0.4754   -0.8768   -0.0561 H   0  0  0  0  0  0  0  0  0  0  0  0
  1  3  1  0  0  0  0
  2  1  1  0  0  0  0
  3  4  1  0  0  0  0
  6 12  1  0  0  0  0
  6  7  2  0  0  0  0
  7 13  1  0  0  0  0
  8  7  1  0  0  0  0
  8 14  1  0  0  0  0
  9  8  2  0  0  0  0
 10 11  2  0  0  0  0
 10  9  1  0  0  0  0
 11  6  1  0  0  0  0
 15  9  1  0  0  0  0
 16 10  1  0  0  0  0
 17 11  1  0  0  0  0
 18 21  1  0  0  0  0
 18 22  1  0  0  0  0
 19 18  2  0  0  0  0
 20 18  2  0  0  0  0
 21  5  1  0  0  0  0
 22 24  1  0  0  0  0
 22 23  1  0  0  0  0
 25 22  1  0  0  0  0
 26  3  1  0  0  0  0
M  RAD  2   1   2   2   3
M  END
