Coordinates from ORCA-job C6H6+HOTf+NH2N2+-scan
 OpenBabel10221816143D

 26 24  0  0  0  0  0  0  0  0999 V2000
   -2.2217   -2.6454    0.9083 N   0  0  0  0  0  0  0  0  0  0  0  0
   -3.2401   -3.0841    0.7290 N   0  0  0  0  0  0  0  0  0  0  0  0
   -1.0862   -2.1147    1.0804 N   0  0  0  0  0  0  0  0  0  0  0  0
   -0.6938   -2.0921    2.0637 H   0  0  0  0  0  0  0  0  0  0  0  0
    1.7384   -3.1118    5.0313 H   0  0  0  0  0  0  0  0  0  0  0  0
   -0.1262   -1.3835   -2.2585 C   0  0  0  0  0  0  0  0  0  0  0  0
   -0.0807   -2.4500   -3.1591 C   0  0  0  0  0  0  0  0  0  0  0  0
    0.8677   -3.4663   -2.9937 C   0  0  0  0  0  0  0  0  0  0  0  0
    1.7552   -3.4335   -1.9127 C   0  0  0  0  0  0  0  0  0  0  0  0
    1.7155   -2.3709   -1.0068 C   0  0  0  0  0  0  0  0  0  0  0  0
    0.7759   -1.3383   -1.1797 C   0  0  0  0  0  0  0  0  0  0  0  0
   -0.8324   -0.5715   -2.4106 H   0  0  0  0  0  0  0  0  0  0  0  0
   -0.7651   -2.4780   -4.0017 H   0  0  0  0  0  0  0  0  0  0  0  0
    0.9129   -4.2844   -3.7065 H   0  0  0  0  0  0  0  0  0  0  0  0
    2.4900   -4.2236   -1.7898 H   0  0  0  0  0  0  0  0  0  0  0  0
    2.4233   -2.3214   -0.1842 H   0  0  0  0  0  0  0  0  0  0  0  0
    0.8234   -0.4540   -0.5455 H   0  0  0  0  0  0  0  0  0  0  0  0
    1.4239   -1.5280    3.5952 S   0  0  0  0  0  0  0  0  0  0  0  0
    2.1264   -1.1907    2.3758 O   0  0  0  0  0  0  0  0  0  0  0  0
    0.0177   -1.9930    3.5275 O   0  0  0  0  0  0  0  0  0  0  0  0
    2.2903   -2.6149    4.3976 O   0  0  0  0  0  0  0  0  0  0  0  0
    1.4510   -0.0713    4.7845 C   0  0  0  0  0  0  0  0  0  0  0  0
    0.9992   -0.4994    5.9572 F   0  0  0  0  0  0  0  0  0  0  0  0
    2.6897    0.3678    4.8860 F   0  0  0  0  0  0  0  0  0  0  0  0
    0.6534    0.8598    4.2845 F   0  0  0  0  0  0  0  0  0  0  0  0
   -0.4851   -1.9847    0.2179 H   0  0  0  0  0  0  0  0  0  0  0  0
  1  3  1  0  0  0  0
  2  1  1  0  0  0  0
  3  4  1  0  0  0  0
  6 11  2  0  0  0  0
  7  8  2  0  0  0  0
  7  6  1  0  0  0  0
  8  9  1  0  0  0  0
  9 15  1  0  0  0  0
  9 10  2  0  0  0  0
 10 16  1  0  0  0  0
 11 10  1  0  0  0  0
 11 17  1  0  0  0  0
 12  6  1  0  0  0  0
 13  7  1  0  0  0  0
 14  8  1  0  0  0  0
 18 21  1  0  0  0  0
 18 22  1  0  0  0  0
 19 18  2  0  0  0  0
 20 18  2  0  0  0  0
 21  5  1  0  0  0  0
 22 24  1  0  0  0  0
 22 23  1  0  0  0  0
 25 22  1  0  0  0  0
 26  3  1  0  0  0  0
M  RAD  2   1   2   2   3
M  END
