Coordinates from ORCA-job C6H6+HOTf+NH2N2+-scan
 OpenBabel10221816143D

 26 24  0  0  0  0  0  0  0  0999 V2000
   -2.6117   -2.4382    1.4714 N   0  0  0  0  0  0  0  0  0  0  0  0
   -3.6874   -2.7559    1.4409 N   0  0  0  0  0  0  0  0  0  0  0  0
   -1.4092   -2.0390    1.5171 N   0  0  0  0  0  0  0  0  0  0  0  0
   -0.9276   -1.9786    2.4712 H   0  0  0  0  0  0  0  0  0  0  0  0
    1.5959   -3.0543    5.2709 H   0  0  0  0  0  0  0  0  0  0  0  0
   -0.1728   -1.6255   -2.4852 C   0  0  0  0  0  0  0  0  0  0  0  0
    0.2133   -2.4517   -3.5438 C   0  0  0  0  0  0  0  0  0  0  0  0
    1.3290   -3.2878   -3.4152 C   0  0  0  0  0  0  0  0  0  0  0  0
    2.0402   -3.3168   -2.2100 C   0  0  0  0  0  0  0  0  0  0  0  0
    1.6604   -2.4923   -1.1469 C   0  0  0  0  0  0  0  0  0  0  0  0
    0.5579   -1.6363   -1.2876 C   0  0  0  0  0  0  0  0  0  0  0  0
   -1.0128   -0.9468   -2.6083 H   0  0  0  0  0  0  0  0  0  0  0  0
   -0.3420   -2.4282   -4.4767 H   0  0  0  0  0  0  0  0  0  0  0  0
    1.6379   -3.9152   -4.2457 H   0  0  0  0  0  0  0  0  0  0  0  0
    2.9043   -3.9665   -2.1064 H   0  0  0  0  0  0  0  0  0  0  0  0
    2.2395   -2.4853   -0.2276 H   0  0  0  0  0  0  0  0  0  0  0  0
    0.3516   -0.8888   -0.5187 H   0  0  0  0  0  0  0  0  0  0  0  0
    1.3423   -1.5727    3.7165 S   0  0  0  0  0  0  0  0  0  0  0  0
    1.9503   -1.4400    2.4110 O   0  0  0  0  0  0  0  0  0  0  0  0
   -0.1145   -1.8520    3.8155 O   0  0  0  0  0  0  0  0  0  0  0  0
    2.1375   -2.6926    4.5432 O   0  0  0  0  0  0  0  0  0  0  0  0
    1.6610   -0.0334    4.7521 C   0  0  0  0  0  0  0  0  0  0  0  0
    1.2777   -0.2992    5.9946 F   0  0  0  0  0  0  0  0  0  0  0  0
    2.9472    0.2469    4.7014 F   0  0  0  0  0  0  0  0  0  0  0  0
    0.9360    0.9448    4.2337 F   0  0  0  0  0  0  0  0  0  0  0  0
   -0.8814   -2.0728    0.6228 H   0  0  0  0  0  0  0  0  0  0  0  0
  1  3  1  0  0  0  0
  2  1  1  0  0  0  0
  3  4  1  0  0  0  0
  6 11  2  0  0  0  0
  7  8  2  0  0  0  0
  7  6  1  0  0  0  0
  8  9  1  0  0  0  0
  9 15  1  0  0  0  0
  9 10  2  0  0  0  0
 10 16  1  0  0  0  0
 11 10  1  0  0  0  0
 11 17  1  0  0  0  0
 12  6  1  0  0  0  0
 13  7  1  0  0  0  0
 14  8  1  0  0  0  0
 18 20  2  0  0  0  0
 18 21  1  0  0  0  0
 18 22  1  0  0  0  0
 19 18  2  0  0  0  0
 21  5  1  0  0  0  0
 22 23  1  0  0  0  0
 24 22  1  0  0  0  0
 25 22  1  0  0  0  0
 26  3  1  0  0  0  0
M  RAD  2   1   2   2   3
M  END
