Coordinates from ORCA-job C6H6+HOTf+NH2N2+-scan
 OpenBabel10221816143D

 26 24  0  0  0  0  0  0  0  0999 V2000
   -2.0883   -2.4308    0.5748 N   0  0  0  0  0  0  0  0  0  0  0  0
   -3.1293   -2.8054    0.3790 N   0  0  0  0  0  0  0  0  0  0  0  0
   -0.9219   -1.9913    0.7784 N   0  0  0  0  0  0  0  0  0  0  0  0
   -0.5344   -2.0404    1.7622 H   0  0  0  0  0  0  0  0  0  0  0  0
    1.6652   -3.4066    4.7651 H   0  0  0  0  0  0  0  0  0  0  0  0
   -0.2236   -1.4153   -2.3903 C   0  0  0  0  0  0  0  0  0  0  0  0
   -0.2611   -2.7558   -2.7873 C   0  0  0  0  0  0  0  0  0  0  0  0
    0.7158   -3.6478   -2.3305 C   0  0  0  0  0  0  0  0  0  0  0  0
    1.7263   -3.2080   -1.4698 C   0  0  0  0  0  0  0  0  0  0  0  0
    1.7683   -1.8702   -1.0650 C   0  0  0  0  0  0  0  0  0  0  0  0
    0.7899   -0.9700   -1.5228 C   0  0  0  0  0  0  0  0  0  0  0  0
   -0.9614   -0.7120   -2.7670 H   0  0  0  0  0  0  0  0  0  0  0  0
   -1.0346   -3.0989   -3.4683 H   0  0  0  0  0  0  0  0  0  0  0  0
    0.6928   -4.6849   -2.6526 H   0  0  0  0  0  0  0  0  0  0  0  0
    2.4875   -3.9020   -1.1262 H   0  0  0  0  0  0  0  0  0  0  0  0
    2.5543   -1.5227   -0.4013 H   0  0  0  0  0  0  0  0  0  0  0  0
    0.8469    0.0801   -1.2469 H   0  0  0  0  0  0  0  0  0  0  0  0
    1.5054   -1.6605    3.5016 S   0  0  0  0  0  0  0  0  0  0  0  0
    2.3239   -1.1951    2.4045 O   0  0  0  0  0  0  0  0  0  0  0  0
    0.1043   -2.0799    3.2571 O   0  0  0  0  0  0  0  0  0  0  0  0
    2.2789   -2.8579    4.2405 O   0  0  0  0  0  0  0  0  0  0  0  0
    1.4388   -0.3622    4.8597 C   0  0  0  0  0  0  0  0  0  0  0  0
    0.8795   -0.9215    5.9267 F   0  0  0  0  0  0  0  0  0  0  0  0
    2.6670    0.0367    5.1243 F   0  0  0  0  0  0  0  0  0  0  0  0
    0.6975    0.6398    4.4121 F   0  0  0  0  0  0  0  0  0  0  0  0
   -0.3651   -1.6954   -0.0680 H   0  0  0  0  0  0  0  0  0  0  0  0
  1  3  1  0  0  0  0
  2  1  1  0  0  0  0
  3  4  1  0  0  0  0
  6 11  1  0  0  0  0
  7  6  2  0  0  0  0
  7  8  1  0  0  0  0
  8  9  2  0  0  0  0
  9 15  1  0  0  0  0
  9 10  1  0  0  0  0
 10 16  1  0  0  0  0
 11 17  1  0  0  0  0
 11 10  2  0  0  0  0
 12  6  1  0  0  0  0
 13  7  1  0  0  0  0
 14  8  1  0  0  0  0
 18 21  1  0  0  0  0
 18 22  1  0  0  0  0
 19 18  2  0  0  0  0
 20 18  2  0  0  0  0
 21  5  1  0  0  0  0
 22 24  1  0  0  0  0
 22 23  1  0  0  0  0
 25 22  1  0  0  0  0
 26  3  1  0  0  0  0
M  RAD  2   1   2   2   3
M  END
