Coordinates from ORCA-job C6H6+HOTf+NH2N2+-scan
 OpenBabel10221816143D

 26 24  0  0  0  0  0  0  0  0999 V2000
   -3.2472   -2.9754    2.4014 N   0  0  0  0  0  0  0  0  0  0  0  0
   -4.3583   -2.9129    2.5363 N   0  0  0  0  0  0  0  0  0  0  0  0
   -1.9823   -3.0578    2.3170 N   0  0  0  0  0  0  0  0  0  0  0  0
   -1.3735   -2.4880    3.0105 H   0  0  0  0  0  0  0  0  0  0  0  0
    1.2756   -1.9688    5.7762 H   0  0  0  0  0  0  0  0  0  0  0  0
    0.6132   -0.9541   -2.2190 C   0  0  0  0  0  0  0  0  0  0  0  0
    0.8388   -1.5976   -3.4386 C   0  0  0  0  0  0  0  0  0  0  0  0
    1.5514   -2.7993   -3.4748 C   0  0  0  0  0  0  0  0  0  0  0  0
    2.0320   -3.3617   -2.2891 C   0  0  0  0  0  0  0  0  0  0  0  0
    1.8077   -2.7194   -1.0679 C   0  0  0  0  0  0  0  0  0  0  0  0
    1.1000   -1.5143   -1.0345 C   0  0  0  0  0  0  0  0  0  0  0  0
    0.0724   -0.0116   -2.1959 H   0  0  0  0  0  0  0  0  0  0  0  0
    0.4679   -1.1582   -4.3603 H   0  0  0  0  0  0  0  0  0  0  0  0
    1.7334   -3.2948   -4.4241 H   0  0  0  0  0  0  0  0  0  0  0  0
    2.5903   -4.2934   -2.3178 H   0  0  0  0  0  0  0  0  0  0  0  0
    2.1993   -3.1471   -0.1484 H   0  0  0  0  0  0  0  0  0  0  0  0
    0.9530   -0.9945   -0.0898 H   0  0  0  0  0  0  0  0  0  0  0  0
    1.0301   -1.8447    3.6307 S   0  0  0  0  0  0  0  0  0  0  0  0
    1.4520   -2.7275    2.5668 O   0  0  0  0  0  0  0  0  0  0  0  0
   -0.4274   -1.6990    3.9088 O   0  0  0  0  0  0  0  0  0  0  0  0
    1.7700   -2.2625    4.9865 O   0  0  0  0  0  0  0  0  0  0  0  0
    1.6888   -0.1038    3.3443 C   0  0  0  0  0  0  0  0  0  0  0  0
    1.4456    0.6059    4.4374 F   0  0  0  0  0  0  0  0  0  0  0  0
    2.9795   -0.1792    3.0998 F   0  0  0  0  0  0  0  0  0  0  0  0
    1.0304    0.3916    2.3055 F   0  0  0  0  0  0  0  0  0  0  0  0
   -1.6201   -3.4100    1.4293 H   0  0  0  0  0  0  0  0  0  0  0  0
  1  2  1  0  0  0  0
  3  1  1  0  0  0  0
  3  4  1  0  0  0  0
  6 12  1  0  0  0  0
  6 11  2  0  0  0  0
  7  6  1  0  0  0  0
  8  7  2  0  0  0  0
  8  9  1  0  0  0  0
  9 10  2  0  0  0  0
 10 11  1  0  0  0  0
 10 16  1  0  0  0  0
 11 17  1  0  0  0  0
 13  7  1  0  0  0  0
 14  8  1  0  0  0  0
 15  9  1  0  0  0  0
 18 20  2  0  0  0  0
 18 21  1  0  0  0  0
 19 18  2  0  0  0  0
 21  5  1  0  0  0  0
 22 18  1  0  0  0  0
 22 23  1  0  0  0  0
 24 22  1  0  0  0  0
 25 22  1  0  0  0  0
 26  3  1  0  0  0  0
M  RAD  2   1   2   2   3
M  END
