Coordinates from ORCA-job C6H6+HOTf+NH2N2+-scan
 OpenBabel10221816143D

 26 24  0  0  0  0  0  0  0  0999 V2000
   -2.0219   -2.4724    0.4729 N   0  0  0  0  0  0  0  0  0  0  0  0
   -3.0506   -2.8750    0.2687 N   0  0  0  0  0  0  0  0  0  0  0  0
   -0.8713   -2.0041    0.6993 N   0  0  0  0  0  0  0  0  0  0  0  0
   -0.4948   -2.0606    1.6871 H   0  0  0  0  0  0  0  0  0  0  0  0
    1.6376   -3.4644    4.7212 H   0  0  0  0  0  0  0  0  0  0  0  0
   -0.2301   -1.3918   -2.4105 C   0  0  0  0  0  0  0  0  0  0  0  0
   -0.3168   -2.7682   -2.6485 C   0  0  0  0  0  0  0  0  0  0  0  0
    0.6443   -3.6326   -2.1111 C   0  0  0  0  0  0  0  0  0  0  0  0
    1.6940   -3.1273   -1.3377 C   0  0  0  0  0  0  0  0  0  0  0  0
    1.7842   -1.7527   -1.0922 C   0  0  0  0  0  0  0  0  0  0  0  0
    0.8176   -0.8823   -1.6242 C   0  0  0  0  0  0  0  0  0  0  0  0
   -0.9601   -0.7139   -2.8443 H   0  0  0  0  0  0  0  0  0  0  0  0
   -1.1172   -3.1628   -3.2679 H   0  0  0  0  0  0  0  0  0  0  0  0
    0.5822   -4.6989   -2.3086 H   0  0  0  0  0  0  0  0  0  0  0  0
    2.4457   -3.7996   -0.9353 H   0  0  0  0  0  0  0  0  0  0  0  0
    2.5972   -1.3569   -0.4913 H   0  0  0  0  0  0  0  0  0  0  0  0
    0.9004    0.1881   -1.4564 H   0  0  0  0  0  0  0  0  0  0  0  0
    1.5173   -1.7080    3.4672 S   0  0  0  0  0  0  0  0  0  0  0  0
    2.3626   -1.2389    2.3925 O   0  0  0  0  0  0  0  0  0  0  0  0
    0.1181   -2.1138    3.1900 O   0  0  0  0  0  0  0  0  0  0  0  0
    2.2656   -2.9188    4.2106 O   0  0  0  0  0  0  0  0  0  0  0  0
    1.4313   -0.4229    4.8367 C   0  0  0  0  0  0  0  0  0  0  0  0
    0.8467   -0.9893    5.8864 F   0  0  0  0  0  0  0  0  0  0  0  0
    2.6564   -0.0350    5.1305 F   0  0  0  0  0  0  0  0  0  0  0  0
    0.7059    0.5885    4.3845 F   0  0  0  0  0  0  0  0  0  0  0  0
   -0.3218   -1.6642   -0.1292 H   0  0  0  0  0  0  0  0  0  0  0  0
  1  3  1  0  0  0  0
  2  1  1  0  0  0  0
  3  4  1  0  0  0  0
  6 11  1  0  0  0  0
  7  6  2  0  0  0  0
  7  8  1  0  0  0  0
  8  9  2  0  0  0  0
  9 10  1  0  0  0  0
  9 15  1  0  0  0  0
 10 16  1  0  0  0  0
 11 17  1  0  0  0  0
 11 10  2  0  0  0  0
 12  6  1  0  0  0  0
 13  7  1  0  0  0  0
 14  8  1  0  0  0  0
 18 21  1  0  0  0  0
 18 22  1  0  0  0  0
 19 18  2  0  0  0  0
 20 18  2  0  0  0  0
 21  5  1  0  0  0  0
 22 24  1  0  0  0  0
 22 23  1  0  0  0  0
 25 22  1  0  0  0  0
 26  3  1  0  0  0  0
M  RAD  2   1   2   2   3
M  END
