Coordinates from ORCA-job C6H6+HOTf+NH2N2+-scan
 OpenBabel10221816143D

 26 24  0  0  1  0  0  0  0  0999 V2000
   -2.7326   -0.8504    1.6541 N   0  0  0  0  0  0  0  0  0  0  0  0
   -3.3258   -0.7073    2.5752 N   0  0  0  0  0  0  0  0  0  0  0  0
    1.2681   -0.4076    0.3531 N   0  0  0  0  0  0  0  0  0  0  0  0
    0.7865   -0.3395    1.2484 H   0  0  0  0  0  0  0  0  0  0  0  0
   -0.8618   -3.1633    4.7019 H   0  0  0  0  0  0  0  0  0  0  0  0
   -0.4987   -1.5874   -1.0693 C   0  0  0  0  0  0  0  0  0  0  0  0
    0.8423   -1.5188   -0.4366 C   0  0  1  0  0  0  0  0  0  0  0  0
    1.9885   -1.6794   -1.2938 C   0  0  0  0  0  0  0  0  0  0  0  0
    1.8579   -1.9777   -2.6346 C   0  0  0  0  0  0  0  0  0  0  0  0
    0.5597   -2.1092   -3.1646 C   0  0  0  0  0  0  0  0  0  0  0  0
   -0.6164   -1.9308   -2.3904 C   0  0  0  0  0  0  0  0  0  0  0  0
   -1.3665   -1.4029   -0.4409 H   0  0  0  0  0  0  0  0  0  0  0  0
    0.8568   -2.4281    0.2297 H   0  0  0  0  0  0  0  0  0  0  0  0
    2.9586   -1.5535   -0.8260 H   0  0  0  0  0  0  0  0  0  0  0  0
    2.7218   -2.0879   -3.2815 H   0  0  0  0  0  0  0  0  0  0  0  0
    0.4495   -2.3434   -4.2215 H   0  0  0  0  0  0  0  0  0  0  0  0
   -1.5878   -2.0224   -2.8654 H   0  0  0  0  0  0  0  0  0  0  0  0
    0.6700   -2.7616    3.2421 S   0  0  0  0  0  0  0  0  0  0  0  0
    0.9771   -3.4555    1.9963 O   0  0  0  0  0  0  0  0  0  0  0  0
    0.2060   -1.3766    3.2325 O   0  0  0  0  0  0  0  0  0  0  0  0
   -0.3735   -3.6936    4.0445 O   0  0  0  0  0  0  0  0  0  0  0  0
    2.1723   -2.8765    4.3582 C   0  0  0  0  0  0  0  0  0  0  0  0
    1.8171   -2.4562    5.5679 F   0  0  0  0  0  0  0  0  0  0  0  0
    2.5864   -4.1310    4.4028 F   0  0  0  0  0  0  0  0  0  0  0  0
    3.1112   -2.0901    3.8492 F   0  0  0  0  0  0  0  0  0  0  0  0
    1.1559    0.4726   -0.1409 H   0  0  0  0  0  0  0  0  0  0  0  0
  1  2  3  0  0  0  0
  3  4  1  0  0  0  0
  6 12  1  0  0  0  0
  6  7  1  0  0  0  0
  7 13  1  1  0  0  0
  7  3  1  0  0  0  0
  8 14  1  0  0  0  0
  8  7  1  0  0  0  0
  9  8  2  0  0  0  0
 10  9  1  0  0  0  0
 10 11  1  0  0  0  0
 11  6  2  0  0  0  0
 15  9  1  0  0  0  0
 16 10  1  0  0  0  0
 17 11  1  0  0  0  0
 18 21  1  0  0  0  0
 18 22  1  0  0  0  0
 19 18  2  0  0  0  0
 20 18  2  0  0  0  0
 21  5  1  0  0  0  0
 22 24  1  0  0  0  0
 22 23  1  0  0  0  0
 25 22  1  0  0  0  0
 26  3  1  0  0  0  0
M  RAD  1  10   2
M  END
