Coordinates from ORCA-job C6H6+HOTf+NH2N2+-scan
 OpenBabel10221816143D

 26 24  0  0  1  0  0  0  0  0999 V2000
   -2.8764   -1.0727    6.1515 N   0  0  0  0  0  0  0  0  0  0  0  0
   -2.1397   -1.6257    5.5432 N   0  0  0  0  0  0  0  0  0  0  0  0
    0.3280   -0.8994   -0.3090 N   0  0  0  0  0  0  0  0  0  0  0  0
    0.3126   -0.9689    0.7115 H   0  0  0  0  0  0  0  0  0  0  0  0
   -0.8518   -2.6658    4.4942 H   0  0  0  0  0  0  0  0  0  0  0  0
   -0.6154   -1.5770   -2.5368 C   0  0  0  0  0  0  0  0  0  0  0  0
   -0.2488   -1.9880   -1.1469 C   0  0  1  0  0  0  0  0  0  0  0  0
    1.1289   -2.5364   -0.9788 C   0  0  0  0  0  0  0  0  0  0  0  0
    2.0900   -2.4199   -2.0275 C   0  0  0  0  0  0  0  0  0  0  0  0
    1.6925   -1.9493   -3.2469 C   0  0  0  0  0  0  0  0  0  0  0  0
    0.3215   -1.5404   -3.5071 C   0  0  0  0  0  0  0  0  0  0  0  0
   -1.6526   -1.3291   -2.7389 H   0  0  0  0  0  0  0  0  0  0  0  0
   -1.0501   -2.4941   -0.6089 H   0  0  0  0  0  0  0  0  0  0  0  0
    1.3591   -3.0428   -0.0460 H   0  0  0  0  0  0  0  0  0  0  0  0
    3.1071   -2.7523   -1.8517 H   0  0  0  0  0  0  0  0  0  0  0  0
    2.4084   -1.8976   -4.0626 H   0  0  0  0  0  0  0  0  0  0  0  0
    0.0553   -1.2383   -4.5150 H   0  0  0  0  0  0  0  0  0  0  0  0
    0.8043   -2.5276    3.1073 S   0  0  0  0  0  0  0  0  0  0  0  0
    1.3677   -3.4983    2.1833 O   0  0  0  0  0  0  0  0  0  0  0  0
    0.2051   -1.2884    2.5900 O   0  0  0  0  0  0  0  0  0  0  0  0
   -0.2359   -3.2909    4.0484 O   0  0  0  0  0  0  0  0  0  0  0  0
    2.1223   -2.0348    4.3435 C   0  0  0  0  0  0  0  0  0  0  0  0
    1.5385   -1.3292    5.3085 F   0  0  0  0  0  0  0  0  0  0  0  0
    2.6855   -3.1228    4.8379 F   0  0  0  0  0  0  0  0  0  0  0  0
    3.0173   -1.2922    3.7034 F   0  0  0  0  0  0  0  0  0  0  0  0
    0.7492   -0.0960   -0.7564 H   0  0  0  0  0  0  0  0  0  0  0  0
  2  1  3  0  0  0  0
  3  4  1  0  0  0  0
  6  7  1  0  0  0  0
  7  8  1  0  0  0  0
  7 13  1  1  0  0  0
  7  3  1  0  0  0  0
  8 14  1  0  0  0  0
  9 15  1  0  0  0  0
  9  8  1  0  0  0  0
 10  9  2  0  0  0  0
 11 10  1  0  0  0  0
 11  6  2  0  0  0  0
 12  6  1  0  0  0  0
 16 10  1  0  0  0  0
 17 11  1  0  0  0  0
 18 21  1  0  0  0  0
 18 22  1  0  0  0  0
 19 18  2  0  0  0  0
 20 18  2  0  0  0  0
 21  5  1  0  0  0  0
 22 24  1  0  0  0  0
 22 23  1  0  0  0  0
 25 22  1  0  0  0  0
 26  3  1  0  0  0  0
M  RAD  1   8   2
M  END
