Coordinates from ORCA-job C6H6+HOTf+NH2N2+-scan
 OpenBabel10221816143D

 26 24  0  0  0  0  0  0  0  0999 V2000
   -2.4939   -2.5074    1.2978 N   0  0  0  0  0  0  0  0  0  0  0  0
   -3.5525   -2.8731    1.2250 N   0  0  0  0  0  0  0  0  0  0  0  0
   -1.3124   -2.0558    1.3761 N   0  0  0  0  0  0  0  0  0  0  0  0
   -0.8560   -2.0056    2.3383 H   0  0  0  0  0  0  0  0  0  0  0  0
    1.6283   -3.0702    5.2020 H   0  0  0  0  0  0  0  0  0  0  0  0
   -0.1739   -1.5572   -2.4051 C   0  0  0  0  0  0  0  0  0  0  0  0
    0.1308   -2.4486   -3.4366 C   0  0  0  0  0  0  0  0  0  0  0  0
    1.2047   -3.3378   -3.3051 C   0  0  0  0  0  0  0  0  0  0  0  0
    1.9528   -3.3569   -2.1220 C   0  0  0  0  0  0  0  0  0  0  0  0
    1.6547   -2.4676   -1.0858 C   0  0  0  0  0  0  0  0  0  0  0  0
    0.5955   -1.5564   -1.2299 C   0  0  0  0  0  0  0  0  0  0  0  0
   -0.9768   -0.8358   -2.5331 H   0  0  0  0  0  0  0  0  0  0  0  0
   -0.4521   -2.4343   -4.3526 H   0  0  0  0  0  0  0  0  0  0  0  0
    1.4525   -4.0150   -4.1168 H   0  0  0  0  0  0  0  0  0  0  0  0
    2.7836   -4.0484   -2.0174 H   0  0  0  0  0  0  0  0  0  0  0  0
    2.2648   -2.4507   -0.1870 H   0  0  0  0  0  0  0  0  0  0  0  0
    0.4656   -0.7586   -0.4968 H   0  0  0  0  0  0  0  0  0  0  0  0
    1.3742   -1.5577    3.6784 S   0  0  0  0  0  0  0  0  0  0  0  0
    2.0215   -1.3705    2.3984 O   0  0  0  0  0  0  0  0  0  0  0  0
   -0.0733   -1.8868    3.7232 O   0  0  0  0  0  0  0  0  0  0  0  0
    2.1814   -2.6715    4.5030 O   0  0  0  0  0  0  0  0  0  0  0  0
    1.6098   -0.0367    4.7611 C   0  0  0  0  0  0  0  0  0  0  0  0
    1.1960   -0.3456    5.9839 F   0  0  0  0  0  0  0  0  0  0  0  0
    2.8873    0.2861    4.7600 F   0  0  0  0  0  0  0  0  0  0  0  0
    0.8705    0.9316    4.2438 F   0  0  0  0  0  0  0  0  0  0  0  0
   -0.7605   -2.0473    0.4874 H   0  0  0  0  0  0  0  0  0  0  0  0
  1  3  1  0  0  0  0
  2  1  1  0  0  0  0
  3  4  1  0  0  0  0
  6 11  2  0  0  0  0
  7  8  2  0  0  0  0
  7  6  1  0  0  0  0
  8  9  1  0  0  0  0
  9 15  1  0  0  0  0
  9 10  2  0  0  0  0
 10 16  1  0  0  0  0
 11 10  1  0  0  0  0
 11 17  1  0  0  0  0
 12  6  1  0  0  0  0
 13  7  1  0  0  0  0
 14  8  1  0  0  0  0
 18 20  2  0  0  0  0
 18 21  1  0  0  0  0
 18 22  1  0  0  0  0
 19 18  2  0  0  0  0
 21  5  1  0  0  0  0
 22 23  1  0  0  0  0
 24 22  1  0  0  0  0
 25 22  1  0  0  0  0
 26  3  1  0  0  0  0
M  RAD  2   1   2   2   3
M  END
