Coordinates from ORCA-job C6H6+HOTf+NH2N2+-scan
 OpenBabel10221816143D

 26 25  0  0  1  0  0  0  0  0999 V2000
   -2.5401   -0.1473    6.1279 N   0  0  0  0  0  0  0  0  0  0  0  0
   -2.0058   -0.8713    5.4886 N   0  0  0  0  0  0  0  0  0  0  0  0
    0.5651   -1.1229   -0.3169 N   0  0  0  0  0  0  0  0  0  0  0  0
    0.4990   -1.0705    0.7129 H   0  0  0  0  0  0  0  0  0  0  0  0
   -1.1069   -2.2051    4.3940 H   0  0  0  0  0  0  0  0  0  0  0  0
   -0.5759   -2.2267   -2.3096 C   0  0  0  0  0  0  0  0  0  0  0  0
    0.0808   -2.3872   -0.9986 C   0  0  1  0  0  0  0  0  0  0  0  0
    1.5628   -2.1165   -0.9177 C   0  0  1  0  0  0  0  0  0  0  0  0
    2.2562   -1.6967   -2.1477 C   0  0  0  0  0  0  0  0  0  0  0  0
    1.5517   -1.4725   -3.2787 C   0  0  0  0  0  0  0  0  0  0  0  0
    0.1202   -1.7420   -3.3610 C   0  0  0  0  0  0  0  0  0  0  0  0
   -1.6083   -2.5454   -2.4045 H   0  0  0  0  0  0  0  0  0  0  0  0
   -0.3496   -3.0719   -0.2746 H   0  0  0  0  0  0  0  0  0  0  0  0
    2.1265   -2.6081   -0.1315 H   0  0  0  0  0  0  0  0  0  0  0  0
    3.3374   -1.6147   -2.1210 H   0  0  0  0  0  0  0  0  0  0  0  0
    2.0662   -1.1555   -4.1807 H   0  0  0  0  0  0  0  0  0  0  0  0
   -0.3697   -1.6180   -4.3219 H   0  0  0  0  0  0  0  0  0  0  0  0
    0.5375   -2.5528    3.0258 S   0  0  0  0  0  0  0  0  0  0  0  0
    0.7739   -3.6015    2.0465 O   0  0  0  0  0  0  0  0  0  0  0  0
    0.3915   -1.1637    2.5558 O   0  0  0  0  0  0  0  0  0  0  0  0
   -0.7170   -2.9734    3.9157 O   0  0  0  0  0  0  0  0  0  0  0  0
    1.9181   -2.5711    4.2938 C   0  0  0  0  0  0  0  0  0  0  0  0
    1.5763   -1.7521    5.2835 F   0  0  0  0  0  0  0  0  0  0  0  0
    2.0796   -3.8030    4.7400 F   0  0  0  0  0  0  0  0  0  0  0  0
    3.0192   -2.1397    3.6916 F   0  0  0  0  0  0  0  0  0  0  0  0
    0.4341   -0.2485   -0.8214 H   0  0  0  0  0  0  0  0  0  0  0  0
  2  1  3  0  0  0  0
  3  4  1  0  0  0  0
  6  7  1  0  0  0  0
  7  8  1  0  0  0  0
  7  3  1  0  0  0  0
  7 13  1  1  0  0  0
  8  3  1  0  0  0  0
  8 14  1  1  0  0  0
  9 15  1  0  0  0  0
  9  8  1  0  0  0  0
 10  9  2  0  0  0  0
 11 10  1  0  0  0  0
 11  6  2  0  0  0  0
 12  6  1  0  0  0  0
 16 10  1  0  0  0  0
 17 11  1  0  0  0  0
 18 21  1  0  0  0  0
 18 22  1  0  0  0  0
 19 18  2  0  0  0  0
 20 18  2  0  0  0  0
 21  5  1  0  0  0  0
 22 24  1  0  0  0  0
 22 23  1  0  0  0  0
 25 22  1  0  0  0  0
 26  3  1  0  0  0  0
M  END
