Coordinates from ORCA-job C6H6+HOTf+NH2N2+-scan
 OpenBabel10221816143D

 26 24  0  0  0  0  0  0  0  0999 V2000
   -1.5259   -0.2613    0.5119 N   0  0  0  0  0  0  0  0  0  0  0  0
   -2.4157    0.3999    0.3292 N   0  0  0  0  0  0  0  0  0  0  0  0
   -0.5338   -1.0245    0.6888 N   0  0  0  0  0  0  0  0  0  0  0  0
   -0.3570   -1.3780    1.6696 H   0  0  0  0  0  0  0  0  0  0  0  0
   -0.1061   -4.0549    4.5606 H   0  0  0  0  0  0  0  0  0  0  0  0
   -0.3008   -2.9293   -2.4389 C   0  0  0  0  0  0  0  0  0  0  0  0
    0.6418   -3.3987   -1.5195 C   0  0  0  0  0  0  0  0  0  0  0  0
    1.6130   -2.5313   -1.0075 C   0  0  0  0  0  0  0  0  0  0  0  0
    1.6404   -1.1883   -1.4224 C   0  0  0  0  0  0  0  0  0  0  0  0
    0.6919   -0.7202   -2.3486 C   0  0  0  0  0  0  0  0  0  0  0  0
   -0.2799   -1.5916   -2.8506 C   0  0  0  0  0  0  0  0  0  0  0  0
   -1.0480   -3.6067   -2.8419 H   0  0  0  0  0  0  0  0  0  0  0  0
    0.6284   -4.4394   -1.2097 H   0  0  0  0  0  0  0  0  0  0  0  0
    2.3493   -2.8934   -0.2962 H   0  0  0  0  0  0  0  0  0  0  0  0
    2.4182   -0.5229   -1.0566 H   0  0  0  0  0  0  0  0  0  0  0  0
    0.7286    0.3118   -2.6868 H   0  0  0  0  0  0  0  0  0  0  0  0
   -1.0057   -1.2350   -3.5758 H   0  0  0  0  0  0  0  0  0  0  0  0
    1.1813   -2.6768    3.5049 S   0  0  0  0  0  0  0  0  0  0  0  0
    2.1887   -2.8955    2.4914 O   0  0  0  0  0  0  0  0  0  0  0  0
   -0.0509   -1.9197    3.1792 O   0  0  0  0  0  0  0  0  0  0  0  0
    0.7639   -4.1002    4.1203 O   0  0  0  0  0  0  0  0  0  0  0  0
    1.9389   -1.8289    5.0017 C   0  0  0  0  0  0  0  0  0  0  0  0
    1.0437   -1.8629    5.9824 F   0  0  0  0  0  0  0  0  0  0  0  0
    3.0375   -2.4728    5.3424 F   0  0  0  0  0  0  0  0  0  0  0  0
    2.2067   -0.5791    4.6543 F   0  0  0  0  0  0  0  0  0  0  0  0
    0.1741   -1.0784   -0.0921 H   0  0  0  0  0  0  0  0  0  0  0  0
  1  3  1  0  0  0  0
  2  1  1  0  0  0  0
  3  4  1  0  0  0  0
  6  7  1  0  0  0  0
  7 13  1  0  0  0  0
  7  8  2  0  0  0  0
  8 14  1  0  0  0  0
  9 15  1  0  0  0  0
  9  8  1  0  0  0  0
 10  9  2  0  0  0  0
 11  6  2  0  0  0  0
 11 10  1  0  0  0  0
 12  6  1  0  0  0  0
 16 10  1  0  0  0  0
 17 11  1  0  0  0  0
 18 21  1  0  0  0  0
 18 22  1  0  0  0  0
 19 18  2  0  0  0  0
 20 18  2  0  0  0  0
 21  5  1  0  0  0  0
 22 24  1  0  0  0  0
 22 23  1  0  0  0  0
 25 22  1  0  0  0  0
 26  3  1  0  0  0  0
M  RAD  2   1   2   2   3
M  END
