Coordinates from ORCA-job C6H6+HOTf+NH2N2+-scan
 OpenBabel10221816143D

 26 25  0  0  1  0  0  0  0  0999 V2000
   -2.9156   -0.9305    6.0261 N   0  0  0  0  0  0  0  0  0  0  0  0
   -2.1836   -1.5073    5.4345 N   0  0  0  0  0  0  0  0  0  0  0  0
    0.5953   -1.0633   -0.3145 N   0  0  0  0  0  0  0  0  0  0  0  0
    0.5100   -1.0524    0.7124 H   0  0  0  0  0  0  0  0  0  0  0  0
   -0.9152   -2.5954    4.4241 H   0  0  0  0  0  0  0  0  0  0  0  0
   -0.6754   -1.6608   -2.4370 C   0  0  0  0  0  0  0  0  0  0  0  0
   -0.2135   -2.0738   -1.0910 C   0  0  1  0  0  0  0  0  0  0  0  0
    1.2297   -2.4711   -0.9535 C   0  0  1  0  0  0  0  0  0  0  0  0
    2.1159   -2.3109   -2.1034 C   0  0  0  0  0  0  0  0  0  0  0  0
    1.6293   -1.8210   -3.2677 C   0  0  0  0  0  0  0  0  0  0  0  0
    0.2157   -1.5029   -3.4385 C   0  0  0  0  0  0  0  0  0  0  0  0
   -1.7404   -1.5270   -2.5934 H   0  0  0  0  0  0  0  0  0  0  0  0
   -0.9446   -2.5563   -0.4475 H   0  0  0  0  0  0  0  0  0  0  0  0
    1.5147   -3.0952   -0.1124 H   0  0  0  0  0  0  0  0  0  0  0  0
    3.1462   -2.6347   -2.0042 H   0  0  0  0  0  0  0  0  0  0  0  0
    2.2871   -1.7132   -4.1247 H   0  0  0  0  0  0  0  0  0  0  0  0
   -0.1247   -1.1938   -4.4221 H   0  0  0  0  0  0  0  0  0  0  0  0
    0.7945   -2.5458    3.0939 S   0  0  0  0  0  0  0  0  0  0  0  0
    1.3606   -3.5488    2.2087 O   0  0  0  0  0  0  0  0  0  0  0  0
    0.2628   -1.2948    2.5242 O   0  0  0  0  0  0  0  0  0  0  0  0
   -0.3155   -3.2501    3.9980 O   0  0  0  0  0  0  0  0  0  0  0  0
    2.0716   -2.0682    4.3797 C   0  0  0  0  0  0  0  0  0  0  0  0
    1.4649   -1.3300    5.3052 F   0  0  0  0  0  0  0  0  0  0  0  0
    2.5794   -3.1631    4.9151 F   0  0  0  0  0  0  0  0  0  0  0  0
    3.0137   -1.3626    3.7672 F   0  0  0  0  0  0  0  0  0  0  0  0
    0.8599   -0.2050   -0.7889 H   0  0  0  0  0  0  0  0  0  0  0  0
  2  1  3  0  0  0  0
  3  4  1  0  0  0  0
  6  7  1  0  0  0  0
  7  8  1  0  0  0  0
  7 13  1  1  0  0  0
  7  3  1  0  0  0  0
  8  3  1  0  0  0  0
  8 14  1  1  0  0  0
  9 15  1  0  0  0  0
  9  8  1  0  0  0  0
 10  9  2  0  0  0  0
 11 10  1  0  0  0  0
 11  6  2  0  0  0  0
 12  6  1  0  0  0  0
 16 10  1  0  0  0  0
 17 11  1  0  0  0  0
 18 21  1  0  0  0  0
 18 22  1  0  0  0  0
 19 18  2  0  0  0  0
 20 18  2  0  0  0  0
 21  5  1  0  0  0  0
 22 24  1  0  0  0  0
 22 23  1  0  0  0  0
 25 22  1  0  0  0  0
 26  3  1  0  0  0  0
M  END
