Coordinates from ORCA-job C6H6+HOTf+NH2N2+-scan
 OpenBabel10221816143D

 26 24  0  0  0  0  0  0  0  0999 V2000
   -2.0670   -2.6240    0.6592 N   0  0  0  0  0  0  0  0  0  0  0  0
   -3.0749   -3.0702    0.4414 N   0  0  0  0  0  0  0  0  0  0  0  0
   -0.9412   -2.0962    0.8831 N   0  0  0  0  0  0  0  0  0  0  0  0
   -0.5764   -2.1003    1.8764 H   0  0  0  0  0  0  0  0  0  0  0  0
    1.7093   -3.2451    4.9117 H   0  0  0  0  0  0  0  0  0  0  0  0
   -0.1600   -1.3374   -2.2947 C   0  0  0  0  0  0  0  0  0  0  0  0
   -0.2392   -2.5806   -2.9290 C   0  0  0  0  0  0  0  0  0  0  0  0
    0.6913   -3.5813   -2.6258 C   0  0  0  0  0  0  0  0  0  0  0  0
    1.6930   -3.3498   -1.6776 C   0  0  0  0  0  0  0  0  0  0  0  0
    1.7766   -2.1107   -1.0362 C   0  0  0  0  0  0  0  0  0  0  0  0
    0.8483   -1.0996   -1.3431 C   0  0  0  0  0  0  0  0  0  0  0  0
   -0.8590   -0.5464   -2.5530 H   0  0  0  0  0  0  0  0  0  0  0  0
   -1.0081   -2.7616   -3.6743 H   0  0  0  0  0  0  0  0  0  0  0  0
    0.6370   -4.5405   -3.1323 H   0  0  0  0  0  0  0  0  0  0  0  0
    2.4165   -4.1272   -1.4511 H   0  0  0  0  0  0  0  0  0  0  0  0
    2.5600   -1.9192   -0.3088 H   0  0  0  0  0  0  0  0  0  0  0  0
    0.9516   -0.1146   -0.8932 H   0  0  0  0  0  0  0  0  0  0  0  0
    1.4665   -1.5839    3.5510 S   0  0  0  0  0  0  0  0  0  0  0  0
    2.2399   -1.1685    2.4015 O   0  0  0  0  0  0  0  0  0  0  0  0
    0.0716   -2.0534    3.3721 O   0  0  0  0  0  0  0  0  0  0  0  0
    2.2934   -2.7114    4.3398 O   0  0  0  0  0  0  0  0  0  0  0  0
    1.4040   -0.2029    4.8255 C   0  0  0  0  0  0  0  0  0  0  0  0
    0.8880   -0.7055    5.9410 F   0  0  0  0  0  0  0  0  0  0  0  0
    2.6287    0.2404    5.0288 F   0  0  0  0  0  0  0  0  0  0  0  0
    0.6263    0.7505    4.3360 F   0  0  0  0  0  0  0  0  0  0  0  0
   -0.3534   -1.8388    0.0419 H   0  0  0  0  0  0  0  0  0  0  0  0
  1  3  1  0  0  0  0
  2  1  1  0  0  0  0
  3  4  1  0  0  0  0
  6 11  2  0  0  0  0
  7  8  2  0  0  0  0
  7  6  1  0  0  0  0
  8  9  1  0  0  0  0
  9 15  1  0  0  0  0
  9 10  2  0  0  0  0
 10 16  1  0  0  0  0
 11 10  1  0  0  0  0
 11 17  1  0  0  0  0
 12  6  1  0  0  0  0
 13  7  1  0  0  0  0
 14  8  1  0  0  0  0
 18 21  1  0  0  0  0
 18 22  1  0  0  0  0
 19 18  2  0  0  0  0
 20 18  2  0  0  0  0
 21  5  1  0  0  0  0
 22 24  1  0  0  0  0
 22 23  1  0  0  0  0
 25 22  1  0  0  0  0
 26  3  1  0  0  0  0
M  RAD  2   1   2   2   3
M  END
