Coordinates from ORCA-job C6H6+HOTf+NH2N2+-scan
 OpenBabel10221816143D

 26 24  0  0  0  0  0  0  0  0999 V2000
   -1.0032    0.4401    0.9322 N   0  0  0  0  0  0  0  0  0  0  0  0
   -1.6997    1.3113    1.0757 N   0  0  0  0  0  0  0  0  0  0  0  0
   -0.1788   -0.4935    0.6575 N   0  0  0  0  0  0  0  0  0  0  0  0
   -0.0078   -1.1575    1.4439 H   0  0  0  0  0  0  0  0  0  0  0  0
   -0.6569   -3.8821    4.4181 H   0  0  0  0  0  0  0  0  0  0  0  0
   -0.0695   -3.2342   -1.9235 C   0  0  0  0  0  0  0  0  0  0  0  0
    0.6881   -2.9064   -0.7998 C   0  0  0  0  0  0  0  0  0  0  0  0
    1.3184   -1.6525   -0.7213 C   0  0  0  0  0  0  0  0  0  0  0  0
    1.2782   -0.7820   -1.8315 C   0  0  0  0  0  0  0  0  0  0  0  0
    0.5089   -1.1158   -2.9528 C   0  0  0  0  0  0  0  0  0  0  0  0
   -0.1697   -2.3358   -2.9934 C   0  0  0  0  0  0  0  0  0  0  0  0
   -0.5677   -4.1973   -1.9781 H   0  0  0  0  0  0  0  0  0  0  0  0
    0.7982   -3.6133    0.0165 H   0  0  0  0  0  0  0  0  0  0  0  0
    1.9771   -1.4300    0.1131 H   0  0  0  0  0  0  0  0  0  0  0  0
    1.8306    0.1539   -1.8050 H   0  0  0  0  0  0  0  0  0  0  0  0
    0.4652   -0.4376   -3.7994 H   0  0  0  0  0  0  0  0  0  0  0  0
   -0.7595   -2.5974   -3.8666 H   0  0  0  0  0  0  0  0  0  0  0  0
    1.0110   -3.0124    3.3544 S   0  0  0  0  0  0  0  0  0  0  0  0
    1.9125   -3.5736    2.3721 O   0  0  0  0  0  0  0  0  0  0  0  0
    0.0867   -1.9201    2.9811 O   0  0  0  0  0  0  0  0  0  0  0  0
    0.1609   -4.2133    4.0010 O   0  0  0  0  0  0  0  0  0  0  0  0
    1.9852   -2.4055    4.8419 C   0  0  0  0  0  0  0  0  0  0  0  0
    1.1173   -2.1215    5.8076 F   0  0  0  0  0  0  0  0  0  0  0  0
    2.8196   -3.3526    5.2218 F   0  0  0  0  0  0  0  0  0  0  0  0
    2.6400   -1.3156    4.4676 F   0  0  0  0  0  0  0  0  0  0  0  0
    0.1377   -0.6334   -0.3430 H   0  0  0  0  0  0  0  0  0  0  0  0
  1  2  1  0  0  0  0
  3  1  1  0  0  0  0
  3  4  1  0  0  0  0
  6  7  2  0  0  0  0
  7  8  1  0  0  0  0
  7 13  1  0  0  0  0
  8 14  1  0  0  0  0
  9 15  1  0  0  0  0
  9  8  2  0  0  0  0
 10  9  1  0  0  0  0
 11 10  2  0  0  0  0
 11  6  1  0  0  0  0
 12  6  1  0  0  0  0
 16 10  1  0  0  0  0
 17 11  1  0  0  0  0
 18 21  1  0  0  0  0
 18 22  1  0  0  0  0
 19 18  2  0  0  0  0
 20 18  2  0  0  0  0
 21  5  1  0  0  0  0
 22 24  1  0  0  0  0
 22 23  1  0  0  0  0
 25 22  1  0  0  0  0
 26  3  1  0  0  0  0
M  RAD  2   1   2   2   3
M  END
