Coordinates from ORCA-job C6H6+HOTf+NH2N2+-scan
 OpenBabel10221816143D

 26 24  0  0  0  0  0  0  0  0999 V2000
   -2.0098   -2.4966    0.4030 N   0  0  0  0  0  0  0  0  0  0  0  0
   -3.0282   -2.9283    0.2075 N   0  0  0  0  0  0  0  0  0  0  0  0
   -0.8676   -2.0069    0.6245 N   0  0  0  0  0  0  0  0  0  0  0  0
   -0.4860   -2.0590    1.6104 H   0  0  0  0  0  0  0  0  0  0  0  0
    1.5132   -3.5397    4.6988 H   0  0  0  0  0  0  0  0  0  0  0  0
   -0.2420   -1.4042   -2.4475 C   0  0  0  0  0  0  0  0  0  0  0  0
   -0.3206   -2.7999   -2.5255 C   0  0  0  0  0  0  0  0  0  0  0  0
    0.6386   -3.5891   -1.8807 C   0  0  0  0  0  0  0  0  0  0  0  0
    1.6893   -2.9927   -1.1768 C   0  0  0  0  0  0  0  0  0  0  0  0
    1.7720   -1.5985   -1.0940 C   0  0  0  0  0  0  0  0  0  0  0  0
    0.7992   -0.8022   -1.7209 C   0  0  0  0  0  0  0  0  0  0  0  0
   -0.9752   -0.7846   -2.9564 H   0  0  0  0  0  0  0  0  0  0  0  0
   -1.1154   -3.2682   -3.0992 H   0  0  0  0  0  0  0  0  0  0  0  0
    0.5813   -4.6717   -1.9508 H   0  0  0  0  0  0  0  0  0  0  0  0
    2.4438   -3.6089   -0.6973 H   0  0  0  0  0  0  0  0  0  0  0  0
    2.5823   -1.1320   -0.5423 H   0  0  0  0  0  0  0  0  0  0  0  0
    0.8679    0.2808   -1.6690 H   0  0  0  0  0  0  0  0  0  0  0  0
    1.5264   -1.7952    3.4222 S   0  0  0  0  0  0  0  0  0  0  0  0
    2.4235   -1.3885    2.3645 O   0  0  0  0  0  0  0  0  0  0  0  0
    0.1113   -2.1175    3.1179 O   0  0  0  0  0  0  0  0  0  0  0  0
    2.1830   -3.0424    4.1920 O   0  0  0  0  0  0  0  0  0  0  0  0
    1.4872   -0.4953    4.7796 C   0  0  0  0  0  0  0  0  0  0  0  0
    0.8483   -1.0172    5.8208 F   0  0  0  0  0  0  0  0  0  0  0  0
    2.7265   -0.1772    5.0971 F   0  0  0  0  0  0  0  0  0  0  0  0
    0.8322    0.5530    4.3046 F   0  0  0  0  0  0  0  0  0  0  0  0
   -0.3584   -1.5964   -0.1924 H   0  0  0  0  0  0  0  0  0  0  0  0
  1  3  1  0  0  0  0
  2  1  1  0  0  0  0
  3  4  1  0  0  0  0
  6 11  1  0  0  0  0
  7  6  2  0  0  0  0
  7  8  1  0  0  0  0
  8  9  2  0  0  0  0
  9 10  1  0  0  0  0
  9 15  1  0  0  0  0
 10 16  1  0  0  0  0
 11 17  1  0  0  0  0
 11 10  2  0  0  0  0
 12  6  1  0  0  0  0
 13  7  1  0  0  0  0
 14  8  1  0  0  0  0
 18 21  1  0  0  0  0
 18 22  1  0  0  0  0
 19 18  2  0  0  0  0
 20 18  2  0  0  0  0
 21  5  1  0  0  0  0
 22 24  1  0  0  0  0
 22 23  1  0  0  0  0
 25 22  1  0  0  0  0
 26  3  1  0  0  0  0
M  RAD  2   1   2   2   3
M  END
