Coordinates from ORCA-job C6H6+HOTf+NH2N2+-scan
 OpenBabel10221816143D

 26 24  0  0  0  0  0  0  0  0999 V2000
   -2.0652   -2.4447    0.5397 N   0  0  0  0  0  0  0  0  0  0  0  0
   -3.1023   -2.8283    0.3408 N   0  0  0  0  0  0  0  0  0  0  0  0
   -0.9040   -1.9955    0.7509 N   0  0  0  0  0  0  0  0  0  0  0  0
   -0.5200   -2.0475    1.7360 H   0  0  0  0  0  0  0  0  0  0  0  0
    1.6605   -3.4247    4.7477 H   0  0  0  0  0  0  0  0  0  0  0  0
   -0.2253   -1.4059   -2.3941 C   0  0  0  0  0  0  0  0  0  0  0  0
   -0.2818   -2.7603   -2.7398 C   0  0  0  0  0  0  0  0  0  0  0  0
    0.6898   -3.6459   -2.2590 C   0  0  0  0  0  0  0  0  0  0  0  0
    1.7150   -3.1846   -1.4275 C   0  0  0  0  0  0  0  0  0  0  0  0
    1.7755   -1.8326   -1.0740 C   0  0  0  0  0  0  0  0  0  0  0  0
    0.8018   -0.9398   -1.5545 C   0  0  0  0  0  0  0  0  0  0  0  0
   -0.9602   -0.7093   -2.7884 H   0  0  0  0  0  0  0  0  0  0  0  0
   -1.0660   -3.1199   -3.3997 H   0  0  0  0  0  0  0  0  0  0  0  0
    0.6518   -4.6941   -2.5411 H   0  0  0  0  0  0  0  0  0  0  0  0
    2.4728   -3.8731   -1.0659 H   0  0  0  0  0  0  0  0  0  0  0  0
    2.5721   -1.4696   -0.4316 H   0  0  0  0  0  0  0  0  0  0  0  0
    0.8690    0.1180   -1.3134 H   0  0  0  0  0  0  0  0  0  0  0  0
    1.5096   -1.6738    3.4897 S   0  0  0  0  0  0  0  0  0  0  0  0
    2.3361   -1.2036    2.4007 O   0  0  0  0  0  0  0  0  0  0  0  0
    0.1102   -2.0918    3.2336 O   0  0  0  0  0  0  0  0  0  0  0  0
    2.2777   -2.8748    4.2286 O   0  0  0  0  0  0  0  0  0  0  0  0
    1.4333   -0.3820    4.8534 C   0  0  0  0  0  0  0  0  0  0  0  0
    0.8669   -0.9466    5.9139 F   0  0  0  0  0  0  0  0  0  0  0  0
    2.6596    0.0159    5.1284 F   0  0  0  0  0  0  0  0  0  0  0  0
    0.6949    0.6219    4.4057 F   0  0  0  0  0  0  0  0  0  0  0  0
   -0.3492   -1.6853   -0.0900 H   0  0  0  0  0  0  0  0  0  0  0  0
  1  3  1  0  0  0  0
  2  1  1  0  0  0  0
  3  4  1  0  0  0  0
  6 11  1  0  0  0  0
  7  6  2  0  0  0  0
  7  8  1  0  0  0  0
  8  9  2  0  0  0  0
  9 10  1  0  0  0  0
  9 15  1  0  0  0  0
 10 16  1  0  0  0  0
 11 17  1  0  0  0  0
 11 10  2  0  0  0  0
 12  6  1  0  0  0  0
 13  7  1  0  0  0  0
 14  8  1  0  0  0  0
 18 21  1  0  0  0  0
 18 22  1  0  0  0  0
 19 18  2  0  0  0  0
 20 18  2  0  0  0  0
 21  5  1  0  0  0  0
 22 24  1  0  0  0  0
 22 23  1  0  0  0  0
 25 22  1  0  0  0  0
 26  3  1  0  0  0  0
M  RAD  2   1   2   2   3
M  END
