Coordinates from ORCA-job C6H6+HOTf+NH2N2+-scan
 OpenBabel10221816143D

 26 24  0  0  0  0  0  0  0  0999 V2000
   -2.0745   -2.4396    0.5536 N   0  0  0  0  0  0  0  0  0  0  0  0
   -3.1130   -2.8199    0.3557 N   0  0  0  0  0  0  0  0  0  0  0  0
   -0.9113   -1.9941    0.7618 N   0  0  0  0  0  0  0  0  0  0  0  0
   -0.5260   -2.0448    1.7463 H   0  0  0  0  0  0  0  0  0  0  0  0
    1.6625   -3.4171    4.7546 H   0  0  0  0  0  0  0  0  0  0  0  0
   -0.2244   -1.4093   -2.3921 C   0  0  0  0  0  0  0  0  0  0  0  0
   -0.2733   -2.7582   -2.7591 C   0  0  0  0  0  0  0  0  0  0  0  0
    0.7001   -3.6466   -2.2880 C   0  0  0  0  0  0  0  0  0  0  0  0
    1.7195   -3.1943   -1.4444 C   0  0  0  0  0  0  0  0  0  0  0  0
    1.7726   -1.8481   -1.0695 C   0  0  0  0  0  0  0  0  0  0  0  0
    0.7970   -0.9520   -1.5406 C   0  0  0  0  0  0  0  0  0  0  0  0
   -0.9605   -0.7097   -2.7788 H   0  0  0  0  0  0  0  0  0  0  0  0
   -1.0531   -3.1110   -3.4279 H   0  0  0  0  0  0  0  0  0  0  0  0
    0.6681   -4.6904   -2.5865 H   0  0  0  0  0  0  0  0  0  0  0  0
    2.4785   -3.8855   -1.0903 H   0  0  0  0  0  0  0  0  0  0  0  0
    2.5647   -1.4915   -0.4179 H   0  0  0  0  0  0  0  0  0  0  0  0
    0.8598    0.1026   -1.2842 H   0  0  0  0  0  0  0  0  0  0  0  0
    1.5079   -1.6684    3.4940 S   0  0  0  0  0  0  0  0  0  0  0  0
    2.3310   -1.2003    2.4016 O   0  0  0  0  0  0  0  0  0  0  0  0
    0.1078   -2.0870    3.2429 O   0  0  0  0  0  0  0  0  0  0  0  0
    2.2782   -2.8678    4.2331 O   0  0  0  0  0  0  0  0  0  0  0  0
    1.4356   -0.3736    4.8553 C   0  0  0  0  0  0  0  0  0  0  0  0
    0.8723   -0.9360    5.9186 F   0  0  0  0  0  0  0  0  0  0  0  0
    2.6628    0.0247    5.1258 F   0  0  0  0  0  0  0  0  0  0  0  0
    0.6960    0.6293    4.4075 F   0  0  0  0  0  0  0  0  0  0  0  0
   -0.3556   -1.6897   -0.0813 H   0  0  0  0  0  0  0  0  0  0  0  0
  1  3  1  0  0  0  0
  2  1  1  0  0  0  0
  3  4  1  0  0  0  0
  6 11  1  0  0  0  0
  7  6  2  0  0  0  0
  7  8  1  0  0  0  0
  8  9  2  0  0  0  0
  9 15  1  0  0  0  0
  9 10  1  0  0  0  0
 10 16  1  0  0  0  0
 11 17  1  0  0  0  0
 11 10  2  0  0  0  0
 12  6  1  0  0  0  0
 13  7  1  0  0  0  0
 14  8  1  0  0  0  0
 18 21  1  0  0  0  0
 18 22  1  0  0  0  0
 19 18  2  0  0  0  0
 20 18  2  0  0  0  0
 21  5  1  0  0  0  0
 22 24  1  0  0  0  0
 22 23  1  0  0  0  0
 25 22  1  0  0  0  0
 26  3  1  0  0  0  0
M  RAD  2   1   2   2   3
M  END
