Coordinates from ORCA-job C6H6+HOTf+NH2N2+-scan
 OpenBabel10221816143D

 26 24  0  0  0  0  0  0  0  0999 V2000
   -2.0221   -2.4672    0.4309 N   0  0  0  0  0  0  0  0  0  0  0  0
   -3.0493   -2.8776    0.2354 N   0  0  0  0  0  0  0  0  0  0  0  0
   -0.8706   -1.9980    0.6491 N   0  0  0  0  0  0  0  0  0  0  0  0
   -0.4870   -2.0559    1.6340 H   0  0  0  0  0  0  0  0  0  0  0  0
    1.5836   -3.5168    4.6834 H   0  0  0  0  0  0  0  0  0  0  0  0
   -0.2361   -1.4052   -2.4336 C   0  0  0  0  0  0  0  0  0  0  0  0
   -0.3187   -2.7962   -2.5687 C   0  0  0  0  0  0  0  0  0  0  0  0
    0.6419   -3.6144   -1.9631 C   0  0  0  0  0  0  0  0  0  0  0  0
    1.6930   -3.0500   -1.2336 C   0  0  0  0  0  0  0  0  0  0  0  0
    1.7796   -1.6608   -1.0925 C   0  0  0  0  0  0  0  0  0  0  0  0
    0.8087   -0.8363   -1.6854 C   0  0  0  0  0  0  0  0  0  0  0  0
   -0.9682   -0.7632   -2.9156 H   0  0  0  0  0  0  0  0  0  0  0  0
   -1.1164   -3.2385   -3.1588 H   0  0  0  0  0  0  0  0  0  0  0  0
    0.5820   -4.6928   -2.0788 H   0  0  0  0  0  0  0  0  0  0  0  0
    2.4465   -3.6882   -0.7821 H   0  0  0  0  0  0  0  0  0  0  0  0
    2.5913   -1.2193   -0.5226 H   0  0  0  0  0  0  0  0  0  0  0  0
    0.8829    0.2437   -1.5920 H   0  0  0  0  0  0  0  0  0  0  0  0
    1.5261   -1.7539    3.4338 S   0  0  0  0  0  0  0  0  0  0  0  0
    2.3979   -1.3027    2.3730 O   0  0  0  0  0  0  0  0  0  0  0  0
    0.1197   -2.1197    3.1382 O   0  0  0  0  0  0  0  0  0  0  0  0
    2.2318   -2.9886    4.1797 O   0  0  0  0  0  0  0  0  0  0  0  0
    1.4574   -0.4745    4.8094 C   0  0  0  0  0  0  0  0  0  0  0  0
    0.8461   -1.0312    5.8491 F   0  0  0  0  0  0  0  0  0  0  0  0
    2.6886   -0.1201    5.1197 F   0  0  0  0  0  0  0  0  0  0  0  0
    0.7638    0.5579    4.3549 F   0  0  0  0  0  0  0  0  0  0  0  0
   -0.3501   -1.6086   -0.1735 H   0  0  0  0  0  0  0  0  0  0  0  0
  1  3  1  0  0  0  0
  2  1  1  0  0  0  0
  3  4  1  0  0  0  0
  6 11  1  0  0  0  0
  7  6  2  0  0  0  0
  7  8  1  0  0  0  0
  8  9  2  0  0  0  0
  9 10  1  0  0  0  0
  9 15  1  0  0  0  0
 10 16  1  0  0  0  0
 11 17  1  0  0  0  0
 11 10  2  0  0  0  0
 12  6  1  0  0  0  0
 13  7  1  0  0  0  0
 14  8  1  0  0  0  0
 18 21  1  0  0  0  0
 18 22  1  0  0  0  0
 19 18  2  0  0  0  0
 20 18  2  0  0  0  0
 21  5  1  0  0  0  0
 22 24  1  0  0  0  0
 22 23  1  0  0  0  0
 25 22  1  0  0  0  0
 26  3  1  0  0  0  0
M  RAD  2   1   2   2   3
M  END
