Coordinates from ORCA-job C6H6+HOTf+NH2N2+-scan
 OpenBabel10221816143D

 26 24  0  0  1  0  0  0  0  0999 V2000
   -1.6414    0.4515    6.2639 N   0  0  0  0  0  0  0  0  0  0  0  0
   -1.3960   -0.3938    5.5978 N   0  0  0  0  0  0  0  0  0  0  0  0
   -0.4057   -1.0637   -0.3511 N   0  0  0  0  0  0  0  0  0  0  0  0
   -0.1694   -0.8990    0.6286 H   0  0  0  0  0  0  0  0  0  0  0  0
   -1.0092   -1.9439    4.4514 H   0  0  0  0  0  0  0  0  0  0  0  0
   -0.2338   -2.5610   -2.3308 C   0  0  0  0  0  0  0  0  0  0  0  0
    0.2348   -2.2818   -0.9398 C   0  0  1  0  0  0  0  0  0  0  0  0
    1.5640   -1.6520   -0.8348 C   0  0  0  0  0  0  0  0  0  0  0  0
    2.2269   -1.1382   -1.9587 C   0  0  0  0  0  0  0  0  0  0  0  0
    1.7046   -1.4004   -3.2125 C   0  0  0  0  0  0  0  0  0  0  0  0
    0.4764   -2.1307   -3.4007 C   0  0  0  0  0  0  0  0  0  0  0  0
   -1.1587   -3.1174   -2.4506 H   0  0  0  0  0  0  0  0  0  0  0  0
    0.0609   -3.1168   -0.2566 H   0  0  0  0  0  0  0  0  0  0  0  0
    1.9830   -1.5481    0.1614 H   0  0  0  0  0  0  0  0  0  0  0  0
    3.1501   -0.5805   -1.8449 H   0  0  0  0  0  0  0  0  0  0  0  0
    2.2353   -1.0478   -4.0935 H   0  0  0  0  0  0  0  0  0  0  0  0
    0.1373   -2.3333   -4.4112 H   0  0  0  0  0  0  0  0  0  0  0  0
    0.3447   -2.7389    2.9598 S   0  0  0  0  0  0  0  0  0  0  0  0
    0.1957   -3.8257    2.0075 O   0  0  0  0  0  0  0  0  0  0  0  0
    0.5545   -1.3652    2.4788 O   0  0  0  0  0  0  0  0  0  0  0  0
   -0.8929   -2.7937    3.9695 O   0  0  0  0  0  0  0  0  0  0  0  0
    1.7706   -3.1334    4.1068 C   0  0  0  0  0  0  0  0  0  0  0  0
    1.7546   -2.2548    5.1061 F   0  0  0  0  0  0  0  0  0  0  0  0
    1.6367   -4.3641    4.5677 F   0  0  0  0  0  0  0  0  0  0  0  0
    2.8940   -3.0150    3.4067 F   0  0  0  0  0  0  0  0  0  0  0  0
   -0.3944   -0.2305   -0.9307 H   0  0  0  0  0  0  0  0  0  0  0  0
  2  1  3  0  0  0  0
  3  4  1  0  0  0  0
  6  7  1  0  0  0  0
  7  8  1  0  0  0  0
  7  3  1  0  0  0  0
  7 13  1  1  0  0  0
  8 14  1  0  0  0  0
  9 15  1  0  0  0  0
  9  8  1  0  0  0  0
 10  9  2  0  0  0  0
 11 10  1  0  0  0  0
 11  6  2  0  0  0  0
 12  6  1  0  0  0  0
 16 10  1  0  0  0  0
 17 11  1  0  0  0  0
 18 21  1  0  0  0  0
 18 22  1  0  0  0  0
 19 18  2  0  0  0  0
 20 18  2  0  0  0  0
 21  5  1  0  0  0  0
 22 24  1  0  0  0  0
 22 23  1  0  0  0  0
 25 22  1  0  0  0  0
 26  3  1  0  0  0  0
M  RAD  1   8   2
M  END
