Coordinates from ORCA-job C6H6+HOTf+NH2N2+-scan
 OpenBabel10221816143D

 26 24  0  0  0  0  0  0  0  0999 V2000
   -2.0634   -2.4472    0.5361 N   0  0  0  0  0  0  0  0  0  0  0  0
   -3.0997   -2.8325    0.3366 N   0  0  0  0  0  0  0  0  0  0  0  0
   -0.9031   -1.9963    0.7483 N   0  0  0  0  0  0  0  0  0  0  0  0
   -0.5196   -2.0481    1.7336 H   0  0  0  0  0  0  0  0  0  0  0  0
    1.6565   -3.4267    4.7479 H   0  0  0  0  0  0  0  0  0  0  0  0
   -0.2258   -1.4050   -2.3944 C   0  0  0  0  0  0  0  0  0  0  0  0
   -0.2828   -2.7605   -2.7353 C   0  0  0  0  0  0  0  0  0  0  0  0
    0.6884   -3.6445   -2.2514 C   0  0  0  0  0  0  0  0  0  0  0  0
    1.7146   -3.1808   -1.4226 C   0  0  0  0  0  0  0  0  0  0  0  0
    1.7758   -1.8278   -1.0738 C   0  0  0  0  0  0  0  0  0  0  0  0
    0.8017   -0.9365   -1.5567 C   0  0  0  0  0  0  0  0  0  0  0  0
   -0.9609   -0.7094   -2.7902 H   0  0  0  0  0  0  0  0  0  0  0  0
   -1.0674   -3.1223   -3.3936 H   0  0  0  0  0  0  0  0  0  0  0  0
    0.6498   -4.6937   -2.5295 H   0  0  0  0  0  0  0  0  0  0  0  0
    2.4724   -3.8685   -1.0591 H   0  0  0  0  0  0  0  0  0  0  0  0
    2.5726   -1.4628   -0.4328 H   0  0  0  0  0  0  0  0  0  0  0  0
    0.8687    0.1219   -1.3180 H   0  0  0  0  0  0  0  0  0  0  0  0
    1.5096   -1.6767    3.4881 S   0  0  0  0  0  0  0  0  0  0  0  0
    2.3376   -1.2090    2.3992 O   0  0  0  0  0  0  0  0  0  0  0  0
    0.1096   -2.0924    3.2315 O   0  0  0  0  0  0  0  0  0  0  0  0
    2.2750   -2.8785    4.2285 O   0  0  0  0  0  0  0  0  0  0  0  0
    1.4348   -0.3836    4.8507 C   0  0  0  0  0  0  0  0  0  0  0  0
    0.8667   -0.9463    5.9113 F   0  0  0  0  0  0  0  0  0  0  0  0
    2.6616    0.0124    5.1261 F   0  0  0  0  0  0  0  0  0  0  0  0
    0.6985    0.6213    4.4016 F   0  0  0  0  0  0  0  0  0  0  0  0
   -0.3485   -1.6844   -0.0918 H   0  0  0  0  0  0  0  0  0  0  0  0
  1  3  1  0  0  0  0
  2  1  1  0  0  0  0
  3  4  1  0  0  0  0
  6 11  1  0  0  0  0
  7  6  2  0  0  0  0
  7  8  1  0  0  0  0
  8  9  2  0  0  0  0
  9 10  1  0  0  0  0
  9 15  1  0  0  0  0
 10 16  1  0  0  0  0
 11 17  1  0  0  0  0
 11 10  2  0  0  0  0
 12  6  1  0  0  0  0
 13  7  1  0  0  0  0
 14  8  1  0  0  0  0
 18 21  1  0  0  0  0
 18 22  1  0  0  0  0
 19 18  2  0  0  0  0
 20 18  2  0  0  0  0
 21  5  1  0  0  0  0
 22 24  1  0  0  0  0
 22 23  1  0  0  0  0
 25 22  1  0  0  0  0
 26  3  1  0  0  0  0
M  RAD  2   1   2   2   3
M  END
