Coordinates from ORCA-job C6H6+HOTf+NH2N2+-scan
 OpenBabel10221816143D

 26 25  0  0  1  0  0  0  0  0999 V2000
   -2.9041   -1.0728    6.1217 N   0  0  0  0  0  0  0  0  0  0  0  0
   -2.1626   -1.6230    5.5169 N   0  0  0  0  0  0  0  0  0  0  0  0
    0.4206   -0.9309   -0.3048 N   0  0  0  0  0  0  0  0  0  0  0  0
    0.3787   -0.9749    0.7176 H   0  0  0  0  0  0  0  0  0  0  0  0
   -0.8680   -2.6605    4.4761 H   0  0  0  0  0  0  0  0  0  0  0  0
   -0.6270   -1.5805   -2.5039 C   0  0  0  0  0  0  0  0  0  0  0  0
   -0.2303   -1.9950   -1.1254 C   0  0  1  0  0  0  0  0  0  0  0  0
    1.1562   -2.5365   -0.9820 C   0  0  1  0  0  0  0  0  0  0  0  0
    2.0941   -2.4182   -2.0600 C   0  0  0  0  0  0  0  0  0  0  0  0
    1.6711   -1.9379   -3.2633 C   0  0  0  0  0  0  0  0  0  0  0  0
    0.2916   -1.5311   -3.4905 C   0  0  0  0  0  0  0  0  0  0  0  0
   -1.6706   -1.3452   -2.6863 H   0  0  0  0  0  0  0  0  0  0  0  0
   -1.0188   -2.4867   -0.5571 H   0  0  0  0  0  0  0  0  0  0  0  0
    1.3992   -3.0675   -0.0666 H   0  0  0  0  0  0  0  0  0  0  0  0
    3.1124   -2.7593   -1.9094 H   0  0  0  0  0  0  0  0  0  0  0  0
    2.3675   -1.8812   -4.0951 H   0  0  0  0  0  0  0  0  0  0  0  0
    0.0030   -1.2260   -4.4914 H   0  0  0  0  0  0  0  0  0  0  0  0
    0.8019   -2.5243    3.1050 S   0  0  0  0  0  0  0  0  0  0  0  0
    1.3758   -3.4949    2.1878 O   0  0  0  0  0  0  0  0  0  0  0  0
    0.2078   -1.2855    2.5786 O   0  0  0  0  0  0  0  0  0  0  0  0
   -0.2495   -3.2860    4.0343 O   0  0  0  0  0  0  0  0  0  0  0  0
    2.1050   -2.0285    4.3559 C   0  0  0  0  0  0  0  0  0  0  0  0
    1.5085   -1.3237    5.3138 F   0  0  0  0  0  0  0  0  0  0  0  0
    2.6643   -3.1152    4.8569 F   0  0  0  0  0  0  0  0  0  0  0  0
    3.0056   -1.2844    3.7258 F   0  0  0  0  0  0  0  0  0  0  0  0
    0.7902   -0.1084   -0.7644 H   0  0  0  0  0  0  0  0  0  0  0  0
  2  1  3  0  0  0  0
  3  4  1  0  0  0  0
  6  7  1  0  0  0  0
  7  8  1  0  0  0  0
  7 13  1  1  0  0  0
  7  3  1  0  0  0  0
  8  3  1  0  0  0  0
  8 14  1  1  0  0  0
  9 15  1  0  0  0  0
  9  8  1  0  0  0  0
 10  9  2  0  0  0  0
 11 10  1  0  0  0  0
 11  6  2  0  0  0  0
 12  6  1  0  0  0  0
 16 10  1  0  0  0  0
 17 11  1  0  0  0  0
 18 21  1  0  0  0  0
 18 22  1  0  0  0  0
 19 18  2  0  0  0  0
 20 18  2  0  0  0  0
 21  5  1  0  0  0  0
 22 24  1  0  0  0  0
 22 23  1  0  0  0  0
 25 22  1  0  0  0  0
 26  3  1  0  0  0  0
M  END
