Coordinates from ORCA-job C6H6+HOTf+NH2N2+-scan
 OpenBabel10221816143D

 26 24  0  0  0  0  0  0  0  0999 V2000
   -2.1038   -2.6197    0.7185 N   0  0  0  0  0  0  0  0  0  0  0  0
   -3.1152   -3.0590    0.5028 N   0  0  0  0  0  0  0  0  0  0  0  0
   -0.9736   -2.0988    0.9363 N   0  0  0  0  0  0  0  0  0  0  0  0
   -0.6074   -2.0955    1.9291 H   0  0  0  0  0  0  0  0  0  0  0  0
    1.7197   -3.2101    4.9430 H   0  0  0  0  0  0  0  0  0  0  0  0
   -0.1546   -1.3539   -2.2862 C   0  0  0  0  0  0  0  0  0  0  0  0
   -0.2013   -2.5558   -2.9977 C   0  0  0  0  0  0  0  0  0  0  0  0
    0.7359   -3.5616   -2.7346 C   0  0  0  0  0  0  0  0  0  0  0  0
    1.7095   -3.3783   -1.7471 C   0  0  0  0  0  0  0  0  0  0  0  0
    1.7611   -2.1805   -1.0291 C   0  0  0  0  0  0  0  0  0  0  0  0
    0.8281   -1.1625   -1.2977 C   0  0  0  0  0  0  0  0  0  0  0  0
   -0.8565   -0.5563   -2.5146 H   0  0  0  0  0  0  0  0  0  0  0  0
   -0.9497   -2.6997   -3.7714 H   0  0  0  0  0  0  0  0  0  0  0  0
    0.7075   -4.4878   -3.3010 H   0  0  0  0  0  0  0  0  0  0  0  0
    2.4372   -4.1599   -1.5505 H   0  0  0  0  0  0  0  0  0  0  0  0
    2.5260   -2.0235   -0.2742 H   0  0  0  0  0  0  0  0  0  0  0  0
    0.9171   -0.2006   -0.7966 H   0  0  0  0  0  0  0  0  0  0  0  0
    1.4546   -1.5640    3.5682 S   0  0  0  0  0  0  0  0  0  0  0  0
    2.2081   -1.1630    2.4003 O   0  0  0  0  0  0  0  0  0  0  0  0
    0.0565   -2.0339    3.4181 O   0  0  0  0  0  0  0  0  0  0  0  0
    2.2942   -2.6831    4.3554 O   0  0  0  0  0  0  0  0  0  0  0  0
    1.4157   -0.1678    4.8272 C   0  0  0  0  0  0  0  0  0  0  0  0
    0.9182   -0.6566    5.9572 F   0  0  0  0  0  0  0  0  0  0  0  0
    2.6443    0.2759    5.0042 F   0  0  0  0  0  0  0  0  0  0  0  0
    0.6310    0.7808    4.3397 F   0  0  0  0  0  0  0  0  0  0  0  0
   -0.3801   -1.8626    0.0910 H   0  0  0  0  0  0  0  0  0  0  0  0
  1  3  1  0  0  0  0
  2  1  1  0  0  0  0
  3  4  1  0  0  0  0
  6 11  2  0  0  0  0
  7  8  2  0  0  0  0
  7  6  1  0  0  0  0
  8  9  1  0  0  0  0
  9 15  1  0  0  0  0
  9 10  2  0  0  0  0
 10 16  1  0  0  0  0
 11 10  1  0  0  0  0
 11 17  1  0  0  0  0
 12  6  1  0  0  0  0
 13  7  1  0  0  0  0
 14  8  1  0  0  0  0
 18 21  1  0  0  0  0
 18 22  1  0  0  0  0
 19 18  2  0  0  0  0
 20 18  2  0  0  0  0
 21  5  1  0  0  0  0
 22 24  1  0  0  0  0
 22 23  1  0  0  0  0
 25 22  1  0  0  0  0
 26  3  1  0  0  0  0
M  RAD  2   1   2   2   3
M  END
