Coordinates from ORCA-job C6H6+HOTf+NH2N2+-scan
 OpenBabel10221816143D

 26 25  0  0  1  0  0  0  0  0999 V2000
   -2.0740    0.4687    6.0419 N   0  0  0  0  0  0  0  0  0  0  0  0
   -1.7158   -0.3741    5.4256 N   0  0  0  0  0  0  0  0  0  0  0  0
    0.6069   -1.2304   -0.3449 N   0  0  0  0  0  0  0  0  0  0  0  0
    0.5401   -1.1951    0.6925 H   0  0  0  0  0  0  0  0  0  0  0  0
   -1.1503   -1.9157    4.3811 H   0  0  0  0  0  0  0  0  0  0  0  0
   -0.3434   -2.6002   -2.2501 C   0  0  0  0  0  0  0  0  0  0  0  0
    0.3892   -2.5821   -0.9809 C   0  0  1  0  0  0  0  0  0  0  0  0
    1.6756   -1.7613   -0.9104 C   0  0  1  0  0  0  0  0  0  0  0  0
    2.1713   -1.1983   -2.1926 C   0  0  0  0  0  0  0  0  0  0  0  0
    1.3736   -1.1839   -3.2823 C   0  0  0  0  0  0  0  0  0  0  0  0
    0.0919   -1.8752   -3.3063 C   0  0  0  0  0  0  0  0  0  0  0  0
   -1.2153   -3.2420   -2.3163 H   0  0  0  0  0  0  0  0  0  0  0  0
    0.2211   -3.3392   -0.2226 H   0  0  0  0  0  0  0  0  0  0  0  0
    2.4477   -2.0822   -0.2132 H   0  0  0  0  0  0  0  0  0  0  0  0
    3.1943   -0.8394   -2.2276 H   0  0  0  0  0  0  0  0  0  0  0  0
    1.7306   -0.7372   -4.2052 H   0  0  0  0  0  0  0  0  0  0  0  0
   -0.4713   -1.8829   -4.2342 H   0  0  0  0  0  0  0  0  0  0  0  0
    0.3522   -2.7071    3.0312 S   0  0  0  0  0  0  0  0  0  0  0  0
    0.3483   -3.8493    2.1358 O   0  0  0  0  0  0  0  0  0  0  0  0
    0.5093   -1.3513    2.4663 O   0  0  0  0  0  0  0  0  0  0  0  0
   -0.9560   -2.7745    3.9389 O   0  0  0  0  0  0  0  0  0  0  0  0
    1.7099   -2.9192    4.3068 C   0  0  0  0  0  0  0  0  0  0  0  0
    1.5468   -1.9830    5.2372 F   0  0  0  0  0  0  0  0  0  0  0  0
    1.6218   -4.1249    4.8355 F   0  0  0  0  0  0  0  0  0  0  0  0
    2.8708   -2.7595    3.6846 F   0  0  0  0  0  0  0  0  0  0  0  0
    0.1475   -0.4387   -0.8006 H   0  0  0  0  0  0  0  0  0  0  0  0
  2  1  3  0  0  0  0
  3  4  1  0  0  0  0
  6  7  1  0  0  0  0
  7  8  1  0  0  0  0
  7  3  1  0  0  0  0
  7 13  1  1  0  0  0
  8  3  1  0  0  0  0
  8 14  1  1  0  0  0
  9  8  1  0  0  0  0
 10  9  2  0  0  0  0
 11 10  1  0  0  0  0
 11  6  2  0  0  0  0
 12  6  1  0  0  0  0
 15  9  1  0  0  0  0
 16 10  1  0  0  0  0
 17 11  1  0  0  0  0
 18 21  1  0  0  0  0
 18 22  1  0  0  0  0
 19 18  2  0  0  0  0
 20 18  2  0  0  0  0
 21  5  1  0  0  0  0
 22 24  1  0  0  0  0
 22 23  1  0  0  0  0
 25 22  1  0  0  0  0
 26  3  1  0  0  0  0
M  END
