Coordinates from ORCA-job C6H6+HOTf+NH2N2+-scan
 OpenBabel10221816143D

 26 24  0  0  0  0  0  0  0  0999 V2000
   -2.9156   -2.2858    1.9462 N   0  0  0  0  0  0  0  0  0  0  0  0
   -4.0293   -2.3985    2.0189 N   0  0  0  0  0  0  0  0  0  0  0  0
   -1.6576   -2.1410    1.9042 N   0  0  0  0  0  0  0  0  0  0  0  0
   -1.1064   -1.9868    2.8205 H   0  0  0  0  0  0  0  0  0  0  0  0
    1.4605   -2.9523    5.5558 H   0  0  0  0  0  0  0  0  0  0  0  0
   -0.1524   -1.7598   -2.7125 C   0  0  0  0  0  0  0  0  0  0  0  0
    0.4285   -2.4325   -3.7911 C   0  0  0  0  0  0  0  0  0  0  0  0
    1.6360   -3.1185   -3.6244 C   0  0  0  0  0  0  0  0  0  0  0  0
    2.2543   -3.1426   -2.3701 C   0  0  0  0  0  0  0  0  0  0  0  0
    1.6782   -2.4701   -1.2880 C   0  0  0  0  0  0  0  0  0  0  0  0
    0.4772   -1.7740   -1.4630 C   0  0  0  0  0  0  0  0  0  0  0  0
   -1.0780   -1.2082   -2.8549 H   0  0  0  0  0  0  0  0  0  0  0  0
   -0.0540   -2.4115   -4.7640 H   0  0  0  0  0  0  0  0  0  0  0  0
    2.0908   -3.6327   -4.4658 H   0  0  0  0  0  0  0  0  0  0  0  0
    3.1919   -3.6747   -2.2380 H   0  0  0  0  0  0  0  0  0  0  0  0
    2.1738   -2.4697   -0.3208 H   0  0  0  0  0  0  0  0  0  0  0  0
    0.0681   -1.1800   -0.6426 H   0  0  0  0  0  0  0  0  0  0  0  0
    1.2513   -1.6769    3.8211 S   0  0  0  0  0  0  0  0  0  0  0  0
    1.7563   -1.8021    2.4723 O   0  0  0  0  0  0  0  0  0  0  0  0
   -0.2179   -1.7618    4.0525 O   0  0  0  0  0  0  0  0  0  0  0  0
    1.9785   -2.7597    4.7506 O   0  0  0  0  0  0  0  0  0  0  0  0
    1.8166   -0.0567    4.5981 C   0  0  0  0  0  0  0  0  0  0  0  0
    1.5065   -0.1015    5.8873 F   0  0  0  0  0  0  0  0  0  0  0  0
    3.1169    0.0574    4.4245 F   0  0  0  0  0  0  0  0  0  0  0  0
    1.1624    0.9178    3.9878 F   0  0  0  0  0  0  0  0  0  0  0  0
   -1.2141   -2.2558    0.9855 H   0  0  0  0  0  0  0  0  0  0  0  0
  1  2  1  0  0  0  0
  3  1  1  0  0  0  0
  3  4  1  0  0  0  0
  6 11  2  0  0  0  0
  7  8  2  0  0  0  0
  7  6  1  0  0  0  0
  8  9  1  0  0  0  0
  9 15  1  0  0  0  0
  9 10  2  0  0  0  0
 10 16  1  0  0  0  0
 11 10  1  0  0  0  0
 11 17  1  0  0  0  0
 12  6  1  0  0  0  0
 13  7  1  0  0  0  0
 14  8  1  0  0  0  0
 18 20  2  0  0  0  0
 18 22  1  0  0  0  0
 18 21  1  0  0  0  0
 19 18  2  0  0  0  0
 21  5  1  0  0  0  0
 22 23  1  0  0  0  0
 24 22  1  0  0  0  0
 25 22  1  0  0  0  0
 26  3  1  0  0  0  0
M  RAD  2   1   2   2   3
M  END
