Coordinates from ORCA-job C6H6+HOTf+NH2N2+-scan
 OpenBabel10221816143D

 26 25  0  0  1  0  0  0  0  0999 V2000
   -2.0692    0.4945    5.9949 N   0  0  0  0  0  0  0  0  0  0  0  0
   -1.7114   -0.3537    5.3858 N   0  0  0  0  0  0  0  0  0  0  0  0
    0.6513   -1.2629   -0.3544 N   0  0  0  0  0  0  0  0  0  0  0  0
    0.5717   -1.2267    0.6855 H   0  0  0  0  0  0  0  0  0  0  0  0
   -1.1504   -1.9051    4.3567 H   0  0  0  0  0  0  0  0  0  0  0  0
   -0.3401   -2.6073   -2.2403 C   0  0  0  0  0  0  0  0  0  0  0  0
    0.3994   -2.6087   -0.9800 C   0  0  1  0  0  0  0  0  0  0  0  0
    1.6634   -1.7380   -0.8915 C   0  0  1  0  0  0  0  0  0  0  0  0
    2.1586   -1.1837   -2.1816 C   0  0  0  0  0  0  0  0  0  0  0  0
    1.3493   -1.1553   -3.2630 C   0  0  0  0  0  0  0  0  0  0  0  0
    0.0704   -1.8487   -3.2844 C   0  0  0  0  0  0  0  0  0  0  0  0
   -1.2018   -3.2623   -2.3125 H   0  0  0  0  0  0  0  0  0  0  0  0
    0.2489   -3.3639   -0.2175 H   0  0  0  0  0  0  0  0  0  0  0  0
    2.4570   -2.0677   -0.2199 H   0  0  0  0  0  0  0  0  0  0  0  0
    3.1881   -0.8453   -2.2266 H   0  0  0  0  0  0  0  0  0  0  0  0
    1.7007   -0.7049   -4.1864 H   0  0  0  0  0  0  0  0  0  0  0  0
   -0.5063   -1.8400   -4.2037 H   0  0  0  0  0  0  0  0  0  0  0  0
    0.3542   -2.7228    3.0236 S   0  0  0  0  0  0  0  0  0  0  0  0
    0.3504   -3.8771    2.1446 O   0  0  0  0  0  0  0  0  0  0  0  0
    0.5214   -1.3752    2.4396 O   0  0  0  0  0  0  0  0  0  0  0  0
   -0.9604   -2.7693    3.9228 O   0  0  0  0  0  0  0  0  0  0  0  0
    1.7031   -2.9200    4.3114 C   0  0  0  0  0  0  0  0  0  0  0  0
    1.5349   -1.9708    5.2276 F   0  0  0  0  0  0  0  0  0  0  0  0
    1.6085   -4.1181    4.8556 F   0  0  0  0  0  0  0  0  0  0  0  0
    2.8683   -2.7707    3.6951 F   0  0  0  0  0  0  0  0  0  0  0  0
    0.1630   -0.4744   -0.7912 H   0  0  0  0  0  0  0  0  0  0  0  0
  2  1  3  0  0  0  0
  3  4  1  0  0  0  0
  6  7  1  0  0  0  0
  7  8  1  0  0  0  0
  7  3  1  0  0  0  0
  7 13  1  1  0  0  0
  8  3  1  0  0  0  0
  8 14  1  1  0  0  0
  9  8  1  0  0  0  0
 10  9  2  0  0  0  0
 11 10  1  0  0  0  0
 11  6  2  0  0  0  0
 12  6  1  0  0  0  0
 15  9  1  0  0  0  0
 16 10  1  0  0  0  0
 17 11  1  0  0  0  0
 18 21  1  0  0  0  0
 18 22  1  0  0  0  0
 19 18  2  0  0  0  0
 20 18  2  0  0  0  0
 21  5  1  0  0  0  0
 22 24  1  0  0  0  0
 22 23  1  0  0  0  0
 25 22  1  0  0  0  0
 26  3  1  0  0  0  0
M  END
