Coordinates from ORCA-job C6H6+HOTf+NH2N2+-scan
 OpenBabel10221816143D

 26 24  0  0  0  0  0  0  0  0999 V2000
   -2.0365   -2.4628    0.4957 N   0  0  0  0  0  0  0  0  0  0  0  0
   -3.0680   -2.8587    0.2930 N   0  0  0  0  0  0  0  0  0  0  0  0
   -0.8821   -2.0010    0.7168 N   0  0  0  0  0  0  0  0  0  0  0  0
   -0.5029   -2.0562    1.7036 H   0  0  0  0  0  0  0  0  0  0  0  0
    1.6491   -3.4495    4.7284 H   0  0  0  0  0  0  0  0  0  0  0  0
   -0.2279   -1.3957   -2.4032 C   0  0  0  0  0  0  0  0  0  0  0  0
   -0.3054   -2.7650   -2.6805 C   0  0  0  0  0  0  0  0  0  0  0  0
    0.6587   -3.6385   -2.1640 C   0  0  0  0  0  0  0  0  0  0  0  0
    1.7011   -3.1499   -1.3704 C   0  0  0  0  0  0  0  0  0  0  0  0
    1.7824   -1.7828   -1.0854 C   0  0  0  0  0  0  0  0  0  0  0  0
    0.8135   -0.9028   -1.5977 C   0  0  0  0  0  0  0  0  0  0  0  0
   -0.9594   -0.7098   -2.8216 H   0  0  0  0  0  0  0  0  0  0  0  0
   -1.1010   -3.1466   -3.3141 H   0  0  0  0  0  0  0  0  0  0  0  0
    0.6037   -4.6990   -2.3923 H   0  0  0  0  0  0  0  0  0  0  0  0
    2.4544   -3.8296   -0.9835 H   0  0  0  0  0  0  0  0  0  0  0  0
    2.5901   -1.3993   -0.4693 H   0  0  0  0  0  0  0  0  0  0  0  0
    0.8913    0.1634   -1.4019 H   0  0  0  0  0  0  0  0  0  0  0  0
    1.5148   -1.6941    3.4745 S   0  0  0  0  0  0  0  0  0  0  0  0
    2.3525   -1.2222    2.3951 O   0  0  0  0  0  0  0  0  0  0  0  0
    0.1162   -2.1066    3.2046 O   0  0  0  0  0  0  0  0  0  0  0  0
    2.2724   -2.9008    4.2153 O   0  0  0  0  0  0  0  0  0  0  0  0
    1.4300   -0.4080    4.8431 C   0  0  0  0  0  0  0  0  0  0  0  0
    0.8531   -0.9757    5.8962 F   0  0  0  0  0  0  0  0  0  0  0  0
    2.6549   -0.0145    5.1305 F   0  0  0  0  0  0  0  0  0  0  0  0
    0.6981    0.5998    4.3934 F   0  0  0  0  0  0  0  0  0  0  0  0
   -0.3304   -1.6720   -0.1162 H   0  0  0  0  0  0  0  0  0  0  0  0
  1  3  1  0  0  0  0
  2  1  1  0  0  0  0
  3  4  1  0  0  0  0
  6 11  1  0  0  0  0
  7  6  2  0  0  0  0
  7  8  1  0  0  0  0
  8  9  2  0  0  0  0
  9 10  1  0  0  0  0
  9 15  1  0  0  0  0
 10 16  1  0  0  0  0
 11 17  1  0  0  0  0
 11 10  2  0  0  0  0
 12  6  1  0  0  0  0
 13  7  1  0  0  0  0
 14  8  1  0  0  0  0
 18 21  1  0  0  0  0
 18 22  1  0  0  0  0
 19 18  2  0  0  0  0
 20 18  2  0  0  0  0
 21  5  1  0  0  0  0
 22 24  1  0  0  0  0
 22 23  1  0  0  0  0
 25 22  1  0  0  0  0
 26  3  1  0  0  0  0
M  RAD  2   1   2   2   3
M  END
