Coordinates from ORCA-job C6H6+HOTf+NH2N2+-scan
 OpenBabel10221816143D

 26 24  0  0  0  0  0  0  0  0999 V2000
   -2.1981   -2.6561    0.8769 N   0  0  0  0  0  0  0  0  0  0  0  0
   -3.2136   -3.0990    0.6909 N   0  0  0  0  0  0  0  0  0  0  0  0
   -1.0659   -2.1213    1.0560 N   0  0  0  0  0  0  0  0  0  0  0  0
   -0.6780   -2.1005    2.0408 H   0  0  0  0  0  0  0  0  0  0  0  0
    1.7462   -3.1182    5.0172 H   0  0  0  0  0  0  0  0  0  0  0  0
   -0.1220   -1.3689   -2.2535 C   0  0  0  0  0  0  0  0  0  0  0  0
   -0.1003   -2.4535   -3.1333 C   0  0  0  0  0  0  0  0  0  0  0  0
    0.8374   -3.4781   -2.9592 C   0  0  0  0  0  0  0  0  0  0  0  0
    1.7385   -3.4348   -1.8899 C   0  0  0  0  0  0  0  0  0  0  0  0
    1.7227   -2.3542   -1.0046 C   0  0  0  0  0  0  0  0  0  0  0  0
    0.7933   -1.3136   -1.1864 C   0  0  0  0  0  0  0  0  0  0  0  0
   -0.8204   -0.5515   -2.4130 H   0  0  0  0  0  0  0  0  0  0  0  0
   -0.7951   -2.4893   -3.9670 H   0  0  0  0  0  0  0  0  0  0  0  0
    0.8639   -4.3107   -3.6561 H   0  0  0  0  0  0  0  0  0  0  0  0
    2.4653   -4.2311   -1.7602 H   0  0  0  0  0  0  0  0  0  0  0  0
    2.4403   -2.2978   -0.1911 H   0  0  0  0  0  0  0  0  0  0  0  0
    0.8548   -0.4207   -0.5659 H   0  0  0  0  0  0  0  0  0  0  0  0
    1.4287   -1.5281    3.5887 S   0  0  0  0  0  0  0  0  0  0  0  0
    2.1364   -1.1779    2.3760 O   0  0  0  0  0  0  0  0  0  0  0  0
    0.0265   -2.0032    3.5096 O   0  0  0  0  0  0  0  0  0  0  0  0
    2.2983   -2.6135    4.3898 O   0  0  0  0  0  0  0  0  0  0  0  0
    1.4375   -0.0788    4.7871 C   0  0  0  0  0  0  0  0  0  0  0  0
    0.9817   -0.5175    5.9544 F   0  0  0  0  0  0  0  0  0  0  0  0
    2.6722    0.3690    4.8991 F   0  0  0  0  0  0  0  0  0  0  0  0
    0.6360    0.8495    4.2880 F   0  0  0  0  0  0  0  0  0  0  0  0
   -0.4634   -1.9783    0.1960 H   0  0  0  0  0  0  0  0  0  0  0  0
  1  3  1  0  0  0  0
  2  1  1  0  0  0  0
  3  4  1  0  0  0  0
  6 11  2  0  0  0  0
  7  8  2  0  0  0  0
  7  6  1  0  0  0  0
  8  9  1  0  0  0  0
  9 15  1  0  0  0  0
  9 10  2  0  0  0  0
 10 16  1  0  0  0  0
 11 10  1  0  0  0  0
 11 17  1  0  0  0  0
 12  6  1  0  0  0  0
 13  7  1  0  0  0  0
 14  8  1  0  0  0  0
 18 21  1  0  0  0  0
 18 22  1  0  0  0  0
 19 18  2  0  0  0  0
 20 18  2  0  0  0  0
 21  5  1  0  0  0  0
 22 24  1  0  0  0  0
 22 23  1  0  0  0  0
 25 22  1  0  0  0  0
 26  3  1  0  0  0  0
M  RAD  2   1   2   2   3
M  END
