Coordinates from ORCA-job C6H6+HOTf+NH2N2+-scan
 OpenBabel10221816143D

 26 24  0  0  0  0  0  0  0  0999 V2000
   -2.7139   -2.3385    1.6176 N   0  0  0  0  0  0  0  0  0  0  0  0
   -3.8174   -2.5421    1.6213 N   0  0  0  0  0  0  0  0  0  0  0  0
   -1.4723   -2.0895    1.6367 N   0  0  0  0  0  0  0  0  0  0  0  0
   -0.9710   -1.9929    2.5815 H   0  0  0  0  0  0  0  0  0  0  0  0
    1.5545   -3.0466    5.3508 H   0  0  0  0  0  0  0  0  0  0  0  0
   -0.1927   -1.7021   -2.5706 C   0  0  0  0  0  0  0  0  0  0  0  0
    0.2781   -2.4770   -3.6338 C   0  0  0  0  0  0  0  0  0  0  0  0
    1.4437   -3.2385   -3.4895 C   0  0  0  0  0  0  0  0  0  0  0  0
    2.1237   -3.2417   -2.2663 C   0  0  0  0  0  0  0  0  0  0  0  0
    1.6590   -2.4677   -1.1986 C   0  0  0  0  0  0  0  0  0  0  0  0
    0.5042   -1.6890   -1.3545 C   0  0  0  0  0  0  0  0  0  0  0  0
   -1.0769   -1.0841   -2.7028 H   0  0  0  0  0  0  0  0  0  0  0  0
   -0.2531   -2.4729   -4.5810 H   0  0  0  0  0  0  0  0  0  0  0  0
    1.8161   -3.8278   -4.3218 H   0  0  0  0  0  0  0  0  0  0  0  0
    3.0273   -3.8331   -2.1503 H   0  0  0  0  0  0  0  0  0  0  0  0
    2.2101   -2.4433   -0.2624 H   0  0  0  0  0  0  0  0  0  0  0  0
    0.2133   -0.9866   -0.5700 H   0  0  0  0  0  0  0  0  0  0  0  0
    1.3235   -1.6053    3.7550 S   0  0  0  0  0  0  0  0  0  0  0  0
    1.9072   -1.5368    2.4339 O   0  0  0  0  0  0  0  0  0  0  0  0
   -0.1410   -1.8286    3.8911 O   0  0  0  0  0  0  0  0  0  0  0  0
    2.0941   -2.7262    4.6025 O   0  0  0  0  0  0  0  0  0  0  0  0
    1.7150   -0.0454    4.7341 C   0  0  0  0  0  0  0  0  0  0  0  0
    1.3475   -0.2582    5.9913 F   0  0  0  0  0  0  0  0  0  0  0  0
    3.0087    0.1877    4.6498 F   0  0  0  0  0  0  0  0  0  0  0  0
    1.0136    0.9399    4.1973 F   0  0  0  0  0  0  0  0  0  0  0  0
   -0.9789   -2.1318    0.7290 H   0  0  0  0  0  0  0  0  0  0  0  0
  1  2  1  0  0  0  0
  1  3  1  0  0  0  0
  3  4  1  0  0  0  0
  6 11  2  0  0  0  0
  7  8  2  0  0  0  0
  7  6  1  0  0  0  0
  8  9  1  0  0  0  0
  9 15  1  0  0  0  0
  9 10  2  0  0  0  0
 10 16  1  0  0  0  0
 11 10  1  0  0  0  0
 11 17  1  0  0  0  0
 12  6  1  0  0  0  0
 13  7  1  0  0  0  0
 14  8  1  0  0  0  0
 18 20  2  0  0  0  0
 18 21  1  0  0  0  0
 18 22  1  0  0  0  0
 19 18  2  0  0  0  0
 21  5  1  0  0  0  0
 22 23  1  0  0  0  0
 24 22  1  0  0  0  0
 25 22  1  0  0  0  0
 26  3  1  0  0  0  0
M  RAD  2   1   2   2   3
M  END
