Coordinates from ORCA-job C6H6+HOTf+NH2N2+-scan
 OpenBabel10221816143D

 26 24  0  0  0  0  0  0  0  0999 V2000
   -2.8890   -2.2945    1.8995 N   0  0  0  0  0  0  0  0  0  0  0  0
   -4.0023   -2.4170    1.9625 N   0  0  0  0  0  0  0  0  0  0  0  0
   -1.6321   -2.1395    1.8667 N   0  0  0  0  0  0  0  0  0  0  0  0
   -1.0889   -1.9894    2.7875 H   0  0  0  0  0  0  0  0  0  0  0  0
    1.4594   -2.9589    5.5410 H   0  0  0  0  0  0  0  0  0  0  0  0
   -0.1622   -1.7553   -2.6897 C   0  0  0  0  0  0  0  0  0  0  0  0
    0.4088   -2.4363   -3.7683 C   0  0  0  0  0  0  0  0  0  0  0  0
    1.6143   -3.1271   -3.6057 C   0  0  0  0  0  0  0  0  0  0  0  0
    2.2396   -3.1486   -2.3547 C   0  0  0  0  0  0  0  0  0  0  0  0
    1.6736   -2.4678   -1.2724 C   0  0  0  0  0  0  0  0  0  0  0  0
    0.4751   -1.7660   -1.4438 C   0  0  0  0  0  0  0  0  0  0  0  0
   -1.0853   -1.1989   -2.8296 H   0  0  0  0  0  0  0  0  0  0  0  0
   -0.0793   -2.4175   -4.7384 H   0  0  0  0  0  0  0  0  0  0  0  0
    2.0617   -3.6473   -4.4474 H   0  0  0  0  0  0  0  0  0  0  0  0
    3.1754   -3.6846   -2.2255 H   0  0  0  0  0  0  0  0  0  0  0  0
    2.1755   -2.4643   -0.3085 H   0  0  0  0  0  0  0  0  0  0  0  0
    0.0772   -1.1609   -0.6258 H   0  0  0  0  0  0  0  0  0  0  0  0
    1.2598   -1.6727    3.8132 S   0  0  0  0  0  0  0  0  0  0  0  0
    1.7780   -1.7864    2.4684 O   0  0  0  0  0  0  0  0  0  0  0  0
   -0.2107   -1.7655    4.0307 O   0  0  0  0  0  0  0  0  0  0  0  0
    1.9839   -2.7584    4.7419 O   0  0  0  0  0  0  0  0  0  0  0  0
    1.8111   -0.0554    4.6060 C   0  0  0  0  0  0  0  0  0  0  0  0
    1.4897   -0.1101    5.8920 F   0  0  0  0  0  0  0  0  0  0  0  0
    3.1125    0.0656    4.4449 F   0  0  0  0  0  0  0  0  0  0  0  0
    1.1582    0.9205    3.9964 F   0  0  0  0  0  0  0  0  0  0  0  0
   -1.1815   -2.2419    0.9490 H   0  0  0  0  0  0  0  0  0  0  0  0
  1  2  1  0  0  0  0
  3  1  1  0  0  0  0
  3  4  1  0  0  0  0
  6 11  2  0  0  0  0
  7  8  2  0  0  0  0
  7  6  1  0  0  0  0
  8  9  1  0  0  0  0
  9 15  1  0  0  0  0
  9 10  2  0  0  0  0
 10 16  1  0  0  0  0
 11 10  1  0  0  0  0
 11 17  1  0  0  0  0
 12  6  1  0  0  0  0
 13  7  1  0  0  0  0
 14  8  1  0  0  0  0
 18 20  2  0  0  0  0
 18 22  1  0  0  0  0
 18 21  1  0  0  0  0
 19 18  2  0  0  0  0
 21  5  1  0  0  0  0
 22 23  1  0  0  0  0
 24 22  1  0  0  0  0
 25 22  1  0  0  0  0
 26  3  1  0  0  0  0
M  RAD  2   1   2   2   3
M  END
