Coordinates from ORCA-job C6H6+HOTf+NH2N2+-scan
 OpenBabel10221816143D

 26 24  0  0  0  0  0  0  0  0999 V2000
   -2.0949   -2.6886    0.7360 N   0  0  0  0  0  0  0  0  0  0  0  0
   -3.0960   -3.1524    0.5240 N   0  0  0  0  0  0  0  0  0  0  0  0
   -0.9790   -2.1339    0.9483 N   0  0  0  0  0  0  0  0  0  0  0  0
   -0.6111   -2.1215    1.9403 H   0  0  0  0  0  0  0  0  0  0  0  0
    1.7383   -3.1661    4.9681 H   0  0  0  0  0  0  0  0  0  0  0  0
   -0.1221   -1.3193   -2.2533 C   0  0  0  0  0  0  0  0  0  0  0  0
   -0.1923   -2.4916   -3.0107 C   0  0  0  0  0  0  0  0  0  0  0  0
    0.7163   -3.5307   -2.7780 C   0  0  0  0  0  0  0  0  0  0  0  0
    1.6852   -3.4102   -1.7766 C   0  0  0  0  0  0  0  0  0  0  0  0
    1.7603   -2.2421   -1.0128 C   0  0  0  0  0  0  0  0  0  0  0  0
    0.8556   -1.1913   -1.2499 C   0  0  0  0  0  0  0  0  0  0  0  0
   -0.8023   -0.4964   -2.4559 H   0  0  0  0  0  0  0  0  0  0  0  0
   -0.9368   -2.5868   -3.7955 H   0  0  0  0  0  0  0  0  0  0  0  0
    0.6694   -4.4337   -3.3795 H   0  0  0  0  0  0  0  0  0  0  0  0
    2.3911   -4.2171   -1.6041 H   0  0  0  0  0  0  0  0  0  0  0  0
    2.5224   -2.1323   -0.2468 H   0  0  0  0  0  0  0  0  0  0  0  0
    0.9630   -0.2531   -0.7094 H   0  0  0  0  0  0  0  0  0  0  0  0
    1.4483   -1.5481    3.5652 S   0  0  0  0  0  0  0  0  0  0  0  0
    2.1924   -1.1601    2.3867 O   0  0  0  0  0  0  0  0  0  0  0  0
    0.0556   -2.0377    3.4290 O   0  0  0  0  0  0  0  0  0  0  0  0
    2.3044   -2.6421    4.3697 O   0  0  0  0  0  0  0  0  0  0  0  0
    1.3980   -0.1289    4.7978 C   0  0  0  0  0  0  0  0  0  0  0  0
    0.9100   -0.6017    5.9385 F   0  0  0  0  0  0  0  0  0  0  0  0
    2.6221    0.3320    4.9617 F   0  0  0  0  0  0  0  0  0  0  0  0
    0.6009    0.8014    4.2951 F   0  0  0  0  0  0  0  0  0  0  0  0
   -0.3763   -1.9254    0.1023 H   0  0  0  0  0  0  0  0  0  0  0  0
  1  3  1  0  0  0  0
  2  1  1  0  0  0  0
  3  4  1  0  0  0  0
  6 11  2  0  0  0  0
  7  8  2  0  0  0  0
  7  6  1  0  0  0  0
  8  9  1  0  0  0  0
  9 15  1  0  0  0  0
  9 10  2  0  0  0  0
 10 16  1  0  0  0  0
 11 10  1  0  0  0  0
 11 17  1  0  0  0  0
 12  6  1  0  0  0  0
 13  7  1  0  0  0  0
 14  8  1  0  0  0  0
 18 21  1  0  0  0  0
 18 22  1  0  0  0  0
 19 18  2  0  0  0  0
 20 18  2  0  0  0  0
 21  5  1  0  0  0  0
 22 24  1  0  0  0  0
 22 23  1  0  0  0  0
 25 22  1  0  0  0  0
 26  3  1  0  0  0  0
M  RAD  2   1   2   2   3
M  END
