Coordinates from ORCA-job C6H6+HOTf+NH2N2+-scan
 OpenBabel10221816143D

 26 24  0  0  0  0  0  0  0  0999 V2000
   -2.1201   -2.6849    0.7702 N   0  0  0  0  0  0  0  0  0  0  0  0
   -3.1247   -3.1433    0.5629 N   0  0  0  0  0  0  0  0  0  0  0  0
   -1.0003   -2.1353    0.9755 N   0  0  0  0  0  0  0  0  0  0  0  0
   -0.6283   -2.1208    1.9659 H   0  0  0  0  0  0  0  0  0  0  0  0
    1.7471   -3.1499    4.9791 H   0  0  0  0  0  0  0  0  0  0  0  0
   -0.1182   -1.3279   -2.2480 C   0  0  0  0  0  0  0  0  0  0  0  0
   -0.1687   -2.4767   -3.0418 C   0  0  0  0  0  0  0  0  0  0  0  0
    0.7436   -3.5165   -2.8273 C   0  0  0  0  0  0  0  0  0  0  0  0
    1.6953   -3.4211   -1.8066 C   0  0  0  0  0  0  0  0  0  0  0  0
    1.7509   -2.2765   -1.0067 C   0  0  0  0  0  0  0  0  0  0  0  0
    0.8436   -1.2241   -1.2264 C   0  0  0  0  0  0  0  0  0  0  0  0
   -0.8001   -0.5031   -2.4370 H   0  0  0  0  0  0  0  0  0  0  0  0
   -0.9005   -2.5526   -3.8405 H   0  0  0  0  0  0  0  0  0  0  0  0
    0.7125   -4.4007   -3.4570 H   0  0  0  0  0  0  0  0  0  0  0  0
    2.4037   -4.2286   -1.6476 H   0  0  0  0  0  0  0  0  0  0  0  0
    2.5017   -2.1844   -0.2273 H   0  0  0  0  0  0  0  0  0  0  0  0
    0.9417   -0.2991   -0.6613 H   0  0  0  0  0  0  0  0  0  0  0  0
    1.4426   -1.5407    3.5693 S   0  0  0  0  0  0  0  0  0  0  0  0
    2.1745   -1.1606    2.3804 O   0  0  0  0  0  0  0  0  0  0  0  0
    0.0488   -2.0315    3.4500 O   0  0  0  0  0  0  0  0  0  0  0  0
    2.3072   -2.6290    4.3724 O   0  0  0  0  0  0  0  0  0  0  0  0
    1.4048   -0.1128    4.7924 C   0  0  0  0  0  0  0  0  0  0  0  0
    0.9280   -0.5776    5.9411 F   0  0  0  0  0  0  0  0  0  0  0  0
    2.6305    0.3488    4.9410 F   0  0  0  0  0  0  0  0  0  0  0  0
    0.6029    0.8140    4.2911 F   0  0  0  0  0  0  0  0  0  0  0  0
   -0.3959   -1.9432    0.1262 H   0  0  0  0  0  0  0  0  0  0  0  0
  1  3  1  0  0  0  0
  2  1  1  0  0  0  0
  3  4  1  0  0  0  0
  6 11  2  0  0  0  0
  7  8  2  0  0  0  0
  7  6  1  0  0  0  0
  8  9  1  0  0  0  0
  9 15  1  0  0  0  0
  9 10  2  0  0  0  0
 10 16  1  0  0  0  0
 11 10  1  0  0  0  0
 11 17  1  0  0  0  0
 12  6  1  0  0  0  0
 13  7  1  0  0  0  0
 14  8  1  0  0  0  0
 18 21  1  0  0  0  0
 18 22  1  0  0  0  0
 19 18  2  0  0  0  0
 20 18  2  0  0  0  0
 21  5  1  0  0  0  0
 22 24  1  0  0  0  0
 22 23  1  0  0  0  0
 25 22  1  0  0  0  0
 26  3  1  0  0  0  0
M  RAD  2   1   2   2   3
M  END
