Coordinates from ORCA-job C6H6+HOTf+NH2N2+-scan
 OpenBabel10221816143D

 26 24  0  0  1  0  0  0  0  0999 V2000
   -1.6458    0.4537    6.2761 N   0  0  0  0  0  0  0  0  0  0  0  0
   -1.3996   -0.3902    5.6085 N   0  0  0  0  0  0  0  0  0  0  0  0
   -0.3631   -1.0725   -0.3526 N   0  0  0  0  0  0  0  0  0  0  0  0
   -0.1425   -0.9127    0.6313 H   0  0  0  0  0  0  0  0  0  0  0  0
   -1.0129   -1.9387    4.4614 H   0  0  0  0  0  0  0  0  0  0  0  0
   -0.2342   -2.5670   -2.3417 C   0  0  0  0  0  0  0  0  0  0  0  0
    0.2377   -2.3067   -0.9482 C   0  0  1  0  0  0  0  0  0  0  0  0
    1.5687   -1.6777   -0.8382 C   0  0  0  0  0  0  0  0  0  0  0  0
    2.2257   -1.1428   -1.9604 C   0  0  0  0  0  0  0  0  0  0  0  0
    1.6963   -1.3792   -3.2131 C   0  0  0  0  0  0  0  0  0  0  0  0
    0.4669   -2.1104   -3.4056 C   0  0  0  0  0  0  0  0  0  0  0  0
   -1.1513   -3.1343   -2.4685 H   0  0  0  0  0  0  0  0  0  0  0  0
    0.0517   -3.1381   -0.2652 H   0  0  0  0  0  0  0  0  0  0  0  0
    1.9977   -1.5979    0.1557 H   0  0  0  0  0  0  0  0  0  0  0  0
    3.1512   -0.5906   -1.8390 H   0  0  0  0  0  0  0  0  0  0  0  0
    2.2202   -1.0103   -4.0913 H   0  0  0  0  0  0  0  0  0  0  0  0
    0.1238   -2.2981   -4.4178 H   0  0  0  0  0  0  0  0  0  0  0  0
    0.3364   -2.7349    2.9662 S   0  0  0  0  0  0  0  0  0  0  0  0
    0.1873   -3.8249    2.0178 O   0  0  0  0  0  0  0  0  0  0  0  0
    0.5414   -1.3622    2.4792 O   0  0  0  0  0  0  0  0  0  0  0  0
   -0.8972   -2.7891    3.9802 O   0  0  0  0  0  0  0  0  0  0  0  0
    1.7681   -3.1203    4.1091 C   0  0  0  0  0  0  0  0  0  0  0  0
    1.7528   -2.2384    5.1054 F   0  0  0  0  0  0  0  0  0  0  0  0
    1.6405   -4.3499    4.5746 F   0  0  0  0  0  0  0  0  0  0  0  0
    2.8882   -3.0001    3.4039 F   0  0  0  0  0  0  0  0  0  0  0  0
   -0.3852   -0.2444   -0.9376 H   0  0  0  0  0  0  0  0  0  0  0  0
  2  1  3  0  0  0  0
  3  4  1  0  0  0  0
  6  7  1  0  0  0  0
  7  8  1  0  0  0  0
  7  3  1  0  0  0  0
  7 13  1  1  0  0  0
  8 14  1  0  0  0  0
  9 15  1  0  0  0  0
  9  8  1  0  0  0  0
 10  9  2  0  0  0  0
 11 10  1  0  0  0  0
 11  6  2  0  0  0  0
 12  6  1  0  0  0  0
 16 10  1  0  0  0  0
 17 11  1  0  0  0  0
 18 21  1  0  0  0  0
 18 22  1  0  0  0  0
 19 18  2  0  0  0  0
 20 18  2  0  0  0  0
 21  5  1  0  0  0  0
 22 24  1  0  0  0  0
 22 23  1  0  0  0  0
 25 22  1  0  0  0  0
 26  3  1  0  0  0  0
M  RAD  1   8   2
M  END
