Coordinates from ORCA-job C6H6+HOTf+NH2N2+-scan
 OpenBabel10221816143D

 26 24  0  0  0  0  0  0  0  0999 V2000
   -2.0711   -2.6282    0.6663 N   0  0  0  0  0  0  0  0  0  0  0  0
   -3.0783   -3.0758    0.4479 N   0  0  0  0  0  0  0  0  0  0  0  0
   -0.9461   -2.0986    0.8899 N   0  0  0  0  0  0  0  0  0  0  0  0
   -0.5817   -2.1011    1.8833 H   0  0  0  0  0  0  0  0  0  0  0  0
    1.7063   -3.2396    4.9197 H   0  0  0  0  0  0  0  0  0  0  0  0
   -0.1594   -1.3376   -2.2917 C   0  0  0  0  0  0  0  0  0  0  0  0
   -0.2335   -2.5750   -2.9379 C   0  0  0  0  0  0  0  0  0  0  0  0
    0.6978   -3.5768   -2.6403 C   0  0  0  0  0  0  0  0  0  0  0  0
    1.6948   -3.3524   -1.6854 C   0  0  0  0  0  0  0  0  0  0  0  0
    1.7733   -2.1191   -1.0321 C   0  0  0  0  0  0  0  0  0  0  0  0
    0.8446   -1.1068   -1.3337 C   0  0  0  0  0  0  0  0  0  0  0  0
   -0.8586   -0.5454   -2.5456 H   0  0  0  0  0  0  0  0  0  0  0  0
   -0.9989   -2.7505   -3.6881 H   0  0  0  0  0  0  0  0  0  0  0  0
    0.6474   -4.5313   -3.1559 H   0  0  0  0  0  0  0  0  0  0  0  0
    2.4187   -4.1306   -1.4632 H   0  0  0  0  0  0  0  0  0  0  0  0
    2.5535   -1.9326   -0.2999 H   0  0  0  0  0  0  0  0  0  0  0  0
    0.9447   -0.1256   -0.8748 H   0  0  0  0  0  0  0  0  0  0  0  0
    1.4643   -1.5836    3.5525 S   0  0  0  0  0  0  0  0  0  0  0  0
    2.2360   -1.1752    2.3993 O   0  0  0  0  0  0  0  0  0  0  0  0
    0.0680   -2.0506    3.3787 O   0  0  0  0  0  0  0  0  0  0  0  0
    2.2904   -2.7095    4.3444 O   0  0  0  0  0  0  0  0  0  0  0  0
    1.4081   -0.1967    4.8208 C   0  0  0  0  0  0  0  0  0  0  0  0
    0.8933   -0.6929    5.9397 F   0  0  0  0  0  0  0  0  0  0  0  0
    2.6344    0.2444    5.0195 F   0  0  0  0  0  0  0  0  0  0  0  0
    0.6318    0.7565    4.3287 F   0  0  0  0  0  0  0  0  0  0  0  0
   -0.3570   -1.8433    0.0482 H   0  0  0  0  0  0  0  0  0  0  0  0
  1  3  1  0  0  0  0
  2  1  1  0  0  0  0
  3  4  1  0  0  0  0
  6 11  2  0  0  0  0
  7  8  2  0  0  0  0
  7  6  1  0  0  0  0
  8  9  1  0  0  0  0
  9 15  1  0  0  0  0
  9 10  2  0  0  0  0
 10 16  1  0  0  0  0
 11 10  1  0  0  0  0
 11 17  1  0  0  0  0
 12  6  1  0  0  0  0
 13  7  1  0  0  0  0
 14  8  1  0  0  0  0
 18 21  1  0  0  0  0
 18 22  1  0  0  0  0
 19 18  2  0  0  0  0
 20 18  2  0  0  0  0
 21  5  1  0  0  0  0
 22 24  1  0  0  0  0
 22 23  1  0  0  0  0
 25 22  1  0  0  0  0
 26  3  1  0  0  0  0
M  RAD  2   1   2   2   3
M  END
