Coordinates from ORCA-job C6H6+HOTf+NH2N2+-scan
 OpenBabel10221816143D

 26 24  0  0  0  0  0  0  0  0999 V2000
   -0.0913    0.8406    1.2220 N   0  0  0  0  0  0  0  0  0  0  0  0
   -0.2380    1.8055    1.7748 N   0  0  0  0  0  0  0  0  0  0  0  0
    0.3621   -0.1534    0.4656 N   0  0  0  0  0  0  0  0  0  0  0  0
    0.3654   -1.0258    1.0427 H   0  0  0  0  0  0  0  0  0  0  0  0
   -1.3415   -3.6526    3.6908 H   0  0  0  0  0  0  0  0  0  0  0  0
    0.6941   -3.2405   -1.1418 C   0  0  0  0  0  0  0  0  0  0  0  0
    1.6544   -2.3211   -0.7016 C   0  0  0  0  0  0  0  0  0  0  0  0
    1.6569   -1.0149   -1.2046 C   0  0  0  0  0  0  0  0  0  0  0  0
    0.7661   -0.6665   -2.2393 C   0  0  0  0  0  0  0  0  0  0  0  0
   -0.1994   -1.5839   -2.6678 C   0  0  0  0  0  0  0  0  0  0  0  0
   -0.2415   -2.8697   -2.1110 C   0  0  0  0  0  0  0  0  0  0  0  0
    0.6904   -4.2473   -0.7352 H   0  0  0  0  0  0  0  0  0  0  0  0
    2.3860   -2.6227    0.0418 H   0  0  0  0  0  0  0  0  0  0  0  0
    2.4361   -0.3199   -0.9082 H   0  0  0  0  0  0  0  0  0  0  0  0
    0.8255    0.3172   -2.6990 H   0  0  0  0  0  0  0  0  0  0  0  0
   -0.8984   -1.3084   -3.4522 H   0  0  0  0  0  0  0  0  0  0  0  0
   -0.9847   -3.5836   -2.4526 H   0  0  0  0  0  0  0  0  0  0  0  0
    0.6690   -3.2158    3.0238 S   0  0  0  0  0  0  0  0  0  0  0  0
    1.5956   -3.9809    2.2219 O   0  0  0  0  0  0  0  0  0  0  0  0
    0.1445   -1.9148    2.5560 O   0  0  0  0  0  0  0  0  0  0  0  0
   -0.5717   -4.1716    3.3918 O   0  0  0  0  0  0  0  0  0  0  0  0
    1.4052   -2.8980    4.7217 C   0  0  0  0  0  0  0  0  0  0  0  0
    0.4347   -2.4313    5.5040 F   0  0  0  0  0  0  0  0  0  0  0  0
    1.8905   -4.0266    5.1988 F   0  0  0  0  0  0  0  0  0  0  0  0
    2.3614   -1.9911    4.5782 F   0  0  0  0  0  0  0  0  0  0  0  0
   -0.1486   -0.2013   -0.4306 H   0  0  0  0  0  0  0  0  0  0  0  0
  1  2  1  0  0  0  0
  3  4  1  0  0  0  0
  3  1  1  0  0  0  0
  6 12  1  0  0  0  0
  6  7  1  0  0  0  0
  7 13  1  0  0  0  0
  8 14  1  0  0  0  0
  8  7  2  0  0  0  0
  9  8  1  0  0  0  0
 10  9  2  0  0  0  0
 10 11  1  0  0  0  0
 11  6  2  0  0  0  0
 15  9  1  0  0  0  0
 16 10  1  0  0  0  0
 17 11  1  0  0  0  0
 18 21  1  0  0  0  0
 18 22  1  0  0  0  0
 19 18  2  0  0  0  0
 20 18  2  0  0  0  0
 21  5  1  0  0  0  0
 22 24  1  0  0  0  0
 22 23  1  0  0  0  0
 25 22  1  0  0  0  0
 26  3  1  0  0  0  0
M  RAD  2   1   2   2   3
M  END
