Coordinates from ORCA-job C6H6+HOTf+NH2N2+-scan
 OpenBabel10221816143D

 26 24  0  0  0  0  0  0  0  0999 V2000
   -2.7872   -2.3031    1.7344 N   0  0  0  0  0  0  0  0  0  0  0  0
   -3.8982   -2.4574    1.7607 N   0  0  0  0  0  0  0  0  0  0  0  0
   -1.5350   -2.1133    1.7354 N   0  0  0  0  0  0  0  0  0  0  0  0
   -1.0174   -1.9979    2.6722 H   0  0  0  0  0  0  0  0  0  0  0  0
    1.5402   -3.0217    5.4067 H   0  0  0  0  0  0  0  0  0  0  0  0
   -0.1766   -1.7288   -2.6203 C   0  0  0  0  0  0  0  0  0  0  0  0
    0.3333   -2.4598   -3.6967 C   0  0  0  0  0  0  0  0  0  0  0  0
    1.5135   -3.1978   -3.5518 C   0  0  0  0  0  0  0  0  0  0  0  0
    2.1710   -3.2190   -2.3168 C   0  0  0  0  0  0  0  0  0  0  0  0
    1.6667   -2.4887   -1.2363 C   0  0  0  0  0  0  0  0  0  0  0  0
    0.4958   -1.7361   -1.3916 C   0  0  0  0  0  0  0  0  0  0  0  0
   -1.0755   -1.1320   -2.7507 H   0  0  0  0  0  0  0  0  0  0  0  0
   -0.1807   -2.4411   -4.6532 H   0  0  0  0  0  0  0  0  0  0  0  0
    1.9150   -3.7545   -4.3930 H   0  0  0  0  0  0  0  0  0  0  0  0
    3.0864   -3.7918   -2.2001 H   0  0  0  0  0  0  0  0  0  0  0  0
    2.1980   -2.4812   -0.2884 H   0  0  0  0  0  0  0  0  0  0  0  0
    0.1628   -1.0766   -0.5866 H   0  0  0  0  0  0  0  0  0  0  0  0
    1.2988   -1.6182    3.7787 S   0  0  0  0  0  0  0  0  0  0  0  0
    1.8510   -1.5959    2.4426 O   0  0  0  0  0  0  0  0  0  0  0  0
   -0.1668   -1.8102    3.9536 O   0  0  0  0  0  0  0  0  0  0  0  0
    2.0676   -2.7310    4.6377 O   0  0  0  0  0  0  0  0  0  0  0  0
    1.7405   -0.0403    4.7068 C   0  0  0  0  0  0  0  0  0  0  0  0
    1.3984   -0.2136    5.9771 F   0  0  0  0  0  0  0  0  0  0  0  0
    3.0357    0.1663    4.5867 F   0  0  0  0  0  0  0  0  0  0  0  0
    1.0442    0.9428    4.1598 F   0  0  0  0  0  0  0  0  0  0  0  0
   -1.0587   -2.1770    0.8235 H   0  0  0  0  0  0  0  0  0  0  0  0
  1  3  1  0  0  0  0
  1  2  1  0  0  0  0
  3  4  1  0  0  0  0
  6 11  2  0  0  0  0
  7  8  2  0  0  0  0
  7  6  1  0  0  0  0
  8  9  1  0  0  0  0
  9 15  1  0  0  0  0
  9 10  2  0  0  0  0
 10 16  1  0  0  0  0
 11 10  1  0  0  0  0
 11 17  1  0  0  0  0
 12  6  1  0  0  0  0
 13  7  1  0  0  0  0
 14  8  1  0  0  0  0
 18 20  2  0  0  0  0
 18 21  1  0  0  0  0
 18 22  1  0  0  0  0
 19 18  2  0  0  0  0
 21  5  1  0  0  0  0
 22 23  1  0  0  0  0
 24 22  1  0  0  0  0
 25 22  1  0  0  0  0
 26  3  1  0  0  0  0
M  RAD  2   1   2   2   3
M  END
