Coordinates from ORCA-job C6H6+HOTf+NH2N2+-scan
 OpenBabel10221816143D

 26 24  0  0  0  0  0  0  0  0999 V2000
   -3.1024   -2.7377    2.1253 N   0  0  0  0  0  0  0  0  0  0  0  0
   -4.2193   -2.7602    2.2209 N   0  0  0  0  0  0  0  0  0  0  0  0
   -1.8335   -2.7434    2.0742 N   0  0  0  0  0  0  0  0  0  0  0  0
   -1.2742   -2.2915    2.8815 H   0  0  0  0  0  0  0  0  0  0  0  0
    1.2433   -2.1268    5.8337 H   0  0  0  0  0  0  0  0  0  0  0  0
    0.2117   -1.3054   -2.1919 C   0  0  0  0  0  0  0  0  0  0  0  0
    0.6706   -1.7421   -3.4377 C   0  0  0  0  0  0  0  0  0  0  0  0
    1.6549   -2.7323   -3.5159 C   0  0  0  0  0  0  0  0  0  0  0  0
    2.1708   -3.2951   -2.3445 C   0  0  0  0  0  0  0  0  0  0  0  0
    1.7153   -2.8606   -1.0961 C   0  0  0  0  0  0  0  0  0  0  0  0
    0.7383   -1.8623   -1.0216 C   0  0  0  0  0  0  0  0  0  0  0  0
   -0.5379   -0.5201   -2.1374 H   0  0  0  0  0  0  0  0  0  0  0  0
    0.2689   -1.3030   -4.3463 H   0  0  0  0  0  0  0  0  0  0  0  0
    2.0165   -3.0646   -4.4845 H   0  0  0  0  0  0  0  0  0  0  0  0
    2.9355   -4.0643   -2.4032 H   0  0  0  0  0  0  0  0  0  0  0  0
    2.1340   -3.2830   -0.1866 H   0  0  0  0  0  0  0  0  0  0  0  0
    0.4307   -1.4768   -0.0484 H   0  0  0  0  0  0  0  0  0  0  0  0
    1.1144   -1.7907    3.7018 S   0  0  0  0  0  0  0  0  0  0  0  0
    1.5740   -2.5794    2.5807 O   0  0  0  0  0  0  0  0  0  0  0  0
   -0.3514   -1.6356    3.9210 O   0  0  0  0  0  0  0  0  0  0  0  0
    1.7761   -2.3518    5.0466 O   0  0  0  0  0  0  0  0  0  0  0  0
    1.8217   -0.0485    3.6099 C   0  0  0  0  0  0  0  0  0  0  0  0
    1.5237    0.5709    4.7438 F   0  0  0  0  0  0  0  0  0  0  0  0
    3.1246   -0.1333    3.4406 F   0  0  0  0  0  0  0  0  0  0  0  0
    1.2407    0.5469    2.5790 F   0  0  0  0  0  0  0  0  0  0  0  0
   -1.4244   -2.8873    1.1454 H   0  0  0  0  0  0  0  0  0  0  0  0
  1  2  1  0  0  0  0
  3  1  1  0  0  0  0
  3  4  1  0  0  0  0
  6 12  1  0  0  0  0
  6 11  2  0  0  0  0
  7  6  1  0  0  0  0
  8  7  2  0  0  0  0
  8  9  1  0  0  0  0
  9 10  2  0  0  0  0
 10 11  1  0  0  0  0
 10 16  1  0  0  0  0
 11 17  1  0  0  0  0
 13  7  1  0  0  0  0
 14  8  1  0  0  0  0
 15  9  1  0  0  0  0
 18 20  2  0  0  0  0
 18 21  1  0  0  0  0
 19 18  2  0  0  0  0
 21  5  1  0  0  0  0
 22 18  1  0  0  0  0
 22 23  1  0  0  0  0
 24 22  1  0  0  0  0
 25 22  1  0  0  0  0
 26  3  1  0  0  0  0
M  RAD  2   1   2   2   3
M  END
