Coordinates from ORCA-job C6H6+HOTf+NH2N2+-scan
 OpenBabel10221816143D

 26 24  0  0  0  0  0  0  0  0999 V2000
   -2.6318   -2.4332    1.5006 N   0  0  0  0  0  0  0  0  0  0  0  0
   -3.7090   -2.7462    1.4767 N   0  0  0  0  0  0  0  0  0  0  0  0
   -1.4273   -2.0390    1.5410 N   0  0  0  0  0  0  0  0  0  0  0  0
   -0.9421   -1.9744    2.4939 H   0  0  0  0  0  0  0  0  0  0  0  0
    1.5833   -3.0475    5.2892 H   0  0  0  0  0  0  0  0  0  0  0  0
   -0.1709   -1.6338   -2.4953 C   0  0  0  0  0  0  0  0  0  0  0  0
    0.2270   -2.4482   -3.5587 C   0  0  0  0  0  0  0  0  0  0  0  0
    1.3488   -3.2761   -3.4318 C   0  0  0  0  0  0  0  0  0  0  0  0
    2.0552   -3.3082   -2.2238 C   0  0  0  0  0  0  0  0  0  0  0  0
    1.6635   -2.4955   -1.1559 C   0  0  0  0  0  0  0  0  0  0  0  0
    0.5545   -1.6482   -1.2948 C   0  0  0  0  0  0  0  0  0  0  0  0
   -1.0166   -0.9620   -2.6165 H   0  0  0  0  0  0  0  0  0  0  0  0
   -0.3246   -2.4222   -4.4939 H   0  0  0  0  0  0  0  0  0  0  0  0
    1.6665   -3.8947   -4.2656 H   0  0  0  0  0  0  0  0  0  0  0  0
    2.9243   -3.9514   -2.1214 H   0  0  0  0  0  0  0  0  0  0  0  0
    2.2383   -2.4913   -0.2338 H   0  0  0  0  0  0  0  0  0  0  0  0
    0.3362   -0.9111   -0.5192 H   0  0  0  0  0  0  0  0  0  0  0  0
    1.3349   -1.5781    3.7222 S   0  0  0  0  0  0  0  0  0  0  0  0
    1.9370   -1.4629    2.4124 O   0  0  0  0  0  0  0  0  0  0  0  0
   -0.1240   -1.8436    3.8309 O   0  0  0  0  0  0  0  0  0  0  0  0
    2.1240   -2.6976    4.5551 O   0  0  0  0  0  0  0  0  0  0  0  0
    1.6720   -0.0322    4.7423 C   0  0  0  0  0  0  0  0  0  0  0  0
    1.2929   -0.2836    5.9890 F   0  0  0  0  0  0  0  0  0  0  0  0
    2.9603    0.2364    4.6824 F   0  0  0  0  0  0  0  0  0  0  0  0
    0.9527    0.9473    4.2186 F   0  0  0  0  0  0  0  0  0  0  0  0
   -0.9025   -2.0809    0.6465 H   0  0  0  0  0  0  0  0  0  0  0  0
  1  3  1  0  0  0  0
  2  1  1  0  0  0  0
  3  4  1  0  0  0  0
  6 11  2  0  0  0  0
  7  8  2  0  0  0  0
  7  6  1  0  0  0  0
  8  9  1  0  0  0  0
  9 15  1  0  0  0  0
  9 10  2  0  0  0  0
 10 16  1  0  0  0  0
 11 10  1  0  0  0  0
 11 17  1  0  0  0  0
 12  6  1  0  0  0  0
 13  7  1  0  0  0  0
 14  8  1  0  0  0  0
 18 20  2  0  0  0  0
 18 21  1  0  0  0  0
 18 22  1  0  0  0  0
 19 18  2  0  0  0  0
 21  5  1  0  0  0  0
 22 23  1  0  0  0  0
 24 22  1  0  0  0  0
 25 22  1  0  0  0  0
 26  3  1  0  0  0  0
M  RAD  2   1   2   2   3
M  END
