Coordinates from ORCA-job C6H6+HOTf+NH2N2+-scan
 OpenBabel10221816143D

 26 25  0  0  1  0  0  0  0  0999 V2000
   -2.0610    0.5129    5.9711 N   0  0  0  0  0  0  0  0  0  0  0  0
   -1.7056   -0.3388    5.3656 N   0  0  0  0  0  0  0  0  0  0  0  0
    0.6741   -1.2808   -0.3592 N   0  0  0  0  0  0  0  0  0  0  0  0
    0.5876   -1.2446    0.6823 H   0  0  0  0  0  0  0  0  0  0  0  0
   -1.1510   -1.8963    4.3442 H   0  0  0  0  0  0  0  0  0  0  0  0
   -0.3343   -2.6147   -2.2343 C   0  0  0  0  0  0  0  0  0  0  0  0
    0.4097   -2.6247   -0.9795 C   0  0  1  0  0  0  0  0  0  0  0  0
    1.6593   -1.7241   -0.8824 C   0  0  1  0  0  0  0  0  0  0  0  0
    2.1514   -1.1722   -2.1764 C   0  0  0  0  0  0  0  0  0  0  0  0
    1.3342   -1.1378   -3.2522 C   0  0  0  0  0  0  0  0  0  0  0  0
    0.0591   -1.8363   -3.2712 C   0  0  0  0  0  0  0  0  0  0  0  0
   -1.1880   -3.2799   -2.3096 H   0  0  0  0  0  0  0  0  0  0  0  0
    0.2727   -3.3796   -0.2148 H   0  0  0  0  0  0  0  0  0  0  0  0
    2.4652   -2.0548   -0.2239 H   0  0  0  0  0  0  0  0  0  0  0  0
    3.1831   -0.8420   -2.2275 H   0  0  0  0  0  0  0  0  0  0  0  0
    1.6799   -0.6833   -4.1758 H   0  0  0  0  0  0  0  0  0  0  0  0
   -0.5258   -1.8203   -4.1851 H   0  0  0  0  0  0  0  0  0  0  0  0
    0.3521   -2.7308    3.0193 S   0  0  0  0  0  0  0  0  0  0  0  0
    0.3452   -3.8911    2.1485 O   0  0  0  0  0  0  0  0  0  0  0  0
    0.5275   -1.3880    2.4256 O   0  0  0  0  0  0  0  0  0  0  0  0
   -0.9653   -2.7636    3.9144 O   0  0  0  0  0  0  0  0  0  0  0  0
    1.6968   -2.9235    4.3126 C   0  0  0  0  0  0  0  0  0  0  0  0
    1.5289   -1.9670    5.2211 F   0  0  0  0  0  0  0  0  0  0  0  0
    1.5958   -4.1172    4.8649 F   0  0  0  0  0  0  0  0  0  0  0  0
    2.8641   -2.7829    3.6986 F   0  0  0  0  0  0  0  0  0  0  0  0
    0.1669   -0.4965   -0.7861 H   0  0  0  0  0  0  0  0  0  0  0  0
  2  1  3  0  0  0  0
  3  4  1  0  0  0  0
  6  7  1  0  0  0  0
  7  8  1  0  0  0  0
  7  3  1  0  0  0  0
  7 13  1  1  0  0  0
  8  3  1  0  0  0  0
  8 14  1  1  0  0  0
  9  8  1  0  0  0  0
 10  9  2  0  0  0  0
 11 10  1  0  0  0  0
 11  6  2  0  0  0  0
 12  6  1  0  0  0  0
 15  9  1  0  0  0  0
 16 10  1  0  0  0  0
 17 11  1  0  0  0  0
 18 21  1  0  0  0  0
 18 22  1  0  0  0  0
 19 18  2  0  0  0  0
 20 18  2  0  0  0  0
 21  5  1  0  0  0  0
 22 24  1  0  0  0  0
 22 23  1  0  0  0  0
 25 22  1  0  0  0  0
 26  3  1  0  0  0  0
M  END
