Coordinates from ORCA-job C6H6+HOTf+NH2N2+-scan
 OpenBabel10221816143D

 26 24  0  0  0  0  0  0  0  0999 V2000
   -2.0877   -2.6242    0.6930 N   0  0  0  0  0  0  0  0  0  0  0  0
   -3.0972   -3.0673    0.4759 N   0  0  0  0  0  0  0  0  0  0  0  0
   -0.9598   -2.0995    0.9132 N   0  0  0  0  0  0  0  0  0  0  0  0
   -0.5941   -2.0993    1.9061 H   0  0  0  0  0  0  0  0  0  0  0  0
    1.7158   -3.2244    4.9306 H   0  0  0  0  0  0  0  0  0  0  0  0
   -0.1560   -1.3448   -2.2886 C   0  0  0  0  0  0  0  0  0  0  0  0
   -0.2167   -2.5642   -2.9688 C   0  0  0  0  0  0  0  0  0  0  0  0
    0.7164   -3.5690   -2.6881 C   0  0  0  0  0  0  0  0  0  0  0  0
    1.7012   -3.3664   -1.7160 C   0  0  0  0  0  0  0  0  0  0  0  0
    1.7667   -2.1511   -1.0290 C   0  0  0  0  0  0  0  0  0  0  0  0
    0.8366   -1.1350   -1.3139 C   0  0  0  0  0  0  0  0  0  0  0  0
   -0.8559   -0.5491   -2.5296 H   0  0  0  0  0  0  0  0  0  0  0  0
   -0.9731   -2.7230   -3.7317 H   0  0  0  0  0  0  0  0  0  0  0  0
    0.6766   -4.5093   -3.2302 H   0  0  0  0  0  0  0  0  0  0  0  0
    2.4263   -4.1472   -1.5067 H   0  0  0  0  0  0  0  0  0  0  0  0
    2.5387   -1.9802   -0.2844 H   0  0  0  0  0  0  0  0  0  0  0  0
    0.9313   -0.1638   -0.8327 H   0  0  0  0  0  0  0  0  0  0  0  0
    1.4596   -1.5735    3.5599 S   0  0  0  0  0  0  0  0  0  0  0  0
    2.2211   -1.1680    2.3987 O   0  0  0  0  0  0  0  0  0  0  0  0
    0.0629   -2.0439    3.3987 O   0  0  0  0  0  0  0  0  0  0  0  0
    2.2943   -2.6947    4.3493 O   0  0  0  0  0  0  0  0  0  0  0  0
    1.4111   -0.1817    4.8232 C   0  0  0  0  0  0  0  0  0  0  0  0
    0.9059   -0.6744    5.9480 F   0  0  0  0  0  0  0  0  0  0  0  0
    2.6382    0.2621    5.0104 F   0  0  0  0  0  0  0  0  0  0  0  0
    0.6293    0.7682    4.3334 F   0  0  0  0  0  0  0  0  0  0  0  0
   -0.3686   -1.8543    0.0694 H   0  0  0  0  0  0  0  0  0  0  0  0
  1  3  1  0  0  0  0
  2  1  1  0  0  0  0
  3  4  1  0  0  0  0
  6 11  2  0  0  0  0
  7  8  2  0  0  0  0
  7  6  1  0  0  0  0
  8  9  1  0  0  0  0
  9 15  1  0  0  0  0
  9 10  2  0  0  0  0
 10 16  1  0  0  0  0
 11 10  1  0  0  0  0
 11 17  1  0  0  0  0
 12  6  1  0  0  0  0
 13  7  1  0  0  0  0
 14  8  1  0  0  0  0
 18 21  1  0  0  0  0
 18 22  1  0  0  0  0
 19 18  2  0  0  0  0
 20 18  2  0  0  0  0
 21  5  1  0  0  0  0
 22 24  1  0  0  0  0
 22 23  1  0  0  0  0
 25 22  1  0  0  0  0
 26  3  1  0  0  0  0
M  RAD  2   1   2   2   3
M  END
