Coordinates from ORCA-job C6H6+HOTf+NH2N2+-scan
 OpenBabel10221816143D

 26 24  0  0  0  0  0  0  0  0999 V2000
   -2.0765   -2.4377    0.5571 N   0  0  0  0  0  0  0  0  0  0  0  0
   -3.1155   -2.8167    0.3597 N   0  0  0  0  0  0  0  0  0  0  0  0
   -0.9126   -1.9934    0.7643 N   0  0  0  0  0  0  0  0  0  0  0  0
   -0.5268   -2.0440    1.7487 H   0  0  0  0  0  0  0  0  0  0  0  0
    1.6643   -3.4153    4.7558 H   0  0  0  0  0  0  0  0  0  0  0  0
   -0.2243   -1.4103   -2.3918 C   0  0  0  0  0  0  0  0  0  0  0  0
   -0.2718   -2.7580   -2.7635 C   0  0  0  0  0  0  0  0  0  0  0  0
    0.7022   -3.6475   -2.2953 C   0  0  0  0  0  0  0  0  0  0  0  0
    1.7202   -3.1971   -1.4489 C   0  0  0  0  0  0  0  0  0  0  0  0
    1.7720   -1.8520   -1.0693 C   0  0  0  0  0  0  0  0  0  0  0  0
    0.7963   -0.9549   -1.5383 C   0  0  0  0  0  0  0  0  0  0  0  0
   -0.9604   -0.7100   -2.7771 H   0  0  0  0  0  0  0  0  0  0  0  0
   -1.0509   -3.1090   -3.4341 H   0  0  0  0  0  0  0  0  0  0  0  0
    0.6713   -4.6902   -2.5977 H   0  0  0  0  0  0  0  0  0  0  0  0
    2.4795   -3.8888   -1.0965 H   0  0  0  0  0  0  0  0  0  0  0  0
    2.5636   -1.4971   -0.4163 H   0  0  0  0  0  0  0  0  0  0  0  0
    0.8588    0.0991   -1.2794 H   0  0  0  0  0  0  0  0  0  0  0  0
    1.5077   -1.6664    3.4956 S   0  0  0  0  0  0  0  0  0  0  0  0
    2.3299   -1.1976    2.4028 O   0  0  0  0  0  0  0  0  0  0  0  0
    0.1077   -2.0861    3.2452 O   0  0  0  0  0  0  0  0  0  0  0  0
    2.2794   -2.8654    4.2341 O   0  0  0  0  0  0  0  0  0  0  0  0
    1.4353   -0.3720    4.8571 C   0  0  0  0  0  0  0  0  0  0  0  0
    0.8729   -0.9348    5.9206 F   0  0  0  0  0  0  0  0  0  0  0  0
    2.6623    0.0272    5.1271 F   0  0  0  0  0  0  0  0  0  0  0  0
    0.6948    0.6306    4.4098 F   0  0  0  0  0  0  0  0  0  0  0  0
   -0.3567   -1.6904   -0.0795 H   0  0  0  0  0  0  0  0  0  0  0  0
  1  3  1  0  0  0  0
  2  1  1  0  0  0  0
  3  4  1  0  0  0  0
  6 11  1  0  0  0  0
  7  6  2  0  0  0  0
  7  8  1  0  0  0  0
  8  9  2  0  0  0  0
  9 15  1  0  0  0  0
  9 10  1  0  0  0  0
 10 16  1  0  0  0  0
 11 17  1  0  0  0  0
 11 10  2  0  0  0  0
 12  6  1  0  0  0  0
 13  7  1  0  0  0  0
 14  8  1  0  0  0  0
 18 21  1  0  0  0  0
 18 22  1  0  0  0  0
 19 18  2  0  0  0  0
 20 18  2  0  0  0  0
 21  5  1  0  0  0  0
 22 24  1  0  0  0  0
 22 23  1  0  0  0  0
 25 22  1  0  0  0  0
 26  3  1  0  0  0  0
M  RAD  2   1   2   2   3
M  END
