Coordinates from ORCA-job C6H6+HOTf+NH2N2+-scan
 OpenBabel10221816143D

 26 24  0  0  0  0  0  0  0  0999 V2000
   -2.0734    0.5269    5.9165 N   0  0  0  0  0  0  0  0  0  0  0  0
   -1.7128   -0.3283    5.3191 N   0  0  0  0  0  0  0  0  0  0  0  0
    0.7207   -1.3117   -0.3666 N   0  0  0  0  0  0  0  0  0  0  0  0
    0.6209   -1.2752    0.6782 H   0  0  0  0  0  0  0  0  0  0  0  0
   -1.1523   -1.8920    4.3148 H   0  0  0  0  0  0  0  0  0  0  0  0
   -0.3380   -2.6119   -2.2206 C   0  0  0  0  0  0  0  0  0  0  0  0
    0.4153   -2.6505   -0.9783 C   0  0  0  0  0  0  0  0  0  0  0  0
    1.6522   -1.7121   -0.8660 C   0  0  0  0  0  0  0  0  0  0  0  0
    2.1446   -1.1713   -2.1675 C   0  0  0  0  0  0  0  0  0  0  0  0
    1.3108   -1.1123   -3.2304 C   0  0  0  0  0  0  0  0  0  0  0  0
    0.0325   -1.8009   -3.2431 C   0  0  0  0  0  0  0  0  0  0  0  0
   -1.1860   -3.2840   -2.3020 H   0  0  0  0  0  0  0  0  0  0  0  0
    0.2961   -3.4023   -0.2092 H   0  0  0  0  0  0  0  0  0  0  0  0
    2.4765   -2.0555   -0.2324 H   0  0  0  0  0  0  0  0  0  0  0  0
    3.1849   -0.8722   -2.2311 H   0  0  0  0  0  0  0  0  0  0  0  0
    1.6502   -0.6536   -4.1546 H   0  0  0  0  0  0  0  0  0  0  0  0
   -0.5691   -1.7621   -4.1451 H   0  0  0  0  0  0  0  0  0  0  0  0
    0.3597   -2.7442    3.0105 S   0  0  0  0  0  0  0  0  0  0  0  0
    0.3604   -3.9155    2.1551 O   0  0  0  0  0  0  0  0  0  0  0  0
    0.5399   -1.4087    2.3991 O   0  0  0  0  0  0  0  0  0  0  0  0
   -0.9653   -2.7634    3.8937 O   0  0  0  0  0  0  0  0  0  0  0  0
    1.6943   -2.9161    4.3177 C   0  0  0  0  0  0  0  0  0  0  0  0
    1.5157   -1.9479    5.2116 F   0  0  0  0  0  0  0  0  0  0  0  0
    1.5909   -4.1026    4.8847 F   0  0  0  0  0  0  0  0  0  0  0  0
    2.8661   -2.7806    3.7118 F   0  0  0  0  0  0  0  0  0  0  0  0
    0.1876   -0.5299   -0.7759 H   0  0  0  0  0  0  0  0  0  0  0  0
  2  1  3  0  0  0  0
  3  4  1  0  0  0  0
  6  7  1  0  0  0  0
  7  3  1  0  0  0  0
  7 13  1  0  0  0  0
  8  3  1  0  0  0  0
  8 14  1  0  0  0  0
  9  8  1  0  0  0  0
 10  9  2  0  0  0  0
 11 10  1  0  0  0  0
 11  6  2  0  0  0  0
 12  6  1  0  0  0  0
 15  9  1  0  0  0  0
 16 10  1  0  0  0  0
 17 11  1  0  0  0  0
 18 21  1  0  0  0  0
 18 22  1  0  0  0  0
 19 18  2  0  0  0  0
 20 18  2  0  0  0  0
 21  5  1  0  0  0  0
 22 24  1  0  0  0  0
 22 23  1  0  0  0  0
 25 22  1  0  0  0  0
 26  3  1  0  0  0  0
M  RAD  2   7   2   8   2
M  END
