Coordinates from ORCA-job C6H6+HOTf+NH2N2+-scan
 OpenBabel10221816143D

 26 24  0  0  0  0  0  0  0  0999 V2000
   -2.0805   -2.6253    0.6818 N   0  0  0  0  0  0  0  0  0  0  0  0
   -3.0893   -3.0697    0.4642 N   0  0  0  0  0  0  0  0  0  0  0  0
   -0.9535   -2.0991    0.9032 N   0  0  0  0  0  0  0  0  0  0  0  0
   -0.5882   -2.1003    1.8963 H   0  0  0  0  0  0  0  0  0  0  0  0
    1.7148   -3.2303    4.9243 H   0  0  0  0  0  0  0  0  0  0  0  0
   -0.1566   -1.3415   -2.2900 C   0  0  0  0  0  0  0  0  0  0  0  0
   -0.2238   -2.5682   -2.9563 C   0  0  0  0  0  0  0  0  0  0  0  0
    0.7075   -3.5725   -2.6682 C   0  0  0  0  0  0  0  0  0  0  0  0
    1.6980   -3.3618   -1.7036 C   0  0  0  0  0  0  0  0  0  0  0  0
    1.7698   -2.1392   -1.0303 C   0  0  0  0  0  0  0  0  0  0  0  0
    0.8407   -1.1241   -1.3219 C   0  0  0  0  0  0  0  0  0  0  0  0
   -0.8557   -0.5466   -2.5359 H   0  0  0  0  0  0  0  0  0  0  0  0
   -0.9840   -2.7335   -3.7141 H   0  0  0  0  0  0  0  0  0  0  0  0
    0.6625   -4.5188   -3.1993 H   0  0  0  0  0  0  0  0  0  0  0  0
    2.4219   -4.1423   -1.4891 H   0  0  0  0  0  0  0  0  0  0  0  0
    2.5450   -1.9625   -0.2905 H   0  0  0  0  0  0  0  0  0  0  0  0
    0.9380   -0.1491   -0.8491 H   0  0  0  0  0  0  0  0  0  0  0  0
    1.4618   -1.5765    3.5565 S   0  0  0  0  0  0  0  0  0  0  0  0
    2.2267   -1.1676    2.3989 O   0  0  0  0  0  0  0  0  0  0  0  0
    0.0659   -2.0474    3.3900 O   0  0  0  0  0  0  0  0  0  0  0  0
    2.2948   -2.6991    4.3459 O   0  0  0  0  0  0  0  0  0  0  0  0
    1.4084   -0.1878    4.8232 C   0  0  0  0  0  0  0  0  0  0  0  0
    0.9002   -0.6838    5.9453 F   0  0  0  0  0  0  0  0  0  0  0  0
    2.6345    0.2565    5.0152 F   0  0  0  0  0  0  0  0  0  0  0  0
    0.6273    0.7627    4.3334 F   0  0  0  0  0  0  0  0  0  0  0  0
   -0.3632   -1.8501    0.0604 H   0  0  0  0  0  0  0  0  0  0  0  0
  1  3  1  0  0  0  0
  2  1  1  0  0  0  0
  3  4  1  0  0  0  0
  6 11  2  0  0  0  0
  7  8  2  0  0  0  0
  7  6  1  0  0  0  0
  8  9  1  0  0  0  0
  9 15  1  0  0  0  0
  9 10  2  0  0  0  0
 10 16  1  0  0  0  0
 11 10  1  0  0  0  0
 11 17  1  0  0  0  0
 12  6  1  0  0  0  0
 13  7  1  0  0  0  0
 14  8  1  0  0  0  0
 18 21  1  0  0  0  0
 18 22  1  0  0  0  0
 19 18  2  0  0  0  0
 20 18  2  0  0  0  0
 21  5  1  0  0  0  0
 22 24  1  0  0  0  0
 22 23  1  0  0  0  0
 25 22  1  0  0  0  0
 26  3  1  0  0  0  0
M  RAD  2   1   2   2   3
M  END
