Coordinates from ORCA-job C6H6+HOTf+NH2N2+-scan
 OpenBabel10221816143D

 26 24  0  0  0  0  0  0  0  0999 V2000
   -2.0809   -2.4346    0.5641 N   0  0  0  0  0  0  0  0  0  0  0  0
   -3.1208   -2.8117    0.3674 N   0  0  0  0  0  0  0  0  0  0  0  0
   -0.9160   -1.9925    0.7698 N   0  0  0  0  0  0  0  0  0  0  0  0
   -0.5294   -2.0426    1.7539 H   0  0  0  0  0  0  0  0  0  0  0  0
    1.6660   -3.4116    4.7589 H   0  0  0  0  0  0  0  0  0  0  0  0
   -0.2239   -1.4122   -2.3910 C   0  0  0  0  0  0  0  0  0  0  0  0
   -0.2679   -2.7571   -2.7731 C   0  0  0  0  0  0  0  0  0  0  0  0
    0.7072   -3.6481   -2.3098 C   0  0  0  0  0  0  0  0  0  0  0  0
    1.7222   -3.2021   -1.4575 C   0  0  0  0  0  0  0  0  0  0  0  0
    1.7706   -1.8599   -1.0677 C   0  0  0  0  0  0  0  0  0  0  0  0
    0.7941   -0.9611   -1.5322 C   0  0  0  0  0  0  0  0  0  0  0  0
   -0.9605   -0.7104   -2.7729 H   0  0  0  0  0  0  0  0  0  0  0  0
   -1.0449   -3.1047   -3.4478 H   0  0  0  0  0  0  0  0  0  0  0  0
    0.6791   -4.6885   -2.6202 H   0  0  0  0  0  0  0  0  0  0  0  0
    2.4822   -3.8949   -1.1087 H   0  0  0  0  0  0  0  0  0  0  0  0
    2.5601   -1.5081   -0.4105 H   0  0  0  0  0  0  0  0  0  0  0  0
    0.8548    0.0913   -1.2663 H   0  0  0  0  0  0  0  0  0  0  0  0
    1.5070   -1.6634    3.4981 S   0  0  0  0  0  0  0  0  0  0  0  0
    2.3275   -1.1950    2.4038 O   0  0  0  0  0  0  0  0  0  0  0  0
    0.1069   -2.0838    3.2498 O   0  0  0  0  0  0  0  0  0  0  0  0
    2.2802   -2.8616    4.2364 O   0  0  0  0  0  0  0  0  0  0  0  0
    1.4360   -0.3680    4.8588 C   0  0  0  0  0  0  0  0  0  0  0  0
    0.8751   -0.9303    5.9234 F   0  0  0  0  0  0  0  0  0  0  0  0
    2.6632    0.0317    5.1269 F   0  0  0  0  0  0  0  0  0  0  0  0
    0.6945    0.6339    4.4118 F   0  0  0  0  0  0  0  0  0  0  0  0
   -0.3596   -1.6924   -0.0752 H   0  0  0  0  0  0  0  0  0  0  0  0
  1  3  1  0  0  0  0
  2  1  1  0  0  0  0
  3  4  1  0  0  0  0
  6 11  1  0  0  0  0
  7  6  2  0  0  0  0
  7  8  1  0  0  0  0
  8  9  2  0  0  0  0
  9 15  1  0  0  0  0
  9 10  1  0  0  0  0
 10 16  1  0  0  0  0
 11 17  1  0  0  0  0
 11 10  2  0  0  0  0
 12  6  1  0  0  0  0
 13  7  1  0  0  0  0
 14  8  1  0  0  0  0
 18 21  1  0  0  0  0
 18 22  1  0  0  0  0
 19 18  2  0  0  0  0
 20 18  2  0  0  0  0
 21  5  1  0  0  0  0
 22 24  1  0  0  0  0
 22 23  1  0  0  0  0
 25 22  1  0  0  0  0
 26  3  1  0  0  0  0
M  RAD  2   1   2   2   3
M  END
