Coordinates from ORCA-job C6H6+HOTf+NH2N2+-scan
 OpenBabel10221816143D

 26 24  0  0  0  0  0  0  0  0999 V2000
   -3.3039   -2.9948    2.5179 N   0  0  0  0  0  0  0  0  0  0  0  0
   -4.4097   -2.8881    2.6681 N   0  0  0  0  0  0  0  0  0  0  0  0
   -2.0439   -3.1211    2.4173 N   0  0  0  0  0  0  0  0  0  0  0  0
   -1.4060   -2.5257    3.0629 H   0  0  0  0  0  0  0  0  0  0  0  0
    1.2944   -1.9333    5.7558 H   0  0  0  0  0  0  0  0  0  0  0  0
    0.6900   -0.9119   -2.2419 C   0  0  0  0  0  0  0  0  0  0  0  0
    0.9005   -1.5617   -3.4608 C   0  0  0  0  0  0  0  0  0  0  0  0
    1.5759   -2.7846   -3.4941 C   0  0  0  0  0  0  0  0  0  0  0  0
    2.0361   -3.3610   -2.3072 C   0  0  0  0  0  0  0  0  0  0  0  0
    1.8263   -2.7124   -1.0870 C   0  0  0  0  0  0  0  0  0  0  0  0
    1.1545   -1.4871   -1.0560 C   0  0  0  0  0  0  0  0  0  0  0  0
    0.1763    0.0457   -2.2202 H   0  0  0  0  0  0  0  0  0  0  0  0
    0.5461   -1.1116   -4.3838 H   0  0  0  0  0  0  0  0  0  0  0  0
    1.7457   -3.2857   -4.4428 H   0  0  0  0  0  0  0  0  0  0  0  0
    2.5662   -4.3091   -2.3342 H   0  0  0  0  0  0  0  0  0  0  0  0
    2.1990   -3.1528   -0.1656 H   0  0  0  0  0  0  0  0  0  0  0  0
    1.0130   -0.9674   -0.1107 H   0  0  0  0  0  0  0  0  0  0  0  0
    1.0113   -1.8510    3.6124 S   0  0  0  0  0  0  0  0  0  0  0  0
    1.4228   -2.7478    2.5565 O   0  0  0  0  0  0  0  0  0  0  0  0
   -0.4430   -1.7076    3.9093 O   0  0  0  0  0  0  0  0  0  0  0  0
    1.7721   -2.2468    4.9635 O   0  0  0  0  0  0  0  0  0  0  0  0
    1.6571   -0.1100    3.2959 C   0  0  0  0  0  0  0  0  0  0  0  0
    1.4348    0.6076    4.3886 F   0  0  0  0  0  0  0  0  0  0  0  0
    2.9424   -0.1835    3.0247 F   0  0  0  0  0  0  0  0  0  0  0  0
    0.9751    0.3753    2.2678 F   0  0  0  0  0  0  0  0  0  0  0  0
   -1.7106   -3.5518    1.5538 H   0  0  0  0  0  0  0  0  0  0  0  0
  1  2  1  0  0  0  0
  3  1  1  0  0  0  0
  3  4  1  0  0  0  0
  6 12  1  0  0  0  0
  6 11  2  0  0  0  0
  7  6  1  0  0  0  0
  8  7  2  0  0  0  0
  8  9  1  0  0  0  0
  9 10  2  0  0  0  0
 10 11  1  0  0  0  0
 10 16  1  0  0  0  0
 11 17  1  0  0  0  0
 13  7  1  0  0  0  0
 14  8  1  0  0  0  0
 15  9  1  0  0  0  0
 18 20  2  0  0  0  0
 18 21  1  0  0  0  0
 19 18  2  0  0  0  0
 21  5  1  0  0  0  0
 22 18  1  0  0  0  0
 22 23  1  0  0  0  0
 24 22  1  0  0  0  0
 25 22  1  0  0  0  0
 26  3  1  0  0  0  0
M  RAD  2   1   2   2   3
M  END
