Coordinates from ORCA-job C6H6+HOTf+NH2N2+-scan
 OpenBabel10221816143D

 26 24  0  0  0  0  0  0  0  0999 V2000
   -2.0270   -2.4610    0.4399 N   0  0  0  0  0  0  0  0  0  0  0  0
   -3.0558   -2.8677    0.2447 N   0  0  0  0  0  0  0  0  0  0  0  0
   -0.8738   -1.9954    0.6569 N   0  0  0  0  0  0  0  0  0  0  0  0
   -0.4896   -2.0536    1.6415 H   0  0  0  0  0  0  0  0  0  0  0  0
    1.5904   -3.5114    4.6857 H   0  0  0  0  0  0  0  0  0  0  0  0
   -0.2359   -1.4070   -2.4312 C   0  0  0  0  0  0  0  0  0  0  0  0
   -0.3156   -2.7966   -2.5810 C   0  0  0  0  0  0  0  0  0  0  0  0
    0.6472   -3.6194   -1.9851 C   0  0  0  0  0  0  0  0  0  0  0  0
    1.6957   -3.0602   -1.2479 C   0  0  0  0  0  0  0  0  0  0  0  0
    1.7794   -1.6724   -1.0919 C   0  0  0  0  0  0  0  0  0  0  0  0
    0.8078   -0.8433   -1.6774 C   0  0  0  0  0  0  0  0  0  0  0  0
   -0.9687   -0.7617   -2.9078 H   0  0  0  0  0  0  0  0  0  0  0  0
   -1.1124   -3.2341   -3.1758 H   0  0  0  0  0  0  0  0  0  0  0  0
    0.5900   -4.6966   -2.1128 H   0  0  0  0  0  0  0  0  0  0  0  0
    2.4505   -3.7014   -0.8027 H   0  0  0  0  0  0  0  0  0  0  0  0
    2.5904   -1.2354   -0.5176 H   0  0  0  0  0  0  0  0  0  0  0  0
    0.8816    0.2359   -1.5755 H   0  0  0  0  0  0  0  0  0  0  0  0
    1.5250   -1.7475    3.4380 S   0  0  0  0  0  0  0  0  0  0  0  0
    2.3933   -1.2927    2.3758 O   0  0  0  0  0  0  0  0  0  0  0  0
    0.1193   -2.1174    3.1449 O   0  0  0  0  0  0  0  0  0  0  0  0
    2.2360   -2.9806    4.1815 O   0  0  0  0  0  0  0  0  0  0  0  0
    1.4552   -0.4693    4.8148 C   0  0  0  0  0  0  0  0  0  0  0  0
    0.8474   -1.0286    5.8552 F   0  0  0  0  0  0  0  0  0  0  0  0
    2.6860   -0.1116    5.1231 F   0  0  0  0  0  0  0  0  0  0  0  0
    0.7577    0.5614    4.3623 F   0  0  0  0  0  0  0  0  0  0  0  0
   -0.3514   -1.6106   -0.1673 H   0  0  0  0  0  0  0  0  0  0  0  0
  1  3  1  0  0  0  0
  2  1  1  0  0  0  0
  3  4  1  0  0  0  0
  6 11  1  0  0  0  0
  7  6  2  0  0  0  0
  7  8  1  0  0  0  0
  8  9  2  0  0  0  0
  9 10  1  0  0  0  0
  9 15  1  0  0  0  0
 10 16  1  0  0  0  0
 11 17  1  0  0  0  0
 11 10  2  0  0  0  0
 12  6  1  0  0  0  0
 13  7  1  0  0  0  0
 14  8  1  0  0  0  0
 18 21  1  0  0  0  0
 18 22  1  0  0  0  0
 19 18  2  0  0  0  0
 20 18  2  0  0  0  0
 21  5  1  0  0  0  0
 22 24  1  0  0  0  0
 22 23  1  0  0  0  0
 25 22  1  0  0  0  0
 26  3  1  0  0  0  0
M  RAD  2   1   2   2   3
M  END
