Coordinates from ORCA-job C6H6+HOTf+NH2N2+-scan
 OpenBabel10221816143D

 26 24  0  0  0  0  0  0  0  0999 V2000
   -2.0541   -2.4516    0.5225 N   0  0  0  0  0  0  0  0  0  0  0  0
   -3.0891   -2.8399    0.3219 N   0  0  0  0  0  0  0  0  0  0  0  0
   -0.8955   -1.9976    0.7376 N   0  0  0  0  0  0  0  0  0  0  0  0
   -0.5134   -2.0509    1.7233 H   0  0  0  0  0  0  0  0  0  0  0  0
    1.6569   -3.4340    4.7397 H   0  0  0  0  0  0  0  0  0  0  0  0
   -0.2262   -1.4017   -2.3969 C   0  0  0  0  0  0  0  0  0  0  0  0
   -0.2910   -2.7621   -2.7170 C   0  0  0  0  0  0  0  0  0  0  0  0
    0.6775   -3.6434   -2.2228 C   0  0  0  0  0  0  0  0  0  0  0  0
    1.7097   -3.1719   -1.4058 C   0  0  0  0  0  0  0  0  0  0  0  0
    1.7786   -1.8139   -1.0779 C   0  0  0  0  0  0  0  0  0  0  0  0
    0.8066   -0.9256   -1.5701 C   0  0  0  0  0  0  0  0  0  0  0  0
   -0.9598   -0.7088   -2.7999 H   0  0  0  0  0  0  0  0  0  0  0  0
   -1.0797   -3.1300   -3.3669 H   0  0  0  0  0  0  0  0  0  0  0  0
    0.6328   -4.6966   -2.4846 H   0  0  0  0  0  0  0  0  0  0  0  0
    2.4657   -3.8576   -1.0350 H   0  0  0  0  0  0  0  0  0  0  0  0
    2.5794   -1.4432   -0.4453 H   0  0  0  0  0  0  0  0  0  0  0  0
    0.8777    0.1354   -1.3453 H   0  0  0  0  0  0  0  0  0  0  0  0
    1.5116   -1.6812    3.4835 S   0  0  0  0  0  0  0  0  0  0  0  0
    2.3421   -1.2099    2.3982 O   0  0  0  0  0  0  0  0  0  0  0  0
    0.1126   -2.0976    3.2222 O   0  0  0  0  0  0  0  0  0  0  0  0
    2.2762   -2.8842    4.2229 O   0  0  0  0  0  0  0  0  0  0  0  0
    1.4317   -0.3918    4.8493 C   0  0  0  0  0  0  0  0  0  0  0  0
    0.8616   -0.9579    5.9070 F   0  0  0  0  0  0  0  0  0  0  0  0
    2.6574    0.0049    5.1289 F   0  0  0  0  0  0  0  0  0  0  0  0
    0.6953    0.6134    4.4010 F   0  0  0  0  0  0  0  0  0  0  0  0
   -0.3418   -1.6803   -0.1003 H   0  0  0  0  0  0  0  0  0  0  0  0
  1  3  1  0  0  0  0
  2  1  1  0  0  0  0
  3  4  1  0  0  0  0
  6 11  1  0  0  0  0
  7  6  2  0  0  0  0
  7  8  1  0  0  0  0
  8  9  2  0  0  0  0
  9 10  1  0  0  0  0
  9 15  1  0  0  0  0
 10 16  1  0  0  0  0
 11 17  1  0  0  0  0
 11 10  2  0  0  0  0
 12  6  1  0  0  0  0
 13  7  1  0  0  0  0
 14  8  1  0  0  0  0
 18 21  1  0  0  0  0
 18 22  1  0  0  0  0
 19 18  2  0  0  0  0
 20 18  2  0  0  0  0
 21  5  1  0  0  0  0
 22 24  1  0  0  0  0
 22 23  1  0  0  0  0
 25 22  1  0  0  0  0
 26  3  1  0  0  0  0
M  RAD  2   1   2   2   3
M  END
