Coordinates from ORCA-job C6H6+HOTf+NH2N2+-scan
 OpenBabel10221816143D

 26 24  0  0  0  0  0  0  0  0999 V2000
   -2.1293   -2.6814    0.7832 N   0  0  0  0  0  0  0  0  0  0  0  0
   -3.1355   -3.1373    0.5781 N   0  0  0  0  0  0  0  0  0  0  0  0
   -1.0076   -2.1344    0.9854 N   0  0  0  0  0  0  0  0  0  0  0  0
   -0.6338   -2.1193    1.9751 H   0  0  0  0  0  0  0  0  0  0  0  0
    1.7512   -3.1446    4.9823 H   0  0  0  0  0  0  0  0  0  0  0  0
   -0.1174   -1.3324   -2.2475 C   0  0  0  0  0  0  0  0  0  0  0  0
   -0.1604   -2.4727   -3.0535 C   0  0  0  0  0  0  0  0  0  0  0  0
    0.7537   -3.5122   -2.8455 C   0  0  0  0  0  0  0  0  0  0  0  0
    1.6990   -3.4252   -1.8183 C   0  0  0  0  0  0  0  0  0  0  0  0
    1.7474   -2.2891   -1.0062 C   0  0  0  0  0  0  0  0  0  0  0  0
    0.8390   -1.2364   -1.2200 C   0  0  0  0  0  0  0  0  0  0  0  0
   -0.8001   -0.5072   -2.4322 H   0  0  0  0  0  0  0  0  0  0  0  0
   -0.8878   -2.5419   -3.8569 H   0  0  0  0  0  0  0  0  0  0  0  0
    0.7286   -4.3896   -3.4850 H   0  0  0  0  0  0  0  0  0  0  0  0
    2.4087   -4.2325   -1.6639 H   0  0  0  0  0  0  0  0  0  0  0  0
    2.4945   -2.2031   -0.2225 H   0  0  0  0  0  0  0  0  0  0  0  0
    0.9342   -0.3157   -0.6472 H   0  0  0  0  0  0  0  0  0  0  0  0
    1.4411   -1.5371    3.5718 S   0  0  0  0  0  0  0  0  0  0  0  0
    2.1687   -1.1581    2.3800 O   0  0  0  0  0  0  0  0  0  0  0  0
    0.0472   -2.0289    3.4577 O   0  0  0  0  0  0  0  0  0  0  0  0
    2.3090   -2.6239    4.3733 O   0  0  0  0  0  0  0  0  0  0  0  0
    1.4065   -0.1077    4.7932 C   0  0  0  0  0  0  0  0  0  0  0  0
    0.9334   -0.5711    5.9439 F   0  0  0  0  0  0  0  0  0  0  0  0
    2.6326    0.3545    4.9373 F   0  0  0  0  0  0  0  0  0  0  0  0
    0.6028    0.8182    4.2931 F   0  0  0  0  0  0  0  0  0  0  0  0
   -0.4031   -1.9487    0.1347 H   0  0  0  0  0  0  0  0  0  0  0  0
  1  3  1  0  0  0  0
  2  1  1  0  0  0  0
  3  4  1  0  0  0  0
  6 11  2  0  0  0  0
  7  8  2  0  0  0  0
  7  6  1  0  0  0  0
  8  9  1  0  0  0  0
  9 15  1  0  0  0  0
  9 10  2  0  0  0  0
 10 16  1  0  0  0  0
 11 10  1  0  0  0  0
 11 17  1  0  0  0  0
 12  6  1  0  0  0  0
 13  7  1  0  0  0  0
 14  8  1  0  0  0  0
 18 21  1  0  0  0  0
 18 22  1  0  0  0  0
 19 18  2  0  0  0  0
 20 18  2  0  0  0  0
 21  5  1  0  0  0  0
 22 24  1  0  0  0  0
 22 23  1  0  0  0  0
 25 22  1  0  0  0  0
 26  3  1  0  0  0  0
M  RAD  2   1   2   2   3
M  END
