Coordinates from ORCA-job C6H6+HOTf+NH2N2+-scan
 OpenBabel10221816143D

 26 25  0  0  1  0  0  0  0  0999 V2000
   -2.9190   -0.9617    6.0409 N   0  0  0  0  0  0  0  0  0  0  0  0
   -2.1840   -1.5321    5.4469 N   0  0  0  0  0  0  0  0  0  0  0  0
    0.5762   -1.0393   -0.3116 N   0  0  0  0  0  0  0  0  0  0  0  0
    0.4957   -1.0349    0.7145 H   0  0  0  0  0  0  0  0  0  0  0  0
   -0.9085   -2.6085    4.4310 H   0  0  0  0  0  0  0  0  0  0  0  0
   -0.6682   -1.6445   -2.4446 C   0  0  0  0  0  0  0  0  0  0  0  0
   -0.2137   -2.0571   -1.0935 C   0  0  1  0  0  0  0  0  0  0  0  0
    1.2190   -2.4863   -0.9605 C   0  0  1  0  0  0  0  0  0  0  0  0
    2.1124   -2.3333   -2.1004 C   0  0  0  0  0  0  0  0  0  0  0  0
    1.6343   -1.8439   -3.2698 C   0  0  0  0  0  0  0  0  0  0  0  0
    0.2256   -1.5081   -3.4463 C   0  0  0  0  0  0  0  0  0  0  0  0
   -1.7306   -1.4921   -2.6026 H   0  0  0  0  0  0  0  0  0  0  0  0
   -0.9547   -2.5376   -0.4592 H   0  0  0  0  0  0  0  0  0  0  0  0
    1.4966   -3.0948   -0.1057 H   0  0  0  0  0  0  0  0  0  0  0  0
    3.1406   -2.6613   -1.9944 H   0  0  0  0  0  0  0  0  0  0  0  0
    2.2968   -1.7455   -4.1245 H   0  0  0  0  0  0  0  0  0  0  0  0
   -0.1082   -1.2006   -4.4325 H   0  0  0  0  0  0  0  0  0  0  0  0
    0.7959   -2.5404    3.0953 S   0  0  0  0  0  0  0  0  0  0  0  0
    1.3660   -3.5365    2.2045 O   0  0  0  0  0  0  0  0  0  0  0  0
    0.2522   -1.2918    2.5331 O   0  0  0  0  0  0  0  0  0  0  0  0
   -0.3043   -3.2570    4.0020 O   0  0  0  0  0  0  0  0  0  0  0  0
    2.0754   -2.0589    4.3770 C   0  0  0  0  0  0  0  0  0  0  0  0
    1.4679   -1.3283    5.3081 F   0  0  0  0  0  0  0  0  0  0  0  0
    2.5933   -3.1522    4.9062 F   0  0  0  0  0  0  0  0  0  0  0  0
    3.0100   -1.3445    3.7631 F   0  0  0  0  0  0  0  0  0  0  0  0
    0.8558   -0.1868   -0.7867 H   0  0  0  0  0  0  0  0  0  0  0  0
  2  1  3  0  0  0  0
  3  4  1  0  0  0  0
  6  7  1  0  0  0  0
  7  8  1  0  0  0  0
  7 13  1  1  0  0  0
  7  3  1  0  0  0  0
  8  3  1  0  0  0  0
  8 14  1  1  0  0  0
  9 15  1  0  0  0  0
  9  8  1  0  0  0  0
 10  9  2  0  0  0  0
 11 10  1  0  0  0  0
 11  6  2  0  0  0  0
 12  6  1  0  0  0  0
 16 10  1  0  0  0  0
 17 11  1  0  0  0  0
 18 21  1  0  0  0  0
 18 22  1  0  0  0  0
 19 18  2  0  0  0  0
 20 18  2  0  0  0  0
 21  5  1  0  0  0  0
 22 24  1  0  0  0  0
 22 23  1  0  0  0  0
 25 22  1  0  0  0  0
 26  3  1  0  0  0  0
M  END
