Coordinates from ORCA-job C6H6+HOTf+NH2N2+-scan
 OpenBabel10221816143D

 26 24  0  0  0  0  0  0  0  0999 V2000
   -1.1289    0.3737    0.8223 N   0  0  0  0  0  0  0  0  0  0  0  0
   -1.8816    1.2103    0.8048 N   0  0  0  0  0  0  0  0  0  0  0  0
   -0.2494   -0.5354    0.7283 N   0  0  0  0  0  0  0  0  0  0  0  0
   -0.0834   -1.0865    1.6009 H   0  0  0  0  0  0  0  0  0  0  0  0
   -0.6515   -3.7700    4.5968 H   0  0  0  0  0  0  0  0  0  0  0  0
   -0.0675   -3.2194   -2.0160 C   0  0  0  0  0  0  0  0  0  0  0  0
    0.6605   -2.9361   -0.8629 C   0  0  0  0  0  0  0  0  0  0  0  0
    1.3051   -1.6898   -0.7273 C   0  0  0  0  0  0  0  0  0  0  0  0
    1.3041   -0.7838   -1.8106 C   0  0  0  0  0  0  0  0  0  0  0  0
    0.5646   -1.0731   -2.9610 C   0  0  0  0  0  0  0  0  0  0  0  0
   -0.1223   -2.2860   -3.0595 C   0  0  0  0  0  0  0  0  0  0  0  0
   -0.5773   -4.1728   -2.1153 H   0  0  0  0  0  0  0  0  0  0  0  0
    0.7327   -3.6641   -0.0608 H   0  0  0  0  0  0  0  0  0  0  0  0
    1.9584   -1.5149    0.1236 H   0  0  0  0  0  0  0  0  0  0  0  0
    1.8580    0.1484   -1.7349 H   0  0  0  0  0  0  0  0  0  0  0  0
    0.5482   -0.3676   -3.7859 H   0  0  0  0  0  0  0  0  0  0  0  0
   -0.6886   -2.5133   -3.9578 H   0  0  0  0  0  0  0  0  0  0  0  0
    0.9695   -2.9557    3.4228 S   0  0  0  0  0  0  0  0  0  0  0  0
    1.7628   -3.5362    2.3605 O   0  0  0  0  0  0  0  0  0  0  0  0
    0.0776   -1.8101    3.1437 O   0  0  0  0  0  0  0  0  0  0  0  0
    0.1120   -4.1301    4.1070 O   0  0  0  0  0  0  0  0  0  0  0  0
    2.0855   -2.4360    4.8424 C   0  0  0  0  0  0  0  0  0  0  0  0
    1.3100   -2.1320    5.8776 F   0  0  0  0  0  0  0  0  0  0  0  0
    2.8944   -3.4346    5.1365 F   0  0  0  0  0  0  0  0  0  0  0  0
    2.7673   -1.3732    4.4407 F   0  0  0  0  0  0  0  0  0  0  0  0
    0.1625   -0.7898   -0.2256 H   0  0  0  0  0  0  0  0  0  0  0  0
  2  1  1  0  0  0  0
  3  1  1  0  0  0  0
  3  4  1  0  0  0  0
  6  7  2  0  0  0  0
  7  8  1  0  0  0  0
  7 13  1  0  0  0  0
  8 14  1  0  0  0  0
  9 15  1  0  0  0  0
  9  8  2  0  0  0  0
 10  9  1  0  0  0  0
 11 10  2  0  0  0  0
 11  6  1  0  0  0  0
 12  6  1  0  0  0  0
 16 10  1  0  0  0  0
 17 11  1  0  0  0  0
 18 21  1  0  0  0  0
 18 22  1  0  0  0  0
 19 18  2  0  0  0  0
 20 18  2  0  0  0  0
 21  5  1  0  0  0  0
 22 24  1  0  0  0  0
 22 23  1  0  0  0  0
 25 22  1  0  0  0  0
 26  3  1  0  0  0  0
M  RAD  2   1   2   2   3
M  END
