Coordinates from ORCA-job C6H6+HOTf+NH2N2+-scan
 OpenBabel10221816143D

 26 24  0  0  0  0  0  0  0  0999 V2000
   -3.1775   -2.8653    2.2548 N   0  0  0  0  0  0  0  0  0  0  0  0
   -4.2919   -2.8694    2.3763 N   0  0  0  0  0  0  0  0  0  0  0  0
   -1.9096   -2.8854    2.1809 N   0  0  0  0  0  0  0  0  0  0  0  0
   -1.3311   -2.3795    2.9435 H   0  0  0  0  0  0  0  0  0  0  0  0
    1.2530   -1.9781    5.8131 H   0  0  0  0  0  0  0  0  0  0  0  0
    0.3944   -1.1305   -2.1377 C   0  0  0  0  0  0  0  0  0  0  0  0
    0.7684   -1.6275   -3.3889 C   0  0  0  0  0  0  0  0  0  0  0  0
    1.6336   -2.7220   -3.4789 C   0  0  0  0  0  0  0  0  0  0  0  0
    2.1155   -3.3265   -2.3142 C   0  0  0  0  0  0  0  0  0  0  0  0
    1.7441   -2.8310   -1.0608 C   0  0  0  0  0  0  0  0  0  0  0  0
    0.8855   -1.7306   -0.9738 C   0  0  0  0  0  0  0  0  0  0  0  0
   -0.2628   -0.2670   -2.0736 H   0  0  0  0  0  0  0  0  0  0  0  0
    0.3941   -1.1556   -4.2928 H   0  0  0  0  0  0  0  0  0  0  0  0
    1.9304   -3.1023   -4.4520 H   0  0  0  0  0  0  0  0  0  0  0  0
    2.7892   -4.1759   -2.3825 H   0  0  0  0  0  0  0  0  0  0  0  0
    2.1377   -3.2882   -0.1567 H   0  0  0  0  0  0  0  0  0  0  0  0
    0.6381   -1.3098    0.0002 H   0  0  0  0  0  0  0  0  0  0  0  0
    1.0725   -1.8283    3.6641 S   0  0  0  0  0  0  0  0  0  0  0  0
    1.5041   -2.7150    2.6070 O   0  0  0  0  0  0  0  0  0  0  0  0
   -0.3878   -1.6592    3.9116 O   0  0  0  0  0  0  0  0  0  0  0  0
    1.7754   -2.2563    5.0359 O   0  0  0  0  0  0  0  0  0  0  0  0
    1.7645   -0.0998    3.3864 C   0  0  0  0  0  0  0  0  0  0  0  0
    1.4976    0.6237    4.4646 F   0  0  0  0  0  0  0  0  0  0  0  0
    3.0614   -0.1942    3.1828 F   0  0  0  0  0  0  0  0  0  0  0  0
    1.1453    0.3931    2.3225 F   0  0  0  0  0  0  0  0  0  0  0  0
   -1.5214   -3.0972    1.2584 H   0  0  0  0  0  0  0  0  0  0  0  0
  1  2  1  0  0  0  0
  3  1  1  0  0  0  0
  3  4  1  0  0  0  0
  6 12  1  0  0  0  0
  6 11  2  0  0  0  0
  7  6  1  0  0  0  0
  8  7  2  0  0  0  0
  8  9  1  0  0  0  0
  9 10  2  0  0  0  0
 10 11  1  0  0  0  0
 10 16  1  0  0  0  0
 11 17  1  0  0  0  0
 13  7  1  0  0  0  0
 14  8  1  0  0  0  0
 15  9  1  0  0  0  0
 18 20  2  0  0  0  0
 18 21  1  0  0  0  0
 19 18  2  0  0  0  0
 21  5  1  0  0  0  0
 22 18  1  0  0  0  0
 22 23  1  0  0  0  0
 24 22  1  0  0  0  0
 25 22  1  0  0  0  0
 26  3  1  0  0  0  0
M  RAD  2   1   2   2   3
M  END
