Coordinates from ORCA-job C6H6+HOTf+NH2N2+-scan
 OpenBabel10221816143D

 26 24  0  0  0  0  0  0  0  0999 V2000
   -2.0200   -2.4736    0.4698 N   0  0  0  0  0  0  0  0  0  0  0  0
   -3.0483   -2.8770    0.2653 N   0  0  0  0  0  0  0  0  0  0  0  0
   -0.8698   -2.0046    0.6968 N   0  0  0  0  0  0  0  0  0  0  0  0
   -0.4937   -2.0613    1.6848 H   0  0  0  0  0  0  0  0  0  0  0  0
    1.6357   -3.4666    4.7201 H   0  0  0  0  0  0  0  0  0  0  0  0
   -0.2304   -1.3914   -2.4117 C   0  0  0  0  0  0  0  0  0  0  0  0
   -0.3182   -2.7687   -2.6440 C   0  0  0  0  0  0  0  0  0  0  0  0
    0.6425   -3.6316   -2.1034 C   0  0  0  0  0  0  0  0  0  0  0  0
    1.6931   -3.1238   -1.3329 C   0  0  0  0  0  0  0  0  0  0  0  0
    1.7844   -1.7483   -1.0931 C   0  0  0  0  0  0  0  0  0  0  0  0
    0.8180   -0.8794   -1.6280 C   0  0  0  0  0  0  0  0  0  0  0  0
   -0.9602   -0.7148   -2.8478 H   0  0  0  0  0  0  0  0  0  0  0  0
   -1.1192   -3.1653   -3.2614 H   0  0  0  0  0  0  0  0  0  0  0  0
    0.5794   -4.6986   -2.2965 H   0  0  0  0  0  0  0  0  0  0  0  0
    2.4446   -3.7950   -0.9282 H   0  0  0  0  0  0  0  0  0  0  0  0
    2.5981   -1.3506   -0.4943 H   0  0  0  0  0  0  0  0  0  0  0  0
    0.9014    0.1916   -1.4643 H   0  0  0  0  0  0  0  0  0  0  0  0
    1.5176   -1.7101    3.4661 S   0  0  0  0  0  0  0  0  0  0  0  0
    2.3640   -1.2416    2.3921 O   0  0  0  0  0  0  0  0  0  0  0  0
    0.1183   -2.1148    3.1880 O   0  0  0  0  0  0  0  0  0  0  0  0
    2.2645   -2.9216    4.2099 O   0  0  0  0  0  0  0  0  0  0  0  0
    1.4316   -0.4251    4.8357 C   0  0  0  0  0  0  0  0  0  0  0  0
    0.8459   -0.9912    5.8849 F   0  0  0  0  0  0  0  0  0  0  0  0
    2.6568   -0.0381    5.1303 F   0  0  0  0  0  0  0  0  0  0  0  0
    0.7072    0.5868    4.3831 F   0  0  0  0  0  0  0  0  0  0  0  0
   -0.3207   -1.6631   -0.1310 H   0  0  0  0  0  0  0  0  0  0  0  0
  1  3  1  0  0  0  0
  2  1  1  0  0  0  0
  3  4  1  0  0  0  0
  6 11  1  0  0  0  0
  7  6  2  0  0  0  0
  7  8  1  0  0  0  0
  8  9  2  0  0  0  0
  9 10  1  0  0  0  0
  9 15  1  0  0  0  0
 10 16  1  0  0  0  0
 11 17  1  0  0  0  0
 11 10  2  0  0  0  0
 12  6  1  0  0  0  0
 13  7  1  0  0  0  0
 14  8  1  0  0  0  0
 18 21  1  0  0  0  0
 18 22  1  0  0  0  0
 19 18  2  0  0  0  0
 20 18  2  0  0  0  0
 21  5  1  0  0  0  0
 22 24  1  0  0  0  0
 22 23  1  0  0  0  0
 25 22  1  0  0  0  0
 26  3  1  0  0  0  0
M  RAD  2   1   2   2   3
M  END
