Coordinates from ORCA-job C6H6+HOTf+NH2N2+-scan
 OpenBabel10221816143D

 26 24  0  0  0  0  0  0  0  0999 V2000
   -0.8115    0.4391    0.6487 N   0  0  0  0  0  0  0  0  0  0  0  0
   -1.4179    1.3745    0.5031 N   0  0  0  0  0  0  0  0  0  0  0  0
   -0.1301   -0.6181    0.7607 N   0  0  0  0  0  0  0  0  0  0  0  0
   -0.1108   -1.0853    1.7055 H   0  0  0  0  0  0  0  0  0  0  0  0
   -0.8710   -3.8730    4.4272 H   0  0  0  0  0  0  0  0  0  0  0  0
    0.1004   -3.2267   -1.7864 C   0  0  0  0  0  0  0  0  0  0  0  0
    1.2066   -2.8669   -1.0142 C   0  0  0  0  0  0  0  0  0  0  0  0
    1.7676   -1.5837   -1.1534 C   0  0  0  0  0  0  0  0  0  0  0  0
    1.2405   -0.6835   -2.0985 C   0  0  0  0  0  0  0  0  0  0  0  0
    0.1291   -1.0503   -2.8639 C   0  0  0  0  0  0  0  0  0  0  0  0
   -0.4370   -2.3197   -2.7065 C   0  0  0  0  0  0  0  0  0  0  0  0
   -0.3351   -4.2158   -1.6822 H   0  0  0  0  0  0  0  0  0  0  0  0
    1.6316   -3.5659   -0.3004 H   0  0  0  0  0  0  0  0  0  0  0  0
    2.6634   -1.3218   -0.5949 H   0  0  0  0  0  0  0  0  0  0  0  0
    1.7038    0.2899   -2.2364 H   0  0  0  0  0  0  0  0  0  0  0  0
   -0.2788   -0.3593   -3.5955 H   0  0  0  0  0  0  0  0  0  0  0  0
   -1.2931   -2.6065   -3.3102 H   0  0  0  0  0  0  0  0  0  0  0  0
    0.8356   -2.9722    3.4549 S   0  0  0  0  0  0  0  0  0  0  0  0
    1.7181   -3.4686    2.4223 O   0  0  0  0  0  0  0  0  0  0  0  0
   -0.0450   -1.8115    3.1881 O   0  0  0  0  0  0  0  0  0  0  0  0
   -0.0648   -4.1942    3.9805 O   0  0  0  0  0  0  0  0  0  0  0  0
    1.8217   -2.5447    4.9967 C   0  0  0  0  0  0  0  0  0  0  0  0
    0.9581   -2.3214    5.9809 F   0  0  0  0  0  0  0  0  0  0  0  0
    2.6162   -3.5561    5.2862 F   0  0  0  0  0  0  0  0  0  0  0  0
    2.5201   -1.4515    4.7288 F   0  0  0  0  0  0  0  0  0  0  0  0
    0.5050   -0.8848   -0.0509 H   0  0  0  0  0  0  0  0  0  0  0  0
  1  3  1  0  0  0  0
  2  1  1  0  0  0  0
  3  4  1  0  0  0  0
  6 12  1  0  0  0  0
  6  7  2  0  0  0  0
  7 13  1  0  0  0  0
  8  7  1  0  0  0  0
  8 14  1  0  0  0  0
  9  8  2  0  0  0  0
 10 11  2  0  0  0  0
 10  9  1  0  0  0  0
 11  6  1  0  0  0  0
 15  9  1  0  0  0  0
 16 10  1  0  0  0  0
 17 11  1  0  0  0  0
 18 21  1  0  0  0  0
 18 22  1  0  0  0  0
 19 18  2  0  0  0  0
 20 18  2  0  0  0  0
 21  5  1  0  0  0  0
 22 24  1  0  0  0  0
 22 23  1  0  0  0  0
 25 22  1  0  0  0  0
 26  3  1  0  0  0  0
M  RAD  2   1   2   2   3
M  END
