Coordinates from ORCA-job C6H6+HOTf+NH2N2+-scan
 OpenBabel10221816143D

 26 25  0  0  1  0  0  0  0  0999 V2000
   -2.0947    0.4332    6.0787 N   0  0  0  0  0  0  0  0  0  0  0  0
   -1.7300   -0.4019    5.4558 N   0  0  0  0  0  0  0  0  0  0  0  0
    0.5735   -1.2032   -0.3372 N   0  0  0  0  0  0  0  0  0  0  0  0
    0.5168   -1.1691    0.6985 H   0  0  0  0  0  0  0  0  0  0  0  0
   -1.1505   -1.9305    4.3977 H   0  0  0  0  0  0  0  0  0  0  0  0
   -0.3534   -2.5842   -2.2567 C   0  0  0  0  0  0  0  0  0  0  0  0
    0.3750   -2.5579   -0.9817 C   0  0  1  0  0  0  0  0  0  0  0  0
    1.6870   -1.7907   -0.9279 C   0  0  1  0  0  0  0  0  0  0  0  0
    2.1863   -1.2238   -2.2028 C   0  0  0  0  0  0  0  0  0  0  0  0
    1.3954   -1.2114   -3.2974 C   0  0  0  0  0  0  0  0  0  0  0  0
    0.1053   -1.8887   -3.3219 C   0  0  0  0  0  0  0  0  0  0  0  0
   -1.2385   -3.2080   -2.3183 H   0  0  0  0  0  0  0  0  0  0  0  0
    0.1898   -3.3154   -0.2269 H   0  0  0  0  0  0  0  0  0  0  0  0
    2.4387   -2.1072   -0.2089 H   0  0  0  0  0  0  0  0  0  0  0  0
    3.2074   -0.8592   -2.2309 H   0  0  0  0  0  0  0  0  0  0  0  0
    1.7591   -0.7696   -4.2200 H   0  0  0  0  0  0  0  0  0  0  0  0
   -0.4494   -1.9037   -4.2550 H   0  0  0  0  0  0  0  0  0  0  0  0
    0.3566   -2.6922    3.0365 S   0  0  0  0  0  0  0  0  0  0  0  0
    0.3599   -3.8243    2.1278 O   0  0  0  0  0  0  0  0  0  0  0  0
    0.4995   -1.3293    2.4875 O   0  0  0  0  0  0  0  0  0  0  0  0
   -0.9477   -2.7836    3.9485 O   0  0  0  0  0  0  0  0  0  0  0  0
    1.7199   -2.9093    4.3048 C   0  0  0  0  0  0  0  0  0  0  0  0
    1.5542   -1.9848    5.2464 F   0  0  0  0  0  0  0  0  0  0  0  0
    1.6423   -4.1215    4.8207 F   0  0  0  0  0  0  0  0  0  0  0  0
    2.8778   -2.7350    3.6805 F   0  0  0  0  0  0  0  0  0  0  0  0
    0.1423   -0.4066   -0.8076 H   0  0  0  0  0  0  0  0  0  0  0  0
  2  1  3  0  0  0  0
  3  4  1  0  0  0  0
  6  7  1  0  0  0  0
  7  8  1  0  0  0  0
  7  3  1  0  0  0  0
  7 13  1  1  0  0  0
  8  3  1  0  0  0  0
  8 14  1  1  0  0  0
  9  8  1  0  0  0  0
 10  9  2  0  0  0  0
 11 10  1  0  0  0  0
 11  6  2  0  0  0  0
 12  6  1  0  0  0  0
 15  9  1  0  0  0  0
 16 10  1  0  0  0  0
 17 11  1  0  0  0  0
 18 21  1  0  0  0  0
 18 22  1  0  0  0  0
 19 18  2  0  0  0  0
 20 18  2  0  0  0  0
 21  5  1  0  0  0  0
 22 24  1  0  0  0  0
 22 23  1  0  0  0  0
 25 22  1  0  0  0  0
 26  3  1  0  0  0  0
M  END
