Coordinates from ORCA-job C6H6+HOTf+NH2N2+-scan
 OpenBabel10221816143D

 26 24  0  0  0  0  0  0  0  0999 V2000
   -2.2606   -2.6363    0.9636 N   0  0  0  0  0  0  0  0  0  0  0  0
   -3.2827   -3.0706    0.7956 N   0  0  0  0  0  0  0  0  0  0  0  0
   -1.1211   -2.1098    1.1244 N   0  0  0  0  0  0  0  0  0  0  0  0
   -0.7227   -2.0808    2.1057 H   0  0  0  0  0  0  0  0  0  0  0  0
    1.7178   -3.0973    5.0639 H   0  0  0  0  0  0  0  0  0  0  0  0
   -0.1319   -1.4058   -2.2658 C   0  0  0  0  0  0  0  0  0  0  0  0
   -0.0472   -2.4393   -3.2015 C   0  0  0  0  0  0  0  0  0  0  0  0
    0.9187   -3.4419   -3.0535 C   0  0  0  0  0  0  0  0  0  0  0  0
    1.7820   -3.4301   -1.9523 C   0  0  0  0  0  0  0  0  0  0  0  0
    1.7034   -2.4003   -1.0115 C   0  0  0  0  0  0  0  0  0  0  0  0
    0.7487   -1.3793   -1.1689 C   0  0  0  0  0  0  0  0  0  0  0  0
   -0.8499   -0.6021   -2.4066 H   0  0  0  0  0  0  0  0  0  0  0  0
   -0.7144   -2.4508   -4.0581 H   0  0  0  0  0  0  0  0  0  0  0  0
    0.9953   -4.2329   -3.7936 H   0  0  0  0  0  0  0  0  0  0  0  0
    2.5297   -4.2096   -1.8408 H   0  0  0  0  0  0  0  0  0  0  0  0
    2.3958   -2.3649   -0.1752 H   0  0  0  0  0  0  0  0  0  0  0  0
    0.7755   -0.5104   -0.5120 H   0  0  0  0  0  0  0  0  0  0  0  0
    1.4137   -1.5300    3.6075 S   0  0  0  0  0  0  0  0  0  0  0  0
    2.1083   -1.2224    2.3758 O   0  0  0  0  0  0  0  0  0  0  0  0
   -0.0005   -1.9735    3.5607 O   0  0  0  0  0  0  0  0  0  0  0  0
    2.2709   -2.6186    4.4172 O   0  0  0  0  0  0  0  0  0  0  0  0
    1.4760   -0.0562    4.7744 C   0  0  0  0  0  0  0  0  0  0  0  0
    1.0295   -0.4595    5.9578 F   0  0  0  0  0  0  0  0  0  0  0  0
    2.7224    0.3645    4.8566 F   0  0  0  0  0  0  0  0  0  0  0  0
    0.6881    0.8798    4.2683 F   0  0  0  0  0  0  0  0  0  0  0  0
   -0.5222   -2.0000    0.2586 H   0  0  0  0  0  0  0  0  0  0  0  0
  1  3  1  0  0  0  0
  2  1  1  0  0  0  0
  3  4  1  0  0  0  0
  6 11  2  0  0  0  0
  7  8  2  0  0  0  0
  7  6  1  0  0  0  0
  8  9  1  0  0  0  0
  9 15  1  0  0  0  0
  9 10  2  0  0  0  0
 10 16  1  0  0  0  0
 11 10  1  0  0  0  0
 11 17  1  0  0  0  0
 12  6  1  0  0  0  0
 13  7  1  0  0  0  0
 14  8  1  0  0  0  0
 18 21  1  0  0  0  0
 18 22  1  0  0  0  0
 19 18  2  0  0  0  0
 20 18  2  0  0  0  0
 21  5  1  0  0  0  0
 22 24  1  0  0  0  0
 22 23  1  0  0  0  0
 25 22  1  0  0  0  0
 26  3  1  0  0  0  0
M  RAD  2   1   2   2   3
M  END
