Coordinates from ORCA-job C6H6+HOTf+NH2N2+-scan
 OpenBabel10221816143D

 26 24  0  0  0  0  0  0  0  0999 V2000
   -2.8318   -2.3130    1.8060 N   0  0  0  0  0  0  0  0  0  0  0  0
   -3.9434   -2.4580    1.8493 N   0  0  0  0  0  0  0  0  0  0  0  0
   -1.5779   -2.1340    1.7916 N   0  0  0  0  0  0  0  0  0  0  0  0
   -1.0506   -1.9938    2.7211 H   0  0  0  0  0  0  0  0  0  0  0  0
    1.4599   -2.9734    5.5123 H   0  0  0  0  0  0  0  0  0  0  0  0
   -0.1798   -1.7430   -2.6479 C   0  0  0  0  0  0  0  0  0  0  0  0
    0.3663   -2.4455   -3.7255 C   0  0  0  0  0  0  0  0  0  0  0  0
    1.5651   -3.1503   -3.5717 C   0  0  0  0  0  0  0  0  0  0  0  0
    2.2071   -3.1660   -2.3288 C   0  0  0  0  0  0  0  0  0  0  0  0
    1.6664   -2.4639   -1.2472 C   0  0  0  0  0  0  0  0  0  0  0  0
    0.4757   -1.7461   -1.4107 C   0  0  0  0  0  0  0  0  0  0  0  0
   -1.0957   -1.1735   -2.7827 H   0  0  0  0  0  0  0  0  0  0  0  0
   -0.1350   -2.4313   -4.6889 H   0  0  0  0  0  0  0  0  0  0  0  0
    1.9938   -3.6860   -4.4132 H   0  0  0  0  0  0  0  0  0  0  0  0
    3.1373   -3.7132   -2.2061 H   0  0  0  0  0  0  0  0  0  0  0  0
    2.1829   -2.4540   -0.2911 H   0  0  0  0  0  0  0  0  0  0  0  0
    0.1051   -1.1154   -0.5991 H   0  0  0  0  0  0  0  0  0  0  0  0
    1.2793   -1.6620    3.8015 S   0  0  0  0  0  0  0  0  0  0  0  0
    1.8274   -1.7473    2.4665 O   0  0  0  0  0  0  0  0  0  0  0  0
   -0.1936   -1.7764    3.9873 O   0  0  0  0  0  0  0  0  0  0  0  0
    1.9985   -2.7534    4.7278 O   0  0  0  0  0  0  0  0  0  0  0  0
    1.7938   -0.0514    4.6311 C   0  0  0  0  0  0  0  0  0  0  0  0
    1.4469   -0.1305    5.9093 F   0  0  0  0  0  0  0  0  0  0  0  0
    3.0967    0.0884    4.4991 F   0  0  0  0  0  0  0  0  0  0  0  0
    1.1414    0.9265    4.0239 F   0  0  0  0  0  0  0  0  0  0  0  0
   -1.1131   -2.2116    0.8764 H   0  0  0  0  0  0  0  0  0  0  0  0
  1  2  1  0  0  0  0
  3  1  1  0  0  0  0
  3  4  1  0  0  0  0
  6 11  2  0  0  0  0
  7  8  2  0  0  0  0
  7  6  1  0  0  0  0
  8  9  1  0  0  0  0
  9 15  1  0  0  0  0
  9 10  2  0  0  0  0
 10 16  1  0  0  0  0
 11 10  1  0  0  0  0
 11 17  1  0  0  0  0
 12  6  1  0  0  0  0
 13  7  1  0  0  0  0
 14  8  1  0  0  0  0
 18 20  2  0  0  0  0
 18 22  1  0  0  0  0
 18 21  1  0  0  0  0
 19 18  2  0  0  0  0
 21  5  1  0  0  0  0
 22 23  1  0  0  0  0
 24 22  1  0  0  0  0
 25 22  1  0  0  0  0
 26  3  1  0  0  0  0
M  RAD  2   1   2   2   3
M  END
