Coordinates from ORCA-job C6H6+HOTf+NH2N2+-scan
 OpenBabel10221816143D

 26 24  0  0  0  0  0  0  0  0999 V2000
   -2.0360   -2.4451    0.4588 N   0  0  0  0  0  0  0  0  0  0  0  0
   -3.0681   -2.8429    0.2625 N   0  0  0  0  0  0  0  0  0  0  0  0
   -0.8794   -1.9875    0.6749 N   0  0  0  0  0  0  0  0  0  0  0  0
   -0.4946   -2.0479    1.6592 H   0  0  0  0  0  0  0  0  0  0  0  0
    1.6165   -3.4971    4.6855 H   0  0  0  0  0  0  0  0  0  0  0  0
   -0.2341   -1.4110   -2.4258 C   0  0  0  0  0  0  0  0  0  0  0  0
   -0.3094   -2.7963   -2.6118 C   0  0  0  0  0  0  0  0  0  0  0  0
    0.6559   -3.6317   -2.0379 C   0  0  0  0  0  0  0  0  0  0  0  0
    1.7001   -3.0889   -1.2824 C   0  0  0  0  0  0  0  0  0  0  0  0
    1.7793   -1.7057   -1.0896 C   0  0  0  0  0  0  0  0  0  0  0  0
    0.8069   -0.8640   -1.6559 C   0  0  0  0  0  0  0  0  0  0  0  0
   -0.9676   -0.7557   -2.8876 H   0  0  0  0  0  0  0  0  0  0  0  0
   -1.1042   -3.2204   -3.2189 H   0  0  0  0  0  0  0  0  0  0  0  0
    0.6026   -4.7052   -2.1945 H   0  0  0  0  0  0  0  0  0  0  0  0
    2.4559   -3.7395   -0.8528 H   0  0  0  0  0  0  0  0  0  0  0  0
    2.5878   -1.2813   -0.5023 H   0  0  0  0  0  0  0  0  0  0  0  0
    0.8798    0.2127   -1.5288 H   0  0  0  0  0  0  0  0  0  0  0  0
    1.5229   -1.7280    3.4472 S   0  0  0  0  0  0  0  0  0  0  0  0
    2.3791   -1.2584    2.3815 O   0  0  0  0  0  0  0  0  0  0  0  0
    0.1199   -2.1134    3.1606 O   0  0  0  0  0  0  0  0  0  0  0  0
    2.2530   -2.9557    4.1810 O   0  0  0  0  0  0  0  0  0  0  0  0
    1.4465   -0.4565    4.8298 C   0  0  0  0  0  0  0  0  0  0  0  0
    0.8512   -1.0271    5.8712 F   0  0  0  0  0  0  0  0  0  0  0  0
    2.6748   -0.0860    5.1324 F   0  0  0  0  0  0  0  0  0  0  0  0
    0.7347    0.5680    4.3857 F   0  0  0  0  0  0  0  0  0  0  0  0
   -0.3509   -1.6135   -0.1521 H   0  0  0  0  0  0  0  0  0  0  0  0
  1  3  1  0  0  0  0
  2  1  1  0  0  0  0
  3  4  1  0  0  0  0
  6 11  1  0  0  0  0
  7  6  2  0  0  0  0
  7  8  1  0  0  0  0
  8  9  2  0  0  0  0
  9 10  1  0  0  0  0
  9 15  1  0  0  0  0
 10 16  1  0  0  0  0
 11 17  1  0  0  0  0
 11 10  2  0  0  0  0
 12  6  1  0  0  0  0
 13  7  1  0  0  0  0
 14  8  1  0  0  0  0
 18 21  1  0  0  0  0
 18 22  1  0  0  0  0
 19 18  2  0  0  0  0
 20 18  2  0  0  0  0
 21  5  1  0  0  0  0
 22 24  1  0  0  0  0
 22 23  1  0  0  0  0
 25 22  1  0  0  0  0
 26  3  1  0  0  0  0
M  RAD  2   1   2   2   3
M  END
