Coordinates from ORCA-job C6H6+HOTf+NH2N2+-scan
 OpenBabel10221816143D

 26 24  0  0  0  0  0  0  0  0999 V2000
   -2.4009   -2.5721    1.1690 N   0  0  0  0  0  0  0  0  0  0  0  0
   -3.4436   -2.9728    1.0569 N   0  0  0  0  0  0  0  0  0  0  0  0
   -1.2384   -2.0815    1.2804 N   0  0  0  0  0  0  0  0  0  0  0  0
   -0.8071   -2.0362    2.2510 H   0  0  0  0  0  0  0  0  0  0  0  0
    1.6654   -3.0686    5.1548 H   0  0  0  0  0  0  0  0  0  0  0  0
   -0.1537   -1.4926   -2.3381 C   0  0  0  0  0  0  0  0  0  0  0  0
    0.0672   -2.4277   -3.3518 C   0  0  0  0  0  0  0  0  0  0  0  0
    1.0949   -3.3708   -3.2273 C   0  0  0  0  0  0  0  0  0  0  0  0
    1.8801   -3.4005   -2.0689 C   0  0  0  0  0  0  0  0  0  0  0  0
    1.6659   -2.4682   -1.0504 C   0  0  0  0  0  0  0  0  0  0  0  0
    0.6530   -1.5031   -1.1868 C   0  0  0  0  0  0  0  0  0  0  0  0
   -0.9185   -0.7302   -2.4613 H   0  0  0  0  0  0  0  0  0  0  0  0
   -0.5432   -2.4062   -4.2496 H   0  0  0  0  0  0  0  0  0  0  0  0
    1.2784   -4.0825   -4.0267 H   0  0  0  0  0  0  0  0  0  0  0  0
    2.6748   -4.1341   -1.9715 H   0  0  0  0  0  0  0  0  0  0  0  0
    2.3046   -2.4599   -0.1716 H   0  0  0  0  0  0  0  0  0  0  0  0
    0.5913   -0.6811   -0.4726 H   0  0  0  0  0  0  0  0  0  0  0  0
    1.3879   -1.5396    3.6523 S   0  0  0  0  0  0  0  0  0  0  0  0
    2.0526   -1.3095    2.3879 O   0  0  0  0  0  0  0  0  0  0  0  0
   -0.0477   -1.9162    3.6655 O   0  0  0  0  0  0  0  0  0  0  0  0
    2.2178   -2.6399    4.4733 O   0  0  0  0  0  0  0  0  0  0  0  0
    1.5561   -0.0304    4.7630 C   0  0  0  0  0  0  0  0  0  0  0  0
    1.1308   -0.3718    5.9732 F   0  0  0  0  0  0  0  0  0  0  0  0
    2.8226    0.3329    4.7905 F   0  0  0  0  0  0  0  0  0  0  0  0
    0.7958    0.9230    4.2481 F   0  0  0  0  0  0  0  0  0  0  0  0
   -0.6633   -2.0385    0.4010 H   0  0  0  0  0  0  0  0  0  0  0  0
  1  3  1  0  0  0  0
  2  1  1  0  0  0  0
  3  4  1  0  0  0  0
  6 11  2  0  0  0  0
  7  8  2  0  0  0  0
  7  6  1  0  0  0  0
  8  9  1  0  0  0  0
  9 15  1  0  0  0  0
  9 10  2  0  0  0  0
 10 16  1  0  0  0  0
 11 10  1  0  0  0  0
 11 17  1  0  0  0  0
 12  6  1  0  0  0  0
 13  7  1  0  0  0  0
 14  8  1  0  0  0  0
 18 20  2  0  0  0  0
 18 21  1  0  0  0  0
 18 22  1  0  0  0  0
 19 18  2  0  0  0  0
 21  5  1  0  0  0  0
 22 24  1  0  0  0  0
 22 23  1  0  0  0  0
 25 22  1  0  0  0  0
 26  3  1  0  0  0  0
M  RAD  2   1   2   2   3
M  END
