Coordinates from ORCA-job C6H6+HOTf+NH2N2+-scan
 OpenBabel10221816143D

 26 24  0  0  0  0  0  0  0  0999 V2000
   -2.1313    0.5331    5.7906 N   0  0  0  0  0  0  0  0  0  0  0  0
   -1.7492   -0.3257    5.2121 N   0  0  0  0  0  0  0  0  0  0  0  0
    0.8195   -1.3644   -0.3763 N   0  0  0  0  0  0  0  0  0  0  0  0
    0.6923   -1.3298    0.6773 H   0  0  0  0  0  0  0  0  0  0  0  0
   -1.1576   -1.8950    4.2458 H   0  0  0  0  0  0  0  0  0  0  0  0
   -0.3598   -2.5889   -2.1825 C   0  0  0  0  0  0  0  0  0  0  0  0
    0.4155   -2.7017   -0.9751 C   0  0  0  0  0  0  0  0  0  0  0  0
    1.6516   -1.7033   -0.8377 C   0  0  0  0  0  0  0  0  0  0  0  0
    2.1422   -1.1946   -2.1583 C   0  0  0  0  0  0  0  0  0  0  0  0
    1.2668   -1.0694   -3.1845 C   0  0  0  0  0  0  0  0  0  0  0  0
   -0.0279   -1.7162   -3.1731 C   0  0  0  0  0  0  0  0  0  0  0  0
   -1.2059   -3.2630   -2.2744 H   0  0  0  0  0  0  0  0  0  0  0  0
    0.3333   -3.4425   -0.1935 H   0  0  0  0  0  0  0  0  0  0  0  0
    2.5062   -2.0848   -0.2549 H   0  0  0  0  0  0  0  0  0  0  0  0
    3.1989   -0.9735   -2.2541 H   0  0  0  0  0  0  0  0  0  0  0  0
    1.5906   -0.6019   -4.1102 H   0  0  0  0  0  0  0  0  0  0  0  0
   -0.6678   -1.6214   -4.0435 H   0  0  0  0  0  0  0  0  0  0  0  0
    0.3866   -2.7666    2.9906 S   0  0  0  0  0  0  0  0  0  0  0  0
    0.4158   -3.9568    2.1632 O   0  0  0  0  0  0  0  0  0  0  0  0
    0.5690   -1.4431    2.3484 O   0  0  0  0  0  0  0  0  0  0  0  0
   -0.9572   -2.7726    3.8430 O   0  0  0  0  0  0  0  0  0  0  0  0
    1.6961   -2.8894    4.3301 C   0  0  0  0  0  0  0  0  0  0  0  0
    1.4850   -1.9020    5.1952 F   0  0  0  0  0  0  0  0  0  0  0  0
    1.5935   -4.0629    4.9226 F   0  0  0  0  0  0  0  0  0  0  0  0
    2.8779   -2.7535    3.7455 F   0  0  0  0  0  0  0  0  0  0  0  0
    0.2386   -0.5879   -0.7560 H   0  0  0  0  0  0  0  0  0  0  0  0
  2  1  3  0  0  0  0
  3  4  1  0  0  0  0
  6  7  1  0  0  0  0
  7  3  1  0  0  0  0
  7 13  1  0  0  0  0
  8  3  1  0  0  0  0
  8 14  1  0  0  0  0
  9  8  1  0  0  0  0
 10 11  2  0  0  0  0
 10  9  1  0  0  0  0
 11  6  1  0  0  0  0
 12  6  1  0  0  0  0
 15  9  1  0  0  0  0
 16 10  1  0  0  0  0
 17 11  1  0  0  0  0
 18 21  1  0  0  0  0
 18 22  1  0  0  0  0
 19 18  2  0  0  0  0
 20 18  2  0  0  0  0
 21  5  1  0  0  0  0
 22 24  1  0  0  0  0
 22 23  1  0  0  0  0
 25 22  1  0  0  0  0
 26  3  1  0  0  0  0
M  RAD  4   6   2   7   2   8   2   9   2
M  END
