Coordinates from ORCA-job C6H6+HOTf+NH2N2+-scan
 OpenBabel10221816143D

 26 24  0  0  0  0  0  0  0  0999 V2000
   -2.5597   -2.4649    1.3932 N   0  0  0  0  0  0  0  0  0  0  0  0
   -3.6287   -2.8030    1.3454 N   0  0  0  0  0  0  0  0  0  0  0  0
   -1.3656   -2.0435    1.4519 N   0  0  0  0  0  0  0  0  0  0  0  0
   -0.8940   -1.9886    2.4091 H   0  0  0  0  0  0  0  0  0  0  0  0
    1.6092   -3.0653    5.2375 H   0  0  0  0  0  0  0  0  0  0  0  0
   -0.1779   -1.5986   -2.4520 C   0  0  0  0  0  0  0  0  0  0  0  0
    0.1766   -2.4557   -3.4969 C   0  0  0  0  0  0  0  0  0  0  0  0
    1.2766   -3.3119   -3.3641 C   0  0  0  0  0  0  0  0  0  0  0  0
    2.0026   -3.3313   -2.1674 C   0  0  0  0  0  0  0  0  0  0  0  0
    1.6546   -2.4761   -1.1179 C   0  0  0  0  0  0  0  0  0  0  0  0
    0.5686   -1.5988   -1.2632 C   0  0  0  0  0  0  0  0  0  0  0  0
   -1.0035   -0.9034   -2.5797 H   0  0  0  0  0  0  0  0  0  0  0  0
   -0.3898   -2.4403   -4.4233 H   0  0  0  0  0  0  0  0  0  0  0  0
    1.5619   -3.9627   -4.1850 H   0  0  0  0  0  0  0  0  0  0  0  0
    2.8541   -3.9969   -2.0611 H   0  0  0  0  0  0  0  0  0  0  0  0
    2.2464   -2.4603   -0.2068 H   0  0  0  0  0  0  0  0  0  0  0  0
    0.3934   -0.8260   -0.5123 H   0  0  0  0  0  0  0  0  0  0  0  0
    1.3590   -1.5671    3.6988 S   0  0  0  0  0  0  0  0  0  0  0  0
    1.9866   -1.4086    2.4054 O   0  0  0  0  0  0  0  0  0  0  0  0
   -0.0945   -1.8675    3.7716 O   0  0  0  0  0  0  0  0  0  0  0  0
    2.1574   -2.6865    4.5236 O   0  0  0  0  0  0  0  0  0  0  0  0
    1.6409   -0.0375    4.7588 C   0  0  0  0  0  0  0  0  0  0  0  0
    1.2421   -0.3242    5.9918 F   0  0  0  0  0  0  0  0  0  0  0  0
    2.9239    0.2608    4.7320 F   0  0  0  0  0  0  0  0  0  0  0  0
    0.9110    0.9378    4.2417 F   0  0  0  0  0  0  0  0  0  0  0  0
   -0.8284   -2.0580    0.5590 H   0  0  0  0  0  0  0  0  0  0  0  0
  1  3  1  0  0  0  0
  2  1  1  0  0  0  0
  3  4  1  0  0  0  0
  6 11  2  0  0  0  0
  7  8  2  0  0  0  0
  7  6  1  0  0  0  0
  8  9  1  0  0  0  0
  9 15  1  0  0  0  0
  9 10  2  0  0  0  0
 10 16  1  0  0  0  0
 11 10  1  0  0  0  0
 11 17  1  0  0  0  0
 12  6  1  0  0  0  0
 13  7  1  0  0  0  0
 14  8  1  0  0  0  0
 18 20  2  0  0  0  0
 18 21  1  0  0  0  0
 18 22  1  0  0  0  0
 19 18  2  0  0  0  0
 21  5  1  0  0  0  0
 22 23  1  0  0  0  0
 24 22  1  0  0  0  0
 25 22  1  0  0  0  0
 26  3  1  0  0  0  0
M  RAD  2   1   2   2   3
M  END
