Coordinates from ORCA-job C6H6+HOTf+NH2N2+-scan
 OpenBabel10221816143D

 26 25  0  0  1  0  0  0  0  0999 V2000
   -2.5347   -0.1344    6.1231 N   0  0  0  0  0  0  0  0  0  0  0  0
   -2.0027   -0.8611    5.4849 N   0  0  0  0  0  0  0  0  0  0  0  0
    0.5689   -1.1281   -0.3177 N   0  0  0  0  0  0  0  0  0  0  0  0
    0.5024   -1.0755    0.7124 H   0  0  0  0  0  0  0  0  0  0  0  0
   -1.1084   -2.1996    4.3925 H   0  0  0  0  0  0  0  0  0  0  0  0
   -0.5739   -2.2338   -2.3079 C   0  0  0  0  0  0  0  0  0  0  0  0
    0.0848   -2.3931   -0.9983 C   0  0  1  0  0  0  0  0  0  0  0  0
    1.5649   -2.1091   -0.9165 C   0  0  1  0  0  0  0  0  0  0  0  0
    2.2550   -1.6870   -2.1484 C   0  0  0  0  0  0  0  0  0  0  0  0
    1.5479   -1.4649   -3.2782 C   0  0  0  0  0  0  0  0  0  0  0  0
    0.1179   -1.7422   -3.3591 C   0  0  0  0  0  0  0  0  0  0  0  0
   -1.6042   -2.5592   -2.4025 H   0  0  0  0  0  0  0  0  0  0  0  0
   -0.3406   -3.0795   -0.2730 H   0  0  0  0  0  0  0  0  0  0  0  0
    2.1336   -2.6011   -0.1341 H   0  0  0  0  0  0  0  0  0  0  0  0
    3.3359   -1.6014   -2.1235 H   0  0  0  0  0  0  0  0  0  0  0  0
    2.0597   -1.1451   -4.1807 H   0  0  0  0  0  0  0  0  0  0  0  0
   -0.3741   -1.6188   -4.3190 H   0  0  0  0  0  0  0  0  0  0  0  0
    0.5356   -2.5558    3.0258 S   0  0  0  0  0  0  0  0  0  0  0  0
    0.7689   -3.6068    2.0483 O   0  0  0  0  0  0  0  0  0  0  0  0
    0.3953   -1.1668    2.5534 O   0  0  0  0  0  0  0  0  0  0  0  0
   -0.7213   -2.9700    3.9153 O   0  0  0  0  0  0  0  0  0  0  0  0
    1.9151   -2.5770    4.2949 C   0  0  0  0  0  0  0  0  0  0  0  0
    1.5755   -1.7552    5.2831 F   0  0  0  0  0  0  0  0  0  0  0  0
    2.0719   -3.8087    4.7432 F   0  0  0  0  0  0  0  0  0  0  0  0
    3.0182   -2.1505    3.6929 F   0  0  0  0  0  0  0  0  0  0  0  0
    0.4310   -0.2535   -0.8205 H   0  0  0  0  0  0  0  0  0  0  0  0
  2  1  3  0  0  0  0
  3  4  1  0  0  0  0
  6  7  1  0  0  0  0
  7  8  1  0  0  0  0
  7  3  1  0  0  0  0
  7 13  1  1  0  0  0
  8  3  1  0  0  0  0
  8 14  1  1  0  0  0
  9 15  1  0  0  0  0
  9  8  1  0  0  0  0
 10  9  2  0  0  0  0
 11 10  1  0  0  0  0
 11  6  2  0  0  0  0
 12  6  1  0  0  0  0
 16 10  1  0  0  0  0
 17 11  1  0  0  0  0
 18 21  1  0  0  0  0
 18 22  1  0  0  0  0
 19 18  2  0  0  0  0
 20 18  2  0  0  0  0
 21  5  1  0  0  0  0
 22 24  1  0  0  0  0
 22 23  1  0  0  0  0
 25 22  1  0  0  0  0
 26  3  1  0  0  0  0
M  END
