Coordinates from ORCA-job C6H6+HOTf+NH2N2+-scan
 OpenBabel10221816143D

 26 24  0  0  0  0  0  0  0  0999 V2000
   -0.7643    0.4232    0.5824 N   0  0  0  0  0  0  0  0  0  0  0  0
   -1.4109    1.3248    0.4042 N   0  0  0  0  0  0  0  0  0  0  0  0
   -0.0386   -0.5955    0.7552 N   0  0  0  0  0  0  0  0  0  0  0  0
   -0.0608   -1.0638    1.7027 H   0  0  0  0  0  0  0  0  0  0  0  0
   -0.9678   -3.8641    4.3506 H   0  0  0  0  0  0  0  0  0  0  0  0
    0.1717   -3.2009   -1.6452 C   0  0  0  0  0  0  0  0  0  0  0  0
    1.3779   -2.8128   -1.0553 C   0  0  0  0  0  0  0  0  0  0  0  0
    1.9046   -1.5358   -1.3183 C   0  0  0  0  0  0  0  0  0  0  0  0
    1.2297   -0.6618   -2.1895 C   0  0  0  0  0  0  0  0  0  0  0  0
    0.0208   -1.0564   -2.7726 C   0  0  0  0  0  0  0  0  0  0  0  0
   -0.5041   -2.3245   -2.5007 C   0  0  0  0  0  0  0  0  0  0  0  0
   -0.2339   -4.1889   -1.4490 H   0  0  0  0  0  0  0  0  0  0  0  0
    1.9076   -3.4908   -0.3933 H   0  0  0  0  0  0  0  0  0  0  0  0
    2.8645   -1.2476   -0.8969 H   0  0  0  0  0  0  0  0  0  0  0  0
    1.6578    0.3099   -2.4206 H   0  0  0  0  0  0  0  0  0  0  0  0
   -0.4973   -0.3878   -3.4540 H   0  0  0  0  0  0  0  0  0  0  0  0
   -1.4360   -2.6336   -2.9651 H   0  0  0  0  0  0  0  0  0  0  0  0
    0.7829   -2.9903    3.4327 S   0  0  0  0  0  0  0  0  0  0  0  0
    1.6818   -3.4919    2.4177 O   0  0  0  0  0  0  0  0  0  0  0  0
   -0.0653   -1.8062    3.1575 O   0  0  0  0  0  0  0  0  0  0  0  0
   -0.1595   -4.1974    3.9165 O   0  0  0  0  0  0  0  0  0  0  0  0
    1.7330   -2.6024    5.0076 C   0  0  0  0  0  0  0  0  0  0  0  0
    0.8458   -2.3752    5.9698 F   0  0  0  0  0  0  0  0  0  0  0  0
    2.4987   -3.6334    5.3053 F   0  0  0  0  0  0  0  0  0  0  0  0
    2.4596   -1.5200    4.7745 F   0  0  0  0  0  0  0  0  0  0  0  0
    0.6249   -0.8549   -0.0262 H   0  0  0  0  0  0  0  0  0  0  0  0
  1  3  1  0  0  0  0
  2  1  1  0  0  0  0
  3  4  1  0  0  0  0
  6 12  1  0  0  0  0
  6  7  2  0  0  0  0
  7 13  1  0  0  0  0
  8  7  1  0  0  0  0
  8 14  1  0  0  0  0
  9  8  2  0  0  0  0
 10 11  2  0  0  0  0
 10  9  1  0  0  0  0
 11  6  1  0  0  0  0
 15  9  1  0  0  0  0
 16 10  1  0  0  0  0
 17 11  1  0  0  0  0
 18 21  1  0  0  0  0
 18 22  1  0  0  0  0
 19 18  2  0  0  0  0
 20 18  2  0  0  0  0
 21  5  1  0  0  0  0
 22 24  1  0  0  0  0
 22 23  1  0  0  0  0
 25 22  1  0  0  0  0
 26  3  1  0  0  0  0
M  RAD  2   1   2   2   3
M  END
