Coordinates from ORCA-job C6H6+HOTf+NH2N2+-scan
 OpenBabel10221816143D

 26 24  0  0  0  0  0  0  0  0999 V2000
   -1.1381    0.3750    0.8185 N   0  0  0  0  0  0  0  0  0  0  0  0
   -1.8963    1.2059    0.7886 N   0  0  0  0  0  0  0  0  0  0  0  0
   -0.2541   -0.5305    0.7458 N   0  0  0  0  0  0  0  0  0  0  0  0
   -0.0925   -1.0752    1.6245 H   0  0  0  0  0  0  0  0  0  0  0  0
   -0.6454   -3.7763    4.5972 H   0  0  0  0  0  0  0  0  0  0  0  0
   -0.0726   -3.2206   -2.0286 C   0  0  0  0  0  0  0  0  0  0  0  0
    0.6686   -2.9533   -0.8796 C   0  0  0  0  0  0  0  0  0  0  0  0
    1.3266   -1.7150   -0.7412 C   0  0  0  0  0  0  0  0  0  0  0  0
    1.3157   -0.7954   -1.8113 C   0  0  0  0  0  0  0  0  0  0  0  0
    0.5633   -1.0685   -2.9577 C   0  0  0  0  0  0  0  0  0  0  0  0
   -0.1309   -2.2767   -3.0622 C   0  0  0  0  0  0  0  0  0  0  0  0
   -0.5907   -4.1691   -2.1320 H   0  0  0  0  0  0  0  0  0  0  0  0
    0.7426   -3.6887   -0.0845 H   0  0  0  0  0  0  0  0  0  0  0  0
    1.9843   -1.5501    0.1086 H   0  0  0  0  0  0  0  0  0  0  0  0
    1.8765    0.1323   -1.7320 H   0  0  0  0  0  0  0  0  0  0  0  0
    0.5418   -0.3539   -3.7746 H   0  0  0  0  0  0  0  0  0  0  0  0
   -0.7070   -2.4917   -3.9574 H   0  0  0  0  0  0  0  0  0  0  0  0
    0.9689   -2.9440    3.4266 S   0  0  0  0  0  0  0  0  0  0  0  0
    1.7641   -3.5118    2.3589 O   0  0  0  0  0  0  0  0  0  0  0  0
    0.0698   -1.8014    3.1571 O   0  0  0  0  0  0  0  0  0  0  0  0
    0.1189   -4.1283    4.1028 O   0  0  0  0  0  0  0  0  0  0  0  0
    2.0833   -2.4279    4.8488 C   0  0  0  0  0  0  0  0  0  0  0  0
    1.3069   -2.1364    5.8870 F   0  0  0  0  0  0  0  0  0  0  0  0
    2.8985   -3.4238    5.1346 F   0  0  0  0  0  0  0  0  0  0  0  0
    2.7581   -1.3580    4.4543 F   0  0  0  0  0  0  0  0  0  0  0  0
    0.1624   -0.7946   -0.2021 H   0  0  0  0  0  0  0  0  0  0  0  0
  2  1  1  0  0  0  0
  3  1  1  0  0  0  0
  3  4  1  0  0  0  0
  6  7  2  0  0  0  0
  7  8  1  0  0  0  0
  7 13  1  0  0  0  0
  8 14  1  0  0  0  0
  9 15  1  0  0  0  0
  9  8  2  0  0  0  0
 10  9  1  0  0  0  0
 11 10  2  0  0  0  0
 11  6  1  0  0  0  0
 12  6  1  0  0  0  0
 16 10  1  0  0  0  0
 17 11  1  0  0  0  0
 18 21  1  0  0  0  0
 18 22  1  0  0  0  0
 19 18  2  0  0  0  0
 20 18  2  0  0  0  0
 21  5  1  0  0  0  0
 22 24  1  0  0  0  0
 22 23  1  0  0  0  0
 25 22  1  0  0  0  0
 26  3  1  0  0  0  0
M  RAD  2   1   2   2   3
M  END
