Coordinates from ORCA-job C6H6+HOTf+NH2N2+-scan
 OpenBabel10221816143D

 26 24  0  0  0  0  0  0  0  0999 V2000
   -2.8233   -2.2915    1.7965 N   0  0  0  0  0  0  0  0  0  0  0  0
   -3.9368   -2.4220    1.8378 N   0  0  0  0  0  0  0  0  0  0  0  0
   -1.5672   -2.1292    1.7840 N   0  0  0  0  0  0  0  0  0  0  0  0
   -1.0384   -2.0032    2.7146 H   0  0  0  0  0  0  0  0  0  0  0  0
    1.5231   -3.0020    5.4486 H   0  0  0  0  0  0  0  0  0  0  0  0
   -0.1689   -1.7373   -2.6459 C   0  0  0  0  0  0  0  0  0  0  0  0
    0.3635   -2.4452   -3.7268 C   0  0  0  0  0  0  0  0  0  0  0  0
    1.5500   -3.1713   -3.5775 C   0  0  0  0  0  0  0  0  0  0  0  0
    2.1933   -3.2030   -2.3356 C   0  0  0  0  0  0  0  0  0  0  0  0
    1.6664   -2.4957   -1.2506 C   0  0  0  0  0  0  0  0  0  0  0  0
    0.4882   -1.7564   -1.4096 C   0  0  0  0  0  0  0  0  0  0  0  0
   -1.0746   -1.1513   -2.7774 H   0  0  0  0  0  0  0  0  0  0  0  0
   -0.1389   -2.4185   -4.6894 H   0  0  0  0  0  0  0  0  0  0  0  0
    1.9683   -3.7111   -4.4218 H   0  0  0  0  0  0  0  0  0  0  0  0
    3.1141   -3.7665   -2.2163 H   0  0  0  0  0  0  0  0  0  0  0  0
    2.1848   -2.4976   -0.2955 H   0  0  0  0  0  0  0  0  0  0  0  0
    0.1309   -1.1213   -0.5955 H   0  0  0  0  0  0  0  0  0  0  0  0
    1.2880   -1.6326    3.7908 S   0  0  0  0  0  0  0  0  0  0  0  0
    1.8284   -1.6490    2.4500 O   0  0  0  0  0  0  0  0  0  0  0  0
   -0.1790   -1.8010    3.9819 O   0  0  0  0  0  0  0  0  0  0  0  0
    2.0485   -2.7350    4.6698 O   0  0  0  0  0  0  0  0  0  0  0  0
    1.7576   -0.0391    4.6781 C   0  0  0  0  0  0  0  0  0  0  0  0
    1.4235   -0.1780    5.9546 F   0  0  0  0  0  0  0  0  0  0  0  0
    3.0543    0.1474    4.5429 F   0  0  0  0  0  0  0  0  0  0  0  0
    1.0696    0.9398    4.1133 F   0  0  0  0  0  0  0  0  0  0  0  0
   -1.1025   -2.2072    0.8689 H   0  0  0  0  0  0  0  0  0  0  0  0
  1  2  1  0  0  0  0
  3  1  1  0  0  0  0
  3  4  1  0  0  0  0
  6 11  2  0  0  0  0
  7  8  2  0  0  0  0
  7  6  1  0  0  0  0
  8  9  1  0  0  0  0
  9 15  1  0  0  0  0
  9 10  2  0  0  0  0
 10 16  1  0  0  0  0
 11 10  1  0  0  0  0
 11 17  1  0  0  0  0
 12  6  1  0  0  0  0
 13  7  1  0  0  0  0
 14  8  1  0  0  0  0
 18 20  2  0  0  0  0
 18 21  1  0  0  0  0
 18 22  1  0  0  0  0
 19 18  2  0  0  0  0
 21  5  1  0  0  0  0
 22 23  1  0  0  0  0
 24 22  1  0  0  0  0
 25 22  1  0  0  0  0
 26  3  1  0  0  0  0
M  RAD  2   1   2   2   3
M  END
