Coordinates from ORCA-job C6H6+HOTf+NH2N2+-scan
 OpenBabel10221816143D

 26 24  0  0  0  0  0  0  0  0999 V2000
   -2.2903   -2.6307    1.0121 N   0  0  0  0  0  0  0  0  0  0  0  0
   -3.3159   -3.0606    0.8551 N   0  0  0  0  0  0  0  0  0  0  0  0
   -1.1472   -2.1085    1.1630 N   0  0  0  0  0  0  0  0  0  0  0  0
   -0.7433   -2.0734    2.1426 H   0  0  0  0  0  0  0  0  0  0  0  0
    1.7099   -3.0815    5.0888 H   0  0  0  0  0  0  0  0  0  0  0  0
   -0.1311   -1.4213   -2.2751 C   0  0  0  0  0  0  0  0  0  0  0  0
   -0.0180   -2.4245   -3.2400 C   0  0  0  0  0  0  0  0  0  0  0  0
    0.9569   -3.4203   -3.1057 C   0  0  0  0  0  0  0  0  0  0  0  0
    1.7999   -3.4331   -1.9889 C   0  0  0  0  0  0  0  0  0  0  0  0
    1.6929   -2.4335   -1.0189 C   0  0  0  0  0  0  0  0  0  0  0  0
    0.7300   -1.4184   -1.1629 C   0  0  0  0  0  0  0  0  0  0  0  0
   -0.8556   -0.6215   -2.4047 H   0  0  0  0  0  0  0  0  0  0  0  0
   -0.6702   -2.4172   -4.1082 H   0  0  0  0  0  0  0  0  0  0  0  0
    1.0559   -4.1871   -3.8684 H   0  0  0  0  0  0  0  0  0  0  0  0
    2.5542   -4.2076   -1.8875 H   0  0  0  0  0  0  0  0  0  0  0  0
    2.3711   -2.4154   -0.1704 H   0  0  0  0  0  0  0  0  0  0  0  0
    0.7411   -0.5654   -0.4846 H   0  0  0  0  0  0  0  0  0  0  0  0
    1.4056   -1.5264    3.6192 S   0  0  0  0  0  0  0  0  0  0  0  0
    2.0908   -1.2375    2.3778 O   0  0  0  0  0  0  0  0  0  0  0  0
   -0.0129   -1.9585    3.5894 O   0  0  0  0  0  0  0  0  0  0  0  0
    2.2608   -2.6140    4.4321 O   0  0  0  0  0  0  0  0  0  0  0  0
    1.4906   -0.0412    4.7703 C   0  0  0  0  0  0  0  0  0  0  0  0
    1.0517   -0.4289    5.9617 F   0  0  0  0  0  0  0  0  0  0  0  0
    2.7412    0.3697    4.8368 F   0  0  0  0  0  0  0  0  0  0  0  0
    0.7058    0.8959    4.2617 F   0  0  0  0  0  0  0  0  0  0  0  0
   -0.5508   -2.0171    0.2950 H   0  0  0  0  0  0  0  0  0  0  0  0
  1  3  1  0  0  0  0
  2  1  1  0  0  0  0
  3  4  1  0  0  0  0
  6 11  2  0  0  0  0
  7  8  2  0  0  0  0
  7  6  1  0  0  0  0
  8  9  1  0  0  0  0
  9 15  1  0  0  0  0
  9 10  2  0  0  0  0
 10 16  1  0  0  0  0
 11 10  1  0  0  0  0
 11 17  1  0  0  0  0
 12  6  1  0  0  0  0
 13  7  1  0  0  0  0
 14  8  1  0  0  0  0
 18 21  1  0  0  0  0
 18 22  1  0  0  0  0
 19 18  2  0  0  0  0
 20 18  2  0  0  0  0
 21  5  1  0  0  0  0
 22 24  1  0  0  0  0
 22 23  1  0  0  0  0
 25 22  1  0  0  0  0
 26  3  1  0  0  0  0
M  RAD  2   1   2   2   3
M  END
