Coordinates from ORCA-job C6H6+HOTf+NH2N2+-scan
 OpenBabel10221816143D

 26 24  0  0  0  0  0  0  0  0999 V2000
   -2.0905   -2.6253    0.6967 N   0  0  0  0  0  0  0  0  0  0  0  0
   -3.0998   -3.0688    0.4795 N   0  0  0  0  0  0  0  0  0  0  0  0
   -0.9628   -2.1000    0.9166 N   0  0  0  0  0  0  0  0  0  0  0  0
   -0.5973   -2.0990    1.9095 H   0  0  0  0  0  0  0  0  0  0  0  0
    1.7120   -3.2228    4.9350 H   0  0  0  0  0  0  0  0  0  0  0  0
   -0.1566   -1.3458   -2.2878 C   0  0  0  0  0  0  0  0  0  0  0  0
   -0.2140   -2.5630   -2.9724 C   0  0  0  0  0  0  0  0  0  0  0  0
    0.7207   -3.5671   -2.6940 C   0  0  0  0  0  0  0  0  0  0  0  0
    1.7032   -3.3661   -1.7191 C   0  0  0  0  0  0  0  0  0  0  0  0
    1.7653   -2.1530   -1.0278 C   0  0  0  0  0  0  0  0  0  0  0  0
    0.8341   -1.1375   -1.3108 C   0  0  0  0  0  0  0  0  0  0  0  0
   -0.8574   -0.5505   -2.5275 H   0  0  0  0  0  0  0  0  0  0  0  0
   -0.9688   -2.7204   -3.7371 H   0  0  0  0  0  0  0  0  0  0  0  0
    0.6837   -4.5055   -3.2396 H   0  0  0  0  0  0  0  0  0  0  0  0
    2.4294   -4.1463   -1.5113 H   0  0  0  0  0  0  0  0  0  0  0  0
    2.5360   -1.9833   -0.2815 H   0  0  0  0  0  0  0  0  0  0  0  0
    0.9270   -0.1674   -0.8269 H   0  0  0  0  0  0  0  0  0  0  0  0
    1.4584   -1.5744    3.5607 S   0  0  0  0  0  0  0  0  0  0  0  0
    2.2198   -1.1735    2.3979 O   0  0  0  0  0  0  0  0  0  0  0  0
    0.0605   -2.0420    3.4018 O   0  0  0  0  0  0  0  0  0  0  0  0
    2.2912   -2.6958    4.3520 O   0  0  0  0  0  0  0  0  0  0  0  0
    1.4143   -0.1796    4.8208 C   0  0  0  0  0  0  0  0  0  0  0  0
    0.9089   -0.6685    5.9472 F   0  0  0  0  0  0  0  0  0  0  0  0
    2.6426    0.2618    5.0059 F   0  0  0  0  0  0  0  0  0  0  0  0
    0.6343    0.7710    4.3295 F   0  0  0  0  0  0  0  0  0  0  0  0
   -0.3713   -1.8555    0.0727 H   0  0  0  0  0  0  0  0  0  0  0  0
  1  3  1  0  0  0  0
  2  1  1  0  0  0  0
  3  4  1  0  0  0  0
  6 11  2  0  0  0  0
  7  8  2  0  0  0  0
  7  6  1  0  0  0  0
  8  9  1  0  0  0  0
  9 15  1  0  0  0  0
  9 10  2  0  0  0  0
 10 16  1  0  0  0  0
 11 10  1  0  0  0  0
 11 17  1  0  0  0  0
 12  6  1  0  0  0  0
 13  7  1  0  0  0  0
 14  8  1  0  0  0  0
 18 21  1  0  0  0  0
 18 22  1  0  0  0  0
 19 18  2  0  0  0  0
 20 18  2  0  0  0  0
 21  5  1  0  0  0  0
 22 24  1  0  0  0  0
 22 23  1  0  0  0  0
 25 22  1  0  0  0  0
 26  3  1  0  0  0  0
M  RAD  2   1   2   2   3
M  END
