15
Coordinates from ORCA-job 2-HOOC-C6H3-N2-B3LYPG-aug-cc-pVDZ-scan-d09-49-n400
  C   -1.38794975193881     -1.47487562773260     -1.04984897155473
  C   0.01795203238840     -1.25909199137071     -1.10282084785855
  C   0.32117395800189      0.02710696079800     -0.90478349461074
  C   -0.45211000343559      1.17834130725717     -0.66106755686534
  C   -1.82201557931036      0.89204770364172     -0.62229800531535
  C   -2.28051004203691     -0.42362853861961     -0.81546430316936
  H   -1.79255202460372     -2.48089012586497     -1.19407514068908
  H   -2.51429938334513      1.71208917311493     -0.43970240639713
  N   1.91702811738644      0.24358036668652     -0.96975859782500
  N   2.99983305679091      0.02182136357119     -1.07617932712231
  H   -3.35496327582377     -0.61585595358343     -0.77961204822421
  C   -0.00940131368534      2.57961241774802     -0.45245694187267
  O   -0.74993929574833      3.51650026731261     -0.24613599718791
  O   1.34357642616970      2.73153571983493     -0.51184485509180
  H   1.52287707919061      3.67430695720624     -0.36325150621583
