Coordinates from ORCA-job C6H6+AlCl4-+NH2N2+-scan
 OpenBabel10161817473D

 22 20  0  0  0  0  0  0  0  0999 V2000
    4.3441   -2.1005   -4.0703 N   0  0  0  0  0  0  0  0  0  0  0  0
    5.1226   -2.7411   -4.5468 N   0  0  0  0  0  0  0  0  0  0  0  0
    3.3547   -1.3934   -3.6731 N   0  0  0  0  0  0  0  0  0  0  0  0
    2.9347   -1.7546   -2.7738 H   0  0  0  0  0  0  0  0  0  0  0  0
    3.6145   -0.3765   -3.5301 H   0  0  0  0  0  0  0  0  0  0  0  0
    1.4233   -1.2613   -6.9291 C   0  0  0  0  0  0  0  0  0  0  0  0
    1.5161   -0.4156   -5.8256 C   0  0  0  0  0  0  0  0  0  0  0  0
    1.1203   -0.8677   -4.5646 C   0  0  0  0  0  0  0  0  0  0  0  0
    0.5505   -2.1354   -4.4272 C   0  0  0  0  0  0  0  0  0  0  0  0
    0.4589   -2.9807   -5.5317 C   0  0  0  0  0  0  0  0  0  0  0  0
    0.9039   -2.5481   -6.7812 C   0  0  0  0  0  0  0  0  0  0  0  0
    1.7393   -0.9138   -7.9067 H   0  0  0  0  0  0  0  0  0  0  0  0
    1.9026    0.5915   -5.9434 H   0  0  0  0  0  0  0  0  0  0  0  0
    1.1426   -0.1917   -3.7164 H   0  0  0  0  0  0  0  0  0  0  0  0
    0.1872   -2.4634   -3.4589 H   0  0  0  0  0  0  0  0  0  0  0  0
    0.0260   -3.9692   -5.4230 H   0  0  0  0  0  0  0  0  0  0  0  0
    0.8273   -3.2042   -7.6412 H   0  0  0  0  0  0  0  0  0  0  0  0
    4.1234   -0.0240   -0.5832 Al  0  0  0  0  0  0  0  0  0  0  0  0
    4.0812    1.0375    1.2366 Cl  0  0  0  0  0  0  0  0  0  0  0  0
    3.8172    1.2987   -2.3431 Cl  0  0  0  0  0  0  0  0  0  0  0  0
    5.8986   -1.1501   -1.0394 Cl  0  0  0  0  0  0  0  0  0  0  0  0
    2.4556   -1.4772   -0.7613 Cl  0  0  0  0  0  0  0  0  0  0  0  0
  1  3  1  0  0  0  0
  2  1  1  0  0  0  0
  3  5  1  0  0  0  0
  3  4  1  0  0  0  0
  6 11  2  0  0  0  0
  6  7  1  0  0  0  0
  7  8  2  0  0  0  0
  8  9  1  0  0  0  0
  8 14  1  0  0  0  0
  9 15  1  0  0  0  0
 10 16  1  0  0  0  0
 10  9  2  0  0  0  0
 11 10  1  0  0  0  0
 12  6  1  0  0  0  0
 13  7  1  0  0  0  0
 17 11  1  0  0  0  0
 18 19  1  0  0  0  0
 20 18  1  0  0  0  0
 21 18  1  0  0  0  0
 22 18  1  0  0  0  0
M  RAD  2   1   2   2   3
M  END
