Coordinates from ORCA-job C6H6+AlCl4-+NH2N2+-scan
 OpenBabel10161817473D

 22 20  0  0  1  0  0  0  0  0999 V2000
    6.6157   -1.6583   -4.4874 N   0  0  0  0  0  0  0  0  0  0  0  0
    7.5857   -1.2868   -4.1406 N   0  0  0  0  0  0  0  0  0  0  0  0
    3.3965   -3.0813   -4.4599 N   0  0  0  0  0  0  0  0  0  0  0  0
    3.2983   -3.2381   -3.4503 H   0  0  0  0  0  0  0  0  0  0  0  0
    4.2906   -2.5876   -4.5352 H   0  0  0  0  0  0  0  0  0  0  0  0
    1.1605   -0.7290   -6.6230 C   0  0  0  0  0  0  0  0  0  0  0  0
    2.3066   -1.1831   -6.0208 C   0  0  0  0  0  0  0  0  0  0  0  0
    2.2503   -1.7518   -4.6968 C   0  0  1  0  0  0  0  0  0  0  0  0
    0.9611   -1.9813   -4.0980 C   0  0  0  0  0  0  0  0  0  0  0  0
   -0.1793   -1.5202   -4.7211 C   0  0  0  0  0  0  0  0  0  0  0  0
   -0.0767   -0.9006   -5.9715 C   0  0  0  0  0  0  0  0  0  0  0  0
    1.1967   -0.2551   -7.5962 H   0  0  0  0  0  0  0  0  0  0  0  0
    3.2740   -1.0715   -6.4968 H   0  0  0  0  0  0  0  0  0  0  0  0
    2.7898   -0.9925   -4.0015 H   0  0  0  0  0  0  0  0  0  0  0  0
    0.9150   -2.4628   -3.1286 H   0  0  0  0  0  0  0  0  0  0  0  0
   -1.1458   -1.6371   -4.2475 H   0  0  0  0  0  0  0  0  0  0  0  0
   -0.9787   -0.5444   -6.4581 H   0  0  0  0  0  0  0  0  0  0  0  0
    2.7663   -0.4122   -0.9192 Al  0  0  0  0  0  0  0  0  0  0  0  0
    0.7044    0.1039   -1.3009 Cl  0  0  0  0  0  0  0  0  0  0  0  0
    3.8742    0.2284   -2.7458 Cl  0  0  0  0  0  0  0  0  0  0  0  0
    3.6151    0.5024    0.7939 Cl  0  0  0  0  0  0  0  0  0  0  0  0
    2.9244   -2.5817   -0.9282 Cl  0  0  0  0  0  0  0  0  0  0  0  0
  1  2  3  0  0  0  0
  3  4  1  0  0  0  0
  5  3  1  0  0  0  0
  6  7  2  0  0  0  0
  6 11  1  0  0  0  0
  7  8  1  0  0  0  0
  8  3  1  0  0  0  0
  8  9  1  0  0  0  0
  8 14  1  1  0  0  0
  9 15  1  0  0  0  0
 10 16  1  0  0  0  0
 10  9  2  0  0  0  0
 11 10  1  0  0  0  0
 12  6  1  0  0  0  0
 13  7  1  0  0  0  0
 17 11  1  0  0  0  0
 18 21  1  0  0  0  0
 19 18  1  0  0  0  0
 20 18  1  0  0  0  0
 22 18  1  0  0  0  0
M  RAD  1  11   2
M  END
