Coordinates from ORCA-job C6H6+AlCl4-+NH2N2+-scan
 OpenBabel10161817473D

 22 20  0  0  0  0  0  0  0  0999 V2000
    3.8350   -1.1472   -4.4395 N   0  0  0  0  0  0  0  0  0  0  0  0
    4.2292   -1.9317   -5.1196 N   0  0  0  0  0  0  0  0  0  0  0  0
    3.4167   -0.1633   -3.7390 N   0  0  0  0  0  0  0  0  0  0  0  0
    2.6096   -0.4046   -3.1249 H   0  0  0  0  0  0  0  0  0  0  0  0
    4.1926    0.2772   -3.1558 H   0  0  0  0  0  0  0  0  0  0  0  0
    1.4615   -1.7140   -7.0281 C   0  0  0  0  0  0  0  0  0  0  0  0
    1.2633   -0.5876   -6.2307 C   0  0  0  0  0  0  0  0  0  0  0  0
    0.9335   -0.7377   -4.8812 C   0  0  0  0  0  0  0  0  0  0  0  0
    0.7703   -2.0151   -4.3392 C   0  0  0  0  0  0  0  0  0  0  0  0
    0.9749   -3.1414   -5.1386 C   0  0  0  0  0  0  0  0  0  0  0  0
    1.3219   -2.9911   -6.4808 C   0  0  0  0  0  0  0  0  0  0  0  0
    1.7154   -1.5984   -8.0760 H   0  0  0  0  0  0  0  0  0  0  0  0
    1.3578    0.4048   -6.6581 H   0  0  0  0  0  0  0  0  0  0  0  0
    0.7360    0.1391   -4.2742 H   0  0  0  0  0  0  0  0  0  0  0  0
    0.4820   -2.1318   -3.3003 H   0  0  0  0  0  0  0  0  0  0  0  0
    0.8531   -4.1322   -4.7160 H   0  0  0  0  0  0  0  0  0  0  0  0
    1.4737   -3.8663   -7.1026 H   0  0  0  0  0  0  0  0  0  0  0  0
    4.0035   -0.7001   -0.3672 Al  0  0  0  0  0  0  0  0  0  0  0  0
    4.2513   -0.5532    1.7218 Cl  0  0  0  0  0  0  0  0  0  0  0  0
    5.1427    0.8630   -1.4640 Cl  0  0  0  0  0  0  0  0  0  0  0  0
    4.5956   -2.5552   -1.2939 Cl  0  0  0  0  0  0  0  0  0  0  0  0
    1.9250   -0.3538   -1.0258 Cl  0  0  0  0  0  0  0  0  0  0  0  0
  1  3  1  0  0  0  0
  2  1  1  0  0  0  0
  3  5  1  0  0  0  0
  3  4  1  0  0  0  0
  6 11  2  0  0  0  0
  6  7  1  0  0  0  0
  7  8  2  0  0  0  0
  8  9  1  0  0  0  0
  8 14  1  0  0  0  0
  9 15  1  0  0  0  0
 10 16  1  0  0  0  0
 10  9  2  0  0  0  0
 11 10  1  0  0  0  0
 12  6  1  0  0  0  0
 13  7  1  0  0  0  0
 17 11  1  0  0  0  0
 18 19  1  0  0  0  0
 20 18  1  0  0  0  0
 21 18  1  0  0  0  0
 22 18  1  0  0  0  0
M  RAD  2   1   2   2   3
M  END
