Coordinates from ORCA-job C6H6+AlCl4-+NH2N2+-scan
 OpenBabel10161817473D

 22 20  0  0  0  0  0  0  0  0999 V2000
    3.2374    0.4707   -3.4503 N   0  0  0  0  0  0  0  0  0  0  0  0
    3.2403    0.7616   -4.5232 N   0  0  0  0  0  0  0  0  0  0  0  0
    3.1825    0.2066   -2.2029 N   0  0  0  0  0  0  0  0  0  0  0  0
    2.8136   -0.7585   -1.9900 H   0  0  0  0  0  0  0  0  0  0  0  0
    4.1083    0.3451   -1.6946 H   0  0  0  0  0  0  0  0  0  0  0  0
    1.9868   -2.1554   -5.7337 C   0  0  0  0  0  0  0  0  0  0  0  0
    1.5893   -1.4499   -6.8705 C   0  0  0  0  0  0  0  0  0  0  0  0
    0.3259   -0.8595   -6.9211 C   0  0  0  0  0  0  0  0  0  0  0  0
   -0.5378   -0.9679   -5.8313 C   0  0  0  0  0  0  0  0  0  0  0  0
   -0.1422   -1.6728   -4.6940 C   0  0  0  0  0  0  0  0  0  0  0  0
    1.1190   -2.2693   -4.6453 C   0  0  0  0  0  0  0  0  0  0  0  0
    2.9635   -2.6257   -5.6962 H   0  0  0  0  0  0  0  0  0  0  0  0
    2.2597   -1.3701   -7.7193 H   0  0  0  0  0  0  0  0  0  0  0  0
    0.0147   -0.3191   -7.8085 H   0  0  0  0  0  0  0  0  0  0  0  0
   -1.5215   -0.5128   -5.8719 H   0  0  0  0  0  0  0  0  0  0  0  0
   -0.8210   -1.7711   -3.8536 H   0  0  0  0  0  0  0  0  0  0  0  0
    1.4193   -2.8407   -3.7731 H   0  0  0  0  0  0  0  0  0  0  0  0
    5.3439   -2.3493   -1.3782 Al  0  0  0  0  0  0  0  0  0  0  0  0
    6.5051   -3.7940   -0.3772 Cl  0  0  0  0  0  0  0  0  0  0  0  0
    5.6930   -0.2938   -0.6086 Cl  0  0  0  0  0  0  0  0  0  0  0  0
    5.5977   -2.1851   -3.5124 Cl  0  0  0  0  0  0  0  0  0  0  0  0
    3.1672   -2.6293   -1.0777 Cl  0  0  0  0  0  0  0  0  0  0  0  0
  1  3  1  0  0  0  0
  2  1  1  0  0  0  0
  3  4  1  0  0  0  0
  3  5  1  0  0  0  0
  6 12  1  0  0  0  0
  6 11  2  0  0  0  0
  7  6  1  0  0  0  0
  8  7  2  0  0  0  0
  8  9  1  0  0  0  0
  9 10  2  0  0  0  0
 10 11  1  0  0  0  0
 10 16  1  0  0  0  0
 11 17  1  0  0  0  0
 13  7  1  0  0  0  0
 14  8  1  0  0  0  0
 15  9  1  0  0  0  0
 18 22  1  0  0  0  0
 18 20  1  0  0  0  0
 18 19  1  0  0  0  0
 21 18  1  0  0  0  0
M  RAD  2   1   2   2   3
M  END
