Coordinates from ORCA-job C6H6+AlCl4-+NH2N2+-scan
 OpenBabel10161817473D

 22 20  0  0  0  0  0  0  0  0999 V2000
    2.9254   -0.5748   -0.5322 N   0  0  0  0  0  0  0  0  0  0  0  0
    1.9629   -0.0924   -0.8115 N   0  0  0  0  0  0  0  0  0  0  0  0
    3.9913   -1.1437   -0.1270 N   0  0  0  0  0  0  0  0  0  0  0  0
    4.2465   -2.0162   -0.6817 H   0  0  0  0  0  0  0  0  0  0  0  0
    4.8406   -0.5009   -0.1136 H   0  0  0  0  0  0  0  0  0  0  0  0
    0.0064   -2.9613   -6.1479 C   0  0  0  0  0  0  0  0  0  0  0  0
    1.2710   -2.4008   -5.9717 C   0  0  0  0  0  0  0  0  0  0  0  0
    1.4499   -1.0242   -6.1075 C   0  0  0  0  0  0  0  0  0  0  0  0
    0.3623   -0.2091   -6.4197 C   0  0  0  0  0  0  0  0  0  0  0  0
   -0.9026   -0.7691   -6.5957 C   0  0  0  0  0  0  0  0  0  0  0  0
   -1.0808   -2.1454   -6.4594 C   0  0  0  0  0  0  0  0  0  0  0  0
   -0.1313   -4.0326   -6.0461 H   0  0  0  0  0  0  0  0  0  0  0  0
    2.1184   -3.0343   -5.7327 H   0  0  0  0  0  0  0  0  0  0  0  0
    2.4342   -0.5910   -5.9679 H   0  0  0  0  0  0  0  0  0  0  0  0
    0.5016    0.8613   -6.5283 H   0  0  0  0  0  0  0  0  0  0  0  0
   -1.7477   -0.1347   -6.8412 H   0  0  0  0  0  0  0  0  0  0  0  0
   -2.0642   -2.5816   -6.5991 H   0  0  0  0  0  0  0  0  0  0  0  0
    6.3511   -1.1279   -2.6176 Al  0  0  0  0  0  0  0  0  0  0  0  0
    8.0979   -1.3802   -3.7644 Cl  0  0  0  0  0  0  0  0  0  0  0  0
    6.7106   -0.0017   -0.7370 Cl  0  0  0  0  0  0  0  0  0  0  0  0
    4.6829   -0.1264   -3.5425 Cl  0  0  0  0  0  0  0  0  0  0  0  0
    5.5181   -3.0539   -1.8888 Cl  0  0  0  0  0  0  0  0  0  0  0  0
  1  3  1  0  0  0  0
  2  1  1  0  0  0  0
  3  5  1  0  0  0  0
  4  3  1  0  0  0  0
  6 12  1  0  0  0  0
  6  7  2  0  0  0  0
  7 13  1  0  0  0  0
  8  7  1  0  0  0  0
  8 14  1  0  0  0  0
  9  8  2  0  0  0  0
 10 11  2  0  0  0  0
 10  9  1  0  0  0  0
 11  6  1  0  0  0  0
 15  9  1  0  0  0  0
 16 10  1  0  0  0  0
 17 11  1  0  0  0  0
 18 22  1  0  0  0  0
 18 20  1  0  0  0  0
 19 18  1  0  0  0  0
 21 18  1  0  0  0  0
M  RAD  2   1   2   2   3
M  END
