Coordinates from ORCA-job C6H6+AlCl4-+NH2N2+-scan
 OpenBabel10161817473D

 22 20  0  0  0  0  0  0  0  0999 V2000
    3.9374   -1.0764   -4.5357 N   0  0  0  0  0  0  0  0  0  0  0  0
    4.2548   -1.9019   -5.2083 N   0  0  0  0  0  0  0  0  0  0  0  0
    3.6483   -0.0563   -3.8247 N   0  0  0  0  0  0  0  0  0  0  0  0
    2.7198   -0.1212   -3.3726 H   0  0  0  0  0  0  0  0  0  0  0  0
    4.4190    0.2078   -3.1288 H   0  0  0  0  0  0  0  0  0  0  0  0
    1.3805   -1.6998   -6.9827 C   0  0  0  0  0  0  0  0  0  0  0  0
    1.1168   -0.6026   -6.1640 C   0  0  0  0  0  0  0  0  0  0  0  0
    0.8626   -0.7947   -4.8030 C   0  0  0  0  0  0  0  0  0  0  0  0
    0.8585   -2.0840   -4.2642 C   0  0  0  0  0  0  0  0  0  0  0  0
    1.1246   -3.1802   -5.0861 C   0  0  0  0  0  0  0  0  0  0  0  0
    1.3857   -2.9878   -6.4430 C   0  0  0  0  0  0  0  0  0  0  0  0
    1.5723   -1.5545   -8.0401 H   0  0  0  0  0  0  0  0  0  0  0  0
    1.0965    0.3973   -6.5837 H   0  0  0  0  0  0  0  0  0  0  0  0
    0.6160    0.0538   -4.1721 H   0  0  0  0  0  0  0  0  0  0  0  0
    0.6485   -2.2300   -3.2107 H   0  0  0  0  0  0  0  0  0  0  0  0
    1.1228   -4.1806   -4.6688 H   0  0  0  0  0  0  0  0  0  0  0  0
    1.5862   -3.8409   -7.0817 H   0  0  0  0  0  0  0  0  0  0  0  0
    3.8314   -0.7222   -0.4150 Al  0  0  0  0  0  0  0  0  0  0  0  0
    4.0145   -0.6557    1.6857 Cl  0  0  0  0  0  0  0  0  0  0  0  0
    5.3572    0.5562   -1.4202 Cl  0  0  0  0  0  0  0  0  0  0  0  0
    4.0581   -2.6555   -1.3466 Cl  0  0  0  0  0  0  0  0  0  0  0  0
    1.9332    0.0888   -1.1674 Cl  0  0  0  0  0  0  0  0  0  0  0  0
  1  3  1  0  0  0  0
  2  1  1  0  0  0  0
  3  4  1  0  0  0  0
  3  5  1  0  0  0  0
  6 11  2  0  0  0  0
  6  7  1  0  0  0  0
  7  8  2  0  0  0  0
  8  9  1  0  0  0  0
  8 14  1  0  0  0  0
  9 15  1  0  0  0  0
 10 16  1  0  0  0  0
 10  9  2  0  0  0  0
 11 10  1  0  0  0  0
 12  6  1  0  0  0  0
 13  7  1  0  0  0  0
 17 11  1  0  0  0  0
 18 19  1  0  0  0  0
 20 18  1  0  0  0  0
 21 18  1  0  0  0  0
 22 18  1  0  0  0  0
M  RAD  2   1   2   2   3
M  END
