Coordinates from ORCA-job C6H6+AlCl4-+NH2N2+-scan
 OpenBabel10161817473D

 22 20  0  0  1  0  0  0  0  0999 V2000
    6.0442   -2.7799   -3.3845 N   0  0  0  0  0  0  0  0  0  0  0  0
    7.0309   -3.0620   -3.0021 N   0  0  0  0  0  0  0  0  0  0  0  0
    3.2162   -2.0445   -4.5242 N   0  0  0  0  0  0  0  0  0  0  0  0
    3.1604   -2.4107   -3.5613 H   0  0  0  0  0  0  0  0  0  0  0  0
    3.8072   -1.2118   -4.3791 H   0  0  0  0  0  0  0  0  0  0  0  0
    0.9698   -0.7839   -6.7699 C   0  0  0  0  0  0  0  0  0  0  0  0
    1.6706   -0.3628   -5.6666 C   0  0  0  0  0  0  0  0  0  0  0  0
    1.5758   -1.0883   -4.4213 C   0  0  1  0  0  0  0  0  0  0  0  0
    0.6689   -2.2096   -4.3445 C   0  0  0  0  0  0  0  0  0  0  0  0
   -0.0246   -2.6179   -5.4575 C   0  0  0  0  0  0  0  0  0  0  0  0
    0.1322   -1.9071   -6.6597 C   0  0  0  0  0  0  0  0  0  0  0  0
    1.0551   -0.2639   -7.7158 H   0  0  0  0  0  0  0  0  0  0  0  0
    2.3292    0.4979   -5.7030 H   0  0  0  0  0  0  0  0  0  0  0  0
    1.7605   -0.5310   -3.5043 H   0  0  0  0  0  0  0  0  0  0  0  0
    0.5804   -2.7246   -3.3943 H   0  0  0  0  0  0  0  0  0  0  0  0
   -0.6862   -3.4741   -5.4182 H   0  0  0  0  0  0  0  0  0  0  0  0
   -0.4119   -2.2404   -7.5379 H   0  0  0  0  0  0  0  0  0  0  0  0
    3.7657    0.0663   -0.8848 Al  0  0  0  0  0  0  0  0  0  0  0  0
    2.6257    1.4340    0.2917 Cl  0  0  0  0  0  0  0  0  0  0  0  0
    3.9977    0.8919   -2.9238 Cl  0  0  0  0  0  0  0  0  0  0  0  0
    5.6869   -0.4317   -0.1025 Cl  0  0  0  0  0  0  0  0  0  0  0  0
    2.5901   -1.7865   -1.1700 Cl  0  0  0  0  0  0  0  0  0  0  0  0
  1  2  3  0  0  0  0
  3  8  1  0  0  0  0
  3  5  1  0  0  0  0
  3  4  1  0  0  0  0
  6 11  1  0  0  0  0
  6  7  2  0  0  0  0
  7  8  1  0  0  0  0
  8  9  1  0  0  0  0
  8 14  1  1  0  0  0
  9 15  1  0  0  0  0
 10 16  1  0  0  0  0
 10  9  2  0  0  0  0
 11 10  1  0  0  0  0
 12  6  1  0  0  0  0
 13  7  1  0  0  0  0
 17 11  1  0  0  0  0
 18 21  1  0  0  0  0
 18 19  1  0  0  0  0
 20 18  1  0  0  0  0
 22 18  1  0  0  0  0
M  RAD  1  11   2
M  END
