Coordinates from ORCA-job C6H6+AlCl4-+NH2N2+-scan
 OpenBabel10161817473D

 22 20  0  0  0  0  0  0  0  0999 V2000
    2.8984   -0.5728   -0.5963 N   0  0  0  0  0  0  0  0  0  0  0  0
    1.9454   -0.0844   -0.8971 N   0  0  0  0  0  0  0  0  0  0  0  0
    3.9514   -1.1489   -0.1679 N   0  0  0  0  0  0  0  0  0  0  0  0
    4.2160   -2.0194   -0.7211 H   0  0  0  0  0  0  0  0  0  0  0  0
    4.8032   -0.5100   -0.1304 H   0  0  0  0  0  0  0  0  0  0  0  0
    0.0175   -2.9599   -6.1311 C   0  0  0  0  0  0  0  0  0  0  0  0
    1.2852   -2.3972   -5.9864 C   0  0  0  0  0  0  0  0  0  0  0  0
    1.4579   -1.0202   -6.1249 C   0  0  0  0  0  0  0  0  0  0  0  0
    0.3612   -0.2066   -6.4082 C   0  0  0  0  0  0  0  0  0  0  0  0
   -0.9067   -0.7689   -6.5527 C   0  0  0  0  0  0  0  0  0  0  0  0
   -1.0787   -2.1457   -6.4138 C   0  0  0  0  0  0  0  0  0  0  0  0
   -0.1155   -4.0316   -6.0273 H   0  0  0  0  0  0  0  0  0  0  0  0
    2.1396   -3.0294   -5.7698 H   0  0  0  0  0  0  0  0  0  0  0  0
    2.4446   -0.5850   -6.0097 H   0  0  0  0  0  0  0  0  0  0  0  0
    0.4957    0.8641   -6.5191 H   0  0  0  0  0  0  0  0  0  0  0  0
   -1.7589   -0.1358   -6.7759 H   0  0  0  0  0  0  0  0  0  0  0  0
   -2.0645   -2.5836   -6.5291 H   0  0  0  0  0  0  0  0  0  0  0  0
    6.3722   -1.1310   -2.6001 Al  0  0  0  0  0  0  0  0  0  0  0  0
    8.1471   -1.3872   -3.7022 Cl  0  0  0  0  0  0  0  0  0  0  0  0
    6.6891   -0.0155   -0.7054 Cl  0  0  0  0  0  0  0  0  0  0  0  0
    4.7342   -0.1153   -3.5612 Cl  0  0  0  0  0  0  0  0  0  0  0  0
    5.5101   -3.0563   -1.9042 Cl  0  0  0  0  0  0  0  0  0  0  0  0
  1  3  1  0  0  0  0
  2  1  1  0  0  0  0
  3  5  1  0  0  0  0
  4  3  1  0  0  0  0
  6 12  1  0  0  0  0
  6  7  2  0  0  0  0
  7 13  1  0  0  0  0
  8 14  1  0  0  0  0
  8  7  1  0  0  0  0
  9  8  2  0  0  0  0
 10 11  2  0  0  0  0
 10  9  1  0  0  0  0
 11  6  1  0  0  0  0
 15  9  1  0  0  0  0
 16 10  1  0  0  0  0
 17 11  1  0  0  0  0
 18 22  1  0  0  0  0
 18 20  1  0  0  0  0
 19 18  1  0  0  0  0
 21 18  1  0  0  0  0
M  RAD  2   1   2   2   3
M  END
