Coordinates from ORCA-job C6H6+AlCl4-+NH2N2+-scan
 OpenBabel10161817473D

 22 20  0  0  0  0  0  0  0  0999 V2000
    4.2536   -2.2156   -3.9543 N   0  0  0  0  0  0  0  0  0  0  0  0
    4.9628   -2.9235   -4.4505 N   0  0  0  0  0  0  0  0  0  0  0  0
    3.2084   -1.4773   -3.6683 N   0  0  0  0  0  0  0  0  0  0  0  0
    2.8517   -1.7409   -2.7087 H   0  0  0  0  0  0  0  0  0  0  0  0
    3.5113   -0.4680   -3.5842 H   0  0  0  0  0  0  0  0  0  0  0  0
    1.4318   -1.1568   -6.8826 C   0  0  0  0  0  0  0  0  0  0  0  0
    1.5957   -0.4359   -5.7040 C   0  0  0  0  0  0  0  0  0  0  0  0
    1.2752   -1.0235   -4.4711 C   0  0  0  0  0  0  0  0  0  0  0  0
    0.6443   -2.2764   -4.4502 C   0  0  0  0  0  0  0  0  0  0  0  0
    0.4820   -2.9941   -5.6310 C   0  0  0  0  0  0  0  0  0  0  0  0
    0.8878   -2.4422   -6.8476 C   0  0  0  0  0  0  0  0  0  0  0  0
    1.7042   -0.7098   -7.8323 H   0  0  0  0  0  0  0  0  0  0  0  0
    1.9912    0.5742   -5.7331 H   0  0  0  0  0  0  0  0  0  0  0  0
    1.2592   -0.4067   -3.5783 H   0  0  0  0  0  0  0  0  0  0  0  0
    0.3028   -2.6925   -3.5080 H   0  0  0  0  0  0  0  0  0  0  0  0
    0.0171   -3.9735   -5.6090 H   0  0  0  0  0  0  0  0  0  0  0  0
    0.7547   -3.0001   -7.7676 H   0  0  0  0  0  0  0  0  0  0  0  0
    4.1354    0.1110   -0.6627 Al  0  0  0  0  0  0  0  0  0  0  0  0
    4.1410    1.3031    1.0761 Cl  0  0  0  0  0  0  0  0  0  0  0  0
    3.7992    1.3046   -2.5050 Cl  0  0  0  0  0  0  0  0  0  0  0  0
    5.8884   -1.0658   -1.0659 Cl  0  0  0  0  0  0  0  0  0  0  0  0
    2.4466   -1.3307   -0.6952 Cl  0  0  0  0  0  0  0  0  0  0  0  0
  1  3  1  0  0  0  0
  2  1  1  0  0  0  0
  3  5  1  0  0  0  0
  3  4  1  0  0  0  0
  6 11  2  0  0  0  0
  6  7  1  0  0  0  0
  7  8  2  0  0  0  0
  8  9  1  0  0  0  0
  8 14  1  0  0  0  0
  9 15  1  0  0  0  0
 10 16  1  0  0  0  0
 10  9  2  0  0  0  0
 11 10  1  0  0  0  0
 12  6  1  0  0  0  0
 13  7  1  0  0  0  0
 17 11  1  0  0  0  0
 18 19  1  0  0  0  0
 20 18  1  0  0  0  0
 21 18  1  0  0  0  0
 22 18  1  0  0  0  0
M  RAD  2   1   2   2   3
M  END
