Coordinates from ORCA-job C6H6+AlCl4-+NH2N2+-scan
 OpenBabel10161817473D

 22 20  0  0  0  0  0  0  0  0999 V2000
    3.2620    0.4943   -3.4075 N   0  0  0  0  0  0  0  0  0  0  0  0
    3.2475    0.7780   -4.4822 N   0  0  0  0  0  0  0  0  0  0  0  0
    3.2247    0.2365   -2.1580 N   0  0  0  0  0  0  0  0  0  0  0  0
    2.8451   -0.7236   -1.9350 H   0  0  0  0  0  0  0  0  0  0  0  0
    4.1611    0.3604   -1.6670 H   0  0  0  0  0  0  0  0  0  0  0  0
    1.9860   -2.1287   -5.7412 C   0  0  0  0  0  0  0  0  0  0  0  0
    1.5764   -1.4490   -6.8894 C   0  0  0  0  0  0  0  0  0  0  0  0
    0.2999   -0.8890   -6.9526 C   0  0  0  0  0  0  0  0  0  0  0  0
   -0.5652   -1.0022   -5.8643 C   0  0  0  0  0  0  0  0  0  0  0  0
   -0.1574   -1.6814   -4.7157 C   0  0  0  0  0  0  0  0  0  0  0  0
    1.1171   -2.2473   -4.6543 C   0  0  0  0  0  0  0  0  0  0  0  0
    2.9727   -2.5767   -5.6941 H   0  0  0  0  0  0  0  0  0  0  0  0
    2.2478   -1.3657   -7.7370 H   0  0  0  0  0  0  0  0  0  0  0  0
   -0.0206   -0.3685   -7.8485 H   0  0  0  0  0  0  0  0  0  0  0  0
   -1.5590   -0.5707   -5.9146 H   0  0  0  0  0  0  0  0  0  0  0  0
   -0.8368   -1.7833   -3.8761 H   0  0  0  0  0  0  0  0  0  0  0  0
    1.4271   -2.7994   -3.7730 H   0  0  0  0  0  0  0  0  0  0  0  0
    5.3449   -2.3650   -1.3733 Al  0  0  0  0  0  0  0  0  0  0  0  0
    6.4838   -3.8403   -0.3918 Cl  0  0  0  0  0  0  0  0  0  0  0  0
    5.7478   -0.3213   -0.6007 Cl  0  0  0  0  0  0  0  0  0  0  0  0
    5.5748   -2.1985   -3.5098 Cl  0  0  0  0  0  0  0  0  0  0  0  0
    3.1650   -2.5991   -1.0476 Cl  0  0  0  0  0  0  0  0  0  0  0  0
  1  3  1  0  0  0  0
  2  1  1  0  0  0  0
  3  4  1  0  0  0  0
  3  5  1  0  0  0  0
  6 12  1  0  0  0  0
  6 11  2  0  0  0  0
  7  6  1  0  0  0  0
  8  7  2  0  0  0  0
  8  9  1  0  0  0  0
  9 10  2  0  0  0  0
 10 11  1  0  0  0  0
 10 16  1  0  0  0  0
 11 17  1  0  0  0  0
 13  7  1  0  0  0  0
 14  8  1  0  0  0  0
 15  9  1  0  0  0  0
 18 22  1  0  0  0  0
 18 20  1  0  0  0  0
 18 19  1  0  0  0  0
 21 18  1  0  0  0  0
M  RAD  2   1   2   2   3
M  END
