Coordinates from ORCA-job C6H6+AlCl4-+NH2N2+-scan
 OpenBabel10161817473D

 22 20  0  0  0  0  0  0  0  0999 V2000
    3.0205    0.3916   -3.5190 N   0  0  0  0  0  0  0  0  0  0  0  0
    3.0329    0.7739   -4.5626 N   0  0  0  0  0  0  0  0  0  0  0  0
    2.9637    0.0345   -2.2949 N   0  0  0  0  0  0  0  0  0  0  0  0
    2.6902   -0.9695   -2.1587 H   0  0  0  0  0  0  0  0  0  0  0  0
    3.8552    0.2421   -1.7442 H   0  0  0  0  0  0  0  0  0  0  0  0
    1.9527   -2.3113   -5.6445 C   0  0  0  0  0  0  0  0  0  0  0  0
    1.6759   -1.5426   -6.7758 C   0  0  0  0  0  0  0  0  0  0  0  0
    0.5073   -0.7813   -6.8361 C   0  0  0  0  0  0  0  0  0  0  0  0
   -0.3808   -0.7813   -5.7602 C   0  0  0  0  0  0  0  0  0  0  0  0
   -0.1060   -1.5500   -4.6283 C   0  0  0  0  0  0  0  0  0  0  0  0
    1.0593   -2.3179   -4.5710 C   0  0  0  0  0  0  0  0  0  0  0  0
    2.8570   -2.9078   -5.5984 H   0  0  0  0  0  0  0  0  0  0  0  0
    2.3657   -1.5446   -7.6125 H   0  0  0  0  0  0  0  0  0  0  0  0
    0.2890   -0.1918   -7.7198 H   0  0  0  0  0  0  0  0  0  0  0  0
   -1.2911   -0.1936   -5.8085 H   0  0  0  0  0  0  0  0  0  0  0  0
   -0.8068   -1.5654   -3.8003 H   0  0  0  0  0  0  0  0  0  0  0  0
    1.2628   -2.9385   -3.7047 H   0  0  0  0  0  0  0  0  0  0  0  0
    5.4095   -2.2689   -1.4890 Al  0  0  0  0  0  0  0  0  0  0  0  0
    6.7381   -3.5702   -0.4979 Cl  0  0  0  0  0  0  0  0  0  0  0  0
    5.4789   -0.2041   -0.6594 Cl  0  0  0  0  0  0  0  0  0  0  0  0
    5.6832   -2.0117   -3.6111 Cl  0  0  0  0  0  0  0  0  0  0  0  0
    3.2876   -2.8322   -1.2367 Cl  0  0  0  0  0  0  0  0  0  0  0  0
  1  3  1  0  0  0  0
  2  1  1  0  0  0  0
  3  4  1  0  0  0  0
  3  5  1  0  0  0  0
  6 12  1  0  0  0  0
  6 11  2  0  0  0  0
  7  6  1  0  0  0  0
  8  7  2  0  0  0  0
  8  9  1  0  0  0  0
  9 10  2  0  0  0  0
 10 11  1  0  0  0  0
 10 16  1  0  0  0  0
 11 17  1  0  0  0  0
 13  7  1  0  0  0  0
 14  8  1  0  0  0  0
 15  9  1  0  0  0  0
 18 22  1  0  0  0  0
 18 20  1  0  0  0  0
 18 19  1  0  0  0  0
 21 18  1  0  0  0  0
M  RAD  2   1   2   2   3
M  END
