Coordinates from ORCA-job C6H6+AlCl4-+NH2N2+-scan
 OpenBabel10161817473D

 22 20  0  0  0  0  0  0  0  0999 V2000
    3.7626   -0.4093   -4.5040 N   0  0  0  0  0  0  0  0  0  0  0  0
    4.1175   -0.8609   -5.4556 N   0  0  0  0  0  0  0  0  0  0  0  0
    3.3889    0.2087   -3.4513 N   0  0  0  0  0  0  0  0  0  0  0  0
    2.5946   -0.2507   -2.9624 H   0  0  0  0  0  0  0  0  0  0  0  0
    4.1899    0.4245   -2.7743 H   0  0  0  0  0  0  0  0  0  0  0  0
    1.5480   -2.1910   -6.8744 C   0  0  0  0  0  0  0  0  0  0  0  0
    1.0064   -0.9089   -6.7644 C   0  0  0  0  0  0  0  0  0  0  0  0
    0.4952   -0.4716   -5.5423 C   0  0  0  0  0  0  0  0  0  0  0  0
    0.5215   -1.3193   -4.4318 C   0  0  0  0  0  0  0  0  0  0  0  0
    1.0695   -2.5997   -4.5403 C   0  0  0  0  0  0  0  0  0  0  0  0
    1.5818   -3.0347   -5.7629 C   0  0  0  0  0  0  0  0  0  0  0  0
    1.9389   -2.5337   -7.8261 H   0  0  0  0  0  0  0  0  0  0  0  0
    0.9747   -0.2573   -7.6308 H   0  0  0  0  0  0  0  0  0  0  0  0
    0.0585    0.5178   -5.4589 H   0  0  0  0  0  0  0  0  0  0  0  0
    0.1001   -0.9928   -3.4867 H   0  0  0  0  0  0  0  0  0  0  0  0
    1.0927   -3.2531   -3.6758 H   0  0  0  0  0  0  0  0  0  0  0  0
    2.0021   -4.0303   -5.8491 H   0  0  0  0  0  0  0  0  0  0  0  0
    4.2424   -1.4974   -0.5546 Al  0  0  0  0  0  0  0  0  0  0  0  0
    4.6994   -2.0881    1.4181 Cl  0  0  0  0  0  0  0  0  0  0  0  0
    5.2770    0.3966   -1.1149 Cl  0  0  0  0  0  0  0  0  0  0  0  0
    4.7638   -2.8773   -2.1285 Cl  0  0  0  0  0  0  0  0  0  0  0  0
    2.1191   -1.0123   -0.8625 Cl  0  0  0  0  0  0  0  0  0  0  0  0
  1  3  1  0  0  0  0
  2  1  1  0  0  0  0
  3  4  1  0  0  0  0
  3  5  1  0  0  0  0
  6  7  2  0  0  0  0
  6 11  1  0  0  0  0
  7  8  1  0  0  0  0
  8 14  1  0  0  0  0
  8  9  2  0  0  0  0
  9 15  1  0  0  0  0
 10  9  1  0  0  0  0
 10 16  1  0  0  0  0
 11 10  2  0  0  0  0
 12  6  1  0  0  0  0
 13  7  1  0  0  0  0
 17 11  1  0  0  0  0
 18 19  1  0  0  0  0
 20 18  1  0  0  0  0
 21 18  1  0  0  0  0
 22 18  1  0  0  0  0
M  RAD  2   1   2   2   3
M  END
