Coordinates from ORCA-job C6H6+AlCl4-+NH2N2+-scan
 OpenBabel10161817473D

 22 20  0  0  0  0  0  0  0  0999 V2000
    2.9206    0.3297   -3.6208 N   0  0  0  0  0  0  0  0  0  0  0  0
    2.9567    0.7487   -4.6498 N   0  0  0  0  0  0  0  0  0  0  0  0
    2.8458   -0.0562   -2.4055 N   0  0  0  0  0  0  0  0  0  0  0  0
    2.6102   -1.0691   -2.2989 H   0  0  0  0  0  0  0  0  0  0  0  0
    3.7108    0.1851   -1.8256 H   0  0  0  0  0  0  0  0  0  0  0  0
    1.9317   -2.3972   -5.5941 C   0  0  0  0  0  0  0  0  0  0  0  0
    1.7302   -1.5691   -6.6991 C   0  0  0  0  0  0  0  0  0  0  0  0
    0.6258   -0.7157   -6.7424 C   0  0  0  0  0  0  0  0  0  0  0  0
   -0.2741   -0.6844   -5.6762 C   0  0  0  0  0  0  0  0  0  0  0  0
   -0.0744   -1.5126   -4.5707 C   0  0  0  0  0  0  0  0  0  0  0  0
    1.0271   -2.3713   -4.5304 C   0  0  0  0  0  0  0  0  0  0  0  0
    2.7879   -3.0613   -5.5596 H   0  0  0  0  0  0  0  0  0  0  0  0
    2.4289   -1.5942   -7.5279 H   0  0  0  0  0  0  0  0  0  0  0  0
    0.4660   -0.0793   -7.6058 H   0  0  0  0  0  0  0  0  0  0  0  0
   -1.1350   -0.0258   -5.7122 H   0  0  0  0  0  0  0  0  0  0  0  0
   -0.7845   -1.5031   -3.7506 H   0  0  0  0  0  0  0  0  0  0  0  0
    1.1722   -3.0344   -3.6842 H   0  0  0  0  0  0  0  0  0  0  0  0
    5.4123   -2.2131   -1.5449 Al  0  0  0  0  0  0  0  0  0  0  0  0
    6.8126   -3.4238   -0.5359 Cl  0  0  0  0  0  0  0  0  0  0  0  0
    5.3240   -0.1539   -0.6999 Cl  0  0  0  0  0  0  0  0  0  0  0  0
    5.7165   -1.9179   -3.6586 Cl  0  0  0  0  0  0  0  0  0  0  0  0
    3.3334   -2.9217   -1.3404 Cl  0  0  0  0  0  0  0  0  0  0  0  0
  1  3  1  0  0  0  0
  2  1  1  0  0  0  0
  3  4  1  0  0  0  0
  3  5  1  0  0  0  0
  6 12  1  0  0  0  0
  6 11  2  0  0  0  0
  7  6  1  0  0  0  0
  8  7  2  0  0  0  0
  8  9  1  0  0  0  0
  9 10  2  0  0  0  0
 10 11  1  0  0  0  0
 10 16  1  0  0  0  0
 11 17  1  0  0  0  0
 13  7  1  0  0  0  0
 14  8  1  0  0  0  0
 15  9  1  0  0  0  0
 18 22  1  0  0  0  0
 18 20  1  0  0  0  0
 18 19  1  0  0  0  0
 21 18  1  0  0  0  0
M  RAD  2   1   2   2   3
M  END
