Coordinates from ORCA-job C6H6+AlCl4-+NH2N2+-scan
 OpenBabel10161817473D

 22 20  0  0  0  0  0  0  0  0999 V2000
    3.8060   -1.2435   -4.3545 N   0  0  0  0  0  0  0  0  0  0  0  0
    4.2719   -1.9851   -5.0371 N   0  0  0  0  0  0  0  0  0  0  0  0
    3.2618   -0.3093   -3.6724 N   0  0  0  0  0  0  0  0  0  0  0  0
    2.5651   -0.6631   -2.9733 H   0  0  0  0  0  0  0  0  0  0  0  0
    3.9861    0.2757   -3.1539 H   0  0  0  0  0  0  0  0  0  0  0  0
    1.5175   -1.7114   -7.0559 C   0  0  0  0  0  0  0  0  0  0  0  0
    1.3807   -0.5761   -6.2572 C   0  0  0  0  0  0  0  0  0  0  0  0
    0.9898   -0.7030   -4.9220 C   0  0  0  0  0  0  0  0  0  0  0  0
    0.6930   -1.9653   -4.4021 C   0  0  0  0  0  0  0  0  0  0  0  0
    0.8376   -3.1012   -5.2014 C   0  0  0  0  0  0  0  0  0  0  0  0
    1.2509   -2.9754   -6.5270 C   0  0  0  0  0  0  0  0  0  0  0  0
    1.8209   -1.6106   -8.0922 H   0  0  0  0  0  0  0  0  0  0  0  0
    1.5717    0.4069   -6.6742 H   0  0  0  0  0  0  0  0  0  0  0  0
    0.8307    0.1844   -4.3223 H   0  0  0  0  0  0  0  0  0  0  0  0
    0.3442   -2.0648   -3.3798 H   0  0  0  0  0  0  0  0  0  0  0  0
    0.6122   -4.0798   -4.7928 H   0  0  0  0  0  0  0  0  0  0  0  0
    1.3542   -3.8570   -7.1495 H   0  0  0  0  0  0  0  0  0  0  0  0
    4.1276   -0.6440   -0.3342 Al  0  0  0  0  0  0  0  0  0  0  0  0
    4.4183   -0.3981    1.7391 Cl  0  0  0  0  0  0  0  0  0  0  0  0
    4.8787    1.0853   -1.5090 Cl  0  0  0  0  0  0  0  0  0  0  0  0
    5.0339   -2.3677   -1.2576 Cl  0  0  0  0  0  0  0  0  0  0  0  0
    1.9918   -0.7376   -0.9042 Cl  0  0  0  0  0  0  0  0  0  0  0  0
  1  3  1  0  0  0  0
  2  1  1  0  0  0  0
  3  5  1  0  0  0  0
  3  4  1  0  0  0  0
  6 11  2  0  0  0  0
  6  7  1  0  0  0  0
  7  8  2  0  0  0  0
  8  9  1  0  0  0  0
  8 14  1  0  0  0  0
  9 15  1  0  0  0  0
 10 16  1  0  0  0  0
 10  9  2  0  0  0  0
 11 10  1  0  0  0  0
 12  6  1  0  0  0  0
 13  7  1  0  0  0  0
 17 11  1  0  0  0  0
 18 19  1  0  0  0  0
 20 18  1  0  0  0  0
 21 18  1  0  0  0  0
 22 18  1  0  0  0  0
M  RAD  2   1   2   2   3
M  END
