Coordinates from ORCA-job C6H6+AlCl4-+NH2N2+-scan
 OpenBabel10161817473D

 22 20  0  0  0  0  0  0  0  0999 V2000
    3.7064   -0.2568   -4.4764 N   0  0  0  0  0  0  0  0  0  0  0  0
    4.0270   -0.6163   -5.4784 N   0  0  0  0  0  0  0  0  0  0  0  0
    3.3626    0.2628   -3.3617 N   0  0  0  0  0  0  0  0  0  0  0  0
    2.5981   -0.2529   -2.8764 H   0  0  0  0  0  0  0  0  0  0  0  0
    4.1825    0.4389   -2.6988 H   0  0  0  0  0  0  0  0  0  0  0  0
    1.6091   -2.2663   -6.7941 C   0  0  0  0  0  0  0  0  0  0  0  0
    0.9917   -1.0148   -6.8461 C   0  0  0  0  0  0  0  0  0  0  0  0
    0.4125   -0.4753   -5.6978 C   0  0  0  0  0  0  0  0  0  0  0  0
    0.4487   -1.1898   -4.4975 C   0  0  0  0  0  0  0  0  0  0  0  0
    1.0697   -2.4404   -4.4445 C   0  0  0  0  0  0  0  0  0  0  0  0
    1.6495   -2.9778   -5.5942 C   0  0  0  0  0  0  0  0  0  0  0  0
    2.0536   -2.6882   -7.6888 H   0  0  0  0  0  0  0  0  0  0  0  0
    0.9549   -0.4669   -7.7813 H   0  0  0  0  0  0  0  0  0  0  0  0
   -0.0808    0.4897   -5.7402 H   0  0  0  0  0  0  0  0  0  0  0  0
   -0.0236   -0.7845   -3.6087 H   0  0  0  0  0  0  0  0  0  0  0  0
    1.0973   -2.9924   -3.5121 H   0  0  0  0  0  0  0  0  0  0  0  0
    2.1297   -3.9488   -5.5531 H   0  0  0  0  0  0  0  0  0  0  0  0
    4.2990   -1.6597   -0.6302 Al  0  0  0  0  0  0  0  0  0  0  0  0
    4.7763   -2.3914    1.2894 Cl  0  0  0  0  0  0  0  0  0  0  0  0
    5.2965    0.2874   -1.0519 Cl  0  0  0  0  0  0  0  0  0  0  0  0
    4.8223   -2.9085   -2.3079 Cl  0  0  0  0  0  0  0  0  0  0  0  0
    2.1613   -1.1885   -0.8829 Cl  0  0  0  0  0  0  0  0  0  0  0  0
  1  3  1  0  0  0  0
  2  1  1  0  0  0  0
  3  4  1  0  0  0  0
  3  5  1  0  0  0  0
  6 11  1  0  0  0  0
  7  6  2  0  0  0  0
  7  8  1  0  0  0  0
  8  9  2  0  0  0  0
  9 10  1  0  0  0  0
  9 15  1  0  0  0  0
 10 16  1  0  0  0  0
 11 17  1  0  0  0  0
 11 10  2  0  0  0  0
 12  6  1  0  0  0  0
 13  7  1  0  0  0  0
 14  8  1  0  0  0  0
 18 19  1  0  0  0  0
 20 18  1  0  0  0  0
 21 18  1  0  0  0  0
 22 18  1  0  0  0  0
M  RAD  2   1   2   2   3
M  END
