Coordinates from ORCA-job C6H6+AlCl4-+NH2N2+-scan
 OpenBabel10161817473D

 22 20  0  0  0  0  0  0  0  0999 V2000
    3.9931   -0.9264   -4.5652 N   0  0  0  0  0  0  0  0  0  0  0  0
    4.2456   -1.7052   -5.3173 N   0  0  0  0  0  0  0  0  0  0  0  0
    3.7719    0.0415   -3.7628 N   0  0  0  0  0  0  0  0  0  0  0  0
    2.8476   -0.0112   -3.2880 H   0  0  0  0  0  0  0  0  0  0  0  0
    4.5605    0.2075   -3.0589 H   0  0  0  0  0  0  0  0  0  0  0  0
    1.3589   -1.7902   -6.9942 C   0  0  0  0  0  0  0  0  0  0  0  0
    0.9575   -0.6519   -6.2957 C   0  0  0  0  0  0  0  0  0  0  0  0
    0.6709   -0.7372   -4.9309 C   0  0  0  0  0  0  0  0  0  0  0  0
    0.7850   -1.9608   -4.2655 C   0  0  0  0  0  0  0  0  0  0  0  0
    1.1874   -3.0985   -4.9665 C   0  0  0  0  0  0  0  0  0  0  0  0
    1.4739   -3.0130   -6.3293 C   0  0  0  0  0  0  0  0  0  0  0  0
    1.5735   -1.7282   -8.0554 H   0  0  0  0  0  0  0  0  0  0  0  0
    0.8539    0.2954   -6.8136 H   0  0  0  0  0  0  0  0  0  0  0  0
    0.3331    0.1414   -4.3907 H   0  0  0  0  0  0  0  0  0  0  0  0
    0.5562   -2.0263   -3.2081 H   0  0  0  0  0  0  0  0  0  0  0  0
    1.2746   -4.0475   -4.4500 H   0  0  0  0  0  0  0  0  0  0  0  0
    1.7806   -3.8986   -6.8747 H   0  0  0  0  0  0  0  0  0  0  0  0
    3.8547   -0.8786   -0.4188 Al  0  0  0  0  0  0  0  0  0  0  0  0
    3.9620   -0.9352    1.6869 Cl  0  0  0  0  0  0  0  0  0  0  0  0
    5.4684    0.3816   -1.3000 Cl  0  0  0  0  0  0  0  0  0  0  0  0
    4.0187   -2.7632   -1.4535 Cl  0  0  0  0  0  0  0  0  0  0  0  0
    2.0167    0.0641   -1.1815 Cl  0  0  0  0  0  0  0  0  0  0  0  0
  1  3  1  0  0  0  0
  2  1  1  0  0  0  0
  3  4  1  0  0  0  0
  3  5  1  0  0  0  0
  6 11  2  0  0  0  0
  6  7  1  0  0  0  0
  7  8  2  0  0  0  0
  8 14  1  0  0  0  0
  8  9  1  0  0  0  0
  9 15  1  0  0  0  0
 10 16  1  0  0  0  0
 10  9  2  0  0  0  0
 11 10  1  0  0  0  0
 12  6  1  0  0  0  0
 13  7  1  0  0  0  0
 17 11  1  0  0  0  0
 18 19  1  0  0  0  0
 20 18  1  0  0  0  0
 21 18  1  0  0  0  0
 22 18  1  0  0  0  0
M  RAD  2   1   2   2   3
M  END
