Coordinates from ORCA-job C6H6+AlCl4-+NH2N2+-scan
 OpenBabel10161817473D

 22 20  0  0  0  0  0  0  0  0999 V2000
    3.6107   -0.1576   -4.4079 N   0  0  0  0  0  0  0  0  0  0  0  0
    3.9356   -0.3994   -5.4433 N   0  0  0  0  0  0  0  0  0  0  0  0
    3.2513    0.2320   -3.2463 N   0  0  0  0  0  0  0  0  0  0  0  0
    2.5618   -0.3983   -2.7849 H   0  0  0  0  0  0  0  0  0  0  0  0
    4.0704    0.4424   -2.5919 H   0  0  0  0  0  0  0  0  0  0  0  0
    1.6859   -2.3263   -6.6941 C   0  0  0  0  0  0  0  0  0  0  0  0
    1.0604   -1.0978   -6.9182 C   0  0  0  0  0  0  0  0  0  0  0  0
    0.3826   -0.4600   -5.8794 C   0  0  0  0  0  0  0  0  0  0  0  0
    0.3236   -1.0549   -4.6171 C   0  0  0  0  0  0  0  0  0  0  0  0
    0.9494   -2.2844   -4.3927 C   0  0  0  0  0  0  0  0  0  0  0  0
    1.6326   -2.9181   -5.4318 C   0  0  0  0  0  0  0  0  0  0  0  0
    2.2095   -2.8231   -7.5034 H   0  0  0  0  0  0  0  0  0  0  0  0
    1.0956   -0.6434   -7.9022 H   0  0  0  0  0  0  0  0  0  0  0  0
   -0.1139    0.4879   -6.0563 H   0  0  0  0  0  0  0  0  0  0  0  0
   -0.2248   -0.5729   -3.8145 H   0  0  0  0  0  0  0  0  0  0  0  0
    0.8991   -2.7492   -3.4147 H   0  0  0  0  0  0  0  0  0  0  0  0
    2.1198   -3.8702   -5.2551 H   0  0  0  0  0  0  0  0  0  0  0  0
    4.4575   -1.7809   -0.6970 Al  0  0  0  0  0  0  0  0  0  0  0  0
    5.0787   -2.6035    1.1428 Cl  0  0  0  0  0  0  0  0  0  0  0  0
    5.2712    0.2698   -1.0106 Cl  0  0  0  0  0  0  0  0  0  0  0  0
    5.0078   -2.8577   -2.4822 Cl  0  0  0  0  0  0  0  0  0  0  0  0
    2.2798   -1.4751   -0.8329 Cl  0  0  0  0  0  0  0  0  0  0  0  0
  1  3  1  0  0  0  0
  2  1  1  0  0  0  0
  3  4  1  0  0  0  0
  3  5  1  0  0  0  0
  6 11  1  0  0  0  0
  7  6  2  0  0  0  0
  7  8  1  0  0  0  0
  8  9  2  0  0  0  0
  9 10  1  0  0  0  0
  9 15  1  0  0  0  0
 10 16  1  0  0  0  0
 11 17  1  0  0  0  0
 11 10  2  0  0  0  0
 12  6  1  0  0  0  0
 13  7  1  0  0  0  0
 14  8  1  0  0  0  0
 18 19  1  0  0  0  0
 20 18  1  0  0  0  0
 21 18  1  0  0  0  0
 22 18  1  0  0  0  0
M  RAD  2   1   2   2   3
M  END
