Coordinates from ORCA-job C6H6+AlCl4-+NH2N2+-scan
 OpenBabel10161817473D

 22 20  0  0  0  0  0  0  0  0999 V2000
    3.8749    0.5883    0.2089 N   0  0  0  0  0  0  0  0  0  0  0  0
    3.3922    1.5898    0.2485 N   0  0  0  0  0  0  0  0  0  0  0  0
    4.4173   -0.5624    0.2557 N   0  0  0  0  0  0  0  0  0  0  0  0
    3.8613   -1.3237   -0.2440 H   0  0  0  0  0  0  0  0  0  0  0  0
    5.4152   -0.5832   -0.1119 H   0  0  0  0  0  0  0  0  0  0  0  0
    0.7812   -2.9576   -6.9159 C   0  0  0  0  0  0  0  0  0  0  0  0
    1.7332   -2.1225   -6.3322 C   0  0  0  0  0  0  0  0  0  0  0  0
    1.3517   -0.8840   -5.8165 C   0  0  0  0  0  0  0  0  0  0  0  0
    0.0182   -0.4819   -5.8869 C   0  0  0  0  0  0  0  0  0  0  0  0
   -0.9337   -1.3166   -6.4711 C   0  0  0  0  0  0  0  0  0  0  0  0
   -0.5520   -2.5552   -6.9854 C   0  0  0  0  0  0  0  0  0  0  0  0
    1.0787   -3.9209   -7.3161 H   0  0  0  0  0  0  0  0  0  0  0  0
    2.7706   -2.4346   -6.2793 H   0  0  0  0  0  0  0  0  0  0  0  0
    2.0928   -0.2365   -5.3612 H   0  0  0  0  0  0  0  0  0  0  0  0
   -0.2785    0.4825   -5.4878 H   0  0  0  0  0  0  0  0  0  0  0  0
   -1.9708   -1.0026   -6.5264 H   0  0  0  0  0  0  0  0  0  0  0  0
   -1.2921   -3.2051   -7.4403 H   0  0  0  0  0  0  0  0  0  0  0  0
    5.1806   -1.6497   -2.8814 Al  0  0  0  0  0  0  0  0  0  0  0  0
    5.7997   -2.7368   -4.5754 Cl  0  0  0  0  0  0  0  0  0  0  0  0
    6.8175   -1.2771   -1.4317 Cl  0  0  0  0  0  0  0  0  0  0  0  0
    4.3086    0.2940   -3.2131 Cl  0  0  0  0  0  0  0  0  0  0  0  0
    3.6780   -2.7449   -1.6699 Cl  0  0  0  0  0  0  0  0  0  0  0  0
  1  2  1  0  0  0  0
  1  3  1  0  0  0  0
  4  3  1  0  0  0  0
  5  3  1  0  0  0  0
  6  7  1  0  0  0  0
  7 13  1  0  0  0  0
  7  8  2  0  0  0  0
  8 14  1  0  0  0  0
  9  8  1  0  0  0  0
  9 15  1  0  0  0  0
 10  9  2  0  0  0  0
 11  6  2  0  0  0  0
 11 10  1  0  0  0  0
 12  6  1  0  0  0  0
 16 10  1  0  0  0  0
 17 11  1  0  0  0  0
 18 22  1  0  0  0  0
 18 20  1  0  0  0  0
 19 18  1  0  0  0  0
 21 18  1  0  0  0  0
M  RAD  2   1   2   2   3
M  END
