Coordinates from ORCA-job C6H6+AlCl4-+NH2N2+-scan
 OpenBabel10161817473D

 22 20  0  0  0  0  0  0  0  0999 V2000
    3.9260   -1.0833   -4.5370 N   0  0  0  0  0  0  0  0  0  0  0  0
    4.2529   -1.9068   -5.2075 N   0  0  0  0  0  0  0  0  0  0  0  0
    3.6270   -0.0643   -3.8291 N   0  0  0  0  0  0  0  0  0  0  0  0
    2.6999   -0.1355   -3.3759 H   0  0  0  0  0  0  0  0  0  0  0  0
    4.3971    0.2090   -3.1359 H   0  0  0  0  0  0  0  0  0  0  0  0
    1.3888   -1.6967   -6.9797 C   0  0  0  0  0  0  0  0  0  0  0  0
    1.1341   -0.5996   -6.1579 C   0  0  0  0  0  0  0  0  0  0  0  0
    0.8791   -0.7934   -4.7973 C   0  0  0  0  0  0  0  0  0  0  0  0
    0.8631   -2.0840   -4.2621 C   0  0  0  0  0  0  0  0  0  0  0  0
    1.1212   -3.1800   -5.0870 C   0  0  0  0  0  0  0  0  0  0  0  0
    1.3839   -2.9862   -6.4433 C   0  0  0  0  0  0  0  0  0  0  0  0
    1.5811   -1.5499   -8.0367 H   0  0  0  0  0  0  0  0  0  0  0  0
    1.1209    0.4015   -6.5750 H   0  0  0  0  0  0  0  0  0  0  0  0
    0.6350    0.0551   -4.1652 H   0  0  0  0  0  0  0  0  0  0  0  0
    0.6498   -2.2313   -3.2095 H   0  0  0  0  0  0  0  0  0  0  0  0
    1.1111   -4.1815   -4.6725 H   0  0  0  0  0  0  0  0  0  0  0  0
    1.5778   -3.8391   -7.0842 H   0  0  0  0  0  0  0  0  0  0  0  0
    3.8317   -0.7189   -0.4179 Al  0  0  0  0  0  0  0  0  0  0  0  0
    4.0276   -0.6478    1.6816 Cl  0  0  0  0  0  0  0  0  0  0  0  0
    5.3433    0.5684   -1.4341 Cl  0  0  0  0  0  0  0  0  0  0  0  0
    4.0691   -2.6526   -1.3469 Cl  0  0  0  0  0  0  0  0  0  0  0  0
    1.9239    0.0762   -1.1608 Cl  0  0  0  0  0  0  0  0  0  0  0  0
  1  3  1  0  0  0  0
  2  1  1  0  0  0  0
  3  4  1  0  0  0  0
  3  5  1  0  0  0  0
  6 11  2  0  0  0  0
  6  7  1  0  0  0  0
  7  8  2  0  0  0  0
  8  9  1  0  0  0  0
  8 14  1  0  0  0  0
  9 15  1  0  0  0  0
 10 16  1  0  0  0  0
 10  9  2  0  0  0  0
 11 10  1  0  0  0  0
 12  6  1  0  0  0  0
 13  7  1  0  0  0  0
 17 11  1  0  0  0  0
 18 19  1  0  0  0  0
 20 18  1  0  0  0  0
 21 18  1  0  0  0  0
 22 18  1  0  0  0  0
M  RAD  2   1   2   2   3
M  END
