Coordinates from ORCA-job C6H6+AlCl4-+NH2N2+-scan
 OpenBabel10161817473D

 22 20  0  0  0  0  0  0  0  0999 V2000
    4.2771   -2.2167   -3.9383 N   0  0  0  0  0  0  0  0  0  0  0  0
    4.9738   -2.9285   -4.4474 N   0  0  0  0  0  0  0  0  0  0  0  0
    3.2017   -1.4835   -3.6840 N   0  0  0  0  0  0  0  0  0  0  0  0
    2.8510   -1.7423   -2.7217 H   0  0  0  0  0  0  0  0  0  0  0  0
    3.5080   -0.4766   -3.5924 H   0  0  0  0  0  0  0  0  0  0  0  0
    1.4247   -1.1518   -6.8816 C   0  0  0  0  0  0  0  0  0  0  0  0
    1.6086   -0.4407   -5.7010 C   0  0  0  0  0  0  0  0  0  0  0  0
    1.3028   -1.0363   -4.4661 C   0  0  0  0  0  0  0  0  0  0  0  0
    0.6585   -2.2844   -4.4477 C   0  0  0  0  0  0  0  0  0  0  0  0
    0.4765   -2.9917   -5.6309 C   0  0  0  0  0  0  0  0  0  0  0  0
    0.8719   -2.4338   -6.8485 C   0  0  0  0  0  0  0  0  0  0  0  0
    1.6874   -0.6999   -7.8317 H   0  0  0  0  0  0  0  0  0  0  0  0
    2.0099    0.5671   -5.7275 H   0  0  0  0  0  0  0  0  0  0  0  0
    1.2824   -0.4188   -3.5734 H   0  0  0  0  0  0  0  0  0  0  0  0
    0.3244   -2.7036   -3.5042 H   0  0  0  0  0  0  0  0  0  0  0  0
    0.0036   -3.9673   -5.6106 H   0  0  0  0  0  0  0  0  0  0  0  0
    0.7233   -2.9841   -7.7707 H   0  0  0  0  0  0  0  0  0  0  0  0
    4.1237    0.1170   -0.6643 Al  0  0  0  0  0  0  0  0  0  0  0  0
    4.1218    1.3139    1.0720 Cl  0  0  0  0  0  0  0  0  0  0  0  0
    3.7978    1.3060   -2.5104 Cl  0  0  0  0  0  0  0  0  0  0  0  0
    5.8800   -1.0603   -1.0531 Cl  0  0  0  0  0  0  0  0  0  0  0  0
    2.4356   -1.3241   -0.7001 Cl  0  0  0  0  0  0  0  0  0  0  0  0
  1  3  1  0  0  0  0
  2  1  1  0  0  0  0
  3  5  1  0  0  0  0
  3  4  1  0  0  0  0
  6 11  2  0  0  0  0
  6  7  1  0  0  0  0
  7  8  2  0  0  0  0
  8  9  1  0  0  0  0
  8 14  1  0  0  0  0
  9 15  1  0  0  0  0
 10 16  1  0  0  0  0
 10  9  2  0  0  0  0
 11 10  1  0  0  0  0
 12  6  1  0  0  0  0
 13  7  1  0  0  0  0
 17 11  1  0  0  0  0
 18 19  1  0  0  0  0
 20 18  1  0  0  0  0
 21 18  1  0  0  0  0
 22 18  1  0  0  0  0
M  RAD  2   1   2   2   3
M  END
