Coordinates from ORCA-job C6H6+AlCl4-+NH2N2+-scan
 OpenBabel10161817473D

 22 20  0  0  0  0  0  0  0  0999 V2000
    3.8100   -1.2356   -4.3550 N   0  0  0  0  0  0  0  0  0  0  0  0
    4.2703   -1.9789   -5.0395 N   0  0  0  0  0  0  0  0  0  0  0  0
    3.2730   -0.3002   -3.6687 N   0  0  0  0  0  0  0  0  0  0  0  0
    2.5703   -0.6513   -2.9748 H   0  0  0  0  0  0  0  0  0  0  0  0
    4.0000    0.2798   -3.1493 H   0  0  0  0  0  0  0  0  0  0  0  0
    1.5113   -1.7143   -7.0594 C   0  0  0  0  0  0  0  0  0  0  0  0
    1.3722   -0.5780   -6.2627 C   0  0  0  0  0  0  0  0  0  0  0  0
    0.9842   -0.7042   -4.9265 C   0  0  0  0  0  0  0  0  0  0  0  0
    0.6947   -1.9669   -4.4029 C   0  0  0  0  0  0  0  0  0  0  0  0
    0.8412   -3.1037   -5.2007 C   0  0  0  0  0  0  0  0  0  0  0  0
    1.2508   -2.9784   -6.5274 C   0  0  0  0  0  0  0  0  0  0  0  0
    1.8120   -1.6145   -8.0965 H   0  0  0  0  0  0  0  0  0  0  0  0
    1.5589    0.4049   -6.6817 H   0  0  0  0  0  0  0  0  0  0  0  0
    0.8272    0.1837   -4.3261 H   0  0  0  0  0  0  0  0  0  0  0  0
    0.3498   -2.0659   -3.3792 H   0  0  0  0  0  0  0  0  0  0  0  0
    0.6212   -4.0826   -4.7898 H   0  0  0  0  0  0  0  0  0  0  0  0
    1.3562   -3.8607   -7.1487 H   0  0  0  0  0  0  0  0  0  0  0  0
    4.1253   -0.6469   -0.3301 Al  0  0  0  0  0  0  0  0  0  0  0  0
    4.4135   -0.4087    1.7445 Cl  0  0  0  0  0  0  0  0  0  0  0  0
    4.8927    1.0798   -1.4984 Cl  0  0  0  0  0  0  0  0  0  0  0  0
    5.0200   -2.3751   -1.2564 Cl  0  0  0  0  0  0  0  0  0  0  0  0
    1.9897   -0.7230   -0.9043 Cl  0  0  0  0  0  0  0  0  0  0  0  0
  1  3  1  0  0  0  0
  2  1  1  0  0  0  0
  3  5  1  0  0  0  0
  3  4  1  0  0  0  0
  6 11  2  0  0  0  0
  6  7  1  0  0  0  0
  7  8  2  0  0  0  0
  8  9  1  0  0  0  0
  8 14  1  0  0  0  0
  9 15  1  0  0  0  0
 10 16  1  0  0  0  0
 10  9  2  0  0  0  0
 11 10  1  0  0  0  0
 12  6  1  0  0  0  0
 13  7  1  0  0  0  0
 17 11  1  0  0  0  0
 18 19  1  0  0  0  0
 20 18  1  0  0  0  0
 21 18  1  0  0  0  0
 22 18  1  0  0  0  0
M  RAD  2   1   2   2   3
M  END
