Coordinates from ORCA-job C6H6+AlCl4-+NH2N2+-scan
 OpenBabel10161817473D

 22 20  0  0  0  0  0  0  0  0999 V2000
    3.8213   -1.2836   -4.3216 N   0  0  0  0  0  0  0  0  0  0  0  0
    4.3145   -2.0059   -5.0060 N   0  0  0  0  0  0  0  0  0  0  0  0
    3.2169   -0.3800   -3.6495 N   0  0  0  0  0  0  0  0  0  0  0  0
    2.5693   -0.7760   -2.9223 H   0  0  0  0  0  0  0  0  0  0  0  0
    3.9033    0.2683   -3.1553 H   0  0  0  0  0  0  0  0  0  0  0  0
    1.5357   -1.7083   -7.0623 C   0  0  0  0  0  0  0  0  0  0  0  0
    1.4249   -0.5733   -6.2585 C   0  0  0  0  0  0  0  0  0  0  0  0
    1.0081   -0.6935   -4.9306 C   0  0  0  0  0  0  0  0  0  0  0  0
    0.6570   -1.9479   -4.4254 C   0  0  0  0  0  0  0  0  0  0  0  0
    0.7759   -3.0834   -5.2292 C   0  0  0  0  0  0  0  0  0  0  0  0
    1.2160   -2.9650   -6.5469 C   0  0  0  0  0  0  0  0  0  0  0  0
    1.8594   -1.6116   -8.0928 H   0  0  0  0  0  0  0  0  0  0  0  0
    1.6559    0.4048   -6.6670 H   0  0  0  0  0  0  0  0  0  0  0  0
    0.8642    0.1956   -4.3299 H   0  0  0  0  0  0  0  0  0  0  0  0
    0.2850   -2.0413   -3.4105 H   0  0  0  0  0  0  0  0  0  0  0  0
    0.5081   -4.0557   -4.8310 H   0  0  0  0  0  0  0  0  0  0  0  0
    1.2987   -3.8459   -7.1734 H   0  0  0  0  0  0  0  0  0  0  0  0
    4.1695   -0.6147   -0.3254 Al  0  0  0  0  0  0  0  0  0  0  0  0
    4.4620   -0.3235    1.7415 Cl  0  0  0  0  0  0  0  0  0  0  0  0
    4.7583    1.1581   -1.5270 Cl  0  0  0  0  0  0  0  0  0  0  0  0
    5.2009   -2.2675   -1.2453 Cl  0  0  0  0  0  0  0  0  0  0  0  0
    2.0397   -0.8906   -0.8653 Cl  0  0  0  0  0  0  0  0  0  0  0  0
  1  3  1  0  0  0  0
  2  1  1  0  0  0  0
  3  5  1  0  0  0  0
  3  4  1  0  0  0  0
  6 11  2  0  0  0  0
  6  7  1  0  0  0  0
  7  8  2  0  0  0  0
  8  9  1  0  0  0  0
  8 14  1  0  0  0  0
  9 15  1  0  0  0  0
 10 16  1  0  0  0  0
 10  9  2  0  0  0  0
 11 10  1  0  0  0  0
 12  6  1  0  0  0  0
 13  7  1  0  0  0  0
 17 11  1  0  0  0  0
 18 19  1  0  0  0  0
 20 18  1  0  0  0  0
 21 18  1  0  0  0  0
 22 18  1  0  0  0  0
M  RAD  2   1   2   2   3
M  END
