Coordinates from ORCA-job C6H6+AlCl4-+NH2N2+-scan
 OpenBabel10161817473D

 22 20  0  0  0  0  0  0  0  0999 V2000
    3.4785   -0.0274   -4.3113 N   0  0  0  0  0  0  0  0  0  0  0  0
    3.7849   -0.1540   -5.3724 N   0  0  0  0  0  0  0  0  0  0  0  0
    3.1358    0.2358   -3.1091 N   0  0  0  0  0  0  0  0  0  0  0  0
    2.5044   -0.4757   -2.6880 H   0  0  0  0  0  0  0  0  0  0  0  0
    3.9667    0.4381   -2.4654 H   0  0  0  0  0  0  0  0  0  0  0  0
    1.7837   -2.3886   -6.5346 C   0  0  0  0  0  0  0  0  0  0  0  0
    1.1752   -1.2037   -6.9545 C   0  0  0  0  0  0  0  0  0  0  0  0
    0.3813   -0.4739   -6.0691 C   0  0  0  0  0  0  0  0  0  0  0  0
    0.1896   -0.9331   -4.7650 C   0  0  0  0  0  0  0  0  0  0  0  0
    0.7972   -2.1200   -4.3451 C   0  0  0  0  0  0  0  0  0  0  0  0
    1.5972   -2.8457   -5.2298 C   0  0  0  0  0  0  0  0  0  0  0  0
    2.3989   -2.9560   -7.2240 H   0  0  0  0  0  0  0  0  0  0  0  0
    1.3150   -0.8539   -7.9714 H   0  0  0  0  0  0  0  0  0  0  0  0
   -0.0995    0.4406   -6.3990 H   0  0  0  0  0  0  0  0  0  0  0  0
   -0.4461   -0.3791   -4.0824 H   0  0  0  0  0  0  0  0  0  0  0  0
    0.6397   -2.4864   -3.3368 H   0  0  0  0  0  0  0  0  0  0  0  0
    2.0720   -3.7626   -4.9002 H   0  0  0  0  0  0  0  0  0  0  0  0
    4.6218   -1.9150   -0.8274 Al  0  0  0  0  0  0  0  0  0  0  0  0
    5.4121   -2.8593    0.8848 Cl  0  0  0  0  0  0  0  0  0  0  0  0
    5.2561    0.2176   -0.9693 Cl  0  0  0  0  0  0  0  0  0  0  0  0
    5.1547   -2.7613   -2.7385 Cl  0  0  0  0  0  0  0  0  0  0  0  0
    2.4252   -1.7770   -0.8249 Cl  0  0  0  0  0  0  0  0  0  0  0  0
  1  3  1  0  0  0  0
  2  1  1  0  0  0  0
  3  4  1  0  0  0  0
  3  5  1  0  0  0  0
  6 11  1  0  0  0  0
  7  6  2  0  0  0  0
  7  8  1  0  0  0  0
  8  9  2  0  0  0  0
  9 10  1  0  0  0  0
  9 15  1  0  0  0  0
 10 16  1  0  0  0  0
 11 17  1  0  0  0  0
 11 10  2  0  0  0  0
 12  6  1  0  0  0  0
 13  7  1  0  0  0  0
 14  8  1  0  0  0  0
 18 22  1  0  0  0  0
 18 19  1  0  0  0  0
 20 18  1  0  0  0  0
 21 18  1  0  0  0  0
M  RAD  2   1   2   2   3
M  END
