Coordinates from ORCA-job C6H6+AlCl4-+NH2N2+-scan
 OpenBabel10161817473D

 22 20  0  0  0  0  0  0  0  0999 V2000
    3.3122    0.5484   -3.3111 N   0  0  0  0  0  0  0  0  0  0  0  0
    3.2629    0.8264   -4.3863 N   0  0  0  0  0  0  0  0  0  0  0  0
    3.3115    0.2953   -2.0601 N   0  0  0  0  0  0  0  0  0  0  0  0
    2.9122   -0.6556   -1.8217 H   0  0  0  0  0  0  0  0  0  0  0  0
    4.2680    0.3876   -1.6040 H   0  0  0  0  0  0  0  0  0  0  0  0
    1.9768   -2.0824   -5.7577 C   0  0  0  0  0  0  0  0  0  0  0  0
    1.5494   -1.4543   -6.9286 C   0  0  0  0  0  0  0  0  0  0  0  0
    0.2513   -0.9511   -7.0182 C   0  0  0  0  0  0  0  0  0  0  0  0
   -0.6180   -1.0692   -5.9338 C   0  0  0  0  0  0  0  0  0  0  0  0
   -0.1924   -1.6963   -4.7626 C   0  0  0  0  0  0  0  0  0  0  0  0
    1.1041   -2.2056   -4.6746 C   0  0  0  0  0  0  0  0  0  0  0  0
    2.9802   -2.4888   -5.6905 H   0  0  0  0  0  0  0  0  0  0  0  0
    2.2245   -1.3675   -7.7731 H   0  0  0  0  0  0  0  0  0  0  0  0
   -0.0827   -0.4707   -7.9314 H   0  0  0  0  0  0  0  0  0  0  0  0
   -1.6285   -0.6815   -6.0046 H   0  0  0  0  0  0  0  0  0  0  0  0
   -0.8742   -1.8017   -3.9254 H   0  0  0  0  0  0  0  0  0  0  0  0
    1.4288   -2.7186   -3.7751 H   0  0  0  0  0  0  0  0  0  0  0  0
    5.3513   -2.3937   -1.3666 Al  0  0  0  0  0  0  0  0  0  0  0  0
    6.4484   -3.9274   -0.4287 Cl  0  0  0  0  0  0  0  0  0  0  0  0
    5.8580   -0.3776   -0.5858 Cl  0  0  0  0  0  0  0  0  0  0  0  0
    5.5306   -2.2146   -3.5067 Cl  0  0  0  0  0  0  0  0  0  0  0  0
    3.1703   -2.5418   -0.9870 Cl  0  0  0  0  0  0  0  0  0  0  0  0
  1  3  1  0  0  0  0
  2  1  1  0  0  0  0
  3  4  1  0  0  0  0
  3  5  1  0  0  0  0
  6 12  1  0  0  0  0
  6 11  2  0  0  0  0
  7  6  1  0  0  0  0
  8  7  2  0  0  0  0
  8  9  1  0  0  0  0
  9 10  2  0  0  0  0
 10 11  1  0  0  0  0
 10 16  1  0  0  0  0
 11 17  1  0  0  0  0
 13  7  1  0  0  0  0
 14  8  1  0  0  0  0
 15  9  1  0  0  0  0
 18 22  1  0  0  0  0
 18 20  1  0  0  0  0
 18 19  1  0  0  0  0
 21 18  1  0  0  0  0
M  RAD  2   1   2   2   3
M  END
