Coordinates from ORCA-job C6H6+AlCl4-+NH2N2+-scan
 OpenBabel10161817473D

 22 20  0  0  0  0  0  0  0  0999 V2000
    3.2326    0.4664   -3.4580 N   0  0  0  0  0  0  0  0  0  0  0  0
    3.2386    0.7589   -4.5304 N   0  0  0  0  0  0  0  0  0  0  0  0
    3.1747    0.2011   -2.2109 N   0  0  0  0  0  0  0  0  0  0  0  0
    2.8078   -0.7650   -1.9999 H   0  0  0  0  0  0  0  0  0  0  0  0
    4.0986    0.3421   -1.6996 H   0  0  0  0  0  0  0  0  0  0  0  0
    1.9869   -2.1603   -5.7324 C   0  0  0  0  0  0  0  0  0  0  0  0
    1.5917   -1.4503   -6.8672 C   0  0  0  0  0  0  0  0  0  0  0  0
    0.3308   -0.8543   -6.9154 C   0  0  0  0  0  0  0  0  0  0  0  0
   -0.5326   -0.9616   -5.8253 C   0  0  0  0  0  0  0  0  0  0  0  0
   -0.1392   -1.6711   -4.6900 C   0  0  0  0  0  0  0  0  0  0  0  0
    1.1194   -2.2732   -4.6437 C   0  0  0  0  0  0  0  0  0  0  0  0
    2.9616   -2.6347   -5.6968 H   0  0  0  0  0  0  0  0  0  0  0  0
    2.2618   -1.3713   -7.7163 H   0  0  0  0  0  0  0  0  0  0  0  0
    0.0213   -0.3104   -7.8012 H   0  0  0  0  0  0  0  0  0  0  0  0
   -1.5143   -0.5021   -5.8640 H   0  0  0  0  0  0  0  0  0  0  0  0
   -0.8178   -1.7686   -3.8493 H   0  0  0  0  0  0  0  0  0  0  0  0
    1.4178   -2.8480   -3.7731 H   0  0  0  0  0  0  0  0  0  0  0  0
    5.3437   -2.3464   -1.3792 Al  0  0  0  0  0  0  0  0  0  0  0  0
    6.5089   -3.7854   -0.3747 Cl  0  0  0  0  0  0  0  0  0  0  0  0
    5.6829   -0.2889   -0.6101 Cl  0  0  0  0  0  0  0  0  0  0  0  0
    5.6017   -2.1826   -3.5129 Cl  0  0  0  0  0  0  0  0  0  0  0  0
    3.1677   -2.6349   -1.0831 Cl  0  0  0  0  0  0  0  0  0  0  0  0
  1  3  1  0  0  0  0
  2  1  1  0  0  0  0
  3  4  1  0  0  0  0
  3  5  1  0  0  0  0
  6 12  1  0  0  0  0
  6 11  2  0  0  0  0
  7  6  1  0  0  0  0
  8  7  2  0  0  0  0
  8  9  1  0  0  0  0
  9 10  2  0  0  0  0
 10 11  1  0  0  0  0
 10 16  1  0  0  0  0
 11 17  1  0  0  0  0
 13  7  1  0  0  0  0
 14  8  1  0  0  0  0
 15  9  1  0  0  0  0
 18 22  1  0  0  0  0
 18 20  1  0  0  0  0
 18 19  1  0  0  0  0
 21 18  1  0  0  0  0
M  RAD  2   1   2   2   3
M  END
