Coordinates from ORCA-job C6H6+AlCl4-+NH2N2+-scan
 OpenBabel10161817473D

 22 20  0  0  0  0  0  0  0  0999 V2000
    3.7933    0.5526    0.1542 N   0  0  0  0  0  0  0  0  0  0  0  0
    3.2912    1.5450    0.1810 N   0  0  0  0  0  0  0  0  0  0  0  0
    4.3547   -0.5883    0.2153 N   0  0  0  0  0  0  0  0  0  0  0  0
    3.8301   -1.3573   -0.3062 H   0  0  0  0  0  0  0  0  0  0  0  0
    5.3646   -0.5893   -0.1179 H   0  0  0  0  0  0  0  0  0  0  0  0
    0.7696   -2.9609   -6.8624 C   0  0  0  0  0  0  0  0  0  0  0  0
    1.7339   -2.1196   -6.3085 C   0  0  0  0  0  0  0  0  0  0  0  0
    1.3675   -0.8657   -5.8197 C   0  0  0  0  0  0  0  0  0  0  0  0
    0.0366   -0.4544   -5.8875 C   0  0  0  0  0  0  0  0  0  0  0  0
   -0.9276   -1.2953   -6.4418 C   0  0  0  0  0  0  0  0  0  0  0  0
   -0.5610   -2.5493   -6.9290 C   0  0  0  0  0  0  0  0  0  0  0  0
    1.0555   -3.9362   -7.2415 H   0  0  0  0  0  0  0  0  0  0  0  0
    2.7692   -2.4390   -6.2583 H   0  0  0  0  0  0  0  0  0  0  0  0
    2.1182   -0.2134   -5.3877 H   0  0  0  0  0  0  0  0  0  0  0  0
   -0.2484    0.5220   -5.5098 H   0  0  0  0  0  0  0  0  0  0  0  0
   -1.9626   -0.9741   -6.4951 H   0  0  0  0  0  0  0  0  0  0  0  0
   -1.3106   -3.2041   -7.3607 H   0  0  0  0  0  0  0  0  0  0  0  0
    5.2428   -1.6483   -2.8980 Al  0  0  0  0  0  0  0  0  0  0  0  0
    5.9354   -2.7182   -4.5743 Cl  0  0  0  0  0  0  0  0  0  0  0  0
    6.8233   -1.2542   -1.3927 Cl  0  0  0  0  0  0  0  0  0  0  0  0
    4.3497    0.2820   -3.2508 Cl  0  0  0  0  0  0  0  0  0  0  0  0
    3.7193   -2.7746   -1.7422 Cl  0  0  0  0  0  0  0  0  0  0  0  0
  1  2  1  0  0  0  0
  1  3  1  0  0  0  0
  4  3  1  0  0  0  0
  5  3  1  0  0  0  0
  6  7  1  0  0  0  0
  7 13  1  0  0  0  0
  7  8  2  0  0  0  0
  8 14  1  0  0  0  0
  9  8  1  0  0  0  0
  9 15  1  0  0  0  0
 10  9  2  0  0  0  0
 11  6  2  0  0  0  0
 11 10  1  0  0  0  0
 12  6  1  0  0  0  0
 16 10  1  0  0  0  0
 17 11  1  0  0  0  0
 18 22  1  0  0  0  0
 18 20  1  0  0  0  0
 19 18  1  0  0  0  0
 21 18  1  0  0  0  0
M  RAD  2   1   2   2   3
M  END
