Coordinates from ORCA-job C6H6+AlCl4-+NH2N2+-scan
 OpenBabel10161817473D

 22 20  0  0  0  0  0  0  0  0999 V2000
    2.9143    0.3269   -3.6274 N   0  0  0  0  0  0  0  0  0  0  0  0
    2.9511    0.7481   -4.6556 N   0  0  0  0  0  0  0  0  0  0  0  0
    2.8387   -0.0605   -2.4126 N   0  0  0  0  0  0  0  0  0  0  0  0
    2.6044   -1.0734   -2.3073 H   0  0  0  0  0  0  0  0  0  0  0  0
    3.7026    0.1821   -1.8314 H   0  0  0  0  0  0  0  0  0  0  0  0
    1.9309   -2.4027   -5.5917 C   0  0  0  0  0  0  0  0  0  0  0  0
    1.7338   -1.5707   -6.6945 C   0  0  0  0  0  0  0  0  0  0  0  0
    0.6336   -0.7116   -6.7357 C   0  0  0  0  0  0  0  0  0  0  0  0
   -0.2668   -0.6791   -5.6700 C   0  0  0  0  0  0  0  0  0  0  0  0
   -0.0715   -1.5112   -4.5667 C   0  0  0  0  0  0  0  0  0  0  0  0
    1.0261   -2.3751   -4.5282 C   0  0  0  0  0  0  0  0  0  0  0  0
    2.7839   -3.0709   -5.5586 H   0  0  0  0  0  0  0  0  0  0  0  0
    2.4327   -1.5969   -7.5231 H   0  0  0  0  0  0  0  0  0  0  0  0
    0.4773   -0.0720   -7.5974 H   0  0  0  0  0  0  0  0  0  0  0  0
   -1.1246   -0.0164   -5.7047 H   0  0  0  0  0  0  0  0  0  0  0  0
   -0.7818   -1.5006   -3.7468 H   0  0  0  0  0  0  0  0  0  0  0  0
    1.1680   -3.0408   -3.6836 H   0  0  0  0  0  0  0  0  0  0  0  0
    5.4111   -2.2100   -1.5485 Al  0  0  0  0  0  0  0  0  0  0  0  0
    6.8148   -3.4157   -0.5384 Cl  0  0  0  0  0  0  0  0  0  0  0  0
    5.3147   -0.1511   -0.7034 Cl  0  0  0  0  0  0  0  0  0  0  0  0
    5.7166   -1.9133   -3.6619 Cl  0  0  0  0  0  0  0  0  0  0  0  0
    3.3347   -2.9257   -1.3461 Cl  0  0  0  0  0  0  0  0  0  0  0  0
  1  3  1  0  0  0  0
  2  1  1  0  0  0  0
  3  4  1  0  0  0  0
  3  5  1  0  0  0  0
  6 12  1  0  0  0  0
  6 11  2  0  0  0  0
  7  6  1  0  0  0  0
  8  7  2  0  0  0  0
  8  9  1  0  0  0  0
  9 10  2  0  0  0  0
 10 11  1  0  0  0  0
 10 16  1  0  0  0  0
 11 17  1  0  0  0  0
 13  7  1  0  0  0  0
 14  8  1  0  0  0  0
 15  9  1  0  0  0  0
 18 22  1  0  0  0  0
 18 20  1  0  0  0  0
 18 19  1  0  0  0  0
 21 18  1  0  0  0  0
M  RAD  2   1   2   2   3
M  END
