Coordinates from ORCA-job C6H6+AlCl4-+NH2N2+-scan
 OpenBabel10161817473D

 22 20  0  0  0  0  0  0  0  0999 V2000
    2.8412    0.3035   -3.7320 N   0  0  0  0  0  0  0  0  0  0  0  0
    2.9013    0.7660   -4.7414 N   0  0  0  0  0  0  0  0  0  0  0  0
    2.7389   -0.1236   -2.5328 N   0  0  0  0  0  0  0  0  0  0  0  0
    2.5226   -1.1391   -2.4662 H   0  0  0  0  0  0  0  0  0  0  0  0
    3.5752    0.1319   -1.9162 H   0  0  0  0  0  0  0  0  0  0  0  0
    1.9051   -2.4926   -5.5485 C   0  0  0  0  0  0  0  0  0  0  0  0
    1.7877   -1.5999   -6.6142 C   0  0  0  0  0  0  0  0  0  0  0  0
    0.7594   -0.6549   -6.6242 C   0  0  0  0  0  0  0  0  0  0  0  0
   -0.1544   -0.6023   -5.5706 C   0  0  0  0  0  0  0  0  0  0  0  0
   -0.0392   -1.4958   -4.5051 C   0  0  0  0  0  0  0  0  0  0  0  0
    0.9902   -2.4415   -4.4946 C   0  0  0  0  0  0  0  0  0  0  0  0
    2.7044   -3.2245   -5.5356 H   0  0  0  0  0  0  0  0  0  0  0  0
    2.4937   -1.6421   -7.4359 H   0  0  0  0  0  0  0  0  0  0  0  0
    0.6656    0.0334   -7.4569 H   0  0  0  0  0  0  0  0  0  0  0  0
   -0.9589    0.1248   -5.5855 H   0  0  0  0  0  0  0  0  0  0  0  0
   -0.7576   -1.4682   -3.6928 H   0  0  0  0  0  0  0  0  0  0  0  0
    1.0726   -3.1489   -3.6766 H   0  0  0  0  0  0  0  0  0  0  0  0
    5.3933   -2.1573   -1.6087 Al  0  0  0  0  0  0  0  0  0  0  0  0
    6.8500   -3.2873   -0.5844 Cl  0  0  0  0  0  0  0  0  0  0  0  0
    5.1601   -0.1170   -0.7419 Cl  0  0  0  0  0  0  0  0  0  0  0  0
    5.7309   -1.8125   -3.7110 Cl  0  0  0  0  0  0  0  0  0  0  0  0
    3.3625   -2.9927   -1.4586 Cl  0  0  0  0  0  0  0  0  0  0  0  0
  1  3  1  0  0  0  0
  2  1  1  0  0  0  0
  3  4  1  0  0  0  0
  3  5  1  0  0  0  0
  6 12  1  0  0  0  0
  6 11  2  0  0  0  0
  7  6  1  0  0  0  0
  8  7  2  0  0  0  0
  8  9  1  0  0  0  0
  9 10  2  0  0  0  0
 10 11  1  0  0  0  0
 10 16  1  0  0  0  0
 11 17  1  0  0  0  0
 13  7  1  0  0  0  0
 14  8  1  0  0  0  0
 15  9  1  0  0  0  0
 18 22  1  0  0  0  0
 18 20  1  0  0  0  0
 18 19  1  0  0  0  0
 21 18  1  0  0  0  0
M  RAD  2   1   2   2   3
M  END
