Coordinates from ORCA-job C6H6+AlCl4-+NH2N2+-scan
 OpenBabel10161817473D

 22 20  0  0  0  0  0  0  0  0999 V2000
    4.2780   -2.1709   -4.0009 N   0  0  0  0  0  0  0  0  0  0  0  0
    5.0262   -2.8490   -4.4775 N   0  0  0  0  0  0  0  0  0  0  0  0
    3.2662   -1.4426   -3.6623 N   0  0  0  0  0  0  0  0  0  0  0  0
    2.8813   -1.7455   -2.7255 H   0  0  0  0  0  0  0  0  0  0  0  0
    3.5502   -0.4283   -3.5597 H   0  0  0  0  0  0  0  0  0  0  0  0
    1.4256   -1.1971   -6.9052 C   0  0  0  0  0  0  0  0  0  0  0  0
    1.5698   -0.4314   -5.7512 C   0  0  0  0  0  0  0  0  0  0  0  0
    1.2219   -0.9683   -4.5066 C   0  0  0  0  0  0  0  0  0  0  0  0
    0.6123   -2.2263   -4.4428 C   0  0  0  0  0  0  0  0  0  0  0  0
    0.4693   -2.9906   -5.5982 C   0  0  0  0  0  0  0  0  0  0  0  0
    0.8866   -2.4823   -6.8292 C   0  0  0  0  0  0  0  0  0  0  0  0
    1.7129   -0.7862   -7.8669 H   0  0  0  0  0  0  0  0  0  0  0  0
    1.9660    0.5770   -5.8131 H   0  0  0  0  0  0  0  0  0  0  0  0
    1.2323   -0.3335   -3.6271 H   0  0  0  0  0  0  0  0  0  0  0  0
    0.2651   -2.6107   -3.4893 H   0  0  0  0  0  0  0  0  0  0  0  0
    0.0137   -3.9732   -5.5441 H   0  0  0  0  0  0  0  0  0  0  0  0
    0.7692   -3.0756   -7.7292 H   0  0  0  0  0  0  0  0  0  0  0  0
    4.1310    0.0630   -0.6300 Al  0  0  0  0  0  0  0  0  0  0  0  0
    4.1211    1.2056    1.1408 Cl  0  0  0  0  0  0  0  0  0  0  0  0
    3.8014    1.3055   -2.4420 Cl  0  0  0  0  0  0  0  0  0  0  0  0
    5.8926   -1.0931   -1.0590 Cl  0  0  0  0  0  0  0  0  0  0  0  0
    2.4518   -1.3872   -0.7149 Cl  0  0  0  0  0  0  0  0  0  0  0  0
  1  3  1  0  0  0  0
  2  1  1  0  0  0  0
  3  5  1  0  0  0  0
  3  4  1  0  0  0  0
  6 11  2  0  0  0  0
  6  7  1  0  0  0  0
  7  8  2  0  0  0  0
  8  9  1  0  0  0  0
  8 14  1  0  0  0  0
  9 15  1  0  0  0  0
 10 16  1  0  0  0  0
 10  9  2  0  0  0  0
 11 10  1  0  0  0  0
 12  6  1  0  0  0  0
 13  7  1  0  0  0  0
 17 11  1  0  0  0  0
 18 19  1  0  0  0  0
 20 18  1  0  0  0  0
 21 18  1  0  0  0  0
 22 18  1  0  0  0  0
M  RAD  2   1   2   2   3
M  END
