Coordinates from ORCA-job C6H6+AlCl4-+NH2N2+-scan
 OpenBabel10161817473D

 22 20  0  0  0  0  0  0  0  0999 V2000
    2.8728    0.3176   -3.6558 N   0  0  0  0  0  0  0  0  0  0  0  0
    2.9134    0.7574   -4.6761 N   0  0  0  0  0  0  0  0  0  0  0  0
    2.7949   -0.0869   -2.4468 N   0  0  0  0  0  0  0  0  0  0  0  0
    2.5699   -1.1015   -2.3565 H   0  0  0  0  0  0  0  0  0  0  0  0
    3.6517    0.1611   -1.8564 H   0  0  0  0  0  0  0  0  0  0  0  0
    1.9219   -2.4399   -5.5759 C   0  0  0  0  0  0  0  0  0  0  0  0
    1.7555   -1.5873   -6.6677 C   0  0  0  0  0  0  0  0  0  0  0  0
    0.6841   -0.6922   -6.6997 C   0  0  0  0  0  0  0  0  0  0  0  0
   -0.2196   -0.6457   -5.6372 C   0  0  0  0  0  0  0  0  0  0  0  0
   -0.0550   -1.4985   -4.5449 C   0  0  0  0  0  0  0  0  0  0  0  0
    1.0148   -2.3973   -4.5149 C   0  0  0  0  0  0  0  0  0  0  0  0
    2.7532   -3.1352   -5.5489 H   0  0  0  0  0  0  0  0  0  0  0  0
    2.4561   -1.6244   -7.4943 H   0  0  0  0  0  0  0  0  0  0  0  0
    0.5517   -0.0361   -7.5530 H   0  0  0  0  0  0  0  0  0  0  0  0
   -1.0560    0.0441   -5.6660 H   0  0  0  0  0  0  0  0  0  0  0  0
   -0.7675   -1.4767   -3.7272 H   0  0  0  0  0  0  0  0  0  0  0  0
    1.1333   -3.0774   -3.6782 H   0  0  0  0  0  0  0  0  0  0  0  0
    5.4071   -2.1901   -1.5759 Al  0  0  0  0  0  0  0  0  0  0  0  0
    6.8374   -3.3656   -0.5666 Cl  0  0  0  0  0  0  0  0  0  0  0  0
    5.2609   -0.1370   -0.7219 Cl  0  0  0  0  0  0  0  0  0  0  0  0
    5.7154   -1.8754   -3.6865 Cl  0  0  0  0  0  0  0  0  0  0  0  0
    3.3487   -2.9536   -1.3832 Cl  0  0  0  0  0  0  0  0  0  0  0  0
  1  3  1  0  0  0  0
  2  1  1  0  0  0  0
  3  4  1  0  0  0  0
  3  5  1  0  0  0  0
  6 12  1  0  0  0  0
  6 11  2  0  0  0  0
  7  6  1  0  0  0  0
  8  7  2  0  0  0  0
  8  9  1  0  0  0  0
  9 10  2  0  0  0  0
 10 11  1  0  0  0  0
 10 16  1  0  0  0  0
 11 17  1  0  0  0  0
 13  7  1  0  0  0  0
 14  8  1  0  0  0  0
 15  9  1  0  0  0  0
 18 22  1  0  0  0  0
 18 20  1  0  0  0  0
 18 19  1  0  0  0  0
 21 18  1  0  0  0  0
M  RAD  2   1   2   2   3
M  END
