Coordinates from ORCA-job C6H6+AlCl4-+NH2N2+-scan
 OpenBabel10161817473D

 22 20  0  0  0  0  0  0  0  0999 V2000
    6.2767   -1.8333   -4.7733 N   0  0  0  0  0  0  0  0  0  0  0  0
    7.3631   -1.6980   -4.7603 N   0  0  0  0  0  0  0  0  0  0  0  0
    3.0705   -1.9549   -3.9731 N   0  0  0  0  0  0  0  0  0  0  0  0
    2.9622   -2.2603   -2.9744 H   0  0  0  0  0  0  0  0  0  0  0  0
    4.0659   -1.8913   -4.2183 H   0  0  0  0  0  0  0  0  0  0  0  0
    1.4373   -1.0300   -6.8323 C   0  0  0  0  0  0  0  0  0  0  0  0
    2.4783   -1.2489   -6.0065 C   0  0  0  0  0  0  0  0  0  0  0  0
    2.2794   -1.6965   -4.6135 C   0  0  0  0  0  0  0  0  0  0  0  0
    0.8244   -1.7323   -4.1284 C   0  0  0  0  0  0  0  0  0  0  0  0
   -0.2343   -1.5340   -5.1621 C   0  0  0  0  0  0  0  0  0  0  0  0
    0.0529   -1.1943   -6.4251 C   0  0  0  0  0  0  0  0  0  0  0  0
    1.6381   -0.7192   -7.8525 H   0  0  0  0  0  0  0  0  0  0  0  0
    3.5034   -1.1261   -6.3429 H   0  0  0  0  0  0  0  0  0  0  0  0
    0.7381   -0.9372   -3.3694 H   0  0  0  0  0  0  0  0  0  0  0  0
    0.6559   -2.6605   -3.5707 H   0  0  0  0  0  0  0  0  0  0  0  0
   -1.2606   -1.6457   -4.8301 H   0  0  0  0  0  0  0  0  0  0  0  0
   -0.7302   -1.0276   -7.1542 H   0  0  0  0  0  0  0  0  0  0  0  0
    3.3051   -0.5079   -0.5674 Al  0  0  0  0  0  0  0  0  0  0  0  0
    1.6594    0.6426   -1.3865 Cl  0  0  0  0  0  0  0  0  0  0  0  0
    5.0268   -0.2098   -1.8623 Cl  0  0  0  0  0  0  0  0  0  0  0  0
    3.6885   -0.1435    1.4848 Cl  0  0  0  0  0  0  0  0  0  0  0  0
    2.7437   -2.6319   -0.9151 Cl  0  0  0  0  0  0  0  0  0  0  0  0
  1  2  3  0  0  0  0
  3  4  1  0  0  0  0
  5  3  1  0  0  0  0
  6 11  1  0  0  0  0
  6  7  1  0  0  0  0
  7  8  2  0  0  0  0
  8  9  1  0  0  0  0
  8  3  1  0  0  0  0
  9 15  1  0  0  0  0
  9 14  1  0  0  0  0
 10 16  1  0  0  0  0
 10  9  1  0  0  0  0
 11 10  2  0  0  0  0
 12  6  1  0  0  0  0
 13  7  1  0  0  0  0
 17 11  1  0  0  0  0
 18 21  1  0  0  0  0
 19 18  1  0  0  0  0
 20 18  1  0  0  0  0
 22 18  1  0  0  0  0
M  RAD  1   6   2
M  END
