Coordinates from ORCA-job C6H6+AlCl4-+NH2N2+-scan
 OpenBabel10161817473D

 22 20  0  0  0  0  0  0  0  0999 V2000
    6.5970   -2.4201   -5.2876 N   0  0  0  0  0  0  0  0  0  0  0  0
    7.6781   -2.4731   -5.4526 N   0  0  0  0  0  0  0  0  0  0  0  0
    3.5289   -1.9969   -4.1105 N   0  0  0  0  0  0  0  0  0  0  0  0
    3.5260   -2.0461   -3.0796 H   0  0  0  0  0  0  0  0  0  0  0  0
    4.4084   -2.2195   -4.5641 H   0  0  0  0  0  0  0  0  0  0  0  0
    1.3803   -1.3198   -6.8987 C   0  0  0  0  0  0  0  0  0  0  0  0
    2.5167   -1.6260   -6.2140 C   0  0  0  0  0  0  0  0  0  0  0  0
    2.5034   -1.6611   -4.7811 C   0  0  0  0  0  0  0  0  0  0  0  0
    1.2537   -1.2562   -4.0632 C   0  0  0  0  0  0  0  0  0  0  0  0
    0.0616   -0.9976   -4.9097 C   0  0  0  0  0  0  0  0  0  0  0  0
    0.1281   -1.0139   -6.2541 C   0  0  0  0  0  0  0  0  0  0  0  0
    1.4146   -1.3130   -7.9834 H   0  0  0  0  0  0  0  0  0  0  0  0
    3.4347   -1.8678   -6.7380 H   0  0  0  0  0  0  0  0  0  0  0  0
    1.4977   -0.3258   -3.5121 H   0  0  0  0  0  0  0  0  0  0  0  0
    1.0174   -1.9541   -3.2502 H   0  0  0  0  0  0  0  0  0  0  0  0
   -0.8595   -0.7627   -4.3888 H   0  0  0  0  0  0  0  0  0  0  0  0
   -0.7400   -0.7990   -6.8643 H   0  0  0  0  0  0  0  0  0  0  0  0
    2.4256   -0.5599   -0.2945 Al  0  0  0  0  0  0  0  0  0  0  0  0
    0.3266   -1.0371   -0.5094 Cl  0  0  0  0  0  0  0  0  0  0  0  0
    2.9165    0.9293   -1.8183 Cl  0  0  0  0  0  0  0  0  0  0  0  0
    2.9880    0.0438    1.6620 Cl  0  0  0  0  0  0  0  0  0  0  0  0
    3.5411   -2.3639   -0.9213 Cl  0  0  0  0  0  0  0  0  0  0  0  0
  2  1  3  0  0  0  0
  3  4  1  0  0  0  0
  5  3  1  0  0  0  0
  6 11  1  0  0  0  0
  6  7  1  0  0  0  0
  7  8  2  0  0  0  0
  8  3  1  0  0  0  0
  8  9  1  0  0  0  0
  9 14  1  0  0  0  0
  9 15  1  0  0  0  0
 10 16  1  0  0  0  0
 10  9  1  0  0  0  0
 11 10  2  0  0  0  0
 12  6  1  0  0  0  0
 13  7  1  0  0  0  0
 17 11  1  0  0  0  0
 18 21  1  0  0  0  0
 19 18  1  0  0  0  0
 20 18  1  0  0  0  0
 22 18  1  0  0  0  0
M  RAD  1   6   2
M  END
