Coordinates from ORCA-job C6H6+AlCl4-+NH2N2+-scan
 OpenBabel10161817473D

 22 20  0  0  0  0  0  0  0  0999 V2000
    2.8497    0.3144   -3.8091 N   0  0  0  0  0  0  0  0  0  0  0  0
    2.9448    0.7938   -4.8077 N   0  0  0  0  0  0  0  0  0  0  0  0
    2.7084   -0.1351   -2.6232 N   0  0  0  0  0  0  0  0  0  0  0  0
    2.4803   -1.1467   -2.5828 H   0  0  0  0  0  0  0  0  0  0  0  0
    3.5259    0.1106   -1.9750 H   0  0  0  0  0  0  0  0  0  0  0  0
    1.8906   -2.5345   -5.5356 C   0  0  0  0  0  0  0  0  0  0  0  0
    1.8084   -1.6013   -6.5694 C   0  0  0  0  0  0  0  0  0  0  0  0
    0.8129   -0.6224   -6.5479 C   0  0  0  0  0  0  0  0  0  0  0  0
   -0.1086   -0.5801   -5.5008 C   0  0  0  0  0  0  0  0  0  0  0  0
   -0.0294   -1.5150   -4.4684 C   0  0  0  0  0  0  0  0  0  0  0  0
    0.9703   -2.4921   -4.4860 C   0  0  0  0  0  0  0  0  0  0  0  0
    2.6663   -3.2914   -5.5441 H   0  0  0  0  0  0  0  0  0  0  0  0
    2.5170   -1.6372   -7.3892 H   0  0  0  0  0  0  0  0  0  0  0  0
    0.7455    0.0970   -7.3567 H   0  0  0  0  0  0  0  0  0  0  0  0
   -0.8902    0.1717   -5.4949 H   0  0  0  0  0  0  0  0  0  0  0  0
   -0.7515   -1.4939   -3.6592 H   0  0  0  0  0  0  0  0  0  0  0  0
    1.0276   -3.2274   -3.6910 H   0  0  0  0  0  0  0  0  0  0  0  0
    5.3686   -2.1351   -1.6247 Al  0  0  0  0  0  0  0  0  0  0  0  0
    6.8331   -3.2284   -0.5713 Cl  0  0  0  0  0  0  0  0  0  0  0  0
    5.0733   -0.0991   -0.7623 Cl  0  0  0  0  0  0  0  0  0  0  0  0
    5.7453   -1.7774   -3.7189 Cl  0  0  0  0  0  0  0  0  0  0  0  0
    3.3562   -3.0109   -1.5154 Cl  0  0  0  0  0  0  0  0  0  0  0  0
  1  3  1  0  0  0  0
  2  1  1  0  0  0  0
  3  4  1  0  0  0  0
  3  5  1  0  0  0  0
  6 11  2  0  0  0  0
  7  8  2  0  0  0  0
  7  6  1  0  0  0  0
  8  9  1  0  0  0  0
  9 15  1  0  0  0  0
  9 10  2  0  0  0  0
 10 16  1  0  0  0  0
 11 10  1  0  0  0  0
 11 17  1  0  0  0  0
 12  6  1  0  0  0  0
 13  7  1  0  0  0  0
 14  8  1  0  0  0  0
 18 22  1  0  0  0  0
 18 20  1  0  0  0  0
 18 19  1  0  0  0  0
 21 18  1  0  0  0  0
M  RAD  2   1   2   2   3
M  END
