Coordinates from ORCA-job C6H6+AlCl4-+NH2N2+-scan
 OpenBabel10161817473D

 22 20  0  0  0  0  0  0  0  0999 V2000
    3.3311    0.5724   -3.2642 N   0  0  0  0  0  0  0  0  0  0  0  0
    3.2625    0.8495   -4.3387 N   0  0  0  0  0  0  0  0  0  0  0  0
    3.3511    0.3206   -2.0130 N   0  0  0  0  0  0  0  0  0  0  0  0
    2.9413   -0.6247   -1.7660 H   0  0  0  0  0  0  0  0  0  0  0  0
    4.3175    0.3965   -1.5761 H   0  0  0  0  0  0  0  0  0  0  0  0
    1.9749   -2.0556   -5.7652 C   0  0  0  0  0  0  0  0  0  0  0  0
    1.5374   -1.4582   -6.9484 C   0  0  0  0  0  0  0  0  0  0  0  0
    0.2291   -0.9846   -7.0504 C   0  0  0  0  0  0  0  0  0  0  0  0
   -0.6407   -1.1022   -5.9661 C   0  0  0  0  0  0  0  0  0  0  0  0
   -0.2051   -1.6990   -4.7828 C   0  0  0  0  0  0  0  0  0  0  0  0
    1.1018   -2.1783   -4.6823 C   0  0  0  0  0  0  0  0  0  0  0  0
    2.9864   -2.4397   -5.6881 H   0  0  0  0  0  0  0  0  0  0  0  0
    2.2129   -1.3718   -7.7925 H   0  0  0  0  0  0  0  0  0  0  0  0
   -0.1125   -0.5278   -7.9728 H   0  0  0  0  0  0  0  0  0  0  0  0
   -1.6591   -0.7377   -6.0463 H   0  0  0  0  0  0  0  0  0  0  0  0
   -0.8869   -1.8040   -3.9456 H   0  0  0  0  0  0  0  0  0  0  0  0
    1.4348   -2.6684   -3.7730 H   0  0  0  0  0  0  0  0  0  0  0  0
    5.3522   -2.4094   -1.3657 Al  0  0  0  0  0  0  0  0  0  0  0  0
    6.4298   -3.9694   -0.4491 Cl  0  0  0  0  0  0  0  0  0  0  0  0
    5.9081   -0.4074   -0.5830 Cl  0  0  0  0  0  0  0  0  0  0  0  0
    5.5050   -2.2237   -3.5071 Cl  0  0  0  0  0  0  0  0  0  0  0  0
    3.1731   -2.5176   -0.9572 Cl  0  0  0  0  0  0  0  0  0  0  0  0
  1  3  1  0  0  0  0
  2  1  1  0  0  0  0
  3  4  1  0  0  0  0
  3  5  1  0  0  0  0
  6 12  1  0  0  0  0
  6 11  2  0  0  0  0
  7  6  1  0  0  0  0
  8  7  2  0  0  0  0
  8  9  1  0  0  0  0
  9 10  2  0  0  0  0
 10 11  1  0  0  0  0
 10 16  1  0  0  0  0
 11 17  1  0  0  0  0
 13  7  1  0  0  0  0
 14  8  1  0  0  0  0
 15  9  1  0  0  0  0
 18 22  1  0  0  0  0
 18 20  1  0  0  0  0
 18 19  1  0  0  0  0
 21 18  1  0  0  0  0
M  RAD  2   1   2   2   3
M  END
