Coordinates from ORCA-job C6H6+AlCl4-+NH2N2+-scan
 OpenBabel10161817473D

 22 19  0  0  0  0  0  0  0  0999 V2000
    5.9507   -2.7861   -3.4600 N   0  0  0  0  0  0  0  0  0  0  0  0
    6.9397   -3.1081   -3.1174 N   0  0  0  0  0  0  0  0  0  0  0  0
    3.2051   -2.0287   -4.4952 N   0  0  0  0  0  0  0  0  0  0  0  0
    3.1268   -2.3727   -3.5238 H   0  0  0  0  0  0  0  0  0  0  0  0
    3.7697   -1.1761   -4.3480 H   0  0  0  0  0  0  0  0  0  0  0  0
    1.0171   -0.8084   -6.7681 C   0  0  0  0  0  0  0  0  0  0  0  0
    1.6251   -0.3252   -5.6333 C   0  0  0  0  0  0  0  0  0  0  0  0
    1.4702   -1.0169   -4.3801 C   0  0  0  0  0  0  0  0  0  0  0  0
    0.6261   -2.1821   -4.3282 C   0  0  0  0  0  0  0  0  0  0  0  0
    0.0261   -2.6510   -5.4734 C   0  0  0  0  0  0  0  0  0  0  0  0
    0.2233   -1.9638   -6.6821 C   0  0  0  0  0  0  0  0  0  0  0  0
    1.1445   -0.3093   -7.7205 H   0  0  0  0  0  0  0  0  0  0  0  0
    2.2458    0.5635   -5.6526 H   0  0  0  0  0  0  0  0  0  0  0  0
    1.6698   -0.4767   -3.4597 H   0  0  0  0  0  0  0  0  0  0  0  0
    0.5015   -2.6792   -3.3727 H   0  0  0  0  0  0  0  0  0  0  0  0
   -0.5928   -3.5391   -5.4508 H   0  0  0  0  0  0  0  0  0  0  0  0
   -0.2485   -2.3430   -7.5829 H   0  0  0  0  0  0  0  0  0  0  0  0
    3.8028    0.0640   -0.8835 Al  0  0  0  0  0  0  0  0  0  0  0  0
    2.7297    1.4457    0.3367 Cl  0  0  0  0  0  0  0  0  0  0  0  0
    3.9987    0.9016   -2.9222 Cl  0  0  0  0  0  0  0  0  0  0  0  0
    5.7341   -0.4879   -0.1636 Cl  0  0  0  0  0  0  0  0  0  0  0  0
    2.5793   -1.7610   -1.1520 Cl  0  0  0  0  0  0  0  0  0  0  0  0
  1  2  3  0  0  0  0
  3  5  1  0  0  0  0
  3  4  1  0  0  0  0
  6 11  2  0  0  0  0
  6  7  1  0  0  0  0
  7  8  2  0  0  0  0
  8  9  1  0  0  0  0
  8 14  1  0  0  0  0
  9 15  1  0  0  0  0
 10 16  1  0  0  0  0
 10  9  2  0  0  0  0
 11 10  1  0  0  0  0
 12  6  1  0  0  0  0
 13  7  1  0  0  0  0
 17 11  1  0  0  0  0
 18 21  1  0  0  0  0
 18 19  1  0  0  0  0
 20 18  1  0  0  0  0
 22 18  1  0  0  0  0
M  RAD  1   3   2
M  END
