Coordinates from ORCA-job C6H6+AlCl4-+NH2N2+-scan
 OpenBabel10161817473D

 22 20  0  0  0  0  0  0  0  0999 V2000
    3.7755    0.5470    0.1405 N   0  0  0  0  0  0  0  0  0  0  0  0
    3.2753    1.5403    0.1640 N   0  0  0  0  0  0  0  0  0  0  0  0
    4.3332   -0.5955    0.2049 N   0  0  0  0  0  0  0  0  0  0  0  0
    3.8139   -1.3614   -0.3271 H   0  0  0  0  0  0  0  0  0  0  0  0
    5.3475   -0.5979   -0.1148 H   0  0  0  0  0  0  0  0  0  0  0  0
    0.7673   -2.9617   -6.8522 C   0  0  0  0  0  0  0  0  0  0  0  0
    1.7348   -2.1189   -6.3066 C   0  0  0  0  0  0  0  0  0  0  0  0
    1.3718   -0.8628   -5.8209 C   0  0  0  0  0  0  0  0  0  0  0  0
    0.0410   -0.4507   -5.8833 C   0  0  0  0  0  0  0  0  0  0  0  0
   -0.9266   -1.2932   -6.4295 C   0  0  0  0  0  0  0  0  0  0  0  0
   -0.5633   -2.5494   -6.9136 C   0  0  0  0  0  0  0  0  0  0  0  0
    1.0505   -3.9387   -7.2291 H   0  0  0  0  0  0  0  0  0  0  0  0
    2.7704   -2.4380   -6.2604 H   0  0  0  0  0  0  0  0  0  0  0  0
    2.1259   -0.2102   -5.3951 H   0  0  0  0  0  0  0  0  0  0  0  0
   -0.2414    0.5274   -5.5081 H   0  0  0  0  0  0  0  0  0  0  0  0
   -1.9616   -0.9715   -6.4788 H   0  0  0  0  0  0  0  0  0  0  0  0
   -1.3156   -3.2053   -7.3388 H   0  0  0  0  0  0  0  0  0  0  0  0
    5.2591   -1.6452   -2.9029 Al  0  0  0  0  0  0  0  0  0  0  0  0
    5.9734   -2.7077   -4.5751 Cl  0  0  0  0  0  0  0  0  0  0  0  0
    6.8196   -1.2630   -1.3735 Cl  0  0  0  0  0  0  0  0  0  0  0  0
    4.3748    0.2877   -3.2642 Cl  0  0  0  0  0  0  0  0  0  0  0  0
    3.7192   -2.7718   -1.7691 Cl  0  0  0  0  0  0  0  0  0  0  0  0
  1  2  1  0  0  0  0
  1  3  1  0  0  0  0
  4  3  1  0  0  0  0
  5  3  1  0  0  0  0
  6  7  1  0  0  0  0
  7 13  1  0  0  0  0
  7  8  2  0  0  0  0
  8 14  1  0  0  0  0
  9  8  1  0  0  0  0
  9 15  1  0  0  0  0
 10  9  2  0  0  0  0
 11  6  2  0  0  0  0
 11 10  1  0  0  0  0
 12  6  1  0  0  0  0
 16 10  1  0  0  0  0
 17 11  1  0  0  0  0
 18 22  1  0  0  0  0
 18 20  1  0  0  0  0
 19 18  1  0  0  0  0
 21 18  1  0  0  0  0
M  RAD  2   1   2   2   3
M  END
