Coordinates from ORCA-job C6H6+AlCl4-+NH2N2+-scan
 OpenBabel10161817473D

 22 20  0  0  0  0  0  0  0  0999 V2000
    3.9960   -0.9065   -4.5641 N   0  0  0  0  0  0  0  0  0  0  0  0
    4.2403   -1.6796   -5.3248 N   0  0  0  0  0  0  0  0  0  0  0  0
    3.7842    0.0554   -3.7518 N   0  0  0  0  0  0  0  0  0  0  0  0
    2.8614    0.0043   -3.2722 H   0  0  0  0  0  0  0  0  0  0  0  0
    4.5758    0.2084   -3.0489 H   0  0  0  0  0  0  0  0  0  0  0  0
    1.3579   -1.8051   -6.9964 C   0  0  0  0  0  0  0  0  0  0  0  0
    0.9351   -0.6613   -6.3198 C   0  0  0  0  0  0  0  0  0  0  0  0
    0.6427   -0.7274   -4.9554 C   0  0  0  0  0  0  0  0  0  0  0  0
    0.7728   -1.9373   -4.2683 C   0  0  0  0  0  0  0  0  0  0  0  0
    1.1966   -3.0806   -4.9472 C   0  0  0  0  0  0  0  0  0  0  0  0
    1.4886   -3.0143   -6.3098 C   0  0  0  0  0  0  0  0  0  0  0  0
    1.5769   -1.7581   -8.0575 H   0  0  0  0  0  0  0  0  0  0  0  0
    0.8195    0.2751   -6.8547 H   0  0  0  0  0  0  0  0  0  0  0  0
    0.2894    0.1552   -4.4320 H   0  0  0  0  0  0  0  0  0  0  0  0
    0.5396   -1.9883   -3.2110 H   0  0  0  0  0  0  0  0  0  0  0  0
    1.2967   -4.0188   -4.4135 H   0  0  0  0  0  0  0  0  0  0  0  0
    1.8122   -3.9042   -6.8383 H   0  0  0  0  0  0  0  0  0  0  0  0
    3.8627   -0.9051   -0.4196 Al  0  0  0  0  0  0  0  0  0  0  0  0
    3.9640   -0.9838    1.6855 Cl  0  0  0  0  0  0  0  0  0  0  0  0
    5.4816    0.3593   -1.2842 Cl  0  0  0  0  0  0  0  0  0  0  0  0
    4.0222   -2.7791   -1.4736 Cl  0  0  0  0  0  0  0  0  0  0  0  0
    2.0283    0.0512   -1.1760 Cl  0  0  0  0  0  0  0  0  0  0  0  0
  1  3  1  0  0  0  0
  2  1  1  0  0  0  0
  3  4  1  0  0  0  0
  3  5  1  0  0  0  0
  6  7  2  0  0  0  0
  6 11  1  0  0  0  0
  7  8  1  0  0  0  0
  8 14  1  0  0  0  0
  8  9  2  0  0  0  0
  9 15  1  0  0  0  0
 10 16  1  0  0  0  0
 10  9  1  0  0  0  0
 11 10  2  0  0  0  0
 12  6  1  0  0  0  0
 13  7  1  0  0  0  0
 17 11  1  0  0  0  0
 18 19  1  0  0  0  0
 20 18  1  0  0  0  0
 21 18  1  0  0  0  0
 22 18  1  0  0  0  0
M  RAD  2   1   2   2   3
M  END
