Coordinates from ORCA-job C6H6+AlCl4-+NH2N2+-scan
 OpenBabel10161817473D

 22 20  0  0  0  0  0  0  0  0999 V2000
    3.2641    0.4964   -3.4035 N   0  0  0  0  0  0  0  0  0  0  0  0
    3.2480    0.7797   -4.4783 N   0  0  0  0  0  0  0  0  0  0  0  0
    3.2285    0.2391   -2.1539 N   0  0  0  0  0  0  0  0  0  0  0  0
    2.8480   -0.7206   -1.9299 H   0  0  0  0  0  0  0  0  0  0  0  0
    4.1658    0.3617   -1.6644 H   0  0  0  0  0  0  0  0  0  0  0  0
    1.9858   -2.1263   -5.7419 C   0  0  0  0  0  0  0  0  0  0  0  0
    1.5752   -1.4490   -6.8911 C   0  0  0  0  0  0  0  0  0  0  0  0
    0.2976   -0.8917   -6.9554 C   0  0  0  0  0  0  0  0  0  0  0  0
   -0.5676   -1.0053   -5.8673 C   0  0  0  0  0  0  0  0  0  0  0  0
   -0.1588   -1.6820   -4.7177 C   0  0  0  0  0  0  0  0  0  0  0  0
    1.1168   -2.2453   -4.6551 C   0  0  0  0  0  0  0  0  0  0  0  0
    2.9734   -2.5723   -5.6939 H   0  0  0  0  0  0  0  0  0  0  0  0
    2.2467   -1.3655   -7.7387 H   0  0  0  0  0  0  0  0  0  0  0  0
   -0.0237   -0.3731   -7.8521 H   0  0  0  0  0  0  0  0  0  0  0  0
   -1.5623   -0.5759   -5.9186 H   0  0  0  0  0  0  0  0  0  0  0  0
   -0.8382   -1.7842   -3.8782 H   0  0  0  0  0  0  0  0  0  0  0  0
    1.4277   -2.7955   -3.7730 H   0  0  0  0  0  0  0  0  0  0  0  0
    5.3450   -2.3664   -1.3729 Al  0  0  0  0  0  0  0  0  0  0  0  0
    6.4820   -3.8443   -0.3932 Cl  0  0  0  0  0  0  0  0  0  0  0  0
    5.7527   -0.3238   -0.6001 Cl  0  0  0  0  0  0  0  0  0  0  0  0
    5.5727   -2.1996   -3.5096 Cl  0  0  0  0  0  0  0  0  0  0  0  0
    3.1650   -2.5965   -1.0449 Cl  0  0  0  0  0  0  0  0  0  0  0  0
  1  3  1  0  0  0  0
  2  1  1  0  0  0  0
  3  4  1  0  0  0  0
  3  5  1  0  0  0  0
  6 12  1  0  0  0  0
  6 11  2  0  0  0  0
  7  6  1  0  0  0  0
  8  7  2  0  0  0  0
  8  9  1  0  0  0  0
  9 10  2  0  0  0  0
 10 11  1  0  0  0  0
 10 16  1  0  0  0  0
 11 17  1  0  0  0  0
 13  7  1  0  0  0  0
 14  8  1  0  0  0  0
 15  9  1  0  0  0  0
 18 22  1  0  0  0  0
 18 20  1  0  0  0  0
 18 19  1  0  0  0  0
 21 18  1  0  0  0  0
M  RAD  2   1   2   2   3
M  END
