Coordinates from ORCA-job C6H6+AlCl4-+NH2N2+-scan
 OpenBabel10161817473D

 22 20  0  0  0  0  0  0  0  0999 V2000
    3.9619   -1.0467   -4.5439 N   0  0  0  0  0  0  0  0  0  0  0  0
    4.2456   -1.8686   -5.2362 N   0  0  0  0  0  0  0  0  0  0  0  0
    3.7089   -0.0324   -3.8115 N   0  0  0  0  0  0  0  0  0  0  0  0
    2.7820   -0.0780   -3.3470 H   0  0  0  0  0  0  0  0  0  0  0  0
    4.4889    0.1954   -3.1144 H   0  0  0  0  0  0  0  0  0  0  0  0
    1.3709   -1.7145   -6.9843 C   0  0  0  0  0  0  0  0  0  0  0  0
    1.0560   -0.6118   -6.1911 C   0  0  0  0  0  0  0  0  0  0  0  0
    0.7884   -0.7862   -4.8304 C   0  0  0  0  0  0  0  0  0  0  0  0
    0.8293   -2.0633   -4.2649 C   0  0  0  0  0  0  0  0  0  0  0  0
    1.1463   -3.1650   -5.0609 C   0  0  0  0  0  0  0  0  0  0  0  0
    1.4166   -2.9905   -6.4185 C   0  0  0  0  0  0  0  0  0  0  0  0
    1.5713   -1.5829   -8.0419 H   0  0  0  0  0  0  0  0  0  0  0  0
    1.0044    0.3781   -6.6314 H   0  0  0  0  0  0  0  0  0  0  0  0
    0.5088    0.0656   -4.2184 H   0  0  0  0  0  0  0  0  0  0  0  0
    0.6122   -2.1963   -3.2112 H   0  0  0  0  0  0  0  0  0  0  0  0
    1.1777   -4.1561   -4.6229 H   0  0  0  0  0  0  0  0  0  0  0  0
    1.6565   -3.8481   -7.0372 H   0  0  0  0  0  0  0  0  0  0  0  0
    3.8349   -0.7535   -0.4162 Al  0  0  0  0  0  0  0  0  0  0  0  0
    3.9769   -0.7072    1.6879 Cl  0  0  0  0  0  0  0  0  0  0  0  0
    5.4084    0.4963   -1.3820 Cl  0  0  0  0  0  0  0  0  0  0  0  0
    4.0306   -2.6834   -1.3606 Cl  0  0  0  0  0  0  0  0  0  0  0  0
    1.9682    0.1086   -1.1965 Cl  0  0  0  0  0  0  0  0  0  0  0  0
  1  3  1  0  0  0  0
  2  1  1  0  0  0  0
  3  4  1  0  0  0  0
  3  5  1  0  0  0  0
  6 11  2  0  0  0  0
  6  7  1  0  0  0  0
  7  8  2  0  0  0  0
  8  9  1  0  0  0  0
  8 14  1  0  0  0  0
  9 15  1  0  0  0  0
 10 16  1  0  0  0  0
 10  9  2  0  0  0  0
 11 10  1  0  0  0  0
 12  6  1  0  0  0  0
 13  7  1  0  0  0  0
 17 11  1  0  0  0  0
 18 19  1  0  0  0  0
 20 18  1  0  0  0  0
 21 18  1  0  0  0  0
 22 18  1  0  0  0  0
M  RAD  2   1   2   2   3
M  END
