Coordinates from ORCA-job C6H6+AlCl4-+NH2N2+-scan
 OpenBabel10161817473D

 22 20  0  0  0  0  0  0  0  0999 V2000
    3.7992    0.5541    0.1598 N   0  0  0  0  0  0  0  0  0  0  0  0
    3.2968    1.5462    0.1872 N   0  0  0  0  0  0  0  0  0  0  0  0
    4.3612   -0.5865    0.2202 N   0  0  0  0  0  0  0  0  0  0  0  0
    3.8355   -1.3561   -0.2993 H   0  0  0  0  0  0  0  0  0  0  0  0
    5.3703   -0.5874   -0.1159 H   0  0  0  0  0  0  0  0  0  0  0  0
    0.7685   -2.9611   -6.8660 C   0  0  0  0  0  0  0  0  0  0  0  0
    1.7321   -2.1201   -6.3104 C   0  0  0  0  0  0  0  0  0  0  0  0
    1.3650   -0.8665   -5.8214 C   0  0  0  0  0  0  0  0  0  0  0  0
    0.0341   -0.4553   -5.8904 C   0  0  0  0  0  0  0  0  0  0  0  0
   -0.9293   -1.2960   -6.4465 C   0  0  0  0  0  0  0  0  0  0  0  0
   -0.5620   -2.5497   -6.9340 C   0  0  0  0  0  0  0  0  0  0  0  0
    1.0550   -3.9362   -7.2454 H   0  0  0  0  0  0  0  0  0  0  0  0
    2.7674   -2.4394   -6.2591 H   0  0  0  0  0  0  0  0  0  0  0  0
    2.1151   -0.2146   -5.3879 H   0  0  0  0  0  0  0  0  0  0  0  0
   -0.2514    0.5209   -5.5125 H   0  0  0  0  0  0  0  0  0  0  0  0
   -1.9643   -0.9749   -6.5009 H   0  0  0  0  0  0  0  0  0  0  0  0
   -1.3110   -3.2042   -7.3670 H   0  0  0  0  0  0  0  0  0  0  0  0
    5.2407   -1.6485   -2.8953 Al  0  0  0  0  0  0  0  0  0  0  0  0
    5.9299   -2.7190   -4.5727 Cl  0  0  0  0  0  0  0  0  0  0  0  0
    6.8251   -1.2526   -1.3945 Cl  0  0  0  0  0  0  0  0  0  0  0  0
    4.3454    0.2808   -3.2478 Cl  0  0  0  0  0  0  0  0  0  0  0  0
    3.7212   -2.7745   -1.7339 Cl  0  0  0  0  0  0  0  0  0  0  0  0
  1  2  1  0  0  0  0
  1  3  1  0  0  0  0
  4  3  1  0  0  0  0
  5  3  1  0  0  0  0
  6  7  1  0  0  0  0
  7 13  1  0  0  0  0
  7  8  2  0  0  0  0
  8 14  1  0  0  0  0
  9  8  1  0  0  0  0
  9 15  1  0  0  0  0
 10  9  2  0  0  0  0
 11  6  2  0  0  0  0
 11 10  1  0  0  0  0
 12  6  1  0  0  0  0
 16 10  1  0  0  0  0
 17 11  1  0  0  0  0
 18 22  1  0  0  0  0
 18 20  1  0  0  0  0
 19 18  1  0  0  0  0
 21 18  1  0  0  0  0
M  RAD  2   1   2   2   3
M  END
