Coordinates from ORCA-job C6H6+AlCl4-+NH2N2+-scan
 OpenBabel10161817473D

 22 20  0  0  0  0  0  0  0  0999 V2000
    6.2510   -1.9942   -4.7499 N   0  0  0  0  0  0  0  0  0  0  0  0
    7.3454   -2.0202   -4.7288 N   0  0  0  0  0  0  0  0  0  0  0  0
    3.0424   -1.8368   -3.9700 N   0  0  0  0  0  0  0  0  0  0  0  0
    2.9514   -2.1884   -2.9796 H   0  0  0  0  0  0  0  0  0  0  0  0
    4.0424   -1.7122   -4.1855 H   0  0  0  0  0  0  0  0  0  0  0  0
    1.4268   -0.9669   -6.8208 C   0  0  0  0  0  0  0  0  0  0  0  0
    2.4613   -1.0999   -5.9720 C   0  0  0  0  0  0  0  0  0  0  0  0
    2.2771   -1.6105   -4.5891 C   0  0  0  0  0  0  0  0  0  0  0  0
    0.8100   -1.7353   -4.1357 C   0  0  0  0  0  0  0  0  0  0  0  0
   -0.2336   -1.6478   -5.2007 C   0  0  0  0  0  0  0  0  0  0  0  0
    0.0544   -1.2763   -6.4539 C   0  0  0  0  0  0  0  0  0  0  0  0
    1.6214   -0.6164   -7.8293 H   0  0  0  0  0  0  0  0  0  0  0  0
    3.4795   -0.8737   -6.2754 H   0  0  0  0  0  0  0  0  0  0  0  0
    0.6557   -0.9161   -3.4147 H   0  0  0  0  0  0  0  0  0  0  0  0
    0.6959   -2.6503   -3.5443 H   0  0  0  0  0  0  0  0  0  0  0  0
   -1.2529   -1.8626   -4.8990 H   0  0  0  0  0  0  0  0  0  0  0  0
   -0.7203   -1.1870   -7.2054 H   0  0  0  0  0  0  0  0  0  0  0  0
    3.3473   -0.5058   -0.5701 Al  0  0  0  0  0  0  0  0  0  0  0  0
    1.6958    0.6445   -1.3729 Cl  0  0  0  0  0  0  0  0  0  0  0  0
    5.0595   -0.1920   -1.8773 Cl  0  0  0  0  0  0  0  0  0  0  0  0
    3.7462   -0.1646    1.4820 Cl  0  0  0  0  0  0  0  0  0  0  0  0
    2.7879   -2.6280   -0.9415 Cl  0  0  0  0  0  0  0  0  0  0  0  0
  1  2  3  0  0  0  0
  3  4  1  0  0  0  0
  5  3  1  0  0  0  0
  6 11  1  0  0  0  0
  6  7  1  0  0  0  0
  7  8  2  0  0  0  0
  8  9  1  0  0  0  0
  8  3  1  0  0  0  0
  9 15  1  0  0  0  0
  9 14  1  0  0  0  0
 10 16  1  0  0  0  0
 10  9  1  0  0  0  0
 11 10  2  0  0  0  0
 12  6  1  0  0  0  0
 13  7  1  0  0  0  0
 17 11  1  0  0  0  0
 18 21  1  0  0  0  0
 19 18  1  0  0  0  0
 20 18  1  0  0  0  0
 22 18  1  0  0  0  0
M  RAD  1   6   2
M  END
