Coordinates from ORCA-job C6H6+AlCl4-+NH2N2+-scan
 OpenBabel10161817473D

 22 19  0  0  0  0  0  0  0  0999 V2000
    6.5156   -1.9000   -4.4808 N   0  0  0  0  0  0  0  0  0  0  0  0
    7.4261   -1.4557   -4.0648 N   0  0  0  0  0  0  0  0  0  0  0  0
    3.2875   -3.1991   -4.4972 N   0  0  0  0  0  0  0  0  0  0  0  0
    3.2660   -3.3178   -3.4917 H   0  0  0  0  0  0  0  0  0  0  0  0
    4.2193   -2.9497   -4.8038 H   0  0  0  0  0  0  0  0  0  0  0  0
    1.3992   -0.7978   -6.7105 C   0  0  0  0  0  0  0  0  0  0  0  0
    2.4101   -1.6149   -6.2200 C   0  0  0  0  0  0  0  0  0  0  0  0
    2.2593   -2.2492   -4.9802 C   0  0  0  0  0  0  0  0  0  0  0  0
    1.0887   -2.0236   -4.2312 C   0  0  0  0  0  0  0  0  0  0  0  0
    0.0617   -1.2227   -4.7598 C   0  0  0  0  0  0  0  0  0  0  0  0
    0.2168   -0.5967   -5.9899 C   0  0  0  0  0  0  0  0  0  0  0  0
    1.5313   -0.3135   -7.6719 H   0  0  0  0  0  0  0  0  0  0  0  0
    3.3111   -1.7795   -6.8003 H   0  0  0  0  0  0  0  0  0  0  0  0
    1.7977   -0.4457   -3.4560 H   0  0  0  0  0  0  0  0  0  0  0  0
    0.9335   -2.5576   -3.2990 H   0  0  0  0  0  0  0  0  0  0  0  0
   -0.8461   -1.0843   -4.1832 H   0  0  0  0  0  0  0  0  0  0  0  0
   -0.5684    0.0335   -6.3889 H   0  0  0  0  0  0  0  0  0  0  0  0
    2.6774   -0.4023   -0.6085 Al  0  0  0  0  0  0  0  0  0  0  0  0
    0.7098   -1.0467   -0.1703 Cl  0  0  0  0  0  0  0  0  0  0  0  0
    2.3673    0.6106   -2.8049 Cl  0  0  0  0  0  0  0  0  0  0  0  0
    3.4497    1.2496    0.4438 Cl  0  0  0  0  0  0  0  0  0  0  0  0
    4.0309   -1.9776   -1.0644 Cl  0  0  0  0  0  0  0  0  0  0  0  0
  1  2  3  0  0  0  0
  3  4  1  0  0  0  0
  5  3  1  0  0  0  0
  6  7  2  0  0  0  0
  6 11  1  0  0  0  0
  7  8  1  0  0  0  0
  8  3  1  0  0  0  0
  8  9  2  0  0  0  0
  9 15  1  0  0  0  0
 10  9  1  0  0  0  0
 10 16  1  0  0  0  0
 11 10  2  0  0  0  0
 12  6  1  0  0  0  0
 13  7  1  0  0  0  0
 14 20  1  0  0  0  0
 17 11  1  0  0  0  0
 18 19  1  0  0  0  0
 18 21  1  0  0  0  0
 22 18  1  0  0  0  0
M  END
