Coordinates from ORCA-job C6H6+AlCl4-+NH2N2+-scan
 OpenBabel10161817473D

 22 20  0  0  0  0  0  0  0  0999 V2000
    2.8843    0.3225   -3.6376 N   0  0  0  0  0  0  0  0  0  0  0  0
    2.9244    0.7584   -4.6593 N   0  0  0  0  0  0  0  0  0  0  0  0
    2.8057   -0.0799   -2.4279 N   0  0  0  0  0  0  0  0  0  0  0  0
    2.5778   -1.0942   -2.3394 H   0  0  0  0  0  0  0  0  0  0  0  0
    3.6652    0.1651   -1.8399 H   0  0  0  0  0  0  0  0  0  0  0  0
    1.9180   -2.4368   -5.5825 C   0  0  0  0  0  0  0  0  0  0  0  0
    1.7484   -1.5886   -6.6771 C   0  0  0  0  0  0  0  0  0  0  0  0
    0.6732   -0.6986   -6.7131 C   0  0  0  0  0  0  0  0  0  0  0  0
   -0.2294   -0.6506   -5.6501 C   0  0  0  0  0  0  0  0  0  0  0  0
   -0.0615   -1.4984   -4.5546 C   0  0  0  0  0  0  0  0  0  0  0  0
    1.0106   -2.3943   -4.5217 C   0  0  0  0  0  0  0  0  0  0  0  0
    2.7504   -3.1307   -5.5548 H   0  0  0  0  0  0  0  0  0  0  0  0
    2.4490   -1.6266   -7.5038 H   0  0  0  0  0  0  0  0  0  0  0  0
    0.5379   -0.0468   -7.5692 H   0  0  0  0  0  0  0  0  0  0  0  0
   -1.0685    0.0358   -5.6811 H   0  0  0  0  0  0  0  0  0  0  0  0
   -0.7749   -1.4766   -3.7376 H   0  0  0  0  0  0  0  0  0  0  0  0
    1.1291   -3.0738   -3.6845 H   0  0  0  0  0  0  0  0  0  0  0  0
    5.4139   -2.1915   -1.5693 Al  0  0  0  0  0  0  0  0  0  0  0  0
    6.8458   -3.3720   -0.5683 Cl  0  0  0  0  0  0  0  0  0  0  0  0
    5.2771   -0.1393   -0.7120 Cl  0  0  0  0  0  0  0  0  0  0  0  0
    5.7134   -1.8742   -3.6810 Cl  0  0  0  0  0  0  0  0  0  0  0  0
    3.3546   -2.9496   -1.3688 Cl  0  0  0  0  0  0  0  0  0  0  0  0
  1  3  1  0  0  0  0
  2  1  1  0  0  0  0
  3  4  1  0  0  0  0
  3  5  1  0  0  0  0
  6 12  1  0  0  0  0
  6 11  2  0  0  0  0
  7  6  1  0  0  0  0
  8  7  2  0  0  0  0
  8  9  1  0  0  0  0
  9 10  2  0  0  0  0
 10 11  1  0  0  0  0
 10 16  1  0  0  0  0
 11 17  1  0  0  0  0
 13  7  1  0  0  0  0
 14  8  1  0  0  0  0
 15  9  1  0  0  0  0
 18 22  1  0  0  0  0
 18 20  1  0  0  0  0
 18 19  1  0  0  0  0
 21 18  1  0  0  0  0
M  RAD  2   1   2   2   3
M  END
