Coordinates from ORCA-job C6H6+AlCl4-+NH2N2+-scan
 OpenBabel10161817473D

 22 20  0  0  0  0  0  0  0  0999 V2000
    3.9444   -1.0594   -4.5452 N   0  0  0  0  0  0  0  0  0  0  0  0
    4.2372   -1.8822   -5.2324 N   0  0  0  0  0  0  0  0  0  0  0  0
    3.6823   -0.0427   -3.8194 N   0  0  0  0  0  0  0  0  0  0  0  0
    2.7568   -0.0910   -3.3550 H   0  0  0  0  0  0  0  0  0  0  0  0
    4.4618    0.1967   -3.1257 H   0  0  0  0  0  0  0  0  0  0  0  0
    1.3789   -1.7074   -6.9807 C   0  0  0  0  0  0  0  0  0  0  0  0
    1.0817   -0.6073   -6.1771 C   0  0  0  0  0  0  0  0  0  0  0  0
    0.8181   -0.7897   -4.8166 C   0  0  0  0  0  0  0  0  0  0  0  0
    0.8419   -2.0721   -4.2624 C   0  0  0  0  0  0  0  0  0  0  0  0
    1.1421   -3.1710   -5.0686 C   0  0  0  0  0  0  0  0  0  0  0  0
    1.4101   -2.9885   -6.4257 C   0  0  0  0  0  0  0  0  0  0  0  0
    1.5768   -1.5696   -8.0379 H   0  0  0  0  0  0  0  0  0  0  0  0
    1.0411    0.3868   -6.6089 H   0  0  0  0  0  0  0  0  0  0  0  0
    0.5480    0.0600   -4.1975 H   0  0  0  0  0  0  0  0  0  0  0  0
    0.6256   -2.2112   -3.2094 H   0  0  0  0  0  0  0  0  0  0  0  0
    1.1615   -4.1661   -4.6392 H   0  0  0  0  0  0  0  0  0  0  0  0
    1.6367   -3.8440   -7.0524 H   0  0  0  0  0  0  0  0  0  0  0  0
    3.8316   -0.7412   -0.4185 Al  0  0  0  0  0  0  0  0  0  0  0  0
    3.9908   -0.6872    1.6843 Cl  0  0  0  0  0  0  0  0  0  0  0  0
    5.3913    0.5128   -1.4012 Cl  0  0  0  0  0  0  0  0  0  0  0  0
    4.0308   -2.6740   -1.3570 Cl  0  0  0  0  0  0  0  0  0  0  0  0
    1.9549    0.1077   -1.1872 Cl  0  0  0  0  0  0  0  0  0  0  0  0
  1  3  1  0  0  0  0
  2  1  1  0  0  0  0
  3  4  1  0  0  0  0
  3  5  1  0  0  0  0
  6 11  2  0  0  0  0
  6  7  1  0  0  0  0
  7  8  2  0  0  0  0
  8  9  1  0  0  0  0
  8 14  1  0  0  0  0
  9 15  1  0  0  0  0
 10 16  1  0  0  0  0
 10  9  2  0  0  0  0
 11 10  1  0  0  0  0
 12  6  1  0  0  0  0
 13  7  1  0  0  0  0
 17 11  1  0  0  0  0
 18 19  1  0  0  0  0
 20 18  1  0  0  0  0
 21 18  1  0  0  0  0
 22 18  1  0  0  0  0
M  RAD  2   1   2   2   3
M  END
