Coordinates from ORCA-job C6H6+AlCl4-+NH2N2+-scan
 OpenBabel10161817473D

 22 20  0  0  0  0  0  0  0  0999 V2000
    3.0016    0.3725   -3.5497 N   0  0  0  0  0  0  0  0  0  0  0  0
    3.0234    0.7620   -4.5905 N   0  0  0  0  0  0  0  0  0  0  0  0
    2.9367    0.0099   -2.3274 N   0  0  0  0  0  0  0  0  0  0  0  0
    2.6722   -0.9963   -2.1986 H   0  0  0  0  0  0  0  0  0  0  0  0
    3.8200    0.2271   -1.7668 H   0  0  0  0  0  0  0  0  0  0  0  0
    1.9465   -2.3311   -5.6326 C   0  0  0  0  0  0  0  0  0  0  0  0
    1.6871   -1.5459   -6.7567 C   0  0  0  0  0  0  0  0  0  0  0  0
    0.5328   -0.7624   -6.8124 C   0  0  0  0  0  0  0  0  0  0  0  0
   -0.3581   -0.7568   -5.7388 C   0  0  0  0  0  0  0  0  0  0  0  0
   -0.1006   -1.5418   -4.6140 C   0  0  0  0  0  0  0  0  0  0  0  0
    1.0502   -2.3319   -4.5615 C   0  0  0  0  0  0  0  0  0  0  0  0
    2.8398   -2.9441   -5.5902 H   0  0  0  0  0  0  0  0  0  0  0  0
    2.3792   -1.5520   -7.5915 H   0  0  0  0  0  0  0  0  0  0  0  0
    0.3279   -0.1602   -7.6907 H   0  0  0  0  0  0  0  0  0  0  0  0
   -1.2573   -0.1520   -5.7834 H   0  0  0  0  0  0  0  0  0  0  0  0
   -0.8038   -1.5526   -3.7879 H   0  0  0  0  0  0  0  0  0  0  0  0
    1.2399   -2.9647   -3.7009 H   0  0  0  0  0  0  0  0  0  0  0  0
    5.4121   -2.2544   -1.4976 Al  0  0  0  0  0  0  0  0  0  0  0  0
    6.7579   -3.5312   -0.4972 Cl  0  0  0  0  0  0  0  0  0  0  0  0
    5.4370   -0.1895   -0.6647 Cl  0  0  0  0  0  0  0  0  0  0  0  0
    5.7002   -1.9887   -3.6169 Cl  0  0  0  0  0  0  0  0  0  0  0  0
    3.2999   -2.8565   -1.2639 Cl  0  0  0  0  0  0  0  0  0  0  0  0
  1  3  1  0  0  0  0
  2  1  1  0  0  0  0
  3  4  1  0  0  0  0
  3  5  1  0  0  0  0
  6 12  1  0  0  0  0
  6 11  2  0  0  0  0
  7  6  1  0  0  0  0
  8  7  2  0  0  0  0
  8  9  1  0  0  0  0
  9 10  2  0  0  0  0
 10 11  1  0  0  0  0
 10 16  1  0  0  0  0
 11 17  1  0  0  0  0
 13  7  1  0  0  0  0
 14  8  1  0  0  0  0
 15  9  1  0  0  0  0
 18 22  1  0  0  0  0
 18 20  1  0  0  0  0
 18 19  1  0  0  0  0
 21 18  1  0  0  0  0
M  RAD  2   1   2   2   3
M  END
