Coordinates from ORCA-job C6H6+AlCl4-+NH2N2+-scan
 OpenBabel10161817473D

 22 20  0  0  0  0  0  0  0  0999 V2000
    2.9383    0.3520   -3.8628 N   0  0  0  0  0  0  0  0  0  0  0  0
    3.0831    0.8417   -4.8499 N   0  0  0  0  0  0  0  0  0  0  0  0
    2.7332   -0.1177   -2.6956 N   0  0  0  0  0  0  0  0  0  0  0  0
    2.4518   -1.1134   -2.6972 H   0  0  0  0  0  0  0  0  0  0  0  0
    3.5297    0.0891   -2.0013 H   0  0  0  0  0  0  0  0  0  0  0  0
    1.8810   -2.5435   -5.5593 C   0  0  0  0  0  0  0  0  0  0  0  0
    1.7841   -1.5884   -6.5721 C   0  0  0  0  0  0  0  0  0  0  0  0
    0.7887   -0.6111   -6.5165 C   0  0  0  0  0  0  0  0  0  0  0  0
   -0.1151   -0.5900   -5.4535 C   0  0  0  0  0  0  0  0  0  0  0  0
   -0.0233   -1.5487   -4.4436 C   0  0  0  0  0  0  0  0  0  0  0  0
    0.9745   -2.5261   -4.4968 C   0  0  0  0  0  0  0  0  0  0  0  0
    2.6557   -3.3006   -5.5959 H   0  0  0  0  0  0  0  0  0  0  0  0
    2.4805   -1.6078   -7.4029 H   0  0  0  0  0  0  0  0  0  0  0  0
    0.7095    0.1256   -7.3086 H   0  0  0  0  0  0  0  0  0  0  0  0
   -0.8953    0.1626   -5.4189 H   0  0  0  0  0  0  0  0  0  0  0  0
   -0.7345   -1.5451   -3.6246 H   0  0  0  0  0  0  0  0  0  0  0  0
    1.0413   -3.2798   -3.7202 H   0  0  0  0  0  0  0  0  0  0  0  0
    5.3417   -2.1392   -1.5869 Al  0  0  0  0  0  0  0  0  0  0  0  0
    6.7979   -3.2005   -0.4897 Cl  0  0  0  0  0  0  0  0  0  0  0  0
    5.0199   -0.0891   -0.7557 Cl  0  0  0  0  0  0  0  0  0  0  0  0
    5.7665   -1.7955   -3.6755 Cl  0  0  0  0  0  0  0  0  0  0  0  0
    3.3355   -3.0152   -1.5060 Cl  0  0  0  0  0  0  0  0  0  0  0  0
  1  3  1  0  0  0  0
  2  1  1  0  0  0  0
  3  5  1  0  0  0  0
  4  3  1  0  0  0  0
  6 11  2  0  0  0  0
  7  8  2  0  0  0  0
  7  6  1  0  0  0  0
  8  9  1  0  0  0  0
  9 15  1  0  0  0  0
  9 10  2  0  0  0  0
 10 16  1  0  0  0  0
 11 10  1  0  0  0  0
 11 17  1  0  0  0  0
 12  6  1  0  0  0  0
 13  7  1  0  0  0  0
 14  8  1  0  0  0  0
 18 22  1  0  0  0  0
 18 20  1  0  0  0  0
 18 19  1  0  0  0  0
 21 18  1  0  0  0  0
M  RAD  2   1   2   2   3
M  END
