Coordinates from ORCA-job C6H6+AlCl4-+NH2N2+-scan
 OpenBabel10161817473D

 22 19  0  0  0  0  0  0  0  0999 V2000
    5.9317   -2.7647   -3.5964 N   0  0  0  0  0  0  0  0  0  0  0  0
    6.9001   -3.1729   -3.2883 N   0  0  0  0  0  0  0  0  0  0  0  0
    3.2044   -1.9923   -4.4135 N   0  0  0  0  0  0  0  0  0  0  0  0
    3.0855   -2.3059   -3.4350 H   0  0  0  0  0  0  0  0  0  0  0  0
    3.7488   -1.1253   -4.2727 H   0  0  0  0  0  0  0  0  0  0  0  0
    1.0764   -0.8594   -6.7900 C   0  0  0  0  0  0  0  0  0  0  0  0
    1.6261   -0.3273   -5.6466 C   0  0  0  0  0  0  0  0  0  0  0  0
    1.4224   -0.9760   -4.3792 C   0  0  0  0  0  0  0  0  0  0  0  0
    0.6040   -2.1576   -4.3243 C   0  0  0  0  0  0  0  0  0  0  0  0
    0.0627   -2.6752   -5.4783 C   0  0  0  0  0  0  0  0  0  0  0  0
    0.2986   -2.0249   -6.7000 C   0  0  0  0  0  0  0  0  0  0  0  0
    1.2388   -0.3901   -7.7521 H   0  0  0  0  0  0  0  0  0  0  0  0
    2.2322    0.5712   -5.6708 H   0  0  0  0  0  0  0  0  0  0  0  0
    1.5968   -0.4133   -3.4675 H   0  0  0  0  0  0  0  0  0  0  0  0
    0.4480   -2.6266   -3.3594 H   0  0  0  0  0  0  0  0  0  0  0  0
   -0.5393   -3.5749   -5.4518 H   0  0  0  0  0  0  0  0  0  0  0  0
   -0.1276   -2.4420   -7.6067 H   0  0  0  0  0  0  0  0  0  0  0  0
    3.7823    0.0747   -0.8466 Al  0  0  0  0  0  0  0  0  0  0  0  0
    2.9104    1.4423    0.5348 Cl  0  0  0  0  0  0  0  0  0  0  0  0
    3.8656    0.9985   -2.8542 Cl  0  0  0  0  0  0  0  0  0  0  0  0
    5.7329   -0.6289   -0.3322 Cl  0  0  0  0  0  0  0  0  0  0  0  0
    2.4438   -1.6698   -1.1028 Cl  0  0  0  0  0  0  0  0  0  0  0  0
  1  2  3  0  0  0  0
  3  5  1  0  0  0  0
  3  4  1  0  0  0  0
  6 11  2  0  0  0  0
  6  7  1  0  0  0  0
  7  8  2  0  0  0  0
  8  9  1  0  0  0  0
  8 14  1  0  0  0  0
  9 15  1  0  0  0  0
 10 16  1  0  0  0  0
 10  9  2  0  0  0  0
 11 10  1  0  0  0  0
 12  6  1  0  0  0  0
 13  7  1  0  0  0  0
 17 11  1  0  0  0  0
 18 21  1  0  0  0  0
 18 19  1  0  0  0  0
 20 18  1  0  0  0  0
 22 18  1  0  0  0  0
M  RAD  1   3   2
M  END
