Coordinates from ORCA-job C6H6+AlCl4-+NH2N2+-scan
 OpenBabel10161817473D

 22 20  0  0  0  0  0  0  0  0999 V2000
    3.2821    0.1700   -4.1689 N   0  0  0  0  0  0  0  0  0  0  0  0
    3.5526    0.2689   -5.2425 N   0  0  0  0  0  0  0  0  0  0  0  0
    2.9623    0.1692   -2.9330 N   0  0  0  0  0  0  0  0  0  0  0  0
    2.4558   -0.6892   -2.6370 H   0  0  0  0  0  0  0  0  0  0  0  0
    3.7815    0.3822   -2.2771 H   0  0  0  0  0  0  0  0  0  0  0  0
    1.8970   -2.4610   -6.1999 C   0  0  0  0  0  0  0  0  0  0  0  0
    1.3832   -1.3735   -6.9082 C   0  0  0  0  0  0  0  0  0  0  0  0
    0.4496   -0.5254   -6.3091 C   0  0  0  0  0  0  0  0  0  0  0  0
    0.0241   -0.7690   -5.0033 C   0  0  0  0  0  0  0  0  0  0  0  0
    0.5360   -1.8599   -4.2955 C   0  0  0  0  0  0  0  0  0  0  0  0
    1.4760   -2.7037   -4.8920 C   0  0  0  0  0  0  0  0  0  0  0  0
    2.6219   -3.1194   -6.6650 H   0  0  0  0  0  0  0  0  0  0  0  0
    1.7061   -1.1894   -7.9269 H   0  0  0  0  0  0  0  0  0  0  0  0
    0.0463    0.3148   -6.8637 H   0  0  0  0  0  0  0  0  0  0  0  0
   -0.7146   -0.1220   -4.5427 H   0  0  0  0  0  0  0  0  0  0  0  0
    0.1915   -2.0654   -3.2875 H   0  0  0  0  0  0  0  0  0  0  0  0
    1.8741   -3.5466   -4.3391 H   0  0  0  0  0  0  0  0  0  0  0  0
    4.8681   -2.0816   -1.1001 Al  0  0  0  0  0  0  0  0  0  0  0  0
    5.8721   -3.1665    0.4046 Cl  0  0  0  0  0  0  0  0  0  0  0  0
    5.1437    0.1185   -0.8605 Cl  0  0  0  0  0  0  0  0  0  0  0  0
    5.4536   -2.4753   -3.1381 Cl  0  0  0  0  0  0  0  0  0  0  0  0
    2.6815   -2.3165   -1.0483 Cl  0  0  0  0  0  0  0  0  0  0  0  0
  1  3  1  0  0  0  0
  2  1  1  0  0  0  0
  3  4  1  0  0  0  0
  3  5  1  0  0  0  0
  6 11  2  0  0  0  0
  7  8  2  0  0  0  0
  7  6  1  0  0  0  0
  8  9  1  0  0  0  0
  9 15  1  0  0  0  0
  9 10  2  0  0  0  0
 10 16  1  0  0  0  0
 11 17  1  0  0  0  0
 11 10  1  0  0  0  0
 12  6  1  0  0  0  0
 13  7  1  0  0  0  0
 14  8  1  0  0  0  0
 18 22  1  0  0  0  0
 18 20  1  0  0  0  0
 18 19  1  0  0  0  0
 21 18  1  0  0  0  0
M  RAD  2   1   2   2   3
M  END
