Coordinates from ORCA-job C6H6+AlCl4-+NH2N2+-scan
 OpenBabel10161817473D

 22 20  0  0  0  0  0  0  0  0999 V2000
    2.9317    0.3345   -3.6117 N   0  0  0  0  0  0  0  0  0  0  0  0
    2.9666    0.7500   -4.6421 N   0  0  0  0  0  0  0  0  0  0  0  0
    2.8574   -0.0491   -2.3957 N   0  0  0  0  0  0  0  0  0  0  0  0
    2.6194   -1.0616   -2.2870 H   0  0  0  0  0  0  0  0  0  0  0  0
    3.7238    0.1900   -1.8172 H   0  0  0  0  0  0  0  0  0  0  0  0
    1.9332   -2.3887   -5.5989 C   0  0  0  0  0  0  0  0  0  0  0  0
    1.7240   -1.5663   -6.7068 C   0  0  0  0  0  0  0  0  0  0  0  0
    0.6129   -0.7217   -6.7522 C   0  0  0  0  0  0  0  0  0  0  0  0
   -0.2856   -0.6931   -5.6849 C   0  0  0  0  0  0  0  0  0  0  0  0
   -0.0782   -1.5155   -4.5764 C   0  0  0  0  0  0  0  0  0  0  0  0
    1.0298   -2.3657   -4.5342 C   0  0  0  0  0  0  0  0  0  0  0  0
    2.7943   -3.0464   -5.5632 H   0  0  0  0  0  0  0  0  0  0  0  0
    2.4219   -1.5893   -7.5364 H   0  0  0  0  0  0  0  0  0  0  0  0
    0.4471   -0.0899   -7.6178 H   0  0  0  0  0  0  0  0  0  0  0  0
   -1.1515   -0.0413   -5.7222 H   0  0  0  0  0  0  0  0  0  0  0  0
   -0.7873   -1.5082   -3.7555 H   0  0  0  0  0  0  0  0  0  0  0  0
    1.1806   -3.0248   -3.6860 H   0  0  0  0  0  0  0  0  0  0  0  0
    5.4133   -2.2182   -1.5381 Al  0  0  0  0  0  0  0  0  0  0  0  0
    6.8070   -3.4368   -0.5298 Cl  0  0  0  0  0  0  0  0  0  0  0  0
    5.3376   -0.1581   -0.6940 Cl  0  0  0  0  0  0  0  0  0  0  0  0
    5.7164   -1.9259   -3.6523 Cl  0  0  0  0  0  0  0  0  0  0  0  0
    3.3301   -2.9146   -1.3313 Cl  0  0  0  0  0  0  0  0  0  0  0  0
  1  3  1  0  0  0  0
  2  1  1  0  0  0  0
  3  4  1  0  0  0  0
  3  5  1  0  0  0  0
  6 12  1  0  0  0  0
  6 11  2  0  0  0  0
  7  6  1  0  0  0  0
  8  7  2  0  0  0  0
  8  9  1  0  0  0  0
  9 10  2  0  0  0  0
 10 11  1  0  0  0  0
 10 16  1  0  0  0  0
 11 17  1  0  0  0  0
 13  7  1  0  0  0  0
 14  8  1  0  0  0  0
 15  9  1  0  0  0  0
 18 22  1  0  0  0  0
 18 20  1  0  0  0  0
 18 19  1  0  0  0  0
 21 18  1  0  0  0  0
M  RAD  2   1   2   2   3
M  END
