Coordinates from ORCA-job C6H6+AlCl4-+NH2N2+-scan
 OpenBabel10161817473D

 22 20  0  0  0  0  0  0  0  0999 V2000
    3.8315   -1.2701   -4.3228 N   0  0  0  0  0  0  0  0  0  0  0  0
    4.3178   -1.9937   -5.0109 N   0  0  0  0  0  0  0  0  0  0  0  0
    3.2380   -0.3676   -3.6409 N   0  0  0  0  0  0  0  0  0  0  0  0
    2.5821   -0.7621   -2.9202 H   0  0  0  0  0  0  0  0  0  0  0  0
    3.9255    0.2768   -3.1446 H   0  0  0  0  0  0  0  0  0  0  0  0
    1.5249   -1.7142   -7.0695 C   0  0  0  0  0  0  0  0  0  0  0  0
    1.4097   -0.5764   -6.2705 C   0  0  0  0  0  0  0  0  0  0  0  0
    0.9956   -0.6935   -4.9415 C   0  0  0  0  0  0  0  0  0  0  0  0
    0.6556   -1.9477   -4.4286 C   0  0  0  0  0  0  0  0  0  0  0  0
    0.7783   -3.0861   -5.2280 C   0  0  0  0  0  0  0  0  0  0  0  0
    1.2139   -2.9705   -6.5474 C   0  0  0  0  0  0  0  0  0  0  0  0
    1.8458   -1.6203   -8.1012 H   0  0  0  0  0  0  0  0  0  0  0  0
    1.6349    0.4012   -6.6834 H   0  0  0  0  0  0  0  0  0  0  0  0
    0.8557    0.1969   -4.3414 H   0  0  0  0  0  0  0  0  0  0  0  0
    0.2889   -2.0391   -3.4117 H   0  0  0  0  0  0  0  0  0  0  0  0
    0.5185   -4.0585   -4.8248 H   0  0  0  0  0  0  0  0  0  0  0  0
    1.3002   -3.8538   -7.1701 H   0  0  0  0  0  0  0  0  0  0  0  0
    4.1683   -0.6200   -0.3164 Al  0  0  0  0  0  0  0  0  0  0  0  0
    4.4530   -0.3405    1.7532 Cl  0  0  0  0  0  0  0  0  0  0  0  0
    4.7773    1.1531   -1.5068 Cl  0  0  0  0  0  0  0  0  0  0  0  0
    5.1904   -2.2774   -1.2389 Cl  0  0  0  0  0  0  0  0  0  0  0  0
    2.0388   -0.8772   -0.8673 Cl  0  0  0  0  0  0  0  0  0  0  0  0
  1  3  1  0  0  0  0
  2  1  1  0  0  0  0
  3  5  1  0  0  0  0
  3  4  1  0  0  0  0
  6 11  2  0  0  0  0
  6  7  1  0  0  0  0
  7  8  2  0  0  0  0
  8  9  1  0  0  0  0
  8 14  1  0  0  0  0
  9 15  1  0  0  0  0
 10 16  1  0  0  0  0
 10  9  2  0  0  0  0
 11 10  1  0  0  0  0
 12  6  1  0  0  0  0
 13  7  1  0  0  0  0
 17 11  1  0  0  0  0
 18 19  1  0  0  0  0
 20 18  1  0  0  0  0
 21 18  1  0  0  0  0
 22 18  1  0  0  0  0
M  RAD  2   1   2   2   3
M  END
