Coordinates from ORCA-job C6H6+AlCl4-+NH2N2+-scan
 OpenBabel10161817473D

 22 20  0  0  0  0  0  0  0  0999 V2000
    3.0293    0.4027   -3.5016 N   0  0  0  0  0  0  0  0  0  0  0  0
    3.0378    0.7840   -4.5456 N   0  0  0  0  0  0  0  0  0  0  0  0
    2.9759    0.0462   -2.2772 N   0  0  0  0  0  0  0  0  0  0  0  0
    2.6986   -0.9571   -2.1398 H   0  0  0  0  0  0  0  0  0  0  0  0
    3.8711    0.2483   -1.7309 H   0  0  0  0  0  0  0  0  0  0  0  0
    1.9543   -2.3038   -5.6495 C   0  0  0  0  0  0  0  0  0  0  0  0
    1.6708   -1.5433   -6.7846 C   0  0  0  0  0  0  0  0  0  0  0  0
    0.4964   -0.7914   -6.8481 C   0  0  0  0  0  0  0  0  0  0  0  0
   -0.3909   -0.7925   -5.7716 C   0  0  0  0  0  0  0  0  0  0  0  0
   -0.1093   -1.5529   -4.6358 C   0  0  0  0  0  0  0  0  0  0  0  0
    1.0618   -2.3114   -4.5753 C   0  0  0  0  0  0  0  0  0  0  0  0
    2.8631   -2.8934   -5.6010 H   0  0  0  0  0  0  0  0  0  0  0  0
    2.3601   -1.5446   -7.6219 H   0  0  0  0  0  0  0  0  0  0  0  0
    0.2730   -0.2082   -7.7347 H   0  0  0  0  0  0  0  0  0  0  0  0
   -1.3057   -0.2120   -5.8223 H   0  0  0  0  0  0  0  0  0  0  0  0
   -0.8093   -1.5692   -3.8071 H   0  0  0  0  0  0  0  0  0  0  0  0
    1.2705   -2.9261   -3.7059 H   0  0  0  0  0  0  0  0  0  0  0  0
    5.4091   -2.2752   -1.4868 Al  0  0  0  0  0  0  0  0  0  0  0  0
    6.7313   -3.5881   -0.5024 Cl  0  0  0  0  0  0  0  0  0  0  0  0
    5.4986   -0.2117   -0.6564 Cl  0  0  0  0  0  0  0  0  0  0  0  0
    5.6746   -2.0190   -3.6099 Cl  0  0  0  0  0  0  0  0  0  0  0  0
    3.2836   -2.8220   -1.2251 Cl  0  0  0  0  0  0  0  0  0  0  0  0
  1  3  1  0  0  0  0
  2  1  1  0  0  0  0
  3  4  1  0  0  0  0
  3  5  1  0  0  0  0
  6 12  1  0  0  0  0
  6 11  2  0  0  0  0
  7  6  1  0  0  0  0
  8  7  2  0  0  0  0
  8  9  1  0  0  0  0
  9 10  2  0  0  0  0
 10 11  1  0  0  0  0
 10 16  1  0  0  0  0
 11 17  1  0  0  0  0
 13  7  1  0  0  0  0
 14  8  1  0  0  0  0
 15  9  1  0  0  0  0
 18 22  1  0  0  0  0
 18 20  1  0  0  0  0
 18 19  1  0  0  0  0
 21 18  1  0  0  0  0
M  RAD  2   1   2   2   3
M  END
