Coordinates from ORCA-job C6H6+AlCl4-+NH2N2+-scan
 OpenBabel10161817473D

 22 20  0  0  0  0  0  0  0  0999 V2000
    6.5876   -2.5907   -5.4831 N   0  0  0  0  0  0  0  0  0  0  0  0
    7.6480   -2.7203   -5.7231 N   0  0  0  0  0  0  0  0  0  0  0  0
    3.6178   -1.9624   -4.1056 N   0  0  0  0  0  0  0  0  0  0  0  0
    3.6450   -1.9361   -3.0768 H   0  0  0  0  0  0  0  0  0  0  0  0
    4.4685   -2.2398   -4.5800 H   0  0  0  0  0  0  0  0  0  0  0  0
    1.3701   -1.3769   -6.8879 C   0  0  0  0  0  0  0  0  0  0  0  0
    2.5153   -1.6912   -6.2151 C   0  0  0  0  0  0  0  0  0  0  0  0
    2.5375   -1.6335   -4.7902 C   0  0  0  0  0  0  0  0  0  0  0  0
    1.3254   -1.1671   -4.0594 C   0  0  0  0  0  0  0  0  0  0  0  0
    0.1267   -0.8898   -4.8860 C   0  0  0  0  0  0  0  0  0  0  0  0
    0.1541   -0.9790   -6.2308 C   0  0  0  0  0  0  0  0  0  0  0  0
    1.3735   -1.4352   -7.9717 H   0  0  0  0  0  0  0  0  0  0  0  0
    3.4072   -1.9992   -6.7484 H   0  0  0  0  0  0  0  0  0  0  0  0
    1.6035   -0.2410   -3.5136 H   0  0  0  0  0  0  0  0  0  0  0  0
    1.0760   -1.8422   -3.2279 H   0  0  0  0  0  0  0  0  0  0  0  0
   -0.7690   -0.5901   -4.3542 H   0  0  0  0  0  0  0  0  0  0  0  0
   -0.7210   -0.7574   -6.8285 H   0  0  0  0  0  0  0  0  0  0  0  0
    2.2987   -0.5696   -0.2311 Al  0  0  0  0  0  0  0  0  0  0  0  0
    0.3694   -1.4955   -0.5859 Cl  0  0  0  0  0  0  0  0  0  0  0  0
    2.4839    1.0958   -1.6351 Cl  0  0  0  0  0  0  0  0  0  0  0  0
    2.6133    0.0156    1.7854 Cl  0  0  0  0  0  0  0  0  0  0  0  0
    3.8130   -2.0351   -0.8847 Cl  0  0  0  0  0  0  0  0  0  0  0  0
  2  1  3  0  0  0  0
  3  4  1  0  0  0  0
  5  3  1  0  0  0  0
  6 11  1  0  0  0  0
  6  7  1  0  0  0  0
  7  8  2  0  0  0  0
  8  3  1  0  0  0  0
  8  9  1  0  0  0  0
  9 14  1  0  0  0  0
  9 15  1  0  0  0  0
 10 16  1  0  0  0  0
 10  9  1  0  0  0  0
 11 10  2  0  0  0  0
 12  6  1  0  0  0  0
 13  7  1  0  0  0  0
 17 11  1  0  0  0  0
 18 21  1  0  0  0  0
 19 18  1  0  0  0  0
 20 18  1  0  0  0  0
 22 18  1  0  0  0  0
M  RAD  1   6   2
M  END
