Coordinates from ORCA-job C6H6+AlCl4-+NH2N2+-scan
 OpenBabel10161817473D

 22 20  0  0  0  0  0  0  0  0999 V2000
    2.8473    0.3086   -3.7417 N   0  0  0  0  0  0  0  0  0  0  0  0
    2.9161    0.7751   -4.7485 N   0  0  0  0  0  0  0  0  0  0  0  0
    2.7359   -0.1253   -2.5462 N   0  0  0  0  0  0  0  0  0  0  0  0
    2.5169   -1.1401   -2.4884 H   0  0  0  0  0  0  0  0  0  0  0  0
    3.5680    0.1269   -1.9212 H   0  0  0  0  0  0  0  0  0  0  0  0
    1.8951   -2.5068   -5.5503 C   0  0  0  0  0  0  0  0  0  0  0  0
    1.7883   -1.6037   -6.6082 C   0  0  0  0  0  0  0  0  0  0  0  0
    0.7697   -0.6486   -6.6113 C   0  0  0  0  0  0  0  0  0  0  0  0
   -0.1448   -0.5959   -5.5584 C   0  0  0  0  0  0  0  0  0  0  0  0
   -0.0401   -1.4997   -4.5007 C   0  0  0  0  0  0  0  0  0  0  0  0
    0.9792   -2.4563   -4.4973 C   0  0  0  0  0  0  0  0  0  0  0  0
    2.6862   -3.2477   -5.5435 H   0  0  0  0  0  0  0  0  0  0  0  0
    2.4950   -1.6462   -7.4293 H   0  0  0  0  0  0  0  0  0  0  0  0
    0.6837    0.0476   -7.4383 H   0  0  0  0  0  0  0  0  0  0  0  0
   -0.9419    0.1394   -5.5678 H   0  0  0  0  0  0  0  0  0  0  0  0
   -0.7596   -1.4720   -3.6893 H   0  0  0  0  0  0  0  0  0  0  0  0
    1.0525   -3.1723   -3.6860 H   0  0  0  0  0  0  0  0  0  0  0  0
    5.3929   -2.1492   -1.6089 Al  0  0  0  0  0  0  0  0  0  0  0  0
    6.8546   -3.2698   -0.5812 Cl  0  0  0  0  0  0  0  0  0  0  0  0
    5.1433   -0.1113   -0.7394 Cl  0  0  0  0  0  0  0  0  0  0  0  0
    5.7381   -1.7965   -3.7090 Cl  0  0  0  0  0  0  0  0  0  0  0  0
    3.3679   -2.9967   -1.4687 Cl  0  0  0  0  0  0  0  0  0  0  0  0
  1  3  1  0  0  0  0
  2  1  1  0  0  0  0
  3  4  1  0  0  0  0
  3  5  1  0  0  0  0
  6 12  1  0  0  0  0
  6 11  2  0  0  0  0
  7  6  1  0  0  0  0
  8  7  2  0  0  0  0
  8  9  1  0  0  0  0
  9 10  2  0  0  0  0
 10 11  1  0  0  0  0
 10 16  1  0  0  0  0
 11 17  1  0  0  0  0
 13  7  1  0  0  0  0
 14  8  1  0  0  0  0
 15  9  1  0  0  0  0
 18 22  1  0  0  0  0
 18 20  1  0  0  0  0
 18 19  1  0  0  0  0
 21 18  1  0  0  0  0
M  RAD  2   1   2   2   3
M  END
