Coordinates from ORCA-job C6H6+AlCl4-+NH2N2+-scan
 OpenBabel10161817473D

 22 20  0  0  0  0  0  0  0  0999 V2000
    2.8500    0.3140   -3.8054 N   0  0  0  0  0  0  0  0  0  0  0  0
    2.9434    0.7929   -4.8043 N   0  0  0  0  0  0  0  0  0  0  0  0
    2.7106   -0.1350   -2.6191 N   0  0  0  0  0  0  0  0  0  0  0  0
    2.4833   -1.1469   -2.5777 H   0  0  0  0  0  0  0  0  0  0  0  0
    3.5283    0.1115   -1.9716 H   0  0  0  0  0  0  0  0  0  0  0  0
    1.8907   -2.5327   -5.5371 C   0  0  0  0  0  0  0  0  0  0  0  0
    1.8064   -1.6014   -6.5725 C   0  0  0  0  0  0  0  0  0  0  0  0
    0.8095   -0.6240   -6.5521 C   0  0  0  0  0  0  0  0  0  0  0  0
   -0.1111   -0.5810   -5.5041 C   0  0  0  0  0  0  0  0  0  0  0  0
   -0.0297   -1.5139   -4.4701 C   0  0  0  0  0  0  0  0  0  0  0  0
    0.9713   -2.4898   -4.4868 C   0  0  0  0  0  0  0  0  0  0  0  0
    2.6675   -3.2885   -5.5449 H   0  0  0  0  0  0  0  0  0  0  0  0
    2.5145   -1.6378   -7.3927 H   0  0  0  0  0  0  0  0  0  0  0  0
    0.7405    0.0939   -7.3621 H   0  0  0  0  0  0  0  0  0  0  0  0
   -0.8936    0.1697   -5.4989 H   0  0  0  0  0  0  0  0  0  0  0  0
   -0.7512   -1.4924   -3.6604 H   0  0  0  0  0  0  0  0  0  0  0  0
    1.0300   -3.2238   -3.6907 H   0  0  0  0  0  0  0  0  0  0  0  0
    5.3701   -2.1360   -1.6229 Al  0  0  0  0  0  0  0  0  0  0  0  0
    6.8339   -3.2308   -0.5702 Cl  0  0  0  0  0  0  0  0  0  0  0  0
    5.0772   -0.0998   -0.7603 Cl  0  0  0  0  0  0  0  0  0  0  0  0
    5.7459   -1.7788   -3.7173 Cl  0  0  0  0  0  0  0  0  0  0  0  0
    3.3569   -3.0102   -1.5126 Cl  0  0  0  0  0  0  0  0  0  0  0  0
  1  3  1  0  0  0  0
  2  1  1  0  0  0  0
  3  4  1  0  0  0  0
  3  5  1  0  0  0  0
  6 11  2  0  0  0  0
  7  8  2  0  0  0  0
  7  6  1  0  0  0  0
  8  9  1  0  0  0  0
  9 15  1  0  0  0  0
  9 10  2  0  0  0  0
 10 16  1  0  0  0  0
 11 10  1  0  0  0  0
 11 17  1  0  0  0  0
 12  6  1  0  0  0  0
 13  7  1  0  0  0  0
 14  8  1  0  0  0  0
 18 22  1  0  0  0  0
 18 20  1  0  0  0  0
 18 19  1  0  0  0  0
 21 18  1  0  0  0  0
M  RAD  2   1   2   2   3
M  END
