Coordinates from ORCA-job C6H6+AlCl4-+NH2N2+-scan
 OpenBabel10161817473D

 22 20  0  0  0  0  0  0  0  0999 V2000
    3.2555    0.4878   -3.4193 N   0  0  0  0  0  0  0  0  0  0  0  0
    3.2459    0.7733   -4.4936 N   0  0  0  0  0  0  0  0  0  0  0  0
    3.2133    0.2285   -2.1704 N   0  0  0  0  0  0  0  0  0  0  0  0
    2.8365   -0.7329   -1.9500 H   0  0  0  0  0  0  0  0  0  0  0  0
    4.1468    0.3564   -1.6746 H   0  0  0  0  0  0  0  0  0  0  0  0
    1.9863   -2.1359   -5.7391 C   0  0  0  0  0  0  0  0  0  0  0  0
    1.5799   -1.4490   -6.8842 C   0  0  0  0  0  0  0  0  0  0  0  0
    0.3068   -0.8808   -6.9439 C   0  0  0  0  0  0  0  0  0  0  0  0
   -0.5579   -0.9930   -5.8553 C   0  0  0  0  0  0  0  0  0  0  0  0
   -0.1533   -1.6793   -4.7098 C   0  0  0  0  0  0  0  0  0  0  0  0
    1.1177   -2.2535   -4.6519 C   0  0  0  0  0  0  0  0  0  0  0  0
    2.9703   -2.5900   -5.6947 H   0  0  0  0  0  0  0  0  0  0  0  0
    2.2510   -1.3666   -7.7321 H   0  0  0  0  0  0  0  0  0  0  0  0
   -0.0112   -0.3549   -7.8375 H   0  0  0  0  0  0  0  0  0  0  0  0
   -1.5491   -0.5551   -5.9030 H   0  0  0  0  0  0  0  0  0  0  0  0
   -0.8326   -1.7804   -3.8700 H   0  0  0  0  0  0  0  0  0  0  0  0
    1.4252   -2.8109   -3.7731 H   0  0  0  0  0  0  0  0  0  0  0  0
    5.3445   -2.3607   -1.3745 Al  0  0  0  0  0  0  0  0  0  0  0  0
    6.4894   -3.8279   -0.3877 Cl  0  0  0  0  0  0  0  0  0  0  0  0
    5.7330   -0.3137   -0.6027 Cl  0  0  0  0  0  0  0  0  0  0  0  0
    5.5810   -2.1950   -3.5104 Cl  0  0  0  0  0  0  0  0  0  0  0  0
    3.1654   -2.6071   -1.0558 Cl  0  0  0  0  0  0  0  0  0  0  0  0
  1  3  1  0  0  0  0
  2  1  1  0  0  0  0
  3  4  1  0  0  0  0
  3  5  1  0  0  0  0
  6 12  1  0  0  0  0
  6 11  2  0  0  0  0
  7  6  1  0  0  0  0
  8  7  2  0  0  0  0
  8  9  1  0  0  0  0
  9 10  2  0  0  0  0
 10 11  1  0  0  0  0
 10 16  1  0  0  0  0
 11 17  1  0  0  0  0
 13  7  1  0  0  0  0
 14  8  1  0  0  0  0
 15  9  1  0  0  0  0
 18 22  1  0  0  0  0
 18 20  1  0  0  0  0
 18 19  1  0  0  0  0
 21 18  1  0  0  0  0
M  RAD  2   1   2   2   3
M  END
