Coordinates from ORCA-job C6H6+AlCl4-+NH2N2+-scan
 OpenBabel10161817473D

 22 20  0  0  0  0  0  0  0  0999 V2000
    3.8631   -1.1153   -4.4782 N   0  0  0  0  0  0  0  0  0  0  0  0
    4.2343   -1.9182   -5.1498 N   0  0  0  0  0  0  0  0  0  0  0  0
    3.4879   -0.1113   -3.7823 N   0  0  0  0  0  0  0  0  0  0  0  0
    2.6273   -0.2911   -3.2298 H   0  0  0  0  0  0  0  0  0  0  0  0
    4.2657    0.2643   -3.1544 H   0  0  0  0  0  0  0  0  0  0  0  0
    1.4374   -1.7099   -7.0062 C   0  0  0  0  0  0  0  0  0  0  0  0
    1.2194   -0.5922   -6.2019 C   0  0  0  0  0  0  0  0  0  0  0  0
    0.9206   -0.7568   -4.8466 C   0  0  0  0  0  0  0  0  0  0  0  0
    0.8123   -2.0394   -4.3034 C   0  0  0  0  0  0  0  0  0  0  0  0
    1.0361   -3.1566   -5.1103 C   0  0  0  0  0  0  0  0  0  0  0  0
    1.3495   -2.9919   -6.4592 C   0  0  0  0  0  0  0  0  0  0  0  0
    1.6662   -1.5843   -8.0586 H   0  0  0  0  0  0  0  0  0  0  0  0
    1.2730    0.4037   -6.6280 H   0  0  0  0  0  0  0  0  0  0  0  0
    0.7052    0.1116   -4.2325 H   0  0  0  0  0  0  0  0  0  0  0  0
    0.5536   -2.1661   -3.2581 H   0  0  0  0  0  0  0  0  0  0  0  0
    0.9569   -4.1518   -4.6878 H   0  0  0  0  0  0  0  0  0  0  0  0
    1.5165   -3.8605   -7.0864 H   0  0  0  0  0  0  0  0  0  0  0  0
    3.9333   -0.7178   -0.3938 Al  0  0  0  0  0  0  0  0  0  0  0  0
    4.1674   -0.6107    1.6996 Cl  0  0  0  0  0  0  0  0  0  0  0  0
    5.2280    0.7479   -1.4572 Cl  0  0  0  0  0  0  0  0  0  0  0  0
    4.3816   -2.6104   -1.3276 Cl  0  0  0  0  0  0  0  0  0  0  0  0
    1.9094   -0.1839   -1.0810 Cl  0  0  0  0  0  0  0  0  0  0  0  0
  1  3  1  0  0  0  0
  2  1  1  0  0  0  0
  3  4  1  0  0  0  0
  3  5  1  0  0  0  0
  6 11  2  0  0  0  0
  6  7  1  0  0  0  0
  7  8  2  0  0  0  0
  8  9  1  0  0  0  0
  8 14  1  0  0  0  0
  9 15  1  0  0  0  0
 10 16  1  0  0  0  0
 10  9  2  0  0  0  0
 11 10  1  0  0  0  0
 12  6  1  0  0  0  0
 13  7  1  0  0  0  0
 17 11  1  0  0  0  0
 18 19  1  0  0  0  0
 20 18  1  0  0  0  0
 21 18  1  0  0  0  0
 22 18  1  0  0  0  0
M  RAD  2   1   2   2   3
M  END
