Coordinates from ORCA-job C6H6+AlCl4-+NH2N2+-scan
 OpenBabel10161817473D

 22 20  0  0  0  0  0  0  0  0999 V2000
    3.8075   -1.2390   -4.3553 N   0  0  0  0  0  0  0  0  0  0  0  0
    4.2705   -1.9813   -5.0390 N   0  0  0  0  0  0  0  0  0  0  0  0
    3.2670   -0.3044   -3.6707 N   0  0  0  0  0  0  0  0  0  0  0  0
    2.5674   -0.6564   -2.9739 H   0  0  0  0  0  0  0  0  0  0  0  0
    3.9929    0.2776   -3.1515 H   0  0  0  0  0  0  0  0  0  0  0  0
    1.5150   -1.7130   -7.0573 C   0  0  0  0  0  0  0  0  0  0  0  0
    1.3764   -0.5772   -6.2598 C   0  0  0  0  0  0  0  0  0  0  0  0
    0.9865   -0.7035   -4.9242 C   0  0  0  0  0  0  0  0  0  0  0  0
    0.6937   -1.9660   -4.4024 C   0  0  0  0  0  0  0  0  0  0  0  0
    0.8398   -3.1024   -5.2006 C   0  0  0  0  0  0  0  0  0  0  0  0
    1.2516   -2.9770   -6.5268 C   0  0  0  0  0  0  0  0  0  0  0  0
    1.8174   -1.6129   -8.0939 H   0  0  0  0  0  0  0  0  0  0  0  0
    1.5651    0.4058   -6.6779 H   0  0  0  0  0  0  0  0  0  0  0  0
    0.8278    0.1843   -4.3246 H   0  0  0  0  0  0  0  0  0  0  0  0
    0.3467   -2.0653   -3.3794 H   0  0  0  0  0  0  0  0  0  0  0  0
    0.6173   -4.0811   -4.7907 H   0  0  0  0  0  0  0  0  0  0  0  0
    1.3564   -3.8590   -7.1485 H   0  0  0  0  0  0  0  0  0  0  0  0
    4.1264   -0.6459   -0.3325 Al  0  0  0  0  0  0  0  0  0  0  0  0
    4.4165   -0.4044    1.7415 Cl  0  0  0  0  0  0  0  0  0  0  0  0
    4.8863    1.0817   -1.5040 Cl  0  0  0  0  0  0  0  0  0  0  0  0
    5.0255   -2.3723   -1.2579 Cl  0  0  0  0  0  0  0  0  0  0  0  0
    1.9907   -0.7289   -0.9043 Cl  0  0  0  0  0  0  0  0  0  0  0  0
  1  3  1  0  0  0  0
  2  1  1  0  0  0  0
  3  5  1  0  0  0  0
  3  4  1  0  0  0  0
  6 11  2  0  0  0  0
  6  7  1  0  0  0  0
  7  8  2  0  0  0  0
  8  9  1  0  0  0  0
  8 14  1  0  0  0  0
  9 15  1  0  0  0  0
 10 16  1  0  0  0  0
 10  9  2  0  0  0  0
 11 10  1  0  0  0  0
 12  6  1  0  0  0  0
 13  7  1  0  0  0  0
 17 11  1  0  0  0  0
 18 19  1  0  0  0  0
 20 18  1  0  0  0  0
 21 18  1  0  0  0  0
 22 18  1  0  0  0  0
M  RAD  2   1   2   2   3
M  END
