Coordinates from ORCA-job C6H6+AlCl4-+NH2N2+-scan
 OpenBabel10161817473D

 22 20  0  0  0  0  0  0  0  0999 V2000
    2.9399    0.3381   -3.6057 N   0  0  0  0  0  0  0  0  0  0  0  0
    2.9740    0.7514   -4.6371 N   0  0  0  0  0  0  0  0  0  0  0  0
    2.8656   -0.0443   -2.3895 N   0  0  0  0  0  0  0  0  0  0  0  0
    2.6258   -1.0565   -2.2796 H   0  0  0  0  0  0  0  0  0  0  0  0
    3.7328    0.1931   -1.8114 H   0  0  0  0  0  0  0  0  0  0  0  0
    1.9336   -2.3835   -5.6030 C   0  0  0  0  0  0  0  0  0  0  0  0
    1.7193   -1.5646   -6.7125 C   0  0  0  0  0  0  0  0  0  0  0  0
    0.6041   -0.7255   -6.7586 C   0  0  0  0  0  0  0  0  0  0  0  0
   -0.2932   -0.6988   -5.6902 C   0  0  0  0  0  0  0  0  0  0  0  0
   -0.0807   -1.5176   -4.5802 C   0  0  0  0  0  0  0  0  0  0  0  0
    1.0313   -2.3625   -4.5373 C   0  0  0  0  0  0  0  0  0  0  0  0
    2.7977   -3.0373   -5.5669 H   0  0  0  0  0  0  0  0  0  0  0  0
    2.4163   -1.5863   -7.5428 H   0  0  0  0  0  0  0  0  0  0  0  0
    0.4342   -0.0966   -7.6255 H   0  0  0  0  0  0  0  0  0  0  0  0
   -1.1623   -0.0511   -5.7280 H   0  0  0  0  0  0  0  0  0  0  0  0
   -0.7889   -1.5118   -3.7584 H   0  0  0  0  0  0  0  0  0  0  0  0
    1.1860   -3.0193   -3.6879 H   0  0  0  0  0  0  0  0  0  0  0  0
    5.4141   -2.2212   -1.5328 Al  0  0  0  0  0  0  0  0  0  0  0  0
    6.8032   -3.4450   -0.5246 Cl  0  0  0  0  0  0  0  0  0  0  0  0
    5.3462   -0.1607   -0.6892 Cl  0  0  0  0  0  0  0  0  0  0  0  0
    5.7174   -1.9307   -3.6472 Cl  0  0  0  0  0  0  0  0  0  0  0  0
    3.3281   -2.9098   -1.3253 Cl  0  0  0  0  0  0  0  0  0  0  0  0
  1  3  1  0  0  0  0
  2  1  1  0  0  0  0
  3  4  1  0  0  0  0
  3  5  1  0  0  0  0
  6 12  1  0  0  0  0
  6 11  2  0  0  0  0
  7  6  1  0  0  0  0
  8  7  2  0  0  0  0
  8  9  1  0  0  0  0
  9 10  2  0  0  0  0
 10 11  1  0  0  0  0
 10 16  1  0  0  0  0
 11 17  1  0  0  0  0
 13  7  1  0  0  0  0
 14  8  1  0  0  0  0
 15  9  1  0  0  0  0
 18 22  1  0  0  0  0
 18 20  1  0  0  0  0
 18 19  1  0  0  0  0
 21 18  1  0  0  0  0
M  RAD  2   1   2   2   3
M  END
