Coordinates from ORCA-job C6H6+AlCl4-+NH2N2+-scan
 OpenBabel10161817473D

 22 20  0  0  0  0  0  0  0  0999 V2000
    3.2253    0.4601   -3.4693 N   0  0  0  0  0  0  0  0  0  0  0  0
    3.2357    0.7549   -4.5410 N   0  0  0  0  0  0  0  0  0  0  0  0
    3.1629    0.1926   -2.2229 N   0  0  0  0  0  0  0  0  0  0  0  0
    2.7991   -0.7748   -2.0148 H   0  0  0  0  0  0  0  0  0  0  0  0
    4.0839    0.3376   -1.7071 H   0  0  0  0  0  0  0  0  0  0  0  0
    1.9870   -2.1678   -5.7306 C   0  0  0  0  0  0  0  0  0  0  0  0
    1.5953   -1.4510   -6.8623 C   0  0  0  0  0  0  0  0  0  0  0  0
    0.3382   -0.8465   -6.9069 C   0  0  0  0  0  0  0  0  0  0  0  0
   -0.5247   -0.9521   -5.8161 C   0  0  0  0  0  0  0  0  0  0  0  0
   -0.1346   -1.6683   -4.6839 C   0  0  0  0  0  0  0  0  0  0  0  0
    1.1201   -2.2790   -4.6413 C   0  0  0  0  0  0  0  0  0  0  0  0
    2.9588   -2.6484   -5.6977 H   0  0  0  0  0  0  0  0  0  0  0  0
    2.2650   -1.3732   -7.7118 H   0  0  0  0  0  0  0  0  0  0  0  0
    0.0313   -0.2973   -7.7903 H   0  0  0  0  0  0  0  0  0  0  0  0
   -1.5034   -0.4860   -5.8521 H   0  0  0  0  0  0  0  0  0  0  0  0
   -0.8130   -1.7645   -3.8428 H   0  0  0  0  0  0  0  0  0  0  0  0
    1.4157   -2.8588   -3.7732 H   0  0  0  0  0  0  0  0  0  0  0  0
    5.3433   -2.3421   -1.3808 Al  0  0  0  0  0  0  0  0  0  0  0  0
    6.5148   -3.7725   -0.3711 Cl  0  0  0  0  0  0  0  0  0  0  0  0
    5.6676   -0.2816   -0.6126 Cl  0  0  0  0  0  0  0  0  0  0  0  0
    5.6077   -2.1786   -3.5137 Cl  0  0  0  0  0  0  0  0  0  0  0  0
    3.1686   -2.6434   -1.0912 Cl  0  0  0  0  0  0  0  0  0  0  0  0
  1  3  1  0  0  0  0
  2  1  1  0  0  0  0
  3  4  1  0  0  0  0
  3  5  1  0  0  0  0
  6 12  1  0  0  0  0
  6 11  2  0  0  0  0
  7  6  1  0  0  0  0
  8  7  2  0  0  0  0
  8  9  1  0  0  0  0
  9 10  2  0  0  0  0
 10 11  1  0  0  0  0
 10 16  1  0  0  0  0
 11 17  1  0  0  0  0
 13  7  1  0  0  0  0
 14  8  1  0  0  0  0
 15  9  1  0  0  0  0
 18 22  1  0  0  0  0
 18 20  1  0  0  0  0
 18 19  1  0  0  0  0
 21 18  1  0  0  0  0
M  RAD  2   1   2   2   3
M  END
