Coordinates from ORCA-job C6H6+AlCl4-+NH2N2+-scan
 OpenBabel10161817473D

 22 19  0  0  0  0  0  0  0  0999 V2000
    6.0304   -2.7791   -3.3920 N   0  0  0  0  0  0  0  0  0  0  0  0
    7.0185   -3.0683   -3.0187 N   0  0  0  0  0  0  0  0  0  0  0  0
    3.2173   -2.0443   -4.5217 N   0  0  0  0  0  0  0  0  0  0  0  0
    3.1552   -2.4061   -3.5573 H   0  0  0  0  0  0  0  0  0  0  0  0
    3.8022   -1.2071   -4.3755 H   0  0  0  0  0  0  0  0  0  0  0  0
    0.9778   -0.7894   -6.7711 C   0  0  0  0  0  0  0  0  0  0  0  0
    1.6593   -0.3535   -5.6609 C   0  0  0  0  0  0  0  0  0  0  0  0
    1.5526   -1.0707   -4.4130 C   0  0  0  0  0  0  0  0  0  0  0  0
    0.6581   -2.2009   -4.3403 C   0  0  0  0  0  0  0  0  0  0  0  0
   -0.0159   -2.6237   -5.4603 C   0  0  0  0  0  0  0  0  0  0  0  0
    0.1494   -1.9195   -6.6650 C   0  0  0  0  0  0  0  0  0  0  0  0
    1.0717   -0.2749   -7.7191 H   0  0  0  0  0  0  0  0  0  0  0  0
    2.3100    0.5134   -5.6944 H   0  0  0  0  0  0  0  0  0  0  0  0
    1.7478   -0.5195   -3.4956 H   0  0  0  0  0  0  0  0  0  0  0  0
    0.5622   -2.7108   -3.3880 H   0  0  0  0  0  0  0  0  0  0  0  0
   -0.6688   -3.4866   -5.4237 H   0  0  0  0  0  0  0  0  0  0  0  0
   -0.3794   -2.2640   -7.5481 H   0  0  0  0  0  0  0  0  0  0  0  0
    3.7721    0.0643   -0.8846 Al  0  0  0  0  0  0  0  0  0  0  0  0
    2.6507    1.4339    0.3066 Cl  0  0  0  0  0  0  0  0  0  0  0  0
    3.9930    0.8960   -2.9226 Cl  0  0  0  0  0  0  0  0  0  0  0  0
    5.6968   -0.4489   -0.1207 Cl  0  0  0  0  0  0  0  0  0  0  0  0
    2.5837   -1.7808   -1.1679 Cl  0  0  0  0  0  0  0  0  0  0  0  0
  1  2  3  0  0  0  0
  3  5  1  0  0  0  0
  3  4  1  0  0  0  0
  6 11  2  0  0  0  0
  6  7  1  0  0  0  0
  7  8  2  0  0  0  0
  8  9  1  0  0  0  0
  8 14  1  0  0  0  0
  9 15  1  0  0  0  0
 10 16  1  0  0  0  0
 10  9  2  0  0  0  0
 11 10  1  0  0  0  0
 12  6  1  0  0  0  0
 13  7  1  0  0  0  0
 17 11  1  0  0  0  0
 18 21  1  0  0  0  0
 18 19  1  0  0  0  0
 20 18  1  0  0  0  0
 22 18  1  0  0  0  0
M  RAD  1   3   2
M  END
