Coordinates from ORCA-job C6H6+AlCl4-+NH2N2+-scan
 OpenBabel10161817473D

 22 20  0  0  0  0  0  0  0  0999 V2000
    3.9497   -1.0577   -4.5429 N   0  0  0  0  0  0  0  0  0  0  0  0
    4.2425   -1.8805   -5.2301 N   0  0  0  0  0  0  0  0  0  0  0  0
    3.6876   -0.0412   -3.8170 N   0  0  0  0  0  0  0  0  0  0  0  0
    2.7608   -0.0900   -3.3540 H   0  0  0  0  0  0  0  0  0  0  0  0
    4.4664    0.1975   -3.1222 H   0  0  0  0  0  0  0  0  0  0  0  0
    1.3756   -1.7081   -6.9825 C   0  0  0  0  0  0  0  0  0  0  0  0
    1.0775   -0.6081   -6.1793 C   0  0  0  0  0  0  0  0  0  0  0  0
    0.8144   -0.7901   -4.8187 C   0  0  0  0  0  0  0  0  0  0  0  0
    0.8404   -2.0721   -4.2637 C   0  0  0  0  0  0  0  0  0  0  0  0
    1.1410   -3.1712   -5.0697 C   0  0  0  0  0  0  0  0  0  0  0  0
    1.4082   -2.9890   -6.4270 C   0  0  0  0  0  0  0  0  0  0  0  0
    1.5729   -1.5707   -8.0399 H   0  0  0  0  0  0  0  0  0  0  0  0
    1.0358    0.3858   -6.6115 H   0  0  0  0  0  0  0  0  0  0  0  0
    0.5445    0.0597   -4.1994 H   0  0  0  0  0  0  0  0  0  0  0  0
    0.6249   -2.2109   -3.2104 H   0  0  0  0  0  0  0  0  0  0  0  0
    1.1616   -4.1661   -4.6399 H   0  0  0  0  0  0  0  0  0  0  0  0
    1.6353   -3.8446   -7.0533 H   0  0  0  0  0  0  0  0  0  0  0  0
    3.8326   -0.7416   -0.4171 Al  0  0  0  0  0  0  0  0  0  0  0  0
    3.9872   -0.6861    1.6860 Cl  0  0  0  0  0  0  0  0  0  0  0  0
    5.3942    0.5123   -1.3970 Cl  0  0  0  0  0  0  0  0  0  0  0  0
    4.0341   -2.6749   -1.3540 Cl  0  0  0  0  0  0  0  0  0  0  0  0
    1.9576    0.1070   -1.1902 Cl  0  0  0  0  0  0  0  0  0  0  0  0
  1  3  1  0  0  0  0
  2  1  1  0  0  0  0
  3  4  1  0  0  0  0
  3  5  1  0  0  0  0
  6 11  2  0  0  0  0
  6  7  1  0  0  0  0
  7  8  2  0  0  0  0
  8  9  1  0  0  0  0
  8 14  1  0  0  0  0
  9 15  1  0  0  0  0
 10 16  1  0  0  0  0
 10  9  2  0  0  0  0
 11 10  1  0  0  0  0
 12  6  1  0  0  0  0
 13  7  1  0  0  0  0
 17 11  1  0  0  0  0
 18 19  1  0  0  0  0
 20 18  1  0  0  0  0
 21 18  1  0  0  0  0
 22 18  1  0  0  0  0
M  RAD  2   1   2   2   3
M  END
