Coordinates from ORCA-job C6H6+AlCl4-+NH2N2+-scan
 OpenBabel10161817473D

 22 20  0  0  0  0  0  0  0  0999 V2000
    4.2501   -2.1756   -3.9960 N   0  0  0  0  0  0  0  0  0  0  0  0
    4.9779   -2.8635   -4.4914 N   0  0  0  0  0  0  0  0  0  0  0  0
    3.2348   -1.4417   -3.6618 N   0  0  0  0  0  0  0  0  0  0  0  0
    2.8624   -1.7356   -2.7169 H   0  0  0  0  0  0  0  0  0  0  0  0
    3.5286   -0.4301   -3.5609 H   0  0  0  0  0  0  0  0  0  0  0  0
    1.4358   -1.1907   -6.8988 C   0  0  0  0  0  0  0  0  0  0  0  0
    1.5802   -0.4340   -5.7393 C   0  0  0  0  0  0  0  0  0  0  0  0
    1.2385   -0.9835   -4.4970 C   0  0  0  0  0  0  0  0  0  0  0  0
    0.6229   -2.2406   -4.4443 C   0  0  0  0  0  0  0  0  0  0  0  0
    0.4802   -2.9950   -5.6057 C   0  0  0  0  0  0  0  0  0  0  0  0
    0.8978   -2.4772   -6.8328 C   0  0  0  0  0  0  0  0  0  0  0  0
    1.7208   -0.7715   -7.8575 H   0  0  0  0  0  0  0  0  0  0  0  0
    1.9738    0.5759   -5.7934 H   0  0  0  0  0  0  0  0  0  0  0  0
    1.2352   -0.3506   -3.6158 H   0  0  0  0  0  0  0  0  0  0  0  0
    0.2740   -2.6315   -3.4941 H   0  0  0  0  0  0  0  0  0  0  0  0
    0.0230   -3.9773   -5.5598 H   0  0  0  0  0  0  0  0  0  0  0  0
    0.7803   -3.0632   -7.7373 H   0  0  0  0  0  0  0  0  0  0  0  0
    4.1390    0.0731   -0.6360 Al  0  0  0  0  0  0  0  0  0  0  0  0
    4.1452    1.2241    1.1296 Cl  0  0  0  0  0  0  0  0  0  0  0  0
    3.8006    1.3092   -2.4509 Cl  0  0  0  0  0  0  0  0  0  0  0  0
    5.8922   -1.0924   -1.0705 Cl  0  0  0  0  0  0  0  0  0  0  0  0
    2.4513   -1.3688   -0.7030 Cl  0  0  0  0  0  0  0  0  0  0  0  0
  1  3  1  0  0  0  0
  2  1  1  0  0  0  0
  3  5  1  0  0  0  0
  3  4  1  0  0  0  0
  6 11  2  0  0  0  0
  6  7  1  0  0  0  0
  7  8  2  0  0  0  0
  8  9  1  0  0  0  0
  8 14  1  0  0  0  0
  9 15  1  0  0  0  0
 10 16  1  0  0  0  0
 10  9  2  0  0  0  0
 11 10  1  0  0  0  0
 12  6  1  0  0  0  0
 13  7  1  0  0  0  0
 17 11  1  0  0  0  0
 18 19  1  0  0  0  0
 20 18  1  0  0  0  0
 21 18  1  0  0  0  0
 22 18  1  0  0  0  0
M  RAD  2   1   2   2   3
M  END
