Coordinates from ORCA-job C6H6+AlCl4-+NH2N2+-scan
 OpenBabel10161817473D

 22 20  0  0  0  0  0  0  0  0999 V2000
    3.4174    0.6708   -3.1082 N   0  0  0  0  0  0  0  0  0  0  0  0
    3.3156    0.9592   -4.1771 N   0  0  0  0  0  0  0  0  0  0  0  0
    3.4774    0.4053   -1.8610 N   0  0  0  0  0  0  0  0  0  0  0  0
    3.0405   -0.5294   -1.6100 H   0  0  0  0  0  0  0  0  0  0  0  0
    4.4636    0.4318   -1.4657 H   0  0  0  0  0  0  0  0  0  0  0  0
    1.9405   -2.0324   -5.8034 C   0  0  0  0  0  0  0  0  0  0  0  0
    1.4947   -1.4886   -7.0089 C   0  0  0  0  0  0  0  0  0  0  0  0
    0.1717   -1.0663   -7.1387 C   0  0  0  0  0  0  0  0  0  0  0  0
   -0.7048   -1.1812   -6.0597 C   0  0  0  0  0  0  0  0  0  0  0  0
   -0.2608   -1.7239   -4.8540 C   0  0  0  0  0  0  0  0  0  0  0  0
    1.0611   -2.1522   -4.7258 C   0  0  0  0  0  0  0  0  0  0  0  0
    2.9639   -2.3781   -5.7053 H   0  0  0  0  0  0  0  0  0  0  0  0
    2.1759   -1.4043   -7.8487 H   0  0  0  0  0  0  0  0  0  0  0  0
   -0.1760   -0.6511   -8.0785 H   0  0  0  0  0  0  0  0  0  0  0  0
   -1.7347   -0.8562   -6.1610 H   0  0  0  0  0  0  0  0  0  0  0  0
   -0.9473   -1.8261   -4.0203 H   0  0  0  0  0  0  0  0  0  0  0  0
    1.4014   -2.6006   -3.7979 H   0  0  0  0  0  0  0  0  0  0  0  0
    5.3638   -2.4312   -1.3603 Al  0  0  0  0  0  0  0  0  0  0  0  0
    6.3904   -4.0691   -0.5256 Cl  0  0  0  0  0  0  0  0  0  0  0  0
    6.0489   -0.4819   -0.5500 Cl  0  0  0  0  0  0  0  0  0  0  0  0
    5.4448   -2.1947   -3.5005 Cl  0  0  0  0  0  0  0  0  0  0  0  0
    3.1967   -2.4406   -0.8728 Cl  0  0  0  0  0  0  0  0  0  0  0  0
  1  3  1  0  0  0  0
  2  1  1  0  0  0  0
  3  4  1  0  0  0  0
  3  5  1  0  0  0  0
  6 12  1  0  0  0  0
  6 11  2  0  0  0  0
  7  6  1  0  0  0  0
  8  7  2  0  0  0  0
  8  9  1  0  0  0  0
  9 10  2  0  0  0  0
 10 11  1  0  0  0  0
 10 16  1  0  0  0  0
 11 17  1  0  0  0  0
 13  7  1  0  0  0  0
 14  8  1  0  0  0  0
 15  9  1  0  0  0  0
 18 22  1  0  0  0  0
 18 20  1  0  0  0  0
 18 19  1  0  0  0  0
 21 18  1  0  0  0  0
M  RAD  2   1   2   2   3
M  END
