Coordinates from ORCA-job C6H6+AlCl4-+NH2N2+-scan
 OpenBabel10161817473D

 22 20  0  0  0  0  0  0  0  0999 V2000
    3.3990    0.6519   -3.1379 N   0  0  0  0  0  0  0  0  0  0  0  0
    3.2999    0.9393   -4.2075 N   0  0  0  0  0  0  0  0  0  0  0  0
    3.4546    0.3895   -1.8901 N   0  0  0  0  0  0  0  0  0  0  0  0
    3.0219   -0.5463   -1.6373 H   0  0  0  0  0  0  0  0  0  0  0  0
    4.4379    0.4246   -1.4883 H   0  0  0  0  0  0  0  0  0  0  0  0
    1.9504   -2.0314   -5.7950 C   0  0  0  0  0  0  0  0  0  0  0  0
    1.5035   -1.4823   -6.9978 C   0  0  0  0  0  0  0  0  0  0  0  0
    0.1816   -1.0548   -7.1230 C   0  0  0  0  0  0  0  0  0  0  0  0
   -0.6927   -1.1699   -6.0421 C   0  0  0  0  0  0  0  0  0  0  0  0
   -0.2477   -1.7179   -4.8391 C   0  0  0  0  0  0  0  0  0  0  0  0
    1.0731   -2.1511   -4.7155 C   0  0  0  0  0  0  0  0  0  0  0  0
    2.9729   -2.3804   -5.6997 H   0  0  0  0  0  0  0  0  0  0  0  0
    2.1829   -1.3978   -7.8390 H   0  0  0  0  0  0  0  0  0  0  0  0
   -0.1670   -0.6354   -8.0605 H   0  0  0  0  0  0  0  0  0  0  0  0
   -1.7217   -0.8409   -6.1401 H   0  0  0  0  0  0  0  0  0  0  0  0
   -0.9323   -1.8203   -4.0038 H   0  0  0  0  0  0  0  0  0  0  0  0
    1.4145   -2.6030   -3.7896 H   0  0  0  0  0  0  0  0  0  0  0  0
    5.3586   -2.4300   -1.3629 Al  0  0  0  0  0  0  0  0  0  0  0  0
    6.3918   -4.0563   -0.5140 Cl  0  0  0  0  0  0  0  0  0  0  0  0
    6.0235   -0.4717   -0.5574 Cl  0  0  0  0  0  0  0  0  0  0  0  0
    5.4516   -2.2021   -3.5036 Cl  0  0  0  0  0  0  0  0  0  0  0  0
    3.1883   -2.4542   -0.8893 Cl  0  0  0  0  0  0  0  0  0  0  0  0
  1  3  1  0  0  0  0
  2  1  1  0  0  0  0
  3  4  1  0  0  0  0
  3  5  1  0  0  0  0
  6 12  1  0  0  0  0
  6 11  2  0  0  0  0
  7  6  1  0  0  0  0
  8  7  2  0  0  0  0
  8  9  1  0  0  0  0
  9 10  2  0  0  0  0
 10 11  1  0  0  0  0
 10 16  1  0  0  0  0
 11 17  1  0  0  0  0
 13  7  1  0  0  0  0
 14  8  1  0  0  0  0
 15  9  1  0  0  0  0
 18 22  1  0  0  0  0
 18 20  1  0  0  0  0
 18 19  1  0  0  0  0
 21 18  1  0  0  0  0
M  RAD  2   1   2   2   3
M  END
