Coordinates from ORCA-job C6H6+AlCl4-+NH2N2+-scan
 OpenBabel10161817473D

 22 20  0  0  0  0  0  0  0  0999 V2000
    3.2533    0.4857   -3.4232 N   0  0  0  0  0  0  0  0  0  0  0  0
    3.2453    0.7718   -4.4974 N   0  0  0  0  0  0  0  0  0  0  0  0
    3.2095    0.2258   -2.1745 N   0  0  0  0  0  0  0  0  0  0  0  0
    2.8337   -0.7360   -1.9550 H   0  0  0  0  0  0  0  0  0  0  0  0
    4.1420    0.3551   -1.6771 H   0  0  0  0  0  0  0  0  0  0  0  0
    1.9864   -2.1383   -5.7384 C   0  0  0  0  0  0  0  0  0  0  0  0
    1.5811   -1.4491   -6.8824 C   0  0  0  0  0  0  0  0  0  0  0  0
    0.3092   -0.8782   -6.9411 C   0  0  0  0  0  0  0  0  0  0  0  0
   -0.5555   -0.9899   -5.8523 C   0  0  0  0  0  0  0  0  0  0  0  0
   -0.1520   -1.6785   -4.7079 C   0  0  0  0  0  0  0  0  0  0  0  0
    1.1179   -2.2555   -4.6510 C   0  0  0  0  0  0  0  0  0  0  0  0
    2.9695   -2.5944   -5.6948 H   0  0  0  0  0  0  0  0  0  0  0  0
    2.2521   -1.3669   -7.7305 H   0  0  0  0  0  0  0  0  0  0  0  0
   -0.0080   -0.3503   -7.8338 H   0  0  0  0  0  0  0  0  0  0  0  0
   -1.5457   -0.5499   -5.8991 H   0  0  0  0  0  0  0  0  0  0  0  0
   -0.8312   -1.7793   -3.8680 H   0  0  0  0  0  0  0  0  0  0  0  0
    1.4244   -2.8147   -3.7731 H   0  0  0  0  0  0  0  0  0  0  0  0
    5.3444   -2.3593   -1.3749 Al  0  0  0  0  0  0  0  0  0  0  0  0
    6.4913   -3.8237   -0.3864 Cl  0  0  0  0  0  0  0  0  0  0  0  0
    5.7281   -0.3112   -0.6034 Cl  0  0  0  0  0  0  0  0  0  0  0  0
    5.5831   -2.1938   -3.5107 Cl  0  0  0  0  0  0  0  0  0  0  0  0
    3.1655   -2.6098   -1.0585 Cl  0  0  0  0  0  0  0  0  0  0  0  0
  1  3  1  0  0  0  0
  2  1  1  0  0  0  0
  3  4  1  0  0  0  0
  3  5  1  0  0  0  0
  6 12  1  0  0  0  0
  6 11  2  0  0  0  0
  7  6  1  0  0  0  0
  8  7  2  0  0  0  0
  8  9  1  0  0  0  0
  9 10  2  0  0  0  0
 10 11  1  0  0  0  0
 10 16  1  0  0  0  0
 11 17  1  0  0  0  0
 13  7  1  0  0  0  0
 14  8  1  0  0  0  0
 15  9  1  0  0  0  0
 18 22  1  0  0  0  0
 18 20  1  0  0  0  0
 18 19  1  0  0  0  0
 21 18  1  0  0  0  0
M  RAD  2   1   2   2   3
M  END
