Coordinates from ORCA-job C6H6+AlCl4-+NH2N2+-scan
 OpenBabel10161817473D

 22 20  0  0  0  0  0  0  0  0999 V2000
    2.9832    0.3602   -3.5686 N   0  0  0  0  0  0  0  0  0  0  0  0
    3.0096    0.7575   -4.6063 N   0  0  0  0  0  0  0  0  0  0  0  0
    2.9135   -0.0084   -2.3482 N   0  0  0  0  0  0  0  0  0  0  0  0
    2.6577   -1.0169   -2.2266 H   0  0  0  0  0  0  0  0  0  0  0  0
    3.7910    0.2161   -1.7812 H   0  0  0  0  0  0  0  0  0  0  0  0
    1.9407   -2.3496   -5.6227 C   0  0  0  0  0  0  0  0  0  0  0  0
    1.6974   -1.5520   -6.7415 C   0  0  0  0  0  0  0  0  0  0  0  0
    0.5562   -0.7493   -6.7945 C   0  0  0  0  0  0  0  0  0  0  0  0
   -0.3374   -0.7367   -5.7231 C   0  0  0  0  0  0  0  0  0  0  0  0
   -0.0957   -1.5338   -4.6035 C   0  0  0  0  0  0  0  0  0  0  0  0
    1.0417   -2.3433   -4.5539 C   0  0  0  0  0  0  0  0  0  0  0  0
    2.8240   -2.9772   -5.5825 H   0  0  0  0  0  0  0  0  0  0  0  0
    2.3917   -1.5632   -7.5744 H   0  0  0  0  0  0  0  0  0  0  0  0
    0.3636   -0.1375   -7.6689 H   0  0  0  0  0  0  0  0  0  0  0  0
   -1.2264   -0.1170   -5.7656 H   0  0  0  0  0  0  0  0  0  0  0  0
   -0.8012   -1.5391   -3.7794 H   0  0  0  0  0  0  0  0  0  0  0  0
    1.2188   -2.9853   -3.6975 H   0  0  0  0  0  0  0  0  0  0  0  0
    5.4145   -2.2425   -1.5084 Al  0  0  0  0  0  0  0  0  0  0  0  0
    6.7755   -3.5010   -0.5052 Cl  0  0  0  0  0  0  0  0  0  0  0  0
    5.4063   -0.1790   -0.6708 Cl  0  0  0  0  0  0  0  0  0  0  0  0
    5.7087   -1.9674   -3.6258 Cl  0  0  0  0  0  0  0  0  0  0  0  0
    3.3111   -2.8755   -1.2850 Cl  0  0  0  0  0  0  0  0  0  0  0  0
  1  3  1  0  0  0  0
  2  1  1  0  0  0  0
  3  4  1  0  0  0  0
  3  5  1  0  0  0  0
  6 12  1  0  0  0  0
  6 11  2  0  0  0  0
  7  6  1  0  0  0  0
  8  7  2  0  0  0  0
  8  9  1  0  0  0  0
  9 10  2  0  0  0  0
 10 11  1  0  0  0  0
 10 16  1  0  0  0  0
 11 17  1  0  0  0  0
 13  7  1  0  0  0  0
 14  8  1  0  0  0  0
 15  9  1  0  0  0  0
 18 22  1  0  0  0  0
 18 20  1  0  0  0  0
 18 19  1  0  0  0  0
 21 18  1  0  0  0  0
M  RAD  2   1   2   2   3
M  END
