Coordinates from ORCA-job C6H6+AlCl4-+NH2N2+-scan
 OpenBabel10161817473D

 22 20  0  0  0  0  0  0  0  0999 V2000
    4.2488   -2.2156   -3.9543 N   0  0  0  0  0  0  0  0  0  0  0  0
    4.9533   -2.9259   -4.4541 N   0  0  0  0  0  0  0  0  0  0  0  0
    3.2038   -1.4752   -3.6681 N   0  0  0  0  0  0  0  0  0  0  0  0
    2.8487   -1.7374   -2.7075 H   0  0  0  0  0  0  0  0  0  0  0  0
    3.5093   -0.4667   -3.5832 H   0  0  0  0  0  0  0  0  0  0  0  0
    1.4322   -1.1562   -6.8823 C   0  0  0  0  0  0  0  0  0  0  0  0
    1.5972   -0.4373   -5.7028 C   0  0  0  0  0  0  0  0  0  0  0  0
    1.2799   -1.0273   -4.4697 C   0  0  0  0  0  0  0  0  0  0  0  0
    0.6471   -2.2798   -4.4512 C   0  0  0  0  0  0  0  0  0  0  0  0
    0.4837   -2.9955   -5.6328 C   0  0  0  0  0  0  0  0  0  0  0  0
    0.8886   -2.4418   -6.8489 C   0  0  0  0  0  0  0  0  0  0  0  0
    1.7029   -0.7073   -7.8315 H   0  0  0  0  0  0  0  0  0  0  0  0
    1.9918    0.5732   -5.7307 H   0  0  0  0  0  0  0  0  0  0  0  0
    1.2596   -0.4103   -3.5771 H   0  0  0  0  0  0  0  0  0  0  0  0
    0.3055   -2.6969   -3.5094 H   0  0  0  0  0  0  0  0  0  0  0  0
    0.0180   -3.9746   -5.6120 H   0  0  0  0  0  0  0  0  0  0  0  0
    0.7549   -2.9983   -7.7697 H   0  0  0  0  0  0  0  0  0  0  0  0
    4.1373    0.1129   -0.6619 Al  0  0  0  0  0  0  0  0  0  0  0  0
    4.1442    1.3065    1.0760 Cl  0  0  0  0  0  0  0  0  0  0  0  0
    3.8029    1.3055   -2.5051 Cl  0  0  0  0  0  0  0  0  0  0  0  0
    5.8887   -1.0667   -1.0636 Cl  0  0  0  0  0  0  0  0  0  0  0  0
    2.4461   -1.3260   -0.6935 Cl  0  0  0  0  0  0  0  0  0  0  0  0
  1  3  1  0  0  0  0
  2  1  1  0  0  0  0
  3  5  1  0  0  0  0
  3  4  1  0  0  0  0
  6 11  2  0  0  0  0
  6  7  1  0  0  0  0
  7  8  2  0  0  0  0
  8  9  1  0  0  0  0
  8 14  1  0  0  0  0
  9 15  1  0  0  0  0
 10 16  1  0  0  0  0
 10  9  2  0  0  0  0
 11 10  1  0  0  0  0
 12  6  1  0  0  0  0
 13  7  1  0  0  0  0
 17 11  1  0  0  0  0
 18 19  1  0  0  0  0
 20 18  1  0  0  0  0
 21 18  1  0  0  0  0
 22 18  1  0  0  0  0
M  RAD  2   1   2   2   3
M  END
