Coordinates from ORCA-job C6H6+AlCl4-+NH2N2+-scan
 OpenBabel10161817473D

 22 20  0  0  0  0  0  0  0  0999 V2000
    3.9584   -1.0486   -4.5446 N   0  0  0  0  0  0  0  0  0  0  0  0
    4.2434   -1.8701   -5.2366 N   0  0  0  0  0  0  0  0  0  0  0  0
    3.7043   -0.0341   -3.8128 N   0  0  0  0  0  0  0  0  0  0  0  0
    2.7777   -0.0799   -3.3478 H   0  0  0  0  0  0  0  0  0  0  0  0
    4.4847    0.1951   -3.1168 H   0  0  0  0  0  0  0  0  0  0  0  0
    1.3726   -1.7132   -6.9834 C   0  0  0  0  0  0  0  0  0  0  0  0
    1.0602   -0.6110   -6.1886 C   0  0  0  0  0  0  0  0  0  0  0  0
    0.7931   -0.7867   -4.8280 C   0  0  0  0  0  0  0  0  0  0  0  0
    0.8314   -2.0646   -4.2642 C   0  0  0  0  0  0  0  0  0  0  0  0
    1.1461   -3.1658   -5.0618 C   0  0  0  0  0  0  0  0  0  0  0  0
    1.4162   -2.9900   -6.4193 C   0  0  0  0  0  0  0  0  0  0  0  0
    1.5726   -1.5807   -8.0409 H   0  0  0  0  0  0  0  0  0  0  0  0
    1.0102    0.3795   -6.6275 H   0  0  0  0  0  0  0  0  0  0  0  0
    0.5142    0.0647   -4.2149 H   0  0  0  0  0  0  0  0  0  0  0  0
    0.6139   -2.1985   -3.2107 H   0  0  0  0  0  0  0  0  0  0  0  0
    1.1756   -4.1575   -4.6251 H   0  0  0  0  0  0  0  0  0  0  0  0
    1.6542   -3.8474   -7.0392 H   0  0  0  0  0  0  0  0  0  0  0  0
    3.8343   -0.7518   -0.4170 Al  0  0  0  0  0  0  0  0  0  0  0  0
    3.9783   -0.7035    1.6869 Cl  0  0  0  0  0  0  0  0  0  0  0  0
    5.4063    0.4979   -1.3854 Cl  0  0  0  0  0  0  0  0  0  0  0  0
    4.0304   -2.6827   -1.3595 Cl  0  0  0  0  0  0  0  0  0  0  0  0
    1.9666    0.1083   -1.1964 Cl  0  0  0  0  0  0  0  0  0  0  0  0
  1  3  1  0  0  0  0
  2  1  1  0  0  0  0
  3  4  1  0  0  0  0
  3  5  1  0  0  0  0
  6 11  2  0  0  0  0
  6  7  1  0  0  0  0
  7  8  2  0  0  0  0
  8  9  1  0  0  0  0
  8 14  1  0  0  0  0
  9 15  1  0  0  0  0
 10 16  1  0  0  0  0
 10  9  2  0  0  0  0
 11 10  1  0  0  0  0
 12  6  1  0  0  0  0
 13  7  1  0  0  0  0
 17 11  1  0  0  0  0
 18 19  1  0  0  0  0
 20 18  1  0  0  0  0
 21 18  1  0  0  0  0
 22 18  1  0  0  0  0
M  RAD  2   1   2   2   3
M  END
