Coordinates from ORCA-job C6H6+AlCl4-+NH2N2+-scan
 OpenBabel10161817473D

 22 20  0  0  0  0  0  0  0  0999 V2000
    2.8824   -0.5800   -0.6227 N   0  0  0  0  0  0  0  0  0  0  0  0
    1.9313   -0.0916   -0.9292 N   0  0  0  0  0  0  0  0  0  0  0  0
    3.9327   -1.1564   -0.1880 N   0  0  0  0  0  0  0  0  0  0  0  0
    4.2022   -2.0252   -0.7416 H   0  0  0  0  0  0  0  0  0  0  0  0
    4.7834   -0.5170   -0.1424 H   0  0  0  0  0  0  0  0  0  0  0  0
    0.0242   -2.9570   -6.1133 C   0  0  0  0  0  0  0  0  0  0  0  0
    1.2934   -2.3953   -5.9784 C   0  0  0  0  0  0  0  0  0  0  0  0
    1.4670   -1.0191   -6.1238 C   0  0  0  0  0  0  0  0  0  0  0  0
    0.3697   -0.2054   -6.4041 C   0  0  0  0  0  0  0  0  0  0  0  0
   -0.8997   -0.7667   -6.5388 C   0  0  0  0  0  0  0  0  0  0  0  0
   -1.0727   -2.1426   -6.3930 C   0  0  0  0  0  0  0  0  0  0  0  0
   -0.1095   -4.0281   -6.0043 H   0  0  0  0  0  0  0  0  0  0  0  0
    2.1483   -3.0277   -5.7643 H   0  0  0  0  0  0  0  0  0  0  0  0
    2.4550   -0.5848   -6.0162 H   0  0  0  0  0  0  0  0  0  0  0  0
    0.5049    0.8647   -6.5203 H   0  0  0  0  0  0  0  0  0  0  0  0
   -1.7524   -0.1334   -6.7597 H   0  0  0  0  0  0  0  0  0  0  0  0
   -2.0597   -2.5797   -6.5007 H   0  0  0  0  0  0  0  0  0  0  0  0
    6.3709   -1.1283   -2.6034 Al  0  0  0  0  0  0  0  0  0  0  0  0
    8.1541   -1.3789   -3.6934 Cl  0  0  0  0  0  0  0  0  0  0  0  0
    6.6733   -0.0193   -0.7025 Cl  0  0  0  0  0  0  0  0  0  0  0  0
    4.7390   -0.1117   -3.5749 Cl  0  0  0  0  0  0  0  0  0  0  0  0
    5.5068   -3.0569   -1.9187 Cl  0  0  0  0  0  0  0  0  0  0  0  0
  1  3  1  0  0  0  0
  2  1  1  0  0  0  0
  3  5  1  0  0  0  0
  4  3  1  0  0  0  0
  6 12  1  0  0  0  0
  6  7  1  0  0  0  0
  7 13  1  0  0  0  0
  8 14  1  0  0  0  0
  8  7  2  0  0  0  0
  9  8  1  0  0  0  0
 10  9  2  0  0  0  0
 10 11  1  0  0  0  0
 11  6  2  0  0  0  0
 15  9  1  0  0  0  0
 16 10  1  0  0  0  0
 17 11  1  0  0  0  0
 18 22  1  0  0  0  0
 18 20  1  0  0  0  0
 19 18  1  0  0  0  0
 21 18  1  0  0  0  0
M  RAD  2   1   2   2   3
M  END
