Coordinates from ORCA-job C6H6+AlCl4-+NH2N2+-scan
 OpenBabel10161817473D

 22 19  0  0  0  0  0  0  0  0999 V2000
    6.4313   -1.7418   -4.3743 N   0  0  0  0  0  0  0  0  0  0  0  0
    7.3040   -1.2723   -3.9078 N   0  0  0  0  0  0  0  0  0  0  0  0
    3.3015   -3.4037   -4.5530 N   0  0  0  0  0  0  0  0  0  0  0  0
    3.2459   -3.4604   -3.5393 H   0  0  0  0  0  0  0  0  0  0  0  0
    4.2167   -3.0253   -4.7819 H   0  0  0  0  0  0  0  0  0  0  0  0
    1.4028   -0.7747   -6.6977 C   0  0  0  0  0  0  0  0  0  0  0  0
    2.3886   -1.6470   -6.2413 C   0  0  0  0  0  0  0  0  0  0  0  0
    2.2106   -2.3019   -5.0261 C   0  0  0  0  0  0  0  0  0  0  0  0
    1.0583   -2.0907   -4.2625 C   0  0  0  0  0  0  0  0  0  0  0  0
    0.0641   -1.2257   -4.7460 C   0  0  0  0  0  0  0  0  0  0  0  0
    0.2381   -0.5604   -5.9568 C   0  0  0  0  0  0  0  0  0  0  0  0
    1.5424   -0.2622   -7.6432 H   0  0  0  0  0  0  0  0  0  0  0  0
    3.2806   -1.8278   -6.8296 H   0  0  0  0  0  0  0  0  0  0  0  0
    1.8398   -0.3914   -3.4786 H   0  0  0  0  0  0  0  0  0  0  0  0
    0.9042   -2.6395   -3.3397 H   0  0  0  0  0  0  0  0  0  0  0  0
   -0.8372   -1.0756   -4.1621 H   0  0  0  0  0  0  0  0  0  0  0  0
   -0.5272    0.1124   -6.3244 H   0  0  0  0  0  0  0  0  0  0  0  0
    2.7284   -0.3910   -0.6232 Al  0  0  0  0  0  0  0  0  0  0  0  0
    0.7413   -0.9708   -0.1951 Cl  0  0  0  0  0  0  0  0  0  0  0  0
    2.4335    0.6338   -2.8508 Cl  0  0  0  0  0  0  0  0  0  0  0  0
    3.5360    1.2646    0.3933 Cl  0  0  0  0  0  0  0  0  0  0  0  0
    4.0409   -1.9890   -1.0934 Cl  0  0  0  0  0  0  0  0  0  0  0  0
  1  2  3  0  0  0  0
  3  4  1  0  0  0  0
  5  3  1  0  0  0  0
  6  7  2  0  0  0  0
  6 11  1  0  0  0  0
  7  8  1  0  0  0  0
  8  3  1  0  0  0  0
  8  9  2  0  0  0  0
  9 15  1  0  0  0  0
 10  9  1  0  0  0  0
 10 16  1  0  0  0  0
 11 10  2  0  0  0  0
 12  6  1  0  0  0  0
 13  7  1  0  0  0  0
 14 20  1  0  0  0  0
 17 11  1  0  0  0  0
 18 19  1  0  0  0  0
 18 21  1  0  0  0  0
 22 18  1  0  0  0  0
M  END
