Coordinates from ORCA-job C6H6+AlCl4-+NH2N2+-scan
 OpenBabel10161817473D

 22 20  0  0  0  0  0  0  0  0999 V2000
    3.2766    0.5095   -3.3792 N   0  0  0  0  0  0  0  0  0  0  0  0
    3.2507    0.7901   -4.4546 N   0  0  0  0  0  0  0  0  0  0  0  0
    3.2511    0.2544   -2.1290 N   0  0  0  0  0  0  0  0  0  0  0  0
    2.8652   -0.7026   -1.9001 H   0  0  0  0  0  0  0  0  0  0  0  0
    4.1940    0.3691   -1.6490 H   0  0  0  0  0  0  0  0  0  0  0  0
    1.9847   -2.1123   -5.7458 C   0  0  0  0  0  0  0  0  0  0  0  0
    1.5682   -1.4494   -6.9014 C   0  0  0  0  0  0  0  0  0  0  0  0
    0.2842   -0.9082   -6.9728 C   0  0  0  0  0  0  0  0  0  0  0  0
   -0.5818   -1.0235   -5.8854 C   0  0  0  0  0  0  0  0  0  0  0  0
   -0.1673   -1.6858   -4.7296 C   0  0  0  0  0  0  0  0  0  0  0  0
    1.1149   -2.2328   -4.6598 C   0  0  0  0  0  0  0  0  0  0  0  0
    2.9772   -2.5465   -5.6924 H   0  0  0  0  0  0  0  0  0  0  0  0
    2.2404   -1.3647   -7.7483 H   0  0  0  0  0  0  0  0  0  0  0  0
   -0.0415   -0.4008   -7.8743 H   0  0  0  0  0  0  0  0  0  0  0  0
   -1.5815   -0.6066   -5.9422 H   0  0  0  0  0  0  0  0  0  0  0  0
   -0.8471   -1.7892   -3.8905 H   0  0  0  0  0  0  0  0  0  0  0  0
    1.4306   -2.7722   -3.7727 H   0  0  0  0  0  0  0  0  0  0  0  0
    5.3462   -2.3747   -1.3708 Al  0  0  0  0  0  0  0  0  0  0  0  0
    6.4716   -3.8684   -0.4019 Cl  0  0  0  0  0  0  0  0  0  0  0  0
    5.7820   -0.3389   -0.5964 Cl  0  0  0  0  0  0  0  0  0  0  0  0
    5.5608   -2.2059   -3.5087 Cl  0  0  0  0  0  0  0  0  0  0  0  0
    3.1653   -2.5812   -1.0289 Cl  0  0  0  0  0  0  0  0  0  0  0  0
  1  3  1  0  0  0  0
  2  1  1  0  0  0  0
  3  4  1  0  0  0  0
  3  5  1  0  0  0  0
  6 12  1  0  0  0  0
  6 11  2  0  0  0  0
  7  6  1  0  0  0  0
  8  7  2  0  0  0  0
  8  9  1  0  0  0  0
  9 10  2  0  0  0  0
 10 11  1  0  0  0  0
 10 16  1  0  0  0  0
 11 17  1  0  0  0  0
 13  7  1  0  0  0  0
 14  8  1  0  0  0  0
 15  9  1  0  0  0  0
 18 22  1  0  0  0  0
 18 20  1  0  0  0  0
 18 19  1  0  0  0  0
 21 18  1  0  0  0  0
M  RAD  2   1   2   2   3
M  END
