Coordinates from ORCA-job C6H6+AlCl4-+NH2N2+-scan
 OpenBabel10161817473D

 22 20  0  0  0  0  0  0  0  0999 V2000
    3.9533   -1.0560   -4.5419 N   0  0  0  0  0  0  0  0  0  0  0  0
    4.2446   -1.8793   -5.2292 N   0  0  0  0  0  0  0  0  0  0  0  0
    3.6923   -0.0396   -3.8154 N   0  0  0  0  0  0  0  0  0  0  0  0
    2.7652   -0.0881   -3.3531 H   0  0  0  0  0  0  0  0  0  0  0  0
    4.4708    0.1978   -3.1196 H   0  0  0  0  0  0  0  0  0  0  0  0
    1.3735   -1.7093   -6.9837 C   0  0  0  0  0  0  0  0  0  0  0  0
    1.0733   -0.6089   -6.1817 C   0  0  0  0  0  0  0  0  0  0  0  0
    0.8100   -0.7900   -4.8211 C   0  0  0  0  0  0  0  0  0  0  0  0
    0.8385   -2.0714   -4.2647 C   0  0  0  0  0  0  0  0  0  0  0  0
    1.1410   -3.1708   -5.0696 C   0  0  0  0  0  0  0  0  0  0  0  0
    1.4081   -2.9896   -6.4269 C   0  0  0  0  0  0  0  0  0  0  0  0
    1.5710   -1.5725   -8.0412 H   0  0  0  0  0  0  0  0  0  0  0  0
    1.0302    0.3845   -6.6149 H   0  0  0  0  0  0  0  0  0  0  0  0
    0.5398    0.0602   -4.2025 H   0  0  0  0  0  0  0  0  0  0  0  0
    0.6238   -2.2094   -3.2112 H   0  0  0  0  0  0  0  0  0  0  0  0
    1.1633   -4.1652   -4.6387 H   0  0  0  0  0  0  0  0  0  0  0  0
    1.6368   -3.8453   -7.0524 H   0  0  0  0  0  0  0  0  0  0  0  0
    3.8333   -0.7427   -0.4158 Al  0  0  0  0  0  0  0  0  0  0  0  0
    3.9858   -0.6886    1.6875 Cl  0  0  0  0  0  0  0  0  0  0  0  0
    5.3965    0.5110   -1.3934 Cl  0  0  0  0  0  0  0  0  0  0  0  0
    4.0343   -2.6752   -1.3540 Cl  0  0  0  0  0  0  0  0  0  0  0  0
    1.9594    0.1077   -1.1902 Cl  0  0  0  0  0  0  0  0  0  0  0  0
  1  3  1  0  0  0  0
  2  1  1  0  0  0  0
  3  4  1  0  0  0  0
  3  5  1  0  0  0  0
  6 11  2  0  0  0  0
  6  7  1  0  0  0  0
  7  8  2  0  0  0  0
  8  9  1  0  0  0  0
  8 14  1  0  0  0  0
  9 15  1  0  0  0  0
 10 16  1  0  0  0  0
 10  9  2  0  0  0  0
 11 10  1  0  0  0  0
 12  6  1  0  0  0  0
 13  7  1  0  0  0  0
 17 11  1  0  0  0  0
 18 19  1  0  0  0  0
 20 18  1  0  0  0  0
 21 18  1  0  0  0  0
 22 18  1  0  0  0  0
M  RAD  2   1   2   2   3
M  END
