Coordinates from ORCA-job C6H6+AlCl4-+NH2N2+-scan
 OpenBabel10161817473D

 22 20  0  0  0  0  0  0  0  0999 V2000
    3.7615   -0.3897   -4.5072 N   0  0  0  0  0  0  0  0  0  0  0  0
    4.1095   -0.8317   -5.4659 N   0  0  0  0  0  0  0  0  0  0  0  0
    3.3950    0.2196   -3.4464 N   0  0  0  0  0  0  0  0  0  0  0  0
    2.6033   -0.2435   -2.9546 H   0  0  0  0  0  0  0  0  0  0  0  0
    4.1995    0.4246   -2.7715 H   0  0  0  0  0  0  0  0  0  0  0  0
    1.5556   -2.1986   -6.8617 C   0  0  0  0  0  0  0  0  0  0  0  0
    0.9886   -0.9257   -6.7757 C   0  0  0  0  0  0  0  0  0  0  0  0
    0.4715   -0.4743   -5.5614 C   0  0  0  0  0  0  0  0  0  0  0  0
    0.5176   -1.2992   -4.4341 C   0  0  0  0  0  0  0  0  0  0  0  0
    1.0909   -2.5702   -4.5186 C   0  0  0  0  0  0  0  0  0  0  0  0
    1.6091   -3.0191   -5.7338 C   0  0  0  0  0  0  0  0  0  0  0  0
    1.9510   -2.5523   -7.8075 H   0  0  0  0  0  0  0  0  0  0  0  0
    0.9415   -0.2922   -7.6548 H   0  0  0  0  0  0  0  0  0  0  0  0
    0.0152    0.5076   -5.4966 H   0  0  0  0  0  0  0  0  0  0  0  0
    0.0918   -0.9624   -3.4947 H   0  0  0  0  0  0  0  0  0  0  0  0
    1.1297   -3.2057   -3.6414 H   0  0  0  0  0  0  0  0  0  0  0  0
    2.0501   -4.0072   -5.8011 H   0  0  0  0  0  0  0  0  0  0  0  0
    4.2352   -1.5266   -0.5683 Al  0  0  0  0  0  0  0  0  0  0  0  0
    4.6783   -2.1395    1.4006 Cl  0  0  0  0  0  0  0  0  0  0  0  0
    5.2890    0.3619   -1.1087 Cl  0  0  0  0  0  0  0  0  0  0  0  0
    4.7449   -2.8983   -2.1525 Cl  0  0  0  0  0  0  0  0  0  0  0  0
    2.1159   -1.0183   -0.8777 Cl  0  0  0  0  0  0  0  0  0  0  0  0
  1  3  1  0  0  0  0
  2  1  1  0  0  0  0
  3  4  1  0  0  0  0
  3  5  1  0  0  0  0
  6  7  2  0  0  0  0
  6 11  1  0  0  0  0
  7  8  1  0  0  0  0
  8 14  1  0  0  0  0
  8  9  2  0  0  0  0
  9 15  1  0  0  0  0
 10  9  1  0  0  0  0
 10 16  1  0  0  0  0
 11 10  2  0  0  0  0
 12  6  1  0  0  0  0
 13  7  1  0  0  0  0
 17 11  1  0  0  0  0
 18 19  1  0  0  0  0
 20 18  1  0  0  0  0
 21 18  1  0  0  0  0
 22 18  1  0  0  0  0
M  RAD  2   1   2   2   3
M  END
