Coordinates from ORCA-job C6H6+AlCl4-+NH2N2+-scan
 OpenBabel10161817473D

 22 20  0  0  0  0  0  0  0  0999 V2000
    2.8491    0.3091   -3.7013 N   0  0  0  0  0  0  0  0  0  0  0  0
    2.9031    0.7667   -4.7131 N   0  0  0  0  0  0  0  0  0  0  0  0
    2.7544   -0.1145   -2.5002 N   0  0  0  0  0  0  0  0  0  0  0  0
    2.5369   -1.1303   -2.4308 H   0  0  0  0  0  0  0  0  0  0  0  0
    3.5972    0.1379   -1.8908 H   0  0  0  0  0  0  0  0  0  0  0  0
    1.9051   -2.4819   -5.5572 C   0  0  0  0  0  0  0  0  0  0  0  0
    1.7775   -1.6007   -6.6312 C   0  0  0  0  0  0  0  0  0  0  0  0
    0.7394   -0.6669   -6.6500 C   0  0  0  0  0  0  0  0  0  0  0  0
   -0.1719   -0.6120   -5.5943 C   0  0  0  0  0  0  0  0  0  0  0  0
   -0.0462   -1.4935   -4.5201 C   0  0  0  0  0  0  0  0  0  0  0  0
    0.9915   -2.4299   -4.5022 C   0  0  0  0  0  0  0  0  0  0  0  0
    2.7107   -3.2068   -5.5395 H   0  0  0  0  0  0  0  0  0  0  0  0
    2.4828   -1.6444   -7.4535 H   0  0  0  0  0  0  0  0  0  0  0  0
    0.6373    0.0120   -7.4895 H   0  0  0  0  0  0  0  0  0  0  0  0
   -0.9833    0.1073   -5.6145 H   0  0  0  0  0  0  0  0  0  0  0  0
   -0.7640   -1.4648   -3.7072 H   0  0  0  0  0  0  0  0  0  0  0  0
    1.0799   -3.1307   -3.6791 H   0  0  0  0  0  0  0  0  0  0  0  0
    5.4026   -2.1641   -1.6002 Al  0  0  0  0  0  0  0  0  0  0  0  0
    6.8578   -3.3048   -0.5859 Cl  0  0  0  0  0  0  0  0  0  0  0  0
    5.1911   -0.1217   -0.7327 Cl  0  0  0  0  0  0  0  0  0  0  0  0
    5.7270   -1.8223   -3.7050 Cl  0  0  0  0  0  0  0  0  0  0  0  0
    3.3665   -2.9843   -1.4353 Cl  0  0  0  0  0  0  0  0  0  0  0  0
  1  3  1  0  0  0  0
  2  1  1  0  0  0  0
  3  4  1  0  0  0  0
  3  5  1  0  0  0  0
  6 12  1  0  0  0  0
  6 11  2  0  0  0  0
  7  6  1  0  0  0  0
  8  7  2  0  0  0  0
  8  9  1  0  0  0  0
  9 10  2  0  0  0  0
 10 11  1  0  0  0  0
 10 16  1  0  0  0  0
 11 17  1  0  0  0  0
 13  7  1  0  0  0  0
 14  8  1  0  0  0  0
 15  9  1  0  0  0  0
 18 22  1  0  0  0  0
 18 20  1  0  0  0  0
 18 19  1  0  0  0  0
 21 18  1  0  0  0  0
M  RAD  2   1   2   2   3
M  END
