Coordinates from ORCA-job C6H6+AlCl4-+NH2N2+-scan
 OpenBabel10161817473D

 22 20  0  0  0  0  0  0  0  0999 V2000
    3.3265    0.5599   -3.2880 N   0  0  0  0  0  0  0  0  0  0  0  0
    3.2729    0.8379   -4.3631 N   0  0  0  0  0  0  0  0  0  0  0  0
    3.3301    0.3071   -2.0369 N   0  0  0  0  0  0  0  0  0  0  0  0
    2.9278   -0.6428   -1.7976 H   0  0  0  0  0  0  0  0  0  0  0  0
    4.2898    0.3924   -1.5862 H   0  0  0  0  0  0  0  0  0  0  0  0
    1.9699   -2.0801   -5.7641 C   0  0  0  0  0  0  0  0  0  0  0  0
    1.5420   -1.4589   -6.9385 C   0  0  0  0  0  0  0  0  0  0  0  0
    0.2420   -0.9618   -7.0323 C   0  0  0  0  0  0  0  0  0  0  0  0
   -0.6291   -1.0792   -5.9493 C   0  0  0  0  0  0  0  0  0  0  0  0
   -0.2029   -1.6996   -4.7747 C   0  0  0  0  0  0  0  0  0  0  0  0
    1.0957   -2.2027   -4.6823 C   0  0  0  0  0  0  0  0  0  0  0  0
    2.9749   -2.4820   -5.6933 H   0  0  0  0  0  0  0  0  0  0  0  0
    2.2182   -1.3725   -7.7821 H   0  0  0  0  0  0  0  0  0  0  0  0
   -0.0924   -0.4865   -7.9481 H   0  0  0  0  0  0  0  0  0  0  0  0
   -1.6411   -0.6962   -6.0237 H   0  0  0  0  0  0  0  0  0  0  0  0
   -0.8857   -1.8044   -3.9383 H   0  0  0  0  0  0  0  0  0  0  0  0
    1.4209   -2.7105   -3.7799 H   0  0  0  0  0  0  0  0  0  0  0  0
    5.3562   -2.3957   -1.3634 Al  0  0  0  0  0  0  0  0  0  0  0  0
    6.4487   -3.9403   -0.4382 Cl  0  0  0  0  0  0  0  0  0  0  0  0
    5.8796   -0.3858   -0.5778 Cl  0  0  0  0  0  0  0  0  0  0  0  0
    5.5242   -2.2074   -3.5037 Cl  0  0  0  0  0  0  0  0  0  0  0  0
    3.1765   -2.5314   -0.9721 Cl  0  0  0  0  0  0  0  0  0  0  0  0
  1  3  1  0  0  0  0
  2  1  1  0  0  0  0
  3  4  1  0  0  0  0
  3  5  1  0  0  0  0
  6 12  1  0  0  0  0
  6 11  2  0  0  0  0
  7  6  1  0  0  0  0
  8  7  2  0  0  0  0
  8  9  1  0  0  0  0
  9 10  2  0  0  0  0
 10 11  1  0  0  0  0
 10 16  1  0  0  0  0
 11 17  1  0  0  0  0
 13  7  1  0  0  0  0
 14  8  1  0  0  0  0
 15  9  1  0  0  0  0
 18 22  1  0  0  0  0
 18 20  1  0  0  0  0
 18 19  1  0  0  0  0
 21 18  1  0  0  0  0
M  RAD  2   1   2   2   3
M  END
