Coordinates from ORCA-job C6H6+AlCl4-+NH2N2+-scan
 OpenBabel10161817473D

 22 20  0  0  0  0  0  0  0  0999 V2000
    3.7191   -0.3072   -4.4945 N   0  0  0  0  0  0  0  0  0  0  0  0
    4.0613   -0.6886   -5.4810 N   0  0  0  0  0  0  0  0  0  0  0  0
    3.3533    0.2373   -3.3990 N   0  0  0  0  0  0  0  0  0  0  0  0
    2.5851   -0.2730   -2.9159 H   0  0  0  0  0  0  0  0  0  0  0  0
    4.1620    0.4371   -2.7281 H   0  0  0  0  0  0  0  0  0  0  0  0
    1.5876   -2.2469   -6.8164 C   0  0  0  0  0  0  0  0  0  0  0  0
    1.0126   -0.9744   -6.8129 C   0  0  0  0  0  0  0  0  0  0  0  0
    0.4608   -0.4625   -5.6386 C   0  0  0  0  0  0  0  0  0  0  0  0
    0.4801   -1.2264   -4.4687 C   0  0  0  0  0  0  0  0  0  0  0  0
    1.0603   -2.4975   -4.4708 C   0  0  0  0  0  0  0  0  0  0  0  0
    1.6136   -3.0068   -5.6461 C   0  0  0  0  0  0  0  0  0  0  0  0
    2.0105   -2.6472   -7.7312 H   0  0  0  0  0  0  0  0  0  0  0  0
    0.9873   -0.3883   -7.7250 H   0  0  0  0  0  0  0  0  0  0  0  0
   -0.0005    0.5192   -5.6379 H   0  0  0  0  0  0  0  0  0  0  0  0
    0.0273   -0.8426   -3.5604 H   0  0  0  0  0  0  0  0  0  0  0  0
    1.0768   -3.0863   -3.5610 H   0  0  0  0  0  0  0  0  0  0  0  0
    2.0608   -3.9943   -5.6487 H   0  0  0  0  0  0  0  0  0  0  0  0
    4.2844   -1.6040   -0.6106 Al  0  0  0  0  0  0  0  0  0  0  0  0
    4.7611   -2.2862    1.3274 Cl  0  0  0  0  0  0  0  0  0  0  0  0
    5.2595    0.3469   -1.0698 Cl  0  0  0  0  0  0  0  0  0  0  0  0
    4.8378   -2.8821   -2.2568 Cl  0  0  0  0  0  0  0  0  0  0  0  0
    2.1440   -1.1666   -0.8876 Cl  0  0  0  0  0  0  0  0  0  0  0  0
  1  3  1  0  0  0  0
  2  1  1  0  0  0  0
  3  4  1  0  0  0  0
  3  5  1  0  0  0  0
  6  7  2  0  0  0  0
  6 11  1  0  0  0  0
  7  8  1  0  0  0  0
  8 14  1  0  0  0  0
  8  9  2  0  0  0  0
  9 15  1  0  0  0  0
 10  9  1  0  0  0  0
 10 16  1  0  0  0  0
 11 10  2  0  0  0  0
 12  6  1  0  0  0  0
 13  7  1  0  0  0  0
 17 11  1  0  0  0  0
 18 19  1  0  0  0  0
 20 18  1  0  0  0  0
 21 18  1  0  0  0  0
 22 18  1  0  0  0  0
M  RAD  2   1   2   2   3
M  END
