Coordinates from ORCA-job C6H6+AlCl4-+NH2N2+-scan
 OpenBabel10161817473D

 22 20  0  0  0  0  0  0  0  0999 V2000
    3.8513   -1.1226   -4.4755 N   0  0  0  0  0  0  0  0  0  0  0  0
    4.2271   -1.9252   -5.1448 N   0  0  0  0  0  0  0  0  0  0  0  0
    3.4709   -0.1173   -3.7837 N   0  0  0  0  0  0  0  0  0  0  0  0
    2.6164   -0.3015   -3.2229 H   0  0  0  0  0  0  0  0  0  0  0  0
    4.2495    0.2633   -3.1600 H   0  0  0  0  0  0  0  0  0  0  0  0
    1.4434   -1.7076   -7.0056 C   0  0  0  0  0  0  0  0  0  0  0  0
    1.2328   -0.5906   -6.1986 C   0  0  0  0  0  0  0  0  0  0  0  0
    0.9336   -0.7563   -4.8435 C   0  0  0  0  0  0  0  0  0  0  0  0
    0.8147   -2.0395   -4.3040 C   0  0  0  0  0  0  0  0  0  0  0  0
    1.0317   -3.1562   -5.1134 C   0  0  0  0  0  0  0  0  0  0  0  0
    1.3470   -2.9904   -6.4617 C   0  0  0  0  0  0  0  0  0  0  0  0
    1.6730   -1.5810   -8.0577 H   0  0  0  0  0  0  0  0  0  0  0  0
    1.2922    0.4060   -6.6225 H   0  0  0  0  0  0  0  0  0  0  0  0
    0.7200    0.1118   -4.2290 H   0  0  0  0  0  0  0  0  0  0  0  0
    0.5531   -2.1670   -3.2595 H   0  0  0  0  0  0  0  0  0  0  0  0
    0.9450   -4.1518   -4.6935 H   0  0  0  0  0  0  0  0  0  0  0  0
    1.5084   -3.8585   -7.0910 H   0  0  0  0  0  0  0  0  0  0  0  0
    3.9375   -0.7137   -0.3950 Al  0  0  0  0  0  0  0  0  0  0  0  0
    4.1784   -0.6010    1.6974 Cl  0  0  0  0  0  0  0  0  0  0  0  0
    5.2143    0.7611   -1.4664 Cl  0  0  0  0  0  0  0  0  0  0  0  0
    4.3981   -2.6042   -1.3272 Cl  0  0  0  0  0  0  0  0  0  0  0  0
    1.9062   -0.1988   -1.0753 Cl  0  0  0  0  0  0  0  0  0  0  0  0
  1  3  1  0  0  0  0
  2  1  1  0  0  0  0
  3  4  1  0  0  0  0
  3  5  1  0  0  0  0
  6 11  2  0  0  0  0
  6  7  1  0  0  0  0
  7  8  2  0  0  0  0
  8  9  1  0  0  0  0
  8 14  1  0  0  0  0
  9 15  1  0  0  0  0
 10 16  1  0  0  0  0
 10  9  2  0  0  0  0
 11 10  1  0  0  0  0
 12  6  1  0  0  0  0
 13  7  1  0  0  0  0
 17 11  1  0  0  0  0
 18 19  1  0  0  0  0
 20 18  1  0  0  0  0
 21 18  1  0  0  0  0
 22 18  1  0  0  0  0
M  RAD  2   1   2   2   3
M  END
