Coordinates from ORCA-job C6H6+AlCl4-+NH2N2+-scan
 OpenBabel10161817473D

 22 20  0  0  0  0  0  0  0  0999 V2000
    2.8418    0.3041   -3.7279 N   0  0  0  0  0  0  0  0  0  0  0  0
    2.9006    0.7659   -4.7375 N   0  0  0  0  0  0  0  0  0  0  0  0
    2.7409   -0.1224   -2.5283 N   0  0  0  0  0  0  0  0  0  0  0  0
    2.5246   -1.1380   -2.4609 H   0  0  0  0  0  0  0  0  0  0  0  0
    3.5781    0.1329   -1.9129 H   0  0  0  0  0  0  0  0  0  0  0  0
    1.9058   -2.4904   -5.5494 C   0  0  0  0  0  0  0  0  0  0  0  0
    1.7864   -1.5998   -6.6166 C   0  0  0  0  0  0  0  0  0  0  0  0
    0.7564   -0.6568   -6.6280 C   0  0  0  0  0  0  0  0  0  0  0  0
   -0.1571   -0.6039   -5.5740 C   0  0  0  0  0  0  0  0  0  0  0  0
   -0.0398   -1.4953   -4.5070 C   0  0  0  0  0  0  0  0  0  0  0  0
    0.9912   -2.4393   -4.4953 C   0  0  0  0  0  0  0  0  0  0  0  0
    2.7064   -3.2209   -5.5355 H   0  0  0  0  0  0  0  0  0  0  0  0
    2.4923   -1.6422   -7.4384 H   0  0  0  0  0  0  0  0  0  0  0  0
    0.6611    0.0299   -7.4619 H   0  0  0  0  0  0  0  0  0  0  0  0
   -0.9628    0.1217   -5.5899 H   0  0  0  0  0  0  0  0  0  0  0  0
   -0.7581   -1.4676   -3.6946 H   0  0  0  0  0  0  0  0  0  0  0  0
    1.0749   -3.1452   -3.6762 H   0  0  0  0  0  0  0  0  0  0  0  0
    5.3943   -2.1586   -1.6078 Al  0  0  0  0  0  0  0  0  0  0  0  0
    6.8504   -3.2906   -0.5847 Cl  0  0  0  0  0  0  0  0  0  0  0  0
    5.1647   -0.1179   -0.7410 Cl  0  0  0  0  0  0  0  0  0  0  0  0
    5.7301   -1.8147   -3.7104 Cl  0  0  0  0  0  0  0  0  0  0  0  0
    3.3625   -2.9915   -1.4555 Cl  0  0  0  0  0  0  0  0  0  0  0  0
  1  3  1  0  0  0  0
  2  1  1  0  0  0  0
  3  4  1  0  0  0  0
  3  5  1  0  0  0  0
  6 12  1  0  0  0  0
  6 11  2  0  0  0  0
  7  6  1  0  0  0  0
  8  7  2  0  0  0  0
  8  9  1  0  0  0  0
  9 10  2  0  0  0  0
 10 11  1  0  0  0  0
 10 16  1  0  0  0  0
 11 17  1  0  0  0  0
 13  7  1  0  0  0  0
 14  8  1  0  0  0  0
 15  9  1  0  0  0  0
 18 22  1  0  0  0  0
 18 20  1  0  0  0  0
 18 19  1  0  0  0  0
 21 18  1  0  0  0  0
M  RAD  2   1   2   2   3
M  END
