Coordinates from ORCA-job C6H6+AlCl4-+NH2N2+-scan
 OpenBabel10161817473D

 22 20  0  0  0  0  0  0  0  0999 V2000
    6.2890   -1.8278   -4.7755 N   0  0  0  0  0  0  0  0  0  0  0  0
    7.3748   -1.6890   -4.7571 N   0  0  0  0  0  0  0  0  0  0  0  0
    3.0895   -1.9691   -3.9708 N   0  0  0  0  0  0  0  0  0  0  0  0
    2.9757   -2.2718   -2.9756 H   0  0  0  0  0  0  0  0  0  0  0  0
    4.0802   -1.9016   -4.2250 H   0  0  0  0  0  0  0  0  0  0  0  0
    1.4284   -1.0281   -6.8340 C   0  0  0  0  0  0  0  0  0  0  0  0
    2.4736   -1.2559   -6.0131 C   0  0  0  0  0  0  0  0  0  0  0  0
    2.2739   -1.7011   -4.6263 C   0  0  0  0  0  0  0  0  0  0  0  0
    0.8282   -1.7346   -4.1309 C   0  0  0  0  0  0  0  0  0  0  0  0
   -0.2361   -1.5274   -5.1564 C   0  0  0  0  0  0  0  0  0  0  0  0
    0.0461   -1.1844   -6.4202 C   0  0  0  0  0  0  0  0  0  0  0  0
    1.6261   -0.7171   -7.8547 H   0  0  0  0  0  0  0  0  0  0  0  0
    3.4969   -1.1396   -6.3562 H   0  0  0  0  0  0  0  0  0  0  0  0
    0.7495   -0.9399   -3.3696 H   0  0  0  0  0  0  0  0  0  0  0  0
    0.6579   -2.6618   -3.5719 H   0  0  0  0  0  0  0  0  0  0  0  0
   -1.2609   -1.6339   -4.8185 H   0  0  0  0  0  0  0  0  0  0  0  0
   -0.7399   -1.0101   -7.1444 H   0  0  0  0  0  0  0  0  0  0  0  0
    3.2991   -0.5090   -0.5660 Al  0  0  0  0  0  0  0  0  0  0  0  0
    1.6578    0.6342   -1.4086 Cl  0  0  0  0  0  0  0  0  0  0  0  0
    5.0336   -0.2122   -1.8429 Cl  0  0  0  0  0  0  0  0  0  0  0  0
    3.6574   -0.1260    1.4877 Cl  0  0  0  0  0  0  0  0  0  0  0  0
    2.7439   -2.6345   -0.9036 Cl  0  0  0  0  0  0  0  0  0  0  0  0
  1  2  3  0  0  0  0
  3  4  1  0  0  0  0
  5  3  1  0  0  0  0
  6 11  1  0  0  0  0
  6  7  1  0  0  0  0
  7  8  2  0  0  0  0
  8  9  1  0  0  0  0
  8  3  1  0  0  0  0
  9 15  1  0  0  0  0
  9 14  1  0  0  0  0
 10 16  1  0  0  0  0
 10  9  1  0  0  0  0
 11 10  2  0  0  0  0
 12  6  1  0  0  0  0
 13  7  1  0  0  0  0
 17 11  1  0  0  0  0
 18 21  1  0  0  0  0
 19 18  1  0  0  0  0
 20 18  1  0  0  0  0
 22 18  1  0  0  0  0
M  RAD  1   6   2
M  END
