Coordinates from ORCA-job C6H6+AlCl4-+NH2N2+-scan
 OpenBabel10161817473D

 22 20  0  0  0  0  0  0  0  0999 V2000
    2.8892    0.3241   -3.6404 N   0  0  0  0  0  0  0  0  0  0  0  0
    2.9275    0.7569   -4.6636 N   0  0  0  0  0  0  0  0  0  0  0  0
    2.8131   -0.0743   -2.4293 N   0  0  0  0  0  0  0  0  0  0  0  0
    2.5843   -1.0884   -2.3335 H   0  0  0  0  0  0  0  0  0  0  0  0
    3.6735    0.1705   -1.8430 H   0  0  0  0  0  0  0  0  0  0  0  0
    1.9245   -2.4271   -5.5846 C   0  0  0  0  0  0  0  0  0  0  0  0
    1.7456   -1.5827   -6.6808 C   0  0  0  0  0  0  0  0  0  0  0  0
    0.6632   -0.7010   -6.7160 C   0  0  0  0  0  0  0  0  0  0  0  0
   -0.2381   -0.6590   -5.6514 C   0  0  0  0  0  0  0  0  0  0  0  0
   -0.0609   -1.5034   -4.5545 C   0  0  0  0  0  0  0  0  0  0  0  0
    1.0194   -2.3894   -4.5218 C   0  0  0  0  0  0  0  0  0  0  0  0
    2.7639   -3.1125   -5.5559 H   0  0  0  0  0  0  0  0  0  0  0  0
    2.4449   -1.6162   -7.5088 H   0  0  0  0  0  0  0  0  0  0  0  0
    0.5211   -0.0515   -7.5727 H   0  0  0  0  0  0  0  0  0  0  0  0
   -1.0826    0.0207   -5.6819 H   0  0  0  0  0  0  0  0  0  0  0  0
   -0.7718   -1.4853   -3.7354 H   0  0  0  0  0  0  0  0  0  0  0  0
    1.1472   -3.0639   -3.6819 H   0  0  0  0  0  0  0  0  0  0  0  0
    5.4091   -2.1980   -1.5648 Al  0  0  0  0  0  0  0  0  0  0  0  0
    6.8289   -3.3867   -0.5565 Cl  0  0  0  0  0  0  0  0  0  0  0  0
    5.2846   -0.1425   -0.7134 Cl  0  0  0  0  0  0  0  0  0  0  0  0
    5.7151   -1.8897   -3.6765 Cl  0  0  0  0  0  0  0  0  0  0  0  0
    3.3430   -2.9411   -1.3670 Cl  0  0  0  0  0  0  0  0  0  0  0  0
  1  3  1  0  0  0  0
  2  1  1  0  0  0  0
  3  4  1  0  0  0  0
  3  5  1  0  0  0  0
  6 12  1  0  0  0  0
  6 11  2  0  0  0  0
  7  6  1  0  0  0  0
  8  7  2  0  0  0  0
  8  9  1  0  0  0  0
  9 10  2  0  0  0  0
 10 11  1  0  0  0  0
 10 16  1  0  0  0  0
 11 17  1  0  0  0  0
 13  7  1  0  0  0  0
 14  8  1  0  0  0  0
 15  9  1  0  0  0  0
 18 22  1  0  0  0  0
 18 20  1  0  0  0  0
 18 19  1  0  0  0  0
 21 18  1  0  0  0  0
M  RAD  2   1   2   2   3
M  END
