Coordinates from ORCA-job C6H6+AlCl4-+NH2N2+-scan
 OpenBabel10161817473D

 22 20  0  0  0  0  0  0  0  0999 V2000
    3.2927    0.1458   -4.2022 N   0  0  0  0  0  0  0  0  0  0  0  0
    3.5770    0.2373   -5.2730 N   0  0  0  0  0  0  0  0  0  0  0  0
    2.9582    0.1564   -2.9705 N   0  0  0  0  0  0  0  0  0  0  0  0
    2.4522   -0.7005   -2.6699 H   0  0  0  0  0  0  0  0  0  0  0  0
    3.7688    0.3818   -2.3080 H   0  0  0  0  0  0  0  0  0  0  0  0
    1.8802   -2.4670   -6.2243 C   0  0  0  0  0  0  0  0  0  0  0  0
    1.3787   -1.3537   -6.9007 C   0  0  0  0  0  0  0  0  0  0  0  0
    0.4691   -0.5025   -6.2700 C   0  0  0  0  0  0  0  0  0  0  0  0
    0.0518   -0.7704   -4.9663 C   0  0  0  0  0  0  0  0  0  0  0  0
    0.5510   -1.8873   -4.2908 C   0  0  0  0  0  0  0  0  0  0  0  0
    1.4698   -2.7326   -4.9174 C   0  0  0  0  0  0  0  0  0  0  0  0
    2.5876   -3.1272   -6.7132 H   0  0  0  0  0  0  0  0  0  0  0  0
    1.6929   -1.1515   -7.9187 H   0  0  0  0  0  0  0  0  0  0  0  0
    0.0754    0.3580   -6.8000 H   0  0  0  0  0  0  0  0  0  0  0  0
   -0.6702   -0.1216   -4.4822 H   0  0  0  0  0  0  0  0  0  0  0  0
    0.2151   -2.1104   -3.2837 H   0  0  0  0  0  0  0  0  0  0  0  0
    1.8598   -3.5942   -4.3881 H   0  0  0  0  0  0  0  0  0  0  0  0
    4.8513   -2.0567   -1.0805 Al  0  0  0  0  0  0  0  0  0  0  0  0
    5.8457   -3.1159    0.4487 Cl  0  0  0  0  0  0  0  0  0  0  0  0
    5.1117    0.1479   -0.8676 Cl  0  0  0  0  0  0  0  0  0  0  0  0
    5.4605   -2.4739   -3.1069 Cl  0  0  0  0  0  0  0  0  0  0  0  0
    2.6657   -2.3025   -1.0482 Cl  0  0  0  0  0  0  0  0  0  0  0  0
  1  3  1  0  0  0  0
  2  1  1  0  0  0  0
  3  4  1  0  0  0  0
  3  5  1  0  0  0  0
  6 11  2  0  0  0  0
  7  8  2  0  0  0  0
  7  6  1  0  0  0  0
  8  9  1  0  0  0  0
  9 15  1  0  0  0  0
  9 10  2  0  0  0  0
 10 16  1  0  0  0  0
 11 17  1  0  0  0  0
 11 10  1  0  0  0  0
 12  6  1  0  0  0  0
 13  7  1  0  0  0  0
 14  8  1  0  0  0  0
 18 22  1  0  0  0  0
 18 20  1  0  0  0  0
 18 19  1  0  0  0  0
 21 18  1  0  0  0  0
M  RAD  2   1   2   2   3
M  END
