Coordinates from ORCA-job C6H6+AlCl4-+NH2N2+-scan
 OpenBabel10161817473D

 22 20  0  0  0  0  0  0  0  0999 V2000
    2.8812    0.3217   -3.6429 N   0  0  0  0  0  0  0  0  0  0  0  0
    2.9207    0.7587   -4.6642 N   0  0  0  0  0  0  0  0  0  0  0  0
    2.8036   -0.0815   -2.4334 N   0  0  0  0  0  0  0  0  0  0  0  0
    2.5768   -1.0960   -2.3433 H   0  0  0  0  0  0  0  0  0  0  0  0
    3.6625    0.1640   -1.8448 H   0  0  0  0  0  0  0  0  0  0  0  0
    1.9196   -2.4369   -5.5814 C   0  0  0  0  0  0  0  0  0  0  0  0
    1.7498   -1.5878   -6.6754 C   0  0  0  0  0  0  0  0  0  0  0  0
    0.6750   -0.6969   -6.7098 C   0  0  0  0  0  0  0  0  0  0  0  0
   -0.2276   -0.6501   -5.6466 C   0  0  0  0  0  0  0  0  0  0  0  0
   -0.0595   -1.4991   -4.5519 C   0  0  0  0  0  0  0  0  0  0  0  0
    1.0129   -2.3947   -4.5200 C   0  0  0  0  0  0  0  0  0  0  0  0
    2.7524   -3.1302   -5.5538 H   0  0  0  0  0  0  0  0  0  0  0  0
    2.4501   -1.6251   -7.5024 H   0  0  0  0  0  0  0  0  0  0  0  0
    0.5397   -0.0440   -7.5651 H   0  0  0  0  0  0  0  0  0  0  0  0
   -1.0664    0.0368   -5.6766 H   0  0  0  0  0  0  0  0  0  0  0  0
   -0.7719   -1.4776   -3.7341 H   0  0  0  0  0  0  0  0  0  0  0  0
    1.1328   -3.0736   -3.6826 H   0  0  0  0  0  0  0  0  0  0  0  0
    5.4115   -2.1919   -1.5703 Al  0  0  0  0  0  0  0  0  0  0  0  0
    6.8412   -3.3717   -0.5653 Cl  0  0  0  0  0  0  0  0  0  0  0  0
    5.2735   -0.1386   -0.7152 Cl  0  0  0  0  0  0  0  0  0  0  0  0
    5.7152   -1.8768   -3.6816 Cl  0  0  0  0  0  0  0  0  0  0  0  0
    3.3515   -2.9493   -1.3729 Cl  0  0  0  0  0  0  0  0  0  0  0  0
  1  3  1  0  0  0  0
  2  1  1  0  0  0  0
  3  4  1  0  0  0  0
  3  5  1  0  0  0  0
  6 12  1  0  0  0  0
  6 11  2  0  0  0  0
  7  6  1  0  0  0  0
  8  7  2  0  0  0  0
  8  9  1  0  0  0  0
  9 10  2  0  0  0  0
 10 11  1  0  0  0  0
 10 16  1  0  0  0  0
 11 17  1  0  0  0  0
 13  7  1  0  0  0  0
 14  8  1  0  0  0  0
 15  9  1  0  0  0  0
 18 22  1  0  0  0  0
 18 20  1  0  0  0  0
 18 19  1  0  0  0  0
 21 18  1  0  0  0  0
M  RAD  2   1   2   2   3
M  END
