Coordinates from ORCA-job C6H6+AlCl4-+NH2N2+-scan
 OpenBabel10161817473D

 22 19  0  0  0  0  0  0  0  0999 V2000
    6.4833   -1.8489   -4.4480 N   0  0  0  0  0  0  0  0  0  0  0  0
    7.3832   -1.4023   -4.0116 N   0  0  0  0  0  0  0  0  0  0  0  0
    3.2850   -3.3026   -4.5200 N   0  0  0  0  0  0  0  0  0  0  0  0
    3.2467   -3.3934   -3.5104 H   0  0  0  0  0  0  0  0  0  0  0  0
    4.2129   -2.9910   -4.7852 H   0  0  0  0  0  0  0  0  0  0  0  0
    1.4136   -0.7739   -6.6911 C   0  0  0  0  0  0  0  0  0  0  0  0
    2.4093   -1.6218   -6.2158 C   0  0  0  0  0  0  0  0  0  0  0  0
    2.2353   -2.2803   -4.9967 C   0  0  0  0  0  0  0  0  0  0  0  0
    1.0651   -2.0723   -4.2509 C   0  0  0  0  0  0  0  0  0  0  0  0
    0.0585   -1.2347   -4.7571 C   0  0  0  0  0  0  0  0  0  0  0  0
    0.2330   -0.5757   -5.9699 C   0  0  0  0  0  0  0  0  0  0  0  0
    1.5580   -0.2654   -7.6381 H   0  0  0  0  0  0  0  0  0  0  0  0
    3.3122   -1.7858   -6.7928 H   0  0  0  0  0  0  0  0  0  0  0  0
    1.7916   -0.4065   -3.4651 H   0  0  0  0  0  0  0  0  0  0  0  0
    0.9045   -2.6199   -3.3281 H   0  0  0  0  0  0  0  0  0  0  0  0
   -0.8520   -1.0981   -4.1844 H   0  0  0  0  0  0  0  0  0  0  0  0
   -0.5402    0.0786   -6.3538 H   0  0  0  0  0  0  0  0  0  0  0  0
    2.7047   -0.3860   -0.6203 Al  0  0  0  0  0  0  0  0  0  0  0  0
    0.7435   -1.0383   -0.1731 Cl  0  0  0  0  0  0  0  0  0  0  0  0
    2.3608    0.6377   -2.8281 Cl  0  0  0  0  0  0  0  0  0  0  0  0
    3.4696    1.2820    0.4099 Cl  0  0  0  0  0  0  0  0  0  0  0  0
    4.0658   -1.9418   -1.1030 Cl  0  0  0  0  0  0  0  0  0  0  0  0
  1  2  3  0  0  0  0
  3  4  1  0  0  0  0
  5  3  1  0  0  0  0
  6  7  2  0  0  0  0
  6 11  1  0  0  0  0
  7  8  1  0  0  0  0
  8  3  1  0  0  0  0
  8  9  2  0  0  0  0
  9 15  1  0  0  0  0
 10  9  1  0  0  0  0
 10 16  1  0  0  0  0
 11 10  2  0  0  0  0
 12  6  1  0  0  0  0
 13  7  1  0  0  0  0
 14 20  1  0  0  0  0
 17 11  1  0  0  0  0
 18 19  1  0  0  0  0
 18 21  1  0  0  0  0
 22 18  1  0  0  0  0
M  END
