Coordinates from ORCA-job C6H6+AlCl4-+NH2N2+-scan
 OpenBabel10161817473D

 22 20  0  0  0  0  0  0  0  0999 V2000
    3.7435    0.5371    0.1135 N   0  0  0  0  0  0  0  0  0  0  0  0
    3.2429    1.5304    0.1315 N   0  0  0  0  0  0  0  0  0  0  0  0
    4.2996   -0.6058    0.1838 N   0  0  0  0  0  0  0  0  0  0  0  0
    3.7903   -1.3694   -0.3610 H   0  0  0  0  0  0  0  0  0  0  0  0
    5.3197   -0.6071   -0.1169 H   0  0  0  0  0  0  0  0  0  0  0  0
    0.7657   -2.9616   -6.8348 C   0  0  0  0  0  0  0  0  0  0  0  0
    1.7385   -2.1174   -6.3006 C   0  0  0  0  0  0  0  0  0  0  0  0
    1.3809   -0.8583   -5.8189 C   0  0  0  0  0  0  0  0  0  0  0  0
    0.0503   -0.4444   -5.8738 C   0  0  0  0  0  0  0  0  0  0  0  0
   -0.9224   -1.2882   -6.4086 C   0  0  0  0  0  0  0  0  0  0  0  0
   -0.5646   -2.5475   -6.8887 C   0  0  0  0  0  0  0  0  0  0  0  0
    1.0448   -3.9410   -7.2087 H   0  0  0  0  0  0  0  0  0  0  0  0
    2.7740   -2.4375   -6.2604 H   0  0  0  0  0  0  0  0  0  0  0  0
    2.1391   -0.2051   -5.4018 H   0  0  0  0  0  0  0  0  0  0  0  0
   -0.2279    0.5362   -5.5018 H   0  0  0  0  0  0  0  0  0  0  0  0
   -1.9573   -0.9652   -6.4522 H   0  0  0  0  0  0  0  0  0  0  0  0
   -1.3210   -3.2044   -7.3050 H   0  0  0  0  0  0  0  0  0  0  0  0
    5.2819   -1.6430   -2.9112 Al  0  0  0  0  0  0  0  0  0  0  0  0
    6.0258   -2.6982   -4.5751 Cl  0  0  0  0  0  0  0  0  0  0  0  0
    6.8142   -1.2690   -1.3517 Cl  0  0  0  0  0  0  0  0  0  0  0  0
    4.4051    0.2918   -3.2821 Cl  0  0  0  0  0  0  0  0  0  0  0  0
    3.7217   -2.7732   -1.8092 Cl  0  0  0  0  0  0  0  0  0  0  0  0
  1  2  1  0  0  0  0
  1  3  1  0  0  0  0
  4  3  1  0  0  0  0
  5  3  1  0  0  0  0
  6  7  1  0  0  0  0
  7 13  1  0  0  0  0
  7  8  2  0  0  0  0
  8 14  1  0  0  0  0
  9  8  1  0  0  0  0
  9 15  1  0  0  0  0
 10  9  2  0  0  0  0
 11  6  2  0  0  0  0
 11 10  1  0  0  0  0
 12  6  1  0  0  0  0
 16 10  1  0  0  0  0
 17 11  1  0  0  0  0
 18 22  1  0  0  0  0
 18 20  1  0  0  0  0
 19 18  1  0  0  0  0
 21 18  1  0  0  0  0
M  RAD  2   1   2   2   3
M  END
