Coordinates from ORCA-job C6H6+AlCl4-+NH2N2+-scan
 OpenBabel10161817473D

 22 20  0  0  0  0  0  0  0  0999 V2000
    2.9867   -0.5623   -0.4090 N   0  0  0  0  0  0  0  0  0  0  0  0
    2.0094   -0.0916   -0.6547 N   0  0  0  0  0  0  0  0  0  0  0  0
    4.0724   -1.1179   -0.0397 N   0  0  0  0  0  0  0  0  0  0  0  0
    4.3096   -1.9988   -0.5891 H   0  0  0  0  0  0  0  0  0  0  0  0
    4.9175   -0.4701   -0.0733 H   0  0  0  0  0  0  0  0  0  0  0  0
   -0.0153   -2.9679   -6.2062 C   0  0  0  0  0  0  0  0  0  0  0  0
    1.2435   -2.4088   -5.9889 C   0  0  0  0  0  0  0  0  0  0  0  0
    1.4255   -1.0311   -6.1062 C   0  0  0  0  0  0  0  0  0  0  0  0
    0.3468   -0.2132   -6.4413 C   0  0  0  0  0  0  0  0  0  0  0  0
   -0.9123   -0.7717   -6.6584 C   0  0  0  0  0  0  0  0  0  0  0  0
   -1.0937   -2.1493   -6.5405 C   0  0  0  0  0  0  0  0  0  0  0  0
   -0.1554   -4.0401   -6.1184 H   0  0  0  0  0  0  0  0  0  0  0  0
    2.0840   -3.0444   -5.7319 H   0  0  0  0  0  0  0  0  0  0  0  0
    2.4053   -0.5990   -5.9348 H   0  0  0  0  0  0  0  0  0  0  0  0
    0.4887    0.8582   -6.5356 H   0  0  0  0  0  0  0  0  0  0  0  0
   -1.7504   -0.1351   -6.9214 H   0  0  0  0  0  0  0  0  0  0  0  0
   -2.0726   -2.5843   -6.7120 H   0  0  0  0  0  0  0  0  0  0  0  0
    6.3256   -1.1341   -2.6254 Al  0  0  0  0  0  0  0  0  0  0  0  0
    8.0231   -1.3954   -3.8420 Cl  0  0  0  0  0  0  0  0  0  0  0  0
    6.7565    0.0284   -0.7824 Cl  0  0  0  0  0  0  0  0  0  0  0  0
    4.6118   -0.1607   -3.4951 Cl  0  0  0  0  0  0  0  0  0  0  0  0
    5.5377   -3.0516   -1.8274 Cl  0  0  0  0  0  0  0  0  0  0  0  0
  1  3  1  0  0  0  0
  2  1  1  0  0  0  0
  4  3  1  0  0  0  0
  5  3  1  0  0  0  0
  6 12  1  0  0  0  0
  6  7  2  0  0  0  0
  7 13  1  0  0  0  0
  8  7  1  0  0  0  0
  8 14  1  0  0  0  0
  9  8  2  0  0  0  0
 10 11  2  0  0  0  0
 10  9  1  0  0  0  0
 11  6  1  0  0  0  0
 15  9  1  0  0  0  0
 16 10  1  0  0  0  0
 17 11  1  0  0  0  0
 18 22  1  0  0  0  0
 18 20  1  0  0  0  0
 19 18  1  0  0  0  0
 21 18  1  0  0  0  0
M  RAD  2   1   2   2   3
M  END
