Coordinates from ORCA-job C6H6+AlCl4-+NH2N2+-scan
 OpenBabel10161817473D

 22 20  0  0  0  0  0  0  0  0999 V2000
    3.7599   -0.3926   -4.5084 N   0  0  0  0  0  0  0  0  0  0  0  0
    4.1096   -0.8351   -5.4663 N   0  0  0  0  0  0  0  0  0  0  0  0
    3.3917    0.2177   -3.4487 N   0  0  0  0  0  0  0  0  0  0  0  0
    2.6006   -0.2461   -2.9567 H   0  0  0  0  0  0  0  0  0  0  0  0
    4.1957    0.4246   -2.7736 H   0  0  0  0  0  0  0  0  0  0  0  0
    1.5557   -2.1978   -6.8616 C   0  0  0  0  0  0  0  0  0  0  0  0
    0.9923   -0.9234   -6.7733 C   0  0  0  0  0  0  0  0  0  0  0  0
    0.4761   -0.4729   -5.5582 C   0  0  0  0  0  0  0  0  0  0  0  0
    0.5191   -1.3002   -4.4326 C   0  0  0  0  0  0  0  0  0  0  0  0
    1.0889   -2.5727   -4.5194 C   0  0  0  0  0  0  0  0  0  0  0  0
    1.6064   -3.0207   -5.7352 C   0  0  0  0  0  0  0  0  0  0  0  0
    1.9504   -2.5507   -7.8079 H   0  0  0  0  0  0  0  0  0  0  0  0
    0.9474   -0.2881   -7.6511 H   0  0  0  0  0  0  0  0  0  0  0  0
    0.0225    0.5101   -5.4917 H   0  0  0  0  0  0  0  0  0  0  0  0
    0.0936   -0.9642   -3.4928 H   0  0  0  0  0  0  0  0  0  0  0  0
    1.1255   -3.2100   -3.6434 H   0  0  0  0  0  0  0  0  0  0  0  0
    2.0448   -4.0098   -5.8042 H   0  0  0  0  0  0  0  0  0  0  0  0
    4.2356   -1.5241   -0.5686 Al  0  0  0  0  0  0  0  0  0  0  0  0
    4.6803   -2.1346    1.4007 Cl  0  0  0  0  0  0  0  0  0  0  0  0
    5.2844    0.3669   -1.1101 Cl  0  0  0  0  0  0  0  0  0  0  0  0
    4.7489   -2.8954   -2.1519 Cl  0  0  0  0  0  0  0  0  0  0  0  0
    2.1150   -1.0215   -0.8784 Cl  0  0  0  0  0  0  0  0  0  0  0  0
  1  3  1  0  0  0  0
  2  1  1  0  0  0  0
  3  4  1  0  0  0  0
  3  5  1  0  0  0  0
  6  7  2  0  0  0  0
  6 11  1  0  0  0  0
  7  8  1  0  0  0  0
  8 14  1  0  0  0  0
  8  9  2  0  0  0  0
  9 15  1  0  0  0  0
 10  9  1  0  0  0  0
 10 16  1  0  0  0  0
 11 10  2  0  0  0  0
 12  6  1  0  0  0  0
 13  7  1  0  0  0  0
 17 11  1  0  0  0  0
 18 19  1  0  0  0  0
 20 18  1  0  0  0  0
 21 18  1  0  0  0  0
 22 18  1  0  0  0  0
M  RAD  2   1   2   2   3
M  END
