Coordinates from ORCA-job C6H6+AlCl4-+NH2N2+-scan
 OpenBabel10161817473D

 22 20  0  0  0  0  0  0  0  0999 V2000
    2.8923    0.3259   -3.6363 N   0  0  0  0  0  0  0  0  0  0  0  0
    2.9302    0.7578   -4.6599 N   0  0  0  0  0  0  0  0  0  0  0  0
    2.8163   -0.0721   -2.4250 N   0  0  0  0  0  0  0  0  0  0  0  0
    2.5870   -1.0862   -2.3292 H   0  0  0  0  0  0  0  0  0  0  0  0
    3.6775    0.1717   -1.8392 H   0  0  0  0  0  0  0  0  0  0  0  0
    1.9238   -2.4261   -5.5866 C   0  0  0  0  0  0  0  0  0  0  0  0
    1.7436   -1.5828   -6.6835 C   0  0  0  0  0  0  0  0  0  0  0  0
    0.6600   -0.7027   -6.7192 C   0  0  0  0  0  0  0  0  0  0  0  0
   -0.2409   -0.6608   -5.6543 C   0  0  0  0  0  0  0  0  0  0  0  0
   -0.0624   -1.5040   -4.5568 C   0  0  0  0  0  0  0  0  0  0  0  0
    1.0188   -2.3888   -4.5235 C   0  0  0  0  0  0  0  0  0  0  0  0
    2.7638   -3.1107   -5.5577 H   0  0  0  0  0  0  0  0  0  0  0  0
    2.4427   -1.6162   -7.5116 H   0  0  0  0  0  0  0  0  0  0  0  0
    0.5168   -0.0541   -7.5765 H   0  0  0  0  0  0  0  0  0  0  0  0
   -1.0863    0.0179   -5.6852 H   0  0  0  0  0  0  0  0  0  0  0  0
   -0.7732   -1.4861   -3.7375 H   0  0  0  0  0  0  0  0  0  0  0  0
    1.1476   -3.0627   -3.6834 H   0  0  0  0  0  0  0  0  0  0  0  0
    5.4102   -2.1987   -1.5629 Al  0  0  0  0  0  0  0  0  0  0  0  0
    6.8292   -3.3893   -0.5557 Cl  0  0  0  0  0  0  0  0  0  0  0  0
    5.2888   -0.1432   -0.7110 Cl  0  0  0  0  0  0  0  0  0  0  0  0
    5.7153   -1.8903   -3.6747 Cl  0  0  0  0  0  0  0  0  0  0  0  0
    3.3434   -2.9393   -1.3641 Cl  0  0  0  0  0  0  0  0  0  0  0  0
  1  3  1  0  0  0  0
  2  1  1  0  0  0  0
  3  4  1  0  0  0  0
  3  5  1  0  0  0  0
  6 12  1  0  0  0  0
  6 11  2  0  0  0  0
  7  6  1  0  0  0  0
  8  7  2  0  0  0  0
  8  9  1  0  0  0  0
  9 10  2  0  0  0  0
 10 11  1  0  0  0  0
 10 16  1  0  0  0  0
 11 17  1  0  0  0  0
 13  7  1  0  0  0  0
 14  8  1  0  0  0  0
 15  9  1  0  0  0  0
 18 22  1  0  0  0  0
 18 20  1  0  0  0  0
 18 19  1  0  0  0  0
 21 18  1  0  0  0  0
M  RAD  2   1   2   2   3
M  END
