Coordinates from ORCA-job C6H6+AlCl4-+NH2N2+-scan
 OpenBabel10161817473D

 22 20  0  0  0  0  0  0  0  0999 V2000
    3.9857   -1.0117   -4.5481 N   0  0  0  0  0  0  0  0  0  0  0  0
    4.2584   -1.8235   -5.2567 N   0  0  0  0  0  0  0  0  0  0  0  0
    3.7434   -0.0110   -3.7942 N   0  0  0  0  0  0  0  0  0  0  0  0
    2.8134   -0.0536   -3.3341 H   0  0  0  0  0  0  0  0  0  0  0  0
    4.5236    0.1963   -3.0901 H   0  0  0  0  0  0  0  0  0  0  0  0
    1.3602   -1.7340   -6.9904 C   0  0  0  0  0  0  0  0  0  0  0  0
    1.0164   -0.6234   -6.2204 C   0  0  0  0  0  0  0  0  0  0  0  0
    0.7438   -0.7775   -4.8585 C   0  0  0  0  0  0  0  0  0  0  0  0
    0.8124   -2.0420   -4.2677 C   0  0  0  0  0  0  0  0  0  0  0  0
    1.1573   -3.1517   -5.0405 C   0  0  0  0  0  0  0  0  0  0  0  0
    1.4306   -2.9976   -6.4001 C   0  0  0  0  0  0  0  0  0  0  0  0
    1.5640   -1.6183   -8.0493 H   0  0  0  0  0  0  0  0  0  0  0  0
    0.9464    0.3565   -6.6801 H   0  0  0  0  0  0  0  0  0  0  0  0
    0.4469    0.0803   -4.2633 H   0  0  0  0  0  0  0  0  0  0  0  0
    0.5946   -2.1593   -3.2124 H   0  0  0  0  0  0  0  0  0  0  0  0
    1.2089   -4.1330   -4.5828 H   0  0  0  0  0  0  0  0  0  0  0  0
    1.6919   -3.8616   -7.0010 H   0  0  0  0  0  0  0  0  0  0  0  0
    3.8386   -0.7824   -0.4120 Al  0  0  0  0  0  0  0  0  0  0  0  0
    3.9666   -0.7613    1.6933 Cl  0  0  0  0  0  0  0  0  0  0  0  0
    5.4377    0.4553   -1.3523 Cl  0  0  0  0  0  0  0  0  0  0  0  0
    4.0131   -2.7036   -1.3776 Cl  0  0  0  0  0  0  0  0  0  0  0  0
    1.9907    0.1166   -1.1953 Cl  0  0  0  0  0  0  0  0  0  0  0  0
  1  3  1  0  0  0  0
  2  1  1  0  0  0  0
  3  4  1  0  0  0  0
  3  5  1  0  0  0  0
  6 11  2  0  0  0  0
  6  7  1  0  0  0  0
  7  8  2  0  0  0  0
  8  9  1  0  0  0  0
  8 14  1  0  0  0  0
  9 15  1  0  0  0  0
 10 16  1  0  0  0  0
 10  9  2  0  0  0  0
 11 10  1  0  0  0  0
 12  6  1  0  0  0  0
 13  7  1  0  0  0  0
 17 11  1  0  0  0  0
 18 19  1  0  0  0  0
 20 18  1  0  0  0  0
 21 18  1  0  0  0  0
 22 18  1  0  0  0  0
M  RAD  2   1   2   2   3
M  END
