Coordinates from ORCA-job C6H6+AlCl4-+NH2N2+-scan
 OpenBabel10161817473D

 22 20  0  0  0  0  0  0  0  0999 V2000
    3.0248    0.3969   -3.5104 N   0  0  0  0  0  0  0  0  0  0  0  0
    3.0351    0.7783   -4.5544 N   0  0  0  0  0  0  0  0  0  0  0  0
    2.9698    0.0405   -2.2861 N   0  0  0  0  0  0  0  0  0  0  0  0
    2.6944   -0.9630   -2.1489 H   0  0  0  0  0  0  0  0  0  0  0  0
    3.8633    0.2455   -1.7378 H   0  0  0  0  0  0  0  0  0  0  0  0
    1.9537   -2.3075   -5.6472 C   0  0  0  0  0  0  0  0  0  0  0  0
    1.6734   -1.5427   -6.7803 C   0  0  0  0  0  0  0  0  0  0  0  0
    0.5018   -0.7863   -6.8421 C   0  0  0  0  0  0  0  0  0  0  0  0
   -0.3859   -0.7870   -5.7658 C   0  0  0  0  0  0  0  0  0  0  0  0
   -0.1075   -1.5516   -4.6320 C   0  0  0  0  0  0  0  0  0  0  0  0
    1.0608   -2.3147   -4.5733 C   0  0  0  0  0  0  0  0  0  0  0  0
    2.8603   -2.9003   -5.6000 H   0  0  0  0  0  0  0  0  0  0  0  0
    2.3628   -1.5442   -7.6174 H   0  0  0  0  0  0  0  0  0  0  0  0
    0.2808   -0.1997   -7.7271 H   0  0  0  0  0  0  0  0  0  0  0  0
   -1.2984   -0.2029   -5.8151 H   0  0  0  0  0  0  0  0  0  0  0  0
   -0.8078   -1.5676   -3.8036 H   0  0  0  0  0  0  0  0  0  0  0  0
    1.2671   -2.9323   -3.7054 H   0  0  0  0  0  0  0  0  0  0  0  0
    5.4091   -2.2721   -1.4877 Al  0  0  0  0  0  0  0  0  0  0  0  0
    6.7344   -3.5793   -0.4999 Cl  0  0  0  0  0  0  0  0  0  0  0  0
    5.4890   -0.2078   -0.6582 Cl  0  0  0  0  0  0  0  0  0  0  0  0
    5.6784   -2.0159   -3.6104 Cl  0  0  0  0  0  0  0  0  0  0  0  0
    3.2853   -2.8267   -1.2304 Cl  0  0  0  0  0  0  0  0  0  0  0  0
  1  3  1  0  0  0  0
  2  1  1  0  0  0  0
  3  4  1  0  0  0  0
  3  5  1  0  0  0  0
  6 12  1  0  0  0  0
  6 11  2  0  0  0  0
  7  6  1  0  0  0  0
  8  7  2  0  0  0  0
  8  9  1  0  0  0  0
  9 10  2  0  0  0  0
 10 11  1  0  0  0  0
 10 16  1  0  0  0  0
 11 17  1  0  0  0  0
 13  7  1  0  0  0  0
 14  8  1  0  0  0  0
 15  9  1  0  0  0  0
 18 22  1  0  0  0  0
 18 20  1  0  0  0  0
 18 19  1  0  0  0  0
 21 18  1  0  0  0  0
M  RAD  2   1   2   2   3
M  END
