Coordinates from ORCA-job C6H6+AlCl4-+NH2N2+-scan
 OpenBabel10161817473D

 22 20  0  0  0  0  0  0  0  0999 V2000
    2.8448    0.3070   -3.7563 N   0  0  0  0  0  0  0  0  0  0  0  0
    2.9165    0.7756   -4.7618 N   0  0  0  0  0  0  0  0  0  0  0  0
    2.7295   -0.1281   -2.5613 N   0  0  0  0  0  0  0  0  0  0  0  0
    2.5102   -1.1426   -2.5058 H   0  0  0  0  0  0  0  0  0  0  0  0
    3.5580    0.1251   -1.9325 H   0  0  0  0  0  0  0  0  0  0  0  0
    1.8966   -2.5103   -5.5466 C   0  0  0  0  0  0  0  0  0  0  0  0
    1.7922   -1.6031   -6.6013 C   0  0  0  0  0  0  0  0  0  0  0  0
    0.7769   -0.6443   -6.6003 C   0  0  0  0  0  0  0  0  0  0  0  0
   -0.1377   -0.5927   -5.5473 C   0  0  0  0  0  0  0  0  0  0  0  0
   -0.0358   -1.5009   -4.4930 C   0  0  0  0  0  0  0  0  0  0  0  0
    0.9809   -2.4604   -4.4933 C   0  0  0  0  0  0  0  0  0  0  0  0
    2.6858   -3.2532   -5.5422 H   0  0  0  0  0  0  0  0  0  0  0  0
    2.4984   -1.6447   -7.4230 H   0  0  0  0  0  0  0  0  0  0  0  0
    0.6933    0.0555   -7.4246 H   0  0  0  0  0  0  0  0  0  0  0  0
   -0.9323    0.1453   -5.5540 H   0  0  0  0  0  0  0  0  0  0  0  0
   -0.7549   -1.4740   -3.6814 H   0  0  0  0  0  0  0  0  0  0  0  0
    1.0531   -3.1786   -3.6839 H   0  0  0  0  0  0  0  0  0  0  0  0
    5.3876   -2.1474   -1.6123 Al  0  0  0  0  0  0  0  0  0  0  0  0
    6.8480   -3.2647   -0.5791 Cl  0  0  0  0  0  0  0  0  0  0  0  0
    5.1291   -0.1106   -0.7427 Cl  0  0  0  0  0  0  0  0  0  0  0  0
    5.7401   -1.7932   -3.7109 Cl  0  0  0  0  0  0  0  0  0  0  0  0
    3.3642   -3.0005   -1.4801 Cl  0  0  0  0  0  0  0  0  0  0  0  0
  1  3  1  0  0  0  0
  2  1  1  0  0  0  0
  3  4  1  0  0  0  0
  3  5  1  0  0  0  0
  6 12  1  0  0  0  0
  6 11  2  0  0  0  0
  7  8  2  0  0  0  0
  7  6  1  0  0  0  0
  8  9  1  0  0  0  0
  9 10  2  0  0  0  0
 10 16  1  0  0  0  0
 11 10  1  0  0  0  0
 11 17  1  0  0  0  0
 13  7  1  0  0  0  0
 14  8  1  0  0  0  0
 15  9  1  0  0  0  0
 18 22  1  0  0  0  0
 18 20  1  0  0  0  0
 18 19  1  0  0  0  0
 21 18  1  0  0  0  0
M  RAD  2   1   2   2   3
M  END
