Coordinates from ORCA-job C6H6+AlCl4-+NH2N2+-scan
 OpenBabel10161817473D

 22 20  0  0  0  0  0  0  0  0999 V2000
    6.6061   -2.5989   -5.5158 N   0  0  0  0  0  0  0  0  0  0  0  0
    7.6657   -2.7235   -5.7620 N   0  0  0  0  0  0  0  0  0  0  0  0
    3.6448   -1.9866   -4.0949 N   0  0  0  0  0  0  0  0  0  0  0  0
    3.6697   -1.9550   -3.0684 H   0  0  0  0  0  0  0  0  0  0  0  0
    4.4903   -2.2575   -4.5799 H   0  0  0  0  0  0  0  0  0  0  0  0
    1.3636   -1.3675   -6.8841 C   0  0  0  0  0  0  0  0  0  0  0  0
    2.5104   -1.6933   -6.2144 C   0  0  0  0  0  0  0  0  0  0  0  0
    2.5309   -1.6399   -4.7951 C   0  0  0  0  0  0  0  0  0  0  0  0
    1.3293   -1.1748   -4.0560 C   0  0  0  0  0  0  0  0  0  0  0  0
    0.1305   -0.8845   -4.8755 C   0  0  0  0  0  0  0  0  0  0  0  0
    0.1537   -0.9655   -6.2222 C   0  0  0  0  0  0  0  0  0  0  0  0
    1.3639   -1.4203   -7.9681 H   0  0  0  0  0  0  0  0  0  0  0  0
    3.3988   -2.0043   -6.7513 H   0  0  0  0  0  0  0  0  0  0  0  0
    1.6128   -0.2532   -3.5019 H   0  0  0  0  0  0  0  0  0  0  0  0
    1.0792   -1.8511   -3.2251 H   0  0  0  0  0  0  0  0  0  0  0  0
   -0.7618   -0.5825   -4.3392 H   0  0  0  0  0  0  0  0  0  0  0  0
   -0.7217   -0.7343   -6.8158 H   0  0  0  0  0  0  0  0  0  0  0  0
    2.2805   -0.5636   -0.2336 Al  0  0  0  0  0  0  0  0  0  0  0  0
    0.3627   -1.5103   -0.6028 Cl  0  0  0  0  0  0  0  0  0  0  0  0
    2.4598    1.0929   -1.6518 Cl  0  0  0  0  0  0  0  0  0  0  0  0
    2.5600    0.0497    1.7796 Cl  0  0  0  0  0  0  0  0  0  0  0  0
    3.8154   -2.0165   -0.8551 Cl  0  0  0  0  0  0  0  0  0  0  0  0
  2  1  3  0  0  0  0
  3  4  1  0  0  0  0
  5  3  1  0  0  0  0
  6 11  1  0  0  0  0
  6  7  1  0  0  0  0
  7  8  2  0  0  0  0
  8  3  1  0  0  0  0
  8  9  1  0  0  0  0
  9 14  1  0  0  0  0
  9 15  1  0  0  0  0
 10 16  1  0  0  0  0
 10  9  1  0  0  0  0
 11 10  2  0  0  0  0
 12  6  1  0  0  0  0
 13  7  1  0  0  0  0
 17 11  1  0  0  0  0
 18 21  1  0  0  0  0
 19 18  1  0  0  0  0
 20 18  1  0  0  0  0
 22 18  1  0  0  0  0
M  RAD  1   6   2
M  END
