Coordinates from ORCA-job C6H6+AlCl4-+NH2N2+-scan
 OpenBabel10161817473D

 22 20  0  0  0  0  0  0  0  0999 V2000
    2.9628    0.3484   -3.5874 N   0  0  0  0  0  0  0  0  0  0  0  0
    2.9936    0.7537   -4.6219 N   0  0  0  0  0  0  0  0  0  0  0  0
    2.8896   -0.0270   -2.3690 N   0  0  0  0  0  0  0  0  0  0  0  0
    2.6418   -1.0374   -2.2544 H   0  0  0  0  0  0  0  0  0  0  0  0
    3.7614    0.2042   -1.7956 H   0  0  0  0  0  0  0  0  0  0  0  0
    1.9362   -2.3674   -5.6134 C   0  0  0  0  0  0  0  0  0  0  0  0
    1.7077   -1.5585   -6.7273 C   0  0  0  0  0  0  0  0  0  0  0  0
    0.5797   -0.7369   -6.7768 C   0  0  0  0  0  0  0  0  0  0  0  0
   -0.3154   -0.7168   -5.7066 C   0  0  0  0  0  0  0  0  0  0  0  0
   -0.0886   -1.5253   -4.5919 C   0  0  0  0  0  0  0  0  0  0  0  0
    1.0356   -2.3535   -4.5460 C   0  0  0  0  0  0  0  0  0  0  0  0
    2.8095   -3.0089   -5.5758 H   0  0  0  0  0  0  0  0  0  0  0  0
    2.4032   -1.5752   -7.5590 H   0  0  0  0  0  0  0  0  0  0  0  0
    0.3987   -0.1162   -7.6473 H   0  0  0  0  0  0  0  0  0  0  0  0
   -1.1943   -0.0826   -5.7465 H   0  0  0  0  0  0  0  0  0  0  0  0
   -0.7955   -1.5248   -3.7690 H   0  0  0  0  0  0  0  0  0  0  0  0
    1.2011   -3.0035   -3.6934 H   0  0  0  0  0  0  0  0  0  0  0  0
    5.4153   -2.2312   -1.5196 Al  0  0  0  0  0  0  0  0  0  0  0  0
    6.7912   -3.4714   -0.5137 Cl  0  0  0  0  0  0  0  0  0  0  0  0
    5.3752   -0.1692   -0.6783 Cl  0  0  0  0  0  0  0  0  0  0  0  0
    5.7148   -1.9475   -3.6353 Cl  0  0  0  0  0  0  0  0  0  0  0  0
    3.3210   -2.8938   -1.3052 Cl  0  0  0  0  0  0  0  0  0  0  0  0
  1  3  1  0  0  0  0
  2  1  1  0  0  0  0
  3  4  1  0  0  0  0
  3  5  1  0  0  0  0
  6 12  1  0  0  0  0
  6 11  2  0  0  0  0
  7  6  1  0  0  0  0
  8  7  2  0  0  0  0
  8  9  1  0  0  0  0
  9 10  2  0  0  0  0
 10 11  1  0  0  0  0
 10 16  1  0  0  0  0
 11 17  1  0  0  0  0
 13  7  1  0  0  0  0
 14  8  1  0  0  0  0
 15  9  1  0  0  0  0
 18 22  1  0  0  0  0
 18 20  1  0  0  0  0
 18 19  1  0  0  0  0
 21 18  1  0  0  0  0
M  RAD  2   1   2   2   3
M  END
