Coordinates from ORCA-job C6H6+AlCl4-+NH2N2+-scan
 OpenBabel10161817473D

 22 20  0  0  0  0  0  0  0  0999 V2000
    3.9049    0.5960    0.2362 N   0  0  0  0  0  0  0  0  0  0  0  0
    3.4230    1.5977    0.2786 N   0  0  0  0  0  0  0  0  0  0  0  0
    4.4475   -0.5547    0.2799 N   0  0  0  0  0  0  0  0  0  0  0  0
    3.8858   -1.3169   -0.2121 H   0  0  0  0  0  0  0  0  0  0  0  0
    5.4410   -0.5767   -0.0999 H   0  0  0  0  0  0  0  0  0  0  0  0
    0.7754   -2.9591   -6.9347 C   0  0  0  0  0  0  0  0  0  0  0  0
    1.7236   -2.1251   -6.3435 C   0  0  0  0  0  0  0  0  0  0  0  0
    1.3383   -0.8885   -5.8257 C   0  0  0  0  0  0  0  0  0  0  0  0
    0.0049   -0.4872   -5.9014 C   0  0  0  0  0  0  0  0  0  0  0  0
   -0.9431   -1.3210   -6.4932 C   0  0  0  0  0  0  0  0  0  0  0  0
   -0.5578   -2.5576   -7.0096 C   0  0  0  0  0  0  0  0  0  0  0  0
    1.0757   -3.9210   -7.3364 H   0  0  0  0  0  0  0  0  0  0  0  0
    2.7612   -2.4355   -6.2858 H   0  0  0  0  0  0  0  0  0  0  0  0
    2.0772   -0.2431   -5.3643 H   0  0  0  0  0  0  0  0  0  0  0  0
   -0.2947    0.4755   -5.5005 H   0  0  0  0  0  0  0  0  0  0  0  0
   -1.9802   -1.0078   -6.5528 H   0  0  0  0  0  0  0  0  0  0  0  0
   -1.2950   -3.2066   -7.4703 H   0  0  0  0  0  0  0  0  0  0  0  0
    5.1729   -1.6489   -2.8667 Al  0  0  0  0  0  0  0  0  0  0  0  0
    5.7772   -2.7372   -4.5658 Cl  0  0  0  0  0  0  0  0  0  0  0  0
    6.8252   -1.2744   -1.4345 Cl  0  0  0  0  0  0  0  0  0  0  0  0
    4.2947    0.2922   -3.1990 Cl  0  0  0  0  0  0  0  0  0  0  0  0
    3.6867   -2.7407   -1.6320 Cl  0  0  0  0  0  0  0  0  0  0  0  0
  1  2  1  0  0  0  0
  1  3  1  0  0  0  0
  4  3  1  0  0  0  0
  5  3  1  0  0  0  0
  6  7  1  0  0  0  0
  7 13  1  0  0  0  0
  7  8  2  0  0  0  0
  8 14  1  0  0  0  0
  9  8  1  0  0  0  0
  9 15  1  0  0  0  0
 10  9  2  0  0  0  0
 11  6  2  0  0  0  0
 11 10  1  0  0  0  0
 12  6  1  0  0  0  0
 16 10  1  0  0  0  0
 17 11  1  0  0  0  0
 18 22  1  0  0  0  0
 18 20  1  0  0  0  0
 19 18  1  0  0  0  0
 21 18  1  0  0  0  0
M  RAD  2   1   2   2   3
M  END
