Coordinates from ORCA-job C6H6+AlCl4-+NH2N2+-scan
 OpenBabel10161817473D

 22 20  0  0  0  0  0  0  0  0999 V2000
    4.2358   -2.1798   -3.9878 N   0  0  0  0  0  0  0  0  0  0  0  0
    4.9495   -2.8752   -4.4949 N   0  0  0  0  0  0  0  0  0  0  0  0
    3.2107   -1.4430   -3.6652 N   0  0  0  0  0  0  0  0  0  0  0  0
    2.8495   -1.7291   -2.7135 H   0  0  0  0  0  0  0  0  0  0  0  0
    3.5130   -0.4341   -3.5639 H   0  0  0  0  0  0  0  0  0  0  0  0
    1.4391   -1.1844   -6.8949 C   0  0  0  0  0  0  0  0  0  0  0  0
    1.5918   -0.4384   -5.7302 C   0  0  0  0  0  0  0  0  0  0  0  0
    1.2614   -0.9998   -4.4885 C   0  0  0  0  0  0  0  0  0  0  0  0
    0.6358   -2.2538   -4.4458 C   0  0  0  0  0  0  0  0  0  0  0  0
    0.4849   -2.9972   -5.6126 C   0  0  0  0  0  0  0  0  0  0  0  0
    0.8983   -2.4702   -6.8374 C   0  0  0  0  0  0  0  0  0  0  0  0
    1.7181   -0.7567   -7.8515 H   0  0  0  0  0  0  0  0  0  0  0  0
    1.9854    0.5718   -5.7778 H   0  0  0  0  0  0  0  0  0  0  0  0
    1.2452   -0.3678   -3.6067 H   0  0  0  0  0  0  0  0  0  0  0  0
    0.2881   -2.6511   -3.4978 H   0  0  0  0  0  0  0  0  0  0  0  0
    0.0228   -3.9775   -5.5732 H   0  0  0  0  0  0  0  0  0  0  0  0
    0.7741   -3.0479   -7.7464 H   0  0  0  0  0  0  0  0  0  0  0  0
    4.1420    0.0830   -0.6398 Al  0  0  0  0  0  0  0  0  0  0  0  0
    4.1518    1.2435    1.1198 Cl  0  0  0  0  0  0  0  0  0  0  0  0
    3.8023    1.3106   -2.4600 Cl  0  0  0  0  0  0  0  0  0  0  0  0
    5.8931   -1.0868   -1.0698 Cl  0  0  0  0  0  0  0  0  0  0  0  0
    2.4519   -1.3567   -0.6957 Cl  0  0  0  0  0  0  0  0  0  0  0  0
  1  3  1  0  0  0  0
  2  1  1  0  0  0  0
  3  5  1  0  0  0  0
  3  4  1  0  0  0  0
  6 11  2  0  0  0  0
  6  7  1  0  0  0  0
  7  8  2  0  0  0  0
  8  9  1  0  0  0  0
  8 14  1  0  0  0  0
  9 15  1  0  0  0  0
 10 16  1  0  0  0  0
 10  9  2  0  0  0  0
 11 10  1  0  0  0  0
 12  6  1  0  0  0  0
 13  7  1  0  0  0  0
 17 11  1  0  0  0  0
 18 19  1  0  0  0  0
 20 18  1  0  0  0  0
 21 18  1  0  0  0  0
 22 18  1  0  0  0  0
M  RAD  2   1   2   2   3
M  END
