Coordinates from ORCA-job C6H6+AlCl4-+NH2N2+-scan
 OpenBabel10161817473D

 22 20  0  0  0  0  0  0  0  0999 V2000
    3.1534    0.4178   -3.5349 N   0  0  0  0  0  0  0  0  0  0  0  0
    3.1880    0.7419   -4.5976 N   0  0  0  0  0  0  0  0  0  0  0  0
    3.0689    0.1226   -2.2961 N   0  0  0  0  0  0  0  0  0  0  0  0
    2.7357   -0.8582   -2.1160 H   0  0  0  0  0  0  0  0  0  0  0  0
    3.9695    0.2974   -1.7510 H   0  0  0  0  0  0  0  0  0  0  0  0
    1.9814   -2.2317   -5.7120 C   0  0  0  0  0  0  0  0  0  0  0  0
    1.6249   -1.4712   -6.8267 C   0  0  0  0  0  0  0  0  0  0  0  0
    0.4035   -0.7959   -6.8516 C   0  0  0  0  0  0  0  0  0  0  0  0
   -0.4580   -0.8738   -5.7573 C   0  0  0  0  0  0  0  0  0  0  0  0
   -0.1031   -1.6337   -4.6420 C   0  0  0  0  0  0  0  0  0  0  0  0
    1.1152   -2.3156   -4.6196 C   0  0  0  0  0  0  0  0  0  0  0  0
    2.9259   -2.7643   -5.6940 H   0  0  0  0  0  0  0  0  0  0  0  0
    2.2938   -1.4138   -7.6784 H   0  0  0  0  0  0  0  0  0  0  0  0
    0.1236   -0.2129   -7.7222 H   0  0  0  0  0  0  0  0  0  0  0  0
   -1.4091   -0.3528   -5.7779 H   0  0  0  0  0  0  0  0  0  0  0  0
   -0.7817   -1.7089   -3.7989 H   0  0  0  0  0  0  0  0  0  0  0  0
    1.3824   -2.9285   -3.7652 H   0  0  0  0  0  0  0  0  0  0  0  0
    5.3513   -2.3077   -1.4045 Al  0  0  0  0  0  0  0  0  0  0  0  0
    6.5804   -3.6704   -0.3691 Cl  0  0  0  0  0  0  0  0  0  0  0  0
    5.5564   -0.2304   -0.6345 Cl  0  0  0  0  0  0  0  0  0  0  0  0
    5.6495   -2.1321   -3.5319 Cl  0  0  0  0  0  0  0  0  0  0  0  0
    3.1929   -2.7184   -1.1520 Cl  0  0  0  0  0  0  0  0  0  0  0  0
  1  3  1  0  0  0  0
  2  1  1  0  0  0  0
  3  4  1  0  0  0  0
  3  5  1  0  0  0  0
  6 12  1  0  0  0  0
  6 11  2  0  0  0  0
  7  6  1  0  0  0  0
  8  7  2  0  0  0  0
  8  9  1  0  0  0  0
  9 10  2  0  0  0  0
 10 11  1  0  0  0  0
 10 16  1  0  0  0  0
 11 17  1  0  0  0  0
 13  7  1  0  0  0  0
 14  8  1  0  0  0  0
 15  9  1  0  0  0  0
 18 22  1  0  0  0  0
 18 20  1  0  0  0  0
 18 19  1  0  0  0  0
 21 18  1  0  0  0  0
M  RAD  2   1   2   2   3
M  END
