Coordinates from ORCA-job C6H6+AlCl4-+NH2N2+-scan
 OpenBabel10161817473D

 22 20  0  0  0  0  0  0  0  0999 V2000
    3.0115    0.3818   -3.5345 N   0  0  0  0  0  0  0  0  0  0  0  0
    3.0289    0.7676   -4.5767 N   0  0  0  0  0  0  0  0  0  0  0  0
    2.9505    0.0220   -2.3113 N   0  0  0  0  0  0  0  0  0  0  0  0
    2.6816   -0.9832   -2.1788 H   0  0  0  0  0  0  0  0  0  0  0  0
    3.8378    0.2345   -1.7555 H   0  0  0  0  0  0  0  0  0  0  0  0
    1.9490   -2.3214   -5.6383 C   0  0  0  0  0  0  0  0  0  0  0  0
    1.6814   -1.5441   -6.7659 C   0  0  0  0  0  0  0  0  0  0  0  0
    0.5200   -0.7716   -6.8243 C   0  0  0  0  0  0  0  0  0  0  0  0
   -0.3699   -0.7689   -5.7498 C   0  0  0  0  0  0  0  0  0  0  0  0
   -0.1041   -1.5459   -4.6215 C   0  0  0  0  0  0  0  0  0  0  0  0
    1.0538   -2.3251   -4.5663 C   0  0  0  0  0  0  0  0  0  0  0  0
    2.8478   -2.9263   -5.5939 H   0  0  0  0  0  0  0  0  0  0  0  0
    2.3726   -1.5481   -7.6015 H   0  0  0  0  0  0  0  0  0  0  0  0
    0.3087   -0.1756   -7.7053 H   0  0  0  0  0  0  0  0  0  0  0  0
   -1.2746   -0.1725   -5.7965 H   0  0  0  0  0  0  0  0  0  0  0  0
   -0.8064   -1.5591   -3.7947 H   0  0  0  0  0  0  0  0  0  0  0  0
    1.2501   -2.9521   -3.7029 H   0  0  0  0  0  0  0  0  0  0  0  0
    5.4115   -2.2614   -1.4930 Al  0  0  0  0  0  0  0  0  0  0  0  0
    6.7489   -3.5503   -0.4972 Cl  0  0  0  0  0  0  0  0  0  0  0  0
    5.4578   -0.1966   -0.6613 Cl  0  0  0  0  0  0  0  0  0  0  0  0
    5.6930   -1.9994   -3.6136 Cl  0  0  0  0  0  0  0  0  0  0  0  0
    3.2944   -2.8448   -1.2508 Cl  0  0  0  0  0  0  0  0  0  0  0  0
  1  3  1  0  0  0  0
  2  1  1  0  0  0  0
  3  4  1  0  0  0  0
  3  5  1  0  0  0  0
  6 12  1  0  0  0  0
  6 11  2  0  0  0  0
  7  6  1  0  0  0  0
  8  7  2  0  0  0  0
  8  9  1  0  0  0  0
  9 10  2  0  0  0  0
 10 11  1  0  0  0  0
 10 16  1  0  0  0  0
 11 17  1  0  0  0  0
 13  7  1  0  0  0  0
 14  8  1  0  0  0  0
 15  9  1  0  0  0  0
 18 22  1  0  0  0  0
 18 20  1  0  0  0  0
 18 19  1  0  0  0  0
 21 18  1  0  0  0  0
M  RAD  2   1   2   2   3
M  END
