Coordinates from ORCA-job C6H6+AlCl4-+NH2N2+-scan
 OpenBabel10161817473D

 22 20  0  0  0  0  0  0  0  0999 V2000
    3.4849   -0.0189   -4.2962 N   0  0  0  0  0  0  0  0  0  0  0  0
    3.7854   -0.1467   -5.3588 N   0  0  0  0  0  0  0  0  0  0  0  0
    3.1488    0.2411   -3.0919 N   0  0  0  0  0  0  0  0  0  0  0  0
    2.5168   -0.4698   -2.6698 H   0  0  0  0  0  0  0  0  0  0  0  0
    3.9816    0.4414   -2.4500 H   0  0  0  0  0  0  0  0  0  0  0  0
    1.7835   -2.3876   -6.5377 C   0  0  0  0  0  0  0  0  0  0  0  0
    1.1638   -1.2120   -6.9672 C   0  0  0  0  0  0  0  0  0  0  0  0
    0.3623   -0.4831   -6.0880 C   0  0  0  0  0  0  0  0  0  0  0  0
    0.1762   -0.9328   -4.7797 C   0  0  0  0  0  0  0  0  0  0  0  0
    0.7950   -2.1104   -4.3502 C   0  0  0  0  0  0  0  0  0  0  0  0
    1.6009   -2.8363   -5.2294 C   0  0  0  0  0  0  0  0  0  0  0  0
    2.4035   -2.9550   -7.2228 H   0  0  0  0  0  0  0  0  0  0  0  0
    1.3005   -0.8691   -7.9869 H   0  0  0  0  0  0  0  0  0  0  0  0
   -0.1270    0.4242   -6.4251 H   0  0  0  0  0  0  0  0  0  0  0  0
   -0.4637   -0.3787   -4.1012 H   0  0  0  0  0  0  0  0  0  0  0  0
    0.6405   -2.4703   -3.3390 H   0  0  0  0  0  0  0  0  0  0  0  0
    2.0830   -3.7470   -4.8930 H   0  0  0  0  0  0  0  0  0  0  0  0
    4.6292   -1.9224   -0.8221 Al  0  0  0  0  0  0  0  0  0  0  0  0
    5.4170   -2.8747    0.8868 Cl  0  0  0  0  0  0  0  0  0  0  0  0
    5.2753    0.2071   -0.9599 Cl  0  0  0  0  0  0  0  0  0  0  0  0
    5.1539   -2.7672   -2.7359 Cl  0  0  0  0  0  0  0  0  0  0  0  0
    2.4332   -1.7724   -0.8156 Cl  0  0  0  0  0  0  0  0  0  0  0  0
  1  3  1  0  0  0  0
  2  1  1  0  0  0  0
  3  4  1  0  0  0  0
  3  5  1  0  0  0  0
  6 11  1  0  0  0  0
  7  6  2  0  0  0  0
  7  8  1  0  0  0  0
  8  9  2  0  0  0  0
  9 10  1  0  0  0  0
  9 15  1  0  0  0  0
 10 16  1  0  0  0  0
 11 17  1  0  0  0  0
 11 10  2  0  0  0  0
 12  6  1  0  0  0  0
 13  7  1  0  0  0  0
 14  8  1  0  0  0  0
 18 22  1  0  0  0  0
 18 19  1  0  0  0  0
 20 18  1  0  0  0  0
 21 18  1  0  0  0  0
M  RAD  2   1   2   2   3
M  END
