Coordinates from ORCA-job C6H6+AlCl4-+NH2N2+-scan
 OpenBabel10161817473D

 22 19  0  0  0  0  0  0  0  0999 V2000
    5.9424   -2.7830   -3.4630 N   0  0  0  0  0  0  0  0  0  0  0  0
    6.9317   -3.1135   -3.1293 N   0  0  0  0  0  0  0  0  0  0  0  0
    3.2138   -2.0314   -4.4929 N   0  0  0  0  0  0  0  0  0  0  0  0
    3.1312   -2.3726   -3.5206 H   0  0  0  0  0  0  0  0  0  0  0  0
    3.7737   -1.1755   -4.3446 H   0  0  0  0  0  0  0  0  0  0  0  0
    1.0194   -0.8104   -6.7684 C   0  0  0  0  0  0  0  0  0  0  0  0
    1.6221   -0.3229   -5.6323 C   0  0  0  0  0  0  0  0  0  0  0  0
    1.4610   -1.0104   -4.3784 C   0  0  0  0  0  0  0  0  0  0  0  0
    0.6236   -2.1795   -4.3272 C   0  0  0  0  0  0  0  0  0  0  0  0
    0.0289   -2.6524   -5.4737 C   0  0  0  0  0  0  0  0  0  0  0  0
    0.2278   -1.9671   -6.6831 C   0  0  0  0  0  0  0  0  0  0  0  0
    1.1498   -0.3131   -7.7213 H   0  0  0  0  0  0  0  0  0  0  0  0
    2.2408    0.5671   -5.6513 H   0  0  0  0  0  0  0  0  0  0  0  0
    1.6655   -0.4728   -3.4577 H   0  0  0  0  0  0  0  0  0  0  0  0
    0.4975   -2.6752   -3.3712 H   0  0  0  0  0  0  0  0  0  0  0  0
   -0.5870   -3.5427   -5.4513 H   0  0  0  0  0  0  0  0  0  0  0  0
   -0.2402   -2.3492   -7.5847 H   0  0  0  0  0  0  0  0  0  0  0  0
    3.8024    0.0644   -0.8830 Al  0  0  0  0  0  0  0  0  0  0  0  0
    2.7365    1.4463    0.3432 Cl  0  0  0  0  0  0  0  0  0  0  0  0
    3.9944    0.9048   -2.9211 Cl  0  0  0  0  0  0  0  0  0  0  0  0
    5.7345   -0.4934   -0.1701 Cl  0  0  0  0  0  0  0  0  0  0  0  0
    2.5748   -1.7580   -1.1516 Cl  0  0  0  0  0  0  0  0  0  0  0  0
  1  2  3  0  0  0  0
  3  5  1  0  0  0  0
  3  4  1  0  0  0  0
  6 11  2  0  0  0  0
  6  7  1  0  0  0  0
  7  8  2  0  0  0  0
  8  9  1  0  0  0  0
  8 14  1  0  0  0  0
  9 15  1  0  0  0  0
 10 16  1  0  0  0  0
 10  9  2  0  0  0  0
 11 10  1  0  0  0  0
 12  6  1  0  0  0  0
 13  7  1  0  0  0  0
 17 11  1  0  0  0  0
 18 21  1  0  0  0  0
 18 19  1  0  0  0  0
 20 18  1  0  0  0  0
 22 18  1  0  0  0  0
M  RAD  1   3   2
M  END
