Coordinates from ORCA-job C6H6+AlCl4-+NH2N2+-scan
 OpenBabel10161817473D

 22 20  0  0  0  0  0  0  0  0999 V2000
    3.7585   -0.3958   -4.5094 N   0  0  0  0  0  0  0  0  0  0  0  0
    4.1098   -0.8386   -5.4665 N   0  0  0  0  0  0  0  0  0  0  0  0
    3.3886    0.2157   -3.4509 N   0  0  0  0  0  0  0  0  0  0  0  0
    2.5980   -0.2487   -2.9589 H   0  0  0  0  0  0  0  0  0  0  0  0
    4.1919    0.4246   -2.7757 H   0  0  0  0  0  0  0  0  0  0  0  0
    1.5556   -2.1969   -6.8616 C   0  0  0  0  0  0  0  0  0  0  0  0
    0.9961   -0.9210   -6.7708 C   0  0  0  0  0  0  0  0  0  0  0  0
    0.4808   -0.4716   -5.5550 C   0  0  0  0  0  0  0  0  0  0  0  0
    0.5205   -1.3016   -4.4312 C   0  0  0  0  0  0  0  0  0  0  0  0
    1.0867   -2.5755   -4.5205 C   0  0  0  0  0  0  0  0  0  0  0  0
    1.6035   -3.0224   -5.7370 C   0  0  0  0  0  0  0  0  0  0  0  0
    1.9497   -2.5490   -7.8085 H   0  0  0  0  0  0  0  0  0  0  0  0
    0.9534   -0.2837   -7.6473 H   0  0  0  0  0  0  0  0  0  0  0  0
    0.0301    0.5126   -5.4866 H   0  0  0  0  0  0  0  0  0  0  0  0
    0.0956   -0.9664   -3.4909 H   0  0  0  0  0  0  0  0  0  0  0  0
    1.1210   -3.2148   -3.6459 H   0  0  0  0  0  0  0  0  0  0  0  0
    2.0390   -4.0126   -5.8080 H   0  0  0  0  0  0  0  0  0  0  0  0
    4.2360   -1.5212   -0.5686 Al  0  0  0  0  0  0  0  0  0  0  0  0
    4.6824   -2.1292    1.4011 Cl  0  0  0  0  0  0  0  0  0  0  0  0
    5.2800    0.3720   -1.1115 Cl  0  0  0  0  0  0  0  0  0  0  0  0
    4.7530   -2.8924   -2.1510 Cl  0  0  0  0  0  0  0  0  0  0  0  0
    2.1143   -1.0243   -0.8788 Cl  0  0  0  0  0  0  0  0  0  0  0  0
  1  3  1  0  0  0  0
  2  1  1  0  0  0  0
  3  4  1  0  0  0  0
  3  5  1  0  0  0  0
  6  7  2  0  0  0  0
  6 11  1  0  0  0  0
  7  8  1  0  0  0  0
  8 14  1  0  0  0  0
  8  9  2  0  0  0  0
  9 15  1  0  0  0  0
 10  9  1  0  0  0  0
 10 16  1  0  0  0  0
 11 10  2  0  0  0  0
 12  6  1  0  0  0  0
 13  7  1  0  0  0  0
 17 11  1  0  0  0  0
 18 19  1  0  0  0  0
 20 18  1  0  0  0  0
 21 18  1  0  0  0  0
 22 18  1  0  0  0  0
M  RAD  2   1   2   2   3
M  END
