Coordinates from ORCA-job C6H6+AlCl4-+NH2N2+-scan
 OpenBabel10161817473D

 22 20  0  0  0  0  0  0  0  0999 V2000
    3.8189   -1.2922   -4.3199 N   0  0  0  0  0  0  0  0  0  0  0  0
    4.3162   -2.0140   -5.0019 N   0  0  0  0  0  0  0  0  0  0  0  0
    3.2084   -0.3878   -3.6535 N   0  0  0  0  0  0  0  0  0  0  0  0
    2.5648   -0.7849   -2.9232 H   0  0  0  0  0  0  0  0  0  0  0  0
    3.8929    0.2635   -3.1604 H   0  0  0  0  0  0  0  0  0  0  0  0
    1.5384   -1.7047   -7.0600 C   0  0  0  0  0  0  0  0  0  0  0  0
    1.4319   -0.5715   -6.2531 C   0  0  0  0  0  0  0  0  0  0  0  0
    1.0163   -0.6938   -4.9249 C   0  0  0  0  0  0  0  0  0  0  0  0
    0.6594   -1.9483   -4.4237 C   0  0  0  0  0  0  0  0  0  0  0  0
    0.7739   -3.0820   -5.2307 C   0  0  0  0  0  0  0  0  0  0  0  0
    1.2143   -2.9617   -6.5482 C   0  0  0  0  0  0  0  0  0  0  0  0
    1.8616   -1.6062   -8.0905 H   0  0  0  0  0  0  0  0  0  0  0  0
    1.6659    0.4069   -6.6592 H   0  0  0  0  0  0  0  0  0  0  0  0
    0.8725    0.1943   -4.3231 H   0  0  0  0  0  0  0  0  0  0  0  0
    0.2863   -2.0432   -3.4094 H   0  0  0  0  0  0  0  0  0  0  0  0
    0.5020   -4.0542   -4.8353 H   0  0  0  0  0  0  0  0  0  0  0  0
    1.2933   -3.8411   -7.1772 H   0  0  0  0  0  0  0  0  0  0  0  0
    4.1693   -0.6105   -0.3289 Al  0  0  0  0  0  0  0  0  0  0  0  0
    4.4628   -0.3119    1.7368 Cl  0  0  0  0  0  0  0  0  0  0  0  0
    4.7460    1.1624   -1.5362 Cl  0  0  0  0  0  0  0  0  0  0  0  0
    5.2089   -2.2597   -1.2457 Cl  0  0  0  0  0  0  0  0  0  0  0  0
    2.0404   -0.9001   -0.8652 Cl  0  0  0  0  0  0  0  0  0  0  0  0
  1  3  1  0  0  0  0
  2  1  1  0  0  0  0
  3  5  1  0  0  0  0
  3  4  1  0  0  0  0
  6 11  2  0  0  0  0
  6  7  1  0  0  0  0
  7  8  2  0  0  0  0
  8  9  1  0  0  0  0
  8 14  1  0  0  0  0
  9 15  1  0  0  0  0
 10 16  1  0  0  0  0
 10  9  2  0  0  0  0
 11 10  1  0  0  0  0
 12  6  1  0  0  0  0
 13  7  1  0  0  0  0
 17 11  1  0  0  0  0
 18 19  1  0  0  0  0
 20 18  1  0  0  0  0
 21 18  1  0  0  0  0
 22 18  1  0  0  0  0
M  RAD  2   1   2   2   3
M  END
