Coordinates from ORCA-job C6H6+AlCl4-+NH2N2+-scan
 OpenBabel10161817473D

 22 20  0  0  0  0  0  0  0  0999 V2000
    3.6153   -0.1486   -4.3885 N   0  0  0  0  0  0  0  0  0  0  0  0
    3.9361   -0.3930   -5.4246 N   0  0  0  0  0  0  0  0  0  0  0  0
    3.2676    0.2375   -3.2228 N   0  0  0  0  0  0  0  0  0  0  0  0
    2.5766   -0.3915   -2.7619 H   0  0  0  0  0  0  0  0  0  0  0  0
    4.0913    0.4427   -2.5719 H   0  0  0  0  0  0  0  0  0  0  0  0
    1.6878   -2.3242   -6.7000 C   0  0  0  0  0  0  0  0  0  0  0  0
    1.0439   -1.1074   -6.9371 C   0  0  0  0  0  0  0  0  0  0  0  0
    0.3526   -0.4710   -5.9065 C   0  0  0  0  0  0  0  0  0  0  0  0
    0.3031   -1.0532   -4.6378 C   0  0  0  0  0  0  0  0  0  0  0  0
    0.9462   -2.2712   -4.4004 C   0  0  0  0  0  0  0  0  0  0  0  0
    1.6392   -2.9059   -5.4329 C   0  0  0  0  0  0  0  0  0  0  0  0
    2.2201   -2.8211   -7.5034 H   0  0  0  0  0  0  0  0  0  0  0  0
    1.0753   -0.6615   -7.9251 H   0  0  0  0  0  0  0  0  0  0  0  0
   -0.1562    0.4684   -6.0929 H   0  0  0  0  0  0  0  0  0  0  0  0
   -0.2525   -0.5709   -3.8403 H   0  0  0  0  0  0  0  0  0  0  0  0
    0.8994   -2.7280   -3.4183 H   0  0  0  0  0  0  0  0  0  0  0  0
    2.1378   -3.8504   -5.2473 H   0  0  0  0  0  0  0  0  0  0  0  0
    4.4691   -1.7910   -0.6857 Al  0  0  0  0  0  0  0  0  0  0  0  0
    5.0957   -2.6168    1.1508 Cl  0  0  0  0  0  0  0  0  0  0  0  0
    5.3042    0.2509   -1.0061 Cl  0  0  0  0  0  0  0  0  0  0  0  0
    4.9969   -2.8737   -2.4738 Cl  0  0  0  0  0  0  0  0  0  0  0  0
    2.2949   -1.4606   -0.8069 Cl  0  0  0  0  0  0  0  0  0  0  0  0
  1  3  1  0  0  0  0
  2  1  1  0  0  0  0
  3  4  1  0  0  0  0
  3  5  1  0  0  0  0
  6 11  1  0  0  0  0
  7  6  2  0  0  0  0
  7  8  1  0  0  0  0
  8  9  2  0  0  0  0
  9 10  1  0  0  0  0
  9 15  1  0  0  0  0
 10 16  1  0  0  0  0
 11 17  1  0  0  0  0
 11 10  2  0  0  0  0
 12  6  1  0  0  0  0
 13  7  1  0  0  0  0
 14  8  1  0  0  0  0
 18 19  1  0  0  0  0
 20 18  1  0  0  0  0
 21 18  1  0  0  0  0
 22 18  1  0  0  0  0
M  RAD  2   1   2   2   3
M  END
