Coordinates from ORCA-job C6H6+AlCl4-+NH2N2+-scan
 OpenBabel10161817473D

 22 20  0  0  0  0  0  0  0  0999 V2000
    3.4847   -0.0390   -4.3350 N   0  0  0  0  0  0  0  0  0  0  0  0
    3.7988   -0.1691   -5.3935 N   0  0  0  0  0  0  0  0  0  0  0  0
    3.1337    0.2291   -3.1367 N   0  0  0  0  0  0  0  0  0  0  0  0
    2.4965   -0.4777   -2.7179 H   0  0  0  0  0  0  0  0  0  0  0  0
    3.9594    0.4358   -2.4870 H   0  0  0  0  0  0  0  0  0  0  0  0
    1.7688   -2.3906   -6.5510 C   0  0  0  0  0  0  0  0  0  0  0  0
    1.1789   -1.1859   -6.9398 C   0  0  0  0  0  0  0  0  0  0  0  0
    0.4081   -0.4601   -6.0311 C   0  0  0  0  0  0  0  0  0  0  0  0
    0.2185   -0.9441   -4.7356 C   0  0  0  0  0  0  0  0  0  0  0  0
    0.8072   -2.1511   -4.3470 C   0  0  0  0  0  0  0  0  0  0  0  0
    1.5857   -2.8718   -5.2545 C   0  0  0  0  0  0  0  0  0  0  0  0
    2.3668   -2.9545   -7.2582 H   0  0  0  0  0  0  0  0  0  0  0  0
    1.3157   -0.8171   -7.9504 H   0  0  0  0  0  0  0  0  0  0  0  0
   -0.0584    0.4702   -6.3367 H   0  0  0  0  0  0  0  0  0  0  0  0
   -0.4010   -0.3935   -4.0355 H   0  0  0  0  0  0  0  0  0  0  0  0
    0.6525   -2.5355   -3.3451 H   0  0  0  0  0  0  0  0  0  0  0  0
    2.0461   -3.8043   -4.9490 H   0  0  0  0  0  0  0  0  0  0  0  0
    4.6034   -1.8919   -0.8169 Al  0  0  0  0  0  0  0  0  0  0  0  0
    5.3851   -2.8144    0.9112 Cl  0  0  0  0  0  0  0  0  0  0  0  0
    5.2326    0.2415   -0.9775 Cl  0  0  0  0  0  0  0  0  0  0  0  0
    5.1540   -2.7567   -2.7146 Cl  0  0  0  0  0  0  0  0  0  0  0  0
    2.4073   -1.7596   -0.8317 Cl  0  0  0  0  0  0  0  0  0  0  0  0
  1  3  1  0  0  0  0
  2  1  1  0  0  0  0
  3  4  1  0  0  0  0
  3  5  1  0  0  0  0
  6 11  1  0  0  0  0
  7  6  2  0  0  0  0
  7  8  1  0  0  0  0
  8  9  2  0  0  0  0
  9 10  1  0  0  0  0
  9 15  1  0  0  0  0
 10 16  1  0  0  0  0
 11 17  1  0  0  0  0
 11 10  2  0  0  0  0
 12  6  1  0  0  0  0
 13  7  1  0  0  0  0
 14  8  1  0  0  0  0
 18 19  1  0  0  0  0
 20 18  1  0  0  0  0
 21 18  1  0  0  0  0
 22 18  1  0  0  0  0
M  RAD  2   1   2   2   3
M  END
