Coordinates from ORCA-job C6H6+AlCl4-+NH2N2+-scan
 OpenBabel10161817473D

 22 20  0  0  0  0  0  0  0  0999 V2000
    2.9220   -0.5747   -0.5418 N   0  0  0  0  0  0  0  0  0  0  0  0
    1.9605   -0.0918   -0.8238 N   0  0  0  0  0  0  0  0  0  0  0  0
    3.9865   -1.1443   -0.1338 N   0  0  0  0  0  0  0  0  0  0  0  0
    4.2428   -2.0166   -0.6879 H   0  0  0  0  0  0  0  0  0  0  0  0
    4.8361   -0.5018   -0.1175 H   0  0  0  0  0  0  0  0  0  0  0  0
    0.0079   -2.9611   -6.1452 C   0  0  0  0  0  0  0  0  0  0  0  0
    1.2726   -2.4003   -5.9702 C   0  0  0  0  0  0  0  0  0  0  0  0
    1.4510   -1.0237   -6.1059 C   0  0  0  0  0  0  0  0  0  0  0  0
    0.3629   -0.2087   -6.4167 C   0  0  0  0  0  0  0  0  0  0  0  0
   -0.9020   -0.7690   -6.5915 C   0  0  0  0  0  0  0  0  0  0  0  0
   -1.0798   -2.1454   -6.4554 C   0  0  0  0  0  0  0  0  0  0  0  0
   -0.1294   -4.0324   -6.0436 H   0  0  0  0  0  0  0  0  0  0  0  0
    2.1204   -3.0337   -5.7323 H   0  0  0  0  0  0  0  0  0  0  0  0
    2.4354   -0.5902   -5.9673 H   0  0  0  0  0  0  0  0  0  0  0  0
    0.5019    0.8617   -6.5253 H   0  0  0  0  0  0  0  0  0  0  0  0
   -1.7475   -0.1347   -6.8360 H   0  0  0  0  0  0  0  0  0  0  0  0
   -2.0632   -2.5817   -6.5942 H   0  0  0  0  0  0  0  0  0  0  0  0
    6.3530   -1.1282   -2.6165 Al  0  0  0  0  0  0  0  0  0  0  0  0
    8.1020   -1.3806   -3.7600 Cl  0  0  0  0  0  0  0  0  0  0  0  0
    6.7084   -0.0028   -0.7349 Cl  0  0  0  0  0  0  0  0  0  0  0  0
    4.6861   -0.1258   -3.5419 Cl  0  0  0  0  0  0  0  0  0  0  0  0
    5.5173   -3.0547   -1.8917 Cl  0  0  0  0  0  0  0  0  0  0  0  0
  1  3  1  0  0  0  0
  2  1  1  0  0  0  0
  3  5  1  0  0  0  0
  4  3  1  0  0  0  0
  6 12  1  0  0  0  0
  6  7  2  0  0  0  0
  7 13  1  0  0  0  0
  8  7  1  0  0  0  0
  8 14  1  0  0  0  0
  9  8  2  0  0  0  0
 10 11  2  0  0  0  0
 10  9  1  0  0  0  0
 11  6  1  0  0  0  0
 15  9  1  0  0  0  0
 16 10  1  0  0  0  0
 17 11  1  0  0  0  0
 18 22  1  0  0  0  0
 18 20  1  0  0  0  0
 19 18  1  0  0  0  0
 21 18  1  0  0  0  0
M  RAD  2   1   2   2   3
M  END
