Coordinates from ORCA-job C6H6+AlCl4-+NH2N2+-scan
 OpenBabel10161817473D

 22 20  0  0  0  0  0  0  0  0999 V2000
    2.9377    0.3527   -3.8574 N   0  0  0  0  0  0  0  0  0  0  0  0
    3.0811    0.8420   -4.8449 N   0  0  0  0  0  0  0  0  0  0  0  0
    2.7343   -0.1173   -2.6900 N   0  0  0  0  0  0  0  0  0  0  0  0
    2.4528   -1.1129   -2.6923 H   0  0  0  0  0  0  0  0  0  0  0  0
    3.5321    0.0890   -1.9970 H   0  0  0  0  0  0  0  0  0  0  0  0
    1.8809   -2.5422   -5.5589 C   0  0  0  0  0  0  0  0  0  0  0  0
    1.7838   -1.5890   -6.5734 C   0  0  0  0  0  0  0  0  0  0  0  0
    0.7871   -0.6130   -6.5206 C   0  0  0  0  0  0  0  0  0  0  0  0
   -0.1173   -0.5908   -5.4580 C   0  0  0  0  0  0  0  0  0  0  0  0
   -0.0250   -1.5474   -4.4463 C   0  0  0  0  0  0  0  0  0  0  0  0
    0.9737   -2.5239   -4.4970 C   0  0  0  0  0  0  0  0  0  0  0  0
    2.6562   -3.2988   -5.5939 H   0  0  0  0  0  0  0  0  0  0  0  0
    2.4809   -1.6090   -7.4035 H   0  0  0  0  0  0  0  0  0  0  0  0
    0.7077    0.1223   -7.3139 H   0  0  0  0  0  0  0  0  0  0  0  0
   -0.8984    0.1609   -5.4253 H   0  0  0  0  0  0  0  0  0  0  0  0
   -0.7368   -1.5430   -3.6278 H   0  0  0  0  0  0  0  0  0  0  0  0
    1.0404   -3.2766   -3.7194 H   0  0  0  0  0  0  0  0  0  0  0  0
    5.3440   -2.1401   -1.5871 Al  0  0  0  0  0  0  0  0  0  0  0  0
    6.8021   -3.2022   -0.4931 Cl  0  0  0  0  0  0  0  0  0  0  0  0
    5.0246   -0.0901   -0.7545 Cl  0  0  0  0  0  0  0  0  0  0  0  0
    5.7648   -1.7957   -3.6764 Cl  0  0  0  0  0  0  0  0  0  0  0  0
    3.3378   -3.0154   -1.5025 Cl  0  0  0  0  0  0  0  0  0  0  0  0
  1  3  1  0  0  0  0
  2  1  1  0  0  0  0
  3  5  1  0  0  0  0
  4  3  1  0  0  0  0
  6 11  2  0  0  0  0
  7  8  2  0  0  0  0
  7  6  1  0  0  0  0
  8  9  1  0  0  0  0
  9 15  1  0  0  0  0
  9 10  2  0  0  0  0
 10 16  1  0  0  0  0
 11 10  1  0  0  0  0
 11 17  1  0  0  0  0
 12  6  1  0  0  0  0
 13  7  1  0  0  0  0
 14  8  1  0  0  0  0
 18 22  1  0  0  0  0
 18 20  1  0  0  0  0
 18 19  1  0  0  0  0
 21 18  1  0  0  0  0
M  RAD  2   1   2   2   3
M  END
