Coordinates from ORCA-job C6H6+AlCl4-+NH2N2+-scan
 OpenBabel10161817473D

 22 20  0  0  0  0  0  0  0  0999 V2000
    3.9906   -0.9299   -4.5659 N   0  0  0  0  0  0  0  0  0  0  0  0
    4.2447   -1.7093   -5.3169 N   0  0  0  0  0  0  0  0  0  0  0  0
    3.7681    0.0391   -3.7652 N   0  0  0  0  0  0  0  0  0  0  0  0
    2.8438   -0.0141   -3.2906 H   0  0  0  0  0  0  0  0  0  0  0  0
    4.5564    0.2070   -3.0615 H   0  0  0  0  0  0  0  0  0  0  0  0
    1.3601   -1.7883   -6.9932 C   0  0  0  0  0  0  0  0  0  0  0  0
    0.9614   -0.6503   -6.2927 C   0  0  0  0  0  0  0  0  0  0  0  0
    0.6754   -0.7372   -4.9279 C   0  0  0  0  0  0  0  0  0  0  0  0
    0.7871   -1.9622   -4.2645 C   0  0  0  0  0  0  0  0  0  0  0  0
    1.1870   -3.0996   -4.9675 C   0  0  0  0  0  0  0  0  0  0  0  0
    1.4730   -3.0124   -6.3303 C   0  0  0  0  0  0  0  0  0  0  0  0
    1.5743   -1.7251   -8.0544 H   0  0  0  0  0  0  0  0  0  0  0  0
    0.8593    0.2980   -6.8091 H   0  0  0  0  0  0  0  0  0  0  0  0
    0.3394    0.1411   -4.3861 H   0  0  0  0  0  0  0  0  0  0  0  0
    0.5586   -2.0289   -3.2071 H   0  0  0  0  0  0  0  0  0  0  0  0
    1.2726   -4.0496   -4.4526 H   0  0  0  0  0  0  0  0  0  0  0  0
    1.7779   -3.8977   -6.8773 H   0  0  0  0  0  0  0  0  0  0  0  0
    3.8537   -0.8764   -0.4195 Al  0  0  0  0  0  0  0  0  0  0  0  0
    3.9625   -0.9308    1.6861 Cl  0  0  0  0  0  0  0  0  0  0  0  0
    5.4649    0.3853   -1.3030 Cl  0  0  0  0  0  0  0  0  0  0  0  0
    4.0200   -2.7618   -1.4524 Cl  0  0  0  0  0  0  0  0  0  0  0  0
    2.0138    0.0626   -1.1819 Cl  0  0  0  0  0  0  0  0  0  0  0  0
  1  3  1  0  0  0  0
  2  1  1  0  0  0  0
  3  4  1  0  0  0  0
  3  5  1  0  0  0  0
  6 11  2  0  0  0  0
  6  7  1  0  0  0  0
  7  8  2  0  0  0  0
  8 14  1  0  0  0  0
  8  9  1  0  0  0  0
  9 15  1  0  0  0  0
 10 16  1  0  0  0  0
 10  9  2  0  0  0  0
 11 10  1  0  0  0  0
 12  6  1  0  0  0  0
 13  7  1  0  0  0  0
 17 11  1  0  0  0  0
 18 19  1  0  0  0  0
 20 18  1  0  0  0  0
 21 18  1  0  0  0  0
 22 18  1  0  0  0  0
M  RAD  2   1   2   2   3
M  END
