Coordinates from ORCA-job C6H6+AlCl4-+NH2N2+-scan
 OpenBabel10161817473D

 22 20  0  0  0  0  0  0  0  0999 V2000
    3.8572   -1.1162   -4.4787 N   0  0  0  0  0  0  0  0  0  0  0  0
    4.2292   -1.9186   -5.1505 N   0  0  0  0  0  0  0  0  0  0  0  0
    3.4812   -0.1123   -3.7830 N   0  0  0  0  0  0  0  0  0  0  0  0
    2.6227   -0.2929   -3.2273 H   0  0  0  0  0  0  0  0  0  0  0  0
    4.2598    0.2639   -3.1564 H   0  0  0  0  0  0  0  0  0  0  0  0
    1.4413   -1.7096   -7.0050 C   0  0  0  0  0  0  0  0  0  0  0  0
    1.2243   -0.5919   -6.2007 C   0  0  0  0  0  0  0  0  0  0  0  0
    0.9241   -0.7562   -4.8457 C   0  0  0  0  0  0  0  0  0  0  0  0
    0.8125   -2.0388   -4.3031 C   0  0  0  0  0  0  0  0  0  0  0  0
    1.0357   -3.1561   -5.1099 C   0  0  0  0  0  0  0  0  0  0  0  0
    1.3509   -2.9916   -6.4584 C   0  0  0  0  0  0  0  0  0  0  0  0
    1.6714   -1.5842   -8.0572 H   0  0  0  0  0  0  0  0  0  0  0  0
    1.2792    0.4040   -6.6267 H   0  0  0  0  0  0  0  0  0  0  0  0
    0.7070    0.1122   -4.2325 H   0  0  0  0  0  0  0  0  0  0  0  0
    0.5516   -2.1652   -3.2583 H   0  0  0  0  0  0  0  0  0  0  0  0
    0.9542   -4.1512   -4.6877 H   0  0  0  0  0  0  0  0  0  0  0  0
    1.5172   -3.8603   -7.0856 H   0  0  0  0  0  0  0  0  0  0  0  0
    3.9347   -0.7179   -0.3952 Al  0  0  0  0  0  0  0  0  0  0  0  0
    4.1727   -0.6104    1.6979 Cl  0  0  0  0  0  0  0  0  0  0  0  0
    5.2248    0.7497   -1.4613 Cl  0  0  0  0  0  0  0  0  0  0  0  0
    4.3840   -2.6099   -1.3298 Cl  0  0  0  0  0  0  0  0  0  0  0  0
    1.9089   -0.1869   -1.0786 Cl  0  0  0  0  0  0  0  0  0  0  0  0
  1  3  1  0  0  0  0
  2  1  1  0  0  0  0
  3  4  1  0  0  0  0
  3  5  1  0  0  0  0
  6 11  2  0  0  0  0
  6  7  1  0  0  0  0
  7  8  2  0  0  0  0
  8  9  1  0  0  0  0
  8 14  1  0  0  0  0
  9 15  1  0  0  0  0
 10 16  1  0  0  0  0
 10  9  2  0  0  0  0
 11 10  1  0  0  0  0
 12  6  1  0  0  0  0
 13  7  1  0  0  0  0
 17 11  1  0  0  0  0
 18 19  1  0  0  0  0
 20 18  1  0  0  0  0
 21 18  1  0  0  0  0
 22 18  1  0  0  0  0
M  RAD  2   1   2   2   3
M  END
