Coordinates from ORCA-job C6H6+AlCl4-+NH2N2+-scan
 OpenBabel10161817473D

 22 20  0  0  0  0  0  0  0  0999 V2000
    3.9585   -1.0544   -4.5397 N   0  0  0  0  0  0  0  0  0  0  0  0
    4.2490   -1.8785   -5.2263 N   0  0  0  0  0  0  0  0  0  0  0  0
    3.6978   -0.0376   -3.8132 N   0  0  0  0  0  0  0  0  0  0  0  0
    2.7701   -0.0866   -3.3524 H   0  0  0  0  0  0  0  0  0  0  0  0
    4.4753    0.1991   -3.1160 H   0  0  0  0  0  0  0  0  0  0  0  0
    1.3698   -1.7105   -6.9860 C   0  0  0  0  0  0  0  0  0  0  0  0
    1.0691   -0.6099   -6.1843 C   0  0  0  0  0  0  0  0  0  0  0  0
    0.8069   -0.7905   -4.8235 C   0  0  0  0  0  0  0  0  0  0  0  0
    0.8376   -2.0717   -4.2664 C   0  0  0  0  0  0  0  0  0  0  0  0
    1.1397   -3.1712   -5.0710 C   0  0  0  0  0  0  0  0  0  0  0  0
    1.4057   -2.9904   -6.4287 C   0  0  0  0  0  0  0  0  0  0  0  0
    1.5667   -1.5740   -8.0436 H   0  0  0  0  0  0  0  0  0  0  0  0
    1.0250    0.3832   -6.6180 H   0  0  0  0  0  0  0  0  0  0  0  0
    0.5378    0.0600   -4.2048 H   0  0  0  0  0  0  0  0  0  0  0  0
    0.6246   -2.2092   -3.2124 H   0  0  0  0  0  0  0  0  0  0  0  0
    1.1631   -4.1654   -4.6397 H   0  0  0  0  0  0  0  0  0  0  0  0
    1.6345   -3.8463   -7.0539 H   0  0  0  0  0  0  0  0  0  0  0  0
    3.8343   -0.7428   -0.4134 Al  0  0  0  0  0  0  0  0  0  0  0  0
    3.9836   -0.6894    1.6902 Cl  0  0  0  0  0  0  0  0  0  0  0  0
    5.3981    0.5118   -1.3885 Cl  0  0  0  0  0  0  0  0  0  0  0  0
    4.0359   -2.6747   -1.3524 Cl  0  0  0  0  0  0  0  0  0  0  0  0
    1.9614    0.1083   -1.1897 Cl  0  0  0  0  0  0  0  0  0  0  0  0
  1  3  1  0  0  0  0
  2  1  1  0  0  0  0
  3  4  1  0  0  0  0
  3  5  1  0  0  0  0
  6 11  2  0  0  0  0
  6  7  1  0  0  0  0
  7  8  2  0  0  0  0
  8  9  1  0  0  0  0
  8 14  1  0  0  0  0
  9 15  1  0  0  0  0
 10 16  1  0  0  0  0
 10  9  2  0  0  0  0
 11 10  1  0  0  0  0
 12  6  1  0  0  0  0
 13  7  1  0  0  0  0
 17 11  1  0  0  0  0
 18 19  1  0  0  0  0
 20 18  1  0  0  0  0
 21 18  1  0  0  0  0
 22 18  1  0  0  0  0
M  RAD  2   1   2   2   3
M  END
