Coordinates from ORCA-job C6H6+AlCl4-+NH2N2+-scan
 OpenBabel10161817473D

 22 20  0  0  0  0  0  0  0  0999 V2000
    3.3464    0.5914   -3.2319 N   0  0  0  0  0  0  0  0  0  0  0  0
    3.2688    0.8704   -4.3054 N   0  0  0  0  0  0  0  0  0  0  0  0
    3.3768    0.3377   -1.9814 N   0  0  0  0  0  0  0  0  0  0  0  0
    2.9612   -0.6051   -1.7321 H   0  0  0  0  0  0  0  0  0  0  0  0
    4.3482    0.4032   -1.5543 H   0  0  0  0  0  0  0  0  0  0  0  0
    1.9700   -2.0464   -5.7718 C   0  0  0  0  0  0  0  0  0  0  0  0
    1.5290   -1.4641   -6.9612 C   0  0  0  0  0  0  0  0  0  0  0  0
    0.2164   -1.0043   -7.0699 C   0  0  0  0  0  0  0  0  0  0  0  0
   -0.6543   -1.1204   -5.9862 C   0  0  0  0  0  0  0  0  0  0  0  0
   -0.2152   -1.7020   -4.7967 C   0  0  0  0  0  0  0  0  0  0  0  0
    1.0961   -2.1675   -4.6895 C   0  0  0  0  0  0  0  0  0  0  0  0
    2.9849   -2.4202   -5.6895 H   0  0  0  0  0  0  0  0  0  0  0  0
    2.2052   -1.3789   -7.8048 H   0  0  0  0  0  0  0  0  0  0  0  0
   -0.1279   -0.5592   -7.9971 H   0  0  0  0  0  0  0  0  0  0  0  0
   -1.6760   -0.7665   -6.0716 H   0  0  0  0  0  0  0  0  0  0  0  0
   -0.8975   -1.8057   -3.9597 H   0  0  0  0  0  0  0  0  0  0  0  0
    1.4320   -2.6460   -3.7751 H   0  0  0  0  0  0  0  0  0  0  0  0
    5.3540   -2.4161   -1.3654 Al  0  0  0  0  0  0  0  0  0  0  0  0
    6.4205   -3.9933   -0.4658 Cl  0  0  0  0  0  0  0  0  0  0  0  0
    5.9381   -0.4248   -0.5769 Cl  0  0  0  0  0  0  0  0  0  0  0  0
    5.4912   -2.2204   -3.5070 Cl  0  0  0  0  0  0  0  0  0  0  0  0
    3.1765   -2.5025   -0.9404 Cl  0  0  0  0  0  0  0  0  0  0  0  0
  1  3  1  0  0  0  0
  2  1  1  0  0  0  0
  3  4  1  0  0  0  0
  3  5  1  0  0  0  0
  6 12  1  0  0  0  0
  6 11  2  0  0  0  0
  7  6  1  0  0  0  0
  8  7  2  0  0  0  0
  8  9  1  0  0  0  0
  9 10  2  0  0  0  0
 10 11  1  0  0  0  0
 10 16  1  0  0  0  0
 11 17  1  0  0  0  0
 13  7  1  0  0  0  0
 14  8  1  0  0  0  0
 15  9  1  0  0  0  0
 18 22  1  0  0  0  0
 18 20  1  0  0  0  0
 18 19  1  0  0  0  0
 21 18  1  0  0  0  0
M  RAD  2   1   2   2   3
M  END
