Coordinates from ORCA-job C6H6+AlCl4-+NH2N2+-scan
 OpenBabel10161817473D

 22 20  0  0  0  0  0  0  0  0999 V2000
    3.3815    0.6335   -3.1663 N   0  0  0  0  0  0  0  0  0  0  0  0
    3.2880    0.9181   -4.2370 N   0  0  0  0  0  0  0  0  0  0  0  0
    3.4305    0.3738   -1.9176 N   0  0  0  0  0  0  0  0  0  0  0  0
    3.0027   -0.5640   -1.6655 H   0  0  0  0  0  0  0  0  0  0  0  0
    4.4106    0.4178   -1.5089 H   0  0  0  0  0  0  0  0  0  0  0  0
    1.9578   -2.0334   -5.7869 C   0  0  0  0  0  0  0  0  0  0  0  0
    1.5117   -1.4768   -6.9866 C   0  0  0  0  0  0  0  0  0  0  0  0
    0.1920   -1.0414   -7.1073 C   0  0  0  0  0  0  0  0  0  0  0  0
   -0.6809   -1.1560   -6.0253 C   0  0  0  0  0  0  0  0  0  0  0  0
   -0.2367   -1.7117   -4.8254 C   0  0  0  0  0  0  0  0  0  0  0  0
    1.0819   -2.1528   -4.7062 C   0  0  0  0  0  0  0  0  0  0  0  0
    2.9785   -2.3887   -5.6951 H   0  0  0  0  0  0  0  0  0  0  0  0
    2.1899   -1.3927   -7.8288 H   0  0  0  0  0  0  0  0  0  0  0  0
   -0.1561   -0.6162   -8.0424 H   0  0  0  0  0  0  0  0  0  0  0  0
   -1.7082   -0.8210   -6.1199 H   0  0  0  0  0  0  0  0  0  0  0  0
   -0.9204   -1.8140   -3.9894 H   0  0  0  0  0  0  0  0  0  0  0  0
    1.4223   -2.6111   -3.7831 H   0  0  0  0  0  0  0  0  0  0  0  0
    5.3564   -2.4272   -1.3649 Al  0  0  0  0  0  0  0  0  0  0  0  0
    6.3993   -4.0393   -0.5006 Cl  0  0  0  0  0  0  0  0  0  0  0  0
    5.9976   -0.4591   -0.5639 Cl  0  0  0  0  0  0  0  0  0  0  0  0
    5.4629   -2.2092   -3.5060 Cl  0  0  0  0  0  0  0  0  0  0  0  0
    3.1835   -2.4694   -0.9063 Cl  0  0  0  0  0  0  0  0  0  0  0  0
  1  3  1  0  0  0  0
  2  1  1  0  0  0  0
  3  4  1  0  0  0  0
  3  5  1  0  0  0  0
  6 12  1  0  0  0  0
  6 11  2  0  0  0  0
  7  6  1  0  0  0  0
  8  7  2  0  0  0  0
  8  9  1  0  0  0  0
  9 10  2  0  0  0  0
 10 11  1  0  0  0  0
 10 16  1  0  0  0  0
 11 17  1  0  0  0  0
 13  7  1  0  0  0  0
 14  8  1  0  0  0  0
 15  9  1  0  0  0  0
 18 22  1  0  0  0  0
 18 20  1  0  0  0  0
 18 19  1  0  0  0  0
 21 18  1  0  0  0  0
M  RAD  2   1   2   2   3
M  END
