Coordinates from ORCA-job C6H6+AlCl4-+NH2N2+-scan
 OpenBabel10161817473D

 22 20  0  0  0  0  0  0  0  0999 V2000
    3.7689    0.5452    0.1347 N   0  0  0  0  0  0  0  0  0  0  0  0
    3.2686    1.5386    0.1575 N   0  0  0  0  0  0  0  0  0  0  0  0
    4.3264   -0.5973    0.1999 N   0  0  0  0  0  0  0  0  0  0  0  0
    3.8087   -1.3628   -0.3342 H   0  0  0  0  0  0  0  0  0  0  0  0
    5.3417   -0.5994   -0.1167 H   0  0  0  0  0  0  0  0  0  0  0  0
    0.7679   -2.9615   -6.8484 C   0  0  0  0  0  0  0  0  0  0  0  0
    1.7364   -2.1185   -6.3047 C   0  0  0  0  0  0  0  0  0  0  0  0
    1.3744   -0.8620   -5.8194 C   0  0  0  0  0  0  0  0  0  0  0  0
    0.0435   -0.4496   -5.8805 C   0  0  0  0  0  0  0  0  0  0  0  0
   -0.9250   -1.2923   -6.4248 C   0  0  0  0  0  0  0  0  0  0  0  0
   -0.5626   -2.5489   -6.9084 C   0  0  0  0  0  0  0  0  0  0  0  0
    1.0505   -3.9388   -7.2249 H   0  0  0  0  0  0  0  0  0  0  0  0
    2.7720   -2.4380   -6.2596 H   0  0  0  0  0  0  0  0  0  0  0  0
    2.1291   -0.2091   -5.3950 H   0  0  0  0  0  0  0  0  0  0  0  0
   -0.2381    0.5289   -5.5056 H   0  0  0  0  0  0  0  0  0  0  0  0
   -1.9599   -0.9703   -6.4730 H   0  0  0  0  0  0  0  0  0  0  0  0
   -1.3156   -3.2049   -7.3323 H   0  0  0  0  0  0  0  0  0  0  0  0
    5.2619   -1.6451   -2.9055 Al  0  0  0  0  0  0  0  0  0  0  0  0
    5.9806   -2.7070   -4.5761 Cl  0  0  0  0  0  0  0  0  0  0  0  0
    6.8179   -1.2638   -1.3714 Cl  0  0  0  0  0  0  0  0  0  0  0  0
    4.3789    0.2883   -3.2678 Cl  0  0  0  0  0  0  0  0  0  0  0  0
    3.7183   -2.7723   -1.7775 Cl  0  0  0  0  0  0  0  0  0  0  0  0
  1  2  1  0  0  0  0
  1  3  1  0  0  0  0
  4  3  1  0  0  0  0
  5  3  1  0  0  0  0
  6  7  1  0  0  0  0
  7 13  1  0  0  0  0
  7  8  2  0  0  0  0
  8 14  1  0  0  0  0
  9  8  1  0  0  0  0
  9 15  1  0  0  0  0
 10  9  2  0  0  0  0
 11  6  2  0  0  0  0
 11 10  1  0  0  0  0
 12  6  1  0  0  0  0
 16 10  1  0  0  0  0
 17 11  1  0  0  0  0
 18 22  1  0  0  0  0
 18 20  1  0  0  0  0
 19 18  1  0  0  0  0
 21 18  1  0  0  0  0
M  RAD  2   1   2   2   3
M  END
