Coordinates from ORCA-job C6H6+AlCl4-+NH2N2+-scan
 OpenBabel10161817473D

 22 20  0  0  0  0  0  0  0  0999 V2000
    3.2935    0.5281   -3.3458 N   0  0  0  0  0  0  0  0  0  0  0  0
    3.2550    0.8066   -4.4214 N   0  0  0  0  0  0  0  0  0  0  0  0
    3.2813    0.2747   -2.0951 N   0  0  0  0  0  0  0  0  0  0  0  0
    2.8884   -0.6791   -1.8605 H   0  0  0  0  0  0  0  0  0  0  0  0
    4.2313    0.3783   -1.6275 H   0  0  0  0  0  0  0  0  0  0  0  0
    1.9820   -2.0952   -5.7510 C   0  0  0  0  0  0  0  0  0  0  0  0
    1.5591   -1.4510   -6.9148 C   0  0  0  0  0  0  0  0  0  0  0  0
    0.2673   -0.9303   -6.9957 C   0  0  0  0  0  0  0  0  0  0  0  0
   -0.6003   -1.0472   -5.9098 C   0  0  0  0  0  0  0  0  0  0  0  0
   -0.1793   -1.6906   -4.7457 C   0  0  0  0  0  0  0  0  0  0  0  0
    1.1108   -2.2173   -4.6664 C   0  0  0  0  0  0  0  0  0  0  0  0
    2.9805   -2.5144   -5.6903 H   0  0  0  0  0  0  0  0  0  0  0  0
    2.2326   -1.3652   -7.7607 H   0  0  0  0  0  0  0  0  0  0  0  0
   -0.0632   -0.4373   -7.9035 H   0  0  0  0  0  0  0  0  0  0  0  0
   -1.6059   -0.6460   -5.9739 H   0  0  0  0  0  0  0  0  0  0  0  0
   -0.8600   -1.7952   -3.9076 H   0  0  0  0  0  0  0  0  0  0  0  0
    1.4317   -2.7426   -3.7726 H   0  0  0  0  0  0  0  0  0  0  0  0
    5.3483   -2.3851   -1.3688 Al  0  0  0  0  0  0  0  0  0  0  0  0
    6.4591   -3.8992   -0.4149 Cl  0  0  0  0  0  0  0  0  0  0  0  0
    5.8205   -0.3589   -0.5918 Cl  0  0  0  0  0  0  0  0  0  0  0  0
    5.5451   -2.2122   -3.5079 Cl  0  0  0  0  0  0  0  0  0  0  0  0
    3.1670   -2.5614   -1.0077 Cl  0  0  0  0  0  0  0  0  0  0  0  0
  1  3  1  0  0  0  0
  2  1  1  0  0  0  0
  3  4  1  0  0  0  0
  3  5  1  0  0  0  0
  6 12  1  0  0  0  0
  6 11  2  0  0  0  0
  7  6  1  0  0  0  0
  8  7  2  0  0  0  0
  8  9  1  0  0  0  0
  9 10  2  0  0  0  0
 10 11  1  0  0  0  0
 10 16  1  0  0  0  0
 11 17  1  0  0  0  0
 13  7  1  0  0  0  0
 14  8  1  0  0  0  0
 15  9  1  0  0  0  0
 18 22  1  0  0  0  0
 18 20  1  0  0  0  0
 18 19  1  0  0  0  0
 21 18  1  0  0  0  0
M  RAD  2   1   2   2   3
M  END
