Coordinates from ORCA-job C6H6+AlCl4-+NH2N2+-scan
 OpenBabel10161817473D

 22 20  0  0  0  0  0  0  0  0999 V2000
    3.7212   -0.3008   -4.4895 N   0  0  0  0  0  0  0  0  0  0  0  0
    4.0605   -0.6814   -5.4773 N   0  0  0  0  0  0  0  0  0  0  0  0
    3.3584    0.2409   -3.3920 N   0  0  0  0  0  0  0  0  0  0  0  0
    2.5887   -0.2694   -2.9118 H   0  0  0  0  0  0  0  0  0  0  0  0
    4.1677    0.4380   -2.7209 H   0  0  0  0  0  0  0  0  0  0  0  0
    1.5876   -2.2495   -6.8173 C   0  0  0  0  0  0  0  0  0  0  0  0
    1.0081   -0.9789   -6.8186 C   0  0  0  0  0  0  0  0  0  0  0  0
    0.4532   -0.4650   -5.6467 C   0  0  0  0  0  0  0  0  0  0  0  0
    0.4755   -1.2241   -4.4738 C   0  0  0  0  0  0  0  0  0  0  0  0
    1.0593   -2.4934   -4.4712 C   0  0  0  0  0  0  0  0  0  0  0  0
    1.6147   -3.0054   -5.6445 C   0  0  0  0  0  0  0  0  0  0  0  0
    2.0127   -2.6513   -7.7304 H   0  0  0  0  0  0  0  0  0  0  0  0
    0.9816   -0.3960   -7.7328 H   0  0  0  0  0  0  0  0  0  0  0  0
   -0.0111    0.5153   -5.6495 H   0  0  0  0  0  0  0  0  0  0  0  0
    0.0215   -0.8381   -3.5670 H   0  0  0  0  0  0  0  0  0  0  0  0
    1.0767   -3.0793   -3.5595 H   0  0  0  0  0  0  0  0  0  0  0  0
    2.0644   -3.9918   -5.6435 H   0  0  0  0  0  0  0  0  0  0  0  0
    4.2875   -1.6080   -0.6088 Al  0  0  0  0  0  0  0  0  0  0  0  0
    4.7659   -2.2956    1.3269 Cl  0  0  0  0  0  0  0  0  0  0  0  0
    5.2663    0.3421   -1.0646 Cl  0  0  0  0  0  0  0  0  0  0  0  0
    4.8362   -2.8833   -2.2588 Cl  0  0  0  0  0  0  0  0  0  0  0  0
    2.1479   -1.1657   -0.8819 Cl  0  0  0  0  0  0  0  0  0  0  0  0
  1  3  1  0  0  0  0
  2  1  1  0  0  0  0
  3  4  1  0  0  0  0
  3  5  1  0  0  0  0
  6 11  1  0  0  0  0
  7  6  2  0  0  0  0
  7  8  1  0  0  0  0
  8  9  2  0  0  0  0
  9 10  1  0  0  0  0
  9 15  1  0  0  0  0
 10 16  1  0  0  0  0
 11 17  1  0  0  0  0
 11 10  2  0  0  0  0
 12  6  1  0  0  0  0
 13  7  1  0  0  0  0
 14  8  1  0  0  0  0
 18 19  1  0  0  0  0
 20 18  1  0  0  0  0
 21 18  1  0  0  0  0
 22 18  1  0  0  0  0
M  RAD  2   1   2   2   3
M  END
