Coordinates from ORCA-job C6H6+AlCl4-+NH2N2+-scan
 OpenBabel10161817473D

 22 20  0  0  0  0  0  0  0  0999 V2000
    2.9987    0.3710   -3.5492 N   0  0  0  0  0  0  0  0  0  0  0  0
    3.0226    0.7627   -4.5890 N   0  0  0  0  0  0  0  0  0  0  0  0
    2.9306    0.0071   -2.3272 N   0  0  0  0  0  0  0  0  0  0  0  0
    2.6686   -0.9998   -2.2028 H   0  0  0  0  0  0  0  0  0  0  0  0
    3.8132    0.2255   -1.7660 H   0  0  0  0  0  0  0  0  0  0  0  0
    1.9416   -2.3401   -5.6309 C   0  0  0  0  0  0  0  0  0  0  0  0
    1.6897   -1.5499   -6.7529 C   0  0  0  0  0  0  0  0  0  0  0  0
    0.5405   -0.7592   -6.8092 C   0  0  0  0  0  0  0  0  0  0  0  0
   -0.3521   -0.7501   -5.7370 C   0  0  0  0  0  0  0  0  0  0  0  0
   -0.1017   -1.5395   -4.6138 C   0  0  0  0  0  0  0  0  0  0  0  0
    1.0432   -2.3379   -4.5615 C   0  0  0  0  0  0  0  0  0  0  0  0
    2.8302   -2.9600   -5.5895 H   0  0  0  0  0  0  0  0  0  0  0  0
    2.3833   -1.5584   -7.5864 H   0  0  0  0  0  0  0  0  0  0  0  0
    0.3412   -0.1536   -7.6865 H   0  0  0  0  0  0  0  0  0  0  0  0
   -1.2473   -0.1395   -5.7814 H   0  0  0  0  0  0  0  0  0  0  0  0
   -0.8068   -1.5477   -3.7894 H   0  0  0  0  0  0  0  0  0  0  0  0
    1.2263   -2.9755   -3.7030 H   0  0  0  0  0  0  0  0  0  0  0  0
    5.4154   -2.2494   -1.5013 Al  0  0  0  0  0  0  0  0  0  0  0  0
    6.7691   -3.5209   -0.5050 Cl  0  0  0  0  0  0  0  0  0  0  0  0
    5.4316   -0.1859   -0.6643 Cl  0  0  0  0  0  0  0  0  0  0  0  0
    5.7000   -1.9774   -3.6206 Cl  0  0  0  0  0  0  0  0  0  0  0  0
    3.3070   -2.8621   -1.2668 Cl  0  0  0  0  0  0  0  0  0  0  0  0
  1  3  1  0  0  0  0
  2  1  1  0  0  0  0
  3  4  1  0  0  0  0
  3  5  1  0  0  0  0
  6 12  1  0  0  0  0
  6 11  2  0  0  0  0
  7  6  1  0  0  0  0
  8  7  2  0  0  0  0
  8  9  1  0  0  0  0
  9 10  2  0  0  0  0
 10 11  1  0  0  0  0
 10 16  1  0  0  0  0
 11 17  1  0  0  0  0
 13  7  1  0  0  0  0
 14  8  1  0  0  0  0
 15  9  1  0  0  0  0
 18 22  1  0  0  0  0
 18 20  1  0  0  0  0
 18 19  1  0  0  0  0
 21 18  1  0  0  0  0
M  RAD  2   1   2   2   3
M  END
