Coordinates from ORCA-job C6H6+AlCl4-+NH2N2+-scan
 OpenBabel10161817473D

 22 20  0  0  1  0  0  0  0  0999 V2000
    6.6247   -2.5987   -5.5423 N   0  0  0  0  0  0  0  0  0  0  0  0
    7.6844   -2.7131   -5.7933 N   0  0  0  0  0  0  0  0  0  0  0  0
    3.6666   -2.0206   -4.0831 N   0  0  0  0  0  0  0  0  0  0  0  0
    3.6900   -1.9809   -3.0587 H   0  0  0  0  0  0  0  0  0  0  0  0
    4.5088   -2.2803   -4.5779 H   0  0  0  0  0  0  0  0  0  0  0  0
    1.3576   -1.3561   -6.8811 C   0  0  0  0  0  0  0  0  0  0  0  0
    2.5046   -1.6960   -6.2137 C   0  0  0  0  0  0  0  0  0  0  0  0
    2.5214   -1.6499   -4.7994 C   0  0  2  0  0  0  0  0  0  0  0  0
    1.3301   -1.1846   -4.0532 C   0  0  0  0  0  0  0  0  0  0  0  0
    0.1324   -0.8800   -4.8665 C   0  0  0  0  0  0  0  0  0  0  0  0
    0.1532   -0.9504   -6.2153 C   0  0  0  0  0  0  0  0  0  0  0  0
    1.3565   -1.4010   -7.9655 H   0  0  0  0  0  0  0  0  0  0  0  0
    3.3899   -2.0101   -6.7533 H   0  0  0  0  0  0  0  0  0  0  0  0
    1.6200   -0.2669   -3.4920 H   0  0  0  0  0  0  0  0  0  0  0  0
    1.0781   -1.8605   -3.2220 H   0  0  0  0  0  0  0  0  0  0  0  0
   -0.7570   -0.5759   -4.3266 H   0  0  0  0  0  0  0  0  0  0  0  0
   -0.7215   -0.7079   -6.8054 H   0  0  0  0  0  0  0  0  0  0  0  0
    2.2677   -0.5576   -0.2376 Al  0  0  0  0  0  0  0  0  0  0  0  0
    0.3584   -1.5202   -0.6162 Cl  0  0  0  0  0  0  0  0  0  0  0  0
    2.4449    1.0854   -1.6749 Cl  0  0  0  0  0  0  0  0  0  0  0  0
    2.5161    0.0887    1.7693 Cl  0  0  0  0  0  0  0  0  0  0  0  0
    3.8176   -2.0038   -0.8251 Cl  0  0  0  0  0  0  0  0  0  0  0  0
  2  1  3  0  0  0  0
  3  4  1  0  0  0  0
  5  3  1  0  0  0  0
  6 11  1  0  0  0  0
  6  7  2  0  0  0  0
  7  8  1  0  0  0  0
  8  3  1  6  0  0  0
  8  9  1  0  0  0  0
  9 14  1  0  0  0  0
  9 15  1  0  0  0  0
 10 16  1  0  0  0  0
 10  9  1  0  0  0  0
 11 10  2  0  0  0  0
 12  6  1  0  0  0  0
 13  7  1  0  0  0  0
 17 11  1  0  0  0  0
 18 21  1  0  0  0  0
 19 18  1  0  0  0  0
 20 18  1  0  0  0  0
 22 18  1  0  0  0  0
M  RAD  1   8   2
M  END
