Coordinates from ORCA-job C6H6+AlCl4-+NH2N2+-scan
 OpenBabel10161817473D

 22 20  0  0  0  0  0  0  0  0999 V2000
    3.9716   -1.0248   -4.5507 N   0  0  0  0  0  0  0  0  0  0  0  0
    4.2495   -1.8393   -5.2541 N   0  0  0  0  0  0  0  0  0  0  0  0
    3.7251   -0.0190   -3.8047 N   0  0  0  0  0  0  0  0  0  0  0  0
    2.7978   -0.0634   -3.3392 H   0  0  0  0  0  0  0  0  0  0  0  0
    4.5060    0.1944   -3.1039 H   0  0  0  0  0  0  0  0  0  0  0  0
    1.3687   -1.7274   -6.9850 C   0  0  0  0  0  0  0  0  0  0  0  0
    1.0320   -0.6181   -6.2099 C   0  0  0  0  0  0  0  0  0  0  0  0
    0.7596   -0.7763   -4.8484 C   0  0  0  0  0  0  0  0  0  0  0  0
    0.8193   -2.0440   -4.2635 C   0  0  0  0  0  0  0  0  0  0  0  0
    1.1572   -3.1524   -5.0413 C   0  0  0  0  0  0  0  0  0  0  0  0
    1.4315   -2.9940   -6.4001 C   0  0  0  0  0  0  0  0  0  0  0  0
    1.5729   -1.6083   -8.0433 H   0  0  0  0  0  0  0  0  0  0  0  0
    0.9672    0.3641   -6.6654 H   0  0  0  0  0  0  0  0  0  0  0  0
    0.4653    0.0803   -4.2503 H   0  0  0  0  0  0  0  0  0  0  0  0
    0.5997   -2.1650   -3.2089 H   0  0  0  0  0  0  0  0  0  0  0  0
    1.2024   -4.1360   -4.5880 H   0  0  0  0  0  0  0  0  0  0  0  0
    1.6882   -3.8568   -7.0046 H   0  0  0  0  0  0  0  0  0  0  0  0
    3.8367   -0.7779   -0.4176 Al  0  0  0  0  0  0  0  0  0  0  0  0
    3.9710   -0.7502    1.6873 Cl  0  0  0  0  0  0  0  0  0  0  0  0
    5.4238    0.4673   -1.3673 Cl  0  0  0  0  0  0  0  0  0  0  0  0
    4.0190   -2.7010   -1.3774 Cl  0  0  0  0  0  0  0  0  0  0  0  0
    1.9803    0.1073   -1.1976 Cl  0  0  0  0  0  0  0  0  0  0  0  0
  1  3  1  0  0  0  0
  2  1  1  0  0  0  0
  3  4  1  0  0  0  0
  3  5  1  0  0  0  0
  6 11  2  0  0  0  0
  6  7  1  0  0  0  0
  7  8  2  0  0  0  0
  8  9  1  0  0  0  0
  8 14  1  0  0  0  0
  9 15  1  0  0  0  0
 10 16  1  0  0  0  0
 10  9  2  0  0  0  0
 11 10  1  0  0  0  0
 12  6  1  0  0  0  0
 13  7  1  0  0  0  0
 17 11  1  0  0  0  0
 18 19  1  0  0  0  0
 20 18  1  0  0  0  0
 21 18  1  0  0  0  0
 22 18  1  0  0  0  0
M  RAD  2   1   2   2   3
M  END
