Coordinates from ORCA-job C6H6+AlCl4-+NH2N2+-scan
 OpenBabel10161817473D

 22 20  0  0  0  0  0  0  0  0999 V2000
    3.3761    0.6272   -3.1758 N   0  0  0  0  0  0  0  0  0  0  0  0
    3.2847    0.9110   -4.2469 N   0  0  0  0  0  0  0  0  0  0  0  0
    3.4226    0.3685   -1.9268 N   0  0  0  0  0  0  0  0  0  0  0  0
    2.9965   -0.5700   -1.6750 H   0  0  0  0  0  0  0  0  0  0  0  0
    4.4015    0.4156   -1.5156 H   0  0  0  0  0  0  0  0  0  0  0  0
    1.9598   -2.0347   -5.7845 C   0  0  0  0  0  0  0  0  0  0  0  0
    1.5142   -1.4750   -6.9829 C   0  0  0  0  0  0  0  0  0  0  0  0
    0.1954   -1.0364   -7.1021 C   0  0  0  0  0  0  0  0  0  0  0  0
   -0.6771   -1.1511   -6.0197 C   0  0  0  0  0  0  0  0  0  0  0  0
   -0.2334   -1.7099   -4.8211 C   0  0  0  0  0  0  0  0  0  0  0  0
    1.0843   -2.1542   -4.7035 C   0  0  0  0  0  0  0  0  0  0  0  0
    2.9798   -2.3924   -5.6940 H   0  0  0  0  0  0  0  0  0  0  0  0
    2.1921   -1.3909   -7.8254 H   0  0  0  0  0  0  0  0  0  0  0  0
   -0.1523   -0.6088   -8.0362 H   0  0  0  0  0  0  0  0  0  0  0  0
   -1.7037   -0.8136   -6.1131 H   0  0  0  0  0  0  0  0  0  0  0  0
   -0.9169   -1.8122   -3.9849 H   0  0  0  0  0  0  0  0  0  0  0  0
    1.4242   -2.6149   -3.7815 H   0  0  0  0  0  0  0  0  0  0  0  0
    5.3560   -2.4259   -1.3651 Al  0  0  0  0  0  0  0  0  0  0  0  0
    6.4023   -4.0331   -0.4958 Cl  0  0  0  0  0  0  0  0  0  0  0  0
    5.9890   -0.4544   -0.5659 Cl  0  0  0  0  0  0  0  0  0  0  0  0
    5.4670   -2.2112   -3.5063 Cl  0  0  0  0  0  0  0  0  0  0  0  0
    3.1823   -2.4744   -0.9114 Cl  0  0  0  0  0  0  0  0  0  0  0  0
  1  3  1  0  0  0  0
  2  1  1  0  0  0  0
  3  4  1  0  0  0  0
  3  5  1  0  0  0  0
  6 12  1  0  0  0  0
  6 11  2  0  0  0  0
  7  6  1  0  0  0  0
  8  7  2  0  0  0  0
  8  9  1  0  0  0  0
  9 10  2  0  0  0  0
 10 11  1  0  0  0  0
 10 16  1  0  0  0  0
 11 17  1  0  0  0  0
 13  7  1  0  0  0  0
 14  8  1  0  0  0  0
 15  9  1  0  0  0  0
 18 22  1  0  0  0  0
 18 20  1  0  0  0  0
 18 19  1  0  0  0  0
 21 18  1  0  0  0  0
M  RAD  2   1   2   2   3
M  END
