Coordinates from ORCA-job C6H6+AlCl4-+NH2N2+-scan
 OpenBabel10161817473D

 22 20  0  0  0  0  0  0  0  0999 V2000
    3.3632    0.6119   -3.1993 N   0  0  0  0  0  0  0  0  0  0  0  0
    3.2772    0.8935   -4.2714 N   0  0  0  0  0  0  0  0  0  0  0  0
    3.4032    0.3554   -1.9496 N   0  0  0  0  0  0  0  0  0  0  0  0
    2.9816   -0.5849   -1.6987 H   0  0  0  0  0  0  0  0  0  0  0  0
    4.3791    0.4102   -1.5319 H   0  0  0  0  0  0  0  0  0  0  0  0
    1.9644   -2.0388   -5.7790 C   0  0  0  0  0  0  0  0  0  0  0  0
    1.5204   -1.4704   -6.9739 C   0  0  0  0  0  0  0  0  0  0  0  0
    0.2040   -1.0234   -7.0889 C   0  0  0  0  0  0  0  0  0  0  0  0
   -0.6676   -1.1384   -6.0059 C   0  0  0  0  0  0  0  0  0  0  0  0
   -0.2256   -1.7060   -4.8108 C   0  0  0  0  0  0  0  0  0  0  0  0
    1.0897   -2.1587   -4.6973 C   0  0  0  0  0  0  0  0  0  0  0  0
    2.9824   -2.4029   -5.6917 H   0  0  0  0  0  0  0  0  0  0  0  0
    2.1976   -1.3860   -7.8170 H   0  0  0  0  0  0  0  0  0  0  0  0
   -0.1424   -0.5890   -8.0203 H   0  0  0  0  0  0  0  0  0  0  0  0
   -1.6923   -0.7944   -6.0961 H   0  0  0  0  0  0  0  0  0  0  0  0
   -0.9085   -1.8088   -3.9741 H   0  0  0  0  0  0  0  0  0  0  0  0
    1.4281   -2.6264   -3.7782 H   0  0  0  0  0  0  0  0  0  0  0  0
    5.3552   -2.4222   -1.3653 Al  0  0  0  0  0  0  0  0  0  0  0  0
    6.4101   -4.0168   -0.4832 Cl  0  0  0  0  0  0  0  0  0  0  0  0
    5.9677   -0.4422   -0.5705 Cl  0  0  0  0  0  0  0  0  0  0  0  0
    5.4772   -2.2156   -3.5067 Cl  0  0  0  0  0  0  0  0  0  0  0  0
    3.1798   -2.4865   -0.9237 Cl  0  0  0  0  0  0  0  0  0  0  0  0
  1  3  1  0  0  0  0
  2  1  1  0  0  0  0
  3  4  1  0  0  0  0
  3  5  1  0  0  0  0
  6 12  1  0  0  0  0
  6 11  2  0  0  0  0
  7  6  1  0  0  0  0
  8  7  2  0  0  0  0
  8  9  1  0  0  0  0
  9 10  2  0  0  0  0
 10 11  1  0  0  0  0
 10 16  1  0  0  0  0
 11 17  1  0  0  0  0
 13  7  1  0  0  0  0
 14  8  1  0  0  0  0
 15  9  1  0  0  0  0
 18 22  1  0  0  0  0
 18 20  1  0  0  0  0
 18 19  1  0  0  0  0
 21 18  1  0  0  0  0
M  RAD  2   1   2   2   3
M  END
