Coordinates from ORCA-job C6H6+AlCl4-+NH2N2+-scan
 OpenBabel10161817473D

 22 20  0  0  0  0  0  0  0  0999 V2000
    3.3708    0.6211   -3.1852 N   0  0  0  0  0  0  0  0  0  0  0  0
    3.2815    0.9039   -4.2567 N   0  0  0  0  0  0  0  0  0  0  0  0
    3.4148    0.3632   -1.9359 N   0  0  0  0  0  0  0  0  0  0  0  0
    2.9905   -0.5760   -1.6845 H   0  0  0  0  0  0  0  0  0  0  0  0
    4.3925    0.4134   -1.5221 H   0  0  0  0  0  0  0  0  0  0  0  0
    1.9617   -2.0362   -5.7822 C   0  0  0  0  0  0  0  0  0  0  0  0
    1.5167   -1.4732   -6.9793 C   0  0  0  0  0  0  0  0  0  0  0  0
    0.1988   -1.0313   -7.0968 C   0  0  0  0  0  0  0  0  0  0  0  0
   -0.6733   -1.1461   -6.0142 C   0  0  0  0  0  0  0  0  0  0  0  0
   -0.2302   -1.7082   -4.8169 C   0  0  0  0  0  0  0  0  0  0  0  0
    1.0865   -2.1558   -4.7010 C   0  0  0  0  0  0  0  0  0  0  0  0
    2.9810   -2.3964   -5.6930 H   0  0  0  0  0  0  0  0  0  0  0  0
    2.1943   -1.3890   -7.8221 H   0  0  0  0  0  0  0  0  0  0  0  0
   -0.1484   -0.6011   -8.0299 H   0  0  0  0  0  0  0  0  0  0  0  0
   -1.6992   -0.8061   -6.1063 H   0  0  0  0  0  0  0  0  0  0  0  0
   -0.9134   -1.8107   -3.9805 H   0  0  0  0  0  0  0  0  0  0  0  0
    1.4260   -2.6193   -3.7801 H   0  0  0  0  0  0  0  0  0  0  0  0
    5.3557   -2.4245   -1.3653 Al  0  0  0  0  0  0  0  0  0  0  0  0
    6.4054   -4.0266   -0.4908 Cl  0  0  0  0  0  0  0  0  0  0  0  0
    5.9805   -0.4496   -0.5677 Cl  0  0  0  0  0  0  0  0  0  0  0  0
    5.4711   -2.2130   -3.5065 Cl  0  0  0  0  0  0  0  0  0  0  0  0
    3.1813   -2.4793   -0.9164 Cl  0  0  0  0  0  0  0  0  0  0  0  0
  1  3  1  0  0  0  0
  2  1  1  0  0  0  0
  3  4  1  0  0  0  0
  3  5  1  0  0  0  0
  6 12  1  0  0  0  0
  6 11  2  0  0  0  0
  7  6  1  0  0  0  0
  8  7  2  0  0  0  0
  8  9  1  0  0  0  0
  9 10  2  0  0  0  0
 10 11  1  0  0  0  0
 10 16  1  0  0  0  0
 11 17  1  0  0  0  0
 13  7  1  0  0  0  0
 14  8  1  0  0  0  0
 15  9  1  0  0  0  0
 18 22  1  0  0  0  0
 18 20  1  0  0  0  0
 18 19  1  0  0  0  0
 21 18  1  0  0  0  0
M  RAD  2   1   2   2   3
M  END
