Coordinates from ORCA-job C6H6+AlCl4-+NH2N2+-scan
 OpenBabel10161817473D

 22 19  0  0  0  0  0  0  0  0999 V2000
    6.4579   -1.7964   -4.4147 N   0  0  0  0  0  0  0  0  0  0  0  0
    7.3456   -1.3391   -3.9646 N   0  0  0  0  0  0  0  0  0  0  0  0
    3.2909   -3.3557   -4.5352 N   0  0  0  0  0  0  0  0  0  0  0  0
    3.2443   -3.4271   -3.5231 H   0  0  0  0  0  0  0  0  0  0  0  0
    4.2131   -3.0098   -4.7816 H   0  0  0  0  0  0  0  0  0  0  0  0
    1.4106   -0.7730   -6.6928 C   0  0  0  0  0  0  0  0  0  0  0  0
    2.4003   -1.6342   -6.2265 C   0  0  0  0  0  0  0  0  0  0  0  0
    2.2220   -2.2923   -5.0105 C   0  0  0  0  0  0  0  0  0  0  0  0
    1.0597   -2.0836   -4.2576 C   0  0  0  0  0  0  0  0  0  0  0  0
    0.0605   -1.2309   -4.7526 C   0  0  0  0  0  0  0  0  0  0  0  0
    0.2370   -0.5672   -5.9633 C   0  0  0  0  0  0  0  0  0  0  0  0
    1.5543   -0.2613   -7.6381 H   0  0  0  0  0  0  0  0  0  0  0  0
    3.2988   -1.8063   -6.8078 H   0  0  0  0  0  0  0  0  0  0  0  0
    1.8124   -0.3969   -3.4711 H   0  0  0  0  0  0  0  0  0  0  0  0
    0.9010   -2.6326   -3.3354 H   0  0  0  0  0  0  0  0  0  0  0  0
   -0.8464   -1.0879   -4.1756 H   0  0  0  0  0  0  0  0  0  0  0  0
   -0.5315    0.0973   -6.3393 H   0  0  0  0  0  0  0  0  0  0  0  0
    2.7176   -0.3878   -0.6218 Al  0  0  0  0  0  0  0  0  0  0  0  0
    0.7454   -1.0101   -0.1830 Cl  0  0  0  0  0  0  0  0  0  0  0  0
    2.3926    0.6379   -2.8390 Cl  0  0  0  0  0  0  0  0  0  0  0  0
    3.4996    1.2763    0.4013 Cl  0  0  0  0  0  0  0  0  0  0  0  0
    4.0591   -1.9599   -1.1013 Cl  0  0  0  0  0  0  0  0  0  0  0  0
  1  2  3  0  0  0  0
  3  4  1  0  0  0  0
  5  3  1  0  0  0  0
  6  7  2  0  0  0  0
  6 11  1  0  0  0  0
  7  8  1  0  0  0  0
  8  3  1  0  0  0  0
  8  9  2  0  0  0  0
  9 15  1  0  0  0  0
 10  9  1  0  0  0  0
 10 16  1  0  0  0  0
 11 10  2  0  0  0  0
 12  6  1  0  0  0  0
 13  7  1  0  0  0  0
 14 20  1  0  0  0  0
 17 11  1  0  0  0  0
 18 19  1  0  0  0  0
 18 21  1  0  0  0  0
 22 18  1  0  0  0  0
M  END
