Coordinates from ORCA-job C6H6+AlCl4-+NH2N2+-scan
 OpenBabel10161817473D

 22 20  0  0  0  0  0  0  0  0999 V2000
    3.9039   -1.0992   -4.5341 N   0  0  0  0  0  0  0  0  0  0  0  0
    4.2493   -1.9200   -5.1985 N   0  0  0  0  0  0  0  0  0  0  0  0
    3.5840   -0.0810   -3.8342 N   0  0  0  0  0  0  0  0  0  0  0  0
    2.6628   -0.1687   -3.3749 H   0  0  0  0  0  0  0  0  0  0  0  0
    4.3528    0.2149   -3.1493 H   0  0  0  0  0  0  0  0  0  0  0  0
    1.4028   -1.6911   -6.9771 C   0  0  0  0  0  0  0  0  0  0  0  0
    1.1687   -0.5944   -6.1490 C   0  0  0  0  0  0  0  0  0  0  0  0
    0.9139   -0.7911   -4.7887 C   0  0  0  0  0  0  0  0  0  0  0  0
    0.8715   -2.0845   -4.2616 C   0  0  0  0  0  0  0  0  0  0  0  0
    1.1103   -3.1802   -5.0928 C   0  0  0  0  0  0  0  0  0  0  0  0
    1.3758   -2.9834   -6.4480 C   0  0  0  0  0  0  0  0  0  0  0  0
    1.5961   -1.5419   -8.0336 H   0  0  0  0  0  0  0  0  0  0  0  0
    1.1725    0.4091   -6.5604 H   0  0  0  0  0  0  0  0  0  0  0  0
    0.6784    0.0577   -4.1539 H   0  0  0  0  0  0  0  0  0  0  0  0
    0.6539   -2.2344   -3.2102 H   0  0  0  0  0  0  0  0  0  0  0  0
    1.0815   -4.1837   -4.6841 H   0  0  0  0  0  0  0  0  0  0  0  0
    1.5542   -3.8359   -7.0939 H   0  0  0  0  0  0  0  0  0  0  0  0
    3.8370   -0.7099   -0.4200 Al  0  0  0  0  0  0  0  0  0  0  0  0
    4.0575   -0.6295    1.6768 Cl  0  0  0  0  0  0  0  0  0  0  0  0
    5.3110    0.6030   -1.4581 Cl  0  0  0  0  0  0  0  0  0  0  0  0
    4.1009   -2.6419   -1.3463 Cl  0  0  0  0  0  0  0  0  0  0  0  0
    1.9057    0.0454   -1.1418 Cl  0  0  0  0  0  0  0  0  0  0  0  0
  1  3  1  0  0  0  0
  2  1  1  0  0  0  0
  3  4  1  0  0  0  0
  3  5  1  0  0  0  0
  6 11  2  0  0  0  0
  6  7  1  0  0  0  0
  7  8  2  0  0  0  0
  8  9  1  0  0  0  0
  8 14  1  0  0  0  0
  9 15  1  0  0  0  0
 10 16  1  0  0  0  0
 10  9  2  0  0  0  0
 11 10  1  0  0  0  0
 12  6  1  0  0  0  0
 13  7  1  0  0  0  0
 17 11  1  0  0  0  0
 18 19  1  0  0  0  0
 20 18  1  0  0  0  0
 21 18  1  0  0  0  0
 22 18  1  0  0  0  0
M  RAD  2   1   2   2   3
M  END
