Coordinates from ORCA-job C6H6+AlCl4-+NH2N2+-scan
 OpenBabel10161817473D

 22 20  0  0  0  0  0  0  0  0999 V2000
    3.1470    0.4127   -3.5419 N   0  0  0  0  0  0  0  0  0  0  0  0
    3.1837    0.7383   -4.6041 N   0  0  0  0  0  0  0  0  0  0  0  0
    3.0607    0.1161   -2.3036 N   0  0  0  0  0  0  0  0  0  0  0  0
    2.7300   -0.8656   -2.1251 H   0  0  0  0  0  0  0  0  0  0  0  0
    3.9593    0.2939   -1.7561 H   0  0  0  0  0  0  0  0  0  0  0  0
    1.9807   -2.2370   -5.7107 C   0  0  0  0  0  0  0  0  0  0  0  0
    1.6274   -1.4723   -6.8234 C   0  0  0  0  0  0  0  0  0  0  0  0
    0.4094   -0.7908   -6.8461 C   0  0  0  0  0  0  0  0  0  0  0  0
   -0.4518   -0.8667   -5.7515 C   0  0  0  0  0  0  0  0  0  0  0  0
   -0.1001   -1.6310   -4.6380 C   0  0  0  0  0  0  0  0  0  0  0  0
    1.1149   -2.3191   -4.6180 C   0  0  0  0  0  0  0  0  0  0  0  0
    2.9227   -2.7743   -5.6944 H   0  0  0  0  0  0  0  0  0  0  0  0
    2.2961   -1.4163   -7.6754 H   0  0  0  0  0  0  0  0  0  0  0  0
    0.1319   -0.2045   -7.7152 H   0  0  0  0  0  0  0  0  0  0  0  0
   -1.4002   -0.3409   -5.7702 H   0  0  0  0  0  0  0  0  0  0  0  0
   -0.7786   -1.7046   -3.7948 H   0  0  0  0  0  0  0  0  0  0  0  0
    1.3795   -2.9352   -3.7650 H   0  0  0  0  0  0  0  0  0  0  0  0
    5.3518   -2.3043   -1.4059 Al  0  0  0  0  0  0  0  0  0  0  0  0
    6.5857   -3.6606   -0.3678 Cl  0  0  0  0  0  0  0  0  0  0  0  0
    5.5458   -0.2257   -0.6363 Cl  0  0  0  0  0  0  0  0  0  0  0  0
    5.6534   -2.1279   -3.5329 Cl  0  0  0  0  0  0  0  0  0  0  0  0
    3.1951   -2.7249   -1.1573 Cl  0  0  0  0  0  0  0  0  0  0  0  0
  1  3  1  0  0  0  0
  2  1  1  0  0  0  0
  3  4  1  0  0  0  0
  3  5  1  0  0  0  0
  6 12  1  0  0  0  0
  6 11  2  0  0  0  0
  7  6  1  0  0  0  0
  8  7  2  0  0  0  0
  8  9  1  0  0  0  0
  9 10  2  0  0  0  0
 10 11  1  0  0  0  0
 10 16  1  0  0  0  0
 11 17  1  0  0  0  0
 13  7  1  0  0  0  0
 14  8  1  0  0  0  0
 15  9  1  0  0  0  0
 18 22  1  0  0  0  0
 18 20  1  0  0  0  0
 18 19  1  0  0  0  0
 21 18  1  0  0  0  0
M  RAD  2   1   2   2   3
M  END
