Coordinates from ORCA-job C6H6+AlCl4-+NH2N2+-scan
 OpenBabel10161817473D

 22 20  0  0  0  0  0  0  0  0999 V2000
    3.7161   -0.2433   -4.4655 N   0  0  0  0  0  0  0  0  0  0  0  0
    4.0264   -0.6039   -5.4702 N   0  0  0  0  0  0  0  0  0  0  0  0
    3.3794    0.2733   -3.3478 N   0  0  0  0  0  0  0  0  0  0  0  0
    2.6113   -0.2394   -2.8647 H   0  0  0  0  0  0  0  0  0  0  0  0
    4.2013    0.4407   -2.6851 H   0  0  0  0  0  0  0  0  0  0  0  0
    1.6085   -2.2692   -6.7974 C   0  0  0  0  0  0  0  0  0  0  0  0
    0.9774   -1.0249   -6.8577 C   0  0  0  0  0  0  0  0  0  0  0  0
    0.3922   -0.4841   -5.7132 C   0  0  0  0  0  0  0  0  0  0  0  0
    0.4385   -1.1887   -4.5076 C   0  0  0  0  0  0  0  0  0  0  0  0
    1.0720   -2.4326   -4.4464 C   0  0  0  0  0  0  0  0  0  0  0  0
    1.6563   -2.9722   -5.5930 C   0  0  0  0  0  0  0  0  0  0  0  0
    2.0574   -2.6922   -7.6894 H   0  0  0  0  0  0  0  0  0  0  0  0
    0.9344   -0.4840   -7.7968 H   0  0  0  0  0  0  0  0  0  0  0  0
   -0.1115    0.4752   -5.7617 H   0  0  0  0  0  0  0  0  0  0  0  0
   -0.0364   -0.7816   -3.6208 H   0  0  0  0  0  0  0  0  0  0  0  0
    1.1051   -2.9783   -3.5105 H   0  0  0  0  0  0  0  0  0  0  0  0
    2.1446   -3.9389   -5.5459 H   0  0  0  0  0  0  0  0  0  0  0  0
    4.3015   -1.6673   -0.6257 Al  0  0  0  0  0  0  0  0  0  0  0  0
    4.7742   -2.4104    1.2907 Cl  0  0  0  0  0  0  0  0  0  0  0  0
    5.3192    0.2699   -1.0435 Cl  0  0  0  0  0  0  0  0  0  0  0  0
    4.8084   -2.9166   -2.3083 Cl  0  0  0  0  0  0  0  0  0  0  0  0
    2.1685   -1.1722   -0.8731 Cl  0  0  0  0  0  0  0  0  0  0  0  0
  1  3  1  0  0  0  0
  2  1  1  0  0  0  0
  3  4  1  0  0  0  0
  3  5  1  0  0  0  0
  6 11  1  0  0  0  0
  7  6  2  0  0  0  0
  7  8  1  0  0  0  0
  8  9  2  0  0  0  0
  9 10  1  0  0  0  0
  9 15  1  0  0  0  0
 10 16  1  0  0  0  0
 11 17  1  0  0  0  0
 11 10  2  0  0  0  0
 12  6  1  0  0  0  0
 13  7  1  0  0  0  0
 14  8  1  0  0  0  0
 18 19  1  0  0  0  0
 20 18  1  0  0  0  0
 21 18  1  0  0  0  0
 22 18  1  0  0  0  0
M  RAD  2   1   2   2   3
M  END
