Coordinates from ORCA-job C6H6+AlCl4-+NH2N2+-scan
 OpenBabel10161817473D

 22 20  0  0  0  0  0  0  0  0999 V2000
    3.4878   -0.0158   -4.2892 N   0  0  0  0  0  0  0  0  0  0  0  0
    3.7861   -0.1452   -5.3523 N   0  0  0  0  0  0  0  0  0  0  0  0
    3.1542    0.2435   -3.0844 N   0  0  0  0  0  0  0  0  0  0  0  0
    2.5212   -0.4673   -2.6638 H   0  0  0  0  0  0  0  0  0  0  0  0
    3.9872    0.4434   -2.4428 H   0  0  0  0  0  0  0  0  0  0  0  0
    1.7826   -2.3876   -6.5398 C   0  0  0  0  0  0  0  0  0  0  0  0
    1.1597   -1.2149   -6.9725 C   0  0  0  0  0  0  0  0  0  0  0  0
    0.3554   -0.4865   -6.0955 C   0  0  0  0  0  0  0  0  0  0  0  0
    0.1719   -0.9325   -4.7858 C   0  0  0  0  0  0  0  0  0  0  0  0
    0.7934   -2.1076   -4.3531 C   0  0  0  0  0  0  0  0  0  0  0  0
    1.6005   -2.8341   -5.2307 C   0  0  0  0  0  0  0  0  0  0  0  0
    2.4037   -2.9552   -7.2237 H   0  0  0  0  0  0  0  0  0  0  0  0
    1.2959   -0.8743   -7.9930 H   0  0  0  0  0  0  0  0  0  0  0  0
   -0.1364    0.4188   -6.4345 H   0  0  0  0  0  0  0  0  0  0  0  0
   -0.4691   -0.3779   -4.1086 H   0  0  0  0  0  0  0  0  0  0  0  0
    0.6386   -2.4660   -3.3414 H   0  0  0  0  0  0  0  0  0  0  0  0
    2.0829   -3.7441   -4.8929 H   0  0  0  0  0  0  0  0  0  0  0  0
    4.6333   -1.9240   -0.8189 Al  0  0  0  0  0  0  0  0  0  0  0  0
    5.4220   -2.8795    0.8878 Cl  0  0  0  0  0  0  0  0  0  0  0  0
    5.2819    0.2052   -0.9546 Cl  0  0  0  0  0  0  0  0  0  0  0  0
    5.1540   -2.7676   -2.7342 Cl  0  0  0  0  0  0  0  0  0  0  0  0
    2.4377   -1.7713   -0.8099 Cl  0  0  0  0  0  0  0  0  0  0  0  0
  1  3  1  0  0  0  0
  2  1  1  0  0  0  0
  3  4  1  0  0  0  0
  3  5  1  0  0  0  0
  6 11  1  0  0  0  0
  7  6  2  0  0  0  0
  7  8  1  0  0  0  0
  8  9  2  0  0  0  0
  9 10  1  0  0  0  0
  9 15  1  0  0  0  0
 10 16  1  0  0  0  0
 11 17  1  0  0  0  0
 11 10  2  0  0  0  0
 12  6  1  0  0  0  0
 13  7  1  0  0  0  0
 14  8  1  0  0  0  0
 18 22  1  0  0  0  0
 18 19  1  0  0  0  0
 20 18  1  0  0  0  0
 21 18  1  0  0  0  0
M  RAD  2   1   2   2   3
M  END
