Coordinates from ORCA-job C6H6+AlCl4-+NH2N2+-scan
 OpenBabel10161817473D

 22 19  0  0  0  0  0  0  0  0999 V2000
    5.9555   -2.7883   -3.4595 N   0  0  0  0  0  0  0  0  0  0  0  0
    6.9446   -3.1118   -3.1185 N   0  0  0  0  0  0  0  0  0  0  0  0
    3.2093   -2.0307   -4.4948 N   0  0  0  0  0  0  0  0  0  0  0  0
    3.1290   -2.3732   -3.5230 H   0  0  0  0  0  0  0  0  0  0  0  0
    3.7718   -1.1766   -4.3472 H   0  0  0  0  0  0  0  0  0  0  0  0
    1.0166   -0.8087   -6.7685 C   0  0  0  0  0  0  0  0  0  0  0  0
    1.6229   -0.3242   -5.6333 C   0  0  0  0  0  0  0  0  0  0  0  0
    1.4655   -1.0142   -4.3799 C   0  0  0  0  0  0  0  0  0  0  0  0
    0.6241   -2.1809   -4.3284 C   0  0  0  0  0  0  0  0  0  0  0  0
    0.0258   -2.6510   -5.4740 C   0  0  0  0  0  0  0  0  0  0  0  0
    0.2234   -1.9644   -6.6829 C   0  0  0  0  0  0  0  0  0  0  0  0
    1.1448   -0.3100   -7.7210 H   0  0  0  0  0  0  0  0  0  0  0  0
    2.2431    0.5649   -5.6525 H   0  0  0  0  0  0  0  0  0  0  0  0
    1.6671   -0.4751   -3.4594 H   0  0  0  0  0  0  0  0  0  0  0  0
    0.4990   -2.6775   -3.3727 H   0  0  0  0  0  0  0  0  0  0  0  0
   -0.5923   -3.5397   -5.4515 H   0  0  0  0  0  0  0  0  0  0  0  0
   -0.2472   -2.3445   -7.5840 H   0  0  0  0  0  0  0  0  0  0  0  0
    3.8024    0.0645   -0.8831 Al  0  0  0  0  0  0  0  0  0  0  0  0
    2.7313    1.4462    0.3387 Cl  0  0  0  0  0  0  0  0  0  0  0  0
    3.9966    0.9028   -2.9213 Cl  0  0  0  0  0  0  0  0  0  0  0  0
    5.7340   -0.4889   -0.1651 Cl  0  0  0  0  0  0  0  0  0  0  0  0
    2.5774   -1.7592   -1.1516 Cl  0  0  0  0  0  0  0  0  0  0  0  0
  1  2  3  0  0  0  0
  3  5  1  0  0  0  0
  3  4  1  0  0  0  0
  6 11  2  0  0  0  0
  6  7  1  0  0  0  0
  7  8  2  0  0  0  0
  8  9  1  0  0  0  0
  8 14  1  0  0  0  0
  9 15  1  0  0  0  0
 10 16  1  0  0  0  0
 10  9  2  0  0  0  0
 11 10  1  0  0  0  0
 12  6  1  0  0  0  0
 13  7  1  0  0  0  0
 17 11  1  0  0  0  0
 18 21  1  0  0  0  0
 18 19  1  0  0  0  0
 20 18  1  0  0  0  0
 22 18  1  0  0  0  0
M  RAD  1   3   2
M  END
