Coordinates from ORCA-job C6H6+AlCl4-+NH2N2+-scan
 OpenBabel10161817473D

 22 20  0  0  0  0  0  0  0  0999 V2000
    2.9584   -0.5719   -0.4650 N   0  0  0  0  0  0  0  0  0  0  0  0
    1.9862   -0.0982   -0.7251 N   0  0  0  0  0  0  0  0  0  0  0  0
    4.0370   -1.1310   -0.0805 N   0  0  0  0  0  0  0  0  0  0  0  0
    4.2835   -2.0078   -0.6321 H   0  0  0  0  0  0  0  0  0  0  0  0
    4.8829   -0.4836   -0.0939 H   0  0  0  0  0  0  0  0  0  0  0  0
   -0.0069   -2.9642   -6.1771 C   0  0  0  0  0  0  0  0  0  0  0  0
    1.2546   -2.4056   -5.9747 C   0  0  0  0  0  0  0  0  0  0  0  0
    1.4373   -1.0288   -6.1017 C   0  0  0  0  0  0  0  0  0  0  0  0
    0.3567   -0.2114   -6.4315 C   0  0  0  0  0  0  0  0  0  0  0  0
   -0.9051   -0.7695   -6.6338 C   0  0  0  0  0  0  0  0  0  0  0  0
   -1.0871   -2.1461   -6.5063 C   0  0  0  0  0  0  0  0  0  0  0  0
   -0.1475   -4.0357   -6.0819 H   0  0  0  0  0  0  0  0  0  0  0  0
    2.0967   -3.0409   -5.7218 H   0  0  0  0  0  0  0  0  0  0  0  0
    2.4192   -0.5970   -5.9418 H   0  0  0  0  0  0  0  0  0  0  0  0
    0.4990    0.8592   -6.5333 H   0  0  0  0  0  0  0  0  0  0  0  0
   -1.7448   -0.1333   -6.8929 H   0  0  0  0  0  0  0  0  0  0  0  0
   -2.0681   -2.5808   -6.6663 H   0  0  0  0  0  0  0  0  0  0  0  0
    6.3356   -1.1292   -2.6248 Al  0  0  0  0  0  0  0  0  0  0  0  0
    8.0537   -1.3845   -3.8133 Cl  0  0  0  0  0  0  0  0  0  0  0  0
    6.7352    0.0196   -0.7663 Cl  0  0  0  0  0  0  0  0  0  0  0  0
    4.6365   -0.1472   -3.5124 Cl  0  0  0  0  0  0  0  0  0  0  0  0
    5.5316   -3.0525   -1.8571 Cl  0  0  0  0  0  0  0  0  0  0  0  0
  1  3  1  0  0  0  0
  2  1  1  0  0  0  0
  4  3  1  0  0  0  0
  5  3  1  0  0  0  0
  6 12  1  0  0  0  0
  6  7  2  0  0  0  0
  7 13  1  0  0  0  0
  8  7  1  0  0  0  0
  8 14  1  0  0  0  0
  9  8  2  0  0  0  0
 10 11  2  0  0  0  0
 10  9  1  0  0  0  0
 11  6  1  0  0  0  0
 15  9  1  0  0  0  0
 16 10  1  0  0  0  0
 17 11  1  0  0  0  0
 18 22  1  0  0  0  0
 18 20  1  0  0  0  0
 19 18  1  0  0  0  0
 21 18  1  0  0  0  0
M  RAD  2   1   2   2   3
M  END
