Coordinates from ORCA-job C6H6+AlCl4-+NH2N2+-scan
 OpenBabel10161817473D

 22 20  0  0  0  0  0  0  0  0999 V2000
    3.8741   -1.1047   -4.4833 N   0  0  0  0  0  0  0  0  0  0  0  0
    4.2368   -1.9077   -5.1596 N   0  0  0  0  0  0  0  0  0  0  0  0
    3.5083   -0.1028   -3.7804 N   0  0  0  0  0  0  0  0  0  0  0  0
    2.6404   -0.2741   -3.2369 H   0  0  0  0  0  0  0  0  0  0  0  0
    4.2867    0.2639   -3.1476 H   0  0  0  0  0  0  0  0  0  0  0  0
    1.4322   -1.7130   -7.0059 C   0  0  0  0  0  0  0  0  0  0  0  0
    1.2009   -0.5945   -6.2065 C   0  0  0  0  0  0  0  0  0  0  0  0
    0.9014   -0.7569   -4.8511 C   0  0  0  0  0  0  0  0  0  0  0  0
    0.8093   -2.0383   -4.3020 C   0  0  0  0  0  0  0  0  0  0  0  0
    1.0461   -3.1563   -5.1040 C   0  0  0  0  0  0  0  0  0  0  0  0
    1.3583   -2.9936   -6.4535 C   0  0  0  0  0  0  0  0  0  0  0  0
    1.6609   -1.5893   -8.0586 H   0  0  0  0  0  0  0  0  0  0  0  0
    1.2437    0.4001   -6.6367 H   0  0  0  0  0  0  0  0  0  0  0  0
    0.6780    0.1116   -4.2398 H   0  0  0  0  0  0  0  0  0  0  0  0
    0.5525   -2.1633   -3.2561 H   0  0  0  0  0  0  0  0  0  0  0  0
    0.9786   -4.1505   -4.6773 H   0  0  0  0  0  0  0  0  0  0  0  0
    1.5354   -3.8629   -7.0770 H   0  0  0  0  0  0  0  0  0  0  0  0
    3.9277   -0.7251   -0.3934 Al  0  0  0  0  0  0  0  0  0  0  0  0
    4.1565   -0.6267    1.7011 Cl  0  0  0  0  0  0  0  0  0  0  0  0
    5.2507    0.7225   -1.4478 Cl  0  0  0  0  0  0  0  0  0  0  0  0
    4.3499   -2.6222   -1.3302 Cl  0  0  0  0  0  0  0  0  0  0  0  0
    1.9159   -0.1568   -1.0867 Cl  0  0  0  0  0  0  0  0  0  0  0  0
  1  3  1  0  0  0  0
  2  1  1  0  0  0  0
  3  4  1  0  0  0  0
  3  5  1  0  0  0  0
  6 11  2  0  0  0  0
  6  7  1  0  0  0  0
  7  8  2  0  0  0  0
  8  9  1  0  0  0  0
  8 14  1  0  0  0  0
  9 15  1  0  0  0  0
 10 16  1  0  0  0  0
 10  9  2  0  0  0  0
 11 10  1  0  0  0  0
 12  6  1  0  0  0  0
 13  7  1  0  0  0  0
 17 11  1  0  0  0  0
 18 19  1  0  0  0  0
 20 18  1  0  0  0  0
 21 18  1  0  0  0  0
 22 18  1  0  0  0  0
M  RAD  2   1   2   2   3
M  END
