Coordinates from ORCA-job C6H6+AlCl4-+NH2N2+-scan
 OpenBabel10161817473D

 22 20  0  0  0  0  0  0  0  0999 V2000
    3.9195   -1.0892   -4.5350 N   0  0  0  0  0  0  0  0  0  0  0  0
    4.2545   -1.9118   -5.2024 N   0  0  0  0  0  0  0  0  0  0  0  0
    3.6113   -0.0705   -3.8307 N   0  0  0  0  0  0  0  0  0  0  0  0
    2.6854   -0.1487   -3.3772 H   0  0  0  0  0  0  0  0  0  0  0  0
    4.3800    0.2119   -3.1395 H   0  0  0  0  0  0  0  0  0  0  0  0
    1.3930   -1.6946   -6.9793 C   0  0  0  0  0  0  0  0  0  0  0  0
    1.1472   -0.5977   -6.1547 C   0  0  0  0  0  0  0  0  0  0  0  0
    0.8928   -0.7929   -4.7941 C   0  0  0  0  0  0  0  0  0  0  0  0
    0.8665   -2.0847   -4.2623 C   0  0  0  0  0  0  0  0  0  0  0  0
    1.1161   -3.1805   -5.0901 C   0  0  0  0  0  0  0  0  0  0  0  0
    1.3793   -2.9853   -6.4460 C   0  0  0  0  0  0  0  0  0  0  0  0
    1.5853   -1.5467   -8.0361 H   0  0  0  0  0  0  0  0  0  0  0  0
    1.1410    0.4045   -6.5693 H   0  0  0  0  0  0  0  0  0  0  0  0
    0.6533    0.0558   -4.1604 H   0  0  0  0  0  0  0  0  0  0  0  0
    0.6522   -2.2330   -3.2100 H   0  0  0  0  0  0  0  0  0  0  0  0
    1.0984   -4.1829   -4.6780 H   0  0  0  0  0  0  0  0  0  0  0  0
    1.5664   -3.8381   -7.0891 H   0  0  0  0  0  0  0  0  0  0  0  0
    3.8337   -0.7149   -0.4180 Al  0  0  0  0  0  0  0  0  0  0  0  0
    4.0391   -0.6399    1.6804 Cl  0  0  0  0  0  0  0  0  0  0  0  0
    5.3306    0.5828   -1.4426 Cl  0  0  0  0  0  0  0  0  0  0  0  0
    4.0826   -2.6480   -1.3457 Cl  0  0  0  0  0  0  0  0  0  0  0  0
    1.9166    0.0639   -1.1532 Cl  0  0  0  0  0  0  0  0  0  0  0  0
  1  3  1  0  0  0  0
  2  1  1  0  0  0  0
  3  4  1  0  0  0  0
  3  5  1  0  0  0  0
  6 11  2  0  0  0  0
  6  7  1  0  0  0  0
  7  8  2  0  0  0  0
  8  9  1  0  0  0  0
  8 14  1  0  0  0  0
  9 15  1  0  0  0  0
 10 16  1  0  0  0  0
 10  9  2  0  0  0  0
 11 10  1  0  0  0  0
 12  6  1  0  0  0  0
 13  7  1  0  0  0  0
 17 11  1  0  0  0  0
 18 19  1  0  0  0  0
 20 18  1  0  0  0  0
 21 18  1  0  0  0  0
 22 18  1  0  0  0  0
M  RAD  2   1   2   2   3
M  END
