Coordinates from ORCA-job C6H6+AlCl4-+NH2N2+-scan
 OpenBabel10161817473D

 22 20  0  0  0  0  0  0  0  0999 V2000
    4.3517   -2.1027   -4.0693 N   0  0  0  0  0  0  0  0  0  0  0  0
    5.1317   -2.7429   -4.5442 N   0  0  0  0  0  0  0  0  0  0  0  0
    3.3622   -1.3962   -3.6729 N   0  0  0  0  0  0  0  0  0  0  0  0
    2.9391   -1.7576   -2.7752 H   0  0  0  0  0  0  0  0  0  0  0  0
    3.6194   -0.3784   -3.5313 H   0  0  0  0  0  0  0  0  0  0  0  0
    1.4205   -1.2604   -6.9295 C   0  0  0  0  0  0  0  0  0  0  0  0
    1.5141   -0.4147   -5.8259 C   0  0  0  0  0  0  0  0  0  0  0  0
    1.1180   -0.8664   -4.5650 C   0  0  0  0  0  0  0  0  0  0  0  0
    0.5491   -2.1345   -4.4269 C   0  0  0  0  0  0  0  0  0  0  0  0
    0.4568   -2.9798   -5.5314 C   0  0  0  0  0  0  0  0  0  0  0  0
    0.9010   -2.5471   -6.7812 C   0  0  0  0  0  0  0  0  0  0  0  0
    1.7364   -0.9132   -7.9072 H   0  0  0  0  0  0  0  0  0  0  0  0
    1.9010    0.5922   -5.9438 H   0  0  0  0  0  0  0  0  0  0  0  0
    1.1426   -0.1911   -3.7163 H   0  0  0  0  0  0  0  0  0  0  0  0
    0.1869   -2.4626   -3.4582 H   0  0  0  0  0  0  0  0  0  0  0  0
    0.0242   -3.9684   -5.4225 H   0  0  0  0  0  0  0  0  0  0  0  0
    0.8238   -3.2031   -7.6412 H   0  0  0  0  0  0  0  0  0  0  0  0
    4.1211   -0.0236   -0.5835 Al  0  0  0  0  0  0  0  0  0  0  0  0
    4.0749    1.0386    1.2358 Cl  0  0  0  0  0  0  0  0  0  0  0  0
    3.8168    1.2978   -2.3446 Cl  0  0  0  0  0  0  0  0  0  0  0  0
    5.8983   -1.1482   -1.0356 Cl  0  0  0  0  0  0  0  0  0  0  0  0
    2.4549   -1.4785   -0.7638 Cl  0  0  0  0  0  0  0  0  0  0  0  0
  1  3  1  0  0  0  0
  2  1  1  0  0  0  0
  3  5  1  0  0  0  0
  3  4  1  0  0  0  0
  6 11  2  0  0  0  0
  6  7  1  0  0  0  0
  7  8  2  0  0  0  0
  8  9  1  0  0  0  0
  8 14  1  0  0  0  0
  9 15  1  0  0  0  0
 10 16  1  0  0  0  0
 10  9  2  0  0  0  0
 11 10  1  0  0  0  0
 12  6  1  0  0  0  0
 13  7  1  0  0  0  0
 17 11  1  0  0  0  0
 18 19  1  0  0  0  0
 20 18  1  0  0  0  0
 21 18  1  0  0  0  0
 22 18  1  0  0  0  0
M  RAD  2   1   2   2   3
M  END
