Coordinates from ORCA-job C6H6+AlCl4-+NH2N2+-scan
 OpenBabel10161817473D

 22 20  0  0  0  0  0  0  0  0999 V2000
    3.4151    0.6672   -3.1134 N   0  0  0  0  0  0  0  0  0  0  0  0
    3.3129    0.9562   -4.1822 N   0  0  0  0  0  0  0  0  0  0  0  0
    3.4745    0.4026   -1.8663 N   0  0  0  0  0  0  0  0  0  0  0  0
    3.0382   -0.5320   -1.6140 H   0  0  0  0  0  0  0  0  0  0  0  0
    4.4602    0.4303   -1.4697 H   0  0  0  0  0  0  0  0  0  0  0  0
    1.9422   -2.0323   -5.8028 C   0  0  0  0  0  0  0  0  0  0  0  0
    1.4959   -1.4874   -7.0077 C   0  0  0  0  0  0  0  0  0  0  0  0
    0.1731   -1.0643   -7.1359 C   0  0  0  0  0  0  0  0  0  0  0  0
   -0.7031   -1.1797   -6.0567 C   0  0  0  0  0  0  0  0  0  0  0  0
   -0.2585   -1.7236   -4.8517 C   0  0  0  0  0  0  0  0  0  0  0  0
    1.0634   -2.1524   -4.7248 C   0  0  0  0  0  0  0  0  0  0  0  0
    2.9657   -2.3780   -5.7050 H   0  0  0  0  0  0  0  0  0  0  0  0
    2.1767   -1.4025   -7.8478 H   0  0  0  0  0  0  0  0  0  0  0  0
   -0.1751   -0.6480   -8.0750 H   0  0  0  0  0  0  0  0  0  0  0  0
   -1.7329   -0.8540   -6.1573 H   0  0  0  0  0  0  0  0  0  0  0  0
   -0.9443   -1.8261   -4.0173 H   0  0  0  0  0  0  0  0  0  0  0  0
    1.4044   -2.6010   -3.7972 H   0  0  0  0  0  0  0  0  0  0  0  0
    5.3623   -2.4310   -1.3601 Al  0  0  0  0  0  0  0  0  0  0  0  0
    6.3895   -4.0673   -0.5233 Cl  0  0  0  0  0  0  0  0  0  0  0  0
    6.0446   -0.4802   -0.5511 Cl  0  0  0  0  0  0  0  0  0  0  0  0
    5.4450   -2.1954   -3.5003 Cl  0  0  0  0  0  0  0  0  0  0  0  0
    3.1948   -2.4417   -0.8740 Cl  0  0  0  0  0  0  0  0  0  0  0  0
  1  3  1  0  0  0  0
  2  1  1  0  0  0  0
  3  4  1  0  0  0  0
  3  5  1  0  0  0  0
  6 12  1  0  0  0  0
  6 11  2  0  0  0  0
  7  6  1  0  0  0  0
  8  7  2  0  0  0  0
  8  9  1  0  0  0  0
  9 10  2  0  0  0  0
 10 11  1  0  0  0  0
 10 16  1  0  0  0  0
 11 17  1  0  0  0  0
 13  7  1  0  0  0  0
 14  8  1  0  0  0  0
 15  9  1  0  0  0  0
 18 22  1  0  0  0  0
 18 20  1  0  0  0  0
 18 19  1  0  0  0  0
 21 18  1  0  0  0  0
M  RAD  2   1   2   2   3
M  END
