Coordinates from ORCA-job C6H6+AlCl4-+NH2N2+-scan
 OpenBabel10161817473D

 22 20  0  0  1  0  0  0  0  0999 V2000
    6.5898   -1.5958   -4.5515 N   0  0  0  0  0  0  0  0  0  0  0  0
    7.5585   -1.1935   -4.2365 N   0  0  0  0  0  0  0  0  0  0  0  0
    3.4124   -3.1203   -4.4304 N   0  0  0  0  0  0  0  0  0  0  0  0
    3.3106   -3.2805   -3.4237 H   0  0  0  0  0  0  0  0  0  0  0  0
    4.3045   -2.6273   -4.5119 H   0  0  0  0  0  0  0  0  0  0  0  0
    1.2165   -0.7051   -6.5832 C   0  0  0  0  0  0  0  0  0  0  0  0
    2.3391   -1.2658   -6.0220 C   0  0  0  0  0  0  0  0  0  0  0  0
    2.2636   -1.8717   -4.7198 C   0  0  1  0  0  0  0  0  0  0  0  0
    0.9733   -2.0538   -4.1166 C   0  0  0  0  0  0  0  0  0  0  0  0
   -0.1421   -1.4853   -4.6975 C   0  0  0  0  0  0  0  0  0  0  0  0
   -0.0187   -0.8169   -5.9202 C   0  0  0  0  0  0  0  0  0  0  0  0
    1.2742   -0.1944   -7.5366 H   0  0  0  0  0  0  0  0  0  0  0  0
    3.3045   -1.2001   -6.5104 H   0  0  0  0  0  0  0  0  0  0  0  0
    2.7515   -1.0319   -4.0182 H   0  0  0  0  0  0  0  0  0  0  0  0
    0.9079   -2.5684   -3.1652 H   0  0  0  0  0  0  0  0  0  0  0  0
   -1.1057   -1.5578   -4.2095 H   0  0  0  0  0  0  0  0  0  0  0  0
   -0.9003   -0.3745   -6.3716 H   0  0  0  0  0  0  0  0  0  0  0  0
    2.6816   -0.4055   -0.9315 Al  0  0  0  0  0  0  0  0  0  0  0  0
    0.6026    0.0735   -1.2149 Cl  0  0  0  0  0  0  0  0  0  0  0  0
    3.6897    0.2132   -2.8429 Cl  0  0  0  0  0  0  0  0  0  0  0  0
    3.6305    0.5855    0.6827 Cl  0  0  0  0  0  0  0  0  0  0  0  0
    2.9003   -2.5643   -0.9022 Cl  0  0  0  0  0  0  0  0  0  0  0  0
  1  2  3  0  0  0  0
  3  4  1  0  0  0  0
  5  3  1  0  0  0  0
  6  7  2  0  0  0  0
  6 11  1  0  0  0  0
  7  8  1  0  0  0  0
  8  3  1  0  0  0  0
  8  9  1  0  0  0  0
  8 14  1  1  0  0  0
  9 15  1  0  0  0  0
 10 16  1  0  0  0  0
 10  9  2  0  0  0  0
 11 10  1  0  0  0  0
 12  6  1  0  0  0  0
 13  7  1  0  0  0  0
 17 11  1  0  0  0  0
 18 22  1  0  0  0  0
 18 21  1  0  0  0  0
 19 18  1  0  0  0  0
 20 18  1  0  0  0  0
M  RAD  1  11   2
M  END
