Coordinates from ORCA-job C6H6+AlCl4-+NH2N2+-scan
 OpenBabel10161817473D

 22 20  0  0  0  0  0  0  0  0999 V2000
    3.9936   -0.9092   -4.5647 N   0  0  0  0  0  0  0  0  0  0  0  0
    4.2394   -1.6826   -5.3245 N   0  0  0  0  0  0  0  0  0  0  0  0
    3.7802    0.0534   -3.7536 N   0  0  0  0  0  0  0  0  0  0  0  0
    2.8574    0.0015   -3.2744 H   0  0  0  0  0  0  0  0  0  0  0  0
    4.5715    0.2083   -3.0508 H   0  0  0  0  0  0  0  0  0  0  0  0
    1.3590   -1.8036   -6.9958 C   0  0  0  0  0  0  0  0  0  0  0  0
    0.9393   -0.6599   -6.3171 C   0  0  0  0  0  0  0  0  0  0  0  0
    0.6475   -0.7275   -4.9526 C   0  0  0  0  0  0  0  0  0  0  0  0
    0.7749   -1.9389   -4.2676 C   0  0  0  0  0  0  0  0  0  0  0  0
    1.1958   -3.0820   -4.9485 C   0  0  0  0  0  0  0  0  0  0  0  0
    1.4873   -3.0142   -6.3112 C   0  0  0  0  0  0  0  0  0  0  0  0
    1.5776   -1.7555   -8.0569 H   0  0  0  0  0  0  0  0  0  0  0  0
    0.8255    0.2776   -6.8504 H   0  0  0  0  0  0  0  0  0  0  0  0
    0.2963    0.1550   -4.4277 H   0  0  0  0  0  0  0  0  0  0  0  0
    0.5420   -1.9910   -3.2103 H   0  0  0  0  0  0  0  0  0  0  0  0
    1.2939   -4.0213   -4.4164 H   0  0  0  0  0  0  0  0  0  0  0  0
    1.8086   -3.9040   -6.8412 H   0  0  0  0  0  0  0  0  0  0  0  0
    3.8620   -0.9028   -0.4200 Al  0  0  0  0  0  0  0  0  0  0  0  0
    3.9653   -0.9795    1.6852 Cl  0  0  0  0  0  0  0  0  0  0  0  0
    5.4783    0.3632   -1.2870 Cl  0  0  0  0  0  0  0  0  0  0  0  0
    4.0236   -2.7776   -1.4724 Cl  0  0  0  0  0  0  0  0  0  0  0  0
    2.0256    0.0499   -1.1758 Cl  0  0  0  0  0  0  0  0  0  0  0  0
  1  3  1  0  0  0  0
  2  1  1  0  0  0  0
  3  4  1  0  0  0  0
  3  5  1  0  0  0  0
  6  7  2  0  0  0  0
  6 11  1  0  0  0  0
  7  8  1  0  0  0  0
  8 14  1  0  0  0  0
  8  9  2  0  0  0  0
  9 15  1  0  0  0  0
 10 16  1  0  0  0  0
 10  9  1  0  0  0  0
 11 10  2  0  0  0  0
 12  6  1  0  0  0  0
 13  7  1  0  0  0  0
 17 11  1  0  0  0  0
 18 19  1  0  0  0  0
 20 18  1  0  0  0  0
 21 18  1  0  0  0  0
 22 18  1  0  0  0  0
M  RAD  2   1   2   2   3
M  END
