Coordinates from ORCA-job C6H6+AlCl4-+NH2N2+-scan
 OpenBabel10161817473D

 22 20  0  0  0  0  0  0  0  0999 V2000
    3.9701   -1.0444   -4.5420 N   0  0  0  0  0  0  0  0  0  0  0  0
    4.2489   -1.8671   -5.2352 N   0  0  0  0  0  0  0  0  0  0  0  0
    3.7223   -0.0301   -3.8075 N   0  0  0  0  0  0  0  0  0  0  0  0
    2.7942   -0.0730   -3.3450 H   0  0  0  0  0  0  0  0  0  0  0  0
    4.5021    0.1927   -3.1084 H   0  0  0  0  0  0  0  0  0  0  0  0
    1.3662   -1.7160   -6.9870 C   0  0  0  0  0  0  0  0  0  0  0  0
    1.0419   -0.6133   -6.1975 C   0  0  0  0  0  0  0  0  0  0  0  0
    0.7732   -0.7857   -4.8369 C   0  0  0  0  0  0  0  0  0  0  0  0
    0.8239   -2.0606   -4.2673 C   0  0  0  0  0  0  0  0  0  0  0  0
    1.1495   -3.1625   -5.0597 C   0  0  0  0  0  0  0  0  0  0  0  0
    1.4203   -2.9900   -6.4175 C   0  0  0  0  0  0  0  0  0  0  0  0
    1.5675   -1.5861   -8.0446 H   0  0  0  0  0  0  0  0  0  0  0  0
    0.9838    0.3748   -6.6409 H   0  0  0  0  0  0  0  0  0  0  0  0
    0.4878    0.0661   -4.2275 H   0  0  0  0  0  0  0  0  0  0  0  0
    0.6069   -2.1921   -3.2134 H   0  0  0  0  0  0  0  0  0  0  0  0
    1.1876   -4.1519   -4.6186 H   0  0  0  0  0  0  0  0  0  0  0  0
    1.6670   -3.8478   -7.0333 H   0  0  0  0  0  0  0  0  0  0  0  0
    3.8369   -0.7566   -0.4130 Al  0  0  0  0  0  0  0  0  0  0  0  0
    3.9727   -0.7109    1.6915 Cl  0  0  0  0  0  0  0  0  0  0  0  0
    5.4186    0.4870   -1.3739 Cl  0  0  0  0  0  0  0  0  0  0  0  0
    4.0271   -2.6869   -1.3572 Cl  0  0  0  0  0  0  0  0  0  0  0  0
    1.9761    0.1136   -1.1986 Cl  0  0  0  0  0  0  0  0  0  0  0  0
  1  3  1  0  0  0  0
  2  1  1  0  0  0  0
  3  4  1  0  0  0  0
  3  5  1  0  0  0  0
  6 11  2  0  0  0  0
  6  7  1  0  0  0  0
  7  8  2  0  0  0  0
  8  9  1  0  0  0  0
  8 14  1  0  0  0  0
  9 15  1  0  0  0  0
 10 16  1  0  0  0  0
 10  9  2  0  0  0  0
 11 10  1  0  0  0  0
 12  6  1  0  0  0  0
 13  7  1  0  0  0  0
 17 11  1  0  0  0  0
 18 19  1  0  0  0  0
 20 18  1  0  0  0  0
 21 18  1  0  0  0  0
 22 18  1  0  0  0  0
M  RAD  2   1   2   2   3
M  END
