Coordinates from ORCA-job C6H6+AlCl4-+NH2N2+-scan
 OpenBabel10161817473D

 22 20  0  0  0  0  0  0  0  0999 V2000
    3.2099    0.4474   -3.4915 N   0  0  0  0  0  0  0  0  0  0  0  0
    3.2290    0.7475   -4.5617 N   0  0  0  0  0  0  0  0  0  0  0  0
    3.1390    0.1754   -2.2466 N   0  0  0  0  0  0  0  0  0  0  0  0
    2.7815   -0.7948   -2.0445 H   0  0  0  0  0  0  0  0  0  0  0  0
    4.0541    0.3283   -1.7218 H   0  0  0  0  0  0  0  0  0  0  0  0
    1.9870   -2.1832   -5.7273 C   0  0  0  0  0  0  0  0  0  0  0  0
    1.6023   -1.4529   -6.8528 C   0  0  0  0  0  0  0  0  0  0  0  0
    0.3534   -0.8310   -6.8899 C   0  0  0  0  0  0  0  0  0  0  0  0
   -0.5081   -0.9326   -5.7976 C   0  0  0  0  0  0  0  0  0  0  0  0
   -0.1250   -1.6623   -4.6716 C   0  0  0  0  0  0  0  0  0  0  0  0
    1.1213   -2.2904   -4.6366 C   0  0  0  0  0  0  0  0  0  0  0  0
    2.9525   -2.6765   -5.7001 H   0  0  0  0  0  0  0  0  0  0  0  0
    2.2710   -1.3780   -7.7034 H   0  0  0  0  0  0  0  0  0  0  0  0
    0.0519   -0.2714   -7.7686 H   0  0  0  0  0  0  0  0  0  0  0  0
   -1.4804   -0.4530   -5.8277 H   0  0  0  0  0  0  0  0  0  0  0  0
   -0.8027   -1.7554   -3.8296 H   0  0  0  0  0  0  0  0  0  0  0  0
    1.4112   -2.8804   -3.7734 H   0  0  0  0  0  0  0  0  0  0  0  0
    5.3427   -2.3333   -1.3841 Al  0  0  0  0  0  0  0  0  0  0  0  0
    6.5268   -3.7460   -0.3641 Cl  0  0  0  0  0  0  0  0  0  0  0  0
    5.6367   -0.2671   -0.6177 Cl  0  0  0  0  0  0  0  0  0  0  0  0
    5.6194   -2.1701   -3.5156 Cl  0  0  0  0  0  0  0  0  0  0  0  0
    3.1709   -2.6608   -1.1072 Cl  0  0  0  0  0  0  0  0  0  0  0  0
  1  3  1  0  0  0  0
  2  1  1  0  0  0  0
  3  4  1  0  0  0  0
  3  5  1  0  0  0  0
  6 12  1  0  0  0  0
  6 11  2  0  0  0  0
  7  6  1  0  0  0  0
  8  7  2  0  0  0  0
  8  9  1  0  0  0  0
  9 10  2  0  0  0  0
 10 11  1  0  0  0  0
 10 16  1  0  0  0  0
 11 17  1  0  0  0  0
 13  7  1  0  0  0  0
 14  8  1  0  0  0  0
 15  9  1  0  0  0  0
 18 22  1  0  0  0  0
 18 20  1  0  0  0  0
 18 19  1  0  0  0  0
 21 18  1  0  0  0  0
M  RAD  2   1   2   2   3
M  END
