Coordinates from ORCA-job C6H6+AlCl4-+NH2N2+-scan
 OpenBabel10161817473D

 22 19  0  0  0  0  0  0  0  0999 V2000
    6.3769   -1.6386   -4.2715 N   0  0  0  0  0  0  0  0  0  0  0  0
    7.2095   -1.1430   -3.7606 N   0  0  0  0  0  0  0  0  0  0  0  0
    3.3296   -3.4803   -4.5957 N   0  0  0  0  0  0  0  0  0  0  0  0
    3.2587   -3.5210   -3.5804 H   0  0  0  0  0  0  0  0  0  0  0  0
    4.2298   -3.0489   -4.7973 H   0  0  0  0  0  0  0  0  0  0  0  0
    1.3782   -0.7819   -6.7125 C   0  0  0  0  0  0  0  0  0  0  0  0
    2.3613   -1.6701   -6.2777 C   0  0  0  0  0  0  0  0  0  0  0  0
    2.1940   -2.3164   -5.0600 C   0  0  0  0  0  0  0  0  0  0  0  0
    1.0648   -2.0985   -4.2704 C   0  0  0  0  0  0  0  0  0  0  0  0
    0.0744   -1.2162   -4.7308 C   0  0  0  0  0  0  0  0  0  0  0  0
    0.2344   -0.5522   -5.9449 C   0  0  0  0  0  0  0  0  0  0  0  0
    1.5034   -0.2709   -7.6607 H   0  0  0  0  0  0  0  0  0  0  0  0
    3.2378   -1.8664   -6.8836 H   0  0  0  0  0  0  0  0  0  0  0  0
    1.8980   -0.3912   -3.4953 H   0  0  0  0  0  0  0  0  0  0  0  0
    0.9248   -2.6457   -3.3446 H   0  0  0  0  0  0  0  0  0  0  0  0
   -0.8127   -1.0533   -4.1289 H   0  0  0  0  0  0  0  0  0  0  0  0
   -0.5286    0.1326   -6.2950 H   0  0  0  0  0  0  0  0  0  0  0  0
    2.7488   -0.3970   -0.6289 Al  0  0  0  0  0  0  0  0  0  0  0  0
    0.7318   -0.8692   -0.2106 Cl  0  0  0  0  0  0  0  0  0  0  0  0
    2.5171    0.6184   -2.8752 Cl  0  0  0  0  0  0  0  0  0  0  0  0
    3.6311    1.2307    0.3697 Cl  0  0  0  0  0  0  0  0  0  0  0  0
    3.9816   -2.0615   -1.0788 Cl  0  0  0  0  0  0  0  0  0  0  0  0
  1  2  3  0  0  0  0
  3  4  1  0  0  0  0
  5  3  1  0  0  0  0
  6  7  2  0  0  0  0
  6 11  1  0  0  0  0
  7  8  1  0  0  0  0
  8  3  1  0  0  0  0
  8  9  2  0  0  0  0
  9 15  1  0  0  0  0
 10  9  1  0  0  0  0
 10 16  1  0  0  0  0
 11 10  2  0  0  0  0
 12  6  1  0  0  0  0
 13  7  1  0  0  0  0
 14 20  1  0  0  0  0
 17 11  1  0  0  0  0
 18 19  1  0  0  0  0
 18 21  1  0  0  0  0
 22 18  1  0  0  0  0
M  END
