Coordinates from ORCA-job C6H6+AlCl4-+NH2N2+-scan
 OpenBabel10161817473D

 22 20  0  0  0  0  0  0  0  0999 V2000
    2.8521    0.3109   -3.6884 N   0  0  0  0  0  0  0  0  0  0  0  0
    2.9000    0.7640   -4.7025 N   0  0  0  0  0  0  0  0  0  0  0  0
    2.7641   -0.1072   -2.4848 N   0  0  0  0  0  0  0  0  0  0  0  0
    2.5460   -1.1230   -2.4080 H   0  0  0  0  0  0  0  0  0  0  0  0
    3.6112    0.1450   -1.8818 H   0  0  0  0  0  0  0  0  0  0  0  0
    1.9126   -2.4684   -5.5613 C   0  0  0  0  0  0  0  0  0  0  0  0
    1.7721   -1.5970   -6.6417 C   0  0  0  0  0  0  0  0  0  0  0  0
    0.7236   -0.6749   -6.6649 C   0  0  0  0  0  0  0  0  0  0  0  0
   -0.1850   -0.6218   -5.6069 C   0  0  0  0  0  0  0  0  0  0  0  0
   -0.0466   -1.4936   -4.5261 C   0  0  0  0  0  0  0  0  0  0  0  0
    1.0015   -2.4182   -4.5040 C   0  0  0  0  0  0  0  0  0  0  0  0
    2.7267   -3.1837   -5.5399 H   0  0  0  0  0  0  0  0  0  0  0  0
    2.4756   -1.6392   -7.4657 H   0  0  0  0  0  0  0  0  0  0  0  0
    0.6117   -0.0036   -7.5092 H   0  0  0  0  0  0  0  0  0  0  0  0
   -1.0043    0.0884   -5.6301 H   0  0  0  0  0  0  0  0  0  0  0  0
   -0.7622   -1.4663   -3.7113 H   0  0  0  0  0  0  0  0  0  0  0  0
    1.1005   -3.1112   -3.6755 H   0  0  0  0  0  0  0  0  0  0  0  0
    5.4027   -2.1730   -1.5950 Al  0  0  0  0  0  0  0  0  0  0  0  0
    6.8495   -3.3250   -0.5818 Cl  0  0  0  0  0  0  0  0  0  0  0  0
    5.2113   -0.1271   -0.7314 Cl  0  0  0  0  0  0  0  0  0  0  0  0
    5.7224   -1.8400   -3.7015 Cl  0  0  0  0  0  0  0  0  0  0  0  0
    3.3591   -2.9757   -1.4218 Cl  0  0  0  0  0  0  0  0  0  0  0  0
  1  3  1  0  0  0  0
  2  1  1  0  0  0  0
  3  4  1  0  0  0  0
  3  5  1  0  0  0  0
  6 12  1  0  0  0  0
  6 11  2  0  0  0  0
  7  6  1  0  0  0  0
  8  7  2  0  0  0  0
  8  9  1  0  0  0  0
  9 10  2  0  0  0  0
 10 11  1  0  0  0  0
 10 16  1  0  0  0  0
 11 17  1  0  0  0  0
 13  7  1  0  0  0  0
 14  8  1  0  0  0  0
 15  9  1  0  0  0  0
 18 22  1  0  0  0  0
 18 20  1  0  0  0  0
 18 19  1  0  0  0  0
 21 18  1  0  0  0  0
M  RAD  2   1   2   2   3
M  END
