Coordinates from ORCA-job C6H6+AlCl4-+NH2N2+-scan
 OpenBabel10161817473D

 22 20  0  0  1  0  0  0  0  0999 V2000
    6.0948   -2.7685   -3.3345 N   0  0  0  0  0  0  0  0  0  0  0  0
    7.0714   -3.0177   -2.9062 N   0  0  0  0  0  0  0  0  0  0  0  0
    3.2510   -2.0815   -4.5629 N   0  0  0  0  0  0  0  0  0  0  0  0
    3.2058   -2.4571   -3.6038 H   0  0  0  0  0  0  0  0  0  0  0  0
    3.8542   -1.2583   -4.4191 H   0  0  0  0  0  0  0  0  0  0  0  0
    0.9372   -0.7626   -6.7630 C   0  0  0  0  0  0  0  0  0  0  0  0
    1.6984   -0.3836   -5.6853 C   0  0  0  0  0  0  0  0  0  0  0  0
    1.6341   -1.1264   -4.4474 C   0  0  1  0  0  0  0  0  0  0  0  0
    0.6982   -2.2231   -4.3506 C   0  0  0  0  0  0  0  0  0  0  0  0
   -0.0560   -2.5897   -5.4379 C   0  0  0  0  0  0  0  0  0  0  0  0
    0.0708   -1.8624   -6.6340 C   0  0  0  0  0  0  0  0  0  0  0  0
    0.9963   -0.2286   -7.7030 H   0  0  0  0  0  0  0  0  0  0  0  0
    2.3806    0.4579   -5.7364 H   0  0  0  0  0  0  0  0  0  0  0  0
    1.8419   -0.5724   -3.5315 H   0  0  0  0  0  0  0  0  0  0  0  0
    0.6351   -2.7517   -3.4058 H   0  0  0  0  0  0  0  0  0  0  0  0
   -0.7422   -3.4255   -5.3839 H   0  0  0  0  0  0  0  0  0  0  0  0
   -0.5215   -2.1630   -7.4926 H   0  0  0  0  0  0  0  0  0  0  0  0
    3.7301    0.0667   -0.8931 Al  0  0  0  0  0  0  0  0  0  0  0  0
    2.5429    1.4226    0.2505 Cl  0  0  0  0  0  0  0  0  0  0  0  0
    3.9879    0.8829   -2.9330 Cl  0  0  0  0  0  0  0  0  0  0  0  0
    5.6428   -0.3922   -0.0679 Cl  0  0  0  0  0  0  0  0  0  0  0  0
    2.5907   -1.8061   -1.1921 Cl  0  0  0  0  0  0  0  0  0  0  0  0
  1  2  3  0  0  0  0
  3  8  1  0  0  0  0
  3  5  1  0  0  0  0
  3  4  1  0  0  0  0
  6 11  1  0  0  0  0
  6  7  2  0  0  0  0
  7  8  1  0  0  0  0
  8  9  1  0  0  0  0
  8 14  1  1  0  0  0
  9 15  1  0  0  0  0
 10 16  1  0  0  0  0
 10  9  2  0  0  0  0
 11 10  1  0  0  0  0
 12  6  1  0  0  0  0
 13  7  1  0  0  0  0
 17 11  1  0  0  0  0
 18 21  1  0  0  0  0
 18 19  1  0  0  0  0
 20 18  1  0  0  0  0
 22 18  1  0  0  0  0
M  RAD  1  11   2
M  END
