Coordinates from ORCA-job C6H6+AlCl4-+NH2N2+-scan
 OpenBabel10161817473D

 22 19  0  0  0  0  0  0  0  0999 V2000
    6.4893   -1.8616   -4.4556 N   0  0  0  0  0  0  0  0  0  0  0  0
    7.3919   -1.4174   -4.0224 N   0  0  0  0  0  0  0  0  0  0  0  0
    3.2844   -3.2882   -4.5164 N   0  0  0  0  0  0  0  0  0  0  0  0
    3.2481   -3.3847   -3.5076 H   0  0  0  0  0  0  0  0  0  0  0  0
    4.2135   -2.9856   -4.7866 H   0  0  0  0  0  0  0  0  0  0  0  0
    1.4136   -0.7748   -6.6913 C   0  0  0  0  0  0  0  0  0  0  0  0
    2.4111   -1.6188   -6.2139 C   0  0  0  0  0  0  0  0  0  0  0  0
    2.2389   -2.2768   -4.9934 C   0  0  0  0  0  0  0  0  0  0  0  0
    1.0672   -2.0685   -4.2488 C   0  0  0  0  0  0  0  0  0  0  0  0
    0.0583   -1.2353   -4.7580 C   0  0  0  0  0  0  0  0  0  0  0  0
    0.2316   -0.5782   -5.9717 C   0  0  0  0  0  0  0  0  0  0  0  0
    1.5576   -0.2675   -7.6390 H   0  0  0  0  0  0  0  0  0  0  0  0
    3.3149   -1.7810   -6.7901 H   0  0  0  0  0  0  0  0  0  0  0  0
    1.7876   -0.4097   -3.4639 H   0  0  0  0  0  0  0  0  0  0  0  0
    0.9065   -2.6155   -3.3256 H   0  0  0  0  0  0  0  0  0  0  0  0
   -0.8528   -1.1001   -4.1858 H   0  0  0  0  0  0  0  0  0  0  0  0
   -0.5430    0.0732   -6.3575 H   0  0  0  0  0  0  0  0  0  0  0  0
    2.7010   -0.3860   -0.6198 Al  0  0  0  0  0  0  0  0  0  0  0  0
    0.7418   -1.0437   -0.1712 Cl  0  0  0  0  0  0  0  0  0  0  0  0
    2.3546    0.6368   -2.8254 Cl  0  0  0  0  0  0  0  0  0  0  0  0
    3.4630    1.2823    0.4124 Cl  0  0  0  0  0  0  0  0  0  0  0  0
    4.0656   -1.9394   -1.1022 Cl  0  0  0  0  0  0  0  0  0  0  0  0
  1  2  3  0  0  0  0
  3  4  1  0  0  0  0
  5  3  1  0  0  0  0
  6  7  2  0  0  0  0
  6 11  1  0  0  0  0
  7  8  1  0  0  0  0
  8  3  1  0  0  0  0
  8  9  2  0  0  0  0
  9 15  1  0  0  0  0
 10  9  1  0  0  0  0
 10 16  1  0  0  0  0
 11 10  2  0  0  0  0
 12  6  1  0  0  0  0
 13  7  1  0  0  0  0
 14 20  1  0  0  0  0
 17 11  1  0  0  0  0
 18 19  1  0  0  0  0
 18 21  1  0  0  0  0
 22 18  1  0  0  0  0
M  END
