Coordinates from ORCA-job C6H6+AlCl4-+NH2N2+-scan
 OpenBabel10161817473D

 22 20  0  0  1  0  0  0  0  0999 V2000
    6.6378   -2.5980   -5.5607 N   0  0  0  0  0  0  0  0  0  0  0  0
    7.6970   -2.7057   -5.8167 N   0  0  0  0  0  0  0  0  0  0  0  0
    3.6824   -2.0426   -4.0733 N   0  0  0  0  0  0  0  0  0  0  0  0
    3.7046   -1.9970   -3.0504 H   0  0  0  0  0  0  0  0  0  0  0  0
    4.5216   -2.2953   -4.5755 H   0  0  0  0  0  0  0  0  0  0  0  0
    1.3532   -1.3496   -6.8793 C   0  0  0  0  0  0  0  0  0  0  0  0
    2.5002   -1.6985   -6.2126 C   0  0  0  0  0  0  0  0  0  0  0  0
    2.5137   -1.6553   -4.8021 C   0  0  2  0  0  0  0  0  0  0  0  0
    1.3296   -1.1893   -4.0516 C   0  0  0  0  0  0  0  0  0  0  0  0
    0.1331   -0.8758   -4.8615 C   0  0  0  0  0  0  0  0  0  0  0  0
    0.1527   -0.9405   -6.2116 C   0  0  0  0  0  0  0  0  0  0  0  0
    1.3514   -1.3906   -7.9638 H   0  0  0  0  0  0  0  0  0  0  0  0
    3.3836   -2.0154   -6.7533 H   0  0  0  0  0  0  0  0  0  0  0  0
    1.6235   -0.2741   -3.4856 H   0  0  0  0  0  0  0  0  0  0  0  0
    1.0759   -1.8643   -3.2198 H   0  0  0  0  0  0  0  0  0  0  0  0
   -0.7545   -0.5694   -4.3198 H   0  0  0  0  0  0  0  0  0  0  0  0
   -0.7213   -0.6909   -6.7997 H   0  0  0  0  0  0  0  0  0  0  0  0
    2.2601   -0.5552   -0.2397 Al  0  0  0  0  0  0  0  0  0  0  0  0
    0.3572   -1.5288   -0.6262 Cl  0  0  0  0  0  0  0  0  0  0  0  0
    2.4374    1.0776   -1.6909 Cl  0  0  0  0  0  0  0  0  0  0  0  0
    2.4848    0.1142    1.7624 Cl  0  0  0  0  0  0  0  0  0  0  0  0
    3.8206   -1.9963   -0.8018 Cl  0  0  0  0  0  0  0  0  0  0  0  0
  2  1  3  0  0  0  0
  3  4  1  0  0  0  0
  5  3  1  0  0  0  0
  6  7  2  0  0  0  0
  6 11  1  0  0  0  0
  7  8  1  0  0  0  0
  8  3  1  6  0  0  0
  8  9  1  0  0  0  0
  9 14  1  0  0  0  0
  9 15  1  0  0  0  0
 10 16  1  0  0  0  0
 10  9  1  0  0  0  0
 11 10  2  0  0  0  0
 12  6  1  0  0  0  0
 13  7  1  0  0  0  0
 17 11  1  0  0  0  0
 18 21  1  0  0  0  0
 19 18  1  0  0  0  0
 20 18  1  0  0  0  0
 22 18  1  0  0  0  0
M  RAD  1   8   2
M  END
