Coordinates from ORCA-job C6H6+AlCl4-+NH2N2+-scan
 OpenBabel10161817473D

 22 20  0  0  0  0  0  0  0  0999 V2000
    3.3419    0.5858   -3.2412 N   0  0  0  0  0  0  0  0  0  0  0  0
    3.2668    0.8642   -4.3150 N   0  0  0  0  0  0  0  0  0  0  0  0
    3.3694    0.3327   -1.9904 N   0  0  0  0  0  0  0  0  0  0  0  0
    2.9555   -0.6108   -1.7418 H   0  0  0  0  0  0  0  0  0  0  0  0
    4.3394    0.4013   -1.5606 H   0  0  0  0  0  0  0  0  0  0  0  0
    1.9715   -2.0489   -5.7699 C   0  0  0  0  0  0  0  0  0  0  0  0
    1.5314   -1.4624   -6.9575 C   0  0  0  0  0  0  0  0  0  0  0  0
    0.2200   -0.9987   -7.0644 C   0  0  0  0  0  0  0  0  0  0  0  0
   -0.6504   -1.1152   -5.9805 C   0  0  0  0  0  0  0  0  0  0  0  0
   -0.2123   -1.7010   -4.7927 C   0  0  0  0  0  0  0  0  0  0  0  0
    1.0978   -2.1704   -4.6874 C   0  0  0  0  0  0  0  0  0  0  0  0
    2.9854   -2.4256   -5.6890 H   0  0  0  0  0  0  0  0  0  0  0  0
    2.2074   -1.3768   -7.8013 H   0  0  0  0  0  0  0  0  0  0  0  0
   -0.1236   -0.5503   -7.9902 H   0  0  0  0  0  0  0  0  0  0  0  0
   -1.6712   -0.7583   -6.0645 H   0  0  0  0  0  0  0  0  0  0  0  0
   -0.8944   -1.8051   -3.9556 H   0  0  0  0  0  0  0  0  0  0  0  0
    1.4329   -2.6522   -3.7744 H   0  0  0  0  0  0  0  0  0  0  0  0
    5.3535   -2.4142   -1.3655 Al  0  0  0  0  0  0  0  0  0  0  0  0
    6.4232   -3.9865   -0.4609 Cl  0  0  0  0  0  0  0  0  0  0  0  0
    5.9296   -0.4198   -0.5787 Cl  0  0  0  0  0  0  0  0  0  0  0  0
    5.4952   -2.2215   -3.5070 Cl  0  0  0  0  0  0  0  0  0  0  0  0
    3.1755   -2.5069   -0.9452 Cl  0  0  0  0  0  0  0  0  0  0  0  0
  1  3  1  0  0  0  0
  2  1  1  0  0  0  0
  3  4  1  0  0  0  0
  3  5  1  0  0  0  0
  6 12  1  0  0  0  0
  6 11  2  0  0  0  0
  7  6  1  0  0  0  0
  8  7  2  0  0  0  0
  8  9  1  0  0  0  0
  9 10  2  0  0  0  0
 10 11  1  0  0  0  0
 10 16  1  0  0  0  0
 11 17  1  0  0  0  0
 13  7  1  0  0  0  0
 14  8  1  0  0  0  0
 15  9  1  0  0  0  0
 18 22  1  0  0  0  0
 18 20  1  0  0  0  0
 18 19  1  0  0  0  0
 21 18  1  0  0  0  0
M  RAD  2   1   2   2   3
M  END
