Coordinates from ORCA-job C6H6+AlCl4-+NH2N2+-scan
 OpenBabel10161817473D

 22 19  0  0  0  0  0  0  0  0999 V2000
    6.4103   -1.6983   -4.3356 N   0  0  0  0  0  0  0  0  0  0  0  0
    7.2688   -1.2188   -3.8533 N   0  0  0  0  0  0  0  0  0  0  0  0
    3.3121   -3.4373   -4.5693 N   0  0  0  0  0  0  0  0  0  0  0  0
    3.2494   -3.4864   -3.5549 H   0  0  0  0  0  0  0  0  0  0  0  0
    4.2213   -3.0354   -4.7856 H   0  0  0  0  0  0  0  0  0  0  0  0
    1.3934   -0.7774   -6.7032 C   0  0  0  0  0  0  0  0  0  0  0  0
    2.3776   -1.6570   -6.2555 C   0  0  0  0  0  0  0  0  0  0  0  0
    2.2029   -2.3082   -5.0395 C   0  0  0  0  0  0  0  0  0  0  0  0
    1.0600   -2.0942   -4.2656 C   0  0  0  0  0  0  0  0  0  0  0  0
    0.0679   -1.2213   -4.7396 C   0  0  0  0  0  0  0  0  0  0  0  0
    0.2371   -0.5564   -5.9516 C   0  0  0  0  0  0  0  0  0  0  0  0
    1.5277   -0.2655   -7.6497 H   0  0  0  0  0  0  0  0  0  0  0  0
    3.2634   -1.8447   -6.8507 H   0  0  0  0  0  0  0  0  0  0  0  0
    1.8643   -0.3896   -3.4856 H   0  0  0  0  0  0  0  0  0  0  0  0
    0.9113   -2.6421   -3.3415 H   0  0  0  0  0  0  0  0  0  0  0  0
   -0.8277   -1.0655   -4.1486 H   0  0  0  0  0  0  0  0  0  0  0  0
   -0.5268    0.1219   -6.3122 H   0  0  0  0  0  0  0  0  0  0  0  0
    2.7362   -0.3940   -0.6252 Al  0  0  0  0  0  0  0  0  0  0  0  0
    0.7362   -0.9328   -0.2049 Cl  0  0  0  0  0  0  0  0  0  0  0  0
    2.4694    0.6284   -2.8610 Cl  0  0  0  0  0  0  0  0  0  0  0  0
    3.5701    1.2517    0.3858 Cl  0  0  0  0  0  0  0  0  0  0  0  0
    4.0196   -2.0174   -1.0862 Cl  0  0  0  0  0  0  0  0  0  0  0  0
  1  2  3  0  0  0  0
  3  4  1  0  0  0  0
  5  3  1  0  0  0  0
  6  7  2  0  0  0  0
  6 11  1  0  0  0  0
  7  8  1  0  0  0  0
  8  3  1  0  0  0  0
  8  9  2  0  0  0  0
  9 15  1  0  0  0  0
 10  9  1  0  0  0  0
 10 16  1  0  0  0  0
 11 10  2  0  0  0  0
 12  6  1  0  0  0  0
 13  7  1  0  0  0  0
 14 20  1  0  0  0  0
 17 11  1  0  0  0  0
 18 19  1  0  0  0  0
 18 21  1  0  0  0  0
 22 18  1  0  0  0  0
M  END
