Coordinates from ORCA-job C6H6+AlCl4-+NH2N2+-scan
 OpenBabel10161817473D

 22 20  0  0  1  0  0  0  0  0999 V2000
    6.0995   -2.7687   -3.3309 N   0  0  0  0  0  0  0  0  0  0  0  0
    7.0758   -3.0168   -2.9011 N   0  0  0  0  0  0  0  0  0  0  0  0
    3.2572   -2.0854   -4.5635 N   0  0  0  0  0  0  0  0  0  0  0  0
    3.2102   -2.4597   -3.6039 H   0  0  0  0  0  0  0  0  0  0  0  0
    3.8587   -1.2607   -4.4192 H   0  0  0  0  0  0  0  0  0  0  0  0
    0.9352   -0.7617   -6.7632 C   0  0  0  0  0  0  0  0  0  0  0  0
    1.6965   -0.3829   -5.6854 C   0  0  0  0  0  0  0  0  0  0  0  0
    1.6316   -1.1254   -4.4477 C   0  0  1  0  0  0  0  0  0  0  0  0
    0.6965   -2.2224   -4.3510 C   0  0  0  0  0  0  0  0  0  0  0  0
   -0.0578   -2.5889   -5.4383 C   0  0  0  0  0  0  0  0  0  0  0  0
    0.0688   -1.8614   -6.6344 C   0  0  0  0  0  0  0  0  0  0  0  0
    0.9942   -0.2274   -7.7031 H   0  0  0  0  0  0  0  0  0  0  0  0
    2.3788    0.4584   -5.7364 H   0  0  0  0  0  0  0  0  0  0  0  0
    1.8406   -0.5720   -3.5318 H   0  0  0  0  0  0  0  0  0  0  0  0
    0.6338   -2.7512   -3.4063 H   0  0  0  0  0  0  0  0  0  0  0  0
   -0.7441   -3.4246   -5.3841 H   0  0  0  0  0  0  0  0  0  0  0  0
   -0.5236   -2.1621   -7.4929 H   0  0  0  0  0  0  0  0  0  0  0  0
    3.7298    0.0663   -0.8941 Al  0  0  0  0  0  0  0  0  0  0  0  0
    2.5423    1.4224    0.2491 Cl  0  0  0  0  0  0  0  0  0  0  0  0
    3.9877    0.8824   -2.9340 Cl  0  0  0  0  0  0  0  0  0  0  0  0
    5.6424   -0.3924   -0.0687 Cl  0  0  0  0  0  0  0  0  0  0  0  0
    2.5905   -1.8065   -1.1929 Cl  0  0  0  0  0  0  0  0  0  0  0  0
  1  2  3  0  0  0  0
  3  8  1  0  0  0  0
  3  5  1  0  0  0  0
  3  4  1  0  0  0  0
  6 11  1  0  0  0  0
  6  7  2  0  0  0  0
  7  8  1  0  0  0  0
  8  9  1  0  0  0  0
  8 14  1  1  0  0  0
  9 15  1  0  0  0  0
 10 16  1  0  0  0  0
 10  9  2  0  0  0  0
 11 10  1  0  0  0  0
 12  6  1  0  0  0  0
 13  7  1  0  0  0  0
 17 11  1  0  0  0  0
 18 21  1  0  0  0  0
 18 19  1  0  0  0  0
 20 18  1  0  0  0  0
 22 18  1  0  0  0  0
M  RAD  1  11   2
M  END
