Coordinates from ORCA-job C6H6+AlCl4-+NH2N2+-scan
 OpenBabel10161817473D

 22 20  0  0  0  0  0  0  0  0999 V2000
    3.8107   -1.1988   -4.3885 N   0  0  0  0  0  0  0  0  0  0  0  0
    4.2460   -1.9610   -5.0685 N   0  0  0  0  0  0  0  0  0  0  0  0
    3.3170   -0.2403   -3.7011 N   0  0  0  0  0  0  0  0  0  0  0  0
    2.5746   -0.5511   -3.0331 H   0  0  0  0  0  0  0  0  0  0  0  0
    4.0667    0.2868   -3.1576 H   0  0  0  0  0  0  0  0  0  0  0  0
    1.4975   -1.7142   -7.0446 C   0  0  0  0  0  0  0  0  0  0  0  0
    1.3344   -0.5810   -6.2485 C   0  0  0  0  0  0  0  0  0  0  0  0
    0.9682   -0.7162   -4.9070 C   0  0  0  0  0  0  0  0  0  0  0  0
    0.7265   -1.9856   -4.3756 C   0  0  0  0  0  0  0  0  0  0  0  0
    0.8970   -3.1192   -5.1730 C   0  0  0  0  0  0  0  0  0  0  0  0
    1.2837   -2.9843   -6.5057 C   0  0  0  0  0  0  0  0  0  0  0  0
    1.7808   -1.6083   -8.0860 H   0  0  0  0  0  0  0  0  0  0  0  0
    1.4854    0.4063   -6.6715 H   0  0  0  0  0  0  0  0  0  0  0  0
    0.7931    0.1681   -4.3059 H   0  0  0  0  0  0  0  0  0  0  0  0
    0.4018   -2.0919   -3.3463 H   0  0  0  0  0  0  0  0  0  0  0  0
    0.7145   -4.1034   -4.7567 H   0  0  0  0  0  0  0  0  0  0  0  0
    1.4080   -3.8646   -7.1264 H   0  0  0  0  0  0  0  0  0  0  0  0
    4.0787   -0.6722   -0.3486 Al  0  0  0  0  0  0  0  0  0  0  0  0
    4.3580   -0.4738    1.7317 Cl  0  0  0  0  0  0  0  0  0  0  0  0
    4.9979    0.9969   -1.4912 Cl  0  0  0  0  0  0  0  0  0  0  0  0
    4.8496   -2.4589   -1.2765 Cl  0  0  0  0  0  0  0  0  0  0  0  0
    1.9544   -0.5739   -0.9528 Cl  0  0  0  0  0  0  0  0  0  0  0  0
  1  3  1  0  0  0  0
  2  1  1  0  0  0  0
  3  5  1  0  0  0  0
  3  4  1  0  0  0  0
  6 11  2  0  0  0  0
  6  7  1  0  0  0  0
  7  8  2  0  0  0  0
  8  9  1  0  0  0  0
  8 14  1  0  0  0  0
  9 15  1  0  0  0  0
 10 16  1  0  0  0  0
 10  9  2  0  0  0  0
 11 10  1  0  0  0  0
 12  6  1  0  0  0  0
 13  7  1  0  0  0  0
 17 11  1  0  0  0  0
 18 19  1  0  0  0  0
 20 18  1  0  0  0  0
 21 18  1  0  0  0  0
 22 18  1  0  0  0  0
M  RAD  2   1   2   2   3
M  END
