Coordinates from ORCA-job C6H6+AlCl4-+NH2N2+-scan
 OpenBabel10161817473D

 22 20  0  0  0  0  0  0  0  0999 V2000
    3.8050    0.5555    0.1654 N   0  0  0  0  0  0  0  0  0  0  0  0
    3.3023    1.5475    0.1933 N   0  0  0  0  0  0  0  0  0  0  0  0
    4.3676   -0.5849    0.2252 N   0  0  0  0  0  0  0  0  0  0  0  0
    3.8408   -1.3550   -0.2926 H   0  0  0  0  0  0  0  0  0  0  0  0
    5.3757   -0.5856   -0.1137 H   0  0  0  0  0  0  0  0  0  0  0  0
    0.7674   -2.9614   -6.8695 C   0  0  0  0  0  0  0  0  0  0  0  0
    1.7302   -2.1206   -6.3124 C   0  0  0  0  0  0  0  0  0  0  0  0
    1.3624   -0.8673   -5.8231 C   0  0  0  0  0  0  0  0  0  0  0  0
    0.0316   -0.4562   -5.8934 C   0  0  0  0  0  0  0  0  0  0  0  0
   -0.9311   -1.2967   -6.4510 C   0  0  0  0  0  0  0  0  0  0  0  0
   -0.5631   -2.5500   -6.9389 C   0  0  0  0  0  0  0  0  0  0  0  0
    1.0544   -3.9362   -7.2492 H   0  0  0  0  0  0  0  0  0  0  0  0
    2.7655   -2.4397   -6.2600 H   0  0  0  0  0  0  0  0  0  0  0  0
    2.1121   -0.2157   -5.3884 H   0  0  0  0  0  0  0  0  0  0  0  0
   -0.2545    0.5197   -5.5152 H   0  0  0  0  0  0  0  0  0  0  0  0
   -1.9660   -0.9756   -6.5064 H   0  0  0  0  0  0  0  0  0  0  0  0
   -1.3116   -3.2044   -7.3731 H   0  0  0  0  0  0  0  0  0  0  0  0
    5.2390   -1.6487   -2.8926 Al  0  0  0  0  0  0  0  0  0  0  0  0
    5.9252   -2.7195   -4.5710 Cl  0  0  0  0  0  0  0  0  0  0  0  0
    6.8270   -1.2512   -1.3958 Cl  0  0  0  0  0  0  0  0  0  0  0  0
    4.3415    0.2797   -3.2450 Cl  0  0  0  0  0  0  0  0  0  0  0  0
    3.7233   -2.7743   -1.7260 Cl  0  0  0  0  0  0  0  0  0  0  0  0
  1  2  1  0  0  0  0
  1  3  1  0  0  0  0
  4  3  1  0  0  0  0
  5  3  1  0  0  0  0
  6  7  1  0  0  0  0
  7 13  1  0  0  0  0
  7  8  2  0  0  0  0
  8 14  1  0  0  0  0
  9  8  1  0  0  0  0
  9 15  1  0  0  0  0
 10  9  2  0  0  0  0
 11  6  2  0  0  0  0
 11 10  1  0  0  0  0
 12  6  1  0  0  0  0
 16 10  1  0  0  0  0
 17 11  1  0  0  0  0
 18 22  1  0  0  0  0
 18 20  1  0  0  0  0
 19 18  1  0  0  0  0
 21 18  1  0  0  0  0
M  RAD  2   1   2   2   3
M  END
