Coordinates from ORCA-job C6H6+AlCl4-+NH2N2+-scan
 OpenBabel10161817473D

 22 20  0  0  0  0  0  0  0  0999 V2000
    3.9860    0.6236    0.2972 N   0  0  0  0  0  0  0  0  0  0  0  0
    3.4963    1.6212    0.3481 N   0  0  0  0  0  0  0  0  0  0  0  0
    4.5428   -0.5207    0.3318 N   0  0  0  0  0  0  0  0  0  0  0  0
    3.9657   -1.2962   -0.1193 H   0  0  0  0  0  0  0  0  0  0  0  0
    5.5165   -0.5385   -0.0966 H   0  0  0  0  0  0  0  0  0  0  0  0
    0.7716   -2.9555   -6.9925 C   0  0  0  0  0  0  0  0  0  0  0  0
    1.7067   -2.1324   -6.3659 C   0  0  0  0  0  0  0  0  0  0  0  0
    1.3090   -0.9074   -5.8304 C   0  0  0  0  0  0  0  0  0  0  0  0
   -0.0236   -0.5069   -5.9238 C   0  0  0  0  0  0  0  0  0  0  0  0
   -0.9585   -1.3297   -6.5510 C   0  0  0  0  0  0  0  0  0  0  0  0
   -0.5606   -2.5547   -7.0852 C   0  0  0  0  0  0  0  0  0  0  0  0
    1.0817   -3.9085   -7.4079 H   0  0  0  0  0  0  0  0  0  0  0  0
    2.7434   -2.4431   -6.2943 H   0  0  0  0  0  0  0  0  0  0  0  0
    2.0368   -0.2695   -5.3415 H   0  0  0  0  0  0  0  0  0  0  0  0
   -0.3329    0.4467   -5.5089 H   0  0  0  0  0  0  0  0  0  0  0  0
   -1.9948   -1.0170   -6.6241 H   0  0  0  0  0  0  0  0  0  0  0  0
   -1.2875   -3.1954   -7.5733 H   0  0  0  0  0  0  0  0  0  0  0  0
    5.1250   -1.6604   -2.8270 Al  0  0  0  0  0  0  0  0  0  0  0  0
    5.6586   -2.7725   -4.5340 Cl  0  0  0  0  0  0  0  0  0  0  0  0
    6.8418   -1.2413   -1.4862 Cl  0  0  0  0  0  0  0  0  0  0  0  0
    4.2091    0.2656   -3.1429 Cl  0  0  0  0  0  0  0  0  0  0  0  0
    3.7117   -2.7477   -1.5057 Cl  0  0  0  0  0  0  0  0  0  0  0  0
  1  3  1  0  0  0  0
  1  2  1  0  0  0  0
  4  3  1  0  0  0  0
  5  3  1  0  0  0  0
  6  7  1  0  0  0  0
  7 13  1  0  0  0  0
  7  8  2  0  0  0  0
  8 14  1  0  0  0  0
  9  8  1  0  0  0  0
  9 15  1  0  0  0  0
 10  9  2  0  0  0  0
 11  6  2  0  0  0  0
 11 10  1  0  0  0  0
 12  6  1  0  0  0  0
 16 10  1  0  0  0  0
 17 11  1  0  0  0  0
 18 22  1  0  0  0  0
 18 20  1  0  0  0  0
 19 18  1  0  0  0  0
 21 18  1  0  0  0  0
M  RAD  2   1   2   2   3
M  END
