Coordinates from ORCA-job C6H6+AlCl4-+NH2N2+-scan
 OpenBabel10161817473D

 22 20  0  0  0  0  0  0  0  0999 V2000
    3.3657    0.6149   -3.1946 N   0  0  0  0  0  0  0  0  0  0  0  0
    3.2786    0.8969   -4.2666 N   0  0  0  0  0  0  0  0  0  0  0  0
    3.4070    0.3580   -1.9450 N   0  0  0  0  0  0  0  0  0  0  0  0
    2.9845   -0.5819   -1.6940 H   0  0  0  0  0  0  0  0  0  0  0  0
    4.3836    0.4113   -1.5287 H   0  0  0  0  0  0  0  0  0  0  0  0
    1.9636   -2.0379   -5.7800 C   0  0  0  0  0  0  0  0  0  0  0  0
    1.5192   -1.4713   -6.9757 C   0  0  0  0  0  0  0  0  0  0  0  0
    0.2023   -1.0261   -7.0915 C   0  0  0  0  0  0  0  0  0  0  0  0
   -0.6695   -1.1410   -6.0086 C   0  0  0  0  0  0  0  0  0  0  0  0
   -0.2271   -1.7067   -4.8128 C   0  0  0  0  0  0  0  0  0  0  0  0
    1.0887   -2.1577   -4.6985 C   0  0  0  0  0  0  0  0  0  0  0  0
    2.9820   -2.4007   -5.6921 H   0  0  0  0  0  0  0  0  0  0  0  0
    2.1965   -1.3870   -7.8187 H   0  0  0  0  0  0  0  0  0  0  0  0
   -0.1444   -0.5931   -8.0235 H   0  0  0  0  0  0  0  0  0  0  0  0
   -1.6946   -0.7984   -6.0995 H   0  0  0  0  0  0  0  0  0  0  0  0
   -0.9101   -1.8094   -3.9763 H   0  0  0  0  0  0  0  0  0  0  0  0
    1.4275   -2.6240   -3.7788 H   0  0  0  0  0  0  0  0  0  0  0  0
    5.3554   -2.4230   -1.3653 Al  0  0  0  0  0  0  0  0  0  0  0  0
    6.4085   -4.0201   -0.4857 Cl  0  0  0  0  0  0  0  0  0  0  0  0
    5.9720   -0.4447   -0.5696 Cl  0  0  0  0  0  0  0  0  0  0  0  0
    5.4752   -2.2147   -3.5067 Cl  0  0  0  0  0  0  0  0  0  0  0  0
    3.1803   -2.4841   -0.9213 Cl  0  0  0  0  0  0  0  0  0  0  0  0
  1  3  1  0  0  0  0
  2  1  1  0  0  0  0
  3  4  1  0  0  0  0
  3  5  1  0  0  0  0
  6 12  1  0  0  0  0
  6 11  2  0  0  0  0
  7  6  1  0  0  0  0
  8  7  2  0  0  0  0
  8  9  1  0  0  0  0
  9 10  2  0  0  0  0
 10 11  1  0  0  0  0
 10 16  1  0  0  0  0
 11 17  1  0  0  0  0
 13  7  1  0  0  0  0
 14  8  1  0  0  0  0
 15  9  1  0  0  0  0
 18 22  1  0  0  0  0
 18 20  1  0  0  0  0
 18 19  1  0  0  0  0
 21 18  1  0  0  0  0
M  RAD  2   1   2   2   3
M  END
