Coordinates from ORCA-job C6H6+AlCl4-+NH2N2+-scan
 OpenBabel10161817473D

 22 20  0  0  0  0  0  0  0  0999 V2000
    4.0299   -0.8739   -4.5487 N   0  0  0  0  0  0  0  0  0  0  0  0
    4.2504   -1.6473   -5.3166 N   0  0  0  0  0  0  0  0  0  0  0  0
    3.8432    0.0839   -3.7256 N   0  0  0  0  0  0  0  0  0  0  0  0
    2.9219    0.0454   -3.2379 H   0  0  0  0  0  0  0  0  0  0  0  0
    4.6384    0.2086   -3.0216 H   0  0  0  0  0  0  0  0  0  0  0  0
    1.3446   -1.8241   -7.0064 C   0  0  0  0  0  0  0  0  0  0  0  0
    0.8760   -0.6813   -6.3587 C   0  0  0  0  0  0  0  0  0  0  0  0
    0.5698   -0.7288   -4.9966 C   0  0  0  0  0  0  0  0  0  0  0  0
    0.7356   -1.9183   -4.2821 C   0  0  0  0  0  0  0  0  0  0  0  0
    1.2042   -3.0610   -4.9322 C   0  0  0  0  0  0  0  0  0  0  0  0
    1.5078   -3.0138   -6.2931 C   0  0  0  0  0  0  0  0  0  0  0  0
    1.5738   -1.7917   -8.0660 H   0  0  0  0  0  0  0  0  0  0  0  0
    0.7358    0.2394   -6.9146 H   0  0  0  0  0  0  0  0  0  0  0  0
    0.1854    0.1530   -4.4947 H   0  0  0  0  0  0  0  0  0  0  0  0
    0.4946   -1.9544   -3.2259 H   0  0  0  0  0  0  0  0  0  0  0  0
    1.3297   -3.9838   -4.3774 H   0  0  0  0  0  0  0  0  0  0  0  0
    1.8655   -3.9038   -6.7991 H   0  0  0  0  0  0  0  0  0  0  0  0
    3.8772   -0.9336   -0.4141 Al  0  0  0  0  0  0  0  0  0  0  0  0
    3.9524   -1.0402    1.6909 Cl  0  0  0  0  0  0  0  0  0  0  0  0
    5.5293    0.3104   -1.2431 Cl  0  0  0  0  0  0  0  0  0  0  0  0
    4.0107   -2.7947   -1.4933 Cl  0  0  0  0  0  0  0  0  0  0  0  0
    2.0686    0.0693   -1.1769 Cl  0  0  0  0  0  0  0  0  0  0  0  0
  1  3  1  0  0  0  0
  2  1  1  0  0  0  0
  3  4  1  0  0  0  0
  3  5  1  0  0  0  0
  6  7  2  0  0  0  0
  6 11  1  0  0  0  0
  7  8  1  0  0  0  0
  8 14  1  0  0  0  0
  8  9  2  0  0  0  0
  9 15  1  0  0  0  0
 10 16  1  0  0  0  0
 10  9  1  0  0  0  0
 11 10  2  0  0  0  0
 12  6  1  0  0  0  0
 13  7  1  0  0  0  0
 17 11  1  0  0  0  0
 18 19  1  0  0  0  0
 20 18  1  0  0  0  0
 21 18  1  0  0  0  0
 22 18  1  0  0  0  0
M  RAD  2   1   2   2   3
M  END
