Coordinates from ORCA-job C6H6+AlCl4-+NH2N2+-scan
 OpenBabel10161817473D

 22 20  0  0  0  0  0  0  0  0999 V2000
    2.8569    0.3144   -3.7660 N   0  0  0  0  0  0  0  0  0  0  0  0
    2.9403    0.7878   -4.7684 N   0  0  0  0  0  0  0  0  0  0  0  0
    2.7296   -0.1293   -2.5760 N   0  0  0  0  0  0  0  0  0  0  0  0
    2.5051   -1.1424   -2.5309 H   0  0  0  0  0  0  0  0  0  0  0  0
    3.5538    0.1178   -1.9369 H   0  0  0  0  0  0  0  0  0  0  0  0
    1.8843   -2.5250   -5.5513 C   0  0  0  0  0  0  0  0  0  0  0  0
    1.7911   -1.6053   -6.5962 C   0  0  0  0  0  0  0  0  0  0  0  0
    0.7854   -0.6367   -6.5866 C   0  0  0  0  0  0  0  0  0  0  0  0
   -0.1304   -0.5876   -5.5346 C   0  0  0  0  0  0  0  0  0  0  0  0
   -0.0394   -1.5080   -4.4900 C   0  0  0  0  0  0  0  0  0  0  0  0
    0.9673   -2.4779   -4.4991 C   0  0  0  0  0  0  0  0  0  0  0  0
    2.6652   -3.2766   -5.5545 H   0  0  0  0  0  0  0  0  0  0  0  0
    2.4987   -1.6451   -7.4168 H   0  0  0  0  0  0  0  0  0  0  0  0
    0.7099    0.0726   -7.4035 H   0  0  0  0  0  0  0  0  0  0  0  0
   -0.9177    0.1583   -5.5343 H   0  0  0  0  0  0  0  0  0  0  0  0
   -0.7596   -1.4826   -3.6793 H   0  0  0  0  0  0  0  0  0  0  0  0
    1.0299   -3.2064   -3.6981 H   0  0  0  0  0  0  0  0  0  0  0  0
    5.3875   -2.1393   -1.6089 Al  0  0  0  0  0  0  0  0  0  0  0  0
    6.8539   -3.2433   -0.5695 Cl  0  0  0  0  0  0  0  0  0  0  0  0
    5.1146   -0.1013   -0.7434 Cl  0  0  0  0  0  0  0  0  0  0  0  0
    5.7478   -1.7829   -3.7064 Cl  0  0  0  0  0  0  0  0  0  0  0  0
    3.3703   -3.0019   -1.4829 Cl  0  0  0  0  0  0  0  0  0  0  0  0
  1  3  1  0  0  0  0
  2  1  1  0  0  0  0
  3  4  1  0  0  0  0
  3  5  1  0  0  0  0
  6 11  2  0  0  0  0
  7  8  2  0  0  0  0
  7  6  1  0  0  0  0
  8  9  1  0  0  0  0
  9 15  1  0  0  0  0
  9 10  2  0  0  0  0
 10 16  1  0  0  0  0
 11 10  1  0  0  0  0
 11 17  1  0  0  0  0
 12  6  1  0  0  0  0
 13  7  1  0  0  0  0
 14  8  1  0  0  0  0
 18 22  1  0  0  0  0
 18 20  1  0  0  0  0
 18 19  1  0  0  0  0
 21 18  1  0  0  0  0
M  RAD  2   1   2   2   3
M  END
