Coordinates from ORCA-job C6H6+AlCl4-+NH2N2+-scan
 OpenBabel10161817473D

 22 20  0  0  0  0  0  0  0  0999 V2000
    4.2776   -2.1339   -4.0351 N   0  0  0  0  0  0  0  0  0  0  0  0
    5.0291   -2.7982   -4.5251 N   0  0  0  0  0  0  0  0  0  0  0  0
    3.2780   -1.4120   -3.6653 N   0  0  0  0  0  0  0  0  0  0  0  0
    2.8878   -1.7388   -2.7390 H   0  0  0  0  0  0  0  0  0  0  0  0
    3.5583   -0.3984   -3.5429 H   0  0  0  0  0  0  0  0  0  0  0  0
    1.4331   -1.2270   -6.9156 C   0  0  0  0  0  0  0  0  0  0  0  0
    1.5610   -0.4303   -5.7804 C   0  0  0  0  0  0  0  0  0  0  0  0
    1.1974   -0.9351   -4.5277 C   0  0  0  0  0  0  0  0  0  0  0  0
    0.5965   -2.1946   -4.4358 C   0  0  0  0  0  0  0  0  0  0  0  0
    0.4702   -2.9900   -5.5725 C   0  0  0  0  0  0  0  0  0  0  0  0
    0.8986   -2.5122   -6.8116 C   0  0  0  0  0  0  0  0  0  0  0  0
    1.7306   -0.8409   -7.8844 H   0  0  0  0  0  0  0  0  0  0  0  0
    1.9553    0.5772   -5.8641 H   0  0  0  0  0  0  0  0  0  0  0  0
    1.2109   -0.2829   -3.6608 H   0  0  0  0  0  0  0  0  0  0  0  0
    0.2420   -2.5558   -3.4759 H   0  0  0  0  0  0  0  0  0  0  0  0
    0.0196   -3.9736   -5.4974 H   0  0  0  0  0  0  0  0  0  0  0  0
    0.7944   -3.1297   -7.6968 H   0  0  0  0  0  0  0  0  0  0  0  0
    4.1326    0.0286   -0.6082 Al  0  0  0  0  0  0  0  0  0  0  0  0
    4.1221    1.1343    1.1858 Cl  0  0  0  0  0  0  0  0  0  0  0  0
    3.8017    1.3091   -2.3942 Cl  0  0  0  0  0  0  0  0  0  0  0  0
    5.8944   -1.1172   -1.0627 Cl  0  0  0  0  0  0  0  0  0  0  0  0
    2.4535   -1.4194   -0.7239 Cl  0  0  0  0  0  0  0  0  0  0  0  0
  1  3  1  0  0  0  0
  2  1  1  0  0  0  0
  3  5  1  0  0  0  0
  3  4  1  0  0  0  0
  6 11  2  0  0  0  0
  6  7  1  0  0  0  0
  7  8  2  0  0  0  0
  8  9  1  0  0  0  0
  8 14  1  0  0  0  0
  9 15  1  0  0  0  0
 10 16  1  0  0  0  0
 10  9  2  0  0  0  0
 11 10  1  0  0  0  0
 12  6  1  0  0  0  0
 13  7  1  0  0  0  0
 17 11  1  0  0  0  0
 18 19  1  0  0  0  0
 20 18  1  0  0  0  0
 21 18  1  0  0  0  0
 22 18  1  0  0  0  0
M  RAD  2   1   2   2   3
M  END
