Coordinates from ORCA-job C6H6+AlCl4-+NH2N2+-scan
 OpenBabel10161817473D

 22 20  0  0  0  0  0  0  0  0999 V2000
    3.1437    0.4101   -3.5453 N   0  0  0  0  0  0  0  0  0  0  0  0
    3.1816    0.7367   -4.6072 N   0  0  0  0  0  0  0  0  0  0  0  0
    3.0564    0.1127   -2.3072 N   0  0  0  0  0  0  0  0  0  0  0  0
    2.7272   -0.8695   -2.1298 H   0  0  0  0  0  0  0  0  0  0  0  0
    3.9541    0.2920   -1.7585 H   0  0  0  0  0  0  0  0  0  0  0  0
    1.9803   -2.2399   -5.7102 C   0  0  0  0  0  0  0  0  0  0  0  0
    1.6286   -1.4731   -6.8220 C   0  0  0  0  0  0  0  0  0  0  0  0
    0.4124   -0.7882   -6.8434 C   0  0  0  0  0  0  0  0  0  0  0  0
   -0.4485   -0.8630   -5.7484 C   0  0  0  0  0  0  0  0  0  0  0  0
   -0.0984   -1.6294   -4.6360 C   0  0  0  0  0  0  0  0  0  0  0  0
    1.1147   -2.3208   -4.6172 C   0  0  0  0  0  0  0  0  0  0  0  0
    2.9209   -2.7796   -5.6948 H   0  0  0  0  0  0  0  0  0  0  0  0
    2.2970   -1.4180   -7.6742 H   0  0  0  0  0  0  0  0  0  0  0  0
    0.1361   -0.2003   -7.7118 H   0  0  0  0  0  0  0  0  0  0  0  0
   -1.3955   -0.3346   -5.7662 H   0  0  0  0  0  0  0  0  0  0  0  0
   -0.7767   -1.7022   -3.7925 H   0  0  0  0  0  0  0  0  0  0  0  0
    1.3781   -2.9385   -3.7650 H   0  0  0  0  0  0  0  0  0  0  0  0
    5.3521   -2.3025   -1.4066 Al  0  0  0  0  0  0  0  0  0  0  0  0
    6.5885   -3.6555   -0.3671 Cl  0  0  0  0  0  0  0  0  0  0  0  0
    5.5403   -0.2233   -0.6370 Cl  0  0  0  0  0  0  0  0  0  0  0  0
    5.6555   -2.1255   -3.5333 Cl  0  0  0  0  0  0  0  0  0  0  0  0
    3.1963   -2.7283   -1.1600 Cl  0  0  0  0  0  0  0  0  0  0  0  0
  1  3  1  0  0  0  0
  2  1  1  0  0  0  0
  3  4  1  0  0  0  0
  3  5  1  0  0  0  0
  6 12  1  0  0  0  0
  6 11  2  0  0  0  0
  7  6  1  0  0  0  0
  8  7  2  0  0  0  0
  8  9  1  0  0  0  0
  9 10  2  0  0  0  0
 10 11  1  0  0  0  0
 10 16  1  0  0  0  0
 11 17  1  0  0  0  0
 13  7  1  0  0  0  0
 14  8  1  0  0  0  0
 15  9  1  0  0  0  0
 18 22  1  0  0  0  0
 18 20  1  0  0  0  0
 18 19  1  0  0  0  0
 21 18  1  0  0  0  0
M  RAD  2   1   2   2   3
M  END
