Coordinates from ORCA-job C6H6+AlCl4-+NH2N2+-scan
 OpenBabel10161817473D

 22 20  0  0  0  0  0  0  0  0999 V2000
    3.3025    0.5380   -3.3286 N   0  0  0  0  0  0  0  0  0  0  0  0
    3.2583    0.8161   -4.4041 N   0  0  0  0  0  0  0  0  0  0  0  0
    3.2964    0.2849   -2.0777 N   0  0  0  0  0  0  0  0  0  0  0  0
    2.9001   -0.6673   -1.8409 H   0  0  0  0  0  0  0  0  0  0  0  0
    4.2497    0.3829   -1.6161 H   0  0  0  0  0  0  0  0  0  0  0  0
    1.9798   -2.0880   -5.7540 C   0  0  0  0  0  0  0  0  0  0  0  0
    1.5545   -1.4525   -6.9215 C   0  0  0  0  0  0  0  0  0  0  0  0
    0.2593   -0.9410   -7.0071 C   0  0  0  0  0  0  0  0  0  0  0  0
   -0.6092   -1.0585   -5.9219 C   0  0  0  0  0  0  0  0  0  0  0  0
   -0.1857   -1.6933   -4.7541 C   0  0  0  0  0  0  0  0  0  0  0  0
    1.1078   -2.2107   -4.6701 C   0  0  0  0  0  0  0  0  0  0  0  0
    2.9810   -2.5004   -5.6897 H   0  0  0  0  0  0  0  0  0  0  0  0
    2.2287   -1.3661   -7.7667 H   0  0  0  0  0  0  0  0  0  0  0  0
   -0.0731   -0.4547   -7.9177 H   0  0  0  0  0  0  0  0  0  0  0  0
   -1.6175   -0.6645   -5.9896 H   0  0  0  0  0  0  0  0  0  0  0  0
   -0.8670   -1.7984   -3.9164 H   0  0  0  0  0  0  0  0  0  0  0  0
    1.4308   -2.7295   -3.7733 H   0  0  0  0  0  0  0  0  0  0  0  0
    5.3497   -2.3898   -1.3679 Al  0  0  0  0  0  0  0  0  0  0  0  0
    6.4534   -3.9138   -0.4220 Cl  0  0  0  0  0  0  0  0  0  0  0  0
    5.8394   -0.3686   -0.5892 Cl  0  0  0  0  0  0  0  0  0  0  0  0
    5.5376   -2.2140   -3.5076 Cl  0  0  0  0  0  0  0  0  0  0  0  0
    3.1684   -2.5516   -0.9973 Cl  0  0  0  0  0  0  0  0  0  0  0  0
  1  3  1  0  0  0  0
  2  1  1  0  0  0  0
  3  4  1  0  0  0  0
  3  5  1  0  0  0  0
  6 12  1  0  0  0  0
  6 11  2  0  0  0  0
  7  6  1  0  0  0  0
  8  7  2  0  0  0  0
  8  9  1  0  0  0  0
  9 10  2  0  0  0  0
 10 11  1  0  0  0  0
 10 16  1  0  0  0  0
 11 17  1  0  0  0  0
 13  7  1  0  0  0  0
 14  8  1  0  0  0  0
 15  9  1  0  0  0  0
 18 22  1  0  0  0  0
 18 20  1  0  0  0  0
 18 19  1  0  0  0  0
 21 18  1  0  0  0  0
M  RAD  2   1   2   2   3
M  END
