Coordinates from ORCA-job C6H6+AlCl4-+NH2N2+-scan
 OpenBabel10161817473D

 22 19  0  0  0  0  0  0  0  0999 V2000
    6.5293   -1.9221   -4.5046 N   0  0  0  0  0  0  0  0  0  0  0  0
    7.4471   -1.4831   -4.0990 N   0  0  0  0  0  0  0  0  0  0  0  0
    3.2913   -3.1786   -4.4903 N   0  0  0  0  0  0  0  0  0  0  0  0
    3.2719   -3.3074   -3.4865 H   0  0  0  0  0  0  0  0  0  0  0  0
    4.2229   -2.9433   -4.8067 H   0  0  0  0  0  0  0  0  0  0  0  0
    1.3999   -0.7981   -6.7088 C   0  0  0  0  0  0  0  0  0  0  0  0
    2.4140   -1.6091   -6.2158 C   0  0  0  0  0  0  0  0  0  0  0  0
    2.2655   -2.2425   -4.9746 C   0  0  0  0  0  0  0  0  0  0  0  0
    1.0931   -2.0182   -4.2265 C   0  0  0  0  0  0  0  0  0  0  0  0
    0.0624   -1.2241   -4.7589 C   0  0  0  0  0  0  0  0  0  0  0  0
    0.2155   -0.6004   -5.9901 C   0  0  0  0  0  0  0  0  0  0  0  0
    1.5311   -0.3152   -7.6711 H   0  0  0  0  0  0  0  0  0  0  0  0
    3.3163   -1.7704   -6.7950 H   0  0  0  0  0  0  0  0  0  0  0  0
    1.7927   -0.4494   -3.4552 H   0  0  0  0  0  0  0  0  0  0  0  0
    0.9381   -2.5523   -3.2943 H   0  0  0  0  0  0  0  0  0  0  0  0
   -0.8465   -1.0886   -4.1831 H   0  0  0  0  0  0  0  0  0  0  0  0
   -0.5721    0.0251   -6.3916 H   0  0  0  0  0  0  0  0  0  0  0  0
    2.6639   -0.4004   -0.6056 Al  0  0  0  0  0  0  0  0  0  0  0  0
    0.6966   -1.0485   -0.1709 Cl  0  0  0  0  0  0  0  0  0  0  0  0
    2.3588    0.6105   -2.8007 Cl  0  0  0  0  0  0  0  0  0  0  0  0
    3.4320    1.2508    0.4511 Cl  0  0  0  0  0  0  0  0  0  0  0  0
    4.0209   -1.9755   -1.0550 Cl  0  0  0  0  0  0  0  0  0  0  0  0
  1  2  3  0  0  0  0
  3  4  1  0  0  0  0
  5  3  1  0  0  0  0
  6  7  2  0  0  0  0
  6 11  1  0  0  0  0
  7  8  1  0  0  0  0
  8  3  1  0  0  0  0
  8  9  2  0  0  0  0
  9 15  1  0  0  0  0
 10  9  1  0  0  0  0
 10 16  1  0  0  0  0
 11 10  2  0  0  0  0
 12  6  1  0  0  0  0
 13  7  1  0  0  0  0
 14 20  1  0  0  0  0
 17 11  1  0  0  0  0
 18 19  1  0  0  0  0
 18 21  1  0  0  0  0
 22 18  1  0  0  0  0
M  END
