Coordinates from ORCA-job C6H6+AlCl4-+NH2N2+-scan
 OpenBabel10161817473D

 22 20  0  0  0  0  0  0  0  0999 V2000
    6.5963   -2.3647   -5.1868 N   0  0  0  0  0  0  0  0  0  0  0  0
    7.6847   -2.3861   -5.3043 N   0  0  0  0  0  0  0  0  0  0  0  0
    3.4909   -2.0116   -4.1189 N   0  0  0  0  0  0  0  0  0  0  0  0
    3.4826   -2.0787   -3.0878 H   0  0  0  0  0  0  0  0  0  0  0  0
    4.3797   -2.2183   -4.5637 H   0  0  0  0  0  0  0  0  0  0  0  0
    1.3773   -1.3016   -6.9055 C   0  0  0  0  0  0  0  0  0  0  0  0
    2.5093   -1.6092   -6.2171 C   0  0  0  0  0  0  0  0  0  0  0  0
    2.4863   -1.6730   -4.7819 C   0  0  0  0  0  0  0  0  0  0  0  0
    1.2244   -1.2861   -4.0690 C   0  0  0  0  0  0  0  0  0  0  0  0
    0.0370   -1.0253   -4.9232 C   0  0  0  0  0  0  0  0  0  0  0  0
    0.1156   -1.0189   -6.2662 C   0  0  0  0  0  0  0  0  0  0  0  0
    1.4208   -1.2745   -7.9896 H   0  0  0  0  0  0  0  0  0  0  0  0
    3.4344   -1.8329   -6.7368 H   0  0  0  0  0  0  0  0  0  0  0  0
    1.4574   -0.3616   -3.5057 H   0  0  0  0  0  0  0  0  0  0  0  0
    0.9880   -1.9989   -3.2696 H   0  0  0  0  0  0  0  0  0  0  0  0
   -0.8908   -0.8064   -4.4071 H   0  0  0  0  0  0  0  0  0  0  0  0
   -0.7491   -0.8019   -6.8805 H   0  0  0  0  0  0  0  0  0  0  0  0
    2.4876   -0.5575   -0.3215 Al  0  0  0  0  0  0  0  0  0  0  0  0
    0.3617   -0.9119   -0.4896 Cl  0  0  0  0  0  0  0  0  0  0  0  0
    3.0397    0.8746   -1.8786 Cl  0  0  0  0  0  0  0  0  0  0  0  0
    3.1272    0.0374    1.6138 Cl  0  0  0  0  0  0  0  0  0  0  0  0
    3.4835   -2.4336   -0.9441 Cl  0  0  0  0  0  0  0  0  0  0  0  0
  2  1  3  0  0  0  0
  3  4  1  0  0  0  0
  5  3  1  0  0  0  0
  6 11  1  0  0  0  0
  6  7  1  0  0  0  0
  7  8  2  0  0  0  0
  8  3  1  0  0  0  0
  8  9  1  0  0  0  0
  9 14  1  0  0  0  0
  9 15  1  0  0  0  0
 10 16  1  0  0  0  0
 10  9  1  0  0  0  0
 11 10  2  0  0  0  0
 12  6  1  0  0  0  0
 13  7  1  0  0  0  0
 17 11  1  0  0  0  0
 18 21  1  0  0  0  0
 19 18  1  0  0  0  0
 20 18  1  0  0  0  0
 22 18  1  0  0  0  0
M  RAD  1   6   2
M  END
