Coordinates from ORCA-job C6H6+AlCl4-+NH2N2+-scan
 OpenBabel10161817473D

 22 20  0  0  0  0  0  0  0  0999 V2000
    2.9517    0.3440   -3.5954 N   0  0  0  0  0  0  0  0  0  0  0  0
    2.9845    0.7534   -4.6282 N   0  0  0  0  0  0  0  0  0  0  0  0
    2.8772   -0.0360   -2.3787 N   0  0  0  0  0  0  0  0  0  0  0  0
    2.6337   -1.0475   -2.2674 H   0  0  0  0  0  0  0  0  0  0  0  0
    3.7466    0.1978   -1.8023 H   0  0  0  0  0  0  0  0  0  0  0  0
    1.9338   -2.3769   -5.6088 C   0  0  0  0  0  0  0  0  0  0  0  0
    1.7131   -1.5626   -6.7203 C   0  0  0  0  0  0  0  0  0  0  0  0
    0.5925   -0.7312   -6.7677 C   0  0  0  0  0  0  0  0  0  0  0  0
   -0.3037   -0.7070   -5.6985 C   0  0  0  0  0  0  0  0  0  0  0  0
   -0.0848   -1.5210   -4.5863 C   0  0  0  0  0  0  0  0  0  0  0  0
    1.0325   -2.3587   -4.5422 C   0  0  0  0  0  0  0  0  0  0  0  0
    2.8017   -3.0257   -5.5722 H   0  0  0  0  0  0  0  0  0  0  0  0
    2.4093   -1.5824   -7.5514 H   0  0  0  0  0  0  0  0  0  0  0  0
    0.4175   -0.1061   -7.6364 H   0  0  0  0  0  0  0  0  0  0  0  0
   -1.1771   -0.0651   -5.7372 H   0  0  0  0  0  0  0  0  0  0  0  0
   -0.7922   -1.5171   -3.7638 H   0  0  0  0  0  0  0  0  0  0  0  0
    1.1919   -3.0125   -3.6913 H   0  0  0  0  0  0  0  0  0  0  0  0
    5.4153   -2.2255   -1.5262 Al  0  0  0  0  0  0  0  0  0  0  0  0
    6.7991   -3.4568   -0.5200 Cl  0  0  0  0  0  0  0  0  0  0  0  0
    5.3599   -0.1646   -0.6829 Cl  0  0  0  0  0  0  0  0  0  0  0  0
    5.7165   -1.9368   -3.6411 Cl  0  0  0  0  0  0  0  0  0  0  0  0
    3.3257   -2.9024   -1.3153 Cl  0  0  0  0  0  0  0  0  0  0  0  0
  1  3  1  0  0  0  0
  2  1  1  0  0  0  0
  3  4  1  0  0  0  0
  3  5  1  0  0  0  0
  6 12  1  0  0  0  0
  6 11  2  0  0  0  0
  7  6  1  0  0  0  0
  8  7  2  0  0  0  0
  8  9  1  0  0  0  0
  9 10  2  0  0  0  0
 10 11  1  0  0  0  0
 10 16  1  0  0  0  0
 11 17  1  0  0  0  0
 13  7  1  0  0  0  0
 14  8  1  0  0  0  0
 15  9  1  0  0  0  0
 18 22  1  0  0  0  0
 18 20  1  0  0  0  0
 18 19  1  0  0  0  0
 21 18  1  0  0  0  0
M  RAD  2   1   2   2   3
M  END
