Coordinates from ORCA-job C6H6+AlCl4-+NH2N2+-scan
 OpenBabel10161817473D

 22 20  0  0  0  0  0  0  0  0999 V2000
    3.2703    0.5029   -3.3914 N   0  0  0  0  0  0  0  0  0  0  0  0
    3.2493    0.7846   -4.4665 N   0  0  0  0  0  0  0  0  0  0  0  0
    3.2398    0.2468   -2.1414 N   0  0  0  0  0  0  0  0  0  0  0  0
    2.8566   -0.7115   -1.9149 H   0  0  0  0  0  0  0  0  0  0  0  0
    4.1799    0.3655   -1.6568 H   0  0  0  0  0  0  0  0  0  0  0  0
    1.9854   -2.1192   -5.7438 C   0  0  0  0  0  0  0  0  0  0  0  0
    1.5718   -1.4491   -6.8962 C   0  0  0  0  0  0  0  0  0  0  0  0
    0.2909   -0.9000   -6.9641 C   0  0  0  0  0  0  0  0  0  0  0  0
   -0.5747   -1.0144   -5.8763 C   0  0  0  0  0  0  0  0  0  0  0  0
   -0.1630   -1.6839   -4.7236 C   0  0  0  0  0  0  0  0  0  0  0  0
    1.1160   -2.2390   -4.6574 C   0  0  0  0  0  0  0  0  0  0  0  0
    2.9755   -2.5593   -5.6931 H   0  0  0  0  0  0  0  0  0  0  0  0
    2.2436   -1.3651   -7.7435 H   0  0  0  0  0  0  0  0  0  0  0  0
   -0.0326   -0.3870   -7.8632 H   0  0  0  0  0  0  0  0  0  0  0  0
   -1.5719   -0.5913   -5.9304 H   0  0  0  0  0  0  0  0  0  0  0  0
   -0.8426   -1.7867   -3.8843 H   0  0  0  0  0  0  0  0  0  0  0  0
    1.4293   -2.7838   -3.7728 H   0  0  0  0  0  0  0  0  0  0  0  0
    5.3455   -2.3706   -1.3718 Al  0  0  0  0  0  0  0  0  0  0  0  0
    6.4767   -3.8565   -0.3977 Cl  0  0  0  0  0  0  0  0  0  0  0  0
    5.7674   -0.3314   -0.5983 Cl  0  0  0  0  0  0  0  0  0  0  0  0
    5.5666   -2.2028   -3.5092 Cl  0  0  0  0  0  0  0  0  0  0  0  0
    3.1650   -2.5888   -1.0368 Cl  0  0  0  0  0  0  0  0  0  0  0  0
  1  3  1  0  0  0  0
  2  1  1  0  0  0  0
  3  4  1  0  0  0  0
  3  5  1  0  0  0  0
  6 12  1  0  0  0  0
  6 11  2  0  0  0  0
  7  6  1  0  0  0  0
  8  7  2  0  0  0  0
  8  9  1  0  0  0  0
  9 10  2  0  0  0  0
 10 11  1  0  0  0  0
 10 16  1  0  0  0  0
 11 17  1  0  0  0  0
 13  7  1  0  0  0  0
 14  8  1  0  0  0  0
 15  9  1  0  0  0  0
 18 22  1  0  0  0  0
 18 20  1  0  0  0  0
 18 19  1  0  0  0  0
 21 18  1  0  0  0  0
M  RAD  2   1   2   2   3
M  END
