Coordinates from ORCA-job C6H6+AlCl4-+NH2N2+-scan
 OpenBabel10161817473D

 22 20  0  0  0  0  0  0  0  0999 V2000
    3.8100   -1.2249   -4.3584 N   0  0  0  0  0  0  0  0  0  0  0  0
    4.2658   -1.9678   -5.0465 N   0  0  0  0  0  0  0  0  0  0  0  0
    3.2799   -0.2898   -3.6666 N   0  0  0  0  0  0  0  0  0  0  0  0
    2.5730   -0.6375   -2.9753 H   0  0  0  0  0  0  0  0  0  0  0  0
    4.0116    0.2820   -3.1448 H   0  0  0  0  0  0  0  0  0  0  0  0
    1.5097   -1.7189   -7.0603 C   0  0  0  0  0  0  0  0  0  0  0  0
    1.3626   -0.5797   -6.2690 C   0  0  0  0  0  0  0  0  0  0  0  0
    0.9740   -0.7020   -4.9328 C   0  0  0  0  0  0  0  0  0  0  0  0
    0.6942   -1.9641   -4.4027 C   0  0  0  0  0  0  0  0  0  0  0  0
    0.8485   -3.1036   -5.1948 C   0  0  0  0  0  0  0  0  0  0  0  0
    1.2575   -2.9819   -6.5222 C   0  0  0  0  0  0  0  0  0  0  0  0
    1.8105   -1.6223   -8.0977 H   0  0  0  0  0  0  0  0  0  0  0  0
    1.5431    0.4025   -6.6925 H   0  0  0  0  0  0  0  0  0  0  0  0
    0.8129    0.1877   -4.3362 H   0  0  0  0  0  0  0  0  0  0  0  0
    0.3510   -2.0603   -3.3782 H   0  0  0  0  0  0  0  0  0  0  0  0
    0.6355   -4.0819   -4.7790 H   0  0  0  0  0  0  0  0  0  0  0  0
    1.3690   -3.8665   -7.1392 H   0  0  0  0  0  0  0  0  0  0  0  0
    4.1236   -0.6554   -0.3286 Al  0  0  0  0  0  0  0  0  0  0  0  0
    4.4117   -0.4274    1.7472 Cl  0  0  0  0  0  0  0  0  0  0  0  0
    4.9084    1.0682   -1.4896 Cl  0  0  0  0  0  0  0  0  0  0  0  0
    5.0035   -2.3883   -1.2606 Cl  0  0  0  0  0  0  0  0  0  0  0  0
    1.9885   -0.7087   -0.9059 Cl  0  0  0  0  0  0  0  0  0  0  0  0
  1  3  1  0  0  0  0
  2  1  1  0  0  0  0
  3  5  1  0  0  0  0
  3  4  1  0  0  0  0
  6 11  2  0  0  0  0
  6  7  1  0  0  0  0
  7  8  2  0  0  0  0
  8  9  1  0  0  0  0
  8 14  1  0  0  0  0
  9 15  1  0  0  0  0
 10 16  1  0  0  0  0
 10  9  2  0  0  0  0
 11 10  1  0  0  0  0
 12  6  1  0  0  0  0
 13  7  1  0  0  0  0
 17 11  1  0  0  0  0
 18 19  1  0  0  0  0
 20 18  1  0  0  0  0
 21 18  1  0  0  0  0
 22 18  1  0  0  0  0
M  RAD  2   1   2   2   3
M  END
