Coordinates from ORCA-job C6H6+AlCl4-+NH2N2+-scan
 OpenBabel10161817473D

 22 20  0  0  0  0  0  0  0  0999 V2000
    2.9459   -0.5664   -0.4950 N   0  0  0  0  0  0  0  0  0  0  0  0
    1.9802   -0.0854   -0.7657 N   0  0  0  0  0  0  0  0  0  0  0  0
    4.0164   -1.1332   -0.0991 N   0  0  0  0  0  0  0  0  0  0  0  0
    4.2651   -2.0088   -0.6518 H   0  0  0  0  0  0  0  0  0  0  0  0
    4.8658   -0.4904   -0.0990 H   0  0  0  0  0  0  0  0  0  0  0  0
   -0.0003   -2.9645   -6.1704 C   0  0  0  0  0  0  0  0  0  0  0  0
    1.2622   -2.4033   -5.9816 C   0  0  0  0  0  0  0  0  0  0  0  0
    1.4402   -1.0258   -6.1086 C   0  0  0  0  0  0  0  0  0  0  0  0
    0.3540   -0.2104   -6.4246 C   0  0  0  0  0  0  0  0  0  0  0  0
   -0.9088   -0.7711   -6.6133 C   0  0  0  0  0  0  0  0  0  0  0  0
   -1.0862   -2.1483   -6.4858 C   0  0  0  0  0  0  0  0  0  0  0  0
   -0.1374   -4.0365   -6.0754 H   0  0  0  0  0  0  0  0  0  0  0  0
    2.1086   -3.0370   -5.7395 H   0  0  0  0  0  0  0  0  0  0  0  0
    2.4229   -0.5920   -5.9592 H   0  0  0  0  0  0  0  0  0  0  0  0
    0.4927    0.8607   -6.5264 H   0  0  0  0  0  0  0  0  0  0  0  0
   -1.7528   -0.1364   -6.8617 H   0  0  0  0  0  0  0  0  0  0  0  0
   -2.0679   -2.5850   -6.6353 H   0  0  0  0  0  0  0  0  0  0  0  0
    6.3467   -1.1320   -2.6165 Al  0  0  0  0  0  0  0  0  0  0  0  0
    8.0787   -1.3893   -3.7846 Cl  0  0  0  0  0  0  0  0  0  0  0  0
    6.7287    0.0045   -0.7468 Cl  0  0  0  0  0  0  0  0  0  0  0  0
    4.6672   -0.1361   -3.5263 Cl  0  0  0  0  0  0  0  0  0  0  0  0
    5.5227   -3.0538   -1.8668 Cl  0  0  0  0  0  0  0  0  0  0  0  0
  1  3  1  0  0  0  0
  2  1  1  0  0  0  0
  3  5  1  0  0  0  0
  4  3  1  0  0  0  0
  6 12  1  0  0  0  0
  6  7  2  0  0  0  0
  7 13  1  0  0  0  0
  8  7  1  0  0  0  0
  8 14  1  0  0  0  0
  9  8  2  0  0  0  0
 10 11  2  0  0  0  0
 10  9  1  0  0  0  0
 11  6  1  0  0  0  0
 15  9  1  0  0  0  0
 16 10  1  0  0  0  0
 17 11  1  0  0  0  0
 18 22  1  0  0  0  0
 18 20  1  0  0  0  0
 19 18  1  0  0  0  0
 21 18  1  0  0  0  0
M  RAD  2   1   2   2   3
M  END
