Coordinates from ORCA-job C6H6+AlCl4-+NH2N2+-scan
 OpenBabel10161817473D

 22 20  0  0  0  0  0  0  0  0999 V2000
    3.9855   -0.9846   -4.5589 N   0  0  0  0  0  0  0  0  0  0  0  0
    4.2536   -1.7845   -5.2828 N   0  0  0  0  0  0  0  0  0  0  0  0
    3.7485    0.0051   -3.7887 N   0  0  0  0  0  0  0  0  0  0  0  0
    2.8209   -0.0426   -3.3223 H   0  0  0  0  0  0  0  0  0  0  0  0
    4.5313    0.2000   -3.0847 H   0  0  0  0  0  0  0  0  0  0  0  0
    1.3624   -1.7512   -6.9886 C   0  0  0  0  0  0  0  0  0  0  0  0
    1.0020   -0.6307   -6.2409 C   0  0  0  0  0  0  0  0  0  0  0  0
    0.7252   -0.7626   -4.8776 C   0  0  0  0  0  0  0  0  0  0  0  0
    0.8065   -2.0150   -4.2632 C   0  0  0  0  0  0  0  0  0  0  0  0
    1.1680   -3.1347   -5.0136 C   0  0  0  0  0  0  0  0  0  0  0  0
    1.4453   -3.0027   -6.3746 C   0  0  0  0  0  0  0  0  0  0  0  0
    1.5695   -1.6528   -8.0486 H   0  0  0  0  0  0  0  0  0  0  0  0
    0.9223    0.3395   -6.7192 H   0  0  0  0  0  0  0  0  0  0  0  0
    0.4155    0.1025   -4.3000 H   0  0  0  0  0  0  0  0  0  0  0  0
    0.5848   -2.1158   -3.2070 H   0  0  0  0  0  0  0  0  0  0  0  0
    1.2296   -4.1065   -4.5371 H   0  0  0  0  0  0  0  0  0  0  0  0
    1.7199   -3.8745   -6.9581 H   0  0  0  0  0  0  0  0  0  0  0  0
    3.8407   -0.8149   -0.4174 Al  0  0  0  0  0  0  0  0  0  0  0  0
    3.9607   -0.8180    1.6884 Cl  0  0  0  0  0  0  0  0  0  0  0  0
    5.4429    0.4328   -1.3384 Cl  0  0  0  0  0  0  0  0  0  0  0  0
    4.0148   -2.7246   -1.4045 Cl  0  0  0  0  0  0  0  0  0  0  0  0
    1.9947    0.0952   -1.1956 Cl  0  0  0  0  0  0  0  0  0  0  0  0
  1  3  1  0  0  0  0
  2  1  1  0  0  0  0
  3  4  1  0  0  0  0
  3  5  1  0  0  0  0
  6 11  2  0  0  0  0
  6  7  1  0  0  0  0
  7  8  2  0  0  0  0
  8 14  1  0  0  0  0
  8  9  1  0  0  0  0
  9 15  1  0  0  0  0
 10 16  1  0  0  0  0
 10  9  2  0  0  0  0
 11 10  1  0  0  0  0
 12  6  1  0  0  0  0
 13  7  1  0  0  0  0
 17 11  1  0  0  0  0
 18 19  1  0  0  0  0
 20 18  1  0  0  0  0
 21 18  1  0  0  0  0
 22 18  1  0  0  0  0
M  RAD  2   1   2   2   3
M  END
