Coordinates from ORCA-job C6H6+AlCl4-+NH2N2+-scan
 OpenBabel10161817473D

 22 20  0  0  0  0  0  0  0  0999 V2000
    3.7631    0.5439    0.1288 N   0  0  0  0  0  0  0  0  0  0  0  0
    3.2626    1.5371    0.1508 N   0  0  0  0  0  0  0  0  0  0  0  0
    4.3207   -0.5986    0.1949 N   0  0  0  0  0  0  0  0  0  0  0  0
    3.8043   -1.3640   -0.3403 H   0  0  0  0  0  0  0  0  0  0  0  0
    5.3367   -0.6004   -0.1194 H   0  0  0  0  0  0  0  0  0  0  0  0
    0.7691   -2.9610   -6.8451 C   0  0  0  0  0  0  0  0  0  0  0  0
    1.7383   -2.1179   -6.3025 C   0  0  0  0  0  0  0  0  0  0  0  0
    1.3769   -0.8612   -5.8174 C   0  0  0  0  0  0  0  0  0  0  0  0
    0.0460   -0.4487   -5.8774 C   0  0  0  0  0  0  0  0  0  0  0  0
   -0.9231   -1.2914   -6.4205 C   0  0  0  0  0  0  0  0  0  0  0  0
   -0.5614   -2.5483   -6.9040 C   0  0  0  0  0  0  0  0  0  0  0  0
    1.0512   -3.9385   -7.2215 H   0  0  0  0  0  0  0  0  0  0  0  0
    2.7738   -2.4378   -6.2584 H   0  0  0  0  0  0  0  0  0  0  0  0
    2.1318   -0.2082   -5.3940 H   0  0  0  0  0  0  0  0  0  0  0  0
   -0.2351    0.5299   -5.5027 H   0  0  0  0  0  0  0  0  0  0  0  0
   -1.9581   -0.9693   -6.4679 H   0  0  0  0  0  0  0  0  0  0  0  0
   -1.3149   -3.2043   -7.3269 H   0  0  0  0  0  0  0  0  0  0  0  0
    5.2633   -1.6455   -2.9079 Al  0  0  0  0  0  0  0  0  0  0  0  0
    5.9844   -2.7073   -4.5774 Cl  0  0  0  0  0  0  0  0  0  0  0  0
    6.8164   -1.2641   -1.3710 Cl  0  0  0  0  0  0  0  0  0  0  0  0
    4.3814    0.2884   -3.2697 Cl  0  0  0  0  0  0  0  0  0  0  0  0
    3.7171   -2.7734   -1.7841 Cl  0  0  0  0  0  0  0  0  0  0  0  0
  1  2  1  0  0  0  0
  1  3  1  0  0  0  0
  4  3  1  0  0  0  0
  5  3  1  0  0  0  0
  6  7  1  0  0  0  0
  7 13  1  0  0  0  0
  7  8  2  0  0  0  0
  8 14  1  0  0  0  0
  9  8  1  0  0  0  0
  9 15  1  0  0  0  0
 10  9  2  0  0  0  0
 11  6  2  0  0  0  0
 11 10  1  0  0  0  0
 12  6  1  0  0  0  0
 16 10  1  0  0  0  0
 17 11  1  0  0  0  0
 18 22  1  0  0  0  0
 18 20  1  0  0  0  0
 19 18  1  0  0  0  0
 21 18  1  0  0  0  0
M  RAD  2   1   2   2   3
M  END
