Coordinates from ORCA-job C6H6+AlCl4-+NH2N2+-scan
 OpenBabel10161817473D

 22 20  0  0  0  0  0  0  0  0999 V2000
    3.9367    0.6067    0.2598 N   0  0  0  0  0  0  0  0  0  0  0  0
    3.4518    1.6068    0.3062 N   0  0  0  0  0  0  0  0  0  0  0  0
    4.4851   -0.5415    0.2991 N   0  0  0  0  0  0  0  0  0  0  0  0
    3.9163   -1.3090   -0.1758 H   0  0  0  0  0  0  0  0  0  0  0  0
    5.4706   -0.5617   -0.1012 H   0  0  0  0  0  0  0  0  0  0  0  0
    0.7757   -2.9577   -6.9560 C   0  0  0  0  0  0  0  0  0  0  0  0
    1.7185   -2.1278   -6.3504 C   0  0  0  0  0  0  0  0  0  0  0  0
    1.3281   -0.8957   -5.8259 C   0  0  0  0  0  0  0  0  0  0  0  0
   -0.0050   -0.4948   -5.9093 C   0  0  0  0  0  0  0  0  0  0  0  0
   -0.9477   -1.3244   -6.5155 C   0  0  0  0  0  0  0  0  0  0  0  0
   -0.5572   -2.5565   -7.0386 C   0  0  0  0  0  0  0  0  0  0  0  0
    1.0800   -3.9161   -7.3629 H   0  0  0  0  0  0  0  0  0  0  0  0
    2.7557   -2.4385   -6.2868 H   0  0  0  0  0  0  0  0  0  0  0  0
    2.0623   -0.2527   -5.3534 H   0  0  0  0  0  0  0  0  0  0  0  0
   -0.3086    0.4644   -5.5031 H   0  0  0  0  0  0  0  0  0  0  0  0
   -1.9845   -1.0114   -6.5808 H   0  0  0  0  0  0  0  0  0  0  0  0
   -1.2901   -3.2024   -7.5104 H   0  0  0  0  0  0  0  0  0  0  0  0
    5.1506   -1.6536   -2.8532 Al  0  0  0  0  0  0  0  0  0  0  0  0
    5.7243   -2.7520   -4.5561 Cl  0  0  0  0  0  0  0  0  0  0  0  0
    6.8309   -1.2606   -1.4592 Cl  0  0  0  0  0  0  0  0  0  0  0  0
    4.2575    0.2819   -3.1766 Cl  0  0  0  0  0  0  0  0  0  0  0  0
    3.6935   -2.7442   -1.5833 Cl  0  0  0  0  0  0  0  0  0  0  0  0
  1  3  1  0  0  0  0
  1  2  1  0  0  0  0
  4  3  1  0  0  0  0
  5  3  1  0  0  0  0
  6  7  1  0  0  0  0
  7 13  1  0  0  0  0
  7  8  2  0  0  0  0
  8 14  1  0  0  0  0
  9  8  1  0  0  0  0
  9 15  1  0  0  0  0
 10  9  2  0  0  0  0
 11  6  2  0  0  0  0
 11 10  1  0  0  0  0
 12  6  1  0  0  0  0
 16 10  1  0  0  0  0
 17 11  1  0  0  0  0
 18 22  1  0  0  0  0
 18 20  1  0  0  0  0
 19 18  1  0  0  0  0
 21 18  1  0  0  0  0
M  RAD  2   1   2   2   3
M  END
