Coordinates from ORCA-job C6H6+AlCl4-+NH2N2+-scan
 OpenBabel10161817473D

 22 20  0  0  0  0  0  0  0  0999 V2000
    6.6095   -2.4514   -5.3426 N   0  0  0  0  0  0  0  0  0  0  0  0
    7.6907   -2.5089   -5.5059 N   0  0  0  0  0  0  0  0  0  0  0  0
    3.5587   -2.0170   -4.1000 N   0  0  0  0  0  0  0  0  0  0  0  0
    3.5556   -2.0579   -3.0710 H   0  0  0  0  0  0  0  0  0  0  0  0
    4.4316   -2.2378   -4.5643 H   0  0  0  0  0  0  0  0  0  0  0  0
    1.3763   -1.3112   -6.8949 C   0  0  0  0  0  0  0  0  0  0  0  0
    2.5135   -1.6330   -6.2134 C   0  0  0  0  0  0  0  0  0  0  0  0
    2.4992   -1.6660   -4.7866 C   0  0  0  0  0  0  0  0  0  0  0  0
    1.2612   -1.2595   -4.0605 C   0  0  0  0  0  0  0  0  0  0  0  0
    0.0703   -0.9808   -4.8998 C   0  0  0  0  0  0  0  0  0  0  0  0
    0.1322   -0.9914   -6.2458 C   0  0  0  0  0  0  0  0  0  0  0  0
    1.4070   -1.3026   -7.9797 H   0  0  0  0  0  0  0  0  0  0  0  0
    3.4266   -1.8842   -6.7406 H   0  0  0  0  0  0  0  0  0  0  0  0
    1.5129   -0.3375   -3.4955 H   0  0  0  0  0  0  0  0  0  0  0  0
    1.0195   -1.9614   -3.2519 H   0  0  0  0  0  0  0  0  0  0  0  0
   -0.8461   -0.7373   -4.3745 H   0  0  0  0  0  0  0  0  0  0  0  0
   -0.7353   -0.7627   -6.8518 H   0  0  0  0  0  0  0  0  0  0  0  0
    2.3984   -0.5529   -0.2898 Al  0  0  0  0  0  0  0  0  0  0  0  0
    0.3226   -1.1193   -0.5286 Cl  0  0  0  0  0  0  0  0  0  0  0  0
    2.8393    0.9501   -1.8175 Cl  0  0  0  0  0  0  0  0  0  0  0  0
    2.9052    0.0919    1.6687 Cl  0  0  0  0  0  0  0  0  0  0  0  0
    3.5957   -2.3098   -0.8875 Cl  0  0  0  0  0  0  0  0  0  0  0  0
  2  1  3  0  0  0  0
  3  4  1  0  0  0  0
  5  3  1  0  0  0  0
  6 11  1  0  0  0  0
  6  7  1  0  0  0  0
  7  8  2  0  0  0  0
  8  3  1  0  0  0  0
  8  9  1  0  0  0  0
  9 14  1  0  0  0  0
  9 15  1  0  0  0  0
 10 16  1  0  0  0  0
 10  9  1  0  0  0  0
 11 10  2  0  0  0  0
 12  6  1  0  0  0  0
 13  7  1  0  0  0  0
 17 11  1  0  0  0  0
 18 21  1  0  0  0  0
 19 18  1  0  0  0  0
 20 18  1  0  0  0  0
 22 18  1  0  0  0  0
M  RAD  1   6   2
M  END
