Coordinates from ORCA-job C6H6+AlCl4-+NH2N2+-scan
 OpenBabel10161817473D

 22 20  0  0  0  0  0  0  0  0999 V2000
    3.3332    0.5750   -3.2596 N   0  0  0  0  0  0  0  0  0  0  0  0
    3.2632    0.8523   -4.3340 N   0  0  0  0  0  0  0  0  0  0  0  0
    3.3548    0.3230   -2.0085 N   0  0  0  0  0  0  0  0  0  0  0  0
    2.9441   -0.6219   -1.7612 H   0  0  0  0  0  0  0  0  0  0  0  0
    4.3219    0.3974   -1.5730 H   0  0  0  0  0  0  0  0  0  0  0  0
    1.9743   -2.0542   -5.7661 C   0  0  0  0  0  0  0  0  0  0  0  0
    1.5362   -1.4590   -6.9502 C   0  0  0  0  0  0  0  0  0  0  0  0
    0.2272   -0.9874   -7.0532 C   0  0  0  0  0  0  0  0  0  0  0  0
   -0.6426   -1.1048   -5.9690 C   0  0  0  0  0  0  0  0  0  0  0  0
   -0.2065   -1.6994   -4.7848 C   0  0  0  0  0  0  0  0  0  0  0  0
    1.1010   -2.1766   -4.6833 C   0  0  0  0  0  0  0  0  0  0  0  0
    2.9862   -2.4368   -5.6883 H   0  0  0  0  0  0  0  0  0  0  0  0
    2.2118   -1.3728   -7.7943 H   0  0  0  0  0  0  0  0  0  0  0  0
   -0.1148   -0.5324   -7.9763 H   0  0  0  0  0  0  0  0  0  0  0  0
   -1.6615   -0.7419   -6.0500 H   0  0  0  0  0  0  0  0  0  0  0  0
   -0.8884   -1.8042   -3.9476 H   0  0  0  0  0  0  0  0  0  0  0  0
    1.4344   -2.6651   -3.7732 H   0  0  0  0  0  0  0  0  0  0  0  0
    5.3525   -2.4104   -1.3656 Al  0  0  0  0  0  0  0  0  0  0  0  0
    6.4285   -3.9728   -0.4514 Cl  0  0  0  0  0  0  0  0  0  0  0  0
    5.9124   -0.4099   -0.5822 Cl  0  0  0  0  0  0  0  0  0  0  0  0
    5.5031   -2.2233   -3.5071 Cl  0  0  0  0  0  0  0  0  0  0  0  0
    3.1736   -2.5155   -0.9548 Cl  0  0  0  0  0  0  0  0  0  0  0  0
  1  3  1  0  0  0  0
  2  1  1  0  0  0  0
  3  4  1  0  0  0  0
  3  5  1  0  0  0  0
  6 12  1  0  0  0  0
  6 11  2  0  0  0  0
  7  6  1  0  0  0  0
  8  7  2  0  0  0  0
  8  9  1  0  0  0  0
  9 10  2  0  0  0  0
 10 11  1  0  0  0  0
 10 16  1  0  0  0  0
 11 17  1  0  0  0  0
 13  7  1  0  0  0  0
 14  8  1  0  0  0  0
 15  9  1  0  0  0  0
 18 22  1  0  0  0  0
 18 20  1  0  0  0  0
 18 19  1  0  0  0  0
 21 18  1  0  0  0  0
M  RAD  2   1   2   2   3
M  END
