Coordinates from ORCA-job C6H6+AlCl4-+NH2N2+-scan
 OpenBabel10161817473D

 22 20  0  0  0  0  0  0  0  0999 V2000
    3.9820   -0.9886   -4.5595 N   0  0  0  0  0  0  0  0  0  0  0  0
    4.2515   -1.7892   -5.2821 N   0  0  0  0  0  0  0  0  0  0  0  0
    3.7443    0.0027   -3.7914 N   0  0  0  0  0  0  0  0  0  0  0  0
    2.8169   -0.0457   -3.3253 H   0  0  0  0  0  0  0  0  0  0  0  0
    4.5270    0.1996   -3.0882 H   0  0  0  0  0  0  0  0  0  0  0  0
    1.3642   -1.7493   -6.9874 C   0  0  0  0  0  0  0  0  0  0  0  0
    1.0059   -0.6291   -6.2382 C   0  0  0  0  0  0  0  0  0  0  0  0
    0.7293   -0.7623   -4.8749 C   0  0  0  0  0  0  0  0  0  0  0  0
    0.8082   -2.0157   -4.2622 C   0  0  0  0  0  0  0  0  0  0  0  0
    1.1677   -3.1352   -5.0141 C   0  0  0  0  0  0  0  0  0  0  0  0
    1.4452   -3.0018   -6.3749 C   0  0  0  0  0  0  0  0  0  0  0  0
    1.5714   -1.6499   -8.0472 H   0  0  0  0  0  0  0  0  0  0  0  0
    0.9278    0.3419   -6.7151 H   0  0  0  0  0  0  0  0  0  0  0  0
    0.4214    0.1026   -4.2960 H   0  0  0  0  0  0  0  0  0  0  0  0
    0.5863   -2.1176   -3.2061 H   0  0  0  0  0  0  0  0  0  0  0  0
    1.2276   -4.1077   -4.5390 H   0  0  0  0  0  0  0  0  0  0  0  0
    1.7185   -3.8732   -6.9596 H   0  0  0  0  0  0  0  0  0  0  0  0
    3.8402   -0.8133   -0.4184 Al  0  0  0  0  0  0  0  0  0  0  0  0
    3.9616   -0.8145    1.6873 Cl  0  0  0  0  0  0  0  0  0  0  0  0
    5.4389    0.4368   -1.3417 Cl  0  0  0  0  0  0  0  0  0  0  0  0
    4.0171   -2.7235   -1.4040 Cl  0  0  0  0  0  0  0  0  0  0  0  0
    1.9915    0.0924   -1.1957 Cl  0  0  0  0  0  0  0  0  0  0  0  0
  1  3  1  0  0  0  0
  2  1  1  0  0  0  0
  3  4  1  0  0  0  0
  3  5  1  0  0  0  0
  6 11  2  0  0  0  0
  6  7  1  0  0  0  0
  7  8  2  0  0  0  0
  8 14  1  0  0  0  0
  8  9  1  0  0  0  0
  9 15  1  0  0  0  0
 10 16  1  0  0  0  0
 10  9  2  0  0  0  0
 11 10  1  0  0  0  0
 12  6  1  0  0  0  0
 13  7  1  0  0  0  0
 17 11  1  0  0  0  0
 18 19  1  0  0  0  0
 20 18  1  0  0  0  0
 21 18  1  0  0  0  0
 22 18  1  0  0  0  0
M  RAD  2   1   2   2   3
M  END
