Coordinates from ORCA-job C6H6+AlCl4-+NH2N2+-scan
 OpenBabel10161817473D

 22 20  0  0  0  0  0  0  0  0999 V2000
    3.9880   -0.9342   -4.5659 N   0  0  0  0  0  0  0  0  0  0  0  0
    4.2436   -1.7145   -5.3154 N   0  0  0  0  0  0  0  0  0  0  0  0
    3.7642    0.0363   -3.7673 N   0  0  0  0  0  0  0  0  0  0  0  0
    2.8399   -0.0173   -3.2930 H   0  0  0  0  0  0  0  0  0  0  0  0
    4.5524    0.2064   -3.0640 H   0  0  0  0  0  0  0  0  0  0  0  0
    1.3614   -1.7859   -6.9925 C   0  0  0  0  0  0  0  0  0  0  0  0
    0.9655   -0.6486   -6.2894 C   0  0  0  0  0  0  0  0  0  0  0  0
    0.6800   -0.7378   -4.9246 C   0  0  0  0  0  0  0  0  0  0  0  0
    0.7890   -1.9645   -4.2641 C   0  0  0  0  0  0  0  0  0  0  0  0
    1.1859   -3.1013   -4.9697 C   0  0  0  0  0  0  0  0  0  0  0  0
    1.4717   -3.0117   -6.3323 C   0  0  0  0  0  0  0  0  0  0  0  0
    1.5754   -1.7208   -8.0537 H   0  0  0  0  0  0  0  0  0  0  0  0
    0.8653    0.3010   -6.8037 H   0  0  0  0  0  0  0  0  0  0  0  0
    0.3460    0.1400   -4.3808 H   0  0  0  0  0  0  0  0  0  0  0  0
    0.5606   -2.0331   -3.2067 H   0  0  0  0  0  0  0  0  0  0  0  0
    1.2693   -4.0527   -4.4570 H   0  0  0  0  0  0  0  0  0  0  0  0
    1.7744   -3.8965   -6.8814 H   0  0  0  0  0  0  0  0  0  0  0  0
    3.8532   -0.8730   -0.4198 Al  0  0  0  0  0  0  0  0  0  0  0  0
    3.9639   -0.9244    1.6859 Cl  0  0  0  0  0  0  0  0  0  0  0  0
    5.4618    0.3898   -1.3064 Cl  0  0  0  0  0  0  0  0  0  0  0  0
    4.0216   -2.7597   -1.4501 Cl  0  0  0  0  0  0  0  0  0  0  0  0
    2.0113    0.0620   -1.1819 Cl  0  0  0  0  0  0  0  0  0  0  0  0
  1  3  1  0  0  0  0
  2  1  1  0  0  0  0
  3  4  1  0  0  0  0
  3  5  1  0  0  0  0
  6 11  2  0  0  0  0
  6  7  1  0  0  0  0
  7  8  2  0  0  0  0
  8 14  1  0  0  0  0
  8  9  1  0  0  0  0
  9 15  1  0  0  0  0
 10 16  1  0  0  0  0
 10  9  2  0  0  0  0
 11 10  1  0  0  0  0
 12  6  1  0  0  0  0
 13  7  1  0  0  0  0
 17 11  1  0  0  0  0
 18 19  1  0  0  0  0
 20 18  1  0  0  0  0
 21 18  1  0  0  0  0
 22 18  1  0  0  0  0
M  RAD  2   1   2   2   3
M  END
