Coordinates from ORCA-job C6H6+AlCl4-+NH2N2+-scan
 OpenBabel10161817473D

 22 19  0  0  0  0  0  0  0  0999 V2000
    6.4767   -1.8361   -4.4402 N   0  0  0  0  0  0  0  0  0  0  0  0
    7.3736   -1.3870   -4.0004 N   0  0  0  0  0  0  0  0  0  0  0  0
    3.2861   -3.3165   -4.5237 N   0  0  0  0  0  0  0  0  0  0  0  0
    3.2458   -3.4019   -3.5134 H   0  0  0  0  0  0  0  0  0  0  0  0
    4.2127   -2.9961   -4.7840 H   0  0  0  0  0  0  0  0  0  0  0  0
    1.4134   -0.7734   -6.6912 C   0  0  0  0  0  0  0  0  0  0  0  0
    2.4073   -1.6248   -6.2181 C   0  0  0  0  0  0  0  0  0  0  0  0
    2.2318   -2.2836   -5.0001 C   0  0  0  0  0  0  0  0  0  0  0  0
    1.0634   -2.0756   -4.2528 C   0  0  0  0  0  0  0  0  0  0  0  0
    0.0589   -1.2340   -4.7562 C   0  0  0  0  0  0  0  0  0  0  0  0
    0.2343   -0.5734   -5.9682 C   0  0  0  0  0  0  0  0  0  0  0  0
    1.5578   -0.2638   -7.6375 H   0  0  0  0  0  0  0  0  0  0  0  0
    3.3093   -1.7908   -6.7960 H   0  0  0  0  0  0  0  0  0  0  0  0
    1.7962   -0.4036   -3.4665 H   0  0  0  0  0  0  0  0  0  0  0  0
    0.9031   -2.6238   -3.3303 H   0  0  0  0  0  0  0  0  0  0  0  0
   -0.8509   -1.0958   -4.1826 H   0  0  0  0  0  0  0  0  0  0  0  0
   -0.5376    0.0836   -6.3501 H   0  0  0  0  0  0  0  0  0  0  0  0
    2.7082   -0.3862   -0.6207 Al  0  0  0  0  0  0  0  0  0  0  0  0
    0.7447   -1.0323   -0.1753 Cl  0  0  0  0  0  0  0  0  0  0  0  0
    2.3678    0.6382   -2.8307 Cl  0  0  0  0  0  0  0  0  0  0  0  0
    3.4765    1.2813    0.4076 Cl  0  0  0  0  0  0  0  0  0  0  0  0
    4.0654   -1.9451   -1.1033 Cl  0  0  0  0  0  0  0  0  0  0  0  0
  1  2  3  0  0  0  0
  3  4  1  0  0  0  0
  5  3  1  0  0  0  0
  6  7  2  0  0  0  0
  6 11  1  0  0  0  0
  7  8  1  0  0  0  0
  8  3  1  0  0  0  0
  8  9  2  0  0  0  0
  9 15  1  0  0  0  0
 10  9  1  0  0  0  0
 10 16  1  0  0  0  0
 11 10  2  0  0  0  0
 12  6  1  0  0  0  0
 13  7  1  0  0  0  0
 14 20  1  0  0  0  0
 17 11  1  0  0  0  0
 18 19  1  0  0  0  0
 18 21  1  0  0  0  0
 22 18  1  0  0  0  0
M  END
