Coordinates from ORCA-job C6H6+AlCl4-+NH2N2+-scan
 OpenBabel10161817473D

 22 20  0  0  1  0  0  0  0  0999 V2000
    6.5913   -1.5962   -4.5425 N   0  0  0  0  0  0  0  0  0  0  0  0
    7.5586   -1.1935   -4.2237 N   0  0  0  0  0  0  0  0  0  0  0  0
    3.4125   -3.1202   -4.4320 N   0  0  0  0  0  0  0  0  0  0  0  0
    3.3093   -3.2769   -3.4245 H   0  0  0  0  0  0  0  0  0  0  0  0
    4.3040   -2.6254   -4.5120 H   0  0  0  0  0  0  0  0  0  0  0  0
    1.2105   -0.7080   -6.5891 C   0  0  0  0  0  0  0  0  0  0  0  0
    2.3355   -1.2587   -6.0231 C   0  0  0  0  0  0  0  0  0  0  0  0
    2.2609   -1.8597   -4.7186 C   0  0  1  0  0  0  0  0  0  0  0  0
    0.9710   -2.0456   -4.1156 C   0  0  0  0  0  0  0  0  0  0  0  0
   -0.1468   -1.4868   -4.7012 C   0  0  0  0  0  0  0  0  0  0  0  0
   -0.0251   -0.8240   -5.9272 C   0  0  0  0  0  0  0  0  0  0  0  0
    1.2665   -0.2016   -7.5449 H   0  0  0  0  0  0  0  0  0  0  0  0
    3.3013   -1.1897   -6.5102 H   0  0  0  0  0  0  0  0  0  0  0  0
    2.7561   -1.0292   -4.0165 H   0  0  0  0  0  0  0  0  0  0  0  0
    0.9072   -2.5562   -3.1619 H   0  0  0  0  0  0  0  0  0  0  0  0
   -1.1108   -1.5625   -4.2146 H   0  0  0  0  0  0  0  0  0  0  0  0
   -0.9087   -0.3896   -6.3825 H   0  0  0  0  0  0  0  0  0  0  0  0
    2.6910   -0.4091   -0.9286 Al  0  0  0  0  0  0  0  0  0  0  0  0
    0.6143    0.0770   -1.2193 Cl  0  0  0  0  0  0  0  0  0  0  0  0
    3.7079    0.2088   -2.8348 Cl  0  0  0  0  0  0  0  0  0  0  0  0
    3.6364    0.5754    0.6917 Cl  0  0  0  0  0  0  0  0  0  0  0  0
    2.9017   -2.5689   -0.9027 Cl  0  0  0  0  0  0  0  0  0  0  0  0
  1  2  3  0  0  0  0
  3  4  1  0  0  0  0
  5  3  1  0  0  0  0
  6  7  2  0  0  0  0
  6 11  1  0  0  0  0
  7  8  1  0  0  0  0
  8  3  1  0  0  0  0
  8  9  1  0  0  0  0
  8 14  1  1  0  0  0
  9 15  1  0  0  0  0
 10 16  1  0  0  0  0
 10  9  2  0  0  0  0
 11 10  1  0  0  0  0
 12  6  1  0  0  0  0
 13  7  1  0  0  0  0
 17 11  1  0  0  0  0
 18 22  1  0  0  0  0
 18 21  1  0  0  0  0
 19 18  1  0  0  0  0
 20 18  1  0  0  0  0
M  RAD  1  11   2
M  END
