Coordinates from ORCA-job C6H6+AlCl4-+NH2N2+-scan
 OpenBabel10161817473D

 22 20  0  0  0  0  0  0  0  0999 V2000
    4.0189   -0.8830   -4.5554 N   0  0  0  0  0  0  0  0  0  0  0  0
    4.2450   -1.6559   -5.3220 N   0  0  0  0  0  0  0  0  0  0  0  0
    3.8264    0.0758   -3.7344 N   0  0  0  0  0  0  0  0  0  0  0  0
    2.9053    0.0342   -3.2472 H   0  0  0  0  0  0  0  0  0  0  0  0
    4.6214    0.2068   -3.0316 H   0  0  0  0  0  0  0  0  0  0  0  0
    1.3488   -1.8201   -7.0022 C   0  0  0  0  0  0  0  0  0  0  0  0
    0.8892   -0.6761   -6.3504 C   0  0  0  0  0  0  0  0  0  0  0  0
    0.5872   -0.7246   -4.9876 C   0  0  0  0  0  0  0  0  0  0  0  0
    0.7463   -1.9171   -4.2766 C   0  0  0  0  0  0  0  0  0  0  0  0
    1.2064   -3.0609   -4.9305 C   0  0  0  0  0  0  0  0  0  0  0  0
    1.5070   -3.0122   -6.2920 C   0  0  0  0  0  0  0  0  0  0  0  0
    1.5750   -1.7869   -8.0623 H   0  0  0  0  0  0  0  0  0  0  0  0
    0.7529    0.2468   -6.9037 H   0  0  0  0  0  0  0  0  0  0  0  0
    0.2078    0.1580   -4.4832 H   0  0  0  0  0  0  0  0  0  0  0  0
    0.5072   -1.9547   -3.2200 H   0  0  0  0  0  0  0  0  0  0  0  0
    1.3285   -3.9856   -4.3781 H   0  0  0  0  0  0  0  0  0  0  0  0
    1.8588   -3.9028   -6.8011 H   0  0  0  0  0  0  0  0  0  0  0  0
    3.8731   -0.9315   -0.4177 Al  0  0  0  0  0  0  0  0  0  0  0  0
    3.9514   -1.0331    1.6873 Cl  0  0  0  0  0  0  0  0  0  0  0  0
    5.5148    0.3216   -1.2538 Cl  0  0  0  0  0  0  0  0  0  0  0  0
    4.0170   -2.7956   -1.4907 Cl  0  0  0  0  0  0  0  0  0  0  0  0
    2.0563    0.0562   -1.1805 Cl  0  0  0  0  0  0  0  0  0  0  0  0
  1  3  1  0  0  0  0
  2  1  1  0  0  0  0
  3  4  1  0  0  0  0
  3  5  1  0  0  0  0
  6  7  2  0  0  0  0
  6 11  1  0  0  0  0
  7  8  1  0  0  0  0
  8 14  1  0  0  0  0
  8  9  2  0  0  0  0
  9 15  1  0  0  0  0
 10 16  1  0  0  0  0
 10  9  1  0  0  0  0
 11 10  2  0  0  0  0
 12  6  1  0  0  0  0
 13  7  1  0  0  0  0
 17 11  1  0  0  0  0
 18 19  1  0  0  0  0
 20 18  1  0  0  0  0
 21 18  1  0  0  0  0
 22 18  1  0  0  0  0
M  RAD  2   1   2   2   3
M  END
