Coordinates from ORCA-job C6H6+AlCl4-+NH2N2+-scan
 OpenBabel10161817473D

 22 20  0  0  0  0  0  0  0  0999 V2000
    2.8473    0.3084   -3.7061 N   0  0  0  0  0  0  0  0  0  0  0  0
    2.9016    0.7667   -4.7176 N   0  0  0  0  0  0  0  0  0  0  0  0
    2.7521   -0.1156   -2.5053 N   0  0  0  0  0  0  0  0  0  0  0  0
    2.5351   -1.1315   -2.4355 H   0  0  0  0  0  0  0  0  0  0  0  0
    3.5940    0.1374   -1.8950 H   0  0  0  0  0  0  0  0  0  0  0  0
    1.9062   -2.4825   -5.5556 C   0  0  0  0  0  0  0  0  0  0  0  0
    1.7791   -1.6002   -6.6288 C   0  0  0  0  0  0  0  0  0  0  0  0
    0.7417   -0.6655   -6.6464 C   0  0  0  0  0  0  0  0  0  0  0  0
   -0.1697   -0.6112   -5.5909 C   0  0  0  0  0  0  0  0  0  0  0  0
   -0.0446   -1.4939   -4.5176 C   0  0  0  0  0  0  0  0  0  0  0  0
    0.9927   -2.4307   -4.5006 C   0  0  0  0  0  0  0  0  0  0  0  0
    2.7117   -3.2076   -5.5383 H   0  0  0  0  0  0  0  0  0  0  0  0
    2.4843   -1.6435   -7.4512 H   0  0  0  0  0  0  0  0  0  0  0  0
    0.6402    0.0144   -7.4852 H   0  0  0  0  0  0  0  0  0  0  0  0
   -0.9806    0.1087   -5.6104 H   0  0  0  0  0  0  0  0  0  0  0  0
   -0.7621   -1.4654   -3.7045 H   0  0  0  0  0  0  0  0  0  0  0  0
    1.0814   -3.1317   -3.6776 H   0  0  0  0  0  0  0  0  0  0  0  0
    5.4005   -2.1639   -1.6017 Al  0  0  0  0  0  0  0  0  0  0  0  0
    6.8548   -3.3039   -0.5853 Cl  0  0  0  0  0  0  0  0  0  0  0  0
    5.1869   -0.1215   -0.7347 Cl  0  0  0  0  0  0  0  0  0  0  0  0
    5.7274   -1.8225   -3.7061 Cl  0  0  0  0  0  0  0  0  0  0  0  0
    3.3644   -2.9850   -1.4392 Cl  0  0  0  0  0  0  0  0  0  0  0  0
  1  3  1  0  0  0  0
  2  1  1  0  0  0  0
  3  4  1  0  0  0  0
  3  5  1  0  0  0  0
  6 12  1  0  0  0  0
  6 11  2  0  0  0  0
  7  6  1  0  0  0  0
  8  7  2  0  0  0  0
  8  9  1  0  0  0  0
  9 10  2  0  0  0  0
 10 11  1  0  0  0  0
 10 16  1  0  0  0  0
 11 17  1  0  0  0  0
 13  7  1  0  0  0  0
 14  8  1  0  0  0  0
 15  9  1  0  0  0  0
 18 22  1  0  0  0  0
 18 20  1  0  0  0  0
 18 19  1  0  0  0  0
 21 18  1  0  0  0  0
M  RAD  2   1   2   2   3
M  END
