Coordinates from ORCA-job C6H6+AlCl4-+NH2N2+-scan
 OpenBabel10161817473D

 22 20  0  0  0  0  0  0  0  0999 V2000
    3.3293    0.5620   -3.2836 N   0  0  0  0  0  0  0  0  0  0  0  0
    3.2752    0.8401   -4.3586 N   0  0  0  0  0  0  0  0  0  0  0  0
    3.3334    0.3095   -2.0322 N   0  0  0  0  0  0  0  0  0  0  0  0
    2.9303   -0.6401   -1.7934 H   0  0  0  0  0  0  0  0  0  0  0  0
    4.2937    0.3937   -1.5826 H   0  0  0  0  0  0  0  0  0  0  0  0
    1.9683   -2.0799   -5.7654 C   0  0  0  0  0  0  0  0  0  0  0  0
    1.5404   -1.4594   -6.9402 C   0  0  0  0  0  0  0  0  0  0  0  0
    0.2400   -0.9633   -7.0353 C   0  0  0  0  0  0  0  0  0  0  0  0
   -0.6312   -1.0808   -5.9524 C   0  0  0  0  0  0  0  0  0  0  0  0
   -0.2052   -1.7002   -4.7773 C   0  0  0  0  0  0  0  0  0  0  0  0
    1.0936   -2.2026   -4.6839 C   0  0  0  0  0  0  0  0  0  0  0  0
    2.9733   -2.4817   -5.6944 H   0  0  0  0  0  0  0  0  0  0  0  0
    2.2170   -1.3731   -7.7835 H   0  0  0  0  0  0  0  0  0  0  0  0
   -0.0942   -0.4889   -7.9516 H   0  0  0  0  0  0  0  0  0  0  0  0
   -1.6435   -0.6986   -6.0272 H   0  0  0  0  0  0  0  0  0  0  0  0
   -0.8884   -1.8050   -3.9412 H   0  0  0  0  0  0  0  0  0  0  0  0
    1.4184   -2.7103   -3.7813 H   0  0  0  0  0  0  0  0  0  0  0  0
    5.3579   -2.3959   -1.3624 Al  0  0  0  0  0  0  0  0  0  0  0  0
    6.4499   -3.9418   -0.4389 Cl  0  0  0  0  0  0  0  0  0  0  0  0
    5.8841   -0.3870   -0.5762 Cl  0  0  0  0  0  0  0  0  0  0  0  0
    5.5239   -2.2073   -3.5029 Cl  0  0  0  0  0  0  0  0  0  0  0  0
    3.1784   -2.5299   -0.9694 Cl  0  0  0  0  0  0  0  0  0  0  0  0
  1  3  1  0  0  0  0
  2  1  1  0  0  0  0
  3  4  1  0  0  0  0
  3  5  1  0  0  0  0
  6 12  1  0  0  0  0
  6 11  2  0  0  0  0
  7  6  1  0  0  0  0
  8  7  2  0  0  0  0
  8  9  1  0  0  0  0
  9 10  2  0  0  0  0
 10 11  1  0  0  0  0
 10 16  1  0  0  0  0
 11 17  1  0  0  0  0
 13  7  1  0  0  0  0
 14  8  1  0  0  0  0
 15  9  1  0  0  0  0
 18 22  1  0  0  0  0
 18 20  1  0  0  0  0
 18 19  1  0  0  0  0
 21 18  1  0  0  0  0
M  RAD  2   1   2   2   3
M  END
