Coordinates from ORCA-job C6H6+AlCl4-+NH2N2+-scan
 OpenBabel10161817473D

 22 20  0  0  0  0  0  0  0  0999 V2000
    3.9309    0.6053    0.2544 N   0  0  0  0  0  0  0  0  0  0  0  0
    3.4461    1.6054    0.3004 N   0  0  0  0  0  0  0  0  0  0  0  0
    4.4790   -0.5430    0.2943 N   0  0  0  0  0  0  0  0  0  0  0  0
    3.9111   -1.3102   -0.1822 H   0  0  0  0  0  0  0  0  0  0  0  0
    5.4654   -0.5632   -0.1035 H   0  0  0  0  0  0  0  0  0  0  0  0
    0.7769   -2.9574   -6.9523 C   0  0  0  0  0  0  0  0  0  0  0  0
    1.7205   -2.1272   -6.3482 C   0  0  0  0  0  0  0  0  0  0  0  0
    1.3308   -0.8948   -5.8241 C   0  0  0  0  0  0  0  0  0  0  0  0
   -0.0024   -0.4939   -5.9063 C   0  0  0  0  0  0  0  0  0  0  0  0
   -0.9458   -1.3236   -6.5110 C   0  0  0  0  0  0  0  0  0  0  0  0
   -0.5560   -2.5561   -7.0338 C   0  0  0  0  0  0  0  0  0  0  0  0
    1.0807   -3.9161   -7.3590 H   0  0  0  0  0  0  0  0  0  0  0  0
    2.7577   -2.4383   -6.2857 H   0  0  0  0  0  0  0  0  0  0  0  0
    2.0654   -0.2513   -5.3528 H   0  0  0  0  0  0  0  0  0  0  0  0
   -0.3054    0.4657   -5.5004 H   0  0  0  0  0  0  0  0  0  0  0  0
   -1.9826   -1.0106   -6.5754 H   0  0  0  0  0  0  0  0  0  0  0  0
   -1.2895   -3.2022   -7.5045 H   0  0  0  0  0  0  0  0  0  0  0  0
    5.1520   -1.6537   -2.8562 Al  0  0  0  0  0  0  0  0  0  0  0  0
    5.7284   -2.7518   -4.5583 Cl  0  0  0  0  0  0  0  0  0  0  0  0
    6.8294   -1.2615   -1.4585 Cl  0  0  0  0  0  0  0  0  0  0  0  0
    4.2607    0.2826   -3.1794 Cl  0  0  0  0  0  0  0  0  0  0  0  0
    3.6913   -2.7447   -1.5910 Cl  0  0  0  0  0  0  0  0  0  0  0  0
  1  3  1  0  0  0  0
  1  2  1  0  0  0  0
  4  3  1  0  0  0  0
  5  3  1  0  0  0  0
  6  7  1  0  0  0  0
  7 13  1  0  0  0  0
  7  8  2  0  0  0  0
  8 14  1  0  0  0  0
  9  8  1  0  0  0  0
  9 15  1  0  0  0  0
 10  9  2  0  0  0  0
 11  6  2  0  0  0  0
 11 10  1  0  0  0  0
 12  6  1  0  0  0  0
 16 10  1  0  0  0  0
 17 11  1  0  0  0  0
 18 22  1  0  0  0  0
 18 20  1  0  0  0  0
 19 18  1  0  0  0  0
 21 18  1  0  0  0  0
M  RAD  2   1   2   2   3
M  END
