Coordinates from ORCA-job C6H6+AlCl4-+NH2N2+-scan
 OpenBabel10161817473D

 22 20  0  0  0  0  0  0  0  0999 V2000
    2.9267    0.3535   -3.8407 N   0  0  0  0  0  0  0  0  0  0  0  0
    3.0692    0.8490   -4.8252 N   0  0  0  0  0  0  0  0  0  0  0  0
    2.7333   -0.1180   -2.6722 N   0  0  0  0  0  0  0  0  0  0  0  0
    2.4527   -1.1137   -2.6749 H   0  0  0  0  0  0  0  0  0  0  0  0
    3.5376    0.0868   -1.9857 H   0  0  0  0  0  0  0  0  0  0  0  0
    1.8865   -2.5344   -5.5531 C   0  0  0  0  0  0  0  0  0  0  0  0
    1.7864   -1.5904   -6.5758 C   0  0  0  0  0  0  0  0  0  0  0  0
    0.7834   -0.6204   -6.5344 C   0  0  0  0  0  0  0  0  0  0  0  0
   -0.1232   -0.5939   -5.4740 C   0  0  0  0  0  0  0  0  0  0  0  0
   -0.0274   -1.5406   -4.4534 C   0  0  0  0  0  0  0  0  0  0  0  0
    0.9769   -2.5120   -4.4933 C   0  0  0  0  0  0  0  0  0  0  0  0
    2.6662   -3.2868   -5.5801 H   0  0  0  0  0  0  0  0  0  0  0  0
    2.4858   -1.6133   -7.4040 H   0  0  0  0  0  0  0  0  0  0  0  0
    0.7012    0.1068   -7.3349 H   0  0  0  0  0  0  0  0  0  0  0  0
   -0.9088    0.1534   -5.4498 H   0  0  0  0  0  0  0  0  0  0  0  0
   -0.7411   -1.5331   -3.6366 H   0  0  0  0  0  0  0  0  0  0  0  0
    1.0452   -3.2584   -3.7097 H   0  0  0  0  0  0  0  0  0  0  0  0
    5.3481   -2.1466   -1.5920 Al  0  0  0  0  0  0  0  0  0  0  0  0
    6.8144   -3.2109   -0.5115 Cl  0  0  0  0  0  0  0  0  0  0  0  0
    5.0393   -0.0952   -0.7575 Cl  0  0  0  0  0  0  0  0  0  0  0  0
    5.7508   -1.8040   -3.6852 Cl  0  0  0  0  0  0  0  0  0  0  0  0
    3.3412   -3.0184   -1.4894 Cl  0  0  0  0  0  0  0  0  0  0  0  0
  1  3  1  0  0  0  0
  2  1  1  0  0  0  0
  3  5  1  0  0  0  0
  4  3  1  0  0  0  0
  6 11  2  0  0  0  0
  7  8  2  0  0  0  0
  7  6  1  0  0  0  0
  8  9  1  0  0  0  0
  9 15  1  0  0  0  0
  9 10  2  0  0  0  0
 10 16  1  0  0  0  0
 11 10  1  0  0  0  0
 11 17  1  0  0  0  0
 12  6  1  0  0  0  0
 13  7  1  0  0  0  0
 14  8  1  0  0  0  0
 18 22  1  0  0  0  0
 18 20  1  0  0  0  0
 18 19  1  0  0  0  0
 21 18  1  0  0  0  0
M  RAD  2   1   2   2   3
M  END
