Coordinates from ORCA-job C6H6+AlCl4-+NH2N2+-scan
 OpenBabel10161817473D

 22 20  0  0  1  0  0  0  0  0999 V2000
    6.0486   -2.7798   -3.3807 N   0  0  0  0  0  0  0  0  0  0  0  0
    7.0351   -3.0611   -2.9973 N   0  0  0  0  0  0  0  0  0  0  0  0
    3.2222   -2.0478   -4.5241 N   0  0  0  0  0  0  0  0  0  0  0  0
    3.1646   -2.4130   -3.5609 H   0  0  0  0  0  0  0  0  0  0  0  0
    3.8115   -1.2138   -4.3789 H   0  0  0  0  0  0  0  0  0  0  0  0
    0.9681   -0.7832   -6.7703 C   0  0  0  0  0  0  0  0  0  0  0  0
    1.6686   -0.3621   -5.6667 C   0  0  0  0  0  0  0  0  0  0  0  0
    1.5729   -1.0870   -4.4216 C   0  0  1  0  0  0  0  0  0  0  0  0
    0.6669   -2.2088   -4.3449 C   0  0  0  0  0  0  0  0  0  0  0  0
   -0.0263   -2.6173   -5.4581 C   0  0  0  0  0  0  0  0  0  0  0  0
    0.1305   -1.9066   -6.6603 C   0  0  0  0  0  0  0  0  0  0  0  0
    1.0533   -0.2631   -7.7161 H   0  0  0  0  0  0  0  0  0  0  0  0
    2.3271    0.4987   -5.7029 H   0  0  0  0  0  0  0  0  0  0  0  0
    1.7580   -0.5300   -3.5046 H   0  0  0  0  0  0  0  0  0  0  0  0
    0.5785   -2.7237   -3.3947 H   0  0  0  0  0  0  0  0  0  0  0  0
   -0.6880   -3.4734   -5.4187 H   0  0  0  0  0  0  0  0  0  0  0  0
   -0.4132   -2.2401   -7.5386 H   0  0  0  0  0  0  0  0  0  0  0  0
    3.7657    0.0656   -0.8859 Al  0  0  0  0  0  0  0  0  0  0  0  0
    2.6261    1.4334    0.2909 Cl  0  0  0  0  0  0  0  0  0  0  0  0
    3.9975    0.8918   -2.9245 Cl  0  0  0  0  0  0  0  0  0  0  0  0
    5.6870   -0.4327   -0.1041 Cl  0  0  0  0  0  0  0  0  0  0  0  0
    2.5898   -1.7868   -1.1706 Cl  0  0  0  0  0  0  0  0  0  0  0  0
  1  2  3  0  0  0  0
  3  8  1  0  0  0  0
  3  5  1  0  0  0  0
  3  4  1  0  0  0  0
  6 11  1  0  0  0  0
  6  7  2  0  0  0  0
  7  8  1  0  0  0  0
  8  9  1  0  0  0  0
  8 14  1  1  0  0  0
  9 15  1  0  0  0  0
 10 16  1  0  0  0  0
 10  9  2  0  0  0  0
 11 10  1  0  0  0  0
 12  6  1  0  0  0  0
 13  7  1  0  0  0  0
 17 11  1  0  0  0  0
 18 21  1  0  0  0  0
 18 19  1  0  0  0  0
 20 18  1  0  0  0  0
 22 18  1  0  0  0  0
M  RAD  1  11   2
M  END
