Coordinates from ORCA-job C6H6+AlCl4-+NH2N2+-scan
 OpenBabel10161817473D

 22 20  0  0  0  0  0  0  0  0999 V2000
    2.9662   -0.5707   -0.4475 N   0  0  0  0  0  0  0  0  0  0  0  0
    1.9925   -0.0978   -0.7032 N   0  0  0  0  0  0  0  0  0  0  0  0
    4.0470   -1.1290   -0.0677 N   0  0  0  0  0  0  0  0  0  0  0  0
    4.2911   -2.0063   -0.6198 H   0  0  0  0  0  0  0  0  0  0  0  0
    4.8925   -0.4813   -0.0862 H   0  0  0  0  0  0  0  0  0  0  0  0
   -0.0102   -2.9649   -6.1839 C   0  0  0  0  0  0  0  0  0  0  0  0
    1.2510   -2.4065   -5.9789 C   0  0  0  0  0  0  0  0  0  0  0  0
    1.4341   -1.0297   -6.1051 C   0  0  0  0  0  0  0  0  0  0  0  0
    0.3541   -0.2121   -6.4368 C   0  0  0  0  0  0  0  0  0  0  0  0
   -0.9073   -0.7700   -6.6415 C   0  0  0  0  0  0  0  0  0  0  0  0
   -1.0897   -2.1466   -6.5148 C   0  0  0  0  0  0  0  0  0  0  0  0
   -0.1510   -4.0365   -6.0892 H   0  0  0  0  0  0  0  0  0  0  0  0
    2.0926   -3.0419   -5.7246 H   0  0  0  0  0  0  0  0  0  0  0  0
    2.4158   -0.5981   -5.9432 H   0  0  0  0  0  0  0  0  0  0  0  0
    0.4968    0.8585   -6.5380 H   0  0  0  0  0  0  0  0  0  0  0  0
   -1.7464   -0.1337   -6.9020 H   0  0  0  0  0  0  0  0  0  0  0  0
   -2.0705   -2.5812   -6.6767 H   0  0  0  0  0  0  0  0  0  0  0  0
    6.3332   -1.1291   -2.6249 Al  0  0  0  0  0  0  0  0  0  0  0  0
    8.0467   -1.3849   -3.8201 Cl  0  0  0  0  0  0  0  0  0  0  0  0
    6.7407    0.0211   -0.7689 Cl  0  0  0  0  0  0  0  0  0  0  0  0
    4.6317   -0.1486   -3.5110 Cl  0  0  0  0  0  0  0  0  0  0  0  0
    5.5338   -3.0513   -1.8497 Cl  0  0  0  0  0  0  0  0  0  0  0  0
  1  3  1  0  0  0  0
  2  1  1  0  0  0  0
  4  3  1  0  0  0  0
  5  3  1  0  0  0  0
  6 12  1  0  0  0  0
  6  7  2  0  0  0  0
  7 13  1  0  0  0  0
  8  7  1  0  0  0  0
  8 14  1  0  0  0  0
  9  8  2  0  0  0  0
 10 11  2  0  0  0  0
 10  9  1  0  0  0  0
 11  6  1  0  0  0  0
 15  9  1  0  0  0  0
 16 10  1  0  0  0  0
 17 11  1  0  0  0  0
 18 22  1  0  0  0  0
 18 20  1  0  0  0  0
 19 18  1  0  0  0  0
 21 18  1  0  0  0  0
M  RAD  2   1   2   2   3
M  END
