Coordinates from ORCA-job C6H6+AlCl4-+NH2N2+-scan
 OpenBabel10161817473D

 22 20  0  0  0  0  0  0  0  0999 V2000
    3.6178   -0.1505   -4.3951 N   0  0  0  0  0  0  0  0  0  0  0  0
    3.9368   -0.3937   -5.4321 N   0  0  0  0  0  0  0  0  0  0  0  0
    3.2650    0.2364   -3.2310 N   0  0  0  0  0  0  0  0  0  0  0  0
    2.5735   -0.3921   -2.7698 H   0  0  0  0  0  0  0  0  0  0  0  0
    4.0870    0.4425   -2.5785 H   0  0  0  0  0  0  0  0  0  0  0  0
    1.6866   -2.3247   -6.6984 C   0  0  0  0  0  0  0  0  0  0  0  0
    1.0470   -1.1051   -6.9312 C   0  0  0  0  0  0  0  0  0  0  0  0
    0.3608   -0.4686   -5.8972 C   0  0  0  0  0  0  0  0  0  0  0  0
    0.3098   -1.0545   -4.6304 C   0  0  0  0  0  0  0  0  0  0  0  0
    0.9496   -2.2751   -4.3972 C   0  0  0  0  0  0  0  0  0  0  0  0
    1.6394   -2.9087   -5.4322 C   0  0  0  0  0  0  0  0  0  0  0  0
    2.2160   -2.8211   -7.5041 H   0  0  0  0  0  0  0  0  0  0  0  0
    1.0776   -0.6571   -7.9183 H   0  0  0  0  0  0  0  0  0  0  0  0
   -0.1462    0.4725   -6.0806 H   0  0  0  0  0  0  0  0  0  0  0  0
   -0.2436   -0.5728   -3.8310 H   0  0  0  0  0  0  0  0  0  0  0  0
    0.9036   -2.7342   -3.4162 H   0  0  0  0  0  0  0  0  0  0  0  0
    2.1362   -3.8546   -5.2493 H   0  0  0  0  0  0  0  0  0  0  0  0
    4.4630   -1.7880   -0.6894 Al  0  0  0  0  0  0  0  0  0  0  0  0
    5.0847   -2.6153    1.1482 Cl  0  0  0  0  0  0  0  0  0  0  0  0
    5.2953    0.2554   -1.0063 Cl  0  0  0  0  0  0  0  0  0  0  0  0
    4.9964   -2.8697   -2.4766 Cl  0  0  0  0  0  0  0  0  0  0  0  0
    2.2881   -1.4617   -0.8168 Cl  0  0  0  0  0  0  0  0  0  0  0  0
  1  3  1  0  0  0  0
  2  1  1  0  0  0  0
  3  4  1  0  0  0  0
  3  5  1  0  0  0  0
  6 11  1  0  0  0  0
  7  6  2  0  0  0  0
  7  8  1  0  0  0  0
  8  9  2  0  0  0  0
  9 10  1  0  0  0  0
  9 15  1  0  0  0  0
 10 16  1  0  0  0  0
 11 17  1  0  0  0  0
 11 10  2  0  0  0  0
 12  6  1  0  0  0  0
 13  7  1  0  0  0  0
 14  8  1  0  0  0  0
 18 19  1  0  0  0  0
 20 18  1  0  0  0  0
 21 18  1  0  0  0  0
 22 18  1  0  0  0  0
M  RAD  2   1   2   2   3
M  END
