Coordinates from ORCA-job C6H6+AlCl4-+NH2N2+-scan
 OpenBabel10161817473D

 22 20  0  0  0  0  0  0  0  0999 V2000
    3.9920   -0.9502   -4.5605 N   0  0  0  0  0  0  0  0  0  0  0  0
    4.2509   -1.7384   -5.3004 N   0  0  0  0  0  0  0  0  0  0  0  0
    3.7639    0.0267   -3.7715 N   0  0  0  0  0  0  0  0  0  0  0  0
    2.8378   -0.0244   -3.3012 H   0  0  0  0  0  0  0  0  0  0  0  0
    4.5498    0.2059   -3.0672 H   0  0  0  0  0  0  0  0  0  0  0  0
    1.3588   -1.7732   -6.9939 C   0  0  0  0  0  0  0  0  0  0  0  0
    0.9770   -0.6429   -6.2719 C   0  0  0  0  0  0  0  0  0  0  0  0
    0.6945   -0.7504   -4.9077 C   0  0  0  0  0  0  0  0  0  0  0  0
    0.7930   -1.9882   -4.2665 C   0  0  0  0  0  0  0  0  0  0  0  0
    1.1758   -3.1178   -4.9911 C   0  0  0  0  0  0  0  0  0  0  0  0
    1.4581   -3.0102   -6.3532 C   0  0  0  0  0  0  0  0  0  0  0  0
    1.5702   -1.6939   -8.0546 H   0  0  0  0  0  0  0  0  0  0  0  0
    0.8854    0.3157   -6.7709 H   0  0  0  0  0  0  0  0  0  0  0  0
    0.3707    0.1222   -4.3495 H   0  0  0  0  0  0  0  0  0  0  0  0
    0.5676   -2.0705   -3.2094 H   0  0  0  0  0  0  0  0  0  0  0  0
    1.2505   -4.0780   -4.4936 H   0  0  0  0  0  0  0  0  0  0  0  0
    1.7493   -3.8897   -6.9169 H   0  0  0  0  0  0  0  0  0  0  0  0
    3.8498   -0.8474   -0.4154 Al  0  0  0  0  0  0  0  0  0  0  0  0
    3.9633   -0.8794    1.6904 Cl  0  0  0  0  0  0  0  0  0  0  0  0
    5.4601    0.4052   -1.3150 Cl  0  0  0  0  0  0  0  0  0  0  0  0
    4.0165   -2.7439   -1.4283 Cl  0  0  0  0  0  0  0  0  0  0  0  0
    2.0094    0.0823   -1.1855 Cl  0  0  0  0  0  0  0  0  0  0  0  0
  1  3  1  0  0  0  0
  2  1  1  0  0  0  0
  3  4  1  0  0  0  0
  3  5  1  0  0  0  0
  6 11  2  0  0  0  0
  6  7  1  0  0  0  0
  7  8  2  0  0  0  0
  8 14  1  0  0  0  0
  8  9  1  0  0  0  0
  9 15  1  0  0  0  0
 10 16  1  0  0  0  0
 10  9  2  0  0  0  0
 11 10  1  0  0  0  0
 12  6  1  0  0  0  0
 13  7  1  0  0  0  0
 17 11  1  0  0  0  0
 18 19  1  0  0  0  0
 20 18  1  0  0  0  0
 21 18  1  0  0  0  0
 22 18  1  0  0  0  0
M  RAD  2   1   2   2   3
M  END
