Coordinates from ORCA-job C6H6+AlCl4-+NH2N2+-scan
 OpenBabel10161817473D

 22 20  0  0  0  0  0  0  0  0999 V2000
    3.6036   -0.1679   -4.4214 N   0  0  0  0  0  0  0  0  0  0  0  0
    3.9355   -0.4088   -5.4547 N   0  0  0  0  0  0  0  0  0  0  0  0
    3.2362    0.2249   -3.2630 N   0  0  0  0  0  0  0  0  0  0  0  0
    2.5474   -0.4064   -2.8031 H   0  0  0  0  0  0  0  0  0  0  0  0
    4.0517    0.4415   -2.6060 H   0  0  0  0  0  0  0  0  0  0  0  0
    1.6824   -2.3275   -6.6934 C   0  0  0  0  0  0  0  0  0  0  0  0
    1.0768   -1.0866   -6.9033 C   0  0  0  0  0  0  0  0  0  0  0  0
    0.4100   -0.4494   -5.8568 C   0  0  0  0  0  0  0  0  0  0  0  0
    0.3404   -1.0584   -4.6019 C   0  0  0  0  0  0  0  0  0  0  0  0
    0.9468   -2.3001   -4.3916 C   0  0  0  0  0  0  0  0  0  0  0  0
    1.6202   -2.9325   -5.4378 C   0  0  0  0  0  0  0  0  0  0  0  0
    2.1979   -2.8233   -7.5085 H   0  0  0  0  0  0  0  0  0  0  0  0
    1.1190   -0.6217   -7.8821 H   0  0  0  0  0  0  0  0  0  0  0  0
   -0.0714    0.5082   -6.0229 H   0  0  0  0  0  0  0  0  0  0  0  0
   -0.2009   -0.5773   -3.7939 H   0  0  0  0  0  0  0  0  0  0  0  0
    0.8898   -2.7746   -3.4187 H   0  0  0  0  0  0  0  0  0  0  0  0
    2.0927   -3.8938   -5.2720 H   0  0  0  0  0  0  0  0  0  0  0  0
    4.4522   -1.7682   -0.7012 Al  0  0  0  0  0  0  0  0  0  0  0  0
    5.0770   -2.5800    1.1424 Cl  0  0  0  0  0  0  0  0  0  0  0  0
    5.2448    0.2904   -1.0171 Cl  0  0  0  0  0  0  0  0  0  0  0  0
    5.0203   -2.8430   -2.4821 Cl  0  0  0  0  0  0  0  0  0  0  0  0
    2.2722   -1.4861   -0.8443 Cl  0  0  0  0  0  0  0  0  0  0  0  0
  1  3  1  0  0  0  0
  2  1  1  0  0  0  0
  3  4  1  0  0  0  0
  3  5  1  0  0  0  0
  6 11  1  0  0  0  0
  7  6  2  0  0  0  0
  7  8  1  0  0  0  0
  8  9  2  0  0  0  0
  9 10  1  0  0  0  0
  9 15  1  0  0  0  0
 10 16  1  0  0  0  0
 11 17  1  0  0  0  0
 11 10  2  0  0  0  0
 12  6  1  0  0  0  0
 13  7  1  0  0  0  0
 14  8  1  0  0  0  0
 18 19  1  0  0  0  0
 20 18  1  0  0  0  0
 21 18  1  0  0  0  0
 22 18  1  0  0  0  0
M  RAD  2   1   2   2   3
M  END
