Coordinates from ORCA-job C6H6+AlCl4-+NH2N2+-scan
 OpenBabel10161817473D

 22 19  0  0  0  0  0  0  0  0999 V2000
    6.0257   -2.7791   -3.3958 N   0  0  0  0  0  0  0  0  0  0  0  0
    7.0140   -3.0690   -3.0235 N   0  0  0  0  0  0  0  0  0  0  0  0
    3.2115   -2.0410   -4.5216 N   0  0  0  0  0  0  0  0  0  0  0  0
    3.1512   -2.4039   -3.5575 H   0  0  0  0  0  0  0  0  0  0  0  0
    3.7982   -1.2051   -4.3756 H   0  0  0  0  0  0  0  0  0  0  0  0
    0.9796   -0.7900   -6.7707 C   0  0  0  0  0  0  0  0  0  0  0  0
    1.6616   -0.3546   -5.6607 C   0  0  0  0  0  0  0  0  0  0  0  0
    1.5556   -1.0723   -4.4129 C   0  0  0  0  0  0  0  0  0  0  0  0
    0.6603   -2.2020   -4.3401 C   0  0  0  0  0  0  0  0  0  0  0  0
   -0.0143   -2.6243   -5.4599 C   0  0  0  0  0  0  0  0  0  0  0  0
    0.1509   -1.9200   -6.6645 C   0  0  0  0  0  0  0  0  0  0  0  0
    1.0732   -0.2754   -7.7187 H   0  0  0  0  0  0  0  0  0  0  0  0
    2.3124    0.5122   -5.6943 H   0  0  0  0  0  0  0  0  0  0  0  0
    1.7497   -0.5205   -3.4955 H   0  0  0  0  0  0  0  0  0  0  0  0
    0.5643   -2.7119   -3.3878 H   0  0  0  0  0  0  0  0  0  0  0  0
   -0.6675   -3.4871   -5.4232 H   0  0  0  0  0  0  0  0  0  0  0  0
   -0.3784   -2.2641   -7.5474 H   0  0  0  0  0  0  0  0  0  0  0  0
    3.7722    0.0649   -0.8835 Al  0  0  0  0  0  0  0  0  0  0  0  0
    2.6501    1.4345    0.3074 Cl  0  0  0  0  0  0  0  0  0  0  0  0
    3.9935    0.8962   -2.9217 Cl  0  0  0  0  0  0  0  0  0  0  0  0
    5.6967   -0.4477   -0.1189 Cl  0  0  0  0  0  0  0  0  0  0  0  0
    2.5842   -1.7806   -1.1671 Cl  0  0  0  0  0  0  0  0  0  0  0  0
  1  2  3  0  0  0  0
  3  5  1  0  0  0  0
  3  4  1  0  0  0  0
  6 11  2  0  0  0  0
  6  7  1  0  0  0  0
  7  8  2  0  0  0  0
  8  9  1  0  0  0  0
  8 14  1  0  0  0  0
  9 15  1  0  0  0  0
 10 16  1  0  0  0  0
 10  9  2  0  0  0  0
 11 10  1  0  0  0  0
 12  6  1  0  0  0  0
 13  7  1  0  0  0  0
 17 11  1  0  0  0  0
 18 21  1  0  0  0  0
 18 19  1  0  0  0  0
 20 18  1  0  0  0  0
 22 18  1  0  0  0  0
M  RAD  1   3   2
M  END
