Coordinates from ORCA-job C6H6+AlCl4-+NH2N2+-scan
 OpenBabel10161817473D

 22 20  0  0  0  0  0  0  0  0999 V2000
    2.9659    0.3508   -3.5840 N   0  0  0  0  0  0  0  0  0  0  0  0
    2.9961    0.7543   -4.6193 N   0  0  0  0  0  0  0  0  0  0  0  0
    2.8938   -0.0242   -2.3657 N   0  0  0  0  0  0  0  0  0  0  0  0
    2.6450   -1.0344   -2.2493 H   0  0  0  0  0  0  0  0  0  0  0  0
    3.7667    0.2056   -1.7933 H   0  0  0  0  0  0  0  0  0  0  0  0
    1.9372   -2.3638   -5.6144 C   0  0  0  0  0  0  0  0  0  0  0  0
    1.7061   -1.5573   -6.7295 C   0  0  0  0  0  0  0  0  0  0  0  0
    0.5758   -0.7393   -6.7798 C   0  0  0  0  0  0  0  0  0  0  0  0
   -0.3196   -0.7205   -5.7098 C   0  0  0  0  0  0  0  0  0  0  0  0
   -0.0903   -1.5268   -4.5941 C   0  0  0  0  0  0  0  0  0  0  0  0
    1.0366   -2.3512   -4.5470 C   0  0  0  0  0  0  0  0  0  0  0  0
    2.8124   -3.0025   -5.5757 H   0  0  0  0  0  0  0  0  0  0  0  0
    2.4017   -1.5730   -7.5612 H   0  0  0  0  0  0  0  0  0  0  0  0
    0.3928   -0.1202   -7.6512 H   0  0  0  0  0  0  0  0  0  0  0  0
   -1.2003   -0.0890   -5.7507 H   0  0  0  0  0  0  0  0  0  0  0  0
   -0.7970   -1.5272   -3.7710 H   0  0  0  0  0  0  0  0  0  0  0  0
    1.2043   -2.9993   -3.6934 H   0  0  0  0  0  0  0  0  0  0  0  0
    5.4152   -2.2333   -1.5180 Al  0  0  0  0  0  0  0  0  0  0  0  0
    6.7884   -3.4769   -0.5126 Cl  0  0  0  0  0  0  0  0  0  0  0  0
    5.3805   -0.1711   -0.6775 Cl  0  0  0  0  0  0  0  0  0  0  0  0
    5.7141   -1.9510   -3.6340 Cl  0  0  0  0  0  0  0  0  0  0  0  0
    3.3191   -2.8905   -1.3023 Cl  0  0  0  0  0  0  0  0  0  0  0  0
  1  3  1  0  0  0  0
  2  1  1  0  0  0  0
  3  4  1  0  0  0  0
  3  5  1  0  0  0  0
  6 12  1  0  0  0  0
  6 11  2  0  0  0  0
  7  6  1  0  0  0  0
  8  7  2  0  0  0  0
  8  9  1  0  0  0  0
  9 10  2  0  0  0  0
 10 11  1  0  0  0  0
 10 16  1  0  0  0  0
 11 17  1  0  0  0  0
 13  7  1  0  0  0  0
 14  8  1  0  0  0  0
 15  9  1  0  0  0  0
 18 22  1  0  0  0  0
 18 20  1  0  0  0  0
 18 19  1  0  0  0  0
 21 18  1  0  0  0  0
M  RAD  2   1   2   2   3
M  END
