Coordinates from ORCA-job C6H6+AlCl4-+NH2N2+-scan
 OpenBabel10161817473D

 22 20  0  0  0  0  0  0  0  0999 V2000
    6.2689   -1.8370   -4.7726 N   0  0  0  0  0  0  0  0  0  0  0  0
    7.3556   -1.7042   -4.7638 N   0  0  0  0  0  0  0  0  0  0  0  0
    3.0575   -1.9453   -3.9742 N   0  0  0  0  0  0  0  0  0  0  0  0
    2.9529   -2.2525   -2.9729 H   0  0  0  0  0  0  0  0  0  0  0  0
    4.0563   -1.8839   -4.2127 H   0  0  0  0  0  0  0  0  0  0  0  0
    1.4432   -1.0311   -6.8312 C   0  0  0  0  0  0  0  0  0  0  0  0
    2.4814   -1.2437   -6.0018 C   0  0  0  0  0  0  0  0  0  0  0  0
    2.2828   -1.6932   -4.6046 C   0  0  0  0  0  0  0  0  0  0  0  0
    0.8213   -1.7305   -4.1269 C   0  0  0  0  0  0  0  0  0  0  0  0
   -0.2334   -1.5390   -5.1664 C   0  0  0  0  0  0  0  0  0  0  0  0
    0.0575   -1.2014   -6.4287 C   0  0  0  0  0  0  0  0  0  0  0  0
    1.6463   -0.7205   -7.8510 H   0  0  0  0  0  0  0  0  0  0  0  0
    3.5077   -1.1161   -6.3333 H   0  0  0  0  0  0  0  0  0  0  0  0
    0.7298   -0.9346   -3.3700 H   0  0  0  0  0  0  0  0  0  0  0  0
    0.6542   -2.6591   -3.5693 H   0  0  0  0  0  0  0  0  0  0  0  0
   -1.2607   -1.6547   -4.8387 H   0  0  0  0  0  0  0  0  0  0  0  0
   -0.7235   -1.0404   -7.1614 H   0  0  0  0  0  0  0  0  0  0  0  0
    3.3097   -0.5074   -0.5680 Al  0  0  0  0  0  0  0  0  0  0  0  0
    1.6617    0.6485   -1.3720 Cl  0  0  0  0  0  0  0  0  0  0  0  0
    5.0231   -0.2091   -1.8744 Cl  0  0  0  0  0  0  0  0  0  0  0  0
    3.7091   -0.1553    1.4830 Cl  0  0  0  0  0  0  0  0  0  0  0  0
    2.7432   -2.6301   -0.9224 Cl  0  0  0  0  0  0  0  0  0  0  0  0
  1  2  3  0  0  0  0
  3  4  1  0  0  0  0
  5  3  1  0  0  0  0
  6 11  1  0  0  0  0
  6  7  1  0  0  0  0
  7  8  2  0  0  0  0
  8  9  1  0  0  0  0
  8  3  1  0  0  0  0
  9 15  1  0  0  0  0
  9 14  1  0  0  0  0
 10 16  1  0  0  0  0
 10  9  1  0  0  0  0
 11 10  2  0  0  0  0
 12  6  1  0  0  0  0
 13  7  1  0  0  0  0
 17 11  1  0  0  0  0
 18 21  1  0  0  0  0
 19 18  1  0  0  0  0
 20 18  1  0  0  0  0
 22 18  1  0  0  0  0
M  RAD  1   6   2
M  END
