Coordinates from ORCA-job C6H6+AlCl4-+NH2N2+-scan
 OpenBabel10161817473D

 22 20  0  0  0  0  0  0  0  0999 V2000
    3.7202   -0.3037   -4.4921 N   0  0  0  0  0  0  0  0  0  0  0  0
    4.0610   -0.6844   -5.4794 N   0  0  0  0  0  0  0  0  0  0  0  0
    3.3558    0.2390   -3.3955 N   0  0  0  0  0  0  0  0  0  0  0  0
    2.5870   -0.2712   -2.9132 H   0  0  0  0  0  0  0  0  0  0  0  0
    4.1650    0.4372   -2.7245 H   0  0  0  0  0  0  0  0  0  0  0  0
    1.5876   -2.2481   -6.8168 C   0  0  0  0  0  0  0  0  0  0  0  0
    1.0101   -0.9767   -6.8158 C   0  0  0  0  0  0  0  0  0  0  0  0
    0.4569   -0.4638   -5.6426 C   0  0  0  0  0  0  0  0  0  0  0  0
    0.4777   -1.2253   -4.4713 C   0  0  0  0  0  0  0  0  0  0  0  0
    1.0602   -2.4953   -4.4709 C   0  0  0  0  0  0  0  0  0  0  0  0
    1.6146   -3.0058   -5.6451 C   0  0  0  0  0  0  0  0  0  0  0  0
    2.0116   -2.6493   -7.7307 H   0  0  0  0  0  0  0  0  0  0  0  0
    0.9840   -0.3924   -7.7291 H   0  0  0  0  0  0  0  0  0  0  0  0
   -0.0061    0.5170   -5.6438 H   0  0  0  0  0  0  0  0  0  0  0  0
    0.0242   -0.8405   -3.5637 H   0  0  0  0  0  0  0  0  0  0  0  0
    1.0775   -3.0825   -3.5600 H   0  0  0  0  0  0  0  0  0  0  0  0
    2.0634   -3.9926   -5.6458 H   0  0  0  0  0  0  0  0  0  0  0  0
    4.2857   -1.6062   -0.6098 Al  0  0  0  0  0  0  0  0  0  0  0  0
    4.7630   -2.2909    1.3271 Cl  0  0  0  0  0  0  0  0  0  0  0  0
    5.2633    0.3438   -1.0678 Cl  0  0  0  0  0  0  0  0  0  0  0  0
    4.8362   -2.8834   -2.2577 Cl  0  0  0  0  0  0  0  0  0  0  0  0
    2.1459   -1.1655   -0.8849 Cl  0  0  0  0  0  0  0  0  0  0  0  0
  1  3  1  0  0  0  0
  2  1  1  0  0  0  0
  3  4  1  0  0  0  0
  3  5  1  0  0  0  0
  6  7  2  0  0  0  0
  6 11  1  0  0  0  0
  7  8  1  0  0  0  0
  8  9  2  0  0  0  0
  9 10  1  0  0  0  0
  9 15  1  0  0  0  0
 10 16  1  0  0  0  0
 11 10  2  0  0  0  0
 12  6  1  0  0  0  0
 13  7  1  0  0  0  0
 14  8  1  0  0  0  0
 17 11  1  0  0  0  0
 18 19  1  0  0  0  0
 20 18  1  0  0  0  0
 21 18  1  0  0  0  0
 22 18  1  0  0  0  0
M  RAD  2   1   2   2   3
M  END
