Coordinates from ORCA-job C6H6+AlCl4-+NH2N2+-scan
 OpenBabel10161817473D

 22 20  0  0  0  0  0  0  0  0999 V2000
    3.2810    0.1677   -4.1731 N   0  0  0  0  0  0  0  0  0  0  0  0
    3.5522    0.2670   -5.2465 N   0  0  0  0  0  0  0  0  0  0  0  0
    2.9603    0.1673   -2.9375 N   0  0  0  0  0  0  0  0  0  0  0  0
    2.4545   -0.6911   -2.6400 H   0  0  0  0  0  0  0  0  0  0  0  0
    3.7790    0.3816   -2.2814 H   0  0  0  0  0  0  0  0  0  0  0  0
    1.8972   -2.4608   -6.2002 C   0  0  0  0  0  0  0  0  0  0  0  0
    1.3840   -1.3718   -6.9065 C   0  0  0  0  0  0  0  0  0  0  0  0
    0.4522   -0.5235   -6.3051 C   0  0  0  0  0  0  0  0  0  0  0  0
    0.0268   -0.7687   -4.9997 C   0  0  0  0  0  0  0  0  0  0  0  0
    0.5381   -1.8612   -4.2939 C   0  0  0  0  0  0  0  0  0  0  0  0
    1.4771   -2.7049   -4.8922 C   0  0  0  0  0  0  0  0  0  0  0  0
    2.6212   -3.1192   -6.6667 H   0  0  0  0  0  0  0  0  0  0  0  0
    1.7062   -1.1866   -7.9253 H   0  0  0  0  0  0  0  0  0  0  0  0
    0.0494    0.3180   -6.8583 H   0  0  0  0  0  0  0  0  0  0  0  0
   -0.7110   -0.1218   -4.5375 H   0  0  0  0  0  0  0  0  0  0  0  0
    0.1945   -2.0678   -3.2857 H   0  0  0  0  0  0  0  0  0  0  0  0
    1.8753   -3.5485   -4.3404 H   0  0  0  0  0  0  0  0  0  0  0  0
    4.8658   -2.0804   -1.1001 Al  0  0  0  0  0  0  0  0  0  0  0  0
    5.8687   -3.1633    0.4067 Cl  0  0  0  0  0  0  0  0  0  0  0  0
    5.1401    0.1200   -0.8630 Cl  0  0  0  0  0  0  0  0  0  0  0  0
    5.4530   -2.4764   -3.1372 Cl  0  0  0  0  0  0  0  0  0  0  0  0
    2.6791   -2.3160   -1.0499 Cl  0  0  0  0  0  0  0  0  0  0  0  0
  1  3  1  0  0  0  0
  2  1  1  0  0  0  0
  3  4  1  0  0  0  0
  3  5  1  0  0  0  0
  6 11  2  0  0  0  0
  7  8  2  0  0  0  0
  7  6  1  0  0  0  0
  8  9  1  0  0  0  0
  9 15  1  0  0  0  0
  9 10  2  0  0  0  0
 10 16  1  0  0  0  0
 11 17  1  0  0  0  0
 11 10  1  0  0  0  0
 12  6  1  0  0  0  0
 13  7  1  0  0  0  0
 14  8  1  0  0  0  0
 18 22  1  0  0  0  0
 18 20  1  0  0  0  0
 18 19  1  0  0  0  0
 21 18  1  0  0  0  0
M  RAD  2   1   2   2   3
M  END
