Coordinates from ORCA-job C6H6+AlCl4-+NH2N2+-scan
 OpenBabel10161817473D

 22 20  0  0  0  0  0  0  0  0999 V2000
    3.2953    0.1563   -4.1851 N   0  0  0  0  0  0  0  0  0  0  0  0
    3.5754    0.2483   -5.2569 N   0  0  0  0  0  0  0  0  0  0  0  0
    2.9657    0.1617   -2.9521 N   0  0  0  0  0  0  0  0  0  0  0  0
    2.4581   -0.6953   -2.6549 H   0  0  0  0  0  0  0  0  0  0  0  0
    3.7792    0.3824   -2.2910 H   0  0  0  0  0  0  0  0  0  0  0  0
    1.8801   -2.4669   -6.2227 C   0  0  0  0  0  0  0  0  0  0  0  0
    1.3760   -1.3605   -6.9081 C   0  0  0  0  0  0  0  0  0  0  0  0
    0.4591   -0.5103   -6.2866 C   0  0  0  0  0  0  0  0  0  0  0  0
    0.0398   -0.7710   -4.9823 C   0  0  0  0  0  0  0  0  0  0  0  0
    0.5416   -1.8812   -4.2975 C   0  0  0  0  0  0  0  0  0  0  0  0
    1.4655   -2.7269   -4.9159 C   0  0  0  0  0  0  0  0  0  0  0  0
    2.5922   -3.1270   -6.7049 H   0  0  0  0  0  0  0  0  0  0  0  0
    1.6937   -1.1632   -7.9260 H   0  0  0  0  0  0  0  0  0  0  0  0
    0.0631    0.3448   -6.8234 H   0  0  0  0  0  0  0  0  0  0  0  0
   -0.6865   -0.1223   -4.5046 H   0  0  0  0  0  0  0  0  0  0  0  0
    0.2020   -2.0998   -3.2906 H   0  0  0  0  0  0  0  0  0  0  0  0
    1.8556   -3.5849   -4.3809 H   0  0  0  0  0  0  0  0  0  0  0  0
    4.8616   -2.0619   -1.0801 Al  0  0  0  0  0  0  0  0  0  0  0  0
    5.8608   -3.1286    0.4409 Cl  0  0  0  0  0  0  0  0  0  0  0  0
    5.1275    0.1414   -0.8600 Cl  0  0  0  0  0  0  0  0  0  0  0  0
    5.4627   -2.4719   -3.1107 Cl  0  0  0  0  0  0  0  0  0  0  0  0
    2.6762   -2.3037   -1.0402 Cl  0  0  0  0  0  0  0  0  0  0  0  0
  1  3  1  0  0  0  0
  2  1  1  0  0  0  0
  3  4  1  0  0  0  0
  3  5  1  0  0  0  0
  6 11  2  0  0  0  0
  7  8  2  0  0  0  0
  7  6  1  0  0  0  0
  8  9  1  0  0  0  0
  9 15  1  0  0  0  0
  9 10  2  0  0  0  0
 10 16  1  0  0  0  0
 11 17  1  0  0  0  0
 11 10  1  0  0  0  0
 12  6  1  0  0  0  0
 13  7  1  0  0  0  0
 14  8  1  0  0  0  0
 18 22  1  0  0  0  0
 18 20  1  0  0  0  0
 18 19  1  0  0  0  0
 21 18  1  0  0  0  0
M  RAD  2   1   2   2   3
M  END
