Coordinates from ORCA-job C6H6+AlCl4-+NH2N2+-scan
 OpenBabel10161817473D

 22 20  0  0  0  0  0  0  0  0999 V2000
    3.0341    0.4090   -3.4924 N   0  0  0  0  0  0  0  0  0  0  0  0
    3.0415    0.7905   -4.5363 N   0  0  0  0  0  0  0  0  0  0  0  0
    2.9817    0.0522   -2.2681 N   0  0  0  0  0  0  0  0  0  0  0  0
    2.7027   -0.9508   -2.1309 H   0  0  0  0  0  0  0  0  0  0  0  0
    3.8788    0.2514   -1.7234 H   0  0  0  0  0  0  0  0  0  0  0  0
    1.9545   -2.3012   -5.6522 C   0  0  0  0  0  0  0  0  0  0  0  0
    1.6682   -1.5442   -6.7890 C   0  0  0  0  0  0  0  0  0  0  0  0
    0.4913   -0.7964   -6.8541 C   0  0  0  0  0  0  0  0  0  0  0  0
   -0.3956   -0.7977   -5.7772 C   0  0  0  0  0  0  0  0  0  0  0  0
   -0.1111   -1.5543   -4.6396 C   0  0  0  0  0  0  0  0  0  0  0  0
    1.0624   -2.3091   -4.5777 C   0  0  0  0  0  0  0  0  0  0  0  0
    2.8648   -2.8882   -5.6029 H   0  0  0  0  0  0  0  0  0  0  0  0
    2.3571   -1.5454   -7.6265 H   0  0  0  0  0  0  0  0  0  0  0  0
    0.2657   -0.2161   -7.7420 H   0  0  0  0  0  0  0  0  0  0  0  0
   -1.3122   -0.2202   -5.8289 H   0  0  0  0  0  0  0  0  0  0  0  0
   -0.8108   -1.5708   -3.8106 H   0  0  0  0  0  0  0  0  0  0  0  0
    1.2731   -2.9212   -3.7070 H   0  0  0  0  0  0  0  0  0  0  0  0
    5.4092   -2.2780   -1.4859 Al  0  0  0  0  0  0  0  0  0  0  0  0
    6.7285   -3.5964   -0.5051 Cl  0  0  0  0  0  0  0  0  0  0  0  0
    5.5079   -0.2153   -0.6544 Cl  0  0  0  0  0  0  0  0  0  0  0  0
    5.6707   -2.0212   -3.6094 Cl  0  0  0  0  0  0  0  0  0  0  0  0
    3.2822   -2.8172   -1.2200 Cl  0  0  0  0  0  0  0  0  0  0  0  0
  1  3  1  0  0  0  0
  2  1  1  0  0  0  0
  3  4  1  0  0  0  0
  3  5  1  0  0  0  0
  6 12  1  0  0  0  0
  6 11  2  0  0  0  0
  7  6  1  0  0  0  0
  8  7  2  0  0  0  0
  8  9  1  0  0  0  0
  9 10  2  0  0  0  0
 10 11  1  0  0  0  0
 10 16  1  0  0  0  0
 11 17  1  0  0  0  0
 13  7  1  0  0  0  0
 14  8  1  0  0  0  0
 15  9  1  0  0  0  0
 18 22  1  0  0  0  0
 18 20  1  0  0  0  0
 18 19  1  0  0  0  0
 21 18  1  0  0  0  0
M  RAD  2   1   2   2   3
M  END
