Coordinates from ORCA-job C6H6+AlCl4-+NH2N2+-scan
 OpenBabel10161817473D

 22 20  0  0  0  0  0  0  0  0999 V2000
    3.2757    0.1777   -4.1620 N   0  0  0  0  0  0  0  0  0  0  0  0
    3.5407    0.2815   -5.2366 N   0  0  0  0  0  0  0  0  0  0  0  0
    2.9616    0.1711   -2.9251 N   0  0  0  0  0  0  0  0  0  0  0  0
    2.4490   -0.6837   -2.6300 H   0  0  0  0  0  0  0  0  0  0  0  0
    3.7826    0.3795   -2.2701 H   0  0  0  0  0  0  0  0  0  0  0  0
    1.9071   -2.4564   -6.1874 C   0  0  0  0  0  0  0  0  0  0  0  0
    1.3863   -1.3807   -6.9084 C   0  0  0  0  0  0  0  0  0  0  0  0
    0.4440   -0.5342   -6.3206 C   0  0  0  0  0  0  0  0  0  0  0  0
    0.0164   -0.7680   -5.0137 C   0  0  0  0  0  0  0  0  0  0  0  0
    0.5354   -1.8470   -4.2931 C   0  0  0  0  0  0  0  0  0  0  0  0
    1.4844   -2.6890   -4.8780 C   0  0  0  0  0  0  0  0  0  0  0  0
    2.6390   -3.1134   -6.6433 H   0  0  0  0  0  0  0  0  0  0  0  0
    1.7103   -1.2046   -7.9282 H   0  0  0  0  0  0  0  0  0  0  0  0
    0.0352    0.2966   -6.8852 H   0  0  0  0  0  0  0  0  0  0  0  0
   -0.7292   -0.1226   -4.5620 H   0  0  0  0  0  0  0  0  0  0  0  0
    0.1897   -2.0452   -3.2840 H   0  0  0  0  0  0  0  0  0  0  0  0
    1.8885   -3.5223   -4.3149 H   0  0  0  0  0  0  0  0  0  0  0  0
    4.8701   -2.0933   -1.1106 Al  0  0  0  0  0  0  0  0  0  0  0  0
    5.8763   -3.1879    0.3855 Cl  0  0  0  0  0  0  0  0  0  0  0  0
    5.1505    0.1049   -0.8614 Cl  0  0  0  0  0  0  0  0  0  0  0  0
    5.4482   -2.4789   -3.1522 Cl  0  0  0  0  0  0  0  0  0  0  0  0
    2.6829   -2.3246   -1.0523 Cl  0  0  0  0  0  0  0  0  0  0  0  0
  1  3  1  0  0  0  0
  2  1  1  0  0  0  0
  3  4  1  0  0  0  0
  3  5  1  0  0  0  0
  6 11  2  0  0  0  0
  7  8  2  0  0  0  0
  7  6  1  0  0  0  0
  8  9  1  0  0  0  0
  9 15  1  0  0  0  0
  9 10  2  0  0  0  0
 10 16  1  0  0  0  0
 11 17  1  0  0  0  0
 11 10  1  0  0  0  0
 12  6  1  0  0  0  0
 13  7  1  0  0  0  0
 14  8  1  0  0  0  0
 18 22  1  0  0  0  0
 18 20  1  0  0  0  0
 18 19  1  0  0  0  0
 21 18  1  0  0  0  0
M  RAD  2   1   2   2   3
M  END
