Coordinates from ORCA-job C6H6+AlCl4-+NH2N2+-scan
 OpenBabel10161817473D

 22 20  0  0  0  0  0  0  0  0999 V2000
    3.8084   -1.2031   -4.3876 N   0  0  0  0  0  0  0  0  0  0  0  0
    4.2463   -1.9649   -5.0664 N   0  0  0  0  0  0  0  0  0  0  0  0
    3.3115   -0.2446   -3.7026 N   0  0  0  0  0  0  0  0  0  0  0  0
    2.5717   -0.5574   -3.0322 H   0  0  0  0  0  0  0  0  0  0  0  0
    4.0600    0.2851   -3.1597 H   0  0  0  0  0  0  0  0  0  0  0  0
    1.5001   -1.7128   -7.0435 C   0  0  0  0  0  0  0  0  0  0  0  0
    1.3387   -0.5799   -6.2465 C   0  0  0  0  0  0  0  0  0  0  0  0
    0.9715   -0.7155   -4.9053 C   0  0  0  0  0  0  0  0  0  0  0  0
    0.7260   -1.9846   -4.3756 C   0  0  0  0  0  0  0  0  0  0  0  0
    0.8950   -3.1180   -5.1737 C   0  0  0  0  0  0  0  0  0  0  0  0
    1.2832   -2.9829   -6.5059 C   0  0  0  0  0  0  0  0  0  0  0  0
    1.7844   -1.6064   -8.0846 H   0  0  0  0  0  0  0  0  0  0  0  0
    1.4919    0.4074   -6.6686 H   0  0  0  0  0  0  0  0  0  0  0  0
    0.7961    0.1685   -4.3042 H   0  0  0  0  0  0  0  0  0  0  0  0
    0.3993   -2.0911   -3.3468 H   0  0  0  0  0  0  0  0  0  0  0  0
    0.7097   -4.1021   -4.7584 H   0  0  0  0  0  0  0  0  0  0  0  0
    1.4061   -3.8630   -7.1272 H   0  0  0  0  0  0  0  0  0  0  0  0
    4.0802   -0.6706   -0.3501 Al  0  0  0  0  0  0  0  0  0  0  0  0
    4.3607   -0.4684    1.7297 Cl  0  0  0  0  0  0  0  0  0  0  0  0
    4.9905    1.0013   -1.4957 Cl  0  0  0  0  0  0  0  0  0  0  0  0
    4.8585   -2.4548   -1.2764 Cl  0  0  0  0  0  0  0  0  0  0  0  0
    1.9548   -0.5829   -0.9524 Cl  0  0  0  0  0  0  0  0  0  0  0  0
  1  3  1  0  0  0  0
  2  1  1  0  0  0  0
  3  5  1  0  0  0  0
  3  4  1  0  0  0  0
  6 11  2  0  0  0  0
  6  7  1  0  0  0  0
  7  8  2  0  0  0  0
  8  9  1  0  0  0  0
  8 14  1  0  0  0  0
  9 15  1  0  0  0  0
 10 16  1  0  0  0  0
 10  9  2  0  0  0  0
 11 10  1  0  0  0  0
 12  6  1  0  0  0  0
 13  7  1  0  0  0  0
 17 11  1  0  0  0  0
 18 19  1  0  0  0  0
 20 18  1  0  0  0  0
 21 18  1  0  0  0  0
 22 18  1  0  0  0  0
M  RAD  2   1   2   2   3
M  END
