Coordinates from ORCA-job C6H6+AlCl4-+NH2N2+-scan
 OpenBabel10161817473D

 22 20  0  0  0  0  0  0  0  0999 V2000
    3.3558    0.6029   -3.2133 N   0  0  0  0  0  0  0  0  0  0  0  0
    3.2733    0.8833   -4.2861 N   0  0  0  0  0  0  0  0  0  0  0  0
    3.3918    0.3477   -1.9632 N   0  0  0  0  0  0  0  0  0  0  0  0
    2.9728   -0.5937   -1.7130 H   0  0  0  0  0  0  0  0  0  0  0  0
    4.3658    0.4071   -1.5416 H   0  0  0  0  0  0  0  0  0  0  0  0
    1.9669   -2.0419   -5.7758 C   0  0  0  0  0  0  0  0  0  0  0  0
    1.5241   -1.4677   -6.9684 C   0  0  0  0  0  0  0  0  0  0  0  0
    0.2093   -1.0153   -7.0808 C   0  0  0  0  0  0  0  0  0  0  0  0
   -0.6619   -1.1307   -5.9975 C   0  0  0  0  0  0  0  0  0  0  0  0
   -0.2211   -1.7041   -4.8047 C   0  0  0  0  0  0  0  0  0  0  0  0
    1.0925   -2.1622   -4.6939 C   0  0  0  0  0  0  0  0  0  0  0  0
    2.9836   -2.4101   -5.6906 H   0  0  0  0  0  0  0  0  0  0  0  0
    2.2009   -1.3830   -7.8118 H   0  0  0  0  0  0  0  0  0  0  0  0
   -0.1363   -0.5765   -8.0105 H   0  0  0  0  0  0  0  0  0  0  0  0
   -1.6854   -0.7826   -6.0857 H   0  0  0  0  0  0  0  0  0  0  0  0
   -0.9037   -1.8072   -3.9679 H   0  0  0  0  0  0  0  0  0  0  0  0
    1.4300   -2.6344   -3.7767 H   0  0  0  0  0  0  0  0  0  0  0  0
    5.3548   -2.4196   -1.3654 Al  0  0  0  0  0  0  0  0  0  0  0  0
    6.4147   -4.0068   -0.4757 Cl  0  0  0  0  0  0  0  0  0  0  0  0
    5.9550   -0.4347   -0.5733 Cl  0  0  0  0  0  0  0  0  0  0  0  0
    5.4833   -2.2178   -3.5069 Cl  0  0  0  0  0  0  0  0  0  0  0  0
    3.1784   -2.4935   -0.9308 Cl  0  0  0  0  0  0  0  0  0  0  0  0
  1  3  1  0  0  0  0
  2  1  1  0  0  0  0
  3  4  1  0  0  0  0
  3  5  1  0  0  0  0
  6 12  1  0  0  0  0
  6 11  2  0  0  0  0
  7  6  1  0  0  0  0
  8  7  2  0  0  0  0
  8  9  1  0  0  0  0
  9 10  2  0  0  0  0
 10 11  1  0  0  0  0
 10 16  1  0  0  0  0
 11 17  1  0  0  0  0
 13  7  1  0  0  0  0
 14  8  1  0  0  0  0
 15  9  1  0  0  0  0
 18 22  1  0  0  0  0
 18 20  1  0  0  0  0
 18 19  1  0  0  0  0
 21 18  1  0  0  0  0
M  RAD  2   1   2   2   3
M  END
