Coordinates from ORCA-job C6H6+AlCl4-+NH2N2+-scan
 OpenBabel10161817473D

 22 20  0  0  0  0  0  0  0  0999 V2000
    2.9554    0.3450   -3.5915 N   0  0  0  0  0  0  0  0  0  0  0  0
    2.9880    0.7537   -4.6245 N   0  0  0  0  0  0  0  0  0  0  0  0
    2.8802   -0.0328   -2.3740 N   0  0  0  0  0  0  0  0  0  0  0  0
    2.6351   -1.0439   -2.2633 H   0  0  0  0  0  0  0  0  0  0  0  0
    3.7504    0.2004   -1.7990 H   0  0  0  0  0  0  0  0  0  0  0  0
    1.9334   -2.3757   -5.6104 C   0  0  0  0  0  0  0  0  0  0  0  0
    1.7117   -1.5622   -6.7221 C   0  0  0  0  0  0  0  0  0  0  0  0
    0.5896   -0.7328   -6.7706 C   0  0  0  0  0  0  0  0  0  0  0  0
   -0.3063   -0.7090   -5.7013 C   0  0  0  0  0  0  0  0  0  0  0  0
   -0.0863   -1.5217   -4.5886 C   0  0  0  0  0  0  0  0  0  0  0  0
    1.0318   -2.3583   -4.5439 C   0  0  0  0  0  0  0  0  0  0  0  0
    2.8019   -3.0237   -5.5740 H   0  0  0  0  0  0  0  0  0  0  0  0
    2.4080   -1.5817   -7.5532 H   0  0  0  0  0  0  0  0  0  0  0  0
    0.4138   -0.1087   -7.6399 H   0  0  0  0  0  0  0  0  0  0  0  0
   -1.1807   -0.0685   -5.7403 H   0  0  0  0  0  0  0  0  0  0  0  0
   -0.7941   -1.5183   -3.7665 H   0  0  0  0  0  0  0  0  0  0  0  0
    1.1915   -3.0123   -3.6932 H   0  0  0  0  0  0  0  0  0  0  0  0
    5.4163   -2.2262   -1.5247 Al  0  0  0  0  0  0  0  0  0  0  0  0
    6.7999   -3.4595   -0.5206 Cl  0  0  0  0  0  0  0  0  0  0  0  0
    5.3649   -0.1655   -0.6808 Cl  0  0  0  0  0  0  0  0  0  0  0  0
    5.7142   -1.9380   -3.6402 Cl  0  0  0  0  0  0  0  0  0  0  0  0
    3.3262   -2.9009   -1.3109 Cl  0  0  0  0  0  0  0  0  0  0  0  0
  1  3  1  0  0  0  0
  2  1  1  0  0  0  0
  3  4  1  0  0  0  0
  3  5  1  0  0  0  0
  6 12  1  0  0  0  0
  6 11  2  0  0  0  0
  7  6  1  0  0  0  0
  8  7  2  0  0  0  0
  8  9  1  0  0  0  0
  9 10  2  0  0  0  0
 10 11  1  0  0  0  0
 10 16  1  0  0  0  0
 11 17  1  0  0  0  0
 13  7  1  0  0  0  0
 14  8  1  0  0  0  0
 15  9  1  0  0  0  0
 18 22  1  0  0  0  0
 18 20  1  0  0  0  0
 18 19  1  0  0  0  0
 21 18  1  0  0  0  0
M  RAD  2   1   2   2   3
M  END
