Coordinates from ORCA-job C6H6+AlCl4-+NH2N2+-scan
 OpenBabel10161817473D

 22 20  0  0  0  0  0  0  0  0999 V2000
    3.2785    0.1831   -4.1540 N   0  0  0  0  0  0  0  0  0  0  0  0
    3.5422    0.2857   -5.2290 N   0  0  0  0  0  0  0  0  0  0  0  0
    2.9667    0.1741   -2.9168 N   0  0  0  0  0  0  0  0  0  0  0  0
    2.4509   -0.6796   -2.6244 H   0  0  0  0  0  0  0  0  0  0  0  0
    3.7881    0.3805   -2.2618 H   0  0  0  0  0  0  0  0  0  0  0  0
    1.9067   -2.4562   -6.1875 C   0  0  0  0  0  0  0  0  0  0  0  0
    1.3837   -1.3841   -6.9123 C   0  0  0  0  0  0  0  0  0  0  0  0
    0.4385   -0.5385   -6.3282 C   0  0  0  0  0  0  0  0  0  0  0  0
    0.0113   -0.7687   -5.0206 C   0  0  0  0  0  0  0  0  0  0  0  0
    0.5323   -1.8443   -4.2962 C   0  0  0  0  0  0  0  0  0  0  0  0
    1.4832   -2.6863   -4.8779 C   0  0  0  0  0  0  0  0  0  0  0  0
    2.6401   -3.1132   -6.6411 H   0  0  0  0  0  0  0  0  0  0  0  0
    1.7081   -1.2109   -7.9325 H   0  0  0  0  0  0  0  0  0  0  0  0
    0.0273    0.2894   -6.8953 H   0  0  0  0  0  0  0  0  0  0  0  0
   -0.7361   -0.1235   -4.5718 H   0  0  0  0  0  0  0  0  0  0  0  0
    0.1851   -2.0405   -3.2871 H   0  0  0  0  0  0  0  0  0  0  0  0
    1.8879   -3.5178   -4.3127 H   0  0  0  0  0  0  0  0  0  0  0  0
    4.8752   -2.0949   -1.1094 Al  0  0  0  0  0  0  0  0  0  0  0  0
    5.8810   -3.1962    0.3819 Cl  0  0  0  0  0  0  0  0  0  0  0  0
    5.1578    0.1024   -0.8555 Cl  0  0  0  0  0  0  0  0  0  0  0  0
    5.4490   -2.4772   -3.1527 Cl  0  0  0  0  0  0  0  0  0  0  0  0
    2.6869   -2.3239   -1.0487 Cl  0  0  0  0  0  0  0  0  0  0  0  0
  1  3  1  0  0  0  0
  2  1  1  0  0  0  0
  3  4  1  0  0  0  0
  3  5  1  0  0  0  0
  6 11  2  0  0  0  0
  7  8  2  0  0  0  0
  7  6  1  0  0  0  0
  8  9  1  0  0  0  0
  9 15  1  0  0  0  0
  9 10  2  0  0  0  0
 10 16  1  0  0  0  0
 11 17  1  0  0  0  0
 11 10  1  0  0  0  0
 12  6  1  0  0  0  0
 13  7  1  0  0  0  0
 14  8  1  0  0  0  0
 18 22  1  0  0  0  0
 18 20  1  0  0  0  0
 18 19  1  0  0  0  0
 21 18  1  0  0  0  0
M  RAD  2   1   2   2   3
M  END
