Coordinates from ORCA-job C6H6+AlCl4-+NH2N2+-scan
 OpenBabel10161817473D

 22 20  0  0  0  0  0  0  0  0999 V2000
    3.7128   -0.2454   -4.4681 N   0  0  0  0  0  0  0  0  0  0  0  0
    4.0261   -0.6055   -5.4722 N   0  0  0  0  0  0  0  0  0  0  0  0
    3.3754    0.2710   -3.3503 N   0  0  0  0  0  0  0  0  0  0  0  0
    2.6084   -0.2424   -2.8658 H   0  0  0  0  0  0  0  0  0  0  0  0
    4.1974    0.4399   -2.6879 H   0  0  0  0  0  0  0  0  0  0  0  0
    1.6090   -2.2687   -6.7964 C   0  0  0  0  0  0  0  0  0  0  0  0
    0.9801   -1.0232   -6.8557 C   0  0  0  0  0  0  0  0  0  0  0  0
    0.3962   -0.4823   -5.7105 C   0  0  0  0  0  0  0  0  0  0  0  0
    0.4400   -1.1885   -4.5056 C   0  0  0  0  0  0  0  0  0  0  0  0
    1.0718   -2.4333   -4.4455 C   0  0  0  0  0  0  0  0  0  0  0  0
    1.6557   -2.9726   -5.5924 C   0  0  0  0  0  0  0  0  0  0  0  0
    2.0570   -2.6918   -7.6887 H   0  0  0  0  0  0  0  0  0  0  0  0
    0.9380   -0.4813   -7.7942 H   0  0  0  0  0  0  0  0  0  0  0  0
   -0.1057    0.4781   -5.7585 H   0  0  0  0  0  0  0  0  0  0  0  0
   -0.0348   -0.7816   -3.6188 H   0  0  0  0  0  0  0  0  0  0  0  0
    1.1046   -2.9796   -3.5100 H   0  0  0  0  0  0  0  0  0  0  0  0
    2.1435   -3.9396   -5.5457 H   0  0  0  0  0  0  0  0  0  0  0  0
    4.3011   -1.6667   -0.6271 Al  0  0  0  0  0  0  0  0  0  0  0  0
    4.7744   -2.4068    1.2902 Cl  0  0  0  0  0  0  0  0  0  0  0  0
    5.3153    0.2723   -1.0461 Cl  0  0  0  0  0  0  0  0  0  0  0  0
    4.8111   -2.9166   -2.3082 Cl  0  0  0  0  0  0  0  0  0  0  0  0
    2.1673   -1.1760   -0.8760 Cl  0  0  0  0  0  0  0  0  0  0  0  0
  1  3  1  0  0  0  0
  2  1  1  0  0  0  0
  3  4  1  0  0  0  0
  3  5  1  0  0  0  0
  6 11  1  0  0  0  0
  7  6  2  0  0  0  0
  7  8  1  0  0  0  0
  8  9  2  0  0  0  0
  9 10  1  0  0  0  0
  9 15  1  0  0  0  0
 10 16  1  0  0  0  0
 11 17  1  0  0  0  0
 11 10  2  0  0  0  0
 12  6  1  0  0  0  0
 13  7  1  0  0  0  0
 14  8  1  0  0  0  0
 18 19  1  0  0  0  0
 20 18  1  0  0  0  0
 21 18  1  0  0  0  0
 22 18  1  0  0  0  0
M  RAD  2   1   2   2   3
M  END
