Coordinates from ORCA-job C6H6+AlCl4-+NH2N2+-scan
 OpenBabel10161817473D

 22 20  0  0  0  0  0  0  0  0999 V2000
    6.6014   -2.5976   -5.5082 N   0  0  0  0  0  0  0  0  0  0  0  0
    7.6612   -2.7239   -5.7530 N   0  0  0  0  0  0  0  0  0  0  0  0
    3.6385   -1.9797   -4.0977 N   0  0  0  0  0  0  0  0  0  0  0  0
    3.6639   -1.9496   -3.0706 H   0  0  0  0  0  0  0  0  0  0  0  0
    4.4851   -2.2527   -4.5801 H   0  0  0  0  0  0  0  0  0  0  0  0
    1.3652   -1.3701   -6.8850 C   0  0  0  0  0  0  0  0  0  0  0  0
    2.5117   -1.6928   -6.2146 C   0  0  0  0  0  0  0  0  0  0  0  0
    2.5328   -1.6379   -4.7940 C   0  0  0  0  0  0  0  0  0  0  0  0
    1.3287   -1.1726   -4.0568 C   0  0  0  0  0  0  0  0  0  0  0  0
    0.1298   -0.8857   -4.8780 C   0  0  0  0  0  0  0  0  0  0  0  0
    0.1538   -0.9690   -6.2242 C   0  0  0  0  0  0  0  0  0  0  0  0
    1.3661   -1.4245   -7.9689 H   0  0  0  0  0  0  0  0  0  0  0  0
    3.4009   -2.0031   -6.7507 H   0  0  0  0  0  0  0  0  0  0  0  0
    1.6107   -0.2499   -3.5047 H   0  0  0  0  0  0  0  0  0  0  0  0
    1.0788   -1.8487   -3.2258 H   0  0  0  0  0  0  0  0  0  0  0  0
   -0.7633   -0.5842   -4.3427 H   0  0  0  0  0  0  0  0  0  0  0  0
   -0.7216   -0.7403   -6.8188 H   0  0  0  0  0  0  0  0  0  0  0  0
    2.2846   -0.5651   -0.2328 Al  0  0  0  0  0  0  0  0  0  0  0  0
    0.3642   -1.5072   -0.5990 Cl  0  0  0  0  0  0  0  0  0  0  0  0
    2.4649    1.0941   -1.6470 Cl  0  0  0  0  0  0  0  0  0  0  0  0
    2.5723    0.0407    1.7815 Cl  0  0  0  0  0  0  0  0  0  0  0  0
    3.8150   -2.0206   -0.8625 Cl  0  0  0  0  0  0  0  0  0  0  0  0
  2  1  3  0  0  0  0
  3  4  1  0  0  0  0
  5  3  1  0  0  0  0
  6 11  1  0  0  0  0
  6  7  1  0  0  0  0
  7  8  2  0  0  0  0
  8  3  1  0  0  0  0
  8  9  1  0  0  0  0
  9 14  1  0  0  0  0
  9 15  1  0  0  0  0
 10 16  1  0  0  0  0
 10  9  1  0  0  0  0
 11 10  2  0  0  0  0
 12  6  1  0  0  0  0
 13  7  1  0  0  0  0
 17 11  1  0  0  0  0
 18 21  1  0  0  0  0
 19 18  1  0  0  0  0
 20 18  1  0  0  0  0
 22 18  1  0  0  0  0
M  RAD  1   6   2
M  END
