Coordinates from ORCA-job C6H6+AlCl4-+NH2N2+-scan
 OpenBabel10161817473D

 22 20  0  0  0  0  0  0  0  0999 V2000
    3.9986   -0.9037   -4.5633 N   0  0  0  0  0  0  0  0  0  0  0  0
    4.2413   -1.6766   -5.3248 N   0  0  0  0  0  0  0  0  0  0  0  0
    3.7882    0.0574   -3.7499 N   0  0  0  0  0  0  0  0  0  0  0  0
    2.8654    0.0070   -3.2700 H   0  0  0  0  0  0  0  0  0  0  0  0
    4.5799    0.2086   -3.0467 H   0  0  0  0  0  0  0  0  0  0  0  0
    1.3567   -1.8066   -6.9972 C   0  0  0  0  0  0  0  0  0  0  0  0
    0.9311   -0.6627   -6.3225 C   0  0  0  0  0  0  0  0  0  0  0  0
    0.6380   -0.7274   -4.9582 C   0  0  0  0  0  0  0  0  0  0  0  0
    0.7706   -1.9360   -4.2692 C   0  0  0  0  0  0  0  0  0  0  0  0
    1.1973   -3.0793   -4.9461 C   0  0  0  0  0  0  0  0  0  0  0  0
    1.4898   -3.0144   -6.3087 C   0  0  0  0  0  0  0  0  0  0  0  0
    1.5762   -1.7608   -8.0583 H   0  0  0  0  0  0  0  0  0  0  0  0
    0.8137    0.2726   -6.8589 H   0  0  0  0  0  0  0  0  0  0  0  0
    0.2826    0.1552   -4.4363 H   0  0  0  0  0  0  0  0  0  0  0  0
    0.5371   -1.9858   -3.2119 H   0  0  0  0  0  0  0  0  0  0  0  0
    1.2992   -4.0165   -4.4109 H   0  0  0  0  0  0  0  0  0  0  0  0
    1.8155   -3.9045   -6.8356 H   0  0  0  0  0  0  0  0  0  0  0  0
    3.8635   -0.9071   -0.4191 Al  0  0  0  0  0  0  0  0  0  0  0  0
    3.9630   -0.9878    1.6861 Cl  0  0  0  0  0  0  0  0  0  0  0  0
    5.4849    0.3556   -1.2813 Cl  0  0  0  0  0  0  0  0  0  0  0  0
    4.0210   -2.7804   -1.4747 Cl  0  0  0  0  0  0  0  0  0  0  0  0
    2.0310    0.0526   -1.1761 Cl  0  0  0  0  0  0  0  0  0  0  0  0
  1  3  1  0  0  0  0
  2  1  1  0  0  0  0
  3  4  1  0  0  0  0
  3  5  1  0  0  0  0
  6  7  2  0  0  0  0
  6 11  1  0  0  0  0
  7  8  1  0  0  0  0
  8 14  1  0  0  0  0
  8  9  2  0  0  0  0
  9 15  1  0  0  0  0
 10 16  1  0  0  0  0
 10  9  1  0  0  0  0
 11 10  2  0  0  0  0
 12  6  1  0  0  0  0
 13  7  1  0  0  0  0
 17 11  1  0  0  0  0
 18 19  1  0  0  0  0
 20 18  1  0  0  0  0
 21 18  1  0  0  0  0
 22 18  1  0  0  0  0
M  RAD  2   1   2   2   3
M  END
