Coordinates from ORCA-job C6H6+AlCl4-+NH2N2+-scan
 OpenBabel10161817473D

 22 19  0  0  0  0  0  0  0  0999 V2000
    6.4958   -1.8743   -4.4631 N   0  0  0  0  0  0  0  0  0  0  0  0
    7.4011   -1.4325   -4.0333 N   0  0  0  0  0  0  0  0  0  0  0  0
    3.2840   -3.2734   -4.5128 N   0  0  0  0  0  0  0  0  0  0  0  0
    3.2497   -3.3758   -3.5048 H   0  0  0  0  0  0  0  0  0  0  0  0
    4.2142   -2.9801   -4.7882 H   0  0  0  0  0  0  0  0  0  0  0  0
    1.4133   -0.7758   -6.6916 C   0  0  0  0  0  0  0  0  0  0  0  0
    2.4128   -1.6159   -6.2121 C   0  0  0  0  0  0  0  0  0  0  0  0
    2.2427   -2.2730   -4.9902 C   0  0  0  0  0  0  0  0  0  0  0  0
    1.0695   -2.0643   -4.2466 C   0  0  0  0  0  0  0  0  0  0  0  0
    0.0582   -1.2357   -4.7586 C   0  0  0  0  0  0  0  0  0  0  0  0
    0.2300   -0.5808   -5.9735 C   0  0  0  0  0  0  0  0  0  0  0  0
    1.5567   -0.2701   -7.6403 H   0  0  0  0  0  0  0  0  0  0  0  0
    3.3172   -1.7764   -6.7878 H   0  0  0  0  0  0  0  0  0  0  0  0
    1.7841   -0.4131   -3.4626 H   0  0  0  0  0  0  0  0  0  0  0  0
    0.9089   -2.6106   -3.3228 H   0  0  0  0  0  0  0  0  0  0  0  0
   -0.8535   -1.1018   -4.1870 H   0  0  0  0  0  0  0  0  0  0  0  0
   -0.5462    0.0675   -6.3613 H   0  0  0  0  0  0  0  0  0  0  0  0
    2.6969   -0.3861   -0.6192 Al  0  0  0  0  0  0  0  0  0  0  0  0
    0.7394   -1.0487   -0.1696 Cl  0  0  0  0  0  0  0  0  0  0  0  0
    2.3490    0.6358   -2.8227 Cl  0  0  0  0  0  0  0  0  0  0  0  0
    3.4564    1.2820    0.4154 Cl  0  0  0  0  0  0  0  0  0  0  0  0
    4.0646   -1.9376   -1.1007 Cl  0  0  0  0  0  0  0  0  0  0  0  0
  1  2  3  0  0  0  0
  3  4  1  0  0  0  0
  5  3  1  0  0  0  0
  6  7  2  0  0  0  0
  6 11  1  0  0  0  0
  7  8  1  0  0  0  0
  8  3  1  0  0  0  0
  8  9  2  0  0  0  0
  9 15  1  0  0  0  0
 10  9  1  0  0  0  0
 10 16  1  0  0  0  0
 11 10  2  0  0  0  0
 12  6  1  0  0  0  0
 13  7  1  0  0  0  0
 14 20  1  0  0  0  0
 17 11  1  0  0  0  0
 18 19  1  0  0  0  0
 18 21  1  0  0  0  0
 22 18  1  0  0  0  0
M  END
