Coordinates from ORCA-job C6H6+AlCl4-+NH2N2+-scan
 OpenBabel10161817473D

 22 20  0  0  0  0  0  0  0  0999 V2000
    3.7043   -0.2627   -4.4797 N   0  0  0  0  0  0  0  0  0  0  0  0
    4.0284   -0.6229   -5.4803 N   0  0  0  0  0  0  0  0  0  0  0  0
    3.3568    0.2589   -3.3670 N   0  0  0  0  0  0  0  0  0  0  0  0
    2.5930   -0.2581   -2.8821 H   0  0  0  0  0  0  0  0  0  0  0  0
    4.1753    0.4387   -2.7033 H   0  0  0  0  0  0  0  0  0  0  0  0
    1.6086   -2.2651   -6.7939 C   0  0  0  0  0  0  0  0  0  0  0  0
    0.9980   -1.0101   -6.8413 C   0  0  0  0  0  0  0  0  0  0  0  0
    0.4214   -0.4719   -5.6910 C   0  0  0  0  0  0  0  0  0  0  0  0
    0.4526   -1.1916   -4.4937 C   0  0  0  0  0  0  0  0  0  0  0  0
    1.0670   -2.4457   -4.4453 C   0  0  0  0  0  0  0  0  0  0  0  0
    1.6446   -2.9815   -5.5969 C   0  0  0  0  0  0  0  0  0  0  0  0
    2.0512   -2.6858   -7.6901 H   0  0  0  0  0  0  0  0  0  0  0  0
    0.9646   -0.4583   -7.7743 H   0  0  0  0  0  0  0  0  0  0  0  0
   -0.0668    0.4959   -5.7298 H   0  0  0  0  0  0  0  0  0  0  0  0
   -0.0181   -0.7874   -3.6035 H   0  0  0  0  0  0  0  0  0  0  0  0
    1.0911   -3.0014   -3.5151 H   0  0  0  0  0  0  0  0  0  0  0  0
    2.1197   -3.9552   -5.5594 H   0  0  0  0  0  0  0  0  0  0  0  0
    4.2987   -1.6546   -0.6307 Al  0  0  0  0  0  0  0  0  0  0  0  0
    4.7787   -2.3820    1.2899 Cl  0  0  0  0  0  0  0  0  0  0  0  0
    5.2873    0.2967   -1.0542 Cl  0  0  0  0  0  0  0  0  0  0  0  0
    4.8290   -2.9029   -2.3068 Cl  0  0  0  0  0  0  0  0  0  0  0  0
    2.1592   -1.1937   -0.8850 Cl  0  0  0  0  0  0  0  0  0  0  0  0
  1  3  1  0  0  0  0
  2  1  1  0  0  0  0
  3  4  1  0  0  0  0
  3  5  1  0  0  0  0
  6 11  1  0  0  0  0
  7  6  2  0  0  0  0
  7  8  1  0  0  0  0
  8  9  2  0  0  0  0
  9 10  1  0  0  0  0
  9 15  1  0  0  0  0
 10 16  1  0  0  0  0
 11 17  1  0  0  0  0
 11 10  2  0  0  0  0
 12  6  1  0  0  0  0
 13  7  1  0  0  0  0
 14  8  1  0  0  0  0
 18 19  1  0  0  0  0
 20 18  1  0  0  0  0
 21 18  1  0  0  0  0
 22 18  1  0  0  0  0
M  RAD  2   1   2   2   3
M  END
