Coordinates from ORCA-job C6H6+AlCl4-+NH2N2+-scan
 OpenBabel10161817473D

 22 20  0  0  0  0  0  0  0  0999 V2000
    3.6165   -0.1516   -4.3981 N   0  0  0  0  0  0  0  0  0  0  0  0
    3.9366   -0.3944   -5.4348 N   0  0  0  0  0  0  0  0  0  0  0  0
    3.2624    0.2358   -3.2344 N   0  0  0  0  0  0  0  0  0  0  0  0
    2.5717   -0.3931   -2.7727 H   0  0  0  0  0  0  0  0  0  0  0  0
    4.0838    0.4426   -2.5815 H   0  0  0  0  0  0  0  0  0  0  0  0
    1.6866   -2.3251   -6.6971 C   0  0  0  0  0  0  0  0  0  0  0  0
    1.0494   -1.1040   -6.9284 C   0  0  0  0  0  0  0  0  0  0  0  0
    0.3650   -0.4670   -5.8935 C   0  0  0  0  0  0  0  0  0  0  0  0
    0.3127   -1.0545   -4.6275 C   0  0  0  0  0  0  0  0  0  0  0  0
    0.9500   -2.2766   -4.3958 C   0  0  0  0  0  0  0  0  0  0  0  0
    1.6387   -2.9102   -5.4315 C   0  0  0  0  0  0  0  0  0  0  0  0
    2.2148   -2.8217   -7.5036 H   0  0  0  0  0  0  0  0  0  0  0  0
    1.0805   -0.6549   -7.9150 H   0  0  0  0  0  0  0  0  0  0  0  0
   -0.1402    0.4752   -6.0758 H   0  0  0  0  0  0  0  0  0  0  0  0
   -0.2397   -0.5726   -3.8275 H   0  0  0  0  0  0  0  0  0  0  0  0
    0.9037   -2.7366   -3.4153 H   0  0  0  0  0  0  0  0  0  0  0  0
    2.1340   -3.8571   -5.2496 H   0  0  0  0  0  0  0  0  0  0  0  0
    4.4614   -1.7870   -0.6915 Al  0  0  0  0  0  0  0  0  0  0  0  0
    5.0818   -2.6139    1.1467 Cl  0  0  0  0  0  0  0  0  0  0  0  0
    5.2903    0.2578   -1.0070 Cl  0  0  0  0  0  0  0  0  0  0  0  0
    4.9987   -2.8675   -2.4782 Cl  0  0  0  0  0  0  0  0  0  0  0  0
    2.2859   -1.4645   -0.8215 Cl  0  0  0  0  0  0  0  0  0  0  0  0
  1  3  1  0  0  0  0
  2  1  1  0  0  0  0
  3  4  1  0  0  0  0
  3  5  1  0  0  0  0
  6 11  1  0  0  0  0
  7  6  2  0  0  0  0
  7  8  1  0  0  0  0
  8  9  2  0  0  0  0
  9 10  1  0  0  0  0
  9 15  1  0  0  0  0
 10 16  1  0  0  0  0
 11 17  1  0  0  0  0
 11 10  2  0  0  0  0
 12  6  1  0  0  0  0
 13  7  1  0  0  0  0
 14  8  1  0  0  0  0
 18 19  1  0  0  0  0
 20 18  1  0  0  0  0
 21 18  1  0  0  0  0
 22 18  1  0  0  0  0
M  RAD  2   1   2   2   3
M  END
