Coordinates from ORCA-job C6H6+AlCl4-+NH2N2+-scan
 OpenBabel10161817473D

 22 20  0  0  0  0  0  0  0  0999 V2000
    3.3487    0.5943   -3.2273 N   0  0  0  0  0  0  0  0  0  0  0  0
    3.2698    0.8735   -4.3006 N   0  0  0  0  0  0  0  0  0  0  0  0
    3.3805    0.3402   -1.9769 N   0  0  0  0  0  0  0  0  0  0  0  0
    2.9641   -0.6023   -1.7274 H   0  0  0  0  0  0  0  0  0  0  0  0
    4.3526    0.4042   -1.5512 H   0  0  0  0  0  0  0  0  0  0  0  0
    1.9693   -2.0452   -5.7728 C   0  0  0  0  0  0  0  0  0  0  0  0
    1.5278   -1.4650   -6.9630 C   0  0  0  0  0  0  0  0  0  0  0  0
    0.2146   -1.0070   -7.0726 C   0  0  0  0  0  0  0  0  0  0  0  0
   -0.6562   -1.1230   -5.9890 C   0  0  0  0  0  0  0  0  0  0  0  0
   -0.2166   -1.7025   -4.7987 C   0  0  0  0  0  0  0  0  0  0  0  0
    1.0953   -2.1661   -4.6906 C   0  0  0  0  0  0  0  0  0  0  0  0
    2.9846   -2.4176   -5.6897 H   0  0  0  0  0  0  0  0  0  0  0  0
    2.2041   -1.3799   -7.8066 H   0  0  0  0  0  0  0  0  0  0  0  0
   -0.1300   -0.5635   -8.0005 H   0  0  0  0  0  0  0  0  0  0  0  0
   -1.6784   -0.7705   -6.0752 H   0  0  0  0  0  0  0  0  0  0  0  0
   -0.8990   -1.8060   -3.9617 H   0  0  0  0  0  0  0  0  0  0  0  0
    1.4316   -2.6430   -3.7754 H   0  0  0  0  0  0  0  0  0  0  0  0
    5.3542   -2.4170   -1.3654 Al  0  0  0  0  0  0  0  0  0  0  0  0
    6.4191   -3.9967   -0.4683 Cl  0  0  0  0  0  0  0  0  0  0  0  0
    5.9423   -0.4273   -0.5760 Cl  0  0  0  0  0  0  0  0  0  0  0  0
    5.4893   -2.2198   -3.5070 Cl  0  0  0  0  0  0  0  0  0  0  0  0
    3.1770   -2.5002   -0.9380 Cl  0  0  0  0  0  0  0  0  0  0  0  0
  1  3  1  0  0  0  0
  2  1  1  0  0  0  0
  3  4  1  0  0  0  0
  3  5  1  0  0  0  0
  6 12  1  0  0  0  0
  6 11  2  0  0  0  0
  7  6  1  0  0  0  0
  8  7  2  0  0  0  0
  8  9  1  0  0  0  0
  9 10  2  0  0  0  0
 10 11  1  0  0  0  0
 10 16  1  0  0  0  0
 11 17  1  0  0  0  0
 13  7  1  0  0  0  0
 14  8  1  0  0  0  0
 15  9  1  0  0  0  0
 18 22  1  0  0  0  0
 18 20  1  0  0  0  0
 18 19  1  0  0  0  0
 21 18  1  0  0  0  0
M  RAD  2   1   2   2   3
M  END
