Coordinates from ORCA-job C6H6+AlCl4-+NH2N2+-scan
 OpenBabel10161817473D

 22 20  0  0  0  0  0  0  0  0999 V2000
    4.0041    0.6286    0.3127 N   0  0  0  0  0  0  0  0  0  0  0  0
    3.5143    1.6261    0.3651 N   0  0  0  0  0  0  0  0  0  0  0  0
    4.5619   -0.5152    0.3458 N   0  0  0  0  0  0  0  0  0  0  0  0
    3.9821   -1.2922   -0.0998 H   0  0  0  0  0  0  0  0  0  0  0  0
    5.5323   -0.5331   -0.0903 H   0  0  0  0  0  0  0  0  0  0  0  0
    0.7682   -2.9559   -7.0050 C   0  0  0  0  0  0  0  0  0  0  0  0
    1.7008   -2.1340   -6.3731 C   0  0  0  0  0  0  0  0  0  0  0  0
    1.3008   -0.9107   -5.8356 C   0  0  0  0  0  0  0  0  0  0  0  0
   -0.0317   -0.5106   -5.9319 C   0  0  0  0  0  0  0  0  0  0  0  0
   -0.9641   -1.3321   -6.5643 C   0  0  0  0  0  0  0  0  0  0  0  0
   -0.5639   -2.5554   -7.1007 C   0  0  0  0  0  0  0  0  0  0  0  0
    1.0801   -3.9075   -7.4220 H   0  0  0  0  0  0  0  0  0  0  0  0
    2.7375   -2.4440   -6.2989 H   0  0  0  0  0  0  0  0  0  0  0  0
    2.0270   -0.2743   -5.3423 H   0  0  0  0  0  0  0  0  0  0  0  0
   -0.3427    0.4417   -5.5151 H   0  0  0  0  0  0  0  0  0  0  0  0
   -2.0004   -1.0198   -6.6397 H   0  0  0  0  0  0  0  0  0  0  0  0
   -1.2890   -3.1951   -7.5929 H   0  0  0  0  0  0  0  0  0  0  0  0
    5.1199   -1.6608   -2.8169 Al  0  0  0  0  0  0  0  0  0  0  0  0
    5.6440   -2.7747   -4.5260 Cl  0  0  0  0  0  0  0  0  0  0  0  0
    6.8458   -1.2381   -1.4890 Cl  0  0  0  0  0  0  0  0  0  0  0  0
    4.1981    0.2626   -3.1334 Cl  0  0  0  0  0  0  0  0  0  0  0  0
    3.7192   -2.7459   -1.4804 Cl  0  0  0  0  0  0  0  0  0  0  0  0
  1  3  1  0  0  0  0
  1  2  1  0  0  0  0
  4  3  1  0  0  0  0
  5  3  1  0  0  0  0
  6  7  1  0  0  0  0
  7 13  1  0  0  0  0
  7  8  2  0  0  0  0
  8 14  1  0  0  0  0
  9  8  1  0  0  0  0
  9 15  1  0  0  0  0
 10  9  2  0  0  0  0
 11  6  2  0  0  0  0
 11 10  1  0  0  0  0
 12  6  1  0  0  0  0
 16 10  1  0  0  0  0
 17 11  1  0  0  0  0
 18 20  1  0  0  0  0
 18 22  1  0  0  0  0
 19 18  1  0  0  0  0
 21 18  1  0  0  0  0
M  RAD  2   1   2   2   3
M  END
