Coordinates from ORCA-job C6H6+AlCl4-+NH2N2+-scan
 OpenBabel10161817473D

 22 20  0  0  0  0  0  0  0  0999 V2000
    3.8292   -1.1597   -4.4328 N   0  0  0  0  0  0  0  0  0  0  0  0
    4.2357   -1.9417   -5.1083 N   0  0  0  0  0  0  0  0  0  0  0  0
    3.3952   -0.1764   -3.7399 N   0  0  0  0  0  0  0  0  0  0  0  0
    2.5965   -0.4296   -3.1201 H   0  0  0  0  0  0  0  0  0  0  0  0
    4.1662    0.2771   -3.1598 H   0  0  0  0  0  0  0  0  0  0  0  0
    1.4666   -1.7115   -7.0287 C   0  0  0  0  0  0  0  0  0  0  0  0
    1.2824   -0.5854   -6.2276 C   0  0  0  0  0  0  0  0  0  0  0  0
    0.9518   -0.7357   -4.8782 C   0  0  0  0  0  0  0  0  0  0  0  0
    0.7707   -2.0129   -4.3413 C   0  0  0  0  0  0  0  0  0  0  0  0
    0.9614   -3.1391   -5.1446 C   0  0  0  0  0  0  0  0  0  0  0  0
    1.3109   -2.9888   -6.4860 C   0  0  0  0  0  0  0  0  0  0  0  0
    1.7218   -1.5954   -8.0762 H   0  0  0  0  0  0  0  0  0  0  0  0
    1.3896    0.4070   -6.6517 H   0  0  0  0  0  0  0  0  0  0  0  0
    0.7640    0.1418   -4.2692 H   0  0  0  0  0  0  0  0  0  0  0  0
    0.4799   -2.1301   -3.3032 H   0  0  0  0  0  0  0  0  0  0  0  0
    0.8261   -4.1297   -4.7255 H   0  0  0  0  0  0  0  0  0  0  0  0
    1.4519   -3.8636   -7.1108 H   0  0  0  0  0  0  0  0  0  0  0  0
    4.0107   -0.6929   -0.3672 Al  0  0  0  0  0  0  0  0  0  0  0  0
    4.2645   -0.5357    1.7203 Cl  0  0  0  0  0  0  0  0  0  0  0  0
    5.1093    0.8923   -1.4732 Cl  0  0  0  0  0  0  0  0  0  0  0  0
    4.6386   -2.5366   -1.2930 Cl  0  0  0  0  0  0  0  0  0  0  0  0
    1.9217   -0.3939   -1.0167 Cl  0  0  0  0  0  0  0  0  0  0  0  0
  1  3  1  0  0  0  0
  2  1  1  0  0  0  0
  3  5  1  0  0  0  0
  3  4  1  0  0  0  0
  6 11  2  0  0  0  0
  6  7  1  0  0  0  0
  7  8  2  0  0  0  0
  8  9  1  0  0  0  0
  8 14  1  0  0  0  0
  9 15  1  0  0  0  0
 10 16  1  0  0  0  0
 10  9  2  0  0  0  0
 11 10  1  0  0  0  0
 12  6  1  0  0  0  0
 13  7  1  0  0  0  0
 17 11  1  0  0  0  0
 18 19  1  0  0  0  0
 20 18  1  0  0  0  0
 21 18  1  0  0  0  0
 22 18  1  0  0  0  0
M  RAD  2   1   2   2   3
M  END
