Coordinates from ORCA-job C6H6+AlCl4-+NH2N2+-scan
 OpenBabel10161817473D

 22 20  0  0  0  0  0  0  0  0999 V2000
    3.9415   -1.0663   -4.5416 N   0  0  0  0  0  0  0  0  0  0  0  0
    4.2432   -1.8901   -5.2237 N   0  0  0  0  0  0  0  0  0  0  0  0
    3.6702   -0.0481   -3.8215 N   0  0  0  0  0  0  0  0  0  0  0  0
    2.7432   -0.1014   -3.3611 H   0  0  0  0  0  0  0  0  0  0  0  0
    4.4470    0.2000   -3.1275 H   0  0  0  0  0  0  0  0  0  0  0  0
    1.3792   -1.7036   -6.9811 C   0  0  0  0  0  0  0  0  0  0  0  0
    1.0948   -0.6053   -6.1708 C   0  0  0  0  0  0  0  0  0  0  0  0
    0.8350   -0.7925   -4.8102 C   0  0  0  0  0  0  0  0  0  0  0  0
    0.8486   -2.0779   -4.2628 C   0  0  0  0  0  0  0  0  0  0  0  0
    1.1360   -3.1752   -5.0761 C   0  0  0  0  0  0  0  0  0  0  0  0
    1.4009   -2.9879   -6.4330 C   0  0  0  0  0  0  0  0  0  0  0  0
    1.5744   -1.5621   -8.0384 H   0  0  0  0  0  0  0  0  0  0  0  0
    1.0614    0.3914   -6.5971 H   0  0  0  0  0  0  0  0  0  0  0  0
    0.5732    0.0563   -4.1858 H   0  0  0  0  0  0  0  0  0  0  0  0
    0.6344   -2.2205   -3.2097 H   0  0  0  0  0  0  0  0  0  0  0  0
    1.1475   -4.1728   -4.6521 H   0  0  0  0  0  0  0  0  0  0  0  0
    1.6177   -3.8420   -7.0649 H   0  0  0  0  0  0  0  0  0  0  0  0
    3.8310   -0.7331   -0.4177 Al  0  0  0  0  0  0  0  0  0  0  0  0
    3.9970   -0.6717    1.6844 Cl  0  0  0  0  0  0  0  0  0  0  0  0
    5.3806    0.5274   -1.4087 Cl  0  0  0  0  0  0  0  0  0  0  0  0
    4.0400   -2.6677   -1.3506 Cl  0  0  0  0  0  0  0  0  0  0  0  0
    1.9478    0.1024   -1.1835 Cl  0  0  0  0  0  0  0  0  0  0  0  0
  1  3  1  0  0  0  0
  2  1  1  0  0  0  0
  3  4  1  0  0  0  0
  3  5  1  0  0  0  0
  6 11  2  0  0  0  0
  6  7  1  0  0  0  0
  7  8  2  0  0  0  0
  8  9  1  0  0  0  0
  8 14  1  0  0  0  0
  9 15  1  0  0  0  0
 10 16  1  0  0  0  0
 10  9  2  0  0  0  0
 11 10  1  0  0  0  0
 12  6  1  0  0  0  0
 13  7  1  0  0  0  0
 17 11  1  0  0  0  0
 18 19  1  0  0  0  0
 20 18  1  0  0  0  0
 21 18  1  0  0  0  0
 22 18  1  0  0  0  0
M  RAD  2   1   2   2   3
M  END
