Coordinates from ORCA-job C6H6+AlCl4-+NH2N2+-scan
 OpenBabel10161817473D

 22 20  0  0  0  0  0  0  0  0999 V2000
    3.8121   -1.1916   -4.3928 N   0  0  0  0  0  0  0  0  0  0  0  0
    4.2401   -1.9567   -5.0743 N   0  0  0  0  0  0  0  0  0  0  0  0
    3.3278   -0.2311   -3.7020 N   0  0  0  0  0  0  0  0  0  0  0  0
    2.5804   -0.5358   -3.0365 H   0  0  0  0  0  0  0  0  0  0  0  0
    4.0814    0.2887   -3.1574 H   0  0  0  0  0  0  0  0  0  0  0  0
    1.4954   -1.7156   -7.0436 C   0  0  0  0  0  0  0  0  0  0  0  0
    1.3244   -0.5818   -6.2500 C   0  0  0  0  0  0  0  0  0  0  0  0
    0.9585   -0.7168   -4.9084 C   0  0  0  0  0  0  0  0  0  0  0  0
    0.7267   -1.9865   -4.3739 C   0  0  0  0  0  0  0  0  0  0  0  0
    0.9052   -3.1207   -5.1686 C   0  0  0  0  0  0  0  0  0  0  0  0
    1.2907   -2.9860   -6.5018 C   0  0  0  0  0  0  0  0  0  0  0  0
    1.7782   -1.6100   -8.0852 H   0  0  0  0  0  0  0  0  0  0  0  0
    1.4685    0.4057   -6.6751 H   0  0  0  0  0  0  0  0  0  0  0  0
    0.7784    0.1673   -4.3086 H   0  0  0  0  0  0  0  0  0  0  0  0
    0.4033   -2.0925   -3.3441 H   0  0  0  0  0  0  0  0  0  0  0  0
    0.7302   -4.1053   -4.7501 H   0  0  0  0  0  0  0  0  0  0  0  0
    1.4212   -3.8667   -7.1205 H   0  0  0  0  0  0  0  0  0  0  0  0
    4.0746   -0.6773   -0.3494 Al  0  0  0  0  0  0  0  0  0  0  0  0
    4.3503   -0.4863    1.7321 Cl  0  0  0  0  0  0  0  0  0  0  0  0
    5.0177    0.9825   -1.4860 Cl  0  0  0  0  0  0  0  0  0  0  0  0
    4.8263   -2.4718   -1.2779 Cl  0  0  0  0  0  0  0  0  0  0  0  0
    1.9532   -0.5523   -0.9594 Cl  0  0  0  0  0  0  0  0  0  0  0  0
  1  3  1  0  0  0  0
  2  1  1  0  0  0  0
  3  5  1  0  0  0  0
  3  4  1  0  0  0  0
  6 11  2  0  0  0  0
  6  7  1  0  0  0  0
  7  8  2  0  0  0  0
  8  9  1  0  0  0  0
  8 14  1  0  0  0  0
  9 15  1  0  0  0  0
 10 16  1  0  0  0  0
 10  9  2  0  0  0  0
 11 10  1  0  0  0  0
 12  6  1  0  0  0  0
 13  7  1  0  0  0  0
 17 11  1  0  0  0  0
 18 19  1  0  0  0  0
 20 18  1  0  0  0  0
 21 18  1  0  0  0  0
 22 18  1  0  0  0  0
M  RAD  2   1   2   2   3
M  END
