Coordinates from ORCA-job C6H6+AlCl4-+NH2N2+-scan
 OpenBabel10161817473D

 22 20  0  0  0  0  0  0  0  0999 V2000
    3.6175   -0.1496   -4.3919 N   0  0  0  0  0  0  0  0  0  0  0  0
    3.9367   -0.3931   -5.4286 N   0  0  0  0  0  0  0  0  0  0  0  0
    3.2667    0.2369   -3.2270 N   0  0  0  0  0  0  0  0  0  0  0  0
    2.5754   -0.3915   -2.7656 H   0  0  0  0  0  0  0  0  0  0  0  0
    4.0896    0.4424   -2.5753 H   0  0  0  0  0  0  0  0  0  0  0  0
    1.6869   -2.3243   -6.6995 C   0  0  0  0  0  0  0  0  0  0  0  0
    1.0452   -1.1062   -6.9342 C   0  0  0  0  0  0  0  0  0  0  0  0
    0.3567   -0.4700   -5.9015 C   0  0  0  0  0  0  0  0  0  0  0  0
    0.3066   -1.0543   -4.6339 C   0  0  0  0  0  0  0  0  0  0  0  0
    0.9484   -2.2735   -4.3988 C   0  0  0  0  0  0  0  0  0  0  0  0
    1.6397   -2.9072   -5.4327 C   0  0  0  0  0  0  0  0  0  0  0  0
    2.2177   -2.8207   -7.5043 H   0  0  0  0  0  0  0  0  0  0  0  0
    1.0758   -0.6592   -7.9217 H   0  0  0  0  0  0  0  0  0  0  0  0
   -0.1516    0.4701   -6.0862 H   0  0  0  0  0  0  0  0  0  0  0  0
   -0.2478   -0.5724   -3.8354 H   0  0  0  0  0  0  0  0  0  0  0  0
    0.9025   -2.7316   -3.4173 H   0  0  0  0  0  0  0  0  0  0  0  0
    2.1376   -3.8523   -5.2486 H   0  0  0  0  0  0  0  0  0  0  0  0
    4.4655   -1.7892   -0.6874 Al  0  0  0  0  0  0  0  0  0  0  0  0
    5.0892   -2.6161    1.1495 Cl  0  0  0  0  0  0  0  0  0  0  0  0
    5.3003    0.2531   -1.0065 Cl  0  0  0  0  0  0  0  0  0  0  0  0
    4.9950   -2.8720   -2.4751 Cl  0  0  0  0  0  0  0  0  0  0  0  0
    2.2910   -1.4598   -0.8116 Cl  0  0  0  0  0  0  0  0  0  0  0  0
  1  3  1  0  0  0  0
  2  1  1  0  0  0  0
  3  4  1  0  0  0  0
  3  5  1  0  0  0  0
  6 11  1  0  0  0  0
  7  6  2  0  0  0  0
  7  8  1  0  0  0  0
  8  9  2  0  0  0  0
  9 10  1  0  0  0  0
  9 15  1  0  0  0  0
 10 16  1  0  0  0  0
 11 17  1  0  0  0  0
 11 10  2  0  0  0  0
 12  6  1  0  0  0  0
 13  7  1  0  0  0  0
 14  8  1  0  0  0  0
 18 19  1  0  0  0  0
 20 18  1  0  0  0  0
 21 18  1  0  0  0  0
 22 18  1  0  0  0  0
M  RAD  2   1   2   2   3
M  END
