Coordinates from ORCA-job C6H6+AlCl4-+NH2N2+-scan
 OpenBabel10161817473D

 22 20  0  0  0  0  0  0  0  0999 V2000
    2.8511    0.3137   -3.7981 N   0  0  0  0  0  0  0  0  0  0  0  0
    2.9413    0.7917   -4.7978 N   0  0  0  0  0  0  0  0  0  0  0  0
    2.7157   -0.1345   -2.6112 N   0  0  0  0  0  0  0  0  0  0  0  0
    2.4896   -1.1468   -2.5680 H   0  0  0  0  0  0  0  0  0  0  0  0
    3.5336    0.1136   -1.9649 H   0  0  0  0  0  0  0  0  0  0  0  0
    1.8907   -2.5294   -5.5405 C   0  0  0  0  0  0  0  0  0  0  0  0
    1.8022   -1.6017   -6.5788 C   0  0  0  0  0  0  0  0  0  0  0  0
    0.8024   -0.6272   -6.5603 C   0  0  0  0  0  0  0  0  0  0  0  0
   -0.1160   -0.5829   -5.5105 C   0  0  0  0  0  0  0  0  0  0  0  0
   -0.0303   -1.5121   -4.4734 C   0  0  0  0  0  0  0  0  0  0  0  0
    0.9730   -2.4855   -4.4887 C   0  0  0  0  0  0  0  0  0  0  0  0
    2.6693   -3.2833   -5.5474 H   0  0  0  0  0  0  0  0  0  0  0  0
    2.5091   -1.6389   -7.4000 H   0  0  0  0  0  0  0  0  0  0  0  0
    0.7301    0.0880   -7.3724 H   0  0  0  0  0  0  0  0  0  0  0  0
   -0.9004    0.1659   -5.5061 H   0  0  0  0  0  0  0  0  0  0  0  0
   -0.7504   -1.4897   -3.6625 H   0  0  0  0  0  0  0  0  0  0  0  0
    1.0347   -3.2173   -3.6907 H   0  0  0  0  0  0  0  0  0  0  0  0
    5.3731   -2.1377   -1.6188 Al  0  0  0  0  0  0  0  0  0  0  0  0
    6.8351   -3.2357   -0.5670 Cl  0  0  0  0  0  0  0  0  0  0  0  0
    5.0845   -0.1011   -0.7558 Cl  0  0  0  0  0  0  0  0  0  0  0  0
    5.7478   -1.7814   -3.7134 Cl  0  0  0  0  0  0  0  0  0  0  0  0
    3.3581   -3.0084   -1.5072 Cl  0  0  0  0  0  0  0  0  0  0  0  0
  1  3  1  0  0  0  0
  2  1  1  0  0  0  0
  3  4  1  0  0  0  0
  3  5  1  0  0  0  0
  6 11  2  0  0  0  0
  7  8  2  0  0  0  0
  7  6  1  0  0  0  0
  8  9  1  0  0  0  0
  9 15  1  0  0  0  0
  9 10  2  0  0  0  0
 10 16  1  0  0  0  0
 11 10  1  0  0  0  0
 11 17  1  0  0  0  0
 12  6  1  0  0  0  0
 13  7  1  0  0  0  0
 14  8  1  0  0  0  0
 18 22  1  0  0  0  0
 18 20  1  0  0  0  0
 18 19  1  0  0  0  0
 21 18  1  0  0  0  0
M  RAD  2   1   2   2   3
M  END
