Coordinates from ORCA-job C6H6+AlCl4-+NH2N2+-scan
 OpenBabel10161817473D

 22 20  0  0  0  0  0  0  0  0999 V2000
    2.9730    0.3548   -3.5774 N   0  0  0  0  0  0  0  0  0  0  0  0
    3.0019    0.7559   -4.6136 N   0  0  0  0  0  0  0  0  0  0  0  0
    2.9016   -0.0179   -2.3584 N   0  0  0  0  0  0  0  0  0  0  0  0
    2.6502   -1.0275   -2.2401 H   0  0  0  0  0  0  0  0  0  0  0  0
    3.7764    0.2096   -1.7880 H   0  0  0  0  0  0  0  0  0  0  0  0
    1.9380   -2.3588   -5.6178 C   0  0  0  0  0  0  0  0  0  0  0  0
    1.7026   -1.5555   -6.7343 C   0  0  0  0  0  0  0  0  0  0  0  0
    0.5683   -0.7431   -6.7857 C   0  0  0  0  0  0  0  0  0  0  0  0
   -0.3266   -0.7266   -5.7153 C   0  0  0  0  0  0  0  0  0  0  0  0
   -0.0928   -1.5296   -4.5981 C   0  0  0  0  0  0  0  0  0  0  0  0
    1.0379   -2.3485   -4.5501 C   0  0  0  0  0  0  0  0  0  0  0  0
    2.8161   -2.9936   -5.5786 H   0  0  0  0  0  0  0  0  0  0  0  0
    2.3978   -1.5696   -7.5664 H   0  0  0  0  0  0  0  0  0  0  0  0
    0.3818   -0.1267   -7.6582 H   0  0  0  0  0  0  0  0  0  0  0  0
   -1.2103   -0.0994   -5.7568 H   0  0  0  0  0  0  0  0  0  0  0  0
   -0.7991   -1.5318   -3.7746 H   0  0  0  0  0  0  0  0  0  0  0  0
    1.2089   -2.9946   -3.6954 H   0  0  0  0  0  0  0  0  0  0  0  0
    5.4153   -2.2366   -1.5142 Al  0  0  0  0  0  0  0  0  0  0  0  0
    6.7843   -3.4858   -0.5100 Cl  0  0  0  0  0  0  0  0  0  0  0  0
    5.3907   -0.1740   -0.6746 Cl  0  0  0  0  0  0  0  0  0  0  0  0
    5.7121   -1.9566   -3.6308 Cl  0  0  0  0  0  0  0  0  0  0  0  0
    3.3165   -2.8846   -1.2952 Cl  0  0  0  0  0  0  0  0  0  0  0  0
  1  3  1  0  0  0  0
  2  1  1  0  0  0  0
  3  4  1  0  0  0  0
  3  5  1  0  0  0  0
  6 12  1  0  0  0  0
  6 11  2  0  0  0  0
  7  6  1  0  0  0  0
  8  7  2  0  0  0  0
  8  9  1  0  0  0  0
  9 10  2  0  0  0  0
 10 11  1  0  0  0  0
 10 16  1  0  0  0  0
 11 17  1  0  0  0  0
 13  7  1  0  0  0  0
 14  8  1  0  0  0  0
 15  9  1  0  0  0  0
 18 22  1  0  0  0  0
 18 20  1  0  0  0  0
 18 19  1  0  0  0  0
 21 18  1  0  0  0  0
M  RAD  2   1   2   2   3
M  END
