Coordinates from ORCA-job C6H6+AlCl4-+NH2N2+-scan
 OpenBabel10161817473D

 22 20  0  0  0  0  0  0  0  0999 V2000
    6.5671   -2.2946   -5.0382 N   0  0  0  0  0  0  0  0  0  0  0  0
    7.6608   -2.2874   -5.0893 N   0  0  0  0  0  0  0  0  0  0  0  0
    3.4208   -2.0108   -4.1349 N   0  0  0  0  0  0  0  0  0  0  0  0
    3.4079   -2.1103   -3.1023 H   0  0  0  0  0  0  0  0  0  0  0  0
    4.3271   -2.1972   -4.5584 H   0  0  0  0  0  0  0  0  0  0  0  0
    1.3833   -1.2776   -6.9137 C   0  0  0  0  0  0  0  0  0  0  0  0
    2.5083   -1.5723   -6.2161 C   0  0  0  0  0  0  0  0  0  0  0  0
    2.4718   -1.6809   -4.7732 C   0  0  0  0  0  0  0  0  0  0  0  0
    1.1824   -1.3225   -4.0763 C   0  0  0  0  0  0  0  0  0  0  0  0
    0.0015   -1.0782   -4.9484 C   0  0  0  0  0  0  0  0  0  0  0  0
    0.1017   -1.0435   -6.2875 C   0  0  0  0  0  0  0  0  0  0  0  0
    1.4433   -1.2216   -7.9959 H   0  0  0  0  0  0  0  0  0  0  0  0
    3.4483   -1.7591   -6.7246 H   0  0  0  0  0  0  0  0  0  0  0  0
    1.3898   -0.3983   -3.5070 H   0  0  0  0  0  0  0  0  0  0  0  0
    0.9507   -2.0514   -3.2910 H   0  0  0  0  0  0  0  0  0  0  0  0
   -0.9402   -0.8924   -4.4448 H   0  0  0  0  0  0  0  0  0  0  0  0
   -0.7584   -0.8370   -6.9119 H   0  0  0  0  0  0  0  0  0  0  0  0
    2.5856   -0.5546   -0.3605 Al  0  0  0  0  0  0  0  0  0  0  0  0
    0.4356   -0.7246   -0.4572 Cl  0  0  0  0  0  0  0  0  0  0  0  0
    3.2176    0.8007   -1.9537 Cl  0  0  0  0  0  0  0  0  0  0  0  0
    3.3436   -0.0074    1.5458 Cl  0  0  0  0  0  0  0  0  0  0  0  0
    3.3960   -2.5196   -0.9946 Cl  0  0  0  0  0  0  0  0  0  0  0  0
  2  1  3  0  0  0  0
  3  4  1  0  0  0  0
  5  3  1  0  0  0  0
  6 11  1  0  0  0  0
  6  7  1  0  0  0  0
  7  8  2  0  0  0  0
  8  3  1  0  0  0  0
  8  9  1  0  0  0  0
  9 14  1  0  0  0  0
  9 15  1  0  0  0  0
 10 16  1  0  0  0  0
 10  9  1  0  0  0  0
 11 10  2  0  0  0  0
 12  6  1  0  0  0  0
 13  7  1  0  0  0  0
 17 11  1  0  0  0  0
 18 21  1  0  0  0  0
 19 18  1  0  0  0  0
 20 18  1  0  0  0  0
 22 18  1  0  0  0  0
M  RAD  1   6   2
M  END
