Coordinates from ORCA-job C6H6+AlCl4-+NH2N2+-scan
 OpenBabel10161817473D

 22 20  0  0  0  0  0  0  0  0999 V2000
    3.6121   -0.1559   -4.4057 N   0  0  0  0  0  0  0  0  0  0  0  0
    3.9358   -0.3979   -5.4414 N   0  0  0  0  0  0  0  0  0  0  0  0
    3.2540    0.2331   -3.2434 N   0  0  0  0  0  0  0  0  0  0  0  0
    2.5644   -0.3969   -2.7818 H   0  0  0  0  0  0  0  0  0  0  0  0
    4.0737    0.4426   -2.5895 H   0  0  0  0  0  0  0  0  0  0  0  0
    1.6862   -2.3260   -6.6946 C   0  0  0  0  0  0  0  0  0  0  0  0
    1.0576   -1.0995   -6.9207 C   0  0  0  0  0  0  0  0  0  0  0  0
    0.3781   -0.4618   -5.8829 C   0  0  0  0  0  0  0  0  0  0  0  0
    0.3209   -1.0547   -4.6196 C   0  0  0  0  0  0  0  0  0  0  0  0
    0.9498   -2.2822   -4.3932 C   0  0  0  0  0  0  0  0  0  0  0  0
    1.6344   -2.9159   -5.4313 C   0  0  0  0  0  0  0  0  0  0  0  0
    2.2110   -2.8228   -7.5031 H   0  0  0  0  0  0  0  0  0  0  0  0
    1.0916   -0.6466   -7.9054 H   0  0  0  0  0  0  0  0  0  0  0  0
   -0.1208    0.4846   -6.0614 H   0  0  0  0  0  0  0  0  0  0  0  0
   -0.2285   -0.5726   -3.8177 H   0  0  0  0  0  0  0  0  0  0  0  0
    0.9006   -2.7456   -3.4144 H   0  0  0  0  0  0  0  0  0  0  0  0
    2.1239   -3.8666   -5.2532 H   0  0  0  0  0  0  0  0  0  0  0  0
    4.4583   -1.7827   -0.6960 Al  0  0  0  0  0  0  0  0  0  0  0  0
    5.0789   -2.6067    1.1434 Cl  0  0  0  0  0  0  0  0  0  0  0  0
    5.2758    0.2666   -1.0095 Cl  0  0  0  0  0  0  0  0  0  0  0  0
    5.0056   -2.8602   -2.4816 Cl  0  0  0  0  0  0  0  0  0  0  0  0
    2.2811   -1.4727   -0.8307 Cl  0  0  0  0  0  0  0  0  0  0  0  0
  1  3  1  0  0  0  0
  2  1  1  0  0  0  0
  3  4  1  0  0  0  0
  3  5  1  0  0  0  0
  6 11  1  0  0  0  0
  7  6  2  0  0  0  0
  7  8  1  0  0  0  0
  8  9  2  0  0  0  0
  9 10  1  0  0  0  0
  9 15  1  0  0  0  0
 10 16  1  0  0  0  0
 11 17  1  0  0  0  0
 11 10  2  0  0  0  0
 12  6  1  0  0  0  0
 13  7  1  0  0  0  0
 14  8  1  0  0  0  0
 18 19  1  0  0  0  0
 20 18  1  0  0  0  0
 21 18  1  0  0  0  0
 22 18  1  0  0  0  0
M  RAD  2   1   2   2   3
M  END
