Coordinates from ORCA-job C6H6+AlCl4-+NH2N2+-scan
 OpenBabel10161817473D

 22 20  0  0  0  0  0  0  0  0999 V2000
    3.2787    0.5117   -3.3751 N   0  0  0  0  0  0  0  0  0  0  0  0
    3.2512    0.7920   -4.4505 N   0  0  0  0  0  0  0  0  0  0  0  0
    3.2549    0.2569   -2.1247 N   0  0  0  0  0  0  0  0  0  0  0  0
    2.8681   -0.6997   -1.8951 H   0  0  0  0  0  0  0  0  0  0  0  0
    4.1986    0.3702   -1.6464 H   0  0  0  0  0  0  0  0  0  0  0  0
    1.9844   -2.1100   -5.7464 C   0  0  0  0  0  0  0  0  0  0  0  0
    1.5671   -1.4496   -6.9030 C   0  0  0  0  0  0  0  0  0  0  0  0
    0.2821   -0.9110   -6.9757 C   0  0  0  0  0  0  0  0  0  0  0  0
   -0.5842   -1.0265   -5.8885 C   0  0  0  0  0  0  0  0  0  0  0  0
   -0.1688   -1.6863   -4.7316 C   0  0  0  0  0  0  0  0  0  0  0  0
    1.1145   -2.2308   -4.6606 C   0  0  0  0  0  0  0  0  0  0  0  0
    2.9777   -2.5423   -5.6921 H   0  0  0  0  0  0  0  0  0  0  0  0
    2.2395   -1.3647   -7.7498 H   0  0  0  0  0  0  0  0  0  0  0  0
   -0.0443   -0.4054   -7.8780 H   0  0  0  0  0  0  0  0  0  0  0  0
   -1.5846   -0.6116   -5.9462 H   0  0  0  0  0  0  0  0  0  0  0  0
   -0.8487   -1.7899   -3.8926 H   0  0  0  0  0  0  0  0  0  0  0  0
    1.4308   -2.7684   -3.7726 H   0  0  0  0  0  0  0  0  0  0  0  0
    5.3465   -2.3761   -1.3705 Al  0  0  0  0  0  0  0  0  0  0  0  0
    6.4700   -3.8723   -0.4035 Cl  0  0  0  0  0  0  0  0  0  0  0  0
    5.7868   -0.3414   -0.5958 Cl  0  0  0  0  0  0  0  0  0  0  0  0
    5.5588   -2.2067   -3.5086 Cl  0  0  0  0  0  0  0  0  0  0  0  0
    3.1654   -2.5788   -1.0262 Cl  0  0  0  0  0  0  0  0  0  0  0  0
  1  3  1  0  0  0  0
  2  1  1  0  0  0  0
  3  4  1  0  0  0  0
  3  5  1  0  0  0  0
  6 12  1  0  0  0  0
  6 11  2  0  0  0  0
  7  6  1  0  0  0  0
  8  7  2  0  0  0  0
  8  9  1  0  0  0  0
  9 10  2  0  0  0  0
 10 11  1  0  0  0  0
 10 16  1  0  0  0  0
 11 17  1  0  0  0  0
 13  7  1  0  0  0  0
 14  8  1  0  0  0  0
 15  9  1  0  0  0  0
 18 22  1  0  0  0  0
 18 20  1  0  0  0  0
 18 19  1  0  0  0  0
 21 18  1  0  0  0  0
M  RAD  2   1   2   2   3
M  END
