Coordinates from ORCA-job C6H6+AlCl4-+NH2N2+-scan
 OpenBabel10161817473D

 22 20  0  0  0  0  0  0  0  0999 V2000
    2.8460    0.3083   -3.7468 N   0  0  0  0  0  0  0  0  0  0  0  0
    2.9152    0.7756   -4.7532 N   0  0  0  0  0  0  0  0  0  0  0  0
    2.7339   -0.1262   -2.5516 N   0  0  0  0  0  0  0  0  0  0  0  0
    2.5152   -1.1410   -2.4934 H   0  0  0  0  0  0  0  0  0  0  0  0
    3.5650    0.1264   -1.9255 H   0  0  0  0  0  0  0  0  0  0  0  0
    1.8965   -2.5072   -5.5491 C   0  0  0  0  0  0  0  0  0  0  0  0
    1.7896   -1.6032   -6.6063 C   0  0  0  0  0  0  0  0  0  0  0  0
    0.7716   -0.6473   -6.6077 C   0  0  0  0  0  0  0  0  0  0  0  0
   -0.1428   -0.5954   -5.5547 C   0  0  0  0  0  0  0  0  0  0  0  0
   -0.0382   -1.5003   -4.4979 C   0  0  0  0  0  0  0  0  0  0  0  0
    0.9810   -2.4570   -4.4957 C   0  0  0  0  0  0  0  0  0  0  0  0
    2.6877   -3.2480   -5.5429 H   0  0  0  0  0  0  0  0  0  0  0  0
    2.4959   -1.6452   -7.4277 H   0  0  0  0  0  0  0  0  0  0  0  0
    0.6856    0.0498   -7.4340 H   0  0  0  0  0  0  0  0  0  0  0  0
   -0.9395    0.1404   -5.5632 H   0  0  0  0  0  0  0  0  0  0  0  0
   -0.7571   -1.4730   -3.6861 H   0  0  0  0  0  0  0  0  0  0  0  0
    1.0550   -3.1731   -3.6845 H   0  0  0  0  0  0  0  0  0  0  0  0
    5.3904   -2.1493   -1.6101 Al  0  0  0  0  0  0  0  0  0  0  0  0
    6.8506   -3.2694   -0.5797 Cl  0  0  0  0  0  0  0  0  0  0  0  0
    5.1389   -0.1112   -0.7414 Cl  0  0  0  0  0  0  0  0  0  0  0  0
    5.7387   -1.7972   -3.7097 Cl  0  0  0  0  0  0  0  0  0  0  0  0
    3.3653   -2.9972   -1.4726 Cl  0  0  0  0  0  0  0  0  0  0  0  0
  1  3  1  0  0  0  0
  2  1  1  0  0  0  0
  3  4  1  0  0  0  0
  3  5  1  0  0  0  0
  6 12  1  0  0  0  0
  6 11  2  0  0  0  0
  7  6  1  0  0  0  0
  8  7  2  0  0  0  0
  8  9  1  0  0  0  0
  9 10  2  0  0  0  0
 10 11  1  0  0  0  0
 10 16  1  0  0  0  0
 11 17  1  0  0  0  0
 13  7  1  0  0  0  0
 14  8  1  0  0  0  0
 15  9  1  0  0  0  0
 18 22  1  0  0  0  0
 18 20  1  0  0  0  0
 18 19  1  0  0  0  0
 21 18  1  0  0  0  0
M  RAD  2   1   2   2   3
M  END
