Coordinates from ORCA-job C6H6+AlCl4-+NH2N2+-scan
 OpenBabel10161817473D

 22 20  0  0  0  0  0  0  0  0999 V2000
    4.0058   -0.8964   -4.5595 N   0  0  0  0  0  0  0  0  0  0  0  0
    4.2440   -1.6688   -5.3229 N   0  0  0  0  0  0  0  0  0  0  0  0
    3.7996    0.0626   -3.7429 N   0  0  0  0  0  0  0  0  0  0  0  0
    2.8764    0.0144   -3.2635 H   0  0  0  0  0  0  0  0  0  0  0  0
    4.5917    0.2091   -3.0391 H   0  0  0  0  0  0  0  0  0  0  0  0
    1.3539   -1.8105   -7.0004 C   0  0  0  0  0  0  0  0  0  0  0  0
    0.9201   -0.6668   -6.3306 C   0  0  0  0  0  0  0  0  0  0  0  0
    0.6238   -0.7285   -4.9668 C   0  0  0  0  0  0  0  0  0  0  0  0
    0.7625   -1.9338   -4.2732 C   0  0  0  0  0  0  0  0  0  0  0  0
    1.1969   -3.0772   -4.9453 C   0  0  0  0  0  0  0  0  0  0  0  0
    1.4921   -3.0153   -6.3076 C   0  0  0  0  0  0  0  0  0  0  0  0
    1.5757   -1.7670   -8.0611 H   0  0  0  0  0  0  0  0  0  0  0  0
    0.7991    0.2662   -6.8704 H   0  0  0  0  0  0  0  0  0  0  0  0
    0.2633    0.1541   -4.4485 H   0  0  0  0  0  0  0  0  0  0  0  0
    0.5272   -1.9814   -3.2162 H   0  0  0  0  0  0  0  0  0  0  0  0
    1.3028   -4.0119   -4.4066 H   0  0  0  0  0  0  0  0  0  0  0  0
    1.8237   -3.9055   -6.8307 H   0  0  0  0  0  0  0  0  0  0  0  0
    3.8674   -0.9108   -0.4158 Al  0  0  0  0  0  0  0  0  0  0  0  0
    3.9649   -0.9970    1.6892 Cl  0  0  0  0  0  0  0  0  0  0  0  0
    5.4956    0.3471   -1.2734 Cl  0  0  0  0  0  0  0  0  0  0  0  0
    4.0179   -2.7820   -1.4761 Cl  0  0  0  0  0  0  0  0  0  0  0  0
    2.0401    0.0589   -1.1721 Cl  0  0  0  0  0  0  0  0  0  0  0  0
  1  3  1  0  0  0  0
  2  1  1  0  0  0  0
  3  4  1  0  0  0  0
  3  5  1  0  0  0  0
  6  7  2  0  0  0  0
  6 11  1  0  0  0  0
  7  8  1  0  0  0  0
  8 14  1  0  0  0  0
  8  9  2  0  0  0  0
  9 15  1  0  0  0  0
 10 16  1  0  0  0  0
 10  9  1  0  0  0  0
 11 10  2  0  0  0  0
 12  6  1  0  0  0  0
 13  7  1  0  0  0  0
 17 11  1  0  0  0  0
 18 19  1  0  0  0  0
 20 18  1  0  0  0  0
 21 18  1  0  0  0  0
 22 18  1  0  0  0  0
M  RAD  2   1   2   2   3
M  END
