Coordinates from ORCA-job C6H6+AlCl4-+NH2N2+-scan
 OpenBabel10161817473D

 22 20  0  0  0  0  0  0  0  0999 V2000
    2.8582    0.3145   -3.6748 N   0  0  0  0  0  0  0  0  0  0  0  0
    2.9052    0.7655   -4.6898 N   0  0  0  0  0  0  0  0  0  0  0  0
    2.7721   -0.1026   -2.4707 N   0  0  0  0  0  0  0  0  0  0  0  0
    2.5524   -1.1184   -2.3939 H   0  0  0  0  0  0  0  0  0  0  0  0
    3.6218    0.1471   -1.8699 H   0  0  0  0  0  0  0  0  0  0  0  0
    1.9099   -2.4661   -5.5668 C   0  0  0  0  0  0  0  0  0  0  0  0
    1.7667   -1.5980   -6.6495 C   0  0  0  0  0  0  0  0  0  0  0  0
    0.7152   -0.6793   -6.6753 C   0  0  0  0  0  0  0  0  0  0  0  0
   -0.1923   -0.6254   -5.6164 C   0  0  0  0  0  0  0  0  0  0  0  0
   -0.0509   -1.4938   -4.5333 C   0  0  0  0  0  0  0  0  0  0  0  0
    0.9993   -2.4158   -4.5092 C   0  0  0  0  0  0  0  0  0  0  0  0
    2.7254   -3.1799   -5.5447 H   0  0  0  0  0  0  0  0  0  0  0  0
    2.4699   -1.6408   -7.4736 H   0  0  0  0  0  0  0  0  0  0  0  0
    0.6009   -0.0108   -7.5215 H   0  0  0  0  0  0  0  0  0  0  0  0
   -1.0134    0.0826   -5.6409 H   0  0  0  0  0  0  0  0  0  0  0  0
   -0.7663   -1.4661   -3.7184 H   0  0  0  0  0  0  0  0  0  0  0  0
    1.0994   -3.1077   -3.6798 H   0  0  0  0  0  0  0  0  0  0  0  0
    5.4075   -2.1745   -1.5899 Al  0  0  0  0  0  0  0  0  0  0  0  0
    6.8547   -3.3298   -0.5811 Cl  0  0  0  0  0  0  0  0  0  0  0  0
    5.2241   -0.1279   -0.7258 Cl  0  0  0  0  0  0  0  0  0  0  0  0
    5.7221   -1.8417   -3.6973 Cl  0  0  0  0  0  0  0  0  0  0  0  0
    3.3626   -2.9717   -1.4109 Cl  0  0  0  0  0  0  0  0  0  0  0  0
  1  3  1  0  0  0  0
  2  1  1  0  0  0  0
  3  4  1  0  0  0  0
  3  5  1  0  0  0  0
  6 12  1  0  0  0  0
  6 11  2  0  0  0  0
  7  6  1  0  0  0  0
  8  7  2  0  0  0  0
  8  9  1  0  0  0  0
  9 10  2  0  0  0  0
 10 11  1  0  0  0  0
 10 16  1  0  0  0  0
 11 17  1  0  0  0  0
 13  7  1  0  0  0  0
 14  8  1  0  0  0  0
 15  9  1  0  0  0  0
 18 22  1  0  0  0  0
 18 20  1  0  0  0  0
 18 19  1  0  0  0  0
 21 18  1  0  0  0  0
M  RAD  2   1   2   2   3
M  END
