Coordinates from ORCA-job C6H6+AlCl4-+NH2N2+-scan
 OpenBabel10161817473D

 22 20  0  0  0  0  0  0  0  0999 V2000
    4.2545   -2.1704   -4.0042 N   0  0  0  0  0  0  0  0  0  0  0  0
    4.9901   -2.8535   -4.4941 N   0  0  0  0  0  0  0  0  0  0  0  0
    3.2434   -1.4383   -3.6632 N   0  0  0  0  0  0  0  0  0  0  0  0
    2.8673   -1.7376   -2.7216 H   0  0  0  0  0  0  0  0  0  0  0  0
    3.5346   -0.4261   -3.5595 H   0  0  0  0  0  0  0  0  0  0  0  0
    1.4359   -1.1961   -6.9005 C   0  0  0  0  0  0  0  0  0  0  0  0
    1.5746   -0.4318   -5.7451 C   0  0  0  0  0  0  0  0  0  0  0  0
    1.2276   -0.9735   -4.5015 C   0  0  0  0  0  0  0  0  0  0  0  0
    0.6161   -2.2315   -4.4424 C   0  0  0  0  0  0  0  0  0  0  0  0
    0.4790   -2.9938   -5.5996 C   0  0  0  0  0  0  0  0  0  0  0  0
    0.8999   -2.4830   -6.8283 C   0  0  0  0  0  0  0  0  0  0  0  0
    1.7241   -0.7826   -7.8607 H   0  0  0  0  0  0  0  0  0  0  0  0
    1.9674    0.5780   -5.8040 H   0  0  0  0  0  0  0  0  0  0  0  0
    1.2281   -0.3380   -3.6222 H   0  0  0  0  0  0  0  0  0  0  0  0
    0.2651   -2.6174   -3.4909 H   0  0  0  0  0  0  0  0  0  0  0  0
    0.0238   -3.9769   -5.5490 H   0  0  0  0  0  0  0  0  0  0  0  0
    0.7870   -3.0751   -7.7296 H   0  0  0  0  0  0  0  0  0  0  0  0
    4.1381    0.0652   -0.6328 Al  0  0  0  0  0  0  0  0  0  0  0  0
    4.1403    1.2095    1.1371 Cl  0  0  0  0  0  0  0  0  0  0  0  0
    3.8016    1.3078   -2.4436 Cl  0  0  0  0  0  0  0  0  0  0  0  0
    5.8932   -1.0969   -1.0700 Cl  0  0  0  0  0  0  0  0  0  0  0  0
    2.4526   -1.3786   -0.7078 Cl  0  0  0  0  0  0  0  0  0  0  0  0
  1  3  1  0  0  0  0
  2  1  1  0  0  0  0
  3  5  1  0  0  0  0
  3  4  1  0  0  0  0
  6 11  2  0  0  0  0
  6  7  1  0  0  0  0
  7  8  2  0  0  0  0
  8  9  1  0  0  0  0
  8 14  1  0  0  0  0
  9 15  1  0  0  0  0
 10 16  1  0  0  0  0
 10  9  2  0  0  0  0
 11 10  1  0  0  0  0
 12  6  1  0  0  0  0
 13  7  1  0  0  0  0
 17 11  1  0  0  0  0
 18 19  1  0  0  0  0
 20 18  1  0  0  0  0
 21 18  1  0  0  0  0
 22 18  1  0  0  0  0
M  RAD  2   1   2   2   3
M  END
