Coordinates from ORCA-job C6H6+AlCl4-+NH2N2+-scan
 OpenBabel10161817473D

 22 20  0  0  0  0  0  0  0  0999 V2000
    3.9801    0.6221    0.2920 N   0  0  0  0  0  0  0  0  0  0  0  0
    3.4907    1.6198    0.3424 N   0  0  0  0  0  0  0  0  0  0  0  0
    4.5363   -0.5225    0.3271 N   0  0  0  0  0  0  0  0  0  0  0  0
    3.9600   -1.2975   -0.1259 H   0  0  0  0  0  0  0  0  0  0  0  0
    5.5111   -0.5405   -0.0985 H   0  0  0  0  0  0  0  0  0  0  0  0
    0.7728   -2.9554   -6.9887 C   0  0  0  0  0  0  0  0  0  0  0  0
    1.7086   -2.1319   -6.3638 C   0  0  0  0  0  0  0  0  0  0  0  0
    1.3117   -0.9065   -5.8288 C   0  0  0  0  0  0  0  0  0  0  0  0
   -0.0210   -0.5059   -5.9210 C   0  0  0  0  0  0  0  0  0  0  0  0
   -0.9566   -1.3290   -6.5464 C   0  0  0  0  0  0  0  0  0  0  0  0
   -0.5596   -2.5545   -7.0801 C   0  0  0  0  0  0  0  0  0  0  0  0
    1.0822   -3.9087   -7.4037 H   0  0  0  0  0  0  0  0  0  0  0  0
    2.7454   -2.4427   -6.2933 H   0  0  0  0  0  0  0  0  0  0  0  0
    2.0401   -0.2681   -5.3412 H   0  0  0  0  0  0  0  0  0  0  0  0
   -0.3296    0.4481   -5.5064 H   0  0  0  0  0  0  0  0  0  0  0  0
   -1.9930   -1.0163   -6.6184 H   0  0  0  0  0  0  0  0  0  0  0  0
   -1.2871   -3.1955   -7.5669 H   0  0  0  0  0  0  0  0  0  0  0  0
    5.1267   -1.6602   -2.8302 Al  0  0  0  0  0  0  0  0  0  0  0  0
    5.6636   -2.7718   -4.5365 Cl  0  0  0  0  0  0  0  0  0  0  0  0
    6.8403   -1.2427   -1.4850 Cl  0  0  0  0  0  0  0  0  0  0  0  0
    4.2130    0.2668   -3.1462 Cl  0  0  0  0  0  0  0  0  0  0  0  0
    3.7090   -2.7479   -1.5141 Cl  0  0  0  0  0  0  0  0  0  0  0  0
  1  3  1  0  0  0  0
  1  2  1  0  0  0  0
  4  3  1  0  0  0  0
  5  3  1  0  0  0  0
  6  7  1  0  0  0  0
  7 13  1  0  0  0  0
  7  8  2  0  0  0  0
  8 14  1  0  0  0  0
  9  8  1  0  0  0  0
  9 15  1  0  0  0  0
 10  9  2  0  0  0  0
 11  6  2  0  0  0  0
 11 10  1  0  0  0  0
 12  6  1  0  0  0  0
 16 10  1  0  0  0  0
 17 11  1  0  0  0  0
 18 22  1  0  0  0  0
 18 20  1  0  0  0  0
 19 18  1  0  0  0  0
 21 18  1  0  0  0  0
M  RAD  2   1   2   2   3
M  END
