Coordinates from ORCA-job C6H6+AlCl4-+NH2N2+-scan
 OpenBabel10161817473D

 22 20  0  0  0  0  0  0  0  0999 V2000
    3.9957   -0.9228   -4.5640 N   0  0  0  0  0  0  0  0  0  0  0  0
    4.2467   -1.7011   -5.3171 N   0  0  0  0  0  0  0  0  0  0  0  0
    3.7757    0.0439   -3.7601 N   0  0  0  0  0  0  0  0  0  0  0  0
    2.8512   -0.0084   -3.2854 H   0  0  0  0  0  0  0  0  0  0  0  0
    4.5643    0.2082   -3.0558 H   0  0  0  0  0  0  0  0  0  0  0  0
    1.3577   -1.7921   -6.9954 C   0  0  0  0  0  0  0  0  0  0  0  0
    0.9539   -0.6535   -6.2988 C   0  0  0  0  0  0  0  0  0  0  0  0
    0.6665   -0.7373   -4.9341 C   0  0  0  0  0  0  0  0  0  0  0  0
    0.7825   -1.9598   -4.2669 C   0  0  0  0  0  0  0  0  0  0  0  0
    1.1872   -3.0978   -4.9660 C   0  0  0  0  0  0  0  0  0  0  0  0
    1.4743   -3.0138   -6.3288 C   0  0  0  0  0  0  0  0  0  0  0  0
    1.5729   -1.7312   -8.0566 H   0  0  0  0  0  0  0  0  0  0  0  0
    0.8491    0.2929   -6.8181 H   0  0  0  0  0  0  0  0  0  0  0  0
    0.3269    0.1414   -4.3953 H   0  0  0  0  0  0  0  0  0  0  0  0
    0.5533   -2.0242   -3.2095 H   0  0  0  0  0  0  0  0  0  0  0  0
    1.2758   -4.0459   -4.4481 H   0  0  0  0  0  0  0  0  0  0  0  0
    1.7827   -3.8997   -6.8728 H   0  0  0  0  0  0  0  0  0  0  0  0
    3.8560   -0.8804   -0.4176 Al  0  0  0  0  0  0  0  0  0  0  0  0
    3.9626   -0.9392    1.6880 Cl  0  0  0  0  0  0  0  0  0  0  0  0
    5.4721    0.3784   -1.2969 Cl  0  0  0  0  0  0  0  0  0  0  0  0
    4.0179   -2.7641   -1.4541 Cl  0  0  0  0  0  0  0  0  0  0  0  0
    2.0198    0.0658   -1.1801 Cl  0  0  0  0  0  0  0  0  0  0  0  0
  1  3  1  0  0  0  0
  2  1  1  0  0  0  0
  3  4  1  0  0  0  0
  3  5  1  0  0  0  0
  6 11  2  0  0  0  0
  6  7  1  0  0  0  0
  7  8  2  0  0  0  0
  8 14  1  0  0  0  0
  8  9  1  0  0  0  0
  9 15  1  0  0  0  0
 10 16  1  0  0  0  0
 10  9  2  0  0  0  0
 11 10  1  0  0  0  0
 12  6  1  0  0  0  0
 13  7  1  0  0  0  0
 17 11  1  0  0  0  0
 18 19  1  0  0  0  0
 20 18  1  0  0  0  0
 21 18  1  0  0  0  0
 22 18  1  0  0  0  0
M  RAD  2   1   2   2   3
M  END
