Coordinates from ORCA-job C6H6+AlCl4-+NH2N2+-scan
 OpenBabel10161817473D

 22 20  0  0  0  0  0  0  0  0999 V2000
    2.9924   -0.5589   -0.4006 N   0  0  0  0  0  0  0  0  0  0  0  0
    2.0146   -0.0885   -0.6449 N   0  0  0  0  0  0  0  0  0  0  0  0
    4.0788   -1.1142   -0.0329 N   0  0  0  0  0  0  0  0  0  0  0  0
    4.3141   -1.9963   -0.5810 H   0  0  0  0  0  0  0  0  0  0  0  0
    4.9242   -0.4669   -0.0700 H   0  0  0  0  0  0  0  0  0  0  0  0
   -0.0165   -2.9688   -6.2131 C   0  0  0  0  0  0  0  0  0  0  0  0
    1.2416   -2.4093   -5.9923 C   0  0  0  0  0  0  0  0  0  0  0  0
    1.4227   -1.0312   -6.1063 C   0  0  0  0  0  0  0  0  0  0  0  0
    0.3439   -0.2133   -6.4415 C   0  0  0  0  0  0  0  0  0  0  0  0
   -0.9143   -0.7724   -6.6620 C   0  0  0  0  0  0  0  0  0  0  0  0
   -1.0947   -2.1504   -6.5476 C   0  0  0  0  0  0  0  0  0  0  0  0
   -0.1560   -4.0413   -6.1278 H   0  0  0  0  0  0  0  0  0  0  0  0
    2.0820   -3.0450   -5.7348 H   0  0  0  0  0  0  0  0  0  0  0  0
    2.4020   -0.5987   -5.9328 H   0  0  0  0  0  0  0  0  0  0  0  0
    0.4850    0.8584   -6.5329 H   0  0  0  0  0  0  0  0  0  0  0  0
   -1.7525   -0.1359   -6.9252 H   0  0  0  0  0  0  0  0  0  0  0  0
   -2.0730   -2.5858   -6.7219 H   0  0  0  0  0  0  0  0  0  0  0  0
    6.3243   -1.1363   -2.6244 Al  0  0  0  0  0  0  0  0  0  0  0  0
    8.0175   -1.3989   -3.8469 Cl  0  0  0  0  0  0  0  0  0  0  0  0
    6.7619    0.0289   -0.7848 Cl  0  0  0  0  0  0  0  0  0  0  0  0
    4.6078   -0.1639   -3.4902 Cl  0  0  0  0  0  0  0  0  0  0  0  0
    5.5388   -3.0518   -1.8198 Cl  0  0  0  0  0  0  0  0  0  0  0  0
  1  3  1  0  0  0  0
  2  1  1  0  0  0  0
  4  3  1  0  0  0  0
  5  3  1  0  0  0  0
  6 12  1  0  0  0  0
  6  7  2  0  0  0  0
  7 13  1  0  0  0  0
  8  7  1  0  0  0  0
  8 14  1  0  0  0  0
  9  8  2  0  0  0  0
 10 11  2  0  0  0  0
 10  9  1  0  0  0  0
 11  6  1  0  0  0  0
 15  9  1  0  0  0  0
 16 10  1  0  0  0  0
 17 11  1  0  0  0  0
 18 22  1  0  0  0  0
 18 20  1  0  0  0  0
 19 18  1  0  0  0  0
 21 18  1  0  0  0  0
M  RAD  2   1   2   2   3
M  END
