Coordinates from ORCA-job C6H6+AlCl4-+NH2N2+-scan
 OpenBabel10161817473D

 22 20  0  0  0  0  0  0  0  0999 V2000
    2.8616    0.3134   -3.6725 N   0  0  0  0  0  0  0  0  0  0  0  0
    2.9054    0.7594   -4.6899 N   0  0  0  0  0  0  0  0  0  0  0  0
    2.7791   -0.0971   -2.4658 N   0  0  0  0  0  0  0  0  0  0  0  0
    2.5575   -1.1123   -2.3814 H   0  0  0  0  0  0  0  0  0  0  0  0
    3.6315    0.1532   -1.8698 H   0  0  0  0  0  0  0  0  0  0  0  0
    1.9180   -2.4536   -5.5686 C   0  0  0  0  0  0  0  0  0  0  0  0
    1.7640   -1.5918   -6.6549 C   0  0  0  0  0  0  0  0  0  0  0  0
    0.7036   -0.6834   -6.6824 C   0  0  0  0  0  0  0  0  0  0  0  0
   -0.2023   -0.6337   -5.6219 C   0  0  0  0  0  0  0  0  0  0  0  0
   -0.0501   -1.4958   -4.5353 C   0  0  0  0  0  0  0  0  0  0  0  0
    1.0092   -2.4072   -4.5092 C   0  0  0  0  0  0  0  0  0  0  0  0
    2.7410   -3.1586   -5.5444 H   0  0  0  0  0  0  0  0  0  0  0  0
    2.4658   -1.6314   -7.4804 H   0  0  0  0  0  0  0  0  0  0  0  0
    0.5810   -0.0198   -7.5314 H   0  0  0  0  0  0  0  0  0  0  0  0
   -1.0304    0.0661   -5.6479 H   0  0  0  0  0  0  0  0  0  0  0  0
   -0.7640   -1.4714   -3.7188 H   0  0  0  0  0  0  0  0  0  0  0  0
    1.1184   -3.0936   -3.6765 H   0  0  0  0  0  0  0  0  0  0  0  0
    5.4045   -2.1819   -1.5854 Al  0  0  0  0  0  0  0  0  0  0  0  0
    6.8430   -3.3457   -0.5740 Cl  0  0  0  0  0  0  0  0  0  0  0  0
    5.2364   -0.1319   -0.7273 Cl  0  0  0  0  0  0  0  0  0  0  0  0
    5.7183   -1.8590   -3.6941 Cl  0  0  0  0  0  0  0  0  0  0  0  0
    3.3533   -2.9645   -1.4017 Cl  0  0  0  0  0  0  0  0  0  0  0  0
  1  3  1  0  0  0  0
  2  1  1  0  0  0  0
  3  4  1  0  0  0  0
  3  5  1  0  0  0  0
  6 12  1  0  0  0  0
  6 11  2  0  0  0  0
  7  6  1  0  0  0  0
  8  7  2  0  0  0  0
  8  9  1  0  0  0  0
  9 10  2  0  0  0  0
 10 11  1  0  0  0  0
 10 16  1  0  0  0  0
 11 17  1  0  0  0  0
 13  7  1  0  0  0  0
 14  8  1  0  0  0  0
 15  9  1  0  0  0  0
 18 22  1  0  0  0  0
 18 20  1  0  0  0  0
 18 19  1  0  0  0  0
 21 18  1  0  0  0  0
M  RAD  2   1   2   2   3
M  END
