Coordinates from ORCA-job C6H6+AlCl4-+NH2N2+-scan
 OpenBabel10161817473D

 22 20  0  0  0  0  0  0  0  0999 V2000
    4.3162   -2.0962   -4.0694 N   0  0  0  0  0  0  0  0  0  0  0  0
    5.0852   -2.7405   -4.5571 N   0  0  0  0  0  0  0  0  0  0  0  0
    3.3270   -1.3866   -3.6706 N   0  0  0  0  0  0  0  0  0  0  0  0
    2.9180   -1.7442   -2.7645 H   0  0  0  0  0  0  0  0  0  0  0  0
    3.5945   -0.3716   -3.5265 H   0  0  0  0  0  0  0  0  0  0  0  0
    1.4301   -1.2609   -6.9288 C   0  0  0  0  0  0  0  0  0  0  0  0
    1.5312   -0.4221   -5.8210 C   0  0  0  0  0  0  0  0  0  0  0  0
    1.1422   -0.8814   -4.5598 C   0  0  0  0  0  0  0  0  0  0  0  0
    0.5629   -2.1461   -4.4287 C   0  0  0  0  0  0  0  0  0  0  0  0
    0.4633   -2.9842   -5.5378 C   0  0  0  0  0  0  0  0  0  0  0  0
    0.9060   -2.5465   -6.7864 C   0  0  0  0  0  0  0  0  0  0  0  0
    1.7427   -0.9086   -7.9058 H   0  0  0  0  0  0  0  0  0  0  0  0
    1.9203    0.5844   -5.9346 H   0  0  0  0  0  0  0  0  0  0  0  0
    1.1626   -0.2077   -3.7098 H   0  0  0  0  0  0  0  0  0  0  0  0
    0.2004   -2.4776   -3.4613 H   0  0  0  0  0  0  0  0  0  0  0  0
    0.0250   -3.9707   -5.4336 H   0  0  0  0  0  0  0  0  0  0  0  0
    0.8230   -3.1971   -7.6500 H   0  0  0  0  0  0  0  0  0  0  0  0
    4.1283   -0.0177   -0.5832 Al  0  0  0  0  0  0  0  0  0  0  0  0
    4.1000    1.0450    1.2362 Cl  0  0  0  0  0  0  0  0  0  0  0  0
    3.8121    1.3045   -2.3417 Cl  0  0  0  0  0  0  0  0  0  0  0  0
    5.8979   -1.1476   -1.0501 Cl  0  0  0  0  0  0  0  0  0  0  0  0
    2.4557   -1.4673   -0.7491 Cl  0  0  0  0  0  0  0  0  0  0  0  0
  1  3  1  0  0  0  0
  2  1  1  0  0  0  0
  3  5  1  0  0  0  0
  3  4  1  0  0  0  0
  6 11  2  0  0  0  0
  6  7  1  0  0  0  0
  7  8  2  0  0  0  0
  8  9  1  0  0  0  0
  8 14  1  0  0  0  0
  9 15  1  0  0  0  0
 10 16  1  0  0  0  0
 10  9  2  0  0  0  0
 11 10  1  0  0  0  0
 12  6  1  0  0  0  0
 13  7  1  0  0  0  0
 17 11  1  0  0  0  0
 18 19  1  0  0  0  0
 20 18  1  0  0  0  0
 21 18  1  0  0  0  0
 22 18  1  0  0  0  0
M  RAD  2   1   2   2   3
M  END
