Coordinates from ORCA-job C6H6+AlCl4-+NH2N2+-scan
 OpenBabel10161817473D

 22 20  0  0  0  0  0  0  0  0999 V2000
    3.2834    0.1723   -4.1633 N   0  0  0  0  0  0  0  0  0  0  0  0
    3.5539    0.2710   -5.2370 N   0  0  0  0  0  0  0  0  0  0  0  0
    2.9637    0.1703   -2.9274 N   0  0  0  0  0  0  0  0  0  0  0  0
    2.4566   -0.6880   -2.6324 H   0  0  0  0  0  0  0  0  0  0  0  0
    3.7839    0.3816   -2.2716 H   0  0  0  0  0  0  0  0  0  0  0  0
    1.8960   -2.4614   -6.2001 C   0  0  0  0  0  0  0  0  0  0  0  0
    1.3830   -1.3749   -6.9104 C   0  0  0  0  0  0  0  0  0  0  0  0
    0.4480   -0.5268   -6.3134 C   0  0  0  0  0  0  0  0  0  0  0  0
    0.0209   -0.7690   -5.0081 C   0  0  0  0  0  0  0  0  0  0  0  0
    0.5319   -1.8590   -4.2982 C   0  0  0  0  0  0  0  0  0  0  0  0
    1.4728   -2.7033   -4.8926 C   0  0  0  0  0  0  0  0  0  0  0  0
    2.6218   -3.1201   -6.6634 H   0  0  0  0  0  0  0  0  0  0  0  0
    1.7075   -1.1918   -7.9288 H   0  0  0  0  0  0  0  0  0  0  0  0
    0.0450    0.3126   -6.8696 H   0  0  0  0  0  0  0  0  0  0  0  0
   -0.7186   -0.1218   -4.5490 H   0  0  0  0  0  0  0  0  0  0  0  0
    0.1856   -2.0640   -3.2907 H   0  0  0  0  0  0  0  0  0  0  0  0
    1.8695   -3.5462   -4.3386 H   0  0  0  0  0  0  0  0  0  0  0  0
    4.8719   -2.0820   -1.0994 Al  0  0  0  0  0  0  0  0  0  0  0  0
    5.8796   -3.1675    0.4024 Cl  0  0  0  0  0  0  0  0  0  0  0  0
    5.1480    0.1180   -0.8591 Cl  0  0  0  0  0  0  0  0  0  0  0  0
    5.4543   -2.4737   -3.1390 Cl  0  0  0  0  0  0  0  0  0  0  0  0
    2.6860   -2.3169   -1.0438 Cl  0  0  0  0  0  0  0  0  0  0  0  0
  1  3  1  0  0  0  0
  2  1  1  0  0  0  0
  3  4  1  0  0  0  0
  3  5  1  0  0  0  0
  6 11  2  0  0  0  0
  7  8  2  0  0  0  0
  7  6  1  0  0  0  0
  8  9  1  0  0  0  0
  9 15  1  0  0  0  0
  9 10  2  0  0  0  0
 10 16  1  0  0  0  0
 11 17  1  0  0  0  0
 11 10  1  0  0  0  0
 12  6  1  0  0  0  0
 13  7  1  0  0  0  0
 14  8  1  0  0  0  0
 18 22  1  0  0  0  0
 18 20  1  0  0  0  0
 18 19  1  0  0  0  0
 21 18  1  0  0  0  0
M  RAD  2   1   2   2   3
M  END
