Coordinates from ORCA-job C6H6+AlCl4-+NH2N2+-scan
 OpenBabel10161817473D

 22 20  0  0  1  0  0  0  0  0999 V2000
    6.6292   -2.5980   -5.5484 N   0  0  0  0  0  0  0  0  0  0  0  0
    7.6889   -2.7094   -5.8008 N   0  0  0  0  0  0  0  0  0  0  0  0
    3.6715   -2.0294   -4.0799 N   0  0  0  0  0  0  0  0  0  0  0  0
    3.6947   -1.9873   -3.0560 H   0  0  0  0  0  0  0  0  0  0  0  0
    4.5130   -2.2861   -4.5772 H   0  0  0  0  0  0  0  0  0  0  0  0
    1.3561   -1.3535   -6.8804 C   0  0  0  0  0  0  0  0  0  0  0  0
    2.5031   -1.6970   -6.2134 C   0  0  0  0  0  0  0  0  0  0  0  0
    2.5188   -1.6524   -4.8004 C   0  0  2  0  0  0  0  0  0  0  0  0
    1.3300   -1.1868   -4.0526 C   0  0  0  0  0  0  0  0  0  0  0  0
    0.1327   -0.8787   -4.8646 C   0  0  0  0  0  0  0  0  0  0  0  0
    0.1531   -0.9466   -6.2138 C   0  0  0  0  0  0  0  0  0  0  0  0
    1.3548   -1.3967   -7.9649 H   0  0  0  0  0  0  0  0  0  0  0  0
    3.3877   -2.0120   -6.7535 H   0  0  0  0  0  0  0  0  0  0  0  0
    1.6215   -0.2700   -3.4897 H   0  0  0  0  0  0  0  0  0  0  0  0
    1.0774   -1.8623   -3.2212 H   0  0  0  0  0  0  0  0  0  0  0  0
   -0.7560   -0.5738   -4.3240 H   0  0  0  0  0  0  0  0  0  0  0  0
   -0.7213   -0.7014   -6.8032 H   0  0  0  0  0  0  0  0  0  0  0  0
    2.2652   -0.5566   -0.2386 Al  0  0  0  0  0  0  0  0  0  0  0  0
    0.3579   -1.5229   -0.6195 Cl  0  0  0  0  0  0  0  0  0  0  0  0
    2.4422    1.0829   -1.6809 Cl  0  0  0  0  0  0  0  0  0  0  0  0
    2.5055    0.0984    1.7666 Cl  0  0  0  0  0  0  0  0  0  0  0  0
    3.8185   -2.0011   -0.8172 Cl  0  0  0  0  0  0  0  0  0  0  0  0
  2  1  3  0  0  0  0
  3  4  1  0  0  0  0
  5  3  1  0  0  0  0
  6 11  1  0  0  0  0
  6  7  2  0  0  0  0
  7  8  1  0  0  0  0
  8  3  1  6  0  0  0
  8  9  1  0  0  0  0
  9 14  1  0  0  0  0
  9 15  1  0  0  0  0
 10 16  1  0  0  0  0
 10  9  1  0  0  0  0
 11 10  2  0  0  0  0
 12  6  1  0  0  0  0
 13  7  1  0  0  0  0
 17 11  1  0  0  0  0
 18 21  1  0  0  0  0
 19 18  1  0  0  0  0
 20 18  1  0  0  0  0
 22 18  1  0  0  0  0
M  RAD  1   8   2
M  END
