Coordinates from ORCA-job C6H6+AlCl4-+NH2N2+-scan
 OpenBabel10161817473D

 22 20  0  0  0  0  0  0  0  0999 V2000
    2.8754    0.3191   -3.6517 N   0  0  0  0  0  0  0  0  0  0  0  0
    2.9154    0.7580   -4.6723 N   0  0  0  0  0  0  0  0  0  0  0  0
    2.7978   -0.0849   -2.4425 N   0  0  0  0  0  0  0  0  0  0  0  0
    2.5724   -1.0996   -2.3520 H   0  0  0  0  0  0  0  0  0  0  0  0
    3.6554    0.1623   -1.8528 H   0  0  0  0  0  0  0  0  0  0  0  0
    1.9216   -2.4386   -5.5777 C   0  0  0  0  0  0  0  0  0  0  0  0
    1.7536   -1.5873   -6.6703 C   0  0  0  0  0  0  0  0  0  0  0  0
    0.6808   -0.6939   -6.7031 C   0  0  0  0  0  0  0  0  0  0  0  0
   -0.2225   -0.6475   -5.6403 C   0  0  0  0  0  0  0  0  0  0  0  0
   -0.0563   -1.4988   -4.5471 C   0  0  0  0  0  0  0  0  0  0  0  0
    1.0147   -2.3961   -4.5164 C   0  0  0  0  0  0  0  0  0  0  0  0
    2.7537   -3.1328   -5.5504 H   0  0  0  0  0  0  0  0  0  0  0  0
    2.4541   -1.6243   -7.4971 H   0  0  0  0  0  0  0  0  0  0  0  0
    0.5472   -0.0390   -7.5570 H   0  0  0  0  0  0  0  0  0  0  0  0
   -1.0598    0.0411   -5.6695 H   0  0  0  0  0  0  0  0  0  0  0  0
   -0.7686   -1.4772   -3.7292 H   0  0  0  0  0  0  0  0  0  0  0  0
    1.1342   -3.0755   -3.6792 H   0  0  0  0  0  0  0  0  0  0  0  0
    5.4082   -2.1911   -1.5741 Al  0  0  0  0  0  0  0  0  0  0  0  0
    6.8378   -3.3683   -0.5660 Cl  0  0  0  0  0  0  0  0  0  0  0  0
    5.2652   -0.1377   -0.7199 Cl  0  0  0  0  0  0  0  0  0  0  0  0
    5.7153   -1.8766   -3.6849 Cl  0  0  0  0  0  0  0  0  0  0  0  0
    3.3490   -2.9519   -1.3800 Cl  0  0  0  0  0  0  0  0  0  0  0  0
  1  3  1  0  0  0  0
  2  1  1  0  0  0  0
  3  4  1  0  0  0  0
  3  5  1  0  0  0  0
  6 12  1  0  0  0  0
  6 11  2  0  0  0  0
  7  6  1  0  0  0  0
  8  7  2  0  0  0  0
  8  9  1  0  0  0  0
  9 10  2  0  0  0  0
 10 11  1  0  0  0  0
 10 16  1  0  0  0  0
 11 17  1  0  0  0  0
 13  7  1  0  0  0  0
 14  8  1  0  0  0  0
 15  9  1  0  0  0  0
 18 22  1  0  0  0  0
 18 20  1  0  0  0  0
 18 19  1  0  0  0  0
 21 18  1  0  0  0  0
M  RAD  2   1   2   2   3
M  END
