Coordinates from ORCA-job C6H6+AlCl4-+NH2N2+-scan
 OpenBabel10161817473D

 22 20  0  0  0  0  0  0  0  0999 V2000
    2.9626   -0.5709   -0.4571 N   0  0  0  0  0  0  0  0  0  0  0  0
    1.9899   -0.0976   -0.7155 N   0  0  0  0  0  0  0  0  0  0  0  0
    4.0421   -1.1297   -0.0744 N   0  0  0  0  0  0  0  0  0  0  0  0
    4.2875   -2.0069   -0.6259 H   0  0  0  0  0  0  0  0  0  0  0  0
    4.8879   -0.4822   -0.0900 H   0  0  0  0  0  0  0  0  0  0  0  0
   -0.0088   -2.9647   -6.1811 C   0  0  0  0  0  0  0  0  0  0  0  0
    1.2525   -2.4061   -5.9772 C   0  0  0  0  0  0  0  0  0  0  0  0
    1.4353   -1.0292   -6.1035 C   0  0  0  0  0  0  0  0  0  0  0  0
    0.3549   -0.2117   -6.4339 C   0  0  0  0  0  0  0  0  0  0  0  0
   -0.9067   -0.7699   -6.6376 C   0  0  0  0  0  0  0  0  0  0  0  0
   -1.0888   -2.1465   -6.5108 C   0  0  0  0  0  0  0  0  0  0  0  0
   -0.1494   -4.0363   -6.0864 H   0  0  0  0  0  0  0  0  0  0  0  0
    2.0944   -3.0414   -5.7238 H   0  0  0  0  0  0  0  0  0  0  0  0
    2.4170   -0.5975   -5.9425 H   0  0  0  0  0  0  0  0  0  0  0  0
    0.4973    0.8589   -6.5351 H   0  0  0  0  0  0  0  0  0  0  0  0
   -1.7462   -0.1336   -6.8971 H   0  0  0  0  0  0  0  0  0  0  0  0
   -2.0696   -2.5811   -6.6719 H   0  0  0  0  0  0  0  0  0  0  0  0
    6.3351   -1.1293   -2.6240 Al  0  0  0  0  0  0  0  0  0  0  0  0
    8.0509   -1.3850   -3.8159 Cl  0  0  0  0  0  0  0  0  0  0  0  0
    6.7386    0.0202   -0.7668 Cl  0  0  0  0  0  0  0  0  0  0  0  0
    4.6348   -0.1480   -3.5106 Cl  0  0  0  0  0  0  0  0  0  0  0  0
    5.5332   -3.0520   -1.8526 Cl  0  0  0  0  0  0  0  0  0  0  0  0
  1  3  1  0  0  0  0
  2  1  1  0  0  0  0
  4  3  1  0  0  0  0
  5  3  1  0  0  0  0
  6 12  1  0  0  0  0
  6  7  2  0  0  0  0
  7 13  1  0  0  0  0
  8  7  1  0  0  0  0
  8 14  1  0  0  0  0
  9  8  2  0  0  0  0
 10 11  2  0  0  0  0
 10  9  1  0  0  0  0
 11  6  1  0  0  0  0
 15  9  1  0  0  0  0
 16 10  1  0  0  0  0
 17 11  1  0  0  0  0
 18 22  1  0  0  0  0
 18 20  1  0  0  0  0
 19 18  1  0  0  0  0
 21 18  1  0  0  0  0
M  RAD  2   1   2   2   3
M  END
