Coordinates from ORCA-job C6H6+AlCl4-+NH2N2+-scan
 OpenBabel10161817473D

 22 20  0  0  0  0  0  0  0  0999 V2000
    3.3353    0.5777   -3.2550 N   0  0  0  0  0  0  0  0  0  0  0  0
    3.2640    0.8552   -4.3293 N   0  0  0  0  0  0  0  0  0  0  0  0
    3.3584    0.3254   -2.0040 N   0  0  0  0  0  0  0  0  0  0  0  0
    2.9470   -0.6192   -1.7563 H   0  0  0  0  0  0  0  0  0  0  0  0
    4.3263    0.3984   -1.5699 H   0  0  0  0  0  0  0  0  0  0  0  0
    1.9736   -2.0528   -5.7670 C   0  0  0  0  0  0  0  0  0  0  0  0
    1.5350   -1.4598   -6.9520 C   0  0  0  0  0  0  0  0  0  0  0  0
    0.2254   -0.9903   -7.0560 C   0  0  0  0  0  0  0  0  0  0  0  0
   -0.6446   -1.1074   -5.9719 C   0  0  0  0  0  0  0  0  0  0  0  0
   -0.2079   -1.6998   -4.7867 C   0  0  0  0  0  0  0  0  0  0  0  0
    1.1003   -2.1750   -4.6843 C   0  0  0  0  0  0  0  0  0  0  0  0
    2.9861   -2.4340   -5.6884 H   0  0  0  0  0  0  0  0  0  0  0  0
    2.2107   -1.3738   -7.7960 H   0  0  0  0  0  0  0  0  0  0  0  0
   -0.1170   -0.5369   -7.9798 H   0  0  0  0  0  0  0  0  0  0  0  0
   -1.6640   -0.7460   -6.0536 H   0  0  0  0  0  0  0  0  0  0  0  0
   -0.8899   -1.8044   -3.9496 H   0  0  0  0  0  0  0  0  0  0  0  0
    1.4341   -2.6618   -3.7735 H   0  0  0  0  0  0  0  0  0  0  0  0
    5.3528   -2.4114   -1.3656 Al  0  0  0  0  0  0  0  0  0  0  0  0
    6.4272   -3.9762   -0.4538 Cl  0  0  0  0  0  0  0  0  0  0  0  0
    5.9167   -0.4124   -0.5813 Cl  0  0  0  0  0  0  0  0  0  0  0  0
    5.5011   -2.2229   -3.5070 Cl  0  0  0  0  0  0  0  0  0  0  0  0
    3.1741   -2.5134   -0.9524 Cl  0  0  0  0  0  0  0  0  0  0  0  0
  1  3  1  0  0  0  0
  2  1  1  0  0  0  0
  3  4  1  0  0  0  0
  3  5  1  0  0  0  0
  6 12  1  0  0  0  0
  6 11  2  0  0  0  0
  7  6  1  0  0  0  0
  8  7  2  0  0  0  0
  8  9  1  0  0  0  0
  9 10  2  0  0  0  0
 10 11  1  0  0  0  0
 10 16  1  0  0  0  0
 11 17  1  0  0  0  0
 13  7  1  0  0  0  0
 14  8  1  0  0  0  0
 15  9  1  0  0  0  0
 18 22  1  0  0  0  0
 18 20  1  0  0  0  0
 18 19  1  0  0  0  0
 21 18  1  0  0  0  0
M  RAD  2   1   2   2   3
M  END
