Coordinates from ORCA-job C6H6+AlCl4-+NH2N2+-scan
 OpenBabel10161817473D

 22 20  0  0  0  0  0  0  0  0999 V2000
    4.3553   -2.1032   -4.0726 N   0  0  0  0  0  0  0  0  0  0  0  0
    5.1379   -2.7431   -4.5428 N   0  0  0  0  0  0  0  0  0  0  0  0
    3.3654   -1.3958   -3.6784 N   0  0  0  0  0  0  0  0  0  0  0  0
    2.9398   -1.7582   -2.7824 H   0  0  0  0  0  0  0  0  0  0  0  0
    3.6243   -0.3788   -3.5337 H   0  0  0  0  0  0  0  0  0  0  0  0
    1.4231   -1.2612   -6.9265 C   0  0  0  0  0  0  0  0  0  0  0  0
    1.5028   -0.4086   -5.8271 C   0  0  0  0  0  0  0  0  0  0  0  0
    1.1001   -0.8559   -4.5669 C   0  0  0  0  0  0  0  0  0  0  0  0
    0.5407   -2.1275   -4.4251 C   0  0  0  0  0  0  0  0  0  0  0  0
    0.4622   -2.9798   -5.5254 C   0  0  0  0  0  0  0  0  0  0  0  0
    0.9119   -2.5508   -6.7745 C   0  0  0  0  0  0  0  0  0  0  0  0
    1.7435   -0.9172   -7.9040 H   0  0  0  0  0  0  0  0  0  0  0  0
    1.8837    0.6002   -5.9478 H   0  0  0  0  0  0  0  0  0  0  0  0
    1.1187   -0.1773   -3.7206 H   0  0  0  0  0  0  0  0  0  0  0  0
    0.1747   -2.4530   -3.4570 H   0  0  0  0  0  0  0  0  0  0  0  0
    0.0364   -3.9710   -5.4139 H   0  0  0  0  0  0  0  0  0  0  0  0
    0.8457   -3.2122   -7.6313 H   0  0  0  0  0  0  0  0  0  0  0  0
    4.1233   -0.0307   -0.5855 Al  0  0  0  0  0  0  0  0  0  0  0  0
    4.0778    1.0298    1.2348 Cl  0  0  0  0  0  0  0  0  0  0  0  0
    3.8265    1.2941   -2.3454 Cl  0  0  0  0  0  0  0  0  0  0  0  0
    5.8976   -1.1605   -1.0370 Cl  0  0  0  0  0  0  0  0  0  0  0  0
    2.4532   -1.4799   -0.7704 Cl  0  0  0  0  0  0  0  0  0  0  0  0
  1  3  1  0  0  0  0
  2  1  1  0  0  0  0
  3  5  1  0  0  0  0
  3  4  1  0  0  0  0
  6 11  2  0  0  0  0
  6  7  1  0  0  0  0
  7  8  2  0  0  0  0
  8  9  1  0  0  0  0
  8 14  1  0  0  0  0
  9 15  1  0  0  0  0
 10 16  1  0  0  0  0
 10  9  2  0  0  0  0
 11 10  1  0  0  0  0
 12  6  1  0  0  0  0
 13  7  1  0  0  0  0
 17 11  1  0  0  0  0
 18 19  1  0  0  0  0
 20 18  1  0  0  0  0
 21 18  1  0  0  0  0
 22 18  1  0  0  0  0
M  RAD  2   1   2   2   3
M  END
