Coordinates from ORCA-job C6H6+AlCl4-+NH2N2+-scan
 OpenBabel10161817473D

 22 20  0  0  0  0  0  0  0  0999 V2000
    3.3048    0.5406   -3.3243 N   0  0  0  0  0  0  0  0  0  0  0  0
    3.2593    0.8186   -4.3997 N   0  0  0  0  0  0  0  0  0  0  0  0
    3.3002    0.2876   -2.0734 N   0  0  0  0  0  0  0  0  0  0  0  0
    2.9031   -0.6643   -1.8361 H   0  0  0  0  0  0  0  0  0  0  0  0
    4.2543    0.3841   -1.6132 H   0  0  0  0  0  0  0  0  0  0  0  0
    1.9792   -2.0864   -5.7548 C   0  0  0  0  0  0  0  0  0  0  0  0
    1.5532   -1.4528   -6.9233 C   0  0  0  0  0  0  0  0  0  0  0  0
    0.2573   -0.9436   -7.0098 C   0  0  0  0  0  0  0  0  0  0  0  0
   -0.6114   -1.0613   -5.9249 C   0  0  0  0  0  0  0  0  0  0  0  0
   -0.1874   -1.6941   -4.7562 C   0  0  0  0  0  0  0  0  0  0  0  0
    1.1070   -2.2093   -4.6712 C   0  0  0  0  0  0  0  0  0  0  0  0
    2.9810   -2.4972   -5.6898 H   0  0  0  0  0  0  0  0  0  0  0  0
    2.2276   -1.3664   -7.7683 H   0  0  0  0  0  0  0  0  0  0  0  0
   -0.0756   -0.4588   -7.9212 H   0  0  0  0  0  0  0  0  0  0  0  0
   -1.6203   -0.6690   -5.9934 H   0  0  0  0  0  0  0  0  0  0  0  0
   -0.8688   -1.7993   -3.9186 H   0  0  0  0  0  0  0  0  0  0  0  0
    1.4304   -2.7266   -3.7737 H   0  0  0  0  0  0  0  0  0  0  0  0
    5.3500   -2.3908   -1.3676 Al  0  0  0  0  0  0  0  0  0  0  0  0
    6.4520   -3.9173   -0.4237 Cl  0  0  0  0  0  0  0  0  0  0  0  0
    5.8441   -0.3709   -0.5885 Cl  0  0  0  0  0  0  0  0  0  0  0  0
    5.5357   -2.2143   -3.5074 Cl  0  0  0  0  0  0  0  0  0  0  0  0
    3.1688   -2.5491   -0.9947 Cl  0  0  0  0  0  0  0  0  0  0  0  0
  1  3  1  0  0  0  0
  2  1  1  0  0  0  0
  3  4  1  0  0  0  0
  3  5  1  0  0  0  0
  6 12  1  0  0  0  0
  6 11  2  0  0  0  0
  7  6  1  0  0  0  0
  8  7  2  0  0  0  0
  8  9  1  0  0  0  0
  9 10  2  0  0  0  0
 10 11  1  0  0  0  0
 10 16  1  0  0  0  0
 11 17  1  0  0  0  0
 13  7  1  0  0  0  0
 14  8  1  0  0  0  0
 15  9  1  0  0  0  0
 18 22  1  0  0  0  0
 18 20  1  0  0  0  0
 18 19  1  0  0  0  0
 21 18  1  0  0  0  0
M  RAD  2   1   2   2   3
M  END
