Coordinates from ORCA-job C6H6+AlCl4-+NH2N2+-scan
 OpenBabel10161817473D

 22 20  0  0  0  0  0  0  0  0999 V2000
    3.9747   -1.0227   -4.5507 N   0  0  0  0  0  0  0  0  0  0  0  0
    4.2503   -1.8369   -5.2553 N   0  0  0  0  0  0  0  0  0  0  0  0
    3.7309   -0.0172   -3.8031 N   0  0  0  0  0  0  0  0  0  0  0  0
    2.8027   -0.0617   -3.3398 H   0  0  0  0  0  0  0  0  0  0  0  0
    4.5114    0.1950   -3.1016 H   0  0  0  0  0  0  0  0  0  0  0  0
    1.3662   -1.7284   -6.9860 C   0  0  0  0  0  0  0  0  0  0  0  0
    1.0281   -0.6189   -6.2118 C   0  0  0  0  0  0  0  0  0  0  0  0
    0.7561   -0.7766   -4.8501 C   0  0  0  0  0  0  0  0  0  0  0  0
    0.8181   -2.0436   -4.2640 C   0  0  0  0  0  0  0  0  0  0  0  0
    1.1575   -3.1522   -5.0410 C   0  0  0  0  0  0  0  0  0  0  0  0
    1.4312   -2.9944   -6.4000 C   0  0  0  0  0  0  0  0  0  0  0  0
    1.5700   -1.6099   -8.0445 H   0  0  0  0  0  0  0  0  0  0  0  0
    0.9617    0.3628   -6.6680 H   0  0  0  0  0  0  0  0  0  0  0  0
    0.4615    0.0802   -4.2522 H   0  0  0  0  0  0  0  0  0  0  0  0
    0.5992   -2.1639   -3.2093 H   0  0  0  0  0  0  0  0  0  0  0  0
    1.2045   -4.1354   -4.5869 H   0  0  0  0  0  0  0  0  0  0  0  0
    1.6891   -3.8573   -7.0039 H   0  0  0  0  0  0  0  0  0  0  0  0
    3.8366   -0.7789   -0.4163 Al  0  0  0  0  0  0  0  0  0  0  0  0
    3.9671   -0.7513    1.6888 Cl  0  0  0  0  0  0  0  0  0  0  0  0
    5.4269    0.4650   -1.3628 Cl  0  0  0  0  0  0  0  0  0  0  0  0
    4.0191   -2.7020   -1.3760 Cl  0  0  0  0  0  0  0  0  0  0  0  0
    1.9819    0.1076   -1.1991 Cl  0  0  0  0  0  0  0  0  0  0  0  0
  1  3  1  0  0  0  0
  2  1  1  0  0  0  0
  3  4  1  0  0  0  0
  3  5  1  0  0  0  0
  6 11  2  0  0  0  0
  6  7  1  0  0  0  0
  7  8  2  0  0  0  0
  8  9  1  0  0  0  0
  8 14  1  0  0  0  0
  9 15  1  0  0  0  0
 10 16  1  0  0  0  0
 10  9  2  0  0  0  0
 11 10  1  0  0  0  0
 12  6  1  0  0  0  0
 13  7  1  0  0  0  0
 17 11  1  0  0  0  0
 18 19  1  0  0  0  0
 20 18  1  0  0  0  0
 21 18  1  0  0  0  0
 22 18  1  0  0  0  0
M  RAD  2   1   2   2   3
M  END
