Coordinates from ORCA-job C6H6+AlCl4-+NH2N2+-scan
 OpenBabel10161817473D

 22 20  0  0  0  0  0  0  0  0999 V2000
    3.9915   -0.9774   -4.5538 N   0  0  0  0  0  0  0  0  0  0  0  0
    4.2578   -1.7762   -5.2794 N   0  0  0  0  0  0  0  0  0  0  0  0
    3.7553    0.0099   -3.7805 N   0  0  0  0  0  0  0  0  0  0  0  0
    2.8267   -0.0375   -3.3167 H   0  0  0  0  0  0  0  0  0  0  0  0
    4.5381    0.2025   -3.0753 H   0  0  0  0  0  0  0  0  0  0  0  0
    1.3591   -1.7553   -6.9933 C   0  0  0  0  0  0  0  0  0  0  0  0
    0.9960   -0.6341   -6.2478 C   0  0  0  0  0  0  0  0  0  0  0  0
    0.7173   -0.7642   -4.8848 C   0  0  0  0  0  0  0  0  0  0  0  0
    0.8004   -2.0154   -4.2681 C   0  0  0  0  0  0  0  0  0  0  0  0
    1.1646   -3.1359   -5.0162 C   0  0  0  0  0  0  0  0  0  0  0  0
    1.4433   -3.0057   -6.3771 C   0  0  0  0  0  0  0  0  0  0  0  0
    1.5673   -1.6583   -8.0531 H   0  0  0  0  0  0  0  0  0  0  0  0
    0.9155    0.3352   -6.7278 H   0  0  0  0  0  0  0  0  0  0  0  0
    0.4069    0.1015   -4.3085 H   0  0  0  0  0  0  0  0  0  0  0  0
    0.5780   -2.1148   -3.2119 H   0  0  0  0  0  0  0  0  0  0  0  0
    1.2270   -4.1067   -4.5380 H   0  0  0  0  0  0  0  0  0  0  0  0
    1.7197   -3.8780   -6.9589 H   0  0  0  0  0  0  0  0  0  0  0  0
    3.8453   -0.8152   -0.4125 Al  0  0  0  0  0  0  0  0  0  0  0  0
    3.9673   -0.8231    1.6933 Cl  0  0  0  0  0  0  0  0  0  0  0  0
    5.4507    0.4298   -1.3316 Cl  0  0  0  0  0  0  0  0  0  0  0  0
    4.0147   -2.7232   -1.4041 Cl  0  0  0  0  0  0  0  0  0  0  0  0
    2.0019    0.1014   -1.1875 Cl  0  0  0  0  0  0  0  0  0  0  0  0
  1  3  1  0  0  0  0
  2  1  1  0  0  0  0
  3  4  1  0  0  0  0
  3  5  1  0  0  0  0
  6 11  2  0  0  0  0
  6  7  1  0  0  0  0
  7  8  2  0  0  0  0
  8 14  1  0  0  0  0
  8  9  1  0  0  0  0
  9 15  1  0  0  0  0
 10 16  1  0  0  0  0
 10  9  2  0  0  0  0
 11 10  1  0  0  0  0
 12  6  1  0  0  0  0
 13  7  1  0  0  0  0
 17 11  1  0  0  0  0
 18 19  1  0  0  0  0
 20 18  1  0  0  0  0
 21 18  1  0  0  0  0
 22 18  1  0  0  0  0
M  RAD  2   1   2   2   3
M  END
