Coordinates from ORCA-job C6H6+AlCl4-+NH2N2+-scan
 OpenBabel10161817473D

 22 20  0  0  0  0  0  0  0  0999 V2000
    3.2934    0.1512   -4.1945 N   0  0  0  0  0  0  0  0  0  0  0  0
    3.5750    0.2432   -5.2659 N   0  0  0  0  0  0  0  0  0  0  0  0
    2.9619    0.1594   -2.9620 N   0  0  0  0  0  0  0  0  0  0  0  0
    2.4553   -0.6976   -2.6624 H   0  0  0  0  0  0  0  0  0  0  0  0
    3.7740    0.3824   -2.3005 H   0  0  0  0  0  0  0  0  0  0  0  0
    1.8814   -2.4662   -6.2228 C   0  0  0  0  0  0  0  0  0  0  0  0
    1.3771   -1.3573   -6.9042 C   0  0  0  0  0  0  0  0  0  0  0  0
    0.4633   -0.5071   -6.2783 C   0  0  0  0  0  0  0  0  0  0  0  0
    0.0458   -0.7709   -4.9739 C   0  0  0  0  0  0  0  0  0  0  0  0
    0.5478   -1.8835   -4.2933 C   0  0  0  0  0  0  0  0  0  0  0  0
    1.4699   -2.7284   -4.9155 C   0  0  0  0  0  0  0  0  0  0  0  0
    2.5916   -3.1259   -6.7082 H   0  0  0  0  0  0  0  0  0  0  0  0
    1.6923   -1.1579   -7.9225 H   0  0  0  0  0  0  0  0  0  0  0  0
    0.0674    0.3500   -6.8121 H   0  0  0  0  0  0  0  0  0  0  0  0
   -0.6788   -0.1226   -4.4932 H   0  0  0  0  0  0  0  0  0  0  0  0
    0.2110   -2.1038   -3.2858 H   0  0  0  0  0  0  0  0  0  0  0  0
    1.8615   -3.5871   -4.3828 H   0  0  0  0  0  0  0  0  0  0  0  0
    4.8551   -2.0605   -1.0810 Al  0  0  0  0  0  0  0  0  0  0  0  0
    5.8504   -3.1241    0.4445 Cl  0  0  0  0  0  0  0  0  0  0  0  0
    5.1198    0.1434   -0.8645 Cl  0  0  0  0  0  0  0  0  0  0  0  0
    5.4602   -2.4748   -3.1093 Cl  0  0  0  0  0  0  0  0  0  0  0  0
    2.6692   -2.3026   -1.0455 Cl  0  0  0  0  0  0  0  0  0  0  0  0
  1  3  1  0  0  0  0
  2  1  1  0  0  0  0
  3  4  1  0  0  0  0
  3  5  1  0  0  0  0
  6 11  2  0  0  0  0
  7  8  2  0  0  0  0
  7  6  1  0  0  0  0
  8  9  1  0  0  0  0
  9 15  1  0  0  0  0
  9 10  2  0  0  0  0
 10 16  1  0  0  0  0
 11 17  1  0  0  0  0
 11 10  1  0  0  0  0
 12  6  1  0  0  0  0
 13  7  1  0  0  0  0
 14  8  1  0  0  0  0
 18 22  1  0  0  0  0
 18 20  1  0  0  0  0
 18 19  1  0  0  0  0
 21 18  1  0  0  0  0
M  RAD  2   1   2   2   3
M  END
