Coordinates from ORCA-job C6H6+AlCl4-+NH2N2+-scan
 OpenBabel10161817473D

 22 20  0  0  0  0  0  0  0  0999 V2000
    3.8313   -1.1522   -4.4374 N   0  0  0  0  0  0  0  0  0  0  0  0
    4.2304   -1.9362   -5.1151 N   0  0  0  0  0  0  0  0  0  0  0  0
    3.4070   -0.1677   -3.7408 N   0  0  0  0  0  0  0  0  0  0  0  0
    2.6032   -0.4128   -3.1240 H   0  0  0  0  0  0  0  0  0  0  0  0
    4.1814    0.2770   -3.1586 H   0  0  0  0  0  0  0  0  0  0  0  0
    1.4634   -1.7125   -7.0278 C   0  0  0  0  0  0  0  0  0  0  0  0
    1.2718   -0.5866   -6.2281 C   0  0  0  0  0  0  0  0  0  0  0  0
    0.9432   -0.7374   -4.8784 C   0  0  0  0  0  0  0  0  0  0  0  0
    0.7728   -2.0150   -4.3389 C   0  0  0  0  0  0  0  0  0  0  0  0
    0.9711   -3.1409   -5.1406 C   0  0  0  0  0  0  0  0  0  0  0  0
    1.3178   -2.9900   -6.4828 C   0  0  0  0  0  0  0  0  0  0  0  0
    1.7168   -1.5963   -8.0757 H   0  0  0  0  0  0  0  0  0  0  0  0
    1.3708    0.4060   -6.6539 H   0  0  0  0  0  0  0  0  0  0  0  0
    0.7493    0.1393   -4.2703 H   0  0  0  0  0  0  0  0  0  0  0  0
    0.4842   -2.1323   -3.3002 H   0  0  0  0  0  0  0  0  0  0  0  0
    0.8441   -4.1318   -4.7198 H   0  0  0  0  0  0  0  0  0  0  0  0
    1.4646   -3.8648   -7.1063 H   0  0  0  0  0  0  0  0  0  0  0  0
    4.0049   -0.6972   -0.3683 Al  0  0  0  0  0  0  0  0  0  0  0  0
    4.2551   -0.5464    1.7201 Cl  0  0  0  0  0  0  0  0  0  0  0  0
    5.1303    0.8729   -1.4689 Cl  0  0  0  0  0  0  0  0  0  0  0  0
    4.6086   -2.5489   -1.2942 Cl  0  0  0  0  0  0  0  0  0  0  0  0
    1.9226   -0.3668   -1.0235 Cl  0  0  0  0  0  0  0  0  0  0  0  0
  1  3  1  0  0  0  0
  2  1  1  0  0  0  0
  3  5  1  0  0  0  0
  3  4  1  0  0  0  0
  6 11  2  0  0  0  0
  6  7  1  0  0  0  0
  7  8  2  0  0  0  0
  8  9  1  0  0  0  0
  8 14  1  0  0  0  0
  9 15  1  0  0  0  0
 10 16  1  0  0  0  0
 10  9  2  0  0  0  0
 11 10  1  0  0  0  0
 12  6  1  0  0  0  0
 13  7  1  0  0  0  0
 17 11  1  0  0  0  0
 18 19  1  0  0  0  0
 20 18  1  0  0  0  0
 21 18  1  0  0  0  0
 22 18  1  0  0  0  0
M  RAD  2   1   2   2   3
M  END
