Coordinates from ORCA-job C6H6+AlCl4-+NH2N2+-scan
 OpenBabel10161817473D

 22 20  0  0  0  0  0  0  0  0999 V2000
    3.8868    0.5912    0.2199 N   0  0  0  0  0  0  0  0  0  0  0  0
    3.4040    1.5926    0.2608 N   0  0  0  0  0  0  0  0  0  0  0  0
    4.4298   -0.5593    0.2653 N   0  0  0  0  0  0  0  0  0  0  0  0
    3.8716   -1.3212   -0.2310 H   0  0  0  0  0  0  0  0  0  0  0  0
    5.4258   -0.5802   -0.1076 H   0  0  0  0  0  0  0  0  0  0  0  0
    0.7790   -2.9582   -6.9230 C   0  0  0  0  0  0  0  0  0  0  0  0
    1.7295   -2.1235   -6.3363 C   0  0  0  0  0  0  0  0  0  0  0  0
    1.3465   -0.8857   -5.8200 C   0  0  0  0  0  0  0  0  0  0  0  0
    0.0130   -0.4838   -5.8929 C   0  0  0  0  0  0  0  0  0  0  0  0
   -0.9373   -1.3182   -6.4802 C   0  0  0  0  0  0  0  0  0  0  0  0
   -0.5541   -2.5561   -6.9951 C   0  0  0  0  0  0  0  0  0  0  0  0
    1.0777   -3.9211   -7.3235 H   0  0  0  0  0  0  0  0  0  0  0  0
    2.7669   -2.4352   -6.2812 H   0  0  0  0  0  0  0  0  0  0  0  0
    2.0866   -0.2388   -5.3623 H   0  0  0  0  0  0  0  0  0  0  0  0
   -0.2848    0.4800   -5.4934 H   0  0  0  0  0  0  0  0  0  0  0  0
   -1.9743   -1.0044   -6.5375 H   0  0  0  0  0  0  0  0  0  0  0  0
   -1.2930   -3.2057   -7.4523 H   0  0  0  0  0  0  0  0  0  0  0  0
    5.1770   -1.6495   -2.8758 Al  0  0  0  0  0  0  0  0  0  0  0  0
    5.7900   -2.7372   -4.5718 Cl  0  0  0  0  0  0  0  0  0  0  0  0
    6.8206   -1.2752   -1.4339 Cl  0  0  0  0  0  0  0  0  0  0  0  0
    4.3017    0.2927   -3.2074 Cl  0  0  0  0  0  0  0  0  0  0  0  0
    3.6818   -2.7439   -1.6544 Cl  0  0  0  0  0  0  0  0  0  0  0  0
  1  2  1  0  0  0  0
  1  3  1  0  0  0  0
  4  3  1  0  0  0  0
  5  3  1  0  0  0  0
  6  7  1  0  0  0  0
  7 13  1  0  0  0  0
  7  8  2  0  0  0  0
  8 14  1  0  0  0  0
  9  8  1  0  0  0  0
  9 15  1  0  0  0  0
 10  9  2  0  0  0  0
 11  6  2  0  0  0  0
 11 10  1  0  0  0  0
 12  6  1  0  0  0  0
 16 10  1  0  0  0  0
 17 11  1  0  0  0  0
 18 22  1  0  0  0  0
 18 20  1  0  0  0  0
 19 18  1  0  0  0  0
 21 18  1  0  0  0  0
M  RAD  2   1   2   2   3
M  END
