Coordinates from ORCA-job C6H6+AlCl4-+NH2N2+-scan
 OpenBabel10161817473D

 22 20  0  0  0  0  0  0  0  0999 V2000
    3.2801    0.1652   -4.1772 N   0  0  0  0  0  0  0  0  0  0  0  0
    3.5522    0.2646   -5.2504 N   0  0  0  0  0  0  0  0  0  0  0  0
    2.9584    0.1655   -2.9418 N   0  0  0  0  0  0  0  0  0  0  0  0
    2.4531   -0.6929   -2.6438 H   0  0  0  0  0  0  0  0  0  0  0  0
    3.7763    0.3813   -2.2854 H   0  0  0  0  0  0  0  0  0  0  0  0
    1.8969   -2.4612   -6.2007 C   0  0  0  0  0  0  0  0  0  0  0  0
    1.3849   -1.3701   -6.9048 C   0  0  0  0  0  0  0  0  0  0  0  0
    0.4550   -0.5212   -6.3011 C   0  0  0  0  0  0  0  0  0  0  0  0
    0.0297   -0.7683   -4.9959 C   0  0  0  0  0  0  0  0  0  0  0  0
    0.5398   -1.8628   -4.2925 C   0  0  0  0  0  0  0  0  0  0  0  0
    1.4774   -2.7067   -4.8927 C   0  0  0  0  0  0  0  0  0  0  0  0
    2.6196   -3.1199   -6.6687 H   0  0  0  0  0  0  0  0  0  0  0  0
    1.7065   -1.1837   -7.9235 H   0  0  0  0  0  0  0  0  0  0  0  0
    0.0531    0.3218   -6.8526 H   0  0  0  0  0  0  0  0  0  0  0  0
   -0.7069   -0.1211   -4.5322 H   0  0  0  0  0  0  0  0  0  0  0  0
    0.1968   -2.0706   -3.2844 H   0  0  0  0  0  0  0  0  0  0  0  0
    1.8750   -3.5515   -4.3424 H   0  0  0  0  0  0  0  0  0  0  0  0
    4.8639   -2.0788   -1.1000 Al  0  0  0  0  0  0  0  0  0  0  0  0
    5.8659   -3.1597    0.4088 Cl  0  0  0  0  0  0  0  0  0  0  0  0
    5.1361    0.1220   -0.8645 Cl  0  0  0  0  0  0  0  0  0  0  0  0
    5.4534   -2.4762   -3.1361 Cl  0  0  0  0  0  0  0  0  0  0  0  0
    2.6773   -2.3162   -1.0517 Cl  0  0  0  0  0  0  0  0  0  0  0  0
  1  3  1  0  0  0  0
  2  1  1  0  0  0  0
  3  4  1  0  0  0  0
  3  5  1  0  0  0  0
  6 11  2  0  0  0  0
  7  8  2  0  0  0  0
  7  6  1  0  0  0  0
  8  9  1  0  0  0  0
  9 15  1  0  0  0  0
  9 10  2  0  0  0  0
 10 16  1  0  0  0  0
 11 17  1  0  0  0  0
 11 10  1  0  0  0  0
 12  6  1  0  0  0  0
 13  7  1  0  0  0  0
 14  8  1  0  0  0  0
 18 22  1  0  0  0  0
 18 20  1  0  0  0  0
 18 19  1  0  0  0  0
 21 18  1  0  0  0  0
M  RAD  2   1   2   2   3
M  END
