Coordinates from ORCA-job C6H6+AlCl4-+NH2N2+-scan
 OpenBabel10161817473D

 22 20  0  0  0  0  0  0  0  0999 V2000
    3.3534    0.6000   -3.2180 N   0  0  0  0  0  0  0  0  0  0  0  0
    3.2721    0.8800   -4.2909 N   0  0  0  0  0  0  0  0  0  0  0  0
    3.3880    0.3452   -1.9678 N   0  0  0  0  0  0  0  0  0  0  0  0
    2.9699   -0.5965   -1.7178 H   0  0  0  0  0  0  0  0  0  0  0  0
    4.3614    0.4061   -1.5448 H   0  0  0  0  0  0  0  0  0  0  0  0
    1.9677   -2.0429   -5.7748 C   0  0  0  0  0  0  0  0  0  0  0  0
    1.5253   -1.4668   -6.9666 C   0  0  0  0  0  0  0  0  0  0  0  0
    0.2111   -1.0125   -7.0781 C   0  0  0  0  0  0  0  0  0  0  0  0
   -0.6600   -1.1281   -5.9947 C   0  0  0  0  0  0  0  0  0  0  0  0
   -0.2196   -1.7035   -4.8027 C   0  0  0  0  0  0  0  0  0  0  0  0
    1.0935   -2.1635   -4.6927 C   0  0  0  0  0  0  0  0  0  0  0  0
    2.9840   -2.4125   -5.6903 H   0  0  0  0  0  0  0  0  0  0  0  0
    2.2020   -1.3820   -7.8100 H   0  0  0  0  0  0  0  0  0  0  0  0
   -0.1342   -0.5722   -8.0072 H   0  0  0  0  0  0  0  0  0  0  0  0
   -1.6831   -0.7786   -6.0822 H   0  0  0  0  0  0  0  0  0  0  0  0
   -0.9021   -1.8068   -3.9658 H   0  0  0  0  0  0  0  0  0  0  0  0
    1.4305   -2.6372   -3.7762 H   0  0  0  0  0  0  0  0  0  0  0  0
    5.3546   -2.4188   -1.3654 Al  0  0  0  0  0  0  0  0  0  0  0  0
    6.4162   -4.0034   -0.4732 Cl  0  0  0  0  0  0  0  0  0  0  0  0
    5.9508   -0.4323   -0.5742 Cl  0  0  0  0  0  0  0  0  0  0  0  0
    5.4853   -2.2185   -3.5069 Cl  0  0  0  0  0  0  0  0  0  0  0  0
    3.1779   -2.4957   -0.9332 Cl  0  0  0  0  0  0  0  0  0  0  0  0
  1  3  1  0  0  0  0
  2  1  1  0  0  0  0
  3  4  1  0  0  0  0
  3  5  1  0  0  0  0
  6 12  1  0  0  0  0
  6 11  2  0  0  0  0
  7  6  1  0  0  0  0
  8  7  2  0  0  0  0
  8  9  1  0  0  0  0
  9 10  2  0  0  0  0
 10 11  1  0  0  0  0
 10 16  1  0  0  0  0
 11 17  1  0  0  0  0
 13  7  1  0  0  0  0
 14  8  1  0  0  0  0
 15  9  1  0  0  0  0
 18 22  1  0  0  0  0
 18 20  1  0  0  0  0
 18 19  1  0  0  0  0
 21 18  1  0  0  0  0
M  RAD  2   1   2   2   3
M  END
