Coordinates from ORCA-job C6H6+AlCl4-+NH2N2+-scan
 OpenBabel10161817473D

 22 20  0  0  0  0  0  0  0  0999 V2000
    2.9017   -0.5731   -0.5886 N   0  0  0  0  0  0  0  0  0  0  0  0
    1.9480   -0.0850   -0.8876 N   0  0  0  0  0  0  0  0  0  0  0  0
    3.9557   -1.1487   -0.1621 N   0  0  0  0  0  0  0  0  0  0  0  0
    4.2196   -2.0192   -0.7159 H   0  0  0  0  0  0  0  0  0  0  0  0
    4.8072   -0.5095   -0.1262 H   0  0  0  0  0  0  0  0  0  0  0  0
    0.0153   -2.9601   -6.1336 C   0  0  0  0  0  0  0  0  0  0  0  0
    1.2830   -2.3977   -5.9885 C   0  0  0  0  0  0  0  0  0  0  0  0
    1.4561   -1.0207   -6.1275 C   0  0  0  0  0  0  0  0  0  0  0  0
    0.3597   -0.2070   -6.4115 C   0  0  0  0  0  0  0  0  0  0  0  0
   -0.9083   -0.7691   -6.5565 C   0  0  0  0  0  0  0  0  0  0  0  0
   -1.0807   -2.1458   -6.4172 C   0  0  0  0  0  0  0  0  0  0  0  0
   -0.1180   -4.0317   -6.0295 H   0  0  0  0  0  0  0  0  0  0  0  0
    2.1371   -3.0300   -5.7712 H   0  0  0  0  0  0  0  0  0  0  0  0
    2.4428   -0.5857   -6.0118 H   0  0  0  0  0  0  0  0  0  0  0  0
    0.4945    0.8636   -6.5226 H   0  0  0  0  0  0  0  0  0  0  0  0
   -1.7602   -0.1359   -6.7803 H   0  0  0  0  0  0  0  0  0  0  0  0
   -2.0665   -2.5835   -6.5328 H   0  0  0  0  0  0  0  0  0  0  0  0
    6.3727   -1.1303   -2.5993 Al  0  0  0  0  0  0  0  0  0  0  0  0
    8.1467   -1.3865   -3.7029 Cl  0  0  0  0  0  0  0  0  0  0  0  0
    6.6917   -0.0146   -0.7051 Cl  0  0  0  0  0  0  0  0  0  0  0  0
    4.7349   -0.1148   -3.5617 Cl  0  0  0  0  0  0  0  0  0  0  0  0
    5.5116   -3.0553   -1.9013 Cl  0  0  0  0  0  0  0  0  0  0  0  0
  1  3  1  0  0  0  0
  2  1  1  0  0  0  0
  3  5  1  0  0  0  0
  4  3  1  0  0  0  0
  6 12  1  0  0  0  0
  6  7  2  0  0  0  0
  7 13  1  0  0  0  0
  8 14  1  0  0  0  0
  8  7  1  0  0  0  0
  9  8  2  0  0  0  0
 10 11  2  0  0  0  0
 10  9  1  0  0  0  0
 11  6  1  0  0  0  0
 15  9  1  0  0  0  0
 16 10  1  0  0  0  0
 17 11  1  0  0  0  0
 18 22  1  0  0  0  0
 18 20  1  0  0  0  0
 19 18  1  0  0  0  0
 21 18  1  0  0  0  0
M  RAD  2   1   2   2   3
M  END
