Coordinates from ORCA-job C6H6+AlCl4-+NH2N2+-scan
 OpenBabel10161817473D

 22 20  0  0  0  0  0  0  0  0999 V2000
    2.8554    0.3156   -3.7715 N   0  0  0  0  0  0  0  0  0  0  0  0
    2.9392    0.7896   -4.7735 N   0  0  0  0  0  0  0  0  0  0  0  0
    2.7274   -0.1283   -2.5817 N   0  0  0  0  0  0  0  0  0  0  0  0
    2.5030   -1.1415   -2.5371 H   0  0  0  0  0  0  0  0  0  0  0  0
    3.5501    0.1193   -1.9413 H   0  0  0  0  0  0  0  0  0  0  0  0
    1.8876   -2.5245   -5.5484 C   0  0  0  0  0  0  0  0  0  0  0  0
    1.7932   -1.6048   -6.5933 C   0  0  0  0  0  0  0  0  0  0  0  0
    0.7871   -0.6366   -6.5829 C   0  0  0  0  0  0  0  0  0  0  0  0
   -0.1285   -0.5881   -5.5307 C   0  0  0  0  0  0  0  0  0  0  0  0
   -0.0366   -1.5087   -4.4865 C   0  0  0  0  0  0  0  0  0  0  0  0
    0.9709   -2.4778   -4.4959 C   0  0  0  0  0  0  0  0  0  0  0  0
    2.6694   -3.2752   -5.5516 H   0  0  0  0  0  0  0  0  0  0  0  0
    2.5002   -1.6441   -7.4144 H   0  0  0  0  0  0  0  0  0  0  0  0
    0.7110    0.0728   -7.3997 H   0  0  0  0  0  0  0  0  0  0  0  0
   -0.9162    0.1573   -5.5303 H   0  0  0  0  0  0  0  0  0  0  0  0
   -0.7564   -1.4838   -3.6754 H   0  0  0  0  0  0  0  0  0  0  0  0
    1.0352   -3.2053   -3.6942 H   0  0  0  0  0  0  0  0  0  0  0  0
    5.3836   -2.1406   -1.6119 Al  0  0  0  0  0  0  0  0  0  0  0  0
    6.8468   -3.2468   -0.5705 Cl  0  0  0  0  0  0  0  0  0  0  0  0
    5.1098   -0.1035   -0.7445 Cl  0  0  0  0  0  0  0  0  0  0  0  0
    5.7470   -1.7832   -3.7083 Cl  0  0  0  0  0  0  0  0  0  0  0  0
    3.3653   -3.0026   -1.4898 Cl  0  0  0  0  0  0  0  0  0  0  0  0
  1  3  1  0  0  0  0
  2  1  1  0  0  0  0
  3  4  1  0  0  0  0
  3  5  1  0  0  0  0
  6 11  2  0  0  0  0
  7  8  2  0  0  0  0
  7  6  1  0  0  0  0
  8  9  1  0  0  0  0
  9 15  1  0  0  0  0
  9 10  2  0  0  0  0
 10 16  1  0  0  0  0
 11 10  1  0  0  0  0
 11 17  1  0  0  0  0
 12  6  1  0  0  0  0
 13  7  1  0  0  0  0
 14  8  1  0  0  0  0
 18 22  1  0  0  0  0
 18 20  1  0  0  0  0
 18 19  1  0  0  0  0
 21 18  1  0  0  0  0
M  RAD  2   1   2   2   3
M  END
