Coordinates from ORCA-job C6H6+AlCl4-+NH2N2+-scan
 OpenBabel10161817473D

 22 20  0  0  0  0  0  0  0  0999 V2000
    3.9185   -1.0941   -4.5292 N   0  0  0  0  0  0  0  0  0  0  0  0
    4.2609   -1.9173   -5.1921 N   0  0  0  0  0  0  0  0  0  0  0  0
    3.6012   -0.0747   -3.8293 N   0  0  0  0  0  0  0  0  0  0  0  0
    2.6762   -0.1611   -3.3771 H   0  0  0  0  0  0  0  0  0  0  0  0
    4.3672    0.2171   -3.1391 H   0  0  0  0  0  0  0  0  0  0  0  0
    1.3928   -1.6938   -6.9820 C   0  0  0  0  0  0  0  0  0  0  0  0
    1.1564   -0.5969   -6.1547 C   0  0  0  0  0  0  0  0  0  0  0  0
    0.9040   -0.7933   -4.7939 C   0  0  0  0  0  0  0  0  0  0  0  0
    0.8689   -2.0863   -4.2651 C   0  0  0  0  0  0  0  0  0  0  0  0
    1.1085   -3.1820   -5.0959 C   0  0  0  0  0  0  0  0  0  0  0  0
    1.3707   -2.9856   -6.4517 C   0  0  0  0  0  0  0  0  0  0  0  0
    1.5842   -1.5450   -8.0389 H   0  0  0  0  0  0  0  0  0  0  0  0
    1.1570    0.4062   -6.5669 H   0  0  0  0  0  0  0  0  0  0  0  0
    0.6718    0.0557   -4.1580 H   0  0  0  0  0  0  0  0  0  0  0  0
    0.6565   -2.2354   -3.2125 H   0  0  0  0  0  0  0  0  0  0  0  0
    1.0841   -4.1852   -4.6861 H   0  0  0  0  0  0  0  0  0  0  0  0
    1.5504   -3.8381   -7.0972 H   0  0  0  0  0  0  0  0  0  0  0  0
    3.8375   -0.7101   -0.4149 Al  0  0  0  0  0  0  0  0  0  0  0  0
    4.0493   -0.6321    1.6829 Cl  0  0  0  0  0  0  0  0  0  0  0  0
    5.3184    0.6005   -1.4454 Cl  0  0  0  0  0  0  0  0  0  0  0  0
    4.0991   -2.6413   -1.3427 Cl  0  0  0  0  0  0  0  0  0  0  0  0
    1.9112    0.0520   -1.1437 Cl  0  0  0  0  0  0  0  0  0  0  0  0
  1  3  1  0  0  0  0
  2  1  1  0  0  0  0
  3  4  1  0  0  0  0
  3  5  1  0  0  0  0
  6 11  2  0  0  0  0
  6  7  1  0  0  0  0
  7  8  2  0  0  0  0
  8  9  1  0  0  0  0
  8 14  1  0  0  0  0
  9 15  1  0  0  0  0
 10 16  1  0  0  0  0
 10  9  2  0  0  0  0
 11 10  1  0  0  0  0
 12  6  1  0  0  0  0
 13  7  1  0  0  0  0
 17 11  1  0  0  0  0
 18 19  1  0  0  0  0
 20 18  1  0  0  0  0
 21 18  1  0  0  0  0
 22 18  1  0  0  0  0
M  RAD  2   1   2   2   3
M  END
