Coordinates from ORCA-job C6H6+AlCl4-+NH2N2+-scan
 OpenBabel10161817473D

 22 20  0  0  0  0  0  0  0  0999 V2000
    3.9543    0.6118    0.2754 N   0  0  0  0  0  0  0  0  0  0  0  0
    3.4696    1.6119    0.3230 N   0  0  0  0  0  0  0  0  0  0  0  0
    4.5028   -0.5364    0.3134 N   0  0  0  0  0  0  0  0  0  0  0  0
    3.9312   -1.3046   -0.1570 H   0  0  0  0  0  0  0  0  0  0  0  0
    5.4857   -0.5574   -0.0935 H   0  0  0  0  0  0  0  0  0  0  0  0
    0.7717   -2.9583   -6.9685 C   0  0  0  0  0  0  0  0  0  0  0  0
    1.7123   -2.1294   -6.3582 C   0  0  0  0  0  0  0  0  0  0  0  0
    1.3198   -0.8989   -5.8315 C   0  0  0  0  0  0  0  0  0  0  0  0
   -0.0132   -0.4984   -5.9173 C   0  0  0  0  0  0  0  0  0  0  0  0
   -0.9537   -1.3270   -6.5282 C   0  0  0  0  0  0  0  0  0  0  0  0
   -0.5611   -2.5575   -7.0535 C   0  0  0  0  0  0  0  0  0  0  0  0
    1.0776   -3.9155   -7.3771 H   0  0  0  0  0  0  0  0  0  0  0  0
    2.7497   -2.4391   -6.2924 H   0  0  0  0  0  0  0  0  0  0  0  0
    2.0529   -0.2576   -5.3552 H   0  0  0  0  0  0  0  0  0  0  0  0
   -0.3185    0.4595   -5.5093 H   0  0  0  0  0  0  0  0  0  0  0  0
   -1.9905   -1.0145   -6.5955 H   0  0  0  0  0  0  0  0  0  0  0  0
   -1.2925   -3.2026   -7.5289 H   0  0  0  0  0  0  0  0  0  0  0  0
    5.1474   -1.6534   -2.8434 Al  0  0  0  0  0  0  0  0  0  0  0  0
    5.7131   -2.7530   -4.5485 Cl  0  0  0  0  0  0  0  0  0  0  0  0
    6.8356   -1.2589   -1.4591 Cl  0  0  0  0  0  0  0  0  0  0  0  0
    4.2506    0.2803   -3.1683 Cl  0  0  0  0  0  0  0  0  0  0  0  0
    3.7000   -2.7415   -1.5601 Cl  0  0  0  0  0  0  0  0  0  0  0  0
  1  3  1  0  0  0  0
  1  2  1  0  0  0  0
  4  3  1  0  0  0  0
  5  3  1  0  0  0  0
  6  7  1  0  0  0  0
  7 13  1  0  0  0  0
  7  8  2  0  0  0  0
  8 14  1  0  0  0  0
  9  8  1  0  0  0  0
  9 15  1  0  0  0  0
 10  9  2  0  0  0  0
 11  6  2  0  0  0  0
 11 10  1  0  0  0  0
 12  6  1  0  0  0  0
 16 10  1  0  0  0  0
 17 11  1  0  0  0  0
 18 22  1  0  0  0  0
 18 20  1  0  0  0  0
 19 18  1  0  0  0  0
 21 18  1  0  0  0  0
M  RAD  2   1   2   2   3
M  END
