Coordinates from ORCA-job C6H6+AlCl4-+NH2N2+-scan
 OpenBabel10161817473D

 22 19  0  0  0  0  0  0  0  0999 V2000
    6.5621   -1.9398   -4.5819 N   0  0  0  0  0  0  0  0  0  0  0  0
    7.5022   -1.5105   -4.2193 N   0  0  0  0  0  0  0  0  0  0  0  0
    3.3096   -3.1273   -4.4719 N   0  0  0  0  0  0  0  0  0  0  0  0
    3.2989   -3.2591   -3.4688 H   0  0  0  0  0  0  0  0  0  0  0  0
    4.2395   -2.9169   -4.8087 H   0  0  0  0  0  0  0  0  0  0  0  0
    1.3948   -0.8159   -6.7160 C   0  0  0  0  0  0  0  0  0  0  0  0
    2.4186   -1.6085   -6.2162 C   0  0  0  0  0  0  0  0  0  0  0  0
    2.2860   -2.2234   -4.9617 C   0  0  0  0  0  0  0  0  0  0  0  0
    1.1159   -1.9880   -4.2086 C   0  0  0  0  0  0  0  0  0  0  0  0
    0.0725   -1.2159   -4.7518 C   0  0  0  0  0  0  0  0  0  0  0  0
    0.2119   -0.6143   -5.9939 C   0  0  0  0  0  0  0  0  0  0  0  0
    1.5159   -0.3495   -7.6877 H   0  0  0  0  0  0  0  0  0  0  0  0
    3.3178   -1.7726   -6.7995 H   0  0  0  0  0  0  0  0  0  0  0  0
    1.8091   -0.4684   -3.4501 H   0  0  0  0  0  0  0  0  0  0  0  0
    0.9659   -2.5147   -3.2712 H   0  0  0  0  0  0  0  0  0  0  0  0
   -0.8332   -1.0776   -4.1717 H   0  0  0  0  0  0  0  0  0  0  0  0
   -0.5832   -0.0032   -6.4025 H   0  0  0  0  0  0  0  0  0  0  0  0
    2.6093   -0.4101   -0.5851 Al  0  0  0  0  0  0  0  0  0  0  0  0
    0.6169   -1.0021   -0.1811 Cl  0  0  0  0  0  0  0  0  0  0  0  0
    2.3800    0.5944   -2.7801 Cl  0  0  0  0  0  0  0  0  0  0  0  0
    3.4079    1.2142    0.4917 Cl  0  0  0  0  0  0  0  0  0  0  0  0
    3.9263   -2.0314   -0.9976 Cl  0  0  0  0  0  0  0  0  0  0  0  0
  1  2  3  0  0  0  0
  3  4  1  0  0  0  0
  5  3  1  0  0  0  0
  6  7  2  0  0  0  0
  6 11  1  0  0  0  0
  7  8  1  0  0  0  0
  8  3  1  0  0  0  0
  8  9  2  0  0  0  0
  9 15  1  0  0  0  0
 10  9  1  0  0  0  0
 10 16  1  0  0  0  0
 11 10  2  0  0  0  0
 12  6  1  0  0  0  0
 13  7  1  0  0  0  0
 14 20  1  0  0  0  0
 17 11  1  0  0  0  0
 18 19  1  0  0  0  0
 18 21  1  0  0  0  0
 22 18  1  0  0  0  0
M  END
