Coordinates from ORCA-job C6H6+AlCl4-+NH2N2+-scan
 OpenBabel10161817473D

 22 20  0  0  0  0  0  0  0  0999 V2000
    6.5579   -2.2727   -4.9998 N   0  0  0  0  0  0  0  0  0  0  0  0
    7.6520   -2.2587   -5.0376 N   0  0  0  0  0  0  0  0  0  0  0  0
    3.4032   -2.0059   -4.1337 N   0  0  0  0  0  0  0  0  0  0  0  0
    3.3844   -2.1166   -3.1017 H   0  0  0  0  0  0  0  0  0  0  0  0
    4.3141   -2.1864   -4.5509 H   0  0  0  0  0  0  0  0  0  0  0  0
    1.3848   -1.2729   -6.9162 C   0  0  0  0  0  0  0  0  0  0  0  0
    2.5086   -1.5571   -6.2137 C   0  0  0  0  0  0  0  0  0  0  0  0
    2.4651   -1.6772   -4.7701 C   0  0  0  0  0  0  0  0  0  0  0  0
    1.1686   -1.3266   -4.0794 C   0  0  0  0  0  0  0  0  0  0  0  0
   -0.0113   -1.0980   -4.9581 C   0  0  0  0  0  0  0  0  0  0  0  0
    0.0961   -1.0588   -6.2962 C   0  0  0  0  0  0  0  0  0  0  0  0
    1.4503   -1.2104   -7.9977 H   0  0  0  0  0  0  0  0  0  0  0  0
    3.4541   -1.7304   -6.7171 H   0  0  0  0  0  0  0  0  0  0  0  0
    1.3647   -0.3954   -3.5181 H   0  0  0  0  0  0  0  0  0  0  0  0
    0.9418   -2.0522   -3.2900 H   0  0  0  0  0  0  0  0  0  0  0  0
   -0.9584   -0.9253   -4.4598 H   0  0  0  0  0  0  0  0  0  0  0  0
   -0.7631   -0.8623   -6.9250 H   0  0  0  0  0  0  0  0  0  0  0  0
    2.6170   -0.5584   -0.3699 Al  0  0  0  0  0  0  0  0  0  0  0  0
    0.4631   -0.6580   -0.4573 Cl  0  0  0  0  0  0  0  0  0  0  0  0
    3.2885    0.7678   -1.9707 Cl  0  0  0  0  0  0  0  0  0  0  0  0
    3.4023   -0.0335    1.5315 Cl  0  0  0  0  0  0  0  0  0  0  0  0
    3.3609   -2.5518   -1.0024 Cl  0  0  0  0  0  0  0  0  0  0  0  0
  2  1  3  0  0  0  0
  3  4  1  0  0  0  0
  5  3  1  0  0  0  0
  6 11  1  0  0  0  0
  6  7  1  0  0  0  0
  7  8  2  0  0  0  0
  8  3  1  0  0  0  0
  8  9  1  0  0  0  0
  9 14  1  0  0  0  0
  9 15  1  0  0  0  0
 10 16  1  0  0  0  0
 10  9  1  0  0  0  0
 11 10  2  0  0  0  0
 12  6  1  0  0  0  0
 13  7  1  0  0  0  0
 17 11  1  0  0  0  0
 18 21  1  0  0  0  0
 19 18  1  0  0  0  0
 20 18  1  0  0  0  0
 22 18  1  0  0  0  0
M  RAD  1   6   2
M  END
