17
Coordinates from ORCA-job C6H6+NH2--N2+-scan
  N   -0.02550815837392     -1.96614680262875     -1.05763682335680
  N   -0.95619610122250     -2.11321042542996     -0.47074229038076
  N   1.05494625795406     -1.83335513225870     -1.82271875931486
  H   0.98831053359656     -2.20243341896464     -2.81199462093696
  H   1.83973359427920     -1.36310662157544     -1.38173654269034
  C   -0.45774321630520     -2.92384469174422     -4.46273511386443
  C   0.93403586769881     -2.95197599775650     -4.64415868520353
  C   1.61855242527140     -1.77404946566075     -4.98175982329056
  C   0.91598677910347     -0.57584345198964     -5.12501083598516
  C   -0.46650120678593     -0.55147279704925     -4.93733803884948
  C   -1.15379740938218     -1.72219326303091     -4.60629167258022
  H   -0.99228397803052     -3.84251316247751     -4.24612864877834
  H   1.47024566734267     -3.89327579512409     -4.58390476091593
  H   2.68837056743427     -1.80308617323553     -5.15676667918113
  H   1.44192772551624      0.32987069481397     -5.40358667886434
  H   -1.01254304910467      0.37579806784870     -5.06774553171592
  H   -2.23173629899177     -1.70336156373676     -4.49174449409126
