17
Coordinates from ORCA-job C6H6+NH2--N2+-scan
  N   3.65128430936212      0.12558773746531     -2.96538966335896
  N   4.57517656148174      0.69358151911470     -2.81095414778614
  N   -0.94553872001907     -3.42516855400128     -2.28613380789104
  H   -1.86333899348222     -3.63496859965342     -2.66316543226101
  H   -1.04473784757262     -3.09346264552404     -1.33385817782227
  C   0.75239788684931     -2.49023714350632     -5.42376030935571
  C   0.46898547679477     -3.16929145481435     -4.26638709750660
  C   -0.21261027188408     -2.50925814098547     -3.13363622722372
  C   -0.73966530923701     -1.14953611682958     -3.41018802789108
  C   -0.44893760062379     -0.49923706151642     -4.57959864246073
  C   0.28925973847084     -1.17055890301677     -5.57676984782092
  H   1.29460111849073     -2.96949743238350     -6.22960697688127
  H   0.77712711112232     -4.19725374396665     -4.10673051093913
  H   0.72407928731379     -2.21511513543029     -2.57231613656681
  H   -1.31627708484796     -0.66785625065581     -2.62648085952793
  H   -0.80441454725062      0.50798446083198     -4.76049123668857
  H   0.49840888503178     -0.64991253512800     -6.50653289801807
