17
Coordinates from ORCA-job C6H6+NH2--N2+-scan
  N   3.51579407433931      0.24236356952118     -3.61248828595125
  N   4.45997549225169      0.77504971133218     -3.45478585786891
  N   -1.14065058828534     -3.51600663082590     -2.38524650261114
  H   -2.01772064633513     -3.66697896629643     -2.87182178055993
  H   -1.33472429727898     -3.24001044937998     -1.42968116636192
  C   0.90956764630520     -2.44093992967234     -5.25567158560483
  C   0.48542546804056     -3.18239332013312     -4.18320719235503
  C   -0.29486828523158     -2.57284937491568     -3.08595211532384
  C   -0.75348437220254     -1.18137983742520     -3.32544079693367
  C   -0.32190656493675     -0.46834343221413     -4.41132445782640
  C   0.50252669924463     -1.09865703102024     -5.36689820916765
  H   1.52161001753023     -2.88591442534123     -6.03050654129067
  H   0.74592123841679     -4.22859583569606     -4.06174649510144
  H   0.58105717205232     -2.35043293975990     -2.40754475498883
  H   -1.39838602862033     -0.73173820034641     -2.57667712470265
  H   -0.62897632819825      0.55963963027073     -4.56102606173592
  H   0.82463930290818     -0.52701253809737     -6.23198107161588
