17
Coordinates from ORCA-job C6H6+NH2--N2+-scan
  N   -0.00010497637765     -1.96457355377327     -1.07612053820137
  N   -0.92477469959099     -2.10627772300163     -0.47338831180743
  N   1.02376575950254     -1.83980683832597     -1.81785303646904
  H   0.97142124656239     -2.21146799475112     -2.81155065855326
  H   1.83195365796068     -1.37634955515738     -1.41046506858507
  C   -0.45836986850418     -2.92250305632299     -4.46073148819168
  C   0.93487831557520     -2.94888201399044     -4.63424392634467
  C   1.61958067742744     -1.77069563269761     -4.97183011514546
  C   0.91620390974412     -0.57390606836838     -5.12011317989761
  C   -0.46744472363165     -0.55110735677295     -4.93865377577894
  C   -1.15520327130917     -1.72200509387494     -4.60935294020502
  H   -0.99265466706546     -3.84145590868577     -4.24471639211494
  H   1.47182307206585     -3.88962435453521     -4.57081707008193
  H   2.69023716053469     -1.79884379373019     -5.14183734421050
  H   1.44197310069473      0.33209617116653     -5.39807457883918
  H   -1.01389012263185      0.37540800320787     -5.07272075930085
  H   -2.23359457095670     -1.70420523038652     -4.49953081627307
