17
Coordinates from ORCA-job C6H6+NH2--N2+-scan
  N   3.08535918826503     -0.65426258354024     -2.24270648219438
  N   4.03661422982313     -0.21703014237343     -1.92115049098388
  N   -0.44836436192192     -3.14684799923658     -2.14203829552555
  H   -1.38118066952679     -3.50031020168660     -2.32419854665392
  H   -0.43345602755461     -2.69925956770305     -1.23330149836750
  C   0.64594917669836     -2.47122022434212     -5.60376629116737
  C   0.60808022569995     -3.01985997163987     -4.34617011271171
  C   0.02204954108671     -2.28929013068829     -3.20678584593826
  C   -0.69688945704085     -1.03992030190871     -3.55051112278472
  C   -0.64867841687870     -0.51830470644197     -4.81645757340386
  C   0.01614906060243     -1.23507744567795     -5.83280360274229
  H   1.12260296661684     -2.99519530291088     -6.42313585310906
  H   1.05513024532204     -3.98222647417967     -4.12015239262275
  H   0.99355571178285     -1.82141440876932     -2.85264977787936
  H   -1.21195752169645     -0.52146892651378     -2.74766649914213
  H   -1.14160562301071      0.41709731090601     -5.05254305168204
  H   0.03244173173274     -0.81960892329343     -6.83596256309116
