26
Coordinates from ORCA-job C6H6+HOTf+NH2--N2+-scan
  N   1.29174115444544     -5.24220307387853     -1.84745438166393
  N   1.17263600542522     -6.17045448985535     -2.46830037394597
  N   1.37848094954888     -4.09793277371361     -1.27937113659373
  H   0.49732109927261     -2.67824775040613     -1.75982607910296
  H   4.09258011649314     -2.16901957468593      2.55836758389910
  C   -1.00100358781745     -2.00765402363522     -3.03390040611621
  C   -0.75259178059152     -1.53889185691383     -4.30206391433592
  C   0.33286252929113     -0.66945854689424     -4.51277754225859
  C   1.17746359167812     -0.25727385126712     -3.47067931685639
  C   0.94399672426086     -0.71748870975710     -2.19401104594259
  C   -0.11254182590310     -1.67307756515566     -1.94032462702858
  H   -1.83752835900159     -2.67151747571901     -2.84341543547076
  H   -1.39108417554688     -1.81516846649746     -5.13203489423949
  H   0.51888189617700     -0.29965000979554     -5.51613801067129
  H   1.99006798980871      0.42932753283887     -3.67327078552563
  H   1.56779208551959     -0.41924080108694     -1.35921757233537
  H   -0.56476346428373     -1.61130798458077     -0.94555993098593
  S   2.04599319571719     -2.18193406248267      1.87293508616951
  O   1.36875224160780     -1.28109139934937      0.96619857371866
  O   2.23726887346850     -3.58534637519076      1.53651882823823
  O   3.46147835583429     -1.50534727818480      2.23112274896945
  C   1.17423811670605     -2.10336828172145      3.55115709092076
  F   1.93185496442063     -2.72893594945094      4.44095057839935
  F   1.00295433273945     -0.84124248662835      3.89128958455377
  F   0.00727513559310     -2.71467963120920      3.42479024718856
  H   1.71537383513704     -4.20099511477868     -0.31478486898401
