17
Coordinates from ORCA-job C6H6+NH2N2+-aug-scan
  N   1.04449014928243     -1.60461754991572     -1.50835774171249
  N   0.53265377425468     -2.16583362056286     -2.36018464326802
  N   1.73843705782574     -0.58758354381715     -1.06274208897363
  H   1.56543764970586      0.28896377605760     -1.56253542718864
  H   1.83167566175150     -0.56005624058478     -0.04907406936034
  C   -0.21683392059673     -3.47789093769694     -5.31704122746735
  C   1.05424272647820     -2.89910405890010     -5.25491573876556
  C   1.19274488788359     -1.57938406116667     -4.81036339121352
  C   0.04524910532873     -0.84080333820890     -4.42875632785249
  C   -1.23368751505798     -1.42599040537388     -4.51200381887827
  C   -1.35911756364560     -2.74306039058101     -4.94784540152346
  H   -0.32739834816428     -4.50472088141342     -5.66702276942620
  H   1.93168410297565     -3.46819330133644     -5.56147124441901
  H   2.17642918941332     -1.10798362105840     -4.79216473675824
  H   0.14171999543635      0.21208754765568     -4.15484105471772
  H   -2.11735405062727     -0.84607226966779     -4.24569484568996
  H   -2.34457290224424     -3.20395710342919     -5.01698547278486
