17
Coordinates from ORCA-job C6H6+NH2N2+-aug-scan
  N   1.09421957362703     -1.52395433858201     -1.56023710278280
  N   1.05487440522322     -2.00790182716601     -2.58717863641428
  N   0.86168144083313     -0.61267558954986     -0.65216015556416
  H   -0.05886379359119     -0.17108630450550     -0.72871081207561
  H   1.20624401649844     -0.85590863042705      0.27582101140724
  C   -0.21639928643641     -3.47052543582172     -5.07822058873973
  C   0.96440212341678     -2.99719580770958     -5.67420215787124
  C   1.31088806366513     -1.64264060649751     -5.59276984441767
  C   0.48000213596565     -0.75310864444438     -4.90560508084806
  C   -0.69968964789908     -1.22920771623099     -4.28930312018895
  C   -1.05240753592697     -2.59009406809363     -4.39121081938916
  H   -0.48439629028995     -4.52359305517137     -5.16506344596349
  H   1.60948681402363     -3.68865018302000     -6.21724942112356
  H   2.21801072026791     -1.28111958934569     -6.07701237361166
  H   0.72739812355896      0.30823259560474     -4.86239617609552
  H   -1.37867435431648     -0.52721613341614     -3.80114781289358
  H   -1.98097650861985     -2.94755466562330     -3.94535346342754
