17
Coordinates from ORCA-job C6H6+NH2N2+-aug-scan
  N   1.07053823069695     -1.55884945043603     -1.51836714968827
  N   0.72669700244296     -2.14677729453233     -2.42928179645174
  N   1.48480840865811     -0.50098150710651     -0.87267031226379
  H   1.10350332694698      0.38250449769078     -1.22215226895664
  H   1.56774996726048     -0.63328049778239      0.13423900658109
  C   -0.24808625349154     -3.49872108162463     -5.30400323700605
  C   1.03076395125355     -2.94314441604096     -5.45954851048664
  C   1.26348345886592     -1.61884890985905     -5.08692378747592
  C   0.20986685209265     -0.84926260289997     -4.54502690935438
  C   -1.08081963839598     -1.40715934612134     -4.41115566396609
  C   -1.30311946989790     -2.73265795079129     -4.78545107812891
  H   -0.42755908315982     -4.53198480715427     -5.60295473950403
  H   1.83684786593298     -3.54209404690858     -5.88331406617990
  H   2.24833501017189     -1.17233467908912     -5.22733577978104
  H   0.37186103308318      0.20629328642635     -4.31664734970127
  H   -1.90191865949420     -0.79756193247806     -4.03243191475832
  H   -2.29715200296626     -3.16933926129258     -4.68897444287787
