17
Coordinates from ORCA-job C6H6+NH2N2+-aug-scan
  N   1.07307244222977     -1.55472685350379     -1.51080793394579
  N   0.71661044645229     -2.14249666695575     -2.41680548860785
  N   1.50700957979336     -0.49996447809985     -0.87248965376474
  H   1.14234260045917      0.38785244744497     -1.22907998789633
  H   1.58007791181646     -0.62591574166872      0.13614033063900
  C   -0.24833330994400     -3.49981411880142     -5.31099947185003
  C   1.03115566389314     -2.94274036665835     -5.45299079264746
  C   1.25838773842285     -1.61898986918226     -5.07453158013647
  C   0.19898285252284     -0.85238587915716     -4.53963293226731
  C   -1.09223732214511     -1.41152103016728     -4.42021075588950
  C   -1.30926049755933     -2.73582445944990     -4.80065020417738
  H   -0.42409918958755     -4.53250572231160     -5.61412814229170
  H   1.84189940407149     -3.53950042616652     -5.87089940574051
  H   2.24381837498371     -1.17056450462289     -5.20475917832990
  H   0.35763063809513      0.20283658194627     -4.30732780387681
  H   -1.91750776102861     -0.80405975570834     -4.04726861521682
  H   -2.30374957247566     -3.17387915693739     -4.71555838400016
