17
Coordinates from ORCA-job C6H6+NH2N2+-aug-scan
  N   1.06052392982956     -1.56661182812578     -1.50405041048241
  N   0.62190200145989     -2.14766588461449     -2.37926952760129
  N   1.62750152724099     -0.52847088963415     -0.94778788903964
  H   1.36824627725086      0.36870427782944     -1.36713157206618
  H   1.70801421093244     -0.59151456699540      0.06577300134703
  C   -0.23739642263955     -3.49344796419413     -5.32575559700151
  C   1.04250860143283     -2.92552982538222     -5.36663965082600
  C   1.22815118324886     -1.60480063069150     -4.95173007468645
  C   0.12368352942431     -0.85377805460099     -4.48538728132756
  C   -1.16606300729703     -1.42513214299110     -4.46761275978338
  C   -1.34030143190054     -2.74462367939022     -4.88104316917591
  H   -0.38269970630081     -4.52265207597303     -5.65564500945559
  H   1.88749907535080     -3.50808926276038     -5.73343556146641
  H   2.21575907282428     -1.14515591876834     -5.00660006433950
  H   0.25318938929981      0.19999852575707     -4.22936887011894
  H   -2.02117226712205     -0.83178741891152     -4.14300848472809
  H   -2.33354596303468     -3.19364266055324     -4.87330707924797
