17
Coordinates from ORCA-job C6H6+NH2N2+-aug-scan
  N   1.07979953227140     -1.53394937924036     -1.53004599015210
  N   0.81586864234024     -2.11202817308862     -2.47061427840729
  N   1.36892246264727     -0.50247788117620     -0.78353176063025
  H   0.88152432381906      0.35835543822422     -1.04718552410152
  H   1.47199009156077     -0.72129119315269      0.20677198807303
  C   -0.24850206579064     -3.50618132562570     -5.26360912328449
  C   1.01817187608858     -2.95911008006599     -5.52560194550003
  C   1.27843033162076     -1.62322315020881     -5.21919977069062
  C   0.26811587599025     -0.83147579006210     -4.63587223708631
  C   -1.01030615915011     -1.38048810426349     -4.39102230493685
  C   -1.26276141209771     -2.71888062737999     -4.70301409156587
  H   -0.44842666742690     -4.54867264375362     -5.51341098837726
  H   1.79272677723712     -3.57633705922636     -5.98104246553471
  H   2.25288018659499     -1.18730760049742     -5.44087135283679
  H   0.45077905282797      0.22831734490218     -4.44756568576755
  H   -1.80390640429723     -0.75351052007990     -3.98236851769309
  H   -2.24950644423590     -3.14593925530512     -4.52381595150805
