17
Coordinates from ORCA-job C6H6+NH2N2+-aug-scan
  N   -0.00331478136636     -0.07241434282138      0.65378524053194
  N   0.46492886302011     -0.31825432281922     -0.31446885418075
  N   1.79146481230341     -1.06707962743213     -3.03229852165982
  H   2.56126093435597     -1.70944453416604     -2.81771364370723
  H   2.20489442934810     -0.22536988424780     -3.45013863143329
  C   0.02590235719554     -3.65440049650755     -5.10517785370195
  C   0.96138766104899     -3.06035368226834     -4.25060127534418
  C   0.80935872326226     -1.71006331888883     -3.95130776942177
  C   -0.22351055329459     -0.92776991812067     -4.46291102073102
  C   -1.14784620049706     -1.53839600915289     -5.31530690321623
  C   -1.02271617820020     -2.89576283412992     -5.63379522898377
  H   0.12290085457541     -4.71006687073517     -5.35637180408370
  H   1.78258946880565     -3.64866979141979     -3.83703179404616
  H   1.35642920041701     -0.79284041532384     -2.13528146001904
  H   -0.31630905057010      0.13016337270042     -4.21204445315100
  H   -1.96475257268554     -0.94955537852534     -5.73119196026815
  H   -1.74686796771864     -3.36392194614150     -6.30014406658358
