Coordinates from ORCA-job C6H6+NH2--N2+-scan
 OpenBabel10171807273D

 17 16  0  0  1  0  0  0  0  0999 V2000
    1.4462   -2.0254   -0.2245 N   0  0  0  0  0  0  0  0  0  0  0  0
    1.7724   -2.9857    0.1965 N   0  0  0  0  0  0  0  0  0  0  0  0
    1.0731   -1.5830   -2.2659 N   0  0  0  0  0  0  0  0  0  0  0  0
    0.1883   -1.2967   -1.8553 H   0  0  0  0  0  0  0  0  0  0  0  0
    1.7442   -0.8535   -2.0440 H   0  0  0  0  0  0  0  0  0  0  0  0
   -0.4765   -3.1030   -5.2317 C   0  0  0  0  0  0  0  0  0  0  0  0
    0.3811   -2.9797   -4.1731 C   0  0  0  0  0  0  0  0  0  0  0  0
    0.9019   -1.6625   -3.7477 C   0  0  1  0  0  0  0  0  0  0  0  0
    0.3191   -0.4932   -4.4442 C   0  0  0  0  0  0  0  0  0  0  0  0
   -0.5754   -0.6401   -5.4714 C   0  0  0  0  0  0  0  0  0  0  0  0
   -0.9605   -1.9381   -5.8635 C   0  0  0  0  0  0  0  0  0  0  0  0
   -0.8198   -4.0760   -5.5609 H   0  0  0  0  0  0  0  0  0  0  0  0
    0.7397   -3.8431   -3.6224 H   0  0  0  0  0  0  0  0  0  0  0  0
    1.9408   -1.7025   -4.1623 H   0  0  0  0  0  0  0  0  0  0  0  0
    0.6459    0.4923   -4.1264 H   0  0  0  0  0  0  0  0  0  0  0  0
   -0.9949    0.2216   -5.9764 H   0  0  0  0  0  0  0  0  0  0  0  0
   -1.6699   -2.0456   -6.6788 H   0  0  0  0  0  0  0  0  0  0  0  0
  1  2  3  0  0  0  0
  3  5  1  0  0  0  0
  3  4  1  0  0  0  0
  6  7  2  0  0  0  0
  7  8  1  0  0  0  0
  7 13  1  0  0  0  0
  8 14  1  6  0  0  0
  8  3  1  0  0  0  0
  9 15  1  0  0  0  0
  9  8  1  0  0  0  0
 10  9  2  0  0  0  0
 11 10  1  0  0  0  0
 11  6  1  0  0  0  0
 12  6  1  0  0  0  0
 16 10  1  0  0  0  0
 17 11  1  0  0  0  0
M  RAD  1  11   2
M  END
