Coordinates from ORCA-job C6H6+NH2--N2+-scan
 OpenBabel10171807273D

 17 16  0  0  1  0  0  0  0  0999 V2000
    3.0903   -0.6237   -2.2847 N   0  0  0  0  0  0  0  0  0  0  0  0
    4.0382   -0.1688   -1.9781 N   0  0  0  0  0  0  0  0  0  0  0  0
   -0.4711   -3.1620   -2.1448 N   0  0  0  0  0  0  0  0  0  0  0  0
   -1.4033   -3.5112   -2.3378 H   0  0  0  0  0  0  0  0  0  0  0  0
   -0.4637   -2.7175   -1.2344 H   0  0  0  0  0  0  0  0  0  0  0  0
    0.6520   -2.4723   -5.5947 C   0  0  0  0  0  0  0  0  0  0  0  0
    0.5999   -3.0297   -4.3413 C   0  0  0  0  0  0  0  0  0  0  0  0
    0.0115   -2.3021   -3.2017 C   0  0  1  0  0  0  0  0  0  0  0  0
   -0.6940   -1.0442   -3.5413 C   0  0  0  0  0  0  0  0  0  0  0  0
   -0.6312   -0.5139   -4.8031 C   0  0  0  0  0  0  0  0  0  0  0  0
    0.0349   -1.2292   -5.8196 C   0  0  0  0  0  0  0  0  0  0  0  0
    1.1307   -2.9945   -6.4141 H   0  0  0  0  0  0  0  0  0  0  0  0
    1.0376   -3.9972   -4.1186 H   0  0  0  0  0  0  0  0  0  0  0  0
    0.9858   -1.8420   -2.8435 H   0  0  0  0  0  0  0  0  0  0  0  0
   -1.2106   -0.5271   -2.7386 H   0  0  0  0  0  0  0  0  0  0  0  0
   -1.1138    0.4277   -5.0360 H   0  0  0  0  0  0  0  0  0  0  0  0
    0.0626   -0.8066   -6.8195 H   0  0  0  0  0  0  0  0  0  0  0  0
  1  2  3  0  0  0  0
  3  5  1  0  0  0  0
  4  3  1  0  0  0  0
  6  7  2  0  0  0  0
  7 13  1  0  0  0  0
  7  8  1  0  0  0  0
  8 14  1  1  0  0  0
  8  3  1  0  0  0  0
  9  8  1  0  0  0  0
  9 15  1  0  0  0  0
 10  9  2  0  0  0  0
 11  6  1  0  0  0  0
 11 10  1  0  0  0  0
 12  6  1  0  0  0  0
 16 10  1  0  0  0  0
 17 11  1  0  0  0  0
M  RAD  1  11   2
M  END
