Coordinates from ORCA-job C6H6+NH2--N2+-scan
 OpenBabel10171807273D

 17 16  0  0  1  0  0  0  0  0999 V2000
    1.6834   -1.6516    0.4948 N   0  0  0  0  0  0  0  0  0  0  0  0
    2.0364   -2.0897    1.4346 N   0  0  0  0  0  0  0  0  0  0  0  0
    1.1564   -1.9280   -2.4490 N   0  0  0  0  0  0  0  0  0  0  0  0
    0.3484   -1.8166   -1.8478 H   0  0  0  0  0  0  0  0  0  0  0  0
    1.8686   -1.2733   -2.1509 H   0  0  0  0  0  0  0  0  0  0  0  0
   -0.5458   -3.0505   -5.5219 C   0  0  0  0  0  0  0  0  0  0  0  0
    0.2901   -3.0655   -4.4346 C   0  0  0  0  0  0  0  0  0  0  0  0
    0.8165   -1.8147   -3.8493 C   0  0  1  0  0  0  0  0  0  0  0  0
    0.2262   -0.5624   -4.3857 C   0  0  0  0  0  0  0  0  0  0  0  0
   -0.6151   -0.5782   -5.4663 C   0  0  0  0  0  0  0  0  0  0  0  0
   -0.9972   -1.8161   -6.0243 C   0  0  0  0  0  0  0  0  0  0  0  0
   -0.8880   -3.9744   -5.9718 H   0  0  0  0  0  0  0  0  0  0  0  0
    0.6451   -3.9888   -3.9889 H   0  0  0  0  0  0  0  0  0  0  0  0
    1.7916   -1.8018   -4.4216 H   0  0  0  0  0  0  0  0  0  0  0  0
    0.5307    0.3712   -3.9227 H   0  0  0  0  0  0  0  0  0  0  0  0
   -1.0141    0.3420   -5.8758 H   0  0  0  0  0  0  0  0  0  0  0  0
   -1.6774   -1.8159   -6.8709 H   0  0  0  0  0  0  0  0  0  0  0  0
  1  2  3  0  0  0  0
  3  5  1  0  0  0  0
  3  4  1  0  0  0  0
  6  7  2  0  0  0  0
  7 13  1  0  0  0  0
  7  8  1  0  0  0  0
  8 14  1  6  0  0  0
  8  3  1  0  0  0  0
  9 15  1  0  0  0  0
  9  8  1  0  0  0  0
 10  9  2  0  0  0  0
 11  6  1  0  0  0  0
 11 10  1  0  0  0  0
 12  6  1  0  0  0  0
 16 10  1  0  0  0  0
 17 11  1  0  0  0  0
M  RAD  1  11   2
M  END
