Coordinates from ORCA-job C6H6+NH2--N2+-scan
 OpenBabel10171807273D

 17 16  0  0  1  0  0  0  0  0999 V2000
    1.5455   -1.9885   -0.0683 N   0  0  0  0  0  0  0  0  0  0  0  0
    1.8963   -2.9124    0.4069 N   0  0  0  0  0  0  0  0  0  0  0  0
    1.0784   -1.6160   -2.2916 N   0  0  0  0  0  0  0  0  0  0  0  0
    0.2207   -1.3665   -1.8101 H   0  0  0  0  0  0  0  0  0  0  0  0
    1.7718   -0.9136   -2.0595 H   0  0  0  0  0  0  0  0  0  0  0  0
   -0.4900   -3.0944   -5.2806 C   0  0  0  0  0  0  0  0  0  0  0  0
    0.3288   -2.9815   -4.1883 C   0  0  0  0  0  0  0  0  0  0  0  0
    0.8436   -1.6699   -3.7404 C   0  0  1  0  0  0  0  0  0  0  0  0
    0.2712   -0.4910   -4.4343 C   0  0  0  0  0  0  0  0  0  0  0  0
   -0.5697   -0.6305   -5.5062 C   0  0  0  0  0  0  0  0  0  0  0  0
   -0.9419   -1.9252   -5.9237 C   0  0  0  0  0  0  0  0  0  0  0  0
   -0.8246   -4.0644   -5.6276 H   0  0  0  0  0  0  0  0  0  0  0  0
    0.6706   -3.8480   -3.6319 H   0  0  0  0  0  0  0  0  0  0  0  0
    1.8611   -1.7151   -4.2188 H   0  0  0  0  0  0  0  0  0  0  0  0
    0.5771    0.4912   -4.0867 H   0  0  0  0  0  0  0  0  0  0  0  0
   -0.9674    0.2357   -6.0212 H   0  0  0  0  0  0  0  0  0  0  0  0
   -1.6157   -2.0243   -6.7696 H   0  0  0  0  0  0  0  0  0  0  0  0
  1  2  3  0  0  0  0
  3  5  1  0  0  0  0
  3  4  1  0  0  0  0
  6  7  2  0  0  0  0
  7  8  1  0  0  0  0
  7 13  1  0  0  0  0
  8 14  1  6  0  0  0
  8  3  1  0  0  0  0
  9 15  1  0  0  0  0
  9  8  1  0  0  0  0
 10  9  2  0  0  0  0
 11 10  1  0  0  0  0
 11  6  1  0  0  0  0
 12  6  1  0  0  0  0
 16 10  1  0  0  0  0
 17 11  1  0  0  0  0
M  RAD  1  11   2
M  END
