Coordinates from ORCA-job C6H6+NH2--N2+-scan
 OpenBabel10171807273D

 17 16  0  0  0  0  0  0  0  0999 V2000
    0.1787   -1.7363   -0.7090 N   0  0  0  0  0  0  0  0  0  0  0  0
   -0.1404   -1.6804    0.3439 N   0  0  0  0  0  0  0  0  0  0  0  0
    0.9602   -1.9126   -1.9900 N   0  0  0  0  0  0  0  0  0  0  0  0
    0.4199   -2.6251   -2.5158 H   0  0  0  0  0  0  0  0  0  0  0  0
    0.8304   -1.0120   -2.4839 H   0  0  0  0  0  0  0  0  0  0  0  0
   -0.4393   -2.9924   -4.7713 C   0  0  0  0  0  0  0  0  0  0  0  0
    0.9602   -3.0217   -4.8100 C   0  0  0  0  0  0  0  0  0  0  0  0
    1.6845   -1.8229   -4.8436 C   0  0  0  0  0  0  0  0  0  0  0  0
    1.0062   -0.5971   -4.8454 C   0  0  0  0  0  0  0  0  0  0  0  0
   -0.3920   -0.5709   -4.8063 C   0  0  0  0  0  0  0  0  0  0  0  0
   -1.1136   -1.7674   -4.7687 C   0  0  0  0  0  0  0  0  0  0  0  0
   -1.0003   -3.9204   -4.7818 H   0  0  0  0  0  0  0  0  0  0  0  0
    1.4836   -3.9707   -4.8471 H   0  0  0  0  0  0  0  0  0  0  0  0
    2.7665   -1.8453   -4.9044 H   0  0  0  0  0  0  0  0  0  0  0  0
    1.5653    0.3297   -4.9145 H   0  0  0  0  0  0  0  0  0  0  0  0
   -0.9167    0.3774   -4.8374 H   0  0  0  0  0  0  0  0  0  0  0  0
   -2.1974   -1.7463   -4.7667 H   0  0  0  0  0  0  0  0  0  0  0  0
  1  2  1  0  0  0  0
  3  1  1  0  0  0  0
  4  3  1  0  0  0  0
  5  3  1  0  0  0  0
  6 11  1  0  0  0  0
  7  6  2  0  0  0  0
  8  7  1  0  0  0  0
  9  8  2  0  0  0  0
  9 10  1  0  0  0  0
 10 11  2  0  0  0  0
 11 17  1  0  0  0  0
 12  6  1  0  0  0  0
 13  7  1  0  0  0  0
 14  8  1  0  0  0  0
 15  9  1  0  0  0  0
 16 10  1  0  0  0  0
M  RAD  2   1   2   2   3
M  END
