Coordinates from ORCA-job C6H6+NH2--N2+-scan
 OpenBabel10171807273D

 17 16  0  0  1  0  0  0  0  0999 V2000
    3.6170    0.6053   -4.5306 N   0  0  0  0  0  0  0  0  0  0  0  0
    4.5597    1.1388   -4.3677 N   0  0  0  0  0  0  0  0  0  0  0  0
   -1.4412   -3.6313   -2.5818 N   0  0  0  0  0  0  0  0  0  0  0  0
   -2.2356   -3.6853   -3.2100 H   0  0  0  0  0  0  0  0  0  0  0  0
   -1.7715   -3.4370   -1.6439 H   0  0  0  0  0  0  0  0  0  0  0  0
    1.0803   -2.4258   -4.9846 C   0  0  0  0  0  0  0  0  0  0  0  0
    0.4607   -3.2352   -4.0686 C   0  0  0  0  0  0  0  0  0  0  0  0
   -0.4514   -2.6829   -3.0441 C   0  0  1  0  0  0  0  0  0  0  0  0
   -0.8016   -1.2489   -3.2095 C   0  0  0  0  0  0  0  0  0  0  0  0
   -0.1735   -0.4670   -4.1404 C   0  0  0  0  0  0  0  0  0  0  0  0
    0.7595   -1.0557   -5.0207 C   0  0  0  0  0  0  0  0  0  0  0  0
    1.7846   -2.8336   -5.6993 H   0  0  0  0  0  0  0  0  0  0  0  0
    0.6495   -4.3023   -4.0159 H   0  0  0  0  0  0  0  0  0  0  0  0
    0.3134   -2.5828   -2.2193 H   0  0  0  0  0  0  0  0  0  0  0  0
   -1.5341   -0.8316   -2.5254 H   0  0  0  0  0  0  0  0  0  0  0  0
   -0.4043    0.5875   -4.2306 H   0  0  0  0  0  0  0  0  0  0  0  0
    1.2442   -0.4266   -5.7595 H   0  0  0  0  0  0  0  0  0  0  0  0
  1  2  3  0  0  0  0
  3  5  1  0  0  0  0
  4  3  1  0  0  0  0
  6  7  2  0  0  0  0
  7 13  1  0  0  0  0
  7  8  1  0  0  0  0
  8  3  1  0  0  0  0
  8 14  1  1  0  0  0
  9  8  1  0  0  0  0
  9 15  1  0  0  0  0
 10  9  2  0  0  0  0
 11  6  1  0  0  0  0
 11 10  1  0  0  0  0
 12  6  1  0  0  0  0
 16 10  1  0  0  0  0
 17 11  1  0  0  0  0
M  RAD  1  11   2
M  END
