Coordinates from ORCA-job C6H6+NH2--N2+-scan
 OpenBabel10171807273D

 17 16  0  0  0  0  0  0  0  0999 V2000
    0.8831   -1.7733   -0.4039 N   0  0  0  0  0  0  0  0  0  0  0  0
    1.5068   -1.7811    0.5085 N   0  0  0  0  0  0  0  0  0  0  0  0
    0.9106   -1.7917   -2.0346 N   0  0  0  0  0  0  0  0  0  0  0  0
    0.2868   -2.5944   -2.1910 H   0  0  0  0  0  0  0  0  0  0  0  0
    0.3328   -0.9588   -2.2086 H   0  0  0  0  0  0  0  0  0  0  0  0
   -0.5388   -3.0031   -5.1486 C   0  0  0  0  0  0  0  0  0  0  0  0
    0.7380   -3.0390   -4.6058 C   0  0  0  0  0  0  0  0  0  0  0  0
    1.4231   -1.8308   -4.3239 C   0  0  0  0  0  0  0  0  0  0  0  0
    0.8066   -0.5924   -4.6322 C   0  0  0  0  0  0  0  0  0  0  0  0
   -0.4705   -0.5684   -5.1749 C   0  0  0  0  0  0  0  0  0  0  0  0
   -1.1402   -1.7709   -5.4353 C   0  0  0  0  0  0  0  0  0  0  0  0
   -1.0612   -3.9251   -5.3740 H   0  0  0  0  0  0  0  0  0  0  0  0
    1.2301   -3.9876   -4.4201 H   0  0  0  0  0  0  0  0  0  0  0  0
    2.4692   -1.8571   -4.0460 H   0  0  0  0  0  0  0  0  0  0  0  0
    1.3513    0.3309   -4.4668 H   0  0  0  0  0  0  0  0  0  0  0  0
   -0.9405    0.3764   -5.4205 H   0  0  0  0  0  0  0  0  0  0  0  0
   -2.1311   -1.7478   -5.8744 H   0  0  0  0  0  0  0  0  0  0  0  0
  1  2  2  0  0  0  0
  3  1  1  0  0  0  0
  4  3  1  0  0  0  0
  5  3  1  0  0  0  0
  6  7  2  0  0  0  0
  7 13  1  0  0  0  0
  7  8  1  0  0  0  0
  8 14  1  0  0  0  0
  9 15  1  0  0  0  0
  9  8  2  0  0  0  0
 10  9  1  0  0  0  0
 11 10  2  0  0  0  0
 11  6  1  0  0  0  0
 12  6  1  0  0  0  0
 16 10  1  0  0  0  0
 17 11  1  0  0  0  0
M  RAD  1   2   2
M  END
