Coordinates from ORCA-job C6H6+NH2--N2+-scan
 OpenBabel10171807273D

 17 16  0  0  0  0  0  0  0  0999 V2000
   -0.0131   -1.9653   -1.0666 N   0  0  0  0  0  0  0  0  0  0  0  0
   -0.9407   -2.1100   -0.4717 N   0  0  0  0  0  0  0  0  0  0  0  0
    1.0389   -1.8358   -1.8201 N   0  0  0  0  0  0  0  0  0  0  0  0
    0.9799   -2.2064   -2.8113 H   0  0  0  0  0  0  0  0  0  0  0  0
    1.8357   -1.3696   -1.3955 H   0  0  0  0  0  0  0  0  0  0  0  0
   -0.4579   -2.9233   -4.4619 C   0  0  0  0  0  0  0  0  0  0  0  0
    0.9345   -2.9506   -4.6397 C   0  0  0  0  0  0  0  0  0  0  0  0
    1.6191   -1.7726   -4.9773 C   0  0  0  0  0  0  0  0  0  0  0  0
    0.9162   -0.5750   -5.1227 C   0  0  0  0  0  0  0  0  0  0  0  0
   -0.4668   -0.5513   -4.9378 C   0  0  0  0  0  0  0  0  0  0  0  0
   -1.1544   -1.7221   -4.6077 C   0  0  0  0  0  0  0  0  0  0  0  0
   -0.9924   -3.8421   -4.2456 H   0  0  0  0  0  0  0  0  0  0  0  0
    1.4710   -3.8916   -4.5780 H   0  0  0  0  0  0  0  0  0  0  0  0
    2.6893   -1.8012   -5.1500 H   0  0  0  0  0  0  0  0  0  0  0  0
    1.4420    0.3309   -5.4010 H   0  0  0  0  0  0  0  0  0  0  0  0
   -1.0131    0.3756   -5.0699 H   0  0  0  0  0  0  0  0  0  0  0  0
   -2.2325   -1.7038   -4.4953 H   0  0  0  0  0  0  0  0  0  0  0  0
  1  2  1  0  0  0  0
  3  5  1  0  0  0  0
  3  1  1  0  0  0  0
  4  3  1  0  0  0  0
  6 12  1  0  0  0  0
  7 13  1  0  0  0  0
  7  6  2  0  0  0  0
  8  7  1  0  0  0  0
  9  8  2  0  0  0  0
  9 10  1  0  0  0  0
 10 11  2  0  0  0  0
 11 17  1  0  0  0  0
 11  6  1  0  0  0  0
 14  8  1  0  0  0  0
 15  9  1  0  0  0  0
 16 10  1  0  0  0  0
M  RAD  2   1   2   2   3
M  END
