Coordinates from ORCA-job C6H6+NH2--N2+-scan
 OpenBabel10171807273D

 17 16  0  0  1  0  0  0  0  0999 V2000
    1.3410   -2.0261   -0.2850 N   0  0  0  0  0  0  0  0  0  0  0  0
    1.6780   -2.9837    0.1360 N   0  0  0  0  0  0  0  0  0  0  0  0
    1.0577   -1.5734   -2.2764 N   0  0  0  0  0  0  0  0  0  0  0  0
    0.1365   -1.3034   -1.9371 H   0  0  0  0  0  0  0  0  0  0  0  0
    1.6810   -0.8045   -2.0405 H   0  0  0  0  0  0  0  0  0  0  0  0
   -0.4710   -3.1066   -5.2046 C   0  0  0  0  0  0  0  0  0  0  0  0
    0.4496   -2.9897   -4.2030 C   0  0  0  0  0  0  0  0  0  0  0  0
    0.9822   -1.6727   -3.7887 C   0  0  1  0  0  0  0  0  0  0  0  0
    0.3846   -0.5038   -4.4674 C   0  0  0  0  0  0  0  0  0  0  0  0
   -0.5851   -0.6417   -5.4268 C   0  0  0  0  0  0  0  0  0  0  0  0
   -0.9966   -1.9361   -5.7980 C   0  0  0  0  0  0  0  0  0  0  0  0
   -0.8326   -4.0774   -5.5205 H   0  0  0  0  0  0  0  0  0  0  0  0
    0.8362   -3.8585   -3.6803 H   0  0  0  0  0  0  0  0  0  0  0  0
    2.0439   -1.6995   -4.1170 H   0  0  0  0  0  0  0  0  0  0  0  0
    0.7422    0.4797   -4.1775 H   0  0  0  0  0  0  0  0  0  0  0  0
   -1.0327    0.2233   -5.9007 H   0  0  0  0  0  0  0  0  0  0  0  0
   -1.7590   -2.0401   -6.5645 H   0  0  0  0  0  0  0  0  0  0  0  0
  1  2  3  0  0  0  0
  3  5  1  0  0  0  0
  3  4  1  0  0  0  0
  6  7  2  0  0  0  0
  7  8  1  0  0  0  0
  7 13  1  0  0  0  0
  8 14  1  6  0  0  0
  8  3  1  0  0  0  0
  9 15  1  0  0  0  0
  9  8  1  0  0  0  0
 10  9  2  0  0  0  0
 11 10  1  0  0  0  0
 11  6  1  0  0  0  0
 12  6  1  0  0  0  0
 16 10  1  0  0  0  0
 17 11  1  0  0  0  0
M  RAD  1  11   2
M  END
