Coordinates from ORCA-job C6H6+NH2--N2+-scan
 OpenBabel10171807273D

 17 16  0  0  0  0  0  0  0  0999 V2000
    0.0524   -1.9730   -1.1137 N   0  0  0  0  0  0  0  0  0  0  0  0
   -0.8638   -2.1053   -0.4846 N   0  0  0  0  0  0  0  0  0  0  0  0
    0.9749   -1.8649   -1.8091 N   0  0  0  0  0  0  0  0  0  0  0  0
    0.9421   -2.2389   -2.8191 H   0  0  0  0  0  0  0  0  0  0  0  0
    1.8214   -1.4100   -1.4657 H   0  0  0  0  0  0  0  0  0  0  0  0
   -0.4617   -2.9135   -4.4484 C   0  0  0  0  0  0  0  0  0  0  0  0
    0.9355   -2.9360   -4.6012 C   0  0  0  0  0  0  0  0  0  0  0  0
    1.6203   -1.7590   -4.9474 C   0  0  0  0  0  0  0  0  0  0  0  0
    0.9146   -0.5673   -5.1165 C   0  0  0  0  0  0  0  0  0  0  0  0
   -0.4718   -0.5481   -4.9512 C   0  0  0  0  0  0  0  0  0  0  0  0
   -1.1605   -1.7172   -4.6181 C   0  0  0  0  0  0  0  0  0  0  0  0
   -0.9950   -3.8318   -4.2275 H   0  0  0  0  0  0  0  0  0  0  0  0
    1.4740   -3.8751   -4.5258 H   0  0  0  0  0  0  0  0  0  0  0  0
    2.6930   -1.7856   -5.1044 H   0  0  0  0  0  0  0  0  0  0  0  0
    1.4397    0.3378   -5.3986 H   0  0  0  0  0  0  0  0  0  0  0  0
   -1.0195    0.3754   -5.1006 H   0  0  0  0  0  0  0  0  0  0  0  0
   -2.2399   -1.7015   -4.5201 H   0  0  0  0  0  0  0  0  0  0  0  0
  1  2  1  0  0  0  0
  3  5  1  0  0  0  0
  3  1  1  0  0  0  0
  4  3  1  0  0  0  0
  6 12  1  0  0  0  0
  7 13  1  0  0  0  0
  7  6  1  0  0  0  0
  8  7  2  0  0  0  0
  9 10  2  0  0  0  0
  9  8  1  0  0  0  0
 10 11  1  0  0  0  0
 11 17  1  0  0  0  0
 11  6  2  0  0  0  0
 14  8  1  0  0  0  0
 15  9  1  0  0  0  0
 16 10  1  0  0  0  0
M  RAD  2   1   2   2   3
M  END
