Coordinates from ORCA-job C6H6+NH2--N2+-scan
 OpenBabel10171807273D

 17 16  0  0  1  0  0  0  0  0999 V2000
    1.5562   -1.9823   -0.0426 N   0  0  0  0  0  0  0  0  0  0  0  0
    1.9104   -2.8998    0.4421 N   0  0  0  0  0  0  0  0  0  0  0  0
    1.0790   -1.6212   -2.2967 N   0  0  0  0  0  0  0  0  0  0  0  0
    0.2245   -1.3773   -1.8067 H   0  0  0  0  0  0  0  0  0  0  0  0
    1.7739   -0.9217   -2.0609 H   0  0  0  0  0  0  0  0  0  0  0  0
   -0.4921   -3.0932   -5.2880 C   0  0  0  0  0  0  0  0  0  0  0  0
    0.3244   -2.9825   -4.1935 C   0  0  0  0  0  0  0  0  0  0  0  0
    0.8389   -1.6718   -3.7427 C   0  0  1  0  0  0  0  0  0  0  0  0
    0.2670   -0.4913   -4.4347 C   0  0  0  0  0  0  0  0  0  0  0  0
   -0.5702   -0.6289   -5.5097 C   0  0  0  0  0  0  0  0  0  0  0  0
   -0.9417   -1.9229   -5.9303 C   0  0  0  0  0  0  0  0  0  0  0  0
   -0.8261   -4.0625   -5.6374 H   0  0  0  0  0  0  0  0  0  0  0  0
    0.6654   -3.8499   -3.6381 H   0  0  0  0  0  0  0  0  0  0  0  0
    1.8543   -1.7168   -4.2264 H   0  0  0  0  0  0  0  0  0  0  0  0
    0.5716    0.4900   -4.0838 H   0  0  0  0  0  0  0  0  0  0  0  0
   -0.9663    0.2382   -6.0243 H   0  0  0  0  0  0  0  0  0  0  0  0
   -1.6132   -2.0203   -6.7783 H   0  0  0  0  0  0  0  0  0  0  0  0
  1  2  3  0  0  0  0
  3  5  1  0  0  0  0
  3  4  1  0  0  0  0
  6  7  2  0  0  0  0
  7  8  1  0  0  0  0
  7 13  1  0  0  0  0
  8 14  1  6  0  0  0
  8  3  1  0  0  0  0
  9 15  1  0  0  0  0
  9  8  1  0  0  0  0
 10  9  2  0  0  0  0
 11 10  1  0  0  0  0
 11  6  1  0  0  0  0
 12  6  1  0  0  0  0
 16 10  1  0  0  0  0
 17 11  1  0  0  0  0
M  RAD  1  11   2
M  END
