Coordinates from ORCA-job C6H6+NH2--N2+-scan
 OpenBabel10171807273D

 17 16  0  0  1  0  0  0  0  0999 V2000
    1.6490   -1.7361    0.3008 N   0  0  0  0  0  0  0  0  0  0  0  0
    2.0202   -2.2884    1.1709 N   0  0  0  0  0  0  0  0  0  0  0  0
    1.1338   -1.8523   -2.4010 N   0  0  0  0  0  0  0  0  0  0  0  0
    0.3142   -1.7153   -1.8211 H   0  0  0  0  0  0  0  0  0  0  0  0
    1.8389   -1.1843   -2.1154 H   0  0  0  0  0  0  0  0  0  0  0  0
   -0.5317   -3.0615   -5.4618 C   0  0  0  0  0  0  0  0  0  0  0  0
    0.2941   -3.0457   -4.3669 C   0  0  0  0  0  0  0  0  0  0  0  0
    0.8159   -1.7792   -3.8125 C   0  0  1  0  0  0  0  0  0  0  0  0
    0.2335   -0.5425   -4.3912 C   0  0  0  0  0  0  0  0  0  0  0  0
   -0.5993   -0.5884   -5.4775 C   0  0  0  0  0  0  0  0  0  0  0  0
   -0.9776   -1.8416   -6.0033 C   0  0  0  0  0  0  0  0  0  0  0  0
   -0.8705   -3.9977   -5.8883 H   0  0  0  0  0  0  0  0  0  0  0  0
    0.6432   -3.9562   -3.8913 H   0  0  0  0  0  0  0  0  0  0  0  0
    1.8005   -1.7837   -4.3675 H   0  0  0  0  0  0  0  0  0  0  0  0
    0.5356    0.4040   -3.9536 H   0  0  0  0  0  0  0  0  0  0  0  0
   -0.9937    0.3199   -5.9169 H   0  0  0  0  0  0  0  0  0  0  0  0
   -1.6504   -1.8652   -6.8554 H   0  0  0  0  0  0  0  0  0  0  0  0
  1  2  3  0  0  0  0
  3  5  1  0  0  0  0
  3  4  1  0  0  0  0
  6  7  2  0  0  0  0
  7 13  1  0  0  0  0
  7  8  1  0  0  0  0
  8 14  1  6  0  0  0
  8  3  1  0  0  0  0
  9 15  1  0  0  0  0
  9  8  1  0  0  0  0
 10  9  2  0  0  0  0
 11 10  1  0  0  0  0
 11  6  1  0  0  0  0
 12  6  1  0  0  0  0
 16 10  1  0  0  0  0
 17 11  1  0  0  0  0
M  RAD  1  11   2
M  END
