Coordinates from ORCA-job C6H6+NH2--N2+-scan
 OpenBabel10171807273D

 17 16  0  0  1  0  0  0  0  0999 V2000
    3.5156    0.0020   -2.8651 N   0  0  0  0  0  0  0  0  0  0  0  0
    4.4368    0.5710   -2.6987 N   0  0  0  0  0  0  0  0  0  0  0  0
   -0.8725   -3.3874   -2.2596 N   0  0  0  0  0  0  0  0  0  0  0  0
   -1.7985   -3.6099   -2.6084 H   0  0  0  0  0  0  0  0  0  0  0  0
   -0.9491   -3.0415   -1.3103 H   0  0  0  0  0  0  0  0  0  0  0  0
    0.7366   -2.4899   -5.4545 C   0  0  0  0  0  0  0  0  0  0  0  0
    0.4883   -3.1525   -4.2797 C   0  0  0  0  0  0  0  0  0  0  0  0
   -0.1698   -2.4799   -3.1405 C   0  0  1  0  0  0  0  0  0  0  0  0
   -0.7152   -1.1292   -3.4252 C   0  0  0  0  0  0  0  0  0  0  0  0
   -0.4602   -0.4956   -4.6120 C   0  0  0  0  0  0  0  0  0  0  0  0
    0.2582   -1.1769   -5.6168 C   0  0  0  0  0  0  0  0  0  0  0  0
    1.2625   -2.9776   -6.2661 H   0  0  0  0  0  0  0  0  0  0  0  0
    0.8089   -4.1754   -4.1118 H   0  0  0  0  0  0  0  0  0  0  0  0
    0.7788   -2.1679   -2.6090 H   0  0  0  0  0  0  0  0  0  0  0  0
   -1.2753   -0.6393   -2.6346 H   0  0  0  0  0  0  0  0  0  0  0  0
   -0.8287    0.5056   -4.7998 H   0  0  0  0  0  0  0  0  0  0  0  0
    0.4394   -0.6696   -6.5598 H   0  0  0  0  0  0  0  0  0  0  0  0
  1  2  3  0  0  0  0
  3  5  1  0  0  0  0
  4  3  1  0  0  0  0
  6  7  2  0  0  0  0
  7 13  1  0  0  0  0
  7  8  1  0  0  0  0
  8 14  1  1  0  0  0
  8  3  1  0  0  0  0
  9  8  1  0  0  0  0
  9 15  1  0  0  0  0
 10  9  2  0  0  0  0
 11  6  1  0  0  0  0
 11 10  1  0  0  0  0
 12  6  1  0  0  0  0
 16 10  1  0  0  0  0
 17 11  1  0  0  0  0
M  RAD  1  11   2
M  END
