Coordinates from ORCA-job C6H6+NH2--N2+-scan
 OpenBabel10171807273D

 17 16  0  0  1  0  0  0  0  0999 V2000
    1.7096   -1.3778    0.7154 N   0  0  0  0  0  0  0  0  0  0  0  0
    1.9698   -1.4268    1.7782 N   0  0  0  0  0  0  0  0  0  0  0  0
    1.2116   -2.1752   -2.5354 N   0  0  0  0  0  0  0  0  0  0  0  0
    0.4183   -2.1262   -1.9061 H   0  0  0  0  0  0  0  0  0  0  0  0
    1.9271   -1.5439   -2.1959 H   0  0  0  0  0  0  0  0  0  0  0  0
   -0.5658   -3.0130   -5.6563 C   0  0  0  0  0  0  0  0  0  0  0  0
    0.2960   -3.1259   -4.5952 C   0  0  0  0  0  0  0  0  0  0  0  0
    0.8334   -1.9329   -3.9085 C   0  0  1  0  0  0  0  0  0  0  0  0
    0.2270   -0.6386   -4.3103 C   0  0  0  0  0  0  0  0  0  0  0  0
   -0.6390   -0.5570   -5.3681 C   0  0  0  0  0  0  0  0  0  0  0  0
   -1.0315   -1.7391   -6.0304 C   0  0  0  0  0  0  0  0  0  0  0  0
   -0.9164   -3.8924   -6.1825 H   0  0  0  0  0  0  0  0  0  0  0  0
    0.6642   -4.0851   -4.2465 H   0  0  0  0  0  0  0  0  0  0  0  0
    1.7925   -1.8621   -4.5037 H   0  0  0  0  0  0  0  0  0  0  0  0
    0.5400    0.2489   -3.7688 H   0  0  0  0  0  0  0  0  0  0  0  0
   -1.0496    0.3956   -5.6805 H   0  0  0  0  0  0  0  0  0  0  0  0
   -1.7315   -1.6627   -6.8573 H   0  0  0  0  0  0  0  0  0  0  0  0
  1  2  3  0  0  0  0
  3  5  1  0  0  0  0
  3  4  1  0  0  0  0
  6  7  2  0  0  0  0
  7 13  1  0  0  0  0
  7  8  1  0  0  0  0
  8 14  1  6  0  0  0
  8  3  1  0  0  0  0
  9  8  1  0  0  0  0
  9 15  1  0  0  0  0
 10  9  2  0  0  0  0
 11  6  1  0  0  0  0
 11 10  1  0  0  0  0
 12  6  1  0  0  0  0
 16 10  1  0  0  0  0
 17 11  1  0  0  0  0
M  RAD  1  11   2
M  END
