Coordinates from ORCA-job C6H6+NH2--N2+-scan
 OpenBabel10171807273D

 17 16  0  0  1  0  0  0  0  0999 V2000
    1.6436   -1.8142    0.2567 N   0  0  0  0  0  0  0  0  0  0  0  0
    2.0310   -2.5431    0.9770 N   0  0  0  0  0  0  0  0  0  0  0  0
    1.1092   -1.7626   -2.3718 N   0  0  0  0  0  0  0  0  0  0  0  0
    0.2822   -1.5976   -1.8100 H   0  0  0  0  0  0  0  0  0  0  0  0
    1.8141   -1.0878   -2.1024 H   0  0  0  0  0  0  0  0  0  0  0  0
   -0.5216   -3.0727   -5.4092 C   0  0  0  0  0  0  0  0  0  0  0  0
    0.2929   -3.0206   -4.3073 C   0  0  0  0  0  0  0  0  0  0  0  0
    0.8103   -1.7364   -3.7903 C   0  0  1  0  0  0  0  0  0  0  0  0
    0.2346   -0.5196   -4.4159 C   0  0  0  0  0  0  0  0  0  0  0  0
   -0.5884   -0.6014   -5.5075 C   0  0  0  0  0  0  0  0  0  0  0  0
   -0.9619   -1.8712   -5.9951 C   0  0  0  0  0  0  0  0  0  0  0  0
   -0.8567   -4.0224   -5.8077 H   0  0  0  0  0  0  0  0  0  0  0  0
    0.6360   -3.9150   -3.7978 H   0  0  0  0  0  0  0  0  0  0  0  0
    1.8022   -1.7593   -4.3305 H   0  0  0  0  0  0  0  0  0  0  0  0
    0.5334    0.4410   -4.0076 H   0  0  0  0  0  0  0  0  0  0  0  0
   -0.9784    0.2919   -5.9804 H   0  0  0  0  0  0  0  0  0  0  0  0
   -1.6267   -1.9231   -6.8523 H   0  0  0  0  0  0  0  0  0  0  0  0
  1  2  3  0  0  0  0
  3  5  1  0  0  0  0
  3  4  1  0  0  0  0
  6  7  2  0  0  0  0
  7 13  1  0  0  0  0
  7  8  1  0  0  0  0
  8 14  1  6  0  0  0
  8  3  1  0  0  0  0
  9 15  1  0  0  0  0
  9  8  1  0  0  0  0
 10  9  2  0  0  0  0
 11 10  1  0  0  0  0
 11  6  1  0  0  0  0
 12  6  1  0  0  0  0
 16 10  1  0  0  0  0
 17 11  1  0  0  0  0
M  RAD  1  11   2
M  END
