Coordinates from ORCA-job C6H6+NH2--N2+-scan
 OpenBabel10171807273D

 17 16  0  0  1  0  0  0  0  0999 V2000
    1.5713   -1.9713   -0.0078 N   0  0  0  0  0  0  0  0  0  0  0  0
    1.9313   -2.8784    0.4917 N   0  0  0  0  0  0  0  0  0  0  0  0
    1.0798   -1.6301   -2.3034 N   0  0  0  0  0  0  0  0  0  0  0  0
    0.2291   -1.3951   -1.8030 H   0  0  0  0  0  0  0  0  0  0  0  0
    1.7767   -0.9339   -2.0643 H   0  0  0  0  0  0  0  0  0  0  0  0
   -0.4951   -3.0914   -5.2988 C   0  0  0  0  0  0  0  0  0  0  0  0
    0.3178   -2.9843   -4.2010 C   0  0  0  0  0  0  0  0  0  0  0  0
    0.8318   -1.6753   -3.7450 C   0  0  1  0  0  0  0  0  0  0  0  0
    0.2610   -0.4922   -4.4341 C   0  0  0  0  0  0  0  0  0  0  0  0
   -0.5705   -0.6266   -5.5139 C   0  0  0  0  0  0  0  0  0  0  0  0
   -0.9411   -1.9192   -5.9397 C   0  0  0  0  0  0  0  0  0  0  0  0
   -0.8284   -4.0595   -5.6520 H   0  0  0  0  0  0  0  0  0  0  0  0
    0.6574   -3.8533   -3.6472 H   0  0  0  0  0  0  0  0  0  0  0  0
    1.8442   -1.7199   -4.2370 H   0  0  0  0  0  0  0  0  0  0  0  0
    0.5635    0.4879   -4.0780 H   0  0  0  0  0  0  0  0  0  0  0  0
   -0.9641    0.2422   -6.0276 H   0  0  0  0  0  0  0  0  0  0  0  0
   -1.6090   -2.0137   -6.7909 H   0  0  0  0  0  0  0  0  0  0  0  0
  1  2  3  0  0  0  0
  3  5  1  0  0  0  0
  3  4  1  0  0  0  0
  6  7  2  0  0  0  0
  7  8  1  0  0  0  0
  7 13  1  0  0  0  0
  8 14  1  6  0  0  0
  8  3  1  0  0  0  0
  9 15  1  0  0  0  0
  9  8  1  0  0  0  0
 10  9  2  0  0  0  0
 11 10  1  0  0  0  0
 11  6  1  0  0  0  0
 12  6  1  0  0  0  0
 16 10  1  0  0  0  0
 17 11  1  0  0  0  0
M  RAD  1  11   2
M  END
