Coordinates from ORCA-job C6H6+NH2--N2+-scan
 OpenBabel10171807273D

 17 16  0  0  1  0  0  0  0  0999 V2000
    1.6964   -1.4257    0.6473 N   0  0  0  0  0  0  0  0  0  0  0  0
    1.9628   -1.5055    1.7068 N   0  0  0  0  0  0  0  0  0  0  0  0
    1.2080   -2.1427   -2.5198 N   0  0  0  0  0  0  0  0  0  0  0  0
    0.4140   -2.0855   -1.8923 H   0  0  0  0  0  0  0  0  0  0  0  0
    1.9236   -1.5088   -2.1857 H   0  0  0  0  0  0  0  0  0  0  0  0
   -0.5625   -3.0181   -5.6343 C   0  0  0  0  0  0  0  0  0  0  0  0
    0.2970   -3.1183   -4.5699 C   0  0  0  0  0  0  0  0  0  0  0  0
    0.8334   -1.9172   -3.8966 C   0  0  1  0  0  0  0  0  0  0  0  0
    0.2285   -0.6277   -4.3159 C   0  0  0  0  0  0  0  0  0  0  0  0
   -0.6352   -0.5588   -5.3765 C   0  0  0  0  0  0  0  0  0  0  0  0
   -1.0268   -1.7488   -6.0251 C   0  0  0  0  0  0  0  0  0  0  0  0
   -0.9123   -3.9038   -6.1505 H   0  0  0  0  0  0  0  0  0  0  0  0
    0.6639   -4.0733   -4.2087 H   0  0  0  0  0  0  0  0  0  0  0  0
    1.7939   -1.8541   -4.4903 H   0  0  0  0  0  0  0  0  0  0  0  0
    0.5407    0.2662   -3.7847 H   0  0  0  0  0  0  0  0  0  0  0  0
   -1.0447    0.3901   -5.7014 H   0  0  0  0  0  0  0  0  0  0  0  0
   -1.7249   -1.6823   -6.8543 H   0  0  0  0  0  0  0  0  0  0  0  0
  1  2  3  0  0  0  0
  3  5  1  0  0  0  0
  3  4  1  0  0  0  0
  6  7  2  0  0  0  0
  7 13  1  0  0  0  0
  7  8  1  0  0  0  0
  8 14  1  6  0  0  0
  8  3  1  0  0  0  0
  9  8  1  0  0  0  0
  9 15  1  0  0  0  0
 10  9  2  0  0  0  0
 11  6  1  0  0  0  0
 11 10  1  0  0  0  0
 12  6  1  0  0  0  0
 16 10  1  0  0  0  0
 17 11  1  0  0  0  0
M  RAD  1  11   2
M  END
