Coordinates from ORCA-job C6H6+NH2--N2+-scan
 OpenBabel10171807273D

 17 16  0  0  1  0  0  0  0  0999 V2000
    3.6212    0.0928   -2.9296 N   0  0  0  0  0  0  0  0  0  0  0  0
    4.5440    0.6619   -2.7730 N   0  0  0  0  0  0  0  0  0  0  0  0
   -0.9244   -3.4141   -2.2787 N   0  0  0  0  0  0  0  0  0  0  0  0
   -1.8451   -3.6268   -2.6470 H   0  0  0  0  0  0  0  0  0  0  0  0
   -1.0165   -3.0788   -1.3270 H   0  0  0  0  0  0  0  0  0  0  0  0
    0.7461   -2.4909   -5.4340 C   0  0  0  0  0  0  0  0  0  0  0  0
    0.4743   -3.1646   -4.2708 C   0  0  0  0  0  0  0  0  0  0  0  0
   -0.2001   -2.5008   -3.1358 C   0  0  1  0  0  0  0  0  0  0  0  0
   -0.7333   -1.1439   -3.4152 C   0  0  0  0  0  0  0  0  0  0  0  0
   -0.4545   -0.4991   -4.5905 C   0  0  0  0  0  0  0  0  0  0  0  0
    0.2774   -1.1736   -5.5902 C   0  0  0  0  0  0  0  0  0  0  0  0
    1.2830   -2.9727   -6.2418 H   0  0  0  0  0  0  0  0  0  0  0  0
    0.7866   -4.1909   -4.1084 H   0  0  0  0  0  0  0  0  0  0  0  0
    0.7397   -2.2018   -2.5824 H   0  0  0  0  0  0  0  0  0  0  0  0
   -1.3047   -0.6596   -2.6293 H   0  0  0  0  0  0  0  0  0  0  0  0
   -0.8146    0.5060   -4.7738 H   0  0  0  0  0  0  0  0  0  0  0  0
    0.4769   -0.6573   -6.5245 H   0  0  0  0  0  0  0  0  0  0  0  0
  1  2  3  0  0  0  0
  3  5  1  0  0  0  0
  4  3  1  0  0  0  0
  6  7  2  0  0  0  0
  7 13  1  0  0  0  0
  7  8  1  0  0  0  0
  8 14  1  1  0  0  0
  8  3  1  0  0  0  0
  9  8  1  0  0  0  0
  9 15  1  0  0  0  0
 10  9  2  0  0  0  0
 11  6  1  0  0  0  0
 11 10  1  0  0  0  0
 12  6  1  0  0  0  0
 16 10  1  0  0  0  0
 17 11  1  0  0  0  0
M  RAD  1  11   2
M  END
