Coordinates from ORCA-job C6H6+NH2--N2+-scan
 OpenBabel10171807273D

 17 16  0  0  1  0  0  0  0  0999 V2000
    3.1125   -0.7151   -2.1327 N   0  0  0  0  0  0  0  0  0  0  0  0
    4.0714   -0.3260   -1.7743 N   0  0  0  0  0  0  0  0  0  0  0  0
   -0.3840   -3.1054   -2.1290 N   0  0  0  0  0  0  0  0  0  0  0  0
   -1.3063   -3.4952   -2.2889 H   0  0  0  0  0  0  0  0  0  0  0  0
   -0.3718   -2.6349   -1.2318 H   0  0  0  0  0  0  0  0  0  0  0  0
    0.6262   -2.4703   -5.6242 C   0  0  0  0  0  0  0  0  0  0  0  0
    0.6250   -2.9956   -4.3558 C   0  0  0  0  0  0  0  0  0  0  0  0
    0.0396   -2.2589   -3.2209 C   0  0  1  0  0  0  0  0  0  0  0  0
   -0.7174   -1.0354   -3.5744 C   0  0  0  0  0  0  0  0  0  0  0  0
   -0.7036   -0.5363   -4.8505 C   0  0  0  0  0  0  0  0  0  0  0  0
   -0.0391   -1.2554   -5.8652 C   0  0  0  0  0  0  0  0  0  0  0  0
    1.1023   -2.9976   -6.4418 H   0  0  0  0  0  0  0  0  0  0  0  0
    1.1020   -3.9410   -4.1197 H   0  0  0  0  0  0  0  0  0  0  0  0
    1.0057   -1.7552   -2.8998 H   0  0  0  0  0  0  0  0  0  0  0  0
   -1.2318   -0.5151   -2.7723 H   0  0  0  0  0  0  0  0  0  0  0  0
   -1.2238    0.3821   -5.0947 H   0  0  0  0  0  0  0  0  0  0  0  0
   -0.0508   -0.8588   -6.8760 H   0  0  0  0  0  0  0  0  0  0  0  0
  1  2  3  0  0  0  0
  3  5  1  0  0  0  0
  4  3  1  0  0  0  0
  6  7  2  0  0  0  0
  7 13  1  0  0  0  0
  7  8  1  0  0  0  0
  8 14  1  1  0  0  0
  8  3  1  0  0  0  0
  9  8  1  0  0  0  0
  9 15  1  0  0  0  0
 10  9  2  0  0  0  0
 11  6  1  0  0  0  0
 11 10  1  0  0  0  0
 12  6  1  0  0  0  0
 16 10  1  0  0  0  0
 17 11  1  0  0  0  0
M  RAD  1  11   2
M  END
