Coordinates from ORCA-job C6H6+NH2--N2+-scan
 OpenBabel10171807273D

 17 16  0  0  1  0  0  0  0  0999 V2000
    3.2452   -0.2728   -2.6375 N   0  0  0  0  0  0  0  0  0  0  0  0
    4.1653    0.2891   -2.4438 N   0  0  0  0  0  0  0  0  0  0  0  0
   -0.7061   -3.3002   -2.2034 N   0  0  0  0  0  0  0  0  0  0  0  0
   -1.6420   -3.5664   -2.4891 H   0  0  0  0  0  0  0  0  0  0  0  0
   -0.7406   -2.9151   -1.2669 H   0  0  0  0  0  0  0  0  0  0  0  0
    0.7016   -2.4873   -5.5166 C   0  0  0  0  0  0  0  0  0  0  0  0
    0.5292   -3.1124   -4.3074 C   0  0  0  0  0  0  0  0  0  0  0  0
   -0.0840   -2.4128   -3.1610 C   0  0  1  0  0  0  0  0  0  0  0  0
   -0.6765   -1.0873   -3.4636 C   0  0  0  0  0  0  0  0  0  0  0  0
   -0.4958   -0.4907   -4.6832 C   0  0  0  0  0  0  0  0  0  0  0  0
    0.1859   -1.1917   -5.6996 C   0  0  0  0  0  0  0  0  0  0  0  0
    1.1968   -2.9928   -6.3365 H   0  0  0  0  0  0  0  0  0  0  0  0
    0.8834   -4.1206   -4.1200 H   0  0  0  0  0  0  0  0  0  0  0  0
    0.8898   -2.0521   -2.7072 H   0  0  0  0  0  0  0  0  0  0  0  0
   -1.2077   -0.5820   -2.6629 H   0  0  0  0  0  0  0  0  0  0  0  0
   -0.8966    0.4951   -4.8860 H   0  0  0  0  0  0  0  0  0  0  0  0
    0.3079   -0.7143   -6.6674 H   0  0  0  0  0  0  0  0  0  0  0  0
  1  2  3  0  0  0  0
  3  5  1  0  0  0  0
  4  3  1  0  0  0  0
  6  7  2  0  0  0  0
  7 13  1  0  0  0  0
  7  8  1  0  0  0  0
  8 14  1  1  0  0  0
  8  3  1  0  0  0  0
  9  8  1  0  0  0  0
  9 15  1  0  0  0  0
 10  9  2  0  0  0  0
 11  6  1  0  0  0  0
 11 10  1  0  0  0  0
 12  6  1  0  0  0  0
 16 10  1  0  0  0  0
 17 11  1  0  0  0  0
M  RAD  1  11   2
M  END
