Coordinates from ORCA-job C6H6+NH2--N2+-scan
 OpenBabel10171807273D

 17 16  0  0  1  0  0  0  0  0999 V2000
    1.6610   -1.7176    0.3565 N   0  0  0  0  0  0  0  0  0  0  0  0
    2.0282   -2.2495    1.2409 N   0  0  0  0  0  0  0  0  0  0  0  0
    1.1378   -1.8671   -2.4136 N   0  0  0  0  0  0  0  0  0  0  0  0
    0.3229   -1.7356   -1.8263 H   0  0  0  0  0  0  0  0  0  0  0  0
    1.8474   -1.2060   -2.1242 H   0  0  0  0  0  0  0  0  0  0  0  0
   -0.5351   -3.0592   -5.4764 C   0  0  0  0  0  0  0  0  0  0  0  0
    0.2920   -3.0495   -4.3826 C   0  0  0  0  0  0  0  0  0  0  0  0
    0.8145   -1.7860   -3.8217 C   0  0  1  0  0  0  0  0  0  0  0  0
    0.2302   -0.5461   -4.3921 C   0  0  0  0  0  0  0  0  0  0  0  0
   -0.6034   -0.5861   -5.4779 C   0  0  0  0  0  0  0  0  0  0  0  0
   -0.9820   -1.8363   -6.0104 C   0  0  0  0  0  0  0  0  0  0  0  0
   -0.8743   -3.9930   -5.9078 H   0  0  0  0  0  0  0  0  0  0  0  0
    0.6422   -3.9626   -3.9127 H   0  0  0  0  0  0  0  0  0  0  0  0
    1.7966   -1.7867   -4.3814 H   0  0  0  0  0  0  0  0  0  0  0  0
    0.5323    0.3978   -3.9489 H   0  0  0  0  0  0  0  0  0  0  0  0
   -0.9988    0.3246   -5.9115 H   0  0  0  0  0  0  0  0  0  0  0  0
   -1.6558   -1.8553   -6.8619 H   0  0  0  0  0  0  0  0  0  0  0  0
  1  2  3  0  0  0  0
  3  5  1  0  0  0  0
  3  4  1  0  0  0  0
  6  7  2  0  0  0  0
  7 13  1  0  0  0  0
  7  8  1  0  0  0  0
  8 14  1  6  0  0  0
  8  3  1  0  0  0  0
  9 15  1  0  0  0  0
  9  8  1  0  0  0  0
 10  9  2  0  0  0  0
 11 10  1  0  0  0  0
 11  6  1  0  0  0  0
 12  6  1  0  0  0  0
 16 10  1  0  0  0  0
 17 11  1  0  0  0  0
M  RAD  1  11   2
M  END
