Coordinates from ORCA-job C6H6+NH2--N2+-scan
 OpenBabel10171807273D

 17 16  0  0  1  0  0  0  0  0999 V2000
    1.3389   -2.0263   -0.2927 N   0  0  0  0  0  0  0  0  0  0  0  0
    1.6769   -2.9850    0.1254 N   0  0  0  0  0  0  0  0  0  0  0  0
    1.0569   -1.5725   -2.2736 N   0  0  0  0  0  0  0  0  0  0  0  0
    0.1347   -1.3019   -1.9374 H   0  0  0  0  0  0  0  0  0  0  0  0
    1.6783   -0.8016   -2.0395 H   0  0  0  0  0  0  0  0  0  0  0  0
   -0.4708   -3.1068   -5.2028 C   0  0  0  0  0  0  0  0  0  0  0  0
    0.4503   -2.9899   -4.2018 C   0  0  0  0  0  0  0  0  0  0  0  0
    0.9830   -1.6729   -3.7878 C   0  0  1  0  0  0  0  0  0  0  0  0
    0.3859   -0.5042   -4.4670 C   0  0  0  0  0  0  0  0  0  0  0  0
   -0.5845   -0.6422   -5.4256 C   0  0  0  0  0  0  0  0  0  0  0  0
   -0.9966   -1.9364   -5.7964 C   0  0  0  0  0  0  0  0  0  0  0  0
   -0.8325   -4.0776   -5.5186 H   0  0  0  0  0  0  0  0  0  0  0  0
    0.8372   -3.8586   -3.6793 H   0  0  0  0  0  0  0  0  0  0  0  0
    2.0451   -1.6999   -4.1147 H   0  0  0  0  0  0  0  0  0  0  0  0
    0.7442    0.4792   -4.1779 H   0  0  0  0  0  0  0  0  0  0  0  0
   -1.0319    0.2229   -5.8998 H   0  0  0  0  0  0  0  0  0  0  0  0
   -1.7592   -2.0405   -6.5626 H   0  0  0  0  0  0  0  0  0  0  0  0
  1  2  3  0  0  0  0
  3  5  1  0  0  0  0
  3  4  1  0  0  0  0
  6  7  2  0  0  0  0
  7  8  1  0  0  0  0
  7 13  1  0  0  0  0
  8 14  1  6  0  0  0
  8  3  1  0  0  0  0
  9 15  1  0  0  0  0
  9  8  1  0  0  0  0
 10  9  2  0  0  0  0
 11 10  1  0  0  0  0
 11  6  1  0  0  0  0
 12  6  1  0  0  0  0
 16 10  1  0  0  0  0
 17 11  1  0  0  0  0
M  RAD  1  11   2
M  END
