Coordinates from ORCA-job C6H6+NH2--N2+-scan
 OpenBabel10171807273D

 17 17  0  0  1  0  0  0  0  0999 V2000
    1.0139   -1.9499   -0.5208 N   0  0  0  0  0  0  0  0  0  0  0  0
    1.5035   -2.7990   -0.0127 N   0  0  0  0  0  0  0  0  0  0  0  0
    0.9280   -1.5646   -2.3092 N   0  0  0  0  0  0  0  0  0  0  0  0
   -0.0931   -1.5027   -2.2556 H   0  0  0  0  0  0  0  0  0  0  0  0
    1.2552   -0.6130   -2.1188 H   0  0  0  0  0  0  0  0  0  0  0  0
   -0.4664   -3.1025   -5.1013 C   0  0  0  0  0  0  0  0  0  0  0  0
    0.6697   -3.0453   -4.3497 C   0  0  0  0  0  0  0  0  0  0  0  0
    1.2443   -1.7552   -3.9508 C   0  0  1  0  0  0  0  0  0  0  0  0
    0.6188   -0.5669   -4.5117 C   0  0  0  0  0  0  0  0  0  0  0  0
   -0.5588   -0.6453   -5.2315 C   0  0  0  0  0  0  0  0  0  0  0  0
   -1.0883   -1.9023   -5.5339 C   0  0  0  0  0  0  0  0  0  0  0  0
   -0.8967   -4.0565   -5.3807 H   0  0  0  0  0  0  0  0  0  0  0  0
    1.1582   -3.9496   -4.0041 H   0  0  0  0  0  0  0  0  0  0  0  0
    2.3341   -1.7444   -3.9437 H   0  0  0  0  0  0  0  0  0  0  0  0
    1.0800    0.3965   -4.3183 H   0  0  0  0  0  0  0  0  0  0  0  0
   -1.0479    0.2527   -5.5880 H   0  0  0  0  0  0  0  0  0  0  0  0
   -1.9985   -1.9661   -6.1213 H   0  0  0  0  0  0  0  0  0  0  0  0
  1  2  2  0  0  0  0
  3  4  1  0  0  0  0
  3  5  1  0  0  0  0
  3  1  1  0  0  0  0
  6  7  2  0  0  0  0
  7 13  1  0  0  0  0
  7  8  1  0  0  0  0
  8 14  1  6  0  0  0
  8  3  1  0  0  0  0
  9 15  1  0  0  0  0
  9  8  1  0  0  0  0
 10  9  2  0  0  0  0
 11 10  1  0  0  0  0
 11  6  1  0  0  0  0
 12  6  1  0  0  0  0
 16 10  1  0  0  0  0
 17 11  1  0  0  0  0
M  RAD  2   2   2  11   2
M  END
