Coordinates from ORCA-job C6H6+NH2--N2+-scan
 OpenBabel10171807273D

 17 16  0  0  0  0  0  0  0  0999 V2000
    0.7738   -1.7708   -0.4311 N   0  0  0  0  0  0  0  0  0  0  0  0
    1.2454   -1.7733    0.5683 N   0  0  0  0  0  0  0  0  0  0  0  0
    0.9235   -1.7924   -2.0049 N   0  0  0  0  0  0  0  0  0  0  0  0
    0.3363   -2.6030   -2.2424 H   0  0  0  0  0  0  0  0  0  0  0  0
    0.3836   -0.9549   -2.2606 H   0  0  0  0  0  0  0  0  0  0  0  0
   -0.5340   -3.0003   -5.1005 C   0  0  0  0  0  0  0  0  0  0  0  0
    0.7822   -3.0373   -4.6519 C   0  0  0  0  0  0  0  0  0  0  0  0
    1.4840   -1.8333   -4.4249 C   0  0  0  0  0  0  0  0  0  0  0  0
    0.8506   -0.5971   -4.6788 C   0  0  0  0  0  0  0  0  0  0  0  0
   -0.4658   -0.5702   -5.1273 C   0  0  0  0  0  0  0  0  0  0  0  0
   -1.1559   -1.7693   -5.3387 C   0  0  0  0  0  0  0  0  0  0  0  0
   -1.0702   -3.9228   -5.2896 H   0  0  0  0  0  0  0  0  0  0  0  0
    1.2852   -3.9870   -4.5054 H   0  0  0  0  0  0  0  0  0  0  0  0
    2.5365   -1.8600   -4.1698 H   0  0  0  0  0  0  0  0  0  0  0  0
    1.4062    0.3259   -4.5529 H   0  0  0  0  0  0  0  0  0  0  0  0
   -0.9496    0.3765   -5.3370 H   0  0  0  0  0  0  0  0  0  0  0  0
   -2.1760   -1.7447   -5.7044 H   0  0  0  0  0  0  0  0  0  0  0  0
  1  2  2  0  0  0  0
  3  1  1  0  0  0  0
  4  3  1  0  0  0  0
  5  3  1  0  0  0  0
  6  7  2  0  0  0  0
  7 13  1  0  0  0  0
  7  8  1  0  0  0  0
  8 14  1  0  0  0  0
  9 15  1  0  0  0  0
  9  8  2  0  0  0  0
 10  9  1  0  0  0  0
 11 10  2  0  0  0  0
 11  6  1  0  0  0  0
 12  6  1  0  0  0  0
 16 10  1  0  0  0  0
 17 11  1  0  0  0  0
M  RAD  1   2   2
M  END
