Coordinates from ORCA-job C6H6+NH2--N2+-scan
 OpenBabel10171807273D

 17 16  0  0  1  0  0  0  0  0999 V2000
    3.6412    0.6313   -4.5534 N   0  0  0  0  0  0  0  0  0  0  0  0
    4.5833    1.1696   -4.4024 N   0  0  0  0  0  0  0  0  0  0  0  0
   -1.4535   -3.6359   -2.5893 N   0  0  0  0  0  0  0  0  0  0  0  0
   -2.2451   -3.6837   -3.2215 H   0  0  0  0  0  0  0  0  0  0  0  0
   -1.7877   -3.4441   -1.6522 H   0  0  0  0  0  0  0  0  0  0  0  0
    1.0825   -2.4284   -4.9756 C   0  0  0  0  0  0  0  0  0  0  0  0
    0.4573   -3.2393   -4.0646 C   0  0  0  0  0  0  0  0  0  0  0  0
   -0.4583   -2.6883   -3.0426 C   0  0  1  0  0  0  0  0  0  0  0  0
   -0.8042   -1.2530   -3.2048 C   0  0  0  0  0  0  0  0  0  0  0  0
   -0.1708   -0.4698   -4.1311 C   0  0  0  0  0  0  0  0  0  0  0  0
    0.7639   -1.0578   -5.0099 C   0  0  0  0  0  0  0  0  0  0  0  0
    1.7886   -2.8360   -5.6886 H   0  0  0  0  0  0  0  0  0  0  0  0
    0.6439   -4.3069   -4.0147 H   0  0  0  0  0  0  0  0  0  0  0  0
    0.3020   -2.5937   -2.2131 H   0  0  0  0  0  0  0  0  0  0  0  0
   -1.5385   -0.8357   -2.5225 H   0  0  0  0  0  0  0  0  0  0  0  0
   -0.3997    0.5854   -4.2191 H   0  0  0  0  0  0  0  0  0  0  0  0
    1.2509   -0.4280   -5.7466 H   0  0  0  0  0  0  0  0  0  0  0  0
  1  2  3  0  0  0  0
  3  5  1  0  0  0  0
  4  3  1  0  0  0  0
  6  7  2  0  0  0  0
  7 13  1  0  0  0  0
  7  8  1  0  0  0  0
  8  3  1  0  0  0  0
  8 14  1  1  0  0  0
  9  8  1  0  0  0  0
  9 15  1  0  0  0  0
 10  9  2  0  0  0  0
 11  6  1  0  0  0  0
 11 10  1  0  0  0  0
 12  6  1  0  0  0  0
 16 10  1  0  0  0  0
 17 11  1  0  0  0  0
M  RAD  1  11   2
M  END
