Coordinates from ORCA-job C6H6+NH2--N2+-scan
 OpenBabel10171807273D

 17 16  0  0  0  0  0  0  0  0999 V2000
    0.2060   -1.7391   -0.6903 N   0  0  0  0  0  0  0  0  0  0  0  0
   -0.0737   -1.6866    0.3739 N   0  0  0  0  0  0  0  0  0  0  0  0
    0.9645   -1.9087   -1.9975 N   0  0  0  0  0  0  0  0  0  0  0  0
    0.4220   -2.6336   -2.5020 H   0  0  0  0  0  0  0  0  0  0  0  0
    0.7998   -1.0135   -2.4906 H   0  0  0  0  0  0  0  0  0  0  0  0
   -0.4463   -2.9911   -4.7866 C   0  0  0  0  0  0  0  0  0  0  0  0
    0.9533   -3.0209   -4.7999 C   0  0  0  0  0  0  0  0  0  0  0  0
    1.6789   -1.8219   -4.8223 C   0  0  0  0  0  0  0  0  0  0  0  0
    1.0008   -0.5956   -4.8394 C   0  0  0  0  0  0  0  0  0  0  0  0
   -0.3975   -0.5693   -4.8245 C   0  0  0  0  0  0  0  0  0  0  0  0
   -1.1199   -1.7659   -4.7973 C   0  0  0  0  0  0  0  0  0  0  0  0
   -1.0076   -3.9187   -4.8043 H   0  0  0  0  0  0  0  0  0  0  0  0
    1.4772   -3.9699   -4.8267 H   0  0  0  0  0  0  0  0  0  0  0  0
    2.7618   -1.8447   -4.8644 H   0  0  0  0  0  0  0  0  0  0  0  0
    1.5614    0.3309   -4.9008 H   0  0  0  0  0  0  0  0  0  0  0  0
   -0.9215    0.3789   -4.8658 H   0  0  0  0  0  0  0  0  0  0  0  0
   -2.2036   -1.7443   -4.8133 H   0  0  0  0  0  0  0  0  0  0  0  0
  1  2  1  0  0  0  0
  3  1  1  0  0  0  0
  4  3  1  0  0  0  0
  5  3  1  0  0  0  0
  7  6  1  0  0  0  0
  8  7  2  0  0  0  0
  9 10  2  0  0  0  0
  9  8  1  0  0  0  0
 10 11  1  0  0  0  0
 11  6  2  0  0  0  0
 12  6  1  0  0  0  0
 13  7  1  0  0  0  0
 14  8  1  0  0  0  0
 15  9  1  0  0  0  0
 16 10  1  0  0  0  0
 17 11  1  0  0  0  0
M  RAD  2   1   2   2   3
M  END
