Coordinates from ORCA-job C6H6+NH2--N2+-scan
 OpenBabel10171807273D

 17 16  0  0  1  0  0  0  0  0999 V2000
    3.1741   -0.3843   -2.5342 N   0  0  0  0  0  0  0  0  0  0  0  0
    4.0974    0.1627   -2.3155 N   0  0  0  0  0  0  0  0  0  0  0  0
   -0.6350   -3.2611   -2.1831 N   0  0  0  0  0  0  0  0  0  0  0  0
   -1.5722   -3.5497   -2.4414 H   0  0  0  0  0  0  0  0  0  0  0  0
   -0.6545   -2.8588   -1.2534 H   0  0  0  0  0  0  0  0  0  0  0  0
    0.6860   -2.4844   -5.5413 C   0  0  0  0  0  0  0  0  0  0  0  0
    0.5488   -3.0911   -4.3180 C   0  0  0  0  0  0  0  0  0  0  0  0
   -0.0520   -2.3816   -3.1717 C   0  0  1  0  0  0  0  0  0  0  0  0
   -0.6731   -1.0722   -3.4844 C   0  0  0  0  0  0  0  0  0  0  0  0
   -0.5270   -0.4937   -4.7174 C   0  0  0  0  0  0  0  0  0  0  0  0
    0.1453   -1.2009   -5.7358 C   0  0  0  0  0  0  0  0  0  0  0  0
    1.1728   -2.9962   -6.3624 H   0  0  0  0  0  0  0  0  0  0  0  0
    0.9239   -4.0898   -4.1207 H   0  0  0  0  0  0  0  0  0  0  0  0
    0.9266   -1.9946   -2.7488 H   0  0  0  0  0  0  0  0  0  0  0  0
   -1.1964   -0.5619   -2.6817 H   0  0  0  0  0  0  0  0  0  0  0  0
   -0.9484    0.4817   -4.9285 H   0  0  0  0  0  0  0  0  0  0  0  0
    0.2395   -0.7384   -6.7138 H   0  0  0  0  0  0  0  0  0  0  0  0
  1  2  3  0  0  0  0
  3  5  1  0  0  0  0
  4  3  1  0  0  0  0
  6  7  2  0  0  0  0
  7 13  1  0  0  0  0
  7  8  1  0  0  0  0
  8 14  1  1  0  0  0
  8  3  1  0  0  0  0
  9  8  1  0  0  0  0
  9 15  1  0  0  0  0
 10  9  2  0  0  0  0
 11  6  1  0  0  0  0
 11 10  1  0  0  0  0
 12  6  1  0  0  0  0
 16 10  1  0  0  0  0
 17 11  1  0  0  0  0
M  RAD  1  11   2
M  END
