Coordinates from ORCA-job C6H6+NH2--N2+-scan
 OpenBabel10171807273D

 17 16  0  0  1  0  0  0  0  0999 V2000
    1.2156   -2.0067   -0.3409 N   0  0  0  0  0  0  0  0  0  0  0  0
    1.6038   -2.9363    0.1000 N   0  0  0  0  0  0  0  0  0  0  0  0
    1.0204   -1.5687   -2.3049 N   0  0  0  0  0  0  0  0  0  0  0  0
    0.0522   -1.3658   -2.0567 H   0  0  0  0  0  0  0  0  0  0  0  0
    1.5504   -0.7347   -2.0547 H   0  0  0  0  0  0  0  0  0  0  0  0
   -0.4683   -3.1072   -5.1728 C   0  0  0  0  0  0  0  0  0  0  0  0
    0.5337   -3.0092   -4.2546 C   0  0  0  0  0  0  0  0  0  0  0  0
    1.0834   -1.6971   -3.8455 C   0  0  1  0  0  0  0  0  0  0  0  0
    0.4727   -0.5229   -4.4940 C   0  0  0  0  0  0  0  0  0  0  0  0
   -0.5852   -0.6407   -5.3621 C   0  0  0  0  0  0  0  0  0  0  0  0
   -1.0372   -1.9249   -5.7088 C   0  0  0  0  0  0  0  0  0  0  0  0
   -0.8564   -4.0720   -5.4753 H   0  0  0  0  0  0  0  0  0  0  0  0
    0.9571   -3.8897   -3.7828 H   0  0  0  0  0  0  0  0  0  0  0  0
    2.1647   -1.7097   -4.0621 H   0  0  0  0  0  0  0  0  0  0  0  0
    0.8703    0.4544   -4.2376 H   0  0  0  0  0  0  0  0  0  0  0  0
   -1.0590    0.2340   -5.7904 H   0  0  0  0  0  0  0  0  0  0  0  0
   -1.8623   -2.0170   -6.4088 H   0  0  0  0  0  0  0  0  0  0  0  0
  1  2  3  0  0  0  0
  3  4  1  0  0  0  0
  3  5  1  0  0  0  0
  6  7  2  0  0  0  0
  7  8  1  0  0  0  0
  7 13  1  0  0  0  0
  8 14  1  6  0  0  0
  8  3  1  0  0  0  0
  9 15  1  0  0  0  0
  9  8  1  0  0  0  0
 10  9  2  0  0  0  0
 11 10  1  0  0  0  0
 11  6  1  0  0  0  0
 12  6  1  0  0  0  0
 16 10  1  0  0  0  0
 17 11  1  0  0  0  0
M  RAD  1  11   2
M  END
