Coordinates from ORCA-job C6H6+NH2--N2+-scan
 OpenBabel10171807273D

 17 16  0  0  1  0  0  0  0  0999 V2000
    3.0691   -0.7451   -2.1098 N   0  0  0  0  0  0  0  0  0  0  0  0
    4.0163   -0.3613   -1.7161 N   0  0  0  0  0  0  0  0  0  0  0  0
   -0.3503   -3.0883   -2.1226 N   0  0  0  0  0  0  0  0  0  0  0  0
   -1.2733   -3.4830   -2.2659 H   0  0  0  0  0  0  0  0  0  0  0  0
   -0.3274   -2.6098   -1.2299 H   0  0  0  0  0  0  0  0  0  0  0  0
    0.6142   -2.4746   -5.6356 C   0  0  0  0  0  0  0  0  0  0  0  0
    0.6275   -2.9928   -4.3642 C   0  0  0  0  0  0  0  0  0  0  0  0
    0.0549   -2.2498   -3.2274 C   0  0  1  0  0  0  0  0  0  0  0  0
   -0.7072   -1.0294   -3.5787 C   0  0  0  0  0  0  0  0  0  0  0  0
   -0.7077   -0.5372   -4.8577 C   0  0  0  0  0  0  0  0  0  0  0  0
   -0.0541   -1.2614   -5.8758 C   0  0  0  0  0  0  0  0  0  0  0  0
    1.0816   -3.0062   -6.4554 H   0  0  0  0  0  0  0  0  0  0  0  0
    1.1082   -3.9363   -4.1280 H   0  0  0  0  0  0  0  0  0  0  0  0
    1.0250   -1.7434   -2.9217 H   0  0  0  0  0  0  0  0  0  0  0  0
   -1.2130   -0.5050   -2.7739 H   0  0  0  0  0  0  0  0  0  0  0  0
   -1.2310    0.3796   -5.1010 H   0  0  0  0  0  0  0  0  0  0  0  0
   -0.0770   -0.8701   -6.8885 H   0  0  0  0  0  0  0  0  0  0  0  0
  1  2  3  0  0  0  0
  3  5  1  0  0  0  0
  4  3  1  0  0  0  0
  6  7  2  0  0  0  0
  7 13  1  0  0  0  0
  7  8  1  0  0  0  0
  8 14  1  1  0  0  0
  8  3  1  0  0  0  0
  9  8  1  0  0  0  0
  9 15  1  0  0  0  0
 10  9  2  0  0  0  0
 11  6  1  0  0  0  0
 11 10  1  0  0  0  0
 12  6  1  0  0  0  0
 16 10  1  0  0  0  0
 17 11  1  0  0  0  0
M  RAD  1  11   2
M  END
