Coordinates from ORCA-job C6H6+NH2--N2+-scan
 OpenBabel10171807273D

 17 16  0  0  1  0  0  0  0  0999 V2000
    3.0581   -0.7528   -2.1067 N   0  0  0  0  0  0  0  0  0  0  0  0
    4.0041   -0.3696   -1.7098 N   0  0  0  0  0  0  0  0  0  0  0  0
   -0.3444   -3.0851   -2.1214 N   0  0  0  0  0  0  0  0  0  0  0  0
   -1.2674   -3.4808   -2.2620 H   0  0  0  0  0  0  0  0  0  0  0  0
   -0.3198   -2.6055   -1.2294 H   0  0  0  0  0  0  0  0  0  0  0  0
    0.6132   -2.4748   -5.6370 C   0  0  0  0  0  0  0  0  0  0  0  0
    0.6288   -2.9917   -4.3651 C   0  0  0  0  0  0  0  0  0  0  0  0
    0.0578   -2.2479   -3.2282 C   0  0  1  0  0  0  0  0  0  0  0  0
   -0.7054   -1.0282   -3.5794 C   0  0  0  0  0  0  0  0  0  0  0  0
   -0.7082   -0.5372   -4.8588 C   0  0  0  0  0  0  0  0  0  0  0  0
   -0.0559   -1.2620   -5.8773 C   0  0  0  0  0  0  0  0  0  0  0  0
    1.0795   -3.0069   -6.4571 H   0  0  0  0  0  0  0  0  0  0  0  0
    1.1104   -3.9347   -4.1288 H   0  0  0  0  0  0  0  0  0  0  0  0
    1.0282   -1.7411   -2.9240 H   0  0  0  0  0  0  0  0  0  0  0  0
   -1.2103   -0.5033   -2.7743 H   0  0  0  0  0  0  0  0  0  0  0  0
   -1.2323    0.3792   -5.1022 H   0  0  0  0  0  0  0  0  0  0  0  0
   -0.0806   -0.8717   -6.8904 H   0  0  0  0  0  0  0  0  0  0  0  0
  1  2  3  0  0  0  0
  3  5  1  0  0  0  0
  4  3  1  0  0  0  0
  6  7  2  0  0  0  0
  7 13  1  0  0  0  0
  7  8  1  0  0  0  0
  8 14  1  1  0  0  0
  8  3  1  0  0  0  0
  9  8  1  0  0  0  0
  9 15  1  0  0  0  0
 10  9  2  0  0  0  0
 11  6  1  0  0  0  0
 11 10  1  0  0  0  0
 12  6  1  0  0  0  0
 16 10  1  0  0  0  0
 17 11  1  0  0  0  0
M  RAD  1  11   2
M  END
