Coordinates from ORCA-job C6H6+NH2--N2+-scan
 OpenBabel10171807273D

 17 16  0  0  1  0  0  0  0  0999 V2000
    3.5229    0.4439   -4.2956 N   0  0  0  0  0  0  0  0  0  0  0  0
    4.4677    0.9488   -4.0666 N   0  0  0  0  0  0  0  0  0  0  0  0
   -1.3411   -3.5971   -2.5159 N   0  0  0  0  0  0  0  0  0  0  0  0
   -2.1611   -3.6887   -3.1056 H   0  0  0  0  0  0  0  0  0  0  0  0
   -1.6340   -3.3788   -1.5708 H   0  0  0  0  0  0  0  0  0  0  0  0
    1.0431   -2.4143   -5.0663 C   0  0  0  0  0  0  0  0  0  0  0  0
    0.4824   -3.2075   -4.0996 C   0  0  0  0  0  0  0  0  0  0  0  0
   -0.3953   -2.6427   -3.0523 C   0  0  1  0  0  0  0  0  0  0  0  0
   -0.7852   -1.2226   -3.2458 C   0  0  0  0  0  0  0  0  0  0  0  0
   -0.2160   -0.4569   -4.2266 C   0  0  0  0  0  0  0  0  0  0  0  0
    0.6914   -1.0529   -5.1283 C   0  0  0  0  0  0  0  0  0  0  0  0
    1.7241   -2.8295   -5.7989 H   0  0  0  0  0  0  0  0  0  0  0  0
    0.6972   -4.2683   -4.0234 H   0  0  0  0  0  0  0  0  0  0  0  0
    0.4035   -2.4995   -2.2669 H   0  0  0  0  0  0  0  0  0  0  0  0
   -1.4967   -0.7996   -2.5431 H   0  0  0  0  0  0  0  0  0  0  0  0
   -0.4744    0.5891   -4.3381 H   0  0  0  0  0  0  0  0  0  0  0  0
    1.1273   -0.4375   -5.9083 H   0  0  0  0  0  0  0  0  0  0  0  0
  1  2  3  0  0  0  0
  3  5  1  0  0  0  0
  4  3  1  0  0  0  0
  6  7  2  0  0  0  0
  7 13  1  0  0  0  0
  7  8  1  0  0  0  0
  8  3  1  0  0  0  0
  8 14  1  1  0  0  0
  9  8  1  0  0  0  0
  9 15  1  0  0  0  0
 10  9  2  0  0  0  0
 11  6  1  0  0  0  0
 11 10  1  0  0  0  0
 12  6  1  0  0  0  0
 16 10  1  0  0  0  0
 17 11  1  0  0  0  0
M  RAD  1  11   2
M  END
