Coordinates from ORCA-job C6H6+NH2--N2+-scan
 OpenBabel10171807273D

 17 16  0  0  1  0  0  0  0  0999 V2000
    3.1108   -0.5455   -2.3712 N   0  0  0  0  0  0  0  0  0  0  0  0
    4.0486   -0.0510   -2.0964 N   0  0  0  0  0  0  0  0  0  0  0  0
   -0.5261   -3.1968   -2.1559 N   0  0  0  0  0  0  0  0  0  0  0  0
   -1.4602   -3.5272   -2.3716 H   0  0  0  0  0  0  0  0  0  0  0  0
   -0.5284   -2.7659   -1.2390 H   0  0  0  0  0  0  0  0  0  0  0  0
    0.6630   -2.4770   -5.5769 C   0  0  0  0  0  0  0  0  0  0  0  0
    0.5815   -3.0522   -4.3333 C   0  0  0  0  0  0  0  0  0  0  0  0
   -0.0094   -2.3302   -3.1909 C   0  0  1  0  0  0  0  0  0  0  0  0
   -0.6844   -1.0529   -3.5213 C   0  0  0  0  0  0  0  0  0  0  0  0
   -0.5924   -0.5051   -4.7737 C   0  0  0  0  0  0  0  0  0  0  0  0
    0.0741   -1.2183   -5.7914 C   0  0  0  0  0  0  0  0  0  0  0  0
    1.1433   -2.9961   -6.3973 H   0  0  0  0  0  0  0  0  0  0  0  0
    0.9966   -4.0314   -4.1191 H   0  0  0  0  0  0  0  0  0  0  0  0
    0.9687   -1.8952   -2.8129 H   0  0  0  0  0  0  0  0  0  0  0  0
   -1.2023   -0.5376   -2.7182 H   0  0  0  0  0  0  0  0  0  0  0  0
   -1.0526    0.4495   -4.9990 H   0  0  0  0  0  0  0  0  0  0  0  0
    0.1250   -0.7813   -6.7841 H   0  0  0  0  0  0  0  0  0  0  0  0
  1  2  3  0  0  0  0
  3  5  1  0  0  0  0
  4  3  1  0  0  0  0
  6  7  2  0  0  0  0
  7 13  1  0  0  0  0
  7  8  1  0  0  0  0
  8 14  1  1  0  0  0
  8  3  1  0  0  0  0
  9  8  1  0  0  0  0
  9 15  1  0  0  0  0
 10  9  2  0  0  0  0
 11  6  1  0  0  0  0
 11 10  1  0  0  0  0
 12  6  1  0  0  0  0
 16 10  1  0  0  0  0
 17 11  1  0  0  0  0
M  RAD  1  11   2
M  END
