Coordinates from ORCA-job C6H6+NH2--N2+-scan
 OpenBabel10171807273D

 17 17  0  0  1  0  0  0  0  0999 V2000
    0.9978   -1.9420   -0.5269 N   0  0  0  0  0  0  0  0  0  0  0  0
    1.4879   -2.7776    0.0035 N   0  0  0  0  0  0  0  0  0  0  0  0
    0.9261   -1.5725   -2.2988 N   0  0  0  0  0  0  0  0  0  0  0  0
   -0.0969   -1.5180   -2.2653 H   0  0  0  0  0  0  0  0  0  0  0  0
    1.2388   -0.6128   -2.1219 H   0  0  0  0  0  0  0  0  0  0  0  0
   -0.4672   -3.1012   -5.1000 C   0  0  0  0  0  0  0  0  0  0  0  0
    0.6810   -3.0464   -4.3648 C   0  0  0  0  0  0  0  0  0  0  0  0
    1.2571   -1.7599   -3.9706 C   0  0  1  0  0  0  0  0  0  0  0  0
    0.6282   -0.5701   -4.5156 C   0  0  0  0  0  0  0  0  0  0  0  0
   -0.5578   -0.6456   -5.2229 C   0  0  0  0  0  0  0  0  0  0  0  0
   -1.0935   -1.9007   -5.5220 C   0  0  0  0  0  0  0  0  0  0  0  0
   -0.9007   -4.0546   -5.3763 H   0  0  0  0  0  0  0  0  0  0  0  0
    1.1753   -3.9520   -4.0311 H   0  0  0  0  0  0  0  0  0  0  0  0
    2.3455   -1.7458   -3.9413 H   0  0  0  0  0  0  0  0  0  0  0  0
    1.0933    0.3924   -4.3266 H   0  0  0  0  0  0  0  0  0  0  0  0
   -1.0484    0.2543   -5.5728 H   0  0  0  0  0  0  0  0  0  0  0  0
   -2.0106   -1.9618   -6.0986 H   0  0  0  0  0  0  0  0  0  0  0  0
  1  2  2  0  0  0  0
  3  4  1  0  0  0  0
  3  5  1  0  0  0  0
  3  1  1  0  0  0  0
  6  7  2  0  0  0  0
  7 13  1  0  0  0  0
  7  8  1  0  0  0  0
  8 14  1  6  0  0  0
  8  3  1  0  0  0  0
  9 15  1  0  0  0  0
  9  8  1  0  0  0  0
 10  9  2  0  0  0  0
 11 10  1  0  0  0  0
 11  6  1  0  0  0  0
 12  6  1  0  0  0  0
 16 10  1  0  0  0  0
 17 11  1  0  0  0  0
M  RAD  2   2   2  11   2
M  END
