Coordinates from ORCA-job C6H6+NH2--N2+-scan
 OpenBabel10171807273D

 17 16  0  0  1  0  0  0  0  0999 V2000
    3.4719    0.3252   -4.0838 N   0  0  0  0  0  0  0  0  0  0  0  0
    4.4185    0.8224   -3.8456 N   0  0  0  0  0  0  0  0  0  0  0  0
   -1.2615   -3.5682   -2.4659 N   0  0  0  0  0  0  0  0  0  0  0  0
   -2.1004   -3.6900   -3.0227 H   0  0  0  0  0  0  0  0  0  0  0  0
   -1.5243   -3.3293   -1.5169 H   0  0  0  0  0  0  0  0  0  0  0  0
    1.0083   -2.4097   -5.1303 C   0  0  0  0  0  0  0  0  0  0  0  0
    0.4955   -3.1880   -4.1256 C   0  0  0  0  0  0  0  0  0  0  0  0
   -0.3540   -2.6118   -3.0615 C   0  0  1  0  0  0  0  0  0  0  0  0
   -0.7753   -1.2037   -3.2752 C   0  0  0  0  0  0  0  0  0  0  0  0
   -0.2538   -0.4531   -4.2935 C   0  0  0  0  0  0  0  0  0  0  0  0
    0.6320   -1.0561   -5.2115 C   0  0  0  0  0  0  0  0  0  0  0  0
    1.6702   -2.8317   -5.8764 H   0  0  0  0  0  0  0  0  0  0  0  0
    0.7313   -4.2429   -4.0314 H   0  0  0  0  0  0  0  0  0  0  0  0
    0.4713   -2.4342   -2.3110 H   0  0  0  0  0  0  0  0  0  0  0  0
   -1.4689   -0.7753   -2.5581 H   0  0  0  0  0  0  0  0  0  0  0  0
   -0.5339    0.5855   -4.4206 H   0  0  0  0  0  0  0  0  0  0  0  0
    1.0288   -0.4531   -6.0220 H   0  0  0  0  0  0  0  0  0  0  0  0
  1  2  3  0  0  0  0
  3  5  1  0  0  0  0
  4  3  1  0  0  0  0
  6  7  2  0  0  0  0
  7 13  1  0  0  0  0
  7  8  1  0  0  0  0
  8  3  1  0  0  0  0
  8 14  1  1  0  0  0
  9  8  1  0  0  0  0
  9 15  1  0  0  0  0
 10  9  2  0  0  0  0
 11  6  1  0  0  0  0
 11 10  1  0  0  0  0
 12  6  1  0  0  0  0
 16 10  1  0  0  0  0
 17 11  1  0  0  0  0
M  RAD  1  11   2
M  END
