Coordinates from ORCA-job C6H6+NH2--N2+-scan
 OpenBabel10171807273D

 17 16  0  0  1  0  0  0  0  0999 V2000
    3.1896   -0.3571   -2.5596 N   0  0  0  0  0  0  0  0  0  0  0  0
    4.1118    0.1947   -2.3480 N   0  0  0  0  0  0  0  0  0  0  0  0
   -0.6526   -3.2709   -2.1880 N   0  0  0  0  0  0  0  0  0  0  0  0
   -1.5897   -3.5536   -2.4530 H   0  0  0  0  0  0  0  0  0  0  0  0
   -0.6755   -2.8730   -1.2565 H   0  0  0  0  0  0  0  0  0  0  0  0
    0.6898   -2.4853   -5.5354 C   0  0  0  0  0  0  0  0  0  0  0  0
    0.5439   -3.0966   -4.3155 C   0  0  0  0  0  0  0  0  0  0  0  0
   -0.0595   -2.3894   -3.1689 C   0  0  1  0  0  0  0  0  0  0  0  0
   -0.6731   -1.0757   -3.4790 C   0  0  0  0  0  0  0  0  0  0  0  0
   -0.5185   -0.4927   -4.7089 C   0  0  0  0  0  0  0  0  0  0  0  0
    0.1557   -1.1985   -5.7269 C   0  0  0  0  0  0  0  0  0  0  0  0
    1.1783   -2.9956   -6.3563 H   0  0  0  0  0  0  0  0  0  0  0  0
    0.9135   -4.0978   -4.1206 H   0  0  0  0  0  0  0  0  0  0  0  0
    0.9182   -2.0093   -2.7385 H   0  0  0  0  0  0  0  0  0  0  0  0
   -1.1980   -0.5666   -2.6766 H   0  0  0  0  0  0  0  0  0  0  0  0
   -0.9345    0.4855   -4.9178 H   0  0  0  0  0  0  0  0  0  0  0  0
    0.2567   -0.7323   -6.7025 H   0  0  0  0  0  0  0  0  0  0  0  0
  1  2  3  0  0  0  0
  3  5  1  0  0  0  0
  4  3  1  0  0  0  0
  6  7  2  0  0  0  0
  7 13  1  0  0  0  0
  7  8  1  0  0  0  0
  8 14  1  1  0  0  0
  8  3  1  0  0  0  0
  9  8  1  0  0  0  0
  9 15  1  0  0  0  0
 10  9  2  0  0  0  0
 11  6  1  0  0  0  0
 11 10  1  0  0  0  0
 12  6  1  0  0  0  0
 16 10  1  0  0  0  0
 17 11  1  0  0  0  0
M  RAD  1  11   2
M  END
