Coordinates from ORCA-job C6H6+NH2--N2+-scan
 OpenBabel10171807273D

 17 16  0  0  1  0  0  0  0  0999 V2000
    2.9505   -0.9265   -1.7718 N   0  0  0  0  0  0  0  0  0  0  0  0
    3.8611   -0.6807   -1.2151 N   0  0  0  0  0  0  0  0  0  0  0  0
   -0.1397   -2.9593   -2.1122 N   0  0  0  0  0  0  0  0  0  0  0  0
   -1.0566   -3.3900   -2.1583 H   0  0  0  0  0  0  0  0  0  0  0  0
   -0.0610   -2.4333   -1.2499 H   0  0  0  0  0  0  0  0  0  0  0  0
    0.5335   -2.4952   -5.7160 C   0  0  0  0  0  0  0  0  0  0  0  0
    0.6606   -2.9472   -4.4257 C   0  0  0  0  0  0  0  0  0  0  0  0
    0.1464   -2.1673   -3.2862 C   0  0  1  0  0  0  0  0  0  0  0  0
   -0.6840   -0.9925   -3.6365 C   0  0  0  0  0  0  0  0  0  0  0  0
   -0.7982   -0.5663   -4.9340 C   0  0  0  0  0  0  0  0  0  0  0  0
   -0.1958   -1.3189   -5.9629 C   0  0  0  0  0  0  0  0  0  0  0  0
    0.9583   -3.0517   -6.5424 H   0  0  0  0  0  0  0  0  0  0  0  0
    1.1923   -3.8608   -4.1818 H   0  0  0  0  0  0  0  0  0  0  0  0
    1.1161   -1.6183   -3.0682 H   0  0  0  0  0  0  0  0  0  0  0  0
   -1.1474   -0.4448   -2.8218 H   0  0  0  0  0  0  0  0  0  0  0  0
   -1.3717    0.3191   -5.1805 H   0  0  0  0  0  0  0  0  0  0  0  0
   -0.3085   -0.9806   -6.9886 H   0  0  0  0  0  0  0  0  0  0  0  0
  1  2  3  0  0  0  0
  3  5  1  0  0  0  0
  4  3  1  0  0  0  0
  6  7  2  0  0  0  0
  7 13  1  0  0  0  0
  7  8  1  0  0  0  0
  8 14  1  1  0  0  0
  8  3  1  0  0  0  0
  9  8  1  0  0  0  0
  9 15  1  0  0  0  0
 10  9  2  0  0  0  0
 11  6  1  0  0  0  0
 11 10  1  0  0  0  0
 12  6  1  0  0  0  0
 16 10  1  0  0  0  0
 17 11  1  0  0  0  0
M  RAD  1  11   2
M  END
