Coordinates from ORCA-job C6H6+NH2--N2+-scan
 OpenBabel10171807273D

 17 16  0  0  1  0  0  0  0  0999 V2000
    1.6321   -1.8329    0.2075 N   0  0  0  0  0  0  0  0  0  0  0  0
    2.0192   -2.5859    0.9028 N   0  0  0  0  0  0  0  0  0  0  0  0
    1.1053   -1.7461   -2.3603 N   0  0  0  0  0  0  0  0  0  0  0  0
    0.2748   -1.5739   -1.8057 H   0  0  0  0  0  0  0  0  0  0  0  0
    1.8067   -1.0660   -2.0946 H   0  0  0  0  0  0  0  0  0  0  0  0
   -0.5179   -3.0752   -5.3936 C   0  0  0  0  0  0  0  0  0  0  0  0
    0.2953   -3.0161   -4.2912 C   0  0  0  0  0  0  0  0  0  0  0  0
    0.8121   -1.7287   -3.7818 C   0  0  1  0  0  0  0  0  0  0  0  0
    0.2380   -0.5159   -4.4162 C   0  0  0  0  0  0  0  0  0  0  0  0
   -0.5845   -0.6045   -5.5075 C   0  0  0  0  0  0  0  0  0  0  0  0
   -0.9577   -1.8774   -5.9874 C   0  0  0  0  0  0  0  0  0  0  0  0
   -0.8527   -4.0274   -5.7865 H   0  0  0  0  0  0  0  0  0  0  0  0
    0.6373   -3.9074   -3.7755 H   0  0  0  0  0  0  0  0  0  0  0  0
    1.8067   -1.7553   -4.3165 H   0  0  0  0  0  0  0  0  0  0  0  0
    0.5371    0.4473   -4.0142 H   0  0  0  0  0  0  0  0  0  0  0  0
   -0.9740    0.2859   -5.9865 H   0  0  0  0  0  0  0  0  0  0  0  0
   -1.6219   -1.9346   -6.8448 H   0  0  0  0  0  0  0  0  0  0  0  0
  1  2  3  0  0  0  0
  3  5  1  0  0  0  0
  3  4  1  0  0  0  0
  6  7  2  0  0  0  0
  7  8  1  0  0  0  0
  7 13  1  0  0  0  0
  8 14  1  6  0  0  0
  8  3  1  0  0  0  0
  9 15  1  0  0  0  0
  9  8  1  0  0  0  0
 10  9  2  0  0  0  0
 11 10  1  0  0  0  0
 11  6  1  0  0  0  0
 12  6  1  0  0  0  0
 16 10  1  0  0  0  0
 17 11  1  0  0  0  0
M  RAD  1  11   2
M  END
