Coordinates from ORCA-job C6H6+NH2--N2+-scan
 OpenBabel10171807273D

 17 16  0  0  1  0  0  0  0  0999 V2000
    3.5079    0.4068   -4.2299 N   0  0  0  0  0  0  0  0  0  0  0  0
    4.4529    0.9117   -4.0018 N   0  0  0  0  0  0  0  0  0  0  0  0
   -1.3175   -3.5888   -2.5008 N   0  0  0  0  0  0  0  0  0  0  0  0
   -2.1434   -3.6886   -3.0809 H   0  0  0  0  0  0  0  0  0  0  0  0
   -1.6014   -3.3644   -1.5544 H   0  0  0  0  0  0  0  0  0  0  0  0
    1.0328   -2.4127   -5.0857 C   0  0  0  0  0  0  0  0  0  0  0  0
    0.4867   -3.2016   -4.1072 C   0  0  0  0  0  0  0  0  0  0  0  0
   -0.3826   -2.6334   -3.0546 C   0  0  1  0  0  0  0  0  0  0  0  0
   -0.7820   -1.2169   -3.2544 C   0  0  0  0  0  0  0  0  0  0  0  0
   -0.2274   -0.4557   -4.2470 C   0  0  0  0  0  0  0  0  0  0  0  0
    0.6735   -1.0536   -5.1538 C   0  0  0  0  0  0  0  0  0  0  0  0
    1.7080   -2.8300   -5.8225 H   0  0  0  0  0  0  0  0  0  0  0  0
    0.7079   -4.2606   -4.0255 H   0  0  0  0  0  0  0  0  0  0  0  0
    0.4240   -2.4802   -2.2792 H   0  0  0  0  0  0  0  0  0  0  0  0
   -1.4881   -0.7923   -2.5473 H   0  0  0  0  0  0  0  0  0  0  0  0
   -0.4927    0.5881   -4.3634 H   0  0  0  0  0  0  0  0  0  0  0  0
    1.0971   -0.4420   -5.9436 H   0  0  0  0  0  0  0  0  0  0  0  0
  1  2  3  0  0  0  0
  3  5  1  0  0  0  0
  4  3  1  0  0  0  0
  6  7  2  0  0  0  0
  7 13  1  0  0  0  0
  7  8  1  0  0  0  0
  8  3  1  0  0  0  0
  8 14  1  1  0  0  0
  9  8  1  0  0  0  0
  9 15  1  0  0  0  0
 10  9  2  0  0  0  0
 11  6  1  0  0  0  0
 11 10  1  0  0  0  0
 12  6  1  0  0  0  0
 16 10  1  0  0  0  0
 17 11  1  0  0  0  0
M  RAD  1  11   2
M  END
