Coordinates from ORCA-job C6H6+NH2--N2+-scan
 OpenBabel10171807273D

 17 16  0  0  1  0  0  0  0  0999 V2000
    1.5406   -1.9920   -0.0772 N   0  0  0  0  0  0  0  0  0  0  0  0
    1.8895   -2.9189    0.3937 N   0  0  0  0  0  0  0  0  0  0  0  0
    1.0782   -1.6134   -2.2901 N   0  0  0  0  0  0  0  0  0  0  0  0
    0.2198   -1.3607   -1.8109 H   0  0  0  0  0  0  0  0  0  0  0  0
    1.7704   -0.9096   -2.0574 H   0  0  0  0  0  0  0  0  0  0  0  0
   -0.4892   -3.0950   -5.2776 C   0  0  0  0  0  0  0  0  0  0  0  0
    0.3313   -2.9810   -4.1868 C   0  0  0  0  0  0  0  0  0  0  0  0
    0.8463   -1.6689   -3.7407 C   0  0  1  0  0  0  0  0  0  0  0  0
    0.2734   -0.4908   -4.4352 C   0  0  0  0  0  0  0  0  0  0  0  0
   -0.5700   -0.6312   -5.5050 C   0  0  0  0  0  0  0  0  0  0  0  0
   -0.9427   -1.9263   -5.9207 C   0  0  0  0  0  0  0  0  0  0  0  0
   -0.8240   -4.0652   -5.6234 H   0  0  0  0  0  0  0  0  0  0  0  0
    0.6738   -3.8471   -3.6302 H   0  0  0  0  0  0  0  0  0  0  0  0
    1.8650   -1.7141   -4.2158 H   0  0  0  0  0  0  0  0  0  0  0  0
    0.5804    0.4917   -4.0895 H   0  0  0  0  0  0  0  0  0  0  0  0
   -0.9688    0.2345   -6.0199 H   0  0  0  0  0  0  0  0  0  0  0  0
   -1.6182   -2.0262   -6.7653 H   0  0  0  0  0  0  0  0  0  0  0  0
  1  2  3  0  0  0  0
  3  5  1  0  0  0  0
  3  4  1  0  0  0  0
  6  7  2  0  0  0  0
  7  8  1  0  0  0  0
  7 13  1  0  0  0  0
  8 14  1  6  0  0  0
  8  3  1  0  0  0  0
  9 15  1  0  0  0  0
  9  8  1  0  0  0  0
 10  9  2  0  0  0  0
 11 10  1  0  0  0  0
 11  6  1  0  0  0  0
 12  6  1  0  0  0  0
 16 10  1  0  0  0  0
 17 11  1  0  0  0  0
M  RAD  1  11   2
M  END
