Coordinates from ORCA-job C6H6+NH2--N2+-scan
 OpenBabel10171807273D

 17 16  0  0  1  0  0  0  0  0999 V2000
    3.0875   -0.6359   -2.2699 N   0  0  0  0  0  0  0  0  0  0  0  0
    4.0368   -0.1877   -1.9580 N   0  0  0  0  0  0  0  0  0  0  0  0
   -0.4625   -3.1563   -2.1436 N   0  0  0  0  0  0  0  0  0  0  0  0
   -1.3949   -3.5071   -2.3328 H   0  0  0  0  0  0  0  0  0  0  0  0
   -0.4526   -2.7103   -1.2339 H   0  0  0  0  0  0  0  0  0  0  0  0
    0.6501   -2.4717   -5.5978 C   0  0  0  0  0  0  0  0  0  0  0  0
    0.6032   -3.0260   -4.3429 C   0  0  0  0  0  0  0  0  0  0  0  0
    0.0153   -2.2974   -3.2036 C   0  0  1  0  0  0  0  0  0  0  0  0
   -0.6953   -1.0428   -3.5446 C   0  0  0  0  0  0  0  0  0  0  0  0
   -0.6377   -0.5155   -4.8079 C   0  0  0  0  0  0  0  0  0  0  0  0
    0.0281   -1.2312   -5.8243 C   0  0  0  0  0  0  0  0  0  0  0  0
    1.1283   -2.9944   -6.4171 H   0  0  0  0  0  0  0  0  0  0  0  0
    1.0445   -3.9915   -4.1188 H   0  0  0  0  0  0  0  0  0  0  0  0
    0.9887   -1.8337   -2.8478 H   0  0  0  0  0  0  0  0  0  0  0  0
   -1.2113   -0.5252   -2.7418 H   0  0  0  0  0  0  0  0  0  0  0  0
   -1.1242    0.4237   -5.0420 H   0  0  0  0  0  0  0  0  0  0  0  0
    0.0518   -0.8112   -6.8254 H   0  0  0  0  0  0  0  0  0  0  0  0
  1  2  3  0  0  0  0
  3  5  1  0  0  0  0
  4  3  1  0  0  0  0
  6  7  2  0  0  0  0
  7 13  1  0  0  0  0
  7  8  1  0  0  0  0
  8 14  1  1  0  0  0
  8  3  1  0  0  0  0
  9  8  1  0  0  0  0
  9 15  1  0  0  0  0
 10  9  2  0  0  0  0
 11  6  1  0  0  0  0
 11 10  1  0  0  0  0
 12  6  1  0  0  0  0
 16 10  1  0  0  0  0
 17 11  1  0  0  0  0
M  RAD  1  11   2
M  END
