Coordinates from ORCA-job C6H6+NH2--N2+-scan
 OpenBabel10171807273D

 17 16  0  0  0  0  0  0  0  0999 V2000
   -0.0772   -1.8285   -1.1688 N   0  0  0  0  0  0  0  0  0  0  0  0
   -1.0437   -1.7979   -0.6300 N   0  0  0  0  0  0  0  0  0  0  0  0
    1.1132   -2.0337   -1.7728 N   0  0  0  0  0  0  0  0  0  0  0  0
    0.9824   -2.3339   -2.7789 H   0  0  0  0  0  0  0  0  0  0  0  0
    1.7329   -1.2389   -1.6043 H   0  0  0  0  0  0  0  0  0  0  0  0
   -0.4301   -2.9656   -4.4834 C   0  0  0  0  0  0  0  0  0  0  0  0
    0.9556   -2.9781   -4.7032 C   0  0  0  0  0  0  0  0  0  0  0  0
    1.6295   -1.7802   -4.9846 C   0  0  0  0  0  0  0  0  0  0  0  0
    0.9226   -0.5770   -5.0343 C   0  0  0  0  0  0  0  0  0  0  0  0
   -0.4555   -0.5674   -4.8092 C   0  0  0  0  0  0  0  0  0  0  0  0
   -1.1322   -1.7587   -4.5344 C   0  0  0  0  0  0  0  0  0  0  0  0
   -0.9571   -3.8973   -4.3084 H   0  0  0  0  0  0  0  0  0  0  0  0
    1.4959   -3.9187   -4.7078 H   0  0  0  0  0  0  0  0  0  0  0  0
    2.6943   -1.7958   -5.1891 H   0  0  0  0  0  0  0  0  0  0  0  0
    1.4394    0.3451   -5.2743 H   0  0  0  0  0  0  0  0  0  0  0  0
   -1.0066    0.3641   -4.8728 H   0  0  0  0  0  0  0  0  0  0  0  0
   -2.2076   -1.7516   -4.3958 H   0  0  0  0  0  0  0  0  0  0  0  0
  1  2  1  0  0  0  0
  3  5  1  0  0  0  0
  3  1  1  0  0  0  0
  4  3  1  0  0  0  0
  6 12  1  0  0  0  0
  7  6  2  0  0  0  0
  8  7  1  0  0  0  0
  9  8  2  0  0  0  0
  9 10  1  0  0  0  0
 10 11  2  0  0  0  0
 11  6  1  0  0  0  0
 11 17  1  0  0  0  0
 13  7  1  0  0  0  0
 14  8  1  0  0  0  0
 15  9  1  0  0  0  0
 16 10  1  0  0  0  0
M  RAD  2   1   2   2   3
M  END
