Coordinates from ORCA-job C6H6+NH2--N2+-scan
 OpenBabel10171807273D

 17 16  0  0  1  0  0  0  0  0999 V2000
    3.1074   -0.5574   -2.3584 N   0  0  0  0  0  0  0  0  0  0  0  0
    4.0467   -0.0685   -2.0789 N   0  0  0  0  0  0  0  0  0  0  0  0
   -0.5177   -3.1917   -2.1540 N   0  0  0  0  0  0  0  0  0  0  0  0
   -1.4514   -3.5253   -2.3664 H   0  0  0  0  0  0  0  0  0  0  0  0
   -0.5189   -2.7585   -1.2382 H   0  0  0  0  0  0  0  0  0  0  0  0
    0.6614   -2.4763   -5.5796 C   0  0  0  0  0  0  0  0  0  0  0  0
    0.5842   -3.0489   -4.3344 C   0  0  0  0  0  0  0  0  0  0  0  0
   -0.0064   -2.3260   -3.1925 C   0  0  1  0  0  0  0  0  0  0  0  0
   -0.6858   -1.0516   -3.5243 C   0  0  0  0  0  0  0  0  0  0  0  0
   -0.5981   -0.5063   -4.7781 C   0  0  0  0  0  0  0  0  0  0  0  0
    0.0683   -1.2198   -5.7956 C   0  0  0  0  0  0  0  0  0  0  0  0
    1.1414   -2.9959   -6.3998 H   0  0  0  0  0  0  0  0  0  0  0  0
    1.0026   -4.0264   -4.1190 H   0  0  0  0  0  0  0  0  0  0  0  0
    0.9713   -1.8872   -2.8176 H   0  0  0  0  0  0  0  0  0  0  0  0
   -1.2035   -0.5360   -2.7213 H   0  0  0  0  0  0  0  0  0  0  0  0
   -1.0615    0.4464   -5.0046 H   0  0  0  0  0  0  0  0  0  0  0  0
    0.1158   -0.7849   -6.7895 H   0  0  0  0  0  0  0  0  0  0  0  0
  1  2  3  0  0  0  0
  3  5  1  0  0  0  0
  4  3  1  0  0  0  0
  6  7  2  0  0  0  0
  7 13  1  0  0  0  0
  7  8  1  0  0  0  0
  8 14  1  1  0  0  0
  8  3  1  0  0  0  0
  9  8  1  0  0  0  0
  9 15  1  0  0  0  0
 10  9  2  0  0  0  0
 11  6  1  0  0  0  0
 11 10  1  0  0  0  0
 12  6  1  0  0  0  0
 16 10  1  0  0  0  0
 17 11  1  0  0  0  0
M  RAD  1  11   2
M  END
