Coordinates from ORCA-job C6H6+NH2--N2+-scan
 OpenBabel10171807273D

 17 16  0  0  1  0  0  0  0  0999 V2000
    3.4463    0.2535   -3.9349 N   0  0  0  0  0  0  0  0  0  0  0  0
    4.3945    0.7319   -3.6665 N   0  0  0  0  0  0  0  0  0  0  0  0
   -1.2011   -3.5457   -2.4289 N   0  0  0  0  0  0  0  0  0  0  0  0
   -2.0533   -3.6906   -2.9593 H   0  0  0  0  0  0  0  0  0  0  0  0
   -1.4411   -3.2889   -1.4785 H   0  0  0  0  0  0  0  0  0  0  0  0
    0.9788   -2.4093   -5.1780 C   0  0  0  0  0  0  0  0  0  0  0  0
    0.5022   -3.1754   -4.1461 C   0  0  0  0  0  0  0  0  0  0  0  0
   -0.3252   -2.5896   -3.0705 C   0  0  1  0  0  0  0  0  0  0  0  0
   -0.7698   -1.1911   -3.2976 C   0  0  0  0  0  0  0  0  0  0  0  0
   -0.2840   -0.4528   -4.3425 C   0  0  0  0  0  0  0  0  0  0  0  0
    0.5845   -1.0619   -5.2726 C   0  0  0  0  0  0  0  0  0  0  0  0
    1.6259   -2.8369   -5.9338 H   0  0  0  0  0  0  0  0  0  0  0  0
    0.7535   -4.2255   -4.0391 H   0  0  0  0  0  0  0  0  0  0  0  0
    0.5206   -2.3852   -2.3496 H   0  0  0  0  0  0  0  0  0  0  0  0
   -1.4491   -0.7580   -2.5698 H   0  0  0  0  0  0  0  0  0  0  0  0
   -0.5796    0.5802   -4.4802 H   0  0  0  0  0  0  0  0  0  0  0  0
    0.9527   -0.4689   -6.1040 H   0  0  0  0  0  0  0  0  0  0  0  0
  1  2  3  0  0  0  0
  3  5  1  0  0  0  0
  4  3  1  0  0  0  0
  6  7  2  0  0  0  0
  7 13  1  0  0  0  0
  7  8  1  0  0  0  0
  8  3  1  0  0  0  0
  8 14  1  1  0  0  0
  9  8  1  0  0  0  0
  9 15  1  0  0  0  0
 10  9  2  0  0  0  0
 11  6  1  0  0  0  0
 11 10  1  0  0  0  0
 12  6  1  0  0  0  0
 16 10  1  0  0  0  0
 17 11  1  0  0  0  0
M  RAD  1  11   2
M  END
