Coordinates from ORCA-job C6H6+NH2--N2+-scan
 OpenBabel10171807273D

 17 16  0  0  1  0  0  0  0  0999 V2000
    2.9995   -0.8495   -1.9201 N   0  0  0  0  0  0  0  0  0  0  0  0
    3.9282   -0.5365   -1.4312 N   0  0  0  0  0  0  0  0  0  0  0  0
   -0.2309   -3.0167   -2.1139 N   0  0  0  0  0  0  0  0  0  0  0  0
   -1.1510   -3.4336   -2.2019 H   0  0  0  0  0  0  0  0  0  0  0  0
   -0.1766   -2.5107   -1.2379 H   0  0  0  0  0  0  0  0  0  0  0  0
    0.5678   -2.4861   -5.6826 C   0  0  0  0  0  0  0  0  0  0  0  0
    0.6450   -2.9680   -4.3991 C   0  0  0  0  0  0  0  0  0  0  0  0
    0.1062   -2.2043   -3.2600 C   0  0  1  0  0  0  0  0  0  0  0  0
   -0.6936   -1.0087   -3.6113 C   0  0  0  0  0  0  0  0  0  0  0  0
   -0.7575   -0.5525   -4.9020 C   0  0  0  0  0  0  0  0  0  0  0  0
   -0.1336   -1.2926   -5.9271 C   0  0  0  0  0  0  0  0  0  0  0  0
    1.0107   -3.0317   -6.5067 H   0  0  0  0  0  0  0  0  0  0  0  0
    1.1539   -3.8953   -4.1581 H   0  0  0  0  0  0  0  0  0  0  0  0
    1.0779   -1.6742   -3.0044 H   0  0  0  0  0  0  0  0  0  0  0  0
   -1.1751   -0.4712   -2.8002 H   0  0  0  0  0  0  0  0  0  0  0  0
   -1.3084    0.3476   -5.1474 H   0  0  0  0  0  0  0  0  0  0  0  0
   -0.2068   -0.9303   -6.9481 H   0  0  0  0  0  0  0  0  0  0  0  0
  1  2  3  0  0  0  0
  3  5  1  0  0  0  0
  4  3  1  0  0  0  0
  6  7  2  0  0  0  0
  7 13  1  0  0  0  0
  7  8  1  0  0  0  0
  8 14  1  1  0  0  0
  8  3  1  0  0  0  0
  9  8  1  0  0  0  0
  9 15  1  0  0  0  0
 10  9  2  0  0  0  0
 11  6  1  0  0  0  0
 11 10  1  0  0  0  0
 12  6  1  0  0  0  0
 16 10  1  0  0  0  0
 17 11  1  0  0  0  0
M  RAD  1  11   2
M  END
