Coordinates from ORCA-job C6H6+NH2--N2+-scan
 OpenBabel10171807273D

 17 16  0  0  0  0  0  0  0  0999 V2000
   -0.0089   -1.9650   -1.0697 N   0  0  0  0  0  0  0  0  0  0  0  0
   -0.9355   -2.1088   -0.4722 N   0  0  0  0  0  0  0  0  0  0  0  0
    1.0338   -1.8370   -1.8193 N   0  0  0  0  0  0  0  0  0  0  0  0
    0.9771   -2.2080   -2.8113 H   0  0  0  0  0  0  0  0  0  0  0  0
    1.8344   -1.3718   -1.4003 H   0  0  0  0  0  0  0  0  0  0  0  0
   -0.4581   -2.9230   -4.4615 C   0  0  0  0  0  0  0  0  0  0  0  0
    0.9346   -2.9501   -4.6380 C   0  0  0  0  0  0  0  0  0  0  0  0
    1.6193   -1.7720   -4.9756 C   0  0  0  0  0  0  0  0  0  0  0  0
    0.9162   -0.5747   -5.1219 C   0  0  0  0  0  0  0  0  0  0  0  0
   -0.4670   -0.5513   -4.9381 C   0  0  0  0  0  0  0  0  0  0  0  0
   -1.1546   -1.7221   -4.6082 C   0  0  0  0  0  0  0  0  0  0  0  0
   -0.9924   -3.8419   -4.2453 H   0  0  0  0  0  0  0  0  0  0  0  0
    1.4713   -3.8910   -4.5758 H   0  0  0  0  0  0  0  0  0  0  0  0
    2.6896   -1.8004   -5.1474 H   0  0  0  0  0  0  0  0  0  0  0  0
    1.4420    0.3313   -5.4000 H   0  0  0  0  0  0  0  0  0  0  0  0
   -1.0133    0.3756   -5.0707 H   0  0  0  0  0  0  0  0  0  0  0  0
   -2.2328   -1.7039   -4.4966 H   0  0  0  0  0  0  0  0  0  0  0  0
  1  2  1  0  0  0  0
  3  5  1  0  0  0  0
  3  1  1  0  0  0  0
  4  3  1  0  0  0  0
  6 12  1  0  0  0  0
  7 13  1  0  0  0  0
  7  6  2  0  0  0  0
  8  7  1  0  0  0  0
  9  8  2  0  0  0  0
  9 10  1  0  0  0  0
 10 11  2  0  0  0  0
 11 17  1  0  0  0  0
 11  6  1  0  0  0  0
 14  8  1  0  0  0  0
 15  9  1  0  0  0  0
 16 10  1  0  0  0  0
M  RAD  2   1   2   2   3
M  END
