Coordinates from ORCA-job C6H6+NH2--N2+-scan
 OpenBabel10171807273D

 17 16  0  0  1  0  0  0  0  0999 V2000
    3.5116    0.4335   -4.2890 N   0  0  0  0  0  0  0  0  0  0  0  0
    4.4565    0.9378   -4.0589 N   0  0  0  0  0  0  0  0  0  0  0  0
   -1.3371   -3.5951   -2.5134 N   0  0  0  0  0  0  0  0  0  0  0  0
   -2.1575   -3.6907   -3.1018 H   0  0  0  0  0  0  0  0  0  0  0  0
   -1.6286   -3.3767   -1.5680 H   0  0  0  0  0  0  0  0  0  0  0  0
    1.0429   -2.4132   -5.0687 C   0  0  0  0  0  0  0  0  0  0  0  0
    0.4832   -3.2062   -4.1011 C   0  0  0  0  0  0  0  0  0  0  0  0
   -0.3936   -2.6408   -3.0532 C   0  0  1  0  0  0  0  0  0  0  0  0
   -0.7846   -1.2210   -3.2475 C   0  0  0  0  0  0  0  0  0  0  0  0
   -0.2160   -0.4556   -4.2290 C   0  0  0  0  0  0  0  0  0  0  0  0
    0.6915   -1.0518   -5.1304 C   0  0  0  0  0  0  0  0  0  0  0  0
    1.7239   -2.8280   -5.8016 H   0  0  0  0  0  0  0  0  0  0  0  0
    0.6983   -4.2668   -4.0238 H   0  0  0  0  0  0  0  0  0  0  0  0
    0.4070   -2.4955   -2.2699 H   0  0  0  0  0  0  0  0  0  0  0  0
   -1.4959   -0.7983   -2.5445 H   0  0  0  0  0  0  0  0  0  0  0  0
   -0.4740    0.5905   -4.3411 H   0  0  0  0  0  0  0  0  0  0  0  0
    1.1281   -0.4363   -5.9099 H   0  0  0  0  0  0  0  0  0  0  0  0
  1  2  3  0  0  0  0
  3  5  1  0  0  0  0
  4  3  1  0  0  0  0
  6  7  2  0  0  0  0
  7 13  1  0  0  0  0
  7  8  1  0  0  0  0
  8  3  1  0  0  0  0
  8 14  1  1  0  0  0
  9  8  1  0  0  0  0
  9 15  1  0  0  0  0
 10  9  2  0  0  0  0
 11  6  1  0  0  0  0
 11 10  1  0  0  0  0
 12  6  1  0  0  0  0
 16 10  1  0  0  0  0
 17 11  1  0  0  0  0
M  RAD  1  11   2
M  END
