Coordinates from ORCA-job C6H6+NH2--N2+-scan
 OpenBabel10171807273D

 17 16  0  0  1  0  0  0  0  0999 V2000
    3.4609    0.3405   -4.1418 N   0  0  0  0  0  0  0  0  0  0  0  0
    4.4069    0.8402   -3.9063 N   0  0  0  0  0  0  0  0  0  0  0  0
   -1.2794   -3.5741   -2.4778 N   0  0  0  0  0  0  0  0  0  0  0  0
   -2.1131   -3.6920   -3.0430 H   0  0  0  0  0  0  0  0  0  0  0  0
   -1.5500   -3.3404   -1.5298 H   0  0  0  0  0  0  0  0  0  0  0  0
    1.0208   -2.4085   -5.1133 C   0  0  0  0  0  0  0  0  0  0  0  0
    0.4937   -3.1915   -4.1196 C   0  0  0  0  0  0  0  0  0  0  0  0
   -0.3634   -2.6182   -3.0599 C   0  0  1  0  0  0  0  0  0  0  0  0
   -0.7767   -1.2068   -3.2686 C   0  0  0  0  0  0  0  0  0  0  0  0
   -0.2402   -0.4515   -4.2755 C   0  0  0  0  0  0  0  0  0  0  0  0
    0.6533   -1.0521   -5.1877 C   0  0  0  0  0  0  0  0  0  0  0  0
    1.6887   -2.8280   -5.8554 H   0  0  0  0  0  0  0  0  0  0  0  0
    0.7231   -4.2481   -4.0302 H   0  0  0  0  0  0  0  0  0  0  0  0
    0.4562   -2.4481   -2.3014 H   0  0  0  0  0  0  0  0  0  0  0  0
   -1.4761   -0.7806   -2.5559 H   0  0  0  0  0  0  0  0  0  0  0  0
   -0.5130    0.5896   -4.3982 H   0  0  0  0  0  0  0  0  0  0  0  0
    1.0642   -0.4446   -5.9876 H   0  0  0  0  0  0  0  0  0  0  0  0
  1  2  3  0  0  0  0
  3  5  1  0  0  0  0
  4  3  1  0  0  0  0
  6  7  2  0  0  0  0
  7 13  1  0  0  0  0
  7  8  1  0  0  0  0
  8  3  1  0  0  0  0
  8 14  1  1  0  0  0
  9  8  1  0  0  0  0
  9 15  1  0  0  0  0
 10  9  2  0  0  0  0
 11  6  1  0  0  0  0
 11 10  1  0  0  0  0
 12  6  1  0  0  0  0
 16 10  1  0  0  0  0
 17 11  1  0  0  0  0
M  RAD  1  11   2
M  END
