Coordinates from ORCA-job C6H6+NH2--N2+-scan
 OpenBabel10171807273D

 17 16  0  0  1  0  0  0  0  0999 V2000
    1.0901   -1.9780   -0.4384 N   0  0  0  0  0  0  0  0  0  0  0  0
    1.5487   -2.8648    0.0263 N   0  0  0  0  0  0  0  0  0  0  0  0
    0.9619   -1.5580   -2.3296 N   0  0  0  0  0  0  0  0  0  0  0  0
   -0.0445   -1.4485   -2.1884 H   0  0  0  0  0  0  0  0  0  0  0  0
    1.3684   -0.6508   -2.0938 H   0  0  0  0  0  0  0  0  0  0  0  0
   -0.4659   -3.1056   -5.1281 C   0  0  0  0  0  0  0  0  0  0  0  0
    0.6171   -3.0333   -4.3069 C   0  0  0  0  0  0  0  0  0  0  0  0
    1.1842   -1.7311   -3.8997 C   0  0  1  0  0  0  0  0  0  0  0  0
    0.5654   -0.5488   -4.5073 C   0  0  0  0  0  0  0  0  0  0  0  0
   -0.5709   -0.6420   -5.2823 C   0  0  0  0  0  0  0  0  0  0  0  0
   -1.0690   -1.9102   -5.6026 C   0  0  0  0  0  0  0  0  0  0  0  0
   -0.8808   -4.0631   -5.4180 H   0  0  0  0  0  0  0  0  0  0  0  0
    1.0794   -3.9290   -3.9062 H   0  0  0  0  0  0  0  0  0  0  0  0
    2.2752   -1.7316   -3.9904 H   0  0  0  0  0  0  0  0  0  0  0  0
    1.0032    0.4201   -4.2881 H   0  0  0  0  0  0  0  0  0  0  0  0
   -1.0578    0.2466   -5.6645 H   0  0  0  0  0  0  0  0  0  0  0  0
   -1.9488   -1.9860   -6.2340 H   0  0  0  0  0  0  0  0  0  0  0  0
  1  2  3  0  0  0  0
  3  4  1  0  0  0  0
  3  5  1  0  0  0  0
  6  7  2  0  0  0  0
  7 13  1  0  0  0  0
  7  8  1  0  0  0  0
  8 14  1  6  0  0  0
  8  3  1  0  0  0  0
  9 15  1  0  0  0  0
  9  8  1  0  0  0  0
 10  9  2  0  0  0  0
 11 10  1  0  0  0  0
 11  6  1  0  0  0  0
 12  6  1  0  0  0  0
 16 10  1  0  0  0  0
 17 11  1  0  0  0  0
M  RAD  1  11   2
M  END
