Coordinates from ORCA-job C6H6+NH2--N2+-scan
 OpenBabel10171807273D

 17 16  0  0  1  0  0  0  0  0999 V2000
    3.4184    0.1674   -3.5762 N   0  0  0  0  0  0  0  0  0  0  0  0
    4.3633    0.6937   -3.4018 N   0  0  0  0  0  0  0  0  0  0  0  0
   -1.1071   -3.4998   -2.3710 N   0  0  0  0  0  0  0  0  0  0  0  0
   -1.9878   -3.6616   -2.8474 H   0  0  0  0  0  0  0  0  0  0  0  0
   -1.2937   -3.2157   -1.4163 H   0  0  0  0  0  0  0  0  0  0  0  0
    0.9099   -2.4355   -5.2698 C   0  0  0  0  0  0  0  0  0  0  0  0
    0.4968   -3.1723   -4.1899 C   0  0  0  0  0  0  0  0  0  0  0  0
   -0.2747   -2.5584   -3.0891 C   0  0  1  0  0  0  0  0  0  0  0  0
   -0.7407   -1.1702   -3.3328 C   0  0  0  0  0  0  0  0  0  0  0  0
   -0.3192   -0.4616   -4.4254 C   0  0  0  0  0  0  0  0  0  0  0  0
    0.4998   -1.0945   -5.3838 C   0  0  0  0  0  0  0  0  0  0  0  0
    1.5167   -2.8829   -6.0474 H   0  0  0  0  0  0  0  0  0  0  0  0
    0.7611   -4.2171   -4.0648 H   0  0  0  0  0  0  0  0  0  0  0  0
    0.6089   -2.3263   -2.4236 H   0  0  0  0  0  0  0  0  0  0  0  0
   -1.3812   -0.7186   -2.5813 H   0  0  0  0  0  0  0  0  0  0  0  0
   -0.6298    0.5649   -4.5778 H   0  0  0  0  0  0  0  0  0  0  0  0
    0.8152   -0.5258   -6.2534 H   0  0  0  0  0  0  0  0  0  0  0  0
  1  2  3  0  0  0  0
  3  5  1  0  0  0  0
  4  3  1  0  0  0  0
  6  7  2  0  0  0  0
  7 13  1  0  0  0  0
  7  8  1  0  0  0  0
  8 14  1  1  0  0  0
  8  3  1  0  0  0  0
  9  8  1  0  0  0  0
  9 15  1  0  0  0  0
 10  9  2  0  0  0  0
 11  6  1  0  0  0  0
 11 10  1  0  0  0  0
 12  6  1  0  0  0  0
 16 10  1  0  0  0  0
 17 11  1  0  0  0  0
M  RAD  1  11   2
M  END
