Coordinates from ORCA-job C6H6+NH2--N2+-scan
 OpenBabel10171807273D

 17 16  0  0  1  0  0  0  0  0999 V2000
    3.6573    0.6633   -4.6034 N   0  0  0  0  0  0  0  0  0  0  0  0
    4.5982    1.2069   -4.4656 N   0  0  0  0  0  0  0  0  0  0  0  0
   -1.4734   -3.6422   -2.6036 N   0  0  0  0  0  0  0  0  0  0  0  0
   -2.2592   -3.6824   -3.2435 H   0  0  0  0  0  0  0  0  0  0  0  0
   -1.8155   -3.4547   -1.6685 H   0  0  0  0  0  0  0  0  0  0  0  0
    1.0905   -2.4309   -4.9581 C   0  0  0  0  0  0  0  0  0  0  0  0
    0.4529   -3.2448   -4.0585 C   0  0  0  0  0  0  0  0  0  0  0  0
   -0.4698   -2.6963   -3.0415 C   0  0  1  0  0  0  0  0  0  0  0  0
   -0.8074   -1.2583   -3.1975 C   0  0  0  0  0  0  0  0  0  0  0  0
   -0.1615   -0.4720   -4.1124 C   0  0  0  0  0  0  0  0  0  0  0  0
    0.7788   -1.0585   -4.9862 C   0  0  0  0  0  0  0  0  0  0  0  0
    1.8015   -2.8371   -5.6670 H   0  0  0  0  0  0  0  0  0  0  0  0
    0.6340   -4.3137   -4.0138 H   0  0  0  0  0  0  0  0  0  0  0  0
    0.2833   -2.6105   -2.2045 H   0  0  0  0  0  0  0  0  0  0  0  0
   -1.5462   -0.8421   -2.5194 H   0  0  0  0  0  0  0  0  0  0  0  0
   -0.3845    0.5849   -4.1955 H   0  0  0  0  0  0  0  0  0  0  0  0
    1.2768   -0.4260   -5.7131 H   0  0  0  0  0  0  0  0  0  0  0  0
  1  2  3  0  0  0  0
  3  5  1  0  0  0  0
  4  3  1  0  0  0  0
  6  7  2  0  0  0  0
  7 13  1  0  0  0  0
  7  8  1  0  0  0  0
  8  3  1  0  0  0  0
  8 14  1  1  0  0  0
  9  8  1  0  0  0  0
  9 15  1  0  0  0  0
 10  9  2  0  0  0  0
 11  6  1  0  0  0  0
 11 10  1  0  0  0  0
 12  6  1  0  0  0  0
 16 10  1  0  0  0  0
 17 11  1  0  0  0  0
M  RAD  1  11   2
M  END
