Coordinates from ORCA-job C6H6+NH2--N2+-scan
 OpenBabel10171807273D

 17 16  0  0  1  0  0  0  0  0999 V2000
    3.4449    0.3004   -4.0662 N   0  0  0  0  0  0  0  0  0  0  0  0
    4.3917    0.7946   -3.8223 N   0  0  0  0  0  0  0  0  0  0  0  0
   -1.2497   -3.5633   -2.4595 N   0  0  0  0  0  0  0  0  0  0  0  0
   -2.0901   -3.6923   -3.0123 H   0  0  0  0  0  0  0  0  0  0  0  0
   -1.5096   -3.3211   -1.5106 H   0  0  0  0  0  0  0  0  0  0  0  0
    1.0072   -2.4074   -5.1367 C   0  0  0  0  0  0  0  0  0  0  0  0
    0.4980   -3.1846   -4.1292 C   0  0  0  0  0  0  0  0  0  0  0  0
   -0.3484   -2.6070   -3.0636 C   0  0  1  0  0  0  0  0  0  0  0  0
   -0.7733   -1.2003   -3.2793 C   0  0  0  0  0  0  0  0  0  0  0  0
   -0.2546   -0.4507   -4.2998 C   0  0  0  0  0  0  0  0  0  0  0  0
    0.6305   -1.0540   -5.2182 C   0  0  0  0  0  0  0  0  0  0  0  0
    1.6679   -2.8298   -5.8837 H   0  0  0  0  0  0  0  0  0  0  0  0
    0.7353   -4.2390   -4.0334 H   0  0  0  0  0  0  0  0  0  0  0  0
    0.4808   -2.4241   -2.3185 H   0  0  0  0  0  0  0  0  0  0  0  0
   -1.4660   -0.7718   -2.5614 H   0  0  0  0  0  0  0  0  0  0  0  0
   -0.5356    0.5876   -4.4280 H   0  0  0  0  0  0  0  0  0  0  0  0
    1.0267   -0.4514   -6.0292 H   0  0  0  0  0  0  0  0  0  0  0  0
  1  2  3  0  0  0  0
  3  5  1  0  0  0  0
  4  3  1  0  0  0  0
  6  7  2  0  0  0  0
  7 13  1  0  0  0  0
  7  8  1  0  0  0  0
  8  3  1  0  0  0  0
  8 14  1  1  0  0  0
  9  8  1  0  0  0  0
  9 15  1  0  0  0  0
 10  9  2  0  0  0  0
 11  6  1  0  0  0  0
 11 10  1  0  0  0  0
 12  6  1  0  0  0  0
 16 10  1  0  0  0  0
 17 11  1  0  0  0  0
M  RAD  1  11   2
M  END
