Coordinates from ORCA-job C6H6+NH2--N2+-scan
 OpenBabel10171807273D

 17 16  0  0  1  0  0  0  0  0999 V2000
    1.7167   -1.3532    0.7487 N   0  0  0  0  0  0  0  0  0  0  0  0
    1.9738   -1.3866    1.8129 N   0  0  0  0  0  0  0  0  0  0  0  0
    1.2129   -2.1918   -2.5431 N   0  0  0  0  0  0  0  0  0  0  0  0
    0.4199   -2.1471   -1.9130 H   0  0  0  0  0  0  0  0  0  0  0  0
    1.9284   -1.5621   -2.2005 H   0  0  0  0  0  0  0  0  0  0  0  0
   -0.5673   -3.0102   -5.6676 C   0  0  0  0  0  0  0  0  0  0  0  0
    0.2955   -3.1297   -4.6079 C   0  0  0  0  0  0  0  0  0  0  0  0
    0.8333   -1.9409   -3.9143 C   0  0  1  0  0  0  0  0  0  0  0  0
    0.2261   -0.6442   -4.3072 C   0  0  0  0  0  0  0  0  0  0  0  0
   -0.6408   -0.5562   -5.3637 C   0  0  0  0  0  0  0  0  0  0  0  0
   -1.0337   -1.7342   -6.0332 C   0  0  0  0  0  0  0  0  0  0  0  0
   -0.9182   -3.8864   -6.1990 H   0  0  0  0  0  0  0  0  0  0  0  0
    0.6643   -4.0910   -4.2657 H   0  0  0  0  0  0  0  0  0  0  0  0
    1.7918   -1.8661   -4.5099 H   0  0  0  0  0  0  0  0  0  0  0  0
    0.5393    0.2398   -3.7603 H   0  0  0  0  0  0  0  0  0  0  0  0
   -1.0520    0.3983   -5.6696 H   0  0  0  0  0  0  0  0  0  0  0  0
   -1.7343   -1.6527   -6.8588 H   0  0  0  0  0  0  0  0  0  0  0  0
  1  2  3  0  0  0  0
  3  5  1  0  0  0  0
  3  4  1  0  0  0  0
  6  7  2  0  0  0  0
  7 13  1  0  0  0  0
  7  8  1  0  0  0  0
  8 14  1  6  0  0  0
  8  3  1  0  0  0  0
  9  8  1  0  0  0  0
  9 15  1  0  0  0  0
 10  9  2  0  0  0  0
 11  6  1  0  0  0  0
 11 10  1  0  0  0  0
 12  6  1  0  0  0  0
 16 10  1  0  0  0  0
 17 11  1  0  0  0  0
M  RAD  1  11   2
M  END
