Coordinates from ORCA-job C6H6+NH2--N2+-scan
 OpenBabel10171807273D

 17 16  0  0  0  0  0  0  0  0999 V2000
    0.0683   -1.8333   -0.7679 N   0  0  0  0  0  0  0  0  0  0  0  0
   -0.4134   -1.9501    0.2157 N   0  0  0  0  0  0  0  0  0  0  0  0
    0.9833   -1.8735   -1.9569 N   0  0  0  0  0  0  0  0  0  0  0  0
    0.4583   -2.4273   -2.6731 H   0  0  0  0  0  0  0  0  0  0  0  0
    1.0084   -0.8925   -2.2706 H   0  0  0  0  0  0  0  0  0  0  0  0
   -0.4241   -2.9844   -4.6564 C   0  0  0  0  0  0  0  0  0  0  0  0
    0.9710   -3.0211   -4.7836 C   0  0  0  0  0  0  0  0  0  0  0  0
    1.6922   -1.8282   -4.9208 C   0  0  0  0  0  0  0  0  0  0  0  0
    1.0166   -0.6034   -4.9426 C   0  0  0  0  0  0  0  0  0  0  0  0
   -0.3763   -0.5681   -4.8220 C   0  0  0  0  0  0  0  0  0  0  0  0
   -1.0962   -1.7563   -4.6775 C   0  0  0  0  0  0  0  0  0  0  0  0
   -0.9843   -3.9104   -4.5841 H   0  0  0  0  0  0  0  0  0  0  0  0
    1.4895   -3.9732   -4.8009 H   0  0  0  0  0  0  0  0  0  0  0  0
    2.7687   -1.8585   -5.0438 H   0  0  0  0  0  0  0  0  0  0  0  0
    1.5718    0.3169   -5.0874 H   0  0  0  0  0  0  0  0  0  0  0  0
   -0.9001    0.3799   -4.8693 H   0  0  0  0  0  0  0  0  0  0  0  0
   -2.1780   -1.7308   -4.6108 H   0  0  0  0  0  0  0  0  0  0  0  0
  1  2  1  0  0  0  0
  3  1  1  0  0  0  0
  4  3  1  0  0  0  0
  5  3  1  0  0  0  0
  6 12  1  0  0  0  0
  7  6  2  0  0  0  0
  8  7  1  0  0  0  0
  9  8  2  0  0  0  0
  9 10  1  0  0  0  0
 10 11  2  0  0  0  0
 11  6  1  0  0  0  0
 11 17  1  0  0  0  0
 13  7  1  0  0  0  0
 14  8  1  0  0  0  0
 15  9  1  0  0  0  0
 16 10  1  0  0  0  0
M  RAD  2   1   2   2   3
M  END
