Coordinates from ORCA-job C6H6+NH2--N2+-scan
 OpenBabel10171807273D

 17 16  0  0  1  0  0  0  0  0999 V2000
    2.9453   -0.9355   -1.7544 N   0  0  0  0  0  0  0  0  0  0  0  0
    3.8531   -0.6972   -1.1899 N   0  0  0  0  0  0  0  0  0  0  0  0
   -0.1292   -2.9526   -2.1123 N   0  0  0  0  0  0  0  0  0  0  0  0
   -1.0457   -3.3845   -2.1536 H   0  0  0  0  0  0  0  0  0  0  0  0
   -0.0475   -2.4243   -1.2516 H   0  0  0  0  0  0  0  0  0  0  0  0
    0.5295   -2.4963   -5.7198 C   0  0  0  0  0  0  0  0  0  0  0  0
    0.6624   -2.9448   -4.4289 C   0  0  0  0  0  0  0  0  0  0  0  0
    0.1510   -2.1630   -3.2894 C   0  0  1  0  0  0  0  0  0  0  0  0
   -0.6829   -0.9907   -3.6394 C   0  0  0  0  0  0  0  0  0  0  0  0
   -0.8029   -0.5680   -4.9376 C   0  0  0  0  0  0  0  0  0  0  0  0
   -0.2030   -1.3221   -5.9669 C   0  0  0  0  0  0  0  0  0  0  0  0
    0.9522   -3.0540   -6.5464 H   0  0  0  0  0  0  0  0  0  0  0  0
    1.1967   -3.8568   -4.1847 H   0  0  0  0  0  0  0  0  0  0  0  0
    1.1204   -1.6118   -3.0760 H   0  0  0  0  0  0  0  0  0  0  0  0
   -1.1442   -0.4417   -2.8243 H   0  0  0  0  0  0  0  0  0  0  0  0
   -1.3790    0.3157   -5.1841 H   0  0  0  0  0  0  0  0  0  0  0  0
   -0.3203   -0.9866   -6.9930 H   0  0  0  0  0  0  0  0  0  0  0  0
  1  2  3  0  0  0  0
  3  5  1  0  0  0  0
  4  3  1  0  0  0  0
  6  7  2  0  0  0  0
  7 13  1  0  0  0  0
  7  8  1  0  0  0  0
  8 14  1  1  0  0  0
  8  3  1  0  0  0  0
  9  8  1  0  0  0  0
  9 15  1  0  0  0  0
 10  9  2  0  0  0  0
 11  6  1  0  0  0  0
 11 10  1  0  0  0  0
 12  6  1  0  0  0  0
 16 10  1  0  0  0  0
 17 11  1  0  0  0  0
M  RAD  1  11   2
M  END
