Coordinates from ORCA-job C6H6+NH2--N2+-scan
 OpenBabel10171807273D

 17 16  0  0  1  0  0  0  0  0999 V2000
    1.7124   -1.3680    0.7287 N   0  0  0  0  0  0  0  0  0  0  0  0
    1.9714   -1.4108    1.7922 N   0  0  0  0  0  0  0  0  0  0  0  0
    1.2122   -2.1818   -2.5385 N   0  0  0  0  0  0  0  0  0  0  0  0
    0.4190   -2.1346   -1.9089 H   0  0  0  0  0  0  0  0  0  0  0  0
    1.9277   -1.5511   -2.1977 H   0  0  0  0  0  0  0  0  0  0  0  0
   -0.5664   -3.0119   -5.6608 C   0  0  0  0  0  0  0  0  0  0  0  0
    0.2958   -3.1274   -4.6003 C   0  0  0  0  0  0  0  0  0  0  0  0
    0.8334   -1.9360   -3.9108 C   0  0  1  0  0  0  0  0  0  0  0  0
    0.2267   -0.6408   -4.3091 C   0  0  0  0  0  0  0  0  0  0  0  0
   -0.6397   -0.5567   -5.3663 C   0  0  0  0  0  0  0  0  0  0  0  0
   -1.0324   -1.7372   -6.0315 C   0  0  0  0  0  0  0  0  0  0  0  0
   -0.9171   -3.8900   -6.1891 H   0  0  0  0  0  0  0  0  0  0  0  0
    0.6643   -4.0875   -4.2542 H   0  0  0  0  0  0  0  0  0  0  0  0
    1.7922   -1.8637   -4.5062 H   0  0  0  0  0  0  0  0  0  0  0  0
    0.5397    0.2453   -3.7654 H   0  0  0  0  0  0  0  0  0  0  0  0
   -1.0506    0.3967   -5.6761 H   0  0  0  0  0  0  0  0  0  0  0  0
   -1.7326   -1.6587   -6.8579 H   0  0  0  0  0  0  0  0  0  0  0  0
  1  2  3  0  0  0  0
  3  5  1  0  0  0  0
  3  4  1  0  0  0  0
  6  7  2  0  0  0  0
  7 13  1  0  0  0  0
  7  8  1  0  0  0  0
  8 14  1  6  0  0  0
  8  3  1  0  0  0  0
  9  8  1  0  0  0  0
  9 15  1  0  0  0  0
 10  9  2  0  0  0  0
 11  6  1  0  0  0  0
 11 10  1  0  0  0  0
 12  6  1  0  0  0  0
 16 10  1  0  0  0  0
 17 11  1  0  0  0  0
M  RAD  1  11   2
M  END
