Coordinates from ORCA-job C6H6+NH2--N2+-scan
 OpenBabel10171807273D

 17 16  0  0  1  0  0  0  0  0999 V2000
    3.1177   -0.5217   -2.3964 N   0  0  0  0  0  0  0  0  0  0  0  0
    4.0527   -0.0168   -2.1309 N   0  0  0  0  0  0  0  0  0  0  0  0
   -0.5426   -3.2070   -2.1597 N   0  0  0  0  0  0  0  0  0  0  0  0
   -1.4775   -3.5308   -2.3818 H   0  0  0  0  0  0  0  0  0  0  0  0
   -0.5472   -2.7804   -1.2407 H   0  0  0  0  0  0  0  0  0  0  0  0
    0.6664   -2.4783   -5.5716 C   0  0  0  0  0  0  0  0  0  0  0  0
    0.5762   -3.0586   -4.3310 C   0  0  0  0  0  0  0  0  0  0  0  0
   -0.0156   -2.3383   -3.1878 C   0  0  1  0  0  0  0  0  0  0  0  0
   -0.6817   -1.0556   -3.5154 C   0  0  0  0  0  0  0  0  0  0  0  0
   -0.5814   -0.5028   -4.7649 C   0  0  0  0  0  0  0  0  0  0  0  0
    0.0855   -1.2154   -5.7829 C   0  0  0  0  0  0  0  0  0  0  0  0
    1.1473   -2.9965   -6.3922 H   0  0  0  0  0  0  0  0  0  0  0  0
    0.9847   -4.0411   -4.1195 H   0  0  0  0  0  0  0  0  0  0  0  0
    0.9632   -1.9110   -2.8033 H   0  0  0  0  0  0  0  0  0  0  0  0
   -1.2000   -0.5409   -2.7122 H   0  0  0  0  0  0  0  0  0  0  0  0
   -1.0351    0.4553   -4.9880 H   0  0  0  0  0  0  0  0  0  0  0  0
    0.1431   -0.7742   -6.7735 H   0  0  0  0  0  0  0  0  0  0  0  0
  1  2  3  0  0  0  0
  3  5  1  0  0  0  0
  4  3  1  0  0  0  0
  6  7  2  0  0  0  0
  7 13  1  0  0  0  0
  7  8  1  0  0  0  0
  8 14  1  1  0  0  0
  8  3  1  0  0  0  0
  9  8  1  0  0  0  0
  9 15  1  0  0  0  0
 10  9  2  0  0  0  0
 11  6  1  0  0  0  0
 11 10  1  0  0  0  0
 12  6  1  0  0  0  0
 16 10  1  0  0  0  0
 17 11  1  0  0  0  0
M  RAD  1  11   2
M  END
