Coordinates from ORCA-job C6H6+NH2--N2+-scan
 OpenBabel10171807273D

 17 16  0  0  1  0  0  0  0  0999 V2000
    3.1771   -0.3788   -2.5394 N   0  0  0  0  0  0  0  0  0  0  0  0
    4.1002    0.1693   -2.3222 N   0  0  0  0  0  0  0  0  0  0  0  0
   -0.6386   -3.2631   -2.1841 N   0  0  0  0  0  0  0  0  0  0  0  0
   -1.5758   -3.5505   -2.4437 H   0  0  0  0  0  0  0  0  0  0  0  0
   -0.6588   -2.8617   -1.2540 H   0  0  0  0  0  0  0  0  0  0  0  0
    0.6868   -2.4846   -5.5401 C   0  0  0  0  0  0  0  0  0  0  0  0
    0.5478   -3.0922   -4.3175 C   0  0  0  0  0  0  0  0  0  0  0  0
   -0.0535   -2.3832   -3.1711 C   0  0  1  0  0  0  0  0  0  0  0  0
   -0.6730   -1.0729   -3.4833 C   0  0  0  0  0  0  0  0  0  0  0  0
   -0.5252   -0.4935   -4.7157 C   0  0  0  0  0  0  0  0  0  0  0  0
    0.1475   -1.2004   -5.7340 C   0  0  0  0  0  0  0  0  0  0  0  0
    1.1739   -2.9961   -6.3612 H   0  0  0  0  0  0  0  0  0  0  0  0
    0.9218   -4.0914   -4.1207 H   0  0  0  0  0  0  0  0  0  0  0  0
    0.9249   -1.9976   -2.7467 H   0  0  0  0  0  0  0  0  0  0  0  0
   -1.1967   -0.5629   -2.6806 H   0  0  0  0  0  0  0  0  0  0  0  0
   -0.9455    0.4825   -4.9263 H   0  0  0  0  0  0  0  0  0  0  0  0
    0.2431   -0.7372   -6.7115 H   0  0  0  0  0  0  0  0  0  0  0  0
  1  2  3  0  0  0  0
  3  5  1  0  0  0  0
  4  3  1  0  0  0  0
  6  7  2  0  0  0  0
  7 13  1  0  0  0  0
  7  8  1  0  0  0  0
  8 14  1  1  0  0  0
  8  3  1  0  0  0  0
  9  8  1  0  0  0  0
  9 15  1  0  0  0  0
 10  9  2  0  0  0  0
 11  6  1  0  0  0  0
 11 10  1  0  0  0  0
 12  6  1  0  0  0  0
 16 10  1  0  0  0  0
 17 11  1  0  0  0  0
M  RAD  1  11   2
M  END
