Coordinates from ORCA-job C6H6+NH2--N2+-scan
 OpenBabel10171807273D

 17 16  0  0  1  0  0  0  0  0999 V2000
    3.5710    0.5161   -4.3920 N   0  0  0  0  0  0  0  0  0  0  0  0
    4.5152    1.0345   -4.1927 N   0  0  0  0  0  0  0  0  0  0  0  0
   -1.3847   -3.6122   -2.5439 N   0  0  0  0  0  0  0  0  0  0  0  0
   -2.1943   -3.6867   -3.1503 H   0  0  0  0  0  0  0  0  0  0  0  0
   -1.6935   -3.4054   -1.6013 H   0  0  0  0  0  0  0  0  0  0  0  0
    1.0579   -2.4197   -5.0324 C   0  0  0  0  0  0  0  0  0  0  0  0
    0.4733   -3.2197   -4.0858 C   0  0  0  0  0  0  0  0  0  0  0  0
   -0.4190   -2.6601   -3.0479 C   0  0  1  0  0  0  0  0  0  0  0  0
   -0.7921   -1.2339   -3.2297 C   0  0  0  0  0  0  0  0  0  0  0  0
   -0.1994   -0.4616   -4.1910 C   0  0  0  0  0  0  0  0  0  0  0  0
    0.7176   -1.0550   -5.0846 C   0  0  0  0  0  0  0  0  0  0  0  0
    1.7484   -2.8316   -5.7581 H   0  0  0  0  0  0  0  0  0  0  0  0
    0.6774   -4.2832   -4.0189 H   0  0  0  0  0  0  0  0  0  0  0  0
    0.3651   -2.5359   -2.2449 H   0  0  0  0  0  0  0  0  0  0  0  0
   -1.5119   -0.8133   -2.5341 H   0  0  0  0  0  0  0  0  0  0  0  0
   -0.4464    0.5880   -4.2943 H   0  0  0  0  0  0  0  0  0  0  0  0
    1.1713   -0.4344   -5.8500 H   0  0  0  0  0  0  0  0  0  0  0  0
  1  2  3  0  0  0  0
  3  5  1  0  0  0  0
  4  3  1  0  0  0  0
  6  7  2  0  0  0  0
  7 13  1  0  0  0  0
  7  8  1  0  0  0  0
  8  3  1  0  0  0  0
  8 14  1  1  0  0  0
  9  8  1  0  0  0  0
  9 15  1  0  0  0  0
 10  9  2  0  0  0  0
 11  6  1  0  0  0  0
 11 10  1  0  0  0  0
 12  6  1  0  0  0  0
 16 10  1  0  0  0  0
 17 11  1  0  0  0  0
M  RAD  1  11   2
M  END
