Coordinates from ORCA-job C6H6+NH2--N2+-scan
 OpenBabel10171807273D

 17 16  0  0  1  0  0  0  0  0999 V2000
    1.6361   -1.8273    0.2239 N   0  0  0  0  0  0  0  0  0  0  0  0
    2.0231   -2.5734    0.9268 N   0  0  0  0  0  0  0  0  0  0  0  0
    1.1064   -1.7508   -2.3641 N   0  0  0  0  0  0  0  0  0  0  0  0
    0.2772   -1.5808   -1.8069 H   0  0  0  0  0  0  0  0  0  0  0  0
    1.8096   -1.0731   -2.0971 H   0  0  0  0  0  0  0  0  0  0  0  0
   -0.5191   -3.0745   -5.3985 C   0  0  0  0  0  0  0  0  0  0  0  0
    0.2945   -3.0174   -4.2962 C   0  0  0  0  0  0  0  0  0  0  0  0
    0.8114   -1.7309   -3.7845 C   0  0  1  0  0  0  0  0  0  0  0  0
    0.2368   -0.5170   -4.4163 C   0  0  0  0  0  0  0  0  0  0  0  0
   -0.5858   -0.6035   -5.5078 C   0  0  0  0  0  0  0  0  0  0  0  0
   -0.9590   -1.8755   -5.9900 C   0  0  0  0  0  0  0  0  0  0  0  0
   -0.8539   -4.0259   -5.7931 H   0  0  0  0  0  0  0  0  0  0  0  0
    0.6368   -3.9096   -3.7823 H   0  0  0  0  0  0  0  0  0  0  0  0
    1.8051   -1.7563   -4.3211 H   0  0  0  0  0  0  0  0  0  0  0  0
    0.5357    0.4455   -4.0124 H   0  0  0  0  0  0  0  0  0  0  0  0
   -0.9755    0.2877   -5.9850 H   0  0  0  0  0  0  0  0  0  0  0  0
   -1.6233   -1.9312   -6.8474 H   0  0  0  0  0  0  0  0  0  0  0  0
  1  2  3  0  0  0  0
  3  5  1  0  0  0  0
  3  4  1  0  0  0  0
  6  7  2  0  0  0  0
  7  8  1  0  0  0  0
  7 13  1  0  0  0  0
  8 14  1  6  0  0  0
  8  3  1  0  0  0  0
  9 15  1  0  0  0  0
  9  8  1  0  0  0  0
 10  9  2  0  0  0  0
 11 10  1  0  0  0  0
 11  6  1  0  0  0  0
 12  6  1  0  0  0  0
 16 10  1  0  0  0  0
 17 11  1  0  0  0  0
M  RAD  1  11   2
M  END
