Coordinates from ORCA-job C6H6+NH2--N2+-scan
 OpenBabel10171807273D

 17 16  0  0  1  0  0  0  0  0999 V2000
    1.6790   -1.6674    0.4648 N   0  0  0  0  0  0  0  0  0  0  0  0
    2.0361   -2.1294    1.3915 N   0  0  0  0  0  0  0  0  0  0  0  0
    1.1518   -1.9129   -2.4409 N   0  0  0  0  0  0  0  0  0  0  0  0
    0.3422   -1.7971   -1.8427 H   0  0  0  0  0  0  0  0  0  0  0  0
    1.8635   -1.2569   -2.1448 H   0  0  0  0  0  0  0  0  0  0  0  0
   -0.5434   -3.0526   -5.5113 C   0  0  0  0  0  0  0  0  0  0  0  0
    0.2903   -3.0616   -4.4223 C   0  0  0  0  0  0  0  0  0  0  0  0
    0.8157   -1.8076   -3.8430 C   0  0  1  0  0  0  0  0  0  0  0  0
    0.2268   -0.5583   -4.3877 C   0  0  0  0  0  0  0  0  0  0  0  0
   -0.6124   -0.5800   -5.4698 C   0  0  0  0  0  0  0  0  0  0  0  0
   -0.9936   -1.8210   -6.0216 C   0  0  0  0  0  0  0  0  0  0  0  0
   -0.8848   -3.9791   -5.9567 H   0  0  0  0  0  0  0  0  0  0  0  0
    0.6441   -3.9824   -3.9706 H   0  0  0  0  0  0  0  0  0  0  0  0
    1.7923   -1.7981   -4.4125 H   0  0  0  0  0  0  0  0  0  0  0  0
    0.5307    0.3779   -3.9295 H   0  0  0  0  0  0  0  0  0  0  0  0
   -1.0105    0.3379   -5.8854 H   0  0  0  0  0  0  0  0  0  0  0  0
   -1.6721   -1.8255   -6.8695 H   0  0  0  0  0  0  0  0  0  0  0  0
  1  2  3  0  0  0  0
  3  5  1  0  0  0  0
  3  4  1  0  0  0  0
  6  7  2  0  0  0  0
  7 13  1  0  0  0  0
  7  8  1  0  0  0  0
  8 14  1  6  0  0  0
  8  3  1  0  0  0  0
  9 15  1  0  0  0  0
  9  8  1  0  0  0  0
 10  9  2  0  0  0  0
 11  6  1  0  0  0  0
 11 10  1  0  0  0  0
 12  6  1  0  0  0  0
 16 10  1  0  0  0  0
 17 11  1  0  0  0  0
M  RAD  1  11   2
M  END
