Coordinates from ORCA-job C6H6+NH2--N2+-scan
 OpenBabel10171807273D

 17 16  0  0  1  0  0  0  0  0999 V2000
    1.6505   -1.7994    0.2892 N   0  0  0  0  0  0  0  0  0  0  0  0
    2.0383   -2.5080    1.0292 N   0  0  0  0  0  0  0  0  0  0  0  0
    1.1126   -1.7762   -2.3799 N   0  0  0  0  0  0  0  0  0  0  0  0
    0.2876   -1.6169   -1.8135 H   0  0  0  0  0  0  0  0  0  0  0  0
    1.8185   -1.1036   -2.1078 H   0  0  0  0  0  0  0  0  0  0  0  0
   -0.5242   -3.0708   -5.4206 C   0  0  0  0  0  0  0  0  0  0  0  0
    0.2916   -3.0244   -4.3194 C   0  0  0  0  0  0  0  0  0  0  0  0
    0.8095   -1.7427   -3.7965 C   0  0  1  0  0  0  0  0  0  0  0  0
    0.2327   -0.5227   -4.4149 C   0  0  0  0  0  0  0  0  0  0  0  0
   -0.5911   -0.5990   -5.5063 C   0  0  0  0  0  0  0  0  0  0  0  0
   -0.9651   -1.8664   -6.0000 C   0  0  0  0  0  0  0  0  0  0  0  0
   -0.8598   -4.0185   -5.8236 H   0  0  0  0  0  0  0  0  0  0  0  0
    0.6355   -3.9213   -3.8150 H   0  0  0  0  0  0  0  0  0  0  0  0
    1.7998   -1.7628   -4.3403 H   0  0  0  0  0  0  0  0  0  0  0  0
    0.5317    0.4357   -4.0017 H   0  0  0  0  0  0  0  0  0  0  0  0
   -0.9815    0.2967   -5.9743 H   0  0  0  0  0  0  0  0  0  0  0  0
   -1.6307   -1.9139   -6.8568 H   0  0  0  0  0  0  0  0  0  0  0  0
  1  2  3  0  0  0  0
  3  5  1  0  0  0  0
  3  4  1  0  0  0  0
  6  7  2  0  0  0  0
  7 13  1  0  0  0  0
  7  8  1  0  0  0  0
  8 14  1  6  0  0  0
  8  3  1  0  0  0  0
  9 15  1  0  0  0  0
  9  8  1  0  0  0  0
 10  9  2  0  0  0  0
 11 10  1  0  0  0  0
 11  6  1  0  0  0  0
 12  6  1  0  0  0  0
 16 10  1  0  0  0  0
 17 11  1  0  0  0  0
M  RAD  1  11   2
M  END
