Coordinates from ORCA-job C6H6+NH2--N2+-scan
 OpenBabel10171807273D

 17 16  0  0  1  0  0  0  0  0999 V2000
    3.1336   -0.4747   -2.4449 N   0  0  0  0  0  0  0  0  0  0  0  0
    4.0636    0.0480   -2.1970 N   0  0  0  0  0  0  0  0  0  0  0  0
   -0.5748   -3.2263   -2.1674 N   0  0  0  0  0  0  0  0  0  0  0  0
   -1.5110   -3.5373   -2.4022 H   0  0  0  0  0  0  0  0  0  0  0  0
   -0.5840   -2.8084   -1.2445 H   0  0  0  0  0  0  0  0  0  0  0  0
    0.6731   -2.4807   -5.5613 C   0  0  0  0  0  0  0  0  0  0  0  0
    0.5663   -3.0705   -4.3265 C   0  0  0  0  0  0  0  0  0  0  0  0
   -0.0277   -2.3538   -3.1819 C   0  0  1  0  0  0  0  0  0  0  0  0
   -0.6773   -1.0611   -3.5042 C   0  0  0  0  0  0  0  0  0  0  0  0
   -0.5609   -0.4990   -4.7481 C   0  0  0  0  0  0  0  0  0  0  0  0
    0.1071   -1.2100   -5.7665 C   0  0  0  0  0  0  0  0  0  0  0  0
    1.1554   -2.9969   -6.3823 H   0  0  0  0  0  0  0  0  0  0  0  0
    0.9625   -4.0592   -4.1201 H   0  0  0  0  0  0  0  0  0  0  0  0
    0.9518   -1.9411   -2.7845 H   0  0  0  0  0  0  0  0  0  0  0  0
   -1.1968   -0.5477   -2.7009 H   0  0  0  0  0  0  0  0  0  0  0  0
   -1.0027    0.4656   -4.9669 H   0  0  0  0  0  0  0  0  0  0  0  0
    0.1775   -0.7612   -6.7528 H   0  0  0  0  0  0  0  0  0  0  0  0
  1  2  3  0  0  0  0
  3  5  1  0  0  0  0
  4  3  1  0  0  0  0
  6  7  2  0  0  0  0
  7 13  1  0  0  0  0
  7  8  1  0  0  0  0
  8 14  1  1  0  0  0
  8  3  1  0  0  0  0
  9  8  1  0  0  0  0
  9 15  1  0  0  0  0
 10  9  2  0  0  0  0
 11  6  1  0  0  0  0
 11 10  1  0  0  0  0
 12  6  1  0  0  0  0
 16 10  1  0  0  0  0
 17 11  1  0  0  0  0
M  RAD  1  11   2
M  END
