Coordinates from ORCA-job C6H6+NH2--N2+-scan
 OpenBabel10171807273D

 17 16  0  0  1  0  0  0  0  0999 V2000
    3.0862   -0.6420   -2.2621 N   0  0  0  0  0  0  0  0  0  0  0  0
    4.0362   -0.1972   -1.9473 N   0  0  0  0  0  0  0  0  0  0  0  0
   -0.4582   -3.1534   -2.1431 N   0  0  0  0  0  0  0  0  0  0  0  0
   -1.3908   -3.5048   -2.3303 H   0  0  0  0  0  0  0  0  0  0  0  0
   -0.4468   -2.7068   -1.2337 H   0  0  0  0  0  0  0  0  0  0  0  0
    0.6491   -2.4715   -5.5995 C   0  0  0  0  0  0  0  0  0  0  0  0
    0.6049   -3.0241   -4.3437 C   0  0  0  0  0  0  0  0  0  0  0  0
    0.0174   -2.2949   -3.2045 C   0  0  1  0  0  0  0  0  0  0  0  0
   -0.6957   -1.0419   -3.5462 C   0  0  0  0  0  0  0  0  0  0  0  0
   -0.6411   -0.5164   -4.8104 C   0  0  0  0  0  0  0  0  0  0  0  0
    0.0245   -1.2324   -5.8267 C   0  0  0  0  0  0  0  0  0  0  0  0
    1.1269   -2.9945   -6.4188 H   0  0  0  0  0  0  0  0  0  0  0  0
    1.0480   -3.9885   -4.1190 H   0  0  0  0  0  0  0  0  0  0  0  0
    0.9903   -1.8295   -2.8497 H   0  0  0  0  0  0  0  0  0  0  0  0
   -1.2115   -0.5242   -2.7434 H   0  0  0  0  0  0  0  0  0  0  0  0
   -1.1296    0.4216   -5.0452 H   0  0  0  0  0  0  0  0  0  0  0  0
    0.0459   -0.8137   -6.8285 H   0  0  0  0  0  0  0  0  0  0  0  0
  1  2  3  0  0  0  0
  3  5  1  0  0  0  0
  4  3  1  0  0  0  0
  6  7  2  0  0  0  0
  7 13  1  0  0  0  0
  7  8  1  0  0  0  0
  8 14  1  1  0  0  0
  8  3  1  0  0  0  0
  9  8  1  0  0  0  0
  9 15  1  0  0  0  0
 10  9  2  0  0  0  0
 11  6  1  0  0  0  0
 11 10  1  0  0  0  0
 12  6  1  0  0  0  0
 16 10  1  0  0  0  0
 17 11  1  0  0  0  0
M  RAD  1  11   2
M  END
