Coordinates from ORCA-job C6H6+NH2--N2+-scan
 OpenBabel10171807273D

 17 16  0  0  1  0  0  0  0  0999 V2000
    3.5434    0.4853   -4.3627 N   0  0  0  0  0  0  0  0  0  0  0  0
    4.4880    0.9967   -4.1480 N   0  0  0  0  0  0  0  0  0  0  0  0
   -1.3685   -3.6064   -2.5335 N   0  0  0  0  0  0  0  0  0  0  0  0
   -2.1814   -3.6894   -3.1341 H   0  0  0  0  0  0  0  0  0  0  0  0
   -1.6718   -3.3954   -1.5901 H   0  0  0  0  0  0  0  0  0  0  0  0
    1.0542   -2.4167   -5.0441 C   0  0  0  0  0  0  0  0  0  0  0  0
    0.4768   -3.2147   -4.0912 C   0  0  0  0  0  0  0  0  0  0  0  0
   -0.4106   -2.6534   -3.0500 C   0  0  1  0  0  0  0  0  0  0  0  0
   -0.7895   -1.2292   -3.2361 C   0  0  0  0  0  0  0  0  0  0  0  0
   -0.2034   -0.4587   -4.2031 C   0  0  0  0  0  0  0  0  0  0  0  0
    0.7114   -1.0526   -5.0986 C   0  0  0  0  0  0  0  0  0  0  0  0
    1.7421   -2.8292   -5.7717 H   0  0  0  0  0  0  0  0  0  0  0  0
    0.6842   -4.2774   -4.0210 H   0  0  0  0  0  0  0  0  0  0  0  0
    0.3794   -2.5217   -2.2538 H   0  0  0  0  0  0  0  0  0  0  0  0
   -1.5070   -0.8082   -2.5384 H   0  0  0  0  0  0  0  0  0  0  0  0
   -0.4534    0.5900   -4.3090 H   0  0  0  0  0  0  0  0  0  0  0  0
    1.1619   -0.4330   -5.8667 H   0  0  0  0  0  0  0  0  0  0  0  0
  1  2  3  0  0  0  0
  3  5  1  0  0  0  0
  4  3  1  0  0  0  0
  6  7  2  0  0  0  0
  7 13  1  0  0  0  0
  7  8  1  0  0  0  0
  8  3  1  0  0  0  0
  8 14  1  1  0  0  0
  9  8  1  0  0  0  0
  9 15  1  0  0  0  0
 10  9  2  0  0  0  0
 11  6  1  0  0  0  0
 11 10  1  0  0  0  0
 12  6  1  0  0  0  0
 16 10  1  0  0  0  0
 17 11  1  0  0  0  0
M  RAD  1  11   2
M  END
