Coordinates from ORCA-job C6H6+NH2--N2+-scan
 OpenBabel10171807273D

 17 16  0  0  1  0  0  0  0  0999 V2000
    1.0437   -1.9633   -0.4973 N   0  0  0  0  0  0  0  0  0  0  0  0
    1.5269   -2.8311   -0.0175 N   0  0  0  0  0  0  0  0  0  0  0  0
    0.9364   -1.5561   -2.3208 N   0  0  0  0  0  0  0  0  0  0  0  0
   -0.0802   -1.4790   -2.2328 H   0  0  0  0  0  0  0  0  0  0  0  0
    1.2915   -0.6201   -2.1102 H   0  0  0  0  0  0  0  0  0  0  0  0
   -0.4657   -3.1042   -5.1081 C   0  0  0  0  0  0  0  0  0  0  0  0
    0.6490   -3.0417   -4.3283 C   0  0  0  0  0  0  0  0  0  0  0  0
    1.2211   -1.7461   -3.9244 C   0  0  1  0  0  0  0  0  0  0  0  0
    0.6000   -0.5606   -4.5083 C   0  0  0  0  0  0  0  0  0  0  0  0
   -0.5621   -0.6444   -5.2498 C   0  0  0  0  0  0  0  0  0  0  0  0
   -1.0799   -1.9054   -5.5587 C   0  0  0  0  0  0  0  0  0  0  0  0
   -0.8901   -4.0594   -5.3922 H   0  0  0  0  0  0  0  0  0  0  0  0
    1.1272   -3.9432   -3.9607 H   0  0  0  0  0  0  0  0  0  0  0  0
    2.3124   -1.7407   -3.9560 H   0  0  0  0  0  0  0  0  0  0  0  0
    1.0533    0.4049   -4.3058 H   0  0  0  0  0  0  0  0  0  0  0  0
   -1.0495    0.2501   -5.6172 H   0  0  0  0  0  0  0  0  0  0  0  0
   -1.9781   -1.9739   -6.1640 H   0  0  0  0  0  0  0  0  0  0  0  0
  1  2  3  0  0  0  0
  3  4  1  0  0  0  0
  3  5  1  0  0  0  0
  6  7  2  0  0  0  0
  7 13  1  0  0  0  0
  7  8  1  0  0  0  0
  8 14  1  6  0  0  0
  8  3  1  0  0  0  0
  9 15  1  0  0  0  0
  9  8  1  0  0  0  0
 10  9  2  0  0  0  0
 11 10  1  0  0  0  0
 11  6  1  0  0  0  0
 12  6  1  0  0  0  0
 16 10  1  0  0  0  0
 17 11  1  0  0  0  0
M  RAD  1  11   2
M  END
