Coordinates from ORCA-job C6H6+NH2--N2+-scan
 OpenBabel10171807273D

 17 16  0  0  1  0  0  0  0  0999 V2000
    1.7409   -1.2709    0.8250 N   0  0  0  0  0  0  0  0  0  0  0  0
    1.9896   -1.2517    1.8916 N   0  0  0  0  0  0  0  0  0  0  0  0
    1.2110   -2.2490   -2.5612 N   0  0  0  0  0  0  0  0  0  0  0  0
    0.4167   -2.2188   -1.9316 H   0  0  0  0  0  0  0  0  0  0  0  0
    1.9243   -1.6237   -2.2054 H   0  0  0  0  0  0  0  0  0  0  0  0
   -0.5685   -3.0001   -5.7031 C   0  0  0  0  0  0  0  0  0  0  0  0
    0.2945   -3.1419   -4.6464 C   0  0  0  0  0  0  0  0  0  0  0  0
    0.8310   -1.9680   -3.9268 C   0  0  1  0  0  0  0  0  0  0  0  0
    0.2222   -0.6637   -4.2907 C   0  0  0  0  0  0  0  0  0  0  0  0
   -0.6449   -0.5534   -5.3450 C   0  0  0  0  0  0  0  0  0  0  0  0
   -1.0364   -1.7168   -6.0403 C   0  0  0  0  0  0  0  0  0  0  0  0
   -0.9183   -3.8646   -6.2538 H   0  0  0  0  0  0  0  0  0  0  0  0
    0.6645   -4.1101   -4.3256 H   0  0  0  0  0  0  0  0  0  0  0  0
    1.7894   -1.8791   -4.5205 H   0  0  0  0  0  0  0  0  0  0  0  0
    0.5344    0.2084   -3.7244 H   0  0  0  0  0  0  0  0  0  0  0  0
   -1.0573    0.4071   -5.6297 H   0  0  0  0  0  0  0  0  0  0  0  0
   -1.7373   -1.6179   -6.8640 H   0  0  0  0  0  0  0  0  0  0  0  0
  1  2  3  0  0  0  0
  3  5  1  0  0  0  0
  3  4  1  0  0  0  0
  6  7  2  0  0  0  0
  7 13  1  0  0  0  0
  7  8  1  0  0  0  0
  8 14  1  6  0  0  0
  8  3  1  0  0  0  0
  9  8  1  0  0  0  0
  9 15  1  0  0  0  0
 10  9  2  0  0  0  0
 11  6  1  0  0  0  0
 11 10  1  0  0  0  0
 12  6  1  0  0  0  0
 16 10  1  0  0  0  0
 17 11  1  0  0  0  0
M  RAD  1  11   2
M  END
