Coordinates from ORCA-job C6H6+NH2--N2+-scan
 OpenBabel10171807273D

 17 16  0  0  1  0  0  0  0  0999 V2000
    3.0045   -0.8410   -1.9368 N   0  0  0  0  0  0  0  0  0  0  0  0
    3.9351   -0.5209   -1.4561 N   0  0  0  0  0  0  0  0  0  0  0  0
   -0.2410   -3.0229   -2.1143 N   0  0  0  0  0  0  0  0  0  0  0  0
   -1.1616   -3.4381   -2.2069 H   0  0  0  0  0  0  0  0  0  0  0  0
   -0.1894   -2.5193   -1.2368 H   0  0  0  0  0  0  0  0  0  0  0  0
    0.5718   -2.4850   -5.6786 C   0  0  0  0  0  0  0  0  0  0  0  0
    0.6434   -2.9702   -4.3961 C   0  0  0  0  0  0  0  0  0  0  0  0
    0.1019   -2.2083   -3.2571 C   0  0  1  0  0  0  0  0  0  0  0  0
   -0.6946   -1.0105   -3.6084 C   0  0  0  0  0  0  0  0  0  0  0  0
   -0.7530   -0.5510   -4.8982 C   0  0  0  0  0  0  0  0  0  0  0  0
   -0.1266   -1.2897   -5.9228 C   0  0  0  0  0  0  0  0  0  0  0  0
    1.0168   -3.0295   -6.5025 H   0  0  0  0  0  0  0  0  0  0  0  0
    1.1498   -3.8990   -4.1555 H   0  0  0  0  0  0  0  0  0  0  0  0
    1.0736   -1.6803   -2.9972 H   0  0  0  0  0  0  0  0  0  0  0  0
   -1.1782   -0.4741   -2.7978 H   0  0  0  0  0  0  0  0  0  0  0  0
   -1.3014    0.3506   -5.1435 H   0  0  0  0  0  0  0  0  0  0  0  0
   -0.1954   -0.9248   -6.9432 H   0  0  0  0  0  0  0  0  0  0  0  0
  1  2  3  0  0  0  0
  3  5  1  0  0  0  0
  4  3  1  0  0  0  0
  6  7  2  0  0  0  0
  7 13  1  0  0  0  0
  7  8  1  0  0  0  0
  8 14  1  1  0  0  0
  8  3  1  0  0  0  0
  9  8  1  0  0  0  0
  9 15  1  0  0  0  0
 10  9  2  0  0  0  0
 11  6  1  0  0  0  0
 11 10  1  0  0  0  0
 12  6  1  0  0  0  0
 16 10  1  0  0  0  0
 17 11  1  0  0  0  0
M  RAD  1  11   2
M  END
