Coordinates from ORCA-job C6H6+NH2--N2+-scan
 OpenBabel10171807273D

 17 16  0  0  1  0  0  0  0  0999 V2000
    3.0020   -0.8452   -1.9284 N   0  0  0  0  0  0  0  0  0  0  0  0
    3.9316   -0.5287   -1.4436 N   0  0  0  0  0  0  0  0  0  0  0  0
   -0.2360   -3.0198   -2.1141 N   0  0  0  0  0  0  0  0  0  0  0  0
   -1.1563   -3.4359   -2.2044 H   0  0  0  0  0  0  0  0  0  0  0  0
   -0.1830   -2.5150   -1.2373 H   0  0  0  0  0  0  0  0  0  0  0  0
    0.5698   -2.4856   -5.6806 C   0  0  0  0  0  0  0  0  0  0  0  0
    0.6442   -2.9691   -4.3976 C   0  0  0  0  0  0  0  0  0  0  0  0
    0.1041   -2.2063   -3.2586 C   0  0  1  0  0  0  0  0  0  0  0  0
   -0.6941   -1.0096   -3.6098 C   0  0  0  0  0  0  0  0  0  0  0  0
   -0.7553   -0.5517   -4.9001 C   0  0  0  0  0  0  0  0  0  0  0  0
   -0.1301   -1.2912   -5.9250 C   0  0  0  0  0  0  0  0  0  0  0  0
    1.0138   -3.0306   -6.5046 H   0  0  0  0  0  0  0  0  0  0  0  0
    1.1518   -3.8972   -4.1568 H   0  0  0  0  0  0  0  0  0  0  0  0
    1.0757   -1.6773   -3.0008 H   0  0  0  0  0  0  0  0  0  0  0  0
   -1.1767   -0.4727   -2.7990 H   0  0  0  0  0  0  0  0  0  0  0  0
   -1.3049    0.3491   -5.1455 H   0  0  0  0  0  0  0  0  0  0  0  0
   -0.2011   -0.9276   -6.9457 H   0  0  0  0  0  0  0  0  0  0  0  0
  1  2  3  0  0  0  0
  3  5  1  0  0  0  0
  4  3  1  0  0  0  0
  6  7  2  0  0  0  0
  7 13  1  0  0  0  0
  7  8  1  0  0  0  0
  8 14  1  1  0  0  0
  8  3  1  0  0  0  0
  9  8  1  0  0  0  0
  9 15  1  0  0  0  0
 10  9  2  0  0  0  0
 11  6  1  0  0  0  0
 11 10  1  0  0  0  0
 12  6  1  0  0  0  0
 16 10  1  0  0  0  0
 17 11  1  0  0  0  0
M  RAD  1  11   2
M  END
