Coordinates from ORCA-job C6H6+NH2--N2+-scan
 OpenBabel10171807273D

 17 16  0  0  1  0  0  0  0  0999 V2000
    1.6300   -1.8353    0.1993 N   0  0  0  0  0  0  0  0  0  0  0  0
    2.0175   -2.5913    0.8912 N   0  0  0  0  0  0  0  0  0  0  0  0
    1.1049   -1.7441   -2.3584 N   0  0  0  0  0  0  0  0  0  0  0  0
    0.2735   -1.5711   -1.8052 H   0  0  0  0  0  0  0  0  0  0  0  0
    1.8050   -1.0624   -2.0933 H   0  0  0  0  0  0  0  0  0  0  0  0
   -0.5174   -3.0756   -5.3913 C   0  0  0  0  0  0  0  0  0  0  0  0
    0.2957   -3.0156   -4.2889 C   0  0  0  0  0  0  0  0  0  0  0  0
    0.8125   -1.7278   -3.7805 C   0  0  1  0  0  0  0  0  0  0  0  0
    0.2387   -0.5156   -4.4160 C   0  0  0  0  0  0  0  0  0  0  0  0
   -0.5839   -0.6049   -5.5073 C   0  0  0  0  0  0  0  0  0  0  0  0
   -0.9571   -1.8782   -5.9861 C   0  0  0  0  0  0  0  0  0  0  0  0
   -0.8522   -4.0281   -5.7834 H   0  0  0  0  0  0  0  0  0  0  0  0
    0.6375   -3.9065   -3.7724 H   0  0  0  0  0  0  0  0  0  0  0  0
    1.8074   -1.7550   -4.3144 H   0  0  0  0  0  0  0  0  0  0  0  0
    0.5379    0.4480   -4.0149 H   0  0  0  0  0  0  0  0  0  0  0  0
   -0.9732    0.2851   -5.9870 H   0  0  0  0  0  0  0  0  0  0  0  0
   -1.6212   -1.9361   -6.8435 H   0  0  0  0  0  0  0  0  0  0  0  0
  1  2  3  0  0  0  0
  3  5  1  0  0  0  0
  3  4  1  0  0  0  0
  6  7  2  0  0  0  0
  7  8  1  0  0  0  0
  7 13  1  0  0  0  0
  8 14  1  6  0  0  0
  8  3  1  0  0  0  0
  9 15  1  0  0  0  0
  9  8  1  0  0  0  0
 10  9  2  0  0  0  0
 11 10  1  0  0  0  0
 11  6  1  0  0  0  0
 12  6  1  0  0  0  0
 16 10  1  0  0  0  0
 17 11  1  0  0  0  0
M  RAD  1  11   2
M  END
