Coordinates from ORCA-job C6H6+NH2--N2+-scan
 OpenBabel10171807273D

 17 16  0  0  0  0  0  0  0  0999 V2000
    0.9549   -1.7755   -0.4020 N   0  0  0  0  0  0  0  0  0  0  0  0
    1.6883   -1.7880    0.4235 N   0  0  0  0  0  0  0  0  0  0  0  0
    0.9004   -1.7920   -2.1023 N   0  0  0  0  0  0  0  0  0  0  0  0
    0.2517   -2.5859   -2.1807 H   0  0  0  0  0  0  0  0  0  0  0  0
    0.2990   -0.9634   -2.1979 H   0  0  0  0  0  0  0  0  0  0  0  0
   -0.5384   -3.0062   -5.1699 C   0  0  0  0  0  0  0  0  0  0  0  0
    0.7013   -3.0415   -4.5554 C   0  0  0  0  0  0  0  0  0  0  0  0
    1.3708   -1.8282   -4.2212 C   0  0  0  0  0  0  0  0  0  0  0  0
    0.7701   -0.5869   -4.5819 C   0  0  0  0  0  0  0  0  0  0  0  0
   -0.4701   -0.5660   -5.1963 C   0  0  0  0  0  0  0  0  0  0  0  0
   -1.1203   -1.7722   -5.4939 C   0  0  0  0  0  0  0  0  0  0  0  0
   -1.0480   -3.9277   -5.4245 H   0  0  0  0  0  0  0  0  0  0  0  0
    1.1821   -3.9891   -4.3374 H   0  0  0  0  0  0  0  0  0  0  0  0
    2.4225   -1.8549   -3.9669 H   0  0  0  0  0  0  0  0  0  0  0  0
    1.3033    0.3368   -4.3842 H   0  0  0  0  0  0  0  0  0  0  0  0
   -0.9275    0.3768   -5.4710 H   0  0  0  0  0  0  0  0  0  0  0  0
   -2.0843   -1.7506   -5.9898 H   0  0  0  0  0  0  0  0  0  0  0  0
  1  2  2  0  0  0  0
  3  1  1  0  0  0  0
  4  3  1  0  0  0  0
  5  3  1  0  0  0  0
  6  7  2  0  0  0  0
  7 13  1  0  0  0  0
  7  8  1  0  0  0  0
  8 14  1  0  0  0  0
  9 15  1  0  0  0  0
  9  8  2  0  0  0  0
 10  9  1  0  0  0  0
 11 10  2  0  0  0  0
 11  6  1  0  0  0  0
 12  6  1  0  0  0  0
 16 10  1  0  0  0  0
 17 11  1  0  0  0  0
M  RAD  1   2   2
M  END
