Coordinates from ORCA-job C6H6+NH2--N2+-scan
 OpenBabel10171807273D

 17 16  0  0  1  0  0  0  0  0999 V2000
    3.4392    0.2954   -4.0634 N   0  0  0  0  0  0  0  0  0  0  0  0
    4.3859    0.7891   -3.8184 N   0  0  0  0  0  0  0  0  0  0  0  0
   -1.2475   -3.5622   -2.4581 N   0  0  0  0  0  0  0  0  0  0  0  0
   -2.0881   -3.6933   -3.0101 H   0  0  0  0  0  0  0  0  0  0  0  0
   -1.5066   -3.3198   -1.5091 H   0  0  0  0  0  0  0  0  0  0  0  0
    1.0071   -2.4070   -5.1378 C   0  0  0  0  0  0  0  0  0  0  0  0
    0.4983   -3.1840   -4.1300 C   0  0  0  0  0  0  0  0  0  0  0  0
   -0.3476   -2.6061   -3.0641 C   0  0  1  0  0  0  0  0  0  0  0  0
   -0.7731   -1.1996   -3.2803 C   0  0  0  0  0  0  0  0  0  0  0  0
   -0.2546   -0.4501   -4.3010 C   0  0  0  0  0  0  0  0  0  0  0  0
    0.6307   -1.0535   -5.2192 C   0  0  0  0  0  0  0  0  0  0  0  0
    1.6677   -2.8292   -5.8850 H   0  0  0  0  0  0  0  0  0  0  0  0
    0.7358   -4.2383   -4.0338 H   0  0  0  0  0  0  0  0  0  0  0  0
    0.4826   -2.4220   -2.3202 H   0  0  0  0  0  0  0  0  0  0  0  0
   -1.4657   -0.7712   -2.5623 H   0  0  0  0  0  0  0  0  0  0  0  0
   -0.5355    0.5882   -4.4294 H   0  0  0  0  0  0  0  0  0  0  0  0
    1.0274   -0.4507   -6.0298 H   0  0  0  0  0  0  0  0  0  0  0  0
  1  2  3  0  0  0  0
  3  5  1  0  0  0  0
  4  3  1  0  0  0  0
  6  7  2  0  0  0  0
  7 13  1  0  0  0  0
  7  8  1  0  0  0  0
  8  3  1  0  0  0  0
  8 14  1  1  0  0  0
  9  8  1  0  0  0  0
  9 15  1  0  0  0  0
 10  9  2  0  0  0  0
 11  6  1  0  0  0  0
 11 10  1  0  0  0  0
 12  6  1  0  0  0  0
 16 10  1  0  0  0  0
 17 11  1  0  0  0  0
M  RAD  1  11   2
M  END
