Coordinates from ORCA-job C6H6+NH2--N2+-scan
 OpenBabel10171807273D

 17 16  0  0  1  0  0  0  0  0999 V2000
    1.6915   -1.4441    0.6196 N   0  0  0  0  0  0  0  0  0  0  0  0
    1.9603   -1.5357    1.6774 N   0  0  0  0  0  0  0  0  0  0  0  0
    1.2062   -2.1302   -2.5134 N   0  0  0  0  0  0  0  0  0  0  0  0
    0.4118   -2.0699   -1.8868 H   0  0  0  0  0  0  0  0  0  0  0  0
    1.9218   -1.4954   -2.1813 H   0  0  0  0  0  0  0  0  0  0  0  0
   -0.5610   -3.0200   -5.6258 C   0  0  0  0  0  0  0  0  0  0  0  0
    0.2973   -3.1153   -4.5600 C   0  0  0  0  0  0  0  0  0  0  0  0
    0.8332   -1.9112   -3.8917 C   0  0  1  0  0  0  0  0  0  0  0  0
    0.2290   -0.6236   -4.3177 C   0  0  0  0  0  0  0  0  0  0  0  0
   -0.6336   -0.5595   -5.3795 C   0  0  0  0  0  0  0  0  0  0  0  0
   -1.0247   -1.7525   -6.0229 C   0  0  0  0  0  0  0  0  0  0  0  0
   -0.9104   -3.9080   -6.1381 H   0  0  0  0  0  0  0  0  0  0  0  0
    0.6638   -4.0687   -4.1939 H   0  0  0  0  0  0  0  0  0  0  0  0
    1.7944   -1.8510   -4.4846 H   0  0  0  0  0  0  0  0  0  0  0  0
    0.5409    0.2728   -3.7905 H   0  0  0  0  0  0  0  0  0  0  0  0
   -1.0427    0.3879   -5.7093 H   0  0  0  0  0  0  0  0  0  0  0  0
   -1.7220   -1.6897   -6.8532 H   0  0  0  0  0  0  0  0  0  0  0  0
  1  2  3  0  0  0  0
  3  5  1  0  0  0  0
  3  4  1  0  0  0  0
  6  7  2  0  0  0  0
  7 13  1  0  0  0  0
  7  8  1  0  0  0  0
  8 14  1  6  0  0  0
  8  3  1  0  0  0  0
  9  8  1  0  0  0  0
  9 15  1  0  0  0  0
 10  9  2  0  0  0  0
 11  6  1  0  0  0  0
 11 10  1  0  0  0  0
 12  6  1  0  0  0  0
 16 10  1  0  0  0  0
 17 11  1  0  0  0  0
M  RAD  1  11   2
M  END
