Coordinates from ORCA-job C6H6+NH2--N2+-scan
 OpenBabel10171807273D

 17 16  0  0  1  0  0  0  0  0999 V2000
    1.7083   -1.3827    0.7086 N   0  0  0  0  0  0  0  0  0  0  0  0
    1.9690   -1.4348    1.7712 N   0  0  0  0  0  0  0  0  0  0  0  0
    1.2113   -2.1719   -2.5339 N   0  0  0  0  0  0  0  0  0  0  0  0
    0.4180   -2.1221   -1.9047 H   0  0  0  0  0  0  0  0  0  0  0  0
    1.9268   -1.5403   -2.1949 H   0  0  0  0  0  0  0  0  0  0  0  0
   -0.5655   -3.0135   -5.6541 C   0  0  0  0  0  0  0  0  0  0  0  0
    0.2961   -3.1251   -4.5926 C   0  0  0  0  0  0  0  0  0  0  0  0
    0.8335   -1.9313   -3.9074 C   0  0  1  0  0  0  0  0  0  0  0  0
    0.2272   -0.6374   -4.3109 C   0  0  0  0  0  0  0  0  0  0  0  0
   -0.6386   -0.5572   -5.3690 C   0  0  0  0  0  0  0  0  0  0  0  0
   -1.0311   -1.7401   -6.0299 C   0  0  0  0  0  0  0  0  0  0  0  0
   -0.9160   -3.8935   -6.1793 H   0  0  0  0  0  0  0  0  0  0  0  0
    0.6642   -4.0839   -4.2427 H   0  0  0  0  0  0  0  0  0  0  0  0
    1.7926   -1.8613   -4.5024 H   0  0  0  0  0  0  0  0  0  0  0  0
    0.5401    0.2507   -3.7705 H   0  0  0  0  0  0  0  0  0  0  0  0
   -1.0492    0.3951   -5.6826 H   0  0  0  0  0  0  0  0  0  0  0  0
   -1.7309   -1.6647   -6.8570 H   0  0  0  0  0  0  0  0  0  0  0  0
  1  2  3  0  0  0  0
  3  5  1  0  0  0  0
  3  4  1  0  0  0  0
  6  7  2  0  0  0  0
  7 13  1  0  0  0  0
  7  8  1  0  0  0  0
  8 14  1  6  0  0  0
  8  3  1  0  0  0  0
  9  8  1  0  0  0  0
  9 15  1  0  0  0  0
 10  9  2  0  0  0  0
 11  6  1  0  0  0  0
 11 10  1  0  0  0  0
 12  6  1  0  0  0  0
 16 10  1  0  0  0  0
 17 11  1  0  0  0  0
M  RAD  1  11   2
M  END
