Coordinates from ORCA-job C6H6+NH2--N2+-scan
 OpenBabel10171807273D

 17 16  0  0  1  0  0  0  0  0999 V2000
    3.6112    0.6002   -4.5277 N   0  0  0  0  0  0  0  0  0  0  0  0
    4.5541    1.1328   -4.3630 N   0  0  0  0  0  0  0  0  0  0  0  0
   -1.4393   -3.6302   -2.5809 N   0  0  0  0  0  0  0  0  0  0  0  0
   -2.2340   -3.6858   -3.2086 H   0  0  0  0  0  0  0  0  0  0  0  0
   -1.7691   -3.4363   -1.6428 H   0  0  0  0  0  0  0  0  0  0  0  0
    1.0805   -2.4252   -4.9859 C   0  0  0  0  0  0  0  0  0  0  0  0
    0.4614   -3.2344   -4.0693 C   0  0  0  0  0  0  0  0  0  0  0  0
   -0.4503   -2.6818   -3.0445 C   0  0  1  0  0  0  0  0  0  0  0  0
   -0.8011   -1.2480   -3.2102 C   0  0  0  0  0  0  0  0  0  0  0  0
   -0.1735   -0.4662   -4.1416 C   0  0  0  0  0  0  0  0  0  0  0  0
    0.7592   -1.0552   -5.0220 C   0  0  0  0  0  0  0  0  0  0  0  0
    1.7847   -2.8327   -5.7007 H   0  0  0  0  0  0  0  0  0  0  0  0
    0.6503   -4.3015   -4.0158 H   0  0  0  0  0  0  0  0  0  0  0  0
    0.3152   -2.5809   -2.2204 H   0  0  0  0  0  0  0  0  0  0  0  0
   -1.5334   -0.8310   -2.5257 H   0  0  0  0  0  0  0  0  0  0  0  0
   -0.4042    0.5883   -4.2322 H   0  0  0  0  0  0  0  0  0  0  0  0
    1.2440   -0.4261   -5.7607 H   0  0  0  0  0  0  0  0  0  0  0  0
  1  2  3  0  0  0  0
  3  5  1  0  0  0  0
  4  3  1  0  0  0  0
  6  7  2  0  0  0  0
  7 13  1  0  0  0  0
  7  8  1  0  0  0  0
  8  3  1  0  0  0  0
  8 14  1  1  0  0  0
  9  8  1  0  0  0  0
  9 15  1  0  0  0  0
 10  9  2  0  0  0  0
 11  6  1  0  0  0  0
 11 10  1  0  0  0  0
 12  6  1  0  0  0  0
 16 10  1  0  0  0  0
 17 11  1  0  0  0  0
M  RAD  1  11   2
M  END
