Coordinates from ORCA-job C6H6+NH2--N2+-scan
 OpenBabel10171807273D

 17 16  0  0  1  0  0  0  0  0999 V2000
    2.9778   -0.8829   -1.8570 N   0  0  0  0  0  0  0  0  0  0  0  0
    3.8982   -0.5994   -1.3356 N   0  0  0  0  0  0  0  0  0  0  0  0
   -0.1907   -2.9918   -2.1125 N   0  0  0  0  0  0  0  0  0  0  0  0
   -1.1095   -3.4153   -2.1822 H   0  0  0  0  0  0  0  0  0  0  0  0
   -0.1262   -2.4766   -1.2425 H   0  0  0  0  0  0  0  0  0  0  0  0
    0.5527   -2.4900   -5.6974 C   0  0  0  0  0  0  0  0  0  0  0  0
    0.6516   -2.9590   -4.4107 C   0  0  0  0  0  0  0  0  0  0  0  0
    0.1238   -2.1883   -3.2714 C   0  0  1  0  0  0  0  0  0  0  0  0
   -0.6893   -1.0017   -3.6222 C   0  0  0  0  0  0  0  0  0  0  0  0
   -0.7751   -0.5583   -4.9162 C   0  0  0  0  0  0  0  0  0  0  0  0
   -0.1607   -1.3039   -5.9431 C   0  0  0  0  0  0  0  0  0  0  0  0
    0.9876   -3.0404   -6.5227 H   0  0  0  0  0  0  0  0  0  0  0  0
    1.1705   -3.8805   -4.1684 H   0  0  0  0  0  0  0  0  0  0  0  0
    1.0950   -1.6500   -3.0323 H   0  0  0  0  0  0  0  0  0  0  0  0
   -1.1628   -0.4597   -2.8094 H   0  0  0  0  0  0  0  0  0  0  0  0
   -1.3357    0.3355   -5.1621 H   0  0  0  0  0  0  0  0  0  0  0  0
   -0.2512   -0.9519   -6.9664 H   0  0  0  0  0  0  0  0  0  0  0  0
  1  2  3  0  0  0  0
  3  5  1  0  0  0  0
  4  3  1  0  0  0  0
  6  7  2  0  0  0  0
  7 13  1  0  0  0  0
  7  8  1  0  0  0  0
  8 14  1  1  0  0  0
  8  3  1  0  0  0  0
  9  8  1  0  0  0  0
  9 15  1  0  0  0  0
 10  9  2  0  0  0  0
 11  6  1  0  0  0  0
 11 10  1  0  0  0  0
 12  6  1  0  0  0  0
 16 10  1  0  0  0  0
 17 11  1  0  0  0  0
M  RAD  1  11   2
M  END
