Coordinates from ORCA-job C6H6+NH2--N2+-scan
 OpenBabel10171807273D

 17 16  0  0  1  0  0  0  0  0999 V2000
    1.6625   -1.7144    0.3644 N   0  0  0  0  0  0  0  0  0  0  0  0
    2.0292   -2.2423    1.2513 N   0  0  0  0  0  0  0  0  0  0  0  0
    1.1387   -1.8698   -2.4155 N   0  0  0  0  0  0  0  0  0  0  0  0
    0.3241   -1.7394   -1.8273 H   0  0  0  0  0  0  0  0  0  0  0  0
    1.8485   -1.2092   -2.1256 H   0  0  0  0  0  0  0  0  0  0  0  0
   -0.5357   -3.0588   -5.4788 C   0  0  0  0  0  0  0  0  0  0  0  0
    0.2918   -3.0502   -4.3851 C   0  0  0  0  0  0  0  0  0  0  0  0
    0.8145   -1.7873   -3.8231 C   0  0  1  0  0  0  0  0  0  0  0  0
    0.2299   -0.5468   -4.3919 C   0  0  0  0  0  0  0  0  0  0  0  0
   -0.6040   -0.5857   -5.4776 C   0  0  0  0  0  0  0  0  0  0  0  0
   -0.9827   -1.8354   -6.0113 C   0  0  0  0  0  0  0  0  0  0  0  0
   -0.8750   -3.9922   -5.9110 H   0  0  0  0  0  0  0  0  0  0  0  0
    0.6422   -3.9638   -3.9163 H   0  0  0  0  0  0  0  0  0  0  0  0
    1.7962   -1.7874   -4.3835 H   0  0  0  0  0  0  0  0  0  0  0  0
    0.5321    0.3966   -3.9478 H   0  0  0  0  0  0  0  0  0  0  0  0
   -0.9995    0.3254   -5.9102 H   0  0  0  0  0  0  0  0  0  0  0  0
   -1.6568   -1.8534   -6.8626 H   0  0  0  0  0  0  0  0  0  0  0  0
  1  2  3  0  0  0  0
  3  5  1  0  0  0  0
  3  4  1  0  0  0  0
  6  7  2  0  0  0  0
  7 13  1  0  0  0  0
  7  8  1  0  0  0  0
  8 14  1  6  0  0  0
  8  3  1  0  0  0  0
  9 15  1  0  0  0  0
  9  8  1  0  0  0  0
 10  9  2  0  0  0  0
 11  6  1  0  0  0  0
 11 10  1  0  0  0  0
 12  6  1  0  0  0  0
 16 10  1  0  0  0  0
 17 11  1  0  0  0  0
M  RAD  1  11   2
M  END
