Coordinates from ORCA-job C6H6+NH2--N2+-scan
 OpenBabel10171807273D

 17 16  0  0  1  0  0  0  0  0999 V2000
    3.0265   -0.8029   -2.0123 N   0  0  0  0  0  0  0  0  0  0  0  0
    3.9645   -0.4527   -1.5686 N   0  0  0  0  0  0  0  0  0  0  0  0
   -0.2866   -3.0507   -2.1168 N   0  0  0  0  0  0  0  0  0  0  0  0
   -1.2085   -3.4575   -2.2303 H   0  0  0  0  0  0  0  0  0  0  0  0
   -0.2466   -2.5576   -1.2327 H   0  0  0  0  0  0  0  0  0  0  0  0
    0.5901   -2.4805   -5.6606 C   0  0  0  0  0  0  0  0  0  0  0  0
    0.6368   -2.9799   -4.3825 C   0  0  0  0  0  0  0  0  0  0  0  0
    0.0825   -2.2260   -3.2442 C   0  0  1  0  0  0  0  0  0  0  0  0
   -0.6990   -1.0183   -3.5955 C   0  0  0  0  0  0  0  0  0  0  0  0
   -0.7327   -0.5446   -4.8810 C   0  0  0  0  0  0  0  0  0  0  0  0
   -0.0951   -1.2771   -5.9032 C   0  0  0  0  0  0  0  0  0  0  0  0
    1.0443   -3.0195   -6.4830 H   0  0  0  0  0  0  0  0  0  0  0  0
    1.1320   -3.9152   -4.1437 H   0  0  0  0  0  0  0  0  0  0  0  0
    1.0541   -1.7077   -2.9646 H   0  0  0  0  0  0  0  0  0  0  0  0
   -1.1919   -0.4870   -2.7872 H   0  0  0  0  0  0  0  0  0  0  0  0
   -1.2701    0.3638   -5.1255 H   0  0  0  0  0  0  0  0  0  0  0  0
   -0.1443   -0.9008   -6.9205 H   0  0  0  0  0  0  0  0  0  0  0  0
  1  2  3  0  0  0  0
  3  5  1  0  0  0  0
  4  3  1  0  0  0  0
  6  7  2  0  0  0  0
  7 13  1  0  0  0  0
  7  8  1  0  0  0  0
  8 14  1  1  0  0  0
  8  3  1  0  0  0  0
  9  8  1  0  0  0  0
  9 15  1  0  0  0  0
 10  9  2  0  0  0  0
 11  6  1  0  0  0  0
 11 10  1  0  0  0  0
 12  6  1  0  0  0  0
 16 10  1  0  0  0  0
 17 11  1  0  0  0  0
M  RAD  1  11   2
M  END
