Coordinates from ORCA-job C6H6+NH2--N2+-scan
 OpenBabel10171807273D

 17 16  0  0  1  0  0  0  0  0999 V2000
    3.5958    0.5685   -4.4770 N   0  0  0  0  0  0  0  0  0  0  0  0
    4.5393    1.0957   -4.2989 N   0  0  0  0  0  0  0  0  0  0  0  0
   -1.4189   -3.6239   -2.5666 N   0  0  0  0  0  0  0  0  0  0  0  0
   -2.2193   -3.6863   -3.1862 H   0  0  0  0  0  0  0  0  0  0  0  0
   -1.7405   -3.4246   -1.6267 H   0  0  0  0  0  0  0  0  0  0  0  0
    1.0720   -2.4229   -5.0035 C   0  0  0  0  0  0  0  0  0  0  0  0
    0.4658   -3.2289   -4.0755 C   0  0  0  0  0  0  0  0  0  0  0  0
   -0.4386   -2.6739   -3.0456 C   0  0  1  0  0  0  0  0  0  0  0  0
   -0.7978   -1.2429   -3.2177 C   0  0  0  0  0  0  0  0  0  0  0  0
   -0.1831   -0.4645   -4.1604 C   0  0  0  0  0  0  0  0  0  0  0  0
    0.7440   -1.0547   -5.0458 C   0  0  0  0  0  0  0  0  0  0  0  0
    1.7710   -2.8323   -5.7223 H   0  0  0  0  0  0  0  0  0  0  0  0
    0.6605   -4.2947   -4.0172 H   0  0  0  0  0  0  0  0  0  0  0  0
    0.3340   -2.5641   -2.2294 H   0  0  0  0  0  0  0  0  0  0  0  0
   -1.5255   -0.8244   -2.5292 H   0  0  0  0  0  0  0  0  0  0  0  0
   -0.4202    0.5882   -4.2556 H   0  0  0  0  0  0  0  0  0  0  0  0
    1.2174   -0.4287   -5.7944 H   0  0  0  0  0  0  0  0  0  0  0  0
  1  2  3  0  0  0  0
  3  5  1  0  0  0  0
  4  3  1  0  0  0  0
  6  7  2  0  0  0  0
  7 13  1  0  0  0  0
  7  8  1  0  0  0  0
  8  3  1  0  0  0  0
  8 14  1  1  0  0  0
  9  8  1  0  0  0  0
  9 15  1  0  0  0  0
 10  9  2  0  0  0  0
 11  6  1  0  0  0  0
 11 10  1  0  0  0  0
 12  6  1  0  0  0  0
 16 10  1  0  0  0  0
 17 11  1  0  0  0  0
M  RAD  1  11   2
M  END
