Coordinates from ORCA-job C6H6+NH2--N2+-scan
 OpenBabel10171807273D

 17 16  0  0  1  0  0  0  0  0999 V2000
    1.7303   -1.2985    0.7946 N   0  0  0  0  0  0  0  0  0  0  0  0
    1.9810   -1.2954    1.8609 N   0  0  0  0  0  0  0  0  0  0  0  0
    1.2128   -2.2304   -2.5540 N   0  0  0  0  0  0  0  0  0  0  0  0
    0.4172   -2.1959   -1.9262 H   0  0  0  0  0  0  0  0  0  0  0  0
    1.9278   -1.6026   -2.2054 H   0  0  0  0  0  0  0  0  0  0  0  0
   -0.5682   -3.0034   -5.6905 C   0  0  0  0  0  0  0  0  0  0  0  0
    0.2953   -3.1381   -4.6332 C   0  0  0  0  0  0  0  0  0  0  0  0
    0.8325   -1.9594   -3.9221 C   0  0  1  0  0  0  0  0  0  0  0  0
    0.2242   -0.6574   -4.2951 C   0  0  0  0  0  0  0  0  0  0  0  0
   -0.6433   -0.5542   -5.3497 C   0  0  0  0  0  0  0  0  0  0  0  0
   -1.0357   -1.7223   -6.0367 C   0  0  0  0  0  0  0  0  0  0  0  0
   -0.9187   -3.8717   -6.2349 H   0  0  0  0  0  0  0  0  0  0  0  0
    0.6651   -4.1041   -4.3058 H   0  0  0  0  0  0  0  0  0  0  0  0
    1.7906   -1.8751   -4.5169 H   0  0  0  0  0  0  0  0  0  0  0  0
    0.5369    0.2186   -3.7351 H   0  0  0  0  0  0  0  0  0  0  0  0
   -1.0553    0.4045   -5.6411 H   0  0  0  0  0  0  0  0  0  0  0  0
   -1.7368   -1.6289   -6.8607 H   0  0  0  0  0  0  0  0  0  0  0  0
  1  2  3  0  0  0  0
  3  5  1  0  0  0  0
  3  4  1  0  0  0  0
  6  7  2  0  0  0  0
  7 13  1  0  0  0  0
  7  8  1  0  0  0  0
  8 14  1  6  0  0  0
  8  3  1  0  0  0  0
  9  8  1  0  0  0  0
  9 15  1  0  0  0  0
 10  9  2  0  0  0  0
 11  6  1  0  0  0  0
 11 10  1  0  0  0  0
 12  6  1  0  0  0  0
 16 10  1  0  0  0  0
 17 11  1  0  0  0  0
M  RAD  1  11   2
M  END
