Coordinates from ORCA-job C6H6+NH2--N2+-scan
 OpenBabel10171807273D

 17 16  0  0  1  0  0  0  0  0999 V2000
    3.4817    0.3352   -4.0926 N   0  0  0  0  0  0  0  0  0  0  0  0
    4.4283    0.8338   -3.8572 N   0  0  0  0  0  0  0  0  0  0  0  0
   -1.2666   -3.5703   -2.4687 N   0  0  0  0  0  0  0  0  0  0  0  0
   -2.1047   -3.6895   -3.0272 H   0  0  0  0  0  0  0  0  0  0  0  0
   -1.5307   -3.3329   -1.5197 H   0  0  0  0  0  0  0  0  0  0  0  0
    1.0091   -2.4105   -5.1272 C   0  0  0  0  0  0  0  0  0  0  0  0
    0.4943   -3.1895   -4.1240 C   0  0  0  0  0  0  0  0  0  0  0  0
   -0.3566   -2.6139   -3.0608 C   0  0  1  0  0  0  0  0  0  0  0  0
   -0.7763   -1.2052   -3.2734 C   0  0  0  0  0  0  0  0  0  0  0  0
   -0.2530   -0.4540   -4.2903 C   0  0  0  0  0  0  0  0  0  0  0  0
    0.6336   -1.0567   -5.2079 C   0  0  0  0  0  0  0  0  0  0  0  0
    1.6718   -2.8323   -5.8728 H   0  0  0  0  0  0  0  0  0  0  0  0
    0.7292   -4.2447   -4.0307 H   0  0  0  0  0  0  0  0  0  0  0  0
    0.4671   -2.4385   -2.3081 H   0  0  0  0  0  0  0  0  0  0  0  0
   -1.4705   -0.7769   -2.5569 H   0  0  0  0  0  0  0  0  0  0  0  0
   -0.5322    0.5850   -4.4169 H   0  0  0  0  0  0  0  0  0  0  0  0
    1.0315   -0.4534   -6.0176 H   0  0  0  0  0  0  0  0  0  0  0  0
  1  2  3  0  0  0  0
  3  5  1  0  0  0  0
  4  3  1  0  0  0  0
  6  7  2  0  0  0  0
  7 13  1  0  0  0  0
  7  8  1  0  0  0  0
  8  3  1  0  0  0  0
  8 14  1  1  0  0  0
  9  8  1  0  0  0  0
  9 15  1  0  0  0  0
 10  9  2  0  0  0  0
 11  6  1  0  0  0  0
 11 10  1  0  0  0  0
 12  6  1  0  0  0  0
 16 10  1  0  0  0  0
 17 11  1  0  0  0  0
M  RAD  1  11   2
M  END
