Coordinates from ORCA-job C6H6+NH2--N2+-scan
 OpenBabel10171807273D

 17 16  0  0  1  0  0  0  0  0999 V2000
    1.6547   -1.7294    0.3246 N   0  0  0  0  0  0  0  0  0  0  0  0
    2.0239   -2.2749    1.1998 N   0  0  0  0  0  0  0  0  0  0  0  0
    1.1351   -1.8574   -2.4064 N   0  0  0  0  0  0  0  0  0  0  0  0
    0.3181   -1.7220   -1.8227 H   0  0  0  0  0  0  0  0  0  0  0  0
    1.8428   -1.1935   -2.1187 H   0  0  0  0  0  0  0  0  0  0  0  0
   -0.5330   -3.0607   -5.4676 C   0  0  0  0  0  0  0  0  0  0  0  0
    0.2930   -3.0469   -4.3729 C   0  0  0  0  0  0  0  0  0  0  0  0
    0.8150   -1.7814   -3.8162 C   0  0  1  0  0  0  0  0  0  0  0  0
    0.2318   -0.5437   -4.3920 C   0  0  0  0  0  0  0  0  0  0  0  0
   -0.6011   -0.5876   -5.4784 C   0  0  0  0  0  0  0  0  0  0  0  0
   -0.9792   -1.8397   -6.0065 C   0  0  0  0  0  0  0  0  0  0  0  0
   -0.8719   -3.9960   -5.8959 H   0  0  0  0  0  0  0  0  0  0  0  0
    0.6425   -3.9583   -3.8992 H   0  0  0  0  0  0  0  0  0  0  0  0
    1.7985   -1.7845   -4.3731 H   0  0  0  0  0  0  0  0  0  0  0  0
    0.5338    0.4020   -3.9524 H   0  0  0  0  0  0  0  0  0  0  0  0
   -0.9959    0.3216   -5.9157 H   0  0  0  0  0  0  0  0  0  0  0  0
   -1.6523   -1.8617   -6.8585 H   0  0  0  0  0  0  0  0  0  0  0  0
  1  2  3  0  0  0  0
  3  5  1  0  0  0  0
  3  4  1  0  0  0  0
  6  7  2  0  0  0  0
  7 13  1  0  0  0  0
  7  8  1  0  0  0  0
  8 14  1  6  0  0  0
  8  3  1  0  0  0  0
  9 15  1  0  0  0  0
  9  8  1  0  0  0  0
 10  9  2  0  0  0  0
 11 10  1  0  0  0  0
 11  6  1  0  0  0  0
 12  6  1  0  0  0  0
 16 10  1  0  0  0  0
 17 11  1  0  0  0  0
M  RAD  1  11   2
M  END
