Coordinates from ORCA-job C6H6+NH2--N2+-scan
 OpenBabel10171807273D

 17 16  0  0  0  0  0  0  0  0999 V2000
    0.0426   -1.9706   -1.1062 N   0  0  0  0  0  0  0  0  0  0  0  0
   -0.8749   -2.1045   -0.4817 N   0  0  0  0  0  0  0  0  0  0  0  0
    0.9832   -1.8594   -1.8106 N   0  0  0  0  0  0  0  0  0  0  0  0
    0.9472   -2.2332   -2.8165 H   0  0  0  0  0  0  0  0  0  0  0  0
    1.8229   -1.4026   -1.4554 H   0  0  0  0  0  0  0  0  0  0  0  0
   -0.4610   -2.9157   -4.4515 C   0  0  0  0  0  0  0  0  0  0  0  0
    0.9354   -2.9390   -4.6087 C   0  0  0  0  0  0  0  0  0  0  0  0
    1.6202   -1.7616   -4.9524 C   0  0  0  0  0  0  0  0  0  0  0  0
    0.9151   -0.5688   -5.1168 C   0  0  0  0  0  0  0  0  0  0  0  0
   -0.4708   -0.5488   -4.9482 C   0  0  0  0  0  0  0  0  0  0  0  0
   -1.1593   -1.7185   -4.6165 C   0  0  0  0  0  0  0  0  0  0  0  0
   -0.9945   -3.8342   -4.2321 H   0  0  0  0  0  0  0  0  0  0  0  0
    1.4736   -3.8784   -4.5358 H   0  0  0  0  0  0  0  0  0  0  0  0
    2.6925   -1.7885   -5.1120 H   0  0  0  0  0  0  0  0  0  0  0  0
    1.4404    0.3366   -5.3975 H   0  0  0  0  0  0  0  0  0  0  0  0
   -1.0182    0.3754   -5.0941 H   0  0  0  0  0  0  0  0  0  0  0  0
   -2.2385   -1.7023   -4.5160 H   0  0  0  0  0  0  0  0  0  0  0  0
  1  2  1  0  0  0  0
  3  5  1  0  0  0  0
  3  1  1  0  0  0  0
  4  3  1  0  0  0  0
  6 12  1  0  0  0  0
  7 13  1  0  0  0  0
  7  6  2  0  0  0  0
  8  7  1  0  0  0  0
  9  8  2  0  0  0  0
  9 10  1  0  0  0  0
 10 11  2  0  0  0  0
 11 17  1  0  0  0  0
 11  6  1  0  0  0  0
 14  8  1  0  0  0  0
 15  9  1  0  0  0  0
 16 10  1  0  0  0  0
M  RAD  2   1   2   2   3
M  END
