Coordinates from ORCA-job C6H6+NH2--N2+-scan
 OpenBabel10171807273D

 17 16  0  0  1  0  0  0  0  0999 V2000
    1.6795   -1.4880    0.5483 N   0  0  0  0  0  0  0  0  0  0  0  0
    1.9539   -1.6051    1.6022 N   0  0  0  0  0  0  0  0  0  0  0  0
    1.2013   -2.1014   -2.4975 N   0  0  0  0  0  0  0  0  0  0  0  0
    0.4056   -2.0338   -1.8735 H   0  0  0  0  0  0  0  0  0  0  0  0
    1.9166   -1.4644   -2.1696 H   0  0  0  0  0  0  0  0  0  0  0  0
   -0.5570   -3.0242   -5.6052 C   0  0  0  0  0  0  0  0  0  0  0  0
    0.2984   -3.1083   -4.5363 C   0  0  0  0  0  0  0  0  0  0  0  0
    0.8328   -1.8972   -3.8793 C   0  0  1  0  0  0  0  0  0  0  0  0
    0.2303   -0.6141   -4.3211 C   0  0  0  0  0  0  0  0  0  0  0  0
   -0.6295   -0.5612   -5.3857 C   0  0  0  0  0  0  0  0  0  0  0  0
   -1.0194   -1.7609   -6.0173 C   0  0  0  0  0  0  0  0  0  0  0  0
   -0.9054   -3.9176   -6.1089 H   0  0  0  0  0  0  0  0  0  0  0  0
    0.6635   -4.0577   -4.1589 H   0  0  0  0  0  0  0  0  0  0  0  0
    1.7960   -1.8437   -4.4697 H   0  0  0  0  0  0  0  0  0  0  0  0
    0.5412    0.2878   -3.8028 H   0  0  0  0  0  0  0  0  0  0  0  0
   -1.0374    0.3827   -5.7268 H   0  0  0  0  0  0  0  0  0  0  0  0
   -1.7144   -1.7070   -6.8500 H   0  0  0  0  0  0  0  0  0  0  0  0
  1  2  3  0  0  0  0
  3  5  1  0  0  0  0
  3  4  1  0  0  0  0
  6  7  2  0  0  0  0
  7 13  1  0  0  0  0
  7  8  1  0  0  0  0
  8 14  1  6  0  0  0
  8  3  1  0  0  0  0
  9  8  1  0  0  0  0
  9 15  1  0  0  0  0
 10  9  2  0  0  0  0
 11  6  1  0  0  0  0
 11 10  1  0  0  0  0
 12  6  1  0  0  0  0
 16 10  1  0  0  0  0
 17 11  1  0  0  0  0
M  RAD  1  11   2
M  END
