Coordinates from ORCA-job C6H6+NH2--N2+-scan
 OpenBabel10171807273D

 17 16  0  0  1  0  0  0  0  0999 V2000
    3.3201   -0.1763   -2.7257 N   0  0  0  0  0  0  0  0  0  0  0  0
    4.2399    0.3903   -2.5447 N   0  0  0  0  0  0  0  0  0  0  0  0
   -0.7654   -3.3321   -2.2214 N   0  0  0  0  0  0  0  0  0  0  0  0
   -1.6985   -3.5825   -2.5299 H   0  0  0  0  0  0  0  0  0  0  0  0
   -0.8145   -2.9602   -1.2802 H   0  0  0  0  0  0  0  0  0  0  0  0
    0.7150   -2.4888   -5.4946 C   0  0  0  0  0  0  0  0  0  0  0  0
    0.5132   -3.1286   -4.2980 C   0  0  0  0  0  0  0  0  0  0  0  0
   -0.1136   -2.4380   -3.1530 C   0  0  1  0  0  0  0  0  0  0  0  0
   -0.6852   -1.1013   -3.4478 C   0  0  0  0  0  0  0  0  0  0  0  0
   -0.4752   -0.4901   -4.6553 C   0  0  0  0  0  0  0  0  0  0  0  0
    0.2176   -1.1847   -5.6687 C   0  0  0  0  0  0  0  0  0  0  0  0
    1.2197   -2.9884   -6.3124 H   0  0  0  0  0  0  0  0  0  0  0  0
    0.8522   -4.1435   -4.1184 H   0  0  0  0  0  0  0  0  0  0  0  0
    0.8540   -2.0967   -2.6733 H   0  0  0  0  0  0  0  0  0  0  0  0
   -1.2255   -0.6011   -2.6500 H   0  0  0  0  0  0  0  0  0  0  0  0
   -0.8609    0.5031   -4.8515 H   0  0  0  0  0  0  0  0  0  0  0  0
    0.3631   -0.6953   -6.6271 H   0  0  0  0  0  0  0  0  0  0  0  0
  1  2  3  0  0  0  0
  3  5  1  0  0  0  0
  4  3  1  0  0  0  0
  6  7  2  0  0  0  0
  7 13  1  0  0  0  0
  7  8  1  0  0  0  0
  8 14  1  1  0  0  0
  8  3  1  0  0  0  0
  9  8  1  0  0  0  0
  9 15  1  0  0  0  0
 10  9  2  0  0  0  0
 11  6  1  0  0  0  0
 11 10  1  0  0  0  0
 12  6  1  0  0  0  0
 16 10  1  0  0  0  0
 17 11  1  0  0  0  0
M  RAD  1  11   2
M  END
