Coordinates from ORCA-job C6H6+NH2--N2+-scan
 OpenBabel10171807273D

 17 16  0  0  1  0  0  0  0  0999 V2000
    3.0143   -0.8240   -1.9704 N   0  0  0  0  0  0  0  0  0  0  0  0
    3.9484   -0.4902   -1.5063 N   0  0  0  0  0  0  0  0  0  0  0  0
   -0.2614   -3.0354   -2.1153 N   0  0  0  0  0  0  0  0  0  0  0  0
   -1.1826   -3.4469   -2.2172 H   0  0  0  0  0  0  0  0  0  0  0  0
   -0.2149   -2.5365   -1.2348 H   0  0  0  0  0  0  0  0  0  0  0  0
    0.5799   -2.4830   -5.6707 C   0  0  0  0  0  0  0  0  0  0  0  0
    0.6404   -2.9746   -4.3900 C   0  0  0  0  0  0  0  0  0  0  0  0
    0.0932   -2.2162   -3.2513 C   0  0  1  0  0  0  0  0  0  0  0  0
   -0.6966   -1.0140   -3.6026 C   0  0  0  0  0  0  0  0  0  0  0  0
   -0.7439   -0.5481   -4.8906 C   0  0  0  0  0  0  0  0  0  0  0  0
   -0.1125   -1.2841   -5.9142 C   0  0  0  0  0  0  0  0  0  0  0  0
    1.0290   -3.0250   -6.4939 H   0  0  0  0  0  0  0  0  0  0  0  0
    1.1417   -3.9063   -4.1502 H   0  0  0  0  0  0  0  0  0  0  0  0
    1.0649   -1.6926   -2.9826 H   0  0  0  0  0  0  0  0  0  0  0  0
   -1.1843   -0.4799   -2.7930 H   0  0  0  0  0  0  0  0  0  0  0  0
   -1.2874    0.3566   -5.1355 H   0  0  0  0  0  0  0  0  0  0  0  0
   -0.1725   -0.9140   -6.9333 H   0  0  0  0  0  0  0  0  0  0  0  0
  1  2  3  0  0  0  0
  3  5  1  0  0  0  0
  4  3  1  0  0  0  0
  6  7  2  0  0  0  0
  7 13  1  0  0  0  0
  7  8  1  0  0  0  0
  8 14  1  1  0  0  0
  8  3  1  0  0  0  0
  9  8  1  0  0  0  0
  9 15  1  0  0  0  0
 10  9  2  0  0  0  0
 11  6  1  0  0  0  0
 11 10  1  0  0  0  0
 12  6  1  0  0  0  0
 16 10  1  0  0  0  0
 17 11  1  0  0  0  0
M  RAD  1  11   2
M  END
