Coordinates from ORCA-job C6H6+NH2--N2+-scan
 OpenBabel10171807273D

 17 16  0  0  1  0  0  0  0  0999 V2000
    1.5889   -1.9546    0.0361 N   0  0  0  0  0  0  0  0  0  0  0  0
    1.9567   -2.8460    0.5570 N   0  0  0  0  0  0  0  0  0  0  0  0
    1.0813   -1.6433   -2.3120 N   0  0  0  0  0  0  0  0  0  0  0  0
    0.2343   -1.4206   -1.8007 H   0  0  0  0  0  0  0  0  0  0  0  0
    1.7802   -0.9509   -2.0701 H   0  0  0  0  0  0  0  0  0  0  0  0
   -0.4990   -3.0889   -5.3131 C   0  0  0  0  0  0  0  0  0  0  0  0
    0.3103   -2.9874   -4.2117 C   0  0  0  0  0  0  0  0  0  0  0  0
    0.8238   -1.6809   -3.7485 C   0  0  1  0  0  0  0  0  0  0  0  0
    0.2542   -0.4940   -4.4326 C   0  0  0  0  0  0  0  0  0  0  0  0
   -0.5711   -0.6234   -5.5179 C   0  0  0  0  0  0  0  0  0  0  0  0
   -0.9410   -1.9138   -5.9509 C   0  0  0  0  0  0  0  0  0  0  0  0
   -0.8316   -4.0553   -5.6716 H   0  0  0  0  0  0  0  0  0  0  0  0
    0.6486   -3.8588   -3.6610 H   0  0  0  0  0  0  0  0  0  0  0  0
    1.8325   -1.7244   -4.2501 H   0  0  0  0  0  0  0  0  0  0  0  0
    0.5544    0.4842   -4.0695 H   0  0  0  0  0  0  0  0  0  0  0  0
   -0.9618    0.2479   -6.0295 H   0  0  0  0  0  0  0  0  0  0  0  0
   -1.6049   -2.0040   -6.8057 H   0  0  0  0  0  0  0  0  0  0  0  0
  1  2  3  0  0  0  0
  3  5  1  0  0  0  0
  3  4  1  0  0  0  0
  6  7  2  0  0  0  0
  7  8  1  0  0  0  0
  7 13  1  0  0  0  0
  8 14  1  6  0  0  0
  8  3  1  0  0  0  0
  9 15  1  0  0  0  0
  9  8  1  0  0  0  0
 10  9  2  0  0  0  0
 11 10  1  0  0  0  0
 11  6  1  0  0  0  0
 12  6  1  0  0  0  0
 16 10  1  0  0  0  0
 17 11  1  0  0  0  0
M  RAD  1  11   2
M  END
