Coordinates from ORCA-job C6H6+NH2--N2+-scan
 OpenBabel10171807273D

 17 16  0  0  1  0  0  0  0  0999 V2000
    3.0933   -0.6116   -2.2987 N   0  0  0  0  0  0  0  0  0  0  0  0
    4.0397   -0.1501   -1.9972 N   0  0  0  0  0  0  0  0  0  0  0  0
   -0.4797   -3.1675   -2.1463 N   0  0  0  0  0  0  0  0  0  0  0  0
   -1.4119   -3.5146   -2.3430 H   0  0  0  0  0  0  0  0  0  0  0  0
   -0.4743   -2.7248   -1.2350 H   0  0  0  0  0  0  0  0  0  0  0  0
    0.6538   -2.4730   -5.5919 C   0  0  0  0  0  0  0  0  0  0  0  0
    0.5969   -3.0334   -4.3400 C   0  0  0  0  0  0  0  0  0  0  0  0
    0.0080   -2.3066   -3.2000 C   0  0  1  0  0  0  0  0  0  0  0  0
   -0.6926   -1.0456   -3.5381 C   0  0  0  0  0  0  0  0  0  0  0  0
   -0.6249   -0.5123   -4.7984 C   0  0  0  0  0  0  0  0  0  0  0  0
    0.0412   -1.2273   -5.8151 C   0  0  0  0  0  0  0  0  0  0  0  0
    1.1327   -2.9947   -6.4113 H   0  0  0  0  0  0  0  0  0  0  0  0
    1.0310   -4.0027   -4.1185 H   0  0  0  0  0  0  0  0  0  0  0  0
    0.9831   -1.8503   -2.8390 H   0  0  0  0  0  0  0  0  0  0  0  0
   -1.2094   -0.5288   -2.7354 H   0  0  0  0  0  0  0  0  0  0  0  0
   -1.1038    0.4314   -5.0301 H   0  0  0  0  0  0  0  0  0  0  0  0
    0.0728   -0.8023   -6.8139 H   0  0  0  0  0  0  0  0  0  0  0  0
  1  2  3  0  0  0  0
  3  5  1  0  0  0  0
  4  3  1  0  0  0  0
  6  7  2  0  0  0  0
  7 13  1  0  0  0  0
  7  8  1  0  0  0  0
  8 14  1  1  0  0  0
  8  3  1  0  0  0  0
  9  8  1  0  0  0  0
  9 15  1  0  0  0  0
 10  9  2  0  0  0  0
 11  6  1  0  0  0  0
 11 10  1  0  0  0  0
 12  6  1  0  0  0  0
 16 10  1  0  0  0  0
 17 11  1  0  0  0  0
M  RAD  1  11   2
M  END
