Coordinates from ORCA-job C6H6+NH2--N2+-scan
 OpenBabel10171807273D

 17 16  0  0  1  0  0  0  0  0999 V2000
    1.6653   -1.7077    0.3801 N   0  0  0  0  0  0  0  0  0  0  0  0
    2.0309   -2.2272    1.2725 N   0  0  0  0  0  0  0  0  0  0  0  0
    1.1404   -1.8756   -2.4192 N   0  0  0  0  0  0  0  0  0  0  0  0
    0.3266   -1.7474   -1.8295 H   0  0  0  0  0  0  0  0  0  0  0  0
    1.8507   -1.2158   -2.1285 H   0  0  0  0  0  0  0  0  0  0  0  0
   -0.5369   -3.0580   -5.4835 C   0  0  0  0  0  0  0  0  0  0  0  0
    0.2915   -3.0518   -4.3904 C   0  0  0  0  0  0  0  0  0  0  0  0
    0.8145   -1.7900   -3.8260 C   0  0  1  0  0  0  0  0  0  0  0  0
    0.2293   -0.5484   -4.3916 C   0  0  0  0  0  0  0  0  0  0  0  0
   -0.6053   -0.5849   -5.4769 C   0  0  0  0  0  0  0  0  0  0  0  0
   -0.9843   -1.8334   -6.0131 C   0  0  0  0  0  0  0  0  0  0  0  0
   -0.8764   -3.9904   -5.9175 H   0  0  0  0  0  0  0  0  0  0  0  0
    0.6423   -3.9663   -3.9239 H   0  0  0  0  0  0  0  0  0  0  0  0
    1.7954   -1.7888   -4.3879 H   0  0  0  0  0  0  0  0  0  0  0  0
    0.5316    0.3941   -3.9456 H   0  0  0  0  0  0  0  0  0  0  0  0
   -1.0011    0.3272   -5.9072 H   0  0  0  0  0  0  0  0  0  0  0  0
   -1.6589   -1.8496   -6.8640 H   0  0  0  0  0  0  0  0  0  0  0  0
  1  2  3  0  0  0  0
  3  5  1  0  0  0  0
  3  4  1  0  0  0  0
  6  7  2  0  0  0  0
  7 13  1  0  0  0  0
  7  8  1  0  0  0  0
  8 14  1  6  0  0  0
  8  3  1  0  0  0  0
  9 15  1  0  0  0  0
  9  8  1  0  0  0  0
 10  9  2  0  0  0  0
 11  6  1  0  0  0  0
 11 10  1  0  0  0  0
 12  6  1  0  0  0  0
 16 10  1  0  0  0  0
 17 11  1  0  0  0  0
M  RAD  1  11   2
M  END
