Coordinates from ORCA-job C6H6+NH2--N2+-scan
 OpenBabel10171807273D

 17 16  0  0  1  0  0  0  0  0999 V2000
    3.4769    0.3302   -4.0881 N   0  0  0  0  0  0  0  0  0  0  0  0
    4.4235    0.8281   -3.8513 N   0  0  0  0  0  0  0  0  0  0  0  0
   -1.2640   -3.5693   -2.4673 N   0  0  0  0  0  0  0  0  0  0  0  0
   -2.1025   -3.6898   -3.0249 H   0  0  0  0  0  0  0  0  0  0  0  0
   -1.5275   -3.3311   -1.5183 H   0  0  0  0  0  0  0  0  0  0  0  0
    1.0087   -2.4101   -5.1288 C   0  0  0  0  0  0  0  0  0  0  0  0
    0.4949   -3.1888   -4.1248 C   0  0  0  0  0  0  0  0  0  0  0  0
   -0.3553   -2.6128   -3.0612 C   0  0  1  0  0  0  0  0  0  0  0  0
   -0.7758   -1.2045   -3.2743 C   0  0  0  0  0  0  0  0  0  0  0  0
   -0.2534   -0.4536   -4.2920 C   0  0  0  0  0  0  0  0  0  0  0  0
    0.6327   -1.0564   -5.2098 C   0  0  0  0  0  0  0  0  0  0  0  0
    1.6709   -2.8320   -5.8747 H   0  0  0  0  0  0  0  0  0  0  0  0
    0.7302   -4.2438   -4.0311 H   0  0  0  0  0  0  0  0  0  0  0  0
    0.4692   -2.4363   -2.3095 H   0  0  0  0  0  0  0  0  0  0  0  0
   -1.4697   -0.7761   -2.5575 H   0  0  0  0  0  0  0  0  0  0  0  0
   -0.5331    0.5853   -4.4188 H   0  0  0  0  0  0  0  0  0  0  0  0
    1.0300   -0.4533   -6.0199 H   0  0  0  0  0  0  0  0  0  0  0  0
  1  2  3  0  0  0  0
  3  5  1  0  0  0  0
  4  3  1  0  0  0  0
  6  7  2  0  0  0  0
  7 13  1  0  0  0  0
  7  8  1  0  0  0  0
  8  3  1  0  0  0  0
  8 14  1  1  0  0  0
  9  8  1  0  0  0  0
  9 15  1  0  0  0  0
 10  9  2  0  0  0  0
 11  6  1  0  0  0  0
 11 10  1  0  0  0  0
 12  6  1  0  0  0  0
 16 10  1  0  0  0  0
 17 11  1  0  0  0  0
M  RAD  1  11   2
M  END
