Coordinates from ORCA-job C6H6+NH2--N2+-scan
 OpenBabel10171807273D

 17 16  0  0  1  0  0  0  0  0999 V2000
    1.4483   -2.0247   -0.2168 N   0  0  0  0  0  0  0  0  0  0  0  0
    1.7745   -2.9836    0.2072 N   0  0  0  0  0  0  0  0  0  0  0  0
    1.0735   -1.5840   -2.2686 N   0  0  0  0  0  0  0  0  0  0  0  0
    0.1895   -1.2990   -1.8552 H   0  0  0  0  0  0  0  0  0  0  0  0
    1.7456   -0.8561   -2.0447 H   0  0  0  0  0  0  0  0  0  0  0  0
   -0.4768   -3.1027   -5.2335 C   0  0  0  0  0  0  0  0  0  0  0  0
    0.3806   -2.9797   -4.1747 C   0  0  0  0  0  0  0  0  0  0  0  0
    0.9014   -1.6626   -3.7489 C   0  0  1  0  0  0  0  0  0  0  0  0
    0.3181   -0.4930   -4.4447 C   0  0  0  0  0  0  0  0  0  0  0  0
   -0.5758   -0.6396   -5.4723 C   0  0  0  0  0  0  0  0  0  0  0  0
   -0.9607   -1.9376   -5.8649 C   0  0  0  0  0  0  0  0  0  0  0  0
   -0.8202   -4.0756   -5.5629 H   0  0  0  0  0  0  0  0  0  0  0  0
    0.7390   -3.8432   -3.6241 H   0  0  0  0  0  0  0  0  0  0  0  0
    1.9400   -1.7023   -4.1642 H   0  0  0  0  0  0  0  0  0  0  0  0
    0.6445    0.4925   -4.1263 H   0  0  0  0  0  0  0  0  0  0  0  0
   -0.9955    0.2221   -5.9770 H   0  0  0  0  0  0  0  0  0  0  0  0
   -1.6701   -2.0449   -6.6804 H   0  0  0  0  0  0  0  0  0  0  0  0
  1  2  3  0  0  0  0
  3  5  1  0  0  0  0
  3  4  1  0  0  0  0
  6  7  2  0  0  0  0
  7  8  1  0  0  0  0
  7 13  1  0  0  0  0
  8 14  1  6  0  0  0
  8  3  1  0  0  0  0
  9 15  1  0  0  0  0
  9  8  1  0  0  0  0
 10  9  2  0  0  0  0
 11 10  1  0  0  0  0
 11  6  1  0  0  0  0
 12  6  1  0  0  0  0
 16 10  1  0  0  0  0
 17 11  1  0  0  0  0
M  RAD  1  11   2
M  END
