Coordinates from ORCA-job C6H6+NH2--N2+-scan
 OpenBabel10171807273D

 17 16  0  0  1  0  0  0  0  0999 V2000
    3.2792   -0.2266   -2.6805 N   0  0  0  0  0  0  0  0  0  0  0  0
    4.1989    0.3385   -2.4941 N   0  0  0  0  0  0  0  0  0  0  0  0
   -0.7349   -3.3158   -2.2120 N   0  0  0  0  0  0  0  0  0  0  0  0
   -1.6696   -3.5740   -2.5089 H   0  0  0  0  0  0  0  0  0  0  0  0
   -0.7763   -2.9372   -1.2731 H   0  0  0  0  0  0  0  0  0  0  0  0
    0.7082   -2.4881   -5.5060 C   0  0  0  0  0  0  0  0  0  0  0  0
    0.5215   -3.1204   -4.3028 C   0  0  0  0  0  0  0  0  0  0  0  0
   -0.0981   -2.4251   -3.1569 C   0  0  1  0  0  0  0  0  0  0  0  0
   -0.6800   -1.0939   -3.4557 C   0  0  0  0  0  0  0  0  0  0  0  0
   -0.4850   -0.4902   -4.6695 C   0  0  0  0  0  0  0  0  0  0  0  0
    0.2017   -1.1881   -5.6846 C   0  0  0  0  0  0  0  0  0  0  0  0
    1.2078   -2.9908   -6.3250 H   0  0  0  0  0  0  0  0  0  0  0  0
    0.8680   -4.1320   -4.1192 H   0  0  0  0  0  0  0  0  0  0  0  0
    0.8729   -2.0741   -2.6905 H   0  0  0  0  0  0  0  0  0  0  0  0
   -1.2154   -0.5910   -2.6563 H   0  0  0  0  0  0  0  0  0  0  0  0
   -0.8783    0.4994   -4.8690 H   0  0  0  0  0  0  0  0  0  0  0  0
    0.3351   -0.7049   -6.6479 H   0  0  0  0  0  0  0  0  0  0  0  0
  1  2  3  0  0  0  0
  3  5  1  0  0  0  0
  4  3  1  0  0  0  0
  6  7  2  0  0  0  0
  7 13  1  0  0  0  0
  7  8  1  0  0  0  0
  8 14  1  1  0  0  0
  8  3  1  0  0  0  0
  9  8  1  0  0  0  0
  9 15  1  0  0  0  0
 10  9  2  0  0  0  0
 11  6  1  0  0  0  0
 11 10  1  0  0  0  0
 12  6  1  0  0  0  0
 16 10  1  0  0  0  0
 17 11  1  0  0  0  0
M  RAD  1  11   2
M  END
