Coordinates from ORCA-job C6H6+NH2--N2+-scan
 OpenBabel10171807273D

 17 16  0  0  1  0  0  0  0  0999 V2000
    1.5311   -1.9965   -0.1022 N   0  0  0  0  0  0  0  0  0  0  0  0
    1.8774   -2.9289    0.3601 N   0  0  0  0  0  0  0  0  0  0  0  0
    1.0778   -1.6090   -2.2843 N   0  0  0  0  0  0  0  0  0  0  0  0
    0.2158   -1.3516   -1.8140 H   0  0  0  0  0  0  0  0  0  0  0  0
    1.7686   -0.9022   -2.0566 H   0  0  0  0  0  0  0  0  0  0  0  0
   -0.4874   -3.0961   -5.2709 C   0  0  0  0  0  0  0  0  0  0  0  0
    0.3348   -2.9804   -4.1817 C   0  0  0  0  0  0  0  0  0  0  0  0
    0.8501   -1.6676   -3.7378 C   0  0  1  0  0  0  0  0  0  0  0  0
    0.2770   -0.4907   -4.4341 C   0  0  0  0  0  0  0  0  0  0  0  0
   -0.5692   -0.6325   -5.5015 C   0  0  0  0  0  0  0  0  0  0  0  0
   -0.9424   -1.9283   -5.9148 C   0  0  0  0  0  0  0  0  0  0  0  0
   -0.8225   -4.0668   -5.6150 H   0  0  0  0  0  0  0  0  0  0  0  0
    0.6781   -3.8458   -3.6244 H   0  0  0  0  0  0  0  0  0  0  0  0
    1.8702   -1.7130   -4.2090 H   0  0  0  0  0  0  0  0  0  0  0  0
    0.5851    0.4923   -4.0910 H   0  0  0  0  0  0  0  0  0  0  0  0
   -0.9689    0.2324   -6.0170 H   0  0  0  0  0  0  0  0  0  0  0  0
   -1.6196   -2.0295   -6.7578 H   0  0  0  0  0  0  0  0  0  0  0  0
  1  2  3  0  0  0  0
  3  5  1  0  0  0  0
  3  4  1  0  0  0  0
  6  7  2  0  0  0  0
  7  8  1  0  0  0  0
  7 13  1  0  0  0  0
  8 14  1  6  0  0  0
  8  3  1  0  0  0  0
  9 15  1  0  0  0  0
  9  8  1  0  0  0  0
 10  9  2  0  0  0  0
 11 10  1  0  0  0  0
 11  6  1  0  0  0  0
 12  6  1  0  0  0  0
 16 10  1  0  0  0  0
 17 11  1  0  0  0  0
M  RAD  1  11   2
M  END
