Coordinates from ORCA-job C6H6+NH2--N2+-scan
 OpenBabel10171807273D

 17 16  0  0  1  0  0  0  0  0999 V2000
    3.4566    0.1953   -3.5872 N   0  0  0  0  0  0  0  0  0  0  0  0
    4.4013    0.7237   -3.4184 N   0  0  0  0  0  0  0  0  0  0  0  0
   -1.1191   -3.5056   -2.3761 N   0  0  0  0  0  0  0  0  0  0  0  0
   -1.9986   -3.6632   -2.8561 H   0  0  0  0  0  0  0  0  0  0  0  0
   -1.3082   -3.2246   -1.4210 H   0  0  0  0  0  0  0  0  0  0  0  0
    0.9091   -2.4376   -5.2653 C   0  0  0  0  0  0  0  0  0  0  0  0
    0.4928   -3.1759   -4.1875 C   0  0  0  0  0  0  0  0  0  0  0  0
   -0.2817   -2.5635   -3.0879 C   0  0  1  0  0  0  0  0  0  0  0  0
   -0.7454   -1.1742   -3.3303 C   0  0  0  0  0  0  0  0  0  0  0  0
   -0.3212   -0.4643   -4.4210 C   0  0  0  0  0  0  0  0  0  0  0  0
    0.4994   -1.0964   -5.3787 C   0  0  0  0  0  0  0  0  0  0  0  0
    1.5175   -2.8843   -6.0420 H   0  0  0  0  0  0  0  0  0  0  0  0
    0.7561   -4.2211   -4.0635 H   0  0  0  0  0  0  0  0  0  0  0  0
    0.5990   -2.3348   -2.4176 H   0  0  0  0  0  0  0  0  0  0  0  0
   -1.3872   -0.7233   -2.5796 H   0  0  0  0  0  0  0  0  0  0  0  0
   -0.6310    0.5626   -4.5727 H   0  0  0  0  0  0  0  0  0  0  0  0
    0.8163   -0.5270   -6.2472 H   0  0  0  0  0  0  0  0  0  0  0  0
  1  2  3  0  0  0  0
  3  5  1  0  0  0  0
  4  3  1  0  0  0  0
  6  7  2  0  0  0  0
  7 13  1  0  0  0  0
  7  8  1  0  0  0  0
  8 14  1  1  0  0  0
  8  3  1  0  0  0  0
  9  8  1  0  0  0  0
  9 15  1  0  0  0  0
 10  9  2  0  0  0  0
 11  6  1  0  0  0  0
 11 10  1  0  0  0  0
 12  6  1  0  0  0  0
 16 10  1  0  0  0  0
 17 11  1  0  0  0  0
M  RAD  1  11   2
M  END
