Coordinates from ORCA-job C6H6+NH2--N2+-scan
 OpenBabel10171807273D

 17 16  0  0  0  0  0  0  0  0999 V2000
    0.9929   -1.7775   -0.4105 N   0  0  0  0  0  0  0  0  0  0  0  0
    1.7839   -1.7968    0.3591 N   0  0  0  0  0  0  0  0  0  0  0  0
    0.8904   -1.7913   -2.1487 N   0  0  0  0  0  0  0  0  0  0  0  0
    0.2296   -2.5780   -2.1819 H   0  0  0  0  0  0  0  0  0  0  0  0
    0.2851   -0.9620   -2.1978 H   0  0  0  0  0  0  0  0  0  0  0  0
   -0.5359   -3.0086   -5.1771 C   0  0  0  0  0  0  0  0  0  0  0  0
    0.6800   -3.0430   -4.5220 C   0  0  0  0  0  0  0  0  0  0  0  0
    1.3390   -1.8263   -4.1528 C   0  0  0  0  0  0  0  0  0  0  0  0
    0.7482   -0.5835   -4.5491 C   0  0  0  0  0  0  0  0  0  0  0  0
   -0.4683   -0.5648   -5.2040 C   0  0  0  0  0  0  0  0  0  0  0  0
   -1.1059   -1.7736   -5.5223 C   0  0  0  0  0  0  0  0  0  0  0  0
   -1.0370   -3.9299   -5.4484 H   0  0  0  0  0  0  0  0  0  0  0  0
    1.1526   -3.9901   -4.2844 H   0  0  0  0  0  0  0  0  0  0  0  0
    2.3987   -1.8533   -3.9335 H   0  0  0  0  0  0  0  0  0  0  0  0
    1.2729    0.3410   -4.3325 H   0  0  0  0  0  0  0  0  0  0  0  0
   -0.9177    0.3766   -5.4958 H   0  0  0  0  0  0  0  0  0  0  0  0
   -2.0528   -1.7532   -6.0503 H   0  0  0  0  0  0  0  0  0  0  0  0
  1  2  2  0  0  0  0
  3  1  1  0  0  0  0
  4  3  1  0  0  0  0
  5  3  1  0  0  0  0
  6  7  2  0  0  0  0
  7 13  1  0  0  0  0
  7  8  1  0  0  0  0
  8 14  1  0  0  0  0
  9 15  1  0  0  0  0
  9  8  2  0  0  0  0
 10  9  1  0  0  0  0
 11 10  2  0  0  0  0
 11  6  1  0  0  0  0
 12  6  1  0  0  0  0
 16 10  1  0  0  0  0
 17 11  1  0  0  0  0
M  RAD  1   2   2
M  END
