Coordinates from ORCA-job C6H6+NH2--N2+-scan
 OpenBabel10171807273D

 17 16  0  0  1  0  0  0  0  0999 V2000
    3.1450   -0.4459   -2.4738 N   0  0  0  0  0  0  0  0  0  0  0  0
    4.0724    0.0858   -2.2359 N   0  0  0  0  0  0  0  0  0  0  0  0
   -0.5942   -3.2377   -2.1723 N   0  0  0  0  0  0  0  0  0  0  0  0
   -1.5309   -3.5412   -2.4146 H   0  0  0  0  0  0  0  0  0  0  0  0
   -0.6065   -2.8249   -1.2471 H   0  0  0  0  0  0  0  0  0  0  0  0
    0.6772   -2.4820   -5.5549 C   0  0  0  0  0  0  0  0  0  0  0  0
    0.5606   -3.0774   -4.3238 C   0  0  0  0  0  0  0  0  0  0  0  0
   -0.0353   -2.3629   -3.1785 C   0  0  1  0  0  0  0  0  0  0  0  0
   -0.6753   -1.0645   -3.4976 C   0  0  0  0  0  0  0  0  0  0  0  0
   -0.5493   -0.4971   -4.7381 C   0  0  0  0  0  0  0  0  0  0  0  0
    0.1197   -1.2069   -5.7566 C   0  0  0  0  0  0  0  0  0  0  0  0
    1.1607   -2.9969   -6.3761 H   0  0  0  0  0  0  0  0  0  0  0  0
    0.9497   -4.0695   -4.1204 H   0  0  0  0  0  0  0  0  0  0  0  0
    0.9443   -1.9587   -2.7730 H   0  0  0  0  0  0  0  0  0  0  0  0
   -1.1957   -0.5520   -2.6944 H   0  0  0  0  0  0  0  0  0  0  0  0
   -0.9843    0.4713   -4.9543 H   0  0  0  0  0  0  0  0  0  0  0  0
    0.1978   -0.7536   -6.7403 H   0  0  0  0  0  0  0  0  0  0  0  0
  1  2  3  0  0  0  0
  3  5  1  0  0  0  0
  4  3  1  0  0  0  0
  6  7  2  0  0  0  0
  7 13  1  0  0  0  0
  7  8  1  0  0  0  0
  8 14  1  1  0  0  0
  8  3  1  0  0  0  0
  9  8  1  0  0  0  0
  9 15  1  0  0  0  0
 10  9  2  0  0  0  0
 11  6  1  0  0  0  0
 11 10  1  0  0  0  0
 12  6  1  0  0  0  0
 16 10  1  0  0  0  0
 17 11  1  0  0  0  0
M  RAD  1  11   2
M  END
