Coordinates from ORCA-job C6H6+NH2--N2+-scan
 OpenBabel10171807273D

 17 16  0  0  1  0  0  0  0  0999 V2000
    3.3449   -0.1463   -2.7533 N   0  0  0  0  0  0  0  0  0  0  0  0
    4.2649    0.4208   -2.5749 N   0  0  0  0  0  0  0  0  0  0  0  0
   -0.7836   -3.3417   -2.2271 N   0  0  0  0  0  0  0  0  0  0  0  0
   -1.7155   -3.5878   -2.5425 H   0  0  0  0  0  0  0  0  0  0  0  0
   -0.8373   -2.9737   -1.2846 H   0  0  0  0  0  0  0  0  0  0  0  0
    0.7192   -2.4891   -5.4877 C   0  0  0  0  0  0  0  0  0  0  0  0
    0.5082   -3.1334   -4.2950 C   0  0  0  0  0  0  0  0  0  0  0  0
   -0.1232   -2.4457   -3.1507 C   0  0  1  0  0  0  0  0  0  0  0  0
   -0.6887   -1.1058   -3.4432 C   0  0  0  0  0  0  0  0  0  0  0  0
   -0.4696   -0.4901   -4.6468 C   0  0  0  0  0  0  0  0  0  0  0  0
    0.2270   -1.1826   -5.6589 C   0  0  0  0  0  0  0  0  0  0  0  0
    1.2272   -2.9868   -6.3046 H   0  0  0  0  0  0  0  0  0  0  0  0
    0.8429   -4.1501   -4.1178 H   0  0  0  0  0  0  0  0  0  0  0  0
    0.8423   -2.1100   -2.6632 H   0  0  0  0  0  0  0  0  0  0  0  0
   -1.2321   -0.6073   -2.6464 H   0  0  0  0  0  0  0  0  0  0  0  0
   -0.8508    0.5051   -4.8410 H   0  0  0  0  0  0  0  0  0  0  0  0
    0.3799   -0.6895   -6.6143 H   0  0  0  0  0  0  0  0  0  0  0  0
  1  2  3  0  0  0  0
  3  5  1  0  0  0  0
  4  3  1  0  0  0  0
  6  7  2  0  0  0  0
  7 13  1  0  0  0  0
  7  8  1  0  0  0  0
  8 14  1  1  0  0  0
  8  3  1  0  0  0  0
  9  8  1  0  0  0  0
  9 15  1  0  0  0  0
 10  9  2  0  0  0  0
 11  6  1  0  0  0  0
 11 10  1  0  0  0  0
 12  6  1  0  0  0  0
 16 10  1  0  0  0  0
 17 11  1  0  0  0  0
M  RAD  1  11   2
M  END
