Coordinates from ORCA-job C6H6+NH2--N2+-scan
 OpenBabel10171807273D

 17 16  0  0  1  0  0  0  0  0999 V2000
    3.2416   -0.2780   -2.6327 N   0  0  0  0  0  0  0  0  0  0  0  0
    4.1617    0.2835   -2.4380 N   0  0  0  0  0  0  0  0  0  0  0  0
   -0.7028   -3.2985   -2.2024 N   0  0  0  0  0  0  0  0  0  0  0  0
   -1.6388   -3.5655   -2.4869 H   0  0  0  0  0  0  0  0  0  0  0  0
   -0.7365   -2.9126   -1.2662 H   0  0  0  0  0  0  0  0  0  0  0  0
    0.7008   -2.4872   -5.5178 C   0  0  0  0  0  0  0  0  0  0  0  0
    0.5301   -3.1114   -4.3079 C   0  0  0  0  0  0  0  0  0  0  0  0
   -0.0825   -2.4114   -3.1615 C   0  0  1  0  0  0  0  0  0  0  0  0
   -0.6761   -1.0865   -3.4645 C   0  0  0  0  0  0  0  0  0  0  0  0
   -0.4971   -0.4908   -4.6848 C   0  0  0  0  0  0  0  0  0  0  0  0
    0.1841   -1.1921   -5.7013 C   0  0  0  0  0  0  0  0  0  0  0  0
    1.1956   -2.9931   -6.3378 H   0  0  0  0  0  0  0  0  0  0  0  0
    0.8851   -4.1193   -4.1200 H   0  0  0  0  0  0  0  0  0  0  0  0
    0.8916   -2.0495   -2.7091 H   0  0  0  0  0  0  0  0  0  0  0  0
   -1.2069   -0.5810   -2.6637 H   0  0  0  0  0  0  0  0  0  0  0  0
   -0.8988    0.4946   -4.8879 H   0  0  0  0  0  0  0  0  0  0  0  0
    0.3048   -0.7154   -6.6696 H   0  0  0  0  0  0  0  0  0  0  0  0
  1  2  3  0  0  0  0
  3  5  1  0  0  0  0
  4  3  1  0  0  0  0
  6  7  2  0  0  0  0
  7 13  1  0  0  0  0
  7  8  1  0  0  0  0
  8 14  1  1  0  0  0
  8  3  1  0  0  0  0
  9  8  1  0  0  0  0
  9 15  1  0  0  0  0
 10  9  2  0  0  0  0
 11  6  1  0  0  0  0
 11 10  1  0  0  0  0
 12  6  1  0  0  0  0
 16 10  1  0  0  0  0
 17 11  1  0  0  0  0
M  RAD  1  11   2
M  END
