Coordinates from ORCA-job C6H6+NH2--N2+-scan
 OpenBabel10171807273D

 17 16  0  0  1  0  0  0  0  0999 V2000
    3.5738    0.5318   -4.4250 N   0  0  0  0  0  0  0  0  0  0  0  0
    4.5179    1.0527   -4.2318 N   0  0  0  0  0  0  0  0  0  0  0  0
   -1.3967   -3.6163   -2.5519 N   0  0  0  0  0  0  0  0  0  0  0  0
   -2.2029   -3.6869   -3.1632 H   0  0  0  0  0  0  0  0  0  0  0  0
   -1.7101   -3.4119   -1.6103 H   0  0  0  0  0  0  0  0  0  0  0  0
    1.0640   -2.4202   -5.0217 C   0  0  0  0  0  0  0  0  0  0  0  0
    0.4708   -3.2226   -4.0823 C   0  0  0  0  0  0  0  0  0  0  0  0
   -0.4259   -2.6649   -3.0473 C   0  0  1  0  0  0  0  0  0  0  0  0
   -0.7939   -1.2369   -3.2257 C   0  0  0  0  0  0  0  0  0  0  0  0
   -0.1924   -0.4621   -4.1796 C   0  0  0  0  0  0  0  0  0  0  0  0
    0.7291   -1.0539   -5.0698 C   0  0  0  0  0  0  0  0  0  0  0  0
    1.7578   -2.8311   -5.7446 H   0  0  0  0  0  0  0  0  0  0  0  0
    0.6712   -4.2871   -4.0188 H   0  0  0  0  0  0  0  0  0  0  0  0
    0.3541   -2.5456   -2.2396 H   0  0  0  0  0  0  0  0  0  0  0  0
   -1.5170   -0.8172   -2.5330 H   0  0  0  0  0  0  0  0  0  0  0  0
   -0.4356    0.5888   -4.2797 H   0  0  0  0  0  0  0  0  0  0  0  0
    1.1917   -0.4308   -5.8277 H   0  0  0  0  0  0  0  0  0  0  0  0
  1  2  3  0  0  0  0
  3  5  1  0  0  0  0
  4  3  1  0  0  0  0
  6  7  2  0  0  0  0
  7 13  1  0  0  0  0
  7  8  1  0  0  0  0
  8  3  1  0  0  0  0
  8 14  1  1  0  0  0
  9  8  1  0  0  0  0
  9 15  1  0  0  0  0
 10  9  2  0  0  0  0
 11  6  1  0  0  0  0
 11 10  1  0  0  0  0
 12  6  1  0  0  0  0
 16 10  1  0  0  0  0
 17 11  1  0  0  0  0
M  RAD  1  11   2
M  END
