Coordinates from ORCA-job C6H6+NH2--N2+-scan
 OpenBabel10171807273D

 17 16  0  0  1  0  0  0  0  0999 V2000
    1.6745   -1.5044    0.5190 N   0  0  0  0  0  0  0  0  0  0  0  0
    1.9505   -1.6292    1.5716 N   0  0  0  0  0  0  0  0  0  0  0  0
    1.1994   -2.0912   -2.4913 N   0  0  0  0  0  0  0  0  0  0  0  0
    0.4031   -2.0208   -1.8685 H   0  0  0  0  0  0  0  0  0  0  0  0
    1.9145   -1.4534   -2.1647 H   0  0  0  0  0  0  0  0  0  0  0  0
   -0.5554   -3.0257   -5.5975 C   0  0  0  0  0  0  0  0  0  0  0  0
    0.2990   -3.1057   -4.5274 C   0  0  0  0  0  0  0  0  0  0  0  0
    0.8328   -1.8923   -3.8744 C   0  0  1  0  0  0  0  0  0  0  0  0
    0.2310   -0.6108   -4.3217 C   0  0  0  0  0  0  0  0  0  0  0  0
   -0.6279   -0.5619   -5.3873 C   0  0  0  0  0  0  0  0  0  0  0  0
   -1.0173   -1.7639   -6.0147 C   0  0  0  0  0  0  0  0  0  0  0  0
   -0.9033   -3.9209   -6.0981 H   0  0  0  0  0  0  0  0  0  0  0  0
    0.6636   -4.0538   -4.1460 H   0  0  0  0  0  0  0  0  0  0  0  0
    1.7968   -1.8411   -4.4636 H   0  0  0  0  0  0  0  0  0  0  0  0
    0.5415    0.2930   -3.8067 H   0  0  0  0  0  0  0  0  0  0  0  0
   -1.0354    0.3808   -5.7324 H   0  0  0  0  0  0  0  0  0  0  0  0
   -1.7115   -1.7130   -6.8483 H   0  0  0  0  0  0  0  0  0  0  0  0
  1  2  3  0  0  0  0
  3  5  1  0  0  0  0
  3  4  1  0  0  0  0
  6  7  2  0  0  0  0
  7 13  1  0  0  0  0
  7  8  1  0  0  0  0
  8 14  1  6  0  0  0
  8  3  1  0  0  0  0
  9  8  1  0  0  0  0
  9 15  1  0  0  0  0
 10  9  2  0  0  0  0
 11  6  1  0  0  0  0
 11 10  1  0  0  0  0
 12  6  1  0  0  0  0
 16 10  1  0  0  0  0
 17 11  1  0  0  0  0
M  RAD  1  11   2
M  END
