Coordinates from ORCA-job C6H6+NH2--N2+-scan
 OpenBabel10171807273D

 17 16  0  0  1  0  0  0  0  0999 V2000
    1.1120   -1.9849   -0.4174 N   0  0  0  0  0  0  0  0  0  0  0  0
    1.5585   -2.8808    0.0408 N   0  0  0  0  0  0  0  0  0  0  0  0
    0.9723   -1.5590   -2.3271 N   0  0  0  0  0  0  0  0  0  0  0  0
   -0.0287   -1.4332   -2.1665 H   0  0  0  0  0  0  0  0  0  0  0  0
    1.4011   -0.6641   -2.0858 H   0  0  0  0  0  0  0  0  0  0  0  0
   -0.4662   -3.1060   -5.1361 C   0  0  0  0  0  0  0  0  0  0  0  0
    0.6029   -3.0289   -4.2974 C   0  0  0  0  0  0  0  0  0  0  0  0
    1.1672   -1.7244   -3.8900 C   0  0  1  0  0  0  0  0  0  0  0  0
    0.5498   -0.5439   -4.5065 C   0  0  0  0  0  0  0  0  0  0  0  0
   -0.5741   -0.6415   -5.2970 C   0  0  0  0  0  0  0  0  0  0  0  0
   -1.0640   -1.9128   -5.6217 C   0  0  0  0  0  0  0  0  0  0  0  0
   -0.8768   -4.0649   -5.4279 H   0  0  0  0  0  0  0  0  0  0  0  0
    1.0582   -3.9219   -3.8826 H   0  0  0  0  0  0  0  0  0  0  0  0
    2.2574   -1.7272   -4.0036 H   0  0  0  0  0  0  0  0  0  0  0  0
    0.9810    0.4267   -4.2809 H   0  0  0  0  0  0  0  0  0  0  0  0
   -1.0597    0.2444   -5.6871 H   0  0  0  0  0  0  0  0  0  0  0  0
   -1.9351   -1.9919   -6.2649 H   0  0  0  0  0  0  0  0  0  0  0  0
  1  2  3  0  0  0  0
  3  4  1  0  0  0  0
  3  5  1  0  0  0  0
  6  7  2  0  0  0  0
  7  8  1  0  0  0  0
  7 13  1  0  0  0  0
  8 14  1  6  0  0  0
  8  3  1  0  0  0  0
  9 15  1  0  0  0  0
  9  8  1  0  0  0  0
 10  9  2  0  0  0  0
 11 10  1  0  0  0  0
 11  6  1  0  0  0  0
 12  6  1  0  0  0  0
 16 10  1  0  0  0  0
 17 11  1  0  0  0  0
M  RAD  1  11   2
M  END
