Coordinates from ORCA-job C6H6+NH2--N2+-scan
 OpenBabel10171807273D

 17 16  0  0  1  0  0  0  0  0999 V2000
    3.4600    0.2908   -4.0133 N   0  0  0  0  0  0  0  0  0  0  0  0
    4.4075    0.7825   -3.7672 N   0  0  0  0  0  0  0  0  0  0  0  0
   -1.2346   -3.5580   -2.4495 N   0  0  0  0  0  0  0  0  0  0  0  0
   -2.0798   -3.6897   -2.9943 H   0  0  0  0  0  0  0  0  0  0  0  0
   -1.4866   -3.3123   -1.4993 H   0  0  0  0  0  0  0  0  0  0  0  0
    0.9952   -2.4093   -5.1520 C   0  0  0  0  0  0  0  0  0  0  0  0
    0.4990   -3.1821   -4.1347 C   0  0  0  0  0  0  0  0  0  0  0  0
   -0.3406   -2.6016   -3.0652 C   0  0  1  0  0  0  0  0  0  0  0  0
   -0.7725   -1.1978   -3.2852 C   0  0  0  0  0  0  0  0  0  0  0  0
   -0.2675   -0.4528   -4.3160 C   0  0  0  0  0  0  0  0  0  0  0  0
    0.6106   -1.0585   -5.2396 C   0  0  0  0  0  0  0  0  0  0  0  0
    1.6503   -2.8339   -5.9026 H   0  0  0  0  0  0  0  0  0  0  0  0
    0.7418   -4.2348   -4.0347 H   0  0  0  0  0  0  0  0  0  0  0  0
    0.4935   -2.4125   -2.3272 H   0  0  0  0  0  0  0  0  0  0  0  0
   -1.4596   -0.7672   -2.5633 H   0  0  0  0  0  0  0  0  0  0  0  0
   -0.5548    0.5833   -4.4481 H   0  0  0  0  0  0  0  0  0  0  0  0
    0.9940   -0.4601   -6.0599 H   0  0  0  0  0  0  0  0  0  0  0  0
  1  2  3  0  0  0  0
  3  5  1  0  0  0  0
  4  3  1  0  0  0  0
  6  7  2  0  0  0  0
  7 13  1  0  0  0  0
  7  8  1  0  0  0  0
  8  3  1  0  0  0  0
  8 14  1  1  0  0  0
  9  8  1  0  0  0  0
  9 15  1  0  0  0  0
 10  9  2  0  0  0  0
 11  6  1  0  0  0  0
 11 10  1  0  0  0  0
 12  6  1  0  0  0  0
 16 10  1  0  0  0  0
 17 11  1  0  0  0  0
M  RAD  1  11   2
M  END
