Coordinates from ORCA-job C6H6+NH2--N2+-scan
 OpenBabel10171807273D

 17 16  0  0  1  0  0  0  0  0999 V2000
    3.6201    0.5943   -4.4994 N   0  0  0  0  0  0  0  0  0  0  0  0
    4.5631    1.1264   -4.3332 N   0  0  0  0  0  0  0  0  0  0  0  0
   -1.4312   -3.6286   -2.5740 N   0  0  0  0  0  0  0  0  0  0  0  0
   -2.2290   -3.6848   -3.1977 H   0  0  0  0  0  0  0  0  0  0  0  0
   -1.7569   -3.4318   -1.6349 H   0  0  0  0  0  0  0  0  0  0  0  0
    1.0741   -2.4255   -4.9946 C   0  0  0  0  0  0  0  0  0  0  0  0
    0.4625   -3.2329   -4.0715 C   0  0  0  0  0  0  0  0  0  0  0  0
   -0.4455   -2.6793   -3.0441 C   0  0  1  0  0  0  0  0  0  0  0  0
   -0.8003   -1.2469   -3.2130 C   0  0  0  0  0  0  0  0  0  0  0  0
   -0.1805   -0.4672   -4.1512 C   0  0  0  0  0  0  0  0  0  0  0  0
    0.7483   -1.0568   -5.0351 C   0  0  0  0  0  0  0  0  0  0  0  0
    1.7750   -2.8346   -5.7119 H   0  0  0  0  0  0  0  0  0  0  0  0
    0.6549   -4.2993   -4.0159 H   0  0  0  0  0  0  0  0  0  0  0  0
    0.3227   -2.5749   -2.2231 H   0  0  0  0  0  0  0  0  0  0  0  0
   -1.5299   -0.8285   -2.5263 H   0  0  0  0  0  0  0  0  0  0  0  0
   -0.4156    0.5862   -4.2444 H   0  0  0  0  0  0  0  0  0  0  0  0
    1.2240   -0.4300   -5.7819 H   0  0  0  0  0  0  0  0  0  0  0  0
  1  2  3  0  0  0  0
  3  5  1  0  0  0  0
  4  3  1  0  0  0  0
  6  7  2  0  0  0  0
  7 13  1  0  0  0  0
  7  8  1  0  0  0  0
  8  3  1  0  0  0  0
  8 14  1  1  0  0  0
  9  8  1  0  0  0  0
  9 15  1  0  0  0  0
 10  9  2  0  0  0  0
 11  6  1  0  0  0  0
 11 10  1  0  0  0  0
 12  6  1  0  0  0  0
 16 10  1  0  0  0  0
 17 11  1  0  0  0  0
M  RAD  1  11   2
M  END
