Coordinates from ORCA-job C6H6+NH2--N2+-scan
 OpenBabel10171807273D

 17 16  0  0  1  0  0  0  0  0999 V2000
    1.6691   -1.5197    0.4890 N   0  0  0  0  0  0  0  0  0  0  0  0
    1.9462   -1.6501    1.5407 N   0  0  0  0  0  0  0  0  0  0  0  0
    1.1979   -2.0824   -2.4852 N   0  0  0  0  0  0  0  0  0  0  0  0
    0.4008   -2.0089   -1.8639 H   0  0  0  0  0  0  0  0  0  0  0  0
    1.9123   -1.4433   -2.1599 H   0  0  0  0  0  0  0  0  0  0  0  0
   -0.5538   -3.0269   -5.5901 C   0  0  0  0  0  0  0  0  0  0  0  0
    0.2998   -3.1035   -4.5191 C   0  0  0  0  0  0  0  0  0  0  0  0
    0.8331   -1.8880   -3.8697 C   0  0  1  0  0  0  0  0  0  0  0  0
    0.2319   -0.6080   -4.3218 C   0  0  0  0  0  0  0  0  0  0  0  0
   -0.6264   -0.5624   -5.3881 C   0  0  0  0  0  0  0  0  0  0  0  0
   -1.0153   -1.7665   -6.0118 C   0  0  0  0  0  0  0  0  0  0  0  0
   -0.9014   -3.9238   -6.0881 H   0  0  0  0  0  0  0  0  0  0  0  0
    0.6639   -4.0503   -4.1344 H   0  0  0  0  0  0  0  0  0  0  0  0
    1.7980   -1.8389   -4.4576 H   0  0  0  0  0  0  0  0  0  0  0  0
    0.5422    0.2976   -3.8096 H   0  0  0  0  0  0  0  0  0  0  0  0
   -1.0335    0.3791   -5.7365 H   0  0  0  0  0  0  0  0  0  0  0  0
   -1.7090   -1.7183   -6.8460 H   0  0  0  0  0  0  0  0  0  0  0  0
  1  2  3  0  0  0  0
  3  5  1  0  0  0  0
  3  4  1  0  0  0  0
  6  7  2  0  0  0  0
  7 13  1  0  0  0  0
  7  8  1  0  0  0  0
  8 14  1  6  0  0  0
  8  3  1  0  0  0  0
  9  8  1  0  0  0  0
  9 15  1  0  0  0  0
 10  9  2  0  0  0  0
 11  6  1  0  0  0  0
 11 10  1  0  0  0  0
 12  6  1  0  0  0  0
 16 10  1  0  0  0  0
 17 11  1  0  0  0  0
M  RAD  1  11   2
M  END
