Coordinates from ORCA-job C6H6+NH2--N2+-scan
 OpenBabel10171807273D

 17 16  0  0  1  0  0  0  0  0999 V2000
    1.2801   -2.0182   -0.3181 N   0  0  0  0  0  0  0  0  0  0  0  0
    1.6402   -2.9656    0.1081 N   0  0  0  0  0  0  0  0  0  0  0  0
    1.0409   -1.5706   -2.2854 N   0  0  0  0  0  0  0  0  0  0  0  0
    0.0958   -1.3278   -1.9919 H   0  0  0  0  0  0  0  0  0  0  0  0
    1.6214   -0.7698   -2.0430 H   0  0  0  0  0  0  0  0  0  0  0  0
   -0.4696   -3.1074   -5.1888 C   0  0  0  0  0  0  0  0  0  0  0  0
    0.4900   -2.9985   -4.2255 C   0  0  0  0  0  0  0  0  0  0  0  0
    1.0307   -1.6835   -3.8146 C   0  0  1  0  0  0  0  0  0  0  0  0
    0.4271   -0.5127   -4.4803 C   0  0  0  0  0  0  0  0  0  0  0  0
   -0.5860   -0.6417   -5.3966 C   0  0  0  0  0  0  0  0  0  0  0  0
   -1.0167   -1.9317   -5.7559 C   0  0  0  0  0  0  0  0  0  0  0  0
   -0.8436   -4.0756   -5.4981 H   0  0  0  0  0  0  0  0  0  0  0  0
    0.8940   -3.8725   -3.7250 H   0  0  0  0  0  0  0  0  0  0  0  0
    2.1034   -1.7036   -4.0888 H   0  0  0  0  0  0  0  0  0  0  0  0
    0.8045    0.4680   -4.2068 H   0  0  0  0  0  0  0  0  0  0  0  0
   -1.0468    0.2275   -5.8498 H   0  0  0  0  0  0  0  0  0  0  0  0
   -1.8096   -2.0306   -6.4914 H   0  0  0  0  0  0  0  0  0  0  0  0
  1  2  3  0  0  0  0
  3  5  1  0  0  0  0
  3  4  1  0  0  0  0
  6  7  2  0  0  0  0
  7  8  1  0  0  0  0
  7 13  1  0  0  0  0
  8 14  1  6  0  0  0
  8  3  1  0  0  0  0
  9 15  1  0  0  0  0
  9  8  1  0  0  0  0
 10  9  2  0  0  0  0
 11 10  1  0  0  0  0
 11  6  1  0  0  0  0
 12  6  1  0  0  0  0
 16 10  1  0  0  0  0
 17 11  1  0  0  0  0
M  RAD  1  11   2
M  END
