Coordinates from ORCA-job C6H6+NH2--N2+-scan
 OpenBabel10171807273D

 17 16  0  0  1  0  0  0  0  0999 V2000
    3.1601   -0.4120   -2.5074 N   0  0  0  0  0  0  0  0  0  0  0  0
    4.0850    0.1289   -2.2805 N   0  0  0  0  0  0  0  0  0  0  0  0
   -0.6168   -3.2508   -2.1782 N   0  0  0  0  0  0  0  0  0  0  0  0
   -1.5539   -3.5458   -2.4294 H   0  0  0  0  0  0  0  0  0  0  0  0
   -0.6330   -2.8438   -1.2505 H   0  0  0  0  0  0  0  0  0  0  0  0
    0.6821   -2.4834   -5.5474 C   0  0  0  0  0  0  0  0  0  0  0  0
    0.5540   -3.0851   -4.3206 C   0  0  0  0  0  0  0  0  0  0  0  0
   -0.0444   -2.3734   -3.1747 C   0  0  1  0  0  0  0  0  0  0  0  0
   -0.6737   -1.0687   -3.4902 C   0  0  0  0  0  0  0  0  0  0  0  0
   -0.5365   -0.4951   -4.7266 C   0  0  0  0  0  0  0  0  0  0  0  0
    0.1341   -1.2035   -5.7451 C   0  0  0  0  0  0  0  0  0  0  0  0
    1.1672   -2.9966   -6.3686 H   0  0  0  0  0  0  0  0  0  0  0  0
    0.9352   -4.0810   -4.1206 H   0  0  0  0  0  0  0  0  0  0  0  0
    0.9348   -1.9788   -2.7597 H   0  0  0  0  0  0  0  0  0  0  0  0
   -1.1956   -0.5574   -2.6872 H   0  0  0  0  0  0  0  0  0  0  0  0
   -0.9638    0.4773   -4.9399 H   0  0  0  0  0  0  0  0  0  0  0  0
    0.2212   -0.7451   -6.7256 H   0  0  0  0  0  0  0  0  0  0  0  0
  1  2  3  0  0  0  0
  3  5  1  0  0  0  0
  4  3  1  0  0  0  0
  6  7  2  0  0  0  0
  7 13  1  0  0  0  0
  7  8  1  0  0  0  0
  8 14  1  1  0  0  0
  8  3  1  0  0  0  0
  9  8  1  0  0  0  0
  9 15  1  0  0  0  0
 10  9  2  0  0  0  0
 11  6  1  0  0  0  0
 11 10  1  0  0  0  0
 12  6  1  0  0  0  0
 16 10  1  0  0  0  0
 17 11  1  0  0  0  0
M  RAD  1  11   2
M  END
