Coordinates from ORCA-job C6H6+NH2--N2+-scan
 OpenBabel10171807273D

 17 16  0  0  1  0  0  0  0  0999 V2000
    3.1125   -0.5395   -2.3775 N   0  0  0  0  0  0  0  0  0  0  0  0
    4.0496   -0.0424   -2.1051 N   0  0  0  0  0  0  0  0  0  0  0  0
   -0.5302   -3.1994   -2.1568 N   0  0  0  0  0  0  0  0  0  0  0  0
   -1.4646   -3.5281   -2.3741 H   0  0  0  0  0  0  0  0  0  0  0  0
   -0.5331   -2.7695   -1.2394 H   0  0  0  0  0  0  0  0  0  0  0  0
    0.6639   -2.4773   -5.5756 C   0  0  0  0  0  0  0  0  0  0  0  0
    0.5801   -3.0538   -4.3327 C   0  0  0  0  0  0  0  0  0  0  0  0
   -0.0110   -2.3322   -3.1901 C   0  0  1  0  0  0  0  0  0  0  0  0
   -0.6837   -1.0536   -3.5198 C   0  0  0  0  0  0  0  0  0  0  0  0
   -0.5896   -0.5045   -4.7715 C   0  0  0  0  0  0  0  0  0  0  0  0
    0.0770   -1.2176   -5.7893 C   0  0  0  0  0  0  0  0  0  0  0  0
    1.1443   -2.9962   -6.3960 H   0  0  0  0  0  0  0  0  0  0  0  0
    0.9936   -4.0339   -4.1192 H   0  0  0  0  0  0  0  0  0  0  0  0
    0.9673   -1.8992   -2.8105 H   0  0  0  0  0  0  0  0  0  0  0  0
   -1.2017   -0.5385   -2.7167 H   0  0  0  0  0  0  0  0  0  0  0  0
   -1.0482    0.4510   -4.9963 H   0  0  0  0  0  0  0  0  0  0  0  0
    0.1295   -0.7795   -6.7815 H   0  0  0  0  0  0  0  0  0  0  0  0
  1  2  3  0  0  0  0
  3  5  1  0  0  0  0
  4  3  1  0  0  0  0
  6  7  2  0  0  0  0
  7 13  1  0  0  0  0
  7  8  1  0  0  0  0
  8 14  1  1  0  0  0
  8  3  1  0  0  0  0
  9  8  1  0  0  0  0
  9 15  1  0  0  0  0
 10  9  2  0  0  0  0
 11  6  1  0  0  0  0
 11 10  1  0  0  0  0
 12  6  1  0  0  0  0
 16 10  1  0  0  0  0
 17 11  1  0  0  0  0
M  RAD  1  11   2
M  END
