Coordinates from ORCA-job C6H6+NH2--N2+-scan
 OpenBabel10171807273D

 17 16  0  0  1  0  0  0  0  0999 V2000
    1.7211   -1.3335    0.7663 N   0  0  0  0  0  0  0  0  0  0  0  0
    1.9757   -1.3534    1.8315 N   0  0  0  0  0  0  0  0  0  0  0  0
    1.2134   -2.2059   -2.5475 N   0  0  0  0  0  0  0  0  0  0  0  0
    0.4197   -2.1644   -1.9178 H   0  0  0  0  0  0  0  0  0  0  0  0
    1.9285   -1.5765   -2.2025 H   0  0  0  0  0  0  0  0  0  0  0  0
   -0.5678   -3.0078   -5.6759 C   0  0  0  0  0  0  0  0  0  0  0  0
    0.2955   -3.1328   -4.6173 C   0  0  0  0  0  0  0  0  0  0  0  0
    0.8333   -1.9476   -3.9175 C   0  0  1  0  0  0  0  0  0  0  0  0
    0.2257   -0.6490   -4.3030 C   0  0  0  0  0  0  0  0  0  0  0  0
   -0.6418   -0.5555   -5.3586 C   0  0  0  0  0  0  0  0  0  0  0  0
   -1.0347   -1.7299   -6.0343 C   0  0  0  0  0  0  0  0  0  0  0  0
   -0.9187   -3.8811   -6.2119 H   0  0  0  0  0  0  0  0  0  0  0  0
    0.6647   -4.0959   -4.2806 H   0  0  0  0  0  0  0  0  0  0  0  0
    1.7916   -1.8695   -4.5131 H   0  0  0  0  0  0  0  0  0  0  0  0
    0.5389    0.2321   -3.7515 H   0  0  0  0  0  0  0  0  0  0  0  0
   -1.0534    0.4006   -5.6591 H   0  0  0  0  0  0  0  0  0  0  0  0
   -1.7358   -1.6441   -6.8592 H   0  0  0  0  0  0  0  0  0  0  0  0
  1  2  3  0  0  0  0
  3  5  1  0  0  0  0
  3  4  1  0  0  0  0
  6  7  2  0  0  0  0
  7 13  1  0  0  0  0
  7  8  1  0  0  0  0
  8 14  1  6  0  0  0
  8  3  1  0  0  0  0
  9  8  1  0  0  0  0
  9 15  1  0  0  0  0
 10  9  2  0  0  0  0
 11  6  1  0  0  0  0
 11 10  1  0  0  0  0
 12  6  1  0  0  0  0
 16 10  1  0  0  0  0
 17 11  1  0  0  0  0
M  RAD  1  11   2
M  END
