Coordinates from ORCA-job C6H6+NH2--N2+-scan
 OpenBabel10171807273D

 17 16  0  0  1  0  0  0  0  0999 V2000
    3.3572   -0.1314   -2.7676 N   0  0  0  0  0  0  0  0  0  0  0  0
    4.2773    0.4360   -2.5905 N   0  0  0  0  0  0  0  0  0  0  0  0
   -0.7927   -3.3465   -2.2300 N   0  0  0  0  0  0  0  0  0  0  0  0
   -1.7240   -3.5905   -2.5488 H   0  0  0  0  0  0  0  0  0  0  0  0
   -0.8489   -2.9805   -1.2869 H   0  0  0  0  0  0  0  0  0  0  0  0
    0.7214   -2.4892   -5.4840 C   0  0  0  0  0  0  0  0  0  0  0  0
    0.5057   -3.1358   -4.2935 C   0  0  0  0  0  0  0  0  0  0  0  0
   -0.1280   -2.4496   -3.1496 C   0  0  1  0  0  0  0  0  0  0  0  0
   -0.6905   -1.1081   -3.4408 C   0  0  0  0  0  0  0  0  0  0  0  0
   -0.4667   -0.4901   -4.6423 C   0  0  0  0  0  0  0  0  0  0  0  0
    0.2320   -1.1815   -5.6539 C   0  0  0  0  0  0  0  0  0  0  0  0
    1.2311   -2.9859   -6.3005 H   0  0  0  0  0  0  0  0  0  0  0  0
    0.8382   -4.1535   -4.1175 H   0  0  0  0  0  0  0  0  0  0  0  0
    0.8364   -2.1166   -2.6582 H   0  0  0  0  0  0  0  0  0  0  0  0
   -1.2356   -0.6105   -2.6446 H   0  0  0  0  0  0  0  0  0  0  0  0
   -0.8456    0.5062   -4.8356 H   0  0  0  0  0  0  0  0  0  0  0  0
    0.3886   -0.6866   -6.6077 H   0  0  0  0  0  0  0  0  0  0  0  0
  1  2  3  0  0  0  0
  3  5  1  0  0  0  0
  4  3  1  0  0  0  0
  6  7  2  0  0  0  0
  7 13  1  0  0  0  0
  7  8  1  0  0  0  0
  8 14  1  1  0  0  0
  8  3  1  0  0  0  0
  9  8  1  0  0  0  0
  9 15  1  0  0  0  0
 10  9  2  0  0  0  0
 11  6  1  0  0  0  0
 11 10  1  0  0  0  0
 12  6  1  0  0  0  0
 16 10  1  0  0  0  0
 17 11  1  0  0  0  0
M  RAD  1  11   2
M  END
