Coordinates from ORCA-job C6H6+NH2--N2+-scan
 OpenBabel10171807273D

 17 16  0  0  1  0  0  0  0  0999 V2000
    3.4689    0.2047   -3.5915 N   0  0  0  0  0  0  0  0  0  0  0  0
    4.4135    0.7339   -3.4248 N   0  0  0  0  0  0  0  0  0  0  0  0
   -1.1232   -3.5076   -2.3778 N   0  0  0  0  0  0  0  0  0  0  0  0
   -2.0023   -3.6639   -2.8591 H   0  0  0  0  0  0  0  0  0  0  0  0
   -1.3132   -3.2276   -1.4226 H   0  0  0  0  0  0  0  0  0  0  0  0
    0.9090   -2.4383   -5.2635 C   0  0  0  0  0  0  0  0  0  0  0  0
    0.4913   -3.1771   -4.1867 C   0  0  0  0  0  0  0  0  0  0  0  0
   -0.2842   -2.5653   -3.0875 C   0  0  1  0  0  0  0  0  0  0  0  0
   -0.7470   -1.1756   -3.3294 C   0  0  0  0  0  0  0  0  0  0  0  0
   -0.3216   -0.4652   -4.4193 C   0  0  0  0  0  0  0  0  0  0  0  0
    0.4997   -1.0970   -5.3766 C   0  0  0  0  0  0  0  0  0  0  0  0
    1.5181   -2.8847   -6.0399 H   0  0  0  0  0  0  0  0  0  0  0  0
    0.7542   -4.2225   -4.0631 H   0  0  0  0  0  0  0  0  0  0  0  0
    0.5956   -2.3378   -2.4156 H   0  0  0  0  0  0  0  0  0  0  0  0
   -1.3894   -0.7249   -2.5790 H   0  0  0  0  0  0  0  0  0  0  0  0
   -0.6309    0.5619   -4.5707 H   0  0  0  0  0  0  0  0  0  0  0  0
    0.8174   -0.5272   -6.2446 H   0  0  0  0  0  0  0  0  0  0  0  0
  1  2  3  0  0  0  0
  3  5  1  0  0  0  0
  4  3  1  0  0  0  0
  6  7  2  0  0  0  0
  7 13  1  0  0  0  0
  7  8  1  0  0  0  0
  8 14  1  1  0  0  0
  8  3  1  0  0  0  0
  9  8  1  0  0  0  0
  9 15  1  0  0  0  0
 10  9  2  0  0  0  0
 11  6  1  0  0  0  0
 11 10  1  0  0  0  0
 12  6  1  0  0  0  0
 16 10  1  0  0  0  0
 17 11  1  0  0  0  0
M  RAD  1  11   2
M  END
