Coordinates from ORCA-job C6H6+NH2--N2+-scan
 OpenBabel10171807273D

 17 16  0  0  1  0  0  0  0  0999 V2000
    3.3850    0.1444   -3.5696 N   0  0  0  0  0  0  0  0  0  0  0  0
    4.3299    0.6692   -3.3910 N   0  0  0  0  0  0  0  0  0  0  0  0
   -1.0977   -3.4951   -2.3667 N   0  0  0  0  0  0  0  0  0  0  0  0
   -1.9797   -3.6607   -2.8394 H   0  0  0  0  0  0  0  0  0  0  0  0
   -1.2814   -3.2089   -1.4121 H   0  0  0  0  0  0  0  0  0  0  0  0
    0.9113   -2.4335   -5.2730 C   0  0  0  0  0  0  0  0  0  0  0  0
    0.4994   -3.1697   -4.1921 C   0  0  0  0  0  0  0  0  0  0  0  0
   -0.2699   -2.5546   -3.0906 C   0  0  1  0  0  0  0  0  0  0  0  0
   -0.7373   -1.1671   -3.3350 C   0  0  0  0  0  0  0  0  0  0  0  0
   -0.3167   -0.4591   -4.4284 C   0  0  0  0  0  0  0  0  0  0  0  0
    0.5018   -1.0924   -5.3869 C   0  0  0  0  0  0  0  0  0  0  0  0
    1.5173   -2.8815   -6.0509 H   0  0  0  0  0  0  0  0  0  0  0  0
    0.7641   -4.2144   -4.0664 H   0  0  0  0  0  0  0  0  0  0  0  0
    0.6166   -2.3192   -2.4295 H   0  0  0  0  0  0  0  0  0  0  0  0
   -1.3772   -0.7153   -2.5832 H   0  0  0  0  0  0  0  0  0  0  0  0
   -0.6272    0.5674   -4.5810 H   0  0  0  0  0  0  0  0  0  0  0  0
    0.8176   -0.5238   -6.2563 H   0  0  0  0  0  0  0  0  0  0  0  0
  1  2  3  0  0  0  0
  3  5  1  0  0  0  0
  4  3  1  0  0  0  0
  6  7  2  0  0  0  0
  7 13  1  0  0  0  0
  7  8  1  0  0  0  0
  8 14  1  1  0  0  0
  8  3  1  0  0  0  0
  9  8  1  0  0  0  0
  9 15  1  0  0  0  0
 10  9  2  0  0  0  0
 11  6  1  0  0  0  0
 11 10  1  0  0  0  0
 12  6  1  0  0  0  0
 16 10  1  0  0  0  0
 17 11  1  0  0  0  0
M  RAD  1  11   2
M  END
