Coordinates from ORCA-job C6H6+NH2--N2+-scan
 OpenBabel10171807273D

 17 16  0  0  1  0  0  0  0  0999 V2000
    3.5683    0.5108   -4.3835 N   0  0  0  0  0  0  0  0  0  0  0  0
    4.5126    1.0279   -4.1812 N   0  0  0  0  0  0  0  0  0  0  0  0
   -1.3811   -3.6114   -2.5410 N   0  0  0  0  0  0  0  0  0  0  0  0
   -2.1916   -3.6870   -3.1460 H   0  0  0  0  0  0  0  0  0  0  0  0
   -1.6883   -3.4029   -1.5983 H   0  0  0  0  0  0  0  0  0  0  0  0
    1.0563   -2.4192   -5.0355 C   0  0  0  0  0  0  0  0  0  0  0  0
    0.4739   -3.2187   -4.0870 C   0  0  0  0  0  0  0  0  0  0  0  0
   -0.4171   -2.6589   -3.0481 C   0  0  1  0  0  0  0  0  0  0  0  0
   -0.7917   -1.2332   -3.2312 C   0  0  0  0  0  0  0  0  0  0  0  0
   -0.2009   -0.4614   -4.1943 C   0  0  0  0  0  0  0  0  0  0  0  0
    0.7153   -1.0546   -5.0889 C   0  0  0  0  0  0  0  0  0  0  0  0
    1.7458   -2.8317   -5.7617 H   0  0  0  0  0  0  0  0  0  0  0  0
    0.6790   -4.2820   -4.0196 H   0  0  0  0  0  0  0  0  0  0  0  0
    0.3683   -2.5330   -2.2466 H   0  0  0  0  0  0  0  0  0  0  0  0
   -1.5108   -0.8122   -2.5352 H   0  0  0  0  0  0  0  0  0  0  0  0
   -0.4494    0.5878   -4.2982 H   0  0  0  0  0  0  0  0  0  0  0  0
    1.1672   -0.4345   -5.8558 H   0  0  0  0  0  0  0  0  0  0  0  0
  1  2  3  0  0  0  0
  3  5  1  0  0  0  0
  4  3  1  0  0  0  0
  6  7  2  0  0  0  0
  7 13  1  0  0  0  0
  7  8  1  0  0  0  0
  8  3  1  0  0  0  0
  8 14  1  1  0  0  0
  9  8  1  0  0  0  0
  9 15  1  0  0  0  0
 10  9  2  0  0  0  0
 11  6  1  0  0  0  0
 11 10  1  0  0  0  0
 12  6  1  0  0  0  0
 16 10  1  0  0  0  0
 17 11  1  0  0  0  0
M  RAD  1  11   2
M  END
