Coordinates from ORCA-job C6H6+NH2--N2+-scan
 OpenBabel10171807273D

 17 16  0  0  1  0  0  0  0  0999 V2000
    1.6990   -1.4163    0.6611 N   0  0  0  0  0  0  0  0  0  0  0  0
    1.9641   -1.4901    1.7213 N   0  0  0  0  0  0  0  0  0  0  0  0
    1.2088   -2.1490   -2.5230 N   0  0  0  0  0  0  0  0  0  0  0  0
    0.4150   -2.0935   -1.8951 H   0  0  0  0  0  0  0  0  0  0  0  0
    1.9244   -1.5156   -2.1879 H   0  0  0  0  0  0  0  0  0  0  0  0
   -0.5632   -3.0171   -5.6387 C   0  0  0  0  0  0  0  0  0  0  0  0
    0.2968   -3.1198   -4.5749 C   0  0  0  0  0  0  0  0  0  0  0  0
    0.8334   -1.9203   -3.8991 C   0  0  1  0  0  0  0  0  0  0  0  0
    0.2282   -0.6298   -4.3149 C   0  0  0  0  0  0  0  0  0  0  0  0
   -0.6360   -0.5584   -5.3749 C   0  0  0  0  0  0  0  0  0  0  0  0
   -1.0278   -1.7469   -6.0262 C   0  0  0  0  0  0  0  0  0  0  0  0
   -0.9132   -3.9016   -6.1567 H   0  0  0  0  0  0  0  0  0  0  0  0
    0.6640   -4.0756   -4.2162 H   0  0  0  0  0  0  0  0  0  0  0  0
    1.7936   -1.8557   -4.4931 H   0  0  0  0  0  0  0  0  0  0  0  0
    0.5406    0.2628   -3.7817 H   0  0  0  0  0  0  0  0  0  0  0  0
   -1.0457    0.3912   -5.6973 H   0  0  0  0  0  0  0  0  0  0  0  0
   -1.7263   -1.6785   -6.8549 H   0  0  0  0  0  0  0  0  0  0  0  0
  1  2  3  0  0  0  0
  3  5  1  0  0  0  0
  3  4  1  0  0  0  0
  6  7  2  0  0  0  0
  7 13  1  0  0  0  0
  7  8  1  0  0  0  0
  8 14  1  6  0  0  0
  8  3  1  0  0  0  0
  9  8  1  0  0  0  0
  9 15  1  0  0  0  0
 10  9  2  0  0  0  0
 11  6  1  0  0  0  0
 11 10  1  0  0  0  0
 12  6  1  0  0  0  0
 16 10  1  0  0  0  0
 17 11  1  0  0  0  0
M  RAD  1  11   2
M  END
