Coordinates from ORCA-job C6H6+NH2--N2+-scan
 OpenBabel10171807273D

 17 16  0  0  0  0  0  0  0  0999 V2000
    0.9733   -1.7763   -0.4053 N   0  0  0  0  0  0  0  0  0  0  0  0
    1.7348   -1.7911    0.3939 N   0  0  0  0  0  0  0  0  0  0  0  0
    0.8960   -1.7918   -2.1247 N   0  0  0  0  0  0  0  0  0  0  0  0
    0.2417   -2.5829   -2.1811 H   0  0  0  0  0  0  0  0  0  0  0  0
    0.2913   -0.9636   -2.1980 H   0  0  0  0  0  0  0  0  0  0  0  0
   -0.5375   -3.0073   -5.1737 C   0  0  0  0  0  0  0  0  0  0  0  0
    0.6911   -3.0422   -4.5397 C   0  0  0  0  0  0  0  0  0  0  0  0
    1.3557   -1.8274   -4.1890 C   0  0  0  0  0  0  0  0  0  0  0  0
    0.7597   -0.5853   -4.5664 C   0  0  0  0  0  0  0  0  0  0  0  0
   -0.4693   -0.5653   -5.2002 C   0  0  0  0  0  0  0  0  0  0  0  0
   -1.1136   -1.7727   -5.5079 C   0  0  0  0  0  0  0  0  0  0  0  0
   -1.0431   -3.9286   -5.4363 H   0  0  0  0  0  0  0  0  0  0  0  0
    1.1681   -3.9896   -4.3124 H   0  0  0  0  0  0  0  0  0  0  0  0
    2.4109   -1.8543   -3.9497 H   0  0  0  0  0  0  0  0  0  0  0  0
    1.2891    0.3387   -4.3596 H   0  0  0  0  0  0  0  0  0  0  0  0
   -0.9229    0.3769   -5.4830 H   0  0  0  0  0  0  0  0  0  0  0  0
   -2.0696   -1.7516   -6.0191 H   0  0  0  0  0  0  0  0  0  0  0  0
  1  2  2  0  0  0  0
  3  1  1  0  0  0  0
  4  3  1  0  0  0  0
  5  3  1  0  0  0  0
  6  7  2  0  0  0  0
  7 13  1  0  0  0  0
  7  8  1  0  0  0  0
  8 14  1  0  0  0  0
  9 15  1  0  0  0  0
  9  8  2  0  0  0  0
 10  9  1  0  0  0  0
 11 10  2  0  0  0  0
 11  6  1  0  0  0  0
 12  6  1  0  0  0  0
 16 10  1  0  0  0  0
 17 11  1  0  0  0  0
M  RAD  1   2   2
M  END
