Coordinates from ORCA-job C6H6+NH2--N2+-scan
 OpenBabel10171807273D

 17 16  0  0  1  0  0  0  0  0999 V2000
    3.4616    0.3153   -4.0760 N   0  0  0  0  0  0  0  0  0  0  0  0
    4.4082    0.8112   -3.8353 N   0  0  0  0  0  0  0  0  0  0  0  0
   -1.2566   -3.5663   -2.4633 N   0  0  0  0  0  0  0  0  0  0  0  0
   -2.0962   -3.6906   -3.0184 H   0  0  0  0  0  0  0  0  0  0  0  0
   -1.5183   -3.3259   -1.5144 H   0  0  0  0  0  0  0  0  0  0  0  0
    1.0077   -2.4088   -5.1331 C   0  0  0  0  0  0  0  0  0  0  0  0
    0.4966   -3.1866   -4.1270 C   0  0  0  0  0  0  0  0  0  0  0  0
   -0.3515   -2.6098   -3.0623 C   0  0  1  0  0  0  0  0  0  0  0  0
   -0.7744   -1.2023   -3.2768 C   0  0  0  0  0  0  0  0  0  0  0  0
   -0.2544   -0.4522   -4.2963 C   0  0  0  0  0  0  0  0  0  0  0  0
    0.6310   -1.0554   -5.2146 C   0  0  0  0  0  0  0  0  0  0  0  0
    1.6690   -2.8311   -5.8796 H   0  0  0  0  0  0  0  0  0  0  0  0
    0.7331   -4.2413   -4.0322 H   0  0  0  0  0  0  0  0  0  0  0  0
    0.4753   -2.4302   -2.3139 H   0  0  0  0  0  0  0  0  0  0  0  0
   -1.4675   -0.7738   -2.5593 H   0  0  0  0  0  0  0  0  0  0  0  0
   -0.5350    0.5862   -4.4238 H   0  0  0  0  0  0  0  0  0  0  0  0
    1.0271   -0.4527   -6.0256 H   0  0  0  0  0  0  0  0  0  0  0  0
  1  2  3  0  0  0  0
  3  5  1  0  0  0  0
  4  3  1  0  0  0  0
  6  7  2  0  0  0  0
  7 13  1  0  0  0  0
  7  8  1  0  0  0  0
  8  3  1  0  0  0  0
  8 14  1  1  0  0  0
  9  8  1  0  0  0  0
  9 15  1  0  0  0  0
 10  9  2  0  0  0  0
 11  6  1  0  0  0  0
 11 10  1  0  0  0  0
 12  6  1  0  0  0  0
 16 10  1  0  0  0  0
 17 11  1  0  0  0  0
M  RAD  1  11   2
M  END
