Coordinates from ORCA-job C6H6+NH2--N2+-scan
 OpenBabel10171807273D

 17 16  0  0  1  0  0  0  0  0999 V2000
    3.4441    0.1860   -3.5832 N   0  0  0  0  0  0  0  0  0  0  0  0
    4.3888    0.7137   -3.4124 N   0  0  0  0  0  0  0  0  0  0  0  0
   -1.1150   -3.5036   -2.3744 N   0  0  0  0  0  0  0  0  0  0  0  0
   -1.9949   -3.6626   -2.8532 H   0  0  0  0  0  0  0  0  0  0  0  0
   -1.3033   -3.2216   -1.4194 H   0  0  0  0  0  0  0  0  0  0  0  0
    0.9093   -2.4369   -5.2669 C   0  0  0  0  0  0  0  0  0  0  0  0
    0.4942   -3.1747   -4.1883 C   0  0  0  0  0  0  0  0  0  0  0  0
   -0.2793   -2.5617   -3.0883 C   0  0  1  0  0  0  0  0  0  0  0  0
   -0.7438   -1.1728   -3.3311 C   0  0  0  0  0  0  0  0  0  0  0  0
   -0.3207   -0.4634   -4.4226 C   0  0  0  0  0  0  0  0  0  0  0  0
    0.4993   -1.0958   -5.3806 C   0  0  0  0  0  0  0  0  0  0  0  0
    1.5171   -2.8839   -6.0439 H   0  0  0  0  0  0  0  0  0  0  0  0
    0.7579   -4.2197   -4.0639 H   0  0  0  0  0  0  0  0  0  0  0  0
    0.6024   -2.3319   -2.4195 H   0  0  0  0  0  0  0  0  0  0  0  0
   -1.3851   -0.7217   -2.5802 H   0  0  0  0  0  0  0  0  0  0  0  0
   -0.6308    0.5633   -4.5746 H   0  0  0  0  0  0  0  0  0  0  0  0
    0.8156   -0.5268   -6.2495 H   0  0  0  0  0  0  0  0  0  0  0  0
  1  2  3  0  0  0  0
  3  5  1  0  0  0  0
  4  3  1  0  0  0  0
  6  7  2  0  0  0  0
  7 13  1  0  0  0  0
  7  8  1  0  0  0  0
  8 14  1  1  0  0  0
  8  3  1  0  0  0  0
  9  8  1  0  0  0  0
  9 15  1  0  0  0  0
 10  9  2  0  0  0  0
 11  6  1  0  0  0  0
 11 10  1  0  0  0  0
 12  6  1  0  0  0  0
 16 10  1  0  0  0  0
 17 11  1  0  0  0  0
M  RAD  1  11   2
M  END
