Coordinates from ORCA-job C6H6+NH2--N2+-scan
 OpenBabel10171807273D

 17 17  0  0  1  0  0  0  0  0999 V2000
    0.9771   -1.9327   -0.5275 N   0  0  0  0  0  0  0  0  0  0  0  0
    1.4644   -2.7486    0.0358 N   0  0  0  0  0  0  0  0  0  0  0  0
    0.9260   -1.5852   -2.2841 N   0  0  0  0  0  0  0  0  0  0  0  0
   -0.0986   -1.5390   -2.2763 H   0  0  0  0  0  0  0  0  0  0  0  0
    1.2230   -0.6168   -2.1246 H   0  0  0  0  0  0  0  0  0  0  0  0
   -0.4683   -3.0991   -5.1001 C   0  0  0  0  0  0  0  0  0  0  0  0
    0.6956   -3.0467   -4.3862 C   0  0  0  0  0  0  0  0  0  0  0  0
    1.2738   -1.7648   -4.0005 C   0  0  1  0  0  0  0  0  0  0  0  0
    0.6393   -0.5730   -4.5230 C   0  0  0  0  0  0  0  0  0  0  0  0
   -0.5574   -0.6454   -5.2135 C   0  0  0  0  0  0  0  0  0  0  0  0
   -1.1004   -1.8986   -5.5080 C   0  0  0  0  0  0  0  0  0  0  0  0
   -0.9063   -4.0520   -5.3711 H   0  0  0  0  0  0  0  0  0  0  0  0
    1.1967   -3.9536   -4.0669 H   0  0  0  0  0  0  0  0  0  0  0  0
    2.3598   -1.7465   -3.9422 H   0  0  0  0  0  0  0  0  0  0  0  0
    1.1086    0.3884   -4.3392 H   0  0  0  0  0  0  0  0  0  0  0  0
   -1.0510    0.2564   -5.5541 H   0  0  0  0  0  0  0  0  0  0  0  0
   -2.0264   -1.9567   -6.0704 H   0  0  0  0  0  0  0  0  0  0  0  0
  1  2  2  0  0  0  0
  3  4  1  0  0  0  0
  3  5  1  0  0  0  0
  3  1  1  0  0  0  0
  6  7  2  0  0  0  0
  7 13  1  0  0  0  0
  7  8  1  0  0  0  0
  8 14  1  6  0  0  0
  8  3  1  0  0  0  0
  9 15  1  0  0  0  0
  9  8  1  0  0  0  0
 10  9  2  0  0  0  0
 11 10  1  0  0  0  0
 11  6  1  0  0  0  0
 12  6  1  0  0  0  0
 16 10  1  0  0  0  0
 17 11  1  0  0  0  0
M  RAD  2   2   2  11   2
M  END
