Coordinates from ORCA-job C6H6+NH2--N2+-scan
 OpenBabel10171807273D

 17 16  0  0  1  0  0  0  0  0999 V2000
    2.9945   -0.8579   -1.9036 N   0  0  0  0  0  0  0  0  0  0  0  0
    3.9211   -0.5522   -1.4063 N   0  0  0  0  0  0  0  0  0  0  0  0
   -0.2207   -3.0103   -2.1135 N   0  0  0  0  0  0  0  0  0  0  0  0
   -1.1405   -3.4291   -2.1968 H   0  0  0  0  0  0  0  0  0  0  0  0
   -0.1638   -2.5020   -1.2390 H   0  0  0  0  0  0  0  0  0  0  0  0
    0.5639   -2.4871   -5.6864 C   0  0  0  0  0  0  0  0  0  0  0  0
    0.6465   -2.9658   -4.4021 C   0  0  0  0  0  0  0  0  0  0  0  0
    0.1106   -2.2002   -3.2630 C   0  0  1  0  0  0  0  0  0  0  0  0
   -0.6925   -1.0070   -3.6141 C   0  0  0  0  0  0  0  0  0  0  0  0
   -0.7621   -0.5539   -4.9057 C   0  0  0  0  0  0  0  0  0  0  0  0
   -0.1406   -1.2955   -5.9313 C   0  0  0  0  0  0  0  0  0  0  0  0
    1.0047   -3.0340   -6.5109 H   0  0  0  0  0  0  0  0  0  0  0  0
    1.1580   -3.8916   -4.1608 H   0  0  0  0  0  0  0  0  0  0  0  0
    1.0822   -1.6680   -3.0117 H   0  0  0  0  0  0  0  0  0  0  0  0
   -1.1721   -0.4683   -2.8026 H   0  0  0  0  0  0  0  0  0  0  0  0
   -1.3154    0.3445   -5.1513 H   0  0  0  0  0  0  0  0  0  0  0  0
   -0.2182   -0.9358   -6.9529 H   0  0  0  0  0  0  0  0  0  0  0  0
  1  2  3  0  0  0  0
  3  5  1  0  0  0  0
  4  3  1  0  0  0  0
  6  7  2  0  0  0  0
  7 13  1  0  0  0  0
  7  8  1  0  0  0  0
  8 14  1  1  0  0  0
  8  3  1  0  0  0  0
  9  8  1  0  0  0  0
  9 15  1  0  0  0  0
 10  9  2  0  0  0  0
 11  6  1  0  0  0  0
 11 10  1  0  0  0  0
 12  6  1  0  0  0  0
 16 10  1  0  0  0  0
 17 11  1  0  0  0  0
M  RAD  1  11   2
M  END
