Coordinates from ORCA-job C6H6+NH2--N2+-scan
 OpenBabel10171807273D

 17 16  0  0  1  0  0  0  0  0999 V2000
    3.0994   -0.5875   -2.3257 N   0  0  0  0  0  0  0  0  0  0  0  0
    4.0426   -0.1133   -2.0342 N   0  0  0  0  0  0  0  0  0  0  0  0
   -0.4967   -3.1784   -2.1496 N   0  0  0  0  0  0  0  0  0  0  0  0
   -1.4294   -3.5200   -2.3535 H   0  0  0  0  0  0  0  0  0  0  0  0
   -0.4946   -2.7397   -1.2363 H   0  0  0  0  0  0  0  0  0  0  0  0
    0.6572   -2.4745   -5.5863 C   0  0  0  0  0  0  0  0  0  0  0  0
    0.5911   -3.0404   -4.3374 C   0  0  0  0  0  0  0  0  0  0  0  0
    0.0014   -2.3154   -3.1965 C   0  0  1  0  0  0  0  0  0  0  0  0
   -0.6896   -1.0483   -3.5319 C   0  0  0  0  0  0  0  0  0  0  0  0
   -0.6127   -0.5095   -4.7893 C   0  0  0  0  0  0  0  0  0  0  0  0
    0.0535   -1.2238   -5.8063 C   0  0  0  0  0  0  0  0  0  0  0  0
    1.1366   -2.9952   -6.4061 H   0  0  0  0  0  0  0  0  0  0  0  0
    1.0181   -4.0134   -4.1186 H   0  0  0  0  0  0  0  0  0  0  0  0
    0.9779   -1.8668   -2.8296 H   0  0  0  0  0  0  0  0  0  0  0  0
   -1.2068   -0.5320   -2.7290 H   0  0  0  0  0  0  0  0  0  0  0  0
   -1.0846    0.4384   -5.0187 H   0  0  0  0  0  0  0  0  0  0  0  0
    0.0923   -0.7943   -6.8029 H   0  0  0  0  0  0  0  0  0  0  0  0
  1  2  3  0  0  0  0
  3  5  1  0  0  0  0
  4  3  1  0  0  0  0
  6  7  2  0  0  0  0
  7 13  1  0  0  0  0
  7  8  1  0  0  0  0
  8 14  1  1  0  0  0
  8  3  1  0  0  0  0
  9  8  1  0  0  0  0
  9 15  1  0  0  0  0
 10  9  2  0  0  0  0
 11  6  1  0  0  0  0
 11 10  1  0  0  0  0
 12  6  1  0  0  0  0
 16 10  1  0  0  0  0
 17 11  1  0  0  0  0
M  RAD  1  11   2
M  END
