Coordinates from ORCA-job C6H6+NH2--N2+-scan
 OpenBabel10171807273D

 17 16  0  0  1  0  0  0  0  0999 V2000
    3.4531   -0.0454   -2.8349 N   0  0  0  0  0  0  0  0  0  0  0  0
    4.3736    0.5232   -2.6636 N   0  0  0  0  0  0  0  0  0  0  0  0
   -0.8452   -3.3734   -2.2498 N   0  0  0  0  0  0  0  0  0  0  0  0
   -1.7735   -3.6014   -2.5887 H   0  0  0  0  0  0  0  0  0  0  0  0
   -0.9146   -3.0213   -1.3022 H   0  0  0  0  0  0  0  0  0  0  0  0
    0.7320   -2.4898   -5.4648 C   0  0  0  0  0  0  0  0  0  0  0  0
    0.4952   -3.1468   -4.2843 C   0  0  0  0  0  0  0  0  0  0  0  0
   -0.1537   -2.4693   -3.1430 C   0  0  1  0  0  0  0  0  0  0  0  0
   -0.7042   -1.1213   -3.4297 C   0  0  0  0  0  0  0  0  0  0  0  0
   -0.4603   -0.4932   -4.6218 C   0  0  0  0  0  0  0  0  0  0  0  0
    0.2503   -1.1783   -5.6294 C   0  0  0  0  0  0  0  0  0  0  0  0
    1.2515   -2.9808   -6.2785 H   0  0  0  0  0  0  0  0  0  0  0  0
    0.8191   -4.1682   -4.1140 H   0  0  0  0  0  0  0  0  0  0  0  0
    0.7998   -2.1514   -2.6235 H   0  0  0  0  0  0  0  0  0  0  0  0
   -1.2581   -0.6283   -2.6367 H   0  0  0  0  0  0  0  0  0  0  0  0
   -0.8319    0.5067   -4.8112 H   0  0  0  0  0  0  0  0  0  0  0  0
    0.4227   -0.6754   -6.5763 H   0  0  0  0  0  0  0  0  0  0  0  0
  1  2  3  0  0  0  0
  3  5  1  0  0  0  0
  4  3  1  0  0  0  0
  6  7  2  0  0  0  0
  7 13  1  0  0  0  0
  7  8  1  0  0  0  0
  8 14  1  1  0  0  0
  8  3  1  0  0  0  0
  9  8  1  0  0  0  0
  9 15  1  0  0  0  0
 10  9  2  0  0  0  0
 11  6  1  0  0  0  0
 11 10  1  0  0  0  0
 12  6  1  0  0  0  0
 16 10  1  0  0  0  0
 17 11  1  0  0  0  0
M  RAD  1  11   2
M  END
