Coordinates from ORCA-job C6H6+NH2--N2+-scan
 OpenBabel10171807273D

 17 16  0  0  1  0  0  0  0  0999 V2000
    1.6380   -1.8243    0.2321 N   0  0  0  0  0  0  0  0  0  0  0  0
    2.0250   -2.5664    0.9391 N   0  0  0  0  0  0  0  0  0  0  0  0
    1.1070   -1.7535   -2.3660 N   0  0  0  0  0  0  0  0  0  0  0  0
    0.2784   -1.5847   -1.8076 H   0  0  0  0  0  0  0  0  0  0  0  0
    1.8108   -1.0767   -2.0984 H   0  0  0  0  0  0  0  0  0  0  0  0
   -0.5197   -3.0741   -5.4011 C   0  0  0  0  0  0  0  0  0  0  0  0
    0.2941   -3.0182   -4.2988 C   0  0  0  0  0  0  0  0  0  0  0  0
    0.8111   -1.7322   -3.7859 C   0  0  1  0  0  0  0  0  0  0  0  0
    0.2362   -0.5176   -4.4163 C   0  0  0  0  0  0  0  0  0  0  0  0
   -0.5865   -0.6030   -5.5078 C   0  0  0  0  0  0  0  0  0  0  0  0
   -0.9597   -1.8745   -5.9913 C   0  0  0  0  0  0  0  0  0  0  0  0
   -0.8546   -4.0251   -5.7966 H   0  0  0  0  0  0  0  0  0  0  0  0
    0.6365   -3.9109   -3.7860 H   0  0  0  0  0  0  0  0  0  0  0  0
    1.8043   -1.7570   -4.3234 H   0  0  0  0  0  0  0  0  0  0  0  0
    0.5350    0.4445   -4.0113 H   0  0  0  0  0  0  0  0  0  0  0  0
   -0.9762    0.2887   -5.9840 H   0  0  0  0  0  0  0  0  0  0  0  0
   -1.6241   -1.9293   -6.8486 H   0  0  0  0  0  0  0  0  0  0  0  0
  1  2  3  0  0  0  0
  3  5  1  0  0  0  0
  3  4  1  0  0  0  0
  6  7  2  0  0  0  0
  7 13  1  0  0  0  0
  7  8  1  0  0  0  0
  8 14  1  6  0  0  0
  8  3  1  0  0  0  0
  9 15  1  0  0  0  0
  9  8  1  0  0  0  0
 10  9  2  0  0  0  0
 11 10  1  0  0  0  0
 11  6  1  0  0  0  0
 12  6  1  0  0  0  0
 16 10  1  0  0  0  0
 17 11  1  0  0  0  0
M  RAD  1  11   2
M  END
