Coordinates from ORCA-job C6H6+NH2--N2+-scan
 OpenBabel10171807273D

 17 16  0  0  1  0  0  0  0  0999 V2000
    1.3812   -2.0287   -0.2712 N   0  0  0  0  0  0  0  0  0  0  0  0
    1.7097   -2.9914    0.1445 N   0  0  0  0  0  0  0  0  0  0  0  0
    1.0651   -1.5751   -2.2679 N   0  0  0  0  0  0  0  0  0  0  0  0
    0.1585   -1.2925   -1.9023 H   0  0  0  0  0  0  0  0  0  0  0  0
    1.7099   -0.8227   -2.0398 H   0  0  0  0  0  0  0  0  0  0  0  0
   -0.4724   -3.1058   -5.2132 C   0  0  0  0  0  0  0  0  0  0  0  0
    0.4223   -2.9849   -4.1876 C   0  0  0  0  0  0  0  0  0  0  0  0
    0.9500   -1.6673   -3.7700 C   0  0  1  0  0  0  0  0  0  0  0  0
    0.3582   -0.4991   -4.4574 C   0  0  0  0  0  0  0  0  0  0  0  0
   -0.5817   -0.6419   -5.4446 C   0  0  0  0  0  0  0  0  0  0  0  0
   -0.9819   -1.9383   -5.8236 C   0  0  0  0  0  0  0  0  0  0  0  0
   -0.8261   -4.0779   -5.5339 H   0  0  0  0  0  0  0  0  0  0  0  0
    0.7975   -3.8508   -3.6520 H   0  0  0  0  0  0  0  0  0  0  0  0
    2.0033   -1.6996   -4.1332 H   0  0  0  0  0  0  0  0  0  0  0  0
    0.7034    0.4856   -4.1570 H   0  0  0  0  0  0  0  0  0  0  0  0
   -1.0184    0.2211   -5.9323 H   0  0  0  0  0  0  0  0  0  0  0  0
   -1.7229   -2.0448   -6.6104 H   0  0  0  0  0  0  0  0  0  0  0  0
  1  2  3  0  0  0  0
  3  5  1  0  0  0  0
  3  4  1  0  0  0  0
  6  7  2  0  0  0  0
  7  8  1  0  0  0  0
  7 13  1  0  0  0  0
  8 14  1  6  0  0  0
  8  3  1  0  0  0  0
  9 15  1  0  0  0  0
  9  8  1  0  0  0  0
 10  9  2  0  0  0  0
 11 10  1  0  0  0  0
 11  6  1  0  0  0  0
 12  6  1  0  0  0  0
 16 10  1  0  0  0  0
 17 11  1  0  0  0  0
M  RAD  1  11   2
M  END
