Coordinates from ORCA-job C6H6+NH2--N2+-scan
 OpenBabel10171807273D

 17 16  0  0  1  0  0  0  0  0999 V2000
    1.5159   -2.0039   -0.1284 N   0  0  0  0  0  0  0  0  0  0  0  0
    1.8569   -2.9434    0.3240 N   0  0  0  0  0  0  0  0  0  0  0  0
    1.0772   -1.6028   -2.2799 N   0  0  0  0  0  0  0  0  0  0  0  0
    0.2115   -1.3382   -1.8202 H   0  0  0  0  0  0  0  0  0  0  0  0
    1.7658   -0.8928   -2.0543 H   0  0  0  0  0  0  0  0  0  0  0  0
   -0.4850   -3.0975   -5.2626 C   0  0  0  0  0  0  0  0  0  0  0  0
    0.3425   -2.9796   -4.1780 C   0  0  0  0  0  0  0  0  0  0  0  0
    0.8586   -1.6656   -3.7381 C   0  0  1  0  0  0  0  0  0  0  0  0
    0.2838   -0.4906   -4.4354 C   0  0  0  0  0  0  0  0  0  0  0  0
   -0.5701   -0.6342   -5.4966 C   0  0  0  0  0  0  0  0  0  0  0  0
   -0.9448   -1.9308   -5.9056 C   0  0  0  0  0  0  0  0  0  0  0  0
   -0.8212   -4.0690   -5.6036 H   0  0  0  0  0  0  0  0  0  0  0  0
    0.6881   -3.8442   -3.6209 H   0  0  0  0  0  0  0  0  0  0  0  0
    1.8820   -1.7105   -4.2001 H   0  0  0  0  0  0  0  0  0  0  0  0
    0.5947    0.4932   -4.0970 H   0  0  0  0  0  0  0  0  0  0  0  0
   -0.9731    0.2296   -6.0111 H   0  0  0  0  0  0  0  0  0  0  0  0
   -1.6270   -2.0338   -6.7443 H   0  0  0  0  0  0  0  0  0  0  0  0
  1  2  3  0  0  0  0
  3  5  1  0  0  0  0
  3  4  1  0  0  0  0
  6  7  2  0  0  0  0
  7  8  1  0  0  0  0
  7 13  1  0  0  0  0
  8 14  1  6  0  0  0
  8  3  1  0  0  0  0
  9 15  1  0  0  0  0
  9  8  1  0  0  0  0
 10  9  2  0  0  0  0
 11 10  1  0  0  0  0
 11  6  1  0  0  0  0
 12  6  1  0  0  0  0
 16 10  1  0  0  0  0
 17 11  1  0  0  0  0
M  RAD  1  11   2
M  END
