Coordinates from ORCA-job C6H6+NH2--N2+-scan
 OpenBabel10171807273D

 17 16  0  0  1  0  0  0  0  0999 V2000
    3.3159   -0.1813   -2.7212 N   0  0  0  0  0  0  0  0  0  0  0  0
    4.2357    0.3852   -2.5398 N   0  0  0  0  0  0  0  0  0  0  0  0
   -0.7624   -3.3305   -2.2205 N   0  0  0  0  0  0  0  0  0  0  0  0
   -1.6956   -3.5817   -2.5278 H   0  0  0  0  0  0  0  0  0  0  0  0
   -0.8107   -2.9580   -1.2795 H   0  0  0  0  0  0  0  0  0  0  0  0
    0.7143   -2.4887   -5.4958 C   0  0  0  0  0  0  0  0  0  0  0  0
    0.5140   -3.1278   -4.2984 C   0  0  0  0  0  0  0  0  0  0  0  0
   -0.1121   -2.4368   -3.1534 C   0  0  1  0  0  0  0  0  0  0  0  0
   -0.6847   -1.1006   -3.4486 C   0  0  0  0  0  0  0  0  0  0  0  0
   -0.4761   -0.4901   -4.6567 C   0  0  0  0  0  0  0  0  0  0  0  0
    0.2160   -1.1850   -5.6702 C   0  0  0  0  0  0  0  0  0  0  0  0
    1.2185   -2.9886   -6.3137 H   0  0  0  0  0  0  0  0  0  0  0  0
    0.8537   -4.1424   -4.1185 H   0  0  0  0  0  0  0  0  0  0  0  0
    0.8559   -2.0945   -2.6749 H   0  0  0  0  0  0  0  0  0  0  0  0
   -1.2244   -0.6001   -2.6506 H   0  0  0  0  0  0  0  0  0  0  0  0
   -0.8625    0.5027   -4.8533 H   0  0  0  0  0  0  0  0  0  0  0  0
    0.3603   -0.6962   -6.6292 H   0  0  0  0  0  0  0  0  0  0  0  0
  1  2  3  0  0  0  0
  3  5  1  0  0  0  0
  4  3  1  0  0  0  0
  6  7  2  0  0  0  0
  7 13  1  0  0  0  0
  7  8  1  0  0  0  0
  8 14  1  1  0  0  0
  8  3  1  0  0  0  0
  9  8  1  0  0  0  0
  9 15  1  0  0  0  0
 10  9  2  0  0  0  0
 11  6  1  0  0  0  0
 11 10  1  0  0  0  0
 12  6  1  0  0  0  0
 16 10  1  0  0  0  0
 17 11  1  0  0  0  0
M  RAD  1  11   2
M  END
