Coordinates from ORCA-job C6H6+NH2--N2+-scan
 OpenBabel10171807273D

 17 16  0  0  1  0  0  0  0  0999 V2000
    3.6274    0.6157   -4.5385 N   0  0  0  0  0  0  0  0  0  0  0  0
    4.5699    1.1510   -4.3800 N   0  0  0  0  0  0  0  0  0  0  0  0
   -1.4458   -3.6332   -2.5845 N   0  0  0  0  0  0  0  0  0  0  0  0
   -2.2392   -3.6845   -3.2141 H   0  0  0  0  0  0  0  0  0  0  0  0
   -1.7775   -3.4395   -1.6468 H   0  0  0  0  0  0  0  0  0  0  0  0
    1.0808   -2.4269   -4.9814 C   0  0  0  0  0  0  0  0  0  0  0  0
    0.4594   -3.2368   -4.0671 C   0  0  0  0  0  0  0  0  0  0  0  0
   -0.4539   -2.6850   -3.0434 C   0  0  1  0  0  0  0  0  0  0  0  0
   -0.8026   -1.2505   -3.2077 C   0  0  0  0  0  0  0  0  0  0  0  0
   -0.1728   -0.4682   -4.1371 C   0  0  0  0  0  0  0  0  0  0  0  0
    0.7607   -1.0566   -5.0171 C   0  0  0  0  0  0  0  0  0  0  0  0
    1.7856   -2.8347   -5.6956 H   0  0  0  0  0  0  0  0  0  0  0  0
    0.6475   -4.3041   -4.0155 H   0  0  0  0  0  0  0  0  0  0  0  0
    0.3092   -2.5870   -2.2168 H   0  0  0  0  0  0  0  0  0  0  0  0
   -1.5357   -0.8331   -2.5243 H   0  0  0  0  0  0  0  0  0  0  0  0
   -0.4031    0.5865   -4.2265 H   0  0  0  0  0  0  0  0  0  0  0  0
    1.2458   -0.4274   -5.7555 H   0  0  0  0  0  0  0  0  0  0  0  0
  1  2  3  0  0  0  0
  3  5  1  0  0  0  0
  4  3  1  0  0  0  0
  6  7  2  0  0  0  0
  7 13  1  0  0  0  0
  7  8  1  0  0  0  0
  8  3  1  0  0  0  0
  8 14  1  1  0  0  0
  9  8  1  0  0  0  0
  9 15  1  0  0  0  0
 10  9  2  0  0  0  0
 11  6  1  0  0  0  0
 11 10  1  0  0  0  0
 12  6  1  0  0  0  0
 16 10  1  0  0  0  0
 17 11  1  0  0  0  0
M  RAD  1  11   2
M  END
