Coordinates from ORCA-job C6H6+NH2--N2+-scan
 OpenBabel10171807273D

 17 16  0  0  1  0  0  0  0  0999 V2000
    3.2872   -0.2165   -2.6897 N   0  0  0  0  0  0  0  0  0  0  0  0
    4.2068    0.3490   -2.5046 N   0  0  0  0  0  0  0  0  0  0  0  0
   -0.7411   -3.3191   -2.2139 N   0  0  0  0  0  0  0  0  0  0  0  0
   -1.6755   -3.5757   -2.5131 H   0  0  0  0  0  0  0  0  0  0  0  0
   -0.7841   -2.9419   -1.2745 H   0  0  0  0  0  0  0  0  0  0  0  0
    0.7096   -2.4882   -5.5037 C   0  0  0  0  0  0  0  0  0  0  0  0
    0.5198   -3.1221   -4.3018 C   0  0  0  0  0  0  0  0  0  0  0  0
   -0.1012   -2.4277   -3.1561 C   0  0  1  0  0  0  0  0  0  0  0  0
   -0.6809   -1.0954   -3.4540 C   0  0  0  0  0  0  0  0  0  0  0  0
   -0.4829   -0.4901   -4.6666 C   0  0  0  0  0  0  0  0  0  0  0  0
    0.2050   -1.1874   -5.6813 C   0  0  0  0  0  0  0  0  0  0  0  0
    1.2102   -2.9903   -6.3225 H   0  0  0  0  0  0  0  0  0  0  0  0
    0.8647   -4.1344   -4.1191 H   0  0  0  0  0  0  0  0  0  0  0  0
    0.8692   -2.0788   -2.6869 H   0  0  0  0  0  0  0  0  0  0  0  0
   -1.2173   -0.5930   -2.6549 H   0  0  0  0  0  0  0  0  0  0  0  0
   -0.8746    0.5002   -4.8655 H   0  0  0  0  0  0  0  0  0  0  0  0
    0.3409   -0.7029   -6.6437 H   0  0  0  0  0  0  0  0  0  0  0  0
  1  2  3  0  0  0  0
  3  5  1  0  0  0  0
  4  3  1  0  0  0  0
  6  7  2  0  0  0  0
  7 13  1  0  0  0  0
  7  8  1  0  0  0  0
  8 14  1  1  0  0  0
  8  3  1  0  0  0  0
  9  8  1  0  0  0  0
  9 15  1  0  0  0  0
 10  9  2  0  0  0  0
 11  6  1  0  0  0  0
 11 10  1  0  0  0  0
 12  6  1  0  0  0  0
 16 10  1  0  0  0  0
 17 11  1  0  0  0  0
M  RAD  1  11   2
M  END
