Coordinates from ORCA-job C6H6+NH2--N2+-scan
 OpenBabel10171807273D

 17 16  0  0  1  0  0  0  0  0999 V2000
    1.7015   -1.4068    0.6748 N   0  0  0  0  0  0  0  0  0  0  0  0
    1.9654   -1.4745    1.7357 N   0  0  0  0  0  0  0  0  0  0  0  0
    1.2096   -2.1555   -2.5261 N   0  0  0  0  0  0  0  0  0  0  0  0
    0.4159   -2.1016   -1.8978 H   0  0  0  0  0  0  0  0  0  0  0  0
    1.9252   -1.5226   -2.1899 H   0  0  0  0  0  0  0  0  0  0  0  0
   -0.5639   -3.0161   -5.6430 C   0  0  0  0  0  0  0  0  0  0  0  0
    0.2966   -3.1213   -4.5800 C   0  0  0  0  0  0  0  0  0  0  0  0
    0.8335   -1.9234   -3.9015 C   0  0  1  0  0  0  0  0  0  0  0  0
    0.2279   -0.6320   -4.3138 C   0  0  0  0  0  0  0  0  0  0  0  0
   -0.6367   -0.5581   -5.3732 C   0  0  0  0  0  0  0  0  0  0  0  0
   -1.0288   -1.7450   -6.0272 C   0  0  0  0  0  0  0  0  0  0  0  0
   -0.9141   -3.8993   -6.1631 H   0  0  0  0  0  0  0  0  0  0  0  0
    0.6641   -4.0780   -4.2237 H   0  0  0  0  0  0  0  0  0  0  0  0
    1.7933   -1.8573   -4.4958 H   0  0  0  0  0  0  0  0  0  0  0  0
    0.5405    0.2594   -3.7786 H   0  0  0  0  0  0  0  0  0  0  0  0
   -1.0467    0.3923   -5.6932 H   0  0  0  0  0  0  0  0  0  0  0  0
   -1.7277   -1.6746   -6.8555 H   0  0  0  0  0  0  0  0  0  0  0  0
  1  2  3  0  0  0  0
  3  5  1  0  0  0  0
  3  4  1  0  0  0  0
  6  7  2  0  0  0  0
  7 13  1  0  0  0  0
  7  8  1  0  0  0  0
  8 14  1  6  0  0  0
  8  3  1  0  0  0  0
  9  8  1  0  0  0  0
  9 15  1  0  0  0  0
 10  9  2  0  0  0  0
 11  6  1  0  0  0  0
 11 10  1  0  0  0  0
 12  6  1  0  0  0  0
 16 10  1  0  0  0  0
 17 11  1  0  0  0  0
M  RAD  1  11   2
M  END
