Coordinates from ORCA-job C6H6+NH2--N2+-scan
 OpenBabel10171807273D

 17 16  0  0  1  0  0  0  0  0999 V2000
    3.2600   -0.2521   -2.6569 N   0  0  0  0  0  0  0  0  0  0  0  0
    4.1798    0.3114   -2.4667 N   0  0  0  0  0  0  0  0  0  0  0  0
   -0.7191   -3.3073   -2.2072 N   0  0  0  0  0  0  0  0  0  0  0  0
   -1.6545   -3.5697   -2.4980 H   0  0  0  0  0  0  0  0  0  0  0  0
   -0.7566   -2.9251   -1.2696 H   0  0  0  0  0  0  0  0  0  0  0  0
    0.7046   -2.4877   -5.5119 C   0  0  0  0  0  0  0  0  0  0  0  0
    0.5257   -3.1160   -4.3053 C   0  0  0  0  0  0  0  0  0  0  0  0
   -0.0903   -2.4183   -3.1591 C   0  0  1  0  0  0  0  0  0  0  0  0
   -0.6779   -1.0902   -3.4600 C   0  0  0  0  0  0  0  0  0  0  0  0
   -0.4908   -0.4904   -4.6770 C   0  0  0  0  0  0  0  0  0  0  0  0
    0.1931   -1.1900   -5.6928 C   0  0  0  0  0  0  0  0  0  0  0  0
    1.2017   -2.9919   -6.3314 H   0  0  0  0  0  0  0  0  0  0  0  0
    0.8764   -4.1258   -4.1197 H   0  0  0  0  0  0  0  0  0  0  0  0
    0.8823   -2.0621   -2.6996 H   0  0  0  0  0  0  0  0  0  0  0  0
   -1.2109   -0.5860   -2.6598 H   0  0  0  0  0  0  0  0  0  0  0  0
   -0.8881    0.4971   -4.8783 H   0  0  0  0  0  0  0  0  0  0  0  0
    0.3203   -0.7100   -6.6586 H   0  0  0  0  0  0  0  0  0  0  0  0
  1  2  3  0  0  0  0
  3  5  1  0  0  0  0
  4  3  1  0  0  0  0
  6  7  2  0  0  0  0
  7 13  1  0  0  0  0
  7  8  1  0  0  0  0
  8 14  1  1  0  0  0
  8  3  1  0  0  0  0
  9  8  1  0  0  0  0
  9 15  1  0  0  0  0
 10  9  2  0  0  0  0
 11  6  1  0  0  0  0
 11 10  1  0  0  0  0
 12  6  1  0  0  0  0
 16 10  1  0  0  0  0
 17 11  1  0  0  0  0
M  RAD  1  11   2
M  END
