Coordinates from ORCA-job C6H6+NH2--N2+-scan
 OpenBabel10171807273D

 17 16  0  0  1  0  0  0  0  0999 V2000
    3.5044    0.2329   -3.6068 N   0  0  0  0  0  0  0  0  0  0  0  0
    4.4487    0.7647   -3.4467 N   0  0  0  0  0  0  0  0  0  0  0  0
   -1.1362   -3.5139   -2.3833 N   0  0  0  0  0  0  0  0  0  0  0  0
   -2.0138   -3.6662   -2.8685 H   0  0  0  0  0  0  0  0  0  0  0  0
   -1.3291   -3.2369   -1.4278 H   0  0  0  0  0  0  0  0  0  0  0  0
    0.9093   -2.4403   -5.2578 C   0  0  0  0  0  0  0  0  0  0  0  0
    0.4869   -3.1810   -4.1841 C   0  0  0  0  0  0  0  0  0  0  0  0
   -0.2921   -2.5709   -3.0864 C   0  0  1  0  0  0  0  0  0  0  0  0
   -0.7519   -1.1799   -3.3265 C   0  0  0  0  0  0  0  0  0  0  0  0
   -0.3220   -0.4676   -4.4135 C   0  0  0  0  0  0  0  0  0  0  0  0
    0.5016   -1.0983   -5.3695 C   0  0  0  0  0  0  0  0  0  0  0  0
    1.5206   -2.8856   -6.0330 H   0  0  0  0  0  0  0  0  0  0  0  0
    0.7481   -4.2270   -4.0621 H   0  0  0  0  0  0  0  0  0  0  0  0
    0.5848   -2.3472   -2.4096 H   0  0  0  0  0  0  0  0  0  0  0  0
   -1.3961   -0.7300   -2.5773 H   0  0  0  0  0  0  0  0  0  0  0  0
   -0.6297    0.5601   -4.5637 H   0  0  0  0  0  0  0  0  0  0  0  0
    0.8224   -0.5272   -6.2354 H   0  0  0  0  0  0  0  0  0  0  0  0
  1  2  3  0  0  0  0
  3  5  1  0  0  0  0
  4  3  1  0  0  0  0
  6  7  2  0  0  0  0
  7 13  1  0  0  0  0
  7  8  1  0  0  0  0
  8 14  1  1  0  0  0
  8  3  1  0  0  0  0
  9  8  1  0  0  0  0
  9 15  1  0  0  0  0
 10  9  2  0  0  0  0
 11  6  1  0  0  0  0
 11 10  1  0  0  0  0
 12  6  1  0  0  0  0
 16 10  1  0  0  0  0
 17 11  1  0  0  0  0
M  RAD  1  11   2
M  END
