Coordinates from ORCA-job C6H6+NH2--N2+-scan
 OpenBabel10171807273D

 17 16  0  0  1  0  0  0  0  0999 V2000
    1.5336   -1.9958   -0.0940 N   0  0  0  0  0  0  0  0  0  0  0  0
    1.8804   -2.9268    0.3706 N   0  0  0  0  0  0  0  0  0  0  0  0
    1.0779   -1.6100   -2.2863 N   0  0  0  0  0  0  0  0  0  0  0  0
    0.2173   -1.3535   -1.8129 H   0  0  0  0  0  0  0  0  0  0  0  0
    1.7688   -0.9041   -2.0562 H   0  0  0  0  0  0  0  0  0  0  0  0
   -0.4879   -3.0958   -5.2729 C   0  0  0  0  0  0  0  0  0  0  0  0
    0.3341   -2.9805   -4.1834 C   0  0  0  0  0  0  0  0  0  0  0  0
    0.8494   -1.6678   -3.7393 C   0  0  1  0  0  0  0  0  0  0  0  0
    0.2762   -0.4907   -4.4349 C   0  0  0  0  0  0  0  0  0  0  0  0
   -0.5697   -0.6322   -5.5026 C   0  0  0  0  0  0  0  0  0  0  0  0
   -0.9428   -1.9278   -5.9164 C   0  0  0  0  0  0  0  0  0  0  0  0
   -0.8230   -4.0664   -5.6173 H   0  0  0  0  0  0  0  0  0  0  0  0
    0.6773   -3.8461   -3.6265 H   0  0  0  0  0  0  0  0  0  0  0  0
    1.8692   -1.7132   -4.2111 H   0  0  0  0  0  0  0  0  0  0  0  0
    0.5842    0.4922   -4.0913 H   0  0  0  0  0  0  0  0  0  0  0  0
   -0.9694    0.2329   -6.0179 H   0  0  0  0  0  0  0  0  0  0  0  0
   -1.6198   -2.0286   -6.7596 H   0  0  0  0  0  0  0  0  0  0  0  0
  1  2  3  0  0  0  0
  3  5  1  0  0  0  0
  3  4  1  0  0  0  0
  6  7  2  0  0  0  0
  7  8  1  0  0  0  0
  7 13  1  0  0  0  0
  8 14  1  6  0  0  0
  8  3  1  0  0  0  0
  9 15  1  0  0  0  0
  9  8  1  0  0  0  0
 10  9  2  0  0  0  0
 11 10  1  0  0  0  0
 11  6  1  0  0  0  0
 12  6  1  0  0  0  0
 16 10  1  0  0  0  0
 17 11  1  0  0  0  0
M  RAD  1  11   2
M  END
