Coordinates from ORCA-job C6H6+NH2--N2+-scan
 OpenBabel10171807273D

 17 16  0  0  1  0  0  0  0  0999 V2000
    3.1380   -0.4632   -2.4566 N   0  0  0  0  0  0  0  0  0  0  0  0
    4.0669    0.0633   -2.2127 N   0  0  0  0  0  0  0  0  0  0  0  0
   -0.5826   -3.2310   -2.1694 N   0  0  0  0  0  0  0  0  0  0  0  0
   -1.5190   -3.5389   -2.4072 H   0  0  0  0  0  0  0  0  0  0  0  0
   -0.5931   -2.8151   -1.2456 H   0  0  0  0  0  0  0  0  0  0  0  0
    0.6747   -2.4813   -5.5587 C   0  0  0  0  0  0  0  0  0  0  0  0
    0.5640   -3.0733   -4.3255 C   0  0  0  0  0  0  0  0  0  0  0  0
   -0.0307   -2.3575   -3.1806 C   0  0  1  0  0  0  0  0  0  0  0  0
   -0.6764   -1.0624   -3.5015 C   0  0  0  0  0  0  0  0  0  0  0  0
   -0.5561   -0.4982   -4.7440 C   0  0  0  0  0  0  0  0  0  0  0  0
    0.1122   -1.2087   -5.7625 C   0  0  0  0  0  0  0  0  0  0  0  0
    1.1575   -2.9969   -6.3798 H   0  0  0  0  0  0  0  0  0  0  0  0
    0.9573   -4.0634   -4.1202 H   0  0  0  0  0  0  0  0  0  0  0  0
    0.9488   -1.9482   -2.7799 H   0  0  0  0  0  0  0  0  0  0  0  0
   -1.1963   -0.5494   -2.6983 H   0  0  0  0  0  0  0  0  0  0  0  0
   -0.9952    0.4680   -4.9618 H   0  0  0  0  0  0  0  0  0  0  0  0
    0.1858   -0.7581   -6.7478 H   0  0  0  0  0  0  0  0  0  0  0  0
  1  2  3  0  0  0  0
  3  5  1  0  0  0  0
  4  3  1  0  0  0  0
  6  7  2  0  0  0  0
  7 13  1  0  0  0  0
  7  8  1  0  0  0  0
  8 14  1  1  0  0  0
  8  3  1  0  0  0  0
  9  8  1  0  0  0  0
  9 15  1  0  0  0  0
 10  9  2  0  0  0  0
 11  6  1  0  0  0  0
 11 10  1  0  0  0  0
 12  6  1  0  0  0  0
 16 10  1  0  0  0  0
 17 11  1  0  0  0  0
M  RAD  1  11   2
M  END
