Coordinates from ORCA-job C6H6+NH2--N2+-scan
 OpenBabel10171807273D

 17 16  0  0  0  0  0  0  0  0999 V2000
   -0.0997   -1.8138   -1.1734 N   0  0  0  0  0  0  0  0  0  0  0  0
   -1.0634   -1.7862   -0.6334 N   0  0  0  0  0  0  0  0  0  0  0  0
    1.1371   -2.0449   -1.7656 N   0  0  0  0  0  0  0  0  0  0  0  0
    0.9811   -2.3399   -2.7684 H   0  0  0  0  0  0  0  0  0  0  0  0
    1.6992   -1.1970   -1.6513 H   0  0  0  0  0  0  0  0  0  0  0  0
   -0.4261   -2.9711   -4.4870 C   0  0  0  0  0  0  0  0  0  0  0  0
    0.9576   -2.9846   -4.7163 C   0  0  0  0  0  0  0  0  0  0  0  0
    1.6324   -1.7858   -4.9903 C   0  0  0  0  0  0  0  0  0  0  0  0
    0.9280   -0.5804   -5.0241 C   0  0  0  0  0  0  0  0  0  0  0  0
   -0.4487   -0.5695   -4.7902 C   0  0  0  0  0  0  0  0  0  0  0  0
   -1.1261   -1.7621   -4.5223 C   0  0  0  0  0  0  0  0  0  0  0  0
   -0.9541   -3.9031   -4.3172 H   0  0  0  0  0  0  0  0  0  0  0  0
    1.4961   -3.9261   -4.7311 H   0  0  0  0  0  0  0  0  0  0  0  0
    2.6958   -1.8018   -5.2015 H   0  0  0  0  0  0  0  0  0  0  0  0
    1.4455    0.3426   -5.2595 H   0  0  0  0  0  0  0  0  0  0  0  0
   -0.9981    0.3636   -4.8426 H   0  0  0  0  0  0  0  0  0  0  0  0
   -2.2008   -1.7542   -4.3779 H   0  0  0  0  0  0  0  0  0  0  0  0
  1  2  1  0  0  0  0
  3  5  1  0  0  0  0
  3  1  1  0  0  0  0
  4  3  1  0  0  0  0
  6 12  1  0  0  0  0
  7  6  2  0  0  0  0
  8  7  1  0  0  0  0
  9  8  2  0  0  0  0
  9 10  1  0  0  0  0
 10 11  2  0  0  0  0
 11  6  1  0  0  0  0
 11 17  1  0  0  0  0
 13  7  1  0  0  0  0
 14  8  1  0  0  0  0
 15  9  1  0  0  0  0
 16 10  1  0  0  0  0
M  RAD  2   1   2   2   3
M  END
