Coordinates from ORCA-job C6H6+NH2--N2+-scan
 OpenBabel10171807273D

 17 16  0  0  1  0  0  0  0  0999 V2000
    1.7436   -1.2587    0.8285 N   0  0  0  0  0  0  0  0  0  0  0  0
    1.9913   -1.2313    1.8951 N   0  0  0  0  0  0  0  0  0  0  0  0
    1.2100   -2.2577   -2.5617 N   0  0  0  0  0  0  0  0  0  0  0  0
    0.4132   -2.2308   -1.9348 H   0  0  0  0  0  0  0  0  0  0  0  0
    1.9237   -1.6324   -2.2061 H   0  0  0  0  0  0  0  0  0  0  0  0
   -0.5680   -2.9983   -5.7077 C   0  0  0  0  0  0  0  0  0  0  0  0
    0.2947   -3.1437   -4.6512 C   0  0  0  0  0  0  0  0  0  0  0  0
    0.8305   -1.9723   -3.9271 C   0  0  1  0  0  0  0  0  0  0  0  0
    0.2216   -0.6668   -4.2866 C   0  0  0  0  0  0  0  0  0  0  0  0
   -0.6450   -0.5529   -5.3409 C   0  0  0  0  0  0  0  0  0  0  0  0
   -1.0360   -1.7139   -6.0405 C   0  0  0  0  0  0  0  0  0  0  0  0
   -0.9174   -3.8610   -6.2616 H   0  0  0  0  0  0  0  0  0  0  0  0
    0.6649   -4.1130   -4.3338 H   0  0  0  0  0  0  0  0  0  0  0  0
    1.7891   -1.8810   -4.5202 H   0  0  0  0  0  0  0  0  0  0  0  0
    0.5333    0.2033   -3.7170 H   0  0  0  0  0  0  0  0  0  0  0  0
   -1.0573    0.4085   -5.6224 H   0  0  0  0  0  0  0  0  0  0  0  0
   -1.7365   -1.6122   -6.8641 H   0  0  0  0  0  0  0  0  0  0  0  0
  1  2  3  0  0  0  0
  3  5  1  0  0  0  0
  3  4  1  0  0  0  0
  6  7  2  0  0  0  0
  7 13  1  0  0  0  0
  7  8  1  0  0  0  0
  8 14  1  6  0  0  0
  8  3  1  0  0  0  0
  9  8  1  0  0  0  0
  9 15  1  0  0  0  0
 10  9  2  0  0  0  0
 11  6  1  0  0  0  0
 11 10  1  0  0  0  0
 12  6  1  0  0  0  0
 16 10  1  0  0  0  0
 17 11  1  0  0  0  0
M  RAD  1  11   2
M  END
