Coordinates from ORCA-job C6H6+NH2--N2+-scan
 OpenBabel10171807273D

 17 16  0  0  1  0  0  0  0  0999 V2000
    1.6529   -1.7320    0.3166 N   0  0  0  0  0  0  0  0  0  0  0  0
    2.0228   -2.2803    1.1898 N   0  0  0  0  0  0  0  0  0  0  0  0
    1.1345   -1.8554   -2.4047 N   0  0  0  0  0  0  0  0  0  0  0  0
    0.3170   -1.7192   -1.8220 H   0  0  0  0  0  0  0  0  0  0  0  0
    1.8414   -1.1904   -2.1173 H   0  0  0  0  0  0  0  0  0  0  0  0
   -0.5325   -3.0610   -5.4655 C   0  0  0  0  0  0  0  0  0  0  0  0
    0.2934   -3.0464   -4.3708 C   0  0  0  0  0  0  0  0  0  0  0  0
    0.8153   -1.7805   -3.8150 C   0  0  1  0  0  0  0  0  0  0  0  0
    0.2323   -0.5432   -4.3919 C   0  0  0  0  0  0  0  0  0  0  0  0
   -0.6005   -0.5879   -5.4783 C   0  0  0  0  0  0  0  0  0  0  0  0
   -0.9786   -1.8404   -6.0055 C   0  0  0  0  0  0  0  0  0  0  0  0
   -0.8713   -3.9967   -5.8931 H   0  0  0  0  0  0  0  0  0  0  0  0
    0.6426   -3.9574   -3.8962 H   0  0  0  0  0  0  0  0  0  0  0  0
    1.7992   -1.7841   -4.3711 H   0  0  0  0  0  0  0  0  0  0  0  0
    0.5343    0.4028   -3.9531 H   0  0  0  0  0  0  0  0  0  0  0  0
   -0.9952    0.3209   -5.9164 H   0  0  0  0  0  0  0  0  0  0  0  0
   -1.6516   -1.8631   -6.8575 H   0  0  0  0  0  0  0  0  0  0  0  0
  1  2  3  0  0  0  0
  3  5  1  0  0  0  0
  3  4  1  0  0  0  0
  6  7  2  0  0  0  0
  7 13  1  0  0  0  0
  7  8  1  0  0  0  0
  8 14  1  6  0  0  0
  8  3  1  0  0  0  0
  9 15  1  0  0  0  0
  9  8  1  0  0  0  0
 10  9  2  0  0  0  0
 11 10  1  0  0  0  0
 11  6  1  0  0  0  0
 12  6  1  0  0  0  0
 16 10  1  0  0  0  0
 17 11  1  0  0  0  0
M  RAD  1  11   2
M  END
