Coordinates from ORCA-job C6H6+NH2--N2+-scan
 OpenBabel10171807273D

 17 16  0  0  1  0  0  0  0  0999 V2000
    3.4188   -0.0697   -2.8155 N   0  0  0  0  0  0  0  0  0  0  0  0
    4.3387    0.4994   -2.6421 N   0  0  0  0  0  0  0  0  0  0  0  0
   -0.8294   -3.3659   -2.2437 N   0  0  0  0  0  0  0  0  0  0  0  0
   -1.7588   -3.5969   -2.5776 H   0  0  0  0  0  0  0  0  0  0  0  0
   -0.8954   -3.0082   -1.2980 H   0  0  0  0  0  0  0  0  0  0  0  0
    0.7281   -2.4906   -5.4710 C   0  0  0  0  0  0  0  0  0  0  0  0
    0.4976   -3.1446   -4.2875 C   0  0  0  0  0  0  0  0  0  0  0  0
   -0.1451   -2.4639   -3.1450 C   0  0  1  0  0  0  0  0  0  0  0  0
   -0.6976   -1.1171   -3.4321 C   0  0  0  0  0  0  0  0  0  0  0  0
   -0.4597   -0.4920   -4.6271 C   0  0  0  0  0  0  0  0  0  0  0  0
    0.2457   -1.1796   -5.6365 C   0  0  0  0  0  0  0  0  0  0  0  0
    1.2435   -2.9837   -6.2860 H   0  0  0  0  0  0  0  0  0  0  0  0
    0.8228   -4.1654   -4.1160 H   0  0  0  0  0  0  0  0  0  0  0  0
    0.8123   -2.1422   -2.6342 H   0  0  0  0  0  0  0  0  0  0  0  0
   -1.2473   -0.6223   -2.6374 H   0  0  0  0  0  0  0  0  0  0  0  0
   -0.8322    0.5075   -4.8168 H   0  0  0  0  0  0  0  0  0  0  0  0
    0.4136   -0.6789   -6.5854 H   0  0  0  0  0  0  0  0  0  0  0  0
  1  2  3  0  0  0  0
  3  5  1  0  0  0  0
  4  3  1  0  0  0  0
  6  7  2  0  0  0  0
  7 13  1  0  0  0  0
  7  8  1  0  0  0  0
  8 14  1  1  0  0  0
  8  3  1  0  0  0  0
  9  8  1  0  0  0  0
  9 15  1  0  0  0  0
 10  9  2  0  0  0  0
 11  6  1  0  0  0  0
 11 10  1  0  0  0  0
 12  6  1  0  0  0  0
 16 10  1  0  0  0  0
 17 11  1  0  0  0  0
M  RAD  1  11   2
M  END
