Coordinates from ORCA-job C6H6+NH2--N2+-scan
 OpenBabel10171807273D

 17 16  0  0  1  0  0  0  0  0999 V2000
    1.6743   -1.6826    0.4344 N   0  0  0  0  0  0  0  0  0  0  0  0
    2.0350   -2.1672    1.3481 N   0  0  0  0  0  0  0  0  0  0  0  0
    1.1474   -1.8986   -2.4328 N   0  0  0  0  0  0  0  0  0  0  0  0
    0.3363   -1.7782   -1.8377 H   0  0  0  0  0  0  0  0  0  0  0  0
    1.8587   -1.2412   -2.1388 H   0  0  0  0  0  0  0  0  0  0  0  0
   -0.5410   -3.0547   -5.5009 C   0  0  0  0  0  0  0  0  0  0  0  0
    0.2906   -3.0578   -4.4103 C   0  0  0  0  0  0  0  0  0  0  0  0
    0.8150   -1.8009   -3.8367 C   0  0  1  0  0  0  0  0  0  0  0  0
    0.2276   -0.5544   -4.3895 C   0  0  0  0  0  0  0  0  0  0  0  0
   -0.6097   -0.5819   -5.4729 C   0  0  0  0  0  0  0  0  0  0  0  0
   -0.9901   -1.8258   -6.0187 C   0  0  0  0  0  0  0  0  0  0  0  0
   -0.8816   -3.9834   -5.9420 H   0  0  0  0  0  0  0  0  0  0  0  0
    0.6433   -3.9763   -3.9529 H   0  0  0  0  0  0  0  0  0  0  0  0
    1.7933   -1.7945   -4.4035 H   0  0  0  0  0  0  0  0  0  0  0  0
    0.5308    0.3842   -3.9359 H   0  0  0  0  0  0  0  0  0  0  0  0
   -1.0069    0.3338   -5.8942 H   0  0  0  0  0  0  0  0  0  0  0  0
   -1.6670   -1.8348   -6.8678 H   0  0  0  0  0  0  0  0  0  0  0  0
  1  2  3  0  0  0  0
  3  5  1  0  0  0  0
  3  4  1  0  0  0  0
  6  7  2  0  0  0  0
  7 13  1  0  0  0  0
  7  8  1  0  0  0  0
  8 14  1  6  0  0  0
  8  3  1  0  0  0  0
  9 15  1  0  0  0  0
  9  8  1  0  0  0  0
 10  9  2  0  0  0  0
 11  6  1  0  0  0  0
 11 10  1  0  0  0  0
 12  6  1  0  0  0  0
 16 10  1  0  0  0  0
 17 11  1  0  0  0  0
M  RAD  1  11   2
M  END
