Coordinates from ORCA-job C6H6+NH2--N2+-scan
 OpenBabel10171807273D

 17 16  0  0  1  0  0  0  0  0999 V2000
    1.6845   -1.6476    0.5023 N   0  0  0  0  0  0  0  0  0  0  0  0
    2.0363   -2.0795    1.4453 N   0  0  0  0  0  0  0  0  0  0  0  0
    1.1576   -1.9318   -2.4510 N   0  0  0  0  0  0  0  0  0  0  0  0
    0.3499   -1.8216   -1.8491 H   0  0  0  0  0  0  0  0  0  0  0  0
    1.8699   -1.2775   -2.1524 H   0  0  0  0  0  0  0  0  0  0  0  0
   -0.5464   -3.0499   -5.5245 C   0  0  0  0  0  0  0  0  0  0  0  0
    0.2901   -3.0665   -4.4377 C   0  0  0  0  0  0  0  0  0  0  0  0
    0.8167   -1.8166   -3.8509 C   0  0  1  0  0  0  0  0  0  0  0  0
    0.2260   -0.5635   -4.3851 C   0  0  0  0  0  0  0  0  0  0  0  0
   -0.6157   -0.5777   -5.4653 C   0  0  0  0  0  0  0  0  0  0  0  0
   -0.9981   -1.8148   -6.0249 C   0  0  0  0  0  0  0  0  0  0  0  0
   -0.8888   -3.9732   -5.9756 H   0  0  0  0  0  0  0  0  0  0  0  0
    0.6454   -3.9904   -3.9936 H   0  0  0  0  0  0  0  0  0  0  0  0
    1.7914   -1.8027   -4.4239 H   0  0  0  0  0  0  0  0  0  0  0  0
    0.5307    0.3695   -3.9209 H   0  0  0  0  0  0  0  0  0  0  0  0
   -1.0150    0.3430   -5.8733 H   0  0  0  0  0  0  0  0  0  0  0  0
   -1.6788   -1.8135   -6.8712 H   0  0  0  0  0  0  0  0  0  0  0  0
  1  2  3  0  0  0  0
  3  5  1  0  0  0  0
  3  4  1  0  0  0  0
  6  7  2  0  0  0  0
  7 13  1  0  0  0  0
  7  8  1  0  0  0  0
  8 14  1  6  0  0  0
  8  3  1  0  0  0  0
  9 15  1  0  0  0  0
  9  8  1  0  0  0  0
 10  9  2  0  0  0  0
 11  6  1  0  0  0  0
 11 10  1  0  0  0  0
 12  6  1  0  0  0  0
 16 10  1  0  0  0  0
 17 11  1  0  0  0  0
M  RAD  1  11   2
M  END
