Coordinates from ORCA-job C6H6+NH2--N2+-scan
 OpenBabel10171807273D

 17 16  0  0  1  0  0  0  0  0999 V2000
    3.4447    0.2761   -4.0013 N   0  0  0  0  0  0  0  0  0  0  0  0
    4.3922    0.7656   -3.7509 N   0  0  0  0  0  0  0  0  0  0  0  0
   -1.2271   -3.5549   -2.4456 N   0  0  0  0  0  0  0  0  0  0  0  0
   -2.0735   -3.6899   -2.9877 H   0  0  0  0  0  0  0  0  0  0  0  0
   -1.4769   -3.3072   -1.4954 H   0  0  0  0  0  0  0  0  0  0  0  0
    0.9941   -2.4081   -5.1563 C   0  0  0  0  0  0  0  0  0  0  0  0
    0.5007   -3.1800   -4.1369 C   0  0  0  0  0  0  0  0  0  0  0  0
   -0.3367   -2.5985   -3.0663 C   0  0  1  0  0  0  0  0  0  0  0  0
   -0.7710   -1.1957   -3.2877 C   0  0  0  0  0  0  0  0  0  0  0  0
   -0.2685   -0.4516   -4.3203 C   0  0  0  0  0  0  0  0  0  0  0  0
    0.6087   -1.0576   -5.2445 C   0  0  0  0  0  0  0  0  0  0  0  0
    1.6482   -2.8331   -5.9076 H   0  0  0  0  0  0  0  0  0  0  0  0
    0.7447   -4.2323   -4.0358 H   0  0  0  0  0  0  0  0  0  0  0  0
    0.4996   -2.4064   -2.3315 H   0  0  0  0  0  0  0  0  0  0  0  0
   -1.4572   -0.7649   -2.5651 H   0  0  0  0  0  0  0  0  0  0  0  0
   -0.5569    0.5841   -4.4533 H   0  0  0  0  0  0  0  0  0  0  0  0
    0.9908   -0.4597   -6.0658 H   0  0  0  0  0  0  0  0  0  0  0  0
  1  2  3  0  0  0  0
  3  5  1  0  0  0  0
  4  3  1  0  0  0  0
  6  7  2  0  0  0  0
  7 13  1  0  0  0  0
  7  8  1  0  0  0  0
  8  3  1  0  0  0  0
  8 14  1  1  0  0  0
  9  8  1  0  0  0  0
  9 15  1  0  0  0  0
 10  9  2  0  0  0  0
 11  6  1  0  0  0  0
 11 10  1  0  0  0  0
 12  6  1  0  0  0  0
 16 10  1  0  0  0  0
 17 11  1  0  0  0  0
M  RAD  1  11   2
M  END
