Coordinates from ORCA-job C6H6+NH2--N2+-scan
 OpenBabel10171807273D

 17 16  0  0  1  0  0  0  0  0999 V2000
    3.0852   -0.6481   -2.2535 N   0  0  0  0  0  0  0  0  0  0  0  0
    4.0359   -0.2070   -1.9357 N   0  0  0  0  0  0  0  0  0  0  0  0
   -0.4537   -3.1503   -2.1427 N   0  0  0  0  0  0  0  0  0  0  0  0
   -1.3864   -3.5024   -2.3279 H   0  0  0  0  0  0  0  0  0  0  0  0
   -0.4408   -2.7032   -1.2336 H   0  0  0  0  0  0  0  0  0  0  0  0
    0.6478   -2.4713   -5.6013 C   0  0  0  0  0  0  0  0  0  0  0  0
    0.6066   -3.0220   -4.3446 C   0  0  0  0  0  0  0  0  0  0  0  0
    0.0198   -2.2922   -3.2055 C   0  0  1  0  0  0  0  0  0  0  0  0
   -0.6962   -1.0410   -3.5480 C   0  0  0  0  0  0  0  0  0  0  0  0
   -0.6447   -0.5174   -4.8131 C   0  0  0  0  0  0  0  0  0  0  0  0
    0.0206   -1.2337   -5.8294 C   0  0  0  0  0  0  0  0  0  0  0  0
    1.1252   -2.9947   -6.4206 H   0  0  0  0  0  0  0  0  0  0  0  0
    1.0517   -3.9854   -4.1192 H   0  0  0  0  0  0  0  0  0  0  0  0
    0.9920   -1.8253   -2.8514 H   0  0  0  0  0  0  0  0  0  0  0  0
   -1.2115   -0.5230   -2.7452 H   0  0  0  0  0  0  0  0  0  0  0  0
   -1.1353    0.4194   -5.0485 H   0  0  0  0  0  0  0  0  0  0  0  0
    0.0396   -0.8165   -6.8318 H   0  0  0  0  0  0  0  0  0  0  0  0
  1  2  3  0  0  0  0
  3  5  1  0  0  0  0
  4  3  1  0  0  0  0
  6  7  2  0  0  0  0
  7 13  1  0  0  0  0
  7  8  1  0  0  0  0
  8 14  1  1  0  0  0
  8  3  1  0  0  0  0
  9  8  1  0  0  0  0
  9 15  1  0  0  0  0
 10  9  2  0  0  0  0
 11  6  1  0  0  0  0
 11 10  1  0  0  0  0
 12  6  1  0  0  0  0
 16 10  1  0  0  0  0
 17 11  1  0  0  0  0
M  RAD  1  11   2
M  END
