Coordinates from ORCA-job C6H6+NH2--N2+-scan
 OpenBabel10171807273D

 17 16  0  0  1  0  0  0  0  0999 V2000
    3.1574   -0.4176   -2.5019 N   0  0  0  0  0  0  0  0  0  0  0  0
    4.0828    0.1219   -2.2732 N   0  0  0  0  0  0  0  0  0  0  0  0
   -0.6131   -3.2486   -2.1772 N   0  0  0  0  0  0  0  0  0  0  0  0
   -1.5502   -3.5451   -2.4269 H   0  0  0  0  0  0  0  0  0  0  0  0
   -0.6286   -2.8408   -1.2499 H   0  0  0  0  0  0  0  0  0  0  0  0
    0.6813   -2.4832   -5.5487 C   0  0  0  0  0  0  0  0  0  0  0  0
    0.5550   -3.0839   -4.3212 C   0  0  0  0  0  0  0  0  0  0  0  0
   -0.0429   -2.3717   -3.1753 C   0  0  1  0  0  0  0  0  0  0  0  0
   -0.6739   -1.0680   -3.4914 C   0  0  0  0  0  0  0  0  0  0  0  0
   -0.5386   -0.4954   -4.7284 C   0  0  0  0  0  0  0  0  0  0  0  0
    0.1318   -1.2040   -5.7470 C   0  0  0  0  0  0  0  0  0  0  0  0
    1.1661   -2.9966   -6.3699 H   0  0  0  0  0  0  0  0  0  0  0  0
    0.9375   -4.0791   -4.1206 H   0  0  0  0  0  0  0  0  0  0  0  0
    0.9364   -1.9756   -2.7619 H   0  0  0  0  0  0  0  0  0  0  0  0
   -1.1955   -0.5565   -2.6883 H   0  0  0  0  0  0  0  0  0  0  0  0
   -0.9671    0.4764   -4.9422 H   0  0  0  0  0  0  0  0  0  0  0  0
    0.2174   -0.7465   -6.7280 H   0  0  0  0  0  0  0  0  0  0  0  0
  1  2  3  0  0  0  0
  3  5  1  0  0  0  0
  4  3  1  0  0  0  0
  6  7  2  0  0  0  0
  7 13  1  0  0  0  0
  7  8  1  0  0  0  0
  8 14  1  1  0  0  0
  8  3  1  0  0  0  0
  9  8  1  0  0  0  0
  9 15  1  0  0  0  0
 10  9  2  0  0  0  0
 11  6  1  0  0  0  0
 11 10  1  0  0  0  0
 12  6  1  0  0  0  0
 16 10  1  0  0  0  0
 17 11  1  0  0  0  0
M  RAD  1  11   2
M  END
