Coordinates from ORCA-job C6H6+NH2--N2+-scan
 OpenBabel10171807273D

 17 16  0  0  0  0  0  0  0  0999 V2000
    0.6632   -1.7676   -0.4697 N   0  0  0  0  0  0  0  0  0  0  0  0
    0.9917   -1.7590    0.5847 N   0  0  0  0  0  0  0  0  0  0  0  0
    0.9335   -1.7985   -2.0067 N   0  0  0  0  0  0  0  0  0  0  0  0
    0.3805   -2.6159   -2.2996 H   0  0  0  0  0  0  0  0  0  0  0  0
    0.4269   -0.9607   -2.3248 H   0  0  0  0  0  0  0  0  0  0  0  0
   -0.5247   -2.9975   -5.0442 C   0  0  0  0  0  0  0  0  0  0  0  0
    0.8211   -3.0356   -4.6858 C   0  0  0  0  0  0  0  0  0  0  0  0
    1.5357   -1.8344   -4.5067 C   0  0  0  0  0  0  0  0  0  0  0  0
    0.8896   -0.5994   -4.7137 C   0  0  0  0  0  0  0  0  0  0  0  0
   -0.4563   -0.5702   -5.0718 C   0  0  0  0  0  0  0  0  0  0  0  0
   -1.1617   -1.7671   -5.2364 C   0  0  0  0  0  0  0  0  0  0  0  0
   -1.0717   -3.9201   -5.1994 H   0  0  0  0  0  0  0  0  0  0  0  0
    1.3317   -3.9862   -4.5755 H   0  0  0  0  0  0  0  0  0  0  0  0
    2.5986   -1.8620   -4.2973 H   0  0  0  0  0  0  0  0  0  0  0  0
    1.4527    0.3233   -4.6245 H   0  0  0  0  0  0  0  0  0  0  0  0
   -0.9508    0.3779   -5.2483 H   0  0  0  0  0  0  0  0  0  0  0  0
   -2.2041   -1.7411   -5.5324 H   0  0  0  0  0  0  0  0  0  0  0  0
  1  2  2  0  0  0  0
  3  1  1  0  0  0  0
  4  3  1  0  0  0  0
  5  3  1  0  0  0  0
  6  7  2  0  0  0  0
  7 13  1  0  0  0  0
  7  8  1  0  0  0  0
  8 14  1  0  0  0  0
  9 15  1  0  0  0  0
  9  8  2  0  0  0  0
 10  9  1  0  0  0  0
 11 10  2  0  0  0  0
 11  6  1  0  0  0  0
 12  6  1  0  0  0  0
 16 10  1  0  0  0  0
 17 11  1  0  0  0  0
M  RAD  1   2   2
M  END
