Coordinates from ORCA-job C6H6+NH2--N2+-scan
 OpenBabel10171807273D

 17 16  0  0  1  0  0  0  0  0999 V2000
    3.1142   -0.5336   -2.3839 N   0  0  0  0  0  0  0  0  0  0  0  0
    4.0506   -0.0338   -2.1137 N   0  0  0  0  0  0  0  0  0  0  0  0
   -0.5344   -3.2020   -2.1578 N   0  0  0  0  0  0  0  0  0  0  0  0
   -1.4689   -3.5290   -2.3767 H   0  0  0  0  0  0  0  0  0  0  0  0
   -0.5378   -2.7732   -1.2398 H   0  0  0  0  0  0  0  0  0  0  0  0
    0.6647   -2.4776   -5.5743 C   0  0  0  0  0  0  0  0  0  0  0  0
    0.5788   -3.0554   -4.3321 C   0  0  0  0  0  0  0  0  0  0  0  0
   -0.0125   -2.3343   -3.1893 C   0  0  1  0  0  0  0  0  0  0  0  0
   -0.6830   -1.0543   -3.5183 C   0  0  0  0  0  0  0  0  0  0  0  0
   -0.5868   -0.5039   -4.7693 C   0  0  0  0  0  0  0  0  0  0  0  0
    0.0798   -1.2168   -5.7871 C   0  0  0  0  0  0  0  0  0  0  0  0
    1.1453   -2.9963   -6.3948 H   0  0  0  0  0  0  0  0  0  0  0  0
    0.9906   -4.0363   -4.1193 H   0  0  0  0  0  0  0  0  0  0  0  0
    0.9660   -1.9032   -2.8081 H   0  0  0  0  0  0  0  0  0  0  0  0
   -1.2011   -0.5393   -2.7152 H   0  0  0  0  0  0  0  0  0  0  0  0
   -1.0438    0.4524   -4.9935 H   0  0  0  0  0  0  0  0  0  0  0  0
    0.1341   -0.7777   -6.7788 H   0  0  0  0  0  0  0  0  0  0  0  0
  1  2  3  0  0  0  0
  3  5  1  0  0  0  0
  4  3  1  0  0  0  0
  6  7  2  0  0  0  0
  7 13  1  0  0  0  0
  7  8  1  0  0  0  0
  8 14  1  1  0  0  0
  8  3  1  0  0  0  0
  9  8  1  0  0  0  0
  9 15  1  0  0  0  0
 10  9  2  0  0  0  0
 11  6  1  0  0  0  0
 11 10  1  0  0  0  0
 12  6  1  0  0  0  0
 16 10  1  0  0  0  0
 17 11  1  0  0  0  0
M  RAD  1  11   2
M  END
