Coordinates from ORCA-job C6H6+NH2--N2+-scan
 OpenBabel10171807273D

 17 16  0  0  1  0  0  0  0  0999 V2000
    1.1677   -1.9975   -0.3769 N   0  0  0  0  0  0  0  0  0  0  0  0
    1.5827   -2.9139    0.0687 N   0  0  0  0  0  0  0  0  0  0  0  0
    0.9991   -1.5639   -2.3135 N   0  0  0  0  0  0  0  0  0  0  0  0
    0.0144   -1.3947   -2.1057 H   0  0  0  0  0  0  0  0  0  0  0  0
    1.4835   -0.7011   -2.0655 H   0  0  0  0  0  0  0  0  0  0  0  0
   -0.4673   -3.1070   -5.1561 C   0  0  0  0  0  0  0  0  0  0  0  0
    0.5654   -3.0180   -4.2731 C   0  0  0  0  0  0  0  0  0  0  0  0
    1.1220   -1.7089   -3.8650 C   0  0  1  0  0  0  0  0  0  0  0  0
    0.5085   -0.5323   -4.5007 C   0  0  0  0  0  0  0  0  0  0  0  0
   -0.5807   -0.6410   -5.3331 C   0  0  0  0  0  0  0  0  0  0  0  0
   -1.0500   -1.9197   -5.6696 C   0  0  0  0  0  0  0  0  0  0  0  0
   -0.8657   -4.0691   -5.4537 H   0  0  0  0  0  0  0  0  0  0  0  0
    1.0033   -3.9040   -3.8254 H   0  0  0  0  0  0  0  0  0  0  0  0
    2.2084   -1.7174   -4.0356 H   0  0  0  0  0  0  0  0  0  0  0  0
    0.9220    0.4420   -4.2585 H   0  0  0  0  0  0  0  0  0  0  0  0
   -1.0607    0.2385   -5.7443 H   0  0  0  0  0  0  0  0  0  0  0  0
   -1.8968   -2.0063   -6.3438 H   0  0  0  0  0  0  0  0  0  0  0  0
  1  2  3  0  0  0  0
  3  4  1  0  0  0  0
  3  5  1  0  0  0  0
  6  7  2  0  0  0  0
  7  8  1  0  0  0  0
  7 13  1  0  0  0  0
  8 14  1  6  0  0  0
  8  3  1  0  0  0  0
  9 15  1  0  0  0  0
  9  8  1  0  0  0  0
 10  9  2  0  0  0  0
 11 10  1  0  0  0  0
 11  6  1  0  0  0  0
 12  6  1  0  0  0  0
 16 10  1  0  0  0  0
 17 11  1  0  0  0  0
M  RAD  1  11   2
M  END
