Coordinates from ORCA-job C6H6+NH2--N2+-scan
 OpenBabel10171807273D

 17 16  0  0  1  0  0  0  0  0999 V2000
    3.1962   -0.3464   -2.5695 N   0  0  0  0  0  0  0  0  0  0  0  0
    4.1179    0.2071   -2.3604 N   0  0  0  0  0  0  0  0  0  0  0  0
   -0.6594   -3.2747   -2.1899 N   0  0  0  0  0  0  0  0  0  0  0  0
   -1.5965   -3.5551   -2.4576 H   0  0  0  0  0  0  0  0  0  0  0  0
   -0.6837   -2.8785   -1.2577 H   0  0  0  0  0  0  0  0  0  0  0  0
    0.6912   -2.4856   -5.5330 C   0  0  0  0  0  0  0  0  0  0  0  0
    0.5420   -3.0987   -4.3145 C   0  0  0  0  0  0  0  0  0  0  0  0
   -0.0625   -2.3925   -3.1679 C   0  0  1  0  0  0  0  0  0  0  0  0
   -0.6733   -1.0771   -3.4770 C   0  0  0  0  0  0  0  0  0  0  0  0
   -0.5154   -0.4924   -4.7056 C   0  0  0  0  0  0  0  0  0  0  0  0
    0.1596   -1.1976   -5.7235 C   0  0  0  0  0  0  0  0  0  0  0  0
    1.1805   -2.9953   -6.3539 H   0  0  0  0  0  0  0  0  0  0  0  0
    0.9095   -4.1009   -4.1206 H   0  0  0  0  0  0  0  0  0  0  0  0
    0.9148   -2.0149   -2.7344 H   0  0  0  0  0  0  0  0  0  0  0  0
   -1.1989   -0.5684   -2.6748 H   0  0  0  0  0  0  0  0  0  0  0  0
   -0.9294    0.4868   -4.9137 H   0  0  0  0  0  0  0  0  0  0  0  0
    0.2633   -0.7300   -6.6981 H   0  0  0  0  0  0  0  0  0  0  0  0
  1  2  3  0  0  0  0
  3  5  1  0  0  0  0
  4  3  1  0  0  0  0
  6  7  2  0  0  0  0
  7 13  1  0  0  0  0
  7  8  1  0  0  0  0
  8 14  1  1  0  0  0
  8  3  1  0  0  0  0
  9  8  1  0  0  0  0
  9 15  1  0  0  0  0
 10  9  2  0  0  0  0
 11  6  1  0  0  0  0
 11 10  1  0  0  0  0
 12  6  1  0  0  0  0
 16 10  1  0  0  0  0
 17 11  1  0  0  0  0
M  RAD  1  11   2
M  END
