Coordinates from ORCA-job C6H6+NH2--N2+-scan
 OpenBabel10171807273D

 17 16  0  0  1  0  0  0  0  0999 V2000
    1.5067   -2.0079   -0.1381 N   0  0  0  0  0  0  0  0  0  0  0  0
    1.8447   -2.9503    0.3107 N   0  0  0  0  0  0  0  0  0  0  0  0
    1.0770   -1.5999   -2.2797 N   0  0  0  0  0  0  0  0  0  0  0  0
    0.2094   -1.3318   -1.8250 H   0  0  0  0  0  0  0  0  0  0  0  0
    1.7639   -0.8885   -2.0529 H   0  0  0  0  0  0  0  0  0  0  0  0
   -0.4838   -3.0983   -5.2588 C   0  0  0  0  0  0  0  0  0  0  0  0
    0.3481   -2.9794   -4.1779 C   0  0  0  0  0  0  0  0  0  0  0  0
    0.8649   -1.6648   -3.7404 C   0  0  1  0  0  0  0  0  0  0  0  0
    0.2884   -0.4906   -4.4374 C   0  0  0  0  0  0  0  0  0  0  0  0
   -0.5713   -0.6349   -5.4937 C   0  0  0  0  0  0  0  0  0  0  0  0
   -0.9473   -1.9319   -5.9002 C   0  0  0  0  0  0  0  0  0  0  0  0
   -0.8211   -4.0700   -5.5979 H   0  0  0  0  0  0  0  0  0  0  0  0
    0.6954   -3.8436   -3.6214 H   0  0  0  0  0  0  0  0  0  0  0  0
    1.8906   -1.7088   -4.1955 H   0  0  0  0  0  0  0  0  0  0  0  0
    0.6013    0.4935   -4.1018 H   0  0  0  0  0  0  0  0  0  0  0  0
   -0.9772    0.2285   -6.0068 H   0  0  0  0  0  0  0  0  0  0  0  0
   -1.6337   -2.0357   -6.7355 H   0  0  0  0  0  0  0  0  0  0  0  0
  1  2  3  0  0  0  0
  3  5  1  0  0  0  0
  3  4  1  0  0  0  0
  6  7  2  0  0  0  0
  7  8  1  0  0  0  0
  7 13  1  0  0  0  0
  8 14  1  6  0  0  0
  8  3  1  0  0  0  0
  9 15  1  0  0  0  0
  9  8  1  0  0  0  0
 10  9  2  0  0  0  0
 11 10  1  0  0  0  0
 11  6  1  0  0  0  0
 12  6  1  0  0  0  0
 16 10  1  0  0  0  0
 17 11  1  0  0  0  0
M  RAD  1  11   2
M  END
