Coordinates from ORCA-job C6H6+NH2--N2+-scan
 OpenBabel10171807273D

 17 16  0  0  1  0  0  0  0  0999 V2000
    1.6706   -1.5160    0.4966 N   0  0  0  0  0  0  0  0  0  0  0  0
    1.9474   -1.6453    1.5484 N   0  0  0  0  0  0  0  0  0  0  0  0
    1.1982   -2.0845   -2.4867 N   0  0  0  0  0  0  0  0  0  0  0  0
    0.4013   -2.0118   -1.8650 H   0  0  0  0  0  0  0  0  0  0  0  0
    1.9129   -1.4457   -2.1611 H   0  0  0  0  0  0  0  0  0  0  0  0
   -0.5542   -3.0266   -5.5919 C   0  0  0  0  0  0  0  0  0  0  0  0
    0.2996   -3.1040   -4.5211 C   0  0  0  0  0  0  0  0  0  0  0  0
    0.8330   -1.8890   -3.8709 C   0  0  1  0  0  0  0  0  0  0  0  0
    0.2316   -0.6086   -4.3219 C   0  0  0  0  0  0  0  0  0  0  0  0
   -0.6267   -0.5623   -5.3880 C   0  0  0  0  0  0  0  0  0  0  0  0
   -1.0158   -1.7659   -6.0126 C   0  0  0  0  0  0  0  0  0  0  0  0
   -0.9019   -3.9231   -6.0905 H   0  0  0  0  0  0  0  0  0  0  0  0
    0.6638   -4.0511   -4.1371 H   0  0  0  0  0  0  0  0  0  0  0  0
    1.7976   -1.8394   -4.4591 H   0  0  0  0  0  0  0  0  0  0  0  0
    0.5420    0.2966   -3.8090 H   0  0  0  0  0  0  0  0  0  0  0  0
   -1.0340    0.3795   -5.7356 H   0  0  0  0  0  0  0  0  0  0  0  0
   -1.7096   -1.7171   -6.8466 H   0  0  0  0  0  0  0  0  0  0  0  0
  1  2  3  0  0  0  0
  3  5  1  0  0  0  0
  3  4  1  0  0  0  0
  6  7  2  0  0  0  0
  7 13  1  0  0  0  0
  7  8  1  0  0  0  0
  8 14  1  6  0  0  0
  8  3  1  0  0  0  0
  9  8  1  0  0  0  0
  9 15  1  0  0  0  0
 10  9  2  0  0  0  0
 11  6  1  0  0  0  0
 11 10  1  0  0  0  0
 12  6  1  0  0  0  0
 16 10  1  0  0  0  0
 17 11  1  0  0  0  0
M  RAD  1  11   2
M  END
