Coordinates from ORCA-job C6H6+NH2--N2+-scan
 OpenBabel10171807273D

 17 16  0  0  1  0  0  0  0  0999 V2000
    3.0918   -0.6177   -2.2917 N   0  0  0  0  0  0  0  0  0  0  0  0
    4.0389   -0.1594   -1.9877 N   0  0  0  0  0  0  0  0  0  0  0  0
   -0.4754   -3.1647   -2.1455 N   0  0  0  0  0  0  0  0  0  0  0  0
   -1.4076   -3.5130   -2.3404 H   0  0  0  0  0  0  0  0  0  0  0  0
   -0.4691   -2.7211   -1.2347 H   0  0  0  0  0  0  0  0  0  0  0  0
    0.6529   -2.4727   -5.5933 C   0  0  0  0  0  0  0  0  0  0  0  0
    0.5984   -3.0316   -4.3406 C   0  0  0  0  0  0  0  0  0  0  0  0
    0.0097   -2.3044   -3.2008 C   0  0  1  0  0  0  0  0  0  0  0  0
   -0.6933   -1.0449   -3.5397 C   0  0  0  0  0  0  0  0  0  0  0  0
   -0.6280   -0.5131   -4.8008 C   0  0  0  0  0  0  0  0  0  0  0  0
    0.0381   -1.2282   -5.8173 C   0  0  0  0  0  0  0  0  0  0  0  0
    1.1317   -2.9946   -6.4127 H   0  0  0  0  0  0  0  0  0  0  0  0
    1.0343   -3.9999   -4.1186 H   0  0  0  0  0  0  0  0  0  0  0  0
    0.9844   -1.8461   -2.8413 H   0  0  0  0  0  0  0  0  0  0  0  0
   -1.2100   -0.5279   -2.7370 H   0  0  0  0  0  0  0  0  0  0  0  0
   -1.1088    0.4296   -5.0331 H   0  0  0  0  0  0  0  0  0  0  0  0
    0.0677   -0.8044   -6.8167 H   0  0  0  0  0  0  0  0  0  0  0  0
  1  2  3  0  0  0  0
  3  5  1  0  0  0  0
  4  3  1  0  0  0  0
  6  7  2  0  0  0  0
  7 13  1  0  0  0  0
  7  8  1  0  0  0  0
  8 14  1  1  0  0  0
  8  3  1  0  0  0  0
  9  8  1  0  0  0  0
  9 15  1  0  0  0  0
 10  9  2  0  0  0  0
 11  6  1  0  0  0  0
 11 10  1  0  0  0  0
 12  6  1  0  0  0  0
 16 10  1  0  0  0  0
 17 11  1  0  0  0  0
M  RAD  1  11   2
M  END
