Coordinates from ORCA-job C6H6+NH2--N2+-scan
 OpenBabel10171807273D

 17 16  0  0  1  0  0  0  0  0999 V2000
    3.4724    0.3505   -4.1477 N   0  0  0  0  0  0  0  0  0  0  0  0
    4.4183    0.8512   -3.9140 N   0  0  0  0  0  0  0  0  0  0  0  0
   -1.2836   -3.5761   -2.4803 N   0  0  0  0  0  0  0  0  0  0  0  0
   -2.1169   -3.6904   -3.0470 H   0  0  0  0  0  0  0  0  0  0  0  0
   -1.5557   -3.3430   -1.5325 H   0  0  0  0  0  0  0  0  0  0  0  0
    1.0209   -2.4095   -5.1110 C   0  0  0  0  0  0  0  0  0  0  0  0
    0.4929   -3.1928   -4.1181 C   0  0  0  0  0  0  0  0  0  0  0  0
   -0.3652   -2.6200   -3.0590 C   0  0  1  0  0  0  0  0  0  0  0  0
   -0.7773   -1.2083   -3.2668 C   0  0  0  0  0  0  0  0  0  0  0  0
   -0.2402   -0.4527   -4.2733 C   0  0  0  0  0  0  0  0  0  0  0  0
    0.6531   -1.0532   -5.1857 C   0  0  0  0  0  0  0  0  0  0  0  0
    1.6890   -2.8292   -5.8529 H   0  0  0  0  0  0  0  0  0  0  0  0
    0.7220   -4.2496   -4.0294 H   0  0  0  0  0  0  0  0  0  0  0  0
    0.4527   -2.4521   -2.2983 H   0  0  0  0  0  0  0  0  0  0  0  0
   -1.4768   -0.7818   -2.5544 H   0  0  0  0  0  0  0  0  0  0  0  0
   -0.5132    0.5885   -4.3955 H   0  0  0  0  0  0  0  0  0  0  0  0
    1.0632   -0.4459   -5.9861 H   0  0  0  0  0  0  0  0  0  0  0  0
  1  2  3  0  0  0  0
  3  5  1  0  0  0  0
  4  3  1  0  0  0  0
  6  7  2  0  0  0  0
  7 13  1  0  0  0  0
  7  8  1  0  0  0  0
  8  3  1  0  0  0  0
  8 14  1  1  0  0  0
  9  8  1  0  0  0  0
  9 15  1  0  0  0  0
 10  9  2  0  0  0  0
 11  6  1  0  0  0  0
 11 10  1  0  0  0  0
 12  6  1  0  0  0  0
 16 10  1  0  0  0  0
 17 11  1  0  0  0  0
M  RAD  1  11   2
M  END
