Coordinates from ORCA-job C6H6+NH2--N2+-scan
 OpenBabel10171807273D

 17 16  0  0  1  0  0  0  0  0999 V2000
    3.1081   -0.7182   -2.1302 N   0  0  0  0  0  0  0  0  0  0  0  0
    4.0653   -0.3297   -1.7664 N   0  0  0  0  0  0  0  0  0  0  0  0
   -0.3798   -3.1032   -2.1282 N   0  0  0  0  0  0  0  0  0  0  0  0
   -1.3022   -3.4938   -2.2860 H   0  0  0  0  0  0  0  0  0  0  0  0
   -0.3663   -2.6318   -1.2315 H   0  0  0  0  0  0  0  0  0  0  0  0
    0.6244   -2.4711   -5.6257 C   0  0  0  0  0  0  0  0  0  0  0  0
    0.6251   -2.9954   -4.3569 C   0  0  0  0  0  0  0  0  0  0  0  0
    0.0415   -2.2578   -3.2217 C   0  0  1  0  0  0  0  0  0  0  0  0
   -0.7161   -1.0347   -3.5749 C   0  0  0  0  0  0  0  0  0  0  0  0
   -0.7042   -0.5365   -4.8514 C   0  0  0  0  0  0  0  0  0  0  0  0
   -0.0412   -1.2563   -5.8666 C   0  0  0  0  0  0  0  0  0  0  0  0
    1.0993   -2.9989   -6.4436 H   0  0  0  0  0  0  0  0  0  0  0  0
    1.1025   -3.9406   -4.1208 H   0  0  0  0  0  0  0  0  0  0  0  0
    1.0081   -1.7538   -2.9028 H   0  0  0  0  0  0  0  0  0  0  0  0
   -1.2294   -0.5138   -2.7724 H   0  0  0  0  0  0  0  0  0  0  0  0
   -1.2247    0.3817   -5.0955 H   0  0  0  0  0  0  0  0  0  0  0  0
   -0.0544   -0.8604   -6.8776 H   0  0  0  0  0  0  0  0  0  0  0  0
  1  2  3  0  0  0  0
  3  5  1  0  0  0  0
  4  3  1  0  0  0  0
  6  7  2  0  0  0  0
  7 13  1  0  0  0  0
  7  8  1  0  0  0  0
  8 14  1  1  0  0  0
  8  3  1  0  0  0  0
  9  8  1  0  0  0  0
  9 15  1  0  0  0  0
 10  9  2  0  0  0  0
 11  6  1  0  0  0  0
 11 10  1  0  0  0  0
 12  6  1  0  0  0  0
 16 10  1  0  0  0  0
 17 11  1  0  0  0  0
M  RAD  1  11   2
M  END
