Coordinates from ORCA-job C6H6+NH2--N2+-scan
 OpenBabel10171807273D

 17 16  0  0  1  0  0  0  0  0999 V2000
    1.4178   -2.0271   -0.2361 N   0  0  0  0  0  0  0  0  0  0  0  0
    1.7426   -2.9874    0.1865 N   0  0  0  0  0  0  0  0  0  0  0  0
    1.0709   -1.5802   -2.2707 N   0  0  0  0  0  0  0  0  0  0  0  0
    0.1773   -1.2956   -1.8773 H   0  0  0  0  0  0  0  0  0  0  0  0
    1.7332   -0.8437   -2.0435 H   0  0  0  0  0  0  0  0  0  0  0  0
   -0.4747   -3.1041   -5.2253 C   0  0  0  0  0  0  0  0  0  0  0  0
    0.4000   -2.9819   -4.1816 C   0  0  0  0  0  0  0  0  0  0  0  0
    0.9240   -1.6643   -3.7596 C   0  0  1  0  0  0  0  0  0  0  0  0
    0.3356   -0.4953   -4.4511 C   0  0  0  0  0  0  0  0  0  0  0  0
   -0.5796   -0.6404   -5.4603 C   0  0  0  0  0  0  0  0  0  0  0  0
   -0.9710   -1.9379   -5.8468 C   0  0  0  0  0  0  0  0  0  0  0  0
   -0.8228   -4.0767   -5.5507 H   0  0  0  0  0  0  0  0  0  0  0  0
    0.7663   -3.8463   -3.6376 H   0  0  0  0  0  0  0  0  0  0  0  0
    1.9694   -1.7001   -4.1517 H   0  0  0  0  0  0  0  0  0  0  0  0
    0.6702    0.4899   -4.1405 H   0  0  0  0  0  0  0  0  0  0  0  0
   -1.0080    0.2218   -5.9567 H   0  0  0  0  0  0  0  0  0  0  0  0
   -1.6954   -2.0450   -6.6489 H   0  0  0  0  0  0  0  0  0  0  0  0
  1  2  3  0  0  0  0
  3  5  1  0  0  0  0
  3  4  1  0  0  0  0
  6  7  2  0  0  0  0
  7  8  1  0  0  0  0
  7 13  1  0  0  0  0
  8 14  1  6  0  0  0
  8  3  1  0  0  0  0
  9 15  1  0  0  0  0
  9  8  1  0  0  0  0
 10  9  2  0  0  0  0
 11 10  1  0  0  0  0
 11  6  1  0  0  0  0
 12  6  1  0  0  0  0
 16 10  1  0  0  0  0
 17 11  1  0  0  0  0
M  RAD  1  11   2
M  END
