Coordinates from ORCA-job C6H6+NH2--N2+-scan
 OpenBabel10171807273D

 17 16  0  0  0  0  0  0  0  0999 V2000
    0.0572   -1.9740   -1.1178 N   0  0  0  0  0  0  0  0  0  0  0  0
   -0.8585   -2.1053   -0.4864 N   0  0  0  0  0  0  0  0  0  0  0  0
    0.9707   -1.8676   -1.8087 N   0  0  0  0  0  0  0  0  0  0  0  0
    0.9395   -2.2417   -2.8208 H   0  0  0  0  0  0  0  0  0  0  0  0
    1.8207   -1.4137   -1.4712 H   0  0  0  0  0  0  0  0  0  0  0  0
   -0.4621   -2.9125   -4.4467 C   0  0  0  0  0  0  0  0  0  0  0  0
    0.9355   -2.9346   -4.5974 C   0  0  0  0  0  0  0  0  0  0  0  0
    1.6204   -1.7577   -4.9448 C   0  0  0  0  0  0  0  0  0  0  0  0
    0.9144   -0.5666   -5.1162 C   0  0  0  0  0  0  0  0  0  0  0  0
   -0.4723   -0.5478   -4.9525 C   0  0  0  0  0  0  0  0  0  0  0  0
   -1.1610   -1.7167   -4.6187 C   0  0  0  0  0  0  0  0  0  0  0  0
   -0.9953   -3.8307   -4.2252 H   0  0  0  0  0  0  0  0  0  0  0  0
    1.4742   -3.8735   -4.5209 H   0  0  0  0  0  0  0  0  0  0  0  0
    2.6932   -1.7842   -5.1006 H   0  0  0  0  0  0  0  0  0  0  0  0
    1.4394    0.3383   -5.3988 H   0  0  0  0  0  0  0  0  0  0  0  0
   -1.0200    0.3753   -5.1034 H   0  0  0  0  0  0  0  0  0  0  0  0
   -2.2405   -1.7012   -4.5219 H   0  0  0  0  0  0  0  0  0  0  0  0
  1  2  1  0  0  0  0
  3  5  1  0  0  0  0
  3  1  1  0  0  0  0
  4  3  1  0  0  0  0
  6 12  1  0  0  0  0
  7 13  1  0  0  0  0
  7  6  1  0  0  0  0
  8  7  2  0  0  0  0
  9 10  2  0  0  0  0
  9  8  1  0  0  0  0
 10 11  1  0  0  0  0
 11 17  1  0  0  0  0
 11  6  2  0  0  0  0
 14  8  1  0  0  0  0
 15  9  1  0  0  0  0
 16 10  1  0  0  0  0
M  RAD  2   1   2   2   3
M  END
