Coordinates from ORCA-job C6H6+NH2--N2+-scan
 OpenBabel10171807273D

 17 16  0  0  1  0  0  0  0  0999 V2000
    3.1273   -0.4922   -2.4270 N   0  0  0  0  0  0  0  0  0  0  0  0
    4.0591    0.0243   -2.1727 N   0  0  0  0  0  0  0  0  0  0  0  0
   -0.5629   -3.2193   -2.1645 N   0  0  0  0  0  0  0  0  0  0  0  0
   -1.4987   -3.5349   -2.3946 H   0  0  0  0  0  0  0  0  0  0  0  0
   -0.5703   -2.7981   -1.2430 H   0  0  0  0  0  0  0  0  0  0  0  0
    0.6706   -2.4798   -5.5651 C   0  0  0  0  0  0  0  0  0  0  0  0
    0.5700   -3.0662   -4.3282 C   0  0  0  0  0  0  0  0  0  0  0  0
   -0.0232   -2.3481   -3.1841 C   0  0  1  0  0  0  0  0  0  0  0  0
   -0.6788   -1.0590   -3.5083 C   0  0  0  0  0  0  0  0  0  0  0  0
   -0.5683   -0.5004   -4.7543 C   0  0  0  0  0  0  0  0  0  0  0  0
    0.0992   -1.2119   -5.7726 C   0  0  0  0  0  0  0  0  0  0  0  0
    1.1523   -2.9968   -6.3860 H   0  0  0  0  0  0  0  0  0  0  0  0
    0.9706   -4.0527   -4.1199 H   0  0  0  0  0  0  0  0  0  0  0  0
    0.9562   -1.9301   -2.7915 H   0  0  0  0  0  0  0  0  0  0  0  0
   -1.1978   -0.5451   -2.7050 H   0  0  0  0  0  0  0  0  0  0  0  0
   -1.0145    0.4620   -4.9746 H   0  0  0  0  0  0  0  0  0  0  0  0
    0.1649   -0.7659   -6.7605 H   0  0  0  0  0  0  0  0  0  0  0  0
  1  2  3  0  0  0  0
  3  5  1  0  0  0  0
  4  3  1  0  0  0  0
  6  7  2  0  0  0  0
  7 13  1  0  0  0  0
  7  8  1  0  0  0  0
  8 14  1  1  0  0  0
  8  3  1  0  0  0  0
  9  8  1  0  0  0  0
  9 15  1  0  0  0  0
 10  9  2  0  0  0  0
 11  6  1  0  0  0  0
 11 10  1  0  0  0  0
 12  6  1  0  0  0  0
 16 10  1  0  0  0  0
 17 11  1  0  0  0  0
M  RAD  1  11   2
M  END
