Coordinates from ORCA-job C6H6+NH2--N2+-scan
 OpenBabel10171807273D

 17 16  0  0  1  0  0  0  0  0999 V2000
    3.0846   -0.7338   -2.1167 N   0  0  0  0  0  0  0  0  0  0  0  0
    4.0336   -0.3481   -1.7295 N   0  0  0  0  0  0  0  0  0  0  0  0
   -0.3600   -3.0934   -2.1244 N   0  0  0  0  0  0  0  0  0  0  0  0
   -1.2830   -3.4865   -2.2722 H   0  0  0  0  0  0  0  0  0  0  0  0
   -0.3398   -2.6172   -1.2304 H   0  0  0  0  0  0  0  0  0  0  0  0
    0.6164   -2.4742   -5.6328 C   0  0  0  0  0  0  0  0  0  0  0  0
    0.6257   -2.9945   -4.3623 C   0  0  0  0  0  0  0  0  0  0  0  0
    0.0503   -2.2529   -3.2257 C   0  0  1  0  0  0  0  0  0  0  0  0
   -0.7098   -1.0312   -3.5774 C   0  0  0  0  0  0  0  0  0  0  0  0
   -0.7063   -0.5370   -4.8555 C   0  0  0  0  0  0  0  0  0  0  0  0
   -0.0503   -1.2600   -5.8730 C   0  0  0  0  0  0  0  0  0  0  0  0
    1.0857   -3.0048   -6.4522 H   0  0  0  0  0  0  0  0  0  0  0  0
    1.1049   -3.9388   -4.1263 H   0  0  0  0  0  0  0  0  0  0  0  0
    1.0198   -1.7476   -2.9166 H   0  0  0  0  0  0  0  0  0  0  0  0
   -1.2175   -0.5077   -2.7731 H   0  0  0  0  0  0  0  0  0  0  0  0
   -1.2283    0.3806   -5.0989 H   0  0  0  0  0  0  0  0  0  0  0  0
   -0.0701   -0.8672   -6.8851 H   0  0  0  0  0  0  0  0  0  0  0  0
  1  2  3  0  0  0  0
  3  5  1  0  0  0  0
  4  3  1  0  0  0  0
  6  7  2  0  0  0  0
  7 13  1  0  0  0  0
  7  8  1  0  0  0  0
  8 14  1  1  0  0  0
  8  3  1  0  0  0  0
  9  8  1  0  0  0  0
  9 15  1  0  0  0  0
 10  9  2  0  0  0  0
 11  6  1  0  0  0  0
 11 10  1  0  0  0  0
 12  6  1  0  0  0  0
 16 10  1  0  0  0  0
 17 11  1  0  0  0  0
M  RAD  1  11   2
M  END
