Coordinates from ORCA-job C6H6+NH2--N2+-scan
 OpenBabel10171807273D

 17 16  0  0  0  0  0  0  0  0999 V2000
    0.9957   -1.8263   -0.4254 N   0  0  0  0  0  0  0  0  0  0  0  0
    1.7697   -2.0835    0.3184 N   0  0  0  0  0  0  0  0  0  0  0  0
    0.8888   -1.7428   -2.1714 N   0  0  0  0  0  0  0  0  0  0  0  0
    0.0389   -2.3192   -2.2209 H   0  0  0  0  0  0  0  0  0  0  0  0
    0.5300   -0.7802   -2.1673 H   0  0  0  0  0  0  0  0  0  0  0  0
   -0.5125   -3.0355   -5.1657 C   0  0  0  0  0  0  0  0  0  0  0  0
    0.6932   -3.0446   -4.4975 C   0  0  0  0  0  0  0  0  0  0  0  0
    1.3280   -1.8113   -4.1263 C   0  0  0  0  0  0  0  0  0  0  0  0
    0.7195   -0.5827   -4.5455 C   0  0  0  0  0  0  0  0  0  0  0  0
   -0.4927   -0.5894   -5.2105 C   0  0  0  0  0  0  0  0  0  0  0  0
   -1.1025   -1.8108   -5.5260 C   0  0  0  0  0  0  0  0  0  0  0  0
   -0.9953   -3.9667   -5.4363 H   0  0  0  0  0  0  0  0  0  0  0  0
    1.1756   -3.9807   -4.2381 H   0  0  0  0  0  0  0  0  0  0  0  0
    2.3920   -1.8229   -3.9254 H   0  0  0  0  0  0  0  0  0  0  0  0
    1.2281    0.3533   -4.3378 H   0  0  0  0  0  0  0  0  0  0  0  0
   -0.9560    0.3418   -5.5128 H   0  0  0  0  0  0  0  0  0  0  0  0
   -2.0445   -1.8127   -6.0634 H   0  0  0  0  0  0  0  0  0  0  0  0
  1  2  2  0  0  0  0
  3  5  1  0  0  0  0
  3  1  1  0  0  0  0
  4  3  1  0  0  0  0
  6  7  2  0  0  0  0
  7 13  1  0  0  0  0
  7  8  1  0  0  0  0
  8 14  1  0  0  0  0
  9 15  1  0  0  0  0
  9  8  2  0  0  0  0
 10  9  1  0  0  0  0
 11 10  2  0  0  0  0
 11  6  1  0  0  0  0
 12  6  1  0  0  0  0
 16 10  1  0  0  0  0
 17 11  1  0  0  0  0
M  RAD  1   2   2
M  END
