Coordinates from ORCA-job C6H6+NH2--N2+-scan
 OpenBabel10171807273D

 17 16  0  0  1  0  0  0  0  0999 V2000
    1.6891   -1.4532    0.6055 N   0  0  0  0  0  0  0  0  0  0  0  0
    1.9591   -1.5503    1.6626 N   0  0  0  0  0  0  0  0  0  0  0  0
    1.2052   -2.1242   -2.5102 N   0  0  0  0  0  0  0  0  0  0  0  0
    0.4106   -2.0623   -1.8841 H   0  0  0  0  0  0  0  0  0  0  0  0
    1.9208   -1.4889   -2.1791 H   0  0  0  0  0  0  0  0  0  0  0  0
   -0.5602   -3.0209   -5.6216 C   0  0  0  0  0  0  0  0  0  0  0  0
    0.2975   -3.1139   -4.5552 C   0  0  0  0  0  0  0  0  0  0  0  0
    0.8331   -1.9083   -3.8893 C   0  0  1  0  0  0  0  0  0  0  0  0
    0.2293   -0.6216   -4.3186 C   0  0  0  0  0  0  0  0  0  0  0  0
   -0.6328   -0.5599   -5.3809 C   0  0  0  0  0  0  0  0  0  0  0  0
   -1.0237   -1.7542   -6.0219 C   0  0  0  0  0  0  0  0  0  0  0  0
   -0.9094   -3.9101   -6.1321 H   0  0  0  0  0  0  0  0  0  0  0  0
    0.6637   -4.0664   -4.1867 H   0  0  0  0  0  0  0  0  0  0  0  0
    1.7947   -1.8495   -4.4817 H   0  0  0  0  0  0  0  0  0  0  0  0
    0.5409    0.2759   -3.7932 H   0  0  0  0  0  0  0  0  0  0  0  0
   -1.0416    0.3868   -5.7131 H   0  0  0  0  0  0  0  0  0  0  0  0
   -1.7205   -1.6934   -6.8526 H   0  0  0  0  0  0  0  0  0  0  0  0
  1  2  3  0  0  0  0
  3  5  1  0  0  0  0
  3  4  1  0  0  0  0
  6  7  2  0  0  0  0
  7 13  1  0  0  0  0
  7  8  1  0  0  0  0
  8 14  1  6  0  0  0
  8  3  1  0  0  0  0
  9  8  1  0  0  0  0
  9 15  1  0  0  0  0
 10  9  2  0  0  0  0
 11  6  1  0  0  0  0
 11 10  1  0  0  0  0
 12  6  1  0  0  0  0
 16 10  1  0  0  0  0
 17 11  1  0  0  0  0
M  RAD  1  11   2
M  END
