Coordinates from ORCA-job C6H6+NH2--N2+-scan
 OpenBabel10171807273D

 17 16  0  0  1  0  0  0  0  0999 V2000
    3.6322    0.6209   -4.5431 N   0  0  0  0  0  0  0  0  0  0  0  0
    4.5745    1.1571   -4.3870 N   0  0  0  0  0  0  0  0  0  0  0  0
   -1.4482   -3.6341   -2.5860 N   0  0  0  0  0  0  0  0  0  0  0  0
   -2.2411   -3.6842   -3.2164 H   0  0  0  0  0  0  0  0  0  0  0  0
   -1.7807   -3.4410   -1.6485 H   0  0  0  0  0  0  0  0  0  0  0  0
    1.0813   -2.4274   -4.9796 C   0  0  0  0  0  0  0  0  0  0  0  0
    0.4587   -3.2376   -4.0663 C   0  0  0  0  0  0  0  0  0  0  0  0
   -0.4553   -2.6861   -3.0431 C   0  0  1  0  0  0  0  0  0  0  0  0
   -0.8031   -1.2513   -3.2068 C   0  0  0  0  0  0  0  0  0  0  0  0
   -0.1722   -0.4688   -4.1353 C   0  0  0  0  0  0  0  0  0  0  0  0
    0.7616   -1.0570   -5.0149 C   0  0  0  0  0  0  0  0  0  0  0  0
    1.7865   -2.8352   -5.6934 H   0  0  0  0  0  0  0  0  0  0  0  0
    0.6464   -4.3050   -4.0152 H   0  0  0  0  0  0  0  0  0  0  0  0
    0.3069   -2.5892   -2.2156 H   0  0  0  0  0  0  0  0  0  0  0  0
   -1.5365   -0.8339   -2.5237 H   0  0  0  0  0  0  0  0  0  0  0  0
   -0.4022    0.5861   -4.2242 H   0  0  0  0  0  0  0  0  0  0  0  0
    1.2472   -0.4277   -5.7529 H   0  0  0  0  0  0  0  0  0  0  0  0
  1  2  3  0  0  0  0
  3  5  1  0  0  0  0
  4  3  1  0  0  0  0
  6  7  2  0  0  0  0
  7 13  1  0  0  0  0
  7  8  1  0  0  0  0
  8  3  1  0  0  0  0
  8 14  1  1  0  0  0
  9  8  1  0  0  0  0
  9 15  1  0  0  0  0
 10  9  2  0  0  0  0
 11  6  1  0  0  0  0
 11 10  1  0  0  0  0
 12  6  1  0  0  0  0
 16 10  1  0  0  0  0
 17 11  1  0  0  0  0
M  RAD  1  11   2
M  END
