Coordinates from ORCA-job C6H6+NH2--N2+-scan
 OpenBabel10171807273D

 17 16  0  0  1  0  0  0  0  0999 V2000
    3.3531   -0.1363   -2.7628 N   0  0  0  0  0  0  0  0  0  0  0  0
    4.2732    0.4310   -2.5853 N   0  0  0  0  0  0  0  0  0  0  0  0
   -0.7897   -3.3449   -2.2290 N   0  0  0  0  0  0  0  0  0  0  0  0
   -1.7212   -3.5896   -2.5467 H   0  0  0  0  0  0  0  0  0  0  0  0
   -0.8450   -2.9782   -1.2861 H   0  0  0  0  0  0  0  0  0  0  0  0
    0.7207   -2.4892   -5.4852 C   0  0  0  0  0  0  0  0  0  0  0  0
    0.5066   -3.1350   -4.2940 C   0  0  0  0  0  0  0  0  0  0  0  0
   -0.1264   -2.4483   -3.1499 C   0  0  1  0  0  0  0  0  0  0  0  0
   -0.6899   -1.1073   -3.4416 C   0  0  0  0  0  0  0  0  0  0  0  0
   -0.4676   -0.4901   -4.6438 C   0  0  0  0  0  0  0  0  0  0  0  0
    0.2303   -1.1819   -5.6556 C   0  0  0  0  0  0  0  0  0  0  0  0
    1.2297   -2.9862   -6.3019 H   0  0  0  0  0  0  0  0  0  0  0  0
    0.8398   -4.1524   -4.1176 H   0  0  0  0  0  0  0  0  0  0  0  0
    0.8384   -2.1144   -2.6599 H   0  0  0  0  0  0  0  0  0  0  0  0
   -1.2344   -0.6094   -2.6452 H   0  0  0  0  0  0  0  0  0  0  0  0
   -0.8474    0.5058   -4.8374 H   0  0  0  0  0  0  0  0  0  0  0  0
    0.3857   -0.6876   -6.6099 H   0  0  0  0  0  0  0  0  0  0  0  0
  1  2  3  0  0  0  0
  3  5  1  0  0  0  0
  4  3  1  0  0  0  0
  6  7  2  0  0  0  0
  7 13  1  0  0  0  0
  7  8  1  0  0  0  0
  8 14  1  1  0  0  0
  8  3  1  0  0  0  0
  9  8  1  0  0  0  0
  9 15  1  0  0  0  0
 10  9  2  0  0  0  0
 11  6  1  0  0  0  0
 11 10  1  0  0  0  0
 12  6  1  0  0  0  0
 16 10  1  0  0  0  0
 17 11  1  0  0  0  0
M  RAD  1  11   2
M  END
