Coordinates from ORCA-job C6H6+NH2--N2+-scan
 OpenBabel10171807273D

 17 16  0  0  1  0  0  0  0  0999 V2000
    3.6513    0.1256   -2.9654 N   0  0  0  0  0  0  0  0  0  0  0  0
    4.5752    0.6936   -2.8110 N   0  0  0  0  0  0  0  0  0  0  0  0
   -0.9455   -3.4252   -2.2861 N   0  0  0  0  0  0  0  0  0  0  0  0
   -1.8633   -3.6350   -2.6632 H   0  0  0  0  0  0  0  0  0  0  0  0
   -1.0447   -3.0935   -1.3339 H   0  0  0  0  0  0  0  0  0  0  0  0
    0.7524   -2.4902   -5.4238 C   0  0  0  0  0  0  0  0  0  0  0  0
    0.4690   -3.1693   -4.2664 C   0  0  0  0  0  0  0  0  0  0  0  0
   -0.2126   -2.5093   -3.1336 C   0  0  1  0  0  0  0  0  0  0  0  0
   -0.7397   -1.1495   -3.4102 C   0  0  0  0  0  0  0  0  0  0  0  0
   -0.4489   -0.4992   -4.5796 C   0  0  0  0  0  0  0  0  0  0  0  0
    0.2893   -1.1706   -5.5768 C   0  0  0  0  0  0  0  0  0  0  0  0
    1.2946   -2.9695   -6.2296 H   0  0  0  0  0  0  0  0  0  0  0  0
    0.7771   -4.1973   -4.1067 H   0  0  0  0  0  0  0  0  0  0  0  0
    0.7241   -2.2151   -2.5723 H   0  0  0  0  0  0  0  0  0  0  0  0
   -1.3163   -0.6679   -2.6265 H   0  0  0  0  0  0  0  0  0  0  0  0
   -0.8044    0.5080   -4.7605 H   0  0  0  0  0  0  0  0  0  0  0  0
    0.4984   -0.6499   -6.5065 H   0  0  0  0  0  0  0  0  0  0  0  0
  1  2  3  0  0  0  0
  3  5  1  0  0  0  0
  4  3  1  0  0  0  0
  6  7  2  0  0  0  0
  7 13  1  0  0  0  0
  7  8  1  0  0  0  0
  8 14  1  1  0  0  0
  8  3  1  0  0  0  0
  9  8  1  0  0  0  0
  9 15  1  0  0  0  0
 10  9  2  0  0  0  0
 11  6  1  0  0  0  0
 11 10  1  0  0  0  0
 12  6  1  0  0  0  0
 16 10  1  0  0  0  0
 17 11  1  0  0  0  0
M  RAD  1  11   2
M  END
