Coordinates from ORCA-job C6H6+NH2--N2+-scan
 OpenBabel10171807273D

 17 16  0  0  1  0  0  0  0  0999 V2000
    1.7366   -1.2788    0.8117 N   0  0  0  0  0  0  0  0  0  0  0  0
    1.9857   -1.2635    1.8782 N   0  0  0  0  0  0  0  0  0  0  0  0
    1.2117   -2.2439   -2.5580 N   0  0  0  0  0  0  0  0  0  0  0  0
    0.4156   -2.2132   -1.9305 H   0  0  0  0  0  0  0  0  0  0  0  0
    1.9261   -1.6174   -2.2060 H   0  0  0  0  0  0  0  0  0  0  0  0
   -0.5682   -3.0009   -5.6990 C   0  0  0  0  0  0  0  0  0  0  0  0
    0.2950   -3.1409   -4.6422 C   0  0  0  0  0  0  0  0  0  0  0  0
    0.8316   -1.9658   -3.9247 C   0  0  1  0  0  0  0  0  0  0  0  0
    0.2230   -0.6621   -4.2910 C   0  0  0  0  0  0  0  0  0  0  0  0
   -0.6441   -0.5536   -5.3453 C   0  0  0  0  0  0  0  0  0  0  0  0
   -1.0360   -1.7181   -6.0385 C   0  0  0  0  0  0  0  0  0  0  0  0
   -0.9182   -3.8664   -6.2481 H   0  0  0  0  0  0  0  0  0  0  0  0
    0.6651   -4.1085   -4.3198 H   0  0  0  0  0  0  0  0  0  0  0  0
    1.7899   -1.8781   -4.5188 H   0  0  0  0  0  0  0  0  0  0  0  0
    0.5353    0.2110   -3.7263 H   0  0  0  0  0  0  0  0  0  0  0  0
   -1.0563    0.4065   -5.6318 H   0  0  0  0  0  0  0  0  0  0  0  0
   -1.7369   -1.6206   -6.8623 H   0  0  0  0  0  0  0  0  0  0  0  0
  1  2  3  0  0  0  0
  3  5  1  0  0  0  0
  3  4  1  0  0  0  0
  6  7  2  0  0  0  0
  7 13  1  0  0  0  0
  7  8  1  0  0  0  0
  8 14  1  6  0  0  0
  8  3  1  0  0  0  0
  9  8  1  0  0  0  0
  9 15  1  0  0  0  0
 10  9  2  0  0  0  0
 11  6  1  0  0  0  0
 11 10  1  0  0  0  0
 12  6  1  0  0  0  0
 16 10  1  0  0  0  0
 17 11  1  0  0  0  0
M  RAD  1  11   2
M  END
