Coordinates from ORCA-job C6H6+NH2--N2+-scan
 OpenBabel10171807273D

 17 16  0  0  0  0  0  0  0  0999 V2000
   -0.0877   -1.8201   -1.1717 N   0  0  0  0  0  0  0  0  0  0  0  0
   -1.0540   -1.7899   -0.6347 N   0  0  0  0  0  0  0  0  0  0  0  0
    1.1264   -2.0415   -1.7681 N   0  0  0  0  0  0  0  0  0  0  0  0
    0.9828   -2.3380   -2.7728 H   0  0  0  0  0  0  0  0  0  0  0  0
    1.7175   -1.2189   -1.6270 H   0  0  0  0  0  0  0  0  0  0  0  0
   -0.4282   -2.9684   -4.4853 C   0  0  0  0  0  0  0  0  0  0  0  0
    0.9565   -2.9811   -4.7095 C   0  0  0  0  0  0  0  0  0  0  0  0
    1.6306   -1.7827   -4.9872 C   0  0  0  0  0  0  0  0  0  0  0  0
    0.9248   -0.5785   -5.0290 C   0  0  0  0  0  0  0  0  0  0  0  0
   -0.4526   -0.5685   -4.7997 C   0  0  0  0  0  0  0  0  0  0  0  0
   -1.1295   -1.7605   -4.5285 C   0  0  0  0  0  0  0  0  0  0  0  0
   -0.9556   -3.9004   -4.3130 H   0  0  0  0  0  0  0  0  0  0  0  0
    1.4960   -3.9221   -4.7193 H   0  0  0  0  0  0  0  0  0  0  0  0
    2.6948   -1.7983   -5.1948 H   0  0  0  0  0  0  0  0  0  0  0  0
    1.4418    0.3441   -5.2665 H   0  0  0  0  0  0  0  0  0  0  0  0
   -1.0030    0.3638   -4.8578 H   0  0  0  0  0  0  0  0  0  0  0  0
   -2.2046   -1.7532   -4.3871 H   0  0  0  0  0  0  0  0  0  0  0  0
  1  2  1  0  0  0  0
  3  5  1  0  0  0  0
  3  1  1  0  0  0  0
  4  3  1  0  0  0  0
  6 12  1  0  0  0  0
  7  6  2  0  0  0  0
  8  7  1  0  0  0  0
  9  8  2  0  0  0  0
  9 10  1  0  0  0  0
 10 11  2  0  0  0  0
 11  6  1  0  0  0  0
 11 17  1  0  0  0  0
 13  7  1  0  0  0  0
 14  8  1  0  0  0  0
 15  9  1  0  0  0  0
 16 10  1  0  0  0  0
M  RAD  2   1   2   2   3
M  END
