Coordinates from ORCA-job C6H6+NH2--N2+-scan
 OpenBabel10171807273D

 17 16  0  0  1  0  0  0  0  0999 V2000
    3.0638   -0.7492   -2.1083 N   0  0  0  0  0  0  0  0  0  0  0  0
    4.0107   -0.3660   -1.7135 N   0  0  0  0  0  0  0  0  0  0  0  0
   -0.3474   -3.0867   -2.1220 N   0  0  0  0  0  0  0  0  0  0  0  0
   -1.2704   -3.4820   -2.2640 H   0  0  0  0  0  0  0  0  0  0  0  0
   -0.3239   -2.6076   -1.2296 H   0  0  0  0  0  0  0  0  0  0  0  0
    0.6139   -2.4746   -5.6362 C   0  0  0  0  0  0  0  0  0  0  0  0
    0.6283   -2.9921   -4.3645 C   0  0  0  0  0  0  0  0  0  0  0  0
    0.0562   -2.2488   -3.2277 C   0  0  1  0  0  0  0  0  0  0  0  0
   -0.7066   -1.0289   -3.5791 C   0  0  0  0  0  0  0  0  0  0  0  0
   -0.7081   -0.5373   -4.8583 C   0  0  0  0  0  0  0  0  0  0  0  0
   -0.0550   -1.2616   -5.8766 C   0  0  0  0  0  0  0  0  0  0  0  0
    1.0809   -3.0064   -6.4561 H   0  0  0  0  0  0  0  0  0  0  0  0
    1.1095   -3.9353   -4.1282 H   0  0  0  0  0  0  0  0  0  0  0  0
    1.0264   -1.7420   -2.9227 H   0  0  0  0  0  0  0  0  0  0  0  0
   -1.2120   -0.5043   -2.7742 H   0  0  0  0  0  0  0  0  0  0  0  0
   -1.2320    0.3793   -5.1017 H   0  0  0  0  0  0  0  0  0  0  0  0
   -0.0787   -0.8709   -6.8894 H   0  0  0  0  0  0  0  0  0  0  0  0
  1  2  3  0  0  0  0
  3  5  1  0  0  0  0
  4  3  1  0  0  0  0
  6  7  2  0  0  0  0
  7 13  1  0  0  0  0
  7  8  1  0  0  0  0
  8 14  1  1  0  0  0
  8  3  1  0  0  0  0
  9  8  1  0  0  0  0
  9 15  1  0  0  0  0
 10  9  2  0  0  0  0
 11  6  1  0  0  0  0
 11 10  1  0  0  0  0
 12  6  1  0  0  0  0
 16 10  1  0  0  0  0
 17 11  1  0  0  0  0
M  RAD  1  11   2
M  END
