Coordinates from ORCA-job C6H6+NH2--N2+-scan
 OpenBabel10171807273D

 17 16  0  0  1  0  0  0  0  0999 V2000
    1.7459   -1.2552    0.8351 N   0  0  0  0  0  0  0  0  0  0  0  0
    1.9936   -1.2263    1.9017 N   0  0  0  0  0  0  0  0  0  0  0  0
    1.2094   -2.2599   -2.5634 N   0  0  0  0  0  0  0  0  0  0  0  0
    0.4141   -2.2329   -1.9348 H   0  0  0  0  0  0  0  0  0  0  0  0
    1.9223   -1.6352   -2.2051 H   0  0  0  0  0  0  0  0  0  0  0  0
   -0.5681   -2.9980   -5.7097 C   0  0  0  0  0  0  0  0  0  0  0  0
    0.2944   -3.1442   -4.6531 C   0  0  0  0  0  0  0  0  0  0  0  0
    0.8301   -1.9732   -3.9282 C   0  0  1  0  0  0  0  0  0  0  0  0
    0.2212   -0.6675   -4.2868 C   0  0  0  0  0  0  0  0  0  0  0  0
   -0.6454   -0.5529   -5.3410 C   0  0  0  0  0  0  0  0  0  0  0  0
   -1.0362   -1.7133   -6.0416 C   0  0  0  0  0  0  0  0  0  0  0  0
   -0.9174   -3.8603   -6.2643 H   0  0  0  0  0  0  0  0  0  0  0  0
    0.6646   -4.1136   -4.3364 H   0  0  0  0  0  0  0  0  0  0  0  0
    1.7888   -1.8815   -4.5211 H   0  0  0  0  0  0  0  0  0  0  0  0
    0.5328    0.2022   -3.7165 H   0  0  0  0  0  0  0  0  0  0  0  0
   -1.0578    0.4088   -5.6218 H   0  0  0  0  0  0  0  0  0  0  0  0
   -1.7367   -1.6111   -6.8652 H   0  0  0  0  0  0  0  0  0  0  0  0
  1  2  3  0  0  0  0
  3  5  1  0  0  0  0
  3  4  1  0  0  0  0
  6  7  2  0  0  0  0
  7 13  1  0  0  0  0
  7  8  1  0  0  0  0
  8 14  1  6  0  0  0
  8  3  1  0  0  0  0
  9  8  1  0  0  0  0
  9 15  1  0  0  0  0
 10  9  2  0  0  0  0
 11  6  1  0  0  0  0
 11 10  1  0  0  0  0
 12  6  1  0  0  0  0
 16 10  1  0  0  0  0
 17 11  1  0  0  0  0
M  RAD  1  11   2
M  END
