Coordinates from ORCA-job C6H6+NH2--N2+-scan
 OpenBabel10171807273D

 17 16  0  0  1  0  0  0  0  0999 V2000
    1.5685   -1.9727   -0.0162 N   0  0  0  0  0  0  0  0  0  0  0  0
    1.9279   -2.8814    0.4807 N   0  0  0  0  0  0  0  0  0  0  0  0
    1.0797   -1.6288   -2.3016 N   0  0  0  0  0  0  0  0  0  0  0  0
    0.2276   -1.3926   -1.8042 H   0  0  0  0  0  0  0  0  0  0  0  0
    1.7764   -0.9319   -2.0648 H   0  0  0  0  0  0  0  0  0  0  0  0
   -0.4945   -3.0917   -5.2966 C   0  0  0  0  0  0  0  0  0  0  0  0
    0.3186   -2.9840   -4.1990 C   0  0  0  0  0  0  0  0  0  0  0  0
    0.8326   -1.6748   -3.7437 C   0  0  1  0  0  0  0  0  0  0  0  0
    0.2619   -0.4921   -4.4334 C   0  0  0  0  0  0  0  0  0  0  0  0
   -0.5700   -0.6270   -5.5129 C   0  0  0  0  0  0  0  0  0  0  0  0
   -0.9407   -1.9198   -5.9380 C   0  0  0  0  0  0  0  0  0  0  0  0
   -0.8278   -4.0600   -5.6492 H   0  0  0  0  0  0  0  0  0  0  0  0
    0.6583   -3.8528   -3.6448 H   0  0  0  0  0  0  0  0  0  0  0  0
    1.8454   -1.7196   -4.2347 H   0  0  0  0  0  0  0  0  0  0  0  0
    0.5644    0.4882   -4.0779 H   0  0  0  0  0  0  0  0  0  0  0  0
   -0.9638    0.2415   -6.0269 H   0  0  0  0  0  0  0  0  0  0  0  0
   -1.6088   -2.0148   -6.7890 H   0  0  0  0  0  0  0  0  0  0  0  0
  1  2  3  0  0  0  0
  3  5  1  0  0  0  0
  3  4  1  0  0  0  0
  6  7  2  0  0  0  0
  7  8  1  0  0  0  0
  7 13  1  0  0  0  0
  8 14  1  6  0  0  0
  8  3  1  0  0  0  0
  9 15  1  0  0  0  0
  9  8  1  0  0  0  0
 10  9  2  0  0  0  0
 11 10  1  0  0  0  0
 11  6  1  0  0  0  0
 12  6  1  0  0  0  0
 16 10  1  0  0  0  0
 17 11  1  0  0  0  0
M  RAD  1  11   2
M  END
