Coordinates from ORCA-job C6H6+NH2--N2+-scan
 OpenBabel10171807273D

 17 16  0  0  1  0  0  0  0  0999 V2000
    1.6782   -1.4922    0.5410 N   0  0  0  0  0  0  0  0  0  0  0  0
    1.9531   -1.6114    1.5946 N   0  0  0  0  0  0  0  0  0  0  0  0
    1.2008   -2.0987   -2.4959 N   0  0  0  0  0  0  0  0  0  0  0  0
    0.4049   -2.0304   -1.8723 H   0  0  0  0  0  0  0  0  0  0  0  0
    1.9161   -1.4616   -2.1683 H   0  0  0  0  0  0  0  0  0  0  0  0
   -0.5566   -3.0246   -5.6033 C   0  0  0  0  0  0  0  0  0  0  0  0
    0.2986   -3.1076   -4.5340 C   0  0  0  0  0  0  0  0  0  0  0  0
    0.8328   -1.8960   -3.8781 C   0  0  1  0  0  0  0  0  0  0  0  0
    0.2305   -0.6133   -4.3213 C   0  0  0  0  0  0  0  0  0  0  0  0
   -0.6291   -0.5614   -5.3862 C   0  0  0  0  0  0  0  0  0  0  0  0
   -1.0188   -1.7617   -6.0166 C   0  0  0  0  0  0  0  0  0  0  0  0
   -0.9049   -3.9185   -6.1061 H   0  0  0  0  0  0  0  0  0  0  0  0
    0.6635   -4.0567   -4.1556 H   0  0  0  0  0  0  0  0  0  0  0  0
    1.7962   -1.8430   -4.4681 H   0  0  0  0  0  0  0  0  0  0  0  0
    0.5412    0.2892   -3.8038 H   0  0  0  0  0  0  0  0  0  0  0  0
   -1.0369    0.3822   -5.7283 H   0  0  0  0  0  0  0  0  0  0  0  0
   -1.7137   -1.7085   -6.8496 H   0  0  0  0  0  0  0  0  0  0  0  0
  1  2  3  0  0  0  0
  3  5  1  0  0  0  0
  3  4  1  0  0  0  0
  6  7  2  0  0  0  0
  7 13  1  0  0  0  0
  7  8  1  0  0  0  0
  8 14  1  6  0  0  0
  8  3  1  0  0  0  0
  9  8  1  0  0  0  0
  9 15  1  0  0  0  0
 10  9  2  0  0  0  0
 11  6  1  0  0  0  0
 11 10  1  0  0  0  0
 12  6  1  0  0  0  0
 16 10  1  0  0  0  0
 17 11  1  0  0  0  0
M  RAD  1  11   2
M  END
