Coordinates from ORCA-job C6H6+NH2--N2+-scan
 OpenBabel10171807273D

 17 16  0  0  1  0  0  0  0  0999 V2000
    3.4817   -0.0241   -2.8469 N   0  0  0  0  0  0  0  0  0  0  0  0
    4.4024    0.5450   -2.6783 N   0  0  0  0  0  0  0  0  0  0  0  0
   -0.8576   -3.3801   -2.2546 N   0  0  0  0  0  0  0  0  0  0  0  0
   -1.7850   -3.6034   -2.5991 H   0  0  0  0  0  0  0  0  0  0  0  0
   -0.9304   -3.0304   -1.3064 H   0  0  0  0  0  0  0  0  0  0  0  0
    0.7338   -2.4901   -5.4603 C   0  0  0  0  0  0  0  0  0  0  0  0
    0.4926   -3.1493   -4.2820 C   0  0  0  0  0  0  0  0  0  0  0  0
   -0.1600   -2.4738   -3.1418 C   0  0  1  0  0  0  0  0  0  0  0  0
   -0.7084   -1.1247   -3.4273 C   0  0  0  0  0  0  0  0  0  0  0  0
   -0.4605   -0.4945   -4.6175 C   0  0  0  0  0  0  0  0  0  0  0  0
    0.2530   -1.1781   -5.6241 C   0  0  0  0  0  0  0  0  0  0  0  0
    1.2558   -2.9797   -6.2732 H   0  0  0  0  0  0  0  0  0  0  0  0
    0.8151   -4.1713   -4.1127 H   0  0  0  0  0  0  0  0  0  0  0  0
    0.7911   -2.1585   -2.6166 H   0  0  0  0  0  0  0  0  0  0  0  0
   -1.2647   -0.6332   -2.6352 H   0  0  0  0  0  0  0  0  0  0  0  0
   -0.8313    0.5057   -4.8063 H   0  0  0  0  0  0  0  0  0  0  0  0
    0.4281   -0.6737   -6.5698 H   0  0  0  0  0  0  0  0  0  0  0  0
  1  2  3  0  0  0  0
  3  5  1  0  0  0  0
  4  3  1  0  0  0  0
  6  7  2  0  0  0  0
  7 13  1  0  0  0  0
  7  8  1  0  0  0  0
  8 14  1  1  0  0  0
  8  3  1  0  0  0  0
  9  8  1  0  0  0  0
  9 15  1  0  0  0  0
 10  9  2  0  0  0  0
 11  6  1  0  0  0  0
 11 10  1  0  0  0  0
 12  6  1  0  0  0  0
 16 10  1  0  0  0  0
 17 11  1  0  0  0  0
M  RAD  1  11   2
M  END
