Coordinates from ORCA-job C6H6+NH2--N2+-scan
 OpenBabel10171807273D

 17 16  0  0  1  0  0  0  0  0999 V2000
    3.0216   -0.8113   -1.9955 N   0  0  0  0  0  0  0  0  0  0  0  0
    3.9582   -0.4676   -1.5437 N   0  0  0  0  0  0  0  0  0  0  0  0
   -0.2765   -3.0446   -2.1161 N   0  0  0  0  0  0  0  0  0  0  0  0
   -1.1982   -3.4533   -2.2251 H   0  0  0  0  0  0  0  0  0  0  0  0
   -0.2339   -2.5492   -1.2335 H   0  0  0  0  0  0  0  0  0  0  0  0
    0.5860   -2.4815   -5.6647 C   0  0  0  0  0  0  0  0  0  0  0  0
    0.6382   -2.9778   -4.3855 C   0  0  0  0  0  0  0  0  0  0  0  0
    0.0867   -2.2221   -3.2470 C   0  0  1  0  0  0  0  0  0  0  0  0
   -0.6980   -1.0166   -3.5984 C   0  0  0  0  0  0  0  0  0  0  0  0
   -0.7372   -0.5460   -4.8849 C   0  0  0  0  0  0  0  0  0  0  0  0
   -0.1021   -1.2799   -5.9076 C   0  0  0  0  0  0  0  0  0  0  0  0
    1.0382   -3.0217   -6.4874 H   0  0  0  0  0  0  0  0  0  0  0  0
    1.1358   -3.9117   -4.1463 H   0  0  0  0  0  0  0  0  0  0  0  0
    1.0584   -1.7016   -2.9718 H   0  0  0  0  0  0  0  0  0  0  0  0
   -1.1889   -0.4842   -2.7895 H   0  0  0  0  0  0  0  0  0  0  0  0
   -1.2770    0.3609   -5.1295 H   0  0  0  0  0  0  0  0  0  0  0  0
   -0.1556   -0.9060   -6.9257 H   0  0  0  0  0  0  0  0  0  0  0  0
  1  2  3  0  0  0  0
  3  5  1  0  0  0  0
  4  3  1  0  0  0  0
  6  7  2  0  0  0  0
  7 13  1  0  0  0  0
  7  8  1  0  0  0  0
  8 14  1  1  0  0  0
  8  3  1  0  0  0  0
  9  8  1  0  0  0  0
  9 15  1  0  0  0  0
 10  9  2  0  0  0  0
 11  6  1  0  0  0  0
 11 10  1  0  0  0  0
 12  6  1  0  0  0  0
 16 10  1  0  0  0  0
 17 11  1  0  0  0  0
M  RAD  1  11   2
M  END
