Coordinates from ORCA-job C6H6+NH2--N2+-scan
 OpenBabel10171807273D

 17 17  0  0  1  0  0  0  0  0999 V2000
    0.9642   -1.9271   -0.5242 N   0  0  0  0  0  0  0  0  0  0  0  0
    1.4477   -2.7288    0.0623 N   0  0  0  0  0  0  0  0  0  0  0  0
    0.9273   -1.5947   -2.2738 N   0  0  0  0  0  0  0  0  0  0  0  0
   -0.0979   -1.5537   -2.2817 H   0  0  0  0  0  0  0  0  0  0  0  0
    1.2153   -0.6214   -2.1252 H   0  0  0  0  0  0  0  0  0  0  0  0
   -0.4691   -3.0977   -5.1011 C   0  0  0  0  0  0  0  0  0  0  0  0
    0.7046   -3.0464   -4.4009 C   0  0  0  0  0  0  0  0  0  0  0  0
    1.2844   -1.7673   -4.0217 C   0  0  1  0  0  0  0  0  0  0  0  0
    0.6459   -0.5744   -4.5290 C   0  0  0  0  0  0  0  0  0  0  0  0
   -0.5576   -0.6451   -5.2085 C   0  0  0  0  0  0  0  0  0  0  0  0
   -1.1049   -1.8973   -5.5001 C   0  0  0  0  0  0  0  0  0  0  0  0
   -0.9100   -4.0503   -5.3683 H   0  0  0  0  0  0  0  0  0  0  0  0
    1.2099   -3.9540   -4.0904 H   0  0  0  0  0  0  0  0  0  0  0  0
    2.3686   -1.7465   -3.9452 H   0  0  0  0  0  0  0  0  0  0  0  0
    1.1174    0.3864   -4.3482 H   0  0  0  0  0  0  0  0  0  0  0  0
   -1.0535    0.2577   -5.5427 H   0  0  0  0  0  0  0  0  0  0  0  0
   -2.0365   -1.9537   -6.0531 H   0  0  0  0  0  0  0  0  0  0  0  0
  1  2  2  0  0  0  0
  3  5  1  0  0  0  0
  3  1  1  0  0  0  0
  4  3  1  0  0  0  0
  6  7  2  0  0  0  0
  7 13  1  0  0  0  0
  7  8  1  0  0  0  0
  8 14  1  6  0  0  0
  8  3  1  0  0  0  0
  9 15  1  0  0  0  0
  9  8  1  0  0  0  0
 10  9  2  0  0  0  0
 11 10  1  0  0  0  0
 11  6  1  0  0  0  0
 12  6  1  0  0  0  0
 16 10  1  0  0  0  0
 17 11  1  0  0  0  0
M  RAD  2   2   2  11   2
M  END
