Coordinates from ORCA-job C6H6+NH2--N2+-scan
 OpenBabel10171807273D

 17 16  0  0  1  0  0  0  0  0999 V2000
    1.6977   -1.4210    0.6542 N   0  0  0  0  0  0  0  0  0  0  0  0
    1.9634   -1.4978    1.7140 N   0  0  0  0  0  0  0  0  0  0  0  0
    1.2084   -2.1458   -2.5214 N   0  0  0  0  0  0  0  0  0  0  0  0
    0.4145   -2.0895   -1.8937 H   0  0  0  0  0  0  0  0  0  0  0  0
    1.9240   -1.5122   -2.1868 H   0  0  0  0  0  0  0  0  0  0  0  0
   -0.5628   -3.0176   -5.6365 C   0  0  0  0  0  0  0  0  0  0  0  0
    0.2969   -3.1191   -4.5724 C   0  0  0  0  0  0  0  0  0  0  0  0
    0.8334   -1.9187   -3.8979 C   0  0  1  0  0  0  0  0  0  0  0  0
    0.2284   -0.6287   -4.3154 C   0  0  0  0  0  0  0  0  0  0  0  0
   -0.6356   -0.5586   -5.3757 C   0  0  0  0  0  0  0  0  0  0  0  0
   -1.0273   -1.7478   -6.0256 C   0  0  0  0  0  0  0  0  0  0  0  0
   -0.9127   -3.9027   -6.1536 H   0  0  0  0  0  0  0  0  0  0  0  0
    0.6640   -4.0745   -4.2124 H   0  0  0  0  0  0  0  0  0  0  0  0
    1.7938   -1.8549   -4.4917 H   0  0  0  0  0  0  0  0  0  0  0  0
    0.5407    0.2645   -3.7832 H   0  0  0  0  0  0  0  0  0  0  0  0
   -1.0452    0.3907   -5.6994 H   0  0  0  0  0  0  0  0  0  0  0  0
   -1.7256   -1.6804   -6.8546 H   0  0  0  0  0  0  0  0  0  0  0  0
  1  2  3  0  0  0  0
  3  5  1  0  0  0  0
  3  4  1  0  0  0  0
  6  7  2  0  0  0  0
  7 13  1  0  0  0  0
  7  8  1  0  0  0  0
  8 14  1  6  0  0  0
  8  3  1  0  0  0  0
  9  8  1  0  0  0  0
  9 15  1  0  0  0  0
 10  9  2  0  0  0  0
 11  6  1  0  0  0  0
 11 10  1  0  0  0  0
 12  6  1  0  0  0  0
 16 10  1  0  0  0  0
 17 11  1  0  0  0  0
M  RAD  1  11   2
M  END
