Coordinates from ORCA-job C6H6+NH2--N2+-scan
 OpenBabel10171807273D

 17 16  0  0  1  0  0  0  0  0999 V2000
    3.4914    0.3913   -4.2188 N   0  0  0  0  0  0  0  0  0  0  0  0
    4.4366    0.8965   -3.9919 N   0  0  0  0  0  0  0  0  0  0  0  0
   -1.3114   -3.5861   -2.4976 N   0  0  0  0  0  0  0  0  0  0  0  0
   -2.1381   -3.6901   -3.0758 H   0  0  0  0  0  0  0  0  0  0  0  0
   -1.5937   -3.3603   -1.5511 H   0  0  0  0  0  0  0  0  0  0  0  0
    1.0328   -2.4112   -5.0889 C   0  0  0  0  0  0  0  0  0  0  0  0
    0.4882   -3.1996   -4.1092 C   0  0  0  0  0  0  0  0  0  0  0  0
   -0.3797   -2.6308   -3.0559 C   0  0  1  0  0  0  0  0  0  0  0  0
   -0.7809   -1.2148   -3.2568 C   0  0  0  0  0  0  0  0  0  0  0  0
   -0.2273   -0.4541   -4.2502 C   0  0  0  0  0  0  0  0  0  0  0  0
    0.6734   -1.0521   -5.1570 C   0  0  0  0  0  0  0  0  0  0  0  0
    1.7075   -2.8285   -5.8261 H   0  0  0  0  0  0  0  0  0  0  0  0
    0.7100   -4.2584   -4.0266 H   0  0  0  0  0  0  0  0  0  0  0  0
    0.4291   -2.4747   -2.2831 H   0  0  0  0  0  0  0  0  0  0  0  0
   -1.4866   -0.7903   -2.5493 H   0  0  0  0  0  0  0  0  0  0  0  0
   -0.4928    0.5897   -4.3671 H   0  0  0  0  0  0  0  0  0  0  0  0
    1.0972   -0.4405   -5.9467 H   0  0  0  0  0  0  0  0  0  0  0  0
  1  2  3  0  0  0  0
  3  5  1  0  0  0  0
  4  3  1  0  0  0  0
  6  7  2  0  0  0  0
  7 13  1  0  0  0  0
  7  8  1  0  0  0  0
  8  3  1  0  0  0  0
  8 14  1  1  0  0  0
  9  8  1  0  0  0  0
  9 15  1  0  0  0  0
 10  9  2  0  0  0  0
 11  6  1  0  0  0  0
 11 10  1  0  0  0  0
 12  6  1  0  0  0  0
 16 10  1  0  0  0  0
 17 11  1  0  0  0  0
M  RAD  1  11   2
M  END
