Coordinates from ORCA-job C6H6+NH2--N2+-scan
 OpenBabel10171807273D

 17 16  0  0  0  0  0  0  0  0999 V2000
   -0.1054   -1.8105   -1.1740 N   0  0  0  0  0  0  0  0  0  0  0  0
   -1.0682   -1.7846   -0.6334 N   0  0  0  0  0  0  0  0  0  0  0  0
    1.1429   -2.0464   -1.7640 N   0  0  0  0  0  0  0  0  0  0  0  0
    0.9811   -2.3407   -2.7656 H   0  0  0  0  0  0  0  0  0  0  0  0
    1.6914   -1.1877   -1.6602 H   0  0  0  0  0  0  0  0  0  0  0  0
   -0.4252   -2.9723   -4.4879 C   0  0  0  0  0  0  0  0  0  0  0  0
    0.9580   -2.9860   -4.7195 C   0  0  0  0  0  0  0  0  0  0  0  0
    1.6330   -1.7872   -4.9921 C   0  0  0  0  0  0  0  0  0  0  0  0
    0.9293   -0.5813   -5.0223 C   0  0  0  0  0  0  0  0  0  0  0  0
   -0.4470   -0.5700   -4.7861 C   0  0  0  0  0  0  0  0  0  0  0  0
   -1.1246   -1.7627   -4.5196 C   0  0  0  0  0  0  0  0  0  0  0  0
   -0.9535   -3.9044   -4.3192 H   0  0  0  0  0  0  0  0  0  0  0  0
    1.4960   -3.9278   -4.7368 H   0  0  0  0  0  0  0  0  0  0  0  0
    2.6961   -1.8033   -5.2051 H   0  0  0  0  0  0  0  0  0  0  0  0
    1.4470    0.3419   -5.2566 H   0  0  0  0  0  0  0  0  0  0  0  0
   -0.9960    0.3635   -4.8360 H   0  0  0  0  0  0  0  0  0  0  0  0
   -2.1991   -1.7546   -4.3736 H   0  0  0  0  0  0  0  0  0  0  0  0
  1  2  1  0  0  0  0
  3  5  1  0  0  0  0
  3  1  1  0  0  0  0
  4  3  1  0  0  0  0
  6 12  1  0  0  0  0
  7  6  2  0  0  0  0
  8  7  1  0  0  0  0
  9  8  2  0  0  0  0
  9 10  1  0  0  0  0
 10 11  2  0  0  0  0
 11  6  1  0  0  0  0
 11 17  1  0  0  0  0
 13  7  1  0  0  0  0
 14  8  1  0  0  0  0
 15  9  1  0  0  0  0
 16 10  1  0  0  0  0
M  RAD  2   1   2   2   3
M  END
