Coordinates from ORCA-job C6H6+NH2--N2+-scan
 OpenBabel10171807273D

 17 16  0  0  1  0  0  0  0  0999 V2000
    1.7283   -1.3101    0.7906 N   0  0  0  0  0  0  0  0  0  0  0  0
    1.9804   -1.3151    1.8566 N   0  0  0  0  0  0  0  0  0  0  0  0
    1.2131   -2.2221   -2.5533 N   0  0  0  0  0  0  0  0  0  0  0  0
    0.4196   -2.1846   -1.9231 H   0  0  0  0  0  0  0  0  0  0  0  0
    1.9275   -1.5943   -2.2042 H   0  0  0  0  0  0  0  0  0  0  0  0
   -0.5684   -3.0050   -5.6862 C   0  0  0  0  0  0  0  0  0  0  0  0
    0.2951   -3.1363   -4.6285 C   0  0  0  0  0  0  0  0  0  0  0  0
    0.8326   -1.9553   -3.9215 C   0  0  1  0  0  0  0  0  0  0  0  0
    0.2245   -0.6545   -4.2988 C   0  0  0  0  0  0  0  0  0  0  0  0
   -0.6431   -0.5547   -5.3537 C   0  0  0  0  0  0  0  0  0  0  0  0
   -1.0357   -1.7250   -6.0366 C   0  0  0  0  0  0  0  0  0  0  0  0
   -0.9191   -3.8751   -6.2276 H   0  0  0  0  0  0  0  0  0  0  0  0
    0.6647   -4.1013   -4.2978 H   0  0  0  0  0  0  0  0  0  0  0  0
    1.7908   -1.8732   -4.5166 H   0  0  0  0  0  0  0  0  0  0  0  0
    0.5375    0.2233   -3.7419 H   0  0  0  0  0  0  0  0  0  0  0  0
   -1.0551    0.4031   -5.6482 H   0  0  0  0  0  0  0  0  0  0  0  0
   -1.7370   -1.6343   -6.8609 H   0  0  0  0  0  0  0  0  0  0  0  0
  1  2  3  0  0  0  0
  3  5  1  0  0  0  0
  3  4  1  0  0  0  0
  6  7  2  0  0  0  0
  7 13  1  0  0  0  0
  7  8  1  0  0  0  0
  8 14  1  6  0  0  0
  8  3  1  0  0  0  0
  9  8  1  0  0  0  0
  9 15  1  0  0  0  0
 10  9  2  0  0  0  0
 11  6  1  0  0  0  0
 11 10  1  0  0  0  0
 12  6  1  0  0  0  0
 16 10  1  0  0  0  0
 17 11  1  0  0  0  0
M  RAD  1  11   2
M  END
