Coordinates from ORCA-job C6H6+NH2--N2+-scan
 OpenBabel10171807273D

 17 16  0  0  1  0  0  0  0  0999 V2000
    1.7069   -1.3876    0.7019 N   0  0  0  0  0  0  0  0  0  0  0  0
    1.9683   -1.4428    1.7641 N   0  0  0  0  0  0  0  0  0  0  0  0
    1.2110   -2.1686   -2.5323 N   0  0  0  0  0  0  0  0  0  0  0  0
    0.4176   -2.1180   -1.9033 H   0  0  0  0  0  0  0  0  0  0  0  0
    1.9265   -1.5367   -2.1939 H   0  0  0  0  0  0  0  0  0  0  0  0
   -0.5652   -3.0140   -5.6519 C   0  0  0  0  0  0  0  0  0  0  0  0
    0.2962   -3.1244   -4.5901 C   0  0  0  0  0  0  0  0  0  0  0  0
    0.8335   -1.9297   -3.9062 C   0  0  1  0  0  0  0  0  0  0  0  0
    0.2273   -0.6363   -4.3115 C   0  0  0  0  0  0  0  0  0  0  0  0
   -0.6382   -0.5574   -5.3698 C   0  0  0  0  0  0  0  0  0  0  0  0
   -1.0306   -1.7411   -6.0294 C   0  0  0  0  0  0  0  0  0  0  0  0
   -0.9157   -3.8947   -6.1760 H   0  0  0  0  0  0  0  0  0  0  0  0
    0.6642   -4.0827   -4.2389 H   0  0  0  0  0  0  0  0  0  0  0  0
    1.7928   -1.8605   -4.5012 H   0  0  0  0  0  0  0  0  0  0  0  0
    0.5402    0.2524   -3.7721 H   0  0  0  0  0  0  0  0  0  0  0  0
   -1.0487    0.3945   -5.6847 H   0  0  0  0  0  0  0  0  0  0  0  0
   -1.7302   -1.6667   -6.8567 H   0  0  0  0  0  0  0  0  0  0  0  0
  1  2  3  0  0  0  0
  3  5  1  0  0  0  0
  3  4  1  0  0  0  0
  6  7  2  0  0  0  0
  7 13  1  0  0  0  0
  7  8  1  0  0  0  0
  8 14  1  6  0  0  0
  8  3  1  0  0  0  0
  9  8  1  0  0  0  0
  9 15  1  0  0  0  0
 10  9  2  0  0  0  0
 11  6  1  0  0  0  0
 11 10  1  0  0  0  0
 12  6  1  0  0  0  0
 16 10  1  0  0  0  0
 17 11  1  0  0  0  0
M  RAD  1  11   2
M  END
