Coordinates from ORCA-job C6H6+NH2--N2+-scan
 OpenBabel10171807273D

 17 16  0  0  1  0  0  0  0  0999 V2000
    3.2638   -0.2470   -2.6616 N   0  0  0  0  0  0  0  0  0  0  0  0
    4.1835    0.3169   -2.4723 N   0  0  0  0  0  0  0  0  0  0  0  0
   -0.7223   -3.3090   -2.2082 N   0  0  0  0  0  0  0  0  0  0  0  0
   -1.6575   -3.5706   -2.5002 H   0  0  0  0  0  0  0  0  0  0  0  0
   -0.7606   -2.9276   -1.2703 H   0  0  0  0  0  0  0  0  0  0  0  0
    0.7053   -2.4877   -5.5107 C   0  0  0  0  0  0  0  0  0  0  0  0
    0.5249   -3.1169   -4.3048 C   0  0  0  0  0  0  0  0  0  0  0  0
   -0.0918   -2.4197   -3.1587 C   0  0  1  0  0  0  0  0  0  0  0  0
   -0.6783   -1.0909   -3.4591 C   0  0  0  0  0  0  0  0  0  0  0  0
   -0.4896   -0.4903   -4.6755 C   0  0  0  0  0  0  0  0  0  0  0  0
    0.1949   -1.1896   -5.6912 C   0  0  0  0  0  0  0  0  0  0  0  0
    1.2029   -2.9917   -6.3301 H   0  0  0  0  0  0  0  0  0  0  0  0
    0.8747   -4.1271   -4.1196 H   0  0  0  0  0  0  0  0  0  0  0  0
    0.8805   -2.0645   -2.6978 H   0  0  0  0  0  0  0  0  0  0  0  0
   -1.2118   -0.5870   -2.6591 H   0  0  0  0  0  0  0  0  0  0  0  0
   -0.8861    0.4976   -4.8764 H   0  0  0  0  0  0  0  0  0  0  0  0
    0.3233   -0.7090   -6.6564 H   0  0  0  0  0  0  0  0  0  0  0  0
  1  2  3  0  0  0  0
  3  5  1  0  0  0  0
  4  3  1  0  0  0  0
  6  7  2  0  0  0  0
  7 13  1  0  0  0  0
  7  8  1  0  0  0  0
  8 14  1  1  0  0  0
  8  3  1  0  0  0  0
  9  8  1  0  0  0  0
  9 15  1  0  0  0  0
 10  9  2  0  0  0  0
 11  6  1  0  0  0  0
 11 10  1  0  0  0  0
 12  6  1  0  0  0  0
 16 10  1  0  0  0  0
 17 11  1  0  0  0  0
M  RAD  1  11   2
M  END
