Coordinates from ORCA-job C6H6+NH2--N2+-scan
 OpenBabel10171807273D

 17 16  0  0  1  0  0  0  0  0999 V2000
    3.5173    0.4387   -4.2922 N   0  0  0  0  0  0  0  0  0  0  0  0
    4.4622    0.9433   -4.0626 N   0  0  0  0  0  0  0  0  0  0  0  0
   -1.3390   -3.5961   -2.5147 N   0  0  0  0  0  0  0  0  0  0  0  0
   -2.1593   -3.6894   -3.1038 H   0  0  0  0  0  0  0  0  0  0  0  0
   -1.6313   -3.3775   -1.5695 H   0  0  0  0  0  0  0  0  0  0  0  0
    1.0430   -2.4138   -5.0675 C   0  0  0  0  0  0  0  0  0  0  0  0
    0.4829   -3.2069   -4.1004 C   0  0  0  0  0  0  0  0  0  0  0  0
   -0.3944   -2.6418   -3.0527 C   0  0  1  0  0  0  0  0  0  0  0  0
   -0.7849   -1.2218   -3.2466 C   0  0  0  0  0  0  0  0  0  0  0  0
   -0.2160   -0.4563   -4.2278 C   0  0  0  0  0  0  0  0  0  0  0  0
    0.6914   -1.0524   -5.1294 C   0  0  0  0  0  0  0  0  0  0  0  0
    1.7239   -2.8289   -5.8002 H   0  0  0  0  0  0  0  0  0  0  0  0
    0.6979   -4.2676   -4.0237 H   0  0  0  0  0  0  0  0  0  0  0  0
    0.4053   -2.4975   -2.2684 H   0  0  0  0  0  0  0  0  0  0  0  0
   -1.4963   -0.7990   -2.5438 H   0  0  0  0  0  0  0  0  0  0  0  0
   -0.4744    0.5897   -4.3395 H   0  0  0  0  0  0  0  0  0  0  0  0
    1.1274   -0.4370   -5.9093 H   0  0  0  0  0  0  0  0  0  0  0  0
  1  2  3  0  0  0  0
  3  5  1  0  0  0  0
  4  3  1  0  0  0  0
  6  7  2  0  0  0  0
  7 13  1  0  0  0  0
  7  8  1  0  0  0  0
  8  3  1  0  0  0  0
  8 14  1  1  0  0  0
  9  8  1  0  0  0  0
  9 15  1  0  0  0  0
 10  9  2  0  0  0  0
 11  6  1  0  0  0  0
 11 10  1  0  0  0  0
 12  6  1  0  0  0  0
 16 10  1  0  0  0  0
 17 11  1  0  0  0  0
M  RAD  1  11   2
M  END
