Coordinates from ORCA-job C6H6+NH2--N2+-scan
 OpenBabel10171807273D

 17 16  0  0  1  0  0  0  0  0999 V2000
    1.6035   -1.9398    0.0792 N   0  0  0  0  0  0  0  0  0  0  0  0
    1.9771   -2.8166    0.6202 N   0  0  0  0  0  0  0  0  0  0  0  0
    1.0828   -1.6554   -2.3210 N   0  0  0  0  0  0  0  0  0  0  0  0
    0.2401   -1.4424   -1.7987 H   0  0  0  0  0  0  0  0  0  0  0  0
    1.7831   -0.9664   -2.0734 H   0  0  0  0  0  0  0  0  0  0  0  0
   -0.5026   -3.0867   -5.3267 C   0  0  0  0  0  0  0  0  0  0  0  0
    0.3050   -2.9904   -4.2234 C   0  0  0  0  0  0  0  0  0  0  0  0
    0.8186   -1.6861   -3.7541 C   0  0  1  0  0  0  0  0  0  0  0  0
    0.2492   -0.4959   -4.4329 C   0  0  0  0  0  0  0  0  0  0  0  0
   -0.5728   -0.6205   -5.5212 C   0  0  0  0  0  0  0  0  0  0  0  0
   -0.9425   -1.9089   -5.9604 C   0  0  0  0  0  0  0  0  0  0  0  0
   -0.8350   -4.0514   -5.6898 H   0  0  0  0  0  0  0  0  0  0  0  0
    0.6430   -3.8642   -3.6762 H   0  0  0  0  0  0  0  0  0  0  0  0
    1.8245   -1.7283   -4.2625 H   0  0  0  0  0  0  0  0  0  0  0  0
    0.5482    0.4805   -4.0641 H   0  0  0  0  0  0  0  0  0  0  0  0
   -0.9620    0.2532   -6.0299 H   0  0  0  0  0  0  0  0  0  0  0  0
   -1.6045   -1.9951   -6.8171 H   0  0  0  0  0  0  0  0  0  0  0  0
  1  2  3  0  0  0  0
  3  5  1  0  0  0  0
  3  4  1  0  0  0  0
  6  7  2  0  0  0  0
  7  8  1  0  0  0  0
  7 13  1  0  0  0  0
  8 14  1  6  0  0  0
  8  3  1  0  0  0  0
  9 15  1  0  0  0  0
  9  8  1  0  0  0  0
 10  9  2  0  0  0  0
 11 10  1  0  0  0  0
 11  6  1  0  0  0  0
 12  6  1  0  0  0  0
 16 10  1  0  0  0  0
 17 11  1  0  0  0  0
M  RAD  1  11   2
M  END
