Coordinates from ORCA-job C6H6+NH2--N2+-scan
 OpenBabel10171807273D

 17 16  0  0  1  0  0  0  0  0999 V2000
    3.3918    0.1490   -3.5708 N   0  0  0  0  0  0  0  0  0  0  0  0
    4.3367    0.6741   -3.3930 N   0  0  0  0  0  0  0  0  0  0  0  0
   -1.0996   -3.4960   -2.3676 N   0  0  0  0  0  0  0  0  0  0  0  0
   -1.9812   -3.6608   -2.8411 H   0  0  0  0  0  0  0  0  0  0  0  0
   -1.2840   -3.2101   -1.4130 H   0  0  0  0  0  0  0  0  0  0  0  0
    0.9110   -2.4339   -5.2724 C   0  0  0  0  0  0  0  0  0  0  0  0
    0.4990   -3.1702   -4.1916 C   0  0  0  0  0  0  0  0  0  0  0  0
   -0.2708   -2.5553   -3.0902 C   0  0  1  0  0  0  0  0  0  0  0  0
   -0.7379   -1.1677   -3.3345 C   0  0  0  0  0  0  0  0  0  0  0  0
   -0.3173   -0.4596   -4.4278 C   0  0  0  0  0  0  0  0  0  0  0  0
    0.5013   -1.0929   -5.3864 C   0  0  0  0  0  0  0  0  0  0  0  0
    1.5170   -2.8818   -6.0503 H   0  0  0  0  0  0  0  0  0  0  0  0
    0.7636   -4.2149   -4.0660 H   0  0  0  0  0  0  0  0  0  0  0  0
    0.6151   -2.3207   -2.4282 H   0  0  0  0  0  0  0  0  0  0  0  0
   -1.3779   -0.7159   -2.5828 H   0  0  0  0  0  0  0  0  0  0  0  0
   -0.6279    0.5669   -4.5804 H   0  0  0  0  0  0  0  0  0  0  0  0
    0.8168   -0.5243   -6.2559 H   0  0  0  0  0  0  0  0  0  0  0  0
  1  2  3  0  0  0  0
  3  5  1  0  0  0  0
  4  3  1  0  0  0  0
  6  7  2  0  0  0  0
  7 13  1  0  0  0  0
  7  8  1  0  0  0  0
  8 14  1  1  0  0  0
  8  3  1  0  0  0  0
  9  8  1  0  0  0  0
  9 15  1  0  0  0  0
 10  9  2  0  0  0  0
 11  6  1  0  0  0  0
 11 10  1  0  0  0  0
 12  6  1  0  0  0  0
 16 10  1  0  0  0  0
 17 11  1  0  0  0  0
M  RAD  1  11   2
M  END
