Coordinates from ORCA-job C6H6+NH2--N2+-scan
 OpenBabel10171807273D

 17 16  0  0  1  0  0  0  0  0999 V2000
    3.2308   -0.2936   -2.6180 N   0  0  0  0  0  0  0  0  0  0  0  0
    4.1512    0.2663   -2.4203 N   0  0  0  0  0  0  0  0  0  0  0  0
   -0.6929   -3.2931   -2.1995 N   0  0  0  0  0  0  0  0  0  0  0  0
   -1.6293   -3.5631   -2.4802 H   0  0  0  0  0  0  0  0  0  0  0  0
   -0.7244   -2.9049   -1.2642 H   0  0  0  0  0  0  0  0  0  0  0  0
    0.6986   -2.4869   -5.5214 C   0  0  0  0  0  0  0  0  0  0  0  0
    0.5328   -3.1086   -4.3094 C   0  0  0  0  0  0  0  0  0  0  0  0
   -0.0778   -2.4071   -3.1629 C   0  0  1  0  0  0  0  0  0  0  0  0
   -0.6753   -1.0843   -3.4673 C   0  0  0  0  0  0  0  0  0  0  0  0
   -0.5011   -0.4911   -4.6895 C   0  0  0  0  0  0  0  0  0  0  0  0
    0.1785   -1.1933   -5.7064 C   0  0  0  0  0  0  0  0  0  0  0  0
    1.1920   -2.9937   -6.3416 H   0  0  0  0  0  0  0  0  0  0  0  0
    0.8906   -4.1152   -4.1202 H   0  0  0  0  0  0  0  0  0  0  0  0
    0.8971   -2.0418   -2.7148 H   0  0  0  0  0  0  0  0  0  0  0  0
   -1.2047   -0.5780   -2.6661 H   0  0  0  0  0  0  0  0  0  0  0  0
   -0.9055    0.4929   -4.8938 H   0  0  0  0  0  0  0  0  0  0  0  0
    0.2953   -0.7188   -6.6762 H   0  0  0  0  0  0  0  0  0  0  0  0
  1  2  3  0  0  0  0
  3  5  1  0  0  0  0
  4  3  1  0  0  0  0
  6  7  2  0  0  0  0
  7 13  1  0  0  0  0
  7  8  1  0  0  0  0
  8 14  1  1  0  0  0
  8  3  1  0  0  0  0
  9  8  1  0  0  0  0
  9 15  1  0  0  0  0
 10  9  2  0  0  0  0
 11  6  1  0  0  0  0
 11 10  1  0  0  0  0
 12  6  1  0  0  0  0
 16 10  1  0  0  0  0
 17 11  1  0  0  0  0
M  RAD  1  11   2
M  END
