Coordinates from ORCA-job C6H6+NH2--N2+-scan
 OpenBabel10171807273D

 17 16  0  0  1  0  0  0  0  0999 V2000
    2.9474   -0.9308   -1.7651 N   0  0  0  0  0  0  0  0  0  0  0  0
    3.8566   -0.6880   -1.2049 N   0  0  0  0  0  0  0  0  0  0  0  0
   -0.1349   -2.9562   -2.1120 N   0  0  0  0  0  0  0  0  0  0  0  0
   -1.0515   -3.3878   -2.1559 H   0  0  0  0  0  0  0  0  0  0  0  0
   -0.0549   -2.4293   -1.2505 H   0  0  0  0  0  0  0  0  0  0  0  0
    0.5318   -2.4956   -5.7176 C   0  0  0  0  0  0  0  0  0  0  0  0
    0.6613   -2.9461   -4.4271 C   0  0  0  0  0  0  0  0  0  0  0  0
    0.1484   -2.1654   -3.2874 C   0  0  1  0  0  0  0  0  0  0  0  0
   -0.6835   -0.9917   -3.6378 C   0  0  0  0  0  0  0  0  0  0  0  0
   -0.8001   -0.5669   -4.9355 C   0  0  0  0  0  0  0  0  0  0  0  0
   -0.1987   -1.3201   -5.9646 C   0  0  0  0  0  0  0  0  0  0  0  0
    0.9557   -3.0526   -6.5441 H   0  0  0  0  0  0  0  0  0  0  0  0
    1.1941   -3.8591   -4.1831 H   0  0  0  0  0  0  0  0  0  0  0  0
    1.1179   -1.6158   -3.0710 H   0  0  0  0  0  0  0  0  0  0  0  0
   -1.1462   -0.4435   -2.8229 H   0  0  0  0  0  0  0  0  0  0  0  0
   -1.3747    0.3178   -5.1820 H   0  0  0  0  0  0  0  0  0  0  0  0
   -0.3132   -0.9830   -6.9905 H   0  0  0  0  0  0  0  0  0  0  0  0
  1  2  3  0  0  0  0
  3  5  1  0  0  0  0
  4  3  1  0  0  0  0
  6  7  2  0  0  0  0
  7 13  1  0  0  0  0
  7  8  1  0  0  0  0
  8 14  1  1  0  0  0
  8  3  1  0  0  0  0
  9  8  1  0  0  0  0
  9 15  1  0  0  0  0
 10  9  2  0  0  0  0
 11  6  1  0  0  0  0
 11 10  1  0  0  0  0
 12  6  1  0  0  0  0
 16 10  1  0  0  0  0
 17 11  1  0  0  0  0
M  RAD  1  11   2
M  END
