Coordinates from ORCA-job C6H6+NH2--N2+-scan
 OpenBabel10171807273D

 17 16  0  0  1  0  0  0  0  0999 V2000
    3.5680    0.5268   -4.4222 N   0  0  0  0  0  0  0  0  0  0  0  0
    4.5122    1.0467   -4.2269 N   0  0  0  0  0  0  0  0  0  0  0  0
   -1.3947   -3.6153   -2.5510 N   0  0  0  0  0  0  0  0  0  0  0  0
   -2.2012   -3.6874   -3.1616 H   0  0  0  0  0  0  0  0  0  0  0  0
   -1.7076   -3.4110   -1.6092 H   0  0  0  0  0  0  0  0  0  0  0  0
    1.0640   -2.4197   -5.0229 C   0  0  0  0  0  0  0  0  0  0  0  0
    0.4715   -3.2219   -4.0830 C   0  0  0  0  0  0  0  0  0  0  0  0
   -0.4248   -2.6638   -3.0477 C   0  0  1  0  0  0  0  0  0  0  0  0
   -0.7934   -1.2360   -3.2264 C   0  0  0  0  0  0  0  0  0  0  0  0
   -0.1924   -0.4613   -4.1809 C   0  0  0  0  0  0  0  0  0  0  0  0
    0.7288   -1.0535   -5.0711 C   0  0  0  0  0  0  0  0  0  0  0  0
    1.7578   -2.8304   -5.7460 H   0  0  0  0  0  0  0  0  0  0  0  0
    0.6721   -4.2862   -4.0187 H   0  0  0  0  0  0  0  0  0  0  0  0
    0.3560   -2.5437   -2.2407 H   0  0  0  0  0  0  0  0  0  0  0  0
   -1.5163   -0.8165   -2.5334 H   0  0  0  0  0  0  0  0  0  0  0  0
   -0.4356    0.5895   -4.2814 H   0  0  0  0  0  0  0  0  0  0  0  0
    1.1915   -0.4303   -5.8289 H   0  0  0  0  0  0  0  0  0  0  0  0
  1  2  3  0  0  0  0
  3  5  1  0  0  0  0
  4  3  1  0  0  0  0
  6  7  2  0  0  0  0
  7 13  1  0  0  0  0
  7  8  1  0  0  0  0
  8  3  1  0  0  0  0
  8 14  1  1  0  0  0
  9  8  1  0  0  0  0
  9 15  1  0  0  0  0
 10  9  2  0  0  0  0
 11  6  1  0  0  0  0
 11 10  1  0  0  0  0
 12  6  1  0  0  0  0
 16 10  1  0  0  0  0
 17 11  1  0  0  0  0
M  RAD  1  11   2
M  END
