Coordinates from ORCA-job C6H6+NH2--N2+-scan
 OpenBabel10171807273D

 17 16  0  0  1  0  0  0  0  0999 V2000
    3.5586    0.0380   -2.8895 N   0  0  0  0  0  0  0  0  0  0  0  0
    4.4804    0.6073   -2.7271 N   0  0  0  0  0  0  0  0  0  0  0  0
   -0.8930   -3.3980   -2.2671 N   0  0  0  0  0  0  0  0  0  0  0  0
   -1.8169   -3.6167   -2.6236 H   0  0  0  0  0  0  0  0  0  0  0  0
   -0.9757   -3.0563   -1.3167 H   0  0  0  0  0  0  0  0  0  0  0  0
    0.7402   -2.4903   -5.4466 C   0  0  0  0  0  0  0  0  0  0  0  0
    0.4828   -3.1572   -4.2762 C   0  0  0  0  0  0  0  0  0  0  0  0
   -0.1817   -2.4881   -3.1386 C   0  0  1  0  0  0  0  0  0  0  0  0
   -0.7225   -1.1350   -3.4214 C   0  0  0  0  0  0  0  0  0  0  0  0
   -0.4583   -0.4971   -4.6038 C   0  0  0  0  0  0  0  0  0  0  0  0
    0.2653   -1.1757   -5.6067 C   0  0  0  0  0  0  0  0  0  0  0  0
    1.2702   -2.9758   -6.2568 H   0  0  0  0  0  0  0  0  0  0  0  0
    0.8002   -4.1814   -4.1105 H   0  0  0  0  0  0  0  0  0  0  0  0
    0.7634   -2.1811   -2.5984 H   0  0  0  0  0  0  0  0  0  0  0  0
   -1.2870   -0.6474   -2.6326 H   0  0  0  0  0  0  0  0  0  0  0  0
   -0.8237    0.5056   -4.7899 H   0  0  0  0  0  0  0  0  0  0  0  0
    0.4533   -0.6651   -6.5465 H   0  0  0  0  0  0  0  0  0  0  0  0
  1  2  3  0  0  0  0
  3  5  1  0  0  0  0
  4  3  1  0  0  0  0
  6  7  2  0  0  0  0
  7 13  1  0  0  0  0
  7  8  1  0  0  0  0
  8 14  1  1  0  0  0
  8  3  1  0  0  0  0
  9  8  1  0  0  0  0
  9 15  1  0  0  0  0
 10  9  2  0  0  0  0
 11  6  1  0  0  0  0
 11 10  1  0  0  0  0
 12  6  1  0  0  0  0
 16 10  1  0  0  0  0
 17 11  1  0  0  0  0
M  RAD  1  11   2
M  END
