Coordinates from ORCA-job C6H6+NH2--N2+-scan
 OpenBabel10171807273D

 17 16  0  0  1  0  0  0  0  0999 V2000
    2.9675   -0.9002   -1.8205 N   0  0  0  0  0  0  0  0  0  0  0  0
    3.8849   -0.6330   -1.2852 N   0  0  0  0  0  0  0  0  0  0  0  0
   -0.1699   -2.9785   -2.1123 N   0  0  0  0  0  0  0  0  0  0  0  0
   -1.0878   -3.4051   -2.1723 H   0  0  0  0  0  0  0  0  0  0  0  0
   -0.0996   -2.4588   -1.2455 H   0  0  0  0  0  0  0  0  0  0  0  0
    0.5446   -2.4921   -5.7052 C   0  0  0  0  0  0  0  0  0  0  0  0
    0.6552   -2.9542   -4.4170 C   0  0  0  0  0  0  0  0  0  0  0  0
    0.1328   -2.1797   -3.2775 C   0  0  1  0  0  0  0  0  0  0  0  0
   -0.6874   -0.9980   -3.6283 C   0  0  0  0  0  0  0  0  0  0  0  0
   -0.7849   -0.5617   -4.9238 C   0  0  0  0  0  0  0  0  0  0  0  0
   -0.1754   -1.3101   -5.9516 C   0  0  0  0  0  0  0  0  0  0  0  0
    0.9755   -3.0450   -6.5310 H   0  0  0  0  0  0  0  0  0  0  0  0
    1.1794   -3.8724   -4.1739 H   0  0  0  0  0  0  0  0  0  0  0  0
    1.1035   -1.6368   -3.0474 H   0  0  0  0  0  0  0  0  0  0  0  0
   -1.1569   -0.4537   -2.8147 H   0  0  0  0  0  0  0  0  0  0  0  0
   -1.3508    0.3287   -5.1700 H   0  0  0  0  0  0  0  0  0  0  0  0
   -0.2749   -0.9637   -6.9759 H   0  0  0  0  0  0  0  0  0  0  0  0
  1  2  3  0  0  0  0
  3  5  1  0  0  0  0
  4  3  1  0  0  0  0
  6  7  2  0  0  0  0
  7 13  1  0  0  0  0
  7  8  1  0  0  0  0
  8 14  1  1  0  0  0
  8  3  1  0  0  0  0
  9  8  1  0  0  0  0
  9 15  1  0  0  0  0
 10  9  2  0  0  0  0
 11  6  1  0  0  0  0
 11 10  1  0  0  0  0
 12  6  1  0  0  0  0
 16 10  1  0  0  0  0
 17 11  1  0  0  0  0
M  RAD  1  11   2
M  END
