Coordinates from ORCA-job C6H6+NH2--N2+-scan
 OpenBabel10171807273D

 17 16  0  0  1  0  0  0  0  0999 V2000
    1.6092   -1.9329    0.0965 N   0  0  0  0  0  0  0  0  0  0  0  0
    1.9852   -2.8029    0.6466 N   0  0  0  0  0  0  0  0  0  0  0  0
    1.0836   -1.6610   -2.3247 N   0  0  0  0  0  0  0  0  0  0  0  0
    0.2423   -1.4521   -1.7985 H   0  0  0  0  0  0  0  0  0  0  0  0
    1.7844   -0.9732   -2.0753 H   0  0  0  0  0  0  0  0  0  0  0  0
   -0.5041   -3.0857   -5.3324 C   0  0  0  0  0  0  0  0  0  0  0  0
    0.3030   -2.9918   -4.2285 C   0  0  0  0  0  0  0  0  0  0  0  0
    0.8166   -1.6886   -3.7563 C   0  0  1  0  0  0  0  0  0  0  0  0
    0.2473   -0.4969   -4.4327 C   0  0  0  0  0  0  0  0  0  0  0  0
   -0.5735   -0.6192   -5.5221 C   0  0  0  0  0  0  0  0  0  0  0  0
   -0.9432   -1.9067   -5.9642 C   0  0  0  0  0  0  0  0  0  0  0  0
   -0.8365   -4.0497   -5.6975 H   0  0  0  0  0  0  0  0  0  0  0  0
    0.6409   -3.8667   -3.6830 H   0  0  0  0  0  0  0  0  0  0  0  0
    1.8214   -1.7300   -4.2675 H   0  0  0  0  0  0  0  0  0  0  0  0
    0.5458    0.4788   -4.0613 H   0  0  0  0  0  0  0  0  0  0  0  0
   -0.9622    0.2555   -6.0294 H   0  0  0  0  0  0  0  0  0  0  0  0
   -1.6045   -1.9910   -6.8216 H   0  0  0  0  0  0  0  0  0  0  0  0
  1  2  3  0  0  0  0
  3  5  1  0  0  0  0
  3  4  1  0  0  0  0
  6  7  2  0  0  0  0
  7  8  1  0  0  0  0
  7 13  1  0  0  0  0
  8 14  1  6  0  0  0
  8  3  1  0  0  0  0
  9 15  1  0  0  0  0
  9  8  1  0  0  0  0
 10  9  2  0  0  0  0
 11 10  1  0  0  0  0
 11  6  1  0  0  0  0
 12  6  1  0  0  0  0
 16 10  1  0  0  0  0
 17 11  1  0  0  0  0
M  RAD  1  11   2
M  END
