Coordinates from ORCA-job C6H6+NH2--N2+-scan
 OpenBabel10171807273D

 17 16  0  0  1  0  0  0  0  0999 V2000
    1.6732   -1.5083    0.5116 N   0  0  0  0  0  0  0  0  0  0  0  0
    1.9496   -1.6348    1.5639 N   0  0  0  0  0  0  0  0  0  0  0  0
    1.1990   -2.0888   -2.4897 N   0  0  0  0  0  0  0  0  0  0  0  0
    0.4025   -2.0177   -1.8673 H   0  0  0  0  0  0  0  0  0  0  0  0
    1.9140   -1.4508   -2.1635 H   0  0  0  0  0  0  0  0  0  0  0  0
   -0.5550   -3.0260   -5.5956 C   0  0  0  0  0  0  0  0  0  0  0  0
    0.2992   -3.1051   -4.5252 C   0  0  0  0  0  0  0  0  0  0  0  0
    0.8328   -1.8911   -3.8732 C   0  0  1  0  0  0  0  0  0  0  0  0
    0.2312   -0.6100   -4.3218 C   0  0  0  0  0  0  0  0  0  0  0  0
   -0.6275   -0.5620   -5.3876 C   0  0  0  0  0  0  0  0  0  0  0  0
   -1.0168   -1.7646   -6.0140 C   0  0  0  0  0  0  0  0  0  0  0  0
   -0.9029   -3.9217   -6.0955 H   0  0  0  0  0  0  0  0  0  0  0  0
    0.6636   -4.0529   -4.1430 H   0  0  0  0  0  0  0  0  0  0  0  0
    1.7970   -1.8405   -4.4621 H   0  0  0  0  0  0  0  0  0  0  0  0
    0.5416    0.2943   -3.8075 H   0  0  0  0  0  0  0  0  0  0  0  0
   -1.0349    0.3804   -5.7336 H   0  0  0  0  0  0  0  0  0  0  0  0
   -1.7108   -1.7144   -6.8478 H   0  0  0  0  0  0  0  0  0  0  0  0
  1  2  3  0  0  0  0
  3  5  1  0  0  0  0
  3  4  1  0  0  0  0
  6  7  2  0  0  0  0
  7 13  1  0  0  0  0
  7  8  1  0  0  0  0
  8 14  1  6  0  0  0
  8  3  1  0  0  0  0
  9  8  1  0  0  0  0
  9 15  1  0  0  0  0
 10  9  2  0  0  0  0
 11  6  1  0  0  0  0
 11 10  1  0  0  0  0
 12  6  1  0  0  0  0
 16 10  1  0  0  0  0
 17 11  1  0  0  0  0
M  RAD  1  11   2
M  END
