Coordinates from ORCA-job C6H6+NH2--N2+-scan
 OpenBabel10171807273D

 17 16  0  0  1  0  0  0  0  0999 V2000
    3.5739    0.0517   -2.8990 N   0  0  0  0  0  0  0  0  0  0  0  0
    4.4958    0.6212   -2.7382 N   0  0  0  0  0  0  0  0  0  0  0  0
   -0.9010   -3.4024   -2.2701 N   0  0  0  0  0  0  0  0  0  0  0  0
   -1.8241   -3.6184   -2.6303 H   0  0  0  0  0  0  0  0  0  0  0  0
   -0.9861   -3.0618   -1.3195 H   0  0  0  0  0  0  0  0  0  0  0  0
    0.7416   -2.4906   -5.4435 C   0  0  0  0  0  0  0  0  0  0  0  0
    0.4808   -3.1591   -4.2747 C   0  0  0  0  0  0  0  0  0  0  0  0
   -0.1858   -2.4911   -3.1379 C   0  0  1  0  0  0  0  0  0  0  0  0
   -0.7246   -1.1372   -3.4195 C   0  0  0  0  0  0  0  0  0  0  0  0
   -0.4571   -0.4976   -4.6004 C   0  0  0  0  0  0  0  0  0  0  0  0
    0.2682   -1.1753   -5.6027 C   0  0  0  0  0  0  0  0  0  0  0  0
    1.2730   -2.9754   -6.2532 H   0  0  0  0  0  0  0  0  0  0  0  0
    0.7968   -4.1839   -4.1099 H   0  0  0  0  0  0  0  0  0  0  0  0
    0.7581   -2.1860   -2.5946 H   0  0  0  0  0  0  0  0  0  0  0  0
   -1.2906   -0.6504   -2.6313 H   0  0  0  0  0  0  0  0  0  0  0  0
   -0.8215    0.5056   -4.7859 H   0  0  0  0  0  0  0  0  0  0  0  0
    0.4585   -0.6635   -6.5414 H   0  0  0  0  0  0  0  0  0  0  0  0
  1  2  3  0  0  0  0
  3  5  1  0  0  0  0
  4  3  1  0  0  0  0
  6  7  2  0  0  0  0
  7 13  1  0  0  0  0
  7  8  1  0  0  0  0
  8 14  1  1  0  0  0
  8  3  1  0  0  0  0
  9  8  1  0  0  0  0
  9 15  1  0  0  0  0
 10  9  2  0  0  0  0
 11  6  1  0  0  0  0
 11 10  1  0  0  0  0
 12  6  1  0  0  0  0
 16 10  1  0  0  0  0
 17 11  1  0  0  0  0
M  RAD  1  11   2
M  END
