Coordinates from ORCA-job C6H6+NH2--N2+-scan
 OpenBabel10171807273D

 17 16  0  0  1  0  0  0  0  0999 V2000
    3.2676   -0.2419   -2.6664 N   0  0  0  0  0  0  0  0  0  0  0  0
    4.1873    0.3223   -2.4779 N   0  0  0  0  0  0  0  0  0  0  0  0
   -0.7254   -3.3107   -2.2092 N   0  0  0  0  0  0  0  0  0  0  0  0
   -1.6606   -3.5714   -2.5024 H   0  0  0  0  0  0  0  0  0  0  0  0
   -0.7645   -2.9300   -1.2710 H   0  0  0  0  0  0  0  0  0  0  0  0
    0.7060   -2.4878   -5.5095 C   0  0  0  0  0  0  0  0  0  0  0  0
    0.5240   -3.1178   -4.3043 C   0  0  0  0  0  0  0  0  0  0  0  0
   -0.0934   -2.4211   -3.1582 C   0  0  1  0  0  0  0  0  0  0  0  0
   -0.6787   -1.0917   -3.4582 C   0  0  0  0  0  0  0  0  0  0  0  0
   -0.4884   -0.4903   -4.6740 C   0  0  0  0  0  0  0  0  0  0  0  0
    0.1966   -1.1893   -5.6895 C   0  0  0  0  0  0  0  0  0  0  0  0
    1.2042   -2.9915   -6.3288 H   0  0  0  0  0  0  0  0  0  0  0  0
    0.8730   -4.1283   -4.1195 H   0  0  0  0  0  0  0  0  0  0  0  0
    0.8786   -2.0670   -2.6959 H   0  0  0  0  0  0  0  0  0  0  0  0
   -1.2126   -0.5880   -2.6584 H   0  0  0  0  0  0  0  0  0  0  0  0
   -0.8841    0.4981   -4.8746 H   0  0  0  0  0  0  0  0  0  0  0  0
    0.3263   -0.7079   -6.6543 H   0  0  0  0  0  0  0  0  0  0  0  0
  1  2  3  0  0  0  0
  3  5  1  0  0  0  0
  4  3  1  0  0  0  0
  6  7  2  0  0  0  0
  7 13  1  0  0  0  0
  7  8  1  0  0  0  0
  8 14  1  1  0  0  0
  8  3  1  0  0  0  0
  9  8  1  0  0  0  0
  9 15  1  0  0  0  0
 10  9  2  0  0  0  0
 11  6  1  0  0  0  0
 11 10  1  0  0  0  0
 12  6  1  0  0  0  0
 16 10  1  0  0  0  0
 17 11  1  0  0  0  0
M  RAD  1  11   2
M  END
