Coordinates from ORCA-job C6H6+NH2--N2+-scan
 OpenBabel10171807273D

 17 16  0  0  1  0  0  0  0  0999 V2000
    1.6454   -1.8107    0.2649 N   0  0  0  0  0  0  0  0  0  0  0  0
    2.0329   -2.5348    0.9899 N   0  0  0  0  0  0  0  0  0  0  0  0
    1.1100   -1.7658   -2.3738 N   0  0  0  0  0  0  0  0  0  0  0  0
    0.2835   -1.6023   -1.8108 H   0  0  0  0  0  0  0  0  0  0  0  0
    1.8152   -1.0916   -2.1037 H   0  0  0  0  0  0  0  0  0  0  0  0
   -0.5222   -3.0723   -5.4120 C   0  0  0  0  0  0  0  0  0  0  0  0
    0.2926   -3.0215   -4.3102 C   0  0  0  0  0  0  0  0  0  0  0  0
    0.8100   -1.7379   -3.7919 C   0  0  1  0  0  0  0  0  0  0  0  0
    0.2341   -0.5203   -4.4157 C   0  0  0  0  0  0  0  0  0  0  0  0
   -0.5891   -0.6008   -5.5073 C   0  0  0  0  0  0  0  0  0  0  0  0
   -0.9627   -1.8701   -5.9963 C   0  0  0  0  0  0  0  0  0  0  0  0
   -0.8575   -4.0215   -5.8116 H   0  0  0  0  0  0  0  0  0  0  0  0
    0.6358   -3.9165   -3.8020 H   0  0  0  0  0  0  0  0  0  0  0  0
    1.8016   -1.7601   -4.3329 H   0  0  0  0  0  0  0  0  0  0  0  0
    0.5329    0.4398   -4.0062 H   0  0  0  0  0  0  0  0  0  0  0  0
   -0.9791    0.2931   -5.9790 H   0  0  0  0  0  0  0  0  0  0  0  0
   -1.6277   -1.9209   -6.8534 H   0  0  0  0  0  0  0  0  0  0  0  0
  1  2  3  0  0  0  0
  3  5  1  0  0  0  0
  3  4  1  0  0  0  0
  6  7  2  0  0  0  0
  7 13  1  0  0  0  0
  7  8  1  0  0  0  0
  8 14  1  6  0  0  0
  8  3  1  0  0  0  0
  9 15  1  0  0  0  0
  9  8  1  0  0  0  0
 10  9  2  0  0  0  0
 11 10  1  0  0  0  0
 11  6  1  0  0  0  0
 12  6  1  0  0  0  0
 16 10  1  0  0  0  0
 17 11  1  0  0  0  0
M  RAD  1  11   2
M  END
