Coordinates from ORCA-job C6H6+NH2--N2+-scan
 OpenBabel10171807273D

 17 16  0  0  1  0  0  0  0  0999 V2000
    3.4878   -0.0198   -2.8503 N   0  0  0  0  0  0  0  0  0  0  0  0
    4.4086    0.5490   -2.6819 N   0  0  0  0  0  0  0  0  0  0  0  0
   -0.8600   -3.3809   -2.2552 N   0  0  0  0  0  0  0  0  0  0  0  0
   -1.7871   -3.6055   -2.5995 H   0  0  0  0  0  0  0  0  0  0  0  0
   -0.9331   -3.0324   -1.3066 H   0  0  0  0  0  0  0  0  0  0  0  0
    0.7344   -2.4899   -5.4594 C   0  0  0  0  0  0  0  0  0  0  0  0
    0.4917   -3.1498   -4.2818 C   0  0  0  0  0  0  0  0  0  0  0  0
   -0.1621   -2.4749   -3.1416 C   0  0  1  0  0  0  0  0  0  0  0  0
   -0.7101   -1.1255   -3.4273 C   0  0  0  0  0  0  0  0  0  0  0  0
   -0.4606   -0.4946   -4.6168 C   0  0  0  0  0  0  0  0  0  0  0  0
    0.2541   -1.1777   -5.6229 C   0  0  0  0  0  0  0  0  0  0  0  0
    1.2573   -2.9791   -6.2720 H   0  0  0  0  0  0  0  0  0  0  0  0
    0.8140   -4.1719   -4.1127 H   0  0  0  0  0  0  0  0  0  0  0  0
    0.7885   -2.1603   -2.6153 H   0  0  0  0  0  0  0  0  0  0  0  0
   -1.2673   -0.6342   -2.6356 H   0  0  0  0  0  0  0  0  0  0  0  0
   -0.8309    0.5059   -4.8054 H   0  0  0  0  0  0  0  0  0  0  0  0
    0.4307   -0.6726   -6.5679 H   0  0  0  0  0  0  0  0  0  0  0  0
  1  2  3  0  0  0  0
  3  5  1  0  0  0  0
  4  3  1  0  0  0  0
  6  7  2  0  0  0  0
  7 13  1  0  0  0  0
  7  8  1  0  0  0  0
  8 14  1  1  0  0  0
  8  3  1  0  0  0  0
  9  8  1  0  0  0  0
  9 15  1  0  0  0  0
 10  9  2  0  0  0  0
 11  6  1  0  0  0  0
 11 10  1  0  0  0  0
 12  6  1  0  0  0  0
 16 10  1  0  0  0  0
 17 11  1  0  0  0  0
M  RAD  1  11   2
M  END
