Coordinates from ORCA-job C6H6+NH2--N2+-scan
 OpenBabel10171807273D

 17 16  0  0  0  0  0  0  0  0999 V2000
   -0.1169   -1.8061   -1.1729 N   0  0  0  0  0  0  0  0  0  0  0  0
   -1.0763   -1.7852   -0.6278 N   0  0  0  0  0  0  0  0  0  0  0  0
    1.1530   -2.0468   -1.7626 N   0  0  0  0  0  0  0  0  0  0  0  0
    0.9785   -2.3413   -2.7617 H   0  0  0  0  0  0  0  0  0  0  0  0
    1.6730   -1.1670   -1.6830 H   0  0  0  0  0  0  0  0  0  0  0  0
   -0.4232   -2.9744   -4.4895 C   0  0  0  0  0  0  0  0  0  0  0  0
    0.9590   -2.9892   -4.7257 C   0  0  0  0  0  0  0  0  0  0  0  0
    1.6348   -1.7903   -4.9954 C   0  0  0  0  0  0  0  0  0  0  0  0
    0.9327   -0.5832   -5.0186 C   0  0  0  0  0  0  0  0  0  0  0  0
   -0.4429   -0.5708   -4.7782 C   0  0  0  0  0  0  0  0  0  0  0  0
   -1.1213   -1.7638   -4.5144 C   0  0  0  0  0  0  0  0  0  0  0  0
   -0.9523   -3.9065   -4.3229 H   0  0  0  0  0  0  0  0  0  0  0  0
    1.4958   -3.9314   -4.7474 H   0  0  0  0  0  0  0  0  0  0  0  0
    2.6972   -1.8070   -5.2116 H   0  0  0  0  0  0  0  0  0  0  0  0
    1.4510    0.3401   -5.2513 H   0  0  0  0  0  0  0  0  0  0  0  0
   -0.9908    0.3636   -4.8233 H   0  0  0  0  0  0  0  0  0  0  0  0
   -2.1954   -1.7549   -4.3657 H   0  0  0  0  0  0  0  0  0  0  0  0
  1  2  1  0  0  0  0
  3  5  1  0  0  0  0
  3  1  1  0  0  0  0
  4  3  1  0  0  0  0
  6 12  1  0  0  0  0
  7  6  2  0  0  0  0
  8  7  1  0  0  0  0
  9  8  2  0  0  0  0
  9 10  1  0  0  0  0
 10 11  2  0  0  0  0
 11  6  1  0  0  0  0
 11 17  1  0  0  0  0
 13  7  1  0  0  0  0
 14  8  1  0  0  0  0
 15  9  1  0  0  0  0
 16 10  1  0  0  0  0
M  RAD  2   1   2   2   3
M  END
