Coordinates from ORCA-job C6H6+NH2--N2+-scan
 OpenBabel10171807273D

 17 16  0  0  1  0  0  0  0  0999 V2000
    3.1498   -0.4346   -2.4851 N   0  0  0  0  0  0  0  0  0  0  0  0
    4.0764    0.1005   -2.2510 N   0  0  0  0  0  0  0  0  0  0  0  0
   -0.6018   -3.2421   -2.1743 N   0  0  0  0  0  0  0  0  0  0  0  0
   -1.5387   -3.5427   -2.4196 H   0  0  0  0  0  0  0  0  0  0  0  0
   -0.6154   -2.8313   -1.2482 H   0  0  0  0  0  0  0  0  0  0  0  0
    0.6788   -2.4825   -5.5524 C   0  0  0  0  0  0  0  0  0  0  0  0
    0.5583   -3.0800   -4.3228 C   0  0  0  0  0  0  0  0  0  0  0  0
   -0.0383   -2.3665   -3.1772 C   0  0  1  0  0  0  0  0  0  0  0  0
   -0.6747   -1.0659   -3.4951 C   0  0  0  0  0  0  0  0  0  0  0  0
   -0.5449   -0.4964   -4.7342 C   0  0  0  0  0  0  0  0  0  0  0  0
    0.1246   -1.2057   -5.7527 C   0  0  0  0  0  0  0  0  0  0  0  0
    1.1628   -2.9968   -6.3736 H   0  0  0  0  0  0  0  0  0  0  0  0
    0.9447   -4.0735   -4.1205 H   0  0  0  0  0  0  0  0  0  0  0  0
    0.9412   -1.9656   -2.7685 H   0  0  0  0  0  0  0  0  0  0  0  0
   -1.1956   -0.5538   -2.6919 H   0  0  0  0  0  0  0  0  0  0  0  0
   -0.9773    0.4734   -4.9494 H   0  0  0  0  0  0  0  0  0  0  0  0
    0.2057   -0.7507   -6.7354 H   0  0  0  0  0  0  0  0  0  0  0  0
  1  2  3  0  0  0  0
  3  5  1  0  0  0  0
  4  3  1  0  0  0  0
  6  7  2  0  0  0  0
  7 13  1  0  0  0  0
  7  8  1  0  0  0  0
  8 14  1  1  0  0  0
  8  3  1  0  0  0  0
  9  8  1  0  0  0  0
  9 15  1  0  0  0  0
 10  9  2  0  0  0  0
 11  6  1  0  0  0  0
 11 10  1  0  0  0  0
 12  6  1  0  0  0  0
 16 10  1  0  0  0  0
 17 11  1  0  0  0  0
M  RAD  1  11   2
M  END
