Coordinates from ORCA-job C6H6+NH2--N2+-scan
 OpenBabel10171807273D

 17 16  0  0  1  0  0  0  0  0999 V2000
    3.5572    0.4802   -4.3282 N   0  0  0  0  0  0  0  0  0  0  0  0
    4.5018    0.9889   -4.1074 N   0  0  0  0  0  0  0  0  0  0  0  0
   -1.3580   -3.6033   -2.5259 N   0  0  0  0  0  0  0  0  0  0  0  0
   -2.1750   -3.6873   -3.1209 H   0  0  0  0  0  0  0  0  0  0  0  0
   -1.6558   -3.3903   -1.5811 H   0  0  0  0  0  0  0  0  0  0  0  0
    1.0454   -2.4180   -5.0553 C   0  0  0  0  0  0  0  0  0  0  0  0
    0.4780   -3.2130   -4.0943 C   0  0  0  0  0  0  0  0  0  0  0  0
   -0.4046   -2.6498   -3.0502 C   0  0  1  0  0  0  0  0  0  0  0  0
   -0.7889   -1.2277   -3.2396 C   0  0  0  0  0  0  0  0  0  0  0  0
   -0.2136   -0.4603   -4.2153 C   0  0  0  0  0  0  0  0  0  0  0  0
    0.6962   -1.0558   -5.1149 C   0  0  0  0  0  0  0  0  0  0  0  0
    1.7292   -2.8322   -5.7860 H   0  0  0  0  0  0  0  0  0  0  0  0
    0.6896   -4.2746   -4.0206 H   0  0  0  0  0  0  0  0  0  0  0  0
    0.3887   -2.5137   -2.2581 H   0  0  0  0  0  0  0  0  0  0  0  0
   -1.5023   -0.8053   -2.5385 H   0  0  0  0  0  0  0  0  0  0  0  0
   -0.4688    0.5868   -4.3246 H   0  0  0  0  0  0  0  0  0  0  0  0
    1.1368   -0.4389   -5.8912 H   0  0  0  0  0  0  0  0  0  0  0  0
  1  2  3  0  0  0  0
  3  5  1  0  0  0  0
  4  3  1  0  0  0  0
  6  7  2  0  0  0  0
  7 13  1  0  0  0  0
  7  8  1  0  0  0  0
  8  3  1  0  0  0  0
  8 14  1  1  0  0  0
  9  8  1  0  0  0  0
  9 15  1  0  0  0  0
 10  9  2  0  0  0  0
 11  6  1  0  0  0  0
 11 10  1  0  0  0  0
 12  6  1  0  0  0  0
 16 10  1  0  0  0  0
 17 11  1  0  0  0  0
M  RAD  1  11   2
M  END
