Coordinates from ORCA-job C6H6+NH2--N2+-scan
 OpenBabel10171807273D

 17 16  0  0  1  0  0  0  0  0999 V2000
    3.4278    0.2615   -3.9919 N   0  0  0  0  0  0  0  0  0  0  0  0
    4.3754    0.7490   -3.7378 N   0  0  0  0  0  0  0  0  0  0  0  0
   -1.2203   -3.5517   -2.4422 N   0  0  0  0  0  0  0  0  0  0  0  0
   -2.0676   -3.6905   -2.9819 H   0  0  0  0  0  0  0  0  0  0  0  0
   -1.4681   -3.3029   -1.4917 H   0  0  0  0  0  0  0  0  0  0  0  0
    0.9937   -2.4069   -5.1599 C   0  0  0  0  0  0  0  0  0  0  0  0
    0.5024   -3.1780   -4.1389 C   0  0  0  0  0  0  0  0  0  0  0  0
   -0.3333   -2.5957   -3.0674 C   0  0  1  0  0  0  0  0  0  0  0  0
   -0.7696   -1.1936   -3.2900 C   0  0  0  0  0  0  0  0  0  0  0  0
   -0.2689   -0.4502   -4.3239 C   0  0  0  0  0  0  0  0  0  0  0  0
    0.6080   -1.0565   -5.2482 C   0  0  0  0  0  0  0  0  0  0  0  0
    1.6470   -2.8319   -5.9118 H   0  0  0  0  0  0  0  0  0  0  0  0
    0.7472   -4.2300   -4.0368 H   0  0  0  0  0  0  0  0  0  0  0  0
    0.5051   -2.4006   -2.3355 H   0  0  0  0  0  0  0  0  0  0  0  0
   -1.4553   -0.7629   -2.5668 H   0  0  0  0  0  0  0  0  0  0  0  0
   -0.5577    0.5853   -4.4576 H   0  0  0  0  0  0  0  0  0  0  0  0
    0.9900   -0.4587   -6.0697 H   0  0  0  0  0  0  0  0  0  0  0  0
  1  2  3  0  0  0  0
  3  5  1  0  0  0  0
  4  3  1  0  0  0  0
  6  7  2  0  0  0  0
  7 13  1  0  0  0  0
  7  8  1  0  0  0  0
  8  3  1  0  0  0  0
  8 14  1  1  0  0  0
  9  8  1  0  0  0  0
  9 15  1  0  0  0  0
 10  9  2  0  0  0  0
 11  6  1  0  0  0  0
 11 10  1  0  0  0  0
 12  6  1  0  0  0  0
 16 10  1  0  0  0  0
 17 11  1  0  0  0  0
M  RAD  1  11   2
M  END
