Coordinates from ORCA-job C6H6+NH2--N2+-scan
 OpenBabel10171807273D

 17 16  0  0  1  0  0  0  0  0999 V2000
    3.5278    0.4275   -4.2479 N   0  0  0  0  0  0  0  0  0  0  0  0
    4.4728    0.9331   -4.0209 N   0  0  0  0  0  0  0  0  0  0  0  0
   -1.3267   -3.5925   -2.5058 N   0  0  0  0  0  0  0  0  0  0  0  0
   -2.1512   -3.6876   -3.0887 H   0  0  0  0  0  0  0  0  0  0  0  0
   -1.6128   -3.3707   -1.5594 H   0  0  0  0  0  0  0  0  0  0  0  0
    1.0338   -2.4146   -5.0801 C   0  0  0  0  0  0  0  0  0  0  0  0
    0.4843   -3.2045   -4.1044 C   0  0  0  0  0  0  0  0  0  0  0  0
   -0.3875   -2.6374   -3.0533 C   0  0  1  0  0  0  0  0  0  0  0  0
   -0.7840   -1.2197   -3.2512 C   0  0  0  0  0  0  0  0  0  0  0  0
   -0.2263   -0.4576   -4.2413 C   0  0  0  0  0  0  0  0  0  0  0  0
    0.6756   -1.0551   -5.1473 C   0  0  0  0  0  0  0  0  0  0  0  0
    1.7102   -2.8316   -5.8160 H   0  0  0  0  0  0  0  0  0  0  0  0
    0.7039   -4.2640   -4.0241 H   0  0  0  0  0  0  0  0  0  0  0  0
    0.4161   -2.4880   -2.2741 H   0  0  0  0  0  0  0  0  0  0  0  0
   -1.4910   -0.7953   -2.5450 H   0  0  0  0  0  0  0  0  0  0  0  0
   -0.4903    0.5867   -4.3566 H   0  0  0  0  0  0  0  0  0  0  0  0
    1.1011   -0.4429   -5.9358 H   0  0  0  0  0  0  0  0  0  0  0  0
  1  2  3  0  0  0  0
  3  5  1  0  0  0  0
  4  3  1  0  0  0  0
  6  7  2  0  0  0  0
  7 13  1  0  0  0  0
  7  8  1  0  0  0  0
  8  3  1  0  0  0  0
  8 14  1  1  0  0  0
  9  8  1  0  0  0  0
  9 15  1  0  0  0  0
 10  9  2  0  0  0  0
 11  6  1  0  0  0  0
 11 10  1  0  0  0  0
 12  6  1  0  0  0  0
 16 10  1  0  0  0  0
 17 11  1  0  0  0  0
M  RAD  1  11   2
M  END
