Coordinates from ORCA-job C6H6+NH2--N2+-scan
 OpenBabel10171807273D

 17 16  0  0  1  0  0  0  0  0999 V2000
    3.1426   -0.4517   -2.4681 N   0  0  0  0  0  0  0  0  0  0  0  0
    4.0705    0.0784   -2.2283 N   0  0  0  0  0  0  0  0  0  0  0  0
   -0.5903   -3.2355   -2.1713 N   0  0  0  0  0  0  0  0  0  0  0  0
   -1.5270   -3.5404   -2.4122 H   0  0  0  0  0  0  0  0  0  0  0  0
   -0.6020   -2.8217   -1.2466 H   0  0  0  0  0  0  0  0  0  0  0  0
    0.6764   -2.4818   -5.5562 C   0  0  0  0  0  0  0  0  0  0  0  0
    0.5617   -3.0761   -4.3244 C   0  0  0  0  0  0  0  0  0  0  0  0
   -0.0338   -2.3611   -3.1792 C   0  0  1  0  0  0  0  0  0  0  0  0
   -0.6757   -1.0638   -3.4989 C   0  0  0  0  0  0  0  0  0  0  0  0
   -0.5515   -0.4974   -4.7401 C   0  0  0  0  0  0  0  0  0  0  0  0
    0.1173   -1.2075   -5.7586 C   0  0  0  0  0  0  0  0  0  0  0  0
    1.1596   -2.9969   -6.3773 H   0  0  0  0  0  0  0  0  0  0  0  0
    0.9522   -4.0675   -4.1203 H   0  0  0  0  0  0  0  0  0  0  0  0
    0.9458   -1.9553   -2.7753 H   0  0  0  0  0  0  0  0  0  0  0  0
   -1.1959   -0.5511   -2.6957 H   0  0  0  0  0  0  0  0  0  0  0  0
   -0.9879    0.4702   -4.9568 H   0  0  0  0  0  0  0  0  0  0  0  0
    0.1939   -0.7551   -6.7428 H   0  0  0  0  0  0  0  0  0  0  0  0
  1  2  3  0  0  0  0
  3  5  1  0  0  0  0
  4  3  1  0  0  0  0
  6  7  2  0  0  0  0
  7 13  1  0  0  0  0
  7  8  1  0  0  0  0
  8 14  1  1  0  0  0
  8  3  1  0  0  0  0
  9  8  1  0  0  0  0
  9 15  1  0  0  0  0
 10  9  2  0  0  0  0
 11  6  1  0  0  0  0
 11 10  1  0  0  0  0
 12  6  1  0  0  0  0
 16 10  1  0  0  0  0
 17 11  1  0  0  0  0
M  RAD  1  11   2
M  END
