Coordinates from ORCA-job C6H6+NH2--N2+-scan
 OpenBabel10171807273D

 17 16  0  0  1  0  0  0  0  0999 V2000
    1.0723   -1.9730   -0.4648 N   0  0  0  0  0  0  0  0  0  0  0  0
    1.5423   -2.8540    0.0017 N   0  0  0  0  0  0  0  0  0  0  0  0
    0.9507   -1.5555   -2.3262 N   0  0  0  0  0  0  0  0  0  0  0  0
   -0.0601   -1.4591   -2.2055 H   0  0  0  0  0  0  0  0  0  0  0  0
    1.3367   -0.6366   -2.0994 H   0  0  0  0  0  0  0  0  0  0  0  0
   -0.4657   -3.1053   -5.1193 C   0  0  0  0  0  0  0  0  0  0  0  0
    0.6291   -3.0368   -4.3134 C   0  0  0  0  0  0  0  0  0  0  0  0
    1.1983   -1.7368   -3.9069 C   0  0  1  0  0  0  0  0  0  0  0  0
    0.5793   -0.5536   -4.5073 C   0  0  0  0  0  0  0  0  0  0  0  0
   -0.5671   -0.6431   -5.2695 C   0  0  0  0  0  0  0  0  0  0  0  0
   -1.0729   -1.9084   -5.5853 C   0  0  0  0  0  0  0  0  0  0  0  0
   -0.8842   -4.0619   -5.4072 H   0  0  0  0  0  0  0  0  0  0  0  0
    1.0974   -3.9348   -3.9250 H   0  0  0  0  0  0  0  0  0  0  0  0
    2.2897   -1.7355   -3.9755 H   0  0  0  0  0  0  0  0  0  0  0  0
    1.0235    0.4140   -4.2948 H   0  0  0  0  0  0  0  0  0  0  0  0
   -1.0539    0.2478   -5.6465 H   0  0  0  0  0  0  0  0  0  0  0  0
   -1.9596   -1.9816   -6.2071 H   0  0  0  0  0  0  0  0  0  0  0  0
  1  2  3  0  0  0  0
  3  4  1  0  0  0  0
  3  5  1  0  0  0  0
  6  7  2  0  0  0  0
  7 13  1  0  0  0  0
  7  8  1  0  0  0  0
  8 14  1  6  0  0  0
  8  3  1  0  0  0  0
  9 15  1  0  0  0  0
  9  8  1  0  0  0  0
 10  9  2  0  0  0  0
 11 10  1  0  0  0  0
 11  6  1  0  0  0  0
 12  6  1  0  0  0  0
 16 10  1  0  0  0  0
 17 11  1  0  0  0  0
M  RAD  1  11   2
M  END
