Coordinates from ORCA-job C6H6+NH2--N2+-scan
 OpenBabel10171807273D

 17 16  0  0  1  0  0  0  0  0999 V2000
    3.3813   -0.1014   -2.7973 N   0  0  0  0  0  0  0  0  0  0  0  0
    4.3016    0.4664   -2.6226 N   0  0  0  0  0  0  0  0  0  0  0  0
   -0.8112   -3.3563   -2.2359 N   0  0  0  0  0  0  0  0  0  0  0  0
   -1.7411   -3.5960   -2.5618 H   0  0  0  0  0  0  0  0  0  0  0  0
   -0.8724   -2.9941   -1.2916 H   0  0  0  0  0  0  0  0  0  0  0  0
    0.7261   -2.4894   -5.4765 C   0  0  0  0  0  0  0  0  0  0  0  0
    0.5008   -3.1406   -4.2903 C   0  0  0  0  0  0  0  0  0  0  0  0
   -0.1378   -2.4574   -3.1472 C   0  0  1  0  0  0  0  0  0  0  0  0
   -0.6942   -1.1127   -3.4360 C   0  0  0  0  0  0  0  0  0  0  0  0
   -0.4606   -0.4901   -4.6332 C   0  0  0  0  0  0  0  0  0  0  0  0
    0.2421   -1.1792   -5.6434 C   0  0  0  0  0  0  0  0  0  0  0  0
    1.2393   -2.9840   -6.2920 H   0  0  0  0  0  0  0  0  0  0  0  0
    0.8288   -4.1602   -4.1168 H   0  0  0  0  0  0  0  0  0  0  0  0
    0.8243   -2.1300   -2.6480 H   0  0  0  0  0  0  0  0  0  0  0  0
   -1.2426   -0.6169   -2.6410 H   0  0  0  0  0  0  0  0  0  0  0  0
   -0.8351    0.5083   -4.8243 H   0  0  0  0  0  0  0  0  0  0  0  0
    0.4066   -0.6805   -6.5939 H   0  0  0  0  0  0  0  0  0  0  0  0
  1  2  3  0  0  0  0
  3  5  1  0  0  0  0
  4  3  1  0  0  0  0
  6  7  2  0  0  0  0
  7 13  1  0  0  0  0
  7  8  1  0  0  0  0
  8 14  1  1  0  0  0
  8  3  1  0  0  0  0
  9  8  1  0  0  0  0
  9 15  1  0  0  0  0
 10  9  2  0  0  0  0
 11  6  1  0  0  0  0
 11 10  1  0  0  0  0
 12  6  1  0  0  0  0
 16 10  1  0  0  0  0
 17 11  1  0  0  0  0
M  RAD  1  11   2
M  END
