Coordinates from ORCA-job C6H6+NH2--N2+-scan
 OpenBabel10171807273D

 17 16  0  0  1  0  0  0  0  0999 V2000
    3.0313   -0.7944   -2.0291 N   0  0  0  0  0  0  0  0  0  0  0  0
    3.9708   -0.4380   -1.5936 N   0  0  0  0  0  0  0  0  0  0  0  0
   -0.2966   -3.0568   -2.1174 N   0  0  0  0  0  0  0  0  0  0  0  0
   -1.2188   -3.4616   -2.2356 H   0  0  0  0  0  0  0  0  0  0  0  0
   -0.2592   -2.5660   -1.2319 H   0  0  0  0  0  0  0  0  0  0  0  0
    0.5941   -2.4795   -5.6565 C   0  0  0  0  0  0  0  0  0  0  0  0
    0.6354   -2.9820   -4.3794 C   0  0  0  0  0  0  0  0  0  0  0  0
    0.0782   -2.2299   -3.2413 C   0  0  1  0  0  0  0  0  0  0  0  0
   -0.7000   -1.0200   -3.5926 C   0  0  0  0  0  0  0  0  0  0  0  0
   -0.7282   -0.5432   -4.8771 C   0  0  0  0  0  0  0  0  0  0  0  0
   -0.0881   -1.2744   -5.8987 C   0  0  0  0  0  0  0  0  0  0  0  0
    1.0504   -3.0173   -6.4785 H   0  0  0  0  0  0  0  0  0  0  0  0
    1.1281   -3.9188   -4.1411 H   0  0  0  0  0  0  0  0  0  0  0  0
    1.0497   -1.7137   -2.9574 H   0  0  0  0  0  0  0  0  0  0  0  0
   -1.1949   -0.4898   -2.7848 H   0  0  0  0  0  0  0  0  0  0  0  0
   -1.2633    0.3666   -5.1214 H   0  0  0  0  0  0  0  0  0  0  0  0
   -0.1330   -0.8956   -6.9154 H   0  0  0  0  0  0  0  0  0  0  0  0
  1  2  3  0  0  0  0
  3  5  1  0  0  0  0
  4  3  1  0  0  0  0
  6  7  2  0  0  0  0
  7 13  1  0  0  0  0
  7  8  1  0  0  0  0
  8 14  1  1  0  0  0
  8  3  1  0  0  0  0
  9  8  1  0  0  0  0
  9 15  1  0  0  0  0
 10  9  2  0  0  0  0
 11  6  1  0  0  0  0
 11 10  1  0  0  0  0
 12  6  1  0  0  0  0
 16 10  1  0  0  0  0
 17 11  1  0  0  0  0
M  RAD  1  11   2
M  END
