Coordinates from ORCA-job C6H6+NH2--N2+-scan
 OpenBabel10171807273D

 17 16  0  0  1  0  0  0  0  0999 V2000
    3.5131    0.4120   -4.2341 N   0  0  0  0  0  0  0  0  0  0  0  0
    4.4581    0.9169   -4.0060 N   0  0  0  0  0  0  0  0  0  0  0  0
   -1.3197   -3.5897   -2.5020 N   0  0  0  0  0  0  0  0  0  0  0  0
   -2.1453   -3.6883   -3.0828 H   0  0  0  0  0  0  0  0  0  0  0  0
   -1.6041   -3.3660   -1.5555 H   0  0  0  0  0  0  0  0  0  0  0  0
    1.0330   -2.4132   -5.0844 C   0  0  0  0  0  0  0  0  0  0  0  0
    0.4861   -3.2023   -4.1065 C   0  0  0  0  0  0  0  0  0  0  0  0
   -0.3837   -2.6344   -3.0543 C   0  0  1  0  0  0  0  0  0  0  0  0
   -0.7825   -1.2176   -3.2536 C   0  0  0  0  0  0  0  0  0  0  0  0
   -0.2273   -0.4562   -4.2457 C   0  0  0  0  0  0  0  0  0  0  0  0
    0.6738   -1.0540   -5.1524 C   0  0  0  0  0  0  0  0  0  0  0  0
    1.7083   -2.8305   -5.8211 H   0  0  0  0  0  0  0  0  0  0  0  0
    0.7070   -4.2614   -4.0252 H   0  0  0  0  0  0  0  0  0  0  0  0
    0.4221   -2.4821   -2.2779 H   0  0  0  0  0  0  0  0  0  0  0  0
   -1.4887   -0.7930   -2.5467 H   0  0  0  0  0  0  0  0  0  0  0  0
   -0.4923    0.5877   -4.3619 H   0  0  0  0  0  0  0  0  0  0  0  0
    1.0977   -0.4423   -5.9420 H   0  0  0  0  0  0  0  0  0  0  0  0
  1  2  3  0  0  0  0
  3  5  1  0  0  0  0
  4  3  1  0  0  0  0
  6  7  2  0  0  0  0
  7 13  1  0  0  0  0
  7  8  1  0  0  0  0
  8  3  1  0  0  0  0
  8 14  1  1  0  0  0
  9  8  1  0  0  0  0
  9 15  1  0  0  0  0
 10  9  2  0  0  0  0
 11  6  1  0  0  0  0
 11 10  1  0  0  0  0
 12  6  1  0  0  0  0
 16 10  1  0  0  0  0
 17 11  1  0  0  0  0
M  RAD  1  11   2
M  END
