Coordinates from ORCA-job C6H6+NH2--N2+-scan
 OpenBabel10171807273D

 17 16  0  0  1  0  0  0  0  0999 V2000
    1.1109   -1.9846   -0.4248 N   0  0  0  0  0  0  0  0  0  0  0  0
    1.5595   -2.8811    0.0310 N   0  0  0  0  0  0  0  0  0  0  0  0
    0.9705   -1.5580   -2.3239 N   0  0  0  0  0  0  0  0  0  0  0  0
   -0.0310   -1.4326   -2.1665 H   0  0  0  0  0  0  0  0  0  0  0  0
    1.3969   -0.6614   -2.0849 H   0  0  0  0  0  0  0  0  0  0  0  0
   -0.4662   -3.1062   -5.1346 C   0  0  0  0  0  0  0  0  0  0  0  0
    0.6034   -3.0292   -4.2965 C   0  0  0  0  0  0  0  0  0  0  0  0
    1.1679   -1.7249   -3.8890 C   0  0  1  0  0  0  0  0  0  0  0  0
    0.5511   -0.5445   -4.5060 C   0  0  0  0  0  0  0  0  0  0  0  0
   -0.5733   -0.6418   -5.2960 C   0  0  0  0  0  0  0  0  0  0  0  0
   -1.0640   -1.9129   -5.6201 C   0  0  0  0  0  0  0  0  0  0  0  0
   -0.8769   -4.0649   -5.4265 H   0  0  0  0  0  0  0  0  0  0  0  0
    1.0592   -3.9224   -3.8824 H   0  0  0  0  0  0  0  0  0  0  0  0
    2.2582   -1.7279   -4.0011 H   0  0  0  0  0  0  0  0  0  0  0  0
    0.9831    0.4258   -4.2812 H   0  0  0  0  0  0  0  0  0  0  0  0
   -1.0583    0.2442   -5.6865 H   0  0  0  0  0  0  0  0  0  0  0  0
   -1.9352   -1.9918   -6.2631 H   0  0  0  0  0  0  0  0  0  0  0  0
  1  2  3  0  0  0  0
  3  4  1  0  0  0  0
  3  5  1  0  0  0  0
  6  7  2  0  0  0  0
  7  8  1  0  0  0  0
  7 13  1  0  0  0  0
  8 14  1  6  0  0  0
  8  3  1  0  0  0  0
  9 15  1  0  0  0  0
  9  8  1  0  0  0  0
 10  9  2  0  0  0  0
 11 10  1  0  0  0  0
 11  6  1  0  0  0  0
 12  6  1  0  0  0  0
 16 10  1  0  0  0  0
 17 11  1  0  0  0  0
M  RAD  1  11   2
M  END
