Coordinates from ORCA-job C6H6+NH2--N2+-scan
 OpenBabel10171807273D

 17 16  0  0  1  0  0  0  0  0999 V2000
    1.6939   -1.4350    0.6335 N   0  0  0  0  0  0  0  0  0  0  0  0
    1.9616   -1.5207    1.6921 N   0  0  0  0  0  0  0  0  0  0  0  0
    1.2071   -2.1364   -2.5166 N   0  0  0  0  0  0  0  0  0  0  0  0
    0.4129   -2.0776   -1.8896 H   0  0  0  0  0  0  0  0  0  0  0  0
    1.9228   -1.5020   -2.1836 H   0  0  0  0  0  0  0  0  0  0  0  0
   -0.5617   -3.0191   -5.6300 C   0  0  0  0  0  0  0  0  0  0  0  0
    0.2971   -3.1168   -4.5650 C   0  0  0  0  0  0  0  0  0  0  0  0
    0.8333   -1.9142   -3.8942 C   0  0  1  0  0  0  0  0  0  0  0  0
    0.2287   -0.6256   -4.3168 C   0  0  0  0  0  0  0  0  0  0  0  0
   -0.6344   -0.5592   -5.3780 C   0  0  0  0  0  0  0  0  0  0  0  0
   -1.0258   -1.7506   -6.0240 C   0  0  0  0  0  0  0  0  0  0  0  0
   -0.9114   -3.9059   -6.1442 H   0  0  0  0  0  0  0  0  0  0  0  0
    0.6639   -4.0710   -4.2013 H   0  0  0  0  0  0  0  0  0  0  0  0
    1.7942   -1.8526   -4.4875 H   0  0  0  0  0  0  0  0  0  0  0  0
    0.5408    0.2695   -3.7876 H   0  0  0  0  0  0  0  0  0  0  0  0
   -1.0437    0.3890   -5.7054 H   0  0  0  0  0  0  0  0  0  0  0  0
   -1.7234   -1.6860   -6.8538 H   0  0  0  0  0  0  0  0  0  0  0  0
  1  2  3  0  0  0  0
  3  5  1  0  0  0  0
  3  4  1  0  0  0  0
  6  7  2  0  0  0  0
  7 13  1  0  0  0  0
  7  8  1  0  0  0  0
  8 14  1  6  0  0  0
  8  3  1  0  0  0  0
  9  8  1  0  0  0  0
  9 15  1  0  0  0  0
 10  9  2  0  0  0  0
 11  6  1  0  0  0  0
 11 10  1  0  0  0  0
 12  6  1  0  0  0  0
 16 10  1  0  0  0  0
 17 11  1  0  0  0  0
M  RAD  1  11   2
M  END
