Coordinates from ORCA-job C6H6+NH2--N2+-scan
 OpenBabel10171807273D

 17 16  0  0  0  0  0  0  0  0999 V2000
    0.0921   -1.9844   -1.1469 N   0  0  0  0  0  0  0  0  0  0  0  0
   -0.8216   -2.1062   -0.5009 N   0  0  0  0  0  0  0  0  0  0  0  0
    0.9445   -1.8917   -1.8037 N   0  0  0  0  0  0  0  0  0  0  0  0
    0.9225   -2.2657   -2.8363 H   0  0  0  0  0  0  0  0  0  0  0  0
    1.8206   -1.4504   -1.5078 H   0  0  0  0  0  0  0  0  0  0  0  0
   -0.4651   -2.9028   -4.4321 C   0  0  0  0  0  0  0  0  0  0  0  0
    0.9359   -2.9211   -4.5657 C   0  0  0  0  0  0  0  0  0  0  0  0
    1.6202   -1.7458   -4.9251 C   0  0  0  0  0  0  0  0  0  0  0  0
    0.9118   -0.5603   -5.1168 C   0  0  0  0  0  0  0  0  0  0  0  0
   -0.4770   -0.5451   -4.9658 C   0  0  0  0  0  0  0  0  0  0  0  0
   -1.1658   -1.7117   -4.6248 C   0  0  0  0  0  0  0  0  0  0  0  0
   -0.9970   -3.8200   -4.2032 H   0  0  0  0  0  0  0  0  0  0  0  0
    1.4764   -3.8583   -4.4785 H   0  0  0  0  0  0  0  0  0  0  0  0
    2.6946   -1.7708   -5.0702 H   0  0  0  0  0  0  0  0  0  0  0  0
    1.4356    0.3434   -5.4056 H   0  0  0  0  0  0  0  0  0  0  0  0
   -1.0261    0.3747   -5.1317 H   0  0  0  0  0  0  0  0  0  0  0  0
   -2.2459   -1.6981   -4.5369 H   0  0  0  0  0  0  0  0  0  0  0  0
  1  2  1  0  0  0  0
  3  5  1  0  0  0  0
  3  1  1  0  0  0  0
  4  3  1  0  0  0  0
  6 12  1  0  0  0  0
  7 13  1  0  0  0  0
  7  6  1  0  0  0  0
  8  7  2  0  0  0  0
  9 10  2  0  0  0  0
  9  8  1  0  0  0  0
 10 11  1  0  0  0  0
 11 17  1  0  0  0  0
 11  6  2  0  0  0  0
 14  8  1  0  0  0  0
 15  9  1  0  0  0  0
 16 10  1  0  0  0  0
M  RAD  2   1   2   2   3
M  END
