Coordinates from ORCA-job C6H6+NH2--N2+-scan
 OpenBabel10171807273D

 17 16  0  0  0  0  0  0  0  0999 V2000
   -0.0173   -1.9656   -1.0635 N   0  0  0  0  0  0  0  0  0  0  0  0
   -0.9459   -2.1112   -0.4713 N   0  0  0  0  0  0  0  0  0  0  0  0
    1.0441   -1.8348   -1.8209 N   0  0  0  0  0  0  0  0  0  0  0  0
    0.9827   -2.2049   -2.8114 H   0  0  0  0  0  0  0  0  0  0  0  0
    1.8370   -1.3674   -1.3908 H   0  0  0  0  0  0  0  0  0  0  0  0
   -0.4579   -2.9235   -4.4622 C   0  0  0  0  0  0  0  0  0  0  0  0
    0.9344   -2.9511   -4.6413 C   0  0  0  0  0  0  0  0  0  0  0  0
    1.6189   -1.7731   -4.9789 C   0  0  0  0  0  0  0  0  0  0  0  0
    0.9161   -0.5753   -5.1235 C   0  0  0  0  0  0  0  0  0  0  0  0
   -0.4667   -0.5514   -4.9376 C   0  0  0  0  0  0  0  0  0  0  0  0
   -1.1541   -1.7222   -4.6072 C   0  0  0  0  0  0  0  0  0  0  0  0
   -0.9923   -3.8423   -4.2458 H   0  0  0  0  0  0  0  0  0  0  0  0
    1.4708   -3.8922   -4.5801 H   0  0  0  0  0  0  0  0  0  0  0  0
    2.6890   -1.8019   -5.1524 H   0  0  0  0  0  0  0  0  0  0  0  0
    1.4420    0.3305   -5.4019 H   0  0  0  0  0  0  0  0  0  0  0  0
   -1.0128    0.3757   -5.0691 H   0  0  0  0  0  0  0  0  0  0  0  0
   -2.2322   -1.7036   -4.4940 H   0  0  0  0  0  0  0  0  0  0  0  0
  1  2  1  0  0  0  0
  3  5  1  0  0  0  0
  3  1  1  0  0  0  0
  4  3  1  0  0  0  0
  6 12  1  0  0  0  0
  7 13  1  0  0  0  0
  7  6  2  0  0  0  0
  8  7  1  0  0  0  0
  9  8  2  0  0  0  0
  9 10  1  0  0  0  0
 10 11  2  0  0  0  0
 11 17  1  0  0  0  0
 11  6  1  0  0  0  0
 14  8  1  0  0  0  0
 15  9  1  0  0  0  0
 16 10  1  0  0  0  0
M  RAD  2   1   2   2   3
M  END
