Coordinates from ORCA-job C6H6+NH2--N2+-scan
 OpenBabel10171807273D

 17 16  0  0  1  0  0  0  0  0999 V2000
    2.9537   -0.9170   -1.7969 N   0  0  0  0  0  0  0  0  0  0  0  0
    3.8662   -0.6614   -1.2479 N   0  0  0  0  0  0  0  0  0  0  0  0
   -0.1519   -2.9672   -2.1117 N   0  0  0  0  0  0  0  0  0  0  0  0
   -1.0690   -3.3968   -2.1635 H   0  0  0  0  0  0  0  0  0  0  0  0
   -0.0769   -2.4439   -1.2474 H   0  0  0  0  0  0  0  0  0  0  0  0
    0.5387   -2.4937   -5.7111 C   0  0  0  0  0  0  0  0  0  0  0  0
    0.6587   -2.9499   -4.4216 C   0  0  0  0  0  0  0  0  0  0  0  0
    0.1412   -2.1723   -3.2821 C   0  0  1  0  0  0  0  0  0  0  0  0
   -0.6848   -0.9946   -3.6327 C   0  0  0  0  0  0  0  0  0  0  0  0
   -0.7918   -0.5640   -4.9293 C   0  0  0  0  0  0  0  0  0  0  0  0
   -0.1864   -1.3148   -5.9578 C   0  0  0  0  0  0  0  0  0  0  0  0
    0.9659   -3.0487   -6.5372 H   0  0  0  0  0  0  0  0  0  0  0  0
    1.1872   -3.8656   -4.1781 H   0  0  0  0  0  0  0  0  0  0  0  0
    1.1115   -1.6267   -3.0575 H   0  0  0  0  0  0  0  0  0  0  0  0
   -1.1509   -0.4483   -2.8185 H   0  0  0  0  0  0  0  0  0  0  0  0
   -1.3621    0.3236   -5.1757 H   0  0  0  0  0  0  0  0  0  0  0  0
   -0.2934   -0.9730   -6.9829 H   0  0  0  0  0  0  0  0  0  0  0  0
  1  2  3  0  0  0  0
  3  5  1  0  0  0  0
  4  3  1  0  0  0  0
  6  7  2  0  0  0  0
  7 13  1  0  0  0  0
  7  8  1  0  0  0  0
  8 14  1  1  0  0  0
  8  3  1  0  0  0  0
  9  8  1  0  0  0  0
  9 15  1  0  0  0  0
 10  9  2  0  0  0  0
 11  6  1  0  0  0  0
 11 10  1  0  0  0  0
 12  6  1  0  0  0  0
 16 10  1  0  0  0  0
 17 11  1  0  0  0  0
M  RAD  1  11   2
M  END
