Coordinates from ORCA-job C6H6+NH2--N2+-scan
 OpenBabel10171807273D

 17 16  0  0  1  0  0  0  0  0999 V2000
    2.9707   -0.8911   -1.8451 N   0  0  0  0  0  0  0  0  0  0  0  0
    3.8892   -0.6140   -1.3168 N   0  0  0  0  0  0  0  0  0  0  0  0
   -0.1818   -2.9862   -2.1121 N   0  0  0  0  0  0  0  0  0  0  0  0
   -1.1001   -3.4112   -2.1778 H   0  0  0  0  0  0  0  0  0  0  0  0
   -0.1150   -2.4692   -1.2434 H   0  0  0  0  0  0  0  0  0  0  0  0
    0.5497   -2.4908   -5.7004 C   0  0  0  0  0  0  0  0  0  0  0  0
    0.6535   -2.9569   -4.4130 C   0  0  0  0  0  0  0  0  0  0  0  0
    0.1279   -2.1846   -3.2737 C   0  0  1  0  0  0  0  0  0  0  0  0
   -0.6880   -1.0000   -3.6244 C   0  0  0  0  0  0  0  0  0  0  0  0
   -0.7787   -0.5595   -4.9190 C   0  0  0  0  0  0  0  0  0  0  0  0
   -0.1663   -1.3063   -5.9463 C   0  0  0  0  0  0  0  0  0  0  0  0
    0.9829   -3.0422   -6.5258 H   0  0  0  0  0  0  0  0  0  0  0  0
    1.1745   -3.8770   -4.1703 H   0  0  0  0  0  0  0  0  0  0  0  0
    1.0991   -1.6448   -3.0374 H   0  0  0  0  0  0  0  0  0  0  0  0
   -1.1599   -0.4571   -2.8113 H   0  0  0  0  0  0  0  0  0  0  0  0
   -1.3415    0.3329   -5.1651 H   0  0  0  0  0  0  0  0  0  0  0  0
   -0.2605   -0.9566   -6.9700 H   0  0  0  0  0  0  0  0  0  0  0  0
  1  2  3  0  0  0  0
  3  5  1  0  0  0  0
  4  3  1  0  0  0  0
  6  7  2  0  0  0  0
  7 13  1  0  0  0  0
  7  8  1  0  0  0  0
  8 14  1  1  0  0  0
  8  3  1  0  0  0  0
  9  8  1  0  0  0  0
  9 15  1  0  0  0  0
 10  9  2  0  0  0  0
 11  6  1  0  0  0  0
 11 10  1  0  0  0  0
 12  6  1  0  0  0  0
 16 10  1  0  0  0  0
 17 11  1  0  0  0  0
M  RAD  1  11   2
M  END
