Coordinates from ORCA-job C6H6+NH2--N2+-scan
 OpenBabel10171807273D

 17 16  0  0  1  0  0  0  0  0999 V2000
    3.2379   -0.2832   -2.6278 N   0  0  0  0  0  0  0  0  0  0  0  0
    4.1581    0.2778   -2.4321 N   0  0  0  0  0  0  0  0  0  0  0  0
   -0.6995   -3.2967   -2.2015 N   0  0  0  0  0  0  0  0  0  0  0  0
   -1.6357   -3.5647   -2.4847 H   0  0  0  0  0  0  0  0  0  0  0  0
   -0.7325   -2.9101   -1.2655 H   0  0  0  0  0  0  0  0  0  0  0  0
    0.7001   -2.4871   -5.5190 C   0  0  0  0  0  0  0  0  0  0  0  0
    0.5310   -3.1105   -4.3084 C   0  0  0  0  0  0  0  0  0  0  0  0
   -0.0809   -2.4099   -3.1619 C   0  0  1  0  0  0  0  0  0  0  0  0
   -0.6758   -1.0858   -3.4654 C   0  0  0  0  0  0  0  0  0  0  0  0
   -0.4984   -0.4909   -4.6864 C   0  0  0  0  0  0  0  0  0  0  0  0
    0.1823   -1.1925   -5.7030 C   0  0  0  0  0  0  0  0  0  0  0  0
    1.1944   -2.9933   -6.3391 H   0  0  0  0  0  0  0  0  0  0  0  0
    0.8869   -4.1179   -4.1201 H   0  0  0  0  0  0  0  0  0  0  0  0
    0.8934   -2.0470   -2.7110 H   0  0  0  0  0  0  0  0  0  0  0  0
   -1.2062   -0.5800   -2.6645 H   0  0  0  0  0  0  0  0  0  0  0  0
   -0.9010    0.4940   -4.8899 H   0  0  0  0  0  0  0  0  0  0  0  0
    0.3016   -0.7165   -6.6718 H   0  0  0  0  0  0  0  0  0  0  0  0
  1  2  3  0  0  0  0
  3  5  1  0  0  0  0
  4  3  1  0  0  0  0
  6  7  2  0  0  0  0
  7 13  1  0  0  0  0
  7  8  1  0  0  0  0
  8 14  1  1  0  0  0
  8  3  1  0  0  0  0
  9  8  1  0  0  0  0
  9 15  1  0  0  0  0
 10  9  2  0  0  0  0
 11  6  1  0  0  0  0
 11 10  1  0  0  0  0
 12  6  1  0  0  0  0
 16 10  1  0  0  0  0
 17 11  1  0  0  0  0
M  RAD  1  11   2
M  END
