Coordinates from ORCA-job C6H6+NH2--N2+-scan
 OpenBabel10171807273D

 17 16  0  0  1  0  0  0  0  0999 V2000
    3.5938    0.5524   -4.4419 N   0  0  0  0  0  0  0  0  0  0  0  0
    4.5375    1.0772   -4.2580 N   0  0  0  0  0  0  0  0  0  0  0  0
   -1.4065   -3.6202   -2.5576 N   0  0  0  0  0  0  0  0  0  0  0  0
   -2.2107   -3.6859   -3.1721 H   0  0  0  0  0  0  0  0  0  0  0  0
   -1.7230   -3.4177   -1.6166 H   0  0  0  0  0  0  0  0  0  0  0  0
    1.0655   -2.4223   -5.0149 C   0  0  0  0  0  0  0  0  0  0  0  0
    0.4682   -3.2258   -4.0792 C   0  0  0  0  0  0  0  0  0  0  0  0
   -0.4314   -2.6692   -3.0460 C   0  0  1  0  0  0  0  0  0  0  0  0
   -0.7960   -1.2401   -3.2220 C   0  0  0  0  0  0  0  0  0  0  0  0
   -0.1905   -0.4642   -4.1726 C   0  0  0  0  0  0  0  0  0  0  0  0
    0.7322   -1.0555   -5.0619 C   0  0  0  0  0  0  0  0  0  0  0  0
    1.7607   -2.8329   -5.7366 H   0  0  0  0  0  0  0  0  0  0  0  0
    0.6669   -4.2907   -4.0177 H   0  0  0  0  0  0  0  0  0  0  0  0
    0.3453   -2.5542   -2.2345 H   0  0  0  0  0  0  0  0  0  0  0  0
   -1.5204   -0.8204   -2.5307 H   0  0  0  0  0  0  0  0  0  0  0  0
   -0.4322    0.5872   -4.2712 H   0  0  0  0  0  0  0  0  0  0  0  0
    1.1962   -0.4320   -5.8186 H   0  0  0  0  0  0  0  0  0  0  0  0
  1  2  3  0  0  0  0
  3  5  1  0  0  0  0
  4  3  1  0  0  0  0
  6  7  2  0  0  0  0
  7 13  1  0  0  0  0
  7  8  1  0  0  0  0
  8  3  1  0  0  0  0
  8 14  1  1  0  0  0
  9  8  1  0  0  0  0
  9 15  1  0  0  0  0
 10  9  2  0  0  0  0
 11  6  1  0  0  0  0
 11 10  1  0  0  0  0
 12  6  1  0  0  0  0
 16 10  1  0  0  0  0
 17 11  1  0  0  0  0
M  RAD  1  11   2
M  END
