Coordinates from ORCA-job C6H6+NH2--N2+-scan
 OpenBabel10171807273D

 17 16  0  0  1  0  0  0  0  0999 V2000
    1.6563   -1.7266    0.3326 N   0  0  0  0  0  0  0  0  0  0  0  0
    2.0251   -2.2690    1.2099 N   0  0  0  0  0  0  0  0  0  0  0  0
    1.1357   -1.8596   -2.4082 N   0  0  0  0  0  0  0  0  0  0  0  0
    0.3193   -1.7251   -1.8235 H   0  0  0  0  0  0  0  0  0  0  0  0
    1.8440   -1.1966   -2.1200 H   0  0  0  0  0  0  0  0  0  0  0  0
   -0.5335   -3.0603   -5.4698 C   0  0  0  0  0  0  0  0  0  0  0  0
    0.2928   -3.0475   -4.3752 C   0  0  0  0  0  0  0  0  0  0  0  0
    0.8148   -1.7825   -3.8175 C   0  0  1  0  0  0  0  0  0  0  0  0
    0.2313   -0.5442   -4.3921 C   0  0  0  0  0  0  0  0  0  0  0  0
   -0.6017   -0.5872   -5.4784 C   0  0  0  0  0  0  0  0  0  0  0  0
   -0.9799   -1.8389   -6.0075 C   0  0  0  0  0  0  0  0  0  0  0  0
   -0.8724   -3.9953   -5.8988 H   0  0  0  0  0  0  0  0  0  0  0  0
    0.6424   -3.9593   -3.9024 H   0  0  0  0  0  0  0  0  0  0  0  0
    1.7980   -1.7850   -4.3752 H   0  0  0  0  0  0  0  0  0  0  0  0
    0.5333    0.4010   -3.9516 H   0  0  0  0  0  0  0  0  0  0  0  0
   -0.9966    0.3223   -5.9149 H   0  0  0  0  0  0  0  0  0  0  0  0
   -1.6531   -1.8602   -6.8594 H   0  0  0  0  0  0  0  0  0  0  0  0
  1  2  3  0  0  0  0
  3  5  1  0  0  0  0
  3  4  1  0  0  0  0
  6  7  2  0  0  0  0
  7 13  1  0  0  0  0
  7  8  1  0  0  0  0
  8 14  1  6  0  0  0
  8  3  1  0  0  0  0
  9 15  1  0  0  0  0
  9  8  1  0  0  0  0
 10  9  2  0  0  0  0
 11 10  1  0  0  0  0
 11  6  1  0  0  0  0
 12  6  1  0  0  0  0
 16 10  1  0  0  0  0
 17 11  1  0  0  0  0
M  RAD  1  11   2
M  END
