Coordinates from ORCA-job C6H6+NH2--N2+-scan
 OpenBabel10171807273D

 17 16  0  0  1  0  0  0  0  0999 V2000
    1.6471   -1.8070    0.2730 N   0  0  0  0  0  0  0  0  0  0  0  0
    2.0348   -2.5261    1.0029 N   0  0  0  0  0  0  0  0  0  0  0  0
    1.1108   -1.7692   -2.3758 N   0  0  0  0  0  0  0  0  0  0  0  0
    0.2849   -1.6071   -1.8117 H   0  0  0  0  0  0  0  0  0  0  0  0
    1.8163   -1.0955   -2.1050 H   0  0  0  0  0  0  0  0  0  0  0  0
   -0.5229   -3.0718   -5.4148 C   0  0  0  0  0  0  0  0  0  0  0  0
    0.2922   -3.0224   -4.3132 C   0  0  0  0  0  0  0  0  0  0  0  0
    0.8098   -1.7395   -3.7934 C   0  0  1  0  0  0  0  0  0  0  0  0
    0.2336   -0.5211   -4.4155 C   0  0  0  0  0  0  0  0  0  0  0  0
   -0.5897   -0.6002   -5.5070 C   0  0  0  0  0  0  0  0  0  0  0  0
   -0.9635   -1.8689   -5.9976 C   0  0  0  0  0  0  0  0  0  0  0  0
   -0.8583   -4.0205   -5.8155 H   0  0  0  0  0  0  0  0  0  0  0  0
    0.6357   -3.9181   -3.8062 H   0  0  0  0  0  0  0  0  0  0  0  0
    1.8010   -1.7610   -4.3353 H   0  0  0  0  0  0  0  0  0  0  0  0
    0.5325    0.4385   -4.0047 H   0  0  0  0  0  0  0  0  0  0  0  0
   -0.9799    0.2943   -5.9775 H   0  0  0  0  0  0  0  0  0  0  0  0
   -1.6286   -1.9186   -6.8546 H   0  0  0  0  0  0  0  0  0  0  0  0
  1  2  3  0  0  0  0
  3  5  1  0  0  0  0
  3  4  1  0  0  0  0
  6  7  2  0  0  0  0
  7 13  1  0  0  0  0
  7  8  1  0  0  0  0
  8 14  1  6  0  0  0
  8  3  1  0  0  0  0
  9 15  1  0  0  0  0
  9  8  1  0  0  0  0
 10  9  2  0  0  0  0
 11 10  1  0  0  0  0
 11  6  1  0  0  0  0
 12  6  1  0  0  0  0
 16 10  1  0  0  0  0
 17 11  1  0  0  0  0
M  RAD  1  11   2
M  END
