Coordinates from ORCA-job C6H6+NH2--N2+-scan
 OpenBabel10171807273D

 17 16  0  0  1  0  0  0  0  0999 V2000
    3.0889   -0.6298   -2.2774 N   0  0  0  0  0  0  0  0  0  0  0  0
    4.0375   -0.1782   -1.9682 N   0  0  0  0  0  0  0  0  0  0  0  0
   -0.4668   -3.1591   -2.1442 N   0  0  0  0  0  0  0  0  0  0  0  0
   -1.3991   -3.5093   -2.3353 H   0  0  0  0  0  0  0  0  0  0  0  0
   -0.4582   -2.7139   -1.2342 H   0  0  0  0  0  0  0  0  0  0  0  0
    0.6511   -2.4720   -5.5962 C   0  0  0  0  0  0  0  0  0  0  0  0
    0.6015   -3.0279   -4.3421 C   0  0  0  0  0  0  0  0  0  0  0  0
    0.0133   -2.2997   -3.2026 C   0  0  1  0  0  0  0  0  0  0  0  0
   -0.6947   -1.0435   -3.5429 C   0  0  0  0  0  0  0  0  0  0  0  0
   -0.6344   -0.5147   -4.8055 C   0  0  0  0  0  0  0  0  0  0  0  0
    0.0316   -1.2302   -5.8219 C   0  0  0  0  0  0  0  0  0  0  0  0
    1.1296   -2.9944   -6.4156 H   0  0  0  0  0  0  0  0  0  0  0  0
    1.0410   -3.9943   -4.1187 H   0  0  0  0  0  0  0  0  0  0  0  0
    0.9872   -1.8378   -2.8457 H   0  0  0  0  0  0  0  0  0  0  0  0
   -1.2110   -0.5262   -2.7402 H   0  0  0  0  0  0  0  0  0  0  0  0
   -1.1189    0.4258   -5.0390 H   0  0  0  0  0  0  0  0  0  0  0  0
    0.0573   -0.8088   -6.8224 H   0  0  0  0  0  0  0  0  0  0  0  0
  1  2  3  0  0  0  0
  3  5  1  0  0  0  0
  4  3  1  0  0  0  0
  6  7  2  0  0  0  0
  7 13  1  0  0  0  0
  7  8  1  0  0  0  0
  8 14  1  1  0  0  0
  8  3  1  0  0  0  0
  9  8  1  0  0  0  0
  9 15  1  0  0  0  0
 10  9  2  0  0  0  0
 11  6  1  0  0  0  0
 11 10  1  0  0  0  0
 12  6  1  0  0  0  0
 16 10  1  0  0  0  0
 17 11  1  0  0  0  0
M  RAD  1  11   2
M  END
