Coordinates from ORCA-job C6H6+NH2--N2+-scan
 OpenBabel10171807273D

 17 16  0  0  1  0  0  0  0  0999 V2000
    3.1801   -0.3733   -2.5445 N   0  0  0  0  0  0  0  0  0  0  0  0
    4.1029    0.1757   -2.3288 N   0  0  0  0  0  0  0  0  0  0  0  0
   -0.6421   -3.2651   -2.1851 N   0  0  0  0  0  0  0  0  0  0  0  0
   -1.5793   -3.5513   -2.4461 H   0  0  0  0  0  0  0  0  0  0  0  0
   -0.6630   -2.8646   -1.2546 H   0  0  0  0  0  0  0  0  0  0  0  0
    0.6875   -2.4848   -5.5389 C   0  0  0  0  0  0  0  0  0  0  0  0
    0.5468   -3.0933   -4.3170 C   0  0  0  0  0  0  0  0  0  0  0  0
   -0.0550   -2.3848   -3.1706 C   0  0  1  0  0  0  0  0  0  0  0  0
   -0.6730   -1.0736   -3.4822 C   0  0  0  0  0  0  0  0  0  0  0  0
   -0.5234   -0.4933   -4.7139 C   0  0  0  0  0  0  0  0  0  0  0  0
    0.1496   -1.1999   -5.7322 C   0  0  0  0  0  0  0  0  0  0  0  0
    1.1750   -2.9960   -6.3600 H   0  0  0  0  0  0  0  0  0  0  0  0
    0.9196   -4.0931   -4.1207 H   0  0  0  0  0  0  0  0  0  0  0  0
    0.9232   -2.0006   -2.7446 H   0  0  0  0  0  0  0  0  0  0  0  0
   -1.1970   -0.5638   -2.6796 H   0  0  0  0  0  0  0  0  0  0  0  0
   -0.9427    0.4833   -4.9241 H   0  0  0  0  0  0  0  0  0  0  0  0
    0.2465   -0.7359   -6.7092 H   0  0  0  0  0  0  0  0  0  0  0  0
  1  2  3  0  0  0  0
  3  5  1  0  0  0  0
  4  3  1  0  0  0  0
  6  7  2  0  0  0  0
  7 13  1  0  0  0  0
  7  8  1  0  0  0  0
  8 14  1  1  0  0  0
  8  3  1  0  0  0  0
  9  8  1  0  0  0  0
  9 15  1  0  0  0  0
 10  9  2  0  0  0  0
 11  6  1  0  0  0  0
 11 10  1  0  0  0  0
 12  6  1  0  0  0  0
 16 10  1  0  0  0  0
 17 11  1  0  0  0  0
M  RAD  1  11   2
M  END
