Coordinates from ORCA-job C6H6+NH2--N2+-scan
 OpenBabel10171807273D

 17 16  0  0  1  0  0  0  0  0999 V2000
    1.7343   -1.2907    0.8080 N   0  0  0  0  0  0  0  0  0  0  0  0
    1.9846   -1.2835    1.8743 N   0  0  0  0  0  0  0  0  0  0  0  0
    1.2123   -2.2354   -2.5574 N   0  0  0  0  0  0  0  0  0  0  0  0
    0.4185   -2.2015   -1.9274 H   0  0  0  0  0  0  0  0  0  0  0  0
    1.9262   -1.6089   -2.2050 H   0  0  0  0  0  0  0  0  0  0  0  0
   -0.5685   -3.0026   -5.6946 C   0  0  0  0  0  0  0  0  0  0  0  0
    0.2948   -3.1391   -4.6375 C   0  0  0  0  0  0  0  0  0  0  0  0
    0.8319   -1.9616   -3.9243 C   0  0  1  0  0  0  0  0  0  0  0  0
    0.2234   -0.6590   -4.2949 C   0  0  0  0  0  0  0  0  0  0  0  0
   -0.6440   -0.5540   -5.3493 C   0  0  0  0  0  0  0  0  0  0  0  0
   -1.0362   -1.7209   -6.0384 C   0  0  0  0  0  0  0  0  0  0  0  0
   -0.9189   -3.8699   -6.2406 H   0  0  0  0  0  0  0  0  0  0  0  0
    0.6646   -4.1057   -4.3117 H   0  0  0  0  0  0  0  0  0  0  0  0
    1.7902   -1.8761   -4.5188 H   0  0  0  0  0  0  0  0  0  0  0  0
    0.5361    0.2159   -3.7333 H   0  0  0  0  0  0  0  0  0  0  0  0
   -1.0562    0.4051   -5.6389 H   0  0  0  0  0  0  0  0  0  0  0  0
   -1.7373   -1.6262   -6.8623 H   0  0  0  0  0  0  0  0  0  0  0  0
  1  2  3  0  0  0  0
  3  5  1  0  0  0  0
  3  4  1  0  0  0  0
  6  7  2  0  0  0  0
  7 13  1  0  0  0  0
  7  8  1  0  0  0  0
  8 14  1  6  0  0  0
  8  3  1  0  0  0  0
  9  8  1  0  0  0  0
  9 15  1  0  0  0  0
 10  9  2  0  0  0  0
 11  6  1  0  0  0  0
 11 10  1  0  0  0  0
 12  6  1  0  0  0  0
 16 10  1  0  0  0  0
 17 11  1  0  0  0  0
M  RAD  1  11   2
M  END
