Coordinates from ORCA-job N-O-Pyridine-4-N2+-scan-d09-160-n800
 OpenBabel09191814183D

 13 13  0  0  0  0  0  0  0  0999 V2000
   -1.8898    0.0993   -1.0697 C   0  0  0  0  0  0  0  0  0  0  0  0
   -0.5375    0.0250   -0.9605 C   0  0  0  0  0  0  0  0  0  0  0  0
    0.1646    0.8242    0.0174 C   0  0  0  0  0  0  0  0  0  0  0  0
   -0.6346    1.6888    0.8551 C   0  0  0  0  0  0  0  0  0  0  0  0
   -1.9851    1.7321    0.7120 C   0  0  0  0  0  0  0  0  0  0  0  0
   -2.4875   -0.4651   -1.7746 H   0  0  0  0  0  0  0  0  0  0  0  0
    0.0214   -0.6395   -1.6121 H   0  0  0  0  0  0  0  0  0  0  0  0
    1.2989    0.7749    0.1233 N   0  0  0  0  0  0  0  0  0  0  0  0
    2.4283    0.7258    0.2287 N   0  0  0  0  0  0  0  0  0  0  0  0
   -2.6519    2.3515    1.2988 H   0  0  0  0  0  0  0  0  0  0  0  0
   -0.1506    2.3079    1.6040 H   0  0  0  0  0  0  0  0  0  0  0  0
   -2.6339    0.9460   -0.2438 N   0  0  0  0  0  0  0  0  0  0  0  0
   -3.8645    0.9996   -0.3588 O   0  0  0  0  0  0  0  0  0  0  0  0
  1  2  2  0  0  0  0
  1 12  1  0  0  0  0
  2  3  1  0  0  0  0
  3  8  1  0  0  0  0
  3  4  2  0  0  0  0
  4 11  1  0  0  0  0
  5  4  1  0  0  0  0
  5 10  1  0  0  0  0
  6  1  1  0  0  0  0
  7  2  1  0  0  0  0
  8  9  1  0  0  0  0
 12  5  1  0  0  0  0
 13 12  1  0  0  0  0
M  RAD  3   8   2   9   3  13   2
M  END
