Coordinates from ORCA-job N-O-Pyridine-4-N2+-scan-d09-160-n800
 OpenBabel09191814183D

 13 12  0  0  0  0  0  0  0  0999 V2000
   -2.5581    0.2823   -1.2816 C   0  0  0  0  0  0  0  0  0  0  0  0
   -2.8669    1.2531   -2.2267 C   0  0  0  0  0  0  0  0  0  0  0  0
   -3.3005    2.3716   -1.5833 C   0  0  0  0  0  0  0  0  0  0  0  0
   -2.9712    2.9342   -0.3884 C   0  0  0  0  0  0  0  0  0  0  0  0
   -2.6599    1.9238    0.5135 C   0  0  0  0  0  0  0  0  0  0  0  0
   -2.4222   -0.7710   -1.5036 H   0  0  0  0  0  0  0  0  0  0  0  0
   -2.9125    1.0409   -3.2918 H   0  0  0  0  0  0  0  0  0  0  0  0
    8.0716   -1.8375    2.8615 N   0  0  0  0  0  0  0  0  0  0  0  0
    9.0487   -2.1873    3.2423 N   0  0  0  0  0  0  0  0  0  0  0  0
   -2.5977    2.0565    1.5885 H   0  0  0  0  0  0  0  0  0  0  0  0
   -3.0944    3.9713   -0.0872 H   0  0  0  0  0  0  0  0  0  0  0  0
   -2.4687    0.6110    0.0738 N   0  0  0  0  0  0  0  0  0  0  0  0
   -2.1902   -0.2783    0.9029 O   0  0  0  0  0  0  0  0  0  0  0  0
  1 12  1  0  0  0  0
  2  3  1  0  0  0  0
  2  1  2  0  0  0  0
  3  4  1  0  0  0  0
  4 11  1  0  0  0  0
  4  5  2  0  0  0  0
  5 10  1  0  0  0  0
  6  1  1  0  0  0  0
  7  2  1  0  0  0  0
  8  9  3  0  0  0  0
 12  5  1  0  0  0  0
 12 13  1  0  0  0  0
M  RAD  2   3   2  13   2
M  END
