Coordinates from ORCA-job N-O-Pyridine-4-N2+-scan-d09-160-n800
 OpenBabel09191814183D

 13 12  0  0  0  0  0  0  0  0999 V2000
   -2.1254    0.0883   -1.0808 C   0  0  0  0  0  0  0  0  0  0  0  0
   -0.7357    0.1115   -1.0705 C   0  0  0  0  0  0  0  0  0  0  0  0
   -0.3177    1.1698   -0.3249 C   0  0  0  0  0  0  0  0  0  0  0  0
   -0.8341    1.7949    0.7674 C   0  0  0  0  0  0  0  0  0  0  0  0
   -2.2212    1.7291    0.7107 C   0  0  0  0  0  0  0  0  0  0  0  0
   -2.7235   -0.4954   -1.7724 H   0  0  0  0  0  0  0  0  0  0  0  0
   -0.1332   -0.5271   -1.7100 H   0  0  0  0  0  0  0  0  0  0  0  0
    2.6252    0.5767    0.3756 N   0  0  0  0  0  0  0  0  0  0  0  0
    3.7040    0.4318    0.5663 N   0  0  0  0  0  0  0  0  0  0  0  0
   -2.8887    2.3332    1.3158 H   0  0  0  0  0  0  0  0  0  0  0  0
   -0.3046    2.4062    1.4926 H   0  0  0  0  0  0  0  0  0  0  0  0
   -2.8601    0.8956   -0.2098 N   0  0  0  0  0  0  0  0  0  0  0  0
   -4.1072    0.8557   -0.2400 O   0  0  0  0  0  0  0  0  0  0  0  0
  1  2  2  0  0  0  0
  1 12  1  0  0  0  0
  2  3  1  0  0  0  0
  3  4  1  0  0  0  0
  4 11  1  0  0  0  0
  5  4  2  0  0  0  0
  5 10  1  0  0  0  0
  6  1  1  0  0  0  0
  7  2  1  0  0  0  0
  8  9  3  0  0  0  0
 12  5  1  0  0  0  0
 13 12  1  0  0  0  0
M  RAD  2   3   2  13   2
M  END
