Coordinates from ORCA-job N-O-Pyridine-4-N2+-scan-d09-160-n800
 OpenBabel09191814183D

 13 12  0  0  0  0  0  0  0  0999 V2000
   -2.4897    0.0782   -1.0926 C   0  0  0  0  0  0  0  0  0  0  0  0
   -1.4176    0.7399   -1.6791 C   0  0  0  0  0  0  0  0  0  0  0  0
   -1.2901    1.9675   -1.1048 C   0  0  0  0  0  0  0  0  0  0  0  0
   -1.5200    2.4230    0.1572 C   0  0  0  0  0  0  0  0  0  0  0  0
   -2.5896    1.7219    0.7005 C   0  0  0  0  0  0  0  0  0  0  0  0
   -2.9695   -0.8026   -1.5062 H   0  0  0  0  0  0  0  0  0  0  0  0
   -0.9150    0.3682   -2.5683 H   0  0  0  0  0  0  0  0  0  0  0  0
    5.3014   -0.3493    1.3581 N   0  0  0  0  0  0  0  0  0  0  0  0
    6.3187   -0.6371    1.6807 N   0  0  0  0  0  0  0  0  0  0  0  0
   -3.1416    2.0287    1.5827 H   0  0  0  0  0  0  0  0  0  0  0  0
   -1.0934    3.3024    0.6328 H   0  0  0  0  0  0  0  0  0  0  0  0
   -3.0773    0.5708    0.0758 N   0  0  0  0  0  0  0  0  0  0  0  0
   -4.0385   -0.0412    0.5831 O   0  0  0  0  0  0  0  0  0  0  0  0
  1 12  1  0  0  0  0
  2  3  1  0  0  0  0
  2  1  2  0  0  0  0
  3  4  1  0  0  0  0
  4 11  1  0  0  0  0
  4  5  2  0  0  0  0
  5 10  1  0  0  0  0
  6  1  1  0  0  0  0
  7  2  1  0  0  0  0
  8  9  3  0  0  0  0
 12 13  1  0  0  0  0
 12  5  1  0  0  0  0
M  RAD  2   3   2  13   2
M  END
