Coordinates from ORCA-job N-O-Pyridine-4-N2+-scan-d09-160-n800
 OpenBabel09191814183D

 13 12  0  0  0  0  0  0  0  0999 V2000
   -2.5707    0.3560   -1.3441 C   0  0  0  0  0  0  0  0  0  0  0  0
   -3.1196    1.2576   -2.2473 C   0  0  0  0  0  0  0  0  0  0  0  0
   -3.6297    2.3159   -1.5593 C   0  0  0  0  0  0  0  0  0  0  0  0
   -3.2453    2.9393   -0.4116 C   0  0  0  0  0  0  0  0  0  0  0  0
   -2.6932    1.9986    0.4489 C   0  0  0  0  0  0  0  0  0  0  0  0
   -2.3149   -0.6718   -1.5793 H   0  0  0  0  0  0  0  0  0  0  0  0
   -3.2578    1.0221   -3.2995 H   0  0  0  0  0  0  0  0  0  0  0  0
    8.5978   -2.1010    3.1167 N   0  0  0  0  0  0  0  0  0  0  0  0
    9.5631   -2.4675    3.5116 N   0  0  0  0  0  0  0  0  0  0  0  0
   -2.5256    2.1582    1.5088 H   0  0  0  0  0  0  0  0  0  0  0  0
   -3.4764    3.9545   -0.0993 H   0  0  0  0  0  0  0  0  0  0  0  0
   -2.3723    0.7177   -0.0087 N   0  0  0  0  0  0  0  0  0  0  0  0
   -1.8774   -0.1094    0.7829 O   0  0  0  0  0  0  0  0  0  0  0  0
  1 12  1  0  0  0  0
  2  3  1  0  0  0  0
  2  1  2  0  0  0  0
  3  4  1  0  0  0  0
  4 11  1  0  0  0  0
  4  5  2  0  0  0  0
  5 10  1  0  0  0  0
  6  1  1  0  0  0  0
  7  2  1  0  0  0  0
  8  9  3  0  0  0  0
 12  5  1  0  0  0  0
 12 13  1  0  0  0  0
M  RAD  2   3   2  13   2
M  END
