Coordinates from ORCA-job N-O-Pyridine-4-N2+-scan-d09-160-n800
 OpenBabel09191814183D

 13 12  0  0  0  0  0  0  0  0999 V2000
   -2.1666    0.0899   -1.0853 C   0  0  0  0  0  0  0  0  0  0  0  0
   -0.7773    0.1328   -1.0922 C   0  0  0  0  0  0  0  0  0  0  0  0
   -0.3673    1.2006   -0.3558 C   0  0  0  0  0  0  0  0  0  0  0  0
   -0.8757    1.8162    0.7457 C   0  0  0  0  0  0  0  0  0  0  0  0
   -2.2625    1.7316    0.7071 C   0  0  0  0  0  0  0  0  0  0  0  0
   -2.7655   -0.5017   -1.7696 H   0  0  0  0  0  0  0  0  0  0  0  0
   -0.1730   -0.4982   -1.7381 H   0  0  0  0  0  0  0  0  0  0  0  0
    2.8572    0.5373    0.4239 N   0  0  0  0  0  0  0  0  0  0  0  0
    3.9323    0.3802    0.6258 N   0  0  0  0  0  0  0  0  0  0  0  0
   -2.9308    2.3276    1.3194 H   0  0  0  0  0  0  0  0  0  0  0  0
   -0.3444    2.4346    1.4639 H   0  0  0  0  0  0  0  0  0  0  0  0
   -2.9010    0.8885   -0.2055 N   0  0  0  0  0  0  0  0  0  0  0  0
   -4.1475    0.8309   -0.2195 O   0  0  0  0  0  0  0  0  0  0  0  0
  1 12  1  0  0  0  0
  2  1  2  0  0  0  0
  2  3  1  0  0  0  0
  3  4  1  0  0  0  0
  4 11  1  0  0  0  0
  5  4  2  0  0  0  0
  5 10  1  0  0  0  0
  6  1  1  0  0  0  0
  7  2  1  0  0  0  0
  8  9  3  0  0  0  0
 12  5  1  0  0  0  0
 13 12  1  0  0  0  0
M  RAD  2   3   2  13   2
M  END
