Coordinates from ORCA-job N-O-Pyridine-4-N2+-scan-d09-160-n800
 OpenBabel09191814183D

 13 12  0  0  0  0  0  0  0  0999 V2000
   -1.9930    0.1072   -1.0754 C   0  0  0  0  0  0  0  0  0  0  0  0
   -0.6068    0.0133   -0.9836 C   0  0  0  0  0  0  0  0  0  0  0  0
   -0.1391    0.8386   -0.0120 C   0  0  0  0  0  0  0  0  0  0  0  0
   -0.7057    1.7071    0.8646 C   0  0  0  0  0  0  0  0  0  0  0  0
   -2.0879    1.7330    0.6986 C   0  0  0  0  0  0  0  0  0  0  0  0
   -2.5788   -0.4637   -1.7857 H   0  0  0  0  0  0  0  0  0  0  0  0
   -0.0332   -0.6442   -1.6255 H   0  0  0  0  0  0  0  0  0  0  0  0
    1.8914    0.7489    0.1788 N   0  0  0  0  0  0  0  0  0  0  0  0
    2.9899    0.7004    0.2819 N   0  0  0  0  0  0  0  0  0  0  0  0
   -2.7435    2.3578    1.2931 H   0  0  0  0  0  0  0  0  0  0  0  0
   -0.2061    2.3180    1.6067 H   0  0  0  0  0  0  0  0  0  0  0  0
   -2.7332    0.9502   -0.2531 N   0  0  0  0  0  0  0  0  0  0  0  0
   -3.9762    1.0037   -0.3686 O   0  0  0  0  0  0  0  0  0  0  0  0
  1  2  2  0  0  0  0
  1 12  1  0  0  0  0
  2  3  1  0  0  0  0
  3  4  2  0  0  0  0
  4 11  1  0  0  0  0
  5  4  1  0  0  0  0
  5 10  1  0  0  0  0
  6  1  1  0  0  0  0
  7  2  1  0  0  0  0
  8  9  3  0  0  0  0
 12  5  1  0  0  0  0
 13 12  1  0  0  0  0
M  RAD  2   3   2  13   2
M  END
