Coordinates from ORCA-job N-O-Pyridine-4-N2+-scan-d09-160-n800
 OpenBabel09191814183D

 13 12  0  0  0  0  0  0  0  0999 V2000
   -2.4875    0.0778   -1.0920 C   0  0  0  0  0  0  0  0  0  0  0  0
   -1.4774    0.7895   -1.7275 C   0  0  0  0  0  0  0  0  0  0  0  0
   -1.3852    2.0241   -1.1617 C   0  0  0  0  0  0  0  0  0  0  0  0
   -1.5803    2.4727    0.1087 C   0  0  0  0  0  0  0  0  0  0  0  0
   -2.5880    1.7215    0.7011 C   0  0  0  0  0  0  0  0  0  0  0  0
   -2.9411   -0.8275   -1.4818 H   0  0  0  0  0  0  0  0  0  0  0  0
   -0.9976    0.4397   -2.6380 H   0  0  0  0  0  0  0  0  0  0  0  0
    5.4048   -0.4224    1.4298 N   0  0  0  0  0  0  0  0  0  0  0  0
    6.4186   -0.7164    1.7581 N   0  0  0  0  0  0  0  0  0  0  0  0
   -3.1142    2.0039    1.6069 H   0  0  0  0  0  0  0  0  0  0  0  0
   -1.1770    3.3741    0.5630 H   0  0  0  0  0  0  0  0  0  0  0  0
   -3.0457    0.5452    0.1010 N   0  0  0  0  0  0  0  0  0  0  0  0
   -3.9516   -0.1116    0.6522 O   0  0  0  0  0  0  0  0  0  0  0  0
  1 12  1  0  0  0  0
  2  3  1  0  0  0  0
  2  1  2  0  0  0  0
  3  4  1  0  0  0  0
  4 11  1  0  0  0  0
  4  5  2  0  0  0  0
  5 10  1  0  0  0  0
  6  1  1  0  0  0  0
  7  2  1  0  0  0  0
  8  9  3  0  0  0  0
 12 13  1  0  0  0  0
 12  5  1  0  0  0  0
M  RAD  2   3   2  13   2
M  END
