Coordinates from ORCA-job N-O-Pyridine-4-N2+-scan-d09-160-n800
 OpenBabel09191814183D

 13 12  0  0  0  0  0  0  0  0999 V2000
   -2.4864    0.1442   -1.1520 C   0  0  0  0  0  0  0  0  0  0  0  0
   -2.2031    1.1358   -2.0835 C   0  0  0  0  0  0  0  0  0  0  0  0
   -2.4392    2.3513   -1.5181 C   0  0  0  0  0  0  0  0  0  0  0  0
   -2.3072    2.8179   -0.2462 C   0  0  0  0  0  0  0  0  0  0  0  0
   -2.5881    1.7868    0.6422 C   0  0  0  0  0  0  0  0  0  0  0  0
   -2.6202   -0.9054   -1.3921 H   0  0  0  0  0  0  0  0  0  0  0  0
   -2.0067    0.9181   -3.1302 H   0  0  0  0  0  0  0  0  0  0  0  0
    6.6781   -1.1740    2.1819 N   0  0  0  0  0  0  0  0  0  0  0  0
    7.6679   -1.5054    2.5458 N   0  0  0  0  0  0  0  0  0  0  0  0
   -2.7953    1.9239    1.6983 H   0  0  0  0  0  0  0  0  0  0  0  0
   -2.1881    3.8502    0.0726 H   0  0  0  0  0  0  0  0  0  0  0  0
   -2.6901    0.4675    0.1923 N   0  0  0  0  0  0  0  0  0  0  0  0
   -2.9436   -0.4404    1.0092 O   0  0  0  0  0  0  0  0  0  0  0  0
  1 12  1  0  0  0  0
  2  3  1  0  0  0  0
  2  1  2  0  0  0  0
  3  4  1  0  0  0  0
  4 11  1  0  0  0  0
  4  5  2  0  0  0  0
  5 10  1  0  0  0  0
  6  1  1  0  0  0  0
  7  2  1  0  0  0  0
  8  9  3  0  0  0  0
 12  5  1  0  0  0  0
 12 13  1  0  0  0  0
M  RAD  2   3   2  13   2
M  END
