Coordinates from ORCA-job N-O-Pyridine-4-N2+-scan-d09-160-n800
 OpenBabel09191814183D

 13 12  0  0  0  0  0  0  0  0999 V2000
   -2.4594    0.0884   -1.1005 C   0  0  0  0  0  0  0  0  0  0  0  0
   -1.1709    0.4868   -1.4355 C   0  0  0  0  0  0  0  0  0  0  0  0
   -0.8950    1.6603   -0.8033 C   0  0  0  0  0  0  0  0  0  0  0  0
   -1.2712    2.1701    0.4015 C   0  0  0  0  0  0  0  0  0  0  0  0
   -2.5573    1.7317    0.6928 C   0  0  0  0  0  0  0  0  0  0  0  0
   -3.0275   -0.6665   -1.6338 H   0  0  0  0  0  0  0  0  0  0  0  0
   -0.5920    0.0028   -2.2179 H   0  0  0  0  0  0  0  0  0  0  0  0
    4.7151   -0.0024    1.0125 N   0  0  0  0  0  0  0  0  0  0  0  0
    5.7536   -0.2503    1.2985 N   0  0  0  0  0  0  0  0  0  0  0  0
   -3.1962    2.1643    1.4555 H   0  0  0  0  0  0  0  0  0  0  0  0
   -0.7669    2.9368    0.9840 H   0  0  0  0  0  0  0  0  0  0  0  0
   -3.1494    0.7123   -0.0577 N   0  0  0  0  0  0  0  0  0  0  0  0
   -4.3050    0.3361    0.2239 O   0  0  0  0  0  0  0  0  0  0  0  0
  1 12  1  0  0  0  0
  2  1  2  0  0  0  0
  2  3  1  0  0  0  0
  3  4  1  0  0  0  0
  4  5  2  0  0  0  0
  4 11  1  0  0  0  0
  5 10  1  0  0  0  0
  6  1  1  0  0  0  0
  7  2  1  0  0  0  0
  8  9  3  0  0  0  0
 12 13  1  0  0  0  0
 12  5  1  0  0  0  0
M  RAD  2   3   2  13   2
M  END
