Coordinates from ORCA-job N-O-Pyridine-4-N2+-scan-d09-160-n800
 OpenBabel09191814183D

 13 13  0  0  0  0  0  0  0  0999 V2000
   -1.9000    0.1001   -1.0702 C   0  0  0  0  0  0  0  0  0  0  0  0
   -0.5445    0.0253   -0.9611 C   0  0  0  0  0  0  0  0  0  0  0  0
    0.1313    0.8257    0.0142 C   0  0  0  0  0  0  0  0  0  0  0  0
   -0.6416    1.6891    0.8544 C   0  0  0  0  0  0  0  0  0  0  0  0
   -1.9952    1.7322    0.7106 C   0  0  0  0  0  0  0  0  0  0  0  0
   -2.4982   -0.4639   -1.7747 H   0  0  0  0  0  0  0  0  0  0  0  0
    0.0132   -0.6393   -1.6129 H   0  0  0  0  0  0  0  0  0  0  0  0
    1.3652    0.7720    0.1295 N   0  0  0  0  0  0  0  0  0  0  0  0
    2.4873    0.7232    0.2342 N   0  0  0  0  0  0  0  0  0  0  0  0
   -2.6624    2.3512    1.2970 H   0  0  0  0  0  0  0  0  0  0  0  0
   -0.1588    2.3083    1.6034 H   0  0  0  0  0  0  0  0  0  0  0  0
   -2.6429    0.9465   -0.2448 N   0  0  0  0  0  0  0  0  0  0  0  0
   -3.8754    0.9999   -0.3597 O   0  0  0  0  0  0  0  0  0  0  0  0
  1  2  2  0  0  0  0
  1 12  1  0  0  0  0
  2  3  1  0  0  0  0
  3  8  1  0  0  0  0
  3  4  2  0  0  0  0
  4 11  1  0  0  0  0
  5  4  1  0  0  0  0
  5 10  1  0  0  0  0
  6  1  1  0  0  0  0
  7  2  1  0  0  0  0
  8  9  1  0  0  0  0
 12  5  1  0  0  0  0
 13 12  1  0  0  0  0
M  RAD  3   8   2   9   3  13   2
M  END
