Coordinates from ORCA-job N-O-Pyridine-4-N2+-scan-d09-160-n800
 OpenBabel09191814183D

 13 12  0  0  0  0  0  0  0  0999 V2000
   -2.4740    0.1048   -1.1155 C   0  0  0  0  0  0  0  0  0  0  0  0
   -1.9190    1.0401   -1.9805 C   0  0  0  0  0  0  0  0  0  0  0  0
   -2.0463    2.2787   -1.4303 C   0  0  0  0  0  0  0  0  0  0  0  0
   -2.0237    2.7229   -0.1439 C   0  0  0  0  0  0  0  0  0  0  0  0
   -2.5762    1.7481    0.6780 C   0  0  0  0  0  0  0  0  0  0  0  0
   -2.7290   -0.9130   -1.3913 H   0  0  0  0  0  0  0  0  0  0  0  0
   -1.6143    0.7928   -2.9942 H   0  0  0  0  0  0  0  0  0  0  0  0
    6.1429   -0.8923    1.8961 N   0  0  0  0  0  0  0  0  0  0  0  0
    7.1392   -1.2143    2.2508 N   0  0  0  0  0  0  0  0  0  0  0  0
   -2.9050    1.9174    1.6980 H   0  0  0  0  0  0  0  0  0  0  0  0
   -1.7967    3.7262    0.2075 H   0  0  0  0  0  0  0  0  0  0  0  0
   -2.8113    0.4582    0.1940 N   0  0  0  0  0  0  0  0  0  0  0  0
   -3.3086   -0.3992    0.9511 O   0  0  0  0  0  0  0  0  0  0  0  0
  1 12  1  0  0  0  0
  2  3  1  0  0  0  0
  2  1  2  0  0  0  0
  3  4  1  0  0  0  0
  4 11  1  0  0  0  0
  4  5  2  0  0  0  0
  5 10  1  0  0  0  0
  6  1  1  0  0  0  0
  7  2  1  0  0  0  0
  8  9  3  0  0  0  0
 12  5  1  0  0  0  0
 12 13  1  0  0  0  0
M  RAD  2   3   2  13   2
M  END
