Coordinates from ORCA-job N-O-Pyridine-4-N2+-scan-d09-160-n800
 OpenBabel09191814183D

 13 12  0  0  0  0  0  0  0  0999 V2000
   -2.4793    0.0822   -1.0953 C   0  0  0  0  0  0  0  0  0  0  0  0
   -1.6452    0.9052   -1.8423 C   0  0  0  0  0  0  0  0  0  0  0  0
   -1.6449    2.1494   -1.2902 C   0  0  0  0  0  0  0  0  0  0  0  0
   -1.7492    2.5884   -0.0060 C   0  0  0  0  0  0  0  0  0  0  0  0
   -2.5808    1.7258    0.6978 C   0  0  0  0  0  0  0  0  0  0  0  0
   -2.8571   -0.8780   -1.4307 H   0  0  0  0  0  0  0  0  0  0  0  0
   -1.2321    0.6051   -2.8019 H   0  0  0  0  0  0  0  0  0  0  0  0
    5.6795   -0.6112    1.6156 N   0  0  0  0  0  0  0  0  0  0  0  0
    6.6850   -0.9187    1.9566 N   0  0  0  0  0  0  0  0  0  0  0  0
   -3.0319    1.9531    1.6580 H   0  0  0  0  0  0  0  0  0  0  0  0
   -1.4134    3.5394    0.3993 H   0  0  0  0  0  0  0  0  0  0  0  0
   -2.9524    0.4932    0.1539 N   0  0  0  0  0  0  0  0  0  0  0  0
   -3.7002   -0.2634    0.8051 O   0  0  0  0  0  0  0  0  0  0  0  0
  1 12  1  0  0  0  0
  2  3  1  0  0  0  0
  2  1  2  0  0  0  0
  3  4  1  0  0  0  0
  4 11  1  0  0  0  0
  4  5  2  0  0  0  0
  5 10  1  0  0  0  0
  6  1  1  0  0  0  0
  7  2  1  0  0  0  0
  8  9  3  0  0  0  0
 12  5  1  0  0  0  0
 12 13  1  0  0  0  0
M  RAD  2   3   2  13   2
M  END
