Coordinates from ORCA-job N-O-Pyridine-4-N2+-scan-d09-160-n800
 OpenBabel09191814183D

 13 12  0  0  0  0  0  0  0  0999 V2000
   -2.2801    0.0953   -1.0972 C   0  0  0  0  0  0  0  0  0  0  0  0
   -0.8953    0.1979   -1.1578 C   0  0  0  0  0  0  0  0  0  0  0  0
   -0.5043    1.2873   -0.4421 C   0  0  0  0  0  0  0  0  0  0  0  0
   -0.9940    1.8813    0.6799 C   0  0  0  0  0  0  0  0  0  0  0  0
   -2.3763    1.7379    0.6961 C   0  0  0  0  0  0  0  0  0  0  0  0
   -2.8796   -0.5222   -1.7577 H   0  0  0  0  0  0  0  0  0  0  0  0
   -0.2901   -0.4090   -1.8262 H   0  0  0  0  0  0  0  0  0  0  0  0
    3.5018    0.4120    0.5722 N   0  0  0  0  0  0  0  0  0  0  0  0
    4.5713    0.2378    0.7902 N   0  0  0  0  0  0  0  0  0  0  0  0
   -3.0455    2.3079    1.3320 H   0  0  0  0  0  0  0  0  0  0  0  0
   -0.4621    2.5244    1.3762 H   0  0  0  0  0  0  0  0  0  0  0  0
   -3.0129    0.8654   -0.1904 N   0  0  0  0  0  0  0  0  0  0  0  0
   -4.2551    0.7544   -0.1554 O   0  0  0  0  0  0  0  0  0  0  0  0
  1 12  1  0  0  0  0
  2  1  2  0  0  0  0
  2  3  1  0  0  0  0
  3  4  1  0  0  0  0
  4  5  2  0  0  0  0
  4 11  1  0  0  0  0
  5 10  1  0  0  0  0
  6  1  1  0  0  0  0
  7  2  1  0  0  0  0
  8  9  3  0  0  0  0
 12 13  1  0  0  0  0
 12  5  1  0  0  0  0
M  RAD  2   3   2  13   2
M  END
