Coordinates from ORCA-job N-O-Pyridine-4-N2+-scan-d09-160-n800
 OpenBabel09191814183D

 13 12  0  0  0  0  0  0  0  0999 V2000
   -2.4877    0.0777   -1.0919 C   0  0  0  0  0  0  0  0  0  0  0  0
   -1.4590    0.7751   -1.7134 C   0  0  0  0  0  0  0  0  0  0  0  0
   -1.3565    2.0079   -1.1453 C   0  0  0  0  0  0  0  0  0  0  0  0
   -1.5617    2.4583    0.1228 C   0  0  0  0  0  0  0  0  0  0  0  0
   -2.5880    1.7213    0.7012 C   0  0  0  0  0  0  0  0  0  0  0  0
   -2.9491   -0.8206   -1.4885 H   0  0  0  0  0  0  0  0  0  0  0  0
   -0.9724    0.4191   -2.6178 H   0  0  0  0  0  0  0  0  0  0  0  0
    5.3714   -0.4003    1.4080 N   0  0  0  0  0  0  0  0  0  0  0  0
    6.3862   -0.6927    1.7348 N   0  0  0  0  0  0  0  0  0  0  0  0
   -3.1219    2.0107    1.6002 H   0  0  0  0  0  0  0  0  0  0  0  0
   -1.1514    3.3534    0.5832 H   0  0  0  0  0  0  0  0  0  0  0  0
   -3.0547    0.5523    0.0940 N   0  0  0  0  0  0  0  0  0  0  0  0
   -3.9772   -0.0916    0.6326 O   0  0  0  0  0  0  0  0  0  0  0  0
  1 12  1  0  0  0  0
  2  3  1  0  0  0  0
  2  1  2  0  0  0  0
  3  4  1  0  0  0  0
  4 11  1  0  0  0  0
  4  5  2  0  0  0  0
  5 10  1  0  0  0  0
  6  1  1  0  0  0  0
  7  2  1  0  0  0  0
  8  9  3  0  0  0  0
 12 13  1  0  0  0  0
 12  5  1  0  0  0  0
M  RAD  2   3   2  13   2
M  END
