Coordinates from ORCA-job N-O-Pyridine-4-N2+-scan-d09-160-n800
 OpenBabel09191814183D

 13 12  0  0  0  0  0  0  0  0999 V2000
   -2.6653    0.6244   -1.5956 C   0  0  0  0  0  0  0  0  0  0  0  0
   -3.8070    1.1522   -2.1859 C   0  0  0  0  0  0  0  0  0  0  0  0
   -4.4142    1.9897   -1.3008 C   0  0  0  0  0  0  0  0  0  0  0  0
   -3.9293    2.8188   -0.3360 C   0  0  0  0  0  0  0  0  0  0  0  0
   -2.7847    2.2519    0.2109 C   0  0  0  0  0  0  0  0  0  0  0  0
   -2.1256   -0.2408   -1.9662 H   0  0  0  0  0  0  0  0  0  0  0  0
   -4.2032    0.7830   -3.1284 H   0  0  0  0  0  0  0  0  0  0  0  0
   10.0746   -2.8340    3.8595 N   0  0  0  0  0  0  0  0  0  0  0  0
   10.9889   -3.2540    4.3175 N   0  0  0  0  0  0  0  0  0  0  0  0
   -2.3313    2.5631    1.1462 H   0  0  0  0  0  0  0  0  0  0  0  0
   -4.4163    3.6887    0.0971 H   0  0  0  0  0  0  0  0  0  0  0  0
   -2.1676    1.1593   -0.4043 N   0  0  0  0  0  0  0  0  0  0  0  0
   -1.1410    0.6682    0.1060 O   0  0  0  0  0  0  0  0  0  0  0  0
  1 12  1  0  0  0  0
  2  1  2  0  0  0  0
  2  3  1  0  0  0  0
  3  4  1  0  0  0  0
  4 11  1  0  0  0  0
  4  5  2  0  0  0  0
  5 10  1  0  0  0  0
  6  1  1  0  0  0  0
  7  2  1  0  0  0  0
  8  9  3  0  0  0  0
 12 13  1  0  0  0  0
 12  5  1  0  0  0  0
M  RAD  2   3   2  13   2
M  END
