Coordinates from ORCA-job N-O-Pyridine-4-N2+-scan-d09-160-n800
 OpenBabel09191814183D

 13 12  0  0  0  0  0  0  0  0999 V2000
   -2.5363    0.2414   -1.2430 C   0  0  0  0  0  0  0  0  0  0  0  0
   -2.6968    1.2350   -2.2006 C   0  0  0  0  0  0  0  0  0  0  0  0
   -3.0877    2.3839   -1.5833 C   0  0  0  0  0  0  0  0  0  0  0  0
   -2.8019    2.9160   -0.3631 C   0  0  0  0  0  0  0  0  0  0  0  0
   -2.6390    1.8833    0.5517 C   0  0  0  0  0  0  0  0  0  0  0  0
   -2.4678   -0.8190   -1.4624 H   0  0  0  0  0  0  0  0  0  0  0  0
   -2.6801    1.0284   -3.2676 H   0  0  0  0  0  0  0  0  0  0  0  0
    7.7070   -1.6662    2.6852 N   0  0  0  0  0  0  0  0  0  0  0  0
    8.6873   -2.0114    3.0617 N   0  0  0  0  0  0  0  0  0  0  0  0
   -2.6448    2.0095    1.6293 H   0  0  0  0  0  0  0  0  0  0  0  0
   -2.8635    3.9593   -0.0640 H   0  0  0  0  0  0  0  0  0  0  0  0
   -2.5217    0.5600    0.1177 N   0  0  0  0  0  0  0  0  0  0  0  0
   -2.3768   -0.3499    0.9584 O   0  0  0  0  0  0  0  0  0  0  0  0
  1 12  1  0  0  0  0
  2  3  1  0  0  0  0
  2  1  2  0  0  0  0
  3  4  1  0  0  0  0
  4 11  1  0  0  0  0
  4  5  2  0  0  0  0
  5 10  1  0  0  0  0
  6  1  1  0  0  0  0
  7  2  1  0  0  0  0
  8  9  3  0  0  0  0
 12  5  1  0  0  0  0
 12 13  1  0  0  0  0
M  RAD  2   3   2  13   2
M  END
