Coordinates from ORCA-job N-O-Pyridine-4-N2+-scan-d09-160-n800
 OpenBabel09191814183D

 13 12  0  0  0  0  0  0  0  0999 V2000
   -2.5205    0.2006   -1.2049 C   0  0  0  0  0  0  0  0  0  0  0  0
   -2.5057    1.2059   -2.1636 C   0  0  0  0  0  0  0  0  0  0  0  0
   -2.8399    2.3855   -1.5715 C   0  0  0  0  0  0  0  0  0  0  0  0
   -2.6119    2.8875   -0.3267 C   0  0  0  0  0  0  0  0  0  0  0  0
   -2.6243    1.8431    0.5893 C   0  0  0  0  0  0  0  0  0  0  0  0
   -2.5320   -0.8613   -1.4272 H   0  0  0  0  0  0  0  0  0  0  0  0
   -2.4168    0.9999   -3.2272 H   0  0  0  0  0  0  0  0  0  0  0  0
    7.3281   -1.4805    2.4950 N   0  0  0  0  0  0  0  0  0  0  0  0
    8.3127   -1.8198    2.8659 N   0  0  0  0  0  0  0  0  0  0  0  0
   -2.7108    1.9682    1.6636 H   0  0  0  0  0  0  0  0  0  0  0  0
   -2.6021    3.9317   -0.0246 H   0  0  0  0  0  0  0  0  0  0  0  0
   -2.5932    0.5150    0.1550 N   0  0  0  0  0  0  0  0  0  0  0  0
   -2.6058   -0.4053    0.9968 O   0  0  0  0  0  0  0  0  0  0  0  0
  1 12  1  0  0  0  0
  2  3  1  0  0  0  0
  2  1  2  0  0  0  0
  3  4  1  0  0  0  0
  4 11  1  0  0  0  0
  4  5  2  0  0  0  0
  5 10  1  0  0  0  0
  6  1  1  0  0  0  0
  7  2  1  0  0  0  0
  8  9  3  0  0  0  0
 12  5  1  0  0  0  0
 12 13  1  0  0  0  0
M  RAD  2   3   2  13   2
M  END
