Coordinates from ORCA-job N-O-Pyridine-4-N2+-scan-d09-160-n800
 OpenBabel09191814183D

 13 13  0  0  0  0  0  0  0  0999 V2000
   -1.8762    0.0981   -1.0690 C   0  0  0  0  0  0  0  0  0  0  0  0
   -0.5291    0.0229   -0.9616 C   0  0  0  0  0  0  0  0  0  0  0  0
    0.2228    0.8219    0.0227 C   0  0  0  0  0  0  0  0  0  0  0  0
   -0.6264    1.6903    0.8578 C   0  0  0  0  0  0  0  0  0  0  0  0
   -1.9715    1.7321    0.7139 C   0  0  0  0  0  0  0  0  0  0  0  0
   -2.4732   -0.4672   -1.7747 H   0  0  0  0  0  0  0  0  0  0  0  0
    0.0355   -0.6402   -1.6107 H   0  0  0  0  0  0  0  0  0  0  0  0
    1.1978    0.7793    0.1138 N   0  0  0  0  0  0  0  0  0  0  0  0
    2.3445    0.7293    0.2209 N   0  0  0  0  0  0  0  0  0  0  0  0
   -2.6377    2.3522    1.3017 H   0  0  0  0  0  0  0  0  0  0  0  0
   -0.1365    2.3073    1.6054 H   0  0  0  0  0  0  0  0  0  0  0  0
   -2.6220    0.9455   -0.2428 N   0  0  0  0  0  0  0  0  0  0  0  0
   -3.8501    0.9989   -0.3574 O   0  0  0  0  0  0  0  0  0  0  0  0
  1  2  2  0  0  0  0
  1 12  1  0  0  0  0
  2  3  1  0  0  0  0
  3  8  1  0  0  0  0
  3  4  2  0  0  0  0
  4 11  1  0  0  0  0
  5  4  1  0  0  0  0
  5 10  1  0  0  0  0
  6  1  1  0  0  0  0
  7  2  1  0  0  0  0
  8  9  1  0  0  0  0
 12  5  1  0  0  0  0
 13 12  1  0  0  0  0
M  RAD  3   8   2   9   3  13   2
M  END
