Coordinates from ORCA-job N-O-Pyridine-4-N2+-scan-d09-160-n800
 OpenBabel09191814183D

 13 13  0  0  1  0  0  0  0  0999 V2000
   -1.9197    0.1016   -1.0712 C   0  0  0  0  0  0  0  0  0  0  0  0
   -0.5583    0.0243   -0.9641 C   0  0  0  0  0  0  0  0  0  0  0  0
    0.0720    0.8282    0.0088 C   0  0  2  0  0  0  0  0  0  0  0  0
   -0.6555    1.6913    0.8548 C   0  0  0  0  0  0  0  0  0  0  0  0
   -2.0149    1.7323    0.7080 C   0  0  0  0  0  0  0  0  0  0  0  0
   -2.5181   -0.4620   -1.7755 H   0  0  0  0  0  0  0  0  0  0  0  0
    0.0009   -0.6392   -1.6147 H   0  0  0  0  0  0  0  0  0  0  0  0
    1.4852    0.7668    0.1407 N   0  0  0  0  0  0  0  0  0  0  0  0
    2.5976    0.7184    0.2444 N   0  0  0  0  0  0  0  0  0  0  0  0
   -2.6822    2.3511    1.2940 H   0  0  0  0  0  0  0  0  0  0  0  0
   -0.1712    2.3095    1.6028 H   0  0  0  0  0  0  0  0  0  0  0  0
   -2.6610    0.9470   -0.2462 N   0  0  0  0  0  0  0  0  0  0  0  0
   -3.8968    1.0011   -0.3619 O   0  0  0  0  0  0  0  0  0  0  0  0
  1  2  2  0  0  0  0
  1 12  1  0  0  0  0
  2  3  1  0  0  0  0
  3  8  1  6  0  0  0
  3  4  1  0  0  0  0
  4 11  1  0  0  0  0
  5  4  2  0  0  0  0
  5 10  1  0  0  0  0
  6  1  1  0  0  0  0
  7  2  1  0  0  0  0
  8  9  1  0  0  0  0
 12  5  1  0  0  0  0
 13 12  1  0  0  0  0
M  RAD  3   8   2   9   3  13   2
M  END
