Coordinates from ORCA-job N-O-Pyridine-4-N2+-scan-d09-160-n800
 OpenBabel09191814183D

 13 12  0  0  0  0  0  0  0  0999 V2000
   -2.4893    0.0811   -1.0954 C   0  0  0  0  0  0  0  0  0  0  0  0
   -1.3233    0.6507   -1.5927 C   0  0  0  0  0  0  0  0  0  0  0  0
   -1.1378    1.8624   -1.0006 C   0  0  0  0  0  0  0  0  0  0  0  0
   -1.4251    2.3340    0.2436 C   0  0  0  0  0  0  0  0  0  0  0  0
   -2.5887    1.7249    0.6978 C   0  0  0  0  0  0  0  0  0  0  0  0
   -3.0081   -0.7555   -1.5515 H   0  0  0  0  0  0  0  0  0  0  0  0
   -0.7860    0.2391   -2.4432 H   0  0  0  0  0  0  0  0  0  0  0  0
    5.1223   -0.2251    1.2357 N   0  0  0  0  0  0  0  0  0  0  0  0
    6.1462   -0.5012    1.5476 N   0  0  0  0  0  0  0  0  0  0  0  0
   -3.1793    2.0760    1.5374 H   0  0  0  0  0  0  0  0  0  0  0  0
   -0.9634    3.1731    0.7577 H   0  0  0  0  0  0  0  0  0  0  0  0
   -3.1219    0.6201    0.0282 N   0  0  0  0  0  0  0  0  0  0  0  0
   -4.1676    0.0909    0.4553 O   0  0  0  0  0  0  0  0  0  0  0  0
  1 12  1  0  0  0  0
  2  1  2  0  0  0  0
  2  3  1  0  0  0  0
  3  4  1  0  0  0  0
  4  5  2  0  0  0  0
  4 11  1  0  0  0  0
  5 10  1  0  0  0  0
  6  1  1  0  0  0  0
  7  2  1  0  0  0  0
  8  9  3  0  0  0  0
 12 13  1  0  0  0  0
 12  5  1  0  0  0  0
M  RAD  2   3   2  13   2
M  END
