Coordinates from ORCA-job N-O-Pyridine-4-N2+-scan-d09-160-n800
 OpenBabel09191814183D

 13 13  0  0  1  0  0  0  0  0999 V2000
   -1.9401    0.1035   -1.0723 C   0  0  0  0  0  0  0  0  0  0  0  0
   -0.5717    0.0215   -0.9692 C   0  0  0  0  0  0  0  0  0  0  0  0
    0.0103    0.8310    0.0029 C   0  0  1  0  0  0  0  0  0  0  0  0
   -0.6694    1.6954    0.8573 C   0  0  0  0  0  0  0  0  0  0  0  0
   -2.0351    1.7324    0.7052 C   0  0  0  0  0  0  0  0  0  0  0  0
   -2.5369   -0.4611   -1.7770 H   0  0  0  0  0  0  0  0  0  0  0  0
   -0.0086   -0.6402   -1.6171 H   0  0  0  0  0  0  0  0  0  0  0  0
    1.6027    0.7617    0.1516 N   0  0  0  0  0  0  0  0  0  0  0  0
    2.7081    0.7135    0.2548 N   0  0  0  0  0  0  0  0  0  0  0  0
   -2.7010    2.3517    1.2922 H   0  0  0  0  0  0  0  0  0  0  0  0
   -0.1808    2.3112    1.6035 H   0  0  0  0  0  0  0  0  0  0  0  0
   -2.6802    0.9482   -0.2484 N   0  0  0  0  0  0  0  0  0  0  0  0
   -3.9193    1.0017   -0.3637 O   0  0  0  0  0  0  0  0  0  0  0  0
  1  2  2  0  0  0  0
  1 12  1  0  0  0  0
  2  3  1  0  0  0  0
  3  8  1  1  0  0  0
  3  4  1  0  0  0  0
  4 11  1  0  0  0  0
  5  4  2  0  0  0  0
  5 10  1  0  0  0  0
  6  1  1  0  0  0  0
  7  2  1  0  0  0  0
  8  9  1  0  0  0  0
 12  5  1  0  0  0  0
 13 12  1  0  0  0  0
M  RAD  3   8   2   9   3  13   2
M  END
