Coordinates from ORCA-job N-O-Pyridine-4-N2+-scan-d09-160-n800
 OpenBabel09191814183D

 13 12  0  0  0  0  0  0  0  0999 V2000
   -2.4834    0.1382   -1.1464 C   0  0  0  0  0  0  0  0  0  0  0  0
   -2.1660    1.1252   -2.0718 C   0  0  0  0  0  0  0  0  0  0  0  0
   -2.3891    2.3444   -1.5091 C   0  0  0  0  0  0  0  0  0  0  0  0
   -2.2702    2.8074   -0.2346 C   0  0  0  0  0  0  0  0  0  0  0  0
   -2.5852    1.7809    0.6477 C   0  0  0  0  0  0  0  0  0  0  0  0
   -2.6325   -0.9085   -1.3900 H   0  0  0  0  0  0  0  0  0  0  0  0
   -1.9558    0.9047   -3.1152 H   0  0  0  0  0  0  0  0  0  0  0  0
    6.6035   -1.1370    2.1441 N   0  0  0  0  0  0  0  0  0  0  0  0
    7.5940   -1.4675    2.5070 N   0  0  0  0  0  0  0  0  0  0  0  0
   -2.8079    1.9210    1.7003 H   0  0  0  0  0  0  0  0  0  0  0  0
   -2.1375    3.8371    0.0874 H   0  0  0  0  0  0  0  0  0  0  0  0
   -2.7040    0.4641    0.1946 N   0  0  0  0  0  0  0  0  0  0  0  0
   -2.9882   -0.4396    1.0060 O   0  0  0  0  0  0  0  0  0  0  0  0
  1 12  1  0  0  0  0
  2  3  1  0  0  0  0
  2  1  2  0  0  0  0
  3  4  1  0  0  0  0
  4 11  1  0  0  0  0
  4  5  2  0  0  0  0
  5 10  1  0  0  0  0
  6  1  1  0  0  0  0
  7  2  1  0  0  0  0
  8  9  3  0  0  0  0
 12  5  1  0  0  0  0
 12 13  1  0  0  0  0
M  RAD  2   3   2  13   2
M  END
