Coordinates from ORCA-job N-O-Pyridine-4-N2+-scan-d09-160-n800
 OpenBabel09191814183D

 13 12  0  0  0  0  0  0  0  0999 V2000
   -2.6422    0.5836   -1.5544 C   0  0  0  0  0  0  0  0  0  0  0  0
   -3.7184    1.1750   -2.2044 C   0  0  0  0  0  0  0  0  0  0  0  0
   -4.3254    2.0446   -1.3507 C   0  0  0  0  0  0  0  0  0  0  0  0
   -3.8488    2.8445   -0.3576 C   0  0  0  0  0  0  0  0  0  0  0  0
   -2.7694    2.2138    0.2491 C   0  0  0  0  0  0  0  0  0  0  0  0
   -2.1322   -0.3102   -1.8981 H   0  0  0  0  0  0  0  0  0  0  0  0
   -4.0823    0.8293   -3.1686 H   0  0  0  0  0  0  0  0  0  0  0  0
    9.8656   -2.7321    3.7512 N   0  0  0  0  0  0  0  0  0  0  0  0
   10.7874   -3.1455    4.2000 N   0  0  0  0  0  0  0  0  0  0  0  0
   -2.3515    2.4982    1.2091 H   0  0  0  0  0  0  0  0  0  0  0  0
   -4.3096    3.7399    0.0516 H   0  0  0  0  0  0  0  0  0  0  0  0
   -2.1816    1.0888   -0.3356 N   0  0  0  0  0  0  0  0  0  0  0  0
   -1.2136    0.5405    0.2284 O   0  0  0  0  0  0  0  0  0  0  0  0
  1 12  1  0  0  0  0
  2  1  2  0  0  0  0
  2  3  1  0  0  0  0
  3  4  1  0  0  0  0
  4 11  1  0  0  0  0
  4  5  2  0  0  0  0
  5 10  1  0  0  0  0
  6  1  1  0  0  0  0
  7  2  1  0  0  0  0
  8  9  3  0  0  0  0
 12 13  1  0  0  0  0
 12  5  1  0  0  0  0
M  RAD  2   3   2  13   2
M  END
