Coordinates from ORCA-job N-O-Pyridine-4-N2+-scan-d09-160-n800
 OpenBabel09191814183D

 13 12  0  0  0  0  0  0  0  0999 V2000
   -2.4583    0.0886   -1.1006 C   0  0  0  0  0  0  0  0  0  0  0  0
   -1.1676    0.4830   -1.4319 C   0  0  0  0  0  0  0  0  0  0  0  0
   -0.8899    1.6555   -0.7986 C   0  0  0  0  0  0  0  0  0  0  0  0
   -1.2679    2.1664    0.4051 C   0  0  0  0  0  0  0  0  0  0  0  0
   -2.5562    1.7318    0.6927 C   0  0  0  0  0  0  0  0  0  0  0  0
   -3.0273   -0.6645   -1.6357 H   0  0  0  0  0  0  0  0  0  0  0  0
   -0.5880   -0.0027   -2.2127 H   0  0  0  0  0  0  0  0  0  0  0  0
    4.7044    0.0027    1.0073 N   0  0  0  0  0  0  0  0  0  0  0  0
    5.7434   -0.2444    1.2927 N   0  0  0  0  0  0  0  0  0  0  0  0
   -3.1959    2.1664    1.4536 H   0  0  0  0  0  0  0  0  0  0  0  0
   -0.7628    2.9314    0.9892 H   0  0  0  0  0  0  0  0  0  0  0  0
   -3.1493    0.7144   -0.0596 N   0  0  0  0  0  0  0  0  0  0  0  0
   -4.3068    0.3418    0.2186 O   0  0  0  0  0  0  0  0  0  0  0  0
  1 12  1  0  0  0  0
  2  1  2  0  0  0  0
  2  3  1  0  0  0  0
  3  4  1  0  0  0  0
  4  5  2  0  0  0  0
  4 11  1  0  0  0  0
  5 10  1  0  0  0  0
  6  1  1  0  0  0  0
  7  2  1  0  0  0  0
  8  9  3  0  0  0  0
 12 13  1  0  0  0  0
 12  5  1  0  0  0  0
M  RAD  2   3   2  13   2
M  END
