Coordinates from ORCA-job N-O-Pyridine-4-N2+-scan-d09-160-n800
 OpenBabel09191814183D

 13 12  0  0  0  0  0  0  0  0999 V2000
   -2.4755    0.0896   -1.1017 C   0  0  0  0  0  0  0  0  0  0  0  0
   -1.7595    0.9680   -1.9060 C   0  0  0  0  0  0  0  0  0  0  0  0
   -1.8154    2.2124   -1.3572 C   0  0  0  0  0  0  0  0  0  0  0  0
   -1.8637    2.6511   -0.0695 C   0  0  0  0  0  0  0  0  0  0  0  0
   -2.5773    1.7330    0.6915 C   0  0  0  0  0  0  0  0  0  0  0  0
   -2.8017   -0.8987   -1.4086 H   0  0  0  0  0  0  0  0  0  0  0  0
   -1.3920    0.6935   -2.8914 H   0  0  0  0  0  0  0  0  0  0  0  0
    5.8683   -0.7309    1.7346 N   0  0  0  0  0  0  0  0  0  0  0  0
    6.8695   -1.0454    2.0821 N   0  0  0  0  0  0  0  0  0  0  0  0
   -2.9770    1.9322    1.6803 H   0  0  0  0  0  0  0  0  0  0  0  0
   -1.5737    3.6274    0.3101 H   0  0  0  0  0  0  0  0  0  0  0  0
   -2.8912    0.4723    0.1765 N   0  0  0  0  0  0  0  0  0  0  0  0
   -3.5331   -0.3341    0.8791 O   0  0  0  0  0  0  0  0  0  0  0  0
  1 12  1  0  0  0  0
  2  3  1  0  0  0  0
  2  1  2  0  0  0  0
  3  4  1  0  0  0  0
  4 11  1  0  0  0  0
  4  5  2  0  0  0  0
  5 10  1  0  0  0  0
  6  1  1  0  0  0  0
  7  2  1  0  0  0  0
  8  9  3  0  0  0  0
 12  5  1  0  0  0  0
 12 13  1  0  0  0  0
M  RAD  2   3   2  13   2
M  END
