Coordinates from ORCA-job N-O-Pyridine-4-N2+-scan-d09-160-n800
 OpenBabel09191814183D

 13 12  0  0  0  0  0  0  0  0999 V2000
   -2.4750    0.0922   -1.1041 C   0  0  0  0  0  0  0  0  0  0  0  0
   -1.7910    0.9835   -1.9218 C   0  0  0  0  0  0  0  0  0  0  0  0
   -1.8614    2.2273   -1.3732 C   0  0  0  0  0  0  0  0  0  0  0  0
   -1.8953    2.6665   -0.0853 C   0  0  0  0  0  0  0  0  0  0  0  0
   -2.5769    1.7356    0.6893 C   0  0  0  0  0  0  0  0  0  0  0  0
   -2.7872   -0.9026   -1.4041 H   0  0  0  0  0  0  0  0  0  0  0  0
   -1.4358    0.7150   -2.9134 H   0  0  0  0  0  0  0  0  0  0  0  0
    5.9222   -0.7632    1.7669 N   0  0  0  0  0  0  0  0  0  0  0  0
    6.9223   -1.0793    2.1160 N   0  0  0  0  0  0  0  0  0  0  0  0
   -2.9626    1.9281    1.6849 H   0  0  0  0  0  0  0  0  0  0  0  0
   -1.6177    3.6489    0.2881 H   0  0  0  0  0  0  0  0  0  0  0  0
   -2.8752    0.4683    0.1810 N   0  0  0  0  0  0  0  0  0  0  0  0
   -3.4884   -0.3496    0.8958 O   0  0  0  0  0  0  0  0  0  0  0  0
  1 12  1  0  0  0  0
  2  3  1  0  0  0  0
  2  1  2  0  0  0  0
  3  4  1  0  0  0  0
  4 11  1  0  0  0  0
  4  5  2  0  0  0  0
  5 10  1  0  0  0  0
  6  1  1  0  0  0  0
  7  2  1  0  0  0  0
  8  9  3  0  0  0  0
 12  5  1  0  0  0  0
 12 13  1  0  0  0  0
M  RAD  2   3   2  13   2
M  END
