Coordinates from ORCA-job N-O-Pyridine-4-N2+-scan-d09-160-n800
 OpenBabel09191814183D

 13 12  0  0  0  0  0  0  0  0999 V2000
   -2.4847    0.0791   -1.0929 C   0  0  0  0  0  0  0  0  0  0  0  0
   -1.5588    0.8491   -1.7862 C   0  0  0  0  0  0  0  0  0  0  0  0
   -1.5120    2.0899   -1.2286 C   0  0  0  0  0  0  0  0  0  0  0  0
   -1.6623    2.5323    0.0499 C   0  0  0  0  0  0  0  0  0  0  0  0
   -2.5858    1.7228    0.7002 C   0  0  0  0  0  0  0  0  0  0  0  0
   -2.9021   -0.8548   -1.4545 H   0  0  0  0  0  0  0  0  0  0  0  0
   -1.1107    0.5251   -2.7221 H   0  0  0  0  0  0  0  0  0  0  0  0
    5.5434   -0.5167    1.5225 N   0  0  0  0  0  0  0  0  0  0  0  0
    6.5530   -0.8176    1.8573 N   0  0  0  0  0  0  0  0  0  0  0  0
   -3.0763    1.9766    1.6340 H   0  0  0  0  0  0  0  0  0  0  0  0
   -1.2912    3.4595    0.4789 H   0  0  0  0  0  0  0  0  0  0  0  0
   -3.0022    0.5171    0.1292 N   0  0  0  0  0  0  0  0  0  0  0  0
   -3.8325   -0.1920    0.7323 O   0  0  0  0  0  0  0  0  0  0  0  0
  1 12  1  0  0  0  0
  2  3  1  0  0  0  0
  2  1  2  0  0  0  0
  3  4  1  0  0  0  0
  4 11  1  0  0  0  0
  4  5  2  0  0  0  0
  5 10  1  0  0  0  0
  6  1  1  0  0  0  0
  7  2  1  0  0  0  0
  8  9  3  0  0  0  0
 12  5  1  0  0  0  0
 12 13  1  0  0  0  0
M  RAD  2   3   2  13   2
M  END
