Coordinates from ORCA-job N-O-Pyridine-4-N2+-scan-d09-160-n800
 OpenBabel09191814183D

 13 12  0  0  0  0  0  0  0  0999 V2000
   -1.9964    0.0930   -1.0685 C   0  0  0  0  0  0  0  0  0  0  0  0
   -0.6116    0.0472   -1.0054 C   0  0  0  0  0  0  0  0  0  0  0  0
   -0.1250    1.0187   -0.1765 C   0  0  0  0  0  0  0  0  0  0  0  0
   -0.7098    1.7308    0.8329 C   0  0  0  0  0  0  0  0  0  0  0  0
   -2.0915    1.7240    0.7124 C   0  0  0  0  0  0  0  0  0  0  0  0
   -2.5896   -0.4771   -1.7736 H   0  0  0  0  0  0  0  0  0  0  0  0
   -0.0319   -0.6143   -1.6391 H   0  0  0  0  0  0  0  0  0  0  0  0
    1.9031    0.6711    0.2505 N   0  0  0  0  0  0  0  0  0  0  0  0
    3.0030    0.6315    0.3470 N   0  0  0  0  0  0  0  0  0  0  0  0
   -2.7540    2.3431    1.3056 H   0  0  0  0  0  0  0  0  0  0  0  0
   -0.2037    2.3330    1.5789 H   0  0  0  0  0  0  0  0  0  0  0  0
   -2.7345    0.9247   -0.2297 N   0  0  0  0  0  0  0  0  0  0  0  0
   -3.9801    0.9446   -0.3145 O   0  0  0  0  0  0  0  0  0  0  0  0
  1  2  2  0  0  0  0
  1 12  1  0  0  0  0
  2  3  1  0  0  0  0
  3  4  1  0  0  0  0
  4 11  1  0  0  0  0
  5  4  2  0  0  0  0
  5 10  1  0  0  0  0
  6  1  1  0  0  0  0
  7  2  1  0  0  0  0
  8  9  3  0  0  0  0
 12  5  1  0  0  0  0
 13 12  1  0  0  0  0
M  RAD  2   3   2  13   2
M  END
