Coordinates from ORCA-job N-O-Pyridine-4-N2+-scan-d09-160-n800
 OpenBabel09191814183D

 13 12  0  0  0  0  0  0  0  0999 V2000
   -2.0232    0.0893   -1.0701 C   0  0  0  0  0  0  0  0  0  0  0  0
   -0.6362    0.0611   -1.0187 C   0  0  0  0  0  0  0  0  0  0  0  0
   -0.1749    1.0700   -0.2258 C   0  0  0  0  0  0  0  0  0  0  0  0
   -0.7345    1.7442    0.8190 C   0  0  0  0  0  0  0  0  0  0  0  0
   -2.1188    1.7240    0.7146 C   0  0  0  0  0  0  0  0  0  0  0  0
   -2.6174   -0.4809   -1.7750 H   0  0  0  0  0  0  0  0  0  0  0  0
   -0.0482   -0.5965   -1.6501 H   0  0  0  0  0  0  0  0  0  0  0  0
    2.0518    0.6488    0.2790 N   0  0  0  0  0  0  0  0  0  0  0  0
    3.1483    0.5840    0.3970 N   0  0  0  0  0  0  0  0  0  0  0  0
   -2.7824    2.3427    1.3078 H   0  0  0  0  0  0  0  0  0  0  0  0
   -0.2200    2.3449    1.5614 H   0  0  0  0  0  0  0  0  0  0  0  0
   -2.7599    0.9163   -0.2235 N   0  0  0  0  0  0  0  0  0  0  0  0
   -4.0066    0.9222   -0.2956 O   0  0  0  0  0  0  0  0  0  0  0  0
  1  2  2  0  0  0  0
  1 12  1  0  0  0  0
  2  3  1  0  0  0  0
  3  4  1  0  0  0  0
  4 11  1  0  0  0  0
  5  4  2  0  0  0  0
  5 10  1  0  0  0  0
  6  1  1  0  0  0  0
  7  2  1  0  0  0  0
  8  9  3  0  0  0  0
 12  5  1  0  0  0  0
 13 12  1  0  0  0  0
M  RAD  2   3   2  13   2
M  END
