Coordinates from ORCA-job N-O-Pyridine-4-N2+-scan-d09-160-n800
 OpenBabel09191814183D

 13 12  0  0  0  0  0  0  0  0999 V2000
   -2.4888    0.1476   -1.1553 C   0  0  0  0  0  0  0  0  0  0  0  0
   -2.2238    1.1415   -2.0898 C   0  0  0  0  0  0  0  0  0  0  0  0
   -2.4667    2.3549   -1.5229 C   0  0  0  0  0  0  0  0  0  0  0  0
   -2.3278    2.8235   -0.2525 C   0  0  0  0  0  0  0  0  0  0  0  0
   -2.5904    1.7902    0.6389 C   0  0  0  0  0  0  0  0  0  0  0  0
   -2.6144   -0.9033   -1.3937 H   0  0  0  0  0  0  0  0  0  0  0  0
   -2.0346    0.9251   -3.1381 H   0  0  0  0  0  0  0  0  0  0  0  0
    6.7224   -1.1948    2.2033 N   0  0  0  0  0  0  0  0  0  0  0  0
    7.7117   -1.5270    2.5678 N   0  0  0  0  0  0  0  0  0  0  0  0
   -2.7894    1.9259    1.6968 H   0  0  0  0  0  0  0  0  0  0  0  0
   -2.2160    3.8572    0.0647 H   0  0  0  0  0  0  0  0  0  0  0  0
   -2.6836    0.4697    0.1906 N   0  0  0  0  0  0  0  0  0  0  0  0
   -2.9208   -0.4402    1.0102 O   0  0  0  0  0  0  0  0  0  0  0  0
  1 12  1  0  0  0  0
  2  3  1  0  0  0  0
  2  1  2  0  0  0  0
  3  4  1  0  0  0  0
  4 11  1  0  0  0  0
  4  5  2  0  0  0  0
  5 10  1  0  0  0  0
  6  1  1  0  0  0  0
  7  2  1  0  0  0  0
  8  9  3  0  0  0  0
 12  5  1  0  0  0  0
 12 13  1  0  0  0  0
M  RAD  2   3   2  13   2
M  END
