Coordinates from ORCA-job N-O-Pyridine-4-N2+-scan-d09-160-n800
 OpenBabel09191814183D

 13 12  0  0  0  0  0  0  0  0999 V2000
   -2.3052    0.0961   -1.0993 C   0  0  0  0  0  0  0  0  0  0  0  0
   -0.9230    0.2185   -1.1780 C   0  0  0  0  0  0  0  0  0  0  0  0
   -0.5383    1.3143   -0.4686 C   0  0  0  0  0  0  0  0  0  0  0  0
   -1.0217    1.9018    0.6597 C   0  0  0  0  0  0  0  0  0  0  0  0
   -2.4016    1.7387    0.6941 C   0  0  0  0  0  0  0  0  0  0  0  0
   -2.9045   -0.5304   -1.7515 H   0  0  0  0  0  0  0  0  0  0  0  0
   -0.3181   -0.3802   -1.8540 H   0  0  0  0  0  0  0  0  0  0  0  0
    3.6486    0.3770    0.6118 N   0  0  0  0  0  0  0  0  0  0  0  0
    4.7162    0.1977    0.8346 N   0  0  0  0  0  0  0  0  0  0  0  0
   -3.0705    2.2997    1.3382 H   0  0  0  0  0  0  0  0  0  0  0  0
   -0.4902    2.5532    1.3485 H   0  0  0  0  0  0  0  0  0  0  0  0
   -3.0370    0.8564   -0.1834 N   0  0  0  0  0  0  0  0  0  0  0  0
   -4.2769    0.7277   -0.1321 O   0  0  0  0  0  0  0  0  0  0  0  0
  1 12  1  0  0  0  0
  2  1  2  0  0  0  0
  2  3  1  0  0  0  0
  3  4  1  0  0  0  0
  4  5  2  0  0  0  0
  4 11  1  0  0  0  0
  5 10  1  0  0  0  0
  6  1  1  0  0  0  0
  7  2  1  0  0  0  0
  8  9  3  0  0  0  0
 12 13  1  0  0  0  0
 12  5  1  0  0  0  0
M  RAD  2   3   2  13   2
M  END
