Coordinates from ORCA-job N-O-Pyridine-4-N2+-scan-d09-160-n800
 OpenBabel09191814183D

 13 12  0  0  0  0  0  0  0  0999 V2000
   -2.4186    0.0933   -1.1029 C   0  0  0  0  0  0  0  0  0  0  0  0
   -1.0775    0.3776   -1.3312 C   0  0  0  0  0  0  0  0  0  0  0  0
   -0.7517    1.5211   -0.6688 C   0  0  0  0  0  0  0  0  0  0  0  0
   -1.1770    2.0608    0.5062 C   0  0  0  0  0  0  0  0  0  0  0  0
   -2.5157    1.7363    0.6905 C   0  0  0  0  0  0  0  0  0  0  0  0
   -3.0060   -0.6081   -1.6861 H   0  0  0  0  0  0  0  0  0  0  0  0
   -0.4825   -0.1542   -2.0691 H   0  0  0  0  0  0  0  0  0  0  0  0
    4.3769    0.1453    0.8606 N   0  0  0  0  0  0  0  0  0  0  0  0
    5.4271   -0.0775    1.1241 N   0  0  0  0  0  0  0  0  0  0  0  0
   -3.1733    2.2225    1.4035 H   0  0  0  0  0  0  0  0  0  0  0  0
   -0.6558    2.7796    1.1333 H   0  0  0  0  0  0  0  0  0  0  0  0
   -3.1326    0.7737   -0.1130 N   0  0  0  0  0  0  0  0  0  0  0  0
   -4.3354    0.4999    0.0728 O   0  0  0  0  0  0  0  0  0  0  0  0
  1 12  1  0  0  0  0
  2  1  2  0  0  0  0
  2  3  1  0  0  0  0
  3  4  1  0  0  0  0
  4  5  2  0  0  0  0
  4 11  1  0  0  0  0
  5 10  1  0  0  0  0
  6  1  1  0  0  0  0
  7  2  1  0  0  0  0
  8  9  3  0  0  0  0
 12 13  1  0  0  0  0
 12  5  1  0  0  0  0
M  RAD  2   3   2  13   2
M  END
