Coordinates from ORCA-job N-O-Pyridine-4-N2+-scan-d09-160-n800
 OpenBabel09191814183D

 13 12  0  0  0  0  0  0  0  0999 V2000
   -2.4877    0.0776   -1.0919 C   0  0  0  0  0  0  0  0  0  0  0  0
   -1.4499    0.7679   -1.7063 C   0  0  0  0  0  0  0  0  0  0  0  0
   -1.3422    1.9996   -1.1370 C   0  0  0  0  0  0  0  0  0  0  0  0
   -1.5526    2.4510    0.1299 C   0  0  0  0  0  0  0  0  0  0  0  0
   -2.5880    1.7213    0.7012 C   0  0  0  0  0  0  0  0  0  0  0  0
   -2.9531   -0.8170   -1.4920 H   0  0  0  0  0  0  0  0  0  0  0  0
   -0.9600    0.4087   -2.6077 H   0  0  0  0  0  0  0  0  0  0  0  0
    5.3547   -0.3893    1.3972 N   0  0  0  0  0  0  0  0  0  0  0  0
    6.3699   -0.6808    1.7232 N   0  0  0  0  0  0  0  0  0  0  0  0
   -3.1258    2.0143    1.5967 H   0  0  0  0  0  0  0  0  0  0  0  0
   -1.1389    3.3430    0.5934 H   0  0  0  0  0  0  0  0  0  0  0  0
   -3.0590    0.5558    0.0905 N   0  0  0  0  0  0  0  0  0  0  0  0
   -3.9895   -0.0818    0.6229 O   0  0  0  0  0  0  0  0  0  0  0  0
  1 12  1  0  0  0  0
  2  3  1  0  0  0  0
  2  1  2  0  0  0  0
  3  4  1  0  0  0  0
  4 11  1  0  0  0  0
  4  5  2  0  0  0  0
  5 10  1  0  0  0  0
  6  1  1  0  0  0  0
  7  2  1  0  0  0  0
  8  9  3  0  0  0  0
 12 13  1  0  0  0  0
 12  5  1  0  0  0  0
M  RAD  2   3   2  13   2
M  END
