Coordinates from ORCA-job N-O-Pyridine-4-N2+-scan-d09-160-n800
 OpenBabel09191814183D

 13 13  0  0  1  0  0  0  0  0999 V2000
   -1.9153    0.1013   -1.0710 C   0  0  0  0  0  0  0  0  0  0  0  0
   -0.5552    0.0247   -0.9632 C   0  0  0  0  0  0  0  0  0  0  0  0
    0.0853    0.8277    0.0100 C   0  0  2  0  0  0  0  0  0  0  0  0
   -0.6524    1.6906    0.8545 C   0  0  0  0  0  0  0  0  0  0  0  0
   -2.0104    1.7322    0.7086 C   0  0  0  0  0  0  0  0  0  0  0  0
   -2.5137   -0.4623   -1.7753 H   0  0  0  0  0  0  0  0  0  0  0  0
    0.0033   -0.6391   -1.6143 H   0  0  0  0  0  0  0  0  0  0  0  0
    1.4587    0.7679    0.1382 N   0  0  0  0  0  0  0  0  0  0  0  0
    2.5729    0.7195    0.2421 N   0  0  0  0  0  0  0  0  0  0  0  0
   -2.6778    2.3511    1.2946 H   0  0  0  0  0  0  0  0  0  0  0  0
   -0.1687    2.3092    1.6028 H   0  0  0  0  0  0  0  0  0  0  0  0
   -2.6568    0.9468   -0.2458 N   0  0  0  0  0  0  0  0  0  0  0  0
   -3.8919    1.0009   -0.3614 O   0  0  0  0  0  0  0  0  0  0  0  0
  1  2  2  0  0  0  0
  1 12  1  0  0  0  0
  2  3  1  0  0  0  0
  3  8  1  6  0  0  0
  3  4  1  0  0  0  0
  4 11  1  0  0  0  0
  5  4  2  0  0  0  0
  5 10  1  0  0  0  0
  6  1  1  0  0  0  0
  7  2  1  0  0  0  0
  8  9  1  0  0  0  0
 12  5  1  0  0  0  0
 13 12  1  0  0  0  0
M  RAD  3   8   2   9   3  13   2
M  END
