Coordinates from ORCA-job N-O-Pyridine-4-N2+-scan-d09-160-n800
 OpenBabel09191814183D

 13 12  0  0  0  0  0  0  0  0999 V2000
   -2.6445    0.5897   -1.5605 C   0  0  0  0  0  0  0  0  0  0  0  0
   -3.7318    1.1711   -2.2012 C   0  0  0  0  0  0  0  0  0  0  0  0
   -4.3390    2.0355   -1.3424 C   0  0  0  0  0  0  0  0  0  0  0  0
   -3.8608    2.8401   -0.3538 C   0  0  0  0  0  0  0  0  0  0  0  0
   -2.7705    2.2194    0.2435 C   0  0  0  0  0  0  0  0  0  0  0  0
   -2.1295   -0.2996   -1.9084 H   0  0  0  0  0  0  0  0  0  0  0  0
   -4.1010    0.8217   -3.1620 H   0  0  0  0  0  0  0  0  0  0  0  0
    9.8925   -2.7461    3.7661 N   0  0  0  0  0  0  0  0  0  0  0  0
   10.8130   -3.1608    4.2165 N   0  0  0  0  0  0  0  0  0  0  0  0
   -2.3467    2.5081    1.1996 H   0  0  0  0  0  0  0  0  0  0  0  0
   -4.3260    3.7315    0.0591 H   0  0  0  0  0  0  0  0  0  0  0  0
   -2.1777    1.0996   -0.3460 N   0  0  0  0  0  0  0  0  0  0  0  0
   -1.1999    0.5603    0.2095 O   0  0  0  0  0  0  0  0  0  0  0  0
  1 12  1  0  0  0  0
  2  1  2  0  0  0  0
  2  3  1  0  0  0  0
  3  4  1  0  0  0  0
  4 11  1  0  0  0  0
  4  5  2  0  0  0  0
  5 10  1  0  0  0  0
  6  1  1  0  0  0  0
  7  2  1  0  0  0  0
  8  9  3  0  0  0  0
 12 13  1  0  0  0  0
 12  5  1  0  0  0  0
M  RAD  2   3   2  13   2
M  END
