Coordinates from ORCA-job N-O-Pyridine-4-N2+-scan-d09-160-n800
 OpenBabel09191814183D

 13 12  0  0  0  0  0  0  0  0999 V2000
   -2.4889    0.0779   -1.0923 C   0  0  0  0  0  0  0  0  0  0  0  0
   -1.4314    0.7519   -1.6908 C   0  0  0  0  0  0  0  0  0  0  0  0
   -1.3122    1.9814   -1.1187 C   0  0  0  0  0  0  0  0  0  0  0  0
   -1.5338    2.4351    0.1454 C   0  0  0  0  0  0  0  0  0  0  0  0
   -2.5890    1.7216    0.7008 C   0  0  0  0  0  0  0  0  0  0  0  0
   -2.9627   -0.8088   -1.5001 H   0  0  0  0  0  0  0  0  0  0  0  0
   -0.9341    0.3856   -2.5853 H   0  0  0  0  0  0  0  0  0  0  0  0
    5.3244   -0.3664    1.3748 N   0  0  0  0  0  0  0  0  0  0  0  0
    6.3408   -0.6558    1.6989 N   0  0  0  0  0  0  0  0  0  0  0  0
   -3.1350    2.0225    1.5888 H   0  0  0  0  0  0  0  0  0  0  0  0
   -1.1126    3.3199    0.6159 H   0  0  0  0  0  0  0  0  0  0  0  0
   -3.0696    0.5643    0.0822 N   0  0  0  0  0  0  0  0  0  0  0  0
   -4.0180   -0.0587    0.6003 O   0  0  0  0  0  0  0  0  0  0  0  0
  1 12  1  0  0  0  0
  2  3  1  0  0  0  0
  2  1  2  0  0  0  0
  3  4  1  0  0  0  0
  4 11  1  0  0  0  0
  4  5  2  0  0  0  0
  5 10  1  0  0  0  0
  6  1  1  0  0  0  0
  7  2  1  0  0  0  0
  8  9  3  0  0  0  0
 12 13  1  0  0  0  0
 12  5  1  0  0  0  0
M  RAD  2   3   2  13   2
M  END
