Coordinates from ORCA-job N-O-Pyridine-4-N2+-scan-d09-160-n800
 OpenBabel09191814183D

 13 12  0  0  0  0  0  0  0  0999 V2000
   -2.4855    0.1425   -1.1504 C   0  0  0  0  0  0  0  0  0  0  0  0
   -2.1925    1.1328   -2.0802 C   0  0  0  0  0  0  0  0  0  0  0  0
   -2.4250    2.3494   -1.5156 C   0  0  0  0  0  0  0  0  0  0  0  0
   -2.2967    2.8149   -0.2429 C   0  0  0  0  0  0  0  0  0  0  0  0
   -2.5872    1.7851    0.6438 C   0  0  0  0  0  0  0  0  0  0  0  0
   -2.6237   -0.9063   -1.3915 H   0  0  0  0  0  0  0  0  0  0  0  0
   -1.9922    0.9144   -3.1260 H   0  0  0  0  0  0  0  0  0  0  0  0
    6.6567   -1.1634    2.1711 N   0  0  0  0  0  0  0  0  0  0  0  0
    7.6467   -1.4946    2.5347 N   0  0  0  0  0  0  0  0  0  0  0  0
   -2.7988    1.9230    1.6989 H   0  0  0  0  0  0  0  0  0  0  0  0
   -2.1737    3.8466    0.0767 H   0  0  0  0  0  0  0  0  0  0  0  0
   -2.6940    0.4665    0.1930 N   0  0  0  0  0  0  0  0  0  0  0  0
   -2.9562   -0.4403    1.0084 O   0  0  0  0  0  0  0  0  0  0  0  0
  1 12  1  0  0  0  0
  2  3  1  0  0  0  0
  2  1  2  0  0  0  0
  3  4  1  0  0  0  0
  4 11  1  0  0  0  0
  4  5  2  0  0  0  0
  5 10  1  0  0  0  0
  6  1  1  0  0  0  0
  7  2  1  0  0  0  0
  8  9  3  0  0  0  0
 12  5  1  0  0  0  0
 12 13  1  0  0  0  0
M  RAD  2   3   2  13   2
M  END
