Coordinates from ORCA-job N-O-Pyridine-4-N2+-scan-d09-160-n800
 OpenBabel09191814183D

 13 12  0  0  0  0  0  0  0  0999 V2000
   -2.6252    0.4732   -1.4457 C   0  0  0  0  0  0  0  0  0  0  0  0
   -3.4471    1.2443   -2.2581 C   0  0  0  0  0  0  0  0  0  0  0  0
   -4.0305    2.2145   -1.5017 C   0  0  0  0  0  0  0  0  0  0  0  0
   -3.6007    2.9223   -0.4210 C   0  0  0  0  0  0  0  0  0  0  0  0
   -2.7753    2.1120    0.3485 C   0  0  0  0  0  0  0  0  0  0  0  0
   -2.2299   -0.4998   -1.7177 H   0  0  0  0  0  0  0  0  0  0  0  0
   -3.6909    0.9636   -3.2795 H   0  0  0  0  0  0  0  0  0  0  0  0
    9.4208   -2.4840    3.4910 N   0  0  0  0  0  0  0  0  0  0  0  0
   10.3719   -2.8691    3.9025 N   0  0  0  0  0  0  0  0  0  0  0  0
   -2.4887    2.3231    1.3734 H   0  0  0  0  0  0  0  0  0  0  0  0
   -3.9589    3.8889   -0.0763 H   0  0  0  0  0  0  0  0  0  0  0  0
   -2.3039    0.8956   -0.1528 N   0  0  0  0  0  0  0  0  0  0  0  0
   -1.5638    0.1860    0.5572 O   0  0  0  0  0  0  0  0  0  0  0  0
  1 12  1  0  0  0  0
  2  3  1  0  0  0  0
  2  1  2  0  0  0  0
  3  4  1  0  0  0  0
  4 11  1  0  0  0  0
  4  5  2  0  0  0  0
  5 10  1  0  0  0  0
  6  1  1  0  0  0  0
  7  2  1  0  0  0  0
  8  9  3  0  0  0  0
 12  5  1  0  0  0  0
 12 13  1  0  0  0  0
M  RAD  2   3   2  13   2
M  END
