Coordinates from ORCA-job N-O-Pyridine-4-N2+-scan-d09-160-n800
 OpenBabel09191814183D

 13 12  0  0  0  0  0  0  0  0999 V2000
   -2.5716    0.3326   -1.3283 C   0  0  0  0  0  0  0  0  0  0  0  0
   -3.0563    1.2596   -2.2428 C   0  0  0  0  0  0  0  0  0  0  0  0
   -3.5386    2.3368   -1.5647 C   0  0  0  0  0  0  0  0  0  0  0  0
   -3.1611    2.9402   -0.4044 C   0  0  0  0  0  0  0  0  0  0  0  0
   -2.6739    1.9739    0.4672 C   0  0  0  0  0  0  0  0  0  0  0  0
   -2.3538   -0.7046   -1.5606 H   0  0  0  0  0  0  0  0  0  0  0  0
   -3.1752    1.0337   -3.2994 H   0  0  0  0  0  0  0  0  0  0  0  0
    8.4411   -2.0197    3.0468 N   0  0  0  0  0  0  0  0  0  0  0  0
    9.4090   -2.3820    3.4394 N   0  0  0  0  0  0  0  0  0  0  0  0
   -2.5302    2.1227    1.5323 H   0  0  0  0  0  0  0  0  0  0  0  0
   -3.3580    3.9634   -0.0945 H   0  0  0  0  0  0  0  0  0  0  0  0
   -2.3950    0.6818    0.0135 N   0  0  0  0  0  0  0  0  0  0  0  0
   -1.9585   -0.1681    0.8153 O   0  0  0  0  0  0  0  0  0  0  0  0
  1 12  1  0  0  0  0
  2  3  1  0  0  0  0
  2  1  2  0  0  0  0
  3  4  1  0  0  0  0
  4 11  1  0  0  0  0
  4  5  2  0  0  0  0
  5 10  1  0  0  0  0
  6  1  1  0  0  0  0
  7  2  1  0  0  0  0
  8  9  3  0  0  0  0
 12  5  1  0  0  0  0
 12 13  1  0  0  0  0
M  RAD  2   3   2  13   2
M  END
