Coordinates from ORCA-job N-O-Pyridine-4-N2+-scan-d09-160-n800
 OpenBabel09191814183D

 13 12  0  0  0  0  0  0  0  0999 V2000
   -2.5632    0.3018   -1.2998 C   0  0  0  0  0  0  0  0  0  0  0  0
   -2.9430    1.2571   -2.2342 C   0  0  0  0  0  0  0  0  0  0  0  0
   -3.3983    2.3598   -1.5780 C   0  0  0  0  0  0  0  0  0  0  0  0
   -3.0478    2.9377   -0.3962 C   0  0  0  0  0  0  0  0  0  0  0  0
   -2.6656    1.9434    0.4956 C   0  0  0  0  0  0  0  0  0  0  0  0
   -2.3936   -0.7459   -1.5250 H   0  0  0  0  0  0  0  0  0  0  0  0
   -3.0175    1.0403   -3.2967 H   0  0  0  0  0  0  0  0  0  0  0  0
    8.2198   -1.9106    2.9357 N   0  0  0  0  0  0  0  0  0  0  0  0
    9.1933   -2.2653    3.3210 N   0  0  0  0  0  0  0  0  0  0  0  0
   -2.5700    2.0817    1.5674 H   0  0  0  0  0  0  0  0  0  0  0  0
   -3.2002    3.9702   -0.0923 H   0  0  0  0  0  0  0  0  0  0  0  0
   -2.4392    0.6377    0.0513 N   0  0  0  0  0  0  0  0  0  0  0  0
   -2.0969   -0.2376    0.8712 O   0  0  0  0  0  0  0  0  0  0  0  0
  1 12  1  0  0  0  0
  2  3  1  0  0  0  0
  2  1  2  0  0  0  0
  3  4  1  0  0  0  0
  4 11  1  0  0  0  0
  4  5  2  0  0  0  0
  5 10  1  0  0  0  0
  6  1  1  0  0  0  0
  7  2  1  0  0  0  0
  8  9  3  0  0  0  0
 12  5  1  0  0  0  0
 12 13  1  0  0  0  0
M  RAD  2   3   2  13   2
M  END
