Coordinates from ORCA-job N-O-Pyridine-4-N2+-scan-d09-160-n800
 OpenBabel09191814183D

 13 12  0  0  0  0  0  0  0  0999 V2000
   -2.5710    0.3309   -1.3268 C   0  0  0  0  0  0  0  0  0  0  0  0
   -3.0502    1.2596   -2.2421 C   0  0  0  0  0  0  0  0  0  0  0  0
   -3.5324    2.3381   -1.5655 C   0  0  0  0  0  0  0  0  0  0  0  0
   -3.1550    2.9399   -0.4040 C   0  0  0  0  0  0  0  0  0  0  0  0
   -2.6733    1.9723    0.4688 C   0  0  0  0  0  0  0  0  0  0  0  0
   -2.3550   -0.7067   -1.5586 H   0  0  0  0  0  0  0  0  0  0  0  0
   -3.1663    1.0341   -3.2992 H   0  0  0  0  0  0  0  0  0  0  0  0
    8.4285   -2.0136    3.0406 N   0  0  0  0  0  0  0  0  0  0  0  0
    9.3965   -2.3756    3.4329 N   0  0  0  0  0  0  0  0  0  0  0  0
   -2.5314    2.1205    1.5341 H   0  0  0  0  0  0  0  0  0  0  0  0
   -3.3491    3.9637   -0.0944 H   0  0  0  0  0  0  0  0  0  0  0  0
   -2.3975    0.6792    0.0157 N   0  0  0  0  0  0  0  0  0  0  0  0
   -1.9658   -0.1721    0.8185 O   0  0  0  0  0  0  0  0  0  0  0  0
  1 12  1  0  0  0  0
  2  3  1  0  0  0  0
  2  1  2  0  0  0  0
  3  4  1  0  0  0  0
  4 11  1  0  0  0  0
  4  5  2  0  0  0  0
  5 10  1  0  0  0  0
  6  1  1  0  0  0  0
  7  2  1  0  0  0  0
  8  9  3  0  0  0  0
 12  5  1  0  0  0  0
 12 13  1  0  0  0  0
M  RAD  2   3   2  13   2
M  END
