Coordinates from ORCA-job N-O-Pyridine-4-N2+-scan-d09-160-n800
 OpenBabel09191814183D

 13 12  0  0  0  0  0  0  0  0999 V2000
   -2.4750    0.1138   -1.1237 C   0  0  0  0  0  0  0  0  0  0  0  0
   -1.9943    1.0691   -2.0111 C   0  0  0  0  0  0  0  0  0  0  0  0
   -2.1528    2.3028   -1.4583 C   0  0  0  0  0  0  0  0  0  0  0  0
   -2.0991    2.7517   -0.1743 C   0  0  0  0  0  0  0  0  0  0  0  0
   -2.5773    1.7569    0.6700 C   0  0  0  0  0  0  0  0  0  0  0  0
   -2.6970   -0.9148   -1.3878 H   0  0  0  0  0  0  0  0  0  0  0  0
   -1.7189    0.8317   -3.0355 H   0  0  0  0  0  0  0  0  0  0  0  0
    6.2776   -0.9671    1.9715 N   0  0  0  0  0  0  0  0  0  0  0  0
    7.2719   -1.2921    2.3290 N   0  0  0  0  0  0  0  0  0  0  0  0
   -2.8731    1.9154    1.7017 H   0  0  0  0  0  0  0  0  0  0  0  0
   -1.9015    3.7648    0.1664 H   0  0  0  0  0  0  0  0  0  0  0  0
   -2.7759    0.4567    0.1973 N   0  0  0  0  0  0  0  0  0  0  0  0
   -3.2066   -0.4186    0.9746 O   0  0  0  0  0  0  0  0  0  0  0  0
  1 12  1  0  0  0  0
  2  3  1  0  0  0  0
  2  1  2  0  0  0  0
  3  4  1  0  0  0  0
  4 11  1  0  0  0  0
  4  5  2  0  0  0  0
  5 10  1  0  0  0  0
  6  1  1  0  0  0  0
  7  2  1  0  0  0  0
  8  9  3  0  0  0  0
 12  5  1  0  0  0  0
 12 13  1  0  0  0  0
M  RAD  2   3   2  13   2
M  END
