Coordinates from ORCA-job N-O-Pyridine-4-N2+-scan-d09-160-n800
 OpenBabel09191814183D

 13 12  0  0  0  0  0  0  0  0999 V2000
   -2.5372    0.2426   -1.2442 C   0  0  0  0  0  0  0  0  0  0  0  0
   -2.7025    1.2358   -2.2020 C   0  0  0  0  0  0  0  0  0  0  0  0
   -3.0934    2.3835   -1.5832 C   0  0  0  0  0  0  0  0  0  0  0  0
   -2.8076    2.9172   -0.3641 C   0  0  0  0  0  0  0  0  0  0  0  0
   -2.6399    1.8845    0.5505 C   0  0  0  0  0  0  0  0  0  0  0  0
   -2.4673   -0.8177   -1.4633 H   0  0  0  0  0  0  0  0  0  0  0  0
   -2.6885    1.0293   -3.2691 H   0  0  0  0  0  0  0  0  0  0  0  0
    7.7197   -1.6720    2.6912 N   0  0  0  0  0  0  0  0  0  0  0  0
    8.6999   -2.0174    3.0679 N   0  0  0  0  0  0  0  0  0  0  0  0
   -2.6443    2.0105    1.6281 H   0  0  0  0  0  0  0  0  0  0  0  0
   -2.8718    3.9604   -0.0652 H   0  0  0  0  0  0  0  0  0  0  0  0
   -2.5195    0.5615    0.1164 N   0  0  0  0  0  0  0  0  0  0  0  0
   -2.3698   -0.3478    0.9569 O   0  0  0  0  0  0  0  0  0  0  0  0
  1 12  1  0  0  0  0
  2  3  1  0  0  0  0
  2  1  2  0  0  0  0
  3  4  1  0  0  0  0
  4 11  1  0  0  0  0
  4  5  2  0  0  0  0
  5 10  1  0  0  0  0
  6  1  1  0  0  0  0
  7  2  1  0  0  0  0
  8  9  3  0  0  0  0
 12  5  1  0  0  0  0
 12 13  1  0  0  0  0
M  RAD  2   3   2  13   2
M  END
