Coordinates from ORCA-job N-O-Pyridine-4-N2+-scan-d09-160-n800
 OpenBabel09191814183D

 13 12  0  0  0  0  0  0  0  0999 V2000
   -2.4784    0.0828   -1.0960 C   0  0  0  0  0  0  0  0  0  0  0  0
   -1.6608    0.9145   -1.8514 C   0  0  0  0  0  0  0  0  0  0  0  0
   -1.6690    2.1593   -1.3006 C   0  0  0  0  0  0  0  0  0  0  0  0
   -1.7648    2.5975   -0.0154 C   0  0  0  0  0  0  0  0  0  0  0  0
   -2.5799    1.7266    0.6973 C   0  0  0  0  0  0  0  0  0  0  0  0
   -2.8485   -0.8819   -1.4268 H   0  0  0  0  0  0  0  0  0  0  0  0
   -1.2535    0.6185   -2.8148 H   0  0  0  0  0  0  0  0  0  0  0  0
    5.7035   -0.6276    1.6318 N   0  0  0  0  0  0  0  0  0  0  0  0
    6.7084   -0.9362    1.9738 N   0  0  0  0  0  0  0  0  0  0  0  0
   -3.0234    1.9494    1.6621 H   0  0  0  0  0  0  0  0  0  0  0  0
   -1.4348    3.5523    0.3859 H   0  0  0  0  0  0  0  0  0  0  0  0
   -2.9438    0.4897    0.1575 N   0  0  0  0  0  0  0  0  0  0  0  0
   -3.6769   -0.2745    0.8165 O   0  0  0  0  0  0  0  0  0  0  0  0
  1 12  1  0  0  0  0
  2  3  1  0  0  0  0
  2  1  2  0  0  0  0
  3  4  1  0  0  0  0
  4 11  1  0  0  0  0
  4  5  2  0  0  0  0
  5 10  1  0  0  0  0
  6  1  1  0  0  0  0
  7  2  1  0  0  0  0
  8  9  3  0  0  0  0
 12  5  1  0  0  0  0
 12 13  1  0  0  0  0
M  RAD  2   3   2  13   2
M  END
