Coordinates from ORCA-job N-O-Pyridine-4-N2+-scan-d09-160-n800
 OpenBabel09191814183D

 13 12  0  0  0  0  0  0  0  0999 V2000
   -2.3847    0.0954   -1.1030 C   0  0  0  0  0  0  0  0  0  0  0  0
   -1.0228    0.3151   -1.2713 C   0  0  0  0  0  0  0  0  0  0  0  0
   -0.6717    1.4403   -0.5908 C   0  0  0  0  0  0  0  0  0  0  0  0
   -1.1219    1.9983    0.5662 C   0  0  0  0  0  0  0  0  0  0  0  0
   -2.4815    1.7383    0.6904 C   0  0  0  0  0  0  0  0  0  0  0  0
   -2.9789   -0.5758   -1.7141 H   0  0  0  0  0  0  0  0  0  0  0  0
   -0.4221   -0.2436   -1.9844 H   0  0  0  0  0  0  0  0  0  0  0  0
    4.1412    0.2320    0.7694 N   0  0  0  0  0  0  0  0  0  0  0  0
    5.1984    0.0259    1.0176 N   0  0  0  0  0  0  0  0  0  0  0  0
   -3.1456    2.2546    1.3756 H   0  0  0  0  0  0  0  0  0  0  0  0
   -0.5948    2.6901    1.2181 H   0  0  0  0  0  0  0  0  0  0  0  0
   -3.1080    0.8079   -0.1428 N   0  0  0  0  0  0  0  0  0  0  0  0
   -4.3296    0.5921   -0.0111 O   0  0  0  0  0  0  0  0  0  0  0  0
  1 12  1  0  0  0  0
  2  1  2  0  0  0  0
  2  3  1  0  0  0  0
  3  4  1  0  0  0  0
  4  5  2  0  0  0  0
  4 11  1  0  0  0  0
  5 10  1  0  0  0  0
  6  1  1  0  0  0  0
  7  2  1  0  0  0  0
  8  9  3  0  0  0  0
 12 13  1  0  0  0  0
 12  5  1  0  0  0  0
M  RAD  2   3   2  13   2
M  END
