Coordinates from ORCA-job N-O-Pyridine-4-N2+-scan-d09-160-n800
 OpenBabel09191814183D

 13 12  0  0  0  0  0  0  0  0999 V2000
   -2.7544    0.6836   -1.6568 C   0  0  0  0  0  0  0  0  0  0  0  0
   -3.9475    1.1534   -2.1921 C   0  0  0  0  0  0  0  0  0  0  0  0
   -4.5519    1.9628   -1.2795 C   0  0  0  0  0  0  0  0  0  0  0  0
   -4.0625    2.8175   -0.3395 C   0  0  0  0  0  0  0  0  0  0  0  0
   -2.8667    2.3087    0.1524 C   0  0  0  0  0  0  0  0  0  0  0  0
   -2.1915   -0.1553   -2.0522 H   0  0  0  0  0  0  0  0  0  0  0  0
   -4.3697    0.7624   -3.1143 H   0  0  0  0  0  0  0  0  0  0  0  0
   10.6220   -3.0532    4.0916 N   0  0  0  0  0  0  0  0  0  0  0  0
   11.5371   -3.4700    4.5510 N   0  0  0  0  0  0  0  0  0  0  0  0
   -2.3850    2.6444    1.0647 H   0  0  0  0  0  0  0  0  0  0  0  0
   -4.5702    3.6639    0.1159 H   0  0  0  0  0  0  0  0  0  0  0  0
   -2.2272    1.2457   -0.4910 N   0  0  0  0  0  0  0  0  0  0  0  0
   -1.1546    0.8067   -0.0301 O   0  0  0  0  0  0  0  0  0  0  0  0
  1 12  1  0  0  0  0
  2  1  2  0  0  0  0
  2  3  1  0  0  0  0
  3  4  1  0  0  0  0
  4 11  1  0  0  0  0
  4  5  2  0  0  0  0
  5 10  1  0  0  0  0
  6  1  1  0  0  0  0
  7  2  1  0  0  0  0
  8  9  3  0  0  0  0
 12 13  1  0  0  0  0
 12  5  1  0  0  0  0
M  RAD  2   3   2  13   2
M  END
