Coordinates from ORCA-job N-O-Pyridine-4-N2+-scan-d09-160-n800
 OpenBabel09191814183D

 13 12  0  0  0  0  0  0  0  0999 V2000
   -2.5955    0.4353   -1.4075 C   0  0  0  0  0  0  0  0  0  0  0  0
   -3.3349    1.2486   -2.2571 C   0  0  0  0  0  0  0  0  0  0  0  0
   -3.9058    2.2460   -1.5272 C   0  0  0  0  0  0  0  0  0  0  0  0
   -3.4961    2.9292   -0.4231 C   0  0  0  0  0  0  0  0  0  0  0  0
   -2.7530    2.0767    0.3838 C   0  0  0  0  0  0  0  0  0  0  0  0
   -2.2368   -0.5562   -1.6632 H   0  0  0  0  0  0  0  0  0  0  0  0
   -3.5406    0.9823   -3.2908 H   0  0  0  0  0  0  0  0  0  0  0  0
    9.1433   -2.3628    3.3617 N   0  0  0  0  0  0  0  0  0  0  0  0
   10.0995   -2.7421    3.7664 N   0  0  0  0  0  0  0  0  0  0  0  0
   -2.5084    2.2712    1.4227 H   0  0  0  0  0  0  0  0  0  0  0  0
   -3.8218    3.9123   -0.0929 H   0  0  0  0  0  0  0  0  0  0  0  0
   -2.3191    0.8387   -0.0982 N   0  0  0  0  0  0  0  0  0  0  0  0
   -1.6529    0.0911    0.6453 O   0  0  0  0  0  0  0  0  0  0  0  0
  1 12  1  0  0  0  0
  2  3  1  0  0  0  0
  2  1  2  0  0  0  0
  3  4  1  0  0  0  0
  4 11  1  0  0  0  0
  4  5  2  0  0  0  0
  5 10  1  0  0  0  0
  6  1  1  0  0  0  0
  7  2  1  0  0  0  0
  8  9  3  0  0  0  0
 12  5  1  0  0  0  0
 12 13  1  0  0  0  0
M  RAD  2   3   2  13   2
M  END
