Coordinates from ORCA-job N-O-Pyridine-4-N2+-scan-d09-160-n800
 OpenBabel09191814183D

 13 13  0  0  0  0  0  0  0  0999 V2000
   -1.8979    0.0999   -1.0701 C   0  0  0  0  0  0  0  0  0  0  0  0
   -0.5430    0.0253   -0.9609 C   0  0  0  0  0  0  0  0  0  0  0  0
    0.1379    0.8254    0.0149 C   0  0  0  0  0  0  0  0  0  0  0  0
   -0.6401    1.6890    0.8545 C   0  0  0  0  0  0  0  0  0  0  0  0
   -1.9931    1.7321    0.7109 C   0  0  0  0  0  0  0  0  0  0  0  0
   -2.4960   -0.4641   -1.7747 H   0  0  0  0  0  0  0  0  0  0  0  0
    0.0148   -0.6392   -1.6128 H   0  0  0  0  0  0  0  0  0  0  0  0
    1.3519    0.7726    0.1282 N   0  0  0  0  0  0  0  0  0  0  0  0
    2.4752    0.7237    0.2330 N   0  0  0  0  0  0  0  0  0  0  0  0
   -2.6603    2.3513    1.2974 H   0  0  0  0  0  0  0  0  0  0  0  0
   -0.1572    2.3083    1.6035 H   0  0  0  0  0  0  0  0  0  0  0  0
   -2.6410    0.9462   -0.2444 N   0  0  0  0  0  0  0  0  0  0  0  0
   -3.8731    1.0000   -0.3596 O   0  0  0  0  0  0  0  0  0  0  0  0
  1  2  2  0  0  0  0
  1 12  1  0  0  0  0
  2  3  1  0  0  0  0
  3  8  1  0  0  0  0
  3  4  2  0  0  0  0
  4 11  1  0  0  0  0
  5  4  1  0  0  0  0
  5 10  1  0  0  0  0
  6  1  1  0  0  0  0
  7  2  1  0  0  0  0
  8  9  1  0  0  0  0
 12  5  1  0  0  0  0
 13 12  1  0  0  0  0
M  RAD  3   8   2   9   3  13   2
M  END
