Coordinates from ORCA-job N-O-Pyridine-4-N2+-scan-d09-160-n800
 OpenBabel09191814183D

 13 12  0  0  0  0  0  0  0  0999 V2000
   -2.4749    0.0926   -1.1045 C   0  0  0  0  0  0  0  0  0  0  0  0
   -1.7963    0.9860   -1.9244 C   0  0  0  0  0  0  0  0  0  0  0  0
   -1.8692    2.2297   -1.3759 C   0  0  0  0  0  0  0  0  0  0  0  0
   -1.9006    2.6690   -0.0879 C   0  0  0  0  0  0  0  0  0  0  0  0
   -2.5768    1.7360    0.6889 C   0  0  0  0  0  0  0  0  0  0  0  0
   -2.7847   -0.9033   -1.4034 H   0  0  0  0  0  0  0  0  0  0  0  0
   -1.4432    0.7185   -2.9171 H   0  0  0  0  0  0  0  0  0  0  0  0
    5.9311   -0.7686    1.7723 N   0  0  0  0  0  0  0  0  0  0  0  0
    6.9311   -1.0850    2.1216 N   0  0  0  0  0  0  0  0  0  0  0  0
   -2.9602    1.9274    1.6856 H   0  0  0  0  0  0  0  0  0  0  0  0
   -1.6251    3.6523    0.2845 H   0  0  0  0  0  0  0  0  0  0  0  0
   -2.8725    0.4677    0.1818 N   0  0  0  0  0  0  0  0  0  0  0  0
   -3.4809   -0.3521    0.8985 O   0  0  0  0  0  0  0  0  0  0  0  0
  1 12  1  0  0  0  0
  2  3  1  0  0  0  0
  2  1  2  0  0  0  0
  3  4  1  0  0  0  0
  4 11  1  0  0  0  0
  4  5  2  0  0  0  0
  5 10  1  0  0  0  0
  6  1  1  0  0  0  0
  7  2  1  0  0  0  0
  8  9  3  0  0  0  0
 12  5  1  0  0  0  0
 12 13  1  0  0  0  0
M  RAD  2   3   2  13   2
M  END
