Coordinates from ORCA-job N-O-Pyridine-4-N2+-scan-d09-160-n800
 OpenBabel09191814183D

 13 12  0  0  0  0  0  0  0  0999 V2000
   -2.4657    0.0873   -1.0999 C   0  0  0  0  0  0  0  0  0  0  0  0
   -1.1909    0.5097   -1.4574 C   0  0  0  0  0  0  0  0  0  0  0  0
   -0.9265    1.6890   -0.8312 C   0  0  0  0  0  0  0  0  0  0  0  0
   -1.2914    2.1930    0.3795 C   0  0  0  0  0  0  0  0  0  0  0  0
   -2.5637    1.7306    0.6934 C   0  0  0  0  0  0  0  0  0  0  0  0
   -3.0285   -0.6789   -1.6225 H   0  0  0  0  0  0  0  0  0  0  0  0
   -0.6166    0.0358   -2.2493 H   0  0  0  0  0  0  0  0  0  0  0  0
    4.7778   -0.0332    1.0437 N   0  0  0  0  0  0  0  0  0  0  0  0
    5.8142   -0.2857    1.3340 N   0  0  0  0  0  0  0  0  0  0  0  0
   -3.1974    2.1520    1.4667 H   0  0  0  0  0  0  0  0  0  0  0  0
   -0.7917    2.9698    0.9525 H   0  0  0  0  0  0  0  0  0  0  0  0
   -3.1492    0.6993   -0.0458 N   0  0  0  0  0  0  0  0  0  0  0  0
   -4.2924    0.3017    0.2561 O   0  0  0  0  0  0  0  0  0  0  0  0
  1 12  1  0  0  0  0
  2  1  2  0  0  0  0
  2  3  1  0  0  0  0
  3  4  1  0  0  0  0
  4  5  2  0  0  0  0
  4 11  1  0  0  0  0
  5 10  1  0  0  0  0
  6  1  1  0  0  0  0
  7  2  1  0  0  0  0
  8  9  3  0  0  0  0
 12 13  1  0  0  0  0
 12  5  1  0  0  0  0
M  RAD  2   3   2  13   2
M  END
