Coordinates from ORCA-job N-O-Pyridine-4-N2+-scan-d09-160-n800
 OpenBabel09191814183D

 13 12  0  0  0  0  0  0  0  0999 V2000
   -2.5703    0.3977   -1.3699 C   0  0  0  0  0  0  0  0  0  0  0  0
   -3.2179    1.2515   -2.2543 C   0  0  0  0  0  0  0  0  0  0  0  0
   -3.7724    2.2771   -1.5512 C   0  0  0  0  0  0  0  0  0  0  0  0
   -3.3865    2.9351   -0.4236 C   0  0  0  0  0  0  0  0  0  0  0  0
   -2.7350    2.0419    0.4180 C   0  0  0  0  0  0  0  0  0  0  0  0
   -2.2526   -0.6113   -1.6107 H   0  0  0  0  0  0  0  0  0  0  0  0
   -3.3818    0.9987   -3.2987 H   0  0  0  0  0  0  0  0  0  0  0  0
    8.8742   -2.2421    3.2335 N   0  0  0  0  0  0  0  0  0  0  0  0
    9.8360   -2.6151    3.6310 N   0  0  0  0  0  0  0  0  0  0  0  0
   -2.5366    2.2210    1.4695 H   0  0  0  0  0  0  0  0  0  0  0  0
   -3.6759    3.9338   -0.1066 H   0  0  0  0  0  0  0  0  0  0  0  0
   -2.3435    0.7831   -0.0459 N   0  0  0  0  0  0  0  0  0  0  0  0
   -1.7598   -0.0009    0.7289 O   0  0  0  0  0  0  0  0  0  0  0  0
  1 12  1  0  0  0  0
  2  3  1  0  0  0  0
  2  1  2  0  0  0  0
  3  4  1  0  0  0  0
  4 11  1  0  0  0  0
  4  5  2  0  0  0  0
  5 10  1  0  0  0  0
  6  1  1  0  0  0  0
  7  2  1  0  0  0  0
  8  9  3  0  0  0  0
 12  5  1  0  0  0  0
 12 13  1  0  0  0  0
M  RAD  2   3   2  13   2
M  END
