Coordinates from ORCA-job N-O-Pyridine-4-N2+-scan-d09-160-n800
 OpenBabel09191814183D

 13 12  0  0  0  0  0  0  0  0999 V2000
   -2.5212    0.2029   -1.2070 C   0  0  0  0  0  0  0  0  0  0  0  0
   -2.5170    1.2080   -2.1661 C   0  0  0  0  0  0  0  0  0  0  0  0
   -2.8548    2.3858   -1.5726 C   0  0  0  0  0  0  0  0  0  0  0  0
   -2.6232    2.8895   -0.3291 C   0  0  0  0  0  0  0  0  0  0  0  0
   -2.6250    1.8453    0.5873 C   0  0  0  0  0  0  0  0  0  0  0  0
   -2.5279   -0.8591   -1.4289 H   0  0  0  0  0  0  0  0  0  0  0  0
   -2.4325    1.0020   -3.2301 H   0  0  0  0  0  0  0  0  0  0  0  0
    7.3499   -1.4914    2.5061 N   0  0  0  0  0  0  0  0  0  0  0  0
    8.3342   -1.8310    2.8773 N   0  0  0  0  0  0  0  0  0  0  0  0
   -2.7066    1.9702    1.6619 H   0  0  0  0  0  0  0  0  0  0  0  0
   -2.6176    3.9338   -0.0274 H   0  0  0  0  0  0  0  0  0  0  0  0
   -2.5887    0.5173    0.1532 N   0  0  0  0  0  0  0  0  0  0  0  0
   -2.5917   -0.4028    0.9953 O   0  0  0  0  0  0  0  0  0  0  0  0
  1 12  1  0  0  0  0
  2  3  1  0  0  0  0
  2  1  2  0  0  0  0
  3  4  1  0  0  0  0
  4 11  1  0  0  0  0
  4  5  2  0  0  0  0
  5 10  1  0  0  0  0
  6  1  1  0  0  0  0
  7  2  1  0  0  0  0
  8  9  3  0  0  0  0
 12  5  1  0  0  0  0
 12 13  1  0  0  0  0
M  RAD  2   3   2  13   2
M  END
