Coordinates from ORCA-job N-O-Pyridine-4-N2+-scan-d09-160-n800
 OpenBabel09191814183D

 13 12  0  0  0  0  0  0  0  0999 V2000
   -2.6312    0.5354   -1.5065 C   0  0  0  0  0  0  0  0  0  0  0  0
   -3.6081    1.2076   -2.2309 C   0  0  0  0  0  0  0  0  0  0  0  0
   -4.2092    2.1202   -1.4190 C   0  0  0  0  0  0  0  0  0  0  0  0
   -3.7487    2.8807   -0.3880 C   0  0  0  0  0  0  0  0  0  0  0  0
   -2.7686    2.1692    0.2931 C   0  0  0  0  0  0  0  0  0  0  0  0
   -2.1664   -0.3944   -1.8171 H   0  0  0  0  0  0  0  0  0  0  0  0
   -3.9243    0.8914   -3.2217 H   0  0  0  0  0  0  0  0  0  0  0  0
    9.6727   -2.6257    3.6393 N   0  0  0  0  0  0  0  0  0  0  0  0
   10.6069   -3.0277    4.0727 N   0  0  0  0  0  0  0  0  0  0  0  0
   -2.4030    2.4201    1.2833 H   0  0  0  0  0  0  0  0  0  0  0  0
   -4.1695    3.8083   -0.0085 H   0  0  0  0  0  0  0  0  0  0  0  0
   -2.2258    1.0032   -0.2536 N   0  0  0  0  0  0  0  0  0  0  0  0
   -1.3470    0.3823    0.3771 O   0  0  0  0  0  0  0  0  0  0  0  0
  1 12  1  0  0  0  0
  2  1  2  0  0  0  0
  2  3  1  0  0  0  0
  3  4  1  0  0  0  0
  4 11  1  0  0  0  0
  4  5  2  0  0  0  0
  5 10  1  0  0  0  0
  6  1  1  0  0  0  0
  7  2  1  0  0  0  0
  8  9  3  0  0  0  0
 12  5  1  0  0  0  0
 12 13  1  0  0  0  0
M  RAD  2   3   2  13   2
M  END
