Coordinates from ORCA-job N-O-Pyridine-4-N2+-scan-d09-160-n800
 OpenBabel09191814183D

 13 12  0  0  0  0  0  0  0  0999 V2000
   -2.4907    0.0791   -1.0936 C   0  0  0  0  0  0  0  0  0  0  0  0
   -1.3821    0.7075   -1.6476 C   0  0  0  0  0  0  0  0  0  0  0  0
   -1.2325    1.9297   -1.0672 C   0  0  0  0  0  0  0  0  0  0  0  0
   -1.4841    2.3906    0.1887 C   0  0  0  0  0  0  0  0  0  0  0  0
   -2.5904    1.7228    0.6996 C   0  0  0  0  0  0  0  0  0  0  0  0
   -2.9860   -0.7856   -1.5227 H   0  0  0  0  0  0  0  0  0  0  0  0
   -0.8660    0.3213   -2.5229 H   0  0  0  0  0  0  0  0  0  0  0  0
    5.2387   -0.3038    1.3135 N   0  0  0  0  0  0  0  0  0  0  0  0
    6.2585   -0.5873    1.6321 N   0  0  0  0  0  0  0  0  0  0  0  0
   -3.1576    2.0457    1.5662 H   0  0  0  0  0  0  0  0  0  0  0  0
   -1.0439    3.2555    0.6783 H   0  0  0  0  0  0  0  0  0  0  0  0
   -3.0959    0.5884    0.0586 N   0  0  0  0  0  0  0  0  0  0  0  0
   -4.0901    0.0064    0.5369 O   0  0  0  0  0  0  0  0  0  0  0  0
  1 12  1  0  0  0  0
  2  1  2  0  0  0  0
  2  3  1  0  0  0  0
  3  4  1  0  0  0  0
  4 11  1  0  0  0  0
  4  5  2  0  0  0  0
  5 10  1  0  0  0  0
  6  1  1  0  0  0  0
  7  2  1  0  0  0  0
  8  9  3  0  0  0  0
 12 13  1  0  0  0  0
 12  5  1  0  0  0  0
M  RAD  2   3   2  13   2
M  END
