Coordinates from ORCA-job N-O-Pyridine-4-N2+-scan-d09-160-n800
 OpenBabel09191814183D

 13 12  0  0  0  0  0  0  0  0999 V2000
   -2.5904    0.4281   -1.4002 C   0  0  0  0  0  0  0  0  0  0  0  0
   -3.3129    1.2493   -2.2568 C   0  0  0  0  0  0  0  0  0  0  0  0
   -3.8810    2.2520   -1.5320 C   0  0  0  0  0  0  0  0  0  0  0  0
   -3.4755    2.9305   -0.4234 C   0  0  0  0  0  0  0  0  0  0  0  0
   -2.7492    2.0700    0.3904 C   0  0  0  0  0  0  0  0  0  0  0  0
   -2.2392   -0.5669   -1.6530 H   0  0  0  0  0  0  0  0  0  0  0  0
   -3.5109    0.9857   -3.2926 H   0  0  0  0  0  0  0  0  0  0  0  0
    9.0914   -2.3397    3.3372 N   0  0  0  0  0  0  0  0  0  0  0  0
   10.0487   -2.7179    3.7405 N   0  0  0  0  0  0  0  0  0  0  0  0
   -2.5132    2.2614    1.4319 H   0  0  0  0  0  0  0  0  0  0  0  0
   -3.7946    3.9167   -0.0958 H   0  0  0  0  0  0  0  0  0  0  0  0
   -2.3232    0.8279   -0.0880 N   0  0  0  0  0  0  0  0  0  0  0  0
   -1.6721    0.0732    0.6618 O   0  0  0  0  0  0  0  0  0  0  0  0
  1 12  1  0  0  0  0
  2  3  1  0  0  0  0
  2  1  2  0  0  0  0
  3  4  1  0  0  0  0
  4 11  1  0  0  0  0
  4  5  2  0  0  0  0
  5 10  1  0  0  0  0
  6  1  1  0  0  0  0
  7  2  1  0  0  0  0
  8  9  3  0  0  0  0
 12  5  1  0  0  0  0
 12 13  1  0  0  0  0
M  RAD  2   3   2  13   2
M  END
