Coordinates from ORCA-job N-O-Pyridine-4-N2+-scan-d09-160-n800
 OpenBabel09191814183D

 13 12  0  0  0  0  0  0  0  0999 V2000
   -2.2513    0.0941   -1.0944 C   0  0  0  0  0  0  0  0  0  0  0  0
   -0.8646    0.1783   -1.1383 C   0  0  0  0  0  0  0  0  0  0  0  0
   -0.4679    1.2615   -0.4167 C   0  0  0  0  0  0  0  0  0  0  0  0
   -0.9631    1.8617    0.6995 C   0  0  0  0  0  0  0  0  0  0  0  0
   -2.3474    1.7366    0.6987 C   0  0  0  0  0  0  0  0  0  0  0  0
   -2.8509   -0.5151   -1.7625 H   0  0  0  0  0  0  0  0  0  0  0  0
   -0.2594   -0.4361   -1.7996 H   0  0  0  0  0  0  0  0  0  0  0  0
    3.3362    0.4477    0.5310 N   0  0  0  0  0  0  0  0  0  0  0  0
    4.4073    0.2781    0.7446 N   0  0  0  0  0  0  0  0  0  0  0  0
   -3.0165    2.3148    1.3271 H   0  0  0  0  0  0  0  0  0  0  0  0
   -0.4311    2.4970    1.4026 H   0  0  0  0  0  0  0  0  0  0  0  0
   -2.9847    0.8731   -0.1959 N   0  0  0  0  0  0  0  0  0  0  0  0
   -4.2287    0.7787   -0.1761 O   0  0  0  0  0  0  0  0  0  0  0  0
  1 12  1  0  0  0  0
  2  1  2  0  0  0  0
  2  3  1  0  0  0  0
  3  4  1  0  0  0  0
  4 11  1  0  0  0  0
  5  4  2  0  0  0  0
  5 10  1  0  0  0  0
  6  1  1  0  0  0  0
  7  2  1  0  0  0  0
  8  9  3  0  0  0  0
 12 13  1  0  0  0  0
 12  5  1  0  0  0  0
M  RAD  2   3   2  13   2
M  END
