Coordinates from ORCA-job N-O-Pyridine-4-N2+-scan-d09-160-n800
 OpenBabel09191814183D

 13 12  0  0  0  0  0  0  0  0999 V2000
   -2.6294    0.5196   -1.4909 C   0  0  0  0  0  0  0  0  0  0  0  0
   -3.5692    1.2181   -2.2390 C   0  0  0  0  0  0  0  0  0  0  0  0
   -4.1670    2.1454   -1.4414 C   0  0  0  0  0  0  0  0  0  0  0  0
   -3.7131    2.8923   -0.3976 C   0  0  0  0  0  0  0  0  0  0  0  0
   -2.7700    2.1544    0.3072 C   0  0  0  0  0  0  0  0  0  0  0  0
   -2.1814   -0.4218   -1.7910 H   0  0  0  0  0  0  0  0  0  0  0  0
   -3.8679    0.9112   -3.2381 H   0  0  0  0  0  0  0  0  0  0  0  0
    9.6114   -2.5906    3.6027 N   0  0  0  0  0  0  0  0  0  0  0  0
   10.5499   -2.9886    4.0305 N   0  0  0  0  0  0  0  0  0  0  0  0
   -2.4235    2.3946    1.3069 H   0  0  0  0  0  0  0  0  0  0  0  0
   -4.1189    3.8303   -0.0273 H   0  0  0  0  0  0  0  0  0  0  0  0
   -2.2443    0.9750   -0.2272 N   0  0  0  0  0  0  0  0  0  0  0  0
   -1.3986    0.3305    0.4250 O   0  0  0  0  0  0  0  0  0  0  0  0
  1 12  1  0  0  0  0
  2  1  2  0  0  0  0
  2  3  1  0  0  0  0
  3  4  1  0  0  0  0
  4 11  1  0  0  0  0
  4  5  2  0  0  0  0
  5 10  1  0  0  0  0
  6  1  1  0  0  0  0
  7  2  1  0  0  0  0
  8  9  3  0  0  0  0
 12  5  1  0  0  0  0
 12 13  1  0  0  0  0
M  RAD  2   3   2  13   2
M  END
