Coordinates from ORCA-job N-O-Pyridine-4-N2+-scan-d09-160-n800
 OpenBabel09191814183D

 13 12  0  0  0  0  0  0  0  0999 V2000
   -2.4884    0.0816   -1.0958 C   0  0  0  0  0  0  0  0  0  0  0  0
   -1.3113    0.6387   -1.5810 C   0  0  0  0  0  0  0  0  0  0  0  0
   -1.1184    1.8479   -0.9863 C   0  0  0  0  0  0  0  0  0  0  0  0
   -1.4131    2.3220    0.2553 C   0  0  0  0  0  0  0  0  0  0  0  0
   -2.5878    1.7254    0.6974 C   0  0  0  0  0  0  0  0  0  0  0  0
   -3.0117   -0.7490   -1.5576 H   0  0  0  0  0  0  0  0  0  0  0  0
   -0.7700    0.2216   -2.4263 H   0  0  0  0  0  0  0  0  0  0  0  0
    5.0961   -0.2085    1.2191 N   0  0  0  0  0  0  0  0  0  0  0  0
    6.1209   -0.4831    1.5297 N   0  0  0  0  0  0  0  0  0  0  0  0
   -3.1829    2.0824    1.5313 H   0  0  0  0  0  0  0  0  0  0  0  0
   -0.9474    3.1557    0.7744 H   0  0  0  0  0  0  0  0  0  0  0  0
   -3.1263    0.6268    0.0218 N   0  0  0  0  0  0  0  0  0  0  0  0
   -4.1819    0.1089    0.4380 O   0  0  0  0  0  0  0  0  0  0  0  0
  1 12  1  0  0  0  0
  2  1  2  0  0  0  0
  2  3  1  0  0  0  0
  3  4  1  0  0  0  0
  4  5  2  0  0  0  0
  4 11  1  0  0  0  0
  5 10  1  0  0  0  0
  6  1  1  0  0  0  0
  7  2  1  0  0  0  0
  8  9  3  0  0  0  0
 12 13  1  0  0  0  0
 12  5  1  0  0  0  0
M  RAD  2   3   2  13   2
M  END
