Coordinates from ORCA-job N-O-Pyridine-4-N2+-scan-d09-160-n800
 OpenBabel09191814183D

 13 12  0  0  0  0  0  0  0  0999 V2000
   -2.4805    0.1317   -1.1403 C   0  0  0  0  0  0  0  0  0  0  0  0
   -2.1233    1.1124   -2.0578 C   0  0  0  0  0  0  0  0  0  0  0  0
   -2.3311    2.3356   -1.4979 C   0  0  0  0  0  0  0  0  0  0  0  0
   -2.2277    2.7947   -0.2206 C   0  0  0  0  0  0  0  0  0  0  0  0
   -2.5824    1.7745    0.6537 C   0  0  0  0  0  0  0  0  0  0  0  0
   -2.6474   -0.9113   -1.3882 H   0  0  0  0  0  0  0  0  0  0  0  0
   -1.8972    0.8884   -3.0971 H   0  0  0  0  0  0  0  0  0  0  0  0
    6.5196   -1.0947    2.1009 N   0  0  0  0  0  0  0  0  0  0  0  0
    7.5110   -1.4239    2.4626 N   0  0  0  0  0  0  0  0  0  0  0  0
   -2.8229    1.9183    1.7018 H   0  0  0  0  0  0  0  0  0  0  0  0
   -2.0791    3.8209    0.1053 H   0  0  0  0  0  0  0  0  0  0  0  0
   -2.7206    0.4610    0.1966 N   0  0  0  0  0  0  0  0  0  0  0  0
   -3.0405   -0.4372    1.0008 O   0  0  0  0  0  0  0  0  0  0  0  0
  1 12  1  0  0  0  0
  2  3  1  0  0  0  0
  2  1  2  0  0  0  0
  3  4  1  0  0  0  0
  4 11  1  0  0  0  0
  4  5  2  0  0  0  0
  5 10  1  0  0  0  0
  6  1  1  0  0  0  0
  7  2  1  0  0  0  0
  8  9  3  0  0  0  0
 12  5  1  0  0  0  0
 12 13  1  0  0  0  0
M  RAD  2   3   2  13   2
M  END
