Coordinates from ORCA-job N-O-Pyridine-4-N2+-scan-d09-160-n800
 OpenBabel09191814183D

 13 12  0  0  0  0  0  0  0  0999 V2000
   -2.5206    0.1995   -1.2038 C   0  0  0  0  0  0  0  0  0  0  0  0
   -2.5001    1.2050   -2.1628 C   0  0  0  0  0  0  0  0  0  0  0  0
   -2.8312    2.3850   -1.5706 C   0  0  0  0  0  0  0  0  0  0  0  0
   -2.6063    2.8870   -0.3255 C   0  0  0  0  0  0  0  0  0  0  0  0
   -2.6243    1.8419    0.5903 C   0  0  0  0  0  0  0  0  0  0  0  0
   -2.5353   -0.8623   -1.4261 H   0  0  0  0  0  0  0  0  0  0  0  0
   -2.4096    0.9990   -3.2263 H   0  0  0  0  0  0  0  0  0  0  0  0
    7.3184   -1.4754    2.4898 N   0  0  0  0  0  0  0  0  0  0  0  0
    8.3032   -1.8145    2.8605 N   0  0  0  0  0  0  0  0  0  0  0  0
   -2.7141    1.9668    1.6643 H   0  0  0  0  0  0  0  0  0  0  0  0
   -2.5948    3.9311   -0.0234 H   0  0  0  0  0  0  0  0  0  0  0  0
   -2.5952    0.5139    0.1559 N   0  0  0  0  0  0  0  0  0  0  0  0
   -2.6122   -0.4065    0.9975 O   0  0  0  0  0  0  0  0  0  0  0  0
  1 12  1  0  0  0  0
  2  3  1  0  0  0  0
  2  1  2  0  0  0  0
  3  4  1  0  0  0  0
  4 11  1  0  0  0  0
  4  5  2  0  0  0  0
  5 10  1  0  0  0  0
  6  1  1  0  0  0  0
  7  2  1  0  0  0  0
  8  9  3  0  0  0  0
 12  5  1  0  0  0  0
 12 13  1  0  0  0  0
M  RAD  2   3   2  13   2
M  END
