Coordinates from ORCA-job N-O-Pyridine-4-N2+-scan-d09-160-n800
 OpenBabel09191814183D

 13 12  0  0  0  0  0  0  0  0999 V2000
   -2.1776    0.0904   -1.0866 C   0  0  0  0  0  0  0  0  0  0  0  0
   -0.7885    0.1384   -1.0979 C   0  0  0  0  0  0  0  0  0  0  0  0
   -0.3803    1.2083   -0.3635 C   0  0  0  0  0  0  0  0  0  0  0  0
   -0.8869    1.8217    0.7400 C   0  0  0  0  0  0  0  0  0  0  0  0
   -2.2736    1.7323    0.7060 C   0  0  0  0  0  0  0  0  0  0  0  0
   -2.7767   -0.5032   -1.7689 H   0  0  0  0  0  0  0  0  0  0  0  0
   -0.1840   -0.4907   -1.7455 H   0  0  0  0  0  0  0  0  0  0  0  0
    2.9193    0.5264    0.4372 N   0  0  0  0  0  0  0  0  0  0  0  0
    3.9938    0.3672    0.6410 N   0  0  0  0  0  0  0  0  0  0  0  0
   -2.9421    2.3262    1.3202 H   0  0  0  0  0  0  0  0  0  0  0  0
   -0.3554    2.4421    1.4565 H   0  0  0  0  0  0  0  0  0  0  0  0
   -2.9119    0.8867   -0.2044 N   0  0  0  0  0  0  0  0  0  0  0  0
   -4.1582    0.8246   -0.2143 O   0  0  0  0  0  0  0  0  0  0  0  0
  1 12  1  0  0  0  0
  2  1  2  0  0  0  0
  2  3  1  0  0  0  0
  3  4  1  0  0  0  0
  4 11  1  0  0  0  0
  5  4  2  0  0  0  0
  5 10  1  0  0  0  0
  6  1  1  0  0  0  0
  7  2  1  0  0  0  0
  8  9  3  0  0  0  0
 12  5  1  0  0  0  0
 13 12  1  0  0  0  0
M  RAD  2   3   2  13   2
M  END
