Coordinates from ORCA-job N-O-Pyridine-4-N2+-scan-d09-160-n800
 OpenBabel09191814183D

 13 12  0  0  0  0  0  0  0  0999 V2000
   -2.4785    0.0847   -1.0981 C   0  0  0  0  0  0  0  0  0  0  0  0
   -1.2434    0.5677   -1.5131 C   0  0  0  0  0  0  0  0  0  0  0  0
   -1.0096    1.7611   -0.9014 C   0  0  0  0  0  0  0  0  0  0  0  0
   -1.3443    2.2510    0.3237 C   0  0  0  0  0  0  0  0  0  0  0  0
   -2.5770    1.7281    0.6952 C   0  0  0  0  0  0  0  0  0  0  0  0
   -3.0258   -0.7104   -1.5936 H   0  0  0  0  0  0  0  0  0  0  0  0
   -0.6824    0.1195   -2.3290 H   0  0  0  0  0  0  0  0  0  0  0  0
    4.9283   -0.1117    1.1228 N   0  0  0  0  0  0  0  0  0  0  0  0
    5.9592   -0.3748    1.4229 N   0  0  0  0  0  0  0  0  0  0  0  0
   -3.1955    2.1207    1.4955 H   0  0  0  0  0  0  0  0  0  0  0  0
   -0.8582    3.0536    0.8725 H   0  0  0  0  0  0  0  0  0  0  0  0
   -3.1436    0.6664   -0.0154 N   0  0  0  0  0  0  0  0  0  0  0  0
   -4.2513    0.2145    0.3379 O   0  0  0  0  0  0  0  0  0  0  0  0
  1 12  1  0  0  0  0
  2  1  2  0  0  0  0
  2  3  1  0  0  0  0
  3  4  1  0  0  0  0
  4  5  2  0  0  0  0
  4 11  1  0  0  0  0
  5 10  1  0  0  0  0
  6  1  1  0  0  0  0
  7  2  1  0  0  0  0
  8  9  3  0  0  0  0
 12 13  1  0  0  0  0
 12  5  1  0  0  0  0
M  RAD  2   3   2  13   2
M  END
