Coordinates from ORCA-job N-O-Pyridine-4-N2+-scan-d09-160-n800
 OpenBabel09191814183D

 13 12  0  0  0  0  0  0  0  0999 V2000
   -2.4860    0.0826   -1.0966 C   0  0  0  0  0  0  0  0  0  0  0  0
   -1.2881    0.6147   -1.5583 C   0  0  0  0  0  0  0  0  0  0  0  0
   -1.0809    1.8187   -0.9579 C   0  0  0  0  0  0  0  0  0  0  0  0
   -1.3892    2.2980    0.2784 C   0  0  0  0  0  0  0  0  0  0  0  0
   -2.5847    1.7261    0.6967 C   0  0  0  0  0  0  0  0  0  0  0  0
   -3.0182   -0.7357   -1.5700 H   0  0  0  0  0  0  0  0  0  0  0  0
   -0.7401    0.1874   -2.3941 H   0  0  0  0  0  0  0  0  0  0  0  0
    5.0421   -0.1757    1.1869 N   0  0  0  0  0  0  0  0  0  0  0  0
    6.0687   -0.4466    1.4945 N   0  0  0  0  0  0  0  0  0  0  0  0
   -3.1883    2.0953    1.5191 H   0  0  0  0  0  0  0  0  0  0  0  0
   -0.9164    3.1214    0.8074 H   0  0  0  0  0  0  0  0  0  0  0  0
   -3.1333    0.6399    0.0095 N   0  0  0  0  0  0  0  0  0  0  0  0
   -4.2077    0.1443    0.4045 O   0  0  0  0  0  0  0  0  0  0  0  0
  1 12  1  0  0  0  0
  2  1  2  0  0  0  0
  2  3  1  0  0  0  0
  3  4  1  0  0  0  0
  4  5  2  0  0  0  0
  4 11  1  0  0  0  0
  5 10  1  0  0  0  0
  6  1  1  0  0  0  0
  7  2  1  0  0  0  0
  8  9  3  0  0  0  0
 12 13  1  0  0  0  0
 12  5  1  0  0  0  0
M  RAD  2   3   2  13   2
M  END
