Coordinates from ORCA-job N-O-Pyridine-4-N2+-scan-d09-160-n800
 OpenBabel09191814183D

 13 12  0  0  0  0  0  0  0  0999 V2000
   -2.5738    0.3483   -1.3408 C   0  0  0  0  0  0  0  0  0  0  0  0
   -3.1046    1.2590   -2.2458 C   0  0  0  0  0  0  0  0  0  0  0  0
   -3.6034    2.3236   -1.5590 C   0  0  0  0  0  0  0  0  0  0  0  0
   -3.2165    2.9397   -0.4082 C   0  0  0  0  0  0  0  0  0  0  0  0
   -2.6829    1.9899    0.4539 C   0  0  0  0  0  0  0  0  0  0  0  0
   -2.3315   -0.6827   -1.5762 H   0  0  0  0  0  0  0  0  0  0  0  0
   -3.2401    1.0271   -3.2991 H   0  0  0  0  0  0  0  0  0  0  0  0
    8.5482   -2.0737    3.0975 N   0  0  0  0  0  0  0  0  0  0  0  0
    9.5139   -2.4390    3.4924 N   0  0  0  0  0  0  0  0  0  0  0  0
   -2.5191    2.1455    1.5151 H   0  0  0  0  0  0  0  0  0  0  0  0
   -3.4348    3.9576   -0.0956 H   0  0  0  0  0  0  0  0  0  0  0  0
   -2.3779    0.7052   -0.0037 N   0  0  0  0  0  0  0  0  0  0  0  0
   -1.8995   -0.1301    0.7894 O   0  0  0  0  0  0  0  0  0  0  0  0
  1 12  1  0  0  0  0
  2  3  1  0  0  0  0
  2  1  2  0  0  0  0
  3  4  1  0  0  0  0
  4 11  1  0  0  0  0
  4  5  2  0  0  0  0
  5 10  1  0  0  0  0
  6  1  1  0  0  0  0
  7  2  1  0  0  0  0
  8  9  3  0  0  0  0
 12  5  1  0  0  0  0
 12 13  1  0  0  0  0
M  RAD  2   3   2  13   2
M  END
