Coordinates from ORCA-job N-O-Pyridine-4-N2+-scan-d09-160-n800
 OpenBabel09191814183D

 13 12  0  0  0  0  0  0  0  0999 V2000
   -2.4887    0.0814   -1.0957 C   0  0  0  0  0  0  0  0  0  0  0  0
   -1.3153    0.6427   -1.5849 C   0  0  0  0  0  0  0  0  0  0  0  0
   -1.1248    1.8527   -0.9911 C   0  0  0  0  0  0  0  0  0  0  0  0
   -1.4171    2.3260    0.2514 C   0  0  0  0  0  0  0  0  0  0  0  0
   -2.5881    1.7252    0.6975 C   0  0  0  0  0  0  0  0  0  0  0  0
   -3.0105   -0.7512   -1.5556 H   0  0  0  0  0  0  0  0  0  0  0  0
   -0.7753    0.2274   -2.4319 H   0  0  0  0  0  0  0  0  0  0  0  0
    5.1049   -0.2140    1.2246 N   0  0  0  0  0  0  0  0  0  0  0  0
    6.1294   -0.4891    1.5357 N   0  0  0  0  0  0  0  0  0  0  0  0
   -3.1817    2.0803    1.5333 H   0  0  0  0  0  0  0  0  0  0  0  0
   -0.9527    3.1615    0.7689 H   0  0  0  0  0  0  0  0  0  0  0  0
   -3.1249    0.6246    0.0239 N   0  0  0  0  0  0  0  0  0  0  0  0
   -4.1773    0.1030    0.4437 O   0  0  0  0  0  0  0  0  0  0  0  0
  1 12  1  0  0  0  0
  2  1  2  0  0  0  0
  2  3  1  0  0  0  0
  3  4  1  0  0  0  0
  4  5  2  0  0  0  0
  4 11  1  0  0  0  0
  5 10  1  0  0  0  0
  6  1  1  0  0  0  0
  7  2  1  0  0  0  0
  8  9  3  0  0  0  0
 12 13  1  0  0  0  0
 12  5  1  0  0  0  0
M  RAD  2   3   2  13   2
M  END
