Coordinates from ORCA-job N-O-Pyridine-4-N2+-scan-d09-160-n800
 OpenBabel09191814183D

 13 12  0  0  0  0  0  0  0  0999 V2000
   -2.1611    0.0896   -1.0847 C   0  0  0  0  0  0  0  0  0  0  0  0
   -0.7717    0.1301   -1.0894 C   0  0  0  0  0  0  0  0  0  0  0  0
   -0.3608    1.1967   -0.3519 C   0  0  0  0  0  0  0  0  0  0  0  0
   -0.8701    1.8134    0.7485 C   0  0  0  0  0  0  0  0  0  0  0  0
   -2.2570    1.7313    0.7076 C   0  0  0  0  0  0  0  0  0  0  0  0
   -2.7599   -0.5009   -1.7699 H   0  0  0  0  0  0  0  0  0  0  0  0
   -0.1676   -0.5020   -1.7344 H   0  0  0  0  0  0  0  0  0  0  0  0
    2.8262    0.5427    0.4173 N   0  0  0  0  0  0  0  0  0  0  0  0
    3.9017    0.3868    0.6181 N   0  0  0  0  0  0  0  0  0  0  0  0
   -2.9252    2.3283    1.3190 H   0  0  0  0  0  0  0  0  0  0  0  0
   -0.3390    2.4309    1.4677 H   0  0  0  0  0  0  0  0  0  0  0  0
   -2.8955    0.8894   -0.2060 N   0  0  0  0  0  0  0  0  0  0  0  0
   -4.1421    0.8341   -0.2221 O   0  0  0  0  0  0  0  0  0  0  0  0
  1 12  1  0  0  0  0
  2  1  2  0  0  0  0
  2  3  1  0  0  0  0
  3  4  1  0  0  0  0
  4 11  1  0  0  0  0
  5  4  2  0  0  0  0
  5 10  1  0  0  0  0
  6  1  1  0  0  0  0
  7  2  1  0  0  0  0
  8  9  3  0  0  0  0
 12  5  1  0  0  0  0
 13 12  1  0  0  0  0
M  RAD  2   3   2  13   2
M  END
