Coordinates from ORCA-job N-O-Pyridine-4-N2+-scan-d09-160-n800
 OpenBabel09191814183D

 13 12  0  0  0  0  0  0  0  0999 V2000
   -2.5199    0.1972   -1.2017 C   0  0  0  0  0  0  0  0  0  0  0  0
   -2.4889    1.2029   -2.1603 C   0  0  0  0  0  0  0  0  0  0  0  0
   -2.8166    2.3846   -1.5694 C   0  0  0  0  0  0  0  0  0  0  0  0
   -2.5951    2.8849   -0.3230 C   0  0  0  0  0  0  0  0  0  0  0  0
   -2.6235    1.8397    0.5923 C   0  0  0  0  0  0  0  0  0  0  0  0
   -2.5390   -0.8645   -1.4244 H   0  0  0  0  0  0  0  0  0  0  0  0
   -2.3938    0.9968   -3.2233 H   0  0  0  0  0  0  0  0  0  0  0  0
    7.2966   -1.4645    2.4787 N   0  0  0  0  0  0  0  0  0  0  0  0
    8.2816   -1.8032    2.8490 N   0  0  0  0  0  0  0  0  0  0  0  0
   -2.7180    1.9648    1.6659 H   0  0  0  0  0  0  0  0  0  0  0  0
   -2.5792    3.9289   -0.0205 H   0  0  0  0  0  0  0  0  0  0  0  0
   -2.5998    0.5116    0.1577 N   0  0  0  0  0  0  0  0  0  0  0  0
   -2.6265   -0.4089    0.9989 O   0  0  0  0  0  0  0  0  0  0  0  0
  1 12  1  0  0  0  0
  2  3  1  0  0  0  0
  2  1  2  0  0  0  0
  3  4  1  0  0  0  0
  4 11  1  0  0  0  0
  4  5  2  0  0  0  0
  5 10  1  0  0  0  0
  6  1  1  0  0  0  0
  7  2  1  0  0  0  0
  8  9  3  0  0  0  0
 12  5  1  0  0  0  0
 12 13  1  0  0  0  0
M  RAD  2   3   2  13   2
M  END
