Coordinates from ORCA-job N-O-Pyridine-4-N2+-scan-d09-160-n800
 OpenBabel09191814183D

 13 12  0  0  0  0  0  0  0  0999 V2000
   -2.4838    0.0795   -1.0932 C   0  0  0  0  0  0  0  0  0  0  0  0
   -1.5737    0.8593   -1.7964 C   0  0  0  0  0  0  0  0  0  0  0  0
   -1.5352    2.1010   -1.2400 C   0  0  0  0  0  0  0  0  0  0  0  0
   -1.6773    2.5425    0.0397 C   0  0  0  0  0  0  0  0  0  0  0  0
   -2.5850    1.7232    0.6999 C   0  0  0  0  0  0  0  0  0  0  0  0
   -2.8944   -0.8592   -1.4500 H   0  0  0  0  0  0  0  0  0  0  0  0
   -1.1316    0.5398   -2.7366 H   0  0  0  0  0  0  0  0  0  0  0  0
    5.5673   -0.5334    1.5389 N   0  0  0  0  0  0  0  0  0  0  0  0
    6.5762   -0.8355    1.8749 N   0  0  0  0  0  0  0  0  0  0  0  0
   -3.0687    1.9721    1.6386 H   0  0  0  0  0  0  0  0  0  0  0  0
   -1.3123    3.4742    0.4644 H   0  0  0  0  0  0  0  0  0  0  0  0
   -2.9937    0.5125    0.1339 N   0  0  0  0  0  0  0  0  0  0  0  0
   -3.8098   -0.2054    0.7459 O   0  0  0  0  0  0  0  0  0  0  0  0
  1 12  1  0  0  0  0
  2  3  1  0  0  0  0
  2  1  2  0  0  0  0
  3  4  1  0  0  0  0
  4 11  1  0  0  0  0
  4  5  2  0  0  0  0
  5 10  1  0  0  0  0
  6  1  1  0  0  0  0
  7  2  1  0  0  0  0
  8  9  3  0  0  0  0
 12  5  1  0  0  0  0
 12 13  1  0  0  0  0
M  RAD  2   3   2  13   2
M  END
