Coordinates from ORCA-job N-O-Pyridine-4-N2+-scan-d09-160-n800
 OpenBabel09191814183D

 13 12  0  0  0  0  0  0  0  0999 V2000
   -2.4310    0.0921   -1.1025 C   0  0  0  0  0  0  0  0  0  0  0  0
   -1.1015    0.4057   -1.3580 C   0  0  0  0  0  0  0  0  0  0  0  0
   -0.7877    1.5572   -0.7036 C   0  0  0  0  0  0  0  0  0  0  0  0
   -1.2011    2.0889    0.4792 C   0  0  0  0  0  0  0  0  0  0  0  0
   -2.5283    1.7352    0.6909 C   0  0  0  0  0  0  0  0  0  0  0  0
   -3.0144   -0.6229   -1.6730 H   0  0  0  0  0  0  0  0  0  0  0  0
   -0.5098   -0.1139   -2.1073 H   0  0  0  0  0  0  0  0  0  0  0  0
    4.4711    0.1071    0.9003 N   0  0  0  0  0  0  0  0  0  0  0  0
    5.5181   -0.1227    1.1701 N   0  0  0  0  0  0  0  0  0  0  0  0
   -3.1820    2.2077    1.4166 H   0  0  0  0  0  0  0  0  0  0  0  0
   -0.6835    2.8199    1.0950 H   0  0  0  0  0  0  0  0  0  0  0  0
   -3.1398    0.7581   -0.0990 N   0  0  0  0  0  0  0  0  0  0  0  0
   -4.3323    0.4580    0.1112 O   0  0  0  0  0  0  0  0  0  0  0  0
  1 12  1  0  0  0  0
  2  1  2  0  0  0  0
  2  3  1  0  0  0  0
  3  4  1  0  0  0  0
  4  5  2  0  0  0  0
  4 11  1  0  0  0  0
  5 10  1  0  0  0  0
  6  1  1  0  0  0  0
  7  2  1  0  0  0  0
  8  9  3  0  0  0  0
 12 13  1  0  0  0  0
 12  5  1  0  0  0  0
M  RAD  2   3   2  13   2
M  END
