Coordinates from ORCA-job N-O-Pyridine-4-N2+-scan-d09-160-n800
 OpenBabel09191814183D

 13 12  0  0  0  0  0  0  0  0999 V2000
   -2.3748    0.0958   -1.1028 C   0  0  0  0  0  0  0  0  0  0  0  0
   -1.0087    0.2998   -1.2566 C   0  0  0  0  0  0  0  0  0  0  0  0
   -0.6519    1.4204   -0.5715 C   0  0  0  0  0  0  0  0  0  0  0  0
   -1.1078    1.9830    0.5809 C   0  0  0  0  0  0  0  0  0  0  0  0
   -2.4715    1.7387    0.6906 C   0  0  0  0  0  0  0  0  0  0  0  0
   -2.9703   -0.5682   -1.7206 H   0  0  0  0  0  0  0  0  0  0  0  0
   -0.4070   -0.2654   -1.9636 H   0  0  0  0  0  0  0  0  0  0  0  0
    4.0763    0.2537    0.7462 N   0  0  0  0  0  0  0  0  0  0  0  0
    5.1353    0.0519    0.9904 N   0  0  0  0  0  0  0  0  0  0  0  0
   -3.1368    2.2622    1.3691 H   0  0  0  0  0  0  0  0  0  0  0  0
   -0.5796    2.6683    1.2389 H   0  0  0  0  0  0  0  0  0  0  0  0
   -3.0999    0.8160   -0.1498 N   0  0  0  0  0  0  0  0  0  0  0  0
   -4.3253    0.6143   -0.0311 O   0  0  0  0  0  0  0  0  0  0  0  0
  1 12  1  0  0  0  0
  2  1  2  0  0  0  0
  2  3  1  0  0  0  0
  3  4  1  0  0  0  0
  4  5  2  0  0  0  0
  4 11  1  0  0  0  0
  5 10  1  0  0  0  0
  6  1  1  0  0  0  0
  7  2  1  0  0  0  0
  8  9  3  0  0  0  0
 12 13  1  0  0  0  0
 12  5  1  0  0  0  0
M  RAD  2   3   2  13   2
M  END
