Coordinates from ORCA-job N-O-Pyridine-4-N2+-scan-d09-160-n800
 OpenBabel09191814183D

 13 12  0  0  0  0  0  0  0  0999 V2000
   -2.3337    0.0964   -1.1011 C   0  0  0  0  0  0  0  0  0  0  0  0
   -0.9560    0.2470   -1.2057 C   0  0  0  0  0  0  0  0  0  0  0  0
   -0.5806    1.3516   -0.5048 C   0  0  0  0  0  0  0  0  0  0  0  0
   -1.0549    1.9303    0.6319 C   0  0  0  0  0  0  0  0  0  0  0  0
   -2.4302    1.7392    0.6922 C   0  0  0  0  0  0  0  0  0  0  0  0
   -2.9321   -0.5430   -1.7416 H   0  0  0  0  0  0  0  0  0  0  0  0
   -0.3518   -0.3402   -1.8923 H   0  0  0  0  0  0  0  0  0  0  0  0
    3.8193    0.3318    0.6617 N   0  0  0  0  0  0  0  0  0  0  0  0
    4.8840    0.1447    0.8920 N   0  0  0  0  0  0  0  0  0  0  0  0
   -3.0984    2.2873    1.3481 H   0  0  0  0  0  0  0  0  0  0  0  0
   -0.5242    2.5934    1.3101 H   0  0  0  0  0  0  0  0  0  0  0  0
   -3.0638    0.8429   -0.1725 N   0  0  0  0  0  0  0  0  0  0  0  0
   -4.2996    0.6890   -0.0981 O   0  0  0  0  0  0  0  0  0  0  0  0
  1 12  1  0  0  0  0
  2  1  2  0  0  0  0
  2  3  1  0  0  0  0
  3  4  1  0  0  0  0
  4  5  2  0  0  0  0
  4 11  1  0  0  0  0
  5 10  1  0  0  0  0
  6  1  1  0  0  0  0
  7  2  1  0  0  0  0
  8  9  3  0  0  0  0
 12 13  1  0  0  0  0
 12  5  1  0  0  0  0
M  RAD  2   3   2  13   2
M  END
