Coordinates from ORCA-job N-O-Pyridine-4-N2+-scan-d09-160-n800
 OpenBabel09191814183D

 13 12  0  0  0  0  0  0  0  0999 V2000
   -2.4803    0.0814   -1.0947 C   0  0  0  0  0  0  0  0  0  0  0  0
   -1.6297    0.8956   -1.8327 C   0  0  0  0  0  0  0  0  0  0  0  0
   -1.6213    2.1395   -1.2799 C   0  0  0  0  0  0  0  0  0  0  0  0
   -1.7336    2.5788    0.0036 C   0  0  0  0  0  0  0  0  0  0  0  0
   -2.5817    1.7251    0.6984 C   0  0  0  0  0  0  0  0  0  0  0  0
   -2.8652   -0.8743   -1.4345 H   0  0  0  0  0  0  0  0  0  0  0  0
   -1.2103    0.5916   -2.7883 H   0  0  0  0  0  0  0  0  0  0  0  0
    5.6552   -0.5945    1.5992 N   0  0  0  0  0  0  0  0  0  0  0  0
    6.6614   -0.9010    1.9391 N   0  0  0  0  0  0  0  0  0  0  0  0
   -3.0399    1.9569    1.6541 H   0  0  0  0  0  0  0  0  0  0  0  0
   -1.3914    3.5259    0.4128 H   0  0  0  0  0  0  0  0  0  0  0  0
   -2.9614    0.4970    0.1499 N   0  0  0  0  0  0  0  0  0  0  0  0
   -3.7240   -0.2517    0.7930 O   0  0  0  0  0  0  0  0  0  0  0  0
  1 12  1  0  0  0  0
  2  3  1  0  0  0  0
  2  1  2  0  0  0  0
  3  4  1  0  0  0  0
  4 11  1  0  0  0  0
  4  5  2  0  0  0  0
  5 10  1  0  0  0  0
  6  1  1  0  0  0  0
  7  2  1  0  0  0  0
  8  9  3  0  0  0  0
 12  5  1  0  0  0  0
 12 13  1  0  0  0  0
M  RAD  2   3   2  13   2
M  END
