Coordinates from ORCA-job N-O-Pyridine-4-N2+-scan-d09-160-n800
 OpenBabel09191814183D

 13 12  0  0  0  0  0  0  0  0999 V2000
   -2.1887    0.0909   -1.0878 C   0  0  0  0  0  0  0  0  0  0  0  0
   -0.7998    0.1439   -1.1035 C   0  0  0  0  0  0  0  0  0  0  0  0
   -0.3933    1.2159   -0.3711 C   0  0  0  0  0  0  0  0  0  0  0  0
   -0.8982    1.8273    0.7344 C   0  0  0  0  0  0  0  0  0  0  0  0
   -2.2846    1.7329    0.7049 C   0  0  0  0  0  0  0  0  0  0  0  0
   -2.7879   -0.5048   -1.7682 H   0  0  0  0  0  0  0  0  0  0  0  0
   -0.1950   -0.4831   -1.7530 H   0  0  0  0  0  0  0  0  0  0  0  0
    2.9815    0.5154    0.4506 N   0  0  0  0  0  0  0  0  0  0  0  0
    4.0554    0.3543    0.6561 N   0  0  0  0  0  0  0  0  0  0  0  0
   -2.9533    2.3247    1.3211 H   0  0  0  0  0  0  0  0  0  0  0  0
   -0.3665    2.4497    1.4490 H   0  0  0  0  0  0  0  0  0  0  0  0
   -2.9229    0.8849   -0.2034 N   0  0  0  0  0  0  0  0  0  0  0  0
   -4.1689    0.8184   -0.2092 O   0  0  0  0  0  0  0  0  0  0  0  0
  1 12  1  0  0  0  0
  2  1  2  0  0  0  0
  2  3  1  0  0  0  0
  3  4  1  0  0  0  0
  4 11  1  0  0  0  0
  5  4  2  0  0  0  0
  5 10  1  0  0  0  0
  6  1  1  0  0  0  0
  7  2  1  0  0  0  0
  8  9  3  0  0  0  0
 12  5  1  0  0  0  0
 13 12  1  0  0  0  0
M  RAD  2   3   2  13   2
M  END
