Coordinates from ORCA-job N-O-Pyridine-4-N2+-scan-d09-160-n800
 OpenBabel09191814183D

 13 12  0  0  0  0  0  0  0  0999 V2000
   -2.3244    0.0964   -1.1006 C   0  0  0  0  0  0  0  0  0  0  0  0
   -0.9450    0.2371   -1.1961 C   0  0  0  0  0  0  0  0  0  0  0  0
   -0.5663    1.3386   -0.4922 C   0  0  0  0  0  0  0  0  0  0  0  0
   -1.0439    1.9204    0.6416 C   0  0  0  0  0  0  0  0  0  0  0  0
   -2.4209    1.7391    0.6928 C   0  0  0  0  0  0  0  0  0  0  0  0
   -2.9231   -0.5385   -1.7452 H   0  0  0  0  0  0  0  0  0  0  0  0
   -0.3405   -0.3542   -1.8790 H   0  0  0  0  0  0  0  0  0  0  0  0
    3.7630    0.3472    0.6447 N   0  0  0  0  0  0  0  0  0  0  0  0
    4.8288    0.1629    0.8724 N   0  0  0  0  0  0  0  0  0  0  0  0
   -3.0894    2.2917    1.3445 H   0  0  0  0  0  0  0  0  0  0  0  0
   -0.5128    2.5794    1.3235 H   0  0  0  0  0  0  0  0  0  0  0  0
   -3.0551    0.8477   -0.1765 N   0  0  0  0  0  0  0  0  0  0  0  0
   -4.2925    0.7027   -0.1102 O   0  0  0  0  0  0  0  0  0  0  0  0
  1 12  1  0  0  0  0
  2  1  2  0  0  0  0
  2  3  1  0  0  0  0
  3  4  1  0  0  0  0
  4  5  2  0  0  0  0
  4 11  1  0  0  0  0
  5 10  1  0  0  0  0
  6  1  1  0  0  0  0
  7  2  1  0  0  0  0
  8  9  3  0  0  0  0
 12 13  1  0  0  0  0
 12  5  1  0  0  0  0
M  RAD  2   3   2  13   2
M  END
