Coordinates from ORCA-job N-O-Pyridine-4-N2+-scan-d09-160-n800
 OpenBabel09191814183D

 13 12  0  0  0  0  0  0  0  0999 V2000
   -2.4806    0.0841   -1.0977 C   0  0  0  0  0  0  0  0  0  0  0  0
   -1.2543    0.5795   -1.5243 C   0  0  0  0  0  0  0  0  0  0  0  0
   -1.0270    1.7756   -0.9156 C   0  0  0  0  0  0  0  0  0  0  0  0
   -1.3553    2.2628    0.3124 C   0  0  0  0  0  0  0  0  0  0  0  0
   -2.5792    1.7276    0.6955 C   0  0  0  0  0  0  0  0  0  0  0  0
   -3.0243   -0.7167   -1.5878 H   0  0  0  0  0  0  0  0  0  0  0  0
   -0.6964    0.1365   -2.3453 H   0  0  0  0  0  0  0  0  0  0  0  0
    4.9572   -0.1276    1.1388 N   0  0  0  0  0  0  0  0  0  0  0  0
    5.9870   -0.3928    1.4408 N   0  0  0  0  0  0  0  0  0  0  0  0
   -3.1941    2.1143    1.5013 H   0  0  0  0  0  0  0  0  0  0  0  0
   -0.8724    3.0706    0.8563 H   0  0  0  0  0  0  0  0  0  0  0  0
   -3.1414    0.6597   -0.0091 N   0  0  0  0  0  0  0  0  0  0  0  0
   -4.2412    0.1968    0.3546 O   0  0  0  0  0  0  0  0  0  0  0  0
  1 12  1  0  0  0  0
  2  1  2  0  0  0  0
  2  3  1  0  0  0  0
  3  4  1  0  0  0  0
  4  5  2  0  0  0  0
  4 11  1  0  0  0  0
  5 10  1  0  0  0  0
  6  1  1  0  0  0  0
  7  2  1  0  0  0  0
  8  9  3  0  0  0  0
 12 13  1  0  0  0  0
 12  5  1  0  0  0  0
M  RAD  2   3   2  13   2
M  END
