Coordinates from ORCA-job N-O-Pyridine-4-N2+-scan-d09-160-n800
 OpenBabel09191814183D

 13 12  0  0  0  0  0  0  0  0999 V2000
   -2.4676    0.0870   -1.0996 C   0  0  0  0  0  0  0  0  0  0  0  0
   -1.1977    0.5174   -1.4648 C   0  0  0  0  0  0  0  0  0  0  0  0
   -0.9372    1.6986   -0.8405 C   0  0  0  0  0  0  0  0  0  0  0  0
   -1.2982    2.2007    0.3721 C   0  0  0  0  0  0  0  0  0  0  0  0
   -2.5657    1.7303    0.6936 C   0  0  0  0  0  0  0  0  0  0  0  0
   -3.0286   -0.6831   -1.6187 H   0  0  0  0  0  0  0  0  0  0  0  0
   -0.6250    0.0468   -2.2598 H   0  0  0  0  0  0  0  0  0  0  0  0
    4.7984   -0.0436    1.0542 N   0  0  0  0  0  0  0  0  0  0  0  0
    5.8340   -0.2975    1.3458 N   0  0  0  0  0  0  0  0  0  0  0  0
   -3.1976    2.1478    1.4705 H   0  0  0  0  0  0  0  0  0  0  0  0
   -0.8002    2.9809    0.9420 H   0  0  0  0  0  0  0  0  0  0  0  0
   -3.1489    0.6949   -0.0418 N   0  0  0  0  0  0  0  0  0  0  0  0
   -4.2878    0.2902    0.2669 O   0  0  0  0  0  0  0  0  0  0  0  0
  1 12  1  0  0  0  0
  2  1  2  0  0  0  0
  2  3  1  0  0  0  0
  3  4  1  0  0  0  0
  4  5  2  0  0  0  0
  4 11  1  0  0  0  0
  5 10  1  0  0  0  0
  6  1  1  0  0  0  0
  7  2  1  0  0  0  0
  8  9  3  0  0  0  0
 12 13  1  0  0  0  0
 12  5  1  0  0  0  0
M  RAD  2   3   2  13   2
M  END
