Coordinates from ORCA-job N-O-Pyridine-4-N2+-scan-d09-160-n800
 OpenBabel09191814183D

 13 12  0  0  0  0  0  0  0  0999 V2000
   -2.2749    0.0951   -1.0967 C   0  0  0  0  0  0  0  0  0  0  0  0
   -0.8897    0.1942   -1.1541 C   0  0  0  0  0  0  0  0  0  0  0  0
   -0.4976    1.2823   -0.4373 C   0  0  0  0  0  0  0  0  0  0  0  0
   -0.9884    1.8775    0.6837 C   0  0  0  0  0  0  0  0  0  0  0  0
   -2.3712    1.7377    0.6965 C   0  0  0  0  0  0  0  0  0  0  0  0
   -2.8745   -0.5208   -1.7587 H   0  0  0  0  0  0  0  0  0  0  0  0
   -0.2845   -0.4142   -1.8211 H   0  0  0  0  0  0  0  0  0  0  0  0
    3.4719    0.4187    0.5645 N   0  0  0  0  0  0  0  0  0  0  0  0
    4.5418    0.2454    0.7817 N   0  0  0  0  0  0  0  0  0  0  0  0
   -3.0403    2.3093    1.3310 H   0  0  0  0  0  0  0  0  0  0  0  0
   -0.4564    2.5191    1.3813 H   0  0  0  0  0  0  0  0  0  0  0  0
   -3.0079    0.8669   -0.1915 N   0  0  0  0  0  0  0  0  0  0  0  0
   -4.2504    0.7592   -0.1595 O   0  0  0  0  0  0  0  0  0  0  0  0
  1 12  1  0  0  0  0
  2  1  2  0  0  0  0
  2  3  1  0  0  0  0
  3  4  1  0  0  0  0
  4  5  2  0  0  0  0
  4 11  1  0  0  0  0
  5 10  1  0  0  0  0
  6  1  1  0  0  0  0
  7  2  1  0  0  0  0
  8  9  3  0  0  0  0
 12 13  1  0  0  0  0
 12  5  1  0  0  0  0
M  RAD  2   3   2  13   2
M  END
