Coordinates from ORCA-job N-O-Pyridine-4-N2+-scan-d09-160-n800
 OpenBabel09191814183D

 13 13  0  0  1  0  0  0  0  0999 V2000
   -1.9242    0.1020   -1.0715 C   0  0  0  0  0  0  0  0  0  0  0  0
   -0.5613    0.0238   -0.9651 C   0  0  0  0  0  0  0  0  0  0  0  0
    0.0585    0.8288    0.0075 C   0  0  2  0  0  0  0  0  0  0  0  0
   -0.6587    1.6920    0.8552 C   0  0  0  0  0  0  0  0  0  0  0  0
   -2.0194    1.7323    0.7074 C   0  0  0  0  0  0  0  0  0  0  0  0
   -2.5224   -0.4616   -1.7758 H   0  0  0  0  0  0  0  0  0  0  0  0
   -0.0015   -0.6393   -1.6152 H   0  0  0  0  0  0  0  0  0  0  0  0
    1.5116    0.7656    0.1431 N   0  0  0  0  0  0  0  0  0  0  0  0
    2.6222    0.7173    0.2467 N   0  0  0  0  0  0  0  0  0  0  0  0
   -2.6865    2.3511    1.2935 H   0  0  0  0  0  0  0  0  0  0  0  0
   -0.1736    2.3098    1.6028 H   0  0  0  0  0  0  0  0  0  0  0  0
   -2.6652    0.9471   -0.2466 N   0  0  0  0  0  0  0  0  0  0  0  0
   -3.9018    1.0013   -0.3624 O   0  0  0  0  0  0  0  0  0  0  0  0
  1  2  2  0  0  0  0
  1 12  1  0  0  0  0
  2  3  1  0  0  0  0
  3  8  1  6  0  0  0
  3  4  1  0  0  0  0
  4 11  1  0  0  0  0
  5  4  2  0  0  0  0
  5 10  1  0  0  0  0
  6  1  1  0  0  0  0
  7  2  1  0  0  0  0
  8  9  1  0  0  0  0
 12  5  1  0  0  0  0
 13 12  1  0  0  0  0
M  RAD  3   8   2   9   3  13   2
M  END
