Coordinates from ORCA-job N-O-Pyridine-4-N2+-scan-d09-160-n800
 OpenBabel09191814183D

 13 12  0  0  0  0  0  0  0  0999 V2000
   -2.4841    0.0793   -1.0931 C   0  0  0  0  0  0  0  0  0  0  0  0
   -1.5687    0.8559   -1.7930 C   0  0  0  0  0  0  0  0  0  0  0  0
   -1.5275    2.0973   -1.2362 C   0  0  0  0  0  0  0  0  0  0  0  0
   -1.6723    2.5391    0.0431 C   0  0  0  0  0  0  0  0  0  0  0  0
   -2.5853    1.7230    0.7000 C   0  0  0  0  0  0  0  0  0  0  0  0
   -2.8970   -0.8578   -1.4515 H   0  0  0  0  0  0  0  0  0  0  0  0
   -1.1246    0.5349   -2.7318 H   0  0  0  0  0  0  0  0  0  0  0  0
    5.5593   -0.5278    1.5335 N   0  0  0  0  0  0  0  0  0  0  0  0
    6.5685   -0.8296    1.8691 N   0  0  0  0  0  0  0  0  0  0  0  0
   -3.0713    1.9736    1.6371 H   0  0  0  0  0  0  0  0  0  0  0  0
   -1.3052    3.4693    0.4692 H   0  0  0  0  0  0  0  0  0  0  0  0
   -2.9966    0.5140    0.1323 N   0  0  0  0  0  0  0  0  0  0  0  0
   -3.8174   -0.2009    0.7414 O   0  0  0  0  0  0  0  0  0  0  0  0
  1 12  1  0  0  0  0
  2  3  1  0  0  0  0
  2  1  2  0  0  0  0
  3  4  1  0  0  0  0
  4 11  1  0  0  0  0
  4  5  2  0  0  0  0
  5 10  1  0  0  0  0
  6  1  1  0  0  0  0
  7  2  1  0  0  0  0
  8  9  3  0  0  0  0
 12  5  1  0  0  0  0
 12 13  1  0  0  0  0
M  RAD  2   3   2  13   2
M  END
