Coordinates from ORCA-job N-O-Pyridine-4-N2+-scan-d09-160-n800
 OpenBabel09191814183D

 13 12  0  0  0  0  0  0  0  0999 V2000
   -2.4880    0.0818   -1.0959 C   0  0  0  0  0  0  0  0  0  0  0  0
   -1.3073    0.6347   -1.5771 C   0  0  0  0  0  0  0  0  0  0  0  0
   -1.1121    1.8430   -0.9815 C   0  0  0  0  0  0  0  0  0  0  0  0
   -1.4092    2.3180    0.2591 C   0  0  0  0  0  0  0  0  0  0  0  0
   -2.5874    1.7255    0.6972 C   0  0  0  0  0  0  0  0  0  0  0  0
   -3.0128   -0.7468   -1.5597 H   0  0  0  0  0  0  0  0  0  0  0  0
   -0.7648    0.2158   -2.4208 H   0  0  0  0  0  0  0  0  0  0  0  0
    5.0873   -0.2030    1.2136 N   0  0  0  0  0  0  0  0  0  0  0  0
    6.1123   -0.4771    1.5237 N   0  0  0  0  0  0  0  0  0  0  0  0
   -3.1840    2.0846    1.5293 H   0  0  0  0  0  0  0  0  0  0  0  0
   -0.9422    3.1500    0.7800 H   0  0  0  0  0  0  0  0  0  0  0  0
   -3.1276    0.6291    0.0197 N   0  0  0  0  0  0  0  0  0  0  0  0
   -4.1865    0.1148    0.4323 O   0  0  0  0  0  0  0  0  0  0  0  0
  1 12  1  0  0  0  0
  2  1  2  0  0  0  0
  2  3  1  0  0  0  0
  3  4  1  0  0  0  0
  4  5  2  0  0  0  0
  4 11  1  0  0  0  0
  5 10  1  0  0  0  0
  6  1  1  0  0  0  0
  7  2  1  0  0  0  0
  8  9  3  0  0  0  0
 12 13  1  0  0  0  0
 12  5  1  0  0  0  0
M  RAD  2   3   2  13   2
M  END
