Coordinates from ORCA-job N-O-Pyridine-4-N2+-scan-d09-160-n800
 OpenBabel09191814183D

 13 12  0  0  0  0  0  0  0  0999 V2000
   -2.4826    0.1366   -1.1449 C   0  0  0  0  0  0  0  0  0  0  0  0
   -2.1553    1.1221   -2.0684 C   0  0  0  0  0  0  0  0  0  0  0  0
   -2.3747    2.3423   -1.5064 C   0  0  0  0  0  0  0  0  0  0  0  0
   -2.2596    2.8043   -0.2312 C   0  0  0  0  0  0  0  0  0  0  0  0
   -2.5844    1.7793    0.6492 C   0  0  0  0  0  0  0  0  0  0  0  0
   -2.6362   -0.9092   -1.3895 H   0  0  0  0  0  0  0  0  0  0  0  0
   -1.9412    0.9008   -3.1108 H   0  0  0  0  0  0  0  0  0  0  0  0
    6.5824   -1.1264    2.1333 N   0  0  0  0  0  0  0  0  0  0  0  0
    7.5731   -1.4566    2.4959 N   0  0  0  0  0  0  0  0  0  0  0  0
   -2.8115    1.9202    1.7007 H   0  0  0  0  0  0  0  0  0  0  0  0
   -2.1229    3.8331    0.0918 H   0  0  0  0  0  0  0  0  0  0  0  0
   -2.7080    0.4632    0.1952 N   0  0  0  0  0  0  0  0  0  0  0  0
   -3.0011   -0.4392    1.0048 O   0  0  0  0  0  0  0  0  0  0  0  0
  1 12  1  0  0  0  0
  2  3  1  0  0  0  0
  2  1  2  0  0  0  0
  3  4  1  0  0  0  0
  4 11  1  0  0  0  0
  4  5  2  0  0  0  0
  5 10  1  0  0  0  0
  6  1  1  0  0  0  0
  7  2  1  0  0  0  0
  8  9  3  0  0  0  0
 12  5  1  0  0  0  0
 12 13  1  0  0  0  0
M  RAD  2   3   2  13   2
M  END
