Coordinates from ORCA-job N-O-Pyridine-4-N2+-scan-d09-160-n800
 OpenBabel09191814183D

 13 12  0  0  0  0  0  0  0  0999 V2000
   -2.5783    0.4102   -1.3823 C   0  0  0  0  0  0  0  0  0  0  0  0
   -3.2573    1.2508   -2.2555 C   0  0  0  0  0  0  0  0  0  0  0  0
   -3.8177    2.2669   -1.5435 C   0  0  0  0  0  0  0  0  0  0  0  0
   -3.4235    2.9334   -0.4237 C   0  0  0  0  0  0  0  0  0  0  0  0
   -2.7406    2.0534    0.4067 C   0  0  0  0  0  0  0  0  0  0  0  0
   -2.2465   -0.5932   -1.6279 H   0  0  0  0  0  0  0  0  0  0  0  0
   -3.4355    0.9936   -3.2965 H   0  0  0  0  0  0  0  0  0  0  0  0
    8.9630   -2.2822    3.2761 N   0  0  0  0  0  0  0  0  0  0  0  0
    9.9229   -2.6574    3.6760 N   0  0  0  0  0  0  0  0  0  0  0  0
   -2.5264    2.2374    1.4543 H   0  0  0  0  0  0  0  0  0  0  0  0
   -3.7253    3.9270   -0.1025 H   0  0  0  0  0  0  0  0  0  0  0  0
   -2.3345    0.8013   -0.0630 N   0  0  0  0  0  0  0  0  0  0  0  0
   -1.7225    0.0292    0.7018 O   0  0  0  0  0  0  0  0  0  0  0  0
  1 12  1  0  0  0  0
  2  3  1  0  0  0  0
  2  1  2  0  0  0  0
  3  4  1  0  0  0  0
  4 11  1  0  0  0  0
  4  5  2  0  0  0  0
  5 10  1  0  0  0  0
  6  1  1  0  0  0  0
  7  2  1  0  0  0  0
  8  9  3  0  0  0  0
 12  5  1  0  0  0  0
 12 13  1  0  0  0  0
M  RAD  2   3   2  13   2
M  END
