Coordinates from ORCA-job N-O-Pyridine-4-N2+-scan-d09-160-n800
 OpenBabel09191814183D

 13 12  0  0  0  0  0  0  0  0999 V2000
   -1.9879    0.1070   -1.0751 C   0  0  0  0  0  0  0  0  0  0  0  0
   -0.6031    0.0137   -0.9823 C   0  0  0  0  0  0  0  0  0  0  0  0
   -0.1267    0.8373   -0.0101 C   0  0  0  0  0  0  0  0  0  0  0  0
   -0.7019    1.7061    0.8643 C   0  0  0  0  0  0  0  0  0  0  0  0
   -2.0828    1.7329    0.6991 C   0  0  0  0  0  0  0  0  0  0  0  0
   -2.5748   -0.4633   -1.7848 H   0  0  0  0  0  0  0  0  0  0  0  0
   -0.0304   -0.6441   -1.6246 H   0  0  0  0  0  0  0  0  0  0  0  0
    1.8641    0.7502    0.1761 N   0  0  0  0  0  0  0  0  0  0  0  0
    2.9628    0.7021    0.2789 N   0  0  0  0  0  0  0  0  0  0  0  0
   -2.7394    2.3572    1.2928 H   0  0  0  0  0  0  0  0  0  0  0  0
   -0.2032    2.3172    1.6067 H   0  0  0  0  0  0  0  0  0  0  0  0
   -2.7280    0.9502   -0.2527 N   0  0  0  0  0  0  0  0  0  0  0  0
   -3.9708    1.0038   -0.3683 O   0  0  0  0  0  0  0  0  0  0  0  0
  1  2  2  0  0  0  0
  1 12  1  0  0  0  0
  2  3  1  0  0  0  0
  3  4  2  0  0  0  0
  4 11  1  0  0  0  0
  5  4  1  0  0  0  0
  5 10  1  0  0  0  0
  6  1  1  0  0  0  0
  7  2  1  0  0  0  0
  8  9  3  0  0  0  0
 12  5  1  0  0  0  0
 13 12  1  0  0  0  0
M  RAD  2   3   2  13   2
M  END
