Coordinates from ORCA-job N-O-Pyridine-4-N2+-scan-d09-160-n800
 OpenBabel09191814183D

 13 12  0  0  0  0  0  0  0  0999 V2000
   -2.6819    0.6414   -1.6130 C   0  0  0  0  0  0  0  0  0  0  0  0
   -3.8446    1.1466   -2.1819 C   0  0  0  0  0  0  0  0  0  0  0  0
   -4.4510    1.9729   -1.2859 C   0  0  0  0  0  0  0  0  0  0  0  0
   -3.9640    2.8122   -0.3309 C   0  0  0  0  0  0  0  0  0  0  0  0
   -2.7985    2.2680    0.1946 C   0  0  0  0  0  0  0  0  0  0  0  0
   -2.1327   -0.2135   -1.9933 H   0  0  0  0  0  0  0  0  0  0  0  0
   -4.2513    0.7688   -3.1165 H   0  0  0  0  0  0  0  0  0  0  0  0
   10.1907   -2.8849    3.9135 N   0  0  0  0  0  0  0  0  0  0  0  0
   11.1035   -3.3059    4.3736 N   0  0  0  0  0  0  0  0  0  0  0  0
   -2.3336    2.5887    1.1209 H   0  0  0  0  0  0  0  0  0  0  0  0
   -4.4595    3.6729    0.1109 H   0  0  0  0  0  0  0  0  0  0  0  0
   -2.1723    1.1869   -0.4316 N   0  0  0  0  0  0  0  0  0  0  0  0
   -1.1269    0.7162    0.0594 O   0  0  0  0  0  0  0  0  0  0  0  0
  1 12  1  0  0  0  0
  2  1  2  0  0  0  0
  2  3  1  0  0  0  0
  3  4  1  0  0  0  0
  4 11  1  0  0  0  0
  4  5  2  0  0  0  0
  5 10  1  0  0  0  0
  6  1  1  0  0  0  0
  7  2  1  0  0  0  0
  8  9  3  0  0  0  0
 12 13  1  0  0  0  0
 12  5  1  0  0  0  0
M  RAD  2   3   2  13   2
M  END
