Coordinates from ORCA-job N-O-Pyridine-4-N2+-scan-d09-160-n800
 OpenBabel09191814183D

 13 12  0  0  0  0  0  0  0  0999 V2000
   -2.5661    0.3907   -1.3629 C   0  0  0  0  0  0  0  0  0  0  0  0
   -3.1950    1.2518   -2.2534 C   0  0  0  0  0  0  0  0  0  0  0  0
   -3.7460    2.2828   -1.5555 C   0  0  0  0  0  0  0  0  0  0  0  0
   -3.3651    2.9360   -0.4234 C   0  0  0  0  0  0  0  0  0  0  0  0
   -2.7322    2.0354    0.4244 C   0  0  0  0  0  0  0  0  0  0  0  0
   -2.2566   -0.6216   -1.6010 H   0  0  0  0  0  0  0  0  0  0  0  0
   -3.3506    1.0014   -3.2997 H   0  0  0  0  0  0  0  0  0  0  0  0
    8.8240   -2.2192    3.2092 N   0  0  0  0  0  0  0  0  0  0  0  0
    9.7868   -2.5910    3.6053 N   0  0  0  0  0  0  0  0  0  0  0  0
   -2.5430    2.2117    1.4781 H   0  0  0  0  0  0  0  0  0  0  0  0
   -3.6472    3.9375   -0.1088 H   0  0  0  0  0  0  0  0  0  0  0  0
   -2.3491    0.7728   -0.0362 N   0  0  0  0  0  0  0  0  0  0  0  0
   -1.7820   -0.0179    0.7441 O   0  0  0  0  0  0  0  0  0  0  0  0
  1 12  1  0  0  0  0
  2  3  1  0  0  0  0
  2  1  2  0  0  0  0
  3  4  1  0  0  0  0
  4 11  1  0  0  0  0
  4  5  2  0  0  0  0
  5 10  1  0  0  0  0
  6  1  1  0  0  0  0
  7  2  1  0  0  0  0
  8  9  3  0  0  0  0
 12  5  1  0  0  0  0
 12 13  1  0  0  0  0
M  RAD  2   3   2  13   2
M  END
