Coordinates from ORCA-job N-O-Pyridine-4-N2+-scan-d09-160-n800
 OpenBabel09191814183D

 13 13  0  0  0  0  0  0  0  0999 V2000
   -1.8825    0.0987   -1.0693 C   0  0  0  0  0  0  0  0  0  0  0  0
   -0.5327    0.0241   -0.9607 C   0  0  0  0  0  0  0  0  0  0  0  0
    0.1925    0.8228    0.0202 C   0  0  0  0  0  0  0  0  0  0  0  0
   -0.6299    1.6892    0.8562 C   0  0  0  0  0  0  0  0  0  0  0  0
   -1.9778    1.7320    0.7130 C   0  0  0  0  0  0  0  0  0  0  0  0
   -2.4798   -0.4661   -1.7747 H   0  0  0  0  0  0  0  0  0  0  0  0
    0.0284   -0.6397   -1.6114 H   0  0  0  0  0  0  0  0  0  0  0  0
    1.2472    0.7771    0.1185 N   0  0  0  0  0  0  0  0  0  0  0  0
    2.3842    0.7279    0.2244 N   0  0  0  0  0  0  0  0  0  0  0  0
   -2.6442    2.3520    1.3002 H   0  0  0  0  0  0  0  0  0  0  0  0
   -0.1435    2.3076    1.6047 H   0  0  0  0  0  0  0  0  0  0  0  0
   -2.6274    0.9456   -0.2431 N   0  0  0  0  0  0  0  0  0  0  0  0
   -3.8567    0.9993   -0.3581 O   0  0  0  0  0  0  0  0  0  0  0  0
  1  2  2  0  0  0  0
  1 12  1  0  0  0  0
  2  3  1  0  0  0  0
  3  8  1  0  0  0  0
  3  4  2  0  0  0  0
  4 11  1  0  0  0  0
  5  4  1  0  0  0  0
  5 10  1  0  0  0  0
  6  1  1  0  0  0  0
  7  2  1  0  0  0  0
  8  9  1  0  0  0  0
 12  5  1  0  0  0  0
 13 12  1  0  0  0  0
M  RAD  3   8   2   9   3  13   2
M  END
