Coordinates from ORCA-job N-O-Pyridine-4-N2+-scan-d09-160-n800
 OpenBabel09191814183D

 13 12  0  0  0  0  0  0  0  0999 V2000
   -2.0925    0.0875   -1.0772 C   0  0  0  0  0  0  0  0  0  0  0  0
   -0.7030    0.0950   -1.0536 C   0  0  0  0  0  0  0  0  0  0  0  0
   -0.2762    1.1433   -0.2984 C   0  0  0  0  0  0  0  0  0  0  0  0
   -0.8014    1.7784    0.7843 C   0  0  0  0  0  0  0  0  0  0  0  0
   -2.1883    1.7272    0.7130 C   0  0  0  0  0  0  0  0  0  0  0  0
   -2.6897   -0.4904   -1.7742 H   0  0  0  0  0  0  0  0  0  0  0  0
   -0.1032   -0.5496   -1.6892 H   0  0  0  0  0  0  0  0  0  0  0  0
    2.4406    0.6044    0.3404 N   0  0  0  0  0  0  0  0  0  0  0  0
    3.5237    0.4755    0.5166 N   0  0  0  0  0  0  0  0  0  0  0  0
   -2.8549    2.3372    1.3130 H   0  0  0  0  0  0  0  0  0  0  0  0
   -0.2746    2.3850    1.5149 H   0  0  0  0  0  0  0  0  0  0  0  0
   -2.8276    0.9013   -0.2133 N   0  0  0  0  0  0  0  0  0  0  0  0
   -4.0749    0.8756   -0.2565 O   0  0  0  0  0  0  0  0  0  0  0  0
  1  2  2  0  0  0  0
  1 12  1  0  0  0  0
  2  3  1  0  0  0  0
  3  4  1  0  0  0  0
  4 11  1  0  0  0  0
  5  4  2  0  0  0  0
  5 10  1  0  0  0  0
  6  1  1  0  0  0  0
  7  2  1  0  0  0  0
  8  9  3  0  0  0  0
 12  5  1  0  0  0  0
 13 12  1  0  0  0  0
M  RAD  2   3   2  13   2
M  END
