Coordinates from ORCA-job N-O-Pyridine-4-N2+-scan-d09-160-n800
 OpenBabel09191814183D

 13 12  0  0  0  0  0  0  0  0999 V2000
   -2.4103    0.0940   -1.1030 C   0  0  0  0  0  0  0  0  0  0  0  0
   -1.0629    0.3605   -1.3148 C   0  0  0  0  0  0  0  0  0  0  0  0
   -0.7299    1.4991   -0.6476 C   0  0  0  0  0  0  0  0  0  0  0  0
   -1.1622    2.0438    0.5225 C   0  0  0  0  0  0  0  0  0  0  0  0
   -2.5073    1.7369    0.6904 C   0  0  0  0  0  0  0  0  0  0  0  0
   -2.9998   -0.5991   -1.6939 H   0  0  0  0  0  0  0  0  0  0  0  0
   -0.4660   -0.1787   -2.0459 H   0  0  0  0  0  0  0  0  0  0  0  0
    4.3165    0.1687    0.8362 N   0  0  0  0  0  0  0  0  0  0  0  0
    5.3686   -0.0497    1.0956 N   0  0  0  0  0  0  0  0  0  0  0  0
   -3.1669    2.2314    1.3957 H   0  0  0  0  0  0  0  0  0  0  0  0
   -0.6392    2.7551    1.1565 H   0  0  0  0  0  0  0  0  0  0  0  0
   -3.1271    0.7832   -0.1213 N   0  0  0  0  0  0  0  0  0  0  0  0
   -4.3356    0.5253    0.0496 O   0  0  0  0  0  0  0  0  0  0  0  0
  1 12  1  0  0  0  0
  2  1  2  0  0  0  0
  2  3  1  0  0  0  0
  3  4  1  0  0  0  0
  4  5  2  0  0  0  0
  4 11  1  0  0  0  0
  5 10  1  0  0  0  0
  6  1  1  0  0  0  0
  7  2  1  0  0  0  0
  8  9  3  0  0  0  0
 12 13  1  0  0  0  0
 12  5  1  0  0  0  0
M  RAD  2   3   2  13   2
M  END
