Coordinates from ORCA-job N-O-Pyridine-4-N2+-scan-d09-160-n800
 OpenBabel09191814183D

 13 12  0  0  0  0  0  0  0  0999 V2000
   -2.5243    0.2109   -1.2144 C   0  0  0  0  0  0  0  0  0  0  0  0
   -2.5566    1.2148   -2.1749 C   0  0  0  0  0  0  0  0  0  0  0  0
   -2.9053    2.3862   -1.5757 C   0  0  0  0  0  0  0  0  0  0  0  0
   -2.6626    2.8966   -0.3374 C   0  0  0  0  0  0  0  0  0  0  0  0
   -2.6279    1.8532    0.5798 C   0  0  0  0  0  0  0  0  0  0  0  0
   -2.5150   -0.8513   -1.4350 H   0  0  0  0  0  0  0  0  0  0  0  0
   -2.4877    1.0094   -3.2401 H   0  0  0  0  0  0  0  0  0  0  0  0
    7.4277   -1.5298    2.5454 N   0  0  0  0  0  0  0  0  0  0  0  0
    8.4111   -1.8708    2.9178 N   0  0  0  0  0  0  0  0  0  0  0  0
   -2.6935    1.9775    1.6556 H   0  0  0  0  0  0  0  0  0  0  0  0
   -2.6726    3.9412   -0.0369 H   0  0  0  0  0  0  0  0  0  0  0  0
   -2.5728    0.5257    0.1464 N   0  0  0  0  0  0  0  0  0  0  0  0
   -2.5426   -0.3933    0.9892 O   0  0  0  0  0  0  0  0  0  0  0  0
  1 12  1  0  0  0  0
  2  3  1  0  0  0  0
  2  1  2  0  0  0  0
  3  4  1  0  0  0  0
  4 11  1  0  0  0  0
  4  5  2  0  0  0  0
  5 10  1  0  0  0  0
  6  1  1  0  0  0  0
  7  2  1  0  0  0  0
  8  9  3  0  0  0  0
 12  5  1  0  0  0  0
 12 13  1  0  0  0  0
M  RAD  2   3   2  13   2
M  END
