Coordinates from ORCA-job N-O-Pyridine-4-N2+-scan-d09-160-n800
 OpenBabel09191814183D

 13 12  0  0  0  0  0  0  0  0999 V2000
   -2.4961    0.1575   -1.1647 C   0  0  0  0  0  0  0  0  0  0  0  0
   -2.2801    1.1563   -2.1065 C   0  0  0  0  0  0  0  0  0  0  0  0
   -2.5412    2.3639   -1.5351 C   0  0  0  0  0  0  0  0  0  0  0  0
   -2.3839    2.8382   -0.2690 C   0  0  0  0  0  0  0  0  0  0  0  0
   -2.5975    1.7999    0.6297 C   0  0  0  0  0  0  0  0  0  0  0  0
   -2.5997   -0.8969   -1.3988 H   0  0  0  0  0  0  0  0  0  0  0  0
   -2.1109    0.9432   -3.1588 H   0  0  0  0  0  0  0  0  0  0  0  0
    6.8460   -1.2519    2.2621 N   0  0  0  0  0  0  0  0  0  0  0  0
    7.8341   -1.5859    2.6283 N   0  0  0  0  0  0  0  0  0  0  0  0
   -2.7743    1.9322    1.6919 H   0  0  0  0  0  0  0  0  0  0  0  0
   -2.2918    3.8750    0.0442 H   0  0  0  0  0  0  0  0  0  0  0  0
   -2.6667    0.4766    0.1852 N   0  0  0  0  0  0  0  0  0  0  0  0
   -2.8598   -0.4377    1.0113 O   0  0  0  0  0  0  0  0  0  0  0  0
  1 12  1  0  0  0  0
  2  3  1  0  0  0  0
  2  1  2  0  0  0  0
  3  4  1  0  0  0  0
  4 11  1  0  0  0  0
  4  5  2  0  0  0  0
  5 10  1  0  0  0  0
  6  1  1  0  0  0  0
  7  2  1  0  0  0  0
  8  9  3  0  0  0  0
 12  5  1  0  0  0  0
 12 13  1  0  0  0  0
M  RAD  2   3   2  13   2
M  END
