Coordinates from ORCA-job N-O-Pyridine-4-N2+-scan-d09-160-n800
 OpenBabel09191814183D

 13 12  0  0  0  0  0  0  0  0999 V2000
   -2.4906    0.0801   -1.0945 C   0  0  0  0  0  0  0  0  0  0  0  0
   -1.3521    0.6790   -1.6200 C   0  0  0  0  0  0  0  0  0  0  0  0
   -1.1841    1.8961   -1.0339 C   0  0  0  0  0  0  0  0  0  0  0  0
   -1.4540    2.3622    0.2163 C   0  0  0  0  0  0  0  0  0  0  0  0
   -2.5901    1.7238    0.6987 C   0  0  0  0  0  0  0  0  0  0  0  0
   -2.9982   -0.7704   -1.5372 H   0  0  0  0  0  0  0  0  0  0  0  0
   -0.8251    0.2801   -2.4830 H   0  0  0  0  0  0  0  0  0  0  0  0
    5.1818   -0.2643    1.2745 N   0  0  0  0  0  0  0  0  0  0  0  0
    6.2037   -0.5441    1.5898 N   0  0  0  0  0  0  0  0  0  0  0  0
   -3.1696    2.0609    1.5517 H   0  0  0  0  0  0  0  0  0  0  0  0
   -1.0028    3.2143    0.7181 H   0  0  0  0  0  0  0  0  0  0  0  0
   -3.1100    0.6042    0.0434 N   0  0  0  0  0  0  0  0  0  0  0  0
   -4.1309    0.0486    0.4960 O   0  0  0  0  0  0  0  0  0  0  0  0
  1 12  1  0  0  0  0
  2  1  2  0  0  0  0
  2  3  1  0  0  0  0
  3  4  1  0  0  0  0
  4  5  2  0  0  0  0
  4 11  1  0  0  0  0
  5 10  1  0  0  0  0
  6  1  1  0  0  0  0
  7  2  1  0  0  0  0
  8  9  3  0  0  0  0
 12 13  1  0  0  0  0
 12  5  1  0  0  0  0
M  RAD  2   3   2  13   2
M  END
