Coordinates from ORCA-job N-O-Pyridine-4-N2+-scan-d09-160-n800
 OpenBabel09191814183D

 13 12  0  0  0  0  0  0  0  0999 V2000
   -2.6308    0.5323   -1.5033 C   0  0  0  0  0  0  0  0  0  0  0  0
   -3.6004    1.2097   -2.2325 C   0  0  0  0  0  0  0  0  0  0  0  0
   -4.2012    2.1253   -1.4235 C   0  0  0  0  0  0  0  0  0  0  0  0
   -3.7416    2.8830   -0.3900 C   0  0  0  0  0  0  0  0  0  0  0  0
   -2.7687    2.1661    0.2958 C   0  0  0  0  0  0  0  0  0  0  0  0
   -2.1691   -0.3998   -1.8119 H   0  0  0  0  0  0  0  0  0  0  0  0
   -3.9131    0.8953   -3.2249 H   0  0  0  0  0  0  0  0  0  0  0  0
    9.6601   -2.6186    3.6319 N   0  0  0  0  0  0  0  0  0  0  0  0
   10.5951   -3.0198    4.0642 N   0  0  0  0  0  0  0  0  0  0  0  0
   -2.4068    2.4150    1.2879 H   0  0  0  0  0  0  0  0  0  0  0  0
   -4.1594    3.8126   -0.0121 H   0  0  0  0  0  0  0  0  0  0  0  0
   -2.2293    0.9975   -0.2483 N   0  0  0  0  0  0  0  0  0  0  0  0
   -1.3569    0.3718    0.3868 O   0  0  0  0  0  0  0  0  0  0  0  0
  1 12  1  0  0  0  0
  2  1  2  0  0  0  0
  2  3  1  0  0  0  0
  3  4  1  0  0  0  0
  4 11  1  0  0  0  0
  4  5  2  0  0  0  0
  5 10  1  0  0  0  0
  6  1  1  0  0  0  0
  7  2  1  0  0  0  0
  8  9  3  0  0  0  0
 12  5  1  0  0  0  0
 12 13  1  0  0  0  0
M  RAD  2   3   2  13   2
M  END
