Coordinates from ORCA-job N-O-Pyridine-4-N2+-scan-d09-160-n800
 OpenBabel09191814183D

 13 12  0  0  0  0  0  0  0  0999 V2000
   -2.3625    0.0962   -1.1025 C   0  0  0  0  0  0  0  0  0  0  0  0
   -0.9920    0.2821   -1.2396 C   0  0  0  0  0  0  0  0  0  0  0  0
   -0.6287    1.3974   -0.5493 C   0  0  0  0  0  0  0  0  0  0  0  0
   -1.0910    1.9654    0.5979 C   0  0  0  0  0  0  0  0  0  0  0  0
   -2.4591    1.7390    0.6909 C   0  0  0  0  0  0  0  0  0  0  0  0
   -2.9591   -0.5595   -1.7279 H   0  0  0  0  0  0  0  0  0  0  0  0
   -0.3893   -0.2905   -1.9398 H   0  0  0  0  0  0  0  0  0  0  0  0
    3.9970    0.2792    0.7189 N   0  0  0  0  0  0  0  0  0  0  0  0
    5.0579    0.0823    0.9585 N   0  0  0  0  0  0  0  0  0  0  0  0
   -3.1255    2.2708    1.3618 H   0  0  0  0  0  0  0  0  0  0  0  0
   -0.5618    2.6432    1.2627 H   0  0  0  0  0  0  0  0  0  0  0  0
   -3.0894    0.8252   -0.1577 N   0  0  0  0  0  0  0  0  0  0  0  0
   -4.3187    0.6396   -0.0539 O   0  0  0  0  0  0  0  0  0  0  0  0
  1 12  1  0  0  0  0
  2  1  2  0  0  0  0
  2  3  1  0  0  0  0
  3  4  1  0  0  0  0
  4  5  2  0  0  0  0
  4 11  1  0  0  0  0
  5 10  1  0  0  0  0
  6  1  1  0  0  0  0
  7  2  1  0  0  0  0
  8  9  3  0  0  0  0
 12 13  1  0  0  0  0
 12  5  1  0  0  0  0
M  RAD  2   3   2  13   2
M  END
