Coordinates from ORCA-job N-O-Pyridine-4-N2+-scan-d09-160-n800
 OpenBabel09191814183D

 13 12  0  0  0  0  0  0  0  0999 V2000
   -2.4905    0.0802   -1.0946 C   0  0  0  0  0  0  0  0  0  0  0  0
   -1.3480    0.6750   -1.6161 C   0  0  0  0  0  0  0  0  0  0  0  0
   -1.1775    1.8914   -1.0293 C   0  0  0  0  0  0  0  0  0  0  0  0
   -1.4498    2.3582    0.2202 C   0  0  0  0  0  0  0  0  0  0  0  0
   -2.5900    1.7239    0.6986 C   0  0  0  0  0  0  0  0  0  0  0  0
   -2.9996   -0.7685   -1.5391 H   0  0  0  0  0  0  0  0  0  0  0  0
   -0.8191    0.2742   -2.4770 H   0  0  0  0  0  0  0  0  0  0  0  0
    5.1733   -0.2586    1.2689 N   0  0  0  0  0  0  0  0  0  0  0  0
    6.1955   -0.5378    1.5837 N   0  0  0  0  0  0  0  0  0  0  0  0
   -3.1710    2.0629    1.5498 H   0  0  0  0  0  0  0  0  0  0  0  0
   -0.9967    3.2082    0.7238 H   0  0  0  0  0  0  0  0  0  0  0  0
   -3.1120    0.6065    0.0411 N   0  0  0  0  0  0  0  0  0  0  0  0
   -4.1367    0.0548    0.4900 O   0  0  0  0  0  0  0  0  0  0  0  0
  1 12  1  0  0  0  0
  2  1  2  0  0  0  0
  2  3  1  0  0  0  0
  3  4  1  0  0  0  0
  4  5  2  0  0  0  0
  4 11  1  0  0  0  0
  5 10  1  0  0  0  0
  6  1  1  0  0  0  0
  7  2  1  0  0  0  0
  8  9  3  0  0  0  0
 12 13  1  0  0  0  0
 12  5  1  0  0  0  0
M  RAD  2   3   2  13   2
M  END
