Coordinates from ORCA-job N-O-Pyridine-4-N2+-scan-d09-160-n800
 OpenBabel09191814183D

 13 12  0  0  0  0  0  0  0  0999 V2000
   -2.4695    0.0866   -1.0994 C   0  0  0  0  0  0  0  0  0  0  0  0
   -1.2046    0.5251   -1.4722 C   0  0  0  0  0  0  0  0  0  0  0  0
   -0.9481    1.7082   -0.8499 C   0  0  0  0  0  0  0  0  0  0  0  0
   -1.3051    2.2084    0.3648 C   0  0  0  0  0  0  0  0  0  0  0  0
   -2.5677    1.7299    0.6939 C   0  0  0  0  0  0  0  0  0  0  0  0
   -3.0285   -0.6873   -1.6149 H   0  0  0  0  0  0  0  0  0  0  0  0
   -0.6335    0.0579   -2.2704 H   0  0  0  0  0  0  0  0  0  0  0  0
    4.8189   -0.0539    1.0647 N   0  0  0  0  0  0  0  0  0  0  0  0
    5.8537   -0.3093    1.3577 N   0  0  0  0  0  0  0  0  0  0  0  0
   -3.1976    2.1437    1.4743 H   0  0  0  0  0  0  0  0  0  0  0  0
   -0.8088    2.9920    0.9314 H   0  0  0  0  0  0  0  0  0  0  0  0
   -3.1485    0.6906   -0.0377 N   0  0  0  0  0  0  0  0  0  0  0  0
   -4.2829    0.2786    0.2777 O   0  0  0  0  0  0  0  0  0  0  0  0
  1 12  1  0  0  0  0
  2  1  2  0  0  0  0
  2  3  1  0  0  0  0
  3  4  1  0  0  0  0
  4  5  2  0  0  0  0
  4 11  1  0  0  0  0
  5 10  1  0  0  0  0
  6  1  1  0  0  0  0
  7  2  1  0  0  0  0
  8  9  3  0  0  0  0
 12 13  1  0  0  0  0
 12  5  1  0  0  0  0
M  RAD  2   3   2  13   2
M  END
