Coordinates from ORCA-job N-O-Pyridine-4-N2+-scan-d09-160-n800
 OpenBabel09191814183D

 13 12  0  0  0  0  0  0  0  0999 V2000
   -2.4560    0.0889   -1.1008 C   0  0  0  0  0  0  0  0  0  0  0  0
   -1.1611    0.4755   -1.4247 C   0  0  0  0  0  0  0  0  0  0  0  0
   -0.8796    1.6460   -0.7894 C   0  0  0  0  0  0  0  0  0  0  0  0
   -1.2613    2.1588    0.4124 C   0  0  0  0  0  0  0  0  0  0  0  0
   -2.5539    1.7322    0.6925 C   0  0  0  0  0  0  0  0  0  0  0  0
   -3.0266   -0.6604   -1.6394 H   0  0  0  0  0  0  0  0  0  0  0  0
   -0.5801   -0.0136   -2.2024 H   0  0  0  0  0  0  0  0  0  0  0  0
    4.6831    0.0129    0.9969 N   0  0  0  0  0  0  0  0  0  0  0  0
    5.7228   -0.2327    1.2809 N   0  0  0  0  0  0  0  0  0  0  0  0
   -3.1952    2.1704    1.4499 H   0  0  0  0  0  0  0  0  0  0  0  0
   -0.7548    2.9205    0.9996 H   0  0  0  0  0  0  0  0  0  0  0  0
   -3.1490    0.7187   -0.0635 N   0  0  0  0  0  0  0  0  0  0  0  0
   -4.3104    0.3532    0.2080 O   0  0  0  0  0  0  0  0  0  0  0  0
  1 12  1  0  0  0  0
  2  1  2  0  0  0  0
  2  3  1  0  0  0  0
  3  4  1  0  0  0  0
  4  5  2  0  0  0  0
  4 11  1  0  0  0  0
  5 10  1  0  0  0  0
  6  1  1  0  0  0  0
  7  2  1  0  0  0  0
  8  9  3  0  0  0  0
 12 13  1  0  0  0  0
 12  5  1  0  0  0  0
M  RAD  2   3   2  13   2
M  END
