Coordinates from ORCA-job N-O-Pyridine-4-N2+-scan-d09-160-n800
 OpenBabel09191814183D

 13 12  0  0  0  0  0  0  0  0999 V2000
   -2.6290    0.5133   -1.4847 C   0  0  0  0  0  0  0  0  0  0  0  0
   -3.5534    1.2221   -2.2421 C   0  0  0  0  0  0  0  0  0  0  0  0
   -4.1496    2.1553   -1.4502 C   0  0  0  0  0  0  0  0  0  0  0  0
   -3.6987    2.8969   -0.4013 C   0  0  0  0  0  0  0  0  0  0  0  0
   -2.7708    2.1486    0.3129 C   0  0  0  0  0  0  0  0  0  0  0  0
   -2.1878   -0.4327   -1.7808 H   0  0  0  0  0  0  0  0  0  0  0  0
   -3.8450    0.9190   -3.2445 H   0  0  0  0  0  0  0  0  0  0  0  0
    9.5875   -2.5768    3.5882 N   0  0  0  0  0  0  0  0  0  0  0  0
   10.5276   -2.9731    4.0138 N   0  0  0  0  0  0  0  0  0  0  0  0
   -2.4322    2.3846    1.3163 H   0  0  0  0  0  0  0  0  0  0  0  0
   -4.0983    3.8389   -0.0346 H   0  0  0  0  0  0  0  0  0  0  0  0
   -2.2522    0.9640   -0.2168 N   0  0  0  0  0  0  0  0  0  0  0  0
   -1.4203    0.3101    0.4437 O   0  0  0  0  0  0  0  0  0  0  0  0
  1 12  1  0  0  0  0
  2  1  2  0  0  0  0
  2  3  1  0  0  0  0
  3  4  1  0  0  0  0
  4 11  1  0  0  0  0
  4  5  2  0  0  0  0
  5 10  1  0  0  0  0
  6  1  1  0  0  0  0
  7  2  1  0  0  0  0
  8  9  3  0  0  0  0
 12  5  1  0  0  0  0
 12 13  1  0  0  0  0
M  RAD  2   3   2  13   2
M  END
