Coordinates from ORCA-job N-O-Pyridine-4-N2+-scan-d09-160-n800
 OpenBabel09191814183D

 13 12  0  0  0  0  0  0  0  0999 V2000
   -2.1308    0.0885   -1.0814 C   0  0  0  0  0  0  0  0  0  0  0  0
   -0.7412    0.1145   -1.0735 C   0  0  0  0  0  0  0  0  0  0  0  0
   -0.3244    1.1743   -0.3293 C   0  0  0  0  0  0  0  0  0  0  0  0
   -0.8396    1.7979    0.7644 C   0  0  0  0  0  0  0  0  0  0  0  0
   -2.2267    1.7295    0.7102 C   0  0  0  0  0  0  0  0  0  0  0  0
   -2.7291   -0.4963   -1.7719 H   0  0  0  0  0  0  0  0  0  0  0  0
   -0.1383   -0.5231   -1.7139 H   0  0  0  0  0  0  0  0  0  0  0  0
    2.6561    0.5718    0.3817 N   0  0  0  0  0  0  0  0  0  0  0  0
    3.7341    0.4243    0.5748 N   0  0  0  0  0  0  0  0  0  0  0  0
   -2.8943    2.3324    1.3164 H   0  0  0  0  0  0  0  0  0  0  0  0
   -0.3097    2.4101    1.4886 H   0  0  0  0  0  0  0  0  0  0  0  0
   -2.8655    0.8946   -0.2092 N   0  0  0  0  0  0  0  0  0  0  0  0
   -4.1126    0.8521   -0.2370 O   0  0  0  0  0  0  0  0  0  0  0  0
  1  2  2  0  0  0  0
  1 12  1  0  0  0  0
  2  3  1  0  0  0  0
  3  4  1  0  0  0  0
  4 11  1  0  0  0  0
  5  4  2  0  0  0  0
  5 10  1  0  0  0  0
  6  1  1  0  0  0  0
  7  2  1  0  0  0  0
  8  9  3  0  0  0  0
 12  5  1  0  0  0  0
 13 12  1  0  0  0  0
M  RAD  2   3   2  13   2
M  END
