Coordinates from ORCA-job N-O-Pyridine-4-N2+-scan-d09-160-n800
 OpenBabel09191814183D

 13 12  0  0  0  0  0  0  0  0999 V2000
   -2.6176    0.4642   -1.4366 C   0  0  0  0  0  0  0  0  0  0  0  0
   -3.4209    1.2454   -2.2580 C   0  0  0  0  0  0  0  0  0  0  0  0
   -4.0017    2.2218   -1.5078 C   0  0  0  0  0  0  0  0  0  0  0  0
   -3.5764    2.9239   -0.4216 C   0  0  0  0  0  0  0  0  0  0  0  0
   -2.7695    2.1036    0.3570 C   0  0  0  0  0  0  0  0  0  0  0  0
   -2.2306   -0.5132   -1.7046 H   0  0  0  0  0  0  0  0  0  0  0  0
   -3.6561    0.9681   -3.2824 H   0  0  0  0  0  0  0  0  0  0  0  0
    9.3539   -2.4552    3.4602 N   0  0  0  0  0  0  0  0  0  0  0  0
   10.3062   -2.8390    3.8701 N   0  0  0  0  0  0  0  0  0  0  0  0
   -2.4924    2.3107    1.3853 H   0  0  0  0  0  0  0  0  0  0  0  0
   -3.9273    3.8945   -0.0804 H   0  0  0  0  0  0  0  0  0  0  0  0
   -2.3065    0.8821   -0.1398 N   0  0  0  0  0  0  0  0  0  0  0  0
   -1.5831    0.1634    0.5784 O   0  0  0  0  0  0  0  0  0  0  0  0
  1 12  1  0  0  0  0
  2  3  1  0  0  0  0
  2  1  2  0  0  0  0
  3  4  1  0  0  0  0
  4 11  1  0  0  0  0
  4  5  2  0  0  0  0
  5 10  1  0  0  0  0
  6  1  1  0  0  0  0
  7  2  1  0  0  0  0
  8  9  3  0  0  0  0
 12  5  1  0  0  0  0
 12 13  1  0  0  0  0
M  RAD  2   3   2  13   2
M  END
