Coordinates from ORCA-job N-O-Pyridine-4-N2+-scan-d09-160-n800
 OpenBabel09191814183D

 13 12  0  0  0  0  0  0  0  0999 V2000
   -2.4890    0.0813   -1.0955 C   0  0  0  0  0  0  0  0  0  0  0  0
   -1.3193    0.6467   -1.5887 C   0  0  0  0  0  0  0  0  0  0  0  0
   -1.1312    1.8575   -0.9957 C   0  0  0  0  0  0  0  0  0  0  0  0
   -1.4211    2.3299    0.2476 C   0  0  0  0  0  0  0  0  0  0  0  0
   -2.5883    1.7250    0.6976 C   0  0  0  0  0  0  0  0  0  0  0  0
   -3.0094   -0.7532   -1.5537 H   0  0  0  0  0  0  0  0  0  0  0  0
   -0.7810    0.2333   -2.4378 H   0  0  0  0  0  0  0  0  0  0  0  0
    5.1137   -0.2197    1.2302 N   0  0  0  0  0  0  0  0  0  0  0  0
    6.1379   -0.4952    1.5417 N   0  0  0  0  0  0  0  0  0  0  0  0
   -3.1806    2.0783    1.5352 H   0  0  0  0  0  0  0  0  0  0  0  0
   -0.9584    3.1675    0.7632 H   0  0  0  0  0  0  0  0  0  0  0  0
   -3.1233    0.6222    0.0261 N   0  0  0  0  0  0  0  0  0  0  0  0
   -4.1723    0.0967    0.4497 O   0  0  0  0  0  0  0  0  0  0  0  0
  1 12  1  0  0  0  0
  2  1  2  0  0  0  0
  2  3  1  0  0  0  0
  3  4  1  0  0  0  0
  4  5  2  0  0  0  0
  4 11  1  0  0  0  0
  5 10  1  0  0  0  0
  6  1  1  0  0  0  0
  7  2  1  0  0  0  0
  8  9  3  0  0  0  0
 12 13  1  0  0  0  0
 12  5  1  0  0  0  0
M  RAD  2   3   2  13   2
M  END
