Coordinates from ORCA-job N-O-Pyridine-4-N2+-scan-d09-160-n800
 OpenBabel09191814183D

 13 12  0  0  0  0  0  0  0  0999 V2000
   -2.2052    0.0918   -1.0896 C   0  0  0  0  0  0  0  0  0  0  0  0
   -0.8167    0.1524   -1.1122 C   0  0  0  0  0  0  0  0  0  0  0  0
   -0.4127    1.2272   -0.3825 C   0  0  0  0  0  0  0  0  0  0  0  0
   -0.9151    1.8357    0.7257 C   0  0  0  0  0  0  0  0  0  0  0  0
   -2.3012    1.7339    0.7033 C   0  0  0  0  0  0  0  0  0  0  0  0
   -2.8046   -0.5072   -1.7670 H   0  0  0  0  0  0  0  0  0  0  0  0
   -0.2118   -0.4716   -1.7645 H   0  0  0  0  0  0  0  0  0  0  0  0
    3.0746    0.4984    0.4710 N   0  0  0  0  0  0  0  0  0  0  0  0
    4.1478    0.3350    0.6788 N   0  0  0  0  0  0  0  0  0  0  0  0
   -2.9700    2.3225    1.3224 H   0  0  0  0  0  0  0  0  0  0  0  0
   -0.3832    2.4612    1.4375 H   0  0  0  0  0  0  0  0  0  0  0  0
   -2.9392    0.8821   -0.2017 N   0  0  0  0  0  0  0  0  0  0  0  0
   -4.1849    0.8089   -0.2013 O   0  0  0  0  0  0  0  0  0  0  0  0
  1 12  1  0  0  0  0
  2  1  2  0  0  0  0
  2  3  1  0  0  0  0
  3  4  1  0  0  0  0
  4 11  1  0  0  0  0
  5  4  2  0  0  0  0
  5 10  1  0  0  0  0
  6  1  1  0  0  0  0
  7  2  1  0  0  0  0
  8  9  3  0  0  0  0
 12 13  1  0  0  0  0
 12  5  1  0  0  0  0
M  RAD  2   3   2  13   2
M  END
