Coordinates from ORCA-job N-O-Pyridine-4-N2+-scan-d09-160-n800
 OpenBabel09191814183D

 13 12  0  0  0  0  0  0  0  0999 V2000
   -2.5235    0.2086   -1.2123 C   0  0  0  0  0  0  0  0  0  0  0  0
   -2.5453    1.2129   -2.1725 C   0  0  0  0  0  0  0  0  0  0  0  0
   -2.8905    2.3861   -1.5748 C   0  0  0  0  0  0  0  0  0  0  0  0
   -2.6514    2.8948   -0.3351 C   0  0  0  0  0  0  0  0  0  0  0  0
   -2.6271    1.8509    0.5820 C   0  0  0  0  0  0  0  0  0  0  0  0
   -2.5190   -0.8536   -1.4332 H   0  0  0  0  0  0  0  0  0  0  0  0
   -2.4721    1.0074   -3.2374 H   0  0  0  0  0  0  0  0  0  0  0  0
    7.4057   -1.5189    2.5342 N   0  0  0  0  0  0  0  0  0  0  0  0
    8.3894   -1.8595    2.9064 N   0  0  0  0  0  0  0  0  0  0  0  0
   -2.6976    1.9753    1.6575 H   0  0  0  0  0  0  0  0  0  0  0  0
   -2.6571    3.9393   -0.0343 H   0  0  0  0  0  0  0  0  0  0  0  0
   -2.5772    0.5232    0.1484 N   0  0  0  0  0  0  0  0  0  0  0  0
   -2.5564   -0.3961    0.9911 O   0  0  0  0  0  0  0  0  0  0  0  0
  1 12  1  0  0  0  0
  2  3  1  0  0  0  0
  2  1  2  0  0  0  0
  3  4  1  0  0  0  0
  4 11  1  0  0  0  0
  4  5  2  0  0  0  0
  5 10  1  0  0  0  0
  6  1  1  0  0  0  0
  7  2  1  0  0  0  0
  8  9  3  0  0  0  0
 12  5  1  0  0  0  0
 12 13  1  0  0  0  0
M  RAD  2   3   2  13   2
M  END
