Coordinates from ORCA-job N-O-Pyridine-4-N2+-scan-d09-160-n800
 OpenBabel09191814183D

 13 12  0  0  0  0  0  0  0  0999 V2000
   -2.4280    0.0924   -1.1026 C   0  0  0  0  0  0  0  0  0  0  0  0
   -1.0954    0.3986   -1.3513 C   0  0  0  0  0  0  0  0  0  0  0  0
   -0.7786    1.5481   -0.6948 C   0  0  0  0  0  0  0  0  0  0  0  0
   -1.1950    2.0818    0.4860 C   0  0  0  0  0  0  0  0  0  0  0  0
   -2.5252    1.7355    0.6908 C   0  0  0  0  0  0  0  0  0  0  0  0
   -3.0125   -0.6191   -1.6763 H   0  0  0  0  0  0  0  0  0  0  0  0
   -0.5029   -0.1241   -2.0976 H   0  0  0  0  0  0  0  0  0  0  0  0
    4.4478    0.1167    0.8903 N   0  0  0  0  0  0  0  0  0  0  0  0
    5.4956   -0.1113    1.1585 N   0  0  0  0  0  0  0  0  0  0  0  0
   -3.1799    2.2114    1.4133 H   0  0  0  0  0  0  0  0  0  0  0  0
   -0.6764    2.8097    1.1047 H   0  0  0  0  0  0  0  0  0  0  0  0
   -3.1382    0.7620   -0.1026 N   0  0  0  0  0  0  0  0  0  0  0  0
   -4.3334    0.4686    0.1015 O   0  0  0  0  0  0  0  0  0  0  0  0
  1 12  1  0  0  0  0
  2  1  2  0  0  0  0
  2  3  1  0  0  0  0
  3  4  1  0  0  0  0
  4  5  2  0  0  0  0
  4 11  1  0  0  0  0
  5 10  1  0  0  0  0
  6  1  1  0  0  0  0
  7  2  1  0  0  0  0
  8  9  3  0  0  0  0
 12 13  1  0  0  0  0
 12  5  1  0  0  0  0
M  RAD  2   3   2  13   2
M  END
