Coordinates from ORCA-job N-O-Pyridine-4-N2+-scan-d09-160-n800
 OpenBabel09191814183D

 13 12  0  0  0  0  0  0  0  0999 V2000
   -2.6283    0.4947   -1.4665 C   0  0  0  0  0  0  0  0  0  0  0  0
   -3.5054    1.2337   -2.2509 C   0  0  0  0  0  0  0  0  0  0  0  0
   -4.0961    2.1846   -1.4759 C   0  0  0  0  0  0  0  0  0  0  0  0
   -3.6546    2.9100   -0.4118 C   0  0  0  0  0  0  0  0  0  0  0  0
   -2.7740    2.1315    0.3294 C   0  0  0  0  0  0  0  0  0  0  0  0
   -2.2085   -0.4645   -1.7508 H   0  0  0  0  0  0  0  0  0  0  0  0
   -3.7749    0.9414   -3.2625 H   0  0  0  0  0  0  0  0  0  0  0  0
    9.5168   -2.5357    3.5453 N   0  0  0  0  0  0  0  0  0  0  0  0
   10.4623   -2.9266    3.9640 N   0  0  0  0  0  0  0  0  0  0  0  0
   -2.4596    2.3554    1.3434 H   0  0  0  0  0  0  0  0  0  0  0  0
   -4.0351    3.8639   -0.0557 H   0  0  0  0  0  0  0  0  0  0  0  0
   -2.2772    0.9315   -0.1864 N   0  0  0  0  0  0  0  0  0  0  0  0
   -1.4878    0.2505    0.4983 O   0  0  0  0  0  0  0  0  0  0  0  0
  1 12  1  0  0  0  0
  2  3  1  0  0  0  0
  2  1  2  0  0  0  0
  3  4  1  0  0  0  0
  4 11  1  0  0  0  0
  4  5  2  0  0  0  0
  5 10  1  0  0  0  0
  6  1  1  0  0  0  0
  7  2  1  0  0  0  0
  8  9  3  0  0  0  0
 12  5  1  0  0  0  0
 12 13  1  0  0  0  0
M  RAD  2   3   2  13   2
M  END
