Coordinates from ORCA-job N-O-Pyridine-4-N2+-scan-d09-160-n800
 OpenBabel09191814183D

 13 12  0  0  0  0  0  0  0  0999 V2000
   -2.1089    0.0878   -1.0790 C   0  0  0  0  0  0  0  0  0  0  0  0
   -0.7193    0.1033   -1.0620 C   0  0  0  0  0  0  0  0  0  0  0  0
   -0.2972    1.1569   -0.3120 C   0  0  0  0  0  0  0  0  0  0  0  0
   -0.8176    1.7866    0.7759 C   0  0  0  0  0  0  0  0  0  0  0  0
   -2.2047    1.7281    0.7119 C   0  0  0  0  0  0  0  0  0  0  0  0
   -2.7066   -0.4929   -1.7733 H   0  0  0  0  0  0  0  0  0  0  0  0
   -0.1179   -0.5384   -1.6994 H   0  0  0  0  0  0  0  0  0  0  0  0
    2.5326    0.5908    0.3578 N   0  0  0  0  0  0  0  0  0  0  0  0
    3.6135    0.4535    0.5416 N   0  0  0  0  0  0  0  0  0  0  0  0
   -2.8718    2.3352    1.3144 H   0  0  0  0  0  0  0  0  0  0  0  0
   -0.2893    2.3954    1.5038 H   0  0  0  0  0  0  0  0  0  0  0  0
   -2.8438    0.8983   -0.2115 N   0  0  0  0  0  0  0  0  0  0  0  0
   -4.0910    0.8656   -0.2482 O   0  0  0  0  0  0  0  0  0  0  0  0
  1  2  2  0  0  0  0
  1 12  1  0  0  0  0
  2  3  1  0  0  0  0
  3  4  1  0  0  0  0
  4 11  1  0  0  0  0
  5  4  2  0  0  0  0
  5 10  1  0  0  0  0
  6  1  1  0  0  0  0
  7  2  1  0  0  0  0
  8  9  3  0  0  0  0
 12  5  1  0  0  0  0
 13 12  1  0  0  0  0
M  RAD  2   3   2  13   2
M  END
