Coordinates from ORCA-job N-O-Pyridine-4-N2+-scan-d09-160-n800
 OpenBabel09191814183D

 13 12  0  0  0  0  0  0  0  0999 V2000
   -2.5726    0.4013   -1.3735 C   0  0  0  0  0  0  0  0  0  0  0  0
   -3.2292    1.2513   -2.2546 C   0  0  0  0  0  0  0  0  0  0  0  0
   -3.7854    2.2742   -1.5490 C   0  0  0  0  0  0  0  0  0  0  0  0
   -3.3971    2.9346   -0.4236 C   0  0  0  0  0  0  0  0  0  0  0  0
   -2.7366    2.0452    0.4148 C   0  0  0  0  0  0  0  0  0  0  0  0
   -2.2508   -0.6062   -1.6156 H   0  0  0  0  0  0  0  0  0  0  0  0
   -3.3972    0.9973   -3.2981 H   0  0  0  0  0  0  0  0  0  0  0  0
    8.8995   -2.2535    3.2456 N   0  0  0  0  0  0  0  0  0  0  0  0
    9.8607   -2.6272    3.6438 N   0  0  0  0  0  0  0  0  0  0  0  0
   -2.5336    2.2256    1.4652 H   0  0  0  0  0  0  0  0  0  0  0  0
   -3.6901    3.9319   -0.1055 H   0  0  0  0  0  0  0  0  0  0  0  0
   -2.3408    0.7883   -0.0507 N   0  0  0  0  0  0  0  0  0  0  0  0
   -1.7489    0.0076    0.7212 O   0  0  0  0  0  0  0  0  0  0  0  0
  1 12  1  0  0  0  0
  2  3  1  0  0  0  0
  2  1  2  0  0  0  0
  3  4  1  0  0  0  0
  4 11  1  0  0  0  0
  4  5  2  0  0  0  0
  5 10  1  0  0  0  0
  6  1  1  0  0  0  0
  7  2  1  0  0  0  0
  8  9  3  0  0  0  0
 12  5  1  0  0  0  0
 12 13  1  0  0  0  0
M  RAD  2   3   2  13   2
M  END
