Coordinates from ORCA-job N-O-Pyridine-4-N2+-scan-d09-160-n800
 OpenBabel09191814183D

 13 12  0  0  0  0  0  0  0  0999 V2000
   -2.4849    0.0830   -1.0968 C   0  0  0  0  0  0  0  0  0  0  0  0
   -1.2805    0.6069   -1.5508 C   0  0  0  0  0  0  0  0  0  0  0  0
   -1.0687    1.8092   -0.9485 C   0  0  0  0  0  0  0  0  0  0  0  0
   -1.3816    2.2902    0.2860 C   0  0  0  0  0  0  0  0  0  0  0  0
   -2.5836    1.7264    0.6964 C   0  0  0  0  0  0  0  0  0  0  0  0
   -3.0198   -0.7315   -1.5740 H   0  0  0  0  0  0  0  0  0  0  0  0
   -0.7302    0.1761   -2.3832 H   0  0  0  0  0  0  0  0  0  0  0  0
    5.0235   -0.1650    1.1761 N   0  0  0  0  0  0  0  0  0  0  0  0
    6.0508   -0.4347    1.4825 N   0  0  0  0  0  0  0  0  0  0  0  0
   -3.1898    2.0996    1.5151 H   0  0  0  0  0  0  0  0  0  0  0  0
   -0.9064    3.1101    0.8183 H   0  0  0  0  0  0  0  0  0  0  0  0
   -3.1353    0.6442    0.0054 N   0  0  0  0  0  0  0  0  0  0  0  0
   -4.2156    0.1560    0.3934 O   0  0  0  0  0  0  0  0  0  0  0  0
  1 12  1  0  0  0  0
  2  1  2  0  0  0  0
  2  3  1  0  0  0  0
  3  4  1  0  0  0  0
  4  5  2  0  0  0  0
  4 11  1  0  0  0  0
  5 10  1  0  0  0  0
  6  1  1  0  0  0  0
  7  2  1  0  0  0  0
  8  9  3  0  0  0  0
 12 13  1  0  0  0  0
 12  5  1  0  0  0  0
M  RAD  2   3   2  13   2
M  END
