Coordinates from ORCA-job N-O-Pyridine-4-N2+-scan-d09-160-n800
 OpenBabel09191814183D

 13 12  0  0  0  0  0  0  0  0999 V2000
   -2.4757    0.1173   -1.1269 C   0  0  0  0  0  0  0  0  0  0  0  0
   -2.0213    1.0788   -2.0214 C   0  0  0  0  0  0  0  0  0  0  0  0
   -2.1905    2.3105   -1.4673 C   0  0  0  0  0  0  0  0  0  0  0  0
   -2.1260    2.7613   -0.1846 C   0  0  0  0  0  0  0  0  0  0  0  0
   -2.5780    1.7603    0.6668 C   0  0  0  0  0  0  0  0  0  0  0  0
   -2.6860   -0.9148   -1.3872 H   0  0  0  0  0  0  0  0  0  0  0  0
   -1.7563    0.8445   -3.0493 H   0  0  0  0  0  0  0  0  0  0  0  0
    6.3268   -0.9938    1.9984 N   0  0  0  0  0  0  0  0  0  0  0  0
    7.3204   -1.3197    2.3569 N   0  0  0  0  0  0  0  0  0  0  0  0
   -2.8621    1.9153    1.7024 H   0  0  0  0  0  0  0  0  0  0  0  0
   -1.9388    3.7775    0.1527 H   0  0  0  0  0  0  0  0  0  0  0  0
   -2.7638    0.4569    0.1978 N   0  0  0  0  0  0  0  0  0  0  0  0
   -3.1709   -0.4239    0.9815 O   0  0  0  0  0  0  0  0  0  0  0  0
  1 12  1  0  0  0  0
  2  3  1  0  0  0  0
  2  1  2  0  0  0  0
  3  4  1  0  0  0  0
  4 11  1  0  0  0  0
  4  5  2  0  0  0  0
  5 10  1  0  0  0  0
  6  1  1  0  0  0  0
  7  2  1  0  0  0  0
  8  9  3  0  0  0  0
 12  5  1  0  0  0  0
 12 13  1  0  0  0  0
M  RAD  2   3   2  13   2
M  END
