Coordinates from ORCA-job N-O-Pyridine-4-N2+-scan-d09-160-n800
 OpenBabel09191814183D

 13 12  0  0  0  0  0  0  0  0999 V2000
   -2.5308    0.2277   -1.2301 C   0  0  0  0  0  0  0  0  0  0  0  0
   -2.6353    1.2269   -2.1902 C   0  0  0  0  0  0  0  0  0  0  0  0
   -3.0073    2.3858   -1.5808 C   0  0  0  0  0  0  0  0  0  0  0  0
   -2.7409    2.9085   -0.3525 C   0  0  0  0  0  0  0  0  0  0  0  0
   -2.6339    1.8697    0.5644 C   0  0  0  0  0  0  0  0  0  0  0  0
   -2.4886   -0.8341   -1.4494 H   0  0  0  0  0  0  0  0  0  0  0  0
   -2.5961    1.0213   -3.2569 H   0  0  0  0  0  0  0  0  0  0  0  0
    7.5836   -1.6062    2.6237 N   0  0  0  0  0  0  0  0  0  0  0  0
    8.5653   -1.9496    2.9984 N   0  0  0  0  0  0  0  0  0  0  0  0
   -2.6663    1.9944    1.6417 H   0  0  0  0  0  0  0  0  0  0  0  0
   -2.7803    3.9528   -0.0533 H   0  0  0  0  0  0  0  0  0  0  0  0
   -2.5433    0.5441    0.1311 N   0  0  0  0  0  0  0  0  0  0  0  0
   -2.4481   -0.3707    0.9737 O   0  0  0  0  0  0  0  0  0  0  0  0
  1 12  1  0  0  0  0
  2  3  1  0  0  0  0
  2  1  2  0  0  0  0
  3  4  1  0  0  0  0
  4 11  1  0  0  0  0
  4  5  2  0  0  0  0
  5 10  1  0  0  0  0
  6  1  1  0  0  0  0
  7  2  1  0  0  0  0
  8  9  3  0  0  0  0
 12  5  1  0  0  0  0
 12 13  1  0  0  0  0
M  RAD  2   3   2  13   2
M  END
