Coordinates from ORCA-job N-O-Pyridine-4-N2+-scan-d09-160-n800
 OpenBabel09191814183D

 13 12  0  0  0  0  0  0  0  0999 V2000
   -2.1171    0.0880   -1.0799 C   0  0  0  0  0  0  0  0  0  0  0  0
   -0.7275    0.1074   -1.0663 C   0  0  0  0  0  0  0  0  0  0  0  0
   -0.3075    1.1633   -0.3184 C   0  0  0  0  0  0  0  0  0  0  0  0
   -0.8258    1.7907    0.7717 C   0  0  0  0  0  0  0  0  0  0  0  0
   -2.2130    1.7286    0.7113 C   0  0  0  0  0  0  0  0  0  0  0  0
   -2.7150   -0.4941   -1.7729 H   0  0  0  0  0  0  0  0  0  0  0  0
   -0.1255   -0.5327   -1.7048 H   0  0  0  0  0  0  0  0  0  0  0  0
    2.5788    0.5836    0.3668 N   0  0  0  0  0  0  0  0  0  0  0  0
    3.6588    0.4428    0.5539 N   0  0  0  0  0  0  0  0  0  0  0  0
   -2.8802    2.3343    1.3151 H   0  0  0  0  0  0  0  0  0  0  0  0
   -0.2969    2.4009    1.4982 H   0  0  0  0  0  0  0  0  0  0  0  0
   -2.8519    0.8970   -0.2106 N   0  0  0  0  0  0  0  0  0  0  0  0
   -4.0992    0.8606   -0.2441 O   0  0  0  0  0  0  0  0  0  0  0  0
  1  2  2  0  0  0  0
  1 12  1  0  0  0  0
  2  3  1  0  0  0  0
  3  4  1  0  0  0  0
  4 11  1  0  0  0  0
  5  4  2  0  0  0  0
  5 10  1  0  0  0  0
  6  1  1  0  0  0  0
  7  2  1  0  0  0  0
  8  9  3  0  0  0  0
 12  5  1  0  0  0  0
 13 12  1  0  0  0  0
M  RAD  2   3   2  13   2
M  END
