Coordinates from ORCA-job N-O-Pyridine-4-N2+-scan-d09-160-n800
 OpenBabel09191814183D

 13 12  0  0  0  0  0  0  0  0999 V2000
   -2.4752    0.0913   -1.1033 C   0  0  0  0  0  0  0  0  0  0  0  0
   -1.7805    0.9784   -1.9166 C   0  0  0  0  0  0  0  0  0  0  0  0
   -1.8461    2.2224   -1.3680 C   0  0  0  0  0  0  0  0  0  0  0  0
   -1.8848    2.6614   -0.0801 C   0  0  0  0  0  0  0  0  0  0  0  0
   -2.5770    1.7347    0.6900 C   0  0  0  0  0  0  0  0  0  0  0  0
   -2.7920   -0.9014   -1.4055 H   0  0  0  0  0  0  0  0  0  0  0  0
   -1.4212    0.7079   -2.9062 H   0  0  0  0  0  0  0  0  0  0  0  0
    5.9042   -0.7525    1.7562 N   0  0  0  0  0  0  0  0  0  0  0  0
    6.9046   -1.0680    2.1047 N   0  0  0  0  0  0  0  0  0  0  0  0
   -2.9674    1.9294    1.6834 H   0  0  0  0  0  0  0  0  0  0  0  0
   -1.6030    3.6418    0.2953 H   0  0  0  0  0  0  0  0  0  0  0  0
   -2.8805    0.4696    0.1796 N   0  0  0  0  0  0  0  0  0  0  0  0
   -3.5033   -0.3446    0.8903 O   0  0  0  0  0  0  0  0  0  0  0  0
  1 12  1  0  0  0  0
  2  3  1  0  0  0  0
  2  1  2  0  0  0  0
  3  4  1  0  0  0  0
  4 11  1  0  0  0  0
  4  5  2  0  0  0  0
  5 10  1  0  0  0  0
  6  1  1  0  0  0  0
  7  2  1  0  0  0  0
  8  9  3  0  0  0  0
 12  5  1  0  0  0  0
 12 13  1  0  0  0  0
M  RAD  2   3   2  13   2
M  END
