Coordinates from ORCA-job N-O-Pyridine-4-N2+-scan-d09-160-n800
 OpenBabel09191814183D

 13 12  0  0  0  0  0  0  0  0999 V2000
   -2.5625    0.2987   -1.2969 C   0  0  0  0  0  0  0  0  0  0  0  0
   -2.9309    1.2567   -2.2331 C   0  0  0  0  0  0  0  0  0  0  0  0
   -3.3831    2.3619   -1.5791 C   0  0  0  0  0  0  0  0  0  0  0  0
   -3.0358    2.9373   -0.3951 C   0  0  0  0  0  0  0  0  0  0  0  0
   -2.6649    1.9403    0.4984 C   0  0  0  0  0  0  0  0  0  0  0  0
   -2.3982   -0.7500   -1.5215 H   0  0  0  0  0  0  0  0  0  0  0  0
   -3.0007    1.0406   -3.2961 H   0  0  0  0  0  0  0  0  0  0  0  0
    8.1970   -1.8993    2.9241 N   0  0  0  0  0  0  0  0  0  0  0  0
    9.1712   -2.2531    3.3086 N   0  0  0  0  0  0  0  0  0  0  0  0
   -2.5747    2.0777    1.5709 H   0  0  0  0  0  0  0  0  0  0  0  0
   -3.1835    3.9706   -0.0918 H   0  0  0  0  0  0  0  0  0  0  0  0
   -2.4441    0.6334    0.0550 N   0  0  0  0  0  0  0  0  0  0  0  0
   -2.1120   -0.2444    0.8765 O   0  0  0  0  0  0  0  0  0  0  0  0
  1 12  1  0  0  0  0
  2  3  1  0  0  0  0
  2  1  2  0  0  0  0
  3  4  1  0  0  0  0
  4 11  1  0  0  0  0
  4  5  2  0  0  0  0
  5 10  1  0  0  0  0
  6  1  1  0  0  0  0
  7  2  1  0  0  0  0
  8  9  3  0  0  0  0
 12  5  1  0  0  0  0
 12 13  1  0  0  0  0
M  RAD  2   3   2  13   2
M  END
