Coordinates from ORCA-job N-O-Pyridine-4-N2+-scan-d09-160-n800
 OpenBabel09191814183D

 13 12  0  0  0  0  0  0  0  0999 V2000
   -2.4753    0.1152   -1.1249 C   0  0  0  0  0  0  0  0  0  0  0  0
   -2.0051    1.0730   -2.0153 C   0  0  0  0  0  0  0  0  0  0  0  0
   -2.1679    2.3060   -1.4619 C   0  0  0  0  0  0  0  0  0  0  0  0
   -2.1098    2.7556   -0.1785 C   0  0  0  0  0  0  0  0  0  0  0  0
   -2.5775    1.7583    0.6687 C   0  0  0  0  0  0  0  0  0  0  0  0
   -2.6925   -0.9148   -1.3875 H   0  0  0  0  0  0  0  0  0  0  0  0
   -1.7339    0.8369   -3.0411 H   0  0  0  0  0  0  0  0  0  0  0  0
    6.2972   -0.9778    1.9823 N   0  0  0  0  0  0  0  0  0  0  0  0
    7.2912   -1.3032    2.3402 N   0  0  0  0  0  0  0  0  0  0  0  0
   -2.8687    1.9153    1.7020 H   0  0  0  0  0  0  0  0  0  0  0  0
   -1.9165    3.7700    0.1609 H   0  0  0  0  0  0  0  0  0  0  0  0
   -2.7710    0.4568    0.1976 N   0  0  0  0  0  0  0  0  0  0  0  0
   -3.1923   -0.4208    0.9775 O   0  0  0  0  0  0  0  0  0  0  0  0
  1 12  1  0  0  0  0
  2  3  1  0  0  0  0
  2  1  2  0  0  0  0
  3  4  1  0  0  0  0
  4 11  1  0  0  0  0
  4  5  2  0  0  0  0
  5 10  1  0  0  0  0
  6  1  1  0  0  0  0
  7  2  1  0  0  0  0
  8  9  3  0  0  0  0
 12  5  1  0  0  0  0
 12 13  1  0  0  0  0
M  RAD  2   3   2  13   2
M  END
