Coordinates from ORCA-job N-O-Pyridine-4-N2+-scan-d09-160-n800
 OpenBabel09191814183D

 13 12  0  0  0  0  0  0  0  0999 V2000
   -2.5341    0.2363   -1.2383 C   0  0  0  0  0  0  0  0  0  0  0  0
   -2.6744    1.2322   -2.1967 C   0  0  0  0  0  0  0  0  0  0  0  0
   -3.0590    2.3848   -1.5827 C   0  0  0  0  0  0  0  0  0  0  0  0
   -2.7797    2.9132   -0.3594 C   0  0  0  0  0  0  0  0  0  0  0  0
   -2.6370    1.8783    0.5564 C   0  0  0  0  0  0  0  0  0  0  0  0
   -2.4748   -0.8246   -1.4577 H   0  0  0  0  0  0  0  0  0  0  0  0
   -2.6494    1.0260   -3.2637 H   0  0  0  0  0  0  0  0  0  0  0  0
    7.6615   -1.6442    2.6627 N   0  0  0  0  0  0  0  0  0  0  0  0
    8.6423   -1.9888    3.0385 N   0  0  0  0  0  0  0  0  0  0  0  0
   -2.6521    2.0040    1.6339 H   0  0  0  0  0  0  0  0  0  0  0  0
   -2.8331    3.9569   -0.0602 H   0  0  0  0  0  0  0  0  0  0  0  0
   -2.5296    0.5540    0.1227 N   0  0  0  0  0  0  0  0  0  0  0  0
   -2.4027   -0.3578    0.9643 O   0  0  0  0  0  0  0  0  0  0  0  0
  1 12  1  0  0  0  0
  2  3  1  0  0  0  0
  2  1  2  0  0  0  0
  3  4  1  0  0  0  0
  4 11  1  0  0  0  0
  4  5  2  0  0  0  0
  5 10  1  0  0  0  0
  6  1  1  0  0  0  0
  7  2  1  0  0  0  0
  8  9  3  0  0  0  0
 12  5  1  0  0  0  0
 12 13  1  0  0  0  0
M  RAD  2   3   2  13   2
M  END
