Coordinates from ORCA-job N-O-Pyridine-4-N2+-scan-d09-160-n800
 OpenBabel09191814183D

 13 13  0  0  0  0  0  0  0  0999 V2000
   -1.9130    0.1012   -1.0710 C   0  0  0  0  0  0  0  0  0  0  0  0
   -0.5536    0.0249   -0.9628 C   0  0  0  0  0  0  0  0  0  0  0  0
    0.0919    0.8275    0.0106 C   0  0  0  0  0  0  0  0  0  0  0  0
   -0.6508    1.6903    0.8544 C   0  0  0  0  0  0  0  0  0  0  0  0
   -2.0082    1.7323    0.7089 C   0  0  0  0  0  0  0  0  0  0  0  0
   -2.5115   -0.4626   -1.7751 H   0  0  0  0  0  0  0  0  0  0  0  0
    0.0046   -0.6392   -1.6140 H   0  0  0  0  0  0  0  0  0  0  0  0
    1.4453    0.7685    0.1369 N   0  0  0  0  0  0  0  0  0  0  0  0
    2.5606    0.7199    0.2410 N   0  0  0  0  0  0  0  0  0  0  0  0
   -2.6756    2.3510    1.2950 H   0  0  0  0  0  0  0  0  0  0  0  0
   -0.1675    2.3090    1.6029 H   0  0  0  0  0  0  0  0  0  0  0  0
   -2.6547    0.9471   -0.2460 N   0  0  0  0  0  0  0  0  0  0  0  0
   -3.8896    1.0005   -0.3609 O   0  0  0  0  0  0  0  0  0  0  0  0
  1  2  2  0  0  0  0
  1 12  1  0  0  0  0
  2  3  1  0  0  0  0
  3  8  1  0  0  0  0
  3  4  2  0  0  0  0
  4 11  1  0  0  0  0
  5  4  1  0  0  0  0
  5 10  1  0  0  0  0
  6  1  1  0  0  0  0
  7  2  1  0  0  0  0
  8  9  1  0  0  0  0
 12  5  1  0  0  0  0
 13 12  1  0  0  0  0
M  RAD  3   8   2   9   3  13   2
M  END
