Coordinates from ORCA-job N-O-Pyridine-4-N2+-scan-d09-160-n800
 OpenBabel09191814183D

 13 12  0  0  0  0  0  0  0  0999 V2000
   -2.0953    0.0875   -1.0776 C   0  0  0  0  0  0  0  0  0  0  0  0
   -0.7054    0.0960   -1.0555 C   0  0  0  0  0  0  0  0  0  0  0  0
   -0.2808    1.1448   -0.3000 C   0  0  0  0  0  0  0  0  0  0  0  0
   -0.8037    1.7802    0.7833 C   0  0  0  0  0  0  0  0  0  0  0  0
   -2.1911    1.7275    0.7129 C   0  0  0  0  0  0  0  0  0  0  0  0
   -2.6926   -0.4905   -1.7744 H   0  0  0  0  0  0  0  0  0  0  0  0
   -0.1046   -0.5480   -1.6908 H   0  0  0  0  0  0  0  0  0  0  0  0
    2.4551    0.6021    0.3433 N   0  0  0  0  0  0  0  0  0  0  0  0
    3.5380    0.4723    0.5204 N   0  0  0  0  0  0  0  0  0  0  0  0
   -2.8578    2.3372    1.3130 H   0  0  0  0  0  0  0  0  0  0  0  0
   -0.2761    2.3867    1.5134 H   0  0  0  0  0  0  0  0  0  0  0  0
   -2.8302    0.9008   -0.2129 N   0  0  0  0  0  0  0  0  0  0  0  0
   -4.0775    0.8738   -0.2550 O   0  0  0  0  0  0  0  0  0  0  0  0
  1  2  2  0  0  0  0
  1 12  1  0  0  0  0
  2  3  1  0  0  0  0
  3  4  1  0  0  0  0
  4 11  1  0  0  0  0
  5  4  2  0  0  0  0
  5 10  1  0  0  0  0
  6  1  1  0  0  0  0
  7  2  1  0  0  0  0
  8  9  3  0  0  0  0
 12  5  1  0  0  0  0
 13 12  1  0  0  0  0
M  RAD  2   3   2  13   2
M  END
