Coordinates from ORCA-job N-O-Pyridine-4-N2+-scan-d09-160-n800
 OpenBabel09191814183D

 13 12  0  0  0  0  0  0  0  0999 V2000
   -2.4799    0.0817   -1.0949 C   0  0  0  0  0  0  0  0  0  0  0  0
   -1.6349    0.8988   -1.8359 C   0  0  0  0  0  0  0  0  0  0  0  0
   -1.6292    2.1428   -1.2834 C   0  0  0  0  0  0  0  0  0  0  0  0
   -1.7388    2.5820    0.0004 C   0  0  0  0  0  0  0  0  0  0  0  0
   -2.5814    1.7253    0.6982 C   0  0  0  0  0  0  0  0  0  0  0  0
   -2.8624   -0.8756   -1.4332 H   0  0  0  0  0  0  0  0  0  0  0  0
   -1.2176    0.5961   -2.7929 H   0  0  0  0  0  0  0  0  0  0  0  0
    5.6632   -0.6001    1.6046 N   0  0  0  0  0  0  0  0  0  0  0  0
    6.6692   -0.9069    1.9449 N   0  0  0  0  0  0  0  0  0  0  0  0
   -3.0372    1.9556    1.6554 H   0  0  0  0  0  0  0  0  0  0  0  0
   -1.3988    3.5305    0.4083 H   0  0  0  0  0  0  0  0  0  0  0  0
   -2.9583    0.4957    0.1512 N   0  0  0  0  0  0  0  0  0  0  0  0
   -3.7160   -0.2557    0.7971 O   0  0  0  0  0  0  0  0  0  0  0  0
  1 12  1  0  0  0  0
  2  3  1  0  0  0  0
  2  1  2  0  0  0  0
  3  4  1  0  0  0  0
  4 11  1  0  0  0  0
  4  5  2  0  0  0  0
  5 10  1  0  0  0  0
  6  1  1  0  0  0  0
  7  2  1  0  0  0  0
  8  9  3  0  0  0  0
 12  5  1  0  0  0  0
 12 13  1  0  0  0  0
M  RAD  2   3   2  13   2
M  END
