Coordinates from ORCA-job N-O-Pyridine-4-N2+-scan-d09-160-n800
 OpenBabel09191814183D

 13 12  0  0  0  0  0  0  0  0999 V2000
   -2.5152    0.1866   -1.1923 C   0  0  0  0  0  0  0  0  0  0  0  0
   -2.4365    1.1925   -2.1479 C   0  0  0  0  0  0  0  0  0  0  0  0
   -2.7468    2.3814   -1.5623 C   0  0  0  0  0  0  0  0  0  0  0  0
   -2.5404    2.8741   -0.3103 C   0  0  0  0  0  0  0  0  0  0  0  0
   -2.6167    1.8288    0.6023 C   0  0  0  0  0  0  0  0  0  0  0  0
   -2.5568   -0.8739   -1.4172 H   0  0  0  0  0  0  0  0  0  0  0  0
   -2.3226    0.9853   -3.2089 H   0  0  0  0  0  0  0  0  0  0  0  0
    7.1841   -1.4100    2.4244 N   0  0  0  0  0  0  0  0  0  0  0  0
    8.1697   -1.7477    2.7940 N   0  0  0  0  0  0  0  0  0  0  0  0
   -2.7315    1.9547    1.6738 H   0  0  0  0  0  0  0  0  0  0  0  0
   -2.5037    3.9169   -0.0054 H   0  0  0  0  0  0  0  0  0  0  0  0
   -2.6179    0.5012    0.1656 N   0  0  0  0  0  0  0  0  0  0  0  0
   -2.6877   -0.4195    1.0042 O   0  0  0  0  0  0  0  0  0  0  0  0
  1 12  1  0  0  0  0
  2  3  1  0  0  0  0
  2  1  2  0  0  0  0
  3  4  1  0  0  0  0
  4 11  1  0  0  0  0
  4  5  2  0  0  0  0
  5 10  1  0  0  0  0
  6  1  1  0  0  0  0
  7  2  1  0  0  0  0
  8  9  3  0  0  0  0
 12  5  1  0  0  0  0
 12 13  1  0  0  0  0
M  RAD  2   3   2  13   2
M  END
