Coordinates from ORCA-job N-O-Pyridine-4-N2+-scan-d09-160-n800
 OpenBabel09191814183D

 13 12  0  0  0  0  0  0  0  0999 V2000
   -2.7127    0.6634   -1.6357 C   0  0  0  0  0  0  0  0  0  0  0  0
   -3.8957    1.1453   -2.1825 C   0  0  0  0  0  0  0  0  0  0  0  0
   -4.5010    1.9604   -1.2754 C   0  0  0  0  0  0  0  0  0  0  0  0
   -4.0122    2.8099   -0.3304 C   0  0  0  0  0  0  0  0  0  0  0  0
   -2.8265    2.2890    0.1729 C   0  0  0  0  0  0  0  0  0  0  0  0
   -2.1543   -0.1809   -2.0260 H   0  0  0  0  0  0  0  0  0  0  0  0
   -4.3128    0.7588   -3.1089 H   0  0  0  0  0  0  0  0  0  0  0  0
   10.3828   -2.9630    3.9962 N   0  0  0  0  0  0  0  0  0  0  0  0
   11.2954   -3.3833    4.4573 N   0  0  0  0  0  0  0  0  0  0  0  0
   -2.3503    2.6197    1.0900 H   0  0  0  0  0  0  0  0  0  0  0  0
   -4.5159    3.6612    0.1203 H   0  0  0  0  0  0  0  0  0  0  0  0
   -2.1913    1.2199   -0.4646 N   0  0  0  0  0  0  0  0  0  0  0  0
   -1.1277    0.7701    0.0066 O   0  0  0  0  0  0  0  0  0  0  0  0
  1 12  1  0  0  0  0
  2  1  2  0  0  0  0
  2  3  1  0  0  0  0
  3  4  1  0  0  0  0
  4 11  1  0  0  0  0
  4  5  2  0  0  0  0
  5 10  1  0  0  0  0
  6  1  1  0  0  0  0
  7  2  1  0  0  0  0
  8  9  3  0  0  0  0
 12 13  1  0  0  0  0
 12  5  1  0  0  0  0
M  RAD  2   3   2  13   2
M  END
