Coordinates from ORCA-job N-O-Pyridine-4-N2+-scan-d09-160-n800
 OpenBabel09191814183D

 13 12  0  0  0  0  0  0  0  0999 V2000
   -2.4616    0.0880   -1.1003 C   0  0  0  0  0  0  0  0  0  0  0  0
   -1.1775    0.4944   -1.4428 C   0  0  0  0  0  0  0  0  0  0  0  0
   -0.9054    1.6699   -0.8126 C   0  0  0  0  0  0  0  0  0  0  0  0
   -1.2779    2.1777    0.3942 C   0  0  0  0  0  0  0  0  0  0  0  0
   -2.5595    1.7313    0.6930 C   0  0  0  0  0  0  0  0  0  0  0  0
   -3.0280   -0.6707   -1.6301 H   0  0  0  0  0  0  0  0  0  0  0  0
   -0.6001    0.0137   -2.2283 H   0  0  0  0  0  0  0  0  0  0  0  0
    4.7362   -0.0126    1.0229 N   0  0  0  0  0  0  0  0  0  0  0  0
    5.7740   -0.2621    1.3103 N   0  0  0  0  0  0  0  0  0  0  0  0
   -3.1968    2.1602    1.4592 H   0  0  0  0  0  0  0  0  0  0  0  0
   -0.7750    2.9478    0.9735 H   0  0  0  0  0  0  0  0  0  0  0  0
   -3.1495    0.7079   -0.0537 N   0  0  0  0  0  0  0  0  0  0  0  0
   -4.3010    0.3247    0.2346 O   0  0  0  0  0  0  0  0  0  0  0  0
  1 12  1  0  0  0  0
  2  1  2  0  0  0  0
  2  3  1  0  0  0  0
  3  4  1  0  0  0  0
  4  5  2  0  0  0  0
  4 11  1  0  0  0  0
  5 10  1  0  0  0  0
  6  1  1  0  0  0  0
  7  2  1  0  0  0  0
  8  9  3  0  0  0  0
 12 13  1  0  0  0  0
 12  5  1  0  0  0  0
M  RAD  2   3   2  13   2
M  END
