Coordinates from ORCA-job N-O-Pyridine-4-N2+-scan-d09-160-n800
 OpenBabel09191814183D

 13 12  0  0  0  0  0  0  0  0999 V2000
   -2.0283    0.0889   -1.0706 C   0  0  0  0  0  0  0  0  0  0  0  0
   -0.6410    0.0637   -1.0213 C   0  0  0  0  0  0  0  0  0  0  0  0
   -0.1835    1.0775   -0.2332 C   0  0  0  0  0  0  0  0  0  0  0  0
   -0.7393    1.7468    0.8163 C   0  0  0  0  0  0  0  0  0  0  0  0
   -2.1239    1.7242    0.7148 C   0  0  0  0  0  0  0  0  0  0  0  0
   -2.6228   -0.4816   -1.7751 H   0  0  0  0  0  0  0  0  0  0  0  0
   -0.0516   -0.5929   -1.6526 H   0  0  0  0  0  0  0  0  0  0  0  0
    2.0801    0.6452    0.2839 N   0  0  0  0  0  0  0  0  0  0  0  0
    3.1758    0.5754    0.4064 N   0  0  0  0  0  0  0  0  0  0  0  0
   -2.7878    2.3425    1.3083 H   0  0  0  0  0  0  0  0  0  0  0  0
   -0.2234    2.3476    1.5579 H   0  0  0  0  0  0  0  0  0  0  0  0
   -2.7648    0.9150   -0.2225 N   0  0  0  0  0  0  0  0  0  0  0  0
   -4.0116    0.9183   -0.2922 O   0  0  0  0  0  0  0  0  0  0  0  0
  1  2  2  0  0  0  0
  1 12  1  0  0  0  0
  2  3  1  0  0  0  0
  3  4  1  0  0  0  0
  4 11  1  0  0  0  0
  5  4  2  0  0  0  0
  5 10  1  0  0  0  0
  6  1  1  0  0  0  0
  7  2  1  0  0  0  0
  8  9  3  0  0  0  0
 12  5  1  0  0  0  0
 13 12  1  0  0  0  0
M  RAD  2   3   2  13   2
M  END
