Coordinates from ORCA-job N-O-Pyridine-4-N2+-scan-d09-160-n800
 OpenBabel09191814183D

 13 12  0  0  0  0  0  0  0  0999 V2000
   -2.4265    0.0926   -1.1027 C   0  0  0  0  0  0  0  0  0  0  0  0
   -1.0924    0.3950   -1.3479 C   0  0  0  0  0  0  0  0  0  0  0  0
   -0.7740    1.5436   -0.6904 C   0  0  0  0  0  0  0  0  0  0  0  0
   -1.1920    2.0783    0.4894 C   0  0  0  0  0  0  0  0  0  0  0  0
   -2.5237    1.7356    0.6908 C   0  0  0  0  0  0  0  0  0  0  0  0
   -3.0115   -0.6173   -1.6780 H   0  0  0  0  0  0  0  0  0  0  0  0
   -0.4994   -0.1292   -2.0928 H   0  0  0  0  0  0  0  0  0  0  0  0
    4.4361    0.1215    0.8853 N   0  0  0  0  0  0  0  0  0  0  0  0
    5.4843   -0.1057    1.1528 N   0  0  0  0  0  0  0  0  0  0  0  0
   -3.1789    2.2133    1.4116 H   0  0  0  0  0  0  0  0  0  0  0  0
   -0.6729    2.8046    1.1095 H   0  0  0  0  0  0  0  0  0  0  0  0
   -3.1373    0.7640   -0.1043 N   0  0  0  0  0  0  0  0  0  0  0  0
   -4.3338    0.4739    0.0966 O   0  0  0  0  0  0  0  0  0  0  0  0
  1 12  1  0  0  0  0
  2  1  2  0  0  0  0
  2  3  1  0  0  0  0
  3  4  1  0  0  0  0
  4  5  2  0  0  0  0
  4 11  1  0  0  0  0
  5 10  1  0  0  0  0
  6  1  1  0  0  0  0
  7  2  1  0  0  0  0
  8  9  3  0  0  0  0
 12 13  1  0  0  0  0
 12  5  1  0  0  0  0
M  RAD  2   3   2  13   2
M  END
