Coordinates from ORCA-job N-O-Pyridine-4-N2+-scan-d09-160-n800
 OpenBabel09191814183D

 13 13  0  0  0  0  0  0  0  0999 V2000
   -1.9108    0.1009   -1.0708 C   0  0  0  0  0  0  0  0  0  0  0  0
   -0.5521    0.0250   -0.9624 C   0  0  0  0  0  0  0  0  0  0  0  0
    0.0985    0.8271    0.0113 C   0  0  0  0  0  0  0  0  0  0  0  0
   -0.6493    1.6900    0.8543 C   0  0  0  0  0  0  0  0  0  0  0  0
   -2.0060    1.7322    0.7092 C   0  0  0  0  0  0  0  0  0  0  0  0
   -2.5092   -0.4627   -1.7751 H   0  0  0  0  0  0  0  0  0  0  0  0
    0.0059   -0.6391   -1.6139 H   0  0  0  0  0  0  0  0  0  0  0  0
    1.4320    0.7691    0.1357 N   0  0  0  0  0  0  0  0  0  0  0  0
    2.5483    0.7205    0.2398 N   0  0  0  0  0  0  0  0  0  0  0  0
   -2.6734    2.3511    1.2952 H   0  0  0  0  0  0  0  0  0  0  0  0
   -0.1661    2.3089    1.6029 H   0  0  0  0  0  0  0  0  0  0  0  0
   -2.6528    0.9466   -0.2454 N   0  0  0  0  0  0  0  0  0  0  0  0
   -3.8871    1.0007   -0.3610 O   0  0  0  0  0  0  0  0  0  0  0  0
  1  2  2  0  0  0  0
  1 12  1  0  0  0  0
  2  3  1  0  0  0  0
  3  8  1  0  0  0  0
  3  4  2  0  0  0  0
  4 11  1  0  0  0  0
  5  4  1  0  0  0  0
  5 10  1  0  0  0  0
  6  1  1  0  0  0  0
  7  2  1  0  0  0  0
  8  9  1  0  0  0  0
 12  5  1  0  0  0  0
 13 12  1  0  0  0  0
M  RAD  3   8   2   9   3  13   2
M  END
