Coordinates from ORCA-job N-O-Pyridine-4-N2+-scan-d09-160-n800
 OpenBabel09191814183D

 13 12  0  0  0  0  0  0  0  0999 V2000
   -2.5694    0.3260   -1.3222 C   0  0  0  0  0  0  0  0  0  0  0  0
   -3.0326    1.2593   -2.2410 C   0  0  0  0  0  0  0  0  0  0  0  0
   -3.5106    2.3419   -1.5678 C   0  0  0  0  0  0  0  0  0  0  0  0
   -3.1374    2.9397   -0.4029 C   0  0  0  0  0  0  0  0  0  0  0  0
   -2.6718    1.9674    0.4734 C   0  0  0  0  0  0  0  0  0  0  0  0
   -2.3609   -0.7135   -1.5528 H   0  0  0  0  0  0  0  0  0  0  0  0
   -3.1419    1.0355   -3.2991 H   0  0  0  0  0  0  0  0  0  0  0  0
    8.3932   -1.9963    3.0229 N   0  0  0  0  0  0  0  0  0  0  0  0
    9.3620   -2.3572    3.4142 N   0  0  0  0  0  0  0  0  0  0  0  0
   -2.5373    2.1138    1.5399 H   0  0  0  0  0  0  0  0  0  0  0  0
   -3.3247    3.9651   -0.0944 H   0  0  0  0  0  0  0  0  0  0  0  0
   -2.4040    0.6721    0.0218 N   0  0  0  0  0  0  0  0  0  0  0  0
   -1.9868   -0.1835    0.8278 O   0  0  0  0  0  0  0  0  0  0  0  0
  1 12  1  0  0  0  0
  2  3  1  0  0  0  0
  2  1  2  0  0  0  0
  3  4  1  0  0  0  0
  4 11  1  0  0  0  0
  4  5  2  0  0  0  0
  5 10  1  0  0  0  0
  6  1  1  0  0  0  0
  7  2  1  0  0  0  0
  8  9  3  0  0  0  0
 12  5  1  0  0  0  0
 12 13  1  0  0  0  0
M  RAD  2   3   2  13   2
M  END
