Coordinates from ORCA-job N-O-Pyridine-4-N2+-scan-d09-160-n800
 OpenBabel09191814183D

 13 12  0  0  0  0  0  0  0  0999 V2000
   -2.0764    0.0874   -1.0755 C   0  0  0  0  0  0  0  0  0  0  0  0
   -0.6867    0.0861   -1.0454 C   0  0  0  0  0  0  0  0  0  0  0  0
   -0.2556    1.1272   -0.2826 C   0  0  0  0  0  0  0  0  0  0  0  0
   -0.7851    1.7703    0.7934 C   0  0  0  0  0  0  0  0  0  0  0  0
   -2.1721    1.7264    0.7140 C   0  0  0  0  0  0  0  0  0  0  0  0
   -2.6730   -0.4873   -1.7755 H   0  0  0  0  0  0  0  0  0  0  0  0
   -0.0884   -0.5615   -1.6789 H   0  0  0  0  0  0  0  0  0  0  0  0
    2.3488    0.6170    0.3240 N   0  0  0  0  0  0  0  0  0  0  0  0
    3.4349    0.5000    0.4895 N   0  0  0  0  0  0  0  0  0  0  0  0
   -2.8381    2.3397    1.3110 H   0  0  0  0  0  0  0  0  0  0  0  0
   -0.2599    2.3745    1.5267 H   0  0  0  0  0  0  0  0  0  0  0  0
   -2.8115    0.9043   -0.2152 N   0  0  0  0  0  0  0  0  0  0  0  0
   -4.0589    0.8864   -0.2656 O   0  0  0  0  0  0  0  0  0  0  0  0
  1  2  2  0  0  0  0
  1 12  1  0  0  0  0
  2  3  1  0  0  0  0
  3  4  1  0  0  0  0
  4 11  1  0  0  0  0
  5  4  2  0  0  0  0
  5 10  1  0  0  0  0
  6  1  1  0  0  0  0
  7  2  1  0  0  0  0
  8  9  3  0  0  0  0
 12  5  1  0  0  0  0
 13 12  1  0  0  0  0
M  RAD  2   3   2  13   2
M  END
