Coordinates from ORCA-job N-O-Pyridine-4-N2+-scan-d09-160-n800
 OpenBabel09191814183D

 13 12  0  0  0  0  0  0  0  0999 V2000
   -2.4771    0.1224   -1.1316 C   0  0  0  0  0  0  0  0  0  0  0  0
   -2.0590    1.0917   -2.0353 C   0  0  0  0  0  0  0  0  0  0  0  0
   -2.2427    2.3205   -1.4793 C   0  0  0  0  0  0  0  0  0  0  0  0
   -2.1635    2.7742   -0.1984 C   0  0  0  0  0  0  0  0  0  0  0  0
   -2.5792    1.7653    0.6622 C   0  0  0  0  0  0  0  0  0  0  0  0
   -2.6713   -0.9141   -1.3871 H   0  0  0  0  0  0  0  0  0  0  0  0
   -1.8084    0.8616   -3.0677 H   0  0  0  0  0  0  0  0  0  0  0  0
    6.3968   -1.0310    2.0362 N   0  0  0  0  0  0  0  0  0  0  0  0
    7.3895   -1.3583    2.3959 N   0  0  0  0  0  0  0  0  0  0  0  0
   -2.8472    1.9159    1.7027 H   0  0  0  0  0  0  0  0  0  0  0  0
   -1.9908    3.7944    0.1345 H   0  0  0  0  0  0  0  0  0  0  0  0
   -2.7473    0.4578    0.1980 N   0  0  0  0  0  0  0  0  0  0  0  0
   -3.1219   -0.4301    0.9899 O   0  0  0  0  0  0  0  0  0  0  0  0
  1 12  1  0  0  0  0
  2  3  1  0  0  0  0
  2  1  2  0  0  0  0
  3  4  1  0  0  0  0
  4 11  1  0  0  0  0
  4  5  2  0  0  0  0
  5 10  1  0  0  0  0
  6  1  1  0  0  0  0
  7  2  1  0  0  0  0
  8  9  3  0  0  0  0
 12  5  1  0  0  0  0
 12 13  1  0  0  0  0
M  RAD  2   3   2  13   2
M  END
