Coordinates from ORCA-job N-O-Pyridine-4-N2+-scan-d09-160-n800
 OpenBabel09191814183D

 13 12  0  0  0  0  0  0  0  0999 V2000
   -2.5585    0.2836   -1.2830 C   0  0  0  0  0  0  0  0  0  0  0  0
   -2.8721    1.2535   -2.2268 C   0  0  0  0  0  0  0  0  0  0  0  0
   -3.3087    2.3711   -1.5834 C   0  0  0  0  0  0  0  0  0  0  0  0
   -2.9763    2.9341   -0.3890 C   0  0  0  0  0  0  0  0  0  0  0  0
   -2.6604    1.9252    0.5122 C   0  0  0  0  0  0  0  0  0  0  0  0
   -2.4197   -0.7691   -1.5055 H   0  0  0  0  0  0  0  0  0  0  0  0
   -2.9190    1.0409   -3.2918 H   0  0  0  0  0  0  0  0  0  0  0  0
    8.0823   -1.8427    2.8668 N   0  0  0  0  0  0  0  0  0  0  0  0
    9.0593   -2.1926    3.2477 N   0  0  0  0  0  0  0  0  0  0  0  0
   -2.5952    2.0587    1.5870 H   0  0  0  0  0  0  0  0  0  0  0  0
   -3.1008    3.9710   -0.0875 H   0  0  0  0  0  0  0  0  0  0  0  0
   -2.4677    0.6127    0.0723 N   0  0  0  0  0  0  0  0  0  0  0  0
   -2.1852   -0.2758    0.9009 O   0  0  0  0  0  0  0  0  0  0  0  0
  1 12  1  0  0  0  0
  2  3  1  0  0  0  0
  2  1  2  0  0  0  0
  3  4  1  0  0  0  0
  4 11  1  0  0  0  0
  4  5  2  0  0  0  0
  5 10  1  0  0  0  0
  6  1  1  0  0  0  0
  7  2  1  0  0  0  0
  8  9  3  0  0  0  0
 12  5  1  0  0  0  0
 12 13  1  0  0  0  0
M  RAD  2   3   2  13   2
M  END
