Coordinates from ORCA-job N-O-Pyridine-4-N2+-scan-d09-160-n800
 OpenBabel09191814183D

 13 12  0  0  0  0  0  0  0  0999 V2000
   -2.5942    0.4335   -1.4056 C   0  0  0  0  0  0  0  0  0  0  0  0
   -3.3294    1.2488   -2.2571 C   0  0  0  0  0  0  0  0  0  0  0  0
   -3.8996    2.2475   -1.5284 C   0  0  0  0  0  0  0  0  0  0  0  0
   -3.4910    2.9296   -0.4232 C   0  0  0  0  0  0  0  0  0  0  0  0
   -2.7520    2.0750    0.3854 C   0  0  0  0  0  0  0  0  0  0  0  0
   -2.2374   -0.5589   -1.6606 H   0  0  0  0  0  0  0  0  0  0  0  0
   -3.5332    0.9832   -3.2912 H   0  0  0  0  0  0  0  0  0  0  0  0
    9.1303   -2.3570    3.3556 N   0  0  0  0  0  0  0  0  0  0  0  0
   10.0868   -2.7361    3.7599 N   0  0  0  0  0  0  0  0  0  0  0  0
   -2.5095    2.2688    1.4250 H   0  0  0  0  0  0  0  0  0  0  0  0
   -3.8151    3.9134   -0.0937 H   0  0  0  0  0  0  0  0  0  0  0  0
   -2.3201    0.8360   -0.0957 N   0  0  0  0  0  0  0  0  0  0  0  0
   -1.6576    0.0867    0.6495 O   0  0  0  0  0  0  0  0  0  0  0  0
  1 12  1  0  0  0  0
  2  3  1  0  0  0  0
  2  1  2  0  0  0  0
  3  4  1  0  0  0  0
  4 11  1  0  0  0  0
  4  5  2  0  0  0  0
  5 10  1  0  0  0  0
  6  1  1  0  0  0  0
  7  2  1  0  0  0  0
  8  9  3  0  0  0  0
 12  5  1  0  0  0  0
 12 13  1  0  0  0  0
M  RAD  2   3   2  13   2
M  END
