Coordinates from ORCA-job N-O-Pyridine-4-N2+-scan-d09-160-n800
 OpenBabel09191814183D

 13 12  0  0  0  0  0  0  0  0999 V2000
   -2.4903    0.0786   -1.0931 C   0  0  0  0  0  0  0  0  0  0  0  0
   -1.3997    0.7237   -1.6634 C   0  0  0  0  0  0  0  0  0  0  0  0
   -1.2610    1.9487   -1.0861 C   0  0  0  0  0  0  0  0  0  0  0  0
   -1.5019    2.4068    0.1729 C   0  0  0  0  0  0  0  0  0  0  0  0
   -2.5901    1.7223    0.7001 C   0  0  0  0  0  0  0  0  0  0  0  0
   -2.9780   -0.7941   -1.5144 H   0  0  0  0  0  0  0  0  0  0  0  0
   -0.8902    0.3448   -2.5456 H   0  0  0  0  0  0  0  0  0  0  0  0
    5.2703   -0.3265    1.3358 N   0  0  0  0  0  0  0  0  0  0  0  0
    6.2889   -0.6122    1.6564 N   0  0  0  0  0  0  0  0  0  0  0  0
   -3.1499    2.0372    1.5745 H   0  0  0  0  0  0  0  0  0  0  0  0
   -1.0683    3.2790    0.6555 H   0  0  0  0  0  0  0  0  0  0  0  0
   -3.0869    0.5795    0.0673 N   0  0  0  0  0  0  0  0  0  0  0  0
   -4.0649   -0.0175    0.5601 O   0  0  0  0  0  0  0  0  0  0  0  0
  1 12  1  0  0  0  0
  2  1  2  0  0  0  0
  2  3  1  0  0  0  0
  3  4  1  0  0  0  0
  4 11  1  0  0  0  0
  4  5  2  0  0  0  0
  5 10  1  0  0  0  0
  6  1  1  0  0  0  0
  7  2  1  0  0  0  0
  8  9  3  0  0  0  0
 12 13  1  0  0  0  0
 12  5  1  0  0  0  0
M  RAD  2   3   2  13   2
M  END
