Coordinates from ORCA-job N-O-Pyridine-4-N2+-scan-d09-160-n800
 OpenBabel09191814183D

 13 12  0  0  0  0  0  0  0  0999 V2000
   -2.5328    0.2326   -1.2347 C   0  0  0  0  0  0  0  0  0  0  0  0
   -2.6577    1.2300   -2.1943 C   0  0  0  0  0  0  0  0  0  0  0  0
   -3.0361    2.3852   -1.5818 C   0  0  0  0  0  0  0  0  0  0  0  0
   -2.7632    2.9115   -0.3565 C   0  0  0  0  0  0  0  0  0  0  0  0
   -2.6358    1.8746    0.5598 C   0  0  0  0  0  0  0  0  0  0  0  0
   -2.4813   -0.8288   -1.4539 H   0  0  0  0  0  0  0  0  0  0  0  0
   -2.6270    1.0242   -3.2612 H   0  0  0  0  0  0  0  0  0  0  0  0
    7.6287   -1.6281    2.6462 N   0  0  0  0  0  0  0  0  0  0  0  0
    8.6099   -1.9722    3.0215 N   0  0  0  0  0  0  0  0  0  0  0  0
   -2.6588    1.9996    1.6373 H   0  0  0  0  0  0  0  0  0  0  0  0
   -2.8109    3.9555   -0.0575 H   0  0  0  0  0  0  0  0  0  0  0  0
   -2.5352    0.5497    0.1264 N   0  0  0  0  0  0  0  0  0  0  0  0
   -2.4217   -0.3635    0.9684 O   0  0  0  0  0  0  0  0  0  0  0  0
  1 12  1  0  0  0  0
  2  3  1  0  0  0  0
  2  1  2  0  0  0  0
  3  4  1  0  0  0  0
  4 11  1  0  0  0  0
  4  5  2  0  0  0  0
  5 10  1  0  0  0  0
  6  1  1  0  0  0  0
  7  2  1  0  0  0  0
  8  9  3  0  0  0  0
 12  5  1  0  0  0  0
 12 13  1  0  0  0  0
M  RAD  2   3   2  13   2
M  END
