Coordinates from ORCA-job N-O-Pyridine-4-N2+-scan-d09-160-n800
 OpenBabel09191814183D

 13 12  0  0  0  0  0  0  0  0999 V2000
   -2.5754    0.3444   -1.3392 C   0  0  0  0  0  0  0  0  0  0  0  0
   -3.0972    1.2597   -2.2448 C   0  0  0  0  0  0  0  0  0  0  0  0
   -3.5901    2.3274   -1.5588 C   0  0  0  0  0  0  0  0  0  0  0  0
   -3.2020    2.9400   -0.4066 C   0  0  0  0  0  0  0  0  0  0  0  0
   -2.6778    1.9856    0.4563 C   0  0  0  0  0  0  0  0  0  0  0  0
   -2.3397   -0.6881   -1.5747 H   0  0  0  0  0  0  0  0  0  0  0  0
   -3.2313    1.0297   -3.2988 H   0  0  0  0  0  0  0  0  0  0  0  0
    8.5235   -2.0601    3.0878 N   0  0  0  0  0  0  0  0  0  0  0  0
    9.4894   -2.4247    3.4829 N   0  0  0  0  0  0  0  0  0  0  0  0
   -2.5160    2.1389    1.5182 H   0  0  0  0  0  0  0  0  0  0  0  0
   -3.4140    3.9592   -0.0937 H   0  0  0  0  0  0  0  0  0  0  0  0
   -2.3807    0.6989   -0.0014 N   0  0  0  0  0  0  0  0  0  0  0  0
   -1.9108   -0.1404    0.7926 O   0  0  0  0  0  0  0  0  0  0  0  0
  1 12  1  0  0  0  0
  2  3  1  0  0  0  0
  2  1  2  0  0  0  0
  3  4  1  0  0  0  0
  4 11  1  0  0  0  0
  4  5  2  0  0  0  0
  5 10  1  0  0  0  0
  6  1  1  0  0  0  0
  7  2  1  0  0  0  0
  8  9  3  0  0  0  0
 12  5  1  0  0  0  0
 12 13  1  0  0  0  0
M  RAD  2   3   2  13   2
M  END
