Coordinates from ORCA-job N-O-Pyridine-4-N2+-scan-d09-160-n800
 OpenBabel09191814183D

 13 12  0  0  0  0  0  0  0  0999 V2000
   -2.5176    0.1908   -1.1962 C   0  0  0  0  0  0  0  0  0  0  0  0
   -2.4581    1.1968   -2.1531 C   0  0  0  0  0  0  0  0  0  0  0  0
   -2.7749    2.3829   -1.5651 C   0  0  0  0  0  0  0  0  0  0  0  0
   -2.5618    2.8785   -0.3154 C   0  0  0  0  0  0  0  0  0  0  0  0
   -2.6189    1.8330    0.5984 C   0  0  0  0  0  0  0  0  0  0  0  0
   -2.5504   -0.8702   -1.4203 H   0  0  0  0  0  0  0  0  0  0  0  0
   -2.3520    0.9903   -3.2150 H   0  0  0  0  0  0  0  0  0  0  0  0
    7.2288   -1.4315    2.4465 N   0  0  0  0  0  0  0  0  0  0  0  0
    8.2142   -1.7695    2.8164 N   0  0  0  0  0  0  0  0  0  0  0  0
   -2.7249    1.9583    1.6708 H   0  0  0  0  0  0  0  0  0  0  0  0
   -2.5328    3.9217   -0.0114 H   0  0  0  0  0  0  0  0  0  0  0  0
   -2.6107    0.5051    0.1624 N   0  0  0  0  0  0  0  0  0  0  0  0
   -2.6632   -0.4157    1.0020 O   0  0  0  0  0  0  0  0  0  0  0  0
  1 12  1  0  0  0  0
  2  3  1  0  0  0  0
  2  1  2  0  0  0  0
  3  4  1  0  0  0  0
  4 11  1  0  0  0  0
  4  5  2  0  0  0  0
  5 10  1  0  0  0  0
  6  1  1  0  0  0  0
  7  2  1  0  0  0  0
  8  9  3  0  0  0  0
 12  5  1  0  0  0  0
 12 13  1  0  0  0  0
M  RAD  2   3   2  13   2
M  END
