Coordinates from ORCA-job N-O-Pyridine-4-N2+-scan-d09-160-n800
 OpenBabel09191814183D

 13 12  0  0  0  0  0  0  0  0999 V2000
   -2.5309    0.2289   -1.2313 C   0  0  0  0  0  0  0  0  0  0  0  0
   -2.6408    1.2276   -2.1907 C   0  0  0  0  0  0  0  0  0  0  0  0
   -3.0158    2.3859   -1.5813 C   0  0  0  0  0  0  0  0  0  0  0  0
   -2.7464    2.9088   -0.3535 C   0  0  0  0  0  0  0  0  0  0  0  0
   -2.6340    1.8710    0.5633 C   0  0  0  0  0  0  0  0  0  0  0  0
   -2.4855   -0.8327   -1.4508 H   0  0  0  0  0  0  0  0  0  0  0  0
   -2.6032    1.0218   -3.2574 H   0  0  0  0  0  0  0  0  0  0  0  0
    7.5936   -1.6114    2.6289 N   0  0  0  0  0  0  0  0  0  0  0  0
    8.5752   -1.9549    3.0038 N   0  0  0  0  0  0  0  0  0  0  0  0
   -2.6632    1.9961    1.6406 H   0  0  0  0  0  0  0  0  0  0  0  0
   -2.7873    3.9530   -0.0541 H   0  0  0  0  0  0  0  0  0  0  0  0
   -2.5416    0.5454    0.1300 N   0  0  0  0  0  0  0  0  0  0  0  0
   -2.4421   -0.3690    0.9724 O   0  0  0  0  0  0  0  0  0  0  0  0
  1 12  1  0  0  0  0
  2  3  1  0  0  0  0
  2  1  2  0  0  0  0
  3  4  1  0  0  0  0
  4 11  1  0  0  0  0
  4  5  2  0  0  0  0
  5 10  1  0  0  0  0
  6  1  1  0  0  0  0
  7  2  1  0  0  0  0
  8  9  3  0  0  0  0
 12  5  1  0  0  0  0
 12 13  1  0  0  0  0
M  RAD  2   3   2  13   2
M  END
