Coordinates from ORCA-job N-O-Pyridine-4-N2+-scan-d09-160-n800
 OpenBabel09191814183D

 13 12  0  0  0  0  0  0  0  0999 V2000
   -2.5732    0.3376   -1.3329 C   0  0  0  0  0  0  0  0  0  0  0  0
   -3.0739    1.2597   -2.2438 C   0  0  0  0  0  0  0  0  0  0  0  0
   -3.5604    2.3328   -1.5622 C   0  0  0  0  0  0  0  0  0  0  0  0
   -3.1787    2.9403   -0.4053 C   0  0  0  0  0  0  0  0  0  0  0  0
   -2.6756    1.9789    0.4626 C   0  0  0  0  0  0  0  0  0  0  0  0
   -2.3480   -0.6977   -1.5666 H   0  0  0  0  0  0  0  0  0  0  0  0
   -3.1995    1.0321   -3.2993 H   0  0  0  0  0  0  0  0  0  0  0  0
    8.4766   -2.0371    3.0645 N   0  0  0  0  0  0  0  0  0  0  0  0
    9.4437   -2.4004    3.4581 N   0  0  0  0  0  0  0  0  0  0  0  0
   -2.5243    2.1296    1.5264 H   0  0  0  0  0  0  0  0  0  0  0  0
   -3.3823    3.9618   -0.0944 H   0  0  0  0  0  0  0  0  0  0  0  0
   -2.3887    0.6891    0.0072 N   0  0  0  0  0  0  0  0  0  0  0  0
   -1.9378   -0.1564    0.8057 O   0  0  0  0  0  0  0  0  0  0  0  0
  1 12  1  0  0  0  0
  2  3  1  0  0  0  0
  2  1  2  0  0  0  0
  3  4  1  0  0  0  0
  4 11  1  0  0  0  0
  4  5  2  0  0  0  0
  5 10  1  0  0  0  0
  6  1  1  0  0  0  0
  7  2  1  0  0  0  0
  8  9  3  0  0  0  0
 12  5  1  0  0  0  0
 12 13  1  0  0  0  0
M  RAD  2   3   2  13   2
M  END
