Coordinates from ORCA-job N-O-Pyridine-4-N2+-scan-d09-160-n800
 OpenBabel09191814183D

 13 12  0  0  0  0  0  0  0  0999 V2000
   -2.5794    0.4119   -1.3841 C   0  0  0  0  0  0  0  0  0  0  0  0
   -3.2629    1.2507   -2.2557 C   0  0  0  0  0  0  0  0  0  0  0  0
   -3.8241    2.2655   -1.5424 C   0  0  0  0  0  0  0  0  0  0  0  0
   -3.4287    2.9331   -0.4237 C   0  0  0  0  0  0  0  0  0  0  0  0
   -2.7414    2.0550    0.4051 C   0  0  0  0  0  0  0  0  0  0  0  0
   -2.2457   -0.5906   -1.6304 H   0  0  0  0  0  0  0  0  0  0  0  0
   -3.4431    0.9929   -3.2962 H   0  0  0  0  0  0  0  0  0  0  0  0
    8.9758   -2.2879    3.2821 N   0  0  0  0  0  0  0  0  0  0  0  0
    9.9354   -2.6634    3.6824 N   0  0  0  0  0  0  0  0  0  0  0  0
   -2.5250    2.2398    1.4521 H   0  0  0  0  0  0  0  0  0  0  0  0
   -3.7323    3.9260   -0.1019 H   0  0  0  0  0  0  0  0  0  0  0  0
   -2.3333    0.8040   -0.0655 N   0  0  0  0  0  0  0  0  0  0  0  0
   -1.7173    0.0335    0.6978 O   0  0  0  0  0  0  0  0  0  0  0  0
  1 12  1  0  0  0  0
  2  3  1  0  0  0  0
  2  1  2  0  0  0  0
  3  4  1  0  0  0  0
  4 11  1  0  0  0  0
  4  5  2  0  0  0  0
  5 10  1  0  0  0  0
  6  1  1  0  0  0  0
  7  2  1  0  0  0  0
  8  9  3  0  0  0  0
 12  5  1  0  0  0  0
 12 13  1  0  0  0  0
M  RAD  2   3   2  13   2
M  END
