Coordinates from ORCA-job N-O-Pyridine-4-N2+-scan-d09-160-n800
 OpenBabel09191814183D

 13 12  0  0  0  0  0  0  0  0999 V2000
   -2.5671    0.3924   -1.3647 C   0  0  0  0  0  0  0  0  0  0  0  0
   -3.2008    1.2518   -2.2536 C   0  0  0  0  0  0  0  0  0  0  0  0
   -3.7526    2.2814   -1.5545 C   0  0  0  0  0  0  0  0  0  0  0  0
   -3.3705    2.9358   -0.4234 C   0  0  0  0  0  0  0  0  0  0  0  0
   -2.7329    2.0370    0.4228 C   0  0  0  0  0  0  0  0  0  0  0  0
   -2.2556   -0.6190   -1.6034 H   0  0  0  0  0  0  0  0  0  0  0  0
   -3.3584    1.0007   -3.2995 H   0  0  0  0  0  0  0  0  0  0  0  0
    8.8365   -2.2249    3.2152 N   0  0  0  0  0  0  0  0  0  0  0  0
    9.7990   -2.5970    3.6117 N   0  0  0  0  0  0  0  0  0  0  0  0
   -2.5414    2.2140    1.4759 H   0  0  0  0  0  0  0  0  0  0  0  0
   -3.6544    3.9366   -0.1083 H   0  0  0  0  0  0  0  0  0  0  0  0
   -2.3477    0.7753   -0.0386 N   0  0  0  0  0  0  0  0  0  0  0  0
   -1.7764   -0.0137    0.7403 O   0  0  0  0  0  0  0  0  0  0  0  0
  1 12  1  0  0  0  0
  2  3  1  0  0  0  0
  2  1  2  0  0  0  0
  3  4  1  0  0  0  0
  4 11  1  0  0  0  0
  4  5  2  0  0  0  0
  5 10  1  0  0  0  0
  6  1  1  0  0  0  0
  7  2  1  0  0  0  0
  8  9  3  0  0  0  0
 12  5  1  0  0  0  0
 12 13  1  0  0  0  0
M  RAD  2   3   2  13   2
M  END
