Coordinates from ORCA-job N-O-Pyridine-4-N2+-scan-d09-160-n800
 OpenBabel09191814183D

 13 12  0  0  0  0  0  0  0  0999 V2000
   -2.3561    0.0963   -1.1022 C   0  0  0  0  0  0  0  0  0  0  0  0
   -0.9837    0.2736   -1.2315 C   0  0  0  0  0  0  0  0  0  0  0  0
   -0.6174    1.3863   -0.5386 C   0  0  0  0  0  0  0  0  0  0  0  0
   -1.0826    1.9569    0.6061 C   0  0  0  0  0  0  0  0  0  0  0  0
   -2.4526    1.7391    0.6912 C   0  0  0  0  0  0  0  0  0  0  0  0
   -2.9532   -0.5554   -1.7313 H   0  0  0  0  0  0  0  0  0  0  0  0
   -0.3805   -0.3025   -1.9283 H   0  0  0  0  0  0  0  0  0  0  0  0
    3.9566    0.2917    0.7055 N   0  0  0  0  0  0  0  0  0  0  0  0
    5.0186    0.0972    0.9428 N   0  0  0  0  0  0  0  0  0  0  0  0
   -3.1196    2.2749    1.3584 H   0  0  0  0  0  0  0  0  0  0  0  0
   -0.5530    2.6311    1.2742 H   0  0  0  0  0  0  0  0  0  0  0  0
   -3.0838    0.8296   -0.1614 N   0  0  0  0  0  0  0  0  0  0  0  0
   -4.3148    0.6517   -0.0648 O   0  0  0  0  0  0  0  0  0  0  0  0
  1 12  1  0  0  0  0
  2  1  2  0  0  0  0
  2  3  1  0  0  0  0
  3  4  1  0  0  0  0
  4  5  2  0  0  0  0
  4 11  1  0  0  0  0
  5 10  1  0  0  0  0
  6  1  1  0  0  0  0
  7  2  1  0  0  0  0
  8  9  3  0  0  0  0
 12 13  1  0  0  0  0
 12  5  1  0  0  0  0
M  RAD  2   3   2  13   2
M  END
