Coordinates from ORCA-job N-O-Pyridine-4-N2+-scan-d09-160-n800
 OpenBabel09191814183D

 13 12  0  0  0  0  0  0  0  0999 V2000
   -2.4875    0.0778   -1.0920 C   0  0  0  0  0  0  0  0  0  0  0  0
   -1.4820    0.7931   -1.7310 C   0  0  0  0  0  0  0  0  0  0  0  0
   -1.3925    2.0281   -1.1657 C   0  0  0  0  0  0  0  0  0  0  0  0
   -1.5849    2.4762    0.1051 C   0  0  0  0  0  0  0  0  0  0  0  0
   -2.5880    1.7215    0.7011 C   0  0  0  0  0  0  0  0  0  0  0  0
   -2.9390   -0.8292   -1.4801 H   0  0  0  0  0  0  0  0  0  0  0  0
   -1.0040    0.4449   -2.6431 H   0  0  0  0  0  0  0  0  0  0  0  0
    5.4131   -0.4279    1.4352 N   0  0  0  0  0  0  0  0  0  0  0  0
    6.4266   -0.7224    1.7639 N   0  0  0  0  0  0  0  0  0  0  0  0
   -3.1121    2.0022    1.6086 H   0  0  0  0  0  0  0  0  0  0  0  0
   -1.1835    3.3792    0.5580 H   0  0  0  0  0  0  0  0  0  0  0  0
   -3.0434    0.5434    0.1027 N   0  0  0  0  0  0  0  0  0  0  0  0
   -3.9450   -0.1165    0.6571 O   0  0  0  0  0  0  0  0  0  0  0  0
  1 12  1  0  0  0  0
  2  3  1  0  0  0  0
  2  1  2  0  0  0  0
  3  4  1  0  0  0  0
  4 11  1  0  0  0  0
  4  5  2  0  0  0  0
  5 10  1  0  0  0  0
  6  1  1  0  0  0  0
  7  2  1  0  0  0  0
  8  9  3  0  0  0  0
 12 13  1  0  0  0  0
 12  5  1  0  0  0  0
M  RAD  2   3   2  13   2
M  END
