Coordinates from ORCA-job N-O-Pyridine-4-N2+-scan-d09-160-n800
 OpenBabel09191814183D

 13 12  0  0  0  0  0  0  0  0999 V2000
   -2.4844    0.0792   -1.0930 C   0  0  0  0  0  0  0  0  0  0  0  0
   -1.5637    0.8525   -1.7897 C   0  0  0  0  0  0  0  0  0  0  0  0
   -1.5198    2.0936   -1.2324 C   0  0  0  0  0  0  0  0  0  0  0  0
   -1.6673    2.5357    0.0465 C   0  0  0  0  0  0  0  0  0  0  0  0
   -2.5855    1.7229    0.7001 C   0  0  0  0  0  0  0  0  0  0  0  0
   -2.8995   -0.8563   -1.4530 H   0  0  0  0  0  0  0  0  0  0  0  0
   -1.1176    0.5300   -2.7270 H   0  0  0  0  0  0  0  0  0  0  0  0
    5.5514   -0.5222    1.5280 N   0  0  0  0  0  0  0  0  0  0  0  0
    6.5607   -0.8236    1.8632 N   0  0  0  0  0  0  0  0  0  0  0  0
   -3.0738    1.9751    1.6355 H   0  0  0  0  0  0  0  0  0  0  0  0
   -1.2982    3.4644    0.4740 H   0  0  0  0  0  0  0  0  0  0  0  0
   -2.9994    0.5155    0.1308 N   0  0  0  0  0  0  0  0  0  0  0  0
   -3.8249   -0.1965    0.7369 O   0  0  0  0  0  0  0  0  0  0  0  0
  1 12  1  0  0  0  0
  2  3  1  0  0  0  0
  2  1  2  0  0  0  0
  3  4  1  0  0  0  0
  4 11  1  0  0  0  0
  4  5  2  0  0  0  0
  5 10  1  0  0  0  0
  6  1  1  0  0  0  0
  7  2  1  0  0  0  0
  8  9  3  0  0  0  0
 12  5  1  0  0  0  0
 12 13  1  0  0  0  0
M  RAD  2   3   2  13   2
M  END
