Coordinates from ORCA-job N-O-Pyridine-4-N2+-scan-d09-160-n800
 OpenBabel09191814183D

 13 12  0  0  0  0  0  0  0  0999 V2000
   -2.7255    0.6702   -1.6427 C   0  0  0  0  0  0  0  0  0  0  0  0
   -3.9127    1.1471   -2.1848 C   0  0  0  0  0  0  0  0  0  0  0  0
   -4.5176    1.9599   -1.2755 C   0  0  0  0  0  0  0  0  0  0  0  0
   -4.0286    2.8115   -0.3326 C   0  0  0  0  0  0  0  0  0  0  0  0
   -2.8387    2.2956    0.1661 C   0  0  0  0  0  0  0  0  0  0  0  0
   -2.1652   -0.1719   -2.0352 H   0  0  0  0  0  0  0  0  0  0  0  0
   -4.3319    0.7588   -3.1095 H   0  0  0  0  0  0  0  0  0  0  0  0
   10.4574   -2.9917    4.0265 N   0  0  0  0  0  0  0  0  0  0  0  0
   11.3706   -3.4110    4.4872 N   0  0  0  0  0  0  0  0  0  0  0  0
   -2.3602    2.6284    1.0812 H   0  0  0  0  0  0  0  0  0  0  0  0
   -4.5339    3.6608    0.1201 H   0  0  0  0  0  0  0  0  0  0  0  0
   -2.2017    1.2290   -0.4739 N   0  0  0  0  0  0  0  0  0  0  0  0
   -1.1343    0.7837   -0.0069 O   0  0  0  0  0  0  0  0  0  0  0  0
  1 12  1  0  0  0  0
  2  1  2  0  0  0  0
  2  3  1  0  0  0  0
  3  4  1  0  0  0  0
  4 11  1  0  0  0  0
  4  5  2  0  0  0  0
  5 10  1  0  0  0  0
  6  1  1  0  0  0  0
  7  2  1  0  0  0  0
  8  9  3  0  0  0  0
 12 13  1  0  0  0  0
 12  5  1  0  0  0  0
M  RAD  2   3   2  13   2
M  END
