Coordinates from ORCA-job N-O-Pyridine-4-N2+-scan-d09-160-n800
 OpenBabel09191814183D

 13 12  0  0  0  0  0  0  0  0999 V2000
   -2.4033    0.0945   -1.1031 C   0  0  0  0  0  0  0  0  0  0  0  0
   -1.0513    0.3472   -1.3021 C   0  0  0  0  0  0  0  0  0  0  0  0
   -0.7129    1.4819   -0.6309 C   0  0  0  0  0  0  0  0  0  0  0  0
   -1.1506    2.0304    0.5353 C   0  0  0  0  0  0  0  0  0  0  0  0
   -2.5002    1.7374    0.6903 C   0  0  0  0  0  0  0  0  0  0  0  0
   -2.9944   -0.5922   -1.7000 H   0  0  0  0  0  0  0  0  0  0  0  0
   -0.4532   -0.1978   -2.0278 H   0  0  0  0  0  0  0  0  0  0  0  0
    4.2674    0.1871    0.8168 N   0  0  0  0  0  0  0  0  0  0  0  0
    5.3210   -0.0277    1.0731 N   0  0  0  0  0  0  0  0  0  0  0  0
   -3.1613    2.2383    1.3897 H   0  0  0  0  0  0  0  0  0  0  0  0
   -0.6262    2.7360    1.1746 H   0  0  0  0  0  0  0  0  0  0  0  0
   -3.1222    0.7905   -0.1277 N   0  0  0  0  0  0  0  0  0  0  0  0
   -4.3349    0.5450    0.0316 O   0  0  0  0  0  0  0  0  0  0  0  0
  1 12  1  0  0  0  0
  2  1  2  0  0  0  0
  2  3  1  0  0  0  0
  3  4  1  0  0  0  0
  4  5  2  0  0  0  0
  4 11  1  0  0  0  0
  5 10  1  0  0  0  0
  6  1  1  0  0  0  0
  7  2  1  0  0  0  0
  8  9  3  0  0  0  0
 12 13  1  0  0  0  0
 12  5  1  0  0  0  0
M  RAD  2   3   2  13   2
M  END
