Coordinates from ORCA-job N-O-Pyridine-4-N2+-scan-d09-160-n800
 OpenBabel09191814183D

 13 12  0  0  0  0  0  0  0  0999 V2000
   -2.0549    0.0877   -1.0732 C   0  0  0  0  0  0  0  0  0  0  0  0
   -0.6659    0.0755   -1.0345 C   0  0  0  0  0  0  0  0  0  0  0  0
   -0.2252    1.1060   -0.2616 C   0  0  0  0  0  0  0  0  0  0  0  0
   -0.7643    1.7596    0.8042 C   0  0  0  0  0  0  0  0  0  0  0  0
   -2.1505    1.7252    0.7147 C   0  0  0  0  0  0  0  0  0  0  0  0
   -2.6506   -0.4842   -1.7760 H   0  0  0  0  0  0  0  0  0  0  0  0
   -0.0708   -0.5760   -1.6666 H   0  0  0  0  0  0  0  0  0  0  0  0
    2.2282    0.6317    0.3041 N   0  0  0  0  0  0  0  0  0  0  0  0
    3.3183    0.5322    0.4536 N   0  0  0  0  0  0  0  0  0  0  0  0
   -2.8157    2.3416    1.3092 H   0  0  0  0  0  0  0  0  0  0  0  0
   -0.2425    2.3619    1.5411 H   0  0  0  0  0  0  0  0  0  0  0  0
   -2.7904    0.9088   -0.2182 N   0  0  0  0  0  0  0  0  0  0  0  0
   -4.0377    0.9003   -0.2771 O   0  0  0  0  0  0  0  0  0  0  0  0
  1  2  2  0  0  0  0
  1 12  1  0  0  0  0
  2  3  1  0  0  0  0
  3  4  1  0  0  0  0
  4 11  1  0  0  0  0
  5  4  2  0  0  0  0
  5 10  1  0  0  0  0
  6  1  1  0  0  0  0
  7  2  1  0  0  0  0
  8  9  3  0  0  0  0
 12  5  1  0  0  0  0
 13 12  1  0  0  0  0
M  RAD  2   3   2  13   2
M  END
