Coordinates from ORCA-job N-O-Pyridine-4-N2+-scan-d09-160-n800
 OpenBabel09191814183D

 13 12  0  0  0  0  0  0  0  0999 V2000
   -2.4847    0.1408   -1.1488 C   0  0  0  0  0  0  0  0  0  0  0  0
   -2.1819    1.1298   -2.0769 C   0  0  0  0  0  0  0  0  0  0  0  0
   -2.4107    2.3474   -1.5130 C   0  0  0  0  0  0  0  0  0  0  0  0
   -2.2861    2.8119   -0.2396 C   0  0  0  0  0  0  0  0  0  0  0  0
   -2.5864    1.7834    0.6453 C   0  0  0  0  0  0  0  0  0  0  0  0
   -2.6272   -0.9072   -1.3909 H   0  0  0  0  0  0  0  0  0  0  0  0
   -1.9776    0.9106   -3.1217 H   0  0  0  0  0  0  0  0  0  0  0  0
    6.6353   -1.1529    2.1603 N   0  0  0  0  0  0  0  0  0  0  0  0
    7.6256   -1.4838    2.5236 N   0  0  0  0  0  0  0  0  0  0  0  0
   -2.8024    1.9222    1.6995 H   0  0  0  0  0  0  0  0  0  0  0  0
   -2.1592    3.8428    0.0809 H   0  0  0  0  0  0  0  0  0  0  0  0
   -2.6979    0.4655    0.1937 N   0  0  0  0  0  0  0  0  0  0  0  0
   -2.9689   -0.4401    1.0075 O   0  0  0  0  0  0  0  0  0  0  0  0
  1 12  1  0  0  0  0
  2  3  1  0  0  0  0
  2  1  2  0  0  0  0
  3  4  1  0  0  0  0
  4 11  1  0  0  0  0
  4  5  2  0  0  0  0
  5 10  1  0  0  0  0
  6  1  1  0  0  0  0
  7  2  1  0  0  0  0
  8  9  3  0  0  0  0
 12  5  1  0  0  0  0
 12 13  1  0  0  0  0
M  RAD  2   3   2  13   2
M  END
