Coordinates from ORCA-job N-O-Pyridine-4-N2+-scan-d09-160-n800
 OpenBabel09191814183D

 13 12  0  0  0  0  0  0  0  0999 V2000
   -2.1942    0.0912   -1.0884 C   0  0  0  0  0  0  0  0  0  0  0  0
   -0.8055    0.1467   -1.1064 C   0  0  0  0  0  0  0  0  0  0  0  0
   -0.3997    1.2196   -0.3749 C   0  0  0  0  0  0  0  0  0  0  0  0
   -0.9038    1.8301    0.7315 C   0  0  0  0  0  0  0  0  0  0  0  0
   -2.2901    1.7333    0.7044 C   0  0  0  0  0  0  0  0  0  0  0  0
   -2.7935   -0.5056   -1.7678 H   0  0  0  0  0  0  0  0  0  0  0  0
   -0.2006   -0.4793   -1.7568 H   0  0  0  0  0  0  0  0  0  0  0  0
    3.0126    0.5098    0.4574 N   0  0  0  0  0  0  0  0  0  0  0  0
    4.0862    0.3479    0.6637 N   0  0  0  0  0  0  0  0  0  0  0  0
   -2.9588    2.3240    1.3215 H   0  0  0  0  0  0  0  0  0  0  0  0
   -0.3720    2.4535    1.4452 H   0  0  0  0  0  0  0  0  0  0  0  0
   -2.9283    0.8840   -0.2028 N   0  0  0  0  0  0  0  0  0  0  0  0
   -4.1743    0.8153   -0.2066 O   0  0  0  0  0  0  0  0  0  0  0  0
  1 12  1  0  0  0  0
  2  1  2  0  0  0  0
  2  3  1  0  0  0  0
  3  4  1  0  0  0  0
  4 11  1  0  0  0  0
  5  4  2  0  0  0  0
  5 10  1  0  0  0  0
  6  1  1  0  0  0  0
  7  2  1  0  0  0  0
  8  9  3  0  0  0  0
 12  5  1  0  0  0  0
 13 12  1  0  0  0  0
M  RAD  2   3   2  13   2
M  END
