Coordinates from ORCA-job N-O-Pyridine-4-N2+-scan-d09-160-n800
 OpenBabel09191814183D

 13 12  0  0  0  0  0  0  0  0999 V2000
   -2.4549    0.0891   -1.1009 C   0  0  0  0  0  0  0  0  0  0  0  0
   -1.1578    0.4717   -1.4211 C   0  0  0  0  0  0  0  0  0  0  0  0
   -0.8746    1.6412   -0.7848 C   0  0  0  0  0  0  0  0  0  0  0  0
   -1.2580    2.1550    0.4160 C   0  0  0  0  0  0  0  0  0  0  0  0
   -2.5527    1.7323    0.6924 C   0  0  0  0  0  0  0  0  0  0  0  0
   -3.0263   -0.6584   -1.6412 H   0  0  0  0  0  0  0  0  0  0  0  0
   -0.5762   -0.0190   -2.1972 H   0  0  0  0  0  0  0  0  0  0  0  0
    4.6723    0.0179    0.9918 N   0  0  0  0  0  0  0  0  0  0  0  0
    5.7124   -0.2268    1.2750 N   0  0  0  0  0  0  0  0  0  0  0  0
   -3.1948    2.1725    1.4481 H   0  0  0  0  0  0  0  0  0  0  0  0
   -0.7508    2.9150    1.0047 H   0  0  0  0  0  0  0  0  0  0  0  0
   -3.1488    0.7208   -0.0655 N   0  0  0  0  0  0  0  0  0  0  0  0
   -4.3121    0.3589    0.2027 O   0  0  0  0  0  0  0  0  0  0  0  0
  1 12  1  0  0  0  0
  2  1  2  0  0  0  0
  2  3  1  0  0  0  0
  3  4  1  0  0  0  0
  4  5  2  0  0  0  0
  4 11  1  0  0  0  0
  5 10  1  0  0  0  0
  6  1  1  0  0  0  0
  7  2  1  0  0  0  0
  8  9  3  0  0  0  0
 12 13  1  0  0  0  0
 12  5  1  0  0  0  0
M  RAD  2   3   2  13   2
M  END
