Coordinates from ORCA-job N-O-Pyridine-4-N2+-scan-d09-160-n800
 OpenBabel09191814183D

 13 12  0  0  0  0  0  0  0  0999 V2000
   -2.5423    0.2542   -1.2552 C   0  0  0  0  0  0  0  0  0  0  0  0
   -2.7522    1.2416   -2.2096 C   0  0  0  0  0  0  0  0  0  0  0  0
   -3.1583    2.3809   -1.5843 C   0  0  0  0  0  0  0  0  0  0  0  0
   -2.8571    2.9225   -0.3720 C   0  0  0  0  0  0  0  0  0  0  0  0
   -2.6448    1.8961    0.5398 C   0  0  0  0  0  0  0  0  0  0  0  0
   -2.4512   -0.8043   -1.4750 H   0  0  0  0  0  0  0  0  0  0  0  0
   -2.7560    1.0337   -3.2765 H   0  0  0  0  0  0  0  0  0  0  0  0
    7.8222   -1.7212    2.7417 N   0  0  0  0  0  0  0  0  0  0  0  0
    8.8014   -2.0680    3.1197 N   0  0  0  0  0  0  0  0  0  0  0  0
   -2.6277    2.0240    1.6170 H   0  0  0  0  0  0  0  0  0  0  0  0
   -2.9390    3.9643   -0.0727 H   0  0  0  0  0  0  0  0  0  0  0  0
   -2.5032    0.5755    0.1045 N   0  0  0  0  0  0  0  0  0  0  0  0
   -2.3138   -0.3287    0.9425 O   0  0  0  0  0  0  0  0  0  0  0  0
  1 12  1  0  0  0  0
  2  3  1  0  0  0  0
  2  1  2  0  0  0  0
  3  4  1  0  0  0  0
  4 11  1  0  0  0  0
  4  5  2  0  0  0  0
  5 10  1  0  0  0  0
  6  1  1  0  0  0  0
  7  2  1  0  0  0  0
  8  9  3  0  0  0  0
 12  5  1  0  0  0  0
 12 13  1  0  0  0  0
M  RAD  2   3   2  13   2
M  END
