Coordinates from ORCA-job N-O-Pyridine-4-N2+-scan-d09-160-n800
 OpenBabel09191814183D

 13 12  0  0  0  0  0  0  0  0999 V2000
   -2.4713    0.0862   -1.0992 C   0  0  0  0  0  0  0  0  0  0  0  0
   -1.2115    0.5328   -1.4796 C   0  0  0  0  0  0  0  0  0  0  0  0
   -0.9590    1.7178   -0.8592 C   0  0  0  0  0  0  0  0  0  0  0  0
   -1.3121    2.2161    0.3573 C   0  0  0  0  0  0  0  0  0  0  0  0
   -2.5695    1.7296    0.6941 C   0  0  0  0  0  0  0  0  0  0  0  0
   -3.0283   -0.6914   -1.6111 H   0  0  0  0  0  0  0  0  0  0  0  0
   -0.6421    0.0691   -2.2810 H   0  0  0  0  0  0  0  0  0  0  0  0
    4.8391   -0.0643    1.0752 N   0  0  0  0  0  0  0  0  0  0  0  0
    5.8733   -0.3212    1.3695 N   0  0  0  0  0  0  0  0  0  0  0  0
   -3.1975    2.1395    1.4781 H   0  0  0  0  0  0  0  0  0  0  0  0
   -0.8175    3.0031    0.9208 H   0  0  0  0  0  0  0  0  0  0  0  0
   -3.1479    0.6862   -0.0337 N   0  0  0  0  0  0  0  0  0  0  0  0
   -4.2777    0.2670    0.2885 O   0  0  0  0  0  0  0  0  0  0  0  0
  1 12  1  0  0  0  0
  2  1  2  0  0  0  0
  2  3  1  0  0  0  0
  3  4  1  0  0  0  0
  4  5  2  0  0  0  0
  4 11  1  0  0  0  0
  5 10  1  0  0  0  0
  6  1  1  0  0  0  0
  7  2  1  0  0  0  0
  8  9  3  0  0  0  0
 12 13  1  0  0  0  0
 12  5  1  0  0  0  0
M  RAD  2   3   2  13   2
M  END
