Coordinates from ORCA-job N-O-Pyridine-4-N2+-scan-d09-160-n800
 OpenBabel09191814183D

 13 12  0  0  0  0  0  0  0  0999 V2000
   -2.7598    0.6858   -1.6591 C   0  0  0  0  0  0  0  0  0  0  0  0
   -3.9535    1.1548   -2.1937 C   0  0  0  0  0  0  0  0  0  0  0  0
   -4.5579    1.9638   -1.2806 C   0  0  0  0  0  0  0  0  0  0  0  0
   -4.0684    2.8188   -0.3410 C   0  0  0  0  0  0  0  0  0  0  0  0
   -2.8720    2.3109    0.1500 C   0  0  0  0  0  0  0  0  0  0  0  0
   -2.1965   -0.1527   -2.0550 H   0  0  0  0  0  0  0  0  0  0  0  0
   -4.3761    0.7635   -3.1156 H   0  0  0  0  0  0  0  0  0  0  0  0
   10.6520   -3.0643    4.1032 N   0  0  0  0  0  0  0  0  0  0  0  0
   11.5674   -3.4805    4.5624 N   0  0  0  0  0  0  0  0  0  0  0  0
   -2.3898    2.6470    1.0620 H   0  0  0  0  0  0  0  0  0  0  0  0
   -4.5764    3.6649    0.1147 H   0  0  0  0  0  0  0  0  0  0  0  0
   -2.2321    1.2483   -0.4938 N   0  0  0  0  0  0  0  0  0  0  0  0
   -1.1589    0.8102   -0.0336 O   0  0  0  0  0  0  0  0  0  0  0  0
  1 12  1  0  0  0  0
  2  1  2  0  0  0  0
  2  3  1  0  0  0  0
  3  4  1  0  0  0  0
  4 11  1  0  0  0  0
  4  5  2  0  0  0  0
  5 10  1  0  0  0  0
  6  1  1  0  0  0  0
  7  2  1  0  0  0  0
  8  9  3  0  0  0  0
 12 13  1  0  0  0  0
 12  5  1  0  0  0  0
M  RAD  2   3   2  13   2
M  END
