Coordinates from ORCA-job N-O-Pyridine-4-N2+-scan-d09-160-n800
 OpenBabel09191814183D

 13 12  0  0  0  0  0  0  0  0999 V2000
   -2.4747    0.0855   -1.0987 C   0  0  0  0  0  0  0  0  0  0  0  0
   -1.2255    0.5482   -1.4944 C   0  0  0  0  0  0  0  0  0  0  0  0
   -0.9812    1.7371   -0.8779 C   0  0  0  0  0  0  0  0  0  0  0  0
   -1.3262    2.2316    0.3425 C   0  0  0  0  0  0  0  0  0  0  0  0
   -2.5731    1.7289    0.6946 C   0  0  0  0  0  0  0  0  0  0  0  0
   -3.0275   -0.6998   -1.6034 H   0  0  0  0  0  0  0  0  0  0  0  0
   -0.6597    0.0914   -2.3023 H   0  0  0  0  0  0  0  0  0  0  0  0
    4.8792   -0.0853    1.0963 N   0  0  0  0  0  0  0  0  0  0  0  0
    5.9119   -0.3449    1.3932 N   0  0  0  0  0  0  0  0  0  0  0  0
   -3.1969    2.1312    1.4858 H   0  0  0  0  0  0  0  0  0  0  0  0
   -0.8353    3.0254    0.8994 H   0  0  0  0  0  0  0  0  0  0  0  0
   -3.1463    0.6774   -0.0256 N   0  0  0  0  0  0  0  0  0  0  0  0
   -4.2666    0.2437    0.3104 O   0  0  0  0  0  0  0  0  0  0  0  0
  1 12  1  0  0  0  0
  2  1  2  0  0  0  0
  2  3  1  0  0  0  0
  3  4  1  0  0  0  0
  4  5  2  0  0  0  0
  4 11  1  0  0  0  0
  5 10  1  0  0  0  0
  6  1  1  0  0  0  0
  7  2  1  0  0  0  0
  8  9  3  0  0  0  0
 12 13  1  0  0  0  0
 12  5  1  0  0  0  0
M  RAD  2   3   2  13   2
M  END
