Coordinates from ORCA-job N-O-Pyridine-4-N2+-scan-d09-160-n800
 OpenBabel09191814183D

 13 12  0  0  0  0  0  0  0  0999 V2000
   -2.6298    0.5227   -1.4940 C   0  0  0  0  0  0  0  0  0  0  0  0
   -3.5771    1.2160   -2.2375 C   0  0  0  0  0  0  0  0  0  0  0  0
   -4.1754    2.1403   -1.4369 C   0  0  0  0  0  0  0  0  0  0  0  0
   -3.7204    2.8901   -0.3957 C   0  0  0  0  0  0  0  0  0  0  0  0
   -2.7697    2.1574    0.3045 C   0  0  0  0  0  0  0  0  0  0  0  0
   -2.1783   -0.4165   -1.7961 H   0  0  0  0  0  0  0  0  0  0  0  0
   -3.8794    0.9074   -3.2350 H   0  0  0  0  0  0  0  0  0  0  0  0
    9.6238   -2.5977    3.6100 N   0  0  0  0  0  0  0  0  0  0  0  0
   10.5614   -2.9965    4.0390 N   0  0  0  0  0  0  0  0  0  0  0  0
   -2.4194    2.3997    1.3024 H   0  0  0  0  0  0  0  0  0  0  0  0
   -4.1293    3.8260   -0.0237 H   0  0  0  0  0  0  0  0  0  0  0  0
   -2.2404    0.9807   -0.2324 N   0  0  0  0  0  0  0  0  0  0  0  0
   -1.3880    0.3409    0.4154 O   0  0  0  0  0  0  0  0  0  0  0  0
  1 12  1  0  0  0  0
  2  1  2  0  0  0  0
  2  3  1  0  0  0  0
  3  4  1  0  0  0  0
  4 11  1  0  0  0  0
  4  5  2  0  0  0  0
  5 10  1  0  0  0  0
  6  1  1  0  0  0  0
  7  2  1  0  0  0  0
  8  9  3  0  0  0  0
 12  5  1  0  0  0  0
 12 13  1  0  0  0  0
M  RAD  2   3   2  13   2
M  END
