Coordinates from ORCA-job N-O-Pyridine-4-N2+-scan-d09-160-n800
 OpenBabel09191814183D

 13 12  0  0  0  0  0  0  0  0999 V2000
   -2.6712    0.6311   -1.6025 C   0  0  0  0  0  0  0  0  0  0  0  0
   -3.8218    1.1496   -2.1839 C   0  0  0  0  0  0  0  0  0  0  0  0
   -4.4288    1.9824   -1.2942 C   0  0  0  0  0  0  0  0  0  0  0  0
   -3.9429    2.8158   -0.3336 C   0  0  0  0  0  0  0  0  0  0  0  0
   -2.7895    2.2583    0.2045 C   0  0  0  0  0  0  0  0  0  0  0  0
   -2.1276   -0.2298   -1.9771 H   0  0  0  0  0  0  0  0  0  0  0  0
   -4.2224    0.7768   -3.1231 H   0  0  0  0  0  0  0  0  0  0  0  0
   10.1179   -2.8534    3.8801 N   0  0  0  0  0  0  0  0  0  0  0  0
   11.0314   -3.2740    4.3391 N   0  0  0  0  0  0  0  0  0  0  0  0
   -2.3312    2.5734    1.1360 H   0  0  0  0  0  0  0  0  0  0  0  0
   -4.4335    3.6819    0.1032 H   0  0  0  0  0  0  0  0  0  0  0  0
   -2.1685    1.1705   -0.4153 N   0  0  0  0  0  0  0  0  0  0  0  0
   -1.1340    0.6878    0.0870 O   0  0  0  0  0  0  0  0  0  0  0  0
  1 12  1  0  0  0  0
  2  1  2  0  0  0  0
  2  3  1  0  0  0  0
  3  4  1  0  0  0  0
  4 11  1  0  0  0  0
  4  5  2  0  0  0  0
  5 10  1  0  0  0  0
  6  1  1  0  0  0  0
  7  2  1  0  0  0  0
  8  9  3  0  0  0  0
 12 13  1  0  0  0  0
 12  5  1  0  0  0  0
M  RAD  2   3   2  13   2
M  END
