Coordinates from ORCA-job N-O-Pyridine-4-N2+-scan-d09-160-n800
 OpenBabel09191814183D

 13 12  0  0  0  0  0  0  0  0999 V2000
   -2.5087    0.1734   -1.1798 C   0  0  0  0  0  0  0  0  0  0  0  0
   -2.3659    1.1772   -2.1301 C   0  0  0  0  0  0  0  0  0  0  0  0
   -2.6539    2.3753   -1.5517 C   0  0  0  0  0  0  0  0  0  0  0  0
   -2.4704    2.8591   -0.2927 C   0  0  0  0  0  0  0  0  0  0  0  0
   -2.6108    1.8158    0.6145 C   0  0  0  0  0  0  0  0  0  0  0  0
   -2.5791   -0.8848   -1.4084 H   0  0  0  0  0  0  0  0  0  0  0  0
   -2.2257    0.9677   -3.1875 H   0  0  0  0  0  0  0  0  0  0  0  0
    7.0413   -1.3404    2.3529 N   0  0  0  0  0  0  0  0  0  0  0  0
    8.0278   -1.6769    2.7212 N   0  0  0  0  0  0  0  0  0  0  0  0
   -2.7549    1.9442    1.6822 H   0  0  0  0  0  0  0  0  0  0  0  0
   -2.4079    3.8996    0.0156 H   0  0  0  0  0  0  0  0  0  0  0  0
   -2.6433    0.4896    0.1749 N   0  0  0  0  0  0  0  0  0  0  0  0
   -2.7707   -0.4293    1.0088 O   0  0  0  0  0  0  0  0  0  0  0  0
  1 12  1  0  0  0  0
  2  3  1  0  0  0  0
  2  1  2  0  0  0  0
  3  4  1  0  0  0  0
  4 11  1  0  0  0  0
  4  5  2  0  0  0  0
  5 10  1  0  0  0  0
  6  1  1  0  0  0  0
  7  2  1  0  0  0  0
  8  9  3  0  0  0  0
 12  5  1  0  0  0  0
 12 13  1  0  0  0  0
M  RAD  2   3   2  13   2
M  END
