Coordinates from ORCA-job N-O-Pyridine-4-N2+-scan-d09-160-n800
 OpenBabel09191814183D

 13 12  0  0  0  0  0  0  0  0999 V2000
   -2.4908    0.0795   -1.0939 C   0  0  0  0  0  0  0  0  0  0  0  0
   -1.3691    0.6953   -1.6357 C   0  0  0  0  0  0  0  0  0  0  0  0
   -1.2115    1.9153   -1.0530 C   0  0  0  0  0  0  0  0  0  0  0  0
   -1.4711    2.3784    0.2005 C   0  0  0  0  0  0  0  0  0  0  0  0
   -2.5904    1.7232    0.6992 C   0  0  0  0  0  0  0  0  0  0  0  0
   -2.9915   -0.7791   -1.5289 H   0  0  0  0  0  0  0  0  0  0  0  0
   -0.8482    0.3036   -2.5057 H   0  0  0  0  0  0  0  0  0  0  0  0
    5.2146   -0.2868    1.2967 N   0  0  0  0  0  0  0  0  0  0  0  0
    6.2353   -0.5687    1.6139 N   0  0  0  0  0  0  0  0  0  0  0  0
   -3.1630    2.0522    1.5600 H   0  0  0  0  0  0  0  0  0  0  0  0
   -1.0260    3.2378    0.6954 H   0  0  0  0  0  0  0  0  0  0  0  0
   -3.1022    0.5952    0.0521 N   0  0  0  0  0  0  0  0  0  0  0  0
   -4.1082    0.0245    0.5193 O   0  0  0  0  0  0  0  0  0  0  0  0
  1 12  1  0  0  0  0
  2  1  2  0  0  0  0
  2  3  1  0  0  0  0
  3  4  1  0  0  0  0
  4 11  1  0  0  0  0
  4  5  2  0  0  0  0
  5 10  1  0  0  0  0
  6  1  1  0  0  0  0
  7  2  1  0  0  0  0
  8  9  3  0  0  0  0
 12 13  1  0  0  0  0
 12  5  1  0  0  0  0
M  RAD  2   3   2  13   2
M  END
