Coordinates from ORCA-job N-O-Pyridine-4-N2+-scan-d09-160-n800
 OpenBabel09191814183D

 13 12  0  0  0  0  0  0  0  0999 V2000
   -2.5652    0.3717   -1.3508 C   0  0  0  0  0  0  0  0  0  0  0  0
   -3.1496    1.2546   -2.2504 C   0  0  0  0  0  0  0  0  0  0  0  0
   -3.6816    2.3003   -1.5597 C   0  0  0  0  0  0  0  0  0  0  0  0
   -3.3020    2.9379   -0.4182 C   0  0  0  0  0  0  0  0  0  0  0  0
   -2.7139    2.0160    0.4387 C   0  0  0  0  0  0  0  0  0  0  0  0
   -2.2831   -0.6492   -1.5859 H   0  0  0  0  0  0  0  0  0  0  0  0
   -3.2928    1.0118   -3.3002 H   0  0  0  0  0  0  0  0  0  0  0  0
    8.6979   -2.1555    3.1555 N   0  0  0  0  0  0  0  0  0  0  0  0
    9.6623   -2.5243    3.5502 N   0  0  0  0  0  0  0  0  0  0  0  0
   -2.5389    2.1837    1.4962 H   0  0  0  0  0  0  0  0  0  0  0  0
   -3.5581    3.9472   -0.1062 H   0  0  0  0  0  0  0  0  0  0  0  0
   -2.3620    0.7432   -0.0188 N   0  0  0  0  0  0  0  0  0  0  0  0
   -1.8351   -0.0670    0.7695 O   0  0  0  0  0  0  0  0  0  0  0  0
  1 12  1  0  0  0  0
  2  3  1  0  0  0  0
  2  1  2  0  0  0  0
  3  4  1  0  0  0  0
  4 11  1  0  0  0  0
  4  5  2  0  0  0  0
  5 10  1  0  0  0  0
  6  1  1  0  0  0  0
  7  2  1  0  0  0  0
  8  9  3  0  0  0  0
 12  5  1  0  0  0  0
 12 13  1  0  0  0  0
M  RAD  2   3   2  13   2
M  END
