Coordinates from ORCA-job N-O-Pyridine-4-N2+-scan-d09-160-n800
 OpenBabel09191814183D

 13 12  0  0  0  0  0  0  0  0999 V2000
   -2.6842    0.6433   -1.6149 C   0  0  0  0  0  0  0  0  0  0  0  0
   -3.8489    1.1462   -2.1816 C   0  0  0  0  0  0  0  0  0  0  0  0
   -4.4552    1.9714   -1.2845 C   0  0  0  0  0  0  0  0  0  0  0  0
   -3.9680    2.8117   -0.3306 C   0  0  0  0  0  0  0  0  0  0  0  0
   -2.8005    2.2698    0.1927 C   0  0  0  0  0  0  0  0  0  0  0  0
   -2.1340   -0.2106   -1.9962 H   0  0  0  0  0  0  0  0  0  0  0  0
   -4.2566    0.7676   -3.1155 H   0  0  0  0  0  0  0  0  0  0  0  0
   10.2054   -2.8911    3.9200 N   0  0  0  0  0  0  0  0  0  0  0  0
   11.1180   -3.3121    4.3804 N   0  0  0  0  0  0  0  0  0  0  0  0
   -2.3345    2.5915    1.1182 H   0  0  0  0  0  0  0  0  0  0  0  0
   -4.4643    3.6715    0.1121 H   0  0  0  0  0  0  0  0  0  0  0  0
   -2.1733    1.1899   -0.4346 N   0  0  0  0  0  0  0  0  0  0  0  0
   -1.1260    0.7213    0.0545 O   0  0  0  0  0  0  0  0  0  0  0  0
  1 12  1  0  0  0  0
  2  1  2  0  0  0  0
  2  3  1  0  0  0  0
  3  4  1  0  0  0  0
  4 11  1  0  0  0  0
  4  5  2  0  0  0  0
  5 10  1  0  0  0  0
  6  1  1  0  0  0  0
  7  2  1  0  0  0  0
  8  9  3  0  0  0  0
 12 13  1  0  0  0  0
 12  5  1  0  0  0  0
M  RAD  2   3   2  13   2
M  END
