Coordinates from ORCA-job N-O-Pyridine-4-N2+-scan-d09-160-n800
 OpenBabel09191814183D

 13 12  0  0  0  0  0  0  0  0999 V2000
   -2.5220    0.2051   -1.2091 C   0  0  0  0  0  0  0  0  0  0  0  0
   -2.5282    1.2099   -2.1685 C   0  0  0  0  0  0  0  0  0  0  0  0
   -2.8696    2.3860   -1.5736 C   0  0  0  0  0  0  0  0  0  0  0  0
   -2.6344    2.8914   -0.3315 C   0  0  0  0  0  0  0  0  0  0  0  0
   -2.6257    1.8476    0.5852 C   0  0  0  0  0  0  0  0  0  0  0  0
   -2.5238   -0.8570   -1.4307 H   0  0  0  0  0  0  0  0  0  0  0  0
   -2.4479    1.0042   -3.2328 H   0  0  0  0  0  0  0  0  0  0  0  0
    7.3717   -1.5022    2.5172 N   0  0  0  0  0  0  0  0  0  0  0  0
    8.3557   -1.8423    2.8888 N   0  0  0  0  0  0  0  0  0  0  0  0
   -2.7024    1.9724    1.6602 H   0  0  0  0  0  0  0  0  0  0  0  0
   -2.6330    3.9358   -0.0301 H   0  0  0  0  0  0  0  0  0  0  0  0
   -2.5844    0.5196    0.1513 N   0  0  0  0  0  0  0  0  0  0  0  0
   -2.5780   -0.4002    0.9936 O   0  0  0  0  0  0  0  0  0  0  0  0
  1 12  1  0  0  0  0
  2  3  1  0  0  0  0
  2  1  2  0  0  0  0
  3  4  1  0  0  0  0
  4 11  1  0  0  0  0
  4  5  2  0  0  0  0
  5 10  1  0  0  0  0
  6  1  1  0  0  0  0
  7  2  1  0  0  0  0
  8  9  3  0  0  0  0
 12  5  1  0  0  0  0
 12 13  1  0  0  0  0
M  RAD  2   3   2  13   2
M  END
