Coordinates from ORCA-job N-O-Pyridine-4-N2+-scan-d09-160-n800
 OpenBabel09191814183D

 13 12  0  0  0  0  0  0  0  0999 V2000
   -2.2024    0.0916   -1.0893 C   0  0  0  0  0  0  0  0  0  0  0  0
   -0.8139    0.1510   -1.1107 C   0  0  0  0  0  0  0  0  0  0  0  0
   -0.4094    1.2253   -0.3806 C   0  0  0  0  0  0  0  0  0  0  0  0
   -0.9123    1.8343    0.7272 C   0  0  0  0  0  0  0  0  0  0  0  0
   -2.2984    1.7338    0.7036 C   0  0  0  0  0  0  0  0  0  0  0  0
   -2.8018   -0.5068   -1.7672 H   0  0  0  0  0  0  0  0  0  0  0  0
   -0.2090   -0.4736   -1.7626 H   0  0  0  0  0  0  0  0  0  0  0  0
    3.0591    0.5013    0.4676 N   0  0  0  0  0  0  0  0  0  0  0  0
    4.1324    0.3382    0.6751 N   0  0  0  0  0  0  0  0  0  0  0  0
   -2.9672    2.3228    1.3222 H   0  0  0  0  0  0  0  0  0  0  0  0
   -0.3804    2.4593    1.4395 H   0  0  0  0  0  0  0  0  0  0  0  0
   -2.9365    0.8826   -0.2020 N   0  0  0  0  0  0  0  0  0  0  0  0
   -4.1822    0.8105   -0.2026 O   0  0  0  0  0  0  0  0  0  0  0  0
  1 12  1  0  0  0  0
  2  1  2  0  0  0  0
  2  3  1  0  0  0  0
  3  4  1  0  0  0  0
  4 11  1  0  0  0  0
  5  4  2  0  0  0  0
  5 10  1  0  0  0  0
  6  1  1  0  0  0  0
  7  2  1  0  0  0  0
  8  9  3  0  0  0  0
 12  5  1  0  0  0  0
 13 12  1  0  0  0  0
M  RAD  2   3   2  13   2
M  END
