Coordinates from ORCA-job N-O-Pyridine-4-N2+-scan-d09-160-n800
 OpenBabel09191814183D

 13 12  0  0  0  0  0  0  0  0999 V2000
   -2.2592    0.0945   -1.0952 C   0  0  0  0  0  0  0  0  0  0  0  0
   -0.8730    0.1834   -1.1434 C   0  0  0  0  0  0  0  0  0  0  0  0
   -0.4777    1.2682   -0.4234 C   0  0  0  0  0  0  0  0  0  0  0  0
   -0.9716    1.8668    0.6944 C   0  0  0  0  0  0  0  0  0  0  0  0
   -2.3554    1.7370    0.6980 C   0  0  0  0  0  0  0  0  0  0  0  0
   -2.8588   -0.5169   -1.7613 H   0  0  0  0  0  0  0  0  0  0  0  0
   -0.2678   -0.4290   -1.8066 H   0  0  0  0  0  0  0  0  0  0  0  0
    3.3816    0.4382    0.5421 N   0  0  0  0  0  0  0  0  0  0  0  0
    4.4523    0.2674    0.7568 N   0  0  0  0  0  0  0  0  0  0  0  0
   -3.0245    2.3131    1.3283 H   0  0  0  0  0  0  0  0  0  0  0  0
   -0.4395    2.5041    1.3957 H   0  0  0  0  0  0  0  0  0  0  0  0
   -2.9925    0.8712   -0.1946 N   0  0  0  0  0  0  0  0  0  0  0  0
   -4.2361    0.7725   -0.1709 O   0  0  0  0  0  0  0  0  0  0  0  0
  1 12  1  0  0  0  0
  2  1  2  0  0  0  0
  2  3  1  0  0  0  0
  3  4  1  0  0  0  0
  4  5  2  0  0  0  0
  4 11  1  0  0  0  0
  5 10  1  0  0  0  0
  6  1  1  0  0  0  0
  7  2  1  0  0  0  0
  8  9  3  0  0  0  0
 12 13  1  0  0  0  0
 12  5  1  0  0  0  0
M  RAD  2   3   2  13   2
M  END
