Coordinates from ORCA-job N-O-Pyridine-4-N2+-scan-d09-160-n800
 OpenBabel09191814183D

 13 12  0  0  0  0  0  0  0  0999 V2000
   -2.1528    0.0893   -1.0838 C   0  0  0  0  0  0  0  0  0  0  0  0
   -0.7633    0.1259   -1.0851 C   0  0  0  0  0  0  0  0  0  0  0  0
   -0.3509    1.1908   -0.3459 C   0  0  0  0  0  0  0  0  0  0  0  0
   -0.8617    1.8092    0.7528 C   0  0  0  0  0  0  0  0  0  0  0  0
   -2.2487    1.7308    0.7083 C   0  0  0  0  0  0  0  0  0  0  0  0
   -2.7515   -0.4997   -1.7705 H   0  0  0  0  0  0  0  0  0  0  0  0
   -0.1595   -0.5077   -1.7288 H   0  0  0  0  0  0  0  0  0  0  0  0
    2.7797    0.5508    0.4075 N   0  0  0  0  0  0  0  0  0  0  0  0
    3.8557    0.3968    0.6065 N   0  0  0  0  0  0  0  0  0  0  0  0
   -2.9168    2.3294    1.3183 H   0  0  0  0  0  0  0  0  0  0  0  0
   -0.3309    2.4252    1.4734 H   0  0  0  0  0  0  0  0  0  0  0  0
   -2.8873    0.8908   -0.2068 N   0  0  0  0  0  0  0  0  0  0  0  0
   -4.1341    0.8388   -0.2260 O   0  0  0  0  0  0  0  0  0  0  0  0
  1 12  1  0  0  0  0
  2  1  2  0  0  0  0
  2  3  1  0  0  0  0
  3  4  1  0  0  0  0
  4 11  1  0  0  0  0
  5  4  2  0  0  0  0
  5 10  1  0  0  0  0
  6  1  1  0  0  0  0
  7  2  1  0  0  0  0
  8  9  3  0  0  0  0
 12  5  1  0  0  0  0
 13 12  1  0  0  0  0
M  RAD  2   3   2  13   2
M  END
