Coordinates from ORCA-job N-O-Pyridine-4-N2+-scan-d09-160-n800
 OpenBabel09191814183D

 13 12  0  0  0  0  0  0  0  0999 V2000
   -2.0058    0.0914   -1.0688 C   0  0  0  0  0  0  0  0  0  0  0  0
   -0.6201    0.0522   -1.0101 C   0  0  0  0  0  0  0  0  0  0  0  0
   -0.1439    1.0398   -0.1966 C   0  0  0  0  0  0  0  0  0  0  0  0
   -0.7184    1.7357    0.8279 C   0  0  0  0  0  0  0  0  0  0  0  0
   -2.1012    1.7238    0.7135 C   0  0  0  0  0  0  0  0  0  0  0  0
   -2.5991   -0.4785   -1.7743 H   0  0  0  0  0  0  0  0  0  0  0  0
   -0.0372   -0.6081   -1.6425 H   0  0  0  0  0  0  0  0  0  0  0  0
    1.9555    0.6625    0.2613 N   0  0  0  0  0  0  0  0  0  0  0  0
    3.0543    0.6137    0.3648 N   0  0  0  0  0  0  0  0  0  0  0  0
   -2.7640    2.3432    1.3065 H   0  0  0  0  0  0  0  0  0  0  0  0
   -0.2092    2.3370    1.5729 H   0  0  0  0  0  0  0  0  0  0  0  0
   -2.7435    0.9215   -0.2273 N   0  0  0  0  0  0  0  0  0  0  0  0
   -3.9895    0.9361   -0.3073 O   0  0  0  0  0  0  0  0  0  0  0  0
  1  2  2  0  0  0  0
  1 12  1  0  0  0  0
  2  3  1  0  0  0  0
  3  4  1  0  0  0  0
  4 11  1  0  0  0  0
  5  4  2  0  0  0  0
  5 10  1  0  0  0  0
  6  1  1  0  0  0  0
  7  2  1  0  0  0  0
  8  9  3  0  0  0  0
 12  5  1  0  0  0  0
 13 12  1  0  0  0  0
M  RAD  2   3   2  13   2
M  END
