Coordinates from ORCA-job N-O-Pyridine-4-N2+-scan-d09-160-n800
 OpenBabel09191814183D

 13 12  0  0  0  0  0  0  0  0999 V2000
   -2.6485    0.5984   -1.5693 C   0  0  0  0  0  0  0  0  0  0  0  0
   -3.7508    1.1657   -2.1968 C   0  0  0  0  0  0  0  0  0  0  0  0
   -4.3583    2.0229   -1.3310 C   0  0  0  0  0  0  0  0  0  0  0  0
   -3.8781    2.8341   -0.3487 C   0  0  0  0  0  0  0  0  0  0  0  0
   -2.7727    2.2276    0.2353 C   0  0  0  0  0  0  0  0  0  0  0  0
   -2.1267   -0.2845   -1.9232 H   0  0  0  0  0  0  0  0  0  0  0  0
   -4.1275    0.8111   -3.1528 H   0  0  0  0  0  0  0  0  0  0  0  0
    9.9336   -2.7669    3.7882 N   0  0  0  0  0  0  0  0  0  0  0  0
   10.8522   -3.1832    4.2409 N   0  0  0  0  0  0  0  0  0  0  0  0
   -2.3408    2.5221    1.1860 H   0  0  0  0  0  0  0  0  0  0  0  0
   -4.3493    3.7198    0.0695 H   0  0  0  0  0  0  0  0  0  0  0  0
   -2.1732    1.1149   -0.3609 N   0  0  0  0  0  0  0  0  0  0  0  0
   -1.1819    0.5883    0.1828 O   0  0  0  0  0  0  0  0  0  0  0  0
  1 12  1  0  0  0  0
  2  1  2  0  0  0  0
  2  3  1  0  0  0  0
  3  4  1  0  0  0  0
  4 11  1  0  0  0  0
  4  5  2  0  0  0  0
  5 10  1  0  0  0  0
  6  1  1  0  0  0  0
  7  2  1  0  0  0  0
  8  9  3  0  0  0  0
 12 13  1  0  0  0  0
 12  5  1  0  0  0  0
M  RAD  2   3   2  13   2
M  END
