Coordinates from ORCA-job N-O-Pyridine-4-N2+-scan-d09-160-n800
 OpenBabel09191814183D

 13 12  0  0  0  0  0  0  0  0999 V2000
   -2.5654    0.3113   -1.3086 C   0  0  0  0  0  0  0  0  0  0  0  0
   -2.9790    1.2583   -2.2371 C   0  0  0  0  0  0  0  0  0  0  0  0
   -3.4437    2.3530   -1.5742 C   0  0  0  0  0  0  0  0  0  0  0  0
   -3.0838    2.9388   -0.3991 C   0  0  0  0  0  0  0  0  0  0  0  0
   -2.6678    1.9529    0.4868 C   0  0  0  0  0  0  0  0  0  0  0  0
   -2.3802   -0.7332   -1.5358 H   0  0  0  0  0  0  0  0  0  0  0  0
   -3.0677    1.0388   -3.2981 H   0  0  0  0  0  0  0  0  0  0  0  0
    8.2886   -1.9448    2.9705 N   0  0  0  0  0  0  0  0  0  0  0  0
    9.2602   -2.3020    3.3582 N   0  0  0  0  0  0  0  0  0  0  0  0
   -2.5565    2.0942    1.5567 H   0  0  0  0  0  0  0  0  0  0  0  0
   -3.2503    3.9686   -0.0936 H   0  0  0  0  0  0  0  0  0  0  0  0
   -2.4246    0.6511    0.0398 N   0  0  0  0  0  0  0  0  0  0  0  0
   -2.0520   -0.2167    0.8545 O   0  0  0  0  0  0  0  0  0  0  0  0
  1 12  1  0  0  0  0
  2  3  1  0  0  0  0
  2  1  2  0  0  0  0
  3  4  1  0  0  0  0
  4 11  1  0  0  0  0
  4  5  2  0  0  0  0
  5 10  1  0  0  0  0
  6  1  1  0  0  0  0
  7  2  1  0  0  0  0
  8  9  3  0  0  0  0
 12  5  1  0  0  0  0
 12 13  1  0  0  0  0
M  RAD  2   3   2  13   2
M  END
