Coordinates from ORCA-job N-O-Pyridine-4-N2+-scan-d09-160-n800
 OpenBabel09191814183D

 13 12  0  0  0  0  0  0  0  0999 V2000
   -2.5477    0.2647   -1.2651 C   0  0  0  0  0  0  0  0  0  0  0  0
   -2.7961    1.2463   -2.2162 C   0  0  0  0  0  0  0  0  0  0  0  0
   -3.2138    2.3778   -1.5844 C   0  0  0  0  0  0  0  0  0  0  0  0
   -2.9009    2.9271   -0.3786 C   0  0  0  0  0  0  0  0  0  0  0  0
   -2.6500    1.9065    0.5299 C   0  0  0  0  0  0  0  0  0  0  0  0
   -2.4389   -0.7920   -1.4856 H   0  0  0  0  0  0  0  0  0  0  0  0
   -2.8159    1.0369   -3.2827 H   0  0  0  0  0  0  0  0  0  0  0  0
    7.9157   -1.7653    2.7871 N   0  0  0  0  0  0  0  0  0  0  0  0
    8.8941   -2.1134    3.1661 N   0  0  0  0  0  0  0  0  0  0  0  0
   -2.6151    2.0361    1.6065 H   0  0  0  0  0  0  0  0  0  0  0  0
   -2.9985    3.9674   -0.0787 H   0  0  0  0  0  0  0  0  0  0  0  0
   -2.4894    0.5886    0.0933 N   0  0  0  0  0  0  0  0  0  0  0  0
   -2.2654   -0.3105    0.9283 O   0  0  0  0  0  0  0  0  0  0  0  0
  1 12  1  0  0  0  0
  2  3  1  0  0  0  0
  2  1  2  0  0  0  0
  3  4  1  0  0  0  0
  4 11  1  0  0  0  0
  4  5  2  0  0  0  0
  5 10  1  0  0  0  0
  6  1  1  0  0  0  0
  7  2  1  0  0  0  0
  8  9  3  0  0  0  0
 12  5  1  0  0  0  0
 12 13  1  0  0  0  0
M  RAD  2   3   2  13   2
M  END
