Coordinates from ORCA-job N-O-Pyridine-4-N2+-scan-d09-160-n800
 OpenBabel09191814183D

 13 12  0  0  0  0  0  0  0  0999 V2000
   -2.4887    0.0779   -1.0922 C   0  0  0  0  0  0  0  0  0  0  0  0
   -1.4360    0.7559   -1.6947 C   0  0  0  0  0  0  0  0  0  0  0  0
   -1.3196    1.9860   -1.1233 C   0  0  0  0  0  0  0  0  0  0  0  0
   -1.5385    2.4391    0.1415 C   0  0  0  0  0  0  0  0  0  0  0  0
   -2.5887    1.7215    0.7009 C   0  0  0  0  0  0  0  0  0  0  0  0
   -2.9604   -0.8109   -1.4981 H   0  0  0  0  0  0  0  0  0  0  0  0
   -0.9405    0.3914   -2.5909 H   0  0  0  0  0  0  0  0  0  0  0  0
    5.3320   -0.3722    1.3804 N   0  0  0  0  0  0  0  0  0  0  0  0
    6.3482   -0.6621    1.7050 N   0  0  0  0  0  0  0  0  0  0  0  0
   -3.1328    2.0204    1.5908 H   0  0  0  0  0  0  0  0  0  0  0  0
   -1.1192    3.3257    0.6102 H   0  0  0  0  0  0  0  0  0  0  0  0
   -3.0670    0.5622    0.0843 N   0  0  0  0  0  0  0  0  0  0  0  0
   -4.0109   -0.0645    0.6060 O   0  0  0  0  0  0  0  0  0  0  0  0
  1 12  1  0  0  0  0
  2  3  1  0  0  0  0
  2  1  2  0  0  0  0
  3  4  1  0  0  0  0
  4 11  1  0  0  0  0
  4  5  2  0  0  0  0
  5 10  1  0  0  0  0
  6  1  1  0  0  0  0
  7  2  1  0  0  0  0
  8  9  3  0  0  0  0
 12 13  1  0  0  0  0
 12  5  1  0  0  0  0
M  RAD  2   3   2  13   2
M  END
