Coordinates from ORCA-job N-O-Pyridine-4-N2+-scan-d09-160-n800
 OpenBabel09191814183D

 13 12  0  0  0  0  0  0  0  0999 V2000
   -2.5597    0.2864   -1.2854 C   0  0  0  0  0  0  0  0  0  0  0  0
   -2.8827    1.2543   -2.2283 C   0  0  0  0  0  0  0  0  0  0  0  0
   -3.3221    2.3698   -1.5832 C   0  0  0  0  0  0  0  0  0  0  0  0
   -2.9877    2.9351   -0.3905 C   0  0  0  0  0  0  0  0  0  0  0  0
   -2.6623    1.9282    0.5096 C   0  0  0  0  0  0  0  0  0  0  0  0
   -2.4163   -0.7657   -1.5082 H   0  0  0  0  0  0  0  0  0  0  0  0
   -2.9333    1.0411   -3.2930 H   0  0  0  0  0  0  0  0  0  0  0  0
    8.1063   -1.8542    2.8781 N   0  0  0  0  0  0  0  0  0  0  0  0
    9.0831   -2.2044    3.2592 N   0  0  0  0  0  0  0  0  0  0  0  0
   -2.5933    2.0621    1.5840 H   0  0  0  0  0  0  0  0  0  0  0  0
   -3.1167    3.9714   -0.0887 H   0  0  0  0  0  0  0  0  0  0  0  0
   -2.4642    0.6165    0.0693 N   0  0  0  0  0  0  0  0  0  0  0  0
   -2.1731   -0.2700    0.8970 O   0  0  0  0  0  0  0  0  0  0  0  0
  1 12  1  0  0  0  0
  2  3  1  0  0  0  0
  2  1  2  0  0  0  0
  3  4  1  0  0  0  0
  4 11  1  0  0  0  0
  4  5  2  0  0  0  0
  5 10  1  0  0  0  0
  6  1  1  0  0  0  0
  7  2  1  0  0  0  0
  8  9  3  0  0  0  0
 12  5  1  0  0  0  0
 12 13  1  0  0  0  0
M  RAD  2   3   2  13   2
M  END
