Coordinates from ORCA-job N-O-Pyridine-4-N2+-scan-d09-160-n800
 OpenBabel09191814183D

 13 12  0  0  0  0  0  0  0  0999 V2000
   -2.5021    0.1648   -1.1718 C   0  0  0  0  0  0  0  0  0  0  0  0
   -2.3209    1.1665   -2.1179 C   0  0  0  0  0  0  0  0  0  0  0  0
   -2.5945    2.3696   -1.5432 C   0  0  0  0  0  0  0  0  0  0  0  0
   -2.4244    2.8482   -0.2803 C   0  0  0  0  0  0  0  0  0  0  0  0
   -2.6032    1.8072    0.6227 C   0  0  0  0  0  0  0  0  0  0  0  0
   -2.5901   -0.8915   -1.4032 H   0  0  0  0  0  0  0  0  0  0  0  0
   -2.1657    0.9553   -3.1729 H   0  0  0  0  0  0  0  0  0  0  0  0
    6.9374   -1.2933    2.3050 N   0  0  0  0  0  0  0  0  0  0  0  0
    7.9247   -1.6286    2.6723 N   0  0  0  0  0  0  0  0  0  0  0  0
   -2.7643    1.9374    1.6877 H   0  0  0  0  0  0  0  0  0  0  0  0
   -2.3462    3.8869    0.0304 H   0  0  0  0  0  0  0  0  0  0  0  0
   -2.6554    0.4824    0.1806 N   0  0  0  0  0  0  0  0  0  0  0  0
   -2.8174   -0.4345    1.0106 O   0  0  0  0  0  0  0  0  0  0  0  0
  1 12  1  0  0  0  0
  2  3  1  0  0  0  0
  2  1  2  0  0  0  0
  3  4  1  0  0  0  0
  4 11  1  0  0  0  0
  4  5  2  0  0  0  0
  5 10  1  0  0  0  0
  6  1  1  0  0  0  0
  7  2  1  0  0  0  0
  8  9  3  0  0  0  0
 12  5  1  0  0  0  0
 12 13  1  0  0  0  0
M  RAD  2   3   2  13   2
M  END
