Coordinates from ORCA-job N-O-Pyridine-4-N2+-scan-d09-160-n800
 OpenBabel09191814183D

 13 13  0  0  0  0  0  0  0  0999 V2000
   -1.9043    0.1005   -1.0705 C   0  0  0  0  0  0  0  0  0  0  0  0
   -0.5475    0.0253   -0.9615 C   0  0  0  0  0  0  0  0  0  0  0  0
    0.1182    0.8263    0.0130 C   0  0  0  0  0  0  0  0  0  0  0  0
   -0.6446    1.6894    0.8543 C   0  0  0  0  0  0  0  0  0  0  0  0
   -1.9995    1.7322    0.7100 C   0  0  0  0  0  0  0  0  0  0  0  0
   -2.5026   -0.4634   -1.7748 H   0  0  0  0  0  0  0  0  0  0  0  0
    0.0102   -0.6392   -1.6132 H   0  0  0  0  0  0  0  0  0  0  0  0
    1.3919    0.7708    0.1319 N   0  0  0  0  0  0  0  0  0  0  0  0
    2.5115    0.7221    0.2365 N   0  0  0  0  0  0  0  0  0  0  0  0
   -2.6668    2.3511    1.2963 H   0  0  0  0  0  0  0  0  0  0  0  0
   -0.1619    2.3085    1.6032 H   0  0  0  0  0  0  0  0  0  0  0  0
   -2.6468    0.9467   -0.2452 N   0  0  0  0  0  0  0  0  0  0  0  0
   -3.8800    1.0001   -0.3601 O   0  0  0  0  0  0  0  0  0  0  0  0
  1  2  2  0  0  0  0
  1 12  1  0  0  0  0
  2  3  1  0  0  0  0
  3  8  1  0  0  0  0
  3  4  2  0  0  0  0
  4 11  1  0  0  0  0
  5  4  1  0  0  0  0
  5 10  1  0  0  0  0
  6  1  1  0  0  0  0
  7  2  1  0  0  0  0
  8  9  1  0  0  0  0
 12  5  1  0  0  0  0
 13 12  1  0  0  0  0
M  RAD  3   8   2   9   3  13   2
M  END
