Coordinates from ORCA-job N-O-Pyridine-4-N2+-scan-d09-160-n800
 OpenBabel09191814183D

 13 12  0  0  0  0  0  0  0  0999 V2000
   -2.4793    0.0845   -1.0979 C   0  0  0  0  0  0  0  0  0  0  0  0
   -1.2470    0.5716   -1.5168 C   0  0  0  0  0  0  0  0  0  0  0  0
   -1.0154    1.7660   -0.9061 C   0  0  0  0  0  0  0  0  0  0  0  0
   -1.3479    2.2549    0.3200 C   0  0  0  0  0  0  0  0  0  0  0  0
   -2.5778    1.7279    0.6953 C   0  0  0  0  0  0  0  0  0  0  0  0
   -3.0253   -0.7125   -1.5917 H   0  0  0  0  0  0  0  0  0  0  0  0
   -0.6870    0.1251   -2.3344 H   0  0  0  0  0  0  0  0  0  0  0  0
    4.9380   -0.1170    1.1281 N   0  0  0  0  0  0  0  0  0  0  0  0
    5.9685   -0.3807    1.4288 N   0  0  0  0  0  0  0  0  0  0  0  0
   -3.1951    2.1186    1.4974 H   0  0  0  0  0  0  0  0  0  0  0  0
   -0.8629    3.0592    0.8671 H   0  0  0  0  0  0  0  0  0  0  0  0
   -3.1429    0.6642   -0.0133 N   0  0  0  0  0  0  0  0  0  0  0  0
   -4.2480    0.2087    0.3434 O   0  0  0  0  0  0  0  0  0  0  0  0
  1 12  1  0  0  0  0
  2  1  2  0  0  0  0
  2  3  1  0  0  0  0
  3  4  1  0  0  0  0
  4  5  2  0  0  0  0
  4 11  1  0  0  0  0
  5 10  1  0  0  0  0
  6  1  1  0  0  0  0
  7  2  1  0  0  0  0
  8  9  3  0  0  0  0
 12 13  1  0  0  0  0
 12  5  1  0  0  0  0
M  RAD  2   3   2  13   2
M  END
