Coordinates from ORCA-job N-O-Pyridine-4-N2+-scan-d09-160-n800
 OpenBabel09191814183D

 13 12  0  0  0  0  0  0  0  0999 V2000
   -2.4747    0.0940   -1.1057 C   0  0  0  0  0  0  0  0  0  0  0  0
   -1.8122    0.9936   -1.9322 C   0  0  0  0  0  0  0  0  0  0  0  0
   -1.8924    2.2368   -1.3836 C   0  0  0  0  0  0  0  0  0  0  0  0
   -1.9165    2.6765   -0.0956 C   0  0  0  0  0  0  0  0  0  0  0  0
   -2.5766    1.7374    0.6876 C   0  0  0  0  0  0  0  0  0  0  0  0
   -2.7773   -0.9050   -1.4014 H   0  0  0  0  0  0  0  0  0  0  0  0
   -1.4654    0.7290   -2.9278 H   0  0  0  0  0  0  0  0  0  0  0  0
    5.9581   -0.7848    1.7885 N   0  0  0  0  0  0  0  0  0  0  0  0
    6.9576   -1.1019    2.1385 N   0  0  0  0  0  0  0  0  0  0  0  0
   -2.9529    1.9256    1.6877 H   0  0  0  0  0  0  0  0  0  0  0  0
   -1.6473    3.6627    0.2738 H   0  0  0  0  0  0  0  0  0  0  0  0
   -2.8644    0.4659    0.1838 N   0  0  0  0  0  0  0  0  0  0  0  0
   -3.4582   -0.3594    0.9064 O   0  0  0  0  0  0  0  0  0  0  0  0
  1 12  1  0  0  0  0
  2  3  1  0  0  0  0
  2  1  2  0  0  0  0
  3  4  1  0  0  0  0
  4 11  1  0  0  0  0
  4  5  2  0  0  0  0
  5 10  1  0  0  0  0
  6  1  1  0  0  0  0
  7  2  1  0  0  0  0
  8  9  3  0  0  0  0
 12  5  1  0  0  0  0
 12 13  1  0  0  0  0
M  RAD  2   3   2  13   2
M  END
