Coordinates from ORCA-job N-O-Pyridine-4-N2+-scan-d09-160-n800
 OpenBabel09191814183D

 13 12  0  0  0  0  0  0  0  0999 V2000
   -2.6514    0.6040   -1.5750 C   0  0  0  0  0  0  0  0  0  0  0  0
   -3.7630    1.1625   -2.1941 C   0  0  0  0  0  0  0  0  0  0  0  0
   -4.3705    2.0151   -1.3239 C   0  0  0  0  0  0  0  0  0  0  0  0
   -3.8891    2.8304   -0.3456 C   0  0  0  0  0  0  0  0  0  0  0  0
   -2.7746    2.2328    0.2301 C   0  0  0  0  0  0  0  0  0  0  0  0
   -2.1254   -0.2749   -1.9326 H   0  0  0  0  0  0  0  0  0  0  0  0
   -4.1442    0.8046   -3.1471 H   0  0  0  0  0  0  0  0  0  0  0  0
    9.9613   -2.7806    3.8028 N   0  0  0  0  0  0  0  0  0  0  0  0
   10.8789   -3.1979    4.2568 N   0  0  0  0  0  0  0  0  0  0  0  0
   -2.3377    2.5311    1.1773 H   0  0  0  0  0  0  0  0  0  0  0  0
   -4.3640    3.7126    0.0759 H   0  0  0  0  0  0  0  0  0  0  0  0
   -2.1710    1.1247   -0.3704 N   0  0  0  0  0  0  0  0  0  0  0  0
   -1.1714    0.6060    0.1658 O   0  0  0  0  0  0  0  0  0  0  0  0
  1 12  1  0  0  0  0
  2  1  2  0  0  0  0
  2  3  1  0  0  0  0
  3  4  1  0  0  0  0
  4 11  1  0  0  0  0
  4  5  2  0  0  0  0
  5 10  1  0  0  0  0
  6  1  1  0  0  0  0
  7  2  1  0  0  0  0
  8  9  3  0  0  0  0
 12 13  1  0  0  0  0
 12  5  1  0  0  0  0
M  RAD  2   3   2  13   2
M  END
