Coordinates from ORCA-job N-O-Pyridine-4-N2+-scan-d09-160-n800
 OpenBabel09191814183D

 13 12  0  0  0  0  0  0  0  0999 V2000
   -2.5319    0.2313   -1.2336 C   0  0  0  0  0  0  0  0  0  0  0  0
   -2.6520    1.2291   -2.1928 C   0  0  0  0  0  0  0  0  0  0  0  0
   -3.0303    2.3856   -1.5818 C   0  0  0  0  0  0  0  0  0  0  0  0
   -2.7575    2.9103   -0.3555 C   0  0  0  0  0  0  0  0  0  0  0  0
   -2.6350    1.8734    0.5610 C   0  0  0  0  0  0  0  0  0  0  0  0
   -2.4819   -0.8300   -1.4531 H   0  0  0  0  0  0  0  0  0  0  0  0
   -2.6186    1.0233   -3.2596 H   0  0  0  0  0  0  0  0  0  0  0  0
    7.6162   -1.6223    2.6401 N   0  0  0  0  0  0  0  0  0  0  0  0
    8.5975   -1.9662    3.0154 N   0  0  0  0  0  0  0  0  0  0  0  0
   -2.6595    1.9987    1.6384 H   0  0  0  0  0  0  0  0  0  0  0  0
   -2.8026    3.9543   -0.0562 H   0  0  0  0  0  0  0  0  0  0  0  0
   -2.5376    0.5483    0.1276 N   0  0  0  0  0  0  0  0  0  0  0  0
   -2.4289   -0.3653    0.9698 O   0  0  0  0  0  0  0  0  0  0  0  0
  1 12  1  0  0  0  0
  2  3  1  0  0  0  0
  2  1  2  0  0  0  0
  3  4  1  0  0  0  0
  4 11  1  0  0  0  0
  4  5  2  0  0  0  0
  5 10  1  0  0  0  0
  6  1  1  0  0  0  0
  7  2  1  0  0  0  0
  8  9  3  0  0  0  0
 12  5  1  0  0  0  0
 12 13  1  0  0  0  0
M  RAD  2   3   2  13   2
M  END
