Coordinates from ORCA-job N-O-Pyridine-4-N2+-scan-d09-160-n800
 OpenBabel09191814183D

 13 12  0  0  0  0  0  0  0  0999 V2000
   -2.4755    0.0854   -1.0986 C   0  0  0  0  0  0  0  0  0  0  0  0
   -1.2291    0.5521   -1.4981 C   0  0  0  0  0  0  0  0  0  0  0  0
   -0.9868    1.7419   -0.8826 C   0  0  0  0  0  0  0  0  0  0  0  0
   -1.3298    2.2354    0.3387 C   0  0  0  0  0  0  0  0  0  0  0  0
   -2.5739    1.7287    0.6947 C   0  0  0  0  0  0  0  0  0  0  0  0
   -3.0273   -0.7019   -1.6014 H   0  0  0  0  0  0  0  0  0  0  0  0
   -0.6642    0.0970   -2.3076 H   0  0  0  0  0  0  0  0  0  0  0  0
    4.8891   -0.0906    1.1016 N   0  0  0  0  0  0  0  0  0  0  0  0
    5.9214   -0.3509    1.3991 N   0  0  0  0  0  0  0  0  0  0  0  0
   -3.1967    2.1291    1.4877 H   0  0  0  0  0  0  0  0  0  0  0  0
   -0.8398    3.0311    0.8941 H   0  0  0  0  0  0  0  0  0  0  0  0
   -3.1458    0.6752   -0.0236 N   0  0  0  0  0  0  0  0  0  0  0  0
   -4.2637    0.2379    0.3159 O   0  0  0  0  0  0  0  0  0  0  0  0
  1 12  1  0  0  0  0
  2  1  2  0  0  0  0
  2  3  1  0  0  0  0
  3  4  1  0  0  0  0
  4  5  2  0  0  0  0
  4 11  1  0  0  0  0
  5 10  1  0  0  0  0
  6  1  1  0  0  0  0
  7  2  1  0  0  0  0
  8  9  3  0  0  0  0
 12 13  1  0  0  0  0
 12  5  1  0  0  0  0
M  RAD  2   3   2  13   2
M  END
