Coordinates from ORCA-job N-O-Pyridine-4-N2+-scan-d09-160-n800
 OpenBabel09191814183D

 13 12  0  0  0  0  0  0  0  0999 V2000
   -2.4742    0.1085   -1.1188 C   0  0  0  0  0  0  0  0  0  0  0  0
   -1.9513    1.0529   -1.9940 C   0  0  0  0  0  0  0  0  0  0  0  0
   -2.0921    2.2895   -1.4428 C   0  0  0  0  0  0  0  0  0  0  0  0
   -2.0560    2.7356   -0.1572 C   0  0  0  0  0  0  0  0  0  0  0  0
   -2.5765    1.7517    0.6747 C   0  0  0  0  0  0  0  0  0  0  0  0
   -2.7150   -0.9142   -1.3894 H   0  0  0  0  0  0  0  0  0  0  0  0
   -1.6591    0.8100   -3.0124 H   0  0  0  0  0  0  0  0  0  0  0  0
    6.2001   -0.9244    1.9284 N   0  0  0  0  0  0  0  0  0  0  0  0
    7.1955   -1.2477    2.2844 N   0  0  0  0  0  0  0  0  0  0  0  0
   -2.8912    1.9162    1.6999 H   0  0  0  0  0  0  0  0  0  0  0  0
   -1.8417    3.7433    0.1894 H   0  0  0  0  0  0  0  0  0  0  0  0
   -2.7959    0.4572    0.1958 N   0  0  0  0  0  0  0  0  0  0  0  0
   -3.2645   -0.4083    0.9620 O   0  0  0  0  0  0  0  0  0  0  0  0
  1 12  1  0  0  0  0
  2  3  1  0  0  0  0
  2  1  2  0  0  0  0
  3  4  1  0  0  0  0
  4 11  1  0  0  0  0
  4  5  2  0  0  0  0
  5 10  1  0  0  0  0
  6  1  1  0  0  0  0
  7  2  1  0  0  0  0
  8  9  3  0  0  0  0
 12  5  1  0  0  0  0
 12 13  1  0  0  0  0
M  RAD  2   3   2  13   2
M  END
