Coordinates from ORCA-job N-O-Pyridine-4-N2+-scan-d09-160-n800
 OpenBabel09191814183D

 13 12  0  0  0  0  0  0  0  0999 V2000
   -2.2433    0.0937   -1.0936 C   0  0  0  0  0  0  0  0  0  0  0  0
   -0.8562    0.1734   -1.1334 C   0  0  0  0  0  0  0  0  0  0  0  0
   -0.4580    1.2550   -0.4103 C   0  0  0  0  0  0  0  0  0  0  0  0
   -0.9547    1.8567    0.7044 C   0  0  0  0  0  0  0  0  0  0  0  0
   -2.3394    1.7361    0.6995 C   0  0  0  0  0  0  0  0  0  0  0  0
   -2.8429   -0.5135   -1.7635 H   0  0  0  0  0  0  0  0  0  0  0  0
   -0.2510   -0.4429   -1.7930 H   0  0  0  0  0  0  0  0  0  0  0  0
    3.2905    0.4570    0.5201 N   0  0  0  0  0  0  0  0  0  0  0  0
    4.3619    0.2886    0.7326 N   0  0  0  0  0  0  0  0  0  0  0  0
   -3.0085    2.3164    1.3261 H   0  0  0  0  0  0  0  0  0  0  0  0
   -0.4226    2.4902    1.4093 H   0  0  0  0  0  0  0  0  0  0  0  0
   -2.9769    0.8750   -0.1972 N   0  0  0  0  0  0  0  0  0  0  0  0
   -4.2212    0.7846   -0.1811 O   0  0  0  0  0  0  0  0  0  0  0  0
  1 12  1  0  0  0  0
  2  1  2  0  0  0  0
  2  3  1  0  0  0  0
  3  4  1  0  0  0  0
  4 11  1  0  0  0  0
  5  4  2  0  0  0  0
  5 10  1  0  0  0  0
  6  1  1  0  0  0  0
  7  2  1  0  0  0  0
  8  9  3  0  0  0  0
 12 13  1  0  0  0  0
 12  5  1  0  0  0  0
M  RAD  2   3   2  13   2
M  END
