Coordinates from ORCA-job N-O-Pyridine-4-N2+-scan-d09-160-n800
 OpenBabel09191814183D

 13 12  0  0  0  0  0  0  0  0999 V2000
   -2.0261    0.0893   -1.0703 C   0  0  0  0  0  0  0  0  0  0  0  0
   -0.6390    0.0615   -1.0192 C   0  0  0  0  0  0  0  0  0  0  0  0
   -0.1786    1.0716   -0.2275 C   0  0  0  0  0  0  0  0  0  0  0  0
   -0.7373    1.7446    0.8184 C   0  0  0  0  0  0  0  0  0  0  0  0
   -2.1216    1.7241    0.7145 C   0  0  0  0  0  0  0  0  0  0  0  0
   -2.6203   -0.4807   -1.7755 H   0  0  0  0  0  0  0  0  0  0  0  0
   -0.0506   -0.5955   -1.6508 H   0  0  0  0  0  0  0  0  0  0  0  0
    2.0675    0.6471    0.2814 N   0  0  0  0  0  0  0  0  0  0  0  0
    3.1639    0.5819    0.3997 N   0  0  0  0  0  0  0  0  0  0  0  0
   -2.7853    2.3430    1.3075 H   0  0  0  0  0  0  0  0  0  0  0  0
   -0.2225    2.3456    1.5604 H   0  0  0  0  0  0  0  0  0  0  0  0
   -2.7627    0.9164   -0.2237 N   0  0  0  0  0  0  0  0  0  0  0  0
   -4.0094    0.9215   -0.2951 O   0  0  0  0  0  0  0  0  0  0  0  0
  1  2  2  0  0  0  0
  1 12  1  0  0  0  0
  2  3  1  0  0  0  0
  3  4  1  0  0  0  0
  4 11  1  0  0  0  0
  5  4  2  0  0  0  0
  5 10  1  0  0  0  0
  6  1  1  0  0  0  0
  7  2  1  0  0  0  0
  8  9  3  0  0  0  0
 12  5  1  0  0  0  0
 13 12  1  0  0  0  0
M  RAD  2   3   2  13   2
M  END
