Coordinates from ORCA-job N-O-Pyridine-4-N2+-scan-d09-160-n800
 OpenBabel09191814183D

 13 12  0  0  0  0  0  0  0  0999 V2000
   -2.5806    0.4137   -1.3859 C   0  0  0  0  0  0  0  0  0  0  0  0
   -3.2685    1.2505   -2.2558 C   0  0  0  0  0  0  0  0  0  0  0  0
   -3.8305    2.2640   -1.5412 C   0  0  0  0  0  0  0  0  0  0  0  0
   -3.4339    2.9328   -0.4237 C   0  0  0  0  0  0  0  0  0  0  0  0
   -2.7422    2.0567    0.4035 C   0  0  0  0  0  0  0  0  0  0  0  0
   -2.2449   -0.5880   -1.6328 H   0  0  0  0  0  0  0  0  0  0  0  0
   -3.4507    0.9921   -3.2958 H   0  0  0  0  0  0  0  0  0  0  0  0
    8.9886   -2.2937    3.2882 N   0  0  0  0  0  0  0  0  0  0  0  0
    9.9479   -2.6695    3.6889 N   0  0  0  0  0  0  0  0  0  0  0  0
   -2.5236    2.2422    1.4499 H   0  0  0  0  0  0  0  0  0  0  0  0
   -3.7393    3.9250   -0.1012 H   0  0  0  0  0  0  0  0  0  0  0  0
   -2.3321    0.8066   -0.0679 N   0  0  0  0  0  0  0  0  0  0  0  0
   -1.7122    0.0379    0.6939 O   0  0  0  0  0  0  0  0  0  0  0  0
  1 12  1  0  0  0  0
  2  3  1  0  0  0  0
  2  1  2  0  0  0  0
  3  4  1  0  0  0  0
  4 11  1  0  0  0  0
  4  5  2  0  0  0  0
  5 10  1  0  0  0  0
  6  1  1  0  0  0  0
  7  2  1  0  0  0  0
  8  9  3  0  0  0  0
 12  5  1  0  0  0  0
 12 13  1  0  0  0  0
M  RAD  2   3   2  13   2
M  END
