Coordinates from ORCA-job N-O-Pyridine-4-N2+-scan-d09-160-n800
 OpenBabel09191814183D

 13 12  0  0  0  0  0  0  0  0999 V2000
   -2.0844    0.0874   -1.0764 C   0  0  0  0  0  0  0  0  0  0  0  0
   -0.6947    0.0904   -1.0497 C   0  0  0  0  0  0  0  0  0  0  0  0
   -0.2666    1.1352   -0.2905 C   0  0  0  0  0  0  0  0  0  0  0  0
   -0.7930    1.7745    0.7890 C   0  0  0  0  0  0  0  0  0  0  0  0
   -2.1802    1.7269    0.7136 C   0  0  0  0  0  0  0  0  0  0  0  0
   -2.6814   -0.4888   -1.7749 H   0  0  0  0  0  0  0  0  0  0  0  0
   -0.0951   -0.5556   -1.6839 H   0  0  0  0  0  0  0  0  0  0  0  0
    2.3941    0.6108    0.3321 N   0  0  0  0  0  0  0  0  0  0  0  0
    3.4787    0.4877    0.5031 N   0  0  0  0  0  0  0  0  0  0  0  0
   -2.8466    2.3385    1.3119 H   0  0  0  0  0  0  0  0  0  0  0  0
   -0.2666    2.3796    1.5209 H   0  0  0  0  0  0  0  0  0  0  0  0
   -2.8195    0.9027   -0.2142 N   0  0  0  0  0  0  0  0  0  0  0  0
   -4.0668    0.8809   -0.2609 O   0  0  0  0  0  0  0  0  0  0  0  0
  1  2  2  0  0  0  0
  1 12  1  0  0  0  0
  2  3  1  0  0  0  0
  3  4  1  0  0  0  0
  4 11  1  0  0  0  0
  5  4  2  0  0  0  0
  5 10  1  0  0  0  0
  6  1  1  0  0  0  0
  7  2  1  0  0  0  0
  8  9  3  0  0  0  0
 12  5  1  0  0  0  0
 13 12  1  0  0  0  0
M  RAD  2   3   2  13   2
M  END
