Coordinates from ORCA-job N-O-Pyridine-4-N2+-scan-d09-160-n800
 OpenBabel09191814183D

 13 13  0  0  0  0  0  0  0  0999 V2000
   -1.8918    0.0995   -1.0698 C   0  0  0  0  0  0  0  0  0  0  0  0
   -0.5388    0.0251   -0.9605 C   0  0  0  0  0  0  0  0  0  0  0  0
    0.1579    0.8246    0.0167 C   0  0  0  0  0  0  0  0  0  0  0  0
   -0.6359    1.6888    0.8549 C   0  0  0  0  0  0  0  0  0  0  0  0
   -1.9871    1.7321    0.7117 C   0  0  0  0  0  0  0  0  0  0  0  0
   -2.4896   -0.4649   -1.7746 H   0  0  0  0  0  0  0  0  0  0  0  0
    0.0197   -0.6395   -1.6122 H   0  0  0  0  0  0  0  0  0  0  0  0
    1.3121    0.7743    0.1245 N   0  0  0  0  0  0  0  0  0  0  0  0
    2.4398    0.7252    0.2298 N   0  0  0  0  0  0  0  0  0  0  0  0
   -2.6539    2.3514    1.2985 H   0  0  0  0  0  0  0  0  0  0  0  0
   -0.1523    2.3080    1.6039 H   0  0  0  0  0  0  0  0  0  0  0  0
   -2.6356    0.9461   -0.2441 N   0  0  0  0  0  0  0  0  0  0  0  0
   -3.8666    0.9996   -0.3589 O   0  0  0  0  0  0  0  0  0  0  0  0
  1  2  2  0  0  0  0
  1 12  1  0  0  0  0
  2  3  1  0  0  0  0
  3  8  1  0  0  0  0
  3  4  2  0  0  0  0
  4 11  1  0  0  0  0
  5  4  1  0  0  0  0
  5 10  1  0  0  0  0
  6  1  1  0  0  0  0
  7  2  1  0  0  0  0
  8  9  1  0  0  0  0
 12  5  1  0  0  0  0
 13 12  1  0  0  0  0
M  RAD  3   8   2   9   3  13   2
M  END
