Coordinates from ORCA-job N-O-Pyridine-4-N2+-scan-d09-160-n800
 OpenBabel09191814183D

 13 13  0  0  0  0  0  0  0  0999 V2000
   -1.9086    0.1008   -1.0707 C   0  0  0  0  0  0  0  0  0  0  0  0
   -0.5506    0.0252   -0.9621 C   0  0  0  0  0  0  0  0  0  0  0  0
    0.1051    0.8269    0.0118 C   0  0  0  0  0  0  0  0  0  0  0  0
   -0.6477    1.6898    0.8543 C   0  0  0  0  0  0  0  0  0  0  0  0
   -2.0038    1.7323    0.7095 C   0  0  0  0  0  0  0  0  0  0  0  0
   -2.5070   -0.4630   -1.7749 H   0  0  0  0  0  0  0  0  0  0  0  0
    0.0073   -0.6392   -1.6136 H   0  0  0  0  0  0  0  0  0  0  0  0
    1.4187    0.7697    0.1344 N   0  0  0  0  0  0  0  0  0  0  0  0
    2.5360    0.7210    0.2387 N   0  0  0  0  0  0  0  0  0  0  0  0
   -2.6712    2.3510    1.2956 H   0  0  0  0  0  0  0  0  0  0  0  0
   -0.1647    2.3087    1.6030 H   0  0  0  0  0  0  0  0  0  0  0  0
   -2.6507    0.9469   -0.2456 N   0  0  0  0  0  0  0  0  0  0  0  0
   -3.8848    1.0003   -0.3605 O   0  0  0  0  0  0  0  0  0  0  0  0
  1  2  2  0  0  0  0
  1 12  1  0  0  0  0
  2  3  1  0  0  0  0
  3  8  1  0  0  0  0
  3  4  2  0  0  0  0
  4 11  1  0  0  0  0
  5  4  1  0  0  0  0
  5 10  1  0  0  0  0
  6  1  1  0  0  0  0
  7  2  1  0  0  0  0
  8  9  1  0  0  0  0
 12  5  1  0  0  0  0
 13 12  1  0  0  0  0
M  RAD  3   8   2   9   3  13   2
M  END
