Coordinates from ORCA-job N-O-Pyridine-4-N2+-scan-d09-160-n800
 OpenBabel09191814183D

 13 12  0  0  0  0  0  0  0  0999 V2000
   -2.4851    0.1416   -1.1496 C   0  0  0  0  0  0  0  0  0  0  0  0
   -2.1872    1.1313   -2.0786 C   0  0  0  0  0  0  0  0  0  0  0  0
   -2.4178    2.3484   -1.5143 C   0  0  0  0  0  0  0  0  0  0  0  0
   -2.2914    2.8134   -0.2413 C   0  0  0  0  0  0  0  0  0  0  0  0
   -2.5868    1.7842    0.6446 C   0  0  0  0  0  0  0  0  0  0  0  0
   -2.6254   -0.9068   -1.3912 H   0  0  0  0  0  0  0  0  0  0  0  0
   -1.9849    0.9125   -3.1239 H   0  0  0  0  0  0  0  0  0  0  0  0
    6.6460   -1.1582    2.1657 N   0  0  0  0  0  0  0  0  0  0  0  0
    7.6361   -1.4892    2.5292 N   0  0  0  0  0  0  0  0  0  0  0  0
   -2.8006    1.9226    1.6992 H   0  0  0  0  0  0  0  0  0  0  0  0
   -2.1665    3.8447    0.0788 H   0  0  0  0  0  0  0  0  0  0  0  0
   -2.6960    0.4660    0.1934 N   0  0  0  0  0  0  0  0  0  0  0  0
   -2.9626   -0.4402    1.0079 O   0  0  0  0  0  0  0  0  0  0  0  0
  1 12  1  0  0  0  0
  2  3  1  0  0  0  0
  2  1  2  0  0  0  0
  3  4  1  0  0  0  0
  4 11  1  0  0  0  0
  4  5  2  0  0  0  0
  5 10  1  0  0  0  0
  6  1  1  0  0  0  0
  7  2  1  0  0  0  0
  8  9  3  0  0  0  0
 12  5  1  0  0  0  0
 12 13  1  0  0  0  0
M  RAD  2   3   2  13   2
M  END
