Coordinates from ORCA-job N-O-Pyridine-4-N2+-scan-d09-160-n800
 OpenBabel09191814183D

 13 13  0  0  0  0  0  0  0  0999 V2000
   -1.9657    0.1055   -1.0735 C   0  0  0  0  0  0  0  0  0  0  0  0
   -0.5880    0.0168   -0.9765 C   0  0  0  0  0  0  0  0  0  0  0  0
   -0.0671    0.8343   -0.0042 C   0  0  0  0  0  0  0  0  0  0  0  0
   -0.6863    1.7014    0.8616 C   0  0  0  0  0  0  0  0  0  0  0  0
   -2.0606    1.7324    0.7017 C   0  0  0  0  0  0  0  0  0  0  0  0
   -2.5576   -0.4617   -1.7807 H   0  0  0  0  0  0  0  0  0  0  0  0
   -0.0194   -0.6425   -1.6211 H   0  0  0  0  0  0  0  0  0  0  0  0
    1.7445    0.7555    0.1648 N   0  0  0  0  0  0  0  0  0  0  0  0
    2.8447    0.7077    0.2675 N   0  0  0  0  0  0  0  0  0  0  0  0
   -2.7219    2.3542    1.2919 H   0  0  0  0  0  0  0  0  0  0  0  0
   -0.1920    2.3145    1.6054 H   0  0  0  0  0  0  0  0  0  0  0  0
   -2.7057    0.9489   -0.2504 N   0  0  0  0  0  0  0  0  0  0  0  0
   -3.9472    1.0033   -0.3667 O   0  0  0  0  0  0  0  0  0  0  0  0
  1  2  2  0  0  0  0
  1 12  1  0  0  0  0
  2  3  1  0  0  0  0
  3  8  1  0  0  0  0
  3  4  2  0  0  0  0
  4 11  1  0  0  0  0
  5  4  1  0  0  0  0
  5 10  1  0  0  0  0
  6  1  1  0  0  0  0
  7  2  1  0  0  0  0
  8  9  1  0  0  0  0
 12  5  1  0  0  0  0
 13 12  1  0  0  0  0
M  RAD  3   8   2   9   3  13   2
M  END
