Coordinates from ORCA-job N-O-Pyridine-4-N2+-scan-d09-160-n800
 OpenBabel09191814183D

 13 12  0  0  0  0  0  0  0  0999 V2000
   -2.5722    0.3522   -1.3425 C   0  0  0  0  0  0  0  0  0  0  0  0
   -3.1121    1.2583   -2.2466 C   0  0  0  0  0  0  0  0  0  0  0  0
   -3.6166    2.3198   -1.5592 C   0  0  0  0  0  0  0  0  0  0  0  0
   -3.2310    2.9395   -0.4099 C   0  0  0  0  0  0  0  0  0  0  0  0
   -2.6881    1.9942    0.4514 C   0  0  0  0  0  0  0  0  0  0  0  0
   -2.3232   -0.6773   -1.5777 H   0  0  0  0  0  0  0  0  0  0  0  0
   -3.2490    1.0246   -3.2993 H   0  0  0  0  0  0  0  0  0  0  0  0
    8.5729   -2.0873    3.1071 N   0  0  0  0  0  0  0  0  0  0  0  0
    9.5384   -2.4532    3.5020 N   0  0  0  0  0  0  0  0  0  0  0  0
   -2.5223    2.1519    1.5120 H   0  0  0  0  0  0  0  0  0  0  0  0
   -3.4557    3.9561   -0.0975 H   0  0  0  0  0  0  0  0  0  0  0  0
   -2.3750    0.7114   -0.0062 N   0  0  0  0  0  0  0  0  0  0  0  0
   -1.8884   -0.1198    0.7862 O   0  0  0  0  0  0  0  0  0  0  0  0
  1 12  1  0  0  0  0
  2  3  1  0  0  0  0
  2  1  2  0  0  0  0
  3  4  1  0  0  0  0
  4 11  1  0  0  0  0
  4  5  2  0  0  0  0
  5 10  1  0  0  0  0
  6  1  1  0  0  0  0
  7  2  1  0  0  0  0
  8  9  3  0  0  0  0
 12  5  1  0  0  0  0
 12 13  1  0  0  0  0
M  RAD  2   3   2  13   2
M  END
