Coordinates from ORCA-job N-O-Pyridine-4-N2+-scan-d09-160-n800
 OpenBabel09191814183D

 13 12  0  0  0  0  0  0  0  0999 V2000
   -2.1445    0.0889   -1.0829 C   0  0  0  0  0  0  0  0  0  0  0  0
   -0.7550    0.1216   -1.0808 C   0  0  0  0  0  0  0  0  0  0  0  0
   -0.3411    1.1848   -0.3398 C   0  0  0  0  0  0  0  0  0  0  0  0
   -0.8534    1.8050    0.7571 C   0  0  0  0  0  0  0  0  0  0  0  0
   -2.2404    1.7303    0.7091 C   0  0  0  0  0  0  0  0  0  0  0  0
   -2.7431   -0.4984   -1.7710 H   0  0  0  0  0  0  0  0  0  0  0  0
   -0.1515   -0.5134   -1.7233 H   0  0  0  0  0  0  0  0  0  0  0  0
    2.7332    0.5588    0.3977 N   0  0  0  0  0  0  0  0  0  0  0  0
    3.8100    0.4069    0.5948 N   0  0  0  0  0  0  0  0  0  0  0  0
   -2.9084    2.3305    1.3176 H   0  0  0  0  0  0  0  0  0  0  0  0
   -0.3228    2.4196    1.4790 H   0  0  0  0  0  0  0  0  0  0  0  0
   -2.8791    0.8922   -0.2077 N   0  0  0  0  0  0  0  0  0  0  0  0
   -4.1260    0.8437   -0.2300 O   0  0  0  0  0  0  0  0  0  0  0  0
  1  2  2  0  0  0  0
  1 12  1  0  0  0  0
  2  3  1  0  0  0  0
  3  4  1  0  0  0  0
  4 11  1  0  0  0  0
  5  4  2  0  0  0  0
  5 10  1  0  0  0  0
  6  1  1  0  0  0  0
  7  2  1  0  0  0  0
  8  9  3  0  0  0  0
 12  5  1  0  0  0  0
 13 12  1  0  0  0  0
M  RAD  2   3   2  13   2
M  END
