Coordinates from ORCA-job N-O-Pyridine-4-N2+-scan-d09-160-n800
 OpenBabel09191814183D

 13 12  0  0  0  0  0  0  0  0999 V2000
   -2.0107    0.0907   -1.0691 C   0  0  0  0  0  0  0  0  0  0  0  0
   -0.6245    0.0549   -1.0127 C   0  0  0  0  0  0  0  0  0  0  0  0
   -0.1529    1.0495   -0.2059 C   0  0  0  0  0  0  0  0  0  0  0  0
   -0.7229    1.7383    0.8252 C   0  0  0  0  0  0  0  0  0  0  0  0
   -2.1061    1.7238    0.7140 C   0  0  0  0  0  0  0  0  0  0  0  0
   -2.6043   -0.4792   -1.7745 H   0  0  0  0  0  0  0  0  0  0  0  0
   -0.0401   -0.6046   -1.6447 H   0  0  0  0  0  0  0  0  0  0  0  0
    1.9824    0.6583    0.2666 N   0  0  0  0  0  0  0  0  0  0  0  0
    3.0806    0.6048    0.3743 N   0  0  0  0  0  0  0  0  0  0  0  0
   -2.7692    2.3431    1.3069 H   0  0  0  0  0  0  0  0  0  0  0  0
   -0.2121    2.3393    1.5695 H   0  0  0  0  0  0  0  0  0  0  0  0
   -2.7480    0.9198   -0.2260 N   0  0  0  0  0  0  0  0  0  0  0  0
   -3.9943    0.9318   -0.3037 O   0  0  0  0  0  0  0  0  0  0  0  0
  1  2  2  0  0  0  0
  1 12  1  0  0  0  0
  2  3  1  0  0  0  0
  3  4  1  0  0  0  0
  4 11  1  0  0  0  0
  5  4  2  0  0  0  0
  5 10  1  0  0  0  0
  6  1  1  0  0  0  0
  7  2  1  0  0  0  0
  8  9  3  0  0  0  0
 12  5  1  0  0  0  0
 13 12  1  0  0  0  0
M  RAD  2   3   2  13   2
M  END
