Coordinates from ORCA-job N-O-Pyridine-4-N2+-scan-d09-160-n800
 OpenBabel09191814183D

 13 12  0  0  0  0  0  0  0  0999 V2000
   -2.5692    0.3960   -1.3682 C   0  0  0  0  0  0  0  0  0  0  0  0
   -3.2122    1.2516   -2.2541 C   0  0  0  0  0  0  0  0  0  0  0  0
   -3.7659    2.2785   -1.5523 C   0  0  0  0  0  0  0  0  0  0  0  0
   -3.3812    2.9353   -0.4235 C   0  0  0  0  0  0  0  0  0  0  0  0
   -2.7343    2.0403    0.4196 C   0  0  0  0  0  0  0  0  0  0  0  0
   -2.2536   -0.6139   -1.6083 H   0  0  0  0  0  0  0  0  0  0  0  0
   -3.3740    0.9994   -3.2989 H   0  0  0  0  0  0  0  0  0  0  0  0
    8.8616   -2.2364    3.2274 N   0  0  0  0  0  0  0  0  0  0  0  0
    9.8236   -2.6091    3.6245 N   0  0  0  0  0  0  0  0  0  0  0  0
   -2.5382    2.2186    1.4717 H   0  0  0  0  0  0  0  0  0  0  0  0
   -3.6687    3.9347   -0.1072 H   0  0  0  0  0  0  0  0  0  0  0  0
   -2.3449    0.7805   -0.0435 N   0  0  0  0  0  0  0  0  0  0  0  0
   -1.7652   -0.0052    0.7327 O   0  0  0  0  0  0  0  0  0  0  0  0
  1 12  1  0  0  0  0
  2  3  1  0  0  0  0
  2  1  2  0  0  0  0
  3  4  1  0  0  0  0
  4 11  1  0  0  0  0
  4  5  2  0  0  0  0
  5 10  1  0  0  0  0
  6  1  1  0  0  0  0
  7  2  1  0  0  0  0
  8  9  3  0  0  0  0
 12  5  1  0  0  0  0
 12 13  1  0  0  0  0
M  RAD  2   3   2  13   2
M  END
