Coordinates from ORCA-job N-O-Pyridine-4-N2+-scan-d09-160-n800
 OpenBabel09191814183D

 13 12  0  0  0  0  0  0  0  0999 V2000
   -2.6471    0.5955   -1.5664 C   0  0  0  0  0  0  0  0  0  0  0  0
   -3.7446    1.1675   -2.1982 C   0  0  0  0  0  0  0  0  0  0  0  0
   -4.3520    2.0270   -1.3347 C   0  0  0  0  0  0  0  0  0  0  0  0
   -3.8724    2.8360   -0.3504 C   0  0  0  0  0  0  0  0  0  0  0  0
   -2.7719    2.2249    0.2380 C   0  0  0  0  0  0  0  0  0  0  0  0
   -2.1275   -0.2895   -1.9184 H   0  0  0  0  0  0  0  0  0  0  0  0
   -4.1188    0.8146   -3.1558 H   0  0  0  0  0  0  0  0  0  0  0  0
    9.9199   -2.7600    3.7809 N   0  0  0  0  0  0  0  0  0  0  0  0
   10.8390   -3.1758    4.2328 N   0  0  0  0  0  0  0  0  0  0  0  0
   -2.3426    2.5175    1.1905 H   0  0  0  0  0  0  0  0  0  0  0  0
   -4.3417    3.7236    0.0661 H   0  0  0  0  0  0  0  0  0  0  0  0
   -2.1746    1.1099   -0.3560 N   0  0  0  0  0  0  0  0  0  0  0  0
   -1.1876    0.5791    0.1915 O   0  0  0  0  0  0  0  0  0  0  0  0
  1 12  1  0  0  0  0
  2  1  2  0  0  0  0
  2  3  1  0  0  0  0
  3  4  1  0  0  0  0
  4 11  1  0  0  0  0
  4  5  2  0  0  0  0
  5 10  1  0  0  0  0
  6  1  1  0  0  0  0
  7  2  1  0  0  0  0
  8  9  3  0  0  0  0
 12 13  1  0  0  0  0
 12  5  1  0  0  0  0
M  RAD  2   3   2  13   2
M  END
