Coordinates from ORCA-job N-O-Pyridine-4-N2+-scan-d09-160-n800
 OpenBabel09191814183D

 13 12  0  0  0  0  0  0  0  0999 V2000
   -2.4745    0.0950   -1.1066 C   0  0  0  0  0  0  0  0  0  0  0  0
   -1.8228    0.9985   -1.9373 C   0  0  0  0  0  0  0  0  0  0  0  0
   -1.9078    2.2414   -1.3887 C   0  0  0  0  0  0  0  0  0  0  0  0
   -1.9272    2.6814   -0.1007 C   0  0  0  0  0  0  0  0  0  0  0  0
   -2.5764    1.7383    0.6868 C   0  0  0  0  0  0  0  0  0  0  0  0
   -2.7724   -0.9061   -1.4001 H   0  0  0  0  0  0  0  0  0  0  0  0
   -1.4802    0.7358   -2.9348 H   0  0  0  0  0  0  0  0  0  0  0  0
    5.9762   -0.7956    1.7992 N   0  0  0  0  0  0  0  0  0  0  0  0
    6.9753   -1.1132    2.1498 N   0  0  0  0  0  0  0  0  0  0  0  0
   -2.9480    1.9245    1.6890 H   0  0  0  0  0  0  0  0  0  0  0  0
   -1.6622    3.6695    0.2667 H   0  0  0  0  0  0  0  0  0  0  0  0
   -2.8590    0.4649    0.1851 N   0  0  0  0  0  0  0  0  0  0  0  0
   -3.4431   -0.3640    0.9115 O   0  0  0  0  0  0  0  0  0  0  0  0
  1 12  1  0  0  0  0
  2  3  1  0  0  0  0
  2  1  2  0  0  0  0
  3  4  1  0  0  0  0
  4 11  1  0  0  0  0
  4  5  2  0  0  0  0
  5 10  1  0  0  0  0
  6  1  1  0  0  0  0
  7  2  1  0  0  0  0
  8  9  3  0  0  0  0
 12  5  1  0  0  0  0
 12 13  1  0  0  0  0
M  RAD  2   3   2  13   2
M  END
