Coordinates from ORCA-job N-O-Pyridine-4-N2+-scan-d09-160-n800
 OpenBabel09191814183D

 13 12  0  0  0  0  0  0  0  0999 V2000
   -2.5420    0.2529   -1.2539 C   0  0  0  0  0  0  0  0  0  0  0  0
   -2.7469    1.2411   -2.2092 C   0  0  0  0  0  0  0  0  0  0  0  0
   -3.1499    2.3811   -1.5840 C   0  0  0  0  0  0  0  0  0  0  0  0
   -2.8518    2.9224   -0.3712 C   0  0  0  0  0  0  0  0  0  0  0  0
   -2.6445    1.8947    0.5409 C   0  0  0  0  0  0  0  0  0  0  0  0
   -2.4540   -0.8060   -1.4733 H   0  0  0  0  0  0  0  0  0  0  0  0
   -2.7492    1.0335   -3.2762 H   0  0  0  0  0  0  0  0  0  0  0  0
    7.8118   -1.7160    2.7365 N   0  0  0  0  0  0  0  0  0  0  0  0
    8.7912   -2.0627    3.1143 N   0  0  0  0  0  0  0  0  0  0  0  0
   -2.6306    2.0220    1.6183 H   0  0  0  0  0  0  0  0  0  0  0  0
   -2.9322    3.9644   -0.0721 H   0  0  0  0  0  0  0  0  0  0  0  0
   -2.5046    0.5740    0.1058 N   0  0  0  0  0  0  0  0  0  0  0  0
   -2.3194   -0.3309    0.9441 O   0  0  0  0  0  0  0  0  0  0  0  0
  1 12  1  0  0  0  0
  2  3  1  0  0  0  0
  2  1  2  0  0  0  0
  3  4  1  0  0  0  0
  4 11  1  0  0  0  0
  4  5  2  0  0  0  0
  5 10  1  0  0  0  0
  6  1  1  0  0  0  0
  7  2  1  0  0  0  0
  8  9  3  0  0  0  0
 12  5  1  0  0  0  0
 12 13  1  0  0  0  0
M  RAD  2   3   2  13   2
M  END
