Coordinates from ORCA-job N-O-Pyridine-4-N2+-scan-d09-160-n800
 OpenBabel09191814183D

 13 12  0  0  0  0  0  0  0  0999 V2000
   -2.4382    0.0913   -1.1021 C   0  0  0  0  0  0  0  0  0  0  0  0
   -1.1168    0.4237   -1.3752 C   0  0  0  0  0  0  0  0  0  0  0  0
   -0.8110    1.5802   -0.7258 C   0  0  0  0  0  0  0  0  0  0  0  0
   -1.2165    2.1069    0.4620 C   0  0  0  0  0  0  0  0  0  0  0  0
   -2.5356    1.7344    0.6913 C   0  0  0  0  0  0  0  0  0  0  0  0
   -3.0187   -0.6325   -1.6645 H   0  0  0  0  0  0  0  0  0  0  0  0
   -0.5275   -0.0881   -2.1318 H   0  0  0  0  0  0  0  0  0  0  0  0
    4.5285    0.0828    0.9254 N   0  0  0  0  0  0  0  0  0  0  0  0
    5.5736   -0.1513    1.1991 N   0  0  0  0  0  0  0  0  0  0  0  0
   -3.1865    2.1982    1.4251 H   0  0  0  0  0  0  0  0  0  0  0  0
   -0.7014    2.8458    1.0704 H   0  0  0  0  0  0  0  0  0  0  0  0
   -3.1433    0.7480   -0.0900 N   0  0  0  0  0  0  0  0  0  0  0  0
   -4.3285    0.4311    0.1360 O   0  0  0  0  0  0  0  0  0  0  0  0
  1 12  1  0  0  0  0
  2  1  2  0  0  0  0
  2  3  1  0  0  0  0
  3  4  1  0  0  0  0
  4  5  2  0  0  0  0
  4 11  1  0  0  0  0
  5 10  1  0  0  0  0
  6  1  1  0  0  0  0
  7  2  1  0  0  0  0
  8  9  3  0  0  0  0
 12 13  1  0  0  0  0
 12  5  1  0  0  0  0
M  RAD  2   3   2  13   2
M  END
