Coordinates from ORCA-job N-O-Pyridine-4-N2+-scan-d09-160-n800
 OpenBabel09191814183D

 13 12  0  0  0  0  0  0  0  0999 V2000
   -2.5634    0.3777   -1.3534 C   0  0  0  0  0  0  0  0  0  0  0  0
   -3.1607    1.2534   -2.2515 C   0  0  0  0  0  0  0  0  0  0  0  0
   -3.7007    2.2943   -1.5597 C   0  0  0  0  0  0  0  0  0  0  0  0
   -3.3229    2.9372   -0.4206 C   0  0  0  0  0  0  0  0  0  0  0  0
   -2.7217    2.0225    0.4348 C   0  0  0  0  0  0  0  0  0  0  0  0
   -2.2717   -0.6405   -1.5885 H   0  0  0  0  0  0  0  0  0  0  0  0
   -3.3058    1.0080   -3.3004 H   0  0  0  0  0  0  0  0  0  0  0  0
    8.7358   -2.1759    3.1701 N   0  0  0  0  0  0  0  0  0  0  0  0
    9.7000   -2.5456    3.5648 N   0  0  0  0  0  0  0  0  0  0  0  0
   -2.5440    2.1932    1.4914 H   0  0  0  0  0  0  0  0  0  0  0  0
   -3.5882    3.9442   -0.1087 H   0  0  0  0  0  0  0  0  0  0  0  0
   -2.3586    0.7529   -0.0227 N   0  0  0  0  0  0  0  0  0  0  0  0
   -1.8200   -0.0509    0.7643 O   0  0  0  0  0  0  0  0  0  0  0  0
  1 12  1  0  0  0  0
  2  3  1  0  0  0  0
  2  1  2  0  0  0  0
  3  4  1  0  0  0  0
  4 11  1  0  0  0  0
  4  5  2  0  0  0  0
  5 10  1  0  0  0  0
  6  1  1  0  0  0  0
  7  2  1  0  0  0  0
  8  9  3  0  0  0  0
 12  5  1  0  0  0  0
 12 13  1  0  0  0  0
M  RAD  2   3   2  13   2
M  END
