Coordinates from ORCA-job N-O-Pyridine-4-N2+-scan-d09-160-n800
 OpenBabel09191814183D

 13 12  0  0  0  0  0  0  0  0999 V2000
   -2.4900    0.0784   -1.0928 C   0  0  0  0  0  0  0  0  0  0  0  0
   -1.4086    0.7318   -1.6712 C   0  0  0  0  0  0  0  0  0  0  0  0
   -1.2755    1.9581   -1.0955 C   0  0  0  0  0  0  0  0  0  0  0  0
   -1.5109    2.4149    0.1650 C   0  0  0  0  0  0  0  0  0  0  0  0
   -2.5899    1.7221    0.7003 C   0  0  0  0  0  0  0  0  0  0  0  0
   -2.9738   -0.7984   -1.5103 H   0  0  0  0  0  0  0  0  0  0  0  0
   -0.9025    0.3565   -2.5570 H   0  0  0  0  0  0  0  0  0  0  0  0
    5.2859   -0.3379    1.3469 N   0  0  0  0  0  0  0  0  0  0  0  0
    6.3039   -0.6246    1.6685 N   0  0  0  0  0  0  0  0  0  0  0  0
   -3.1458    2.0329    1.5786 H   0  0  0  0  0  0  0  0  0  0  0  0
   -1.0808    3.2907    0.6441 H   0  0  0  0  0  0  0  0  0  0  0  0
   -3.0821    0.5751    0.0716 N   0  0  0  0  0  0  0  0  0  0  0  0
   -4.0519   -0.0294    0.5716 O   0  0  0  0  0  0  0  0  0  0  0  0
  1 12  1  0  0  0  0
  2  3  1  0  0  0  0
  2  1  2  0  0  0  0
  3  4  1  0  0  0  0
  4 11  1  0  0  0  0
  4  5  2  0  0  0  0
  5 10  1  0  0  0  0
  6  1  1  0  0  0  0
  7  2  1  0  0  0  0
  8  9  3  0  0  0  0
 12 13  1  0  0  0  0
 12  5  1  0  0  0  0
M  RAD  2   3   2  13   2
M  END
