Coordinates from ORCA-job N-O-Pyridine-4-N2+-scan-d09-160-n800
 OpenBabel09191814183D

 13 13  0  0  0  0  0  0  0  0999 V2000
   -1.8808    0.0986   -1.0692 C   0  0  0  0  0  0  0  0  0  0  0  0
   -0.5317    0.0239   -0.9609 C   0  0  0  0  0  0  0  0  0  0  0  0
    0.1999    0.8228    0.0206 C   0  0  0  0  0  0  0  0  0  0  0  0
   -0.6289    1.6894    0.8565 C   0  0  0  0  0  0  0  0  0  0  0  0
   -1.9761    1.7321    0.7132 C   0  0  0  0  0  0  0  0  0  0  0  0
   -2.4780   -0.4664   -1.7746 H   0  0  0  0  0  0  0  0  0  0  0  0
    0.0302   -0.6399   -1.6112 H   0  0  0  0  0  0  0  0  0  0  0  0
    1.2346    0.7777    0.1173 N   0  0  0  0  0  0  0  0  0  0  0  0
    2.3738    0.7281    0.2236 N   0  0  0  0  0  0  0  0  0  0  0  0
   -2.6425    2.3519    1.3007 H   0  0  0  0  0  0  0  0  0  0  0  0
   -0.1418    2.3075    1.6049 H   0  0  0  0  0  0  0  0  0  0  0  0
   -2.6259    0.9457   -0.2432 N   0  0  0  0  0  0  0  0  0  0  0  0
   -3.8549    0.9991   -0.3578 O   0  0  0  0  0  0  0  0  0  0  0  0
  1  2  2  0  0  0  0
  1 12  1  0  0  0  0
  2  3  1  0  0  0  0
  3  8  1  0  0  0  0
  3  4  2  0  0  0  0
  4 11  1  0  0  0  0
  5  4  1  0  0  0  0
  5 10  1  0  0  0  0
  6  1  1  0  0  0  0
  7  2  1  0  0  0  0
  8  9  1  0  0  0  0
 12  5  1  0  0  0  0
 13 12  1  0  0  0  0
M  RAD  3   8   2   9   3  13   2
M  END
