Coordinates from ORCA-job N-O-Pyridine-4-N2+-scan-d09-160-n800
 OpenBabel09191814183D

 13 12  0  0  0  0  0  0  0  0999 V2000
   -2.4863    0.0784   -1.0924 C   0  0  0  0  0  0  0  0  0  0  0  0
   -1.5246    0.8248   -1.7623 C   0  0  0  0  0  0  0  0  0  0  0  0
   -1.4589    2.0634   -1.2015 C   0  0  0  0  0  0  0  0  0  0  0  0
   -1.6278    2.5080    0.0739 C   0  0  0  0  0  0  0  0  0  0  0  0
   -2.5872    1.7221    0.7007 C   0  0  0  0  0  0  0  0  0  0  0  0
   -2.9192   -0.8439   -1.4655 H   0  0  0  0  0  0  0  0  0  0  0  0
   -1.0630    0.4904   -2.6878 H   0  0  0  0  0  0  0  0  0  0  0  0
    5.4870   -0.4777    1.4843 N   0  0  0  0  0  0  0  0  0  0  0  0
    6.4984   -0.7759    1.8164 N   0  0  0  0  0  0  0  0  0  0  0  0
   -3.0929    1.9875    1.6231 H   0  0  0  0  0  0  0  0  0  0  0  0
   -1.2430    3.4248    0.5132 H   0  0  0  0  0  0  0  0  0  0  0  0
   -3.0212    0.5283    0.1179 N   0  0  0  0  0  0  0  0  0  0  0  0
   -3.8836   -0.1596    0.7000 O   0  0  0  0  0  0  0  0  0  0  0  0
  1 12  1  0  0  0  0
  2  3  1  0  0  0  0
  2  1  2  0  0  0  0
  3  4  1  0  0  0  0
  4 11  1  0  0  0  0
  4  5  2  0  0  0  0
  5 10  1  0  0  0  0
  6  1  1  0  0  0  0
  7  2  1  0  0  0  0
  8  9  3  0  0  0  0
 12 13  1  0  0  0  0
 12  5  1  0  0  0  0
M  RAD  2   3   2  13   2
M  END
