Coordinates from ORCA-job N-O-Pyridine-4-N2+-scan-d09-160-n800
 OpenBabel09191814183D

 13 12  0  0  0  0  0  0  0  0999 V2000
   -2.4792    0.1285   -1.1373 C   0  0  0  0  0  0  0  0  0  0  0  0
   -2.1019    1.1057   -2.0505 C   0  0  0  0  0  0  0  0  0  0  0  0
   -2.3019    2.3308   -1.4920 C   0  0  0  0  0  0  0  0  0  0  0  0
   -2.2064    2.7880   -0.2134 C   0  0  0  0  0  0  0  0  0  0  0  0
   -2.5812    1.7713    0.6566 C   0  0  0  0  0  0  0  0  0  0  0  0
   -2.6551   -0.9124   -1.3876 H   0  0  0  0  0  0  0  0  0  0  0  0
   -1.8677    0.8798   -3.0876 H   0  0  0  0  0  0  0  0  0  0  0  0
    6.4783   -1.0735    2.0793 N   0  0  0  0  0  0  0  0  0  0  0  0
    7.4701   -1.4021    2.4404 N   0  0  0  0  0  0  0  0  0  0  0  0
   -2.8308    1.9173    1.7023 H   0  0  0  0  0  0  0  0  0  0  0  0
   -2.0498    3.8124    0.1147 H   0  0  0  0  0  0  0  0  0  0  0  0
   -2.7293    0.4597    0.1972 N   0  0  0  0  0  0  0  0  0  0  0  0
   -3.0672   -0.4353    0.9976 O   0  0  0  0  0  0  0  0  0  0  0  0
  1 12  1  0  0  0  0
  2  3  1  0  0  0  0
  2  1  2  0  0  0  0
  3  4  1  0  0  0  0
  4 11  1  0  0  0  0
  4  5  2  0  0  0  0
  5 10  1  0  0  0  0
  6  1  1  0  0  0  0
  7  2  1  0  0  0  0
  8  9  3  0  0  0  0
 12  5  1  0  0  0  0
 12 13  1  0  0  0  0
M  RAD  2   3   2  13   2
M  END
