Coordinates from ORCA-job N-O-Pyridine-4-N2+-scan-d09-160-n800
 OpenBabel09191814183D

 13 12  0  0  0  0  0  0  0  0999 V2000
   -2.6281    0.4828   -1.4549 C   0  0  0  0  0  0  0  0  0  0  0  0
   -3.4735    1.2407   -2.2559 C   0  0  0  0  0  0  0  0  0  0  0  0
   -4.0599    2.2029   -1.4918 C   0  0  0  0  0  0  0  0  0  0  0  0
   -3.6251    2.9180   -0.4179 C   0  0  0  0  0  0  0  0  0  0  0  0
   -2.7763    2.1206    0.3399 C   0  0  0  0  0  0  0  0  0  0  0  0
   -2.2226   -0.4847   -1.7319 H   0  0  0  0  0  0  0  0  0  0  0  0
   -3.7283    0.9551   -3.2733 H   0  0  0  0  0  0  0  0  0  0  0  0
    9.4706   -2.5089    3.5173 N   0  0  0  0  0  0  0  0  0  0  0  0
   10.4195   -2.8962    3.9315 N   0  0  0  0  0  0  0  0  0  0  0  0
   -2.4780    2.3368    1.3604 H   0  0  0  0  0  0  0  0  0  0  0  0
   -3.9929    3.8793   -0.0684 H   0  0  0  0  0  0  0  0  0  0  0  0
   -2.2942    0.9110   -0.1673 N   0  0  0  0  0  0  0  0  0  0  0  0
   -1.5333    0.2130    0.5324 O   0  0  0  0  0  0  0  0  0  0  0  0
  1 12  1  0  0  0  0
  2  3  1  0  0  0  0
  2  1  2  0  0  0  0
  3  4  1  0  0  0  0
  4 11  1  0  0  0  0
  4  5  2  0  0  0  0
  5 10  1  0  0  0  0
  6  1  1  0  0  0  0
  7  2  1  0  0  0  0
  8  9  3  0  0  0  0
 12  5  1  0  0  0  0
 12 13  1  0  0  0  0
M  RAD  2   3   2  13   2
M  END
