Coordinates from ORCA-job N-O-Pyridine-4-N2+-scan-d09-160-n800
 OpenBabel09191814183D

 13 12  0  0  0  0  0  0  0  0999 V2000
   -2.4906    0.0789   -1.0933 C   0  0  0  0  0  0  0  0  0  0  0  0
   -1.3908    0.7156   -1.6555 C   0  0  0  0  0  0  0  0  0  0  0  0
   -1.2467    1.9392   -1.0767 C   0  0  0  0  0  0  0  0  0  0  0  0
   -1.4929    2.3987    0.1808 C   0  0  0  0  0  0  0  0  0  0  0  0
   -2.5903    1.7225    0.6999 C   0  0  0  0  0  0  0  0  0  0  0  0
   -2.9821   -0.7899   -1.5185 H   0  0  0  0  0  0  0  0  0  0  0  0
   -0.8780    0.3331   -2.5343 H   0  0  0  0  0  0  0  0  0  0  0  0
    5.2545   -0.3152    1.3246 N   0  0  0  0  0  0  0  0  0  0  0  0
    6.2737   -0.5997    1.6443 N   0  0  0  0  0  0  0  0  0  0  0  0
   -3.1539    2.0414    1.5704 H   0  0  0  0  0  0  0  0  0  0  0  0
   -1.0560    3.2673    0.6669 H   0  0  0  0  0  0  0  0  0  0  0  0
   -3.0915    0.5840    0.0630 N   0  0  0  0  0  0  0  0  0  0  0  0
   -4.0776   -0.0056    0.5485 O   0  0  0  0  0  0  0  0  0  0  0  0
  1 12  1  0  0  0  0
  2  1  2  0  0  0  0
  2  3  1  0  0  0  0
  3  4  1  0  0  0  0
  4 11  1  0  0  0  0
  4  5  2  0  0  0  0
  5 10  1  0  0  0  0
  6  1  1  0  0  0  0
  7  2  1  0  0  0  0
  8  9  3  0  0  0  0
 12 13  1  0  0  0  0
 12  5  1  0  0  0  0
M  RAD  2   3   2  13   2
M  END
