Coordinates from ORCA-job N-O-Pyridine-4-N2+-scan-d09-160-n800
 OpenBabel09191814183D

 13 12  0  0  0  0  0  0  0  0999 V2000
   -2.5220    0.2040   -1.2080 C   0  0  0  0  0  0  0  0  0  0  0  0
   -2.5227    1.2090   -2.1676 C   0  0  0  0  0  0  0  0  0  0  0  0
   -2.8613    2.3857   -1.5729 C   0  0  0  0  0  0  0  0  0  0  0  0
   -2.6289    2.8907   -0.3303 C   0  0  0  0  0  0  0  0  0  0  0  0
   -2.6257    1.8464    0.5862 C   0  0  0  0  0  0  0  0  0  0  0  0
   -2.5266   -0.8581   -1.4296 H   0  0  0  0  0  0  0  0  0  0  0  0
   -2.4405    1.0034   -3.2318 H   0  0  0  0  0  0  0  0  0  0  0  0
    7.3617   -1.4971    2.5119 N   0  0  0  0  0  0  0  0  0  0  0  0
    8.3459   -1.8369    2.8833 N   0  0  0  0  0  0  0  0  0  0  0  0
   -2.7053    1.9711    1.6611 H   0  0  0  0  0  0  0  0  0  0  0  0
   -2.6256    3.9352   -0.0290 H   0  0  0  0  0  0  0  0  0  0  0  0
   -2.5865    0.5185    0.1522 N   0  0  0  0  0  0  0  0  0  0  0  0
   -2.5846   -0.4015    0.9945 O   0  0  0  0  0  0  0  0  0  0  0  0
  1 12  1  0  0  0  0
  2  3  1  0  0  0  0
  2  1  2  0  0  0  0
  3  4  1  0  0  0  0
  4 11  1  0  0  0  0
  4  5  2  0  0  0  0
  5 10  1  0  0  0  0
  6  1  1  0  0  0  0
  7  2  1  0  0  0  0
  8  9  3  0  0  0  0
 12  5  1  0  0  0  0
 12 13  1  0  0  0  0
M  RAD  2   3   2  13   2
M  END
