Coordinates from ORCA-job N-O-Pyridine-4-N2+-scan-d09-160-n800
 OpenBabel09191814183D

 13 12  0  0  0  0  0  0  0  0999 V2000
   -2.6327    0.5451   -1.5161 C   0  0  0  0  0  0  0  0  0  0  0  0
   -3.6310    1.2011   -2.2258 C   0  0  0  0  0  0  0  0  0  0  0  0
   -4.2338    2.1049   -1.4053 C   0  0  0  0  0  0  0  0  0  0  0  0
   -3.7696    2.8735   -0.3821 C   0  0  0  0  0  0  0  0  0  0  0  0
   -2.7680    2.1781    0.2843 C   0  0  0  0  0  0  0  0  0  0  0  0
   -2.1581   -0.3776   -1.8331 H   0  0  0  0  0  0  0  0  0  0  0  0
   -3.9574    0.8791   -3.2113 H   0  0  0  0  0  0  0  0  0  0  0  0
    9.7101   -2.6469    3.6614 N   0  0  0  0  0  0  0  0  0  0  0  0
   10.6417   -3.0512    4.0981 N   0  0  0  0  0  0  0  0  0  0  0  0
   -2.3913    2.4356    1.2686 H   0  0  0  0  0  0  0  0  0  0  0  0
   -4.1991    3.7947    0.0033 H   0  0  0  0  0  0  0  0  0  0  0  0
   -2.2154    1.0203   -0.2699 N   0  0  0  0  0  0  0  0  0  0  0  0
   -1.3173    0.4139    0.3477 O   0  0  0  0  0  0  0  0  0  0  0  0
  1 12  1  0  0  0  0
  2  1  2  0  0  0  0
  2  3  1  0  0  0  0
  3  4  1  0  0  0  0
  4 11  1  0  0  0  0
  4  5  2  0  0  0  0
  5 10  1  0  0  0  0
  6  1  1  0  0  0  0
  7  2  1  0  0  0  0
  8  9  3  0  0  0  0
 12  5  1  0  0  0  0
 12 13  1  0  0  0  0
M  RAD  2   3   2  13   2
M  END
