Coordinates from ORCA-job N-O-Pyridine-4-N2+-scan-d09-160-n800
 OpenBabel09191814183D

 13 12  0  0  0  0  0  0  0  0999 V2000
   -2.2852    0.0955   -1.0976 C   0  0  0  0  0  0  0  0  0  0  0  0
   -0.9009    0.2018   -1.1616 C   0  0  0  0  0  0  0  0  0  0  0  0
   -0.5110    1.2924   -0.4471 C   0  0  0  0  0  0  0  0  0  0  0  0
   -0.9995    1.8851    0.6761 C   0  0  0  0  0  0  0  0  0  0  0  0
   -2.3815    1.7381    0.6956 C   0  0  0  0  0  0  0  0  0  0  0  0
   -2.8847   -0.5237   -1.7566 H   0  0  0  0  0  0  0  0  0  0  0  0
   -0.2957   -0.4036   -1.8314 H   0  0  0  0  0  0  0  0  0  0  0  0
    3.5315    0.4052    0.5799 N   0  0  0  0  0  0  0  0  0  0  0  0
    4.6007    0.2301    0.7988 N   0  0  0  0  0  0  0  0  0  0  0  0
   -3.0506    2.3064    1.3331 H   0  0  0  0  0  0  0  0  0  0  0  0
   -0.4677    2.5298    1.3710 H   0  0  0  0  0  0  0  0  0  0  0  0
   -3.0178    0.8637   -0.1891 N   0  0  0  0  0  0  0  0  0  0  0  0
   -4.2596    0.7495   -0.1512 O   0  0  0  0  0  0  0  0  0  0  0  0
  1 12  1  0  0  0  0
  2  1  2  0  0  0  0
  2  3  1  0  0  0  0
  3  4  1  0  0  0  0
  4  5  2  0  0  0  0
  4 11  1  0  0  0  0
  5 10  1  0  0  0  0
  6  1  1  0  0  0  0
  7  2  1  0  0  0  0
  8  9  3  0  0  0  0
 12 13  1  0  0  0  0
 12  5  1  0  0  0  0
M  RAD  2   3   2  13   2
M  END
