Coordinates from ORCA-job N-O-Pyridine-4-N2+-scan-d09-160-n800
 OpenBabel09191814183D

 13 12  0  0  0  0  0  0  0  0999 V2000
   -2.2671    0.0948   -1.0959 C   0  0  0  0  0  0  0  0  0  0  0  0
   -0.8814    0.1887   -1.1487 C   0  0  0  0  0  0  0  0  0  0  0  0
   -0.4876    1.2752   -0.4302 C   0  0  0  0  0  0  0  0  0  0  0  0
   -0.9800    1.8720    0.6891 C   0  0  0  0  0  0  0  0  0  0  0  0
   -2.3633    1.7373    0.6973 C   0  0  0  0  0  0  0  0  0  0  0  0
   -2.8667   -0.5188   -1.7600 H   0  0  0  0  0  0  0  0  0  0  0  0
   -0.2762   -0.4218   -1.8137 H   0  0  0  0  0  0  0  0  0  0  0  0
    3.4269    0.4285    0.5532 N   0  0  0  0  0  0  0  0  0  0  0  0
    4.4972    0.2565    0.7691 N   0  0  0  0  0  0  0  0  0  0  0  0
   -3.0325    2.3112    1.3296 H   0  0  0  0  0  0  0  0  0  0  0  0
   -0.4480    2.5115    1.3886 H   0  0  0  0  0  0  0  0  0  0  0  0
   -3.0002    0.8691   -0.1931 N   0  0  0  0  0  0  0  0  0  0  0  0
   -4.2433    0.7661   -0.1654 O   0  0  0  0  0  0  0  0  0  0  0  0
  1 12  1  0  0  0  0
  2  1  2  0  0  0  0
  2  3  1  0  0  0  0
  3  4  1  0  0  0  0
  4  5  2  0  0  0  0
  4 11  1  0  0  0  0
  5 10  1  0  0  0  0
  6  1  1  0  0  0  0
  7  2  1  0  0  0  0
  8  9  3  0  0  0  0
 12 13  1  0  0  0  0
 12  5  1  0  0  0  0
M  RAD  2   3   2  13   2
M  END
