Coordinates from ORCA-job N-O-Pyridine-4-N2+-scan-d09-160-n800
 OpenBabel09191814183D

 13 12  0  0  0  0  0  0  0  0999 V2000
   -2.5450    0.2595   -1.2601 C   0  0  0  0  0  0  0  0  0  0  0  0
   -2.7742    1.2440   -2.2130 C   0  0  0  0  0  0  0  0  0  0  0  0
   -3.1862    2.3794   -1.5845 C   0  0  0  0  0  0  0  0  0  0  0  0
   -2.8790    2.9249   -0.3754 C   0  0  0  0  0  0  0  0  0  0  0  0
   -2.6473    1.9013    0.5349 C   0  0  0  0  0  0  0  0  0  0  0  0
   -2.4449   -0.7982   -1.4802 H   0  0  0  0  0  0  0  0  0  0  0  0
   -2.7861    1.0354   -3.2797 H   0  0  0  0  0  0  0  0  0  0  0  0
    7.8688   -1.7433    2.7644 N   0  0  0  0  0  0  0  0  0  0  0  0
    8.8476   -2.0907    3.1429 N   0  0  0  0  0  0  0  0  0  0  0  0
   -2.6213    2.0300    1.6118 H   0  0  0  0  0  0  0  0  0  0  0  0
   -2.9688    3.9659   -0.0758 H   0  0  0  0  0  0  0  0  0  0  0  0
   -2.4962    0.5820    0.0990 N   0  0  0  0  0  0  0  0  0  0  0  0
   -2.2894   -0.3197    0.9355 O   0  0  0  0  0  0  0  0  0  0  0  0
  1 12  1  0  0  0  0
  2  3  1  0  0  0  0
  2  1  2  0  0  0  0
  3  4  1  0  0  0  0
  4 11  1  0  0  0  0
  4  5  2  0  0  0  0
  5 10  1  0  0  0  0
  6  1  1  0  0  0  0
  7  2  1  0  0  0  0
  8  9  3  0  0  0  0
 12  5  1  0  0  0  0
 12 13  1  0  0  0  0
M  RAD  2   3   2  13   2
M  END
