Coordinates from ORCA-job N-O-Pyridine-4-N2+-scan-d09-160-n800
 OpenBabel09191814183D

 13 12  0  0  0  0  0  0  0  0999 V2000
   -2.5746    0.3464   -1.3400 C   0  0  0  0  0  0  0  0  0  0  0  0
   -3.1009    1.2594   -2.2453 C   0  0  0  0  0  0  0  0  0  0  0  0
   -3.5967    2.3255   -1.5589 C   0  0  0  0  0  0  0  0  0  0  0  0
   -3.2093    2.9398   -0.4074 C   0  0  0  0  0  0  0  0  0  0  0  0
   -2.6804    1.9877    0.4552 C   0  0  0  0  0  0  0  0  0  0  0  0
   -2.3356   -0.6854   -1.5754 H   0  0  0  0  0  0  0  0  0  0  0  0
   -3.2357    1.0284   -3.2989 H   0  0  0  0  0  0  0  0  0  0  0  0
    8.5358   -2.0669    3.0927 N   0  0  0  0  0  0  0  0  0  0  0  0
    9.5017   -2.4318    3.4877 N   0  0  0  0  0  0  0  0  0  0  0  0
   -2.5175    2.1423    1.5166 H   0  0  0  0  0  0  0  0  0  0  0  0
   -3.4244    3.9584   -0.0947 H   0  0  0  0  0  0  0  0  0  0  0  0
   -2.3793    0.7020   -0.0025 N   0  0  0  0  0  0  0  0  0  0  0  0
   -1.9052   -0.1352    0.7910 O   0  0  0  0  0  0  0  0  0  0  0  0
  1 12  1  0  0  0  0
  2  3  1  0  0  0  0
  2  1  2  0  0  0  0
  3  4  1  0  0  0  0
  4 11  1  0  0  0  0
  4  5  2  0  0  0  0
  5 10  1  0  0  0  0
  6  1  1  0  0  0  0
  7  2  1  0  0  0  0
  8  9  3  0  0  0  0
 12  5  1  0  0  0  0
 12 13  1  0  0  0  0
M  RAD  2   3   2  13   2
M  END
