Coordinates from ORCA-job N-O-Pyridine-4-N2+-scan-d09-160-n800
 OpenBabel09191814183D

 13 13  0  0  0  0  0  0  0  0999 V2000
   -1.8792    0.0984   -1.0691 C   0  0  0  0  0  0  0  0  0  0  0  0
   -0.5308    0.0235   -0.9610 C   0  0  0  0  0  0  0  0  0  0  0  0
    0.2073    0.8223    0.0214 C   0  0  0  0  0  0  0  0  0  0  0  0
   -0.6280    1.6896    0.8569 C   0  0  0  0  0  0  0  0  0  0  0  0
   -1.9745    1.7320    0.7134 C   0  0  0  0  0  0  0  0  0  0  0  0
   -2.4763   -0.4666   -1.7747 H   0  0  0  0  0  0  0  0  0  0  0  0
    0.0320   -0.6400   -1.6111 H   0  0  0  0  0  0  0  0  0  0  0  0
    1.2221    0.7782    0.1161 N   0  0  0  0  0  0  0  0  0  0  0  0
    2.3637    0.7286    0.2226 N   0  0  0  0  0  0  0  0  0  0  0  0
   -2.6408    2.3521    1.3010 H   0  0  0  0  0  0  0  0  0  0  0  0
   -0.1400    2.3074    1.6050 H   0  0  0  0  0  0  0  0  0  0  0  0
   -2.6246    0.9456   -0.2430 N   0  0  0  0  0  0  0  0  0  0  0  0
   -3.8532    0.9991   -0.3577 O   0  0  0  0  0  0  0  0  0  0  0  0
  1  2  2  0  0  0  0
  1 12  1  0  0  0  0
  2  3  1  0  0  0  0
  3  8  1  0  0  0  0
  3  4  2  0  0  0  0
  4 11  1  0  0  0  0
  5  4  1  0  0  0  0
  5 10  1  0  0  0  0
  6  1  1  0  0  0  0
  7  2  1  0  0  0  0
  8  9  1  0  0  0  0
 12  5  1  0  0  0  0
 13 12  1  0  0  0  0
M  RAD  3   8   2   9   3  13   2
M  END
