Coordinates from ORCA-job N-O-Pyridine-4-N2+-scan-d09-160-n800
 OpenBabel09191814183D

 13 12  0  0  0  0  0  0  0  0999 V2000
   -2.4137    0.0937   -1.1030 C   0  0  0  0  0  0  0  0  0  0  0  0
   -1.0687    0.3673   -1.3213 C   0  0  0  0  0  0  0  0  0  0  0  0
   -0.7385    1.5079   -0.6560 C   0  0  0  0  0  0  0  0  0  0  0  0
   -1.1681    2.0505    0.5160 C   0  0  0  0  0  0  0  0  0  0  0  0
   -2.5107    1.7367    0.6904 C   0  0  0  0  0  0  0  0  0  0  0  0
   -3.0024   -0.6027   -1.6908 H   0  0  0  0  0  0  0  0  0  0  0  0
   -0.4726   -0.1690   -2.0551 H   0  0  0  0  0  0  0  0  0  0  0  0
    4.3408    0.1594    0.8459 N   0  0  0  0  0  0  0  0  0  0  0  0
    5.3921   -0.0608    1.1070 N   0  0  0  0  0  0  0  0  0  0  0  0
   -3.1695    2.2278    1.3988 H   0  0  0  0  0  0  0  0  0  0  0  0
   -0.6458    2.7648    1.1473 H   0  0  0  0  0  0  0  0  0  0  0  0
   -3.1294    0.7794   -0.1180 N   0  0  0  0  0  0  0  0  0  0  0  0
   -4.3357    0.5152    0.0588 O   0  0  0  0  0  0  0  0  0  0  0  0
  1 12  1  0  0  0  0
  2  1  2  0  0  0  0
  2  3  1  0  0  0  0
  3  4  1  0  0  0  0
  4  5  2  0  0  0  0
  4 11  1  0  0  0  0
  5 10  1  0  0  0  0
  6  1  1  0  0  0  0
  7  2  1  0  0  0  0
  8  9  3  0  0  0  0
 12 13  1  0  0  0  0
 12  5  1  0  0  0  0
M  RAD  2   3   2  13   2
M  END
