Coordinates from ORCA-job N-O-Pyridine-4-N2+-scan-d09-160-n800
 OpenBabel09191814183D

 13 12  0  0  0  0  0  0  0  0999 V2000
   -2.5522    0.2728   -1.2727 C   0  0  0  0  0  0  0  0  0  0  0  0
   -2.8288    1.2496   -2.2209 C   0  0  0  0  0  0  0  0  0  0  0  0
   -3.2548    2.3751   -1.5842 C   0  0  0  0  0  0  0  0  0  0  0  0
   -2.9334    2.9303   -0.3832 C   0  0  0  0  0  0  0  0  0  0  0  0
   -2.6543    1.9144    0.5224 C   0  0  0  0  0  0  0  0  0  0  0  0
   -2.4303   -0.7824   -1.4939 H   0  0  0  0  0  0  0  0  0  0  0  0
   -2.8604    1.0389   -3.2869 H   0  0  0  0  0  0  0  0  0  0  0  0
    7.9866   -1.7985    2.8212 N   0  0  0  0  0  0  0  0  0  0  0  0
    8.9644   -2.1473    3.2011 N   0  0  0  0  0  0  0  0  0  0  0  0
   -2.6062    2.0456    1.5983 H   0  0  0  0  0  0  0  0  0  0  0  0
   -3.0427    3.9692   -0.0827 H   0  0  0  0  0  0  0  0  0  0  0  0
   -2.4797    0.5987    0.0845 N   0  0  0  0  0  0  0  0  0  0  0  0
   -2.2304   -0.2960    0.9170 O   0  0  0  0  0  0  0  0  0  0  0  0
  1 12  1  0  0  0  0
  2  3  1  0  0  0  0
  2  1  2  0  0  0  0
  3  4  1  0  0  0  0
  4 11  1  0  0  0  0
  4  5  2  0  0  0  0
  5 10  1  0  0  0  0
  6  1  1  0  0  0  0
  7  2  1  0  0  0  0
  8  9  3  0  0  0  0
 12  5  1  0  0  0  0
 12 13  1  0  0  0  0
M  RAD  2   3   2  13   2
M  END
