Coordinates from ORCA-job N-O-Pyridine-4-N2+-scan-d09-160-n800
 OpenBabel09191814183D

 13 12  0  0  0  0  0  0  0  0999 V2000
   -2.6206    0.4678   -1.4402 C   0  0  0  0  0  0  0  0  0  0  0  0
   -3.4314    1.2450   -2.2580 C   0  0  0  0  0  0  0  0  0  0  0  0
   -4.0133    2.2189   -1.5053 C   0  0  0  0  0  0  0  0  0  0  0  0
   -3.5862    2.9233   -0.4214 C   0  0  0  0  0  0  0  0  0  0  0  0
   -2.7718    2.1069    0.3536 C   0  0  0  0  0  0  0  0  0  0  0  0
   -2.2302   -0.5079   -1.7099 H   0  0  0  0  0  0  0  0  0  0  0  0
   -3.6701    0.9663   -3.2812 H   0  0  0  0  0  0  0  0  0  0  0  0
    9.3806   -2.4667    3.4725 N   0  0  0  0  0  0  0  0  0  0  0  0
   10.3324   -2.8510    3.8830 N   0  0  0  0  0  0  0  0  0  0  0  0
   -2.4908    2.3157    1.3805 H   0  0  0  0  0  0  0  0  0  0  0  0
   -3.9400    3.8923   -0.0787 H   0  0  0  0  0  0  0  0  0  0  0  0
   -2.3054    0.8875   -0.1450 N   0  0  0  0  0  0  0  0  0  0  0  0
   -1.5752    0.1725    0.5699 O   0  0  0  0  0  0  0  0  0  0  0  0
  1 12  1  0  0  0  0
  2  3  1  0  0  0  0
  2  1  2  0  0  0  0
  3  4  1  0  0  0  0
  4 11  1  0  0  0  0
  4  5  2  0  0  0  0
  5 10  1  0  0  0  0
  6  1  1  0  0  0  0
  7  2  1  0  0  0  0
  8  9  3  0  0  0  0
 12  5  1  0  0  0  0
 12 13  1  0  0  0  0
M  RAD  2   3   2  13   2
M  END
