Coordinates from ORCA-job N-O-Pyridine-4-N2+-scan-d09-160-n800
 OpenBabel09191814183D

 13 12  0  0  0  0  0  0  0  0999 V2000
   -2.6733    0.6333   -1.6047 C   0  0  0  0  0  0  0  0  0  0  0  0
   -3.8266    1.1488   -2.1834 C   0  0  0  0  0  0  0  0  0  0  0  0
   -4.4334    1.9802   -1.2923 C   0  0  0  0  0  0  0  0  0  0  0  0
   -3.9472    2.8149   -0.3329 C   0  0  0  0  0  0  0  0  0  0  0  0
   -2.7912    2.2603    0.2024 C   0  0  0  0  0  0  0  0  0  0  0  0
   -2.1284   -0.2263   -1.9805 H   0  0  0  0  0  0  0  0  0  0  0  0
   -4.2285    0.7750   -3.1216 H   0  0  0  0  0  0  0  0  0  0  0  0
   10.1324   -2.8598    3.8868 N   0  0  0  0  0  0  0  0  0  0  0  0
   11.0457   -3.2805    4.3461 N   0  0  0  0  0  0  0  0  0  0  0  0
   -2.3315    2.5767    1.1328 H   0  0  0  0  0  0  0  0  0  0  0  0
   -4.4389    3.6798    0.1049 H   0  0  0  0  0  0  0  0  0  0  0  0
   -2.1691    1.1740   -0.4188 N   0  0  0  0  0  0  0  0  0  0  0  0
   -1.1321    0.6939    0.0810 O   0  0  0  0  0  0  0  0  0  0  0  0
  1 12  1  0  0  0  0
  2  1  2  0  0  0  0
  2  3  1  0  0  0  0
  3  4  1  0  0  0  0
  4 11  1  0  0  0  0
  4  5  2  0  0  0  0
  5 10  1  0  0  0  0
  6  1  1  0  0  0  0
  7  2  1  0  0  0  0
  8  9  3  0  0  0  0
 12 13  1  0  0  0  0
 12  5  1  0  0  0  0
M  RAD  2   3   2  13   2
M  END
