Coordinates from ORCA-job N-O-Pyridine-4-N2+-scan-d09-160-n800
 OpenBabel09191814183D

 13 12  0  0  0  0  0  0  0  0999 V2000
   -2.6530    0.6068   -1.5777 C   0  0  0  0  0  0  0  0  0  0  0  0
   -3.7689    1.1609   -2.1929 C   0  0  0  0  0  0  0  0  0  0  0  0
   -4.3764    2.0115   -1.3205 C   0  0  0  0  0  0  0  0  0  0  0  0
   -3.8944    2.8287   -0.3442 C   0  0  0  0  0  0  0  0  0  0  0  0
   -2.7756    2.2354    0.2276 C   0  0  0  0  0  0  0  0  0  0  0  0
   -2.1250   -0.2703   -1.9372 H   0  0  0  0  0  0  0  0  0  0  0  0
   -4.1522    0.8015   -3.1444 H   0  0  0  0  0  0  0  0  0  0  0  0
    9.9753   -2.7874    3.8100 N   0  0  0  0  0  0  0  0  0  0  0  0
   10.8923   -3.2051    4.2646 N   0  0  0  0  0  0  0  0  0  0  0  0
   -2.3363    2.5354    1.1731 H   0  0  0  0  0  0  0  0  0  0  0  0
   -4.3711    3.7092    0.0790 H   0  0  0  0  0  0  0  0  0  0  0  0
   -2.1701    1.1294   -0.3750 N   0  0  0  0  0  0  0  0  0  0  0  0
   -1.1666    0.6146    0.1576 O   0  0  0  0  0  0  0  0  0  0  0  0
  1 12  1  0  0  0  0
  2  1  2  0  0  0  0
  2  3  1  0  0  0  0
  3  4  1  0  0  0  0
  4 11  1  0  0  0  0
  4  5  2  0  0  0  0
  5 10  1  0  0  0  0
  6  1  1  0  0  0  0
  7  2  1  0  0  0  0
  8  9  3  0  0  0  0
 12 13  1  0  0  0  0
 12  5  1  0  0  0  0
M  RAD  2   3   2  13   2
M  END
