Coordinates from ORCA-job N-O-Pyridine-4-N2+-scan-d09-160-n800
 OpenBabel09191814183D

 13 12  0  0  0  0  0  0  0  0999 V2000
   -2.4908    0.0793   -1.0937 C   0  0  0  0  0  0  0  0  0  0  0  0
   -1.3777    0.7034   -1.6436 C   0  0  0  0  0  0  0  0  0  0  0  0
   -1.2255    1.9249   -1.0625 C   0  0  0  0  0  0  0  0  0  0  0  0
   -1.4797    2.3865    0.1926 C   0  0  0  0  0  0  0  0  0  0  0  0
   -2.5904    1.7229    0.6995 C   0  0  0  0  0  0  0  0  0  0  0  0
   -2.9878   -0.7834   -1.5248 H   0  0  0  0  0  0  0  0  0  0  0  0
   -0.8600    0.3154   -2.5171 H   0  0  0  0  0  0  0  0  0  0  0  0
    5.2307   -0.2981    1.3079 N   0  0  0  0  0  0  0  0  0  0  0  0
    6.2508   -0.5811    1.6261 N   0  0  0  0  0  0  0  0  0  0  0  0
   -3.1595    2.0479    1.5641 H   0  0  0  0  0  0  0  0  0  0  0  0
   -1.0379    3.2496    0.6840 H   0  0  0  0  0  0  0  0  0  0  0  0
   -3.0980    0.5907    0.0565 N   0  0  0  0  0  0  0  0  0  0  0  0
   -4.0962    0.0124    0.5310 O   0  0  0  0  0  0  0  0  0  0  0  0
  1 12  1  0  0  0  0
  2  1  2  0  0  0  0
  2  3  1  0  0  0  0
  3  4  1  0  0  0  0
  4 11  1  0  0  0  0
  4  5  2  0  0  0  0
  5 10  1  0  0  0  0
  6  1  1  0  0  0  0
  7  2  1  0  0  0  0
  8  9  3  0  0  0  0
 12 13  1  0  0  0  0
 12  5  1  0  0  0  0
M  RAD  2   3   2  13   2
M  END
