Coordinates from ORCA-job N-O-Pyridine-4-N2+-scan-d09-160-n800
 OpenBabel09191814183D

 13 12  0  0  0  0  0  0  0  0999 V2000
   -2.4875    0.0822   -1.0963 C   0  0  0  0  0  0  0  0  0  0  0  0
   -1.2998    0.6265   -1.5697 C   0  0  0  0  0  0  0  0  0  0  0  0
   -1.0993    1.8330   -0.9719 C   0  0  0  0  0  0  0  0  0  0  0  0
   -1.4009    2.3097    0.2670 C   0  0  0  0  0  0  0  0  0  0  0  0
   -2.5862    1.7256    0.6970 C   0  0  0  0  0  0  0  0  0  0  0  0
   -3.0157   -0.7420   -1.5642 H   0  0  0  0  0  0  0  0  0  0  0  0
   -0.7553    0.2044   -2.4105 H   0  0  0  0  0  0  0  0  0  0  0  0
    5.0697   -0.1919    1.2030 N   0  0  0  0  0  0  0  0  0  0  0  0
    6.0953   -0.4646    1.5124 N   0  0  0  0  0  0  0  0  0  0  0  0
   -3.1857    2.0890    1.5250 H   0  0  0  0  0  0  0  0  0  0  0  0
   -0.9316    3.1383    0.7911 H   0  0  0  0  0  0  0  0  0  0  0  0
   -3.1300    0.6333    0.0157 N   0  0  0  0  0  0  0  0  0  0  0  0
   -4.1953    0.1268    0.4212 O   0  0  0  0  0  0  0  0  0  0  0  0
  1 12  1  0  0  0  0
  2  1  2  0  0  0  0
  2  3  1  0  0  0  0
  3  4  1  0  0  0  0
  4  5  2  0  0  0  0
  4 11  1  0  0  0  0
  5 10  1  0  0  0  0
  6  1  1  0  0  0  0
  7  2  1  0  0  0  0
  8  9  3  0  0  0  0
 12 13  1  0  0  0  0
 12  5  1  0  0  0  0
M  RAD  2   3   2  13   2
M  END
