Coordinates from ORCA-job N-O-Pyridine-4-N2+-scan-d09-160-n800
 OpenBabel09191814183D

 13 12  0  0  0  0  0  0  0  0999 V2000
   -1.9987    0.0925   -1.0685 C   0  0  0  0  0  0  0  0  0  0  0  0
   -0.6137    0.0482   -1.0063 C   0  0  0  0  0  0  0  0  0  0  0  0
   -0.1300    1.0238   -0.1813 C   0  0  0  0  0  0  0  0  0  0  0  0
   -0.7120    1.7318    0.8319 C   0  0  0  0  0  0  0  0  0  0  0  0
   -2.0940    1.7239    0.7127 C   0  0  0  0  0  0  0  0  0  0  0  0
   -2.5917   -0.4774   -1.7740 H   0  0  0  0  0  0  0  0  0  0  0  0
   -0.0332   -0.6132   -1.6394 H   0  0  0  0  0  0  0  0  0  0  0  0
    1.9161    0.6692    0.2530 N   0  0  0  0  0  0  0  0  0  0  0  0
    3.0158    0.6275    0.3506 N   0  0  0  0  0  0  0  0  0  0  0  0
   -2.7564    2.3434    1.3058 H   0  0  0  0  0  0  0  0  0  0  0  0
   -0.2052    2.3335    1.5779 H   0  0  0  0  0  0  0  0  0  0  0  0
   -2.7368    0.9241   -0.2293 N   0  0  0  0  0  0  0  0  0  0  0  0
   -3.9825    0.9429   -0.3132 O   0  0  0  0  0  0  0  0  0  0  0  0
  1  2  2  0  0  0  0
  1 12  1  0  0  0  0
  2  3  1  0  0  0  0
  3  4  1  0  0  0  0
  4 11  1  0  0  0  0
  5  4  2  0  0  0  0
  5 10  1  0  0  0  0
  6  1  1  0  0  0  0
  7  2  1  0  0  0  0
  8  9  3  0  0  0  0
 12  5  1  0  0  0  0
 13 12  1  0  0  0  0
M  RAD  2   3   2  13   2
M  END
