Coordinates from ORCA-job N-O-Pyridine-4-N2+-scan-d09-160-n800
 OpenBabel09191814183D

 13 12  0  0  0  0  0  0  0  0999 V2000
   -2.4153    0.0936   -1.1030 C   0  0  0  0  0  0  0  0  0  0  0  0
   -1.0716    0.3707   -1.3246 C   0  0  0  0  0  0  0  0  0  0  0  0
   -0.7429    1.5123   -0.6602 C   0  0  0  0  0  0  0  0  0  0  0  0
   -1.1711    2.0540    0.5127 C   0  0  0  0  0  0  0  0  0  0  0  0
   -2.5124    1.7366    0.6905 C   0  0  0  0  0  0  0  0  0  0  0  0
   -3.0036   -0.6044   -1.6893 H   0  0  0  0  0  0  0  0  0  0  0  0
   -0.4758   -0.1641   -2.0598 H   0  0  0  0  0  0  0  0  0  0  0  0
    4.3529    0.1547    0.8508 N   0  0  0  0  0  0  0  0  0  0  0  0
    5.4038   -0.0663    1.1127 N   0  0  0  0  0  0  0  0  0  0  0  0
   -3.1708    2.2261    1.4004 H   0  0  0  0  0  0  0  0  0  0  0  0
   -0.6491    2.7697    1.1426 H   0  0  0  0  0  0  0  0  0  0  0  0
   -3.1305    0.7775   -0.1163 N   0  0  0  0  0  0  0  0  0  0  0  0
   -4.3356    0.5102    0.0634 O   0  0  0  0  0  0  0  0  0  0  0  0
  1 12  1  0  0  0  0
  2  1  2  0  0  0  0
  2  3  1  0  0  0  0
  3  4  1  0  0  0  0
  4  5  2  0  0  0  0
  4 11  1  0  0  0  0
  5 10  1  0  0  0  0
  6  1  1  0  0  0  0
  7  2  1  0  0  0  0
  8  9  3  0  0  0  0
 12 13  1  0  0  0  0
 12  5  1  0  0  0  0
M  RAD  2   3   2  13   2
M  END
