Coordinates from ORCA-job N-O-Pyridine-4-N2+-scan-d09-160-n800
 OpenBabel09191814183D

 13 12  0  0  0  0  0  0  0  0999 V2000
   -2.7518    0.6824   -1.6556 C   0  0  0  0  0  0  0  0  0  0  0  0
   -3.9444    1.1527   -2.1914 C   0  0  0  0  0  0  0  0  0  0  0  0
   -4.5489    1.9624   -1.2789 C   0  0  0  0  0  0  0  0  0  0  0  0
   -4.0595    2.8168   -0.3388 C   0  0  0  0  0  0  0  0  0  0  0  0
   -2.8641    2.3075    0.1536 C   0  0  0  0  0  0  0  0  0  0  0  0
   -2.1890   -0.1567   -2.0508 H   0  0  0  0  0  0  0  0  0  0  0  0
   -4.3664    0.7619   -3.1138 H   0  0  0  0  0  0  0  0  0  0  0  0
   10.6070   -3.0477    4.0857 N   0  0  0  0  0  0  0  0  0  0  0  0
   11.5219   -3.4647    4.5453 N   0  0  0  0  0  0  0  0  0  0  0  0
   -2.3826    2.6431    1.0661 H   0  0  0  0  0  0  0  0  0  0  0  0
   -4.5670    3.6634    0.1164 H   0  0  0  0  0  0  0  0  0  0  0  0
   -2.2248    1.2443   -0.4896 N   0  0  0  0  0  0  0  0  0  0  0  0
   -1.1525    0.8049   -0.0283 O   0  0  0  0  0  0  0  0  0  0  0  0
  1 12  1  0  0  0  0
  2  1  2  0  0  0  0
  2  3  1  0  0  0  0
  3  4  1  0  0  0  0
  4 11  1  0  0  0  0
  4  5  2  0  0  0  0
  5 10  1  0  0  0  0
  6  1  1  0  0  0  0
  7  2  1  0  0  0  0
  8  9  3  0  0  0  0
 12 13  1  0  0  0  0
 12  5  1  0  0  0  0
M  RAD  2   3   2  13   2
M  END
