Coordinates from ORCA-job N-O-Pyridine-4-N2+-scan-d09-160-n800
 OpenBabel09191814183D

 13 12  0  0  0  0  0  0  0  0999 V2000
   -2.3406    0.0964   -1.1015 C   0  0  0  0  0  0  0  0  0  0  0  0
   -0.9643    0.2547   -1.2132 C   0  0  0  0  0  0  0  0  0  0  0  0
   -0.5915    1.3616   -0.5146 C   0  0  0  0  0  0  0  0  0  0  0  0
   -1.0632    1.9380    0.6244 C   0  0  0  0  0  0  0  0  0  0  0  0
   -2.4371    1.7392    0.6919 C   0  0  0  0  0  0  0  0  0  0  0  0
   -2.9386   -0.5465   -1.7387 H   0  0  0  0  0  0  0  0  0  0  0  0
   -0.3604   -0.3293   -1.9028 H   0  0  0  0  0  0  0  0  0  0  0  0
    3.8609    0.3200    0.6747 N   0  0  0  0  0  0  0  0  0  0  0  0
    4.9249    0.1308    0.9070 N   0  0  0  0  0  0  0  0  0  0  0  0
   -3.1049    2.2838    1.3510 H   0  0  0  0  0  0  0  0  0  0  0  0
   -0.5328    2.6043    1.2997 H   0  0  0  0  0  0  0  0  0  0  0  0
   -3.0700    0.8391   -0.1694 N   0  0  0  0  0  0  0  0  0  0  0  0
   -4.3045    0.6783   -0.0886 O   0  0  0  0  0  0  0  0  0  0  0  0
  1 12  1  0  0  0  0
  2  1  2  0  0  0  0
  2  3  1  0  0  0  0
  3  4  1  0  0  0  0
  4  5  2  0  0  0  0
  4 11  1  0  0  0  0
  5 10  1  0  0  0  0
  6  1  1  0  0  0  0
  7  2  1  0  0  0  0
  8  9  3  0  0  0  0
 12 13  1  0  0  0  0
 12  5  1  0  0  0  0
M  RAD  2   3   2  13   2
M  END
