Coordinates from ORCA-job N-O-Pyridine-4-N2+-scan-d09-160-n800
 OpenBabel09191814183D

 13 13  0  0  1  0  0  0  0  0999 V2000
   -1.9287    0.1024   -1.0717 C   0  0  0  0  0  0  0  0  0  0  0  0
   -0.5643    0.0232   -0.9661 C   0  0  0  0  0  0  0  0  0  0  0  0
    0.0449    0.8294    0.0062 C   0  0  2  0  0  0  0  0  0  0  0  0
   -0.6618    1.6929    0.8557 C   0  0  0  0  0  0  0  0  0  0  0  0
   -2.0239    1.7323    0.7068 C   0  0  0  0  0  0  0  0  0  0  0  0
   -2.5266   -0.4614   -1.7761 H   0  0  0  0  0  0  0  0  0  0  0  0
   -0.0036   -0.6395   -1.6157 H   0  0  0  0  0  0  0  0  0  0  0  0
    1.5378    0.7645    0.1456 N   0  0  0  0  0  0  0  0  0  0  0  0
    2.6468    0.7163    0.2490 N   0  0  0  0  0  0  0  0  0  0  0  0
   -2.6908    2.3512    1.2930 H   0  0  0  0  0  0  0  0  0  0  0  0
   -0.1758    2.3102    1.6029 H   0  0  0  0  0  0  0  0  0  0  0  0
   -2.6694    0.9473   -0.2470 N   0  0  0  0  0  0  0  0  0  0  0  0
   -3.9067    1.0015   -0.3628 O   0  0  0  0  0  0  0  0  0  0  0  0
  1  2  2  0  0  0  0
  1 12  1  0  0  0  0
  2  3  1  0  0  0  0
  3  8  1  6  0  0  0
  3  4  1  0  0  0  0
  4 11  1  0  0  0  0
  5  4  2  0  0  0  0
  5 10  1  0  0  0  0
  6  1  1  0  0  0  0
  7  2  1  0  0  0  0
  8  9  1  0  0  0  0
 12  5  1  0  0  0  0
 13 12  1  0  0  0  0
M  RAD  3   8   2   9   3  13   2
M  END
