Coordinates from ORCA-job N-O-Pyridine-4-N2+-scan-d09-160-n800
 OpenBabel09191814183D

 13 12  0  0  0  0  0  0  0  0999 V2000
   -2.4741    0.1073   -1.1177 C   0  0  0  0  0  0  0  0  0  0  0  0
   -1.9405    1.0487   -1.9896 C   0  0  0  0  0  0  0  0  0  0  0  0
   -2.0769    2.2860   -1.4387 C   0  0  0  0  0  0  0  0  0  0  0  0
   -2.0452    2.7315   -0.1528 C   0  0  0  0  0  0  0  0  0  0  0  0
   -2.5764    1.7505    0.6758 C   0  0  0  0  0  0  0  0  0  0  0  0
   -2.7197   -0.9138   -1.3900 H   0  0  0  0  0  0  0  0  0  0  0  0
   -1.6442    0.8043   -3.0064 H   0  0  0  0  0  0  0  0  0  0  0  0
    6.1809   -0.9137    1.9176 N   0  0  0  0  0  0  0  0  0  0  0  0
    7.1766   -1.2366    2.2732 N   0  0  0  0  0  0  0  0  0  0  0  0
   -2.8958    1.9165    1.6993 H   0  0  0  0  0  0  0  0  0  0  0  0
   -1.8267    3.7377    0.1954 H   0  0  0  0  0  0  0  0  0  0  0  0
   -2.8010    0.4575    0.1952 N   0  0  0  0  0  0  0  0  0  0  0  0
   -3.2792   -0.4054    0.9585 O   0  0  0  0  0  0  0  0  0  0  0  0
  1 12  1  0  0  0  0
  2  3  1  0  0  0  0
  2  1  2  0  0  0  0
  3  4  1  0  0  0  0
  4 11  1  0  0  0  0
  4  5  2  0  0  0  0
  5 10  1  0  0  0  0
  6  1  1  0  0  0  0
  7  2  1  0  0  0  0
  8  9  3  0  0  0  0
 12  5  1  0  0  0  0
 12 13  1  0  0  0  0
M  RAD  2   3   2  13   2
M  END
