Coordinates from ORCA-job N-O-Pyridine-4-N2+-scan-d09-160-n800
 OpenBabel09191814183D

 13 12  0  0  0  0  0  0  0  0999 V2000
   -2.1748    0.0903   -1.0863 C   0  0  0  0  0  0  0  0  0  0  0  0
   -0.7857    0.1370   -1.0964 C   0  0  0  0  0  0  0  0  0  0  0  0
   -0.3771    1.2064   -0.3616 C   0  0  0  0  0  0  0  0  0  0  0  0
   -0.8841    1.8204    0.7415 C   0  0  0  0  0  0  0  0  0  0  0  0
   -2.2708    1.7321    0.7063 C   0  0  0  0  0  0  0  0  0  0  0  0
   -2.7739   -0.5028   -1.7690 H   0  0  0  0  0  0  0  0  0  0  0  0
   -0.1812   -0.4925   -1.7437 H   0  0  0  0  0  0  0  0  0  0  0  0
    2.9038    0.5291    0.4339 N   0  0  0  0  0  0  0  0  0  0  0  0
    3.9784    0.3705    0.6372 N   0  0  0  0  0  0  0  0  0  0  0  0
   -2.9393    2.3265    1.3200 H   0  0  0  0  0  0  0  0  0  0  0  0
   -0.3526    2.4403    1.4583 H   0  0  0  0  0  0  0  0  0  0  0  0
   -2.9092    0.8871   -0.2047 N   0  0  0  0  0  0  0  0  0  0  0  0
   -4.1555    0.8262   -0.2156 O   0  0  0  0  0  0  0  0  0  0  0  0
  1 12  1  0  0  0  0
  2  1  2  0  0  0  0
  2  3  1  0  0  0  0
  3  4  1  0  0  0  0
  4 11  1  0  0  0  0
  5  4  2  0  0  0  0
  5 10  1  0  0  0  0
  6  1  1  0  0  0  0
  7  2  1  0  0  0  0
  8  9  3  0  0  0  0
 12  5  1  0  0  0  0
 13 12  1  0  0  0  0
M  RAD  2   3   2  13   2
M  END
