Coordinates from ORCA-job N-O-Pyridine-4-N2+-scan-d09-160-n800
 OpenBabel09191814183D

 13 12  0  0  0  0  0  0  0  0999 V2000
   -2.3582    0.0963   -1.1023 C   0  0  0  0  0  0  0  0  0  0  0  0
   -0.9864    0.2764   -1.2342 C   0  0  0  0  0  0  0  0  0  0  0  0
   -0.6212    1.3900   -0.5421 C   0  0  0  0  0  0  0  0  0  0  0  0
   -1.0854    1.9597    0.6034 C   0  0  0  0  0  0  0  0  0  0  0  0
   -2.4548    1.7391    0.6911 C   0  0  0  0  0  0  0  0  0  0  0  0
   -2.9552   -0.5568   -1.7302 H   0  0  0  0  0  0  0  0  0  0  0  0
   -0.3834   -0.2986   -1.9321 H   0  0  0  0  0  0  0  0  0  0  0  0
    3.9701    0.2875    0.7099 N   0  0  0  0  0  0  0  0  0  0  0  0
    5.0317    0.0923    0.9480 N   0  0  0  0  0  0  0  0  0  0  0  0
   -3.1216    2.2735    1.3595 H   0  0  0  0  0  0  0  0  0  0  0  0
   -0.5559    2.6351    1.2704 H   0  0  0  0  0  0  0  0  0  0  0  0
   -3.0857    0.8281   -0.1602 N   0  0  0  0  0  0  0  0  0  0  0  0
   -4.3162    0.6477   -0.0612 O   0  0  0  0  0  0  0  0  0  0  0  0
  1 12  1  0  0  0  0
  2  1  2  0  0  0  0
  2  3  1  0  0  0  0
  3  4  1  0  0  0  0
  4  5  2  0  0  0  0
  4 11  1  0  0  0  0
  5 10  1  0  0  0  0
  6  1  1  0  0  0  0
  7  2  1  0  0  0  0
  8  9  3  0  0  0  0
 12 13  1  0  0  0  0
 12  5  1  0  0  0  0
M  RAD  2   3   2  13   2
M  END
