Coordinates from ORCA-job N-O-Pyridine-4-N2+-scan-d09-160-n800
 OpenBabel09191814183D

 13 12  0  0  0  0  0  0  0  0999 V2000
   -2.5507    0.2701   -1.2701 C   0  0  0  0  0  0  0  0  0  0  0  0
   -2.8180    1.2485   -2.2194 C   0  0  0  0  0  0  0  0  0  0  0  0
   -3.2412    2.3760   -1.5843 C   0  0  0  0  0  0  0  0  0  0  0  0
   -2.9226    2.9292   -0.3817 C   0  0  0  0  0  0  0  0  0  0  0  0
   -2.6528    1.9118    0.5249 C   0  0  0  0  0  0  0  0  0  0  0  0
   -2.4331   -0.7856   -1.4911 H   0  0  0  0  0  0  0  0  0  0  0  0
   -2.8456    1.0383   -3.2855 H   0  0  0  0  0  0  0  0  0  0  0  0
    7.9629   -1.7874    2.8098 N   0  0  0  0  0  0  0  0  0  0  0  0
    8.9409   -2.1360    3.1894 N   0  0  0  0  0  0  0  0  0  0  0  0
   -2.6092    2.0424    1.6011 H   0  0  0  0  0  0  0  0  0  0  0  0
   -3.0280    3.9686   -0.0814 H   0  0  0  0  0  0  0  0  0  0  0  0
   -2.4829    0.5953    0.0875 N   0  0  0  0  0  0  0  0  0  0  0  0
   -2.2419   -0.3009    0.9208 O   0  0  0  0  0  0  0  0  0  0  0  0
  1 12  1  0  0  0  0
  2  3  1  0  0  0  0
  2  1  2  0  0  0  0
  3  4  1  0  0  0  0
  4 11  1  0  0  0  0
  4  5  2  0  0  0  0
  5 10  1  0  0  0  0
  6  1  1  0  0  0  0
  7  2  1  0  0  0  0
  8  9  3  0  0  0  0
 12  5  1  0  0  0  0
 12 13  1  0  0  0  0
M  RAD  2   3   2  13   2
M  END
