Coordinates from ORCA-job N-O-Pyridine-4-N2+-scan-d09-160-n800
 OpenBabel09191814183D

 13 12  0  0  0  0  0  0  0  0999 V2000
   -2.3003    0.0960   -1.0989 C   0  0  0  0  0  0  0  0  0  0  0  0
   -0.9175    0.2142   -1.1738 C   0  0  0  0  0  0  0  0  0  0  0  0
   -0.5314    1.3085   -0.4630 C   0  0  0  0  0  0  0  0  0  0  0  0
   -1.0162    1.8975    0.6639 C   0  0  0  0  0  0  0  0  0  0  0  0
   -2.3966    1.7386    0.6944 C   0  0  0  0  0  0  0  0  0  0  0  0
   -2.8996   -0.5286   -1.7529 H   0  0  0  0  0  0  0  0  0  0  0  0
   -0.3125   -0.3863   -1.8481 H   0  0  0  0  0  0  0  0  0  0  0  0
    3.6196    0.3842    0.6037 N   0  0  0  0  0  0  0  0  0  0  0  0
    4.6876    0.2060    0.8255 N   0  0  0  0  0  0  0  0  0  0  0  0
   -3.0656    2.3015    1.3368 H   0  0  0  0  0  0  0  0  0  0  0  0
   -0.4845    2.5471    1.3544 H   0  0  0  0  0  0  0  0  0  0  0  0
   -3.0323    0.8584   -0.1850 N   0  0  0  0  0  0  0  0  0  0  0  0
   -4.2728    0.7334   -0.1372 O   0  0  0  0  0  0  0  0  0  0  0  0
  1 12  1  0  0  0  0
  2  1  2  0  0  0  0
  2  3  1  0  0  0  0
  3  4  1  0  0  0  0
  4  5  2  0  0  0  0
  4 11  1  0  0  0  0
  5 10  1  0  0  0  0
  6  1  1  0  0  0  0
  7  2  1  0  0  0  0
  8  9  3  0  0  0  0
 12 13  1  0  0  0  0
 12  5  1  0  0  0  0
M  RAD  2   3   2  13   2
M  END
