Coordinates from ORCA-job N-O-Pyridine-4-N2+-scan-d09-160-n800
 OpenBabel09191814183D

 13 12  0  0  0  0  0  0  0  0999 V2000
   -2.3428    0.0964   -1.1016 C   0  0  0  0  0  0  0  0  0  0  0  0
   -0.9671    0.2573   -1.2157 C   0  0  0  0  0  0  0  0  0  0  0  0
   -0.5951    1.3651   -0.5180 C   0  0  0  0  0  0  0  0  0  0  0  0
   -1.0660    1.9406    0.6219 C   0  0  0  0  0  0  0  0  0  0  0  0
   -2.4394    1.7392    0.6917 C   0  0  0  0  0  0  0  0  0  0  0  0
   -2.9408   -0.5477   -1.7377 H   0  0  0  0  0  0  0  0  0  0  0  0
   -0.3632   -0.3256   -1.9063 H   0  0  0  0  0  0  0  0  0  0  0  0
    3.8748    0.3160    0.6790 N   0  0  0  0  0  0  0  0  0  0  0  0
    4.9384    0.1261    0.9120 N   0  0  0  0  0  0  0  0  0  0  0  0
   -3.1071    2.2825    1.3520 H   0  0  0  0  0  0  0  0  0  0  0  0
   -0.5356    2.6080    1.2962 H   0  0  0  0  0  0  0  0  0  0  0  0
   -3.0720    0.8378   -0.1683 N   0  0  0  0  0  0  0  0  0  0  0  0
   -4.3061    0.6747   -0.0853 O   0  0  0  0  0  0  0  0  0  0  0  0
  1 12  1  0  0  0  0
  2  1  2  0  0  0  0
  2  3  1  0  0  0  0
  3  4  1  0  0  0  0
  4  5  2  0  0  0  0
  4 11  1  0  0  0  0
  5 10  1  0  0  0  0
  6  1  1  0  0  0  0
  7  2  1  0  0  0  0
  8  9  3  0  0  0  0
 12 13  1  0  0  0  0
 12  5  1  0  0  0  0
M  RAD  2   3   2  13   2
M  END
