Coordinates from ORCA-job N-O-Pyridine-4-N2+-scan-d09-160-n800
 OpenBabel09191814183D

 13 12  0  0  0  0  0  0  0  0999 V2000
   -2.4866    0.0782   -1.0923 C   0  0  0  0  0  0  0  0  0  0  0  0
   -1.5150    0.8178   -1.7554 C   0  0  0  0  0  0  0  0  0  0  0  0
   -1.4439    2.0557   -1.1937 C   0  0  0  0  0  0  0  0  0  0  0  0
   -1.6182    2.5010    0.0808 C   0  0  0  0  0  0  0  0  0  0  0  0
   -2.5874    1.7219    0.7008 C   0  0  0  0  0  0  0  0  0  0  0  0
   -2.9238   -0.8407   -1.4687 H   0  0  0  0  0  0  0  0  0  0  0  0
   -1.0496    0.4804   -2.6780 H   0  0  0  0  0  0  0  0  0  0  0  0
    5.4707   -0.4667    1.4734 N   0  0  0  0  0  0  0  0  0  0  0  0
    6.4825   -0.7640    1.8048 N   0  0  0  0  0  0  0  0  0  0  0  0
   -3.0973    1.9907    1.6200 H   0  0  0  0  0  0  0  0  0  0  0  0
   -1.2296    3.4148    0.5231 H   0  0  0  0  0  0  0  0  0  0  0  0
   -3.0263    0.5315    0.1146 N   0  0  0  0  0  0  0  0  0  0  0  0
   -3.8976   -0.1502    0.6906 O   0  0  0  0  0  0  0  0  0  0  0  0
  1 12  1  0  0  0  0
  2  3  1  0  0  0  0
  2  1  2  0  0  0  0
  3  4  1  0  0  0  0
  4 11  1  0  0  0  0
  4  5  2  0  0  0  0
  5 10  1  0  0  0  0
  6  1  1  0  0  0  0
  7  2  1  0  0  0  0
  8  9  3  0  0  0  0
 12 13  1  0  0  0  0
 12  5  1  0  0  0  0
M  RAD  2   3   2  13   2
M  END
