Coordinates from ORCA-job N-O-Pyridine-4-N2+-scan-d09-160-n800
 OpenBabel09191814183D

 13 12  0  0  0  0  0  0  0  0999 V2000
   -2.4740    0.1042   -1.1149 C   0  0  0  0  0  0  0  0  0  0  0  0
   -1.9137    1.0380   -1.9783 C   0  0  0  0  0  0  0  0  0  0  0  0
   -2.0387    2.2768   -1.4282 C   0  0  0  0  0  0  0  0  0  0  0  0
   -2.0183    2.7207   -0.1416 C   0  0  0  0  0  0  0  0  0  0  0  0
   -2.5762    1.7475    0.6786 C   0  0  0  0  0  0  0  0  0  0  0  0
   -2.7314   -0.9128   -1.3917 H   0  0  0  0  0  0  0  0  0  0  0  0
   -1.6068    0.7898   -2.9911 H   0  0  0  0  0  0  0  0  0  0  0  0
    6.1335   -0.8869    1.8907 N   0  0  0  0  0  0  0  0  0  0  0  0
    7.1299   -1.2087    2.2452 N   0  0  0  0  0  0  0  0  0  0  0  0
   -2.9074    1.9177    1.6976 H   0  0  0  0  0  0  0  0  0  0  0  0
   -1.7892    3.7232    0.2106 H   0  0  0  0  0  0  0  0  0  0  0  0
   -2.8139    0.4585    0.1936 N   0  0  0  0  0  0  0  0  0  0  0  0
   -3.3160   -0.3975    0.9492 O   0  0  0  0  0  0  0  0  0  0  0  0
  1 12  1  0  0  0  0
  2  3  1  0  0  0  0
  2  1  2  0  0  0  0
  3  4  1  0  0  0  0
  4 11  1  0  0  0  0
  4  5  2  0  0  0  0
  5 10  1  0  0  0  0
  6  1  1  0  0  0  0
  7  2  1  0  0  0  0
  8  9  3  0  0  0  0
 12  5  1  0  0  0  0
 12 13  1  0  0  0  0
M  RAD  2   3   2  13   2
M  END
