Coordinates from ORCA-job N-O-Pyridine-4-N2+-scan-d09-160-n800
 OpenBabel09191814183D

 13 12  0  0  0  0  0  0  0  0999 V2000
   -2.0817    0.0875   -1.0760 C   0  0  0  0  0  0  0  0  0  0  0  0
   -0.6925    0.0895   -1.0476 C   0  0  0  0  0  0  0  0  0  0  0  0
   -0.2617    1.1338   -0.2889 C   0  0  0  0  0  0  0  0  0  0  0  0
   -0.7908    1.7725    0.7899 C   0  0  0  0  0  0  0  0  0  0  0  0
   -2.1774    1.7266    0.7136 C   0  0  0  0  0  0  0  0  0  0  0  0
   -2.6784   -0.4888   -1.7746 H   0  0  0  0  0  0  0  0  0  0  0  0
   -0.0939   -0.5572   -1.6821 H   0  0  0  0  0  0  0  0  0  0  0  0
    2.3797    0.6131    0.3293 N   0  0  0  0  0  0  0  0  0  0  0  0
    3.4646    0.4911    0.4993 N   0  0  0  0  0  0  0  0  0  0  0  0
   -2.8436    2.3384    1.3122 H   0  0  0  0  0  0  0  0  0  0  0  0
   -0.2653    2.3778    1.5223 H   0  0  0  0  0  0  0  0  0  0  0  0
   -2.8169    0.9037   -0.2149 N   0  0  0  0  0  0  0  0  0  0  0  0
   -4.0642    0.8826   -0.2624 O   0  0  0  0  0  0  0  0  0  0  0  0
  1  2  2  0  0  0  0
  1 12  1  0  0  0  0
  2  3  1  0  0  0  0
  3  4  1  0  0  0  0
  4 11  1  0  0  0  0
  5  4  2  0  0  0  0
  5 10  1  0  0  0  0
  6  1  1  0  0  0  0
  7  2  1  0  0  0  0
  8  9  3  0  0  0  0
 12  5  1  0  0  0  0
 13 12  1  0  0  0  0
M  RAD  2   3   2  13   2
M  END
