Coordinates from ORCA-job N-O-Pyridine-4-N2+-scan-d09-160-n800
 OpenBabel09191814183D

 13 12  0  0  0  0  0  0  0  0999 V2000
   -2.5411    0.2516   -1.2527 C   0  0  0  0  0  0  0  0  0  0  0  0
   -2.7412    1.2404   -2.2078 C   0  0  0  0  0  0  0  0  0  0  0  0
   -3.1443    2.3816   -1.5842 C   0  0  0  0  0  0  0  0  0  0  0  0
   -2.8461    2.9213   -0.3703 C   0  0  0  0  0  0  0  0  0  0  0  0
   -2.6436    1.8935    0.5422 C   0  0  0  0  0  0  0  0  0  0  0  0
   -2.4544   -0.8073   -1.4724 H   0  0  0  0  0  0  0  0  0  0  0  0
   -2.7410    1.0327   -3.2748 H   0  0  0  0  0  0  0  0  0  0  0  0
    7.7990   -1.7102    2.7304 N   0  0  0  0  0  0  0  0  0  0  0  0
    8.7784   -2.0567    3.1081 N   0  0  0  0  0  0  0  0  0  0  0  0
   -2.6310    2.0210    1.6195 H   0  0  0  0  0  0  0  0  0  0  0  0
   -2.9240    3.9634   -0.0710 H   0  0  0  0  0  0  0  0  0  0  0  0
   -2.5068    0.5723    0.1072 N   0  0  0  0  0  0  0  0  0  0  0  0
   -2.3262   -0.3331    0.9458 O   0  0  0  0  0  0  0  0  0  0  0  0
  1 12  1  0  0  0  0
  2  3  1  0  0  0  0
  2  1  2  0  0  0  0
  3  4  1  0  0  0  0
  4 11  1  0  0  0  0
  4  5  2  0  0  0  0
  5 10  1  0  0  0  0
  6  1  1  0  0  0  0
  7  2  1  0  0  0  0
  8  9  3  0  0  0  0
 12  5  1  0  0  0  0
 12 13  1  0  0  0  0
M  RAD  2   3   2  13   2
M  END
