Coordinates from ORCA-job N-O-Pyridine-4-N2+-scan-d09-160-n800
 OpenBabel09191814183D

 13 12  0  0  0  0  0  0  0  0999 V2000
   -2.6797    0.6394   -1.6110 C   0  0  0  0  0  0  0  0  0  0  0  0
   -3.8402    1.1470   -2.1822 C   0  0  0  0  0  0  0  0  0  0  0  0
   -4.4468    1.9746   -1.2873 C   0  0  0  0  0  0  0  0  0  0  0  0
   -3.9599    2.8128   -0.3313 C   0  0  0  0  0  0  0  0  0  0  0  0
   -2.7966    2.2661    0.1965 C   0  0  0  0  0  0  0  0  0  0  0  0
   -2.1315   -0.2166   -1.9902 H   0  0  0  0  0  0  0  0  0  0  0  0
   -4.2458    0.7702   -3.1176 H   0  0  0  0  0  0  0  0  0  0  0  0
   10.1761   -2.8787    3.9069 N   0  0  0  0  0  0  0  0  0  0  0  0
   11.0889   -3.2996    4.3669 N   0  0  0  0  0  0  0  0  0  0  0  0
   -2.3329    2.5858    1.1238 H   0  0  0  0  0  0  0  0  0  0  0  0
   -4.4545    3.6745    0.1096 H   0  0  0  0  0  0  0  0  0  0  0  0
   -2.1713    1.1838   -0.4286 N   0  0  0  0  0  0  0  0  0  0  0  0
   -1.1279    0.7109    0.0645 O   0  0  0  0  0  0  0  0  0  0  0  0
  1 12  1  0  0  0  0
  2  1  2  0  0  0  0
  2  3  1  0  0  0  0
  3  4  1  0  0  0  0
  4 11  1  0  0  0  0
  4  5  2  0  0  0  0
  5 10  1  0  0  0  0
  6  1  1  0  0  0  0
  7  2  1  0  0  0  0
  8  9  3  0  0  0  0
 12 13  1  0  0  0  0
 12  5  1  0  0  0  0
M  RAD  2   3   2  13   2
M  END
