Coordinates from ORCA-job N-O-Pyridine-4-N2+-scan-d09-160-n800
 OpenBabel09191814183D

 13 12  0  0  0  0  0  0  0  0999 V2000
   -2.5037    0.1667   -1.1736 C   0  0  0  0  0  0  0  0  0  0  0  0
   -2.3310    1.1689   -2.1207 C   0  0  0  0  0  0  0  0  0  0  0  0
   -2.6077    2.3710   -1.5451 C   0  0  0  0  0  0  0  0  0  0  0  0
   -2.4345    2.8507   -0.2831 C   0  0  0  0  0  0  0  0  0  0  0  0
   -2.6048    1.8090    0.6209 C   0  0  0  0  0  0  0  0  0  0  0  0
   -2.5878   -0.8901   -1.4044 H   0  0  0  0  0  0  0  0  0  0  0  0
   -2.1793    0.9582   -3.1763 H   0  0  0  0  0  0  0  0  0  0  0  0
    6.9604   -1.3037    2.3158 N   0  0  0  0  0  0  0  0  0  0  0  0
    7.9475   -1.6393    2.6832 N   0  0  0  0  0  0  0  0  0  0  0  0
   -2.7619    1.9387    1.6866 H   0  0  0  0  0  0  0  0  0  0  0  0
   -2.3597    3.8898    0.0270 H   0  0  0  0  0  0  0  0  0  0  0  0
   -2.6528    0.4839    0.1794 N   0  0  0  0  0  0  0  0  0  0  0  0
   -2.8070   -0.4335    1.0103 O   0  0  0  0  0  0  0  0  0  0  0  0
  1 12  1  0  0  0  0
  2  3  1  0  0  0  0
  2  1  2  0  0  0  0
  3  4  1  0  0  0  0
  4 11  1  0  0  0  0
  4  5  2  0  0  0  0
  5 10  1  0  0  0  0
  6  1  1  0  0  0  0
  7  2  1  0  0  0  0
  8  9  3  0  0  0  0
 12  5  1  0  0  0  0
 12 13  1  0  0  0  0
M  RAD  2   3   2  13   2
M  END
