Coordinates from ORCA-job N-O-Pyridine-4-N2+-scan-d09-160-n800
 OpenBabel09191814183D

 13 12  0  0  0  0  0  0  0  0999 V2000
   -2.4778    0.0848   -1.0982 C   0  0  0  0  0  0  0  0  0  0  0  0
   -1.2398    0.5638   -1.5093 C   0  0  0  0  0  0  0  0  0  0  0  0
   -1.0039    1.7563   -0.8967 C   0  0  0  0  0  0  0  0  0  0  0  0
   -1.3406    2.2471    0.3275 C   0  0  0  0  0  0  0  0  0  0  0  0
   -2.5763    1.7282    0.6950 C   0  0  0  0  0  0  0  0  0  0  0  0
   -3.0262   -0.7082   -1.5956 H   0  0  0  0  0  0  0  0  0  0  0  0
   -0.6778    0.1138   -2.3237 H   0  0  0  0  0  0  0  0  0  0  0  0
    4.9186   -0.1064    1.1175 N   0  0  0  0  0  0  0  0  0  0  0  0
    5.9498   -0.3688    1.4169 N   0  0  0  0  0  0  0  0  0  0  0  0
   -3.1958    2.1228    1.4935 H   0  0  0  0  0  0  0  0  0  0  0  0
   -0.8536    3.0479    0.8779 H   0  0  0  0  0  0  0  0  0  0  0  0
   -3.1442    0.6686   -0.0174 N   0  0  0  0  0  0  0  0  0  0  0  0
   -4.2545    0.2204    0.3324 O   0  0  0  0  0  0  0  0  0  0  0  0
  1 12  1  0  0  0  0
  2  1  2  0  0  0  0
  2  3  1  0  0  0  0
  3  4  1  0  0  0  0
  4  5  2  0  0  0  0
  4 11  1  0  0  0  0
  5 10  1  0  0  0  0
  6  1  1  0  0  0  0
  7  2  1  0  0  0  0
  8  9  3  0  0  0  0
 12 13  1  0  0  0  0
 12  5  1  0  0  0  0
M  RAD  2   3   2  13   2
M  END
