Coordinates from ORCA-job N-O-Pyridine-4-N2+-scan-d09-160-n800
 OpenBabel09191814183D

 13 12  0  0  0  0  0  0  0  0999 V2000
   -2.3173    0.0963   -1.1001 C   0  0  0  0  0  0  0  0  0  0  0  0
   -0.9368    0.2299   -1.1891 C   0  0  0  0  0  0  0  0  0  0  0  0
   -0.5557    1.3292   -0.4831 C   0  0  0  0  0  0  0  0  0  0  0  0
   -1.0356    1.9132    0.6485 C   0  0  0  0  0  0  0  0  0  0  0  0
   -2.4137    1.7390    0.6932 C   0  0  0  0  0  0  0  0  0  0  0  0
   -2.9163   -0.5354   -1.7477 H   0  0  0  0  0  0  0  0  0  0  0  0
   -0.3321   -0.3642   -1.8693 H   0  0  0  0  0  0  0  0  0  0  0  0
    3.7204    0.3585    0.6322 N   0  0  0  0  0  0  0  0  0  0  0  0
    4.7870    0.1762    0.8580 N   0  0  0  0  0  0  0  0  0  0  0  0
   -3.0824    2.2949    1.3420 H   0  0  0  0  0  0  0  0  0  0  0  0
   -0.5043    2.5693    1.3331 H   0  0  0  0  0  0  0  0  0  0  0  0
   -3.0485    0.8511   -0.1792 N   0  0  0  0  0  0  0  0  0  0  0  0
   -4.2869    0.7124   -0.1188 O   0  0  0  0  0  0  0  0  0  0  0  0
  1 12  1  0  0  0  0
  2  1  2  0  0  0  0
  2  3  1  0  0  0  0
  3  4  1  0  0  0  0
  4  5  2  0  0  0  0
  4 11  1  0  0  0  0
  5 10  1  0  0  0  0
  6  1  1  0  0  0  0
  7  2  1  0  0  0  0
  8  9  3  0  0  0  0
 12 13  1  0  0  0  0
 12  5  1  0  0  0  0
M  RAD  2   3   2  13   2
M  END
