Coordinates from ORCA-job N-O-Pyridine-4-N2+-scan-d09-160-n800
 OpenBabel09191814183D

 13 12  0  0  0  0  0  0  0  0999 V2000
   -2.5029    0.1658   -1.1727 C   0  0  0  0  0  0  0  0  0  0  0  0
   -2.3259    1.1677   -2.1193 C   0  0  0  0  0  0  0  0  0  0  0  0
   -2.6011    2.3703   -1.5442 C   0  0  0  0  0  0  0  0  0  0  0  0
   -2.4294    2.8495   -0.2817 C   0  0  0  0  0  0  0  0  0  0  0  0
   -2.6040    1.8081    0.6218 C   0  0  0  0  0  0  0  0  0  0  0  0
   -2.5889   -0.8908   -1.4038 H   0  0  0  0  0  0  0  0  0  0  0  0
   -2.1725    0.9568   -3.1746 H   0  0  0  0  0  0  0  0  0  0  0  0
    6.9489   -1.2985    2.3104 N   0  0  0  0  0  0  0  0  0  0  0  0
    7.9361   -1.6339    2.6777 N   0  0  0  0  0  0  0  0  0  0  0  0
   -2.7631    1.9380    1.6871 H   0  0  0  0  0  0  0  0  0  0  0  0
   -2.3529    3.8884    0.0287 H   0  0  0  0  0  0  0  0  0  0  0  0
   -2.6541    0.4831    0.1800 N   0  0  0  0  0  0  0  0  0  0  0  0
   -2.8122   -0.4340    1.0104 O   0  0  0  0  0  0  0  0  0  0  0  0
  1 12  1  0  0  0  0
  2  3  1  0  0  0  0
  2  1  2  0  0  0  0
  3  4  1  0  0  0  0
  4 11  1  0  0  0  0
  4  5  2  0  0  0  0
  5 10  1  0  0  0  0
  6  1  1  0  0  0  0
  7  2  1  0  0  0  0
  8  9  3  0  0  0  0
 12  5  1  0  0  0  0
 12 13  1  0  0  0  0
M  RAD  2   3   2  13   2
M  END
