Coordinates from ORCA-job N-O-Pyridine-4-N2+-scan-d09-160-n800
 OpenBabel09191814183D

 13 12  0  0  0  0  0  0  0  0999 V2000
   -2.2297    0.0931   -1.0922 C   0  0  0  0  0  0  0  0  0  0  0  0
   -0.8421    0.1656   -1.1255 C   0  0  0  0  0  0  0  0  0  0  0  0
   -0.4418    1.2448   -0.4000 C   0  0  0  0  0  0  0  0  0  0  0  0
   -0.9406    1.8489    0.7123 C   0  0  0  0  0  0  0  0  0  0  0  0
   -2.3258    1.7354    0.7008 C   0  0  0  0  0  0  0  0  0  0  0  0
   -2.8293   -0.5111   -1.7649 H   0  0  0  0  0  0  0  0  0  0  0  0
   -0.2369   -0.4536   -1.7824 H   0  0  0  0  0  0  0  0  0  0  0  0
    3.2138    0.4722    0.5022 N   0  0  0  0  0  0  0  0  0  0  0  0
    4.2858    0.3055    0.7131 N   0  0  0  0  0  0  0  0  0  0  0  0
   -2.9949    2.3188    1.3246 H   0  0  0  0  0  0  0  0  0  0  0  0
   -0.4086    2.4794    1.4198 H   0  0  0  0  0  0  0  0  0  0  0  0
   -2.9636    0.8777   -0.1990 N   0  0  0  0  0  0  0  0  0  0  0  0
   -4.2084    0.7938   -0.1889 O   0  0  0  0  0  0  0  0  0  0  0  0
  1 12  1  0  0  0  0
  2  1  2  0  0  0  0
  2  3  1  0  0  0  0
  3  4  1  0  0  0  0
  4 11  1  0  0  0  0
  5  4  2  0  0  0  0
  5 10  1  0  0  0  0
  6  1  1  0  0  0  0
  7  2  1  0  0  0  0
  8  9  3  0  0  0  0
 12 13  1  0  0  0  0
 12  5  1  0  0  0  0
M  RAD  2   3   2  13   2
M  END
