Coordinates from ORCA-job N-O-Pyridine-4-N2+-scan-d09-160-n800
 OpenBabel09191814183D

 13 12  0  0  0  0  0  0  0  0999 V2000
   -2.1997    0.0915   -1.0890 C   0  0  0  0  0  0  0  0  0  0  0  0
   -0.8111    0.1495   -1.1093 C   0  0  0  0  0  0  0  0  0  0  0  0
   -0.4062    1.2234   -0.3787 C   0  0  0  0  0  0  0  0  0  0  0  0
   -0.9095    1.8329    0.7286 C   0  0  0  0  0  0  0  0  0  0  0  0
   -2.2957    1.7336    0.7039 C   0  0  0  0  0  0  0  0  0  0  0  0
   -2.7990   -0.5064   -1.7674 H   0  0  0  0  0  0  0  0  0  0  0  0
   -0.2062   -0.4755   -1.7607 H   0  0  0  0  0  0  0  0  0  0  0  0
    3.0436    0.5041    0.4642 N   0  0  0  0  0  0  0  0  0  0  0  0
    4.1170    0.3414    0.6713 N   0  0  0  0  0  0  0  0  0  0  0  0
   -2.9644    2.3232    1.3219 H   0  0  0  0  0  0  0  0  0  0  0  0
   -0.3776    2.4573    1.4414 H   0  0  0  0  0  0  0  0  0  0  0  0
   -2.9338    0.8831   -0.2023 N   0  0  0  0  0  0  0  0  0  0  0  0
   -4.1796    0.8121   -0.2040 O   0  0  0  0  0  0  0  0  0  0  0  0
  1 12  1  0  0  0  0
  2  1  2  0  0  0  0
  2  3  1  0  0  0  0
  3  4  1  0  0  0  0
  4 11  1  0  0  0  0
  5  4  2  0  0  0  0
  5 10  1  0  0  0  0
  6  1  1  0  0  0  0
  7  2  1  0  0  0  0
  8  9  3  0  0  0  0
 12  5  1  0  0  0  0
 13 12  1  0  0  0  0
M  RAD  2   3   2  13   2
M  END
