Coordinates from ORCA-job N-O-Pyridine-4-N2+-scan-d09-160-n800
 OpenBabel09191814183D

 13 12  0  0  0  0  0  0  0  0999 V2000
   -2.0443    0.0881   -1.0721 C   0  0  0  0  0  0  0  0  0  0  0  0
   -0.6558    0.0700   -1.0289 C   0  0  0  0  0  0  0  0  0  0  0  0
   -0.2093    1.0939   -0.2496 C   0  0  0  0  0  0  0  0  0  0  0  0
   -0.7541    1.7541    0.8098 C   0  0  0  0  0  0  0  0  0  0  0  0
   -2.1399    1.7248    0.7149 C   0  0  0  0  0  0  0  0  0  0  0  0
   -2.6396   -0.4825   -1.7762 H   0  0  0  0  0  0  0  0  0  0  0  0
   -0.0628   -0.5835   -1.6605 H   0  0  0  0  0  0  0  0  0  0  0  0
    2.1688    0.6380    0.2952 N   0  0  0  0  0  0  0  0  0  0  0  0
    3.2613    0.5501    0.4341 N   0  0  0  0  0  0  0  0  0  0  0  0
   -2.8046    2.3426    1.3082 H   0  0  0  0  0  0  0  0  0  0  0  0
   -0.2345    2.3556    1.5485 H   0  0  0  0  0  0  0  0  0  0  0  0
   -2.7801    0.9113   -0.2199 N   0  0  0  0  0  0  0  0  0  0  0  0
   -4.0272    0.9079   -0.2836 O   0  0  0  0  0  0  0  0  0  0  0  0
  1  2  2  0  0  0  0
  1 12  1  0  0  0  0
  2  3  1  0  0  0  0
  3  4  1  0  0  0  0
  4 11  1  0  0  0  0
  5  4  2  0  0  0  0
  5 10  1  0  0  0  0
  6  1  1  0  0  0  0
  7  2  1  0  0  0  0
  8  9  3  0  0  0  0
 12  5  1  0  0  0  0
 13 12  1  0  0  0  0
M  RAD  2   3   2  13   2
M  END
