Coordinates from ORCA-job N-O-Pyridine-4-N2+-scan-d09-160-n800
 OpenBabel09191814183D

 13 12  0  0  0  0  0  0  0  0999 V2000
   -2.5206    0.1961   -1.2013 C   0  0  0  0  0  0  0  0  0  0  0  0
   -2.4848    1.2021   -2.1594 C   0  0  0  0  0  0  0  0  0  0  0  0
   -2.8097    2.3845   -1.5685 C   0  0  0  0  0  0  0  0  0  0  0  0
   -2.5884    2.8836   -0.3216 C   0  0  0  0  0  0  0  0  0  0  0  0
   -2.6218    1.8382    0.5934 C   0  0  0  0  0  0  0  0  0  0  0  0
   -2.5428   -0.8654   -1.4243 H   0  0  0  0  0  0  0  0  0  0  0  0
   -2.3884    0.9961   -3.2223 H   0  0  0  0  0  0  0  0  0  0  0  0
    7.2853   -1.4582    2.4740 N   0  0  0  0  0  0  0  0  0  0  0  0
    8.2703   -1.7967    2.8443 N   0  0  0  0  0  0  0  0  0  0  0  0
   -2.7170    1.9630    1.6669 H   0  0  0  0  0  0  0  0  0  0  0  0
   -2.5690    3.9274   -0.0186 H   0  0  0  0  0  0  0  0  0  0  0  0
   -2.6020    0.5103    0.1582 N   0  0  0  0  0  0  0  0  0  0  0  0
   -2.6333   -0.4106    0.9989 O   0  0  0  0  0  0  0  0  0  0  0  0
  1 12  1  0  0  0  0
  2  3  1  0  0  0  0
  2  1  2  0  0  0  0
  3  4  1  0  0  0  0
  4 11  1  0  0  0  0
  4  5  2  0  0  0  0
  5 10  1  0  0  0  0
  6  1  1  0  0  0  0
  7  2  1  0  0  0  0
  8  9  3  0  0  0  0
 12  5  1  0  0  0  0
 12 13  1  0  0  0  0
M  RAD  2   3   2  13   2
M  END
