Coordinates from ORCA-job N-O-Pyridine-4-N2+-scan-d09-160-n800
 OpenBabel09191814183D

 13 12  0  0  0  0  0  0  0  0999 V2000
   -2.5665    0.3678   -1.3491 C   0  0  0  0  0  0  0  0  0  0  0  0
   -3.1421    1.2553   -2.2496 C   0  0  0  0  0  0  0  0  0  0  0  0
   -3.6688    2.3042   -1.5596 C   0  0  0  0  0  0  0  0  0  0  0  0
   -3.2879    2.9383   -0.4166 C   0  0  0  0  0  0  0  0  0  0  0  0
   -2.7087    2.0117    0.4412 C   0  0  0  0  0  0  0  0  0  0  0  0
   -2.2909   -0.6549   -1.5842 H   0  0  0  0  0  0  0  0  0  0  0  0
   -3.2841    1.0144   -3.3000 H   0  0  0  0  0  0  0  0  0  0  0  0
    8.6727   -2.1419    3.1458 N   0  0  0  0  0  0  0  0  0  0  0  0
    9.6374   -2.5101    3.5406 N   0  0  0  0  0  0  0  0  0  0  0  0
   -2.5355    2.1773    1.4994 H   0  0  0  0  0  0  0  0  0  0  0  0
   -3.5379    3.9492   -0.1046 H   0  0  0  0  0  0  0  0  0  0  0  0
   -2.3645    0.7368   -0.0162 N   0  0  0  0  0  0  0  0  0  0  0  0
   -1.8455   -0.0777    0.7729 O   0  0  0  0  0  0  0  0  0  0  0  0
  1 12  1  0  0  0  0
  2  3  1  0  0  0  0
  2  1  2  0  0  0  0
  3  4  1  0  0  0  0
  4 11  1  0  0  0  0
  4  5  2  0  0  0  0
  5 10  1  0  0  0  0
  6  1  1  0  0  0  0
  7  2  1  0  0  0  0
  8  9  3  0  0  0  0
 12  5  1  0  0  0  0
 12 13  1  0  0  0  0
M  RAD  2   3   2  13   2
M  END
