Coordinates from ORCA-job N-O-Pyridine-4-N2+-scan-d09-160-n800
 OpenBabel09191814183D

 13 12  0  0  0  0  0  0  0  0999 V2000
   -2.4752    0.1145   -1.1243 C   0  0  0  0  0  0  0  0  0  0  0  0
   -1.9998    1.0711   -2.0132 C   0  0  0  0  0  0  0  0  0  0  0  0
   -2.1603    2.3044   -1.4601 C   0  0  0  0  0  0  0  0  0  0  0  0
   -2.1045    2.7537   -0.1764 C   0  0  0  0  0  0  0  0  0  0  0  0
   -2.5774    1.7576    0.6694 C   0  0  0  0  0  0  0  0  0  0  0  0
   -2.6948   -0.9149   -1.3877 H   0  0  0  0  0  0  0  0  0  0  0  0
   -1.7264    0.8344   -3.0383 H   0  0  0  0  0  0  0  0  0  0  0  0
    6.2874   -0.9725    1.9769 N   0  0  0  0  0  0  0  0  0  0  0  0
    7.2816   -1.2977    2.3346 N   0  0  0  0  0  0  0  0  0  0  0  0
   -2.8709    1.9153    1.7019 H   0  0  0  0  0  0  0  0  0  0  0  0
   -1.9090    3.7675    0.1636 H   0  0  0  0  0  0  0  0  0  0  0  0
   -2.7735    0.4567    0.1975 N   0  0  0  0  0  0  0  0  0  0  0  0
   -3.1993   -0.4197    0.9761 O   0  0  0  0  0  0  0  0  0  0  0  0
  1 12  1  0  0  0  0
  2  3  1  0  0  0  0
  2  1  2  0  0  0  0
  3  4  1  0  0  0  0
  4 11  1  0  0  0  0
  4  5  2  0  0  0  0
  5 10  1  0  0  0  0
  6  1  1  0  0  0  0
  7  2  1  0  0  0  0
  8  9  3  0  0  0  0
 12  5  1  0  0  0  0
 12 13  1  0  0  0  0
M  RAD  2   3   2  13   2
M  END
