Coordinates from ORCA-job N-O-Pyridine-4-N2+-scan-d09-160-n800
 OpenBabel09191814183D

 13 12  0  0  0  0  0  0  0  0999 V2000
   -2.7281    0.6715   -1.6441 C   0  0  0  0  0  0  0  0  0  0  0  0
   -3.9160    1.1476   -2.1854 C   0  0  0  0  0  0  0  0  0  0  0  0
   -4.5208    1.9599   -1.2757 C   0  0  0  0  0  0  0  0  0  0  0  0
   -4.0317    2.8119   -0.3331 C   0  0  0  0  0  0  0  0  0  0  0  0
   -2.8411    2.2969    0.1648 C   0  0  0  0  0  0  0  0  0  0  0  0
   -2.1675   -0.1702   -2.0369 H   0  0  0  0  0  0  0  0  0  0  0  0
   -4.3355    0.7589   -3.1098 H   0  0  0  0  0  0  0  0  0  0  0  0
   10.4723   -2.9973    4.0325 N   0  0  0  0  0  0  0  0  0  0  0  0
   11.3857   -3.4164    4.4931 N   0  0  0  0  0  0  0  0  0  0  0  0
   -2.3623    2.6300    1.0795 H   0  0  0  0  0  0  0  0  0  0  0  0
   -4.5374    3.6609    0.1199 H   0  0  0  0  0  0  0  0  0  0  0  0
   -2.2038    1.2307   -0.4756 N   0  0  0  0  0  0  0  0  0  0  0  0
   -1.1359    0.7861   -0.0094 O   0  0  0  0  0  0  0  0  0  0  0  0
  1 12  1  0  0  0  0
  2  1  2  0  0  0  0
  2  3  1  0  0  0  0
  3  4  1  0  0  0  0
  4 11  1  0  0  0  0
  4  5  2  0  0  0  0
  5 10  1  0  0  0  0
  6  1  1  0  0  0  0
  7  2  1  0  0  0  0
  8  9  3  0  0  0  0
 12 13  1  0  0  0  0
 12  5  1  0  0  0  0
M  RAD  2   3   2  13   2
M  END
