Coordinates from ORCA-job N-O-Pyridine-4-N2+-scan-d09-160-n800
 OpenBabel09191814183D

 13 12  0  0  0  0  0  0  0  0999 V2000
   -2.3197    0.0963   -1.1003 C   0  0  0  0  0  0  0  0  0  0  0  0
   -0.9395    0.2323   -1.1914 C   0  0  0  0  0  0  0  0  0  0  0  0
   -0.5592    1.3323   -0.4861 C   0  0  0  0  0  0  0  0  0  0  0  0
   -1.0383    1.9156    0.6462 C   0  0  0  0  0  0  0  0  0  0  0  0
   -2.4161    1.7390    0.6931 C   0  0  0  0  0  0  0  0  0  0  0  0
   -2.9186   -0.5364   -1.7469 H   0  0  0  0  0  0  0  0  0  0  0  0
   -0.3349   -0.3609   -1.8725 H   0  0  0  0  0  0  0  0  0  0  0  0
    3.7347    0.3548    0.6364 N   0  0  0  0  0  0  0  0  0  0  0  0
    4.8010    0.1718    0.8628 N   0  0  0  0  0  0  0  0  0  0  0  0
   -3.0847    2.2938    1.3429 H   0  0  0  0  0  0  0  0  0  0  0  0
   -0.5071    2.5726    1.3300 H   0  0  0  0  0  0  0  0  0  0  0  0
   -3.0507    0.8500   -0.1783 N   0  0  0  0  0  0  0  0  0  0  0  0
   -4.2888    0.7092   -0.1160 O   0  0  0  0  0  0  0  0  0  0  0  0
  1 12  1  0  0  0  0
  2  1  2  0  0  0  0
  2  3  1  0  0  0  0
  3  4  1  0  0  0  0
  4  5  2  0  0  0  0
  4 11  1  0  0  0  0
  5 10  1  0  0  0  0
  6  1  1  0  0  0  0
  7  2  1  0  0  0  0
  8  9  3  0  0  0  0
 12 13  1  0  0  0  0
 12  5  1  0  0  0  0
M  RAD  2   3   2  13   2
M  END
