Coordinates from ORCA-job N-O-Pyridine-4-N2+-scan-d09-160-n800
 OpenBabel09191814183D

 13 12  0  0  0  0  0  0  0  0999 V2000
   -2.5126    0.1815   -1.1874 C   0  0  0  0  0  0  0  0  0  0  0  0
   -2.4095    1.1868   -2.1413 C   0  0  0  0  0  0  0  0  0  0  0  0
   -2.7114    2.3793   -1.5584 C   0  0  0  0  0  0  0  0  0  0  0  0
   -2.5136    2.8685   -0.3037 C   0  0  0  0  0  0  0  0  0  0  0  0
   -2.6143    1.8238    0.6071 C   0  0  0  0  0  0  0  0  0  0  0  0
   -2.5651   -0.8783   -1.4136 H   0  0  0  0  0  0  0  0  0  0  0  0
   -2.2855    0.9789   -3.2010 H   0  0  0  0  0  0  0  0  0  0  0  0
    7.1287   -1.3832    2.3969 N   0  0  0  0  0  0  0  0  0  0  0  0
    8.1147   -1.7205    2.7660 N   0  0  0  0  0  0  0  0  0  0  0  0
   -2.7402    1.9504    1.6772 H   0  0  0  0  0  0  0  0  0  0  0  0
   -2.4670    3.9105    0.0023 H   0  0  0  0  0  0  0  0  0  0  0  0
   -2.6274    0.4965    0.1694 N   0  0  0  0  0  0  0  0  0  0  0  0
   -2.7190   -0.4237    1.0064 O   0  0  0  0  0  0  0  0  0  0  0  0
  1 12  1  0  0  0  0
  2  3  1  0  0  0  0
  2  1  2  0  0  0  0
  3  4  1  0  0  0  0
  4 11  1  0  0  0  0
  4  5  2  0  0  0  0
  5 10  1  0  0  0  0
  6  1  1  0  0  0  0
  7  2  1  0  0  0  0
  8  9  3  0  0  0  0
 12  5  1  0  0  0  0
 12 13  1  0  0  0  0
M  RAD  2   3   2  13   2
M  END
