Coordinates from ORCA-job N-O-Pyridine-4-N2+-scan-d09-160-n800
 OpenBabel09191814183D

 13 12  0  0  0  0  0  0  0  0999 V2000
   -2.7465    0.6801   -1.6531 C   0  0  0  0  0  0  0  0  0  0  0  0
   -3.9382    1.1515   -2.1899 C   0  0  0  0  0  0  0  0  0  0  0  0
   -4.5428    1.9616   -1.2780 C   0  0  0  0  0  0  0  0  0  0  0  0
   -4.0534    2.8156   -0.3374 C   0  0  0  0  0  0  0  0  0  0  0  0
   -2.8590    2.3052    0.1560 C   0  0  0  0  0  0  0  0  0  0  0  0
   -2.1841   -0.1595   -2.0479 H   0  0  0  0  0  0  0  0  0  0  0  0
   -4.3598    0.7611   -3.1127 H   0  0  0  0  0  0  0  0  0  0  0  0
   10.5771   -3.0366    4.0740 N   0  0  0  0  0  0  0  0  0  0  0  0
   11.4916   -3.4541    4.5338 N   0  0  0  0  0  0  0  0  0  0  0  0
   -2.3779    2.6403    1.0689 H   0  0  0  0  0  0  0  0  0  0  0  0
   -4.5606    3.6627    0.1174 H   0  0  0  0  0  0  0  0  0  0  0  0
   -2.2200    1.2414   -0.4866 N   0  0  0  0  0  0  0  0  0  0  0  0
   -1.1485    0.8011   -0.0244 O   0  0  0  0  0  0  0  0  0  0  0  0
  1 12  1  0  0  0  0
  2  1  2  0  0  0  0
  2  3  1  0  0  0  0
  3  4  1  0  0  0  0
  4 11  1  0  0  0  0
  4  5  2  0  0  0  0
  5 10  1  0  0  0  0
  6  1  1  0  0  0  0
  7  2  1  0  0  0  0
  8  9  3  0  0  0  0
 12 13  1  0  0  0  0
 12  5  1  0  0  0  0
M  RAD  2   3   2  13   2
M  END
