Coordinates from ORCA-job N-O-Pyridine-4-N2+-scan-d09-160-n800
 OpenBabel09191814183D

 13 12  0  0  0  0  0  0  0  0999 V2000
   -2.4637    0.0877   -1.1001 C   0  0  0  0  0  0  0  0  0  0  0  0
   -1.1842    0.5021   -1.4501 C   0  0  0  0  0  0  0  0  0  0  0  0
   -0.9159    1.6794   -0.8219 C   0  0  0  0  0  0  0  0  0  0  0  0
   -1.2846    2.1854    0.3869 C   0  0  0  0  0  0  0  0  0  0  0  0
   -2.5617    1.7310    0.6932 C   0  0  0  0  0  0  0  0  0  0  0  0
   -3.0283   -0.6748   -1.6263 H   0  0  0  0  0  0  0  0  0  0  0  0
   -0.6083    0.0247   -2.2388 H   0  0  0  0  0  0  0  0  0  0  0  0
    4.7571   -0.0229    1.0333 N   0  0  0  0  0  0  0  0  0  0  0  0
    5.7941   -0.2739    1.3222 N   0  0  0  0  0  0  0  0  0  0  0  0
   -3.1972    2.1561    1.4629 H   0  0  0  0  0  0  0  0  0  0  0  0
   -0.7833    2.9588    0.9631 H   0  0  0  0  0  0  0  0  0  0  0  0
   -3.1494    0.7036   -0.0497 N   0  0  0  0  0  0  0  0  0  0  0  0
   -4.2969    0.3132    0.2453 O   0  0  0  0  0  0  0  0  0  0  0  0
  1 12  1  0  0  0  0
  2  1  2  0  0  0  0
  2  3  1  0  0  0  0
  3  4  1  0  0  0  0
  4  5  2  0  0  0  0
  4 11  1  0  0  0  0
  5 10  1  0  0  0  0
  6  1  1  0  0  0  0
  7  2  1  0  0  0  0
  8  9  3  0  0  0  0
 12 13  1  0  0  0  0
 12  5  1  0  0  0  0
M  RAD  2   3   2  13   2
M  END
