Coordinates from ORCA-job N-O-Pyridine-4-N2+-scan-d09-160-n800
 OpenBabel09191814183D

 13 12  0  0  0  0  0  0  0  0999 V2000
   -2.4882    0.1468   -1.1545 C   0  0  0  0  0  0  0  0  0  0  0  0
   -2.2186    1.1401   -2.0883 C   0  0  0  0  0  0  0  0  0  0  0  0
   -2.4599    2.3540   -1.5217 C   0  0  0  0  0  0  0  0  0  0  0  0
   -2.3226    2.8221   -0.2509 C   0  0  0  0  0  0  0  0  0  0  0  0
   -2.5898    1.7894    0.6397 C   0  0  0  0  0  0  0  0  0  0  0  0
   -2.6158   -0.9038   -1.3933 H   0  0  0  0  0  0  0  0  0  0  0  0
   -2.0277    0.9234   -3.1362 H   0  0  0  0  0  0  0  0  0  0  0  0
    6.7113   -1.1896    2.1979 N   0  0  0  0  0  0  0  0  0  0  0  0
    7.7008   -1.5216    2.5623 N   0  0  0  0  0  0  0  0  0  0  0  0
   -2.7909    1.9254    1.6972 H   0  0  0  0  0  0  0  0  0  0  0  0
   -2.2090    3.8554    0.0666 H   0  0  0  0  0  0  0  0  0  0  0  0
   -2.6852    0.4691    0.1911 N   0  0  0  0  0  0  0  0  0  0  0  0
   -2.9265   -0.4403    1.0100 O   0  0  0  0  0  0  0  0  0  0  0  0
  1 12  1  0  0  0  0
  2  3  1  0  0  0  0
  2  1  2  0  0  0  0
  3  4  1  0  0  0  0
  4 11  1  0  0  0  0
  4  5  2  0  0  0  0
  5 10  1  0  0  0  0
  6  1  1  0  0  0  0
  7  2  1  0  0  0  0
  8  9  3  0  0  0  0
 12  5  1  0  0  0  0
 12 13  1  0  0  0  0
M  RAD  2   3   2  13   2
M  END
