Coordinates from ORCA-job N-O-Pyridine-4-N2+-scan-d09-160-n800
 OpenBabel09191814183D

 13 12  0  0  0  0  0  0  0  0999 V2000
   -2.5111    0.1784   -1.1845 C   0  0  0  0  0  0  0  0  0  0  0  0
   -2.3932    1.1833   -2.1372 C   0  0  0  0  0  0  0  0  0  0  0  0
   -2.6899    2.3779   -1.5560 C   0  0  0  0  0  0  0  0  0  0  0  0
   -2.4974    2.8651   -0.2996 C   0  0  0  0  0  0  0  0  0  0  0  0
   -2.6129    1.8208    0.6099 C   0  0  0  0  0  0  0  0  0  0  0  0
   -2.5702   -0.8808   -1.4116 H   0  0  0  0  0  0  0  0  0  0  0  0
   -2.2631    0.9748   -3.1961 H   0  0  0  0  0  0  0  0  0  0  0  0
    7.0958   -1.3672    2.3804 N   0  0  0  0  0  0  0  0  0  0  0  0
    8.0819   -1.7042    2.7492 N   0  0  0  0  0  0  0  0  0  0  0  0
   -2.7456    1.9480    1.6792 H   0  0  0  0  0  0  0  0  0  0  0  0
   -2.4449    3.9066    0.0072 H   0  0  0  0  0  0  0  0  0  0  0  0
   -2.6333    0.4938    0.1716 N   0  0  0  0  0  0  0  0  0  0  0  0
   -2.7382   -0.4260    1.0075 O   0  0  0  0  0  0  0  0  0  0  0  0
  1 12  1  0  0  0  0
  2  3  1  0  0  0  0
  2  1  2  0  0  0  0
  3  4  1  0  0  0  0
  4 11  1  0  0  0  0
  4  5  2  0  0  0  0
  5 10  1  0  0  0  0
  6  1  1  0  0  0  0
  7  2  1  0  0  0  0
  8  9  3  0  0  0  0
 12  5  1  0  0  0  0
 12 13  1  0  0  0  0
M  RAD  2   3   2  13   2
M  END
