Coordinates from ORCA-job N-O-Pyridine-4-N2+-scan-d09-160-n800
 OpenBabel09191814183D

 13 12  0  0  0  0  0  0  0  0999 V2000
   -2.6104    0.4552   -1.4275 C   0  0  0  0  0  0  0  0  0  0  0  0
   -3.3944    1.2464   -2.2578 C   0  0  0  0  0  0  0  0  0  0  0  0
   -3.9724    2.2293   -1.5138 C   0  0  0  0  0  0  0  0  0  0  0  0
   -3.5517    2.9256   -0.4221 C   0  0  0  0  0  0  0  0  0  0  0  0
   -2.7640    2.0952    0.3654 C   0  0  0  0  0  0  0  0  0  0  0  0
   -2.2318   -0.5266   -1.6916 H   0  0  0  0  0  0  0  0  0  0  0  0
   -3.6207    0.9726   -3.2851 H   0  0  0  0  0  0  0  0  0  0  0  0
    9.2875   -2.4263    3.4294 N   0  0  0  0  0  0  0  0  0  0  0  0
   10.2410   -2.8088    3.8377 N   0  0  0  0  0  0  0  0  0  0  0  0
   -2.4967    2.2984    1.3970 H   0  0  0  0  0  0  0  0  0  0  0  0
   -3.8951    3.9001   -0.0844 H   0  0  0  0  0  0  0  0  0  0  0  0
   -2.3097    0.8685   -0.1267 N   0  0  0  0  0  0  0  0  0  0  0  0
   -1.6035    0.1409    0.5994 O   0  0  0  0  0  0  0  0  0  0  0  0
  1 12  1  0  0  0  0
  2  3  1  0  0  0  0
  2  1  2  0  0  0  0
  3  4  1  0  0  0  0
  4 11  1  0  0  0  0
  4  5  2  0  0  0  0
  5 10  1  0  0  0  0
  6  1  1  0  0  0  0
  7  2  1  0  0  0  0
  8  9  3  0  0  0  0
 12  5  1  0  0  0  0
 12 13  1  0  0  0  0
M  RAD  2   3   2  13   2
M  END
