Coordinates from ORCA-job N-O-Pyridine-4-N2+-scan-d09-160-n800
 OpenBabel09191814183D

 13 12  0  0  0  0  0  0  0  0999 V2000
   -2.5916    0.4299   -1.4020 C   0  0  0  0  0  0  0  0  0  0  0  0
   -3.3184    1.2492   -2.2569 C   0  0  0  0  0  0  0  0  0  0  0  0
   -3.8872    2.2505   -1.5308 C   0  0  0  0  0  0  0  0  0  0  0  0
   -3.4807    2.9302   -0.4234 C   0  0  0  0  0  0  0  0  0  0  0  0
   -2.7502    2.0716    0.3887 C   0  0  0  0  0  0  0  0  0  0  0  0
   -2.2386   -0.5642   -1.6555 H   0  0  0  0  0  0  0  0  0  0  0  0
   -3.5183    0.9849   -3.2922 H   0  0  0  0  0  0  0  0  0  0  0  0
    9.1044   -2.3455    3.3433 N   0  0  0  0  0  0  0  0  0  0  0  0
   10.0614   -2.7239    3.7470 N   0  0  0  0  0  0  0  0  0  0  0  0
   -2.5120    2.2639    1.4296 H   0  0  0  0  0  0  0  0  0  0  0  0
   -3.8014    3.9156   -0.0951 H   0  0  0  0  0  0  0  0  0  0  0  0
   -2.3221    0.8306   -0.0906 N   0  0  0  0  0  0  0  0  0  0  0  0
   -1.6673    0.0777    0.6577 O   0  0  0  0  0  0  0  0  0  0  0  0
  1 12  1  0  0  0  0
  2  3  1  0  0  0  0
  2  1  2  0  0  0  0
  3  4  1  0  0  0  0
  4 11  1  0  0  0  0
  4  5  2  0  0  0  0
  5 10  1  0  0  0  0
  6  1  1  0  0  0  0
  7  2  1  0  0  0  0
  8  9  3  0  0  0  0
 12  5  1  0  0  0  0
 12 13  1  0  0  0  0
M  RAD  2   3   2  13   2
M  END
