Coordinates from ORCA-job N-O-Pyridine-4-N2+-scan-d09-160-n800
 OpenBabel09191814183D

 13 13  0  0  0  0  0  0  0  0999 V2000
   -1.9064    0.1006   -1.0705 C   0  0  0  0  0  0  0  0  0  0  0  0
   -0.5490    0.0252   -0.9618 C   0  0  0  0  0  0  0  0  0  0  0  0
    0.1116    0.8265    0.0125 C   0  0  0  0  0  0  0  0  0  0  0  0
   -0.6461    1.6896    0.8543 C   0  0  0  0  0  0  0  0  0  0  0  0
   -2.0017    1.7322    0.7098 C   0  0  0  0  0  0  0  0  0  0  0  0
   -2.5048   -0.4632   -1.7749 H   0  0  0  0  0  0  0  0  0  0  0  0
    0.0087   -0.6391   -1.6135 H   0  0  0  0  0  0  0  0  0  0  0  0
    1.4053    0.7702    0.1332 N   0  0  0  0  0  0  0  0  0  0  0  0
    2.5237    0.7216    0.2376 N   0  0  0  0  0  0  0  0  0  0  0  0
   -2.6690    2.3511    1.2959 H   0  0  0  0  0  0  0  0  0  0  0  0
   -0.1633    2.3087    1.6030 H   0  0  0  0  0  0  0  0  0  0  0  0
   -2.6488    0.9465   -0.2451 N   0  0  0  0  0  0  0  0  0  0  0  0
   -3.8824    1.0004   -0.3605 O   0  0  0  0  0  0  0  0  0  0  0  0
  1  2  2  0  0  0  0
  1 12  1  0  0  0  0
  2  3  1  0  0  0  0
  3  8  1  0  0  0  0
  3  4  2  0  0  0  0
  4 11  1  0  0  0  0
  5  4  1  0  0  0  0
  5 10  1  0  0  0  0
  6  1  1  0  0  0  0
  7  2  1  0  0  0  0
  8  9  1  0  0  0  0
 12  5  1  0  0  0  0
 13 12  1  0  0  0  0
M  RAD  3   8   2   9   3  13   2
M  END
