Coordinates from ORCA-job N-O-Pyridine-4-N2+-scan-d09-160-n800
 OpenBabel09191814183D

 13 12  0  0  0  0  0  0  0  0999 V2000
   -2.4908    0.0797   -1.0941 C   0  0  0  0  0  0  0  0  0  0  0  0
   -1.3648    0.6912   -1.6318 C   0  0  0  0  0  0  0  0  0  0  0  0
   -1.2046    1.9105   -1.0482 C   0  0  0  0  0  0  0  0  0  0  0  0
   -1.4668    2.3743    0.2045 C   0  0  0  0  0  0  0  0  0  0  0  0
   -2.5904    1.7233    0.6991 C   0  0  0  0  0  0  0  0  0  0  0  0
   -2.9932   -0.7769   -1.5310 H   0  0  0  0  0  0  0  0  0  0  0  0
   -0.8423    0.2977   -2.5000 H   0  0  0  0  0  0  0  0  0  0  0  0
    5.2065   -0.2812    1.2912 N   0  0  0  0  0  0  0  0  0  0  0  0
    6.2275   -0.5625    1.6079 N   0  0  0  0  0  0  0  0  0  0  0  0
   -3.1648    2.0544    1.5579 H   0  0  0  0  0  0  0  0  0  0  0  0
   -1.0201    3.2319    0.7011 H   0  0  0  0  0  0  0  0  0  0  0  0
   -3.1043    0.5974    0.0499 N   0  0  0  0  0  0  0  0  0  0  0  0
   -4.1140    0.0305    0.5135 O   0  0  0  0  0  0  0  0  0  0  0  0
  1 12  1  0  0  0  0
  2  1  2  0  0  0  0
  2  3  1  0  0  0  0
  3  4  1  0  0  0  0
  4  5  2  0  0  0  0
  4 11  1  0  0  0  0
  5 10  1  0  0  0  0
  6  1  1  0  0  0  0
  7  2  1  0  0  0  0
  8  9  3  0  0  0  0
 12 13  1  0  0  0  0
 12  5  1  0  0  0  0
M  RAD  2   3   2  13   2
M  END
