Coordinates from ORCA-job N-O-Pyridine-4-N2+-scan-d09-160-n800
 OpenBabel09191814183D

 13 12  0  0  0  0  0  0  0  0999 V2000
   -2.4907    0.1503   -1.1579 C   0  0  0  0  0  0  0  0  0  0  0  0
   -2.2392    1.1456   -2.0945 C   0  0  0  0  0  0  0  0  0  0  0  0
   -2.4872    2.3575   -1.5263 C   0  0  0  0  0  0  0  0  0  0  0  0
   -2.3432    2.8276   -0.2571 C   0  0  0  0  0  0  0  0  0  0  0  0
   -2.5922    1.7928    0.6364 C   0  0  0  0  0  0  0  0  0  0  0  0
   -2.6102   -0.9017   -1.3950 H   0  0  0  0  0  0  0  0  0  0  0  0
   -2.0555    0.9302   -3.1439 H   0  0  0  0  0  0  0  0  0  0  0  0
    6.7559   -1.2104    2.2193 N   0  0  0  0  0  0  0  0  0  0  0  0
    7.7448   -1.5431    2.5843 N   0  0  0  0  0  0  0  0  0  0  0  0
   -2.7851    1.9275    1.6956 H   0  0  0  0  0  0  0  0  0  0  0  0
   -2.2368    3.8622    0.0590 H   0  0  0  0  0  0  0  0  0  0  0  0
   -2.6788    0.4715    0.1893 N   0  0  0  0  0  0  0  0  0  0  0  0
   -2.9038   -0.4397    1.0107 O   0  0  0  0  0  0  0  0  0  0  0  0
  1 12  1  0  0  0  0
  2  3  1  0  0  0  0
  2  1  2  0  0  0  0
  3  4  1  0  0  0  0
  4 11  1  0  0  0  0
  4  5  2  0  0  0  0
  5 10  1  0  0  0  0
  6  1  1  0  0  0  0
  7  2  1  0  0  0  0
  8  9  3  0  0  0  0
 12  5  1  0  0  0  0
 12 13  1  0  0  0  0
M  RAD  2   3   2  13   2
M  END
