Coordinates from ORCA-job N-O-Pyridine-4-N2+-scan-d09-160-n800
 OpenBabel09191814183D

 13 12  0  0  0  0  0  0  0  0999 V2000
   -2.4740    0.1002   -1.1113 C   0  0  0  0  0  0  0  0  0  0  0  0
   -1.8761    1.0223   -1.9619 C   0  0  0  0  0  0  0  0  0  0  0  0
   -1.9849    2.2630   -1.4127 C   0  0  0  0  0  0  0  0  0  0  0  0
   -1.9807    2.7051   -0.1253 C   0  0  0  0  0  0  0  0  0  0  0  0
   -2.5761    1.7435    0.6822 C   0  0  0  0  0  0  0  0  0  0  0  0
   -2.7481   -0.9106   -1.3946 H   0  0  0  0  0  0  0  0  0  0  0  0
   -1.5546    0.7684   -2.9687 H   0  0  0  0  0  0  0  0  0  0  0  0
    6.0680   -0.8494    1.8531 N   0  0  0  0  0  0  0  0  0  0  0  0
    7.0654   -1.1695    2.2060 N   0  0  0  0  0  0  0  0  0  0  0  0
   -2.9239    1.9199    1.6946 H   0  0  0  0  0  0  0  0  0  0  0  0
   -1.7368    3.7020    0.2330 H   0  0  0  0  0  0  0  0  0  0  0  0
   -2.8322    0.4605    0.1907 N   0  0  0  0  0  0  0  0  0  0  0  0
   -3.3681   -0.3850    0.9349 O   0  0  0  0  0  0  0  0  0  0  0  0
  1 12  1  0  0  0  0
  2  3  1  0  0  0  0
  2  1  2  0  0  0  0
  3  4  1  0  0  0  0
  4 11  1  0  0  0  0
  4  5  2  0  0  0  0
  5 10  1  0  0  0  0
  6  1  1  0  0  0  0
  7  2  1  0  0  0  0
  8  9  3  0  0  0  0
 12  5  1  0  0  0  0
 12 13  1  0  0  0  0
M  RAD  2   3   2  13   2
M  END
