Coordinates from ORCA-job N-O-Pyridine-4-N2+-scan-d09-160-n800
 OpenBabel09191814183D

 13 12  0  0  0  0  0  0  0  0999 V2000
   -2.3886    0.0953   -1.1031 C   0  0  0  0  0  0  0  0  0  0  0  0
   -1.0284    0.3213   -1.2773 C   0  0  0  0  0  0  0  0  0  0  0  0
   -0.6798    1.4484   -0.5986 C   0  0  0  0  0  0  0  0  0  0  0  0
   -1.1276    2.0046    0.5601 C   0  0  0  0  0  0  0  0  0  0  0  0
   -2.4853    1.7382    0.6904 C   0  0  0  0  0  0  0  0  0  0  0  0
   -2.9822   -0.5790   -1.7114 H   0  0  0  0  0  0  0  0  0  0  0  0
   -0.4282   -0.2347   -1.9929 H   0  0  0  0  0  0  0  0  0  0  0  0
    4.1668    0.2231    0.7788 N   0  0  0  0  0  0  0  0  0  0  0  0
    5.2233    0.0153    1.0286 N   0  0  0  0  0  0  0  0  0  0  0  0
   -3.1489    2.2514    1.3783 H   0  0  0  0  0  0  0  0  0  0  0  0
   -0.6010    2.6990    1.2096 H   0  0  0  0  0  0  0  0  0  0  0  0
   -3.1111    0.8045   -0.1399 N   0  0  0  0  0  0  0  0  0  0  0  0
   -4.3311    0.5830   -0.0028 O   0  0  0  0  0  0  0  0  0  0  0  0
  1 12  1  0  0  0  0
  2  1  2  0  0  0  0
  2  3  1  0  0  0  0
  3  4  1  0  0  0  0
  4  5  2  0  0  0  0
  4 11  1  0  0  0  0
  5 10  1  0  0  0  0
  6  1  1  0  0  0  0
  7  2  1  0  0  0  0
  8  9  3  0  0  0  0
 12 13  1  0  0  0  0
 12  5  1  0  0  0  0
M  RAD  2   3   2  13   2
M  END
