Coordinates from ORCA-job N-O-Pyridine-4-N2+-scan-d09-160-n800
 OpenBabel09191814183D

 13 12  0  0  0  0  0  0  0  0999 V2000
   -2.5278    0.2204   -1.2233 C   0  0  0  0  0  0  0  0  0  0  0  0
   -2.6016    1.2219   -2.1838 C   0  0  0  0  0  0  0  0  0  0  0  0
   -2.9638    2.3863   -1.5789 C   0  0  0  0  0  0  0  0  0  0  0  0
   -2.7074    2.9036   -0.3462 C   0  0  0  0  0  0  0  0  0  0  0  0
   -2.6312    1.8625    0.5711 C   0  0  0  0  0  0  0  0  0  0  0  0
   -2.4997   -0.8417   -1.4430 H   0  0  0  0  0  0  0  0  0  0  0  0
   -2.5497    1.0166   -3.2500 H   0  0  0  0  0  0  0  0  0  0  0  0
    7.5164   -1.5734    2.5900 N   0  0  0  0  0  0  0  0  0  0  0  0
    8.4988   -1.9158    2.9638 N   0  0  0  0  0  0  0  0  0  0  0  0
   -2.6778    1.9869    1.6479 H   0  0  0  0  0  0  0  0  0  0  0  0
   -2.7343    3.9482   -0.0466 H   0  0  0  0  0  0  0  0  0  0  0  0
   -2.5557    0.5359    0.1379 N   0  0  0  0  0  0  0  0  0  0  0  0
   -2.4882   -0.3809    0.9809 O   0  0  0  0  0  0  0  0  0  0  0  0
  1 12  1  0  0  0  0
  2  3  1  0  0  0  0
  2  1  2  0  0  0  0
  3  4  1  0  0  0  0
  4 11  1  0  0  0  0
  4  5  2  0  0  0  0
  5 10  1  0  0  0  0
  6  1  1  0  0  0  0
  7  2  1  0  0  0  0
  8  9  3  0  0  0  0
 12  5  1  0  0  0  0
 12 13  1  0  0  0  0
M  RAD  2   3   2  13   2
M  END
