Coordinates from ORCA-job N-O-Pyridine-4-N2+-scan-d09-160-n800
 OpenBabel09191814183D

 13 12  0  0  0  0  0  0  0  0999 V2000
   -2.6007    0.4426   -1.4147 C   0  0  0  0  0  0  0  0  0  0  0  0
   -3.3567    1.2478   -2.2574 C   0  0  0  0  0  0  0  0  0  0  0  0
   -3.9304    2.2399   -1.5223 C   0  0  0  0  0  0  0  0  0  0  0  0
   -3.5165    2.9279   -0.4228 C   0  0  0  0  0  0  0  0  0  0  0  0
   -2.7568    2.0834    0.3771 C   0  0  0  0  0  0  0  0  0  0  0  0
   -2.2346   -0.5454   -1.6735 H   0  0  0  0  0  0  0  0  0  0  0  0
   -3.5701    0.9788   -3.2888 H   0  0  0  0  0  0  0  0  0  0  0  0
    9.1954   -2.3859    3.3863 N   0  0  0  0  0  0  0  0  0  0  0  0
   10.1506   -2.7664    3.7923 N   0  0  0  0  0  0  0  0  0  0  0  0
   -2.5038    2.2811    1.4134 H   0  0  0  0  0  0  0  0  0  0  0  0
   -3.8488    3.9079   -0.0899 H   0  0  0  0  0  0  0  0  0  0  0  0
   -2.3154    0.8495   -0.1086 N   0  0  0  0  0  0  0  0  0  0  0  0
   -1.6342    0.1092    0.6287 O   0  0  0  0  0  0  0  0  0  0  0  0
  1 12  1  0  0  0  0
  2  3  1  0  0  0  0
  2  1  2  0  0  0  0
  3  4  1  0  0  0  0
  4 11  1  0  0  0  0
  4  5  2  0  0  0  0
  5 10  1  0  0  0  0
  6  1  1  0  0  0  0
  7  2  1  0  0  0  0
  8  9  3  0  0  0  0
 12  5  1  0  0  0  0
 12 13  1  0  0  0  0
M  RAD  2   3   2  13   2
M  END
