Coordinates from ORCA-job N-O-Pyridine-4-N2+-scan-d09-160-n800
 OpenBabel09191814183D

 13 12  0  0  0  0  0  0  0  0999 V2000
   -2.5164    0.1887   -1.1942 C   0  0  0  0  0  0  0  0  0  0  0  0
   -2.4473    1.1947   -2.1505 C   0  0  0  0  0  0  0  0  0  0  0  0
   -2.7609    2.3822   -1.5637 C   0  0  0  0  0  0  0  0  0  0  0  0
   -2.5511    2.8763   -0.3128 C   0  0  0  0  0  0  0  0  0  0  0  0
   -2.6178    1.8309    0.6003 C   0  0  0  0  0  0  0  0  0  0  0  0
   -2.5535   -0.8721   -1.4187 H   0  0  0  0  0  0  0  0  0  0  0  0
   -2.3373    0.9878   -3.2120 H   0  0  0  0  0  0  0  0  0  0  0  0
    7.2064   -1.4207    2.4354 N   0  0  0  0  0  0  0  0  0  0  0  0
    8.1919   -1.7586    2.8052 N   0  0  0  0  0  0  0  0  0  0  0  0
   -2.7282    1.9565    1.6723 H   0  0  0  0  0  0  0  0  0  0  0  0
   -2.5183    3.9193   -0.0085 H   0  0  0  0  0  0  0  0  0  0  0  0
   -2.6143    0.5031    0.1640 N   0  0  0  0  0  0  0  0  0  0  0  0
   -2.6754   -0.4176    1.0032 O   0  0  0  0  0  0  0  0  0  0  0  0
  1 12  1  0  0  0  0
  2  3  1  0  0  0  0
  2  1  2  0  0  0  0
  3  4  1  0  0  0  0
  4 11  1  0  0  0  0
  4  5  2  0  0  0  0
  5 10  1  0  0  0  0
  6  1  1  0  0  0  0
  7  2  1  0  0  0  0
  8  9  3  0  0  0  0
 12  5  1  0  0  0  0
 12 13  1  0  0  0  0
M  RAD  2   3   2  13   2
M  END
