Coordinates from ORCA-job N-O-Pyridine-4-N2+-scan-d09-160-n800
 OpenBabel09191814183D

 13 12  0  0  0  0  0  0  0  0999 V2000
   -2.4170    0.0934   -1.1029 C   0  0  0  0  0  0  0  0  0  0  0  0
   -1.0746    0.3741   -1.3279 C   0  0  0  0  0  0  0  0  0  0  0  0
   -0.7473    1.5167   -0.6645 C   0  0  0  0  0  0  0  0  0  0  0  0
   -1.1740    2.0574    0.5095 C   0  0  0  0  0  0  0  0  0  0  0  0
   -2.5140    1.7365    0.6905 C   0  0  0  0  0  0  0  0  0  0  0  0
   -3.0048   -0.6062   -1.6877 H   0  0  0  0  0  0  0  0  0  0  0  0
   -0.4792   -0.1592   -2.0644 H   0  0  0  0  0  0  0  0  0  0  0  0
    4.3649    0.1500    0.8557 N   0  0  0  0  0  0  0  0  0  0  0  0
    5.4155   -0.0719    1.1184 N   0  0  0  0  0  0  0  0  0  0  0  0
   -3.1720    2.2243    1.4019 H   0  0  0  0  0  0  0  0  0  0  0  0
   -0.6525    2.7746    1.1379 H   0  0  0  0  0  0  0  0  0  0  0  0
   -3.1315    0.7756   -0.1146 N   0  0  0  0  0  0  0  0  0  0  0  0
   -4.3355    0.5051    0.0681 O   0  0  0  0  0  0  0  0  0  0  0  0
  1 12  1  0  0  0  0
  2  1  2  0  0  0  0
  2  3  1  0  0  0  0
  3  4  1  0  0  0  0
  4  5  2  0  0  0  0
  4 11  1  0  0  0  0
  5 10  1  0  0  0  0
  6  1  1  0  0  0  0
  7  2  1  0  0  0  0
  8  9  3  0  0  0  0
 12 13  1  0  0  0  0
 12  5  1  0  0  0  0
M  RAD  2   3   2  13   2
M  END
