Coordinates from ORCA-job N-O-Pyridine-4-N2+-scan-d09-160-n800
 OpenBabel09191814183D

 13 12  0  0  0  0  0  0  0  0999 V2000
   -2.5537    0.2755   -1.2752 C   0  0  0  0  0  0  0  0  0  0  0  0
   -2.8397    1.2506   -2.2225 C   0  0  0  0  0  0  0  0  0  0  0  0
   -3.2684    2.3742   -1.5840 C   0  0  0  0  0  0  0  0  0  0  0  0
   -2.9442    2.9312   -0.3847 C   0  0  0  0  0  0  0  0  0  0  0  0
   -2.6558    1.9171    0.5199 C   0  0  0  0  0  0  0  0  0  0  0  0
   -2.4275   -0.7791   -1.4968 H   0  0  0  0  0  0  0  0  0  0  0  0
   -2.8751    1.0395   -3.2882 H   0  0  0  0  0  0  0  0  0  0  0  0
    8.0104   -1.8095    2.8326 N   0  0  0  0  0  0  0  0  0  0  0  0
    8.9880   -2.1587    3.2127 N   0  0  0  0  0  0  0  0  0  0  0  0
   -2.6034    2.0488    1.5955 H   0  0  0  0  0  0  0  0  0  0  0  0
   -3.0573    3.9697   -0.0840 H   0  0  0  0  0  0  0  0  0  0  0  0
   -2.4766    0.6022    0.0815 N   0  0  0  0  0  0  0  0  0  0  0  0
   -2.2189   -0.2911    0.9130 O   0  0  0  0  0  0  0  0  0  0  0  0
  1 12  1  0  0  0  0
  2  3  1  0  0  0  0
  2  1  2  0  0  0  0
  3  4  1  0  0  0  0
  4 11  1  0  0  0  0
  4  5  2  0  0  0  0
  5 10  1  0  0  0  0
  6  1  1  0  0  0  0
  7  2  1  0  0  0  0
  8  9  3  0  0  0  0
 12  5  1  0  0  0  0
 12 13  1  0  0  0  0
M  RAD  2   3   2  13   2
M  END
