Coordinates from ORCA-job N-O-Pyridine-4-N2+-scan-d09-160-n800
 OpenBabel09191814183D

 13 13  0  0  0  0  0  0  0  0999 V2000
   -1.9633    0.1054   -1.0734 C   0  0  0  0  0  0  0  0  0  0  0  0
   -0.5864    0.0173   -0.9759 C   0  0  0  0  0  0  0  0  0  0  0  0
   -0.0601    0.8341   -0.0036 C   0  0  0  0  0  0  0  0  0  0  0  0
   -0.6847    1.7009    0.8612 C   0  0  0  0  0  0  0  0  0  0  0  0
   -2.0582    1.7325    0.7020 C   0  0  0  0  0  0  0  0  0  0  0  0
   -2.5557   -0.4616   -1.7803 H   0  0  0  0  0  0  0  0  0  0  0  0
   -0.0183   -0.6423   -1.6207 H   0  0  0  0  0  0  0  0  0  0  0  0
    1.7315    0.7560    0.1637 N   0  0  0  0  0  0  0  0  0  0  0  0
    2.8320    0.7081    0.2664 N   0  0  0  0  0  0  0  0  0  0  0  0
   -2.7200    2.3539    1.2919 H   0  0  0  0  0  0  0  0  0  0  0  0
   -0.1909    2.3142    1.6053 H   0  0  0  0  0  0  0  0  0  0  0  0
   -2.7032    0.9492   -0.2505 N   0  0  0  0  0  0  0  0  0  0  0  0
   -3.9447    1.0028   -0.3660 O   0  0  0  0  0  0  0  0  0  0  0  0
  1  2  2  0  0  0  0
  1 12  1  0  0  0  0
  2  3  1  0  0  0  0
  3  8  1  0  0  0  0
  3  4  2  0  0  0  0
  4 11  1  0  0  0  0
  5  4  1  0  0  0  0
  5 10  1  0  0  0  0
  6  1  1  0  0  0  0
  7  2  1  0  0  0  0
  8  9  1  0  0  0  0
 12  5  1  0  0  0  0
 13 12  1  0  0  0  0
M  RAD  3   8   2   9   3  13   2
M  END
