Coordinates from ORCA-job N-O-Pyridine-4-N2+-scan-d09-160-n800
 OpenBabel09191814183D

 13 12  0  0  0  0  0  0  0  0999 V2000
   -2.4809    0.0810   -1.0944 C   0  0  0  0  0  0  0  0  0  0  0  0
   -1.6194    0.8892   -1.8262 C   0  0  0  0  0  0  0  0  0  0  0  0
   -1.6055    2.1327   -1.2729 C   0  0  0  0  0  0  0  0  0  0  0  0
   -1.7233    2.5724    0.0100 C   0  0  0  0  0  0  0  0  0  0  0  0
   -2.5824    1.7247    0.6987 C   0  0  0  0  0  0  0  0  0  0  0  0
   -2.8706   -0.8717   -1.4372 H   0  0  0  0  0  0  0  0  0  0  0  0
   -1.1958    0.5824   -2.7791 H   0  0  0  0  0  0  0  0  0  0  0  0
    5.6392   -0.5834    1.5882 N   0  0  0  0  0  0  0  0  0  0  0  0
    6.6459   -0.8891    1.9275 N   0  0  0  0  0  0  0  0  0  0  0  0
   -3.0453    1.9595    1.6514 H   0  0  0  0  0  0  0  0  0  0  0  0
   -1.3769    3.5167    0.4220 H   0  0  0  0  0  0  0  0  0  0  0  0
   -2.9674    0.4996    0.1471 N   0  0  0  0  0  0  0  0  0  0  0  0
   -3.7398   -0.2436    0.7848 O   0  0  0  0  0  0  0  0  0  0  0  0
  1 12  1  0  0  0  0
  2  3  1  0  0  0  0
  2  1  2  0  0  0  0
  3  4  1  0  0  0  0
  4 11  1  0  0  0  0
  4  5  2  0  0  0  0
  5 10  1  0  0  0  0
  6  1  1  0  0  0  0
  7  2  1  0  0  0  0
  8  9  3  0  0  0  0
 12  5  1  0  0  0  0
 12 13  1  0  0  0  0
M  RAD  2   3   2  13   2
M  END
