Coordinates from ORCA-job N-O-Pyridine-4-N2+-scan-d09-160-n800
 OpenBabel09191814183D

 13 12  0  0  0  0  0  0  0  0999 V2000
   -2.4905    0.0788   -1.0932 C   0  0  0  0  0  0  0  0  0  0  0  0
   -1.3952    0.7197   -1.6594 C   0  0  0  0  0  0  0  0  0  0  0  0
   -1.2539    1.9440   -1.0814 C   0  0  0  0  0  0  0  0  0  0  0  0
   -1.4974    2.4028    0.1768 C   0  0  0  0  0  0  0  0  0  0  0  0
   -2.5902    1.7224    0.7000 C   0  0  0  0  0  0  0  0  0  0  0  0
   -2.9801   -0.7920   -1.5164 H   0  0  0  0  0  0  0  0  0  0  0  0
   -0.8840    0.3390   -2.5399 H   0  0  0  0  0  0  0  0  0  0  0  0
    5.2624   -0.3208    1.3302 N   0  0  0  0  0  0  0  0  0  0  0  0
    6.2813   -0.6060    1.6503 N   0  0  0  0  0  0  0  0  0  0  0  0
   -3.1519    2.0393    1.5724 H   0  0  0  0  0  0  0  0  0  0  0  0
   -1.0621    3.2732    0.6612 H   0  0  0  0  0  0  0  0  0  0  0  0
   -3.0892    0.5817    0.0651 N   0  0  0  0  0  0  0  0  0  0  0  0
   -4.0713   -0.0116    0.5543 O   0  0  0  0  0  0  0  0  0  0  0  0
  1 12  1  0  0  0  0
  2  1  2  0  0  0  0
  2  3  1  0  0  0  0
  3  4  1  0  0  0  0
  4 11  1  0  0  0  0
  4  5  2  0  0  0  0
  5 10  1  0  0  0  0
  6  1  1  0  0  0  0
  7  2  1  0  0  0  0
  8  9  3  0  0  0  0
 12 13  1  0  0  0  0
 12  5  1  0  0  0  0
M  RAD  2   3   2  13   2
M  END
