Coordinates from ORCA-job N-O-Pyridine-4-N2+-scan-d09-160-n800
 OpenBabel09191814183D

 13 12  0  0  0  0  0  0  0  0999 V2000
   -2.5597    0.2850   -1.2842 C   0  0  0  0  0  0  0  0  0  0  0  0
   -2.8777    1.2540   -2.2281 C   0  0  0  0  0  0  0  0  0  0  0  0
   -3.3139    2.3705   -1.5831 C   0  0  0  0  0  0  0  0  0  0  0  0
   -2.9819    2.9351   -0.3898 C   0  0  0  0  0  0  0  0  0  0  0  0
   -2.6615    1.9265    0.5109 C   0  0  0  0  0  0  0  0  0  0  0  0
   -2.4196   -0.7677   -1.5065 H   0  0  0  0  0  0  0  0  0  0  0  0
   -2.9271    1.0414   -3.2930 H   0  0  0  0  0  0  0  0  0  0  0  0
    8.0956   -1.8486    2.8730 N   0  0  0  0  0  0  0  0  0  0  0  0
    9.0725   -2.1987    3.2539 N   0  0  0  0  0  0  0  0  0  0  0  0
   -2.5950    2.0598    1.5856 H   0  0  0  0  0  0  0  0  0  0  0  0
   -3.1089    3.9717   -0.0883 H   0  0  0  0  0  0  0  0  0  0  0  0
   -2.4658    0.6145    0.0707 N   0  0  0  0  0  0  0  0  0  0  0  0
   -2.1791   -0.2732    0.8987 O   0  0  0  0  0  0  0  0  0  0  0  0
  1 12  1  0  0  0  0
  2  3  1  0  0  0  0
  2  1  2  0  0  0  0
  3  4  1  0  0  0  0
  4 11  1  0  0  0  0
  4  5  2  0  0  0  0
  5 10  1  0  0  0  0
  6  1  1  0  0  0  0
  7  2  1  0  0  0  0
  8  9  3  0  0  0  0
 12  5  1  0  0  0  0
 12 13  1  0  0  0  0
M  RAD  2   3   2  13   2
M  END
