Coordinates from ORCA-job N-O-Pyridine-4-N2+-scan-d09-160-n800
 OpenBabel09191814183D

 13 12  0  0  0  0  0  0  0  0999 V2000
   -2.4843    0.0831   -1.0969 C   0  0  0  0  0  0  0  0  0  0  0  0
   -1.2767    0.6030   -1.5470 C   0  0  0  0  0  0  0  0  0  0  0  0
   -1.0627    1.8044   -0.9438 C   0  0  0  0  0  0  0  0  0  0  0  0
   -1.3778    2.2863    0.2897 C   0  0  0  0  0  0  0  0  0  0  0  0
   -2.5830    1.7265    0.6963 C   0  0  0  0  0  0  0  0  0  0  0  0
   -3.0205   -0.7294   -1.5759 H   0  0  0  0  0  0  0  0  0  0  0  0
   -0.7252    0.1704   -2.3778 H   0  0  0  0  0  0  0  0  0  0  0  0
    5.0141   -0.1596    1.1708 N   0  0  0  0  0  0  0  0  0  0  0  0
    6.0418   -0.4287    1.4765 N   0  0  0  0  0  0  0  0  0  0  0  0
   -3.1906    2.1017    1.5132 H   0  0  0  0  0  0  0  0  0  0  0  0
   -0.9014    3.1045    0.8237 H   0  0  0  0  0  0  0  0  0  0  0  0
   -3.1363    0.6464    0.0033 N   0  0  0  0  0  0  0  0  0  0  0  0
   -4.2195    0.1618    0.3878 O   0  0  0  0  0  0  0  0  0  0  0  0
  1 12  1  0  0  0  0
  2  1  2  0  0  0  0
  2  3  1  0  0  0  0
  3  4  1  0  0  0  0
  4  5  2  0  0  0  0
  4 11  1  0  0  0  0
  5 10  1  0  0  0  0
  6  1  1  0  0  0  0
  7  2  1  0  0  0  0
  8  9  3  0  0  0  0
 12 13  1  0  0  0  0
 12  5  1  0  0  0  0
M  RAD  2   3   2  13   2
M  END
