Coordinates from ORCA-job N-O-Pyridine-4-N2+-scan-d09-160-n800
 OpenBabel09191814183D

 13 12  0  0  0  0  0  0  0  0999 V2000
   -2.4881    0.0777   -1.0920 C   0  0  0  0  0  0  0  0  0  0  0  0
   -1.4453    0.7639   -1.7025 C   0  0  0  0  0  0  0  0  0  0  0  0
   -1.3346    1.9951   -1.1325 C   0  0  0  0  0  0  0  0  0  0  0  0
   -1.5478    2.4471    0.1337 C   0  0  0  0  0  0  0  0  0  0  0  0
   -2.5882    1.7214    0.7011 C   0  0  0  0  0  0  0  0  0  0  0  0
   -2.9556   -0.8150   -1.4940 H   0  0  0  0  0  0  0  0  0  0  0  0
   -0.9535    0.4030   -2.6021 H   0  0  0  0  0  0  0  0  0  0  0  0
    5.3471   -0.3836    1.3916 N   0  0  0  0  0  0  0  0  0  0  0  0
    6.3627   -0.6746    1.7171 N   0  0  0  0  0  0  0  0  0  0  0  0
   -3.1281    2.0163    1.5948 H   0  0  0  0  0  0  0  0  0  0  0  0
   -1.1323    3.3372    0.5990 H   0  0  0  0  0  0  0  0  0  0  0  0
   -3.0617    0.5579    0.0884 N   0  0  0  0  0  0  0  0  0  0  0  0
   -3.9967   -0.0760    0.6173 O   0  0  0  0  0  0  0  0  0  0  0  0
  1 12  1  0  0  0  0
  2  3  1  0  0  0  0
  2  1  2  0  0  0  0
  3  4  1  0  0  0  0
  4 11  1  0  0  0  0
  4  5  2  0  0  0  0
  5 10  1  0  0  0  0
  6  1  1  0  0  0  0
  7  2  1  0  0  0  0
  8  9  3  0  0  0  0
 12 13  1  0  0  0  0
 12  5  1  0  0  0  0
M  RAD  2   3   2  13   2
M  END
