Coordinates from ORCA-job N-O-Pyridine-4-N2+-scan-d09-160-n800
 OpenBabel09191814183D

 13 12  0  0  0  0  0  0  0  0999 V2000
   -2.2953    0.0958   -1.0985 C   0  0  0  0  0  0  0  0  0  0  0  0
   -0.9119    0.2099   -1.1696 C   0  0  0  0  0  0  0  0  0  0  0  0
   -0.5245    1.3030   -0.4576 C   0  0  0  0  0  0  0  0  0  0  0  0
   -1.0107    1.8933    0.6681 C   0  0  0  0  0  0  0  0  0  0  0  0
   -2.3916    1.7385    0.6948 C   0  0  0  0  0  0  0  0  0  0  0  0
   -2.8947   -0.5269   -1.7542 H   0  0  0  0  0  0  0  0  0  0  0  0
   -0.3069   -0.3923   -1.8423 H   0  0  0  0  0  0  0  0  0  0  0  0
    3.5904    0.3913    0.5957 N   0  0  0  0  0  0  0  0  0  0  0  0
    4.6588    0.2142    0.8164 N   0  0  0  0  0  0  0  0  0  0  0  0
   -3.0607    2.3032    1.3355 H   0  0  0  0  0  0  0  0  0  0  0  0
   -0.4789    2.5411    1.3601 H   0  0  0  0  0  0  0  0  0  0  0  0
   -3.0276    0.8602   -0.1865 N   0  0  0  0  0  0  0  0  0  0  0  0
   -4.2685    0.7390   -0.1421 O   0  0  0  0  0  0  0  0  0  0  0  0
  1 12  1  0  0  0  0
  2  1  2  0  0  0  0
  2  3  1  0  0  0  0
  3  4  1  0  0  0  0
  4  5  2  0  0  0  0
  4 11  1  0  0  0  0
  5 10  1  0  0  0  0
  6  1  1  0  0  0  0
  7  2  1  0  0  0  0
  8  9  3  0  0  0  0
 12 13  1  0  0  0  0
 12  5  1  0  0  0  0
M  RAD  2   3   2  13   2
M  END
