Coordinates from ORCA-job N-O-Pyridine-4-N2+-scan-d09-160-n800
 OpenBabel09191814183D

 13 12  0  0  0  0  0  0  0  0999 V2000
   -2.5460    0.2608   -1.2613 C   0  0  0  0  0  0  0  0  0  0  0  0
   -2.7799    1.2447   -2.2143 C   0  0  0  0  0  0  0  0  0  0  0  0
   -3.1916    2.3789   -1.5843 C   0  0  0  0  0  0  0  0  0  0  0  0
   -2.8847    2.9260   -0.3762 C   0  0  0  0  0  0  0  0  0  0  0  0
   -2.6483    1.9025    0.5336 C   0  0  0  0  0  0  0  0  0  0  0  0
   -2.4446   -0.7968   -1.4812 H   0  0  0  0  0  0  0  0  0  0  0  0
   -2.7943    1.0361   -3.2810 H   0  0  0  0  0  0  0  0  0  0  0  0
    7.8818   -1.7491    2.7705 N   0  0  0  0  0  0  0  0  0  0  0  0
    8.8605   -2.0967    3.1491 N   0  0  0  0  0  0  0  0  0  0  0  0
   -2.6209    2.0310    1.6106 H   0  0  0  0  0  0  0  0  0  0  0  0
   -2.9771    3.9668   -0.0768 H   0  0  0  0  0  0  0  0  0  0  0  0
   -2.4941    0.5837    0.0975 N   0  0  0  0  0  0  0  0  0  0  0  0
   -2.2828   -0.3174    0.9337 O   0  0  0  0  0  0  0  0  0  0  0  0
  1 12  1  0  0  0  0
  2  3  1  0  0  0  0
  2  1  2  0  0  0  0
  3  4  1  0  0  0  0
  4 11  1  0  0  0  0
  4  5  2  0  0  0  0
  5 10  1  0  0  0  0
  6  1  1  0  0  0  0
  7  2  1  0  0  0  0
  8  9  3  0  0  0  0
 12  5  1  0  0  0  0
 12 13  1  0  0  0  0
M  RAD  2   3   2  13   2
M  END
