Coordinates from ORCA-job N-O-Pyridine-4-N2+-scan-d09-160-n800
 OpenBabel09191814183D

 13 12  0  0  0  0  0  0  0  0999 V2000
   -2.0312    0.0889   -1.0708 C   0  0  0  0  0  0  0  0  0  0  0  0
   -0.6438    0.0642   -1.0218 C   0  0  0  0  0  0  0  0  0  0  0  0
   -0.1871    1.0790   -0.2348 C   0  0  0  0  0  0  0  0  0  0  0  0
   -0.7421    1.7472    0.8157 C   0  0  0  0  0  0  0  0  0  0  0  0
   -2.1267    1.7243    0.7147 C   0  0  0  0  0  0  0  0  0  0  0  0
   -2.6257   -0.4815   -1.7755 H   0  0  0  0  0  0  0  0  0  0  0  0
   -0.0541   -0.5920   -1.6534 H   0  0  0  0  0  0  0  0  0  0  0  0
    2.0959    0.6435    0.2863 N   0  0  0  0  0  0  0  0  0  0  0  0
    3.1915    0.5733    0.4092 N   0  0  0  0  0  0  0  0  0  0  0  0
   -2.7907    2.3427    1.3080 H   0  0  0  0  0  0  0  0  0  0  0  0
   -0.2259    2.3483    1.5568 H   0  0  0  0  0  0  0  0  0  0  0  0
   -2.7676    0.9150   -0.2227 N   0  0  0  0  0  0  0  0  0  0  0  0
   -4.0144    0.9176   -0.2917 O   0  0  0  0  0  0  0  0  0  0  0  0
  1  2  2  0  0  0  0
  1 12  1  0  0  0  0
  2  3  1  0  0  0  0
  3  4  1  0  0  0  0
  4 11  1  0  0  0  0
  5  4  2  0  0  0  0
  5 10  1  0  0  0  0
  6  1  1  0  0  0  0
  7  2  1  0  0  0  0
  8  9  3  0  0  0  0
 12  5  1  0  0  0  0
 13 12  1  0  0  0  0
M  RAD  2   3   2  13   2
M  END
