Coordinates from ORCA-job N-O-Pyridine-4-N2+-scan-d09-160-n800
 OpenBabel09191814183D

 13 12  0  0  0  0  0  0  0  0999 V2000
   -2.0575    0.0877   -1.0733 C   0  0  0  0  0  0  0  0  0  0  0  0
   -0.6689    0.0773   -1.0353 C   0  0  0  0  0  0  0  0  0  0  0  0
   -0.2279    1.1101   -0.2655 C   0  0  0  0  0  0  0  0  0  0  0  0
   -0.7672    1.7604    0.8023 C   0  0  0  0  0  0  0  0  0  0  0  0
   -2.1532    1.7252    0.7146 C   0  0  0  0  0  0  0  0  0  0  0  0
   -2.6532   -0.4851   -1.7754 H   0  0  0  0  0  0  0  0  0  0  0  0
   -0.0739   -0.5736   -1.6681 H   0  0  0  0  0  0  0  0  0  0  0  0
    2.2439    0.6301    0.3064 N   0  0  0  0  0  0  0  0  0  0  0  0
    3.3332    0.5271    0.4591 N   0  0  0  0  0  0  0  0  0  0  0  0
   -2.8183    2.3409    1.3100 H   0  0  0  0  0  0  0  0  0  0  0  0
   -0.2455    2.3635    1.5387 H   0  0  0  0  0  0  0  0  0  0  0  0
   -2.7932    0.9085   -0.2181 N   0  0  0  0  0  0  0  0  0  0  0  0
   -4.0404    0.8983   -0.2754 O   0  0  0  0  0  0  0  0  0  0  0  0
  1  2  2  0  0  0  0
  1 12  1  0  0  0  0
  2  3  1  0  0  0  0
  3  4  1  0  0  0  0
  4 11  1  0  0  0  0
  5  4  2  0  0  0  0
  5 10  1  0  0  0  0
  6  1  1  0  0  0  0
  7  2  1  0  0  0  0
  8  9  3  0  0  0  0
 12  5  1  0  0  0  0
 13 12  1  0  0  0  0
M  RAD  2   3   2  13   2
M  END
