Coordinates from ORCA-job N-O-Pyridine-4-N2+-scan-d09-160-n800
 OpenBabel09191814183D

 13 12  0  0  0  0  0  0  0  0999 V2000
   -2.4898    0.0808   -1.0952 C   0  0  0  0  0  0  0  0  0  0  0  0
   -1.3315    0.6588   -1.6005 C   0  0  0  0  0  0  0  0  0  0  0  0
   -1.1509    1.8721   -1.0102 C   0  0  0  0  0  0  0  0  0  0  0  0
   -1.4333    2.3420    0.2358 C   0  0  0  0  0  0  0  0  0  0  0  0
   -2.5892    1.7245    0.6980 C   0  0  0  0  0  0  0  0  0  0  0  0
   -3.0054   -0.7599   -1.5474 H   0  0  0  0  0  0  0  0  0  0  0  0
   -0.7969    0.2508   -2.4544 H   0  0  0  0  0  0  0  0  0  0  0  0
    5.1395   -0.2363    1.2467 N   0  0  0  0  0  0  0  0  0  0  0  0
    6.1628   -0.5134    1.5596 N   0  0  0  0  0  0  0  0  0  0  0  0
   -3.1767    2.0716    1.5415 H   0  0  0  0  0  0  0  0  0  0  0  0
   -0.9743    3.1848    0.7464 H   0  0  0  0  0  0  0  0  0  0  0  0
   -3.1188    0.6156    0.0325 N   0  0  0  0  0  0  0  0  0  0  0  0
   -4.1576    0.0789    0.4668 O   0  0  0  0  0  0  0  0  0  0  0  0
  1 12  1  0  0  0  0
  2  1  2  0  0  0  0
  2  3  1  0  0  0  0
  3  4  1  0  0  0  0
  4  5  2  0  0  0  0
  4 11  1  0  0  0  0
  5 10  1  0  0  0  0
  6  1  1  0  0  0  0
  7  2  1  0  0  0  0
  8  9  3  0  0  0  0
 12 13  1  0  0  0  0
 12  5  1  0  0  0  0
M  RAD  2   3   2  13   2
M  END
