Coordinates from ORCA-job N-O-Pyridine-4-N2+-scan-d09-160-n800
 OpenBabel09191814183D

 13 12  0  0  0  0  0  0  0  0999 V2000
   -2.4722    0.0861   -1.0990 C   0  0  0  0  0  0  0  0  0  0  0  0
   -1.2150    0.5366   -1.4833 C   0  0  0  0  0  0  0  0  0  0  0  0
   -0.9645    1.7226   -0.8639 C   0  0  0  0  0  0  0  0  0  0  0  0
   -1.3156    2.2199    0.3536 C   0  0  0  0  0  0  0  0  0  0  0  0
   -2.5704    1.7294    0.6942 C   0  0  0  0  0  0  0  0  0  0  0  0
   -3.0282   -0.6935   -1.6092 H   0  0  0  0  0  0  0  0  0  0  0  0
   -0.6465    0.0746   -2.2863 H   0  0  0  0  0  0  0  0  0  0  0  0
    4.8492   -0.0696    1.0805 N   0  0  0  0  0  0  0  0  0  0  0  0
    5.8830   -0.3271    1.3754 N   0  0  0  0  0  0  0  0  0  0  0  0
   -3.1974    2.1374    1.4800 H   0  0  0  0  0  0  0  0  0  0  0  0
   -0.8219    3.0087    0.9154 H   0  0  0  0  0  0  0  0  0  0  0  0
   -3.1476    0.6840   -0.0317 N   0  0  0  0  0  0  0  0  0  0  0  0
   -4.2750    0.2612    0.2940 O   0  0  0  0  0  0  0  0  0  0  0  0
  1 12  1  0  0  0  0
  2  1  2  0  0  0  0
  2  3  1  0  0  0  0
  3  4  1  0  0  0  0
  4  5  2  0  0  0  0
  4 11  1  0  0  0  0
  5 10  1  0  0  0  0
  6  1  1  0  0  0  0
  7  2  1  0  0  0  0
  8  9  3  0  0  0  0
 12 13  1  0  0  0  0
 12  5  1  0  0  0  0
M  RAD  2   3   2  13   2
M  END
