Coordinates from ORCA-job N-O-Pyridine-4-N2+-scan-d09-160-n800
 OpenBabel09191814183D

 13 12  0  0  0  0  0  0  0  0999 V2000
   -2.4777    0.0834   -1.0964 C   0  0  0  0  0  0  0  0  0  0  0  0
   -1.6713    0.9207   -1.8576 C   0  0  0  0  0  0  0  0  0  0  0  0
   -1.6848    2.1656   -1.3072 C   0  0  0  0  0  0  0  0  0  0  0  0
   -1.7753    2.6036   -0.0216 C   0  0  0  0  0  0  0  0  0  0  0  0
   -2.5793    1.7271    0.6969 C   0  0  0  0  0  0  0  0  0  0  0  0
   -2.8430   -0.8842   -1.4244 H   0  0  0  0  0  0  0  0  0  0  0  0
   -1.2683    0.6272   -2.8236 H   0  0  0  0  0  0  0  0  0  0  0  0
    5.7198   -0.6386    1.6427 N   0  0  0  0  0  0  0  0  0  0  0  0
    6.7242   -0.9479    1.9854 N   0  0  0  0  0  0  0  0  0  0  0  0
   -3.0180    1.9471    1.6645 H   0  0  0  0  0  0  0  0  0  0  0  0
   -1.4496    3.5610    0.3772 H   0  0  0  0  0  0  0  0  0  0  0  0
   -2.9378    0.4874    0.1600 N   0  0  0  0  0  0  0  0  0  0  0  0
   -3.6609   -0.2818    0.8241 O   0  0  0  0  0  0  0  0  0  0  0  0
  1 12  1  0  0  0  0
  2  3  1  0  0  0  0
  2  1  2  0  0  0  0
  3  4  1  0  0  0  0
  4 11  1  0  0  0  0
  4  5  2  0  0  0  0
  5 10  1  0  0  0  0
  6  1  1  0  0  0  0
  7  2  1  0  0  0  0
  8  9  3  0  0  0  0
 12  5  1  0  0  0  0
 12 13  1  0  0  0  0
M  RAD  2   3   2  13   2
M  END
