Coordinates from ORCA-job N-O-Pyridine-4-N2+-scan-d09-160-n800
 OpenBabel09191814183D

 13 12  0  0  0  0  0  0  0  0999 V2000
   -2.5720    0.3343   -1.3298 C   0  0  0  0  0  0  0  0  0  0  0  0
   -3.0620    1.2597   -2.2429 C   0  0  0  0  0  0  0  0  0  0  0  0
   -3.5469    2.3355   -1.5639 C   0  0  0  0  0  0  0  0  0  0  0  0
   -3.1668    2.9400   -0.4047 C   0  0  0  0  0  0  0  0  0  0  0  0
   -2.6744    1.9756    0.4657 C   0  0  0  0  0  0  0  0  0  0  0  0
   -2.3512   -0.7021   -1.5625 H   0  0  0  0  0  0  0  0  0  0  0  0
   -3.1828    1.0330   -3.2992 H   0  0  0  0  0  0  0  0  0  0  0  0
    8.4522   -2.0253    3.0524 N   0  0  0  0  0  0  0  0  0  0  0  0
    9.4197   -2.3879    3.4454 N   0  0  0  0  0  0  0  0  0  0  0  0
   -2.5275    2.1250    1.5302 H   0  0  0  0  0  0  0  0  0  0  0  0
   -3.3655    3.9627   -0.0943 H   0  0  0  0  0  0  0  0  0  0  0  0
   -2.3931    0.6841    0.0115 N   0  0  0  0  0  0  0  0  0  0  0  0
   -1.9518   -0.1643    0.8122 O   0  0  0  0  0  0  0  0  0  0  0  0
  1 12  1  0  0  0  0
  2  3  1  0  0  0  0
  2  1  2  0  0  0  0
  3  4  1  0  0  0  0
  4 11  1  0  0  0  0
  4  5  2  0  0  0  0
  5 10  1  0  0  0  0
  6  1  1  0  0  0  0
  7  2  1  0  0  0  0
  8  9  3  0  0  0  0
 12  5  1  0  0  0  0
 12 13  1  0  0  0  0
M  RAD  2   3   2  13   2
M  END
