Coordinates from ORCA-job N-O-Pyridine-4-N2+-scan-d09-160-n800
 OpenBabel09191814183D

 13 12  0  0  0  0  0  0  0  0999 V2000
   -2.0364    0.0885   -1.0713 C   0  0  0  0  0  0  0  0  0  0  0  0
   -0.6488    0.0664   -1.0242 C   0  0  0  0  0  0  0  0  0  0  0  0
   -0.1957    1.0855   -0.2412 C   0  0  0  0  0  0  0  0  0  0  0  0
   -0.7471    1.7494    0.8134 C   0  0  0  0  0  0  0  0  0  0  0  0
   -2.1320    1.7244    0.7148 C   0  0  0  0  0  0  0  0  0  0  0  0
   -2.6311   -0.4819   -1.7759 H   0  0  0  0  0  0  0  0  0  0  0  0
   -0.0579   -0.5886   -1.6559 H   0  0  0  0  0  0  0  0  0  0  0  0
    2.1254    0.6421    0.2891 N   0  0  0  0  0  0  0  0  0  0  0  0
    3.2196    0.5634    0.4197 N   0  0  0  0  0  0  0  0  0  0  0  0
   -2.7961    2.3428    1.3081 H   0  0  0  0  0  0  0  0  0  0  0  0
   -0.2297    2.3509    1.5535 H   0  0  0  0  0  0  0  0  0  0  0  0
   -2.7727    0.9136   -0.2217 N   0  0  0  0  0  0  0  0  0  0  0  0
   -4.0196    0.9137   -0.2885 O   0  0  0  0  0  0  0  0  0  0  0  0
  1  2  2  0  0  0  0
  1 12  1  0  0  0  0
  2  3  1  0  0  0  0
  3  4  1  0  0  0  0
  4 11  1  0  0  0  0
  5  4  2  0  0  0  0
  5 10  1  0  0  0  0
  6  1  1  0  0  0  0
  7  2  1  0  0  0  0
  8  9  3  0  0  0  0
 12  5  1  0  0  0  0
 13 12  1  0  0  0  0
M  RAD  2   3   2  13   2
M  END
