Coordinates from ORCA-job N-O-Pyridine-4-N2+-scan-d09-160-n800
 OpenBabel09191814183D

 13 12  0  0  0  0  0  0  0  0999 V2000
   -2.6615    0.6196   -1.5908 C   0  0  0  0  0  0  0  0  0  0  0  0
   -3.7967    1.1544   -2.1876 C   0  0  0  0  0  0  0  0  0  0  0  0
   -4.4040    1.9952   -1.3058 C   0  0  0  0  0  0  0  0  0  0  0  0
   -3.9198    2.8213   -0.3380 C   0  0  0  0  0  0  0  0  0  0  0  0
   -2.7818    2.2474    0.2155 C   0  0  0  0  0  0  0  0  0  0  0  0
   -2.1249   -0.2487   -1.9584 H   0  0  0  0  0  0  0  0  0  0  0  0
   -4.1896    0.7877   -3.1324 H   0  0  0  0  0  0  0  0  0  0  0  0
   10.0460   -2.8209    3.8455 N   0  0  0  0  0  0  0  0  0  0  0  0
   10.9609   -3.2404    4.3027 N   0  0  0  0  0  0  0  0  0  0  0  0
   -2.3320    2.5557    1.1534 H   0  0  0  0  0  0  0  0  0  0  0  0
   -4.4042    3.6939    0.0925 H   0  0  0  0  0  0  0  0  0  0  0  0
   -2.1677    1.1513   -0.3965 N   0  0  0  0  0  0  0  0  0  0  0  0
   -1.1470    0.6540    0.1197 O   0  0  0  0  0  0  0  0  0  0  0  0
  1 12  1  0  0  0  0
  2  1  2  0  0  0  0
  2  3  1  0  0  0  0
  3  4  1  0  0  0  0
  4 11  1  0  0  0  0
  4  5  2  0  0  0  0
  5 10  1  0  0  0  0
  6  1  1  0  0  0  0
  7  2  1  0  0  0  0
  8  9  3  0  0  0  0
 12 13  1  0  0  0  0
 12  5  1  0  0  0  0
M  RAD  2   3   2  13   2
M  END
