Coordinates from ORCA-job N-O-Pyridine-4-N2+-scan-d09-160-n800
 OpenBabel09191814183D

 13 12  0  0  0  0  0  0  0  0999 V2000
   -2.1363    0.0886   -1.0820 C   0  0  0  0  0  0  0  0  0  0  0  0
   -0.7467    0.1174   -1.0764 C   0  0  0  0  0  0  0  0  0  0  0  0
   -0.3311    1.1785   -0.3336 C   0  0  0  0  0  0  0  0  0  0  0  0
   -0.8451    1.8007    0.7615 C   0  0  0  0  0  0  0  0  0  0  0  0
   -2.2322    1.7298    0.7098 C   0  0  0  0  0  0  0  0  0  0  0  0
   -2.7347   -0.4972   -1.7716 H   0  0  0  0  0  0  0  0  0  0  0  0
   -0.1435   -0.5192   -1.7177 H   0  0  0  0  0  0  0  0  0  0  0  0
    2.6869    0.5666    0.3881 N   0  0  0  0  0  0  0  0  0  0  0  0
    3.7643    0.4172    0.5829 N   0  0  0  0  0  0  0  0  0  0  0  0
   -2.9000    2.3316    1.3169 H   0  0  0  0  0  0  0  0  0  0  0  0
   -0.3149    2.4139    1.4848 H   0  0  0  0  0  0  0  0  0  0  0  0
   -2.8709    0.8936   -0.2086 N   0  0  0  0  0  0  0  0  0  0  0  0
   -4.1179    0.8487   -0.2341 O   0  0  0  0  0  0  0  0  0  0  0  0
  1  2  2  0  0  0  0
  1 12  1  0  0  0  0
  2  3  1  0  0  0  0
  3  4  1  0  0  0  0
  4 11  1  0  0  0  0
  5  4  2  0  0  0  0
  5 10  1  0  0  0  0
  6  1  1  0  0  0  0
  7  2  1  0  0  0  0
  8  9  3  0  0  0  0
 12  5  1  0  0  0  0
 13 12  1  0  0  0  0
M  RAD  2   3   2  13   2
M  END
