Coordinates from ORCA-job N-O-Pyridine-4-N2+-scan-d09-160-n800
 OpenBabel09191814183D

 13 12  0  0  0  0  0  0  0  0999 V2000
   -2.4819    0.0804   -1.0939 C   0  0  0  0  0  0  0  0  0  0  0  0
   -1.6040    0.8794   -1.8164 C   0  0  0  0  0  0  0  0  0  0  0  0
   -1.5820    2.1224   -1.2621 C   0  0  0  0  0  0  0  0  0  0  0  0
   -1.7078    2.5626    0.0198 C   0  0  0  0  0  0  0  0  0  0  0  0
   -2.5833    1.7241    0.6991 C   0  0  0  0  0  0  0  0  0  0  0  0
   -2.8786   -0.8677   -1.4413 H   0  0  0  0  0  0  0  0  0  0  0  0
   -1.1742    0.5684   -2.7651 H   0  0  0  0  0  0  0  0  0  0  0  0
    5.6152   -0.5667    1.5718 N   0  0  0  0  0  0  0  0  0  0  0  0
    6.6226   -0.8713    1.9100 N   0  0  0  0  0  0  0  0  0  0  0  0
   -3.0532    1.9635    1.6473 H   0  0  0  0  0  0  0  0  0  0  0  0
   -1.3551    3.5028    0.4359 H   0  0  0  0  0  0  0  0  0  0  0  0
   -2.9763    0.5038    0.1428 N   0  0  0  0  0  0  0  0  0  0  0  0
   -3.7635   -0.2312    0.7721 O   0  0  0  0  0  0  0  0  0  0  0  0
  1 12  1  0  0  0  0
  2  3  1  0  0  0  0
  2  1  2  0  0  0  0
  3  4  1  0  0  0  0
  4 11  1  0  0  0  0
  4  5  2  0  0  0  0
  5 10  1  0  0  0  0
  6  1  1  0  0  0  0
  7  2  1  0  0  0  0
  8  9  3  0  0  0  0
 12  5  1  0  0  0  0
 12 13  1  0  0  0  0
M  RAD  2   3   2  13   2
M  END
