Coordinates from ORCA-job N-O-Pyridine-4-N2+-scan-d09-160-n800
 OpenBabel09191814183D

 13 12  0  0  0  0  0  0  0  0999 V2000
   -2.5096    0.1754   -1.1816 C   0  0  0  0  0  0  0  0  0  0  0  0
   -2.3768    1.1797   -2.1330 C   0  0  0  0  0  0  0  0  0  0  0  0
   -2.6683    2.3763   -1.5535 C   0  0  0  0  0  0  0  0  0  0  0  0
   -2.4812    2.8615   -0.2955 C   0  0  0  0  0  0  0  0  0  0  0  0
   -2.6116    1.8178    0.6127 C   0  0  0  0  0  0  0  0  0  0  0  0
   -2.5755   -0.8833   -1.4097 H   0  0  0  0  0  0  0  0  0  0  0  0
   -2.2407    0.9706   -3.1910 H   0  0  0  0  0  0  0  0  0  0  0  0
    7.0630   -1.3511    2.3639 N   0  0  0  0  0  0  0  0  0  0  0  0
    8.0494   -1.6878    2.7324 N   0  0  0  0  0  0  0  0  0  0  0  0
   -2.7512    1.9457    1.6810 H   0  0  0  0  0  0  0  0  0  0  0  0
   -2.4227    3.9024    0.0122 H   0  0  0  0  0  0  0  0  0  0  0  0
   -2.6393    0.4912    0.1736 N   0  0  0  0  0  0  0  0  0  0  0  0
   -2.7576   -0.4280    1.0083 O   0  0  0  0  0  0  0  0  0  0  0  0
  1 12  1  0  0  0  0
  2  3  1  0  0  0  0
  2  1  2  0  0  0  0
  3  4  1  0  0  0  0
  4 11  1  0  0  0  0
  4  5  2  0  0  0  0
  5 10  1  0  0  0  0
  6  1  1  0  0  0  0
  7  2  1  0  0  0  0
  8  9  3  0  0  0  0
 12  5  1  0  0  0  0
 12 13  1  0  0  0  0
M  RAD  2   3   2  13   2
M  END
