Coordinates from ORCA-job N-O-Pyridine-4-N2+-scan-d09-160-n800
 OpenBabel09191814183D

 13 12  0  0  0  0  0  0  0  0999 V2000
   -2.5737    0.4030   -1.3752 C   0  0  0  0  0  0  0  0  0  0  0  0
   -3.2348    1.2512   -2.2548 C   0  0  0  0  0  0  0  0  0  0  0  0
   -3.7919    2.2727   -1.5479 C   0  0  0  0  0  0  0  0  0  0  0  0
   -3.4024    2.9344   -0.4236 C   0  0  0  0  0  0  0  0  0  0  0  0
   -2.7373    2.0468    0.4132 C   0  0  0  0  0  0  0  0  0  0  0  0
   -2.2499   -0.6036   -1.6180 H   0  0  0  0  0  0  0  0  0  0  0  0
   -3.4049    0.9966   -3.2978 H   0  0  0  0  0  0  0  0  0  0  0  0
    8.9122   -2.2593    3.2517 N   0  0  0  0  0  0  0  0  0  0  0  0
    9.8731   -2.6332    3.6503 N   0  0  0  0  0  0  0  0  0  0  0  0
   -2.5321    2.2280    1.4630 H   0  0  0  0  0  0  0  0  0  0  0  0
   -3.6972    3.9309   -0.1049 H   0  0  0  0  0  0  0  0  0  0  0  0
   -2.3395    0.7909   -0.0532 N   0  0  0  0  0  0  0  0  0  0  0  0
   -1.7435    0.0119    0.7173 O   0  0  0  0  0  0  0  0  0  0  0  0
  1 12  1  0  0  0  0
  2  3  1  0  0  0  0
  2  1  2  0  0  0  0
  3  4  1  0  0  0  0
  4 11  1  0  0  0  0
  4  5  2  0  0  0  0
  5 10  1  0  0  0  0
  6  1  1  0  0  0  0
  7  2  1  0  0  0  0
  8  9  3  0  0  0  0
 12  5  1  0  0  0  0
 12 13  1  0  0  0  0
M  RAD  2   3   2  13   2
M  END
