Coordinates from ORCA-job N-O-Pyridine-4-N2+-scan-d09-160-n800
 OpenBabel09191814183D

 13 12  0  0  0  0  0  0  0  0999 V2000
   -2.5518    0.2714   -1.2713 C   0  0  0  0  0  0  0  0  0  0  0  0
   -2.8236    1.2491   -2.2207 C   0  0  0  0  0  0  0  0  0  0  0  0
   -3.2465    2.3755   -1.5841 C   0  0  0  0  0  0  0  0  0  0  0  0
   -2.9282    2.9303   -0.3825 C   0  0  0  0  0  0  0  0  0  0  0  0
   -2.6539    1.9130    0.5236 C   0  0  0  0  0  0  0  0  0  0  0  0
   -2.4329   -0.7842   -1.4921 H   0  0  0  0  0  0  0  0  0  0  0  0
   -2.8538    1.0389   -3.2868 H   0  0  0  0  0  0  0  0  0  0  0  0
    7.9761   -1.7933    2.8159 N   0  0  0  0  0  0  0  0  0  0  0  0
    8.9540   -2.1420    3.1956 N   0  0  0  0  0  0  0  0  0  0  0  0
   -2.6089    2.0435    1.5998 H   0  0  0  0  0  0  0  0  0  0  0  0
   -3.0361    3.9694   -0.0824 H   0  0  0  0  0  0  0  0  0  0  0  0
   -2.4809    0.5971    0.0859 N   0  0  0  0  0  0  0  0  0  0  0  0
   -2.2356   -0.2984    0.9189 O   0  0  0  0  0  0  0  0  0  0  0  0
  1 12  1  0  0  0  0
  2  3  1  0  0  0  0
  2  1  2  0  0  0  0
  3  4  1  0  0  0  0
  4 11  1  0  0  0  0
  4  5  2  0  0  0  0
  5 10  1  0  0  0  0
  6  1  1  0  0  0  0
  7  2  1  0  0  0  0
  8  9  3  0  0  0  0
 12  5  1  0  0  0  0
 12 13  1  0  0  0  0
M  RAD  2   3   2  13   2
M  END
