Coordinates from ORCA-job N-O-Pyridine-4-N2+-scan-d09-160-n800
 OpenBabel09191814183D

 13 12  0  0  0  0  0  0  0  0999 V2000
   -2.4920    0.1521   -1.1596 C   0  0  0  0  0  0  0  0  0  0  0  0
   -2.2494    1.1484   -2.0975 C   0  0  0  0  0  0  0  0  0  0  0  0
   -2.5008    2.3592   -1.5286 C   0  0  0  0  0  0  0  0  0  0  0  0
   -2.3534    2.8303   -0.2601 C   0  0  0  0  0  0  0  0  0  0  0  0
   -2.5935    1.7946    0.6348 C   0  0  0  0  0  0  0  0  0  0  0  0
   -2.6075   -0.9005   -1.3959 H   0  0  0  0  0  0  0  0  0  0  0  0
   -2.0694    0.9335   -3.1477 H   0  0  0  0  0  0  0  0  0  0  0  0
    6.7783   -1.2207    2.2300 N   0  0  0  0  0  0  0  0  0  0  0  0
    7.7670   -1.5538    2.5953 N   0  0  0  0  0  0  0  0  0  0  0  0
   -2.7824    1.9286    1.6947 H   0  0  0  0  0  0  0  0  0  0  0  0
   -2.2506    3.8655    0.0552 H   0  0  0  0  0  0  0  0  0  0  0  0
   -2.6757    0.4727    0.1883 N   0  0  0  0  0  0  0  0  0  0  0  0
   -2.8927   -0.4394    1.0110 O   0  0  0  0  0  0  0  0  0  0  0  0
  1 12  1  0  0  0  0
  2  3  1  0  0  0  0
  2  1  2  0  0  0  0
  3  4  1  0  0  0  0
  4 11  1  0  0  0  0
  4  5  2  0  0  0  0
  5 10  1  0  0  0  0
  6  1  1  0  0  0  0
  7  2  1  0  0  0  0
  8  9  3  0  0  0  0
 12  5  1  0  0  0  0
 12 13  1  0  0  0  0
M  RAD  2   3   2  13   2
M  END
