Coordinates from ORCA-job N-O-Pyridine-4-N2+-scan-d09-160-n800
 OpenBabel09191814183D

 13 12  0  0  0  0  0  0  0  0999 V2000
   -2.5136    0.1835   -1.1893 C   0  0  0  0  0  0  0  0  0  0  0  0
   -2.4203    1.1891   -2.1440 C   0  0  0  0  0  0  0  0  0  0  0  0
   -2.7256    2.3802   -1.5600 C   0  0  0  0  0  0  0  0  0  0  0  0
   -2.5243    2.8708   -0.3064 C   0  0  0  0  0  0  0  0  0  0  0  0
   -2.6152    1.8258    0.6052 C   0  0  0  0  0  0  0  0  0  0  0  0
   -2.5617   -0.8766   -1.4151 H   0  0  0  0  0  0  0  0  0  0  0  0
   -2.3004    0.9815   -3.2042 H   0  0  0  0  0  0  0  0  0  0  0  0
    7.1508   -1.3940    2.4079 N   0  0  0  0  0  0  0  0  0  0  0  0
    8.1366   -1.7314    2.7772 N   0  0  0  0  0  0  0  0  0  0  0  0
   -2.7367    1.9521    1.6759 H   0  0  0  0  0  0  0  0  0  0  0  0
   -2.4817    3.9131   -0.0008 H   0  0  0  0  0  0  0  0  0  0  0  0
   -2.6236    0.4984    0.1679 N   0  0  0  0  0  0  0  0  0  0  0  0
   -2.7064   -0.4221    1.0056 O   0  0  0  0  0  0  0  0  0  0  0  0
  1 12  1  0  0  0  0
  2  3  1  0  0  0  0
  2  1  2  0  0  0  0
  3  4  1  0  0  0  0
  4 11  1  0  0  0  0
  4  5  2  0  0  0  0
  5 10  1  0  0  0  0
  6  1  1  0  0  0  0
  7  2  1  0  0  0  0
  8  9  3  0  0  0  0
 12  5  1  0  0  0  0
 12 13  1  0  0  0  0
M  RAD  2   3   2  13   2
M  END
