Coordinates from ORCA-job N-O-Pyridine-4-N2+-scan-d09-160-n800
 OpenBabel09191814183D

 13 12  0  0  0  0  0  0  0  0999 V2000
   -2.5618    0.2956   -1.2940 C   0  0  0  0  0  0  0  0  0  0  0  0
   -2.9188    1.2562   -2.2320 C   0  0  0  0  0  0  0  0  0  0  0  0
   -3.3678    2.3640   -1.5802 C   0  0  0  0  0  0  0  0  0  0  0  0
   -3.0237    2.9368   -0.3940 C   0  0  0  0  0  0  0  0  0  0  0  0
   -2.6643    1.9372    0.5013 C   0  0  0  0  0  0  0  0  0  0  0  0
   -2.4028   -0.7540   -1.5181 H   0  0  0  0  0  0  0  0  0  0  0  0
   -2.9839    1.0409   -3.2955 H   0  0  0  0  0  0  0  0  0  0  0  0
    8.1743   -1.8880    2.9126 N   0  0  0  0  0  0  0  0  0  0  0  0
    9.1491   -2.2409    3.2962 N   0  0  0  0  0  0  0  0  0  0  0  0
   -2.5793    2.0737    1.5743 H   0  0  0  0  0  0  0  0  0  0  0  0
   -3.1668    3.9709   -0.0912 H   0  0  0  0  0  0  0  0  0  0  0  0
   -2.4491    0.6291    0.0586 N   0  0  0  0  0  0  0  0  0  0  0  0
   -2.1272   -0.2510    0.8818 O   0  0  0  0  0  0  0  0  0  0  0  0
  1 12  1  0  0  0  0
  2  3  1  0  0  0  0
  2  1  2  0  0  0  0
  3  4  1  0  0  0  0
  4 11  1  0  0  0  0
  4  5  2  0  0  0  0
  5 10  1  0  0  0  0
  6  1  1  0  0  0  0
  7  2  1  0  0  0  0
  8  9  3  0  0  0  0
 12  5  1  0  0  0  0
 12 13  1  0  0  0  0
M  RAD  2   3   2  13   2
M  END
