Coordinates from ORCA-job N-O-Pyridine-4-N2+-scan-d09-160-n800
 OpenBabel09191814183D

 13 12  0  0  0  0  0  0  0  0999 V2000
   -2.6285    0.5039   -1.4755 C   0  0  0  0  0  0  0  0  0  0  0  0
   -3.5294    1.2281   -2.2466 C   0  0  0  0  0  0  0  0  0  0  0  0
   -4.1231    2.1702   -1.4633 C   0  0  0  0  0  0  0  0  0  0  0  0
   -3.6766    2.9036   -0.4067 C   0  0  0  0  0  0  0  0  0  0  0  0
   -2.7723    2.1399    0.3212 C   0  0  0  0  0  0  0  0  0  0  0  0
   -2.1980   -0.4488   -1.7657 H   0  0  0  0  0  0  0  0  0  0  0  0
   -3.8099    0.9304   -3.2537 H   0  0  0  0  0  0  0  0  0  0  0  0
    9.5519   -2.5561    3.5666 N   0  0  0  0  0  0  0  0  0  0  0  0
   10.4947   -2.9497    3.9887 N   0  0  0  0  0  0  0  0  0  0  0  0
   -2.4458    2.3698    1.3300 H   0  0  0  0  0  0  0  0  0  0  0  0
   -4.0667    3.8517   -0.0454 H   0  0  0  0  0  0  0  0  0  0  0  0
   -2.2646    0.9475   -0.2014 N   0  0  0  0  0  0  0  0  0  0  0  0
   -1.4538    0.2799    0.4715 O   0  0  0  0  0  0  0  0  0  0  0  0
  1 12  1  0  0  0  0
  2  1  2  0  0  0  0
  2  3  1  0  0  0  0
  3  4  1  0  0  0  0
  4 11  1  0  0  0  0
  4  5  2  0  0  0  0
  5 10  1  0  0  0  0
  6  1  1  0  0  0  0
  7  2  1  0  0  0  0
  8  9  3  0  0  0  0
 12  5  1  0  0  0  0
 12 13  1  0  0  0  0
M  RAD  2   3   2  13   2
M  END
