Coordinates from ORCA-job N-O-Pyridine-4-N2+-scan-d09-160-n800
 OpenBabel09191814183D

 13 12  0  0  0  0  0  0  0  0999 V2000
   -2.4742    0.0980   -1.1094 C   0  0  0  0  0  0  0  0  0  0  0  0
   -1.8548    1.0130   -1.9522 C   0  0  0  0  0  0  0  0  0  0  0  0
   -1.9541    2.2546   -1.4033 C   0  0  0  0  0  0  0  0  0  0  0  0
   -1.9592    2.6958   -0.1156 C   0  0  0  0  0  0  0  0  0  0  0  0
   -2.5762    1.7414    0.6841 C   0  0  0  0  0  0  0  0  0  0  0  0
   -2.7578   -0.9090   -1.3966 H   0  0  0  0  0  0  0  0  0  0  0  0
   -1.5248    0.7557   -2.9554 H   0  0  0  0  0  0  0  0  0  0  0  0
    6.0310   -0.8279    1.8315 N   0  0  0  0  0  0  0  0  0  0  0  0
    7.0291   -1.1470    2.1836 N   0  0  0  0  0  0  0  0  0  0  0  0
   -2.9335    1.9216    1.6925 H   0  0  0  0  0  0  0  0  0  0  0  0
   -1.7069    3.6893    0.2462 H   0  0  0  0  0  0  0  0  0  0  0  0
   -2.8428    0.4620    0.1886 N   0  0  0  0  0  0  0  0  0  0  0  0
   -3.3980   -0.3770    0.9259 O   0  0  0  0  0  0  0  0  0  0  0  0
  1 12  1  0  0  0  0
  2  3  1  0  0  0  0
  2  1  2  0  0  0  0
  3  4  1  0  0  0  0
  4 11  1  0  0  0  0
  4  5  2  0  0  0  0
  5 10  1  0  0  0  0
  6  1  1  0  0  0  0
  7  2  1  0  0  0  0
  8  9  3  0  0  0  0
 12  5  1  0  0  0  0
 12 13  1  0  0  0  0
M  RAD  2   3   2  13   2
M  END
