Coordinates from ORCA-job N-O-Pyridine-4-N2+-scan-d09-160-n800
 OpenBabel09191814183D

 13 12  0  0  0  0  0  0  0  0999 V2000
   -2.4894    0.0781   -1.0925 C   0  0  0  0  0  0  0  0  0  0  0  0
   -1.4222    0.7439   -1.6830 C   0  0  0  0  0  0  0  0  0  0  0  0
   -1.2974    1.9721   -1.1095 C   0  0  0  0  0  0  0  0  0  0  0  0
   -1.5245    2.4270    0.1533 C   0  0  0  0  0  0  0  0  0  0  0  0
   -2.5894    1.7218    0.7007 C   0  0  0  0  0  0  0  0  0  0  0  0
   -2.9673   -0.8047   -1.5041 H   0  0  0  0  0  0  0  0  0  0  0  0
   -0.9213    0.3740   -2.5740 H   0  0  0  0  0  0  0  0  0  0  0  0
    5.3091   -0.3550    1.3637 N   0  0  0  0  0  0  0  0  0  0  0  0
    6.3261   -0.6433    1.6867 N   0  0  0  0  0  0  0  0  0  0  0  0
   -3.1395    2.0266    1.5847 H   0  0  0  0  0  0  0  0  0  0  0  0
   -1.0998    3.3083    0.6271 H   0  0  0  0  0  0  0  0  0  0  0  0
   -3.0748    0.5686    0.0779 N   0  0  0  0  0  0  0  0  0  0  0  0
   -4.0318   -0.0470    0.5889 O   0  0  0  0  0  0  0  0  0  0  0  0
  1 12  1  0  0  0  0
  2  3  1  0  0  0  0
  2  1  2  0  0  0  0
  3  4  1  0  0  0  0
  4 11  1  0  0  0  0
  4  5  2  0  0  0  0
  5 10  1  0  0  0  0
  6  1  1  0  0  0  0
  7  2  1  0  0  0  0
  8  9  3  0  0  0  0
 12 13  1  0  0  0  0
 12  5  1  0  0  0  0
M  RAD  2   3   2  13   2
M  END
