Coordinates from ORCA-job N-O-Pyridine-4-N2+-scan-d09-160-n800
 OpenBabel09191814183D

 13 12  0  0  0  0  0  0  0  0999 V2000
   -2.3383    0.0964   -1.1014 C   0  0  0  0  0  0  0  0  0  0  0  0
   -0.9616    0.2521   -1.2107 C   0  0  0  0  0  0  0  0  0  0  0  0
   -0.5878    1.3582   -0.5113 C   0  0  0  0  0  0  0  0  0  0  0  0
   -1.0605    1.9354    0.6269 C   0  0  0  0  0  0  0  0  0  0  0  0
   -2.4348    1.7392    0.6920 C   0  0  0  0  0  0  0  0  0  0  0  0
   -2.9365   -0.5453   -1.7397 H   0  0  0  0  0  0  0  0  0  0  0  0
   -0.3575   -0.3330   -1.8993 H   0  0  0  0  0  0  0  0  0  0  0  0
    3.8471    0.3239    0.6703 N   0  0  0  0  0  0  0  0  0  0  0  0
    4.9113    0.1355    0.9020 N   0  0  0  0  0  0  0  0  0  0  0  0
   -3.1028    2.2850    1.3500 H   0  0  0  0  0  0  0  0  0  0  0  0
   -0.5299    2.6006    1.3032 H   0  0  0  0  0  0  0  0  0  0  0  0
   -3.0679    0.8404   -0.1705 N   0  0  0  0  0  0  0  0  0  0  0  0
   -4.3029    0.6819   -0.0918 O   0  0  0  0  0  0  0  0  0  0  0  0
  1 12  1  0  0  0  0
  2  1  2  0  0  0  0
  2  3  1  0  0  0  0
  3  4  1  0  0  0  0
  4  5  2  0  0  0  0
  4 11  1  0  0  0  0
  5 10  1  0  0  0  0
  6  1  1  0  0  0  0
  7  2  1  0  0  0  0
  8  9  3  0  0  0  0
 12 13  1  0  0  0  0
 12  5  1  0  0  0  0
M  RAD  2   3   2  13   2
M  END
