Coordinates from ORCA-job N-O-Pyridine-4-N2+-scan-d09-160-n800
 OpenBabel09191814183D

 13 12  0  0  0  0  0  0  0  0999 V2000
   -2.5618    0.3838   -1.3560 C   0  0  0  0  0  0  0  0  0  0  0  0
   -3.1718    1.2522   -2.2526 C   0  0  0  0  0  0  0  0  0  0  0  0
   -3.7197    2.2883   -1.5598 C   0  0  0  0  0  0  0  0  0  0  0  0
   -3.3437    2.9364   -0.4230 C   0  0  0  0  0  0  0  0  0  0  0  0
   -2.7295    2.0289    0.4310 C   0  0  0  0  0  0  0  0  0  0  0  0
   -2.2606   -0.6316   -1.5912 H   0  0  0  0  0  0  0  0  0  0  0  0
   -3.3188    1.0041   -3.3006 H   0  0  0  0  0  0  0  0  0  0  0  0
    8.7738   -2.1963    3.1848 N   0  0  0  0  0  0  0  0  0  0  0  0
    9.7378   -2.5668    3.5794 N   0  0  0  0  0  0  0  0  0  0  0  0
   -2.5492    2.2027    1.4866 H   0  0  0  0  0  0  0  0  0  0  0  0
   -3.6180    3.9410   -0.1111 H   0  0  0  0  0  0  0  0  0  0  0  0
   -2.3553    0.7626   -0.0266 N   0  0  0  0  0  0  0  0  0  0  0  0
   -1.8052   -0.0347    0.7591 O   0  0  0  0  0  0  0  0  0  0  0  0
  1 12  1  0  0  0  0
  2  3  1  0  0  0  0
  2  1  2  0  0  0  0
  3  4  1  0  0  0  0
  4 11  1  0  0  0  0
  4  5  2  0  0  0  0
  5 10  1  0  0  0  0
  6  1  1  0  0  0  0
  7  2  1  0  0  0  0
  8  9  3  0  0  0  0
 12  5  1  0  0  0  0
 12 13  1  0  0  0  0
M  RAD  2   3   2  13   2
M  END
