Coordinates from ORCA-job N-O-Pyridine-4-N2+-scan-d09-160-n800
 OpenBabel09191814183D

 13 12  0  0  0  0  0  0  0  0999 V2000
   -2.4572    0.0888   -1.1007 C   0  0  0  0  0  0  0  0  0  0  0  0
   -1.1643    0.4792   -1.4283 C   0  0  0  0  0  0  0  0  0  0  0  0
   -0.8847    1.6507   -0.7940 C   0  0  0  0  0  0  0  0  0  0  0  0
   -1.2646    2.1626    0.4087 C   0  0  0  0  0  0  0  0  0  0  0  0
   -2.5550    1.7320    0.6926 C   0  0  0  0  0  0  0  0  0  0  0  0
   -3.0270   -0.6624   -1.6375 H   0  0  0  0  0  0  0  0  0  0  0  0
   -0.5840   -0.0081   -2.2075 H   0  0  0  0  0  0  0  0  0  0  0  0
    4.6938    0.0078    1.0021 N   0  0  0  0  0  0  0  0  0  0  0  0
    5.7331   -0.2386    1.2868 N   0  0  0  0  0  0  0  0  0  0  0  0
   -3.1956    2.1684    1.4518 H   0  0  0  0  0  0  0  0  0  0  0  0
   -0.7588    2.9259    0.9944 H   0  0  0  0  0  0  0  0  0  0  0  0
   -3.1492    0.7166   -0.0616 N   0  0  0  0  0  0  0  0  0  0  0  0
   -4.3086    0.3475    0.2133 O   0  0  0  0  0  0  0  0  0  0  0  0
  1 12  1  0  0  0  0
  2  1  2  0  0  0  0
  2  3  1  0  0  0  0
  3  4  1  0  0  0  0
  4  5  2  0  0  0  0
  4 11  1  0  0  0  0
  5 10  1  0  0  0  0
  6  1  1  0  0  0  0
  7  2  1  0  0  0  0
  8  9  3  0  0  0  0
 12 13  1  0  0  0  0
 12  5  1  0  0  0  0
M  RAD  2   3   2  13   2
M  END
