Coordinates from ORCA-job N-O-Pyridine-4-N2+-scan-d09-160-n800
 OpenBabel09191814183D

 13 12  0  0  0  0  0  0  0  0999 V2000
   -2.5330    0.2338   -1.2359 C   0  0  0  0  0  0  0  0  0  0  0  0
   -2.6632    1.2307   -2.1948 C   0  0  0  0  0  0  0  0  0  0  0  0
   -3.0447    2.3852   -1.5823 C   0  0  0  0  0  0  0  0  0  0  0  0
   -2.7686    2.9118   -0.3574 C   0  0  0  0  0  0  0  0  0  0  0  0
   -2.6360    1.8759    0.5587 C   0  0  0  0  0  0  0  0  0  0  0  0
   -2.4783   -0.8273   -1.4554 H   0  0  0  0  0  0  0  0  0  0  0  0
   -2.6340    1.0246   -3.2617 H   0  0  0  0  0  0  0  0  0  0  0  0
    7.6388   -1.6333    2.6514 N   0  0  0  0  0  0  0  0  0  0  0  0
    8.6199   -1.9775    3.0269 N   0  0  0  0  0  0  0  0  0  0  0  0
   -2.6558    2.0014    1.6362 H   0  0  0  0  0  0  0  0  0  0  0  0
   -2.8178    3.9557   -0.0582 H   0  0  0  0  0  0  0  0  0  0  0  0
   -2.5336    0.5511    0.1252 N   0  0  0  0  0  0  0  0  0  0  0  0
   -2.4158   -0.3616    0.9671 O   0  0  0  0  0  0  0  0  0  0  0  0
  1 12  1  0  0  0  0
  2  3  1  0  0  0  0
  2  1  2  0  0  0  0
  3  4  1  0  0  0  0
  4 11  1  0  0  0  0
  4  5  2  0  0  0  0
  5 10  1  0  0  0  0
  6  1  1  0  0  0  0
  7  2  1  0  0  0  0
  8  9  3  0  0  0  0
 12  5  1  0  0  0  0
 12 13  1  0  0  0  0
M  RAD  2   3   2  13   2
M  END
