Coordinates from ORCA-job N-O-Pyridine-4-N2+-scan-d09-160-n800
 OpenBabel09191814183D

 13 12  0  0  0  0  0  0  0  0999 V2000
   -2.4830    0.1374   -1.1456 C   0  0  0  0  0  0  0  0  0  0  0  0
   -2.1607    1.1236   -2.0701 C   0  0  0  0  0  0  0  0  0  0  0  0
   -2.3819    2.3433   -1.5077 C   0  0  0  0  0  0  0  0  0  0  0  0
   -2.2649    2.8058   -0.2329 C   0  0  0  0  0  0  0  0  0  0  0  0
   -2.5848    1.7801    0.6484 C   0  0  0  0  0  0  0  0  0  0  0  0
   -2.6344   -0.9089   -1.3897 H   0  0  0  0  0  0  0  0  0  0  0  0
   -1.9485    0.9028   -3.1130 H   0  0  0  0  0  0  0  0  0  0  0  0
    6.5929   -1.1317    2.1387 N   0  0  0  0  0  0  0  0  0  0  0  0
    7.5836   -1.4620    2.5015 N   0  0  0  0  0  0  0  0  0  0  0  0
   -2.8097    1.9206    1.7005 H   0  0  0  0  0  0  0  0  0  0  0  0
   -2.1302    3.8351    0.0896 H   0  0  0  0  0  0  0  0  0  0  0  0
   -2.7060    0.4637    0.1949 N   0  0  0  0  0  0  0  0  0  0  0  0
   -2.9946   -0.4394    1.0054 O   0  0  0  0  0  0  0  0  0  0  0  0
  1 12  1  0  0  0  0
  2  3  1  0  0  0  0
  2  1  2  0  0  0  0
  3  4  1  0  0  0  0
  4 11  1  0  0  0  0
  4  5  2  0  0  0  0
  5 10  1  0  0  0  0
  6  1  1  0  0  0  0
  7  2  1  0  0  0  0
  8  9  3  0  0  0  0
 12  5  1  0  0  0  0
 12 13  1  0  0  0  0
M  RAD  2   3   2  13   2
M  END
