Coordinates from ORCA-job N-O-Pyridine-4-N2+-scan-d09-160-n800
 OpenBabel09191814183D

 13 12  0  0  0  0  0  0  0  0999 V2000
   -2.4775    0.0836   -1.0967 C   0  0  0  0  0  0  0  0  0  0  0  0
   -1.6765    0.9237   -1.8607 C   0  0  0  0  0  0  0  0  0  0  0  0
   -1.6927    2.1686   -1.3104 C   0  0  0  0  0  0  0  0  0  0  0  0
   -1.7805    2.6066   -0.0246 C   0  0  0  0  0  0  0  0  0  0  0  0
   -2.5791    1.7274    0.6966 C   0  0  0  0  0  0  0  0  0  0  0  0
   -2.8403   -0.8853   -1.4232 H   0  0  0  0  0  0  0  0  0  0  0  0
   -1.2757    0.6315   -2.8279 H   0  0  0  0  0  0  0  0  0  0  0  0
    5.7281   -0.6441    1.6482 N   0  0  0  0  0  0  0  0  0  0  0  0
    6.7323   -0.9538    1.9912 N   0  0  0  0  0  0  0  0  0  0  0  0
   -3.0153    1.9460    1.6657 H   0  0  0  0  0  0  0  0  0  0  0  0
   -1.4570    3.5652    0.3729 H   0  0  0  0  0  0  0  0  0  0  0  0
   -2.9349    0.4863    0.1612 N   0  0  0  0  0  0  0  0  0  0  0  0
   -3.6530   -0.2853    0.8278 O   0  0  0  0  0  0  0  0  0  0  0  0
  1 12  1  0  0  0  0
  2  3  1  0  0  0  0
  2  1  2  0  0  0  0
  3  4  1  0  0  0  0
  4 11  1  0  0  0  0
  4  5  2  0  0  0  0
  5 10  1  0  0  0  0
  6  1  1  0  0  0  0
  7  2  1  0  0  0  0
  8  9  3  0  0  0  0
 12  5  1  0  0  0  0
 12 13  1  0  0  0  0
M  RAD  2   3   2  13   2
M  END
