Coordinates from ORCA-job N-O-Pyridine-4-N2+-scan-d09-160-n800
 OpenBabel09191814183D

 13 12  0  0  0  0  0  0  0  0999 V2000
   -2.5170    0.1898   -1.1952 C   0  0  0  0  0  0  0  0  0  0  0  0
   -2.4527    1.1958   -2.1518 C   0  0  0  0  0  0  0  0  0  0  0  0
   -2.7679    2.3825   -1.5644 C   0  0  0  0  0  0  0  0  0  0  0  0
   -2.5565    2.8774   -0.3141 C   0  0  0  0  0  0  0  0  0  0  0  0
   -2.6183    1.8319    0.5993 C   0  0  0  0  0  0  0  0  0  0  0  0
   -2.5519   -0.8712   -1.4195 H   0  0  0  0  0  0  0  0  0  0  0  0
   -2.3446    0.9891   -3.2135 H   0  0  0  0  0  0  0  0  0  0  0  0
    7.2176   -1.4261    2.4410 N   0  0  0  0  0  0  0  0  0  0  0  0
    8.2030   -1.7641    2.8108 N   0  0  0  0  0  0  0  0  0  0  0  0
   -2.7265    1.9574    1.6716 H   0  0  0  0  0  0  0  0  0  0  0  0
   -2.5256    3.9205   -0.0100 H   0  0  0  0  0  0  0  0  0  0  0  0
   -2.6125    0.5041    0.1632 N   0  0  0  0  0  0  0  0  0  0  0  0
   -2.6693   -0.4167    1.0026 O   0  0  0  0  0  0  0  0  0  0  0  0
  1 12  1  0  0  0  0
  2  3  1  0  0  0  0
  2  1  2  0  0  0  0
  3  4  1  0  0  0  0
  4 11  1  0  0  0  0
  4  5  2  0  0  0  0
  5 10  1  0  0  0  0
  6  1  1  0  0  0  0
  7  2  1  0  0  0  0
  8  9  3  0  0  0  0
 12  5  1  0  0  0  0
 12 13  1  0  0  0  0
M  RAD  2   3   2  13   2
M  END
