Coordinates from ORCA-job N-O-Pyridine-4-N2+-scan-d09-160-n800
 OpenBabel09191814183D

 13 12  0  0  0  0  0  0  0  0999 V2000
   -2.2826    0.0954   -1.0974 C   0  0  0  0  0  0  0  0  0  0  0  0
   -0.8981    0.1999   -1.1597 C   0  0  0  0  0  0  0  0  0  0  0  0
   -0.5076    1.2898   -0.4446 C   0  0  0  0  0  0  0  0  0  0  0  0
   -0.9968    1.8832    0.6781 C   0  0  0  0  0  0  0  0  0  0  0  0
   -2.3789    1.7380    0.6959 C   0  0  0  0  0  0  0  0  0  0  0  0
   -2.8822   -0.5229   -1.7571 H   0  0  0  0  0  0  0  0  0  0  0  0
   -0.2929   -0.4063   -1.8288 H   0  0  0  0  0  0  0  0  0  0  0  0
    3.5167    0.4086    0.5760 N   0  0  0  0  0  0  0  0  0  0  0  0
    4.5860    0.2340    0.7945 N   0  0  0  0  0  0  0  0  0  0  0  0
   -3.0480    2.3072    1.3325 H   0  0  0  0  0  0  0  0  0  0  0  0
   -0.4649    2.5270    1.3736 H   0  0  0  0  0  0  0  0  0  0  0  0
   -3.0154    0.8645   -0.1897 N   0  0  0  0  0  0  0  0  0  0  0  0
   -4.2574    0.7521   -0.1534 O   0  0  0  0  0  0  0  0  0  0  0  0
  1 12  1  0  0  0  0
  2  1  2  0  0  0  0
  2  3  1  0  0  0  0
  3  4  1  0  0  0  0
  4  5  2  0  0  0  0
  4 11  1  0  0  0  0
  5 10  1  0  0  0  0
  6  1  1  0  0  0  0
  7  2  1  0  0  0  0
  8  9  3  0  0  0  0
 12 13  1  0  0  0  0
 12  5  1  0  0  0  0
M  RAD  2   3   2  13   2
M  END
