Coordinates from ORCA-job N-O-Pyridine-4-N2+-scan-d09-160-n800
 OpenBabel09191814183D

 13 12  0  0  0  0  0  0  0  0999 V2000
   -2.4763    0.0852   -1.0984 C   0  0  0  0  0  0  0  0  0  0  0  0
   -1.2326    0.5560   -1.5018 C   0  0  0  0  0  0  0  0  0  0  0  0
   -0.9925    1.7467   -0.8873 C   0  0  0  0  0  0  0  0  0  0  0  0
   -1.3334    2.2393    0.3350 C   0  0  0  0  0  0  0  0  0  0  0  0
   -2.5747    1.7286    0.6948 C   0  0  0  0  0  0  0  0  0  0  0  0
   -3.0269   -0.7040   -1.5995 H   0  0  0  0  0  0  0  0  0  0  0  0
   -0.6687    0.1026   -2.3129 H   0  0  0  0  0  0  0  0  0  0  0  0
    4.8990   -0.0958    1.1069 N   0  0  0  0  0  0  0  0  0  0  0  0
    5.9309   -0.3569    1.4051 N   0  0  0  0  0  0  0  0  0  0  0  0
   -3.1965    2.1270    1.4897 H   0  0  0  0  0  0  0  0  0  0  0  0
   -0.8444    3.0367    0.8887 H   0  0  0  0  0  0  0  0  0  0  0  0
   -3.1453    0.6730   -0.0215 N   0  0  0  0  0  0  0  0  0  0  0  0
   -4.2607    0.2321    0.3214 O   0  0  0  0  0  0  0  0  0  0  0  0
  1 12  1  0  0  0  0
  2  1  2  0  0  0  0
  2  3  1  0  0  0  0
  3  4  1  0  0  0  0
  4  5  2  0  0  0  0
  4 11  1  0  0  0  0
  5 10  1  0  0  0  0
  6  1  1  0  0  0  0
  7  2  1  0  0  0  0
  8  9  3  0  0  0  0
 12 13  1  0  0  0  0
 12  5  1  0  0  0  0
M  RAD  2   3   2  13   2
M  END
