Coordinates from ORCA-job 2-HOOC-C6H3-N2-B3LYPG-aug-cc-pVDZ-scan-d09-49-n400
 OpenBabel11091809063D

 15 14  0  0  0  0  0  0  0  0999 V2000
   -1.7947   -1.5071   -1.0501 C   0  0  0  0  0  0  0  0  0  0  0  0
   -0.4621   -1.1219   -1.0785 C   0  0  0  0  0  0  0  0  0  0  0  0
   -0.0044    0.0317   -0.9146 C   0  0  0  0  0  0  0  0  0  0  0  0
   -0.7353    1.1875   -0.6635 C   0  0  0  0  0  0  0  0  0  0  0  0
   -2.1244    0.9040   -0.6119 C   0  0  0  0  0  0  0  0  0  0  0  0
   -2.6320   -0.3917   -0.7980 C   0  0  0  0  0  0  0  0  0  0  0  0
   -2.1895   -2.5111   -1.1949 H   0  0  0  0  0  0  0  0  0  0  0  0
   -2.8037    1.7353   -0.4204 H   0  0  0  0  0  0  0  0  0  0  0  0
    4.1545    0.1479   -0.5309 N   0  0  0  0  0  0  0  0  0  0  0  0
    4.6869    0.1185   -1.4982 N   0  0  0  0  0  0  0  0  0  0  0  0
   -3.7105   -0.5508   -0.7476 H   0  0  0  0  0  0  0  0  0  0  0  0
   -0.2201    2.5639   -0.4651 C   0  0  0  0  0  0  0  0  0  0  0  0
   -0.9127    3.5362   -0.2455 O   0  0  0  0  0  0  0  0  0  0  0  0
    1.1311    2.6259   -0.5564 O   0  0  0  0  0  0  0  0  0  0  0  0
    1.3756    3.5545   -0.4138 H   0  0  0  0  0  0  0  0  0  0  0  0
  1  6  1  0  0  0  0
  2  1  2  0  0  0  0
  2  3  1  0  0  0  0
  3  4  2  0  0  0  0
  4  5  1  0  0  0  0
  4 12  1  0  0  0  0
  5  8  1  0  0  0  0
  6 11  1  0  0  0  0
  6  5  2  0  0  0  0
  7  1  1  0  0  0  0
 10  9  3  0  0  0  0
 12 13  2  0  0  0  0
 14 12  1  0  0  0  0
 14 15  1  0  0  0  0
M  RAD  2   2   2   3   2
M  END
