Coordinates from ORCA-job 2-HOOC-C6H3-N2-B3LYPG-aug-cc-pVDZ-scan-d09-49-n400
 OpenBabel11091809063D

 15 14  0  0  0  0  0  0  0  0999 V2000
   -1.5456   -1.5141   -1.0727 C   0  0  0  0  0  0  0  0  0  0  0  0
   -0.2165   -1.1110   -1.0729 C   0  0  0  0  0  0  0  0  0  0  0  0
    0.2093    0.0540   -0.8979 C   0  0  0  0  0  0  0  0  0  0  0  0
   -0.5459    1.1951   -0.6477 C   0  0  0  0  0  0  0  0  0  0  0  0
   -1.9294    0.8806   -0.6102 C   0  0  0  0  0  0  0  0  0  0  0  0
   -2.4093   -0.4224   -0.8145 C   0  0  0  0  0  0  0  0  0  0  0  0
   -1.9192   -2.5232   -1.2392 H   0  0  0  0  0  0  0  0  0  0  0  0
   -2.6263    1.6976   -0.4213 H   0  0  0  0  0  0  0  0  0  0  0  0
    2.8325    0.1386   -0.5754 N   0  0  0  0  0  0  0  0  0  0  0  0
    3.5974    0.0107   -1.3632 N   0  0  0  0  0  0  0  0  0  0  0  0
   -3.4849   -0.6031   -0.7757 H   0  0  0  0  0  0  0  0  0  0  0  0
   -0.0872    2.5926   -0.4509 C   0  0  0  0  0  0  0  0  0  0  0  0
   -0.8194    3.5265   -0.1960 O   0  0  0  0  0  0  0  0  0  0  0  0
    1.2533    2.7304   -0.5973 O   0  0  0  0  0  0  0  0  0  0  0  0
    1.4499    3.6704   -0.4545 H   0  0  0  0  0  0  0  0  0  0  0  0
  1  6  1  0  0  0  0
  2  1  2  0  0  0  0
  2  3  1  0  0  0  0
  3  4  2  0  0  0  0
  4  5  1  0  0  0  0
  4 12  1  0  0  0  0
  5  8  1  0  0  0  0
  6 11  1  0  0  0  0
  6  5  2  0  0  0  0
  7  1  1  0  0  0  0
 10  9  3  0  0  0  0
 12 13  2  0  0  0  0
 14 15  1  0  0  0  0
 14 12  1  0  0  0  0
M  RAD  2   2   2   3   2
M  END
