Coordinates from ORCA-job 2-HOOC-C6H3-N2-B3LYPG-aug-cc-pVDZ-scan-d09-49-n400
 OpenBabel11091809063D

 15 15  0  0  0  0  0  0  0  0999 V2000
   -1.3880   -1.4737   -1.0499 C   0  0  0  0  0  0  0  0  0  0  0  0
    0.0199   -1.2649   -1.1041 C   0  0  0  0  0  0  0  0  0  0  0  0
    0.3235    0.0266   -0.9048 C   0  0  0  0  0  0  0  0  0  0  0  0
   -0.4532    1.1774   -0.6607 C   0  0  0  0  0  0  0  0  0  0  0  0
   -1.8222    0.8928   -0.6219 C   0  0  0  0  0  0  0  0  0  0  0  0
   -2.2806   -0.4234   -0.8155 C   0  0  0  0  0  0  0  0  0  0  0  0
   -1.7941   -2.4792   -1.1943 H   0  0  0  0  0  0  0  0  0  0  0  0
   -2.5143    1.7129   -0.4391 H   0  0  0  0  0  0  0  0  0  0  0  0
    1.9102    0.2361   -0.9702 N   0  0  0  0  0  0  0  0  0  0  0  0
    2.9984    0.0412   -1.0724 N   0  0  0  0  0  0  0  0  0  0  0  0
   -3.3551   -0.6155   -0.7797 H   0  0  0  0  0  0  0  0  0  0  0  0
   -0.0088    2.5781   -0.4518 C   0  0  0  0  0  0  0  0  0  0  0  0
   -0.7475    3.5166   -0.2464 O   0  0  0  0  0  0  0  0  0  0  0  0
    1.3445    2.7276   -0.5131 O   0  0  0  0  0  0  0  0  0  0  0  0
    1.5260    3.6701   -0.3654 H   0  0  0  0  0  0  0  0  0  0  0  0
  1  6  1  0  0  0  0
  2  1  2  0  0  0  0
  2  3  1  0  0  0  0
  3  4  2  0  0  0  0
  4  5  1  0  0  0  0
  4 12  1  0  0  0  0
  5  8  1  0  0  0  0
  6 11  1  0  0  0  0
  6  5  2  0  0  0  0
  7  1  1  0  0  0  0
  9  3  1  0  0  0  0
 10  9  1  0  0  0  0
 12 13  2  0  0  0  0
 14 12  1  0  0  0  0
 14 15  1  0  0  0  0
M  RAD  3   2   2   9   2  10   3
M  END
