Coordinates from ORCA-job 2-HOOC-C6H3-N2-B3LYPG-aug-cc-pVDZ-scan-d09-49-n400
 OpenBabel11091809063D

 15 14  0  0  0  0  0  0  0  0999 V2000
   -1.5287   -1.5146   -1.0816 C   0  0  0  0  0  0  0  0  0  0  0  0
   -0.1968   -1.1183   -1.0816 C   0  0  0  0  0  0  0  0  0  0  0  0
    0.2288    0.0481   -0.9024 C   0  0  0  0  0  0  0  0  0  0  0  0
   -0.5229    1.1903   -0.6455 C   0  0  0  0  0  0  0  0  0  0  0  0
   -1.9069    0.8764   -0.6045 C   0  0  0  0  0  0  0  0  0  0  0  0
   -2.3901   -0.4244   -0.8137 C   0  0  0  0  0  0  0  0  0  0  0  0
   -1.9051   -2.5219   -1.2542 H   0  0  0  0  0  0  0  0  0  0  0  0
   -2.6016    1.6942   -0.4106 H   0  0  0  0  0  0  0  0  0  0  0  0
    2.7085    0.1621   -0.5733 N   0  0  0  0  0  0  0  0  0  0  0  0
    3.5003   -0.0001   -1.3272 N   0  0  0  0  0  0  0  0  0  0  0  0
   -3.4659   -0.6032   -0.7711 H   0  0  0  0  0  0  0  0  0  0  0  0
   -0.0714    2.5905   -0.4497 C   0  0  0  0  0  0  0  0  0  0  0  0
   -0.8071    3.5165   -0.1761 O   0  0  0  0  0  0  0  0  0  0  0  0
    1.2642    2.7428   -0.6207 O   0  0  0  0  0  0  0  0  0  0  0  0
    1.4533    3.6843   -0.4769 H   0  0  0  0  0  0  0  0  0  0  0  0
  1  6  1  0  0  0  0
  2  1  2  0  0  0  0
  2  3  1  0  0  0  0
  3  4  2  0  0  0  0
  4  5  1  0  0  0  0
  4 12  1  0  0  0  0
  5  8  1  0  0  0  0
  6 11  1  0  0  0  0
  6  5  2  0  0  0  0
  7  1  1  0  0  0  0
 10  9  3  0  0  0  0
 12 13  2  0  0  0  0
 14 15  1  0  0  0  0
 14 12  1  0  0  0  0
M  RAD  2   2   2   3   2
M  END
