Coordinates from ORCA-job 2-HOOC-C6H3-N2-B3LYPG-aug-cc-pVDZ-scan-d09-49-n400
 OpenBabel11091809063D

 15 15  0  0  0  0  0  0  0  0999 V2000
   -1.4018   -1.4835   -1.0506 C   0  0  0  0  0  0  0  0  0  0  0  0
   -0.0099   -1.2259   -1.0956 C   0  0  0  0  0  0  0  0  0  0  0  0
    0.3001    0.0263   -0.9036 C   0  0  0  0  0  0  0  0  0  0  0  0
   -0.4499    1.1804   -0.6607 C   0  0  0  0  0  0  0  0  0  0  0  0
   -1.8257    0.8865   -0.6229 C   0  0  0  0  0  0  0  0  0  0  0  0
   -2.2904   -0.4247   -0.8150 C   0  0  0  0  0  0  0  0  0  0  0  0
   -1.7982   -2.4920   -1.1959 H   0  0  0  0  0  0  0  0  0  0  0  0
   -2.5166    1.7080   -0.4400 H   0  0  0  0  0  0  0  0  0  0  0  0
    2.0120    0.2815   -0.9693 N   0  0  0  0  0  0  0  0  0  0  0  0
    3.0555   -0.0741   -1.0954 N   0  0  0  0  0  0  0  0  0  0  0  0
   -3.3652   -0.6134   -0.7785 H   0  0  0  0  0  0  0  0  0  0  0  0
   -0.0152    2.5855   -0.4508 C   0  0  0  0  0  0  0  0  0  0  0  0
   -0.7681    3.5134   -0.2455 O   0  0  0  0  0  0  0  0  0  0  0  0
    1.3340    2.7546   -0.5076 O   0  0  0  0  0  0  0  0  0  0  0  0
    1.4980    3.7002   -0.3578 H   0  0  0  0  0  0  0  0  0  0  0  0
  1  6  1  0  0  0  0
  2  1  2  0  0  0  0
  2  3  1  0  0  0  0
  3  4  2  0  0  0  0
  4  5  1  0  0  0  0
  4 12  1  0  0  0  0
  5  8  1  0  0  0  0
  6 11  1  0  0  0  0
  6  5  2  0  0  0  0
  7  1  1  0  0  0  0
  9  3  1  0  0  0  0
 10  9  2  0  0  0  0
 12 13  2  0  0  0  0
 14 12  1  0  0  0  0
 14 15  1  0  0  0  0
M  RAD  2   2   2  10   2
M  END
