Coordinates from ORCA-job 2-HOOC-C6H3-N2-B3LYPG-aug-cc-pVDZ-scan-d09-49-n400
 OpenBabel11091809063D

 15 14  0  0  0  0  0  0  0  0999 V2000
   -1.8513   -1.5040   -1.0525 C   0  0  0  0  0  0  0  0  0  0  0  0
   -0.5176   -1.1242   -1.0897 C   0  0  0  0  0  0  0  0  0  0  0  0
   -0.0519    0.0263   -0.9260 C   0  0  0  0  0  0  0  0  0  0  0  0
   -0.7761    1.1846   -0.6670 C   0  0  0  0  0  0  0  0  0  0  0  0
   -2.1662    0.9077   -0.6066 C   0  0  0  0  0  0  0  0  0  0  0  0
   -2.6814   -0.3851   -0.7921 C   0  0  0  0  0  0  0  0  0  0  0  0
   -2.2515   -2.5059   -1.1966 H   0  0  0  0  0  0  0  0  0  0  0  0
   -2.8403    1.7417   -0.4084 H   0  0  0  0  0  0  0  0  0  0  0  0
    4.4953    0.1458   -0.4945 N   0  0  0  0  0  0  0  0  0  0  0  0
    4.9021    0.1334   -1.5213 N   0  0  0  0  0  0  0  0  0  0  0  0
   -3.7603   -0.5391   -0.7346 H   0  0  0  0  0  0  0  0  0  0  0  0
   -0.2525    2.5578   -0.4684 C   0  0  0  0  0  0  0  0  0  0  0  0
   -0.9384    3.5337   -0.2441 O   0  0  0  0  0  0  0  0  0  0  0  0
    1.0986    2.6115   -0.5652 O   0  0  0  0  0  0  0  0  0  0  0  0
    1.3500    3.5383   -0.4223 H   0  0  0  0  0  0  0  0  0  0  0  0
  1  6  1  0  0  0  0
  2  1  2  0  0  0  0
  2  3  1  0  0  0  0
  3  4  2  0  0  0  0
  4  5  1  0  0  0  0
  4 12  1  0  0  0  0
  5  8  1  0  0  0  0
  6 11  1  0  0  0  0
  6  5  2  0  0  0  0
  7  1  1  0  0  0  0
 10  9  3  0  0  0  0
 12 13  2  0  0  0  0
 14 12  1  0  0  0  0
 14 15  1  0  0  0  0
M  RAD  2   2   2   3   2
M  END
