Coordinates from ORCA-job 2-HOOC-C6H3-N2-B3LYPG-aug-cc-pVDZ-scan-d09-49-n400
 OpenBabel11091809063D

 15 14  0  0  0  0  0  0  0  0999 V2000
   -1.7916   -1.5072   -1.0500 C   0  0  0  0  0  0  0  0  0  0  0  0
   -0.4591   -1.1217   -1.0779 C   0  0  0  0  0  0  0  0  0  0  0  0
   -0.0019    0.0321   -0.9140 C   0  0  0  0  0  0  0  0  0  0  0  0
   -0.7331    1.1877   -0.6633 C   0  0  0  0  0  0  0  0  0  0  0  0
   -2.1222    0.9038   -0.6121 C   0  0  0  0  0  0  0  0  0  0  0  0
   -2.6293   -0.3921   -0.7983 C   0  0  0  0  0  0  0  0  0  0  0  0
   -2.1861   -2.5113   -1.1949 H   0  0  0  0  0  0  0  0  0  0  0  0
   -2.8018    1.7349   -0.4210 H   0  0  0  0  0  0  0  0  0  0  0  0
    4.1371    0.1476   -0.5328 N   0  0  0  0  0  0  0  0  0  0  0  0
    4.6751    0.1172   -1.4969 N   0  0  0  0  0  0  0  0  0  0  0  0
   -3.7078   -0.5514   -0.7482 H   0  0  0  0  0  0  0  0  0  0  0  0
   -0.2185    2.5643   -0.4649 C   0  0  0  0  0  0  0  0  0  0  0  0
   -0.9116    3.5363   -0.2455 O   0  0  0  0  0  0  0  0  0  0  0  0
    1.1327    2.6269   -0.5560 O   0  0  0  0  0  0  0  0  0  0  0  0
    1.3767    3.5556   -0.4134 H   0  0  0  0  0  0  0  0  0  0  0  0
  1  6  1  0  0  0  0
  2  1  2  0  0  0  0
  2  3  1  0  0  0  0
  3  4  2  0  0  0  0
  4  5  1  0  0  0  0
  4 12  1  0  0  0  0
  5  8  1  0  0  0  0
  6 11  1  0  0  0  0
  6  5  2  0  0  0  0
  7  1  1  0  0  0  0
 10  9  3  0  0  0  0
 12 13  2  0  0  0  0
 14 12  1  0  0  0  0
 14 15  1  0  0  0  0
M  RAD  2   2   2   3   2
M  END
