Coordinates from ORCA-job 2-HOOC-C6H3-N2-B3LYPG-aug-cc-pVDZ-scan-d09-49-n400
 OpenBabel11091809063D

 15 14  0  0  0  0  0  0  0  0999 V2000
   -1.7822   -1.5075   -1.0499 C   0  0  0  0  0  0  0  0  0  0  0  0
   -0.4497   -1.1214   -1.0765 C   0  0  0  0  0  0  0  0  0  0  0  0
    0.0057    0.0331   -0.9124 C   0  0  0  0  0  0  0  0  0  0  0  0
   -0.7264    1.1883   -0.6627 C   0  0  0  0  0  0  0  0  0  0  0  0
   -2.1153    0.9031   -0.6127 C   0  0  0  0  0  0  0  0  0  0  0  0
   -2.6211   -0.3932   -0.7991 C   0  0  0  0  0  0  0  0  0  0  0  0
   -2.1757   -2.5120   -1.1951 H   0  0  0  0  0  0  0  0  0  0  0  0
   -2.7958    1.7338   -0.4224 H   0  0  0  0  0  0  0  0  0  0  0  0
    4.0850    0.1463   -0.5382 N   0  0  0  0  0  0  0  0  0  0  0  0
    4.6390    0.1129   -1.4932 N   0  0  0  0  0  0  0  0  0  0  0  0
   -3.6995   -0.5535   -0.7501 H   0  0  0  0  0  0  0  0  0  0  0  0
   -0.2137    2.5657   -0.4644 C   0  0  0  0  0  0  0  0  0  0  0  0
   -0.9085    3.5367   -0.2457 O   0  0  0  0  0  0  0  0  0  0  0  0
    1.1374    2.6305   -0.5547 O   0  0  0  0  0  0  0  0  0  0  0  0
    1.3795    3.5598   -0.4122 H   0  0  0  0  0  0  0  0  0  0  0  0
  1  6  1  0  0  0  0
  2  1  2  0  0  0  0
  2  3  1  0  0  0  0
  3  4  2  0  0  0  0
  4  5  1  0  0  0  0
  4 12  1  0  0  0  0
  5  8  1  0  0  0  0
  6 11  1  0  0  0  0
  6  5  2  0  0  0  0
  7  1  1  0  0  0  0
 10  9  3  0  0  0  0
 12 13  2  0  0  0  0
 14 12  1  0  0  0  0
 14 15  1  0  0  0  0
M  RAD  2   2   2   3   2
M  END
