Coordinates from ORCA-job 2-HOOC-C6H3-N2-B3LYPG-aug-cc-pVDZ-scan-d09-49-n400
 OpenBabel11091809063D

 15 15  0  0  0  0  0  0  0  0999 V2000
   -1.4036   -1.4840   -1.0509 C   0  0  0  0  0  0  0  0  0  0  0  0
   -0.0121   -1.2254   -1.0956 C   0  0  0  0  0  0  0  0  0  0  0  0
    0.2988    0.0260   -0.9033 C   0  0  0  0  0  0  0  0  0  0  0  0
   -0.4503    1.1804   -0.6601 C   0  0  0  0  0  0  0  0  0  0  0  0
   -1.8264    0.8863   -0.6225 C   0  0  0  0  0  0  0  0  0  0  0  0
   -2.2917   -0.4246   -0.8150 C   0  0  0  0  0  0  0  0  0  0  0  0
   -1.8001   -2.4923   -1.1965 H   0  0  0  0  0  0  0  0  0  0  0  0
   -2.5171    1.7080   -0.4394 H   0  0  0  0  0  0  0  0  0  0  0  0
    2.0206    0.2828   -0.9692 N   0  0  0  0  0  0  0  0  0  0  0  0
    3.0629   -0.0766   -1.0959 N   0  0  0  0  0  0  0  0  0  0  0  0
   -3.3665   -0.6128   -0.7785 H   0  0  0  0  0  0  0  0  0  0  0  0
   -0.0159    2.5854   -0.4497 C   0  0  0  0  0  0  0  0  0  0  0  0
   -0.7693    3.5131   -0.2457 O   0  0  0  0  0  0  0  0  0  0  0  0
    1.3330    2.7553   -0.5080 O   0  0  0  0  0  0  0  0  0  0  0  0
    1.4964    3.7011   -0.3590 H   0  0  0  0  0  0  0  0  0  0  0  0
  1  6  1  0  0  0  0
  2  1  2  0  0  0  0
  2  3  1  0  0  0  0
  3  4  2  0  0  0  0
  4  5  1  0  0  0  0
  4 12  1  0  0  0  0
  5  8  1  0  0  0  0
  6 11  1  0  0  0  0
  6  5  2  0  0  0  0
  7  1  1  0  0  0  0
  9  3  1  0  0  0  0
 10  9  2  0  0  0  0
 12 13  2  0  0  0  0
 14 12  1  0  0  0  0
 14 15  1  0  0  0  0
M  RAD  2   2   2  10   2
M  END
