Coordinates from ORCA-job 2-HOOC-C6H3-N2-B3LYPG-aug-cc-pVDZ-scan-d09-49-n400
 OpenBabel11091809063D

 15 15  0  0  0  0  0  0  0  0999 V2000
   -1.3866   -1.4737   -1.0499 C   0  0  0  0  0  0  0  0  0  0  0  0
    0.0216   -1.2657   -1.1043 C   0  0  0  0  0  0  0  0  0  0  0  0
    0.3254    0.0267   -0.9050 C   0  0  0  0  0  0  0  0  0  0  0  0
   -0.4522    1.1774   -0.6609 C   0  0  0  0  0  0  0  0  0  0  0  0
   -1.8209    0.8929   -0.6221 C   0  0  0  0  0  0  0  0  0  0  0  0
   -2.2792   -0.4235   -0.8156 C   0  0  0  0  0  0  0  0  0  0  0  0
   -1.7929   -2.4792   -1.1941 H   0  0  0  0  0  0  0  0  0  0  0  0
   -2.5131    1.7129   -0.4394 H   0  0  0  0  0  0  0  0  0  0  0  0
    1.9022    0.2340   -0.9702 N   0  0  0  0  0  0  0  0  0  0  0  0
    2.9912    0.0428   -1.0718 N   0  0  0  0  0  0  0  0  0  0  0  0
   -3.3537   -0.6156   -0.7798 H   0  0  0  0  0  0  0  0  0  0  0  0
   -0.0081    2.5784   -0.4522 C   0  0  0  0  0  0  0  0  0  0  0  0
   -0.7469    3.5166   -0.2464 O   0  0  0  0  0  0  0  0  0  0  0  0
    1.3453    2.7281   -0.5128 O   0  0  0  0  0  0  0  0  0  0  0  0
    1.5267    3.6705   -0.3648 H   0  0  0  0  0  0  0  0  0  0  0  0
  1  6  1  0  0  0  0
  2  1  2  0  0  0  0
  2  3  1  0  0  0  0
  3  4  2  0  0  0  0
  4  5  1  0  0  0  0
  4 12  1  0  0  0  0
  5  8  1  0  0  0  0
  6 11  1  0  0  0  0
  6  5  2  0  0  0  0
  7  1  1  0  0  0  0
  9  3  1  0  0  0  0
 10  9  1  0  0  0  0
 12 13  2  0  0  0  0
 14 12  1  0  0  0  0
 14 15  1  0  0  0  0
M  RAD  3   2   2   9   2  10   3
M  END
