Coordinates from ORCA-job 2-HOOC-C6H3-N2-B3LYPG-aug-cc-pVDZ-scan-d09-49-n400
 OpenBabel11091809063D

 15 15  0  0  0  0  0  0  0  0999 V2000
   -1.3624   -1.4748   -1.0443 C   0  0  0  0  0  0  0  0  0  0  0  0
    0.0458   -1.4067   -1.1241 C   0  0  0  0  0  0  0  0  0  0  0  0
    0.5888    0.0729   -0.9130 C   0  0  0  0  0  0  0  0  0  0  0  0
   -0.3949    1.1529   -0.6699 C   0  0  0  0  0  0  0  0  0  0  0  0
   -1.7428    0.8916   -0.6370 C   0  0  0  0  0  0  0  0  0  0  0  0
   -2.2343   -0.4163   -0.8245 C   0  0  0  0  0  0  0  0  0  0  0  0
   -1.7870   -2.4752   -1.1777 H   0  0  0  0  0  0  0  0  0  0  0  0
   -2.4206    1.7238   -0.4586 H   0  0  0  0  0  0  0  0  0  0  0  0
    1.5135    0.1586   -0.9636 N   0  0  0  0  0  0  0  0  0  0  0  0
    2.6743    0.1894   -1.0352 N   0  0  0  0  0  0  0  0  0  0  0  0
   -3.3128   -0.5848   -0.7926 H   0  0  0  0  0  0  0  0  0  0  0  0
    0.0280    2.5728   -0.4509 C   0  0  0  0  0  0  0  0  0  0  0  0
   -0.7477    3.4860   -0.2675 O   0  0  0  0  0  0  0  0  0  0  0  0
    1.3688    2.7441   -0.4886 O   0  0  0  0  0  0  0  0  0  0  0  0
    1.5421    3.6884   -0.3418 H   0  0  0  0  0  0  0  0  0  0  0  0
  1  6  1  0  0  0  0
  2  1  2  0  0  0  0
  2  3  1  0  0  0  0
  3  4  2  0  0  0  0
  4  5  1  0  0  0  0
  4 12  1  0  0  0  0
  5  8  1  0  0  0  0
  6 11  1  0  0  0  0
  6  5  2  0  0  0  0
  7  1  1  0  0  0  0
  9  3  1  0  0  0  0
 10  9  1  0  0  0  0
 12 13  2  0  0  0  0
 14 12  1  0  0  0  0
 14 15  1  0  0  0  0
M  RAD  3   2   2   9   2  10   3
M  END
