Coordinates from ORCA-job 2-HOOC-C6H3-N2-B3LYPG-aug-cc-pVDZ-scan-d09-49-n400
 OpenBabel11091809063D

 15 14  0  0  0  0  0  0  0  0999 V2000
   -1.8039   -1.5067   -1.0504 C   0  0  0  0  0  0  0  0  0  0  0  0
   -0.4711   -1.1224   -1.0801 C   0  0  0  0  0  0  0  0  0  0  0  0
   -0.0119    0.0306   -0.9163 C   0  0  0  0  0  0  0  0  0  0  0  0
   -0.7417    1.1869   -0.6640 C   0  0  0  0  0  0  0  0  0  0  0  0
   -2.1310    0.9046   -0.6111 C   0  0  0  0  0  0  0  0  0  0  0  0
   -2.6399   -0.3907   -0.7971 C   0  0  0  0  0  0  0  0  0  0  0  0
   -2.1996   -2.5103   -1.1950 H   0  0  0  0  0  0  0  0  0  0  0  0
   -2.8094    1.7364   -0.4187 H   0  0  0  0  0  0  0  0  0  0  0  0
    4.2067    0.1483   -0.5253 N   0  0  0  0  0  0  0  0  0  0  0  0
    4.7220    0.1221   -1.5019 N   0  0  0  0  0  0  0  0  0  0  0  0
   -3.7186   -0.5487   -0.7456 H   0  0  0  0  0  0  0  0  0  0  0  0
   -0.2249    2.5626   -0.4657 C   0  0  0  0  0  0  0  0  0  0  0  0
   -0.9163    3.5357   -0.2455 O   0  0  0  0  0  0  0  0  0  0  0  0
    1.1263    2.6230   -0.5577 O   0  0  0  0  0  0  0  0  0  0  0  0
    1.3721    3.5513   -0.4149 H   0  0  0  0  0  0  0  0  0  0  0  0
  1  6  1  0  0  0  0
  2  1  2  0  0  0  0
  2  3  1  0  0  0  0
  3  4  2  0  0  0  0
  4  5  1  0  0  0  0
  4 12  1  0  0  0  0
  5  8  1  0  0  0  0
  6 11  1  0  0  0  0
  6  5  2  0  0  0  0
  7  1  1  0  0  0  0
 10  9  3  0  0  0  0
 12 13  2  0  0  0  0
 14 12  1  0  0  0  0
 14 15  1  0  0  0  0
M  RAD  2   2   2   3   2
M  END
