Coordinates from ORCA-job 2-HOOC-C6H3-N2-B3LYPG-aug-cc-pVDZ-scan-d09-49-n400
 OpenBabel11091809063D

 15 14  0  0  0  0  0  0  0  0999 V2000
   -1.8009   -1.5068   -1.0503 C   0  0  0  0  0  0  0  0  0  0  0  0
   -0.4682   -1.1223   -1.0796 C   0  0  0  0  0  0  0  0  0  0  0  0
   -0.0094    0.0310   -0.9157 C   0  0  0  0  0  0  0  0  0  0  0  0
   -0.7396    1.1871   -0.6639 C   0  0  0  0  0  0  0  0  0  0  0  0
   -2.1288    0.9044   -0.6114 C   0  0  0  0  0  0  0  0  0  0  0  0
   -2.6373   -0.3910   -0.7974 C   0  0  0  0  0  0  0  0  0  0  0  0
   -2.1963   -2.5106   -1.1949 H   0  0  0  0  0  0  0  0  0  0  0  0
   -2.8076    1.7360   -0.4193 H   0  0  0  0  0  0  0  0  0  0  0  0
    4.1893    0.1482   -0.5272 N   0  0  0  0  0  0  0  0  0  0  0  0
    4.7104    0.1209   -1.5007 N   0  0  0  0  0  0  0  0  0  0  0  0
   -3.7159   -0.5494   -0.7462 H   0  0  0  0  0  0  0  0  0  0  0  0
   -0.2233    2.5630   -0.4655 C   0  0  0  0  0  0  0  0  0  0  0  0
   -0.9151    3.5359   -0.2455 O   0  0  0  0  0  0  0  0  0  0  0  0
    1.1279    2.6239   -0.5572 O   0  0  0  0  0  0  0  0  0  0  0  0
    1.3733    3.5523   -0.4145 H   0  0  0  0  0  0  0  0  0  0  0  0
  1  6  1  0  0  0  0
  2  1  2  0  0  0  0
  2  3  1  0  0  0  0
  3  4  2  0  0  0  0
  4  5  1  0  0  0  0
  4 12  1  0  0  0  0
  5  8  1  0  0  0  0
  6 11  1  0  0  0  0
  6  5  2  0  0  0  0
  7  1  1  0  0  0  0
 10  9  3  0  0  0  0
 12 13  2  0  0  0  0
 14 12  1  0  0  0  0
 14 15  1  0  0  0  0
M  RAD  2   2   2   3   2
M  END
