Coordinates from ORCA-job 2-HOOC-C6H3-N2-B3LYPG-aug-cc-pVDZ-scan-d09-49-n400
 OpenBabel11091809063D

 15 15  0  0  0  0  0  0  0  0999 V2000
   -1.3623   -1.4744   -1.0421 C   0  0  0  0  0  0  0  0  0  0  0  0
    0.0465   -1.4037   -1.1231 C   0  0  0  0  0  0  0  0  0  0  0  0
    0.5833    0.0703   -0.9167 C   0  0  0  0  0  0  0  0  0  0  0  0
   -0.3957    1.1529   -0.6726 C   0  0  0  0  0  0  0  0  0  0  0  0
   -1.7435    0.8922   -0.6388 C   0  0  0  0  0  0  0  0  0  0  0  0
   -2.2347   -0.4164   -0.8247 C   0  0  0  0  0  0  0  0  0  0  0  0
   -1.7863   -2.4755   -1.1729 H   0  0  0  0  0  0  0  0  0  0  0  0
   -2.4214    1.7245   -0.4607 H   0  0  0  0  0  0  0  0  0  0  0  0
    1.5179    0.1586   -0.9661 N   0  0  0  0  0  0  0  0  0  0  0  0
    2.6764    0.1907   -1.0369 N   0  0  0  0  0  0  0  0  0  0  0  0
   -3.3132   -0.5852   -0.7923 H   0  0  0  0  0  0  0  0  0  0  0  0
    0.0277    2.5727   -0.4538 C   0  0  0  0  0  0  0  0  0  0  0  0
   -0.7472    3.4858   -0.2669 O   0  0  0  0  0  0  0  0  0  0  0  0
    1.3690    2.7431   -0.4859 O   0  0  0  0  0  0  0  0  0  0  0  0
    1.5422    3.6870   -0.3358 H   0  0  0  0  0  0  0  0  0  0  0  0
  1  6  1  0  0  0  0
  2  1  2  0  0  0  0
  2  3  1  0  0  0  0
  3  4  2  0  0  0  0
  4  5  1  0  0  0  0
  4 12  1  0  0  0  0
  5  8  1  0  0  0  0
  6 11  1  0  0  0  0
  6  5  2  0  0  0  0
  7  1  1  0  0  0  0
  9  3  1  0  0  0  0
 10  9  1  0  0  0  0
 12 13  2  0  0  0  0
 14 12  1  0  0  0  0
 14 15  1  0  0  0  0
M  RAD  3   2   2   9   2  10   3
M  END
