Coordinates from ORCA-job 2-HOOC-C6H3-N2-B3LYPG-aug-cc-pVDZ-scan-d09-49-n400
 OpenBabel11091809063D

 15 14  0  0  0  0  0  0  0  0999 V2000
   -1.5775   -1.5127   -1.0571 C   0  0  0  0  0  0  0  0  0  0  0  0
   -0.2513   -1.1029   -1.0542 C   0  0  0  0  0  0  0  0  0  0  0  0
    0.1772    0.0613   -0.8843 C   0  0  0  0  0  0  0  0  0  0  0  0
   -0.5837    1.2018   -0.6487 C   0  0  0  0  0  0  0  0  0  0  0  0
   -1.9671    0.8877   -0.6210 C   0  0  0  0  0  0  0  0  0  0  0  0
   -2.4437   -0.4179   -0.8176 C   0  0  0  0  0  0  0  0  0  0  0  0
   -1.9481   -2.5242   -1.2146 H   0  0  0  0  0  0  0  0  0  0  0  0
   -2.6667    1.7050   -0.4433 H   0  0  0  0  0  0  0  0  0  0  0  0
    3.0657    0.1047   -0.5783 N   0  0  0  0  0  0  0  0  0  0  0  0
    3.7643    0.0198   -1.4302 N   0  0  0  0  0  0  0  0  0  0  0  0
   -3.5193   -0.5999   -0.7871 H   0  0  0  0  0  0  0  0  0  0  0  0
   -0.1159    2.5957   -0.4512 C   0  0  0  0  0  0  0  0  0  0  0  0
   -0.8431    3.5412   -0.2257 O   0  0  0  0  0  0  0  0  0  0  0  0
    1.2303    2.7124   -0.5585 O   0  0  0  0  0  0  0  0  0  0  0  0
    1.4376    3.6504   -0.4178 H   0  0  0  0  0  0  0  0  0  0  0  0
  1  2  2  0  0  0  0
  1  6  1  0  0  0  0
  2  3  1  0  0  0  0
  3  4  2  0  0  0  0
  4  5  1  0  0  0  0
  4 12  1  0  0  0  0
  5  8  1  0  0  0  0
  6 11  1  0  0  0  0
  6  5  2  0  0  0  0
  7  1  1  0  0  0  0
 10  9  3  0  0  0  0
 12 13  2  0  0  0  0
 14 12  1  0  0  0  0
 14 15  1  0  0  0  0
M  RAD  2   2   2   3   2
M  END
