Coordinates from ORCA-job 2-HOOC-C6H3-N2-B3LYPG-aug-cc-pVDZ-scan-d09-49-n400
 OpenBabel11091809063D

 15 14  0  0  0  0  0  0  0  0999 V2000
   -1.7484   -1.5093   -1.0487 C   0  0  0  0  0  0  0  0  0  0  0  0
   -0.4169   -1.1195   -1.0701 C   0  0  0  0  0  0  0  0  0  0  0  0
    0.0325    0.0375   -0.9059 C   0  0  0  0  0  0  0  0  0  0  0  0
   -0.7028    1.1912   -0.6606 C   0  0  0  0  0  0  0  0  0  0  0  0
   -2.0914    0.9011   -0.6162 C   0  0  0  0  0  0  0  0  0  0  0  0
   -2.5920   -0.3970   -0.8029 C   0  0  0  0  0  0  0  0  0  0  0  0
   -2.1384   -2.5151   -1.1939 H   0  0  0  0  0  0  0  0  0  0  0  0
   -2.7755    1.7297   -0.4301 H   0  0  0  0  0  0  0  0  0  0  0  0
    3.9129    0.1344   -0.5534 N   0  0  0  0  0  0  0  0  0  0  0  0
    4.5046    0.0989   -1.4855 N   0  0  0  0  0  0  0  0  0  0  0  0
   -3.6701   -0.5605   -0.7580 H   0  0  0  0  0  0  0  0  0  0  0  0
   -0.1980    2.5717   -0.4622 C   0  0  0  0  0  0  0  0  0  0  0  0
   -0.8996    3.5383   -0.2463 O   0  0  0  0  0  0  0  0  0  0  0  0
    1.1528    2.6452   -0.5488 O   0  0  0  0  0  0  0  0  0  0  0  0
    1.3889    3.5760   -0.4066 H   0  0  0  0  0  0  0  0  0  0  0  0
  1  6  1  0  0  0  0
  2  1  2  0  0  0  0
  2  3  1  0  0  0  0
  3  4  2  0  0  0  0
  4  5  1  0  0  0  0
  4 12  1  0  0  0  0
  5  8  1  0  0  0  0
  6 11  1  0  0  0  0
  6  5  2  0  0  0  0
  7  1  1  0  0  0  0
 10  9  3  0  0  0  0
 12 13  2  0  0  0  0
 14 12  1  0  0  0  0
 14 15  1  0  0  0  0
M  RAD  2   2   2   3   2
M  END
