Coordinates from ORCA-job 2-HOOC-C6H3-N2-B3LYPG-aug-cc-pVDZ-scan-d09-49-n400
 OpenBabel11091809063D

 15 14  0  0  0  0  0  0  0  0999 V2000
   -1.6877   -1.5109   -1.0470 C   0  0  0  0  0  0  0  0  0  0  0  0
   -0.3585   -1.1126   -1.0578 C   0  0  0  0  0  0  0  0  0  0  0  0
    0.0814    0.0479   -0.8928 C   0  0  0  0  0  0  0  0  0  0  0  0
   -0.6637    1.1973   -0.6563 C   0  0  0  0  0  0  0  0  0  0  0  0
   -2.0506    0.8977   -0.6220 C   0  0  0  0  0  0  0  0  0  0  0  0
   -2.5408   -0.4042   -0.8100 C   0  0  0  0  0  0  0  0  0  0  0  0
   -2.0698   -2.5196   -1.1938 H   0  0  0  0  0  0  0  0  0  0  0  0
   -2.7416    1.7221   -0.4432 H   0  0  0  0  0  0  0  0  0  0  0  0
    3.6231    0.1126   -0.5731 N   0  0  0  0  0  0  0  0  0  0  0  0
    4.2571    0.0701   -1.4767 N   0  0  0  0  0  0  0  0  0  0  0  0
   -3.6181   -0.5749   -0.7734 H   0  0  0  0  0  0  0  0  0  0  0  0
   -0.1718    2.5824   -0.4580 C   0  0  0  0  0  0  0  0  0  0  0  0
   -0.8832    3.5427   -0.2456 O   0  0  0  0  0  0  0  0  0  0  0  0
    1.1785    2.6693   -0.5407 O   0  0  0  0  0  0  0  0  0  0  0  0
    1.4044    3.6027   -0.3988 H   0  0  0  0  0  0  0  0  0  0  0  0
  1  6  1  0  0  0  0
  2  1  2  0  0  0  0
  2  3  1  0  0  0  0
  3  4  2  0  0  0  0
  4  5  1  0  0  0  0
  4 12  1  0  0  0  0
  5  8  1  0  0  0  0
  6 11  1  0  0  0  0
  6  5  2  0  0  0  0
  7  1  1  0  0  0  0
 10  9  3  0  0  0  0
 12 13  2  0  0  0  0
 14 12  1  0  0  0  0
 14 15  1  0  0  0  0
M  RAD  2   2   2   3   2
M  END
