Coordinates from ORCA-job 2-HOOC-C6H3-N2-B3LYPG-aug-cc-pVDZ-scan-d09-49-n400
 OpenBabel11091809063D

 15 14  0  0  0  0  0  0  0  0999 V2000
   -1.5010   -1.5179   -1.0745 C   0  0  0  0  0  0  0  0  0  0  0  0
   -0.1632   -1.1382   -1.0560 C   0  0  0  0  0  0  0  0  0  0  0  0
    0.2588    0.0307   -0.8759 C   0  0  0  0  0  0  0  0  0  0  0  0
   -0.4885    1.1797   -0.6361 C   0  0  0  0  0  0  0  0  0  0  0  0
   -1.8745    0.8737   -0.6140 C   0  0  0  0  0  0  0  0  0  0  0  0
   -2.3624   -0.4248   -0.8237 C   0  0  0  0  0  0  0  0  0  0  0  0
   -1.8810   -2.5241   -1.2479 H   0  0  0  0  0  0  0  0  0  0  0  0
   -2.5661    1.6973   -0.4354 H   0  0  0  0  0  0  0  0  0  0  0  0
    2.5299    0.1998   -0.6047 N   0  0  0  0  0  0  0  0  0  0  0  0
    3.3363    0.0002   -1.3355 N   0  0  0  0  0  0  0  0  0  0  0  0
   -3.4397   -0.5969   -0.7928 H   0  0  0  0  0  0  0  0  0  0  0  0
   -0.0471    2.5851   -0.4438 C   0  0  0  0  0  0  0  0  0  0  0  0
   -0.7923    3.5034   -0.1705 O   0  0  0  0  0  0  0  0  0  0  0  0
    1.2873    2.7553   -0.6112 O   0  0  0  0  0  0  0  0  0  0  0  0
    1.4625    3.6995   -0.4674 H   0  0  0  0  0  0  0  0  0  0  0  0
  1  2  2  0  0  0  0
  1  6  1  0  0  0  0
  2  3  1  0  0  0  0
  3  4  2  0  0  0  0
  4  5  1  0  0  0  0
  4 12  1  0  0  0  0
  5  8  1  0  0  0  0
  6 11  1  0  0  0  0
  6  5  2  0  0  0  0
  7  1  1  0  0  0  0
 10  9  3  0  0  0  0
 12 13  2  0  0  0  0
 14 15  1  0  0  0  0
 14 12  1  0  0  0  0
M  RAD  2   2   2   3   2
M  END
