Coordinates from ORCA-job 2-HOOC-C6H3-N2-B3LYPG-aug-cc-pVDZ-scan-d09-49-n400
 OpenBabel11091809063D

 15 14  0  0  0  0  0  0  0  0999 V2000
   -1.7362   -1.5097   -1.0483 C   0  0  0  0  0  0  0  0  0  0  0  0
   -0.4051   -1.1181   -1.0676 C   0  0  0  0  0  0  0  0  0  0  0  0
    0.0424    0.0395   -0.9033 C   0  0  0  0  0  0  0  0  0  0  0  0
   -0.6948    1.1925   -0.6598 C   0  0  0  0  0  0  0  0  0  0  0  0
   -2.0831    0.9004   -0.6175 C   0  0  0  0  0  0  0  0  0  0  0  0
   -2.5816   -0.3985   -0.8043 C   0  0  0  0  0  0  0  0  0  0  0  0
   -2.1246   -2.5161   -1.1937 H   0  0  0  0  0  0  0  0  0  0  0  0
   -2.7686    1.7282   -0.4329 H   0  0  0  0  0  0  0  0  0  0  0  0
    3.8530    0.1304   -0.5579 N   0  0  0  0  0  0  0  0  0  0  0  0
    4.4548    0.0936   -1.4835 N   0  0  0  0  0  0  0  0  0  0  0  0
   -3.6596   -0.5634   -0.7611 H   0  0  0  0  0  0  0  0  0  0  0  0
   -0.1925    2.5738   -0.4614 C   0  0  0  0  0  0  0  0  0  0  0  0
   -0.8960    3.5393   -0.2465 O   0  0  0  0  0  0  0  0  0  0  0  0
    1.1582    2.6497   -0.5468 O   0  0  0  0  0  0  0  0  0  0  0  0
    1.3924    3.5811   -0.4047 H   0  0  0  0  0  0  0  0  0  0  0  0
  1  6  1  0  0  0  0
  2  1  2  0  0  0  0
  2  3  1  0  0  0  0
  3  4  2  0  0  0  0
  4  5  1  0  0  0  0
  4 12  1  0  0  0  0
  5  8  1  0  0  0  0
  6 11  1  0  0  0  0
  6  5  2  0  0  0  0
  7  1  1  0  0  0  0
 10  9  3  0  0  0  0
 12 13  2  0  0  0  0
 14 12  1  0  0  0  0
 14 15  1  0  0  0  0
M  RAD  2   2   2   3   2
M  END
