Coordinates from ORCA-job 2-HOOC-C6H3-N2-B3LYPG-aug-cc-pVDZ-scan-d09-49-n400
 OpenBabel11091809063D

 15 14  0  0  0  0  0  0  0  0999 V2000
   -1.8401   -1.5046   -1.0520 C   0  0  0  0  0  0  0  0  0  0  0  0
   -0.5066   -1.1239   -1.0874 C   0  0  0  0  0  0  0  0  0  0  0  0
   -0.0423    0.0271   -0.9236 C   0  0  0  0  0  0  0  0  0  0  0  0
   -0.7679    1.1850   -0.6662 C   0  0  0  0  0  0  0  0  0  0  0  0
   -2.1578    0.9070   -0.6076 C   0  0  0  0  0  0  0  0  0  0  0  0
   -2.6716   -0.3864   -0.7932 C   0  0  0  0  0  0  0  0  0  0  0  0
   -2.2394   -2.5069   -1.1963 H   0  0  0  0  0  0  0  0  0  0  0  0
   -2.8329    1.7405   -0.4108 H   0  0  0  0  0  0  0  0  0  0  0  0
    4.4252    0.1461   -0.5020 N   0  0  0  0  0  0  0  0  0  0  0  0
    4.8612    0.1315   -1.5167 N   0  0  0  0  0  0  0  0  0  0  0  0
   -3.7504   -0.5413   -0.7371 H   0  0  0  0  0  0  0  0  0  0  0  0
   -0.2459    2.5589   -0.4678 C   0  0  0  0  0  0  0  0  0  0  0  0
   -0.9332    3.5341   -0.2446 O   0  0  0  0  0  0  0  0  0  0  0  0
    1.1052    2.6142   -0.5634 O   0  0  0  0  0  0  0  0  0  0  0  0
    1.3552    3.5413   -0.4206 H   0  0  0  0  0  0  0  0  0  0  0  0
  1  6  1  0  0  0  0
  2  1  2  0  0  0  0
  2  3  1  0  0  0  0
  3  4  2  0  0  0  0
  4  5  1  0  0  0  0
  4 12  1  0  0  0  0
  5  8  1  0  0  0  0
  6 11  1  0  0  0  0
  6  5  2  0  0  0  0
  7  1  1  0  0  0  0
 10  9  3  0  0  0  0
 12 13  2  0  0  0  0
 14 12  1  0  0  0  0
 14 15  1  0  0  0  0
M  RAD  2   2   2   3   2
M  END
