Coordinates from ORCA-job 2-HOOC-C6H3-N2-B3LYPG-aug-cc-pVDZ-scan-d09-49-n400
 OpenBabel11091809063D

 15 14  0  0  0  0  0  0  0  0999 V2000
   -1.8788   -1.5024   -1.0540 C   0  0  0  0  0  0  0  0  0  0  0  0
   -0.5446   -1.1250   -1.0952 C   0  0  0  0  0  0  0  0  0  0  0  0
   -0.0751    0.0239   -0.9314 C   0  0  0  0  0  0  0  0  0  0  0  0
   -0.7964    1.1834   -0.6686 C   0  0  0  0  0  0  0  0  0  0  0  0
   -2.1869    0.9095   -0.6041 C   0  0  0  0  0  0  0  0  0  0  0  0
   -2.7055   -0.3819   -0.7895 C   0  0  0  0  0  0  0  0  0  0  0  0
   -2.2816   -2.5033   -1.1979 H   0  0  0  0  0  0  0  0  0  0  0  0
   -2.8585    1.7447   -0.4027 H   0  0  0  0  0  0  0  0  0  0  0  0
    4.6713    0.1473   -0.4772 N   0  0  0  0  0  0  0  0  0  0  0  0
    5.0005    0.1362   -1.5314 N   0  0  0  0  0  0  0  0  0  0  0  0
   -3.7846   -0.5335   -0.7287 H   0  0  0  0  0  0  0  0  0  0  0  0
   -0.2688    2.5550   -0.4697 C   0  0  0  0  0  0  0  0  0  0  0  0
   -0.9515    3.5326   -0.2428 O   0  0  0  0  0  0  0  0  0  0  0  0
    1.0823    2.6051   -0.5697 O   0  0  0  0  0  0  0  0  0  0  0  0
    1.3367    3.5309   -0.4265 H   0  0  0  0  0  0  0  0  0  0  0  0
  1  6  1  0  0  0  0
  2  1  2  0  0  0  0
  2  3  1  0  0  0  0
  3  4  2  0  0  0  0
  4  5  1  0  0  0  0
  4 12  1  0  0  0  0
  5  8  1  0  0  0  0
  6 11  1  0  0  0  0
  6  5  2  0  0  0  0
  7  1  1  0  0  0  0
 10  9  3  0  0  0  0
 12 13  2  0  0  0  0
 14 12  1  0  0  0  0
 14 15  1  0  0  0  0
M  RAD  2   2   2   3   2
M  END
