Coordinates from ORCA-job 2-HOOC-C6H3-N2-B3LYPG-aug-cc-pVDZ-scan-d09-49-n400
 OpenBabel11091809063D

 15 14  0  0  0  0  0  0  0  0999 V2000
   -1.6120   -1.5125   -1.0495 C   0  0  0  0  0  0  0  0  0  0  0  0
   -0.2852   -1.1053   -1.0493 C   0  0  0  0  0  0  0  0  0  0  0  0
    0.1446    0.0587   -0.8823 C   0  0  0  0  0  0  0  0  0  0  0  0
   -0.6112    1.2025   -0.6515 C   0  0  0  0  0  0  0  0  0  0  0  0
   -1.9959    0.8921   -0.6253 C   0  0  0  0  0  0  0  0  0  0  0  0
   -2.4753   -0.4131   -0.8170 C   0  0  0  0  0  0  0  0  0  0  0  0
   -1.9854   -2.5238   -1.2009 H   0  0  0  0  0  0  0  0  0  0  0  0
   -2.6941    1.7115   -0.4513 H   0  0  0  0  0  0  0  0  0  0  0  0
    3.2557    0.0957   -0.5841 N   0  0  0  0  0  0  0  0  0  0  0  0
    3.9296    0.0324   -1.4572 N   0  0  0  0  0  0  0  0  0  0  0  0
   -3.5514   -0.5920   -0.7873 H   0  0  0  0  0  0  0  0  0  0  0  0
   -0.1366    2.5939   -0.4536 C   0  0  0  0  0  0  0  0  0  0  0  0
   -0.8601    3.5442   -0.2370 O   0  0  0  0  0  0  0  0  0  0  0  0
    1.2119    2.7007   -0.5425 O   0  0  0  0  0  0  0  0  0  0  0  0
    1.4239    3.6375   -0.4004 H   0  0  0  0  0  0  0  0  0  0  0  0
  1  2  2  0  0  0  0
  1  6  1  0  0  0  0
  2  3  1  0  0  0  0
  3  4  2  0  0  0  0
  4  5  1  0  0  0  0
  4 12  1  0  0  0  0
  5  8  1  0  0  0  0
  6 11  1  0  0  0  0
  6  5  2  0  0  0  0
  7  1  1  0  0  0  0
 10  9  3  0  0  0  0
 12 13  2  0  0  0  0
 14 12  1  0  0  0  0
 14 15  1  0  0  0  0
M  RAD  2   2   2   3   2
M  END
