Coordinates from ORCA-job 2-HOOC-C6H3-N2-B3LYPG-aug-cc-pVDZ-scan-d09-49-n400
 OpenBabel11091809063D

 15 14  0  0  0  0  0  0  0  0999 V2000
   -1.6170   -1.5123   -1.0492 C   0  0  0  0  0  0  0  0  0  0  0  0
   -0.2901   -1.1057   -1.0495 C   0  0  0  0  0  0  0  0  0  0  0  0
    0.1402    0.0582   -0.8828 C   0  0  0  0  0  0  0  0  0  0  0  0
   -0.6150    1.2023   -0.6518 C   0  0  0  0  0  0  0  0  0  0  0  0
   -1.9999    0.8926   -0.6252 C   0  0  0  0  0  0  0  0  0  0  0  0
   -2.4798   -0.4125   -0.8166 C   0  0  0  0  0  0  0  0  0  0  0  0
   -1.9909   -2.5235   -1.2001 H   0  0  0  0  0  0  0  0  0  0  0  0
   -2.6976    1.7123   -0.4510 H   0  0  0  0  0  0  0  0  0  0  0  0
    3.2814    0.0963   -0.5840 N   0  0  0  0  0  0  0  0  0  0  0  0
    3.9528    0.0345   -1.4592 N   0  0  0  0  0  0  0  0  0  0  0  0
   -3.5560   -0.5910   -0.7866 H   0  0  0  0  0  0  0  0  0  0  0  0
   -0.1392    2.5933   -0.4539 C   0  0  0  0  0  0  0  0  0  0  0  0
   -0.8619    3.5444   -0.2381 O   0  0  0  0  0  0  0  0  0  0  0  0
    1.2094    2.6985   -0.5417 O   0  0  0  0  0  0  0  0  0  0  0  0
    1.4225    3.6350   -0.3997 H   0  0  0  0  0  0  0  0  0  0  0  0
  1  6  1  0  0  0  0
  2  1  2  0  0  0  0
  2  3  1  0  0  0  0
  3  4  2  0  0  0  0
  4  5  1  0  0  0  0
  4 12  1  0  0  0  0
  5  8  1  0  0  0  0
  6 11  1  0  0  0  0
  6  5  2  0  0  0  0
  7  1  1  0  0  0  0
 10  9  3  0  0  0  0
 12 13  2  0  0  0  0
 14 12  1  0  0  0  0
 14 15  1  0  0  0  0
M  RAD  2   2   2   3   2
M  END
