Coordinates from ORCA-job 2-HOOC-C6H3-N2-B3LYPG-aug-cc-pVDZ-scan-d09-49-n400
 OpenBabel11091809063D

 15 14  0  0  0  0  0  0  0  0999 V2000
   -1.8692   -1.5029   -1.0535 C   0  0  0  0  0  0  0  0  0  0  0  0
   -0.5352   -1.1247   -1.0933 C   0  0  0  0  0  0  0  0  0  0  0  0
   -0.0670    0.0248   -0.9296 C   0  0  0  0  0  0  0  0  0  0  0  0
   -0.7893    1.1838   -0.6680 C   0  0  0  0  0  0  0  0  0  0  0  0
   -2.1797    0.9089   -0.6050 C   0  0  0  0  0  0  0  0  0  0  0  0
   -2.6971   -0.3831   -0.7904 C   0  0  0  0  0  0  0  0  0  0  0  0
   -2.2711   -2.5042   -1.1974 H   0  0  0  0  0  0  0  0  0  0  0  0
   -2.8522    1.7437   -0.4046 H   0  0  0  0  0  0  0  0  0  0  0  0
    4.6097    0.1467   -0.4830 N   0  0  0  0  0  0  0  0  0  0  0  0
    4.9665    0.1354   -1.5281 N   0  0  0  0  0  0  0  0  0  0  0  0
   -3.7761   -0.5355   -0.7307 H   0  0  0  0  0  0  0  0  0  0  0  0
   -0.2631    2.5560   -0.4693 C   0  0  0  0  0  0  0  0  0  0  0  0
   -0.9469    3.5330   -0.2433 O   0  0  0  0  0  0  0  0  0  0  0  0
    1.0880    2.6073   -0.5682 O   0  0  0  0  0  0  0  0  0  0  0  0
    1.3414    3.5334   -0.4251 H   0  0  0  0  0  0  0  0  0  0  0  0
  1  6  1  0  0  0  0
  2  1  2  0  0  0  0
  2  3  1  0  0  0  0
  3  4  2  0  0  0  0
  4  5  1  0  0  0  0
  4 12  1  0  0  0  0
  5  8  1  0  0  0  0
  6 11  1  0  0  0  0
  6  5  2  0  0  0  0
  7  1  1  0  0  0  0
 10  9  3  0  0  0  0
 12 13  2  0  0  0  0
 14 12  1  0  0  0  0
 14 15  1  0  0  0  0
M  RAD  2   2   2   3   2
M  END
