Coordinates from ORCA-job 2-HOOC-C6H3-N2-B3LYPG-aug-cc-pVDZ-scan-d09-49-n400
 OpenBabel11091809063D

 15 14  0  0  0  0  0  0  0  0999 V2000
   -1.7673   -1.5086   -1.0494 C   0  0  0  0  0  0  0  0  0  0  0  0
   -0.4352   -1.1211   -1.0739 C   0  0  0  0  0  0  0  0  0  0  0  0
    0.0174    0.0347   -0.9099 C   0  0  0  0  0  0  0  0  0  0  0  0
   -0.7154    1.1895   -0.6619 C   0  0  0  0  0  0  0  0  0  0  0  0
   -2.1044    0.9022   -0.6144 C   0  0  0  0  0  0  0  0  0  0  0  0
   -2.6081   -0.3948   -0.8007 C   0  0  0  0  0  0  0  0  0  0  0  0
   -2.1595   -2.5136   -1.1943 H   0  0  0  0  0  0  0  0  0  0  0  0
   -2.7864    1.7320   -0.4259 H   0  0  0  0  0  0  0  0  0  0  0  0
    4.0072    0.1412   -0.5459 N   0  0  0  0  0  0  0  0  0  0  0  0
    4.5809    0.1061   -1.4891 N   0  0  0  0  0  0  0  0  0  0  0  0
   -3.6864   -0.5562   -0.7533 H   0  0  0  0  0  0  0  0  0  0  0  0
   -0.2067    2.5684   -0.4635 C   0  0  0  0  0  0  0  0  0  0  0  0
   -0.9049    3.5372   -0.2459 O   0  0  0  0  0  0  0  0  0  0  0  0
    1.1442    2.6377   -0.5520 O   0  0  0  0  0  0  0  0  0  0  0  0
    1.3833    3.5677   -0.4093 H   0  0  0  0  0  0  0  0  0  0  0  0
  1  6  1  0  0  0  0
  2  1  2  0  0  0  0
  2  3  1  0  0  0  0
  3  4  2  0  0  0  0
  4  5  1  0  0  0  0
  4 12  1  0  0  0  0
  5  8  1  0  0  0  0
  6 11  1  0  0  0  0
  6  5  2  0  0  0  0
  7  1  1  0  0  0  0
 10  9  3  0  0  0  0
 12 13  2  0  0  0  0
 14 12  1  0  0  0  0
 14 15  1  0  0  0  0
M  RAD  2   2   2   3   2
M  END
