Coordinates from ORCA-job 2-HOOC-C6H3-N2-B3LYPG-aug-cc-pVDZ-scan-d09-49-n400
 OpenBabel11091809063D

 15 14  0  0  0  0  0  0  0  0999 V2000
   -1.6378   -1.5118   -1.0478 C   0  0  0  0  0  0  0  0  0  0  0  0
   -0.3102   -1.1073   -1.0506 C   0  0  0  0  0  0  0  0  0  0  0  0
    0.1226    0.0557   -0.8846 C   0  0  0  0  0  0  0  0  0  0  0  0
   -0.6301    1.2012   -0.6529 C   0  0  0  0  0  0  0  0  0  0  0  0
   -2.0155    0.8943   -0.6248 C   0  0  0  0  0  0  0  0  0  0  0  0
   -2.4981   -0.4100   -0.8150 C   0  0  0  0  0  0  0  0  0  0  0  0
   -2.0138   -2.5224   -1.1973 H   0  0  0  0  0  0  0  0  0  0  0  0
   -2.7115    1.7153   -0.4500 H   0  0  0  0  0  0  0  0  0  0  0  0
    3.3843    0.0992   -0.5826 N   0  0  0  0  0  0  0  0  0  0  0  0
    4.0452    0.0446   -1.4662 N   0  0  0  0  0  0  0  0  0  0  0  0
   -3.5746   -0.5865   -0.7837 H   0  0  0  0  0  0  0  0  0  0  0  0
   -0.1496    2.5905   -0.4549 C   0  0  0  0  0  0  0  0  0  0  0  0
   -0.8688    3.5447   -0.2416 O   0  0  0  0  0  0  0  0  0  0  0  0
    1.1998    2.6897   -0.5396 O   0  0  0  0  0  0  0  0  0  0  0  0
    1.4169    3.6253   -0.3977 H   0  0  0  0  0  0  0  0  0  0  0  0
  1  6  1  0  0  0  0
  2  1  2  0  0  0  0
  2  3  1  0  0  0  0
  3  4  2  0  0  0  0
  4  5  1  0  0  0  0
  4 12  1  0  0  0  0
  5  8  1  0  0  0  0
  6 11  1  0  0  0  0
  6  5  2  0  0  0  0
  7  1  1  0  0  0  0
 10  9  3  0  0  0  0
 12 13  2  0  0  0  0
 14 12  1  0  0  0  0
 14 15  1  0  0  0  0
M  RAD  2   2   2   3   2
M  END
