Coordinates from ORCA-job 2-HOOC-C6H3-N2-B3LYPG-aug-cc-pVDZ-scan-d09-49-n400
 OpenBabel11091809063D

 15 14  0  0  0  0  0  0  0  0999 V2000
   -1.6465   -1.5116   -1.0473 C   0  0  0  0  0  0  0  0  0  0  0  0
   -0.3186   -1.1081   -1.0513 C   0  0  0  0  0  0  0  0  0  0  0  0
    0.1153    0.0545   -0.8855 C   0  0  0  0  0  0  0  0  0  0  0  0
   -0.6363    1.2007   -0.6534 C   0  0  0  0  0  0  0  0  0  0  0  0
   -2.0219    0.8950   -0.6246 C   0  0  0  0  0  0  0  0  0  0  0  0
   -2.5057   -0.4090   -0.8142 C   0  0  0  0  0  0  0  0  0  0  0  0
   -2.0234   -2.5219   -1.1963 H   0  0  0  0  0  0  0  0  0  0  0  0
   -2.7172    1.7166   -0.4494 H   0  0  0  0  0  0  0  0  0  0  0  0
    3.4271    0.1007   -0.5815 N   0  0  0  0  0  0  0  0  0  0  0  0
    4.0831    0.0491   -1.4689 N   0  0  0  0  0  0  0  0  0  0  0  0
   -3.5823   -0.5845   -0.7824 H   0  0  0  0  0  0  0  0  0  0  0  0
   -0.1537    2.5893   -0.4554 C   0  0  0  0  0  0  0  0  0  0  0  0
   -0.8715    3.5447   -0.2427 O   0  0  0  0  0  0  0  0  0  0  0  0
    1.1958    2.6860   -0.5391 O   0  0  0  0  0  0  0  0  0  0  0  0
    1.4146    3.6212   -0.3973 H   0  0  0  0  0  0  0  0  0  0  0  0
  1  6  1  0  0  0  0
  2  1  2  0  0  0  0
  2  3  1  0  0  0  0
  3  4  2  0  0  0  0
  4  5  1  0  0  0  0
  4 12  1  0  0  0  0
  5  8  1  0  0  0  0
  6 11  1  0  0  0  0
  6  5  2  0  0  0  0
  7  1  1  0  0  0  0
 10  9  3  0  0  0  0
 12 13  2  0  0  0  0
 14 12  1  0  0  0  0
 14 15  1  0  0  0  0
M  RAD  2   2   2   3   2
M  END
