Coordinates from ORCA-job 2-HOOC-C6H3-N2-B3LYPG-aug-cc-pVDZ-scan-d09-49-n400
 OpenBabel11091809063D

 15 14  0  0  0  0  0  0  0  0999 V2000
   -1.4753   -1.5183   -1.0599 C   0  0  0  0  0  0  0  0  0  0  0  0
   -0.1256   -1.1698   -1.0115 C   0  0  0  0  0  0  0  0  0  0  0  0
    0.2805    0.0112   -0.8373 C   0  0  0  0  0  0  0  0  0  0  0  0
   -0.4598    1.1697   -0.6220 C   0  0  0  0  0  0  0  0  0  0  0  0
   -1.8473    0.8739   -0.6293 C   0  0  0  0  0  0  0  0  0  0  0  0
   -2.3382   -0.4231   -0.8394 C   0  0  0  0  0  0  0  0  0  0  0  0
   -1.8611   -2.5231   -1.2333 H   0  0  0  0  0  0  0  0  0  0  0  0
   -2.5356    1.7048   -0.4747 H   0  0  0  0  0  0  0  0  0  0  0  0
    2.3736    0.2288   -0.6470 N   0  0  0  0  0  0  0  0  0  0  0  0
    3.1924    0.0137   -1.3619 N   0  0  0  0  0  0  0  0  0  0  0  0
   -3.4171   -0.5882   -0.8299 H   0  0  0  0  0  0  0  0  0  0  0  0
   -0.0264    2.5786   -0.4299 C   0  0  0  0  0  0  0  0  0  0  0  0
   -0.7786    3.4910   -0.1569 O   0  0  0  0  0  0  0  0  0  0  0  0
    1.3059    2.7638   -0.6009 O   0  0  0  0  0  0  0  0  0  0  0  0
    1.4714    3.7096   -0.4553 H   0  0  0  0  0  0  0  0  0  0  0  0
  1  2  2  0  0  0  0
  1  6  1  0  0  0  0
  2  3  1  0  0  0  0
  3  4  2  0  0  0  0
  4 12  1  0  0  0  0
  5  4  1  0  0  0  0
  5  8  1  0  0  0  0
  6 11  1  0  0  0  0
  6  5  2  0  0  0  0
  7  1  1  0  0  0  0
 10  9  3  0  0  0  0
 12 13  2  0  0  0  0
 14 15  1  0  0  0  0
 14 12  1  0  0  0  0
M  RAD  2   2   2   3   2
M  END
