Coordinates from ORCA-job 2-HOOC-C6H3-N2-B3LYPG-aug-cc-pVDZ-scan-d09-49-n400
 OpenBabel11091809063D

 15 14  0  0  0  0  0  0  0  0999 V2000
   -1.5846   -1.5128   -1.0539 C   0  0  0  0  0  0  0  0  0  0  0  0
   -0.2586   -1.1029   -1.0506 C   0  0  0  0  0  0  0  0  0  0  0  0
    0.1704    0.0611   -0.8821 C   0  0  0  0  0  0  0  0  0  0  0  0
   -0.5901    1.2023   -0.6496 C   0  0  0  0  0  0  0  0  0  0  0  0
   -1.9737    0.8890   -0.6234 C   0  0  0  0  0  0  0  0  0  0  0  0
   -2.4506   -0.4168   -0.8182 C   0  0  0  0  0  0  0  0  0  0  0  0
   -1.9554   -2.5245   -1.2092 H   0  0  0  0  0  0  0  0  0  0  0  0
   -2.6733    1.7068   -0.4481 H   0  0  0  0  0  0  0  0  0  0  0  0
    3.1098    0.0993   -0.5803 N   0  0  0  0  0  0  0  0  0  0  0  0
    3.7987    0.0235   -1.4407 N   0  0  0  0  0  0  0  0  0  0  0  0
   -3.5263   -0.5983   -0.7890 H   0  0  0  0  0  0  0  0  0  0  0  0
   -0.1208    2.5958   -0.4524 C   0  0  0  0  0  0  0  0  0  0  0  0
   -0.8471    3.5421   -0.2282 O   0  0  0  0  0  0  0  0  0  0  0  0
    1.2263    2.7101   -0.5528 O   0  0  0  0  0  0  0  0  0  0  0  0
    1.4342    3.6478   -0.4107 H   0  0  0  0  0  0  0  0  0  0  0  0
  1  2  2  0  0  0  0
  1  6  1  0  0  0  0
  2  3  1  0  0  0  0
  3  4  2  0  0  0  0
  4  5  1  0  0  0  0
  4 12  1  0  0  0  0
  5  8  1  0  0  0  0
  6 11  1  0  0  0  0
  6  5  2  0  0  0  0
  7  1  1  0  0  0  0
 10  9  3  0  0  0  0
 12 13  2  0  0  0  0
 14 12  1  0  0  0  0
 14 15  1  0  0  0  0
M  RAD  2   2   2   3   2
M  END
