Coordinates from ORCA-job 2-HOOC-C6H3-N2-B3LYPG-aug-cc-pVDZ-scan-d09-49-n400
 OpenBabel11091809063D

 15 14  0  0  0  0  0  0  0  0999 V2000
   -1.8054   -1.5066   -1.0504 C   0  0  0  0  0  0  0  0  0  0  0  0
   -0.4726   -1.1225   -1.0804 C   0  0  0  0  0  0  0  0  0  0  0  0
   -0.0132    0.0304   -0.9166 C   0  0  0  0  0  0  0  0  0  0  0  0
   -0.7427    1.1868   -0.6641 C   0  0  0  0  0  0  0  0  0  0  0  0
   -2.1321    0.9047   -0.6110 C   0  0  0  0  0  0  0  0  0  0  0  0
   -2.6412   -0.3905   -0.7969 C   0  0  0  0  0  0  0  0  0  0  0  0
   -2.2013   -2.5102   -1.1950 H   0  0  0  0  0  0  0  0  0  0  0  0
   -2.8104    1.7366   -0.4184 H   0  0  0  0  0  0  0  0  0  0  0  0
    4.2154    0.1484   -0.5244 N   0  0  0  0  0  0  0  0  0  0  0  0
    4.7278    0.1226   -1.5025 N   0  0  0  0  0  0  0  0  0  0  0  0
   -3.7199   -0.5484   -0.7452 H   0  0  0  0  0  0  0  0  0  0  0  0
   -0.2257    2.5625   -0.4658 C   0  0  0  0  0  0  0  0  0  0  0  0
   -0.9169    3.5356   -0.2455 O   0  0  0  0  0  0  0  0  0  0  0  0
    1.1255    2.6225   -0.5579 O   0  0  0  0  0  0  0  0  0  0  0  0
    1.3715    3.5507   -0.4152 H   0  0  0  0  0  0  0  0  0  0  0  0
  1  6  1  0  0  0  0
  2  1  2  0  0  0  0
  2  3  1  0  0  0  0
  3  4  2  0  0  0  0
  4  5  1  0  0  0  0
  4 12  1  0  0  0  0
  5  8  1  0  0  0  0
  6 11  1  0  0  0  0
  6  5  2  0  0  0  0
  7  1  1  0  0  0  0
 10  9  3  0  0  0  0
 12 13  2  0  0  0  0
 14 12  1  0  0  0  0
 14 15  1  0  0  0  0
M  RAD  2   2   2   3   2
M  END
