Coordinates from ORCA-job 2-HOOC-C6H3-N2-B3LYPG-aug-cc-pVDZ-scan-d09-49-n400
 OpenBabel11091809063D

 15 14  0  0  0  0  0  0  0  0999 V2000
   -1.6715   -1.5112   -1.0468 C   0  0  0  0  0  0  0  0  0  0  0  0
   -0.3428   -1.1108   -1.0547 C   0  0  0  0  0  0  0  0  0  0  0  0
    0.0947    0.0505   -0.8895 C   0  0  0  0  0  0  0  0  0  0  0  0
   -0.6529    1.1987   -0.6551 C   0  0  0  0  0  0  0  0  0  0  0  0
   -2.0393    0.8967   -0.6233 C   0  0  0  0  0  0  0  0  0  0  0  0
   -2.5270   -0.4060   -0.8118 C   0  0  0  0  0  0  0  0  0  0  0  0
   -2.0515   -2.5206   -1.1943 H   0  0  0  0  0  0  0  0  0  0  0  0
   -2.7321    1.7200   -0.4463 H   0  0  0  0  0  0  0  0  0  0  0  0
    3.5466    0.1068   -0.5770 N   0  0  0  0  0  0  0  0  0  0  0  0
    4.1891    0.0617   -1.4745 N   0  0  0  0  0  0  0  0  0  0  0  0
   -3.6041   -0.5786   -0.7773 H   0  0  0  0  0  0  0  0  0  0  0  0
   -0.1648    2.5853   -0.4569 C   0  0  0  0  0  0  0  0  0  0  0  0
   -0.8790    3.5435   -0.2447 O   0  0  0  0  0  0  0  0  0  0  0  0
    1.1852    2.6762   -0.5394 O   0  0  0  0  0  0  0  0  0  0  0  0
    1.4081    3.6104   -0.3975 H   0  0  0  0  0  0  0  0  0  0  0  0
  1  6  1  0  0  0  0
  2  1  2  0  0  0  0
  2  3  1  0  0  0  0
  3  4  2  0  0  0  0
  4  5  1  0  0  0  0
  4 12  1  0  0  0  0
  5  8  1  0  0  0  0
  6 11  1  0  0  0  0
  6  5  2  0  0  0  0
  7  1  1  0  0  0  0
 10  9  3  0  0  0  0
 12 13  2  0  0  0  0
 14 12  1  0  0  0  0
 14 15  1  0  0  0  0
M  RAD  2   2   2   3   2
M  END
