Coordinates from ORCA-job 2-HOOC-C6H3-N2-B3LYPG-aug-cc-pVDZ-scan-d09-49-n400
 OpenBabel11091809063D

 15 14  0  0  0  0  0  0  0  0999 V2000
   -1.8963   -1.5029   -1.0543 C   0  0  0  0  0  0  0  0  0  0  0  0
   -0.5631   -1.1265   -1.0959 C   0  0  0  0  0  0  0  0  0  0  0  0
   -0.0826    0.0177   -0.9329 C   0  0  0  0  0  0  0  0  0  0  0  0
   -0.8032    1.1785   -0.6693 C   0  0  0  0  0  0  0  0  0  0  0  0
   -2.1947    0.9101   -0.6038 C   0  0  0  0  0  0  0  0  0  0  0  0
   -2.7188   -0.3790   -0.7890 C   0  0  0  0  0  0  0  0  0  0  0  0
   -2.3017   -2.5027   -1.1981 H   0  0  0  0  0  0  0  0  0  0  0  0
   -2.8628    1.7478   -0.4015 H   0  0  0  0  0  0  0  0  0  0  0  0
    4.7530    0.1622   -0.4690 N   0  0  0  0  0  0  0  0  0  0  0  0
    5.0410    0.1464   -1.5351 N   0  0  0  0  0  0  0  0  0  0  0  0
   -3.7984   -0.5265   -0.7273 H   0  0  0  0  0  0  0  0  0  0  0  0
   -0.2725    2.5491   -0.4704 C   0  0  0  0  0  0  0  0  0  0  0  0
   -0.9534    3.5278   -0.2422 O   0  0  0  0  0  0  0  0  0  0  0  0
    1.0785    2.5974   -0.5718 O   0  0  0  0  0  0  0  0  0  0  0  0
    1.3338    3.5230   -0.4286 H   0  0  0  0  0  0  0  0  0  0  0  0
  1  6  1  0  0  0  0
  2  1  2  0  0  0  0
  2  3  1  0  0  0  0
  3  4  2  0  0  0  0
  4  5  1  0  0  0  0
  4 12  1  0  0  0  0
  5  8  1  0  0  0  0
  6 11  1  0  0  0  0
  6  5  2  0  0  0  0
  7  1  1  0  0  0  0
 10  9  3  0  0  0  0
 12 13  2  0  0  0  0
 14 12  1  0  0  0  0
 14 15  1  0  0  0  0
M  RAD  2   2   2   3   2
M  END
