Coordinates from ORCA-job 2-HOOC-C6H3-N2-B3LYPG-aug-cc-pVDZ-scan-d09-49-n400
 OpenBabel11091809063D

 15 14  0  0  0  0  0  0  0  0999 V2000
   -1.4691   -1.5178   -1.0575 C   0  0  0  0  0  0  0  0  0  0  0  0
   -0.1176   -1.1749   -1.0047 C   0  0  0  0  0  0  0  0  0  0  0  0
    0.2867    0.0088   -0.8324 C   0  0  0  0  0  0  0  0  0  0  0  0
   -0.4544    1.1679   -0.6205 C   0  0  0  0  0  0  0  0  0  0  0  0
   -1.8418    0.8740   -0.6319 C   0  0  0  0  0  0  0  0  0  0  0  0
   -2.3329   -0.4230   -0.8415 C   0  0  0  0  0  0  0  0  0  0  0  0
   -1.8559   -2.5224   -1.2307 H   0  0  0  0  0  0  0  0  0  0  0  0
   -2.5296    1.7058   -0.4811 H   0  0  0  0  0  0  0  0  0  0  0  0
    2.3397    0.2332   -0.6541 N   0  0  0  0  0  0  0  0  0  0  0  0
    3.1609    0.0151   -1.3662 N   0  0  0  0  0  0  0  0  0  0  0  0
   -3.4119   -0.5875   -0.8345 H   0  0  0  0  0  0  0  0  0  0  0  0
   -0.0226    2.5776   -0.4289 C   0  0  0  0  0  0  0  0  0  0  0  0
   -0.7762    3.4894   -0.1577 O   0  0  0  0  0  0  0  0  0  0  0  0
    1.3101    2.7651   -0.5967 O   0  0  0  0  0  0  0  0  0  0  0  0
    1.4735    3.7113   -0.4509 H   0  0  0  0  0  0  0  0  0  0  0  0
  1  2  2  0  0  0  0
  1  6  1  0  0  0  0
  2  3  1  0  0  0  0
  3  4  2  0  0  0  0
  4 12  1  0  0  0  0
  5  4  1  0  0  0  0
  5  8  1  0  0  0  0
  6 11  1  0  0  0  0
  6  5  2  0  0  0  0
  7  1  1  0  0  0  0
 10  9  3  0  0  0  0
 12 13  2  0  0  0  0
 14 15  1  0  0  0  0
 14 12  1  0  0  0  0
M  RAD  2   2   2   3   2
M  END
