Coordinates from ORCA-job 2-HOOC-C6H3-N2-B3LYPG-aug-cc-pVDZ-scan-d09-49-n400
 OpenBabel11091809063D

 15 14  0  0  0  0  0  0  0  0999 V2000
   -1.8664   -1.5031   -1.0533 C   0  0  0  0  0  0  0  0  0  0  0  0
   -0.5325   -1.1246   -1.0928 C   0  0  0  0  0  0  0  0  0  0  0  0
   -0.0647    0.0250   -0.9290 C   0  0  0  0  0  0  0  0  0  0  0  0
   -0.7873    1.1840   -0.6679 C   0  0  0  0  0  0  0  0  0  0  0  0
   -2.1776    0.9087   -0.6052 C   0  0  0  0  0  0  0  0  0  0  0  0
   -2.6947   -0.3834   -0.7906 C   0  0  0  0  0  0  0  0  0  0  0  0
   -2.2681   -2.5045   -1.1973 H   0  0  0  0  0  0  0  0  0  0  0  0
   -2.8503    1.7433   -0.4052 H   0  0  0  0  0  0  0  0  0  0  0  0
    4.5921    0.1465   -0.4847 N   0  0  0  0  0  0  0  0  0  0  0  0
    4.9567    0.1352   -1.5271 N   0  0  0  0  0  0  0  0  0  0  0  0
   -3.7737   -0.5360   -0.7312 H   0  0  0  0  0  0  0  0  0  0  0  0
   -0.2615    2.5563   -0.4692 C   0  0  0  0  0  0  0  0  0  0  0  0
   -0.9456    3.5331   -0.2434 O   0  0  0  0  0  0  0  0  0  0  0  0
    1.0896    2.6079   -0.5677 O   0  0  0  0  0  0  0  0  0  0  0  0
    1.3427    3.5342   -0.4247 H   0  0  0  0  0  0  0  0  0  0  0  0
  1  6  1  0  0  0  0
  2  1  2  0  0  0  0
  2  3  1  0  0  0  0
  3  4  2  0  0  0  0
  4  5  1  0  0  0  0
  4 12  1  0  0  0  0
  5  8  1  0  0  0  0
  6 11  1  0  0  0  0
  6  5  2  0  0  0  0
  7  1  1  0  0  0  0
 10  9  3  0  0  0  0
 12 13  2  0  0  0  0
 14 12  1  0  0  0  0
 14 15  1  0  0  0  0
M  RAD  2   2   2   3   2
M  END
