Coordinates from ORCA-job 2-HOOC-C6H3-N2-B3LYPG-aug-cc-pVDZ-scan-d09-49-n400
 OpenBabel11091809063D

 15 14  0  0  0  0  0  0  0  0999 V2000
   -1.5316   -1.5141   -1.0800 C   0  0  0  0  0  0  0  0  0  0  0  0
   -0.2000   -1.1165   -1.0799 C   0  0  0  0  0  0  0  0  0  0  0  0
    0.2230    0.0494   -0.9018 C   0  0  0  0  0  0  0  0  0  0  0  0
   -0.5287    1.1912   -0.6459 C   0  0  0  0  0  0  0  0  0  0  0  0
   -1.9123    0.8774   -0.6054 C   0  0  0  0  0  0  0  0  0  0  0  0
   -2.3942   -0.4240   -0.8138 C   0  0  0  0  0  0  0  0  0  0  0  0
   -1.9072   -2.5218   -1.2516 H   0  0  0  0  0  0  0  0  0  0  0  0
   -2.6076    1.6948   -0.4122 H   0  0  0  0  0  0  0  0  0  0  0  0
    2.7334    0.1575   -0.5735 N   0  0  0  0  0  0  0  0  0  0  0  0
    3.5207    0.0025   -1.3335 N   0  0  0  0  0  0  0  0  0  0  0  0
   -3.4698   -0.6037   -0.7721 H   0  0  0  0  0  0  0  0  0  0  0  0
   -0.0743    2.5906   -0.4499 C   0  0  0  0  0  0  0  0  0  0  0  0
   -0.8086    3.5185   -0.1792 O   0  0  0  0  0  0  0  0  0  0  0  0
    1.2626    2.7398   -0.6172 O   0  0  0  0  0  0  0  0  0  0  0  0
    1.4533    3.6809   -0.4734 H   0  0  0  0  0  0  0  0  0  0  0  0
  1  2  2  0  0  0  0
  1  6  1  0  0  0  0
  2  3  1  0  0  0  0
  3  4  2  0  0  0  0
  4  5  1  0  0  0  0
  4 12  1  0  0  0  0
  5  8  1  0  0  0  0
  6 11  1  0  0  0  0
  6  5  2  0  0  0  0
  7  1  1  0  0  0  0
 10  9  3  0  0  0  0
 12 13  2  0  0  0  0
 14 15  1  0  0  0  0
 14 12  1  0  0  0  0
M  RAD  2   2   2   3   2
M  END
