Coordinates from ORCA-job 2-HOOC-C6H3-N2-B3LYPG-aug-cc-pVDZ-scan-d09-49-n400
 OpenBabel11091809063D

 15 14  0  0  0  0  0  0  0  0999 V2000
   -1.8581   -1.5036   -1.0529 C   0  0  0  0  0  0  0  0  0  0  0  0
   -0.5243   -1.1244   -1.0911 C   0  0  0  0  0  0  0  0  0  0  0  0
   -0.0577    0.0257   -0.9274 C   0  0  0  0  0  0  0  0  0  0  0  0
   -0.7812    1.1843   -0.6674 C   0  0  0  0  0  0  0  0  0  0  0  0
   -2.1714    0.9082   -0.6060 C   0  0  0  0  0  0  0  0  0  0  0  0
   -2.6874   -0.3843   -0.7914 C   0  0  0  0  0  0  0  0  0  0  0  0
   -2.2591   -2.5052   -1.1969 H   0  0  0  0  0  0  0  0  0  0  0  0
   -2.8449    1.7424   -0.4069 H   0  0  0  0  0  0  0  0  0  0  0  0
    4.5393    0.1460   -0.4899 N   0  0  0  0  0  0  0  0  0  0  0  0
    4.9270    0.1343   -1.5240 N   0  0  0  0  0  0  0  0  0  0  0  0
   -3.7664   -0.5377   -0.7330 H   0  0  0  0  0  0  0  0  0  0  0  0
   -0.2566    2.5571   -0.4688 C   0  0  0  0  0  0  0  0  0  0  0  0
   -0.9417    3.5335   -0.2438 O   0  0  0  0  0  0  0  0  0  0  0  0
    1.0945    2.6099   -0.5664 O   0  0  0  0  0  0  0  0  0  0  0  0
    1.3467    3.5364   -0.4234 H   0  0  0  0  0  0  0  0  0  0  0  0
  1  6  1  0  0  0  0
  2  1  2  0  0  0  0
  2  3  1  0  0  0  0
  3  4  2  0  0  0  0
  4  5  1  0  0  0  0
  4 12  1  0  0  0  0
  5  8  1  0  0  0  0
  6 11  1  0  0  0  0
  6  5  2  0  0  0  0
  7  1  1  0  0  0  0
 10  9  3  0  0  0  0
 12 13  2  0  0  0  0
 14 12  1  0  0  0  0
 14 15  1  0  0  0  0
M  RAD  2   2   2   3   2
M  END
