Coordinates from ORCA-job 2-HOOC-C6H3-N2-B3LYPG-aug-cc-pVDZ-scan-d09-49-n400
 OpenBabel11091809063D

 15 14  0  0  0  0  0  0  0  0999 V2000
   -1.6291   -1.5120   -1.0483 C   0  0  0  0  0  0  0  0  0  0  0  0
   -0.3018   -1.1066   -1.0501 C   0  0  0  0  0  0  0  0  0  0  0  0
    0.1300    0.0568   -0.8837 C   0  0  0  0  0  0  0  0  0  0  0  0
   -0.6238    1.2018   -0.6524 C   0  0  0  0  0  0  0  0  0  0  0  0
   -2.0090    0.8936   -0.6250 C   0  0  0  0  0  0  0  0  0  0  0  0
   -2.4904   -0.4110   -0.8157 C   0  0  0  0  0  0  0  0  0  0  0  0
   -2.0042   -2.5229   -1.1984 H   0  0  0  0  0  0  0  0  0  0  0  0
   -2.7058    1.7141   -0.4505 H   0  0  0  0  0  0  0  0  0  0  0  0
    3.3415    0.0979   -0.5834 N   0  0  0  0  0  0  0  0  0  0  0  0
    4.0068    0.0401   -1.4634 N   0  0  0  0  0  0  0  0  0  0  0  0
   -3.5668   -0.5884   -0.7850 H   0  0  0  0  0  0  0  0  0  0  0  0
   -0.1453    2.5918   -0.4545 C   0  0  0  0  0  0  0  0  0  0  0  0
   -0.8660    3.5447   -0.2403 O   0  0  0  0  0  0  0  0  0  0  0  0
    1.2037    2.6935   -0.5402 O   0  0  0  0  0  0  0  0  0  0  0  0
    1.4191    3.6294   -0.3983 H   0  0  0  0  0  0  0  0  0  0  0  0
  1  6  1  0  0  0  0
  2  1  2  0  0  0  0
  2  3  1  0  0  0  0
  3  4  2  0  0  0  0
  4  5  1  0  0  0  0
  4 12  1  0  0  0  0
  5  8  1  0  0  0  0
  6 11  1  0  0  0  0
  6  5  2  0  0  0  0
  7  1  1  0  0  0  0
 10  9  3  0  0  0  0
 12 13  2  0  0  0  0
 14 12  1  0  0  0  0
 14 15  1  0  0  0  0
M  RAD  2   2   2   3   2
M  END
