Coordinates from ORCA-job 2-HOOC-C6H3-N2-B3LYPG-aug-cc-pVDZ-scan-d09-49-n400
 OpenBabel11091809063D

 15 14  0  0  0  0  0  0  0  0999 V2000
   -1.6733   -1.5112   -1.0469 C   0  0  0  0  0  0  0  0  0  0  0  0
   -0.3445   -1.1110   -1.0551 C   0  0  0  0  0  0  0  0  0  0  0  0
    0.0933    0.0502   -0.8898 C   0  0  0  0  0  0  0  0  0  0  0  0
   -0.6541    1.1986   -0.6552 C   0  0  0  0  0  0  0  0  0  0  0  0
   -2.0406    0.8968   -0.6232 C   0  0  0  0  0  0  0  0  0  0  0  0
   -2.5285   -0.4058   -0.8116 C   0  0  0  0  0  0  0  0  0  0  0  0
   -2.0535   -2.5205   -1.1943 H   0  0  0  0  0  0  0  0  0  0  0  0
   -2.7332    1.7202   -0.4460 H   0  0  0  0  0  0  0  0  0  0  0  0
    3.5551    0.1074   -0.5766 N   0  0  0  0  0  0  0  0  0  0  0  0
    4.1967    0.0626   -1.4747 N   0  0  0  0  0  0  0  0  0  0  0  0
   -3.6056   -0.5782   -0.7769 H   0  0  0  0  0  0  0  0  0  0  0  0
   -0.1655    2.5849   -0.4570 C   0  0  0  0  0  0  0  0  0  0  0  0
   -0.8795    3.5435   -0.2449 O   0  0  0  0  0  0  0  0  0  0  0  0
    1.1844    2.6754   -0.5395 O   0  0  0  0  0  0  0  0  0  0  0  0
    1.4076    3.6096   -0.3977 H   0  0  0  0  0  0  0  0  0  0  0  0
  1  6  1  0  0  0  0
  2  1  2  0  0  0  0
  2  3  1  0  0  0  0
  3  4  2  0  0  0  0
  4  5  1  0  0  0  0
  4 12  1  0  0  0  0
  5  8  1  0  0  0  0
  6 11  1  0  0  0  0
  6  5  2  0  0  0  0
  7  1  1  0  0  0  0
 10  9  3  0  0  0  0
 12 13  2  0  0  0  0
 14 12  1  0  0  0  0
 14 15  1  0  0  0  0
M  RAD  2   2   2   3   2
M  END
