Coordinates from ORCA-job 2-HOOC-C6H3-N2-B3LYPG-aug-cc-pVDZ-scan-d09-49-n400
 OpenBabel11091809063D

 15 14  0  0  0  0  0  0  0  0999 V2000
   -1.8942   -1.5028   -1.0543 C   0  0  0  0  0  0  0  0  0  0  0  0
   -0.5610   -1.1260   -1.0958 C   0  0  0  0  0  0  0  0  0  0  0  0
   -0.0816    0.0186   -0.9328 C   0  0  0  0  0  0  0  0  0  0  0  0
   -0.8025    1.1791   -0.6692 C   0  0  0  0  0  0  0  0  0  0  0  0
   -2.1938    0.9100   -0.6038 C   0  0  0  0  0  0  0  0  0  0  0  0
   -2.7173   -0.3794   -0.7890 C   0  0  0  0  0  0  0  0  0  0  0  0
   -2.2991   -2.5027   -1.1981 H   0  0  0  0  0  0  0  0  0  0  0  0
   -2.8625    1.7474   -0.4016 H   0  0  0  0  0  0  0  0  0  0  0  0
    4.7441    0.1596   -0.4701 N   0  0  0  0  0  0  0  0  0  0  0  0
    5.0371    0.1447   -1.5348 N   0  0  0  0  0  0  0  0  0  0  0  0
   -3.7968   -0.5274   -0.7274 H   0  0  0  0  0  0  0  0  0  0  0  0
   -0.2724    2.5500   -0.4703 C   0  0  0  0  0  0  0  0  0  0  0  0
   -0.9536    3.5284   -0.2422 O   0  0  0  0  0  0  0  0  0  0  0  0
    1.0786    2.5987   -0.5715 O   0  0  0  0  0  0  0  0  0  0  0  0
    1.3337    3.5244   -0.4283 H   0  0  0  0  0  0  0  0  0  0  0  0
  1  6  1  0  0  0  0
  2  1  2  0  0  0  0
  2  3  1  0  0  0  0
  3  4  2  0  0  0  0
  4  5  1  0  0  0  0
  4 12  1  0  0  0  0
  5  8  1  0  0  0  0
  6 11  1  0  0  0  0
  6  5  2  0  0  0  0
  7  1  1  0  0  0  0
 10  9  3  0  0  0  0
 12 13  2  0  0  0  0
 14 12  1  0  0  0  0
 14 15  1  0  0  0  0
M  RAD  2   2   2   3   2
M  END
