Coordinates from ORCA-job 2-HOOC-C6H3-N2-B3LYPG-aug-cc-pVDZ-scan-d09-49-n400
 OpenBabel11091809063D

 15 14  0  0  0  0  0  0  0  0999 V2000
   -1.8920   -1.5027   -1.0543 C   0  0  0  0  0  0  0  0  0  0  0  0
   -0.5587   -1.1257   -1.0958 C   0  0  0  0  0  0  0  0  0  0  0  0
   -0.0807    0.0196   -0.9326 C   0  0  0  0  0  0  0  0  0  0  0  0
   -0.8018    1.1798   -0.6691 C   0  0  0  0  0  0  0  0  0  0  0  0
   -2.1930    0.9100   -0.6038 C   0  0  0  0  0  0  0  0  0  0  0  0
   -2.7157   -0.3798   -0.7890 C   0  0  0  0  0  0  0  0  0  0  0  0
   -2.2965   -2.5028   -1.1980 H   0  0  0  0  0  0  0  0  0  0  0  0
   -2.8621    1.7470   -0.4017 H   0  0  0  0  0  0  0  0  0  0  0  0
    4.7351    0.1569   -0.4711 N   0  0  0  0  0  0  0  0  0  0  0  0
    5.0332    0.1429   -1.5344 N   0  0  0  0  0  0  0  0  0  0  0  0
   -3.7952   -0.5284   -0.7275 H   0  0  0  0  0  0  0  0  0  0  0  0
   -0.2722    2.5509   -0.4702 C   0  0  0  0  0  0  0  0  0  0  0  0
   -0.9538    3.5291   -0.2423 O   0  0  0  0  0  0  0  0  0  0  0  0
    1.0787    2.6000   -0.5713 O   0  0  0  0  0  0  0  0  0  0  0  0
    1.3336    3.5257   -0.4281 H   0  0  0  0  0  0  0  0  0  0  0  0
  1  6  1  0  0  0  0
  2  1  2  0  0  0  0
  2  3  1  0  0  0  0
  3  4  2  0  0  0  0
  4  5  1  0  0  0  0
  4 12  1  0  0  0  0
  5  8  1  0  0  0  0
  6 11  1  0  0  0  0
  6  5  2  0  0  0  0
  7  1  1  0  0  0  0
 10  9  3  0  0  0  0
 12 13  2  0  0  0  0
 14 12  1  0  0  0  0
 14 15  1  0  0  0  0
M  RAD  2   2   2   3   2
M  END
