Coordinates from ORCA-job 2-HOOC-C6H3-N2-B3LYPG-aug-cc-pVDZ-scan-d09-49-n400
 OpenBabel11091809063D

 15 14  0  0  0  0  0  0  0  0999 V2000
   -1.4989   -1.5178   -1.0742 C   0  0  0  0  0  0  0  0  0  0  0  0
   -0.1609   -1.1380   -1.0545 C   0  0  0  0  0  0  0  0  0  0  0  0
    0.2604    0.0311   -0.8740 C   0  0  0  0  0  0  0  0  0  0  0  0
   -0.4873    1.1801   -0.6349 C   0  0  0  0  0  0  0  0  0  0  0  0
   -1.8732    0.8737   -0.6143 C   0  0  0  0  0  0  0  0  0  0  0  0
   -2.3607   -0.4249   -0.8243 C   0  0  0  0  0  0  0  0  0  0  0  0
   -1.8786   -2.5240   -1.2481 H   0  0  0  0  0  0  0  0  0  0  0  0
   -2.5652    1.6972   -0.4364 H   0  0  0  0  0  0  0  0  0  0  0  0
    2.5219    0.1990   -0.6062 N   0  0  0  0  0  0  0  0  0  0  0  0
    3.3282   -0.0021   -1.3369 N   0  0  0  0  0  0  0  0  0  0  0  0
   -3.4381   -0.5972   -0.7944 H   0  0  0  0  0  0  0  0  0  0  0  0
   -0.0468    2.5856   -0.4417 C   0  0  0  0  0  0  0  0  0  0  0  0
   -0.7926    3.5042   -0.1709 O   0  0  0  0  0  0  0  0  0  0  0  0
    1.2872    2.7557   -0.6107 O   0  0  0  0  0  0  0  0  0  0  0  0
    1.4634    3.6999   -0.4680 H   0  0  0  0  0  0  0  0  0  0  0  0
  1  2  2  0  0  0  0
  1  6  1  0  0  0  0
  2  3  1  0  0  0  0
  3  4  2  0  0  0  0
  4  5  1  0  0  0  0
  4 12  1  0  0  0  0
  5  8  1  0  0  0  0
  6 11  1  0  0  0  0
  6  5  2  0  0  0  0
  7  1  1  0  0  0  0
 10  9  3  0  0  0  0
 12 13  2  0  0  0  0
 14 15  1  0  0  0  0
 14 12  1  0  0  0  0
M  RAD  2   2   2   3   2
M  END
