Coordinates from ORCA-job 2-HOOC-C6H3-N2-B3LYPG-aug-cc-pVDZ-scan-d09-49-n400
 OpenBabel11091809063D

 15 14  0  0  0  0  0  0  0  0999 V2000
   -1.7901   -1.5072   -1.0500 C   0  0  0  0  0  0  0  0  0  0  0  0
   -0.4576   -1.1216   -1.0777 C   0  0  0  0  0  0  0  0  0  0  0  0
   -0.0006    0.0323   -0.9137 C   0  0  0  0  0  0  0  0  0  0  0  0
   -0.7320    1.1878   -0.6632 C   0  0  0  0  0  0  0  0  0  0  0  0
   -2.1211    0.9037   -0.6122 C   0  0  0  0  0  0  0  0  0  0  0  0
   -2.6280   -0.3923   -0.7984 C   0  0  0  0  0  0  0  0  0  0  0  0
   -2.1843   -2.5115   -1.1949 H   0  0  0  0  0  0  0  0  0  0  0  0
   -2.8009    1.7347   -0.4212 H   0  0  0  0  0  0  0  0  0  0  0  0
    4.1284    0.1475   -0.5337 N   0  0  0  0  0  0  0  0  0  0  0  0
    4.6691    0.1166   -1.4963 N   0  0  0  0  0  0  0  0  0  0  0  0
   -3.7064   -0.5518   -0.7485 H   0  0  0  0  0  0  0  0  0  0  0  0
   -0.2177    2.5645   -0.4649 C   0  0  0  0  0  0  0  0  0  0  0  0
   -0.9110    3.5364   -0.2455 O   0  0  0  0  0  0  0  0  0  0  0  0
    1.1335    2.6274   -0.5558 O   0  0  0  0  0  0  0  0  0  0  0  0
    1.3772    3.5562   -0.4132 H   0  0  0  0  0  0  0  0  0  0  0  0
  1  6  1  0  0  0  0
  2  1  2  0  0  0  0
  2  3  1  0  0  0  0
  3  4  2  0  0  0  0
  4  5  1  0  0  0  0
  4 12  1  0  0  0  0
  5  8  1  0  0  0  0
  6 11  1  0  0  0  0
  6  5  2  0  0  0  0
  7  1  1  0  0  0  0
 10  9  3  0  0  0  0
 12 13  2  0  0  0  0
 14 12  1  0  0  0  0
 14 15  1  0  0  0  0
M  RAD  2   2   2   3   2
M  END
