Coordinates from ORCA-job 2-HOOC-C6H3-N2-B3LYPG-aug-cc-pVDZ-scan-d09-49-n400
 OpenBabel11091809063D

 15 15  0  0  0  0  0  0  0  0999 V2000
   -1.3498   -1.4876   -0.8606 C   0  0  0  0  0  0  0  0  0  0  0  0
    0.0441   -1.3702   -1.0418 C   0  0  0  0  0  0  0  0  0  0  0  0
    0.5401    0.0575   -0.9777 C   0  0  0  0  0  0  0  0  0  0  0  0
   -0.4025    1.1627   -0.7228 C   0  0  0  0  0  0  0  0  0  0  0  0
   -1.7539    0.9073   -0.7597 C   0  0  0  0  0  0  0  0  0  0  0  0
   -2.2363   -0.4143   -0.8707 C   0  0  0  0  0  0  0  0  0  0  0  0
   -1.7549   -2.5018   -0.7942 H   0  0  0  0  0  0  0  0  0  0  0  0
   -2.4405    1.7436   -0.6407 H   0  0  0  0  0  0  0  0  0  0  0  0
    1.5403    0.1963   -1.1824 N   0  0  0  0  0  0  0  0  0  0  0  0
    2.6568    0.2892   -1.4253 N   0  0  0  0  0  0  0  0  0  0  0  0
   -3.3142   -0.5819   -0.9235 H   0  0  0  0  0  0  0  0  0  0  0  0
    0.0332    2.5590   -0.4305 C   0  0  0  0  0  0  0  0  0  0  0  0
   -0.7073    3.5193   -0.4299 O   0  0  0  0  0  0  0  0  0  0  0  0
    1.3575    2.6538   -0.1540 O   0  0  0  0  0  0  0  0  0  0  0  0
    1.5461    3.5895    0.0245 H   0  0  0  0  0  0  0  0  0  0  0  0
  1  7  1  0  0  0  0
  2  3  2  0  0  0  0
  2  1  1  0  0  0  0
  3  4  1  0  0  0  0
  4 12  1  0  0  0  0
  5  4  2  0  0  0  0
  5  8  1  0  0  0  0
  6  1  2  0  0  0  0
  6  5  1  0  0  0  0
  9  3  1  0  0  0  0
 10  9  1  0  0  0  0
 11  6  1  0  0  0  0
 12 13  2  0  0  0  0
 12 14  1  0  0  0  0
 14 15  1  0  0  0  0
M  RAD  3   2   2   9   2  10   3
M  END
