Coordinates from ORCA-job 2-HOOC-C6H3-N2-B3LYPG-aug-cc-pVDZ-scan-d09-49-n400
 OpenBabel11091809063D

 15 15  0  0  0  0  0  0  0  0999 V2000
   -1.3918   -1.4774   -1.0503 C   0  0  0  0  0  0  0  0  0  0  0  0
    0.0098   -1.2476   -1.1005 C   0  0  0  0  0  0  0  0  0  0  0  0
    0.3121    0.0263   -0.9042 C   0  0  0  0  0  0  0  0  0  0  0  0
   -0.4513    1.1790   -0.6606 C   0  0  0  0  0  0  0  0  0  0  0  0
   -1.8236    0.8901   -0.6223 C   0  0  0  0  0  0  0  0  0  0  0  0
   -2.2837   -0.4240   -0.8154 C   0  0  0  0  0  0  0  0  0  0  0  0
   -1.7934   -2.4843   -1.1951 H   0  0  0  0  0  0  0  0  0  0  0  0
   -2.5152    1.7107   -0.4395 H   0  0  0  0  0  0  0  0  0  0  0  0
    1.9464    0.2579   -0.9689 N   0  0  0  0  0  0  0  0  0  0  0  0
    3.0175   -0.0106   -1.0825 N   0  0  0  0  0  0  0  0  0  0  0  0
   -3.3582   -0.6156   -0.7795 H   0  0  0  0  0  0  0  0  0  0  0  0
   -0.0108    2.5812   -0.4513 C   0  0  0  0  0  0  0  0  0  0  0  0
   -0.7552    3.5154   -0.2461 O   0  0  0  0  0  0  0  0  0  0  0  0
    1.3409    2.7388   -0.5108 O   0  0  0  0  0  0  0  0  0  0  0  0
    1.5153    3.6826   -0.3624 H   0  0  0  0  0  0  0  0  0  0  0  0
  1  6  1  0  0  0  0
  2  1  2  0  0  0  0
  2  3  1  0  0  0  0
  3  4  2  0  0  0  0
  4  5  1  0  0  0  0
  4 12  1  0  0  0  0
  5  8  1  0  0  0  0
  6 11  1  0  0  0  0
  6  5  2  0  0  0  0
  7  1  1  0  0  0  0
  9  3  1  0  0  0  0
 10  9  1  0  0  0  0
 12 13  2  0  0  0  0
 14 12  1  0  0  0  0
 14 15  1  0  0  0  0
M  RAD  3   2   2   9   2  10   3
M  END
