Coordinates from ORCA-job 2-HOOC-C6H3-N2-B3LYPG-aug-cc-pVDZ-scan-d09-49-n400
 OpenBabel11091809063D

 15 14  0  0  0  0  0  0  0  0999 V2000
   -1.4394   -1.5031   -1.0503 C   0  0  0  0  0  0  0  0  0  0  0  0
   -0.0732   -1.1797   -1.0799 C   0  0  0  0  0  0  0  0  0  0  0  0
    0.2767    0.0293   -0.8992 C   0  0  0  0  0  0  0  0  0  0  0  0
   -0.4531    1.1875   -0.6593 C   0  0  0  0  0  0  0  0  0  0  0  0
   -1.8359    0.8803   -0.6248 C   0  0  0  0  0  0  0  0  0  0  0  0
   -2.3137   -0.4251   -0.8146 C   0  0  0  0  0  0  0  0  0  0  0  0
   -1.8269   -2.5131   -1.1960 H   0  0  0  0  0  0  0  0  0  0  0  0
   -2.5263    1.7036   -0.4438 H   0  0  0  0  0  0  0  0  0  0  0  0
    2.2282    0.3088   -0.9712 N   0  0  0  0  0  0  0  0  0  0  0  0
    3.1954   -0.2055   -1.1375 N   0  0  0  0  0  0  0  0  0  0  0  0
   -3.3900   -0.6028   -0.7772 H   0  0  0  0  0  0  0  0  0  0  0  0
   -0.0342    2.5992   -0.4495 C   0  0  0  0  0  0  0  0  0  0  0  0
   -0.8076    3.5107   -0.2410 O   0  0  0  0  0  0  0  0  0  0  0  0
    1.3081    2.7920   -0.4994 O   0  0  0  0  0  0  0  0  0  0  0  0
    1.4505    3.7405   -0.3457 H   0  0  0  0  0  0  0  0  0  0  0  0
  1  6  1  0  0  0  0
  2  1  2  0  0  0  0
  2  3  1  0  0  0  0
  3  4  2  0  0  0  0
  4  5  1  0  0  0  0
  4 12  1  0  0  0  0
  5  8  1  0  0  0  0
  6 11  1  0  0  0  0
  6  5  2  0  0  0  0
  7  1  1  0  0  0  0
 10  9  3  0  0  0  0
 12 13  2  0  0  0  0
 14 12  1  0  0  0  0
 14 15  1  0  0  0  0
M  RAD  2   2   2   3   2
M  END
