Coordinates from ORCA-job 2-HOOC-C6H3-N2-B3LYPG-aug-cc-pVDZ-scan-d09-49-n400
 OpenBabel11091809063D

 15 15  0  0  0  0  0  0  0  0999 V2000
   -1.3962   -1.4799   -1.0503 C   0  0  0  0  0  0  0  0  0  0  0  0
    0.0006   -1.2361   -1.0979 C   0  0  0  0  0  0  0  0  0  0  0  0
    0.3048    0.0264   -0.9038 C   0  0  0  0  0  0  0  0  0  0  0  0
   -0.4512    1.1796   -0.6608 C   0  0  0  0  0  0  0  0  0  0  0  0
   -1.8252    0.8882   -0.6226 C   0  0  0  0  0  0  0  0  0  0  0  0
   -2.2872   -0.4245   -0.8152 C   0  0  0  0  0  0  0  0  0  0  0  0
   -1.7947   -2.4878   -1.1953 H   0  0  0  0  0  0  0  0  0  0  0  0
   -2.5165    1.7093   -0.4399 H   0  0  0  0  0  0  0  0  0  0  0  0
    1.9779    0.2705   -0.9690 N   0  0  0  0  0  0  0  0  0  0  0  0
    3.0360   -0.0415   -1.0890 N   0  0  0  0  0  0  0  0  0  0  0  0
   -3.3617   -0.6152   -0.7791 H   0  0  0  0  0  0  0  0  0  0  0  0
   -0.0128    2.5831   -0.4514 C   0  0  0  0  0  0  0  0  0  0  0  0
   -0.7607    3.5146   -0.2458 O   0  0  0  0  0  0  0  0  0  0  0  0
    1.3379    2.7456   -0.5093 O   0  0  0  0  0  0  0  0  0  0  0  0
    1.5077    3.6901   -0.3600 H   0  0  0  0  0  0  0  0  0  0  0  0
  1  6  1  0  0  0  0
  2  1  2  0  0  0  0
  2  3  1  0  0  0  0
  3  4  2  0  0  0  0
  4  5  1  0  0  0  0
  4 12  1  0  0  0  0
  5  8  1  0  0  0  0
  6 11  1  0  0  0  0
  6  5  2  0  0  0  0
  7  1  1  0  0  0  0
  9  3  1  0  0  0  0
 10  9  1  0  0  0  0
 12 13  2  0  0  0  0
 14 12  1  0  0  0  0
 14 15  1  0  0  0  0
M  RAD  3   2   2   9   2  10   3
M  END
