Coordinates from ORCA-job 2-HOOC-C6H3-N2-B3LYPG-aug-cc-pVDZ-scan-d09-49-n400
 OpenBabel11091809063D

 15 14  0  0  0  0  0  0  0  0999 V2000
   -1.7885   -1.5073   -1.0500 C   0  0  0  0  0  0  0  0  0  0  0  0
   -0.4560   -1.1216   -1.0774 C   0  0  0  0  0  0  0  0  0  0  0  0
    0.0006    0.0325   -0.9134 C   0  0  0  0  0  0  0  0  0  0  0  0
   -0.7309    1.1879   -0.6631 C   0  0  0  0  0  0  0  0  0  0  0  0
   -2.1199    0.9036   -0.6123 C   0  0  0  0  0  0  0  0  0  0  0  0
   -2.6266   -0.3925   -0.7986 C   0  0  0  0  0  0  0  0  0  0  0  0
   -2.1826   -2.5116   -1.1950 H   0  0  0  0  0  0  0  0  0  0  0  0
   -2.7999    1.7345   -0.4215 H   0  0  0  0  0  0  0  0  0  0  0  0
    4.1198    0.1473   -0.5346 N   0  0  0  0  0  0  0  0  0  0  0  0
    4.6631    0.1159   -1.4957 N   0  0  0  0  0  0  0  0  0  0  0  0
   -3.7051   -0.5521   -0.7489 H   0  0  0  0  0  0  0  0  0  0  0  0
   -0.2169    2.5647   -0.4648 C   0  0  0  0  0  0  0  0  0  0  0  0
   -0.9105    3.5365   -0.2455 O   0  0  0  0  0  0  0  0  0  0  0  0
    1.1343    2.6280   -0.5556 O   0  0  0  0  0  0  0  0  0  0  0  0
    1.3777    3.5569   -0.4130 H   0  0  0  0  0  0  0  0  0  0  0  0
  1  6  1  0  0  0  0
  2  1  2  0  0  0  0
  2  3  1  0  0  0  0
  3  4  2  0  0  0  0
  4  5  1  0  0  0  0
  4 12  1  0  0  0  0
  5  8  1  0  0  0  0
  6 11  1  0  0  0  0
  6  5  2  0  0  0  0
  7  1  1  0  0  0  0
 10  9  3  0  0  0  0
 12 13  2  0  0  0  0
 14 12  1  0  0  0  0
 14 15  1  0  0  0  0
M  RAD  2   2   2   3   2
M  END
