Coordinates from ORCA-job 2-HOOC-C6H3-N2-B3LYPG-aug-cc-pVDZ-scan-d09-49-n400
 OpenBabel11091809063D

 15 14  0  0  0  0  0  0  0  0999 V2000
   -1.7022   -1.5106   -1.0473 C   0  0  0  0  0  0  0  0  0  0  0  0
   -0.3724   -1.1142   -1.0606 C   0  0  0  0  0  0  0  0  0  0  0  0
    0.0697    0.0454   -0.8959 C   0  0  0  0  0  0  0  0  0  0  0  0
   -0.6731    1.1959   -0.6574 C   0  0  0  0  0  0  0  0  0  0  0  0
   -2.0604    0.8985   -0.6208 C   0  0  0  0  0  0  0  0  0  0  0  0
   -2.5531   -0.4025   -0.8083 C   0  0  0  0  0  0  0  0  0  0  0  0
   -2.0861   -2.5186   -1.1935 H   0  0  0  0  0  0  0  0  0  0  0  0
   -2.7498    1.7239   -0.4403 H   0  0  0  0  0  0  0  0  0  0  0  0
    3.6911    0.1181   -0.5691 N   0  0  0  0  0  0  0  0  0  0  0  0
    4.3166    0.0775   -1.4787 N   0  0  0  0  0  0  0  0  0  0  0  0
   -3.6306   -0.5715   -0.7697 H   0  0  0  0  0  0  0  0  0  0  0  0
   -0.1779    2.5798   -0.4591 C   0  0  0  0  0  0  0  0  0  0  0  0
   -0.8868    3.5418   -0.2461 O   0  0  0  0  0  0  0  0  0  0  0  0
    1.1725    2.6631   -0.5422 O   0  0  0  0  0  0  0  0  0  0  0  0
    1.4011    3.5959   -0.4002 H   0  0  0  0  0  0  0  0  0  0  0  0
  1  6  1  0  0  0  0
  2  1  2  0  0  0  0
  2  3  1  0  0  0  0
  3  4  2  0  0  0  0
  4  5  1  0  0  0  0
  4 12  1  0  0  0  0
  5  8  1  0  0  0  0
  6 11  1  0  0  0  0
  6  5  2  0  0  0  0
  7  1  1  0  0  0  0
 10  9  3  0  0  0  0
 12 13  2  0  0  0  0
 14 12  1  0  0  0  0
 14 15  1  0  0  0  0
M  RAD  2   2   2   3   2
M  END
