Coordinates from ORCA-job 2-HOOC-C6H3-N2-B3LYPG-aug-cc-pVDZ-scan-d09-49-n400
 OpenBabel11091809063D

 15 15  0  0  0  0  0  0  0  0999 V2000
   -1.3879   -1.4749   -1.0498 C   0  0  0  0  0  0  0  0  0  0  0  0
    0.0180   -1.2591   -1.1028 C   0  0  0  0  0  0  0  0  0  0  0  0
    0.3212    0.0271   -0.9048 C   0  0  0  0  0  0  0  0  0  0  0  0
   -0.4521    1.1783   -0.6611 C   0  0  0  0  0  0  0  0  0  0  0  0
   -1.8220    0.8920   -0.6223 C   0  0  0  0  0  0  0  0  0  0  0  0
   -2.2805   -0.4236   -0.8155 C   0  0  0  0  0  0  0  0  0  0  0  0
   -1.7926   -2.4809   -1.1941 H   0  0  0  0  0  0  0  0  0  0  0  0
   -2.5143    1.7121   -0.4397 H   0  0  0  0  0  0  0  0  0  0  0  0
    1.9170    0.2436   -0.9698 N   0  0  0  0  0  0  0  0  0  0  0  0
    2.9998    0.0218   -1.0762 N   0  0  0  0  0  0  0  0  0  0  0  0
   -3.3550   -0.6159   -0.7796 H   0  0  0  0  0  0  0  0  0  0  0  0
   -0.0094    2.5796   -0.4525 C   0  0  0  0  0  0  0  0  0  0  0  0
   -0.7499    3.5165   -0.2461 O   0  0  0  0  0  0  0  0  0  0  0  0
    1.3436    2.7315   -0.5118 O   0  0  0  0  0  0  0  0  0  0  0  0
    1.5229    3.6743   -0.3633 H   0  0  0  0  0  0  0  0  0  0  0  0
  1  6  1  0  0  0  0
  2  1  2  0  0  0  0
  2  3  1  0  0  0  0
  3  4  2  0  0  0  0
  4  5  1  0  0  0  0
  4 12  1  0  0  0  0
  5  8  1  0  0  0  0
  6 11  1  0  0  0  0
  6  5  2  0  0  0  0
  7  1  1  0  0  0  0
  9  3  1  0  0  0  0
 10  9  1  0  0  0  0
 12 13  2  0  0  0  0
 14 12  1  0  0  0  0
 14 15  1  0  0  0  0
M  RAD  3   2   2   9   2  10   3
M  END
