Coordinates from ORCA-job 2-HOOC-C6H3-N2-B3LYPG-aug-cc-pVDZ-scan-d09-49-n400
 OpenBabel11091809063D

 15 14  0  0  0  0  0  0  0  0999 V2000
   -1.6069   -1.5126   -1.0499 C   0  0  0  0  0  0  0  0  0  0  0  0
   -0.2803   -1.1050   -1.0490 C   0  0  0  0  0  0  0  0  0  0  0  0
    0.1491    0.0592   -0.8819 C   0  0  0  0  0  0  0  0  0  0  0  0
   -0.6073    1.2027   -0.6512 C   0  0  0  0  0  0  0  0  0  0  0  0
   -1.9920    0.8917   -0.6254 C   0  0  0  0  0  0  0  0  0  0  0  0
   -2.4708   -0.4137   -0.8174 C   0  0  0  0  0  0  0  0  0  0  0  0
   -1.9798   -2.5241   -1.2016 H   0  0  0  0  0  0  0  0  0  0  0  0
   -2.6905    1.7108   -0.4515 H   0  0  0  0  0  0  0  0  0  0  0  0
    3.2301    0.0950   -0.5842 N   0  0  0  0  0  0  0  0  0  0  0  0
    3.9064    0.0303   -1.4553 N   0  0  0  0  0  0  0  0  0  0  0  0
   -3.5469   -0.5931   -0.7881 H   0  0  0  0  0  0  0  0  0  0  0  0
   -0.1339    2.5945   -0.4532 C   0  0  0  0  0  0  0  0  0  0  0  0
   -0.8583    3.5439   -0.2356 O   0  0  0  0  0  0  0  0  0  0  0  0
    1.2143    2.7030   -0.5435 O   0  0  0  0  0  0  0  0  0  0  0  0
    1.4253    3.6400   -0.4013 H   0  0  0  0  0  0  0  0  0  0  0  0
  1  2  2  0  0  0  0
  1  6  1  0  0  0  0
  2  3  1  0  0  0  0
  3  4  2  0  0  0  0
  4  5  1  0  0  0  0
  4 12  1  0  0  0  0
  5  8  1  0  0  0  0
  6 11  1  0  0  0  0
  6  5  2  0  0  0  0
  7  1  1  0  0  0  0
 10  9  3  0  0  0  0
 12 13  2  0  0  0  0
 14 12  1  0  0  0  0
 14 15  1  0  0  0  0
M  RAD  2   2   2   3   2
M  END
