Coordinates from ORCA-job 2-HOOC-C6H3-N2-B3LYPG-aug-cc-pVDZ-scan-d09-49-n400
 OpenBabel11091809063D

 15 14  0  0  0  0  0  0  0  0999 V2000
   -1.6661   -1.5114   -1.0468 C   0  0  0  0  0  0  0  0  0  0  0  0
   -0.3376   -1.1102   -1.0538 C   0  0  0  0  0  0  0  0  0  0  0  0
    0.0992    0.0514   -0.8884 C   0  0  0  0  0  0  0  0  0  0  0  0
   -0.6493    1.1992   -0.6547 C   0  0  0  0  0  0  0  0  0  0  0  0
   -2.0356    0.8964   -0.6237 C   0  0  0  0  0  0  0  0  0  0  0  0
   -2.5224   -0.4066   -0.8125 C   0  0  0  0  0  0  0  0  0  0  0  0
   -2.0454   -2.5210   -1.1945 H   0  0  0  0  0  0  0  0  0  0  0  0
   -2.7290    1.7193   -0.4473 H   0  0  0  0  0  0  0  0  0  0  0  0
    3.5210    0.1051   -0.5781 N   0  0  0  0  0  0  0  0  0  0  0  0
    4.1662    0.0591   -1.4737 N   0  0  0  0  0  0  0  0  0  0  0  0
   -3.5994   -0.5799   -0.7786 H   0  0  0  0  0  0  0  0  0  0  0  0
   -0.1624    2.5862   -0.4565 C   0  0  0  0  0  0  0  0  0  0  0  0
   -0.8775    3.5438   -0.2444 O   0  0  0  0  0  0  0  0  0  0  0  0
    1.1874    2.6784   -0.5390 O   0  0  0  0  0  0  0  0  0  0  0  0
    1.4095    3.6128   -0.3972 H   0  0  0  0  0  0  0  0  0  0  0  0
  1  6  1  0  0  0  0
  2  1  2  0  0  0  0
  2  3  1  0  0  0  0
  3  4  2  0  0  0  0
  4  5  1  0  0  0  0
  4 12  1  0  0  0  0
  5  8  1  0  0  0  0
  6 11  1  0  0  0  0
  6  5  2  0  0  0  0
  7  1  1  0  0  0  0
 10  9  3  0  0  0  0
 12 13  2  0  0  0  0
 14 12  1  0  0  0  0
 14 15  1  0  0  0  0
M  RAD  2   2   2   3   2
M  END
