Coordinates from ORCA-job 2-HOOC-C6H3-N2-B3LYPG-aug-cc-pVDZ-scan-d09-49-n400
 OpenBabel11091809063D

 15 14  0  0  0  0  0  0  0  0999 V2000
   -1.4534   -1.5168   -1.0519 C   0  0  0  0  0  0  0  0  0  0  0  0
   -0.1031   -1.1699   -1.0058 C   0  0  0  0  0  0  0  0  0  0  0  0
    0.3035    0.0157   -0.8343 C   0  0  0  0  0  0  0  0  0  0  0  0
   -0.4470    1.1718   -0.6270 C   0  0  0  0  0  0  0  0  0  0  0  0
   -1.8327    0.8750   -0.6371 C   0  0  0  0  0  0  0  0  0  0  0  0
   -2.3208   -0.4242   -0.8410 C   0  0  0  0  0  0  0  0  0  0  0  0
   -1.8375   -2.5235   -1.2187 H   0  0  0  0  0  0  0  0  0  0  0  0
   -2.5228    1.7050   -0.4875 H   0  0  0  0  0  0  0  0  0  0  0  0
    2.2865    0.2541   -0.6864 N   0  0  0  0  0  0  0  0  0  0  0  0
    3.1070   -0.0490   -1.3695 N   0  0  0  0  0  0  0  0  0  0  0  0
   -3.3995   -0.5912   -0.8331 H   0  0  0  0  0  0  0  0  0  0  0  0
   -0.0224    2.5841   -0.4334 C   0  0  0  0  0  0  0  0  0  0  0  0
   -0.7832    3.4943   -0.1771 O   0  0  0  0  0  0  0  0  0  0  0  0
    1.3137    2.7752   -0.5680 O   0  0  0  0  0  0  0  0  0  0  0  0
    1.4705    3.7219   -0.4185 H   0  0  0  0  0  0  0  0  0  0  0  0
  1  2  2  0  0  0  0
  1  6  1  0  0  0  0
  2  3  1  0  0  0  0
  3  4  2  0  0  0  0
  4 12  1  0  0  0  0
  5  4  1  0  0  0  0
  5  8  1  0  0  0  0
  6 11  1  0  0  0  0
  6  5  2  0  0  0  0
  7  1  1  0  0  0  0
 10  9  3  0  0  0  0
 12 13  2  0  0  0  0
 14 12  1  0  0  0  0
 14 15  1  0  0  0  0
M  RAD  2   2   2   3   2
M  END
