Coordinates from ORCA-job 2-HOOC-C6H3-N2-B3LYPG-aug-cc-pVDZ-scan-d09-49-n400
 OpenBabel11091809063D

 15 14  0  0  0  0  0  0  0  0999 V2000
   -1.5921   -1.5125   -1.0519 C   0  0  0  0  0  0  0  0  0  0  0  0
   -0.2661   -1.1030   -1.0483 C   0  0  0  0  0  0  0  0  0  0  0  0
    0.1633    0.0610   -0.8805 C   0  0  0  0  0  0  0  0  0  0  0  0
   -0.5967    1.2027   -0.6496 C   0  0  0  0  0  0  0  0  0  0  0  0
   -1.9805    0.8901   -0.6246 C   0  0  0  0  0  0  0  0  0  0  0  0
   -2.4577   -0.4156   -0.8184 C   0  0  0  0  0  0  0  0  0  0  0  0
   -1.9633   -2.5242   -1.2061 H   0  0  0  0  0  0  0  0  0  0  0  0
   -2.6800    1.7084   -0.4506 H   0  0  0  0  0  0  0  0  0  0  0  0
    3.1536    0.0955   -0.5830 N   0  0  0  0  0  0  0  0  0  0  0  0
    3.8376    0.0246   -1.4476 N   0  0  0  0  0  0  0  0  0  0  0  0
   -3.5336   -0.5966   -0.7901 H   0  0  0  0  0  0  0  0  0  0  0  0
   -0.1259    2.5956   -0.4523 C   0  0  0  0  0  0  0  0  0  0  0  0
   -0.8515    3.5431   -0.2305 O   0  0  0  0  0  0  0  0  0  0  0  0
    1.2216    2.7080   -0.5490 O   0  0  0  0  0  0  0  0  0  0  0  0
    1.4299    3.6456   -0.4069 H   0  0  0  0  0  0  0  0  0  0  0  0
  1  2  2  0  0  0  0
  1  6  1  0  0  0  0
  2  3  1  0  0  0  0
  3  4  2  0  0  0  0
  4  5  1  0  0  0  0
  4 12  1  0  0  0  0
  5  8  1  0  0  0  0
  6 11  1  0  0  0  0
  6  5  2  0  0  0  0
  7  1  1  0  0  0  0
 10  9  3  0  0  0  0
 12 13  2  0  0  0  0
 14 12  1  0  0  0  0
 14 15  1  0  0  0  0
M  RAD  2   2   2   3   2
M  END
