Coordinates from ORCA-job 2-HOOC-C6H3-N2-B3LYPG-aug-cc-pVDZ-scan-d09-49-n400
 OpenBabel11091809063D

 15 14  0  0  0  0  0  0  0  0999 V2000
   -1.7690   -1.5085   -1.0494 C   0  0  0  0  0  0  0  0  0  0  0  0
   -0.4368   -1.1212   -1.0743 C   0  0  0  0  0  0  0  0  0  0  0  0
    0.0160    0.0344   -0.9102 C   0  0  0  0  0  0  0  0  0  0  0  0
   -0.7165    1.1894   -0.6620 C   0  0  0  0  0  0  0  0  0  0  0  0
   -2.1056    0.9023   -0.6142 C   0  0  0  0  0  0  0  0  0  0  0  0
   -2.6095   -0.3946   -0.8005 C   0  0  0  0  0  0  0  0  0  0  0  0
   -2.1614   -2.5135   -1.1943 H   0  0  0  0  0  0  0  0  0  0  0  0
   -2.7874    1.7322   -0.4255 H   0  0  0  0  0  0  0  0  0  0  0  0
    4.0157    0.1418   -0.5451 N   0  0  0  0  0  0  0  0  0  0  0  0
    4.5875    0.1068   -1.4895 N   0  0  0  0  0  0  0  0  0  0  0  0
   -3.6878   -0.5558   -0.7529 H   0  0  0  0  0  0  0  0  0  0  0  0
   -0.2075    2.5682   -0.4635 C   0  0  0  0  0  0  0  0  0  0  0  0
   -0.9054    3.5371   -0.2458 O   0  0  0  0  0  0  0  0  0  0  0  0
    1.1435    2.6370   -0.5522 O   0  0  0  0  0  0  0  0  0  0  0  0
    1.3829    3.5670   -0.4096 H   0  0  0  0  0  0  0  0  0  0  0  0
  1  6  1  0  0  0  0
  2  1  2  0  0  0  0
  2  3  1  0  0  0  0
  3  4  2  0  0  0  0
  4  5  1  0  0  0  0
  4 12  1  0  0  0  0
  5  8  1  0  0  0  0
  6 11  1  0  0  0  0
  6  5  2  0  0  0  0
  7  1  1  0  0  0  0
 10  9  3  0  0  0  0
 12 13  2  0  0  0  0
 14 12  1  0  0  0  0
 14 15  1  0  0  0  0
M  RAD  2   2   2   3   2
M  END
