Coordinates from ORCA-job 2-HOOC-C6H3-N2-B3LYPG-aug-cc-pVDZ-scan-d09-49-n400
 OpenBabel11091809063D

 15 14  0  0  0  0  0  0  0  0999 V2000
   -1.8085   -1.5064   -1.0505 C   0  0  0  0  0  0  0  0  0  0  0  0
   -0.4756   -1.1227   -1.0810 C   0  0  0  0  0  0  0  0  0  0  0  0
   -0.0157    0.0300   -0.9172 C   0  0  0  0  0  0  0  0  0  0  0  0
   -0.7449    1.1866   -0.6643 C   0  0  0  0  0  0  0  0  0  0  0  0
   -2.1343    0.9049   -0.6108 C   0  0  0  0  0  0  0  0  0  0  0  0
   -2.6439   -0.3901   -0.7966 C   0  0  0  0  0  0  0  0  0  0  0  0
   -2.2047   -2.5099   -1.1951 H   0  0  0  0  0  0  0  0  0  0  0  0
   -2.8123    1.7369   -0.4178 H   0  0  0  0  0  0  0  0  0  0  0  0
    4.2328    0.1485   -0.5225 N   0  0  0  0  0  0  0  0  0  0  0  0
    4.7392    0.1238   -1.5038 N   0  0  0  0  0  0  0  0  0  0  0  0
   -3.7225   -0.5477   -0.7446 H   0  0  0  0  0  0  0  0  0  0  0  0
   -0.2273    2.5621   -0.4660 C   0  0  0  0  0  0  0  0  0  0  0  0
   -0.9181    3.5355   -0.2455 O   0  0  0  0  0  0  0  0  0  0  0  0
    1.1239    2.6216   -0.5583 O   0  0  0  0  0  0  0  0  0  0  0  0
    1.3703    3.5497   -0.4156 H   0  0  0  0  0  0  0  0  0  0  0  0
  1  6  1  0  0  0  0
  2  1  2  0  0  0  0
  2  3  1  0  0  0  0
  3  4  2  0  0  0  0
  4  5  1  0  0  0  0
  4 12  1  0  0  0  0
  5  8  1  0  0  0  0
  6 11  1  0  0  0  0
  6  5  2  0  0  0  0
  7  1  1  0  0  0  0
 10  9  3  0  0  0  0
 12 13  2  0  0  0  0
 14 12  1  0  0  0  0
 14 15  1  0  0  0  0
M  RAD  2   2   2   3   2
M  END
