Coordinates from ORCA-job 2-HOOC-C6H3-N2-B3LYPG-aug-cc-pVDZ-scan-d09-49-n400
 OpenBabel11091809063D

 15 15  0  0  0  0  0  0  0  0999 V2000
   -1.4078   -1.4875   -1.0508 C   0  0  0  0  0  0  0  0  0  0  0  0
   -0.0210   -1.2164   -1.0934 C   0  0  0  0  0  0  0  0  0  0  0  0
    0.2959    0.0262   -0.9034 C   0  0  0  0  0  0  0  0  0  0  0  0
   -0.4486    1.1813   -0.6608 C   0  0  0  0  0  0  0  0  0  0  0  0
   -1.8261    0.8848   -0.6232 C   0  0  0  0  0  0  0  0  0  0  0  0
   -2.2937   -0.4250   -0.8148 C   0  0  0  0  0  0  0  0  0  0  0  0
   -1.8024   -2.4963   -1.1962 H   0  0  0  0  0  0  0  0  0  0  0  0
   -2.5166    1.7067   -0.4403 H   0  0  0  0  0  0  0  0  0  0  0  0
    2.0469    0.2906   -0.9702 N   0  0  0  0  0  0  0  0  0  0  0  0
    3.0756   -0.1039   -1.1017 N   0  0  0  0  0  0  0  0  0  0  0  0
   -3.3688   -0.6113   -0.7779 H   0  0  0  0  0  0  0  0  0  0  0  0
   -0.0176    2.5880   -0.4505 C   0  0  0  0  0  0  0  0  0  0  0  0
   -0.7755    3.5121   -0.2453 O   0  0  0  0  0  0  0  0  0  0  0  0
    1.3300    2.7634   -0.5057 O   0  0  0  0  0  0  0  0  0  0  0  0
    1.4883    3.7099   -0.3552 H   0  0  0  0  0  0  0  0  0  0  0  0
  1  6  1  0  0  0  0
  2  1  2  0  0  0  0
  2  3  1  0  0  0  0
  3  4  2  0  0  0  0
  4  5  1  0  0  0  0
  4 12  1  0  0  0  0
  5  8  1  0  0  0  0
  6 11  1  0  0  0  0
  6  5  2  0  0  0  0
  7  1  1  0  0  0  0
  9  3  1  0  0  0  0
 10  9  2  0  0  0  0
 12 13  2  0  0  0  0
 14 12  1  0  0  0  0
 14 15  1  0  0  0  0
M  RAD  2   2   2  10   2
M  END
