Coordinates from ORCA-job 2-HOOC-C6H3-N2-B3LYPG-aug-cc-pVDZ-scan-d09-49-n400
 OpenBabel11091809063D

 15 15  0  0  0  0  0  0  0  0999 V2000
   -1.3578   -1.4892   -0.8844 C   0  0  0  0  0  0  0  0  0  0  0  0
    0.0439   -1.3583   -1.0466 C   0  0  0  0  0  0  0  0  0  0  0  0
    0.4942    0.0396   -0.9589 C   0  0  0  0  0  0  0  0  0  0  0  0
   -0.4094    1.1650   -0.7182 C   0  0  0  0  0  0  0  0  0  0  0  0
   -1.7633    0.9080   -0.7445 C   0  0  0  0  0  0  0  0  0  0  0  0
   -2.2424   -0.4155   -0.8663 C   0  0  0  0  0  0  0  0  0  0  0  0
   -1.7676   -2.5025   -0.8367 H   0  0  0  0  0  0  0  0  0  0  0  0
   -2.4516    1.7415   -0.6159 H   0  0  0  0  0  0  0  0  0  0  0  0
    1.6054    0.1903   -1.1677 N   0  0  0  0  0  0  0  0  0  0  0  0
    2.7123    0.2799   -1.3913 N   0  0  0  0  0  0  0  0  0  0  0  0
   -3.3211   -0.5829   -0.9055 H   0  0  0  0  0  0  0  0  0  0  0  0
    0.0264    2.5616   -0.4355 C   0  0  0  0  0  0  0  0  0  0  0  0
   -0.7144    3.5211   -0.4089 O   0  0  0  0  0  0  0  0  0  0  0  0
    1.3599    2.6638   -0.1935 O   0  0  0  0  0  0  0  0  0  0  0  0
    1.5443    3.6003   -0.0153 H   0  0  0  0  0  0  0  0  0  0  0  0
  1  6  2  0  0  0  0
  1  7  1  0  0  0  0
  2  3  2  0  0  0  0
  2  1  1  0  0  0  0
  3  4  1  0  0  0  0
  4 12  1  0  0  0  0
  5  4  2  0  0  0  0
  5  8  1  0  0  0  0
  6  5  1  0  0  0  0
  9  3  1  0  0  0  0
 10  9  1  0  0  0  0
 11  6  1  0  0  0  0
 12 13  2  0  0  0  0
 12 14  1  0  0  0  0
 14 15  1  0  0  0  0
M  RAD  3   2   2   9   2  10   3
M  END
