Coordinates from ORCA-job 2-HOOC-C6H3-N2-B3LYPG-aug-cc-pVDZ-scan-d09-49-n400
 OpenBabel11091809063D

 15 14  0  0  0  0  0  0  0  0999 V2000
   -1.5417   -1.5139   -1.0743 C   0  0  0  0  0  0  0  0  0  0  0  0
   -0.2118   -1.1124   -1.0742 C   0  0  0  0  0  0  0  0  0  0  0  0
    0.2126    0.0528   -0.8987 C   0  0  0  0  0  0  0  0  0  0  0  0
   -0.5416    1.1941   -0.6473 C   0  0  0  0  0  0  0  0  0  0  0  0
   -1.9252    0.8798   -0.6091 C   0  0  0  0  0  0  0  0  0  0  0  0
   -2.4054   -0.4227   -0.8144 C   0  0  0  0  0  0  0  0  0  0  0  0
   -1.9158   -2.5227   -1.2421 H   0  0  0  0  0  0  0  0  0  0  0  0
   -2.6217    1.6970   -0.4193 H   0  0  0  0  0  0  0  0  0  0  0  0
    2.8053    0.1414   -0.5756 N   0  0  0  0  0  0  0  0  0  0  0  0
    3.5778    0.0112   -1.3550 N   0  0  0  0  0  0  0  0  0  0  0  0
   -3.4810   -0.6034   -0.7750 H   0  0  0  0  0  0  0  0  0  0  0  0
   -0.0837    2.5919   -0.4507 C   0  0  0  0  0  0  0  0  0  0  0  0
   -0.8162    3.5244   -0.1911 O   0  0  0  0  0  0  0  0  0  0  0  0
    1.2559    2.7324   -0.6029 O   0  0  0  0  0  0  0  0  0  0  0  0
    1.4512    3.6726   -0.4595 H   0  0  0  0  0  0  0  0  0  0  0  0
  1  2  2  0  0  0  0
  1  6  1  0  0  0  0
  2  3  1  0  0  0  0
  3  4  2  0  0  0  0
  4  5  1  0  0  0  0
  4 12  1  0  0  0  0
  5  8  1  0  0  0  0
  6 11  1  0  0  0  0
  6  5  2  0  0  0  0
  7  1  1  0  0  0  0
 10  9  3  0  0  0  0
 12 13  2  0  0  0  0
 14 15  1  0  0  0  0
 14 12  1  0  0  0  0
M  RAD  2   2   2   3   2
M  END
