Coordinates from ORCA-job 2-HOOC-C6H3-N2-B3LYPG-aug-cc-pVDZ-scan-d09-49-n400
 OpenBabel11091809063D

 15 14  0  0  0  0  0  0  0  0999 V2000
   -1.7502   -1.5092   -1.0488 C   0  0  0  0  0  0  0  0  0  0  0  0
   -0.4185   -1.1196   -1.0705 C   0  0  0  0  0  0  0  0  0  0  0  0
    0.0311    0.0372   -0.9063 C   0  0  0  0  0  0  0  0  0  0  0  0
   -0.7039    1.1911   -0.6607 C   0  0  0  0  0  0  0  0  0  0  0  0
   -2.0925    0.9012   -0.6161 C   0  0  0  0  0  0  0  0  0  0  0  0
   -2.5934   -0.3968   -0.8027 C   0  0  0  0  0  0  0  0  0  0  0  0
   -2.1404   -2.5150   -1.1940 H   0  0  0  0  0  0  0  0  0  0  0  0
   -2.7764    1.7299   -0.4297 H   0  0  0  0  0  0  0  0  0  0  0  0
    3.9214    0.1350   -0.5527 N   0  0  0  0  0  0  0  0  0  0  0  0
    4.5117    0.0996   -1.4858 N   0  0  0  0  0  0  0  0  0  0  0  0
   -3.6716   -0.5601   -0.7576 H   0  0  0  0  0  0  0  0  0  0  0  0
   -0.1988    2.5714   -0.4623 C   0  0  0  0  0  0  0  0  0  0  0  0
   -0.9002    3.5382   -0.2463 O   0  0  0  0  0  0  0  0  0  0  0  0
    1.1520    2.6445   -0.5490 O   0  0  0  0  0  0  0  0  0  0  0  0
    1.3884    3.5753   -0.4069 H   0  0  0  0  0  0  0  0  0  0  0  0
  1  6  1  0  0  0  0
  2  1  2  0  0  0  0
  2  3  1  0  0  0  0
  3  4  2  0  0  0  0
  4  5  1  0  0  0  0
  4 12  1  0  0  0  0
  5  8  1  0  0  0  0
  6 11  1  0  0  0  0
  6  5  2  0  0  0  0
  7  1  1  0  0  0  0
 10  9  3  0  0  0  0
 12 13  2  0  0  0  0
 14 12  1  0  0  0  0
 14 15  1  0  0  0  0
M  RAD  2   2   2   3   2
M  END
