Coordinates from ORCA-job 2-HOOC-C6H3-N2-B3LYPG-aug-cc-pVDZ-scan-d09-49-n400
 OpenBabel11091809063D

 15 15  0  0  0  0  0  0  0  0999 V2000
   -1.3530   -1.4883   -0.8652 C   0  0  0  0  0  0  0  0  0  0  0  0
    0.0435   -1.3639   -1.0407 C   0  0  0  0  0  0  0  0  0  0  0  0
    0.5198    0.0486   -0.9684 C   0  0  0  0  0  0  0  0  0  0  0  0
   -0.4051    1.1635   -0.7218 C   0  0  0  0  0  0  0  0  0  0  0  0
   -1.7577    0.9079   -0.7574 C   0  0  0  0  0  0  0  0  0  0  0  0
   -2.2388   -0.4147   -0.8711 C   0  0  0  0  0  0  0  0  0  0  0  0
   -1.7595   -2.5019   -0.8002 H   0  0  0  0  0  0  0  0  0  0  0  0
   -2.4451    1.7433   -0.6366 H   0  0  0  0  0  0  0  0  0  0  0  0
    1.5688    0.1947   -1.1824 N   0  0  0  0  0  0  0  0  0  0  0  0
    2.6786    0.2886   -1.4241 N   0  0  0  0  0  0  0  0  0  0  0  0
   -3.3169   -0.5821   -0.9218 H   0  0  0  0  0  0  0  0  0  0  0  0
    0.0305    2.5593   -0.4311 C   0  0  0  0  0  0  0  0  0  0  0  0
   -0.7091    3.5202   -0.4222 O   0  0  0  0  0  0  0  0  0  0  0  0
    1.3580    2.6558   -0.1631 O   0  0  0  0  0  0  0  0  0  0  0  0
    1.5447    3.5915    0.0168 H   0  0  0  0  0  0  0  0  0  0  0  0
  1  7  1  0  0  0  0
  2  3  2  0  0  0  0
  2  1  1  0  0  0  0
  3  4  1  0  0  0  0
  4 12  1  0  0  0  0
  5  4  2  0  0  0  0
  5  8  1  0  0  0  0
  6  1  2  0  0  0  0
  6  5  1  0  0  0  0
  9  3  1  0  0  0  0
 10  9  1  0  0  0  0
 11  6  1  0  0  0  0
 12 13  2  0  0  0  0
 12 14  1  0  0  0  0
 14 15  1  0  0  0  0
M  RAD  3   2   2   9   2  10   3
M  END
