Coordinates from ORCA-job 2-HOOC-C6H3-N2-B3LYPG-aug-cc-pVDZ-scan-d09-49-n400
 OpenBabel11091809063D

 15 14  0  0  0  0  0  0  0  0999 V2000
   -1.8457   -1.5043   -1.0522 C   0  0  0  0  0  0  0  0  0  0  0  0
   -0.5121   -1.1240   -1.0886 C   0  0  0  0  0  0  0  0  0  0  0  0
   -0.0471    0.0267   -0.9248 C   0  0  0  0  0  0  0  0  0  0  0  0
   -0.7720    1.1849   -0.6666 C   0  0  0  0  0  0  0  0  0  0  0  0
   -2.1621    0.9073   -0.6071 C   0  0  0  0  0  0  0  0  0  0  0  0
   -2.6765   -0.3858   -0.7926 C   0  0  0  0  0  0  0  0  0  0  0  0
   -2.2455   -2.5064   -1.1964 H   0  0  0  0  0  0  0  0  0  0  0  0
   -2.8366    1.7411   -0.4096 H   0  0  0  0  0  0  0  0  0  0  0  0
    4.4603    0.1457   -0.4983 N   0  0  0  0  0  0  0  0  0  0  0  0
    4.8821    0.1324   -1.5190 N   0  0  0  0  0  0  0  0  0  0  0  0
   -3.7554   -0.5402   -0.7358 H   0  0  0  0  0  0  0  0  0  0  0  0
   -0.2492    2.5583   -0.4681 C   0  0  0  0  0  0  0  0  0  0  0  0
   -0.9358    3.5339   -0.2443 O   0  0  0  0  0  0  0  0  0  0  0  0
    1.1019    2.6129   -0.5643 O   0  0  0  0  0  0  0  0  0  0  0  0
    1.3525    3.5399   -0.4215 H   0  0  0  0  0  0  0  0  0  0  0  0
  1  6  1  0  0  0  0
  2  1  2  0  0  0  0
  2  3  1  0  0  0  0
  3  4  2  0  0  0  0
  4  5  1  0  0  0  0
  4 12  1  0  0  0  0
  5  8  1  0  0  0  0
  6 11  1  0  0  0  0
  6  5  2  0  0  0  0
  7  1  1  0  0  0  0
 10  9  3  0  0  0  0
 12 13  2  0  0  0  0
 14 12  1  0  0  0  0
 14 15  1  0  0  0  0
M  RAD  2   2   2   3   2
M  END
