Coordinates from ORCA-job 2-HOOC-C6H3-N2-B3LYPG-aug-cc-pVDZ-scan-d09-49-n400
 OpenBabel11091809063D

 15 15  0  0  0  0  0  0  0  0999 V2000
   -1.3854   -1.4732   -1.0501 C   0  0  0  0  0  0  0  0  0  0  0  0
    0.0245   -1.2714   -1.1055 C   0  0  0  0  0  0  0  0  0  0  0  0
    0.3316    0.0271   -0.9052 C   0  0  0  0  0  0  0  0  0  0  0  0
   -0.4516    1.1772   -0.6607 C   0  0  0  0  0  0  0  0  0  0  0  0
   -1.8192    0.8937   -0.6219 C   0  0  0  0  0  0  0  0  0  0  0  0
   -2.2774   -0.4233   -0.8157 C   0  0  0  0  0  0  0  0  0  0  0  0
   -1.7935   -2.4780   -1.1943 H   0  0  0  0  0  0  0  0  0  0  0  0
   -2.5117    1.7134   -0.4391 H   0  0  0  0  0  0  0  0  0  0  0  0
    1.8892    0.2268   -0.9704 N   0  0  0  0  0  0  0  0  0  0  0  0
    2.9822    0.0556   -1.0688 N   0  0  0  0  0  0  0  0  0  0  0  0
   -3.3520   -0.6150   -0.7799 H   0  0  0  0  0  0  0  0  0  0  0  0
   -0.0075    2.5779   -0.4518 C   0  0  0  0  0  0  0  0  0  0  0  0
   -0.7456    3.5168   -0.2465 O   0  0  0  0  0  0  0  0  0  0  0  0
    1.3461    2.7264   -0.5135 O   0  0  0  0  0  0  0  0  0  0  0  0
    1.5288    3.6687   -0.3661 H   0  0  0  0  0  0  0  0  0  0  0  0
  1  6  1  0  0  0  0
  2  1  2  0  0  0  0
  2  3  1  0  0  0  0
  3  4  2  0  0  0  0
  4  5  1  0  0  0  0
  4 12  1  0  0  0  0
  5  8  1  0  0  0  0
  6 11  1  0  0  0  0
  6  5  2  0  0  0  0
  7  1  1  0  0  0  0
  9  3  1  0  0  0  0
 10  9  1  0  0  0  0
 12 13  2  0  0  0  0
 14 12  1  0  0  0  0
 14 15  1  0  0  0  0
M  RAD  3   2   2   9   2  10   3
M  END
