Coordinates from ORCA-job 2-HOOC-C6H3-N2-B3LYPG-aug-cc-pVDZ-scan-d09-49-n400
 OpenBabel11091809063D

 15 15  0  0  0  0  0  0  0  0999 V2000
   -1.3602   -1.4892   -0.8906 C   0  0  0  0  0  0  0  0  0  0  0  0
    0.0426   -1.3571   -1.0493 C   0  0  0  0  0  0  0  0  0  0  0  0
    0.4875    0.0380   -0.9557 C   0  0  0  0  0  0  0  0  0  0  0  0
   -0.4118    1.1649   -0.7157 C   0  0  0  0  0  0  0  0  0  0  0  0
   -1.7659    0.9078   -0.7398 C   0  0  0  0  0  0  0  0  0  0  0  0
   -2.2446   -0.4158   -0.8647 C   0  0  0  0  0  0  0  0  0  0  0  0
   -1.7705   -2.5025   -0.8489 H   0  0  0  0  0  0  0  0  0  0  0  0
   -2.4543    1.7407   -0.6086 H   0  0  0  0  0  0  0  0  0  0  0  0
    1.6194    0.1903   -1.1624 N   0  0  0  0  0  0  0  0  0  0  0  0
    2.7259    0.2785   -1.3801 N   0  0  0  0  0  0  0  0  0  0  0  0
   -3.3234   -0.5833   -0.9009 H   0  0  0  0  0  0  0  0  0  0  0  0
    0.0245    2.5615   -0.4344 C   0  0  0  0  0  0  0  0  0  0  0  0
   -0.7159    3.5212   -0.4055 O   0  0  0  0  0  0  0  0  0  0  0  0
    1.3602    2.6653   -0.2040 O   0  0  0  0  0  0  0  0  0  0  0  0
    1.5450    3.6022   -0.0287 H   0  0  0  0  0  0  0  0  0  0  0  0
  1  6  2  0  0  0  0
  1  7  1  0  0  0  0
  2  3  2  0  0  0  0
  2  1  1  0  0  0  0
  3  4  1  0  0  0  0
  4 12  1  0  0  0  0
  5  4  2  0  0  0  0
  5  8  1  0  0  0  0
  6  5  1  0  0  0  0
  9  3  1  0  0  0  0
 10  9  1  0  0  0  0
 11  6  1  0  0  0  0
 12 13  2  0  0  0  0
 12 14  1  0  0  0  0
 14 15  1  0  0  0  0
M  RAD  3   2   2   9   2  10   3
M  END
