Coordinates from ORCA-job 2-HOOC-C6H3-N2-B3LYPG-aug-cc-pVDZ-scan-d09-49-n400
 OpenBabel11091809063D

 15 14  0  0  0  0  0  0  0  0999 V2000
   -1.6517   -1.5115   -1.0471 C   0  0  0  0  0  0  0  0  0  0  0  0
   -0.3237   -1.1085   -1.0518 C   0  0  0  0  0  0  0  0  0  0  0  0
    0.1109    0.0538   -0.8861 C   0  0  0  0  0  0  0  0  0  0  0  0
   -0.6399    1.2004   -0.6537 C   0  0  0  0  0  0  0  0  0  0  0  0
   -2.0258    0.8954   -0.6244 C   0  0  0  0  0  0  0  0  0  0  0  0
   -2.5102   -0.4084   -0.8138 C   0  0  0  0  0  0  0  0  0  0  0  0
   -2.0292   -2.5216   -1.1958 H   0  0  0  0  0  0  0  0  0  0  0  0
   -2.7206    1.7173   -0.4490 H   0  0  0  0  0  0  0  0  0  0  0  0
    3.4528    0.1017   -0.5807 N   0  0  0  0  0  0  0  0  0  0  0  0
    4.1056    0.0518   -1.4705 N   0  0  0  0  0  0  0  0  0  0  0  0
   -3.5870   -0.5834   -0.7815 H   0  0  0  0  0  0  0  0  0  0  0  0
   -0.1562    2.5885   -0.4557 C   0  0  0  0  0  0  0  0  0  0  0  0
   -0.8731    3.5447   -0.2433 O   0  0  0  0  0  0  0  0  0  0  0  0
    1.1935    2.6837   -0.5389 O   0  0  0  0  0  0  0  0  0  0  0  0
    1.4133    3.6187   -0.3971 H   0  0  0  0  0  0  0  0  0  0  0  0
  1  6  1  0  0  0  0
  2  1  2  0  0  0  0
  2  3  1  0  0  0  0
  3  4  2  0  0  0  0
  4  5  1  0  0  0  0
  4 12  1  0  0  0  0
  5  8  1  0  0  0  0
  6 11  1  0  0  0  0
  6  5  2  0  0  0  0
  7  1  1  0  0  0  0
 10  9  3  0  0  0  0
 12 13  2  0  0  0  0
 14 12  1  0  0  0  0
 14 15  1  0  0  0  0
M  RAD  2   2   2   3   2
M  END
