Coordinates from ORCA-job 2-HOOC-C6H3-N2-B3LYPG-aug-cc-pVDZ-scan-d09-49-n400
 OpenBabel11091809063D

 15 14  0  0  0  0  0  0  0  0999 V2000
   -1.5831   -1.5127   -1.0544 C   0  0  0  0  0  0  0  0  0  0  0  0
   -0.2571   -1.1028   -1.0511 C   0  0  0  0  0  0  0  0  0  0  0  0
    0.1718    0.0612   -0.8824 C   0  0  0  0  0  0  0  0  0  0  0  0
   -0.5889    1.2022   -0.6494 C   0  0  0  0  0  0  0  0  0  0  0  0
   -1.9725    0.8887   -0.6230 C   0  0  0  0  0  0  0  0  0  0  0  0
   -2.4492   -0.4170   -0.8181 C   0  0  0  0  0  0  0  0  0  0  0  0
   -1.9538   -2.5244   -1.2102 H   0  0  0  0  0  0  0  0  0  0  0  0
   -2.6721    1.7064   -0.4474 H   0  0  0  0  0  0  0  0  0  0  0  0
    3.1011    0.1003   -0.5796 N   0  0  0  0  0  0  0  0  0  0  0  0
    3.7909    0.0233   -1.4391 N   0  0  0  0  0  0  0  0  0  0  0  0
   -3.5249   -0.5987   -0.7887 H   0  0  0  0  0  0  0  0  0  0  0  0
   -0.1198    2.5958   -0.4524 C   0  0  0  0  0  0  0  0  0  0  0  0
   -0.8462    3.5421   -0.2280 O   0  0  0  0  0  0  0  0  0  0  0  0
    1.2272    2.7103   -0.5537 O   0  0  0  0  0  0  0  0  0  0  0  0
    1.4353    3.6479   -0.4118 H   0  0  0  0  0  0  0  0  0  0  0  0
  1  2  2  0  0  0  0
  1  6  1  0  0  0  0
  2  3  1  0  0  0  0
  3  4  2  0  0  0  0
  4  5  1  0  0  0  0
  4 12  1  0  0  0  0
  5  8  1  0  0  0  0
  6 11  1  0  0  0  0
  6  5  2  0  0  0  0
  7  1  1  0  0  0  0
 10  9  3  0  0  0  0
 12 13  2  0  0  0  0
 14 12  1  0  0  0  0
 14 15  1  0  0  0  0
M  RAD  2   2   2   3   2
M  END
