Coordinates from ORCA-job 2-HOOC-C6H3-N2-B3LYPG-aug-cc-pVDZ-scan-d09-49-n400
 OpenBabel11091809063D

 15 14  0  0  0  0  0  0  0  0999 V2000
   -1.7273   -1.5099   -1.0480 C   0  0  0  0  0  0  0  0  0  0  0  0
   -0.3966   -1.1171   -1.0658 C   0  0  0  0  0  0  0  0  0  0  0  0
    0.0495    0.0411   -0.9014 C   0  0  0  0  0  0  0  0  0  0  0  0
   -0.6892    1.1933   -0.6592 C   0  0  0  0  0  0  0  0  0  0  0  0
   -2.0772    0.8999   -0.6184 C   0  0  0  0  0  0  0  0  0  0  0  0
   -2.5742   -0.3996   -0.8054 C   0  0  0  0  0  0  0  0  0  0  0  0
   -2.1145   -2.5168   -1.1936 H   0  0  0  0  0  0  0  0  0  0  0  0
   -2.7638    1.7271   -0.4348 H   0  0  0  0  0  0  0  0  0  0  0  0
    3.8103    0.1274   -0.5610 N   0  0  0  0  0  0  0  0  0  0  0  0
    4.4188    0.0897   -1.4822 N   0  0  0  0  0  0  0  0  0  0  0  0
   -3.6520   -0.5655   -0.7633 H   0  0  0  0  0  0  0  0  0  0  0  0
   -0.1886    2.5753   -0.4608 C   0  0  0  0  0  0  0  0  0  0  0  0
   -0.8935    3.5400   -0.2465 O   0  0  0  0  0  0  0  0  0  0  0  0
    1.1620    2.6530   -0.5455 O   0  0  0  0  0  0  0  0  0  0  0  0
    1.3949    3.5847   -0.4034 H   0  0  0  0  0  0  0  0  0  0  0  0
  1  6  1  0  0  0  0
  2  1  2  0  0  0  0
  2  3  1  0  0  0  0
  3  4  2  0  0  0  0
  4  5  1  0  0  0  0
  4 12  1  0  0  0  0
  5  8  1  0  0  0  0
  6 11  1  0  0  0  0
  6  5  2  0  0  0  0
  7  1  1  0  0  0  0
 10  9  3  0  0  0  0
 12 13  2  0  0  0  0
 14 12  1  0  0  0  0
 14 15  1  0  0  0  0
M  RAD  2   2   2   3   2
M  END
