Coordinates from ORCA-job 2-HOOC-C6H3-N2-B3LYPG-aug-cc-pVDZ-scan-d09-49-n400
 OpenBabel11091809063D

 15 14  0  0  0  0  0  0  0  0999 V2000
   -1.5311   -1.5147   -1.0799 C   0  0  0  0  0  0  0  0  0  0  0  0
   -0.1996   -1.1173   -1.0801 C   0  0  0  0  0  0  0  0  0  0  0  0
    0.2261    0.0491   -0.9022 C   0  0  0  0  0  0  0  0  0  0  0  0
   -0.5263    1.1913   -0.6468 C   0  0  0  0  0  0  0  0  0  0  0  0
   -1.9101    0.8771   -0.6057 C   0  0  0  0  0  0  0  0  0  0  0  0
   -2.3928   -0.4242   -0.8138 C   0  0  0  0  0  0  0  0  0  0  0  0
   -1.9071   -2.5223   -1.2511 H   0  0  0  0  0  0  0  0  0  0  0  0
   -2.6052    1.6947   -0.4128 H   0  0  0  0  0  0  0  0  0  0  0  0
    2.7263    0.1580   -0.5738 N   0  0  0  0  0  0  0  0  0  0  0  0
    3.5145    0.0015   -1.3327 N   0  0  0  0  0  0  0  0  0  0  0  0
   -3.4686   -0.6033   -0.7716 H   0  0  0  0  0  0  0  0  0  0  0  0
   -0.0741    2.5914   -0.4521 C   0  0  0  0  0  0  0  0  0  0  0  0
   -0.8088    3.5178   -0.1775 O   0  0  0  0  0  0  0  0  0  0  0  0
    1.2625    2.7412   -0.6173 O   0  0  0  0  0  0  0  0  0  0  0  0
    1.4530    3.6822   -0.4719 H   0  0  0  0  0  0  0  0  0  0  0  0
  1  6  1  0  0  0  0
  2  1  2  0  0  0  0
  2  3  1  0  0  0  0
  3  4  2  0  0  0  0
  4  5  1  0  0  0  0
  4 12  1  0  0  0  0
  5  8  1  0  0  0  0
  6 11  1  0  0  0  0
  6  5  2  0  0  0  0
  7  1  1  0  0  0  0
 10  9  3  0  0  0  0
 12 13  2  0  0  0  0
 14 15  1  0  0  0  0
 14 12  1  0  0  0  0
M  RAD  2   2   2   3   2
M  END
