Coordinates from ORCA-job 2-HOOC-C6H3-N2-B3LYPG-aug-cc-pVDZ-scan-d09-49-n400
 OpenBabel11091809063D

 15 14  0  0  0  0  0  0  0  0999 V2000
   -1.5610   -1.5133   -1.0648 C   0  0  0  0  0  0  0  0  0  0  0  0
   -0.2340   -1.1054   -1.0644 C   0  0  0  0  0  0  0  0  0  0  0  0
    0.1936    0.0589   -0.8921 C   0  0  0  0  0  0  0  0  0  0  0  0
   -0.5653    1.1991   -0.6488 C   0  0  0  0  0  0  0  0  0  0  0  0
   -1.9485    0.8842   -0.6156 C   0  0  0  0  0  0  0  0  0  0  0  0
   -2.4263   -0.4203   -0.8158 C   0  0  0  0  0  0  0  0  0  0  0  0
   -1.9325   -2.5239   -1.2265 H   0  0  0  0  0  0  0  0  0  0  0  0
   -2.6472    1.7010   -0.4319 H   0  0  0  0  0  0  0  0  0  0  0  0
    2.9496    0.1215   -0.5766 N   0  0  0  0  0  0  0  0  0  0  0  0
    3.6813    0.0111   -1.3975 N   0  0  0  0  0  0  0  0  0  0  0  0
   -3.5018   -0.6022   -0.7807 H   0  0  0  0  0  0  0  0  0  0  0  0
   -0.1022    2.5948   -0.4513 C   0  0  0  0  0  0  0  0  0  0  0  0
   -0.8322    3.5347   -0.2121 O   0  0  0  0  0  0  0  0  0  0  0  0
    1.2415    2.7217   -0.5766 O   0  0  0  0  0  0  0  0  0  0  0  0
    1.4436    3.6607   -0.4347 H   0  0  0  0  0  0  0  0  0  0  0  0
  1  2  2  0  0  0  0
  1  6  1  0  0  0  0
  2  3  1  0  0  0  0
  3  4  2  0  0  0  0
  4  5  1  0  0  0  0
  4 12  1  0  0  0  0
  5  8  1  0  0  0  0
  6 11  1  0  0  0  0
  6  5  2  0  0  0  0
  7  1  1  0  0  0  0
 10  9  3  0  0  0  0
 12 13  2  0  0  0  0
 14 12  1  0  0  0  0
 14 15  1  0  0  0  0
M  RAD  2   2   2   3   2
M  END
