Coordinates from ORCA-job 2-HOOC-C6H3-N2-B3LYPG-aug-cc-pVDZ-scan-d09-49-n400
 OpenBabel11091809063D

 15 14  0  0  0  0  0  0  0  0999 V2000
   -1.7724   -1.5084   -1.0496 C   0  0  0  0  0  0  0  0  0  0  0  0
   -0.4401   -1.1215   -1.0749 C   0  0  0  0  0  0  0  0  0  0  0  0
    0.0133    0.0339   -0.9109 C   0  0  0  0  0  0  0  0  0  0  0  0
   -0.7188    1.1891   -0.6622 C   0  0  0  0  0  0  0  0  0  0  0  0
   -2.1079    0.9025   -0.6139 C   0  0  0  0  0  0  0  0  0  0  0  0
   -2.6124   -0.3942   -0.8002 C   0  0  0  0  0  0  0  0  0  0  0  0
   -2.1652   -2.5132   -1.1943 H   0  0  0  0  0  0  0  0  0  0  0  0
   -2.7894    1.7326   -0.4248 H   0  0  0  0  0  0  0  0  0  0  0  0
    4.0329    0.1430   -0.5435 N   0  0  0  0  0  0  0  0  0  0  0  0
    4.6007    0.1083   -1.4904 N   0  0  0  0  0  0  0  0  0  0  0  0
   -3.6907   -0.5551   -0.7522 H   0  0  0  0  0  0  0  0  0  0  0  0
   -0.2090    2.5676   -0.4637 C   0  0  0  0  0  0  0  0  0  0  0  0
   -0.9063    3.5369   -0.2457 O   0  0  0  0  0  0  0  0  0  0  0  0
    1.1420    2.6357   -0.5528 O   0  0  0  0  0  0  0  0  0  0  0  0
    1.3820    3.5655   -0.4101 H   0  0  0  0  0  0  0  0  0  0  0  0
  1  6  1  0  0  0  0
  2  1  2  0  0  0  0
  2  3  1  0  0  0  0
  3  4  2  0  0  0  0
  4  5  1  0  0  0  0
  4 12  1  0  0  0  0
  5  8  1  0  0  0  0
  6 11  1  0  0  0  0
  6  5  2  0  0  0  0
  7  1  1  0  0  0  0
 10  9  3  0  0  0  0
 12 13  2  0  0  0  0
 14 12  1  0  0  0  0
 14 15  1  0  0  0  0
M  RAD  2   2   2   3   2
M  END
