Coordinates from ORCA-job 2-HOOC-C6H3-N2-B3LYPG-aug-cc-pVDZ-scan-d09-49-n400
 OpenBabel11091809063D

 15 14  0  0  0  0  0  0  0  0999 V2000
   -1.4979   -1.5195   -1.0690 C   0  0  0  0  0  0  0  0  0  0  0  0
   -0.1551   -1.1526   -1.0398 C   0  0  0  0  0  0  0  0  0  0  0  0
    0.2613    0.0194   -0.8606 C   0  0  0  0  0  0  0  0  0  0  0  0
   -0.4788    1.1741   -0.6295 C   0  0  0  0  0  0  0  0  0  0  0  0
   -1.8664    0.8738   -0.6192 C   0  0  0  0  0  0  0  0  0  0  0  0
   -2.3575   -0.4234   -0.8295 C   0  0  0  0  0  0  0  0  0  0  0  0
   -1.8819   -2.5244   -1.2427 H   0  0  0  0  0  0  0  0  0  0  0  0
   -2.5556    1.7010   -0.4492 H   0  0  0  0  0  0  0  0  0  0  0  0
    2.4935    0.2140   -0.6212 N   0  0  0  0  0  0  0  0  0  0  0  0
    3.3051    0.0107   -1.3457 N   0  0  0  0  0  0  0  0  0  0  0  0
   -3.4358   -0.5907   -0.8075 H   0  0  0  0  0  0  0  0  0  0  0  0
   -0.0388    2.5799   -0.4357 C   0  0  0  0  0  0  0  0  0  0  0  0
   -0.7882    3.4965   -0.1675 O   0  0  0  0  0  0  0  0  0  0  0  0
    1.2944    2.7587   -0.6065 O   0  0  0  0  0  0  0  0  0  0  0  0
    1.4602    3.7051   -0.4657 H   0  0  0  0  0  0  0  0  0  0  0  0
  1  2  2  0  0  0  0
  1  6  1  0  0  0  0
  2  3  1  0  0  0  0
  3  4  2  0  0  0  0
  4  5  1  0  0  0  0
  4 12  1  0  0  0  0
  5  8  1  0  0  0  0
  6 11  1  0  0  0  0
  6  5  2  0  0  0  0
  7  1  1  0  0  0  0
 10  9  3  0  0  0  0
 12 13  2  0  0  0  0
 14 15  1  0  0  0  0
 14 12  1  0  0  0  0
M  RAD  2   2   2   3   2
M  END
