Coordinates from ORCA-job 2-HOOC-C6H3-N2-B3LYPG-aug-cc-pVDZ-scan-d09-49-n400
 OpenBabel11091809063D

 15 15  0  0  0  0  0  0  0  0999 V2000
   -1.3981   -1.4804   -1.0506 C   0  0  0  0  0  0  0  0  0  0  0  0
   -0.0015   -1.2359   -1.0979 C   0  0  0  0  0  0  0  0  0  0  0  0
    0.3039    0.0260   -0.9036 C   0  0  0  0  0  0  0  0  0  0  0  0
   -0.4516    1.1795   -0.6601 C   0  0  0  0  0  0  0  0  0  0  0  0
   -1.8259    0.8882   -0.6222 C   0  0  0  0  0  0  0  0  0  0  0  0
   -2.2885   -0.4243   -0.8152 C   0  0  0  0  0  0  0  0  0  0  0  0
   -1.7969   -2.4881   -1.1961 H   0  0  0  0  0  0  0  0  0  0  0  0
   -2.5170    1.7093   -0.4392 H   0  0  0  0  0  0  0  0  0  0  0  0
    1.9868    0.2718   -0.9688 N   0  0  0  0  0  0  0  0  0  0  0  0
    3.0438   -0.0443   -1.0894 N   0  0  0  0  0  0  0  0  0  0  0  0
   -3.3631   -0.6144   -0.7791 H   0  0  0  0  0  0  0  0  0  0  0  0
   -0.0137    2.5830   -0.4501 C   0  0  0  0  0  0  0  0  0  0  0  0
   -0.7622    3.5144   -0.2460 O   0  0  0  0  0  0  0  0  0  0  0  0
    1.3368    2.7464   -0.5097 O   0  0  0  0  0  0  0  0  0  0  0  0
    1.5059    3.6912   -0.3613 H   0  0  0  0  0  0  0  0  0  0  0  0
  1  6  1  0  0  0  0
  2  1  2  0  0  0  0
  2  3  1  0  0  0  0
  3  4  2  0  0  0  0
  4  5  1  0  0  0  0
  4 12  1  0  0  0  0
  5  8  1  0  0  0  0
  6 11  1  0  0  0  0
  6  5  2  0  0  0  0
  7  1  1  0  0  0  0
  9  3  1  0  0  0  0
 10  9  2  0  0  0  0
 12 13  2  0  0  0  0
 14 12  1  0  0  0  0
 14 15  1  0  0  0  0
M  RAD  2   2   2  10   2
M  END
