Coordinates from ORCA-job 2-HOOC-C6H3-N2-B3LYPG-aug-cc-pVDZ-scan-d09-49-n400
 OpenBabel11091809063D

 15 14  0  0  0  0  0  0  0  0999 V2000
   -1.5030   -1.5179   -1.0754 C   0  0  0  0  0  0  0  0  0  0  0  0
   -0.1653   -1.1379   -1.0579 C   0  0  0  0  0  0  0  0  0  0  0  0
    0.2572    0.0305   -0.8773 C   0  0  0  0  0  0  0  0  0  0  0  0
   -0.4896    1.1793   -0.6359 C   0  0  0  0  0  0  0  0  0  0  0  0
   -1.8757    0.8737   -0.6130 C   0  0  0  0  0  0  0  0  0  0  0  0
   -2.3639   -0.4247   -0.8232 C   0  0  0  0  0  0  0  0  0  0  0  0
   -1.8833   -2.5239   -1.2493 H   0  0  0  0  0  0  0  0  0  0  0  0
   -2.5671    1.6972   -0.4332 H   0  0  0  0  0  0  0  0  0  0  0  0
    2.5380    0.1999   -0.6025 N   0  0  0  0  0  0  0  0  0  0  0  0
    3.3445    0.0014   -1.3335 N   0  0  0  0  0  0  0  0  0  0  0  0
   -3.4413   -0.5966   -0.7917 H   0  0  0  0  0  0  0  0  0  0  0  0
   -0.0474    2.5843   -0.4424 C   0  0  0  0  0  0  0  0  0  0  0  0
   -0.7926    3.5032   -0.1710 O   0  0  0  0  0  0  0  0  0  0  0  0
    1.2868    2.7548   -0.6128 O   0  0  0  0  0  0  0  0  0  0  0  0
    1.4612    3.6994   -0.4702 H   0  0  0  0  0  0  0  0  0  0  0  0
  1  2  2  0  0  0  0
  1  6  1  0  0  0  0
  2  3  1  0  0  0  0
  3  4  2  0  0  0  0
  4  5  1  0  0  0  0
  4 12  1  0  0  0  0
  5  8  1  0  0  0  0
  6 11  1  0  0  0  0
  6  5  2  0  0  0  0
  7  1  1  0  0  0  0
 10  9  3  0  0  0  0
 12 13  2  0  0  0  0
 14 15  1  0  0  0  0
 14 12  1  0  0  0  0
M  RAD  2   2   2   3   2
M  END
