Coordinates from ORCA-job 2-HOOC-C6H3-N2-B3LYPG-aug-cc-pVDZ-scan-d09-49-n400
 OpenBabel11091809063D

 15 14  0  0  0  0  0  0  0  0999 V2000
   -1.7537   -1.5091   -1.0489 C   0  0  0  0  0  0  0  0  0  0  0  0
   -0.4219   -1.1200   -1.0712 C   0  0  0  0  0  0  0  0  0  0  0  0
    0.0284    0.0366   -0.9071 C   0  0  0  0  0  0  0  0  0  0  0  0
   -0.7062    1.1907   -0.6610 C   0  0  0  0  0  0  0  0  0  0  0  0
   -2.0949    0.9014   -0.6157 C   0  0  0  0  0  0  0  0  0  0  0  0
   -2.5964   -0.3964   -0.8023 C   0  0  0  0  0  0  0  0  0  0  0  0
   -2.1444   -2.5147   -1.1940 H   0  0  0  0  0  0  0  0  0  0  0  0
   -2.7784    1.7303   -0.4289 H   0  0  0  0  0  0  0  0  0  0  0  0
    3.9386    0.1361   -0.5515 N   0  0  0  0  0  0  0  0  0  0  0  0
    4.5260    0.1009   -1.4863 N   0  0  0  0  0  0  0  0  0  0  0  0
   -3.6746   -0.5592   -0.7567 H   0  0  0  0  0  0  0  0  0  0  0  0
   -0.2003    2.5708   -0.4626 C   0  0  0  0  0  0  0  0  0  0  0  0
   -0.9012    3.5379   -0.2462 O   0  0  0  0  0  0  0  0  0  0  0  0
    1.1504    2.6433   -0.5496 O   0  0  0  0  0  0  0  0  0  0  0  0
    1.3872    3.5740   -0.4073 H   0  0  0  0  0  0  0  0  0  0  0  0
  1  6  1  0  0  0  0
  2  1  2  0  0  0  0
  2  3  1  0  0  0  0
  3  4  2  0  0  0  0
  4  5  1  0  0  0  0
  4 12  1  0  0  0  0
  5  8  1  0  0  0  0
  6 11  1  0  0  0  0
  6  5  2  0  0  0  0
  7  1  1  0  0  0  0
 10  9  3  0  0  0  0
 12 13  2  0  0  0  0
 14 12  1  0  0  0  0
 14 15  1  0  0  0  0
M  RAD  2   2   2   3   2
M  END
