Coordinates from ORCA-job 2-HOOC-C6H3-N2-B3LYPG-aug-cc-pVDZ-scan-d09-49-n400
 OpenBabel11091809063D

 15 14  0  0  0  0  0  0  0  0999 V2000
   -1.6187   -1.5123   -1.0490 C   0  0  0  0  0  0  0  0  0  0  0  0
   -0.2917   -1.1058   -1.0496 C   0  0  0  0  0  0  0  0  0  0  0  0
    0.1387    0.0580   -0.8829 C   0  0  0  0  0  0  0  0  0  0  0  0
   -0.6163    1.2023   -0.6519 C   0  0  0  0  0  0  0  0  0  0  0  0
   -2.0012    0.8927   -0.6252 C   0  0  0  0  0  0  0  0  0  0  0  0
   -2.4813   -0.4123   -0.8165 C   0  0  0  0  0  0  0  0  0  0  0  0
   -1.9928   -2.5234   -1.1999 H   0  0  0  0  0  0  0  0  0  0  0  0
   -2.6988    1.7125   -0.4510 H   0  0  0  0  0  0  0  0  0  0  0  0
    3.2900    0.0966   -0.5839 N   0  0  0  0  0  0  0  0  0  0  0  0
    3.9604    0.0352   -1.4598 N   0  0  0  0  0  0  0  0  0  0  0  0
   -3.5576   -0.5907   -0.7864 H   0  0  0  0  0  0  0  0  0  0  0  0
   -0.1401    2.5931   -0.4539 C   0  0  0  0  0  0  0  0  0  0  0  0
   -0.8625    3.5445   -0.2385 O   0  0  0  0  0  0  0  0  0  0  0  0
    1.2086    2.6978   -0.5414 O   0  0  0  0  0  0  0  0  0  0  0  0
    1.4220    3.6342   -0.3995 H   0  0  0  0  0  0  0  0  0  0  0  0
  1  6  1  0  0  0  0
  2  1  2  0  0  0  0
  2  3  1  0  0  0  0
  3  4  2  0  0  0  0
  4  5  1  0  0  0  0
  4 12  1  0  0  0  0
  5  8  1  0  0  0  0
  6 11  1  0  0  0  0
  6  5  2  0  0  0  0
  7  1  1  0  0  0  0
 10  9  3  0  0  0  0
 12 13  2  0  0  0  0
 14 12  1  0  0  0  0
 14 15  1  0  0  0  0
M  RAD  2   2   2   3   2
M  END
