Coordinates from ORCA-job 2-HOOC-C6H3-N2-B3LYPG-aug-cc-pVDZ-scan-d09-49-n400
 OpenBabel11091809063D

 15 14  0  0  0  0  0  0  0  0999 V2000
   -1.8828   -1.5021   -1.0542 C   0  0  0  0  0  0  0  0  0  0  0  0
   -0.5486   -1.1252   -1.0959 C   0  0  0  0  0  0  0  0  0  0  0  0
   -0.0785    0.0235   -0.9321 C   0  0  0  0  0  0  0  0  0  0  0  0
   -0.7994    1.1832   -0.6687 C   0  0  0  0  0  0  0  0  0  0  0  0
   -2.1899    0.9098   -0.6037 C   0  0  0  0  0  0  0  0  0  0  0  0
   -2.7091   -0.3814   -0.7891 C   0  0  0  0  0  0  0  0  0  0  0  0
   -2.2861   -2.5029   -1.1981 H   0  0  0  0  0  0  0  0  0  0  0  0
   -2.8611    1.7452   -0.4018 H   0  0  0  0  0  0  0  0  0  0  0  0
    4.6978    0.1474   -0.4750 N   0  0  0  0  0  0  0  0  0  0  0  0
    5.0153    0.1364   -1.5327 N   0  0  0  0  0  0  0  0  0  0  0  0
   -3.7882   -0.5327   -0.7278 H   0  0  0  0  0  0  0  0  0  0  0  0
   -0.2713    2.5546   -0.4699 C   0  0  0  0  0  0  0  0  0  0  0  0
   -0.9536    3.5324   -0.2426 O   0  0  0  0  0  0  0  0  0  0  0  0
    1.0797    2.6043   -0.5703 O   0  0  0  0  0  0  0  0  0  0  0  0
    1.3345    3.5300   -0.4272 H   0  0  0  0  0  0  0  0  0  0  0  0
  1  6  1  0  0  0  0
  2  1  2  0  0  0  0
  2  3  1  0  0  0  0
  3  4  2  0  0  0  0
  4  5  1  0  0  0  0
  4 12  1  0  0  0  0
  5  8  1  0  0  0  0
  6 11  1  0  0  0  0
  6  5  2  0  0  0  0
  7  1  1  0  0  0  0
 10  9  3  0  0  0  0
 12 13  2  0  0  0  0
 14 12  1  0  0  0  0
 14 15  1  0  0  0  0
M  RAD  2   2   2   3   2
M  END
