Coordinates from ORCA-job 2-HOOC-C6H3-N2-B3LYPG-aug-cc-pVDZ-scan-d09-49-n400
 OpenBabel11091809063D

 15 15  0  0  0  0  0  0  0  0999 V2000
   -1.3687   -1.4875   -0.9502 C   0  0  0  0  0  0  0  0  0  0  0  0
    0.0436   -1.3489   -1.0730 C   0  0  0  0  0  0  0  0  0  0  0  0
    0.4536    0.0283   -0.9317 C   0  0  0  0  0  0  0  0  0  0  0  0
   -0.4190    1.1656   -0.6965 C   0  0  0  0  0  0  0  0  0  0  0  0
   -1.7746    0.9052   -0.6964 C   0  0  0  0  0  0  0  0  0  0  0  0
   -2.2503   -0.4180   -0.8463 C   0  0  0  0  0  0  0  0  0  0  0  0
   -1.7858   -2.4987   -0.9741 H   0  0  0  0  0  0  0  0  0  0  0  0
   -2.4635    1.7344   -0.5461 H   0  0  0  0  0  0  0  0  0  0  0  0
    1.6741    0.1769   -1.0995 N   0  0  0  0  0  0  0  0  0  0  0  0
    2.7830    0.2437   -1.2688 N   0  0  0  0  0  0  0  0  0  0  0  0
   -3.3296   -0.5873   -0.8536 H   0  0  0  0  0  0  0  0  0  0  0  0
    0.0167    2.5676   -0.4439 C   0  0  0  0  0  0  0  0  0  0  0  0
   -0.7303    3.5190   -0.3654 O   0  0  0  0  0  0  0  0  0  0  0  0
    1.3644    2.6912   -0.3031 O   0  0  0  0  0  0  0  0  0  0  0  0
    1.5453    3.6312   -0.1409 H   0  0  0  0  0  0  0  0  0  0  0  0
  1  6  1  0  0  0  0
  2  1  2  0  0  0  0
  2  3  1  0  0  0  0
  3  4  2  0  0  0  0
  4  5  1  0  0  0  0
  4 12  1  0  0  0  0
  5  8  1  0  0  0  0
  6  5  2  0  0  0  0
  7  1  1  0  0  0  0
  9  3  1  0  0  0  0
 10  9  1  0  0  0  0
 11  6  1  0  0  0  0
 12 13  2  0  0  0  0
 12 14  1  0  0  0  0
 14 15  1  0  0  0  0
M  RAD  3   2   2   9   2  10   3
M  END
