Coordinates from ORCA-job 2-HOOC-C6H3-N2-B3LYPG-aug-cc-pVDZ-scan-d09-49-n400
 OpenBabel11091809063D

 15 14  0  0  0  0  0  0  0  0999 V2000
   -1.7978   -1.5069   -1.0502 C   0  0  0  0  0  0  0  0  0  0  0  0
   -0.4652   -1.1221   -1.0790 C   0  0  0  0  0  0  0  0  0  0  0  0
   -0.0069    0.0313   -0.9152 C   0  0  0  0  0  0  0  0  0  0  0  0
   -0.7374    1.1873   -0.6637 C   0  0  0  0  0  0  0  0  0  0  0  0
   -2.1266    0.9042   -0.6117 C   0  0  0  0  0  0  0  0  0  0  0  0
   -2.6346   -0.3914   -0.7977 C   0  0  0  0  0  0  0  0  0  0  0  0
   -2.1929   -2.5109   -1.1949 H   0  0  0  0  0  0  0  0  0  0  0  0
   -2.8057    1.7356   -0.4198 H   0  0  0  0  0  0  0  0  0  0  0  0
    4.1719    0.1481   -0.5291 N   0  0  0  0  0  0  0  0  0  0  0  0
    4.6987    0.1197   -1.4994 N   0  0  0  0  0  0  0  0  0  0  0  0
   -3.7132   -0.5501   -0.7469 H   0  0  0  0  0  0  0  0  0  0  0  0
   -0.2217    2.5635   -0.4653 C   0  0  0  0  0  0  0  0  0  0  0  0
   -0.9139    3.5360   -0.2455 O   0  0  0  0  0  0  0  0  0  0  0  0
    1.1295    2.6249   -0.5568 O   0  0  0  0  0  0  0  0  0  0  0  0
    1.3745    3.5534   -0.4141 H   0  0  0  0  0  0  0  0  0  0  0  0
  1  6  1  0  0  0  0
  2  1  2  0  0  0  0
  2  3  1  0  0  0  0
  3  4  2  0  0  0  0
  4  5  1  0  0  0  0
  4 12  1  0  0  0  0
  5  8  1  0  0  0  0
  6 11  1  0  0  0  0
  6  5  2  0  0  0  0
  7  1  1  0  0  0  0
 10  9  3  0  0  0  0
 12 13  2  0  0  0  0
 14 12  1  0  0  0  0
 14 15  1  0  0  0  0
M  RAD  2   2   2   3   2
M  END
