Coordinates from ORCA-job 2-HOOC-C6H3-N2-B3LYPG-aug-cc-pVDZ-scan-d09-49-n400
 OpenBabel11091809063D

 15 14  0  0  0  0  0  0  0  0999 V2000
   -1.6343   -1.5119   -1.0480 C   0  0  0  0  0  0  0  0  0  0  0  0
   -0.3069   -1.1070   -1.0504 C   0  0  0  0  0  0  0  0  0  0  0  0
    0.1256    0.0561   -0.8842 C   0  0  0  0  0  0  0  0  0  0  0  0
   -0.6276    1.2014   -0.6527 C   0  0  0  0  0  0  0  0  0  0  0  0
   -2.0129    0.8940   -0.6249 C   0  0  0  0  0  0  0  0  0  0  0  0
   -2.4950   -0.4104   -0.8152 C   0  0  0  0  0  0  0  0  0  0  0  0
   -2.0100   -2.5226   -1.1977 H   0  0  0  0  0  0  0  0  0  0  0  0
   -2.7093    1.7148   -0.4503 H   0  0  0  0  0  0  0  0  0  0  0  0
    3.3672    0.0987   -0.5830 N   0  0  0  0  0  0  0  0  0  0  0  0
    4.0299    0.0428   -1.4651 N   0  0  0  0  0  0  0  0  0  0  0  0
   -3.5715   -0.5872   -0.7842 H   0  0  0  0  0  0  0  0  0  0  0  0
   -0.1479    2.5910   -0.4548 C   0  0  0  0  0  0  0  0  0  0  0  0
   -0.8677    3.5447   -0.2411 O   0  0  0  0  0  0  0  0  0  0  0  0
    1.2013    2.6912   -0.5398 O   0  0  0  0  0  0  0  0  0  0  0  0
    1.4178    3.6270   -0.3979 H   0  0  0  0  0  0  0  0  0  0  0  0
  1  6  1  0  0  0  0
  2  1  2  0  0  0  0
  2  3  1  0  0  0  0
  3  4  2  0  0  0  0
  4  5  1  0  0  0  0
  4 12  1  0  0  0  0
  5  8  1  0  0  0  0
  6 11  1  0  0  0  0
  6  5  2  0  0  0  0
  7  1  1  0  0  0  0
 10  9  3  0  0  0  0
 12 13  2  0  0  0  0
 14 12  1  0  0  0  0
 14 15  1  0  0  0  0
M  RAD  2   2   2   3   2
M  END
