Coordinates from ORCA-job 2-HOOC-C6H3-N2-B3LYPG-aug-cc-pVDZ-scan-d09-49-n400
 OpenBabel11091809063D

 15 15  0  0  0  0  0  0  0  0999 V2000
   -1.3789   -1.4758   -1.0438 C   0  0  0  0  0  0  0  0  0  0  0  0
    0.0407   -1.3306   -1.1131 C   0  0  0  0  0  0  0  0  0  0  0  0
    0.4175    0.0242   -0.9125 C   0  0  0  0  0  0  0  0  0  0  0  0
   -0.4291    1.1658   -0.6667 C   0  0  0  0  0  0  0  0  0  0  0  0
   -1.7855    0.8973   -0.6286 C   0  0  0  0  0  0  0  0  0  0  0  0
   -2.2570   -0.4221   -0.8187 C   0  0  0  0  0  0  0  0  0  0  0  0
   -1.8022   -2.4759   -1.1777 H   0  0  0  0  0  0  0  0  0  0  0  0
   -2.4746    1.7201   -0.4478 H   0  0  0  0  0  0  0  0  0  0  0  0
    1.7398    0.1599   -0.9815 N   0  0  0  0  0  0  0  0  0  0  0  0
    2.8551    0.1834   -1.0567 N   0  0  0  0  0  0  0  0  0  0  0  0
   -3.3345   -0.6001   -0.7834 H   0  0  0  0  0  0  0  0  0  0  0  0
    0.0074    2.5732   -0.4536 C   0  0  0  0  0  0  0  0  0  0  0  0
   -0.7392    3.5075   -0.2582 O   0  0  0  0  0  0  0  0  0  0  0  0
    1.3596    2.7267   -0.4979 O   0  0  0  0  0  0  0  0  0  0  0  0
    1.5396    3.6690   -0.3491 H   0  0  0  0  0  0  0  0  0  0  0  0
  1  6  1  0  0  0  0
  2  1  2  0  0  0  0
  2  3  1  0  0  0  0
  3  4  2  0  0  0  0
  4  5  1  0  0  0  0
  4 12  1  0  0  0  0
  5  8  1  0  0  0  0
  6 11  1  0  0  0  0
  6  5  2  0  0  0  0
  7  1  1  0  0  0  0
  9  3  1  0  0  0  0
 10  9  1  0  0  0  0
 12 13  2  0  0  0  0
 14 12  1  0  0  0  0
 14 15  1  0  0  0  0
M  RAD  3   2   2   9   2  10   3
M  END
