Coordinates from ORCA-job 2-HOOC-C6H3-N2-B3LYPG-aug-cc-pVDZ-scan-d09-49-n400
 OpenBabel11091809063D

 15 14  0  0  0  0  0  0  0  0999 V2000
   -1.4617   -1.5174   -1.0547 C   0  0  0  0  0  0  0  0  0  0  0  0
   -0.1088   -1.1796   -0.9974 C   0  0  0  0  0  0  0  0  0  0  0  0
    0.2960    0.0066   -0.8271 C   0  0  0  0  0  0  0  0  0  0  0  0
   -0.4480    1.1658   -0.6193 C   0  0  0  0  0  0  0  0  0  0  0  0
   -1.8350    0.8739   -0.6349 C   0  0  0  0  0  0  0  0  0  0  0  0
   -2.3264   -0.4230   -0.8435 C   0  0  0  0  0  0  0  0  0  0  0  0
   -1.8492   -2.5219   -1.2274 H   0  0  0  0  0  0  0  0  0  0  0  0
   -2.5224    1.7067   -0.4883 H   0  0  0  0  0  0  0  0  0  0  0  0
    2.2988    0.2366   -0.6609 N   0  0  0  0  0  0  0  0  0  0  0  0
    3.1207    0.0184   -1.3736 N   0  0  0  0  0  0  0  0  0  0  0  0
   -3.4056   -0.5868   -0.8385 H   0  0  0  0  0  0  0  0  0  0  0  0
   -0.0181    2.5765   -0.4284 C   0  0  0  0  0  0  0  0  0  0  0  0
   -0.7738    3.4885   -0.1638 O   0  0  0  0  0  0  0  0  0  0  0  0
    1.3155    2.7657   -0.5883 O   0  0  0  0  0  0  0  0  0  0  0  0
    1.4765    3.7124   -0.4432 H   0  0  0  0  0  0  0  0  0  0  0  0
  1  2  2  0  0  0  0
  1  6  1  0  0  0  0
  2  3  1  0  0  0  0
  3  4  2  0  0  0  0
  4 12  1  0  0  0  0
  5  4  1  0  0  0  0
  5  8  1  0  0  0  0
  6 11  1  0  0  0  0
  6  5  2  0  0  0  0
  7  1  1  0  0  0  0
 10  9  3  0  0  0  0
 12 13  2  0  0  0  0
 14 15  1  0  0  0  0
 14 12  1  0  0  0  0
M  RAD  2   2   2   3   2
M  END
