Coordinates from ORCA-job 2-HOOC-C6H3-N2-B3LYPG-aug-cc-pVDZ-scan-d09-49-n400
 OpenBabel11091809063D

 15 14  0  0  0  0  0  0  0  0999 V2000
   -1.5801   -1.5126   -1.0559 C   0  0  0  0  0  0  0  0  0  0  0  0
   -0.2541   -1.1027   -1.0526 C   0  0  0  0  0  0  0  0  0  0  0  0
    0.1746    0.0614   -0.8830 C   0  0  0  0  0  0  0  0  0  0  0  0
   -0.5864    1.2021   -0.6486 C   0  0  0  0  0  0  0  0  0  0  0  0
   -1.9698    0.8882   -0.6217 C   0  0  0  0  0  0  0  0  0  0  0  0
   -2.4464   -0.4175   -0.8178 C   0  0  0  0  0  0  0  0  0  0  0  0
   -1.9507   -2.5242   -1.2128 H   0  0  0  0  0  0  0  0  0  0  0  0
   -2.6695    1.7056   -0.4450 H   0  0  0  0  0  0  0  0  0  0  0  0
    3.0835    0.1023   -0.5785 N   0  0  0  0  0  0  0  0  0  0  0  0
    3.7770    0.0218   -1.4350 N   0  0  0  0  0  0  0  0  0  0  0  0
   -3.5220   -0.5994   -0.7881 H   0  0  0  0  0  0  0  0  0  0  0  0
   -0.1179    2.5957   -0.4512 C   0  0  0  0  0  0  0  0  0  0  0  0
   -0.8446    3.5420   -0.2276 O   0  0  0  0  0  0  0  0  0  0  0  0
    1.2286    2.7110   -0.5560 O   0  0  0  0  0  0  0  0  0  0  0  0
    1.4367    3.6488   -0.4154 H   0  0  0  0  0  0  0  0  0  0  0  0
  1  2  2  0  0  0  0
  1  6  1  0  0  0  0
  2  3  1  0  0  0  0
  3  4  2  0  0  0  0
  4  5  1  0  0  0  0
  4 12  1  0  0  0  0
  5  8  1  0  0  0  0
  6 11  1  0  0  0  0
  6  5  2  0  0  0  0
  7  1  1  0  0  0  0
 10  9  3  0  0  0  0
 12 13  2  0  0  0  0
 14 12  1  0  0  0  0
 14 15  1  0  0  0  0
M  RAD  2   2   2   3   2
M  END
