Coordinates from ORCA-job 2-HOOC-C6H3-N2-B3LYPG-aug-cc-pVDZ-scan-d09-49-n400
 OpenBabel11091809063D

 15 14  0  0  0  0  0  0  0  0999 V2000
   -1.6086   -1.5126   -1.0498 C   0  0  0  0  0  0  0  0  0  0  0  0
   -0.2819   -1.1051   -1.0491 C   0  0  0  0  0  0  0  0  0  0  0  0
    0.1476    0.0590   -0.8820 C   0  0  0  0  0  0  0  0  0  0  0  0
   -0.6086    1.2026   -0.6513 C   0  0  0  0  0  0  0  0  0  0  0  0
   -1.9933    0.8918   -0.6254 C   0  0  0  0  0  0  0  0  0  0  0  0
   -2.4723   -0.4135   -0.8173 C   0  0  0  0  0  0  0  0  0  0  0  0
   -1.9817   -2.5240   -1.2014 H   0  0  0  0  0  0  0  0  0  0  0  0
   -2.6917    1.7111   -0.4514 H   0  0  0  0  0  0  0  0  0  0  0  0
    3.2386    0.0952   -0.5842 N   0  0  0  0  0  0  0  0  0  0  0  0
    3.9142    0.0310   -1.4560 N   0  0  0  0  0  0  0  0  0  0  0  0
   -3.5484   -0.5927   -0.7878 H   0  0  0  0  0  0  0  0  0  0  0  0
   -0.1348    2.5943   -0.4533 C   0  0  0  0  0  0  0  0  0  0  0  0
   -0.8589    3.5440   -0.2361 O   0  0  0  0  0  0  0  0  0  0  0  0
    1.2135    2.7022   -0.5432 O   0  0  0  0  0  0  0  0  0  0  0  0
    1.4248    3.6391   -0.4010 H   0  0  0  0  0  0  0  0  0  0  0  0
  1  2  2  0  0  0  0
  1  6  1  0  0  0  0
  2  3  1  0  0  0  0
  3  4  2  0  0  0  0
  4  5  1  0  0  0  0
  4 12  1  0  0  0  0
  5  8  1  0  0  0  0
  6 11  1  0  0  0  0
  6  5  2  0  0  0  0
  7  1  1  0  0  0  0
 10  9  3  0  0  0  0
 12 13  2  0  0  0  0
 14 12  1  0  0  0  0
 14 15  1  0  0  0  0
M  RAD  2   2   2   3   2
M  END
