Coordinates from ORCA-job 2-HOOC-C6H3-N2-B3LYPG-aug-cc-pVDZ-scan-d09-49-n400
 OpenBabel11091809063D

 15 14  0  0  0  0  0  0  0  0999 V2000
   -1.8705   -1.5028   -1.0536 C   0  0  0  0  0  0  0  0  0  0  0  0
   -0.5365   -1.1248   -1.0936 C   0  0  0  0  0  0  0  0  0  0  0  0
   -0.0681    0.0246   -0.9298 C   0  0  0  0  0  0  0  0  0  0  0  0
   -0.7903    1.1838   -0.6681 C   0  0  0  0  0  0  0  0  0  0  0  0
   -2.1807    0.9090   -0.6048 C   0  0  0  0  0  0  0  0  0  0  0  0
   -2.6983   -0.3829   -0.7903 C   0  0  0  0  0  0  0  0  0  0  0  0
   -2.2726   -2.5041   -1.1975 H   0  0  0  0  0  0  0  0  0  0  0  0
   -2.8531    1.7438   -0.4043 H   0  0  0  0  0  0  0  0  0  0  0  0
    4.6185    0.1468   -0.4821 N   0  0  0  0  0  0  0  0  0  0  0  0
    4.9714    0.1355   -1.5286 N   0  0  0  0  0  0  0  0  0  0  0  0
   -3.7773   -0.5352   -0.7304 H   0  0  0  0  0  0  0  0  0  0  0  0
   -0.2639    2.5558   -0.4694 C   0  0  0  0  0  0  0  0  0  0  0  0
   -0.9476    3.5330   -0.2432 O   0  0  0  0  0  0  0  0  0  0  0  0
    1.0872    2.6070   -0.5684 O   0  0  0  0  0  0  0  0  0  0  0  0
    1.3407    3.5331   -0.4253 H   0  0  0  0  0  0  0  0  0  0  0  0
  1  6  1  0  0  0  0
  2  1  2  0  0  0  0
  2  3  1  0  0  0  0
  3  4  2  0  0  0  0
  4  5  1  0  0  0  0
  4 12  1  0  0  0  0
  5  8  1  0  0  0  0
  6 11  1  0  0  0  0
  6  5  2  0  0  0  0
  7  1  1  0  0  0  0
 10  9  3  0  0  0  0
 12 13  2  0  0  0  0
 14 12  1  0  0  0  0
 14 15  1  0  0  0  0
M  RAD  2   2   2   3   2
M  END
