Coordinates from ORCA-job 2-HOOC-C6H3-N2-B3LYPG-aug-cc-pVDZ-scan-d09-49-n400
 OpenBabel11091809063D

 15 14  0  0  0  0  0  0  0  0999 V2000
   -1.6430   -1.5117   -1.0475 C   0  0  0  0  0  0  0  0  0  0  0  0
   -0.3153   -1.1078   -1.0510 C   0  0  0  0  0  0  0  0  0  0  0  0
    0.1182    0.0550   -0.8851 C   0  0  0  0  0  0  0  0  0  0  0  0
   -0.6338    1.2009   -0.6532 C   0  0  0  0  0  0  0  0  0  0  0  0
   -2.0194    0.8947   -0.6247 C   0  0  0  0  0  0  0  0  0  0  0  0
   -2.5026   -0.4094   -0.8145 C   0  0  0  0  0  0  0  0  0  0  0  0
   -2.0196   -2.5221   -1.1967 H   0  0  0  0  0  0  0  0  0  0  0  0
   -2.7150    1.7161   -0.4497 H   0  0  0  0  0  0  0  0  0  0  0  0
    3.4100    0.1001   -0.5820 N   0  0  0  0  0  0  0  0  0  0  0  0
    4.0680    0.0472   -1.4678 N   0  0  0  0  0  0  0  0  0  0  0  0
   -3.5792   -0.5853   -0.7829 H   0  0  0  0  0  0  0  0  0  0  0  0
   -0.1521    2.5898   -0.4552 C   0  0  0  0  0  0  0  0  0  0  0  0
   -0.8705    3.5447   -0.2422 O   0  0  0  0  0  0  0  0  0  0  0  0
    1.1974    2.6875   -0.5393 O   0  0  0  0  0  0  0  0  0  0  0  0
    1.4155    3.6228   -0.3974 H   0  0  0  0  0  0  0  0  0  0  0  0
  1  6  1  0  0  0  0
  2  1  2  0  0  0  0
  2  3  1  0  0  0  0
  3  4  2  0  0  0  0
  4  5  1  0  0  0  0
  4 12  1  0  0  0  0
  5  8  1  0  0  0  0
  6 11  1  0  0  0  0
  6  5  2  0  0  0  0
  7  1  1  0  0  0  0
 10  9  3  0  0  0  0
 12 13  2  0  0  0  0
 14 12  1  0  0  0  0
 14 15  1  0  0  0  0
M  RAD  2   2   2   3   2
M  END
