Coordinates from ORCA-job 2-HOOC-C6H3-N2-B3LYPG-aug-cc-pVDZ-scan-d09-49-n400
 OpenBabel11091809063D

 15 15  0  0  0  0  0  0  0  0999 V2000
   -1.3626   -1.4749   -1.0386 C   0  0  0  0  0  0  0  0  0  0  0  0
    0.0474   -1.4010   -1.1209 C   0  0  0  0  0  0  0  0  0  0  0  0
    0.5781    0.0656   -0.9185 C   0  0  0  0  0  0  0  0  0  0  0  0
   -0.3960    1.1531   -0.6747 C   0  0  0  0  0  0  0  0  0  0  0  0
   -1.7440    0.8931   -0.6413 C   0  0  0  0  0  0  0  0  0  0  0  0
   -2.2349   -0.4166   -0.8251 C   0  0  0  0  0  0  0  0  0  0  0  0
   -1.7867   -2.4763   -1.1657 H   0  0  0  0  0  0  0  0  0  0  0  0
   -2.4220    1.7255   -0.4649 H   0  0  0  0  0  0  0  0  0  0  0  0
    1.5223    0.1584   -0.9703 N   0  0  0  0  0  0  0  0  0  0  0  0
    2.6786    0.1944   -1.0447 N   0  0  0  0  0  0  0  0  0  0  0  0
   -3.3135   -0.5851   -0.7934 H   0  0  0  0  0  0  0  0  0  0  0  0
    0.0275    2.5728   -0.4566 C   0  0  0  0  0  0  0  0  0  0  0  0
   -0.7470    3.4861   -0.2689 O   0  0  0  0  0  0  0  0  0  0  0  0
    1.3694    2.7419   -0.4793 O   0  0  0  0  0  0  0  0  0  0  0  0
    1.5422    3.6853   -0.3263 H   0  0  0  0  0  0  0  0  0  0  0  0
  1  6  1  0  0  0  0
  2  1  2  0  0  0  0
  2  3  1  0  0  0  0
  3  4  2  0  0  0  0
  4  5  1  0  0  0  0
  4 12  1  0  0  0  0
  5  8  1  0  0  0  0
  6 11  1  0  0  0  0
  6  5  2  0  0  0  0
  7  1  1  0  0  0  0
  9  3  1  0  0  0  0
 10  9  1  0  0  0  0
 12 13  2  0  0  0  0
 14 12  1  0  0  0  0
 14 15  1  0  0  0  0
M  RAD  3   2   2   9   2  10   3
M  END
