Coordinates from ORCA-job 2-HOOC-C6H3-N2-B3LYPG-aug-cc-pVDZ-scan-d09-49-n400
 OpenBabel11091809063D

 15 14  0  0  0  0  0  0  0  0999 V2000
   -1.8568   -1.5037   -1.0528 C   0  0  0  0  0  0  0  0  0  0  0  0
   -0.5230   -1.1244   -1.0909 C   0  0  0  0  0  0  0  0  0  0  0  0
   -0.0565    0.0258   -0.9271 C   0  0  0  0  0  0  0  0  0  0  0  0
   -0.7802    1.1844   -0.6673 C   0  0  0  0  0  0  0  0  0  0  0  0
   -2.1704    0.9081   -0.6061 C   0  0  0  0  0  0  0  0  0  0  0  0
   -2.6862   -0.3845   -0.7916 C   0  0  0  0  0  0  0  0  0  0  0  0
   -2.2576   -2.5054   -1.1968 H   0  0  0  0  0  0  0  0  0  0  0  0
   -2.8440    1.7423   -0.4072 H   0  0  0  0  0  0  0  0  0  0  0  0
    4.5305    0.1460   -0.4908 N   0  0  0  0  0  0  0  0  0  0  0  0
    4.9220    0.1342   -1.5235 N   0  0  0  0  0  0  0  0  0  0  0  0
   -3.7652   -0.5380   -0.7333 H   0  0  0  0  0  0  0  0  0  0  0  0
   -0.2557    2.5572   -0.4687 C   0  0  0  0  0  0  0  0  0  0  0  0
   -0.9410    3.5335   -0.2439 O   0  0  0  0  0  0  0  0  0  0  0  0
    1.0954    2.6102   -0.5661 O   0  0  0  0  0  0  0  0  0  0  0  0
    1.3474    3.5367   -0.4232 H   0  0  0  0  0  0  0  0  0  0  0  0
  1  6  1  0  0  0  0
  2  1  2  0  0  0  0
  2  3  1  0  0  0  0
  3  4  2  0  0  0  0
  4  5  1  0  0  0  0
  4 12  1  0  0  0  0
  5  8  1  0  0  0  0
  6 11  1  0  0  0  0
  6  5  2  0  0  0  0
  7  1  1  0  0  0  0
 10  9  3  0  0  0  0
 12 13  2  0  0  0  0
 14 12  1  0  0  0  0
 14 15  1  0  0  0  0
M  RAD  2   2   2   3   2
M  END
