Coordinates from ORCA-job 2-HOOC-C6H3-N2-B3LYPG-aug-cc-pVDZ-scan-d09-49-n400
 OpenBabel11091809063D

 15 14  0  0  0  0  0  0  0  0999 V2000
   -1.7554   -1.5090   -1.0490 C   0  0  0  0  0  0  0  0  0  0  0  0
   -0.4236   -1.1202   -1.0716 C   0  0  0  0  0  0  0  0  0  0  0  0
    0.0271    0.0363   -0.9075 C   0  0  0  0  0  0  0  0  0  0  0  0
   -0.7073    1.1906   -0.6611 C   0  0  0  0  0  0  0  0  0  0  0  0
   -2.0960    0.9015   -0.6155 C   0  0  0  0  0  0  0  0  0  0  0  0
   -2.5979   -0.3962   -0.8021 C   0  0  0  0  0  0  0  0  0  0  0  0
   -2.1464   -2.5146   -1.1941 H   0  0  0  0  0  0  0  0  0  0  0  0
   -2.7793    1.7306   -0.4285 H   0  0  0  0  0  0  0  0  0  0  0  0
    3.9472    0.1367   -0.5509 N   0  0  0  0  0  0  0  0  0  0  0  0
    4.5331    0.1015   -1.4866 N   0  0  0  0  0  0  0  0  0  0  0  0
   -3.6761   -0.5588   -0.7562 H   0  0  0  0  0  0  0  0  0  0  0  0
   -0.2011    2.5704   -0.4627 C   0  0  0  0  0  0  0  0  0  0  0  0
   -0.9018    3.5377   -0.2462 O   0  0  0  0  0  0  0  0  0  0  0  0
    1.1496    2.6427   -0.5499 O   0  0  0  0  0  0  0  0  0  0  0  0
    1.3866    3.5734   -0.4076 H   0  0  0  0  0  0  0  0  0  0  0  0
  1  6  1  0  0  0  0
  2  1  2  0  0  0  0
  2  3  1  0  0  0  0
  3  4  2  0  0  0  0
  4  5  1  0  0  0  0
  4 12  1  0  0  0  0
  5  8  1  0  0  0  0
  6 11  1  0  0  0  0
  6  5  2  0  0  0  0
  7  1  1  0  0  0  0
 10  9  3  0  0  0  0
 12 13  2  0  0  0  0
 14 12  1  0  0  0  0
 14 15  1  0  0  0  0
M  RAD  2   2   2   3   2
M  END
