Coordinates from ORCA-job 2-HOOC-C6H3-N2-B3LYPG-aug-cc-pVDZ-scan-d09-49-n400
 OpenBabel11091809063D

 15 15  0  0  0  0  0  0  0  0999 V2000
   -1.3519   -1.4880   -0.8632 C   0  0  0  0  0  0  0  0  0  0  0  0
    0.0442   -1.3645   -1.0406 C   0  0  0  0  0  0  0  0  0  0  0  0
    0.5225    0.0503   -0.9745 C   0  0  0  0  0  0  0  0  0  0  0  0
   -0.4045    1.1638   -0.7244 C   0  0  0  0  0  0  0  0  0  0  0  0
   -1.7569    0.9081   -0.7592 C   0  0  0  0  0  0  0  0  0  0  0  0
   -2.2379   -0.4146   -0.8714 C   0  0  0  0  0  0  0  0  0  0  0  0
   -1.7579   -2.5016   -0.7960 H   0  0  0  0  0  0  0  0  0  0  0  0
   -2.4442    1.7435   -0.6381 H   0  0  0  0  0  0  0  0  0  0  0  0
    1.5623    0.1948   -1.1838 N   0  0  0  0  0  0  0  0  0  0  0  0
    2.6738    0.2884   -1.4223 N   0  0  0  0  0  0  0  0  0  0  0  0
   -3.3160   -0.5822   -0.9218 H   0  0  0  0  0  0  0  0  0  0  0  0
    0.0314    2.5594   -0.4328 C   0  0  0  0  0  0  0  0  0  0  0  0
   -0.7089    3.5198   -0.4209 O   0  0  0  0  0  0  0  0  0  0  0  0
    1.3580    2.6551   -0.1615 O   0  0  0  0  0  0  0  0  0  0  0  0
    1.5447    3.5903    0.0210 H   0  0  0  0  0  0  0  0  0  0  0  0
  1  7  1  0  0  0  0
  2  3  2  0  0  0  0
  2  1  1  0  0  0  0
  3  4  1  0  0  0  0
  4 12  1  0  0  0  0
  5  4  2  0  0  0  0
  5  8  1  0  0  0  0
  6  1  2  0  0  0  0
  6  5  1  0  0  0  0
  9  3  1  0  0  0  0
 10  9  1  0  0  0  0
 11  6  1  0  0  0  0
 12 13  2  0  0  0  0
 12 14  1  0  0  0  0
 14 15  1  0  0  0  0
M  RAD  3   2   2   9   2  10   3
M  END
