Coordinates from ORCA-job 2-HOOC-C6H3-N2-B3LYPG-aug-cc-pVDZ-scan-d09-49-n400
 OpenBabel11091809063D

 15 15  0  0  0  0  0  0  0  0999 V2000
   -1.4239   -1.4958   -1.0517 C   0  0  0  0  0  0  0  0  0  0  0  0
   -0.0476   -1.1975   -1.0882 C   0  0  0  0  0  0  0  0  0  0  0  0
    0.2857    0.0264   -0.9019 C   0  0  0  0  0  0  0  0  0  0  0  0
   -0.4489    1.1835   -0.6592 C   0  0  0  0  0  0  0  0  0  0  0  0
   -1.8295    0.8817   -0.6230 C   0  0  0  0  0  0  0  0  0  0  0  0
   -2.3033   -0.4252   -0.8145 C   0  0  0  0  0  0  0  0  0  0  0  0
   -1.8151   -2.5050   -1.1981 H   0  0  0  0  0  0  0  0  0  0  0  0
   -2.5193    1.7046   -0.4398 H   0  0  0  0  0  0  0  0  0  0  0  0
    2.1361    0.3041   -0.9721 N   0  0  0  0  0  0  0  0  0  0  0  0
    3.1333   -0.1594   -1.1154 N   0  0  0  0  0  0  0  0  0  0  0  0
   -3.3792   -0.6064   -0.7771 H   0  0  0  0  0  0  0  0  0  0  0  0
   -0.0247    2.5928   -0.4471 C   0  0  0  0  0  0  0  0  0  0  0  0
   -0.7920    3.5104   -0.2450 O   0  0  0  0  0  0  0  0  0  0  0  0
    1.3196    2.7800   -0.5030 O   0  0  0  0  0  0  0  0  0  0  0  0
    1.4677    3.7283   -0.3532 H   0  0  0  0  0  0  0  0  0  0  0  0
  1  6  1  0  0  0  0
  2  1  2  0  0  0  0
  2  3  1  0  0  0  0
  3  4  2  0  0  0  0
  4  5  1  0  0  0  0
  4 12  1  0  0  0  0
  5  8  1  0  0  0  0
  6 11  1  0  0  0  0
  6  5  2  0  0  0  0
  7  1  1  0  0  0  0
  9  3  1  0  0  0  0
 10  9  2  0  0  0  0
 12 13  2  0  0  0  0
 14 12  1  0  0  0  0
 14 15  1  0  0  0  0
M  RAD  2   2   2  10   2
M  END
