Coordinates from ORCA-job 2-HOOC-C6H3-N2-B3LYPG-aug-cc-pVDZ-scan-d09-49-n400
 OpenBabel11091809063D

 15 15  0  0  0  0  0  0  0  0999 V2000
   -1.4128   -1.4902   -1.0511 C   0  0  0  0  0  0  0  0  0  0  0  0
   -0.0289   -1.2112   -1.0921 C   0  0  0  0  0  0  0  0  0  0  0  0
    0.2921    0.0258   -0.9031 C   0  0  0  0  0  0  0  0  0  0  0  0
   -0.4483    1.1819   -0.6603 C   0  0  0  0  0  0  0  0  0  0  0  0
   -1.8269    0.8837   -0.6231 C   0  0  0  0  0  0  0  0  0  0  0  0
   -2.2966   -0.4251   -0.8147 C   0  0  0  0  0  0  0  0  0  0  0  0
   -1.8066   -2.4991   -1.1968 H   0  0  0  0  0  0  0  0  0  0  0  0
   -2.5169    1.7062   -0.4400 H   0  0  0  0  0  0  0  0  0  0  0  0
    2.0728    0.2952   -0.9708 N   0  0  0  0  0  0  0  0  0  0  0  0
    3.0930   -0.1196   -1.1053 N   0  0  0  0  0  0  0  0  0  0  0  0
   -3.3719   -0.6097   -0.7775 H   0  0  0  0  0  0  0  0  0  0  0  0
   -0.0194    2.5893   -0.4494 C   0  0  0  0  0  0  0  0  0  0  0  0
   -0.7803    3.5113   -0.2453 O   0  0  0  0  0  0  0  0  0  0  0  0
    1.3272    2.7685   -0.5050 O   0  0  0  0  0  0  0  0  0  0  0  0
    1.4821    3.7156   -0.3547 H   0  0  0  0  0  0  0  0  0  0  0  0
  1  6  1  0  0  0  0
  2  1  2  0  0  0  0
  2  3  1  0  0  0  0
  3  4  2  0  0  0  0
  4  5  1  0  0  0  0
  4 12  1  0  0  0  0
  5  8  1  0  0  0  0
  6 11  1  0  0  0  0
  6  5  2  0  0  0  0
  7  1  1  0  0  0  0
  9  3  1  0  0  0  0
 10  9  2  0  0  0  0
 12 13  2  0  0  0  0
 14 12  1  0  0  0  0
 14 15  1  0  0  0  0
M  RAD  2   2   2  10   2
M  END
