Coordinates from ORCA-job 2-HOOC-C6H3-N2-B3LYPG-aug-cc-pVDZ-scan-d09-49-n400
 OpenBabel11091809063D

 15 14  0  0  0  0  0  0  0  0999 V2000
   -1.6535   -1.5115   -1.0471 C   0  0  0  0  0  0  0  0  0  0  0  0
   -0.3254   -1.1087   -1.0520 C   0  0  0  0  0  0  0  0  0  0  0  0
    0.1094    0.0536   -0.8863 C   0  0  0  0  0  0  0  0  0  0  0  0
   -0.6412    1.2003   -0.6538 C   0  0  0  0  0  0  0  0  0  0  0  0
   -2.0270    0.8955   -0.6243 C   0  0  0  0  0  0  0  0  0  0  0  0
   -2.5117   -0.4081   -0.8137 C   0  0  0  0  0  0  0  0  0  0  0  0
   -2.0312   -2.5216   -1.1956 H   0  0  0  0  0  0  0  0  0  0  0  0
   -2.7217    1.7176   -0.4488 H   0  0  0  0  0  0  0  0  0  0  0  0
    3.4613    0.1021   -0.5804 N   0  0  0  0  0  0  0  0  0  0  0  0
    4.1131    0.0527   -1.4710 N   0  0  0  0  0  0  0  0  0  0  0  0
   -3.5885   -0.5830   -0.7812 H   0  0  0  0  0  0  0  0  0  0  0  0
   -0.1570    2.5882   -0.4558 C   0  0  0  0  0  0  0  0  0  0  0  0
   -0.8736    3.5447   -0.2435 O   0  0  0  0  0  0  0  0  0  0  0  0
    1.1927    2.6830   -0.5389 O   0  0  0  0  0  0  0  0  0  0  0  0
    1.4129    3.6179   -0.3971 H   0  0  0  0  0  0  0  0  0  0  0  0
  1  6  1  0  0  0  0
  2  1  2  0  0  0  0
  2  3  1  0  0  0  0
  3  4  2  0  0  0  0
  4  5  1  0  0  0  0
  4 12  1  0  0  0  0
  5  8  1  0  0  0  0
  6 11  1  0  0  0  0
  6  5  2  0  0  0  0
  7  1  1  0  0  0  0
 10  9  3  0  0  0  0
 12 13  2  0  0  0  0
 14 12  1  0  0  0  0
 14 15  1  0  0  0  0
M  RAD  2   2   2   3   2
M  END
