Coordinates from ORCA-job 2-HOOC-C6H3-N2-B3LYPG-aug-cc-pVDZ-scan-d09-49-n400
 OpenBabel11091809063D

 15 14  0  0  0  0  0  0  0  0999 V2000
   -1.5176   -1.5177   -1.0800 C   0  0  0  0  0  0  0  0  0  0  0  0
   -0.1830   -1.1299   -1.0754 C   0  0  0  0  0  0  0  0  0  0  0  0
    0.2443    0.0353   -0.8950 C   0  0  0  0  0  0  0  0  0  0  0  0
   -0.5025    1.1819   -0.6439 C   0  0  0  0  0  0  0  0  0  0  0  0
   -1.8881    0.8741   -0.6082 C   0  0  0  0  0  0  0  0  0  0  0  0
   -2.3766   -0.4244   -0.8172 C   0  0  0  0  0  0  0  0  0  0  0  0
   -1.8973   -2.5240   -1.2516 H   0  0  0  0  0  0  0  0  0  0  0  0
   -2.5793    1.6958   -0.4193 H   0  0  0  0  0  0  0  0  0  0  0  0
    2.6131    0.1894   -0.5867 N   0  0  0  0  0  0  0  0  0  0  0  0
    3.4187    0.0040   -1.3212 N   0  0  0  0  0  0  0  0  0  0  0  0
   -3.4533   -0.5980   -0.7770 H   0  0  0  0  0  0  0  0  0  0  0  0
   -0.0561    2.5852   -0.4511 C   0  0  0  0  0  0  0  0  0  0  0  0
   -0.7972    3.5047   -0.1704 O   0  0  0  0  0  0  0  0  0  0  0  0
    1.2791    2.7511   -0.6189 O   0  0  0  0  0  0  0  0  0  0  0  0
    1.4547    3.6950   -0.4735 H   0  0  0  0  0  0  0  0  0  0  0  0
  1  2  2  0  0  0  0
  1  6  1  0  0  0  0
  2  3  1  0  0  0  0
  3  4  2  0  0  0  0
  4  5  1  0  0  0  0
  4 12  1  0  0  0  0
  5  8  1  0  0  0  0
  6 11  1  0  0  0  0
  6  5  2  0  0  0  0
  7  1  1  0  0  0  0
 10  9  3  0  0  0  0
 12 13  2  0  0  0  0
 14 15  1  0  0  0  0
 14 12  1  0  0  0  0
M  RAD  2   2   2   3   2
M  END
