Coordinates from ORCA-job 2-HOOC-C6H3-N2-B3LYPG-aug-cc-pVDZ-scan-d09-49-n400
 OpenBabel11091809063D

 15 14  0  0  0  0  0  0  0  0999 V2000
   -1.5527   -1.5138   -1.0691 C   0  0  0  0  0  0  0  0  0  0  0  0
   -0.2247   -1.1081   -1.0693 C   0  0  0  0  0  0  0  0  0  0  0  0
    0.2022    0.0565   -0.8956 C   0  0  0  0  0  0  0  0  0  0  0  0
   -0.5549    1.1970   -0.6484 C   0  0  0  0  0  0  0  0  0  0  0  0
   -1.9382    0.8822   -0.6126 C   0  0  0  0  0  0  0  0  0  0  0  0
   -2.4172   -0.4214   -0.8150 C   0  0  0  0  0  0  0  0  0  0  0  0
   -1.9253   -2.5236   -1.2333 H   0  0  0  0  0  0  0  0  0  0  0  0
   -2.6360    1.6991   -0.4259 H   0  0  0  0  0  0  0  0  0  0  0  0
    2.8867    0.1312   -0.5757 N   0  0  0  0  0  0  0  0  0  0  0  0
    3.6362    0.0100   -1.3791 N   0  0  0  0  0  0  0  0  0  0  0  0
   -3.4927   -0.6028   -0.7777 H   0  0  0  0  0  0  0  0  0  0  0  0
   -0.0942    2.5937   -0.4513 C   0  0  0  0  0  0  0  0  0  0  0  0
   -0.8255    3.5304   -0.2039 O   0  0  0  0  0  0  0  0  0  0  0  0
    1.2479    2.7264   -0.5874 O   0  0  0  0  0  0  0  0  0  0  0  0
    1.4470    3.6659   -0.4450 H   0  0  0  0  0  0  0  0  0  0  0  0
  1  6  1  0  0  0  0
  2  1  2  0  0  0  0
  2  3  1  0  0  0  0
  3  4  2  0  0  0  0
  4  5  1  0  0  0  0
  4 12  1  0  0  0  0
  5  8  1  0  0  0  0
  6 11  1  0  0  0  0
  6  5  2  0  0  0  0
  7  1  1  0  0  0  0
 10  9  3  0  0  0  0
 12 13  2  0  0  0  0
 14 12  1  0  0  0  0
 14 15  1  0  0  0  0
M  RAD  2   2   2   3   2
M  END
