Coordinates from ORCA-job 2-HOOC-C6H3-N2-B3LYPG-aug-cc-pVDZ-scan-d09-49-n400
 OpenBabel11091809063D

 15 14  0  0  0  0  0  0  0  0999 V2000
   -1.8985   -1.5029   -1.0544 C   0  0  0  0  0  0  0  0  0  0  0  0
   -0.5652   -1.1270   -1.0960 C   0  0  0  0  0  0  0  0  0  0  0  0
   -0.0836    0.0168   -0.9331 C   0  0  0  0  0  0  0  0  0  0  0  0
   -0.8040    1.1778   -0.6694 C   0  0  0  0  0  0  0  0  0  0  0  0
   -2.1955    0.9102   -0.6038 C   0  0  0  0  0  0  0  0  0  0  0  0
   -2.7204   -0.3787   -0.7889 C   0  0  0  0  0  0  0  0  0  0  0  0
   -2.3043   -2.5025   -1.1981 H   0  0  0  0  0  0  0  0  0  0  0  0
   -2.8632    1.7482   -0.4015 H   0  0  0  0  0  0  0  0  0  0  0  0
    4.7618    0.1649   -0.4680 N   0  0  0  0  0  0  0  0  0  0  0  0
    5.0449    0.1482   -1.5354 N   0  0  0  0  0  0  0  0  0  0  0  0
   -3.8000   -0.5256   -0.7271 H   0  0  0  0  0  0  0  0  0  0  0  0
   -0.2726    2.5483   -0.4705 C   0  0  0  0  0  0  0  0  0  0  0  0
   -0.9531    3.5272   -0.2422 O   0  0  0  0  0  0  0  0  0  0  0  0
    1.0784    2.5961   -0.5720 O   0  0  0  0  0  0  0  0  0  0  0  0
    1.3340    3.5216   -0.4288 H   0  0  0  0  0  0  0  0  0  0  0  0
  1  6  1  0  0  0  0
  2  1  2  0  0  0  0
  2  3  1  0  0  0  0
  3  4  2  0  0  0  0
  4  5  1  0  0  0  0
  4 12  1  0  0  0  0
  5  8  1  0  0  0  0
  6 11  1  0  0  0  0
  6  5  2  0  0  0  0
  7  1  1  0  0  0  0
 10  9  3  0  0  0  0
 12 13  2  0  0  0  0
 14 12  1  0  0  0  0
 14 15  1  0  0  0  0
M  RAD  2   2   2   3   2
M  END
