Coordinates from ORCA-job 2-HOOC-C6H3-N2-B3LYPG-aug-cc-pVDZ-scan-d09-49-n400
 OpenBabel11091809063D

 15 14  0  0  0  0  0  0  0  0999 V2000
   -1.5861   -1.5127   -1.0535 C   0  0  0  0  0  0  0  0  0  0  0  0
   -0.2601   -1.1030   -1.0501 C   0  0  0  0  0  0  0  0  0  0  0  0
    0.1690    0.0610   -0.8818 C   0  0  0  0  0  0  0  0  0  0  0  0
   -0.5914    1.2024   -0.6497 C   0  0  0  0  0  0  0  0  0  0  0  0
   -1.9750    0.8892   -0.6237 C   0  0  0  0  0  0  0  0  0  0  0  0
   -2.4520   -0.4165   -0.8183 C   0  0  0  0  0  0  0  0  0  0  0  0
   -1.9571   -2.5245   -1.2085 H   0  0  0  0  0  0  0  0  0  0  0  0
   -2.6746    1.7071   -0.4487 H   0  0  0  0  0  0  0  0  0  0  0  0
    3.1186    0.0985   -0.5809 N   0  0  0  0  0  0  0  0  0  0  0  0
    3.8066    0.0237   -1.4421 N   0  0  0  0  0  0  0  0  0  0  0  0
   -3.5278   -0.5979   -0.7893 H   0  0  0  0  0  0  0  0  0  0  0  0
   -0.1218    2.5957   -0.4524 C   0  0  0  0  0  0  0  0  0  0  0  0
   -0.8480    3.5422   -0.2285 O   0  0  0  0  0  0  0  0  0  0  0  0
    1.2254    2.7099   -0.5520 O   0  0  0  0  0  0  0  0  0  0  0  0
    1.4332    3.6475   -0.4098 H   0  0  0  0  0  0  0  0  0  0  0  0
  1  2  2  0  0  0  0
  1  6  1  0  0  0  0
  2  3  1  0  0  0  0
  3  4  2  0  0  0  0
  4  5  1  0  0  0  0
  4 12  1  0  0  0  0
  5  8  1  0  0  0  0
  6 11  1  0  0  0  0
  6  5  2  0  0  0  0
  7  1  1  0  0  0  0
 10  9  3  0  0  0  0
 12 13  2  0  0  0  0
 14 12  1  0  0  0  0
 14 15  1  0  0  0  0
M  RAD  2   2   2   3   2
M  END
