Coordinates from ORCA-job 2-HOOC-C6H3-N2-B3LYPG-aug-cc-pVDZ-scan-d09-49-n400
 OpenBabel11091809063D

 15 14  0  0  0  0  0  0  0  0999 V2000
   -1.6642   -1.5114   -1.0468 C   0  0  0  0  0  0  0  0  0  0  0  0
   -0.3358   -1.1100   -1.0535 C   0  0  0  0  0  0  0  0  0  0  0  0
    0.1006    0.0517   -0.8881 C   0  0  0  0  0  0  0  0  0  0  0  0
   -0.6482    1.1994   -0.6546 C   0  0  0  0  0  0  0  0  0  0  0  0
   -2.0344    0.8962   -0.6239 C   0  0  0  0  0  0  0  0  0  0  0  0
   -2.5209   -0.4069   -0.8127 C   0  0  0  0  0  0  0  0  0  0  0  0
   -2.0433   -2.5211   -1.1946 H   0  0  0  0  0  0  0  0  0  0  0  0
   -2.7280    1.7191   -0.4476 H   0  0  0  0  0  0  0  0  0  0  0  0
    3.5125    0.1046   -0.5785 N   0  0  0  0  0  0  0  0  0  0  0  0
    4.1585    0.0582   -1.4734 N   0  0  0  0  0  0  0  0  0  0  0  0
   -3.5978   -0.5803   -0.7790 H   0  0  0  0  0  0  0  0  0  0  0  0
   -0.1616    2.5865   -0.4564 C   0  0  0  0  0  0  0  0  0  0  0  0
   -0.8770    3.5439   -0.2443 O   0  0  0  0  0  0  0  0  0  0  0  0
    1.1882    2.6791   -0.5389 O   0  0  0  0  0  0  0  0  0  0  0  0
    1.4100    3.6136   -0.3971 H   0  0  0  0  0  0  0  0  0  0  0  0
  1  6  1  0  0  0  0
  2  1  2  0  0  0  0
  2  3  1  0  0  0  0
  3  4  2  0  0  0  0
  4  5  1  0  0  0  0
  4 12  1  0  0  0  0
  5  8  1  0  0  0  0
  6 11  1  0  0  0  0
  6  5  2  0  0  0  0
  7  1  1  0  0  0  0
 10  9  3  0  0  0  0
 12 13  2  0  0  0  0
 14 12  1  0  0  0  0
 14 15  1  0  0  0  0
M  RAD  2   2   2   3   2
M  END
