Coordinates from ORCA-job 2-HOOC-C6H3-N2-B3LYPG-aug-cc-pVDZ-scan-d09-49-n400
 OpenBabel11091809063D

 15 14  0  0  0  0  0  0  0  0999 V2000
   -1.8130   -1.5062   -1.0507 C   0  0  0  0  0  0  0  0  0  0  0  0
   -0.4800   -1.1230   -1.0818 C   0  0  0  0  0  0  0  0  0  0  0  0
   -0.0194    0.0295   -0.9180 C   0  0  0  0  0  0  0  0  0  0  0  0
   -0.7480    1.1863   -0.6646 C   0  0  0  0  0  0  0  0  0  0  0  0
   -2.1375    0.9052   -0.6104 C   0  0  0  0  0  0  0  0  0  0  0  0
   -2.6478   -0.3896   -0.7961 C   0  0  0  0  0  0  0  0  0  0  0  0
   -2.2097   -2.5095   -1.1952 H   0  0  0  0  0  0  0  0  0  0  0  0
   -2.8150    1.7375   -0.4169 H   0  0  0  0  0  0  0  0  0  0  0  0
    4.2590    0.1485   -0.5197 N   0  0  0  0  0  0  0  0  0  0  0  0
    4.7563    0.1253   -1.5056 N   0  0  0  0  0  0  0  0  0  0  0  0
   -3.7265   -0.5467   -0.7436 H   0  0  0  0  0  0  0  0  0  0  0  0
   -0.2298    2.5615   -0.4662 C   0  0  0  0  0  0  0  0  0  0  0  0
   -0.9200    3.5352   -0.2454 O   0  0  0  0  0  0  0  0  0  0  0  0
    1.1215    2.6204   -0.5589 O   0  0  0  0  0  0  0  0  0  0  0  0
    1.3684    3.5483   -0.4162 H   0  0  0  0  0  0  0  0  0  0  0  0
  1  6  1  0  0  0  0
  2  1  2  0  0  0  0
  2  3  1  0  0  0  0
  3  4  2  0  0  0  0
  4  5  1  0  0  0  0
  4 12  1  0  0  0  0
  5  8  1  0  0  0  0
  6 11  1  0  0  0  0
  6  5  2  0  0  0  0
  7  1  1  0  0  0  0
 10  9  3  0  0  0  0
 12 13  2  0  0  0  0
 14 12  1  0  0  0  0
 14 15  1  0  0  0  0
M  RAD  2   2   2   3   2
M  END
