Coordinates from ORCA-job 2-HOOC-C6H3-N2-B3LYPG-aug-cc-pVDZ-scan-d09-49-n400
 OpenBabel11091809063D

 15 14  0  0  0  0  0  0  0  0999 V2000
   -1.5492   -1.5140   -1.0709 C   0  0  0  0  0  0  0  0  0  0  0  0
   -0.2207   -1.1095   -1.0712 C   0  0  0  0  0  0  0  0  0  0  0  0
    0.2058    0.0552   -0.8968 C   0  0  0  0  0  0  0  0  0  0  0  0
   -0.5504    1.1960   -0.6481 C   0  0  0  0  0  0  0  0  0  0  0  0
   -1.9338    0.8814   -0.6114 C   0  0  0  0  0  0  0  0  0  0  0  0
   -2.4133   -0.4219   -0.8147 C   0  0  0  0  0  0  0  0  0  0  0  0
   -1.9223   -2.5235   -1.2362 H   0  0  0  0  0  0  0  0  0  0  0  0
   -2.6312    1.6983   -0.4236 H   0  0  0  0  0  0  0  0  0  0  0  0
    2.8597    0.1351   -0.5755 N   0  0  0  0  0  0  0  0  0  0  0  0
    3.6168    0.0102   -1.3711 N   0  0  0  0  0  0  0  0  0  0  0  0
   -3.4888   -0.6030   -0.7766 H   0  0  0  0  0  0  0  0  0  0  0  0
   -0.0907    2.5931   -0.4512 C   0  0  0  0  0  0  0  0  0  0  0  0
   -0.8225    3.5285   -0.2001 O   0  0  0  0  0  0  0  0  0  0  0  0
    1.2506    2.7284   -0.5922 O   0  0  0  0  0  0  0  0  0  0  0  0
    1.4485    3.6682   -0.4496 H   0  0  0  0  0  0  0  0  0  0  0  0
  1  6  1  0  0  0  0
  2  1  2  0  0  0  0
  2  3  1  0  0  0  0
  3  4  2  0  0  0  0
  4  5  1  0  0  0  0
  4 12  1  0  0  0  0
  5  8  1  0  0  0  0
  6 11  1  0  0  0  0
  6  5  2  0  0  0  0
  7  1  1  0  0  0  0
 10  9  3  0  0  0  0
 12 13  2  0  0  0  0
 14 12  1  0  0  0  0
 14 15  1  0  0  0  0
M  RAD  2   2   2   3   2
M  END
