Coordinates from ORCA-job 2-HOOC-C6H3-N2-B3LYPG-aug-cc-pVDZ-scan-d09-49-n400
 OpenBabel11091809063D

 15 14  0  0  0  0  0  0  0  0999 V2000
   -1.5659   -1.5131   -1.0624 C   0  0  0  0  0  0  0  0  0  0  0  0
   -0.2392   -1.1043   -1.0613 C   0  0  0  0  0  0  0  0  0  0  0  0
    0.1886    0.0600   -0.8898 C   0  0  0  0  0  0  0  0  0  0  0  0
   -0.5711    1.2001   -0.6488 C   0  0  0  0  0  0  0  0  0  0  0  0
   -1.9543    0.8853   -0.6173 C   0  0  0  0  0  0  0  0  0  0  0  0
   -2.4316   -0.4196   -0.8163 C   0  0  0  0  0  0  0  0  0  0  0  0
   -1.9370   -2.5240   -1.2227 H   0  0  0  0  0  0  0  0  0  0  0  0
   -2.6534    1.7021   -0.4354 H   0  0  0  0  0  0  0  0  0  0  0  0
    2.9854    0.1161   -0.5771 N   0  0  0  0  0  0  0  0  0  0  0  0
    3.7069    0.0129   -1.4078 N   0  0  0  0  0  0  0  0  0  0  0  0
   -3.5071   -0.6017   -0.7826 H   0  0  0  0  0  0  0  0  0  0  0  0
   -0.1066    2.5953   -0.4513 C   0  0  0  0  0  0  0  0  0  0  0  0
   -0.8357    3.5369   -0.2165 O   0  0  0  0  0  0  0  0  0  0  0  0
    1.2380    2.7190   -0.5707 O   0  0  0  0  0  0  0  0  0  0  0  0
    1.4417    3.6576   -0.4292 H   0  0  0  0  0  0  0  0  0  0  0  0
  1  2  2  0  0  0  0
  1  6  1  0  0  0  0
  2  3  1  0  0  0  0
  3  4  2  0  0  0  0
  4  5  1  0  0  0  0
  4 12  1  0  0  0  0
  5  8  1  0  0  0  0
  6 11  1  0  0  0  0
  6  5  2  0  0  0  0
  7  1  1  0  0  0  0
 10  9  3  0  0  0  0
 12 13  2  0  0  0  0
 14 12  1  0  0  0  0
 14 15  1  0  0  0  0
M  RAD  2   2   2   3   2
M  END
