Coordinates from ORCA-job 2-HOOC-C6H3-N2-B3LYPG-aug-cc-pVDZ-scan-d09-49-n400
 OpenBabel11091809063D

 15 14  0  0  0  0  0  0  0  0999 V2000
   -1.7467   -1.5093   -1.0487 C   0  0  0  0  0  0  0  0  0  0  0  0
   -0.4152   -1.1193   -1.0698 C   0  0  0  0  0  0  0  0  0  0  0  0
    0.0340    0.0377   -0.9055 C   0  0  0  0  0  0  0  0  0  0  0  0
   -0.7016    1.1914   -0.6605 C   0  0  0  0  0  0  0  0  0  0  0  0
   -2.0902    0.9010   -0.6164 C   0  0  0  0  0  0  0  0  0  0  0  0
   -2.5905   -0.3972   -0.8031 C   0  0  0  0  0  0  0  0  0  0  0  0
   -2.1365   -2.5153   -1.1939 H   0  0  0  0  0  0  0  0  0  0  0  0
   -2.7745    1.7295   -0.4305 H   0  0  0  0  0  0  0  0  0  0  0  0
    3.9043    0.1339   -0.5541 N   0  0  0  0  0  0  0  0  0  0  0  0
    4.4975    0.0982   -1.4852 N   0  0  0  0  0  0  0  0  0  0  0  0
   -3.6686   -0.5609   -0.7584 H   0  0  0  0  0  0  0  0  0  0  0  0
   -0.1972    2.5720   -0.4621 C   0  0  0  0  0  0  0  0  0  0  0  0
   -0.8991    3.5385   -0.2463 O   0  0  0  0  0  0  0  0  0  0  0  0
    1.1535    2.6458   -0.5485 O   0  0  0  0  0  0  0  0  0  0  0  0
    1.3894    3.5767   -0.4063 H   0  0  0  0  0  0  0  0  0  0  0  0
  1  6  1  0  0  0  0
  2  1  2  0  0  0  0
  2  3  1  0  0  0  0
  3  4  2  0  0  0  0
  4  5  1  0  0  0  0
  4 12  1  0  0  0  0
  5  8  1  0  0  0  0
  6 11  1  0  0  0  0
  6  5  2  0  0  0  0
  7  1  1  0  0  0  0
 10  9  3  0  0  0  0
 12 13  2  0  0  0  0
 14 12  1  0  0  0  0
 14 15  1  0  0  0  0
M  RAD  2   2   2   3   2
M  END
