Coordinates from ORCA-job 2-HOOC-C6H3-N2-B3LYPG-aug-cc-pVDZ-scan-d09-49-n400
 OpenBabel11091809063D

 15 14  0  0  0  0  0  0  0  0999 V2000
   -1.7414   -1.5095   -1.0485 C   0  0  0  0  0  0  0  0  0  0  0  0
   -0.4101   -1.1187   -1.0687 C   0  0  0  0  0  0  0  0  0  0  0  0
    0.0382    0.0386   -0.9044 C   0  0  0  0  0  0  0  0  0  0  0  0
   -0.6982    1.1919   -0.6602 C   0  0  0  0  0  0  0  0  0  0  0  0
   -2.0866    0.9007   -0.6169 C   0  0  0  0  0  0  0  0  0  0  0  0
   -2.5861   -0.3979   -0.8037 C   0  0  0  0  0  0  0  0  0  0  0  0
   -2.1305   -2.5157   -1.1938 H   0  0  0  0  0  0  0  0  0  0  0  0
   -2.7716    1.7288   -0.4317 H   0  0  0  0  0  0  0  0  0  0  0  0
    3.8787    0.1321   -0.5560 N   0  0  0  0  0  0  0  0  0  0  0  0
    4.4762    0.0959   -1.4843 N   0  0  0  0  0  0  0  0  0  0  0  0
   -3.6641   -0.5621   -0.7598 H   0  0  0  0  0  0  0  0  0  0  0  0
   -0.1949    2.5729   -0.4618 C   0  0  0  0  0  0  0  0  0  0  0  0
   -0.8976    3.5389   -0.2464 O   0  0  0  0  0  0  0  0  0  0  0  0
    1.1559    2.6477   -0.5476 O   0  0  0  0  0  0  0  0  0  0  0  0
    1.3909    3.5789   -0.4055 H   0  0  0  0  0  0  0  0  0  0  0  0
  1  6  1  0  0  0  0
  2  1  2  0  0  0  0
  2  3  1  0  0  0  0
  3  4  2  0  0  0  0
  4  5  1  0  0  0  0
  4 12  1  0  0  0  0
  5  8  1  0  0  0  0
  6 11  1  0  0  0  0
  6  5  2  0  0  0  0
  7  1  1  0  0  0  0
 10  9  3  0  0  0  0
 12 13  2  0  0  0  0
 14 12  1  0  0  0  0
 14 15  1  0  0  0  0
M  RAD  2   2   2   3   2
M  END
