Coordinates from ORCA-job 2-HOOC-C6H3-N2-B3LYPG-aug-cc-pVDZ-scan-d09-49-n400
 OpenBabel11091809063D

 15 14  0  0  0  0  0  0  0  0999 V2000
   -1.6326   -1.5119   -1.0481 C   0  0  0  0  0  0  0  0  0  0  0  0
   -0.3052   -1.1069   -1.0503 C   0  0  0  0  0  0  0  0  0  0  0  0
    0.1270    0.0563   -0.8841 C   0  0  0  0  0  0  0  0  0  0  0  0
   -0.6263    1.2015   -0.6526 C   0  0  0  0  0  0  0  0  0  0  0  0
   -2.0116    0.8939   -0.6250 C   0  0  0  0  0  0  0  0  0  0  0  0
   -2.4935   -0.4106   -0.8154 C   0  0  0  0  0  0  0  0  0  0  0  0
   -2.0081   -2.5227   -1.1979 H   0  0  0  0  0  0  0  0  0  0  0  0
   -2.7081    1.7146   -0.4504 H   0  0  0  0  0  0  0  0  0  0  0  0
    3.3586    0.0984   -0.5831 N   0  0  0  0  0  0  0  0  0  0  0  0
    4.0222    0.0419   -1.4645 N   0  0  0  0  0  0  0  0  0  0  0  0
   -3.5700   -0.5876   -0.7845 H   0  0  0  0  0  0  0  0  0  0  0  0
   -0.1470    2.5913   -0.4547 C   0  0  0  0  0  0  0  0  0  0  0  0
   -0.8672    3.5447   -0.2408 O   0  0  0  0  0  0  0  0  0  0  0  0
    1.2021    2.6920   -0.5399 O   0  0  0  0  0  0  0  0  0  0  0  0
    1.4182    3.6278   -0.3980 H   0  0  0  0  0  0  0  0  0  0  0  0
  1  6  1  0  0  0  0
  2  1  2  0  0  0  0
  2  3  1  0  0  0  0
  3  4  2  0  0  0  0
  4  5  1  0  0  0  0
  4 12  1  0  0  0  0
  5  8  1  0  0  0  0
  6 11  1  0  0  0  0
  6  5  2  0  0  0  0
  7  1  1  0  0  0  0
 10  9  3  0  0  0  0
 12 13  2  0  0  0  0
 14 12  1  0  0  0  0
 14 15  1  0  0  0  0
M  RAD  2   2   2   3   2
M  END
