Coordinates from ORCA-job 2-HOOC-C6H3-N2-B3LYPG-aug-cc-pVDZ-scan-d09-49-n400
 OpenBabel11091809063D

 15 15  0  0  0  0  0  0  0  0999 V2000
   -1.3805   -1.4737   -1.0508 C   0  0  0  0  0  0  0  0  0  0  0  0
    0.0376   -1.3119   -1.1129 C   0  0  0  0  0  0  0  0  0  0  0  0
    0.3855    0.0252   -0.9082 C   0  0  0  0  0  0  0  0  0  0  0  0
   -0.4383    1.1702   -0.6615 C   0  0  0  0  0  0  0  0  0  0  0  0
   -1.7979    0.8963   -0.6224 C   0  0  0  0  0  0  0  0  0  0  0  0
   -2.2634   -0.4229   -0.8169 C   0  0  0  0  0  0  0  0  0  0  0  0
   -1.8002   -2.4741   -1.1938 H   0  0  0  0  0  0  0  0  0  0  0  0
   -2.4891    1.7170   -0.4394 H   0  0  0  0  0  0  0  0  0  0  0  0
    1.7877    0.1709   -0.9727 N   0  0  0  0  0  0  0  0  0  0  0  0
    2.8993    0.1533   -1.0479 N   0  0  0  0  0  0  0  0  0  0  0  0
   -3.3398   -0.6062   -0.7802 H   0  0  0  0  0  0  0  0  0  0  0  0
    0.0024    2.5742   -0.4504 C   0  0  0  0  0  0  0  0  0  0  0  0
   -0.7383    3.5118   -0.2491 O   0  0  0  0  0  0  0  0  0  0  0  0
    1.3553    2.7250   -0.5142 O   0  0  0  0  0  0  0  0  0  0  0  0
    1.5384    3.6673   -0.3689 H   0  0  0  0  0  0  0  0  0  0  0  0
  1  6  1  0  0  0  0
  2  1  2  0  0  0  0
  2  3  1  0  0  0  0
  3  4  2  0  0  0  0
  4  5  1  0  0  0  0
  4 12  1  0  0  0  0
  5  8  1  0  0  0  0
  6 11  1  0  0  0  0
  6  5  2  0  0  0  0
  7  1  1  0  0  0  0
  9  3  1  0  0  0  0
 10  9  1  0  0  0  0
 12 13  2  0  0  0  0
 14 12  1  0  0  0  0
 14 15  1  0  0  0  0
M  RAD  3   2   2   9   2  10   3
M  END
