Coordinates from ORCA-job 2-HOOC-C6H3-N2-B3LYPG-aug-cc-pVDZ-scan-d09-49-n400
 OpenBabel11091809063D

 15 14  0  0  0  0  0  0  0  0999 V2000
   -1.8898   -1.5025   -1.0543 C   0  0  0  0  0  0  0  0  0  0  0  0
   -0.5564   -1.1255   -1.0958 C   0  0  0  0  0  0  0  0  0  0  0  0
   -0.0801    0.0205   -0.9325 C   0  0  0  0  0  0  0  0  0  0  0  0
   -0.8011    1.1806   -0.6690 C   0  0  0  0  0  0  0  0  0  0  0  0
   -2.1922    0.9099   -0.6038 C   0  0  0  0  0  0  0  0  0  0  0  0
   -2.7141   -0.3801   -0.7891 C   0  0  0  0  0  0  0  0  0  0  0  0
   -2.2940   -2.5029   -1.1980 H   0  0  0  0  0  0  0  0  0  0  0  0
   -2.8617    1.7466   -0.4017 H   0  0  0  0  0  0  0  0  0  0  0  0
    4.7259    0.1544   -0.4721 N   0  0  0  0  0  0  0  0  0  0  0  0
    5.0291    0.1412   -1.5340 N   0  0  0  0  0  0  0  0  0  0  0  0
   -3.7935   -0.5293   -0.7276 H   0  0  0  0  0  0  0  0  0  0  0  0
   -0.2720    2.5517   -0.4701 C   0  0  0  0  0  0  0  0  0  0  0  0
   -0.9539    3.5298   -0.2423 O   0  0  0  0  0  0  0  0  0  0  0  0
    1.0789    2.6012   -0.5711 O   0  0  0  0  0  0  0  0  0  0  0  0
    1.3334    3.5270   -0.4279 H   0  0  0  0  0  0  0  0  0  0  0  0
  1  6  1  0  0  0  0
  2  1  2  0  0  0  0
  2  3  1  0  0  0  0
  3  4  2  0  0  0  0
  4  5  1  0  0  0  0
  4 12  1  0  0  0  0
  5  8  1  0  0  0  0
  6 11  1  0  0  0  0
  6  5  2  0  0  0  0
  7  1  1  0  0  0  0
 10  9  3  0  0  0  0
 12 13  2  0  0  0  0
 14 12  1  0  0  0  0
 14 15  1  0  0  0  0
M  RAD  2   2   2   3   2
M  END
