Coordinates from ORCA-job 2-HOOC-C6H3-N2-B3LYPG-aug-cc-pVDZ-scan-d09-49-n400
 OpenBabel11091809063D

 15 14  0  0  0  0  0  0  0  0999 V2000
   -1.5084   -1.5181   -1.0767 C   0  0  0  0  0  0  0  0  0  0  0  0
   -0.1715   -1.1362   -1.0633 C   0  0  0  0  0  0  0  0  0  0  0  0
    0.2528    0.0311   -0.8830 C   0  0  0  0  0  0  0  0  0  0  0  0
   -0.4934    1.1797   -0.6388 C   0  0  0  0  0  0  0  0  0  0  0  0
   -1.8795    0.8738   -0.6117 C   0  0  0  0  0  0  0  0  0  0  0  0
   -2.3683   -0.4245   -0.8213 C   0  0  0  0  0  0  0  0  0  0  0  0
   -1.8889   -2.5241   -1.2495 H   0  0  0  0  0  0  0  0  0  0  0  0
   -2.5705    1.6970   -0.4292 H   0  0  0  0  0  0  0  0  0  0  0  0
    2.5628    0.1977   -0.5976 N   0  0  0  0  0  0  0  0  0  0  0  0
    3.3692    0.0037   -1.3296 N   0  0  0  0  0  0  0  0  0  0  0  0
   -3.4455   -0.5965   -0.7871 H   0  0  0  0  0  0  0  0  0  0  0  0
   -0.0498    2.5841   -0.4462 C   0  0  0  0  0  0  0  0  0  0  0  0
   -0.7937    3.5028   -0.1700 O   0  0  0  0  0  0  0  0  0  0  0  0
    1.2848    2.7539   -0.6147 O   0  0  0  0  0  0  0  0  0  0  0  0
    1.4585    3.6983   -0.4706 H   0  0  0  0  0  0  0  0  0  0  0  0
  1  2  2  0  0  0  0
  1  6  1  0  0  0  0
  2  3  1  0  0  0  0
  3  4  2  0  0  0  0
  4  5  1  0  0  0  0
  4 12  1  0  0  0  0
  5  8  1  0  0  0  0
  6 11  1  0  0  0  0
  6  5  2  0  0  0  0
  7  1  1  0  0  0  0
 10  9  3  0  0  0  0
 12 13  2  0  0  0  0
 14 15  1  0  0  0  0
 14 12  1  0  0  0  0
M  RAD  2   2   2   3   2
M  END
