Coordinates from ORCA-job 2-HOOC-C6H3-N2-B3LYPG-aug-cc-pVDZ-scan-d09-49-n400
 OpenBabel11091809063D

 15 14  0  0  0  0  0  0  0  0999 V2000
   -1.4334   -1.5006   -1.0518 C   0  0  0  0  0  0  0  0  0  0  0  0
   -0.0635   -1.1861   -1.0843 C   0  0  0  0  0  0  0  0  0  0  0  0
    0.2802    0.0279   -0.9005 C   0  0  0  0  0  0  0  0  0  0  0  0
   -0.4506    1.1858   -0.6583 C   0  0  0  0  0  0  0  0  0  0  0  0
   -1.8327    0.8805   -0.6232 C   0  0  0  0  0  0  0  0  0  0  0  0
   -2.3093   -0.4253   -0.8144 C   0  0  0  0  0  0  0  0  0  0  0  0
   -1.8224   -2.5101   -1.1986 H   0  0  0  0  0  0  0  0  0  0  0  0
   -2.5226    1.7035   -0.4404 H   0  0  0  0  0  0  0  0  0  0  0  0
    2.1911    0.3080   -0.9725 N   0  0  0  0  0  0  0  0  0  0  0  0
    3.1696   -0.1895   -1.1256 N   0  0  0  0  0  0  0  0  0  0  0  0
   -3.3855   -0.6040   -0.7769 H   0  0  0  0  0  0  0  0  0  0  0  0
   -0.0299    2.5964   -0.4460 C   0  0  0  0  0  0  0  0  0  0  0  0
   -0.8018    3.5105   -0.2437 O   0  0  0  0  0  0  0  0  0  0  0  0
    1.3128    2.7884   -0.5015 O   0  0  0  0  0  0  0  0  0  0  0  0
    1.4565    3.7373   -0.3514 H   0  0  0  0  0  0  0  0  0  0  0  0
  1  6  1  0  0  0  0
  2  1  2  0  0  0  0
  2  3  1  0  0  0  0
  3  4  2  0  0  0  0
  4  5  1  0  0  0  0
  4 12  1  0  0  0  0
  5  8  1  0  0  0  0
  6 11  1  0  0  0  0
  6  5  2  0  0  0  0
  7  1  1  0  0  0  0
 10  9  3  0  0  0  0
 12 13  2  0  0  0  0
 14 12  1  0  0  0  0
 14 15  1  0  0  0  0
M  RAD  2   2   2   3   2
M  END
