Coordinates from ORCA-job 2-HOOC-C6H3-N2-B3LYPG-aug-cc-pVDZ-scan-d09-49-n400
 OpenBabel11091809063D

 15 15  0  0  0  0  0  0  0  0999 V2000
   -1.4109   -1.4898   -1.0511 C   0  0  0  0  0  0  0  0  0  0  0  0
   -0.0267   -1.2114   -1.0922 C   0  0  0  0  0  0  0  0  0  0  0  0
    0.2929    0.0260   -0.9032 C   0  0  0  0  0  0  0  0  0  0  0  0
   -0.4475    1.1820   -0.6605 C   0  0  0  0  0  0  0  0  0  0  0  0
   -1.8260    0.8838   -0.6232 C   0  0  0  0  0  0  0  0  0  0  0  0
   -2.2952   -0.4252   -0.8148 C   0  0  0  0  0  0  0  0  0  0  0  0
   -1.8044   -2.4988   -1.1968 H   0  0  0  0  0  0  0  0  0  0  0  0
   -2.5162    1.7061   -0.4402 H   0  0  0  0  0  0  0  0  0  0  0  0
    2.0638    0.2937   -0.9706 N   0  0  0  0  0  0  0  0  0  0  0  0
    3.0851   -0.1178   -1.1045 N   0  0  0  0  0  0  0  0  0  0  0  0
   -3.3704   -0.6104   -0.7777 H   0  0  0  0  0  0  0  0  0  0  0  0
   -0.0184    2.5894   -0.4497 C   0  0  0  0  0  0  0  0  0  0  0  0
   -0.7791    3.5115   -0.2453 O   0  0  0  0  0  0  0  0  0  0  0  0
    1.3283    2.7683   -0.5050 O   0  0  0  0  0  0  0  0  0  0  0  0
    1.4834    3.7153   -0.3546 H   0  0  0  0  0  0  0  0  0  0  0  0
  1  6  1  0  0  0  0
  2  1  2  0  0  0  0
  2  3  1  0  0  0  0
  3  4  2  0  0  0  0
  4  5  1  0  0  0  0
  4 12  1  0  0  0  0
  5  8  1  0  0  0  0
  6 11  1  0  0  0  0
  6  5  2  0  0  0  0
  7  1  1  0  0  0  0
  9  3  1  0  0  0  0
 10  9  2  0  0  0  0
 12 13  2  0  0  0  0
 14 12  1  0  0  0  0
 14 15  1  0  0  0  0
M  RAD  2   2   2  10   2
M  END
