Coordinates from ORCA-job 2-HOOC-C6H3-N2-B3LYPG-aug-cc-pVDZ-scan-d09-49-n400
 OpenBabel11091809063D

 15 15  0  0  0  0  0  0  0  0999 V2000
   -1.3914   -1.4757   -1.0496 C   0  0  0  0  0  0  0  0  0  0  0  0
    0.0126   -1.2534   -1.1014 C   0  0  0  0  0  0  0  0  0  0  0  0
    0.3141    0.0263   -0.9046 C   0  0  0  0  0  0  0  0  0  0  0  0
   -0.4534    1.1783   -0.6613 C   0  0  0  0  0  0  0  0  0  0  0  0
   -1.8245    0.8912   -0.6225 C   0  0  0  0  0  0  0  0  0  0  0  0
   -2.2839   -0.4237   -0.8152 C   0  0  0  0  0  0  0  0  0  0  0  0
   -1.7943   -2.4824   -1.1938 H   0  0  0  0  0  0  0  0  0  0  0  0
   -2.5162    1.7117   -0.4399 H   0  0  0  0  0  0  0  0  0  0  0  0
    1.9391    0.2512   -0.9701 N   0  0  0  0  0  0  0  0  0  0  0  0
    3.0168    0.0088   -1.0797 N   0  0  0  0  0  0  0  0  0  0  0  0
   -3.3583   -0.6158   -0.7793 H   0  0  0  0  0  0  0  0  0  0  0  0
   -0.0108    2.5800   -0.4529 C   0  0  0  0  0  0  0  0  0  0  0  0
   -0.7524    3.5159   -0.2460 O   0  0  0  0  0  0  0  0  0  0  0  0
    1.3418    2.7336   -0.5111 O   0  0  0  0  0  0  0  0  0  0  0  0
    1.5193    3.6766   -0.3619 H   0  0  0  0  0  0  0  0  0  0  0  0
  1  6  1  0  0  0  0
  2  1  2  0  0  0  0
  2  3  1  0  0  0  0
  3  4  2  0  0  0  0
  4  5  1  0  0  0  0
  4 12  1  0  0  0  0
  5  8  1  0  0  0  0
  6 11  1  0  0  0  0
  6  5  2  0  0  0  0
  7  1  1  0  0  0  0
  9  3  1  0  0  0  0
 10  9  1  0  0  0  0
 12 13  2  0  0  0  0
 14 12  1  0  0  0  0
 14 15  1  0  0  0  0
M  RAD  3   2   2   9   2  10   3
M  END
