Coordinates from ORCA-job 2-HOOC-C6H3-N2-B3LYPG-aug-cc-pVDZ-scan-d09-49-n400
 OpenBabel11091809063D

 15 14  0  0  0  0  0  0  0  0999 V2000
   -1.5211   -1.5165   -1.0834 C   0  0  0  0  0  0  0  0  0  0  0  0
   -0.1884   -1.1241   -1.0840 C   0  0  0  0  0  0  0  0  0  0  0  0
    0.2407    0.0399   -0.9021 C   0  0  0  0  0  0  0  0  0  0  0  0
   -0.5081    1.1840   -0.6449 C   0  0  0  0  0  0  0  0  0  0  0  0
   -1.8931    0.8743   -0.6048 C   0  0  0  0  0  0  0  0  0  0  0  0
   -2.3804   -0.4247   -0.8145 C   0  0  0  0  0  0  0  0  0  0  0  0
   -1.8996   -2.5231   -1.2561 H   0  0  0  0  0  0  0  0  0  0  0  0
   -2.5850    1.6942   -0.4106 H   0  0  0  0  0  0  0  0  0  0  0  0
    2.6386    0.1821   -0.5783 N   0  0  0  0  0  0  0  0  0  0  0  0
    3.4434    0.0010   -1.3146 N   0  0  0  0  0  0  0  0  0  0  0  0
   -3.4567   -0.6001   -0.7706 H   0  0  0  0  0  0  0  0  0  0  0  0
   -0.0599    2.5859   -0.4487 C   0  0  0  0  0  0  0  0  0  0  0  0
   -0.8000    3.5080   -0.1732 O   0  0  0  0  0  0  0  0  0  0  0  0
    1.2746    2.7491   -0.6232 O   0  0  0  0  0  0  0  0  0  0  0  0
    1.4537    3.6927   -0.4804 H   0  0  0  0  0  0  0  0  0  0  0  0
  1  6  1  0  0  0  0
  2  1  2  0  0  0  0
  2  3  1  0  0  0  0
  3  4  2  0  0  0  0
  4  5  1  0  0  0  0
  4 12  1  0  0  0  0
  5  8  1  0  0  0  0
  6 11  1  0  0  0  0
  6  5  2  0  0  0  0
  7  1  1  0  0  0  0
 10  9  3  0  0  0  0
 12 13  2  0  0  0  0
 14 15  1  0  0  0  0
 14 12  1  0  0  0  0
M  RAD  2   2   2   3   2
M  END
