Coordinates from ORCA-job 2-HOOC-C6H3-N2-B3LYPG-aug-cc-pVDZ-scan-d09-49-n400
 OpenBabel11091809063D

 15 15  0  0  0  0  0  0  0  0999 V2000
   -1.3501   -1.4878   -0.8607 C   0  0  0  0  0  0  0  0  0  0  0  0
    0.0445   -1.3683   -1.0404 C   0  0  0  0  0  0  0  0  0  0  0  0
    0.5352    0.0550   -0.9761 C   0  0  0  0  0  0  0  0  0  0  0  0
   -0.4026    1.1631   -0.7229 C   0  0  0  0  0  0  0  0  0  0  0  0
   -1.7543    0.9076   -0.7599 C   0  0  0  0  0  0  0  0  0  0  0  0
   -2.2363   -0.4144   -0.8713 C   0  0  0  0  0  0  0  0  0  0  0  0
   -1.7556   -2.5017   -0.7938 H   0  0  0  0  0  0  0  0  0  0  0  0
   -2.4411    1.7437   -0.6410 H   0  0  0  0  0  0  0  0  0  0  0  0
    1.5450    0.1954   -1.1833 N   0  0  0  0  0  0  0  0  0  0  0  0
    2.6597    0.2886   -1.4266 N   0  0  0  0  0  0  0  0  0  0  0  0
   -3.3142   -0.5819   -0.9244 H   0  0  0  0  0  0  0  0  0  0  0  0
    0.0328    2.5593   -0.4309 C   0  0  0  0  0  0  0  0  0  0  0  0
   -0.7078    3.5194   -0.4268 O   0  0  0  0  0  0  0  0  0  0  0  0
    1.3578    2.6546   -0.1555 O   0  0  0  0  0  0  0  0  0  0  0  0
    1.5455    3.5902    0.0244 H   0  0  0  0  0  0  0  0  0  0  0  0
  1  7  1  0  0  0  0
  2  3  2  0  0  0  0
  2  1  1  0  0  0  0
  3  4  1  0  0  0  0
  4 12  1  0  0  0  0
  5  4  2  0  0  0  0
  5  8  1  0  0  0  0
  6  1  2  0  0  0  0
  6  5  1  0  0  0  0
  9  3  1  0  0  0  0
 10  9  1  0  0  0  0
 11  6  1  0  0  0  0
 12 13  2  0  0  0  0
 12 14  1  0  0  0  0
 14 15  1  0  0  0  0
M  RAD  3   2   2   9   2  10   3
M  END
