Coordinates from ORCA-job 2-HOOC-C6H3-N2-B3LYPG-aug-cc-pVDZ-scan-d09-49-n400
 OpenBabel11091809063D

 15 15  0  0  0  0  0  0  0  0999 V2000
   -1.3811   -1.4741   -1.0494 C   0  0  0  0  0  0  0  0  0  0  0  0
    0.0373   -1.3157   -1.1129 C   0  0  0  0  0  0  0  0  0  0  0  0
    0.3907    0.0251   -0.9092 C   0  0  0  0  0  0  0  0  0  0  0  0
   -0.4376    1.1695   -0.6633 C   0  0  0  0  0  0  0  0  0  0  0  0
   -1.7964    0.8966   -0.6236 C   0  0  0  0  0  0  0  0  0  0  0  0
   -2.2630   -0.4227   -0.8168 C   0  0  0  0  0  0  0  0  0  0  0  0
   -1.8017   -2.4743   -1.1908 H   0  0  0  0  0  0  0  0  0  0  0  0
   -2.4872    1.7177   -0.4413 H   0  0  0  0  0  0  0  0  0  0  0  0
    1.7831    0.1688   -0.9746 N   0  0  0  0  0  0  0  0  0  0  0  0
    2.8954    0.1609   -1.0490 N   0  0  0  0  0  0  0  0  0  0  0  0
   -3.3396   -0.6051   -0.7798 H   0  0  0  0  0  0  0  0  0  0  0  0
    0.0026    2.5742   -0.4533 C   0  0  0  0  0  0  0  0  0  0  0  0
   -0.7385    3.5110   -0.2496 O   0  0  0  0  0  0  0  0  0  0  0  0
    1.3557    2.7244   -0.5116 O   0  0  0  0  0  0  0  0  0  0  0  0
    1.5389    3.6663   -0.3641 H   0  0  0  0  0  0  0  0  0  0  0  0
  1  6  1  0  0  0  0
  2  1  2  0  0  0  0
  2  3  1  0  0  0  0
  3  4  2  0  0  0  0
  4  5  1  0  0  0  0
  4 12  1  0  0  0  0
  5  8  1  0  0  0  0
  6 11  1  0  0  0  0
  6  5  2  0  0  0  0
  7  1  1  0  0  0  0
  9  3  1  0  0  0  0
 10  9  1  0  0  0  0
 12 13  2  0  0  0  0
 14 12  1  0  0  0  0
 14 15  1  0  0  0  0
M  RAD  3   2   2   9   2  10   3
M  END
