Coordinates from ORCA-job 2-HOOC-C6H3-N2-B3LYPG-aug-cc-pVDZ-scan-d09-49-n400
 OpenBabel11091809063D

 15 14  0  0  0  0  0  0  0  0999 V2000
   -1.5907   -1.5126   -1.0523 C   0  0  0  0  0  0  0  0  0  0  0  0
   -0.2646   -1.1030   -1.0487 C   0  0  0  0  0  0  0  0  0  0  0  0
    0.1648    0.0610   -0.8808 C   0  0  0  0  0  0  0  0  0  0  0  0
   -0.5954    1.2026   -0.6497 C   0  0  0  0  0  0  0  0  0  0  0  0
   -1.9791    0.8899   -0.6244 C   0  0  0  0  0  0  0  0  0  0  0  0
   -2.4563   -0.4158   -0.8184 C   0  0  0  0  0  0  0  0  0  0  0  0
   -1.9618   -2.5243   -1.2066 H   0  0  0  0  0  0  0  0  0  0  0  0
   -2.6786    1.7081   -0.4501 H   0  0  0  0  0  0  0  0  0  0  0  0
    3.1449    0.0962   -0.5825 N   0  0  0  0  0  0  0  0  0  0  0  0
    3.8299    0.0243   -1.4463 N   0  0  0  0  0  0  0  0  0  0  0  0
   -3.5321   -0.5969   -0.7899 H   0  0  0  0  0  0  0  0  0  0  0  0
   -0.1249    2.5956   -0.4523 C   0  0  0  0  0  0  0  0  0  0  0  0
   -0.8507    3.5428   -0.2299 O   0  0  0  0  0  0  0  0  0  0  0  0
    1.2226    2.7086   -0.5498 O   0  0  0  0  0  0  0  0  0  0  0  0
    1.4307    3.6461   -0.4076 H   0  0  0  0  0  0  0  0  0  0  0  0
  1  2  2  0  0  0  0
  1  6  1  0  0  0  0
  2  3  1  0  0  0  0
  3  4  2  0  0  0  0
  4  5  1  0  0  0  0
  4 12  1  0  0  0  0
  5  8  1  0  0  0  0
  6 11  1  0  0  0  0
  6  5  2  0  0  0  0
  7  1  1  0  0  0  0
 10  9  3  0  0  0  0
 12 13  2  0  0  0  0
 14 12  1  0  0  0  0
 14 15  1  0  0  0  0
M  RAD  2   2   2   3   2
M  END
