Coordinates from ORCA-job 2-HOOC-C6H3-N2-B3LYPG-aug-cc-pVDZ-scan-d09-49-n400
 OpenBabel11091809063D

 15 14  0  0  0  0  0  0  0  0999 V2000
   -1.5936   -1.5124   -1.0515 C   0  0  0  0  0  0  0  0  0  0  0  0
   -0.2676   -1.1030   -1.0479 C   0  0  0  0  0  0  0  0  0  0  0  0
    0.1619    0.0610   -0.8801 C   0  0  0  0  0  0  0  0  0  0  0  0
   -0.5981    1.2028   -0.6496 C   0  0  0  0  0  0  0  0  0  0  0  0
   -1.9819    0.8903   -0.6248 C   0  0  0  0  0  0  0  0  0  0  0  0
   -2.4592   -0.4154   -0.8185 C   0  0  0  0  0  0  0  0  0  0  0  0
   -1.9649   -2.5242   -1.2055 H   0  0  0  0  0  0  0  0  0  0  0  0
   -2.6813    1.7087   -0.4510 H   0  0  0  0  0  0  0  0  0  0  0  0
    3.1624    0.0949   -0.5834 N   0  0  0  0  0  0  0  0  0  0  0  0
    3.8452    0.0250   -1.4490 N   0  0  0  0  0  0  0  0  0  0  0  0
   -3.5350   -0.5963   -0.7903 H   0  0  0  0  0  0  0  0  0  0  0  0
   -0.1269    2.5955   -0.4522 C   0  0  0  0  0  0  0  0  0  0  0  0
   -0.8524    3.5433   -0.2310 O   0  0  0  0  0  0  0  0  0  0  0  0
    1.2207    2.7075   -0.5483 O   0  0  0  0  0  0  0  0  0  0  0  0
    1.4293    3.6450   -0.4062 H   0  0  0  0  0  0  0  0  0  0  0  0
  1  2  2  0  0  0  0
  1  6  1  0  0  0  0
  2  3  1  0  0  0  0
  3  4  2  0  0  0  0
  4  5  1  0  0  0  0
  4 12  1  0  0  0  0
  5  8  1  0  0  0  0
  6 11  1  0  0  0  0
  6  5  2  0  0  0  0
  7  1  1  0  0  0  0
 10  9  3  0  0  0  0
 12 13  2  0  0  0  0
 14 12  1  0  0  0  0
 14 15  1  0  0  0  0
M  RAD  2   2   2   3   2
M  END
