Coordinates from ORCA-job 2-HOOC-C6H3-N2-B3LYPG-aug-cc-pVDZ-scan-d09-49-n400
 OpenBabel11091809063D

 15 14  0  0  0  0  0  0  0  0999 V2000
   -1.5431   -1.5141   -1.0738 C   0  0  0  0  0  0  0  0  0  0  0  0
   -0.2135   -1.1121   -1.0738 C   0  0  0  0  0  0  0  0  0  0  0  0
    0.2114    0.0533   -0.8984 C   0  0  0  0  0  0  0  0  0  0  0  0
   -0.5430    1.1945   -0.6473 C   0  0  0  0  0  0  0  0  0  0  0  0
   -1.9265    0.8801   -0.6094 C   0  0  0  0  0  0  0  0  0  0  0  0
   -2.4067   -0.4227   -0.8145 C   0  0  0  0  0  0  0  0  0  0  0  0
   -1.9171   -2.5230   -1.2412 H   0  0  0  0  0  0  0  0  0  0  0  0
   -2.6232    1.6972   -0.4199 H   0  0  0  0  0  0  0  0  0  0  0  0
    2.8143    0.1405   -0.5754 N   0  0  0  0  0  0  0  0  0  0  0  0
    3.5845    0.0110   -1.3578 N   0  0  0  0  0  0  0  0  0  0  0  0
   -3.4823   -0.6033   -0.7753 H   0  0  0  0  0  0  0  0  0  0  0  0
   -0.0848    2.5923   -0.4507 C   0  0  0  0  0  0  0  0  0  0  0  0
   -0.8172    3.5253   -0.1928 O   0  0  0  0  0  0  0  0  0  0  0  0
    1.2551    2.7318   -0.6010 O   0  0  0  0  0  0  0  0  0  0  0  0
    1.4508    3.6720   -0.4579 H   0  0  0  0  0  0  0  0  0  0  0  0
  1  6  1  0  0  0  0
  2  1  2  0  0  0  0
  2  3  1  0  0  0  0
  3  4  2  0  0  0  0
  4  5  1  0  0  0  0
  4 12  1  0  0  0  0
  5  8  1  0  0  0  0
  6 11  1  0  0  0  0
  6  5  2  0  0  0  0
  7  1  1  0  0  0  0
 10  9  3  0  0  0  0
 12 13  2  0  0  0  0
 14 15  1  0  0  0  0
 14 12  1  0  0  0  0
M  RAD  2   2   2   3   2
M  END
