Coordinates from ORCA-job 2-HOOC-C6H3-N2-B3LYPG-aug-cc-pVDZ-scan-d09-49-n400
 OpenBabel11091809063D

 15 14  0  0  0  0  0  0  0  0999 V2000
   -1.5468   -1.5141   -1.0721 C   0  0  0  0  0  0  0  0  0  0  0  0
   -0.2179   -1.1105   -1.0724 C   0  0  0  0  0  0  0  0  0  0  0  0
    0.2081    0.0544   -0.8975 C   0  0  0  0  0  0  0  0  0  0  0  0
   -0.5474    1.1954   -0.6479 C   0  0  0  0  0  0  0  0  0  0  0  0
   -1.9309    0.8808   -0.6106 C   0  0  0  0  0  0  0  0  0  0  0  0
   -2.4106   -0.4222   -0.8146 C   0  0  0  0  0  0  0  0  0  0  0  0
   -1.9203   -2.5233   -1.2382 H   0  0  0  0  0  0  0  0  0  0  0  0
   -2.6279    1.6978   -0.4220 H   0  0  0  0  0  0  0  0  0  0  0  0
    2.8416    0.1375   -0.5754 N   0  0  0  0  0  0  0  0  0  0  0  0
    3.6039    0.0105   -1.3658 N   0  0  0  0  0  0  0  0  0  0  0  0
   -3.4862   -0.6031   -0.7760 H   0  0  0  0  0  0  0  0  0  0  0  0
   -0.0883    2.5928   -0.4510 C   0  0  0  0  0  0  0  0  0  0  0  0
   -0.8204    3.5272   -0.1974 O   0  0  0  0  0  0  0  0  0  0  0  0
    1.2525    2.7297   -0.5956 O   0  0  0  0  0  0  0  0  0  0  0  0
    1.4495    3.6697   -0.4528 H   0  0  0  0  0  0  0  0  0  0  0  0
  1  6  1  0  0  0  0
  2  1  2  0  0  0  0
  2  3  1  0  0  0  0
  3  4  2  0  0  0  0
  4  5  1  0  0  0  0
  4 12  1  0  0  0  0
  5  8  1  0  0  0  0
  6 11  1  0  0  0  0
  6  5  2  0  0  0  0
  7  1  1  0  0  0  0
 10  9  3  0  0  0  0
 12 13  2  0  0  0  0
 14 15  1  0  0  0  0
 14 12  1  0  0  0  0
M  RAD  2   2   2   3   2
M  END
