Coordinates from ORCA-job 2-HOOC-C6H3-N2-B3LYPG-aug-cc-pVDZ-scan-d09-49-n400
 OpenBabel11091809063D

 15 14  0  0  0  0  0  0  0  0999 V2000
   -1.6552   -1.5114   -1.0470 C   0  0  0  0  0  0  0  0  0  0  0  0
   -0.3271   -1.1089   -1.0521 C   0  0  0  0  0  0  0  0  0  0  0  0
    0.1080    0.0533   -0.8865 C   0  0  0  0  0  0  0  0  0  0  0  0
   -0.6424    1.2001   -0.6539 C   0  0  0  0  0  0  0  0  0  0  0  0
   -2.0283    0.8956   -0.6243 C   0  0  0  0  0  0  0  0  0  0  0  0
   -2.5133   -0.4079   -0.8135 C   0  0  0  0  0  0  0  0  0  0  0  0
   -2.0331   -2.5215   -1.1955 H   0  0  0  0  0  0  0  0  0  0  0  0
   -2.7228    1.7178   -0.4486 H   0  0  0  0  0  0  0  0  0  0  0  0
    3.4699    0.1024   -0.5801 N   0  0  0  0  0  0  0  0  0  0  0  0
    4.1205    0.0537   -1.4715 N   0  0  0  0  0  0  0  0  0  0  0  0
   -3.5900   -0.5826   -0.7809 H   0  0  0  0  0  0  0  0  0  0  0  0
   -0.1578    2.5880   -0.4559 C   0  0  0  0  0  0  0  0  0  0  0  0
   -0.8741    3.5446   -0.2437 O   0  0  0  0  0  0  0  0  0  0  0  0
    1.1920    2.6822   -0.5389 O   0  0  0  0  0  0  0  0  0  0  0  0
    1.4125    3.6170   -0.3971 H   0  0  0  0  0  0  0  0  0  0  0  0
  1  6  1  0  0  0  0
  2  1  2  0  0  0  0
  2  3  1  0  0  0  0
  3  4  2  0  0  0  0
  4  5  1  0  0  0  0
  4 12  1  0  0  0  0
  5  8  1  0  0  0  0
  6 11  1  0  0  0  0
  6  5  2  0  0  0  0
  7  1  1  0  0  0  0
 10  9  3  0  0  0  0
 12 13  2  0  0  0  0
 14 12  1  0  0  0  0
 14 15  1  0  0  0  0
M  RAD  2   2   2   3   2
M  END
