Coordinates from ORCA-job 2-HOOC-C6H3-N2-B3LYPG-aug-cc-pVDZ-scan-d09-49-n400
 OpenBabel11091809063D

 15 14  0  0  0  0  0  0  0  0999 V2000
   -1.4677   -1.5178   -1.0571 C   0  0  0  0  0  0  0  0  0  0  0  0
   -0.1158   -1.1759   -1.0032 C   0  0  0  0  0  0  0  0  0  0  0  0
    0.2882    0.0083   -0.8313 C   0  0  0  0  0  0  0  0  0  0  0  0
   -0.4531    1.1676   -0.6203 C   0  0  0  0  0  0  0  0  0  0  0  0
   -1.8404    0.8740   -0.6326 C   0  0  0  0  0  0  0  0  0  0  0  0
   -2.3316   -0.4230   -0.8419 C   0  0  0  0  0  0  0  0  0  0  0  0
   -1.8546   -2.5225   -1.2299 H   0  0  0  0  0  0  0  0  0  0  0  0
   -2.5282    1.7060   -0.4825 H   0  0  0  0  0  0  0  0  0  0  0  0
    2.3312    0.2334   -0.6551 N   0  0  0  0  0  0  0  0  0  0  0  0
    3.1527    0.0166   -1.3675 N   0  0  0  0  0  0  0  0  0  0  0  0
   -3.4106   -0.5874   -0.8354 H   0  0  0  0  0  0  0  0  0  0  0  0
   -0.0216    2.5774   -0.4289 C   0  0  0  0  0  0  0  0  0  0  0  0
   -0.7754    3.4892   -0.1583 O   0  0  0  0  0  0  0  0  0  0  0  0
    1.3112    2.7652   -0.5955 O   0  0  0  0  0  0  0  0  0  0  0  0
    1.4743    3.7114   -0.4497 H   0  0  0  0  0  0  0  0  0  0  0  0
  1  2  2  0  0  0  0
  1  6  1  0  0  0  0
  2  3  1  0  0  0  0
  3  4  2  0  0  0  0
  4 12  1  0  0  0  0
  5  4  1  0  0  0  0
  5  8  1  0  0  0  0
  6 11  1  0  0  0  0
  6  5  2  0  0  0  0
  7  1  1  0  0  0  0
 10  9  3  0  0  0  0
 12 13  2  0  0  0  0
 14 15  1  0  0  0  0
 14 12  1  0  0  0  0
M  RAD  2   2   2   3   2
M  END
