Coordinates from ORCA-job 2-HOOC-C6H3-N2-B3LYPG-aug-cc-pVDZ-scan-d09-49-n400
 OpenBabel11091809063D

 15 15  0  0  0  0  0  0  0  0999 V2000
   -1.3828   -1.4726   -1.0502 C   0  0  0  0  0  0  0  0  0  0  0  0
    0.0313   -1.2881   -1.1087 C   0  0  0  0  0  0  0  0  0  0  0  0
    0.3500    0.0268   -0.9064 C   0  0  0  0  0  0  0  0  0  0  0  0
   -0.4484    1.1752   -0.6613 C   0  0  0  0  0  0  0  0  0  0  0  0
   -1.8127    0.8953   -0.6220 C   0  0  0  0  0  0  0  0  0  0  0  0
   -2.2723   -0.4231   -0.8160 C   0  0  0  0  0  0  0  0  0  0  0  0
   -1.7959   -2.4755   -1.1938 H   0  0  0  0  0  0  0  0  0  0  0  0
   -2.5051    1.7150   -0.4392 H   0  0  0  0  0  0  0  0  0  0  0  0
    1.8498    0.2027   -0.9719 N   0  0  0  0  0  0  0  0  0  0  0  0
    2.9531    0.0996   -1.0595 N   0  0  0  0  0  0  0  0  0  0  0  0
   -3.3474   -0.6125   -0.7797 H   0  0  0  0  0  0  0  0  0  0  0  0
   -0.0042    2.5763   -0.4523 C   0  0  0  0  0  0  0  0  0  0  0  0
   -0.7412    3.5160   -0.2468 O   0  0  0  0  0  0  0  0  0  0  0  0
    1.3498    2.7229   -0.5144 O   0  0  0  0  0  0  0  0  0  0  0  0
    1.5347    3.6646   -0.3672 H   0  0  0  0  0  0  0  0  0  0  0  0
  1  6  1  0  0  0  0
  2  1  2  0  0  0  0
  2  3  1  0  0  0  0
  3  4  2  0  0  0  0
  4  5  1  0  0  0  0
  4 12  1  0  0  0  0
  5  8  1  0  0  0  0
  6 11  1  0  0  0  0
  6  5  2  0  0  0  0
  7  1  1  0  0  0  0
  9  3  1  0  0  0  0
 10  9  1  0  0  0  0
 12 13  2  0  0  0  0
 14 12  1  0  0  0  0
 14 15  1  0  0  0  0
M  RAD  3   2   2   9   2  10   3
M  END
