Coordinates from ORCA-job 2-HOOC-C6H3-N2-B3LYPG-aug-cc-pVDZ-scan-d09-49-n400
 OpenBabel11091809063D

 15 14  0  0  0  0  0  0  0  0999 V2000
   -1.5722   -1.5128   -1.0594 C   0  0  0  0  0  0  0  0  0  0  0  0
   -0.2459   -1.1034   -1.0574 C   0  0  0  0  0  0  0  0  0  0  0  0
    0.1823    0.0609   -0.8868 C   0  0  0  0  0  0  0  0  0  0  0  0
   -0.5782    1.2012   -0.6488 C   0  0  0  0  0  0  0  0  0  0  0  0
   -1.9615    0.8866   -0.6193 C   0  0  0  0  0  0  0  0  0  0  0  0
   -2.4383   -0.4186   -0.8170 C   0  0  0  0  0  0  0  0  0  0  0  0
   -1.9430   -2.5241   -1.2181 H   0  0  0  0  0  0  0  0  0  0  0  0
   -2.6609    1.7037   -0.4398 H   0  0  0  0  0  0  0  0  0  0  0  0
    3.0301    0.1096   -0.5777 N   0  0  0  0  0  0  0  0  0  0  0  0
    3.7388    0.0163   -1.4205 N   0  0  0  0  0  0  0  0  0  0  0  0
   -3.5138   -0.6008   -0.7851 H   0  0  0  0  0  0  0  0  0  0  0  0
   -0.1119    2.5957   -0.4513 C   0  0  0  0  0  0  0  0  0  0  0  0
   -0.8399    3.5394   -0.2218 O   0  0  0  0  0  0  0  0  0  0  0  0
    1.2337    2.7154   -0.5637 O   0  0  0  0  0  0  0  0  0  0  0  0
    1.4394    3.6537   -0.4227 H   0  0  0  0  0  0  0  0  0  0  0  0
  1  2  2  0  0  0  0
  1  6  1  0  0  0  0
  2  3  1  0  0  0  0
  3  4  2  0  0  0  0
  4  5  1  0  0  0  0
  4 12  1  0  0  0  0
  5  8  1  0  0  0  0
  6 11  1  0  0  0  0
  6  5  2  0  0  0  0
  7  1  1  0  0  0  0
 10  9  3  0  0  0  0
 12 13  2  0  0  0  0
 14 12  1  0  0  0  0
 14 15  1  0  0  0  0
M  RAD  2   2   2   3   2
M  END
