Coordinates from ORCA-job 2-HOOC-C6H3-N2-B3LYPG-aug-cc-pVDZ-scan-d09-49-n400
 OpenBabel11091809063D

 15 14  0  0  0  0  0  0  0  0999 V2000
   -1.4808   -1.5192   -1.0610 C   0  0  0  0  0  0  0  0  0  0  0  0
   -0.1322   -1.1677   -1.0163 C   0  0  0  0  0  0  0  0  0  0  0  0
    0.2757    0.0115   -0.8416 C   0  0  0  0  0  0  0  0  0  0  0  0
   -0.4633    1.1699   -0.6241 C   0  0  0  0  0  0  0  0  0  0  0  0
   -1.8511    0.8738   -0.6280 C   0  0  0  0  0  0  0  0  0  0  0  0
   -2.3426   -0.4231   -0.8376 C   0  0  0  0  0  0  0  0  0  0  0  0
   -1.8668   -2.5239   -1.2339 H   0  0  0  0  0  0  0  0  0  0  0  0
   -2.5393    1.7044   -0.4709 H   0  0  0  0  0  0  0  0  0  0  0  0
    2.3986    0.2278   -0.6426 N   0  0  0  0  0  0  0  0  0  0  0  0
    3.2161    0.0159   -1.3594 N   0  0  0  0  0  0  0  0  0  0  0  0
   -3.4214   -0.5881   -0.8259 H   0  0  0  0  0  0  0  0  0  0  0  0
   -0.0282    2.5783   -0.4328 C   0  0  0  0  0  0  0  0  0  0  0  0
   -0.7797    3.4908   -0.1580 O   0  0  0  0  0  0  0  0  0  0  0  0
    1.3048    2.7630   -0.6015 O   0  0  0  0  0  0  0  0  0  0  0  0
    1.4688    3.7091   -0.4556 H   0  0  0  0  0  0  0  0  0  0  0  0
  1  2  2  0  0  0  0
  1  6  1  0  0  0  0
  2  3  1  0  0  0  0
  3  4  2  0  0  0  0
  4 12  1  0  0  0  0
  5  4  1  0  0  0  0
  5  8  1  0  0  0  0
  6 11  1  0  0  0  0
  6  5  2  0  0  0  0
  7  1  1  0  0  0  0
 10  9  3  0  0  0  0
 12 13  2  0  0  0  0
 14 15  1  0  0  0  0
 14 12  1  0  0  0  0
M  RAD  2   2   2   3   2
M  END
