Coordinates from ORCA-job 2-HOOC-C6H3-N2-B3LYPG-aug-cc-pVDZ-scan-d09-49-n400
 OpenBabel11091809063D

 15 14  0  0  0  0  0  0  0  0999 V2000
   -1.7255   -1.5100   -1.0479 C   0  0  0  0  0  0  0  0  0  0  0  0
   -0.3949   -1.1169   -1.0654 C   0  0  0  0  0  0  0  0  0  0  0  0
    0.0509    0.0414   -0.9010 C   0  0  0  0  0  0  0  0  0  0  0  0
   -0.6880    1.1935   -0.6591 C   0  0  0  0  0  0  0  0  0  0  0  0
   -2.0760    0.8998   -0.6185 C   0  0  0  0  0  0  0  0  0  0  0  0
   -2.5727   -0.3998   -0.8056 C   0  0  0  0  0  0  0  0  0  0  0  0
   -2.1125   -2.5170   -1.1936 H   0  0  0  0  0  0  0  0  0  0  0  0
   -2.7628    1.7268   -0.4352 H   0  0  0  0  0  0  0  0  0  0  0  0
    3.8018    0.1267   -0.5616 N   0  0  0  0  0  0  0  0  0  0  0  0
    4.4116    0.0889   -1.4819 N   0  0  0  0  0  0  0  0  0  0  0  0
   -3.6505   -0.5659   -0.7638 H   0  0  0  0  0  0  0  0  0  0  0  0
   -0.1878    2.5756   -0.4607 C   0  0  0  0  0  0  0  0  0  0  0  0
   -0.8930    3.5402   -0.2465 O   0  0  0  0  0  0  0  0  0  0  0  0
    1.1628    2.6537   -0.5452 O   0  0  0  0  0  0  0  0  0  0  0  0
    1.3954    3.5855   -0.4032 H   0  0  0  0  0  0  0  0  0  0  0  0
  1  6  1  0  0  0  0
  2  1  2  0  0  0  0
  2  3  1  0  0  0  0
  3  4  2  0  0  0  0
  4  5  1  0  0  0  0
  4 12  1  0  0  0  0
  5  8  1  0  0  0  0
  6 11  1  0  0  0  0
  6  5  2  0  0  0  0
  7  1  1  0  0  0  0
 10  9  3  0  0  0  0
 12 13  2  0  0  0  0
 14 12  1  0  0  0  0
 14 15  1  0  0  0  0
M  RAD  2   2   2   3   2
M  END
