Coordinates from ORCA-job 2-HOOC-C6H3-N2-B3LYPG-aug-cc-pVDZ-scan-d09-49-n400
 OpenBabel11091809063D

 15 14  0  0  0  0  0  0  0  0999 V2000
   -1.8733   -1.5027   -1.0537 C   0  0  0  0  0  0  0  0  0  0  0  0
   -0.5392   -1.1249   -1.0941 C   0  0  0  0  0  0  0  0  0  0  0  0
   -0.0704    0.0244   -0.9304 C   0  0  0  0  0  0  0  0  0  0  0  0
   -0.7923    1.1837   -0.6683 C   0  0  0  0  0  0  0  0  0  0  0  0
   -2.1827    0.9092   -0.6046 C   0  0  0  0  0  0  0  0  0  0  0  0
   -2.7007   -0.3826   -0.7900 C   0  0  0  0  0  0  0  0  0  0  0  0
   -2.2756   -2.5038   -1.1976 H   0  0  0  0  0  0  0  0  0  0  0  0
   -2.8549    1.7441   -0.4038 H   0  0  0  0  0  0  0  0  0  0  0  0
    4.6361    0.1469   -0.4805 N   0  0  0  0  0  0  0  0  0  0  0  0
    4.9811    0.1358   -1.5296 N   0  0  0  0  0  0  0  0  0  0  0  0
   -3.7798   -0.5346   -0.7298 H   0  0  0  0  0  0  0  0  0  0  0  0
   -0.2655    2.5556   -0.4695 C   0  0  0  0  0  0  0  0  0  0  0  0
   -0.9489    3.5328   -0.2431 O   0  0  0  0  0  0  0  0  0  0  0  0
    1.0855    2.6063   -0.5688 O   0  0  0  0  0  0  0  0  0  0  0  0
    1.3394    3.5324   -0.4257 H   0  0  0  0  0  0  0  0  0  0  0  0
  1  6  1  0  0  0  0
  2  1  2  0  0  0  0
  2  3  1  0  0  0  0
  3  4  2  0  0  0  0
  4  5  1  0  0  0  0
  4 12  1  0  0  0  0
  5  8  1  0  0  0  0
  6 11  1  0  0  0  0
  6  5  2  0  0  0  0
  7  1  1  0  0  0  0
 10  9  3  0  0  0  0
 12 13  2  0  0  0  0
 14 12  1  0  0  0  0
 14 15  1  0  0  0  0
M  RAD  2   2   2   3   2
M  END
