Coordinates from ORCA-job 2-HOOC-C6H3-N2-B3LYPG-aug-cc-pVDZ-scan-d09-49-n400
 OpenBabel11091809063D

 15 15  0  0  0  0  0  0  0  0999 V2000
   -1.4066   -1.4867   -1.0515 C   0  0  0  0  0  0  0  0  0  0  0  0
   -0.0185   -1.2191   -1.0943 C   0  0  0  0  0  0  0  0  0  0  0  0
    0.2979    0.0262   -0.9030 C   0  0  0  0  0  0  0  0  0  0  0  0
   -0.4486    1.1810   -0.6596 C   0  0  0  0  0  0  0  0  0  0  0  0
   -1.8257    0.8851   -0.6224 C   0  0  0  0  0  0  0  0  0  0  0  0
   -2.2927   -0.4248   -0.8150 C   0  0  0  0  0  0  0  0  0  0  0  0
   -1.8020   -2.4951   -1.1976 H   0  0  0  0  0  0  0  0  0  0  0  0
   -2.5163    1.7068   -0.4391 H   0  0  0  0  0  0  0  0  0  0  0  0
    2.0390    0.2892   -0.9689 N   0  0  0  0  0  0  0  0  0  0  0  0
    3.0708   -0.0982   -1.0995 N   0  0  0  0  0  0  0  0  0  0  0  0
   -3.3679   -0.6113   -0.7784 H   0  0  0  0  0  0  0  0  0  0  0  0
   -0.0172    2.5871   -0.4482 C   0  0  0  0  0  0  0  0  0  0  0  0
   -0.7743    3.5123   -0.2458 O   0  0  0  0  0  0  0  0  0  0  0  0
    1.3306    2.7618   -0.5072 O   0  0  0  0  0  0  0  0  0  0  0  0
    1.4900    3.7084   -0.3587 H   0  0  0  0  0  0  0  0  0  0  0  0
  1  6  1  0  0  0  0
  2  1  2  0  0  0  0
  2  3  1  0  0  0  0
  3  4  2  0  0  0  0
  4  5  1  0  0  0  0
  4 12  1  0  0  0  0
  5  8  1  0  0  0  0
  6 11  1  0  0  0  0
  6  5  2  0  0  0  0
  7  1  1  0  0  0  0
  9  3  1  0  0  0  0
 10  9  2  0  0  0  0
 12 13  2  0  0  0  0
 14 12  1  0  0  0  0
 14 15  1  0  0  0  0
M  RAD  2   2   2  10   2
M  END
