Coordinates from ORCA-job 2-HOOC-C6H3-N2-B3LYPG-aug-cc-pVDZ-scan-d09-49-n400
 OpenBabel11091809063D

 15 14  0  0  0  0  0  0  0  0999 V2000
   -1.4947   -1.5196   -1.0677 C   0  0  0  0  0  0  0  0  0  0  0  0
   -0.1510   -1.1549   -1.0358 C   0  0  0  0  0  0  0  0  0  0  0  0
    0.2640    0.0182   -0.8571 C   0  0  0  0  0  0  0  0  0  0  0  0
   -0.4759    1.1735   -0.6285 C   0  0  0  0  0  0  0  0  0  0  0  0
   -1.8635    0.8737   -0.6207 C   0  0  0  0  0  0  0  0  0  0  0  0
   -2.3547   -0.4234   -0.8309 C   0  0  0  0  0  0  0  0  0  0  0  0
   -1.8789   -2.5244   -1.2413 H   0  0  0  0  0  0  0  0  0  0  0  0
   -2.5527    1.7015   -0.4529 H   0  0  0  0  0  0  0  0  0  0  0  0
    2.4764    0.2160   -0.6249 N   0  0  0  0  0  0  0  0  0  0  0  0
    3.2888    0.0108   -1.3482 N   0  0  0  0  0  0  0  0  0  0  0  0
   -3.4331   -0.5903   -0.8107 H   0  0  0  0  0  0  0  0  0  0  0  0
   -0.0370    2.5799   -0.4352 C   0  0  0  0  0  0  0  0  0  0  0  0
   -0.7869    3.4957   -0.1662 O   0  0  0  0  0  0  0  0  0  0  0  0
    1.2962    2.7597   -0.6053 O   0  0  0  0  0  0  0  0  0  0  0  0
    1.4616    3.7061   -0.4639 H   0  0  0  0  0  0  0  0  0  0  0  0
  1  2  2  0  0  0  0
  1  6  1  0  0  0  0
  2  3  1  0  0  0  0
  3  4  2  0  0  0  0
  4  5  1  0  0  0  0
  4 12  1  0  0  0  0
  5  8  1  0  0  0  0
  6 11  1  0  0  0  0
  6  5  2  0  0  0  0
  7  1  1  0  0  0  0
 10  9  3  0  0  0  0
 12 13  2  0  0  0  0
 14 15  1  0  0  0  0
 14 12  1  0  0  0  0
M  RAD  2   2   2   3   2
M  END
