Coordinates from ORCA-job 2-HOOC-C6H3-N2-B3LYPG-aug-cc-pVDZ-scan-d09-49-n400
 OpenBabel11091809063D

 15 14  0  0  0  0  0  0  0  0999 V2000
   -1.5361   -1.5146   -1.0772 C   0  0  0  0  0  0  0  0  0  0  0  0
   -0.2055   -1.1152   -1.0775 C   0  0  0  0  0  0  0  0  0  0  0  0
    0.2208    0.0510   -0.9009 C   0  0  0  0  0  0  0  0  0  0  0  0
   -0.5328    1.1928   -0.6475 C   0  0  0  0  0  0  0  0  0  0  0  0
   -1.9166    0.8783   -0.6075 C   0  0  0  0  0  0  0  0  0  0  0  0
   -2.3984   -0.4236   -0.8140 C   0  0  0  0  0  0  0  0  0  0  0  0
   -1.9113   -2.5228   -1.2465 H   0  0  0  0  0  0  0  0  0  0  0  0
   -2.6123    1.6957   -0.4162 H   0  0  0  0  0  0  0  0  0  0  0  0
    2.7622    0.1499   -0.5746 N   0  0  0  0  0  0  0  0  0  0  0  0
    3.5431    0.0055   -1.3432 N   0  0  0  0  0  0  0  0  0  0  0  0
   -3.4741   -0.6032   -0.7730 H   0  0  0  0  0  0  0  0  0  0  0  0
   -0.0788    2.5922   -0.4526 C   0  0  0  0  0  0  0  0  0  0  0  0
   -0.8126    3.5208   -0.1831 O   0  0  0  0  0  0  0  0  0  0  0  0
    1.2591    2.7376   -0.6105 O   0  0  0  0  0  0  0  0  0  0  0  0
    1.4520    3.6780   -0.4652 H   0  0  0  0  0  0  0  0  0  0  0  0
  1  6  1  0  0  0  0
  2  1  2  0  0  0  0
  2  3  1  0  0  0  0
  3  4  2  0  0  0  0
  4  5  1  0  0  0  0
  4 12  1  0  0  0  0
  5  8  1  0  0  0  0
  6 11  1  0  0  0  0
  6  5  2  0  0  0  0
  7  1  1  0  0  0  0
 10  9  3  0  0  0  0
 12 13  2  0  0  0  0
 14 15  1  0  0  0  0
 14 12  1  0  0  0  0
M  RAD  2   2   2   3   2
M  END
