Coordinates from ORCA-job 2-HOOC-C6H3-N2-B3LYPG-aug-cc-pVDZ-scan-d09-49-n400
 OpenBabel11091809063D

 15 14  0  0  0  0  0  0  0  0999 V2000
   -1.7094   -1.5104   -1.0474 C   0  0  0  0  0  0  0  0  0  0  0  0
   -0.3794   -1.1150   -1.0621 C   0  0  0  0  0  0  0  0  0  0  0  0
    0.0639    0.0442   -0.8975 C   0  0  0  0  0  0  0  0  0  0  0  0
   -0.6777    1.1952   -0.6579 C   0  0  0  0  0  0  0  0  0  0  0  0
   -2.0652    0.8989   -0.6201 C   0  0  0  0  0  0  0  0  0  0  0  0
   -2.5591   -0.4017   -0.8075 C   0  0  0  0  0  0  0  0  0  0  0  0
   -2.0943   -2.5181   -1.1935 H   0  0  0  0  0  0  0  0  0  0  0  0
   -2.7538    1.7248   -0.4388 H   0  0  0  0  0  0  0  0  0  0  0  0
    3.7251    0.1208   -0.5669 N   0  0  0  0  0  0  0  0  0  0  0  0
    4.3460    0.0812   -1.4796 N   0  0  0  0  0  0  0  0  0  0  0  0
   -3.6367   -0.5698   -0.7679 H   0  0  0  0  0  0  0  0  0  0  0  0
   -0.1809    2.5785   -0.4596 C   0  0  0  0  0  0  0  0  0  0  0  0
   -0.8887    3.5413   -0.2463 O   0  0  0  0  0  0  0  0  0  0  0  0
    1.1696    2.6601   -0.5430 O   0  0  0  0  0  0  0  0  0  0  0  0
    1.3994    3.5926   -0.4011 H   0  0  0  0  0  0  0  0  0  0  0  0
  1  6  1  0  0  0  0
  2  1  2  0  0  0  0
  2  3  1  0  0  0  0
  3  4  2  0  0  0  0
  4  5  1  0  0  0  0
  4 12  1  0  0  0  0
  5  8  1  0  0  0  0
  6 11  1  0  0  0  0
  6  5  2  0  0  0  0
  7  1  1  0  0  0  0
 10  9  3  0  0  0  0
 12 13  2  0  0  0  0
 14 12  1  0  0  0  0
 14 15  1  0  0  0  0
M  RAD  2   2   2   3   2
M  END
