Coordinates from ORCA-job 2-HOOC-C6H3-N2-B3LYPG-aug-cc-pVDZ-scan-d09-49-n400
 OpenBabel11091809063D

 15 14  0  0  0  0  0  0  0  0999 V2000
   -1.6751   -1.5112   -1.0469 C   0  0  0  0  0  0  0  0  0  0  0  0
   -0.3463   -1.1112   -1.0554 C   0  0  0  0  0  0  0  0  0  0  0  0
    0.0918    0.0499   -0.8902 C   0  0  0  0  0  0  0  0  0  0  0  0
   -0.6553    1.1984   -0.6554 C   0  0  0  0  0  0  0  0  0  0  0  0
   -2.0418    0.8969   -0.6230 C   0  0  0  0  0  0  0  0  0  0  0  0
   -2.5301   -0.4056   -0.8114 C   0  0  0  0  0  0  0  0  0  0  0  0
   -2.0556   -2.5204   -1.1942 H   0  0  0  0  0  0  0  0  0  0  0  0
   -2.7343    1.7205   -0.4456 H   0  0  0  0  0  0  0  0  0  0  0  0
    3.5636    0.1080   -0.5762 N   0  0  0  0  0  0  0  0  0  0  0  0
    4.2043    0.0636   -1.4750 N   0  0  0  0  0  0  0  0  0  0  0  0
   -3.6072   -0.5778   -0.7765 H   0  0  0  0  0  0  0  0  0  0  0  0
   -0.1663    2.5846   -0.4572 C   0  0  0  0  0  0  0  0  0  0  0  0
   -0.8800    3.5434   -0.2450 O   0  0  0  0  0  0  0  0  0  0  0  0
    1.1837    2.6747   -0.5396 O   0  0  0  0  0  0  0  0  0  0  0  0
    1.4072    3.6087   -0.3978 H   0  0  0  0  0  0  0  0  0  0  0  0
  1  6  1  0  0  0  0
  2  1  2  0  0  0  0
  2  3  1  0  0  0  0
  3  4  2  0  0  0  0
  4  5  1  0  0  0  0
  4 12  1  0  0  0  0
  5  8  1  0  0  0  0
  6 11  1  0  0  0  0
  6  5  2  0  0  0  0
  7  1  1  0  0  0  0
 10  9  3  0  0  0  0
 12 13  2  0  0  0  0
 14 12  1  0  0  0  0
 14 15  1  0  0  0  0
M  RAD  2   2   2   3   2
M  END
