Coordinates from ORCA-job 2-HOOC-C6H3-N2-B3LYPG-aug-cc-pVDZ-scan-d09-49-n400
 OpenBabel11091809063D

 15 14  0  0  0  0  0  0  0  0999 V2000
   -1.7344   -1.5097   -1.0482 C   0  0  0  0  0  0  0  0  0  0  0  0
   -0.4034   -1.1179   -1.0672 C   0  0  0  0  0  0  0  0  0  0  0  0
    0.0438    0.0398   -0.9029 C   0  0  0  0  0  0  0  0  0  0  0  0
   -0.6937    1.1926   -0.6597 C   0  0  0  0  0  0  0  0  0  0  0  0
   -2.0819    0.9003   -0.6177 C   0  0  0  0  0  0  0  0  0  0  0  0
   -2.5801   -0.3987   -0.8045 C   0  0  0  0  0  0  0  0  0  0  0  0
   -2.1226   -2.5163   -1.1937 H   0  0  0  0  0  0  0  0  0  0  0  0
   -2.7677    1.7279   -0.4333 H   0  0  0  0  0  0  0  0  0  0  0  0
    3.8445    0.1298   -0.5585 N   0  0  0  0  0  0  0  0  0  0  0  0
    4.4476    0.0929   -1.4832 N   0  0  0  0  0  0  0  0  0  0  0  0
   -3.6581   -0.5638   -0.7615 H   0  0  0  0  0  0  0  0  0  0  0  0
   -0.1917    2.5741   -0.4613 C   0  0  0  0  0  0  0  0  0  0  0  0
   -0.8955    3.5395   -0.2465 O   0  0  0  0  0  0  0  0  0  0  0  0
    1.1589    2.6503   -0.5465 O   0  0  0  0  0  0  0  0  0  0  0  0
    1.3929    3.5818   -0.4045 H   0  0  0  0  0  0  0  0  0  0  0  0
  1  6  1  0  0  0  0
  2  1  2  0  0  0  0
  2  3  1  0  0  0  0
  3  4  2  0  0  0  0
  4  5  1  0  0  0  0
  4 12  1  0  0  0  0
  5  8  1  0  0  0  0
  6 11  1  0  0  0  0
  6  5  2  0  0  0  0
  7  1  1  0  0  0  0
 10  9  3  0  0  0  0
 12 13  2  0  0  0  0
 14 12  1  0  0  0  0
 14 15  1  0  0  0  0
M  RAD  2   2   2   3   2
M  END
