Coordinates from ORCA-job 2-HOOC-C6H3-N2-B3LYPG-aug-cc-pVDZ-scan-d09-49-n400
 OpenBabel11091809063D

 15 14  0  0  0  0  0  0  0  0999 V2000
   -1.7607   -1.5089   -1.0492 C   0  0  0  0  0  0  0  0  0  0  0  0
   -0.4287   -1.1207   -1.0727 C   0  0  0  0  0  0  0  0  0  0  0  0
    0.0229    0.0354   -0.9086 C   0  0  0  0  0  0  0  0  0  0  0  0
   -0.7106    1.1900   -0.6615 C   0  0  0  0  0  0  0  0  0  0  0  0
   -2.0995    0.9018   -0.6150 C   0  0  0  0  0  0  0  0  0  0  0  0
   -2.6023   -0.3956   -0.8014 C   0  0  0  0  0  0  0  0  0  0  0  0
   -2.1522   -2.5142   -1.1942 H   0  0  0  0  0  0  0  0  0  0  0  0
   -2.7822    1.7312   -0.4273 H   0  0  0  0  0  0  0  0  0  0  0  0
    3.9729    0.1386   -0.5489 N   0  0  0  0  0  0  0  0  0  0  0  0
    4.5544    0.1033   -1.4875 N   0  0  0  0  0  0  0  0  0  0  0  0
   -3.6805   -0.5575   -0.7549 H   0  0  0  0  0  0  0  0  0  0  0  0
   -0.2035    2.5695   -0.4630 C   0  0  0  0  0  0  0  0  0  0  0  0
   -0.9034    3.5373   -0.2461 O   0  0  0  0  0  0  0  0  0  0  0  0
    1.1473    2.6409   -0.5507 O   0  0  0  0  0  0  0  0  0  0  0  0
    1.3849    3.5714   -0.4084 H   0  0  0  0  0  0  0  0  0  0  0  0
  1  6  1  0  0  0  0
  2  1  2  0  0  0  0
  2  3  1  0  0  0  0
  3  4  2  0  0  0  0
  4  5  1  0  0  0  0
  4 12  1  0  0  0  0
  5  8  1  0  0  0  0
  6 11  1  0  0  0  0
  6  5  2  0  0  0  0
  7  1  1  0  0  0  0
 10  9  3  0  0  0  0
 12 13  2  0  0  0  0
 14 12  1  0  0  0  0
 14 15  1  0  0  0  0
M  RAD  2   2   2   3   2
M  END
