Coordinates from ORCA-job 2-HOOC-C6H3-N2-B3LYPG-aug-cc-pVDZ-scan-d09-49-n400
 OpenBabel11091809063D

 15 14  0  0  0  0  0  0  0  0999 V2000
   -1.4877   -1.5199   -1.0631 C   0  0  0  0  0  0  0  0  0  0  0  0
   -0.1408   -1.1638   -1.0236 C   0  0  0  0  0  0  0  0  0  0  0  0
    0.2699    0.0128   -0.8478 C   0  0  0  0  0  0  0  0  0  0  0  0
   -0.4680    1.1708   -0.6266 C   0  0  0  0  0  0  0  0  0  0  0  0
   -1.8560    0.8738   -0.6256 C   0  0  0  0  0  0  0  0  0  0  0  0
   -2.3480   -0.4231   -0.8350 C   0  0  0  0  0  0  0  0  0  0  0  0
   -1.8736   -2.5245   -1.2355 H   0  0  0  0  0  0  0  0  0  0  0  0
   -2.5442    1.7037   -0.4648 H   0  0  0  0  0  0  0  0  0  0  0  0
    2.4326    0.2243   -0.6365 N   0  0  0  0  0  0  0  0  0  0  0  0
    3.2484    0.0156   -1.3556 N   0  0  0  0  0  0  0  0  0  0  0  0
   -3.4268   -0.5881   -0.8201 H   0  0  0  0  0  0  0  0  0  0  0  0
   -0.0313    2.5785   -0.4357 C   0  0  0  0  0  0  0  0  0  0  0  0
   -0.7823    3.4915   -0.1604 O   0  0  0  0  0  0  0  0  0  0  0  0
    1.3020    2.7623   -0.6021 O   0  0  0  0  0  0  0  0  0  0  0  0
    1.4644    3.7088   -0.4571 H   0  0  0  0  0  0  0  0  0  0  0  0
  1  2  2  0  0  0  0
  1  6  1  0  0  0  0
  2  3  1  0  0  0  0
  3  4  2  0  0  0  0
  4  5  1  0  0  0  0
  4 12  1  0  0  0  0
  5  8  1  0  0  0  0
  6 11  1  0  0  0  0
  6  5  2  0  0  0  0
  7  1  1  0  0  0  0
 10  9  3  0  0  0  0
 12 13  2  0  0  0  0
 14 15  1  0  0  0  0
 14 12  1  0  0  0  0
M  RAD  2   2   2   3   2
M  END
