Coordinates from ORCA-job 2-HOOC-C6H3-N2-B3LYPG-aug-cc-pVDZ-scan-d09-49-n400
 OpenBabel11091809063D

 15 14  0  0  0  0  0  0  0  0999 V2000
   -1.7572   -1.5090   -1.0491 C   0  0  0  0  0  0  0  0  0  0  0  0
   -0.4253   -1.1204   -1.0719 C   0  0  0  0  0  0  0  0  0  0  0  0
    0.0257    0.0360   -0.9079 C   0  0  0  0  0  0  0  0  0  0  0  0
   -0.7084    1.1904   -0.6612 C   0  0  0  0  0  0  0  0  0  0  0  0
   -2.0972    0.9016   -0.6153 C   0  0  0  0  0  0  0  0  0  0  0  0
   -2.5993   -0.3960   -0.8019 C   0  0  0  0  0  0  0  0  0  0  0  0
   -2.1483   -2.5144   -1.1941 H   0  0  0  0  0  0  0  0  0  0  0  0
   -2.7803    1.7308   -0.4281 H   0  0  0  0  0  0  0  0  0  0  0  0
    3.9558    0.1374   -0.5502 N   0  0  0  0  0  0  0  0  0  0  0  0
    4.5402    0.1021   -1.4869 N   0  0  0  0  0  0  0  0  0  0  0  0
   -3.6776   -0.5584   -0.7558 H   0  0  0  0  0  0  0  0  0  0  0  0
   -0.2019    2.5701   -0.4628 C   0  0  0  0  0  0  0  0  0  0  0  0
   -0.9023    3.5376   -0.2461 O   0  0  0  0  0  0  0  0  0  0  0  0
    1.1489    2.6421   -0.5501 O   0  0  0  0  0  0  0  0  0  0  0  0
    1.3860    3.5727   -0.4079 H   0  0  0  0  0  0  0  0  0  0  0  0
  1  6  1  0  0  0  0
  2  1  2  0  0  0  0
  2  3  1  0  0  0  0
  3  4  2  0  0  0  0
  4  5  1  0  0  0  0
  4 12  1  0  0  0  0
  5  8  1  0  0  0  0
  6 11  1  0  0  0  0
  6  5  2  0  0  0  0
  7  1  1  0  0  0  0
 10  9  3  0  0  0  0
 12 13  2  0  0  0  0
 14 12  1  0  0  0  0
 14 15  1  0  0  0  0
M  RAD  2   2   2   3   2
M  END
