Coordinates from ORCA-job 2-HOOC-C6H3-N2-B3LYPG-aug-cc-pVDZ-scan-d09-49-n400
 OpenBabel11091809063D

 15 15  0  0  0  0  0  0  0  0999 V2000
   -1.4160   -1.4937   -1.0516 C   0  0  0  0  0  0  0  0  0  0  0  0
   -0.0364   -1.2037   -1.0902 C   0  0  0  0  0  0  0  0  0  0  0  0
    0.2924    0.0266   -0.9027 C   0  0  0  0  0  0  0  0  0  0  0  0
   -0.4460    1.1830   -0.6600 C   0  0  0  0  0  0  0  0  0  0  0  0
   -1.8256    0.8824   -0.6233 C   0  0  0  0  0  0  0  0  0  0  0  0
   -2.2973   -0.4254   -0.8148 C   0  0  0  0  0  0  0  0  0  0  0  0
   -1.8084   -2.5028   -1.1975 H   0  0  0  0  0  0  0  0  0  0  0  0
   -2.5159    1.7048   -0.4403 H   0  0  0  0  0  0  0  0  0  0  0  0
    2.0927    0.3008   -0.9708 N   0  0  0  0  0  0  0  0  0  0  0  0
    3.0997   -0.1438   -1.1102 N   0  0  0  0  0  0  0  0  0  0  0  0
   -3.3731   -0.6081   -0.7774 H   0  0  0  0  0  0  0  0  0  0  0  0
   -0.0209    2.5917   -0.4484 C   0  0  0  0  0  0  0  0  0  0  0  0
   -0.7860    3.5107   -0.2452 O   0  0  0  0  0  0  0  0  0  0  0  0
    1.3244    2.7762   -0.5035 O   0  0  0  0  0  0  0  0  0  0  0  0
    1.4750    3.7240   -0.3533 H   0  0  0  0  0  0  0  0  0  0  0  0
  1  6  1  0  0  0  0
  2  1  2  0  0  0  0
  2  3  1  0  0  0  0
  3  4  2  0  0  0  0
  4  5  1  0  0  0  0
  4 12  1  0  0  0  0
  5  8  1  0  0  0  0
  6 11  1  0  0  0  0
  6  5  2  0  0  0  0
  7  1  1  0  0  0  0
  9  3  1  0  0  0  0
 10  9  2  0  0  0  0
 12 13  2  0  0  0  0
 14 12  1  0  0  0  0
 14 15  1  0  0  0  0
M  RAD  2   2   2  10   2
M  END
