Coordinates from ORCA-job 2-HOOC-C6H3-N2-B3LYPG-aug-cc-pVDZ-scan-d09-49-n400
 OpenBabel11091809063D

 15 14  0  0  0  0  0  0  0  0999 V2000
   -1.6769   -1.5111   -1.0469 C   0  0  0  0  0  0  0  0  0  0  0  0
   -0.3480   -1.1114   -1.0557 C   0  0  0  0  0  0  0  0  0  0  0  0
    0.0903    0.0496   -0.8906 C   0  0  0  0  0  0  0  0  0  0  0  0
   -0.6565    1.1982   -0.6555 C   0  0  0  0  0  0  0  0  0  0  0  0
   -2.0431    0.8970   -0.6229 C   0  0  0  0  0  0  0  0  0  0  0  0
   -2.5316   -0.4054   -0.8112 C   0  0  0  0  0  0  0  0  0  0  0  0
   -2.0576   -2.5203   -1.1941 H   0  0  0  0  0  0  0  0  0  0  0  0
   -2.7353    1.7207   -0.4453 H   0  0  0  0  0  0  0  0  0  0  0  0
    3.5721    0.1087   -0.5758 N   0  0  0  0  0  0  0  0  0  0  0  0
    4.2119    0.0645   -1.4752 N   0  0  0  0  0  0  0  0  0  0  0  0
   -3.6088   -0.5774   -0.7760 H   0  0  0  0  0  0  0  0  0  0  0  0
   -0.1671    2.5843   -0.4573 C   0  0  0  0  0  0  0  0  0  0  0  0
   -0.8804    3.5433   -0.2451 O   0  0  0  0  0  0  0  0  0  0  0  0
    1.1829    2.6739   -0.5397 O   0  0  0  0  0  0  0  0  0  0  0  0
    1.4068    3.6079   -0.3979 H   0  0  0  0  0  0  0  0  0  0  0  0
  1  6  1  0  0  0  0
  2  1  2  0  0  0  0
  2  3  1  0  0  0  0
  3  4  2  0  0  0  0
  4  5  1  0  0  0  0
  4 12  1  0  0  0  0
  5  8  1  0  0  0  0
  6 11  1  0  0  0  0
  6  5  2  0  0  0  0
  7  1  1  0  0  0  0
 10  9  3  0  0  0  0
 12 13  2  0  0  0  0
 14 12  1  0  0  0  0
 14 15  1  0  0  0  0
M  RAD  2   2   2   3   2
M  END
