Coordinates from ORCA-job 2-HOOC-C6H3-N2-B3LYPG-aug-cc-pVDZ-scan-d09-49-n400
 OpenBabel11091809063D

 15 15  0  0  0  0  0  0  0  0999 V2000
   -1.3823   -1.4728   -1.0502 C   0  0  0  0  0  0  0  0  0  0  0  0
    0.0329   -1.2933   -1.1096 C   0  0  0  0  0  0  0  0  0  0  0  0
    0.3567    0.0266   -0.9068 C   0  0  0  0  0  0  0  0  0  0  0  0
   -0.4467    1.1744   -0.6615 C   0  0  0  0  0  0  0  0  0  0  0  0
   -1.8100    0.8956   -0.6221 C   0  0  0  0  0  0  0  0  0  0  0  0
   -2.2705   -0.4230   -0.8161 C   0  0  0  0  0  0  0  0  0  0  0  0
   -1.7969   -2.4751   -1.1936 H   0  0  0  0  0  0  0  0  0  0  0  0
   -2.5023    1.7155   -0.4394 H   0  0  0  0  0  0  0  0  0  0  0  0
    1.8372    0.1953   -0.9723 N   0  0  0  0  0  0  0  0  0  0  0  0
    2.9429    0.1123   -1.0569 N   0  0  0  0  0  0  0  0  0  0  0  0
   -3.3459   -0.6114   -0.7797 H   0  0  0  0  0  0  0  0  0  0  0  0
   -0.0030    2.5760   -0.4525 C   0  0  0  0  0  0  0  0  0  0  0  0
   -0.7403    3.5153   -0.2470 O   0  0  0  0  0  0  0  0  0  0  0  0
    1.3509    2.7227   -0.5144 O   0  0  0  0  0  0  0  0  0  0  0  0
    1.5359    3.6644   -0.3672 H   0  0  0  0  0  0  0  0  0  0  0  0
  1  6  1  0  0  0  0
  2  1  2  0  0  0  0
  2  3  1  0  0  0  0
  3  4  2  0  0  0  0
  4  5  1  0  0  0  0
  4 12  1  0  0  0  0
  5  8  1  0  0  0  0
  6 11  1  0  0  0  0
  6  5  2  0  0  0  0
  7  1  1  0  0  0  0
  9  3  1  0  0  0  0
 10  9  1  0  0  0  0
 12 13  2  0  0  0  0
 14 12  1  0  0  0  0
 14 15  1  0  0  0  0
M  RAD  3   2   2   9   2  10   3
M  END
