Coordinates from ORCA-job 2-HOOC-C6H3-N2-B3LYPG-aug-cc-pVDZ-scan-d09-49-n400
 OpenBabel11091809063D

 15 14  0  0  0  0  0  0  0  0999 V2000
   -1.6052   -1.5127   -1.0501 C   0  0  0  0  0  0  0  0  0  0  0  0
   -0.2787   -1.1048   -1.0488 C   0  0  0  0  0  0  0  0  0  0  0  0
    0.1507    0.0593   -0.8817 C   0  0  0  0  0  0  0  0  0  0  0  0
   -0.6060    1.2027   -0.6511 C   0  0  0  0  0  0  0  0  0  0  0  0
   -1.9906    0.8915   -0.6254 C   0  0  0  0  0  0  0  0  0  0  0  0
   -2.4693   -0.4139   -0.8176 C   0  0  0  0  0  0  0  0  0  0  0  0
   -1.9780   -2.5242   -1.2019 H   0  0  0  0  0  0  0  0  0  0  0  0
   -2.6892    1.7106   -0.4516 H   0  0  0  0  0  0  0  0  0  0  0  0
    3.2216    0.0948   -0.5842 N   0  0  0  0  0  0  0  0  0  0  0  0
    3.8987    0.0296   -1.4547 N   0  0  0  0  0  0  0  0  0  0  0  0
   -3.5453   -0.5934   -0.7884 H   0  0  0  0  0  0  0  0  0  0  0  0
   -0.1331    2.5947   -0.4531 C   0  0  0  0  0  0  0  0  0  0  0  0
   -0.8577    3.5438   -0.2351 O   0  0  0  0  0  0  0  0  0  0  0  0
    1.2151    2.7038   -0.5439 O   0  0  0  0  0  0  0  0  0  0  0  0
    1.4257    3.6408   -0.4017 H   0  0  0  0  0  0  0  0  0  0  0  0
  1  2  2  0  0  0  0
  1  6  1  0  0  0  0
  2  3  1  0  0  0  0
  3  4  2  0  0  0  0
  4  5  1  0  0  0  0
  4 12  1  0  0  0  0
  5  8  1  0  0  0  0
  6 11  1  0  0  0  0
  6  5  2  0  0  0  0
  7  1  1  0  0  0  0
 10  9  3  0  0  0  0
 12 13  2  0  0  0  0
 14 12  1  0  0  0  0
 14 15  1  0  0  0  0
M  RAD  2   2   2   3   2
M  END
