Coordinates from ORCA-job 2-HOOC-C6H3-N2-B3LYPG-aug-cc-pVDZ-scan-d09-49-n400
 OpenBabel11091809063D

 15 15  0  0  0  0  0  0  0  0999 V2000
   -1.3503   -1.4877   -0.8607 C   0  0  0  0  0  0  0  0  0  0  0  0
    0.0446   -1.3666   -1.0408 C   0  0  0  0  0  0  0  0  0  0  0  0
    0.5307    0.0531   -0.9753 C   0  0  0  0  0  0  0  0  0  0  0  0
   -0.4029    1.1635   -0.7250 C   0  0  0  0  0  0  0  0  0  0  0  0
   -1.7549    0.9079   -0.7609 C   0  0  0  0  0  0  0  0  0  0  0  0
   -2.2365   -0.4144   -0.8713 C   0  0  0  0  0  0  0  0  0  0  0  0
   -1.7558   -2.5015   -0.7921 H   0  0  0  0  0  0  0  0  0  0  0  0
   -2.4418    1.7439   -0.6416 H   0  0  0  0  0  0  0  0  0  0  0  0
    1.5502    0.1950   -1.1842 N   0  0  0  0  0  0  0  0  0  0  0  0
    2.6630    0.2885   -1.4271 N   0  0  0  0  0  0  0  0  0  0  0  0
   -3.3145   -0.5820   -0.9230 H   0  0  0  0  0  0  0  0  0  0  0  0
    0.0329    2.5596   -0.4341 C   0  0  0  0  0  0  0  0  0  0  0  0
   -0.7081    3.5194   -0.4243 O   0  0  0  0  0  0  0  0  0  0  0  0
    1.3577    2.6544   -0.1561 O   0  0  0  0  0  0  0  0  0  0  0  0
    1.5445    3.5895    0.0271 H   0  0  0  0  0  0  0  0  0  0  0  0
  1  7  1  0  0  0  0
  2  3  2  0  0  0  0
  2  1  1  0  0  0  0
  3  4  1  0  0  0  0
  4 12  1  0  0  0  0
  5  4  2  0  0  0  0
  5  8  1  0  0  0  0
  6  1  2  0  0  0  0
  6  5  1  0  0  0  0
  9  3  1  0  0  0  0
 10  9  1  0  0  0  0
 11  6  1  0  0  0  0
 12 13  2  0  0  0  0
 12 14  1  0  0  0  0
 14 15  1  0  0  0  0
M  RAD  3   2   2   9   2  10   3
M  END
