Coordinates from ORCA-job 2-HOOC-C6H3-N2-B3LYPG-aug-cc-pVDZ-scan-d09-49-n400
 OpenBabel11091809063D

 15 14  0  0  0  0  0  0  0  0999 V2000
   -1.8747   -1.5026   -1.0538 C   0  0  0  0  0  0  0  0  0  0  0  0
   -0.5406   -1.1249   -1.0944 C   0  0  0  0  0  0  0  0  0  0  0  0
   -0.0716    0.0243   -0.9306 C   0  0  0  0  0  0  0  0  0  0  0  0
   -0.7933    1.1836   -0.6683 C   0  0  0  0  0  0  0  0  0  0  0  0
   -2.1838    0.9093   -0.6045 C   0  0  0  0  0  0  0  0  0  0  0  0
   -2.7019   -0.3824   -0.7899 C   0  0  0  0  0  0  0  0  0  0  0  0
   -2.2771   -2.5037   -1.1977 H   0  0  0  0  0  0  0  0  0  0  0  0
   -2.8558    1.7443   -0.4035 H   0  0  0  0  0  0  0  0  0  0  0  0
    4.6449    0.1470   -0.4796 N   0  0  0  0  0  0  0  0  0  0  0  0
    4.9860    0.1359   -1.5300 N   0  0  0  0  0  0  0  0  0  0  0  0
   -3.7810   -0.5344   -0.7295 H   0  0  0  0  0  0  0  0  0  0  0  0
   -0.2663    2.5554   -0.4695 C   0  0  0  0  0  0  0  0  0  0  0  0
   -0.9495    3.5328   -0.2430 O   0  0  0  0  0  0  0  0  0  0  0  0
    1.0847    2.6060   -0.5690 O   0  0  0  0  0  0  0  0  0  0  0  0
    1.3387    3.5320   -0.4259 H   0  0  0  0  0  0  0  0  0  0  0  0
  1  6  1  0  0  0  0
  2  1  2  0  0  0  0
  2  3  1  0  0  0  0
  3  4  2  0  0  0  0
  4  5  1  0  0  0  0
  4 12  1  0  0  0  0
  5  8  1  0  0  0  0
  6 11  1  0  0  0  0
  6  5  2  0  0  0  0
  7  1  1  0  0  0  0
 10  9  3  0  0  0  0
 12 13  2  0  0  0  0
 14 12  1  0  0  0  0
 14 15  1  0  0  0  0
M  RAD  2   2   2   3   2
M  END
