Coordinates from ORCA-job 2-HOOC-C6H3-N2-B3LYPG-aug-cc-pVDZ-scan-d09-49-n400
 OpenBabel11091809063D

 15 15  0  0  0  0  0  0  0  0999 V2000
   -1.3662   -1.4885   -0.9343 C   0  0  0  0  0  0  0  0  0  0  0  0
    0.0440   -1.3509   -1.0662 C   0  0  0  0  0  0  0  0  0  0  0  0
    0.4613    0.0299   -0.9363 C   0  0  0  0  0  0  0  0  0  0  0  0
   -0.4168    1.1656   -0.7013 C   0  0  0  0  0  0  0  0  0  0  0  0
   -1.7722    0.9060   -0.7080 C   0  0  0  0  0  0  0  0  0  0  0  0
   -2.2485   -0.4174   -0.8514 C   0  0  0  0  0  0  0  0  0  0  0  0
   -1.7818   -2.5006   -0.9402 H   0  0  0  0  0  0  0  0  0  0  0  0
   -2.4612    1.7361   -0.5630 H   0  0  0  0  0  0  0  0  0  0  0  0
    1.6592    0.1801   -1.1173 N   0  0  0  0  0  0  0  0  0  0  0  0
    2.7669    0.2532   -1.3013 N   0  0  0  0  0  0  0  0  0  0  0  0
   -3.3278   -0.5860   -0.8666 H   0  0  0  0  0  0  0  0  0  0  0  0
    0.0188    2.5662   -0.4411 C   0  0  0  0  0  0  0  0  0  0  0  0
   -0.7264    3.5203   -0.3789 O   0  0  0  0  0  0  0  0  0  0  0  0
    1.3638    2.6846   -0.2742 O   0  0  0  0  0  0  0  0  0  0  0  0
    1.5455    3.6240   -0.1092 H   0  0  0  0  0  0  0  0  0  0  0  0
  1  6  2  0  0  0  0
  2  3  2  0  0  0  0
  2  1  1  0  0  0  0
  3  4  1  0  0  0  0
  4 12  1  0  0  0  0
  5  4  2  0  0  0  0
  5  8  1  0  0  0  0
  6  5  1  0  0  0  0
  7  1  1  0  0  0  0
  9  3  1  0  0  0  0
 10  9  1  0  0  0  0
 11  6  1  0  0  0  0
 12 13  2  0  0  0  0
 12 14  1  0  0  0  0
 14 15  1  0  0  0  0
M  RAD  3   2   2   9   2  10   3
M  END
