Coordinates from ORCA-job 2-HOOC-C6H3-N2-B3LYPG-aug-cc-pVDZ-scan-d09-49-n400
 OpenBabel11091809063D

 15 15  0  0  0  0  0  0  0  0999 V2000
   -1.3780   -1.4761   -1.0432 C   0  0  0  0  0  0  0  0  0  0  0  0
    0.0417   -1.3317   -1.1129 C   0  0  0  0  0  0  0  0  0  0  0  0
    0.4204    0.0241   -0.9126 C   0  0  0  0  0  0  0  0  0  0  0  0
   -0.4277    1.1656   -0.6668 C   0  0  0  0  0  0  0  0  0  0  0  0
   -1.7839    0.8974   -0.6291 C   0  0  0  0  0  0  0  0  0  0  0  0
   -2.2558   -0.4221   -0.8190 C   0  0  0  0  0  0  0  0  0  0  0  0
   -1.8015   -2.4761   -1.1764 H   0  0  0  0  0  0  0  0  0  0  0  0
   -2.4729    1.7204   -0.4487 H   0  0  0  0  0  0  0  0  0  0  0  0
    1.7327    0.1588   -0.9822 N   0  0  0  0  0  0  0  0  0  0  0  0
    2.8484    0.1838   -1.0581 N   0  0  0  0  0  0  0  0  0  0  0  0
   -3.3333   -0.5997   -0.7840 H   0  0  0  0  0  0  0  0  0  0  0  0
    0.0081    2.5733   -0.4534 C   0  0  0  0  0  0  0  0  0  0  0  0
   -0.7393    3.5072   -0.2593 O   0  0  0  0  0  0  0  0  0  0  0  0
    1.3603    2.7276   -0.4961 O   0  0  0  0  0  0  0  0  0  0  0  0
    1.5395    3.6701   -0.3475 H   0  0  0  0  0  0  0  0  0  0  0  0
  1  6  1  0  0  0  0
  2  1  2  0  0  0  0
  2  3  1  0  0  0  0
  3  4  2  0  0  0  0
  4  5  1  0  0  0  0
  4 12  1  0  0  0  0
  5  8  1  0  0  0  0
  6 11  1  0  0  0  0
  6  5  2  0  0  0  0
  7  1  1  0  0  0  0
  9  3  1  0  0  0  0
 10  9  1  0  0  0  0
 12 13  2  0  0  0  0
 14 12  1  0  0  0  0
 14 15  1  0  0  0  0
M  RAD  3   2   2   9   2  10   3
M  END
