Coordinates from ORCA-job 2-HOOC-C6H3-N2-B3LYPG-aug-cc-pVDZ-scan-d09-49-n400
 OpenBabel11091809063D

 15 14  0  0  0  0  0  0  0  0999 V2000
   -1.5877   -1.5127   -1.0531 C   0  0  0  0  0  0  0  0  0  0  0  0
   -0.2616   -1.1030   -1.0497 C   0  0  0  0  0  0  0  0  0  0  0  0
    0.1676    0.0610   -0.8815 C   0  0  0  0  0  0  0  0  0  0  0  0
   -0.5927    1.2025   -0.6497 C   0  0  0  0  0  0  0  0  0  0  0  0
   -1.9764    0.8894   -0.6240 C   0  0  0  0  0  0  0  0  0  0  0  0
   -2.4534   -0.4163   -0.8183 C   0  0  0  0  0  0  0  0  0  0  0  0
   -1.9586   -2.5244   -1.2078 H   0  0  0  0  0  0  0  0  0  0  0  0
   -2.6759    1.7075   -0.4492 H   0  0  0  0  0  0  0  0  0  0  0  0
    3.1274    0.0976   -0.5815 N   0  0  0  0  0  0  0  0  0  0  0  0
    3.8144    0.0239   -1.4435 N   0  0  0  0  0  0  0  0  0  0  0  0
   -3.5292   -0.5975   -0.7895 H   0  0  0  0  0  0  0  0  0  0  0  0
   -0.1228    2.5957   -0.4523 C   0  0  0  0  0  0  0  0  0  0  0  0
   -0.8489    3.5424   -0.2290 O   0  0  0  0  0  0  0  0  0  0  0  0
    1.2244    2.7095   -0.5513 O   0  0  0  0  0  0  0  0  0  0  0  0
    1.4322    3.6471   -0.4090 H   0  0  0  0  0  0  0  0  0  0  0  0
  1  2  2  0  0  0  0
  1  6  1  0  0  0  0
  2  3  1  0  0  0  0
  3  4  2  0  0  0  0
  4  5  1  0  0  0  0
  4 12  1  0  0  0  0
  5  8  1  0  0  0  0
  6 11  1  0  0  0  0
  6  5  2  0  0  0  0
  7  1  1  0  0  0  0
 10  9  3  0  0  0  0
 12 13  2  0  0  0  0
 14 12  1  0  0  0  0
 14 15  1  0  0  0  0
M  RAD  2   2   2   3   2
M  END
