Coordinates from ORCA-job 2-HOOC-C6H3-N2-B3LYPG-aug-cc-pVDZ-scan-d09-49-n400
 OpenBabel11091809063D

 15 15  0  0  0  0  0  0  0  0999 V2000
   -1.3896   -1.4752   -1.0501 C   0  0  0  0  0  0  0  0  0  0  0  0
    0.0145   -1.2536   -1.1018 C   0  0  0  0  0  0  0  0  0  0  0  0
    0.3152    0.0265   -0.9043 C   0  0  0  0  0  0  0  0  0  0  0  0
   -0.4528    1.1781   -0.6605 C   0  0  0  0  0  0  0  0  0  0  0  0
   -1.8237    0.8911   -0.6220 C   0  0  0  0  0  0  0  0  0  0  0  0
   -2.2826   -0.4239   -0.8154 C   0  0  0  0  0  0  0  0  0  0  0  0
   -1.7923   -2.4819   -1.1950 H   0  0  0  0  0  0  0  0  0  0  0  0
   -2.5156    1.7114   -0.4392 H   0  0  0  0  0  0  0  0  0  0  0  0
    1.9304    0.2495   -0.9692 N   0  0  0  0  0  0  0  0  0  0  0  0
    3.0089    0.0118   -1.0780 N   0  0  0  0  0  0  0  0  0  0  0  0
   -3.3570   -0.6163   -0.7798 H   0  0  0  0  0  0  0  0  0  0  0  0
   -0.0097    2.5796   -0.4514 C   0  0  0  0  0  0  0  0  0  0  0  0
   -0.7509    3.5162   -0.2463 O   0  0  0  0  0  0  0  0  0  0  0  0
    1.3429    2.7330   -0.5121 O   0  0  0  0  0  0  0  0  0  0  0  0
    1.5209    3.6761   -0.3642 H   0  0  0  0  0  0  0  0  0  0  0  0
  1  6  1  0  0  0  0
  2  1  2  0  0  0  0
  2  3  1  0  0  0  0
  3  4  2  0  0  0  0
  4  5  1  0  0  0  0
  4 12  1  0  0  0  0
  5  8  1  0  0  0  0
  6 11  1  0  0  0  0
  6  5  2  0  0  0  0
  7  1  1  0  0  0  0
  9  3  1  0  0  0  0
 10  9  1  0  0  0  0
 12 13  2  0  0  0  0
 14 12  1  0  0  0  0
 14 15  1  0  0  0  0
M  RAD  3   2   2   9   2  10   3
M  END
