Coordinates from ORCA-job 2-HOOC-C6H3-N2-B3LYPG-aug-cc-pVDZ-scan-d09-49-n400
 OpenBabel11091809063D

 15 14  0  0  0  0  0  0  0  0999 V2000
   -1.5049   -1.5181   -1.0756 C   0  0  0  0  0  0  0  0  0  0  0  0
   -0.1674   -1.1376   -1.0595 C   0  0  0  0  0  0  0  0  0  0  0  0
    0.2557    0.0305   -0.8793 C   0  0  0  0  0  0  0  0  0  0  0  0
   -0.4908    1.1794   -0.6374 C   0  0  0  0  0  0  0  0  0  0  0  0
   -1.8769    0.8737   -0.6129 C   0  0  0  0  0  0  0  0  0  0  0  0
   -2.3654   -0.4246   -0.8226 C   0  0  0  0  0  0  0  0  0  0  0  0
   -1.8853   -2.5241   -1.2487 H   0  0  0  0  0  0  0  0  0  0  0  0
   -2.5681    1.6972   -0.4324 H   0  0  0  0  0  0  0  0  0  0  0  0
    2.5462    0.1994   -0.6011 N   0  0  0  0  0  0  0  0  0  0  0  0
    3.3527    0.0026   -1.3325 N   0  0  0  0  0  0  0  0  0  0  0  0
   -3.4427   -0.5965   -0.7901 H   0  0  0  0  0  0  0  0  0  0  0  0
   -0.0482    2.5843   -0.4449 C   0  0  0  0  0  0  0  0  0  0  0  0
   -0.7928    3.5028   -0.1702 O   0  0  0  0  0  0  0  0  0  0  0  0
    1.2863    2.7546   -0.6131 O   0  0  0  0  0  0  0  0  0  0  0  0
    1.4603    3.6990   -0.4691 H   0  0  0  0  0  0  0  0  0  0  0  0
  1  2  2  0  0  0  0
  1  6  1  0  0  0  0
  2  3  1  0  0  0  0
  3  4  2  0  0  0  0
  4  5  1  0  0  0  0
  4 12  1  0  0  0  0
  5  8  1  0  0  0  0
  6 11  1  0  0  0  0
  6  5  2  0  0  0  0
  7  1  1  0  0  0  0
 10  9  3  0  0  0  0
 12 13  2  0  0  0  0
 14 15  1  0  0  0  0
 14 12  1  0  0  0  0
M  RAD  2   2   2   3   2
M  END
