Coordinates from ORCA-job 2-HOOC-C6H3-N2-B3LYPG-aug-cc-pVDZ-scan-d09-49-n400
 OpenBabel11091809063D

 15 15  0  0  0  0  0  0  0  0999 V2000
   -1.3803   -1.4744   -1.0492 C   0  0  0  0  0  0  0  0  0  0  0  0
    0.0383   -1.3169   -1.1130 C   0  0  0  0  0  0  0  0  0  0  0  0
    0.3938    0.0251   -0.9095 C   0  0  0  0  0  0  0  0  0  0  0  0
   -0.4362    1.1694   -0.6636 C   0  0  0  0  0  0  0  0  0  0  0  0
   -1.7948    0.8967   -0.6240 C   0  0  0  0  0  0  0  0  0  0  0  0
   -2.2617   -0.4228   -0.8169 C   0  0  0  0  0  0  0  0  0  0  0  0
   -1.8013   -2.4745   -1.1903 H   0  0  0  0  0  0  0  0  0  0  0  0
   -2.4856    1.7178   -0.4417 H   0  0  0  0  0  0  0  0  0  0  0  0
    1.7762    0.1673   -0.9747 N   0  0  0  0  0  0  0  0  0  0  0  0
    2.8890    0.1616   -1.0490 N   0  0  0  0  0  0  0  0  0  0  0  0
   -3.3384   -0.6047   -0.7798 H   0  0  0  0  0  0  0  0  0  0  0  0
    0.0033    2.5745   -0.4535 C   0  0  0  0  0  0  0  0  0  0  0  0
   -0.7386    3.5107   -0.2499 O   0  0  0  0  0  0  0  0  0  0  0  0
    1.3562    2.7254   -0.5109 O   0  0  0  0  0  0  0  0  0  0  0  0
    1.5388    3.6674   -0.3631 H   0  0  0  0  0  0  0  0  0  0  0  0
  1  6  1  0  0  0  0
  2  1  2  0  0  0  0
  2  3  1  0  0  0  0
  3  4  2  0  0  0  0
  4  5  1  0  0  0  0
  4 12  1  0  0  0  0
  5  8  1  0  0  0  0
  6 11  1  0  0  0  0
  6  5  2  0  0  0  0
  7  1  1  0  0  0  0
  9  3  1  0  0  0  0
 10  9  1  0  0  0  0
 12 13  2  0  0  0  0
 14 12  1  0  0  0  0
 14 15  1  0  0  0  0
M  RAD  3   2   2   9   2  10   3
M  END
