Coordinates from ORCA-job 2-HOOC-C6H3-N2-B3LYPG-aug-cc-pVDZ-scan-d09-49-n400
 OpenBabel11091809063D

 15 15  0  0  0  0  0  0  0  0999 V2000
   -1.4192   -1.4937   -1.0526 C   0  0  0  0  0  0  0  0  0  0  0  0
   -0.0403   -1.2021   -1.0902 C   0  0  0  0  0  0  0  0  0  0  0  0
    0.2897    0.0262   -0.9017 C   0  0  0  0  0  0  0  0  0  0  0  0
   -0.4478    1.1825   -0.6579 C   0  0  0  0  0  0  0  0  0  0  0  0
   -1.8276    0.8821   -0.6220 C   0  0  0  0  0  0  0  0  0  0  0  0
   -2.3001   -0.4252   -0.8148 C   0  0  0  0  0  0  0  0  0  0  0  0
   -1.8114   -2.5026   -1.2000 H   0  0  0  0  0  0  0  0  0  0  0  0
   -2.5176    1.7046   -0.4382 H   0  0  0  0  0  0  0  0  0  0  0  0
    2.1100    0.3018   -0.9699 N   0  0  0  0  0  0  0  0  0  0  0  0
    3.1143   -0.1477   -1.1105 N   0  0  0  0  0  0  0  0  0  0  0  0
   -3.3758   -0.6074   -0.7779 H   0  0  0  0  0  0  0  0  0  0  0  0
   -0.0223    2.5911   -0.4444 C   0  0  0  0  0  0  0  0  0  0  0  0
   -0.7880    3.5107   -0.2460 O   0  0  0  0  0  0  0  0  0  0  0  0
    1.3225    2.7769   -0.5052 O   0  0  0  0  0  0  0  0  0  0  0  0
    1.4724    3.7253   -0.3580 H   0  0  0  0  0  0  0  0  0  0  0  0
  1  6  1  0  0  0  0
  2  1  2  0  0  0  0
  2  3  1  0  0  0  0
  3  4  2  0  0  0  0
  4  5  1  0  0  0  0
  4 12  1  0  0  0  0
  5  8  1  0  0  0  0
  6 11  1  0  0  0  0
  6  5  2  0  0  0  0
  7  1  1  0  0  0  0
  9  3  1  0  0  0  0
 10  9  2  0  0  0  0
 12 13  2  0  0  0  0
 14 12  1  0  0  0  0
 14 15  1  0  0  0  0
M  RAD  2   2   2  10   2
M  END
