Coordinates from ORCA-job 2-HOOC-C6H3-N2-B3LYPG-aug-cc-pVDZ-scan-d09-49-n400
 OpenBabel11091809063D

 15 14  0  0  0  0  0  0  0  0999 V2000
   -1.5387   -1.5144   -1.0762 C   0  0  0  0  0  0  0  0  0  0  0  0
   -0.2085   -1.1141   -1.0763 C   0  0  0  0  0  0  0  0  0  0  0  0
    0.2183    0.0519   -0.8998 C   0  0  0  0  0  0  0  0  0  0  0  0
   -0.5360    1.1934   -0.6470 C   0  0  0  0  0  0  0  0  0  0  0  0
   -1.9198    0.8788   -0.6081 C   0  0  0  0  0  0  0  0  0  0  0  0
   -2.4012   -0.4232   -0.8142 C   0  0  0  0  0  0  0  0  0  0  0  0
   -1.9135   -2.5228   -1.2450 H   0  0  0  0  0  0  0  0  0  0  0  0
   -2.6158    1.6962   -0.4172 H   0  0  0  0  0  0  0  0  0  0  0  0
    2.7802    0.1459   -0.5748 N   0  0  0  0  0  0  0  0  0  0  0  0
    3.5575    0.0076   -1.3482 N   0  0  0  0  0  0  0  0  0  0  0  0
   -3.4769   -0.6031   -0.7739 H   0  0  0  0  0  0  0  0  0  0  0  0
   -0.0810    2.5921   -0.4505 C   0  0  0  0  0  0  0  0  0  0  0  0
   -0.8146    3.5226   -0.1871 O   0  0  0  0  0  0  0  0  0  0  0  0
    1.2573    2.7356   -0.6073 O   0  0  0  0  0  0  0  0  0  0  0  0
    1.4514    3.6761   -0.4637 H   0  0  0  0  0  0  0  0  0  0  0  0
  1  6  1  0  0  0  0
  2  1  2  0  0  0  0
  2  3  1  0  0  0  0
  3  4  2  0  0  0  0
  4  5  1  0  0  0  0
  4 12  1  0  0  0  0
  5  8  1  0  0  0  0
  6 11  1  0  0  0  0
  6  5  2  0  0  0  0
  7  1  1  0  0  0  0
 10  9  3  0  0  0  0
 12 13  2  0  0  0  0
 14 15  1  0  0  0  0
 14 12  1  0  0  0  0
M  RAD  2   2   2   3   2
M  END
