Coordinates from ORCA-job 2-HOOC-C6H3-N2-B3LYPG-aug-cc-pVDZ-scan-d09-49-n400
 OpenBabel11091809063D

 15 14  0  0  0  0  0  0  0  0999 V2000
   -1.4663   -1.5179   -1.0543 C   0  0  0  0  0  0  0  0  0  0  0  0
   -0.1139   -1.1778   -0.9997 C   0  0  0  0  0  0  0  0  0  0  0  0
    0.2900    0.0075   -0.8304 C   0  0  0  0  0  0  0  0  0  0  0  0
   -0.4521    1.1671   -0.6222 C   0  0  0  0  0  0  0  0  0  0  0  0
   -1.8393    0.8742   -0.6351 C   0  0  0  0  0  0  0  0  0  0  0  0
   -2.3306   -0.4231   -0.8425 C   0  0  0  0  0  0  0  0  0  0  0  0
   -1.8534   -2.5229   -1.2254 H   0  0  0  0  0  0  0  0  0  0  0  0
   -2.5269    1.7068   -0.4876 H   0  0  0  0  0  0  0  0  0  0  0  0
    2.3229    0.2359   -0.6594 N   0  0  0  0  0  0  0  0  0  0  0  0
    3.1443    0.0194   -1.3722 N   0  0  0  0  0  0  0  0  0  0  0  0
   -3.4096   -0.5872   -0.8365 H   0  0  0  0  0  0  0  0  0  0  0  0
   -0.0211    2.5776   -0.4334 C   0  0  0  0  0  0  0  0  0  0  0  0
   -0.7745    3.4885   -0.1586 O   0  0  0  0  0  0  0  0  0  0  0  0
    1.3130    2.7644   -0.5908 O   0  0  0  0  0  0  0  0  0  0  0  0
    1.4761    3.7100   -0.4413 H   0  0  0  0  0  0  0  0  0  0  0  0
  1  2  2  0  0  0  0
  1  6  1  0  0  0  0
  2  3  1  0  0  0  0
  3  4  2  0  0  0  0
  4 12  1  0  0  0  0
  5  4  1  0  0  0  0
  5  8  1  0  0  0  0
  6 11  1  0  0  0  0
  6  5  2  0  0  0  0
  7  1  1  0  0  0  0
 10  9  3  0  0  0  0
 12 13  2  0  0  0  0
 14 15  1  0  0  0  0
 14 12  1  0  0  0  0
M  RAD  2   2   2   3   2
M  END
