Coordinates from ORCA-job 2-HOOC-C6H3-N2-B3LYPG-aug-cc-pVDZ-scan-d09-49-n400
 OpenBabel11091809063D

 15 14  0  0  0  0  0  0  0  0999 V2000
   -1.5100   -1.5179   -1.0779 C   0  0  0  0  0  0  0  0  0  0  0  0
   -0.1734   -1.1352   -1.0656 C   0  0  0  0  0  0  0  0  0  0  0  0
    0.2514    0.0316   -0.8844 C   0  0  0  0  0  0  0  0  0  0  0  0
   -0.4947    1.1798   -0.6381 C   0  0  0  0  0  0  0  0  0  0  0  0
   -1.8808    0.8738   -0.6105 C   0  0  0  0  0  0  0  0  0  0  0  0
   -2.3696   -0.4244   -0.8207 C   0  0  0  0  0  0  0  0  0  0  0  0
   -1.8905   -2.5237   -1.2516 H   0  0  0  0  0  0  0  0  0  0  0  0
   -2.5718    1.6967   -0.4263 H   0  0  0  0  0  0  0  0  0  0  0  0
    2.5712    0.1966   -0.5951 N   0  0  0  0  0  0  0  0  0  0  0  0
    3.3776    0.0037   -1.3274 N   0  0  0  0  0  0  0  0  0  0  0  0
   -3.4468   -0.5966   -0.7859 H   0  0  0  0  0  0  0  0  0  0  0  0
   -0.0504    2.5836   -0.4436 C   0  0  0  0  0  0  0  0  0  0  0  0
   -0.7944    3.5033   -0.1712 O   0  0  0  0  0  0  0  0  0  0  0  0
    1.2836    2.7533   -0.6165 O   0  0  0  0  0  0  0  0  0  0  0  0
    1.4574    3.6981   -0.4745 H   0  0  0  0  0  0  0  0  0  0  0  0
  1  2  2  0  0  0  0
  1  6  1  0  0  0  0
  2  3  1  0  0  0  0
  3  4  2  0  0  0  0
  4  5  1  0  0  0  0
  4 12  1  0  0  0  0
  5  8  1  0  0  0  0
  6 11  1  0  0  0  0
  6  5  2  0  0  0  0
  7  1  1  0  0  0  0
 10  9  3  0  0  0  0
 12 13  2  0  0  0  0
 14 15  1  0  0  0  0
 14 12  1  0  0  0  0
M  RAD  2   2   2   3   2
M  END
