Coordinates from ORCA-job 2-HOOC-C6H3-N2-B3LYPG-aug-cc-pVDZ-scan-d09-49-n400
 OpenBabel11091809063D

 15 14  0  0  0  0  0  0  0  0999 V2000
   -1.5515   -1.5139   -1.0697 C   0  0  0  0  0  0  0  0  0  0  0  0
   -0.2234   -1.1086   -1.0700 C   0  0  0  0  0  0  0  0  0  0  0  0
    0.2034    0.0561   -0.8960 C   0  0  0  0  0  0  0  0  0  0  0  0
   -0.5534    1.1967   -0.6483 C   0  0  0  0  0  0  0  0  0  0  0  0
   -1.9368    0.8819   -0.6122 C   0  0  0  0  0  0  0  0  0  0  0  0
   -2.4159   -0.4216   -0.8149 C   0  0  0  0  0  0  0  0  0  0  0  0
   -1.9243   -2.5236   -1.2343 H   0  0  0  0  0  0  0  0  0  0  0  0
   -2.6344    1.6988   -0.4251 H   0  0  0  0  0  0  0  0  0  0  0  0
    2.8777    0.1325   -0.5756 N   0  0  0  0  0  0  0  0  0  0  0  0
    3.6297    0.0101   -1.3764 N   0  0  0  0  0  0  0  0  0  0  0  0
   -3.4914   -0.6029   -0.7774 H   0  0  0  0  0  0  0  0  0  0  0  0
   -0.0930    2.5935   -0.4512 C   0  0  0  0  0  0  0  0  0  0  0  0
   -0.8245    3.5298   -0.2026 O   0  0  0  0  0  0  0  0  0  0  0  0
    1.2488    2.7271   -0.5890 O   0  0  0  0  0  0  0  0  0  0  0  0
    1.4475    3.6667   -0.4465 H   0  0  0  0  0  0  0  0  0  0  0  0
  1  6  1  0  0  0  0
  2  1  2  0  0  0  0
  2  3  1  0  0  0  0
  3  4  2  0  0  0  0
  4  5  1  0  0  0  0
  4 12  1  0  0  0  0
  5  8  1  0  0  0  0
  6 11  1  0  0  0  0
  6  5  2  0  0  0  0
  7  1  1  0  0  0  0
 10  9  3  0  0  0  0
 12 13  2  0  0  0  0
 14 12  1  0  0  0  0
 14 15  1  0  0  0  0
M  RAD  2   2   2   3   2
M  END
