Coordinates from ORCA-job 2-HOOC-C6H3-N2-B3LYPG-aug-cc-pVDZ-scan-d09-49-n400
 OpenBabel11091809063D

 15 15  0  0  0  0  0  0  0  0999 V2000
   -1.3835   -1.4726   -1.0501 C   0  0  0  0  0  0  0  0  0  0  0  0
    0.0294   -1.2827   -1.1077 C   0  0  0  0  0  0  0  0  0  0  0  0
    0.3435    0.0270   -0.9060 C   0  0  0  0  0  0  0  0  0  0  0  0
   -0.4497    1.1759   -0.6611 C   0  0  0  0  0  0  0  0  0  0  0  0
   -1.8151    0.8948   -0.6219 C   0  0  0  0  0  0  0  0  0  0  0  0
   -2.2740   -0.4231   -0.8159 C   0  0  0  0  0  0  0  0  0  0  0  0
   -1.7949   -2.4761   -1.1939 H   0  0  0  0  0  0  0  0  0  0  0  0
   -2.5076    1.7145   -0.4391 H   0  0  0  0  0  0  0  0  0  0  0  0
    1.8626    0.2104   -0.9714 N   0  0  0  0  0  0  0  0  0  0  0  0
    2.9631    0.0860   -1.0624 N   0  0  0  0  0  0  0  0  0  0  0  0
   -3.3490   -0.6135   -0.7798 H   0  0  0  0  0  0  0  0  0  0  0  0
   -0.0053    2.5768   -0.4521 C   0  0  0  0  0  0  0  0  0  0  0  0
   -0.7424    3.5164   -0.2467 O   0  0  0  0  0  0  0  0  0  0  0  0
    1.3486    2.7235   -0.5142 O   0  0  0  0  0  0  0  0  0  0  0  0
    1.5332    3.6654   -0.3669 H   0  0  0  0  0  0  0  0  0  0  0  0
  1  6  1  0  0  0  0
  2  1  2  0  0  0  0
  2  3  1  0  0  0  0
  3  4  2  0  0  0  0
  4  5  1  0  0  0  0
  4 12  1  0  0  0  0
  5  8  1  0  0  0  0
  6 11  1  0  0  0  0
  6  5  2  0  0  0  0
  7  1  1  0  0  0  0
  9  3  1  0  0  0  0
 10  9  1  0  0  0  0
 12 13  2  0  0  0  0
 14 12  1  0  0  0  0
 14 15  1  0  0  0  0
M  RAD  3   2   2   9   2  10   3
M  END
