Coordinates from ORCA-job 2-HOOC-C6H3-N2-B3LYPG-aug-cc-pVDZ-scan-d09-49-n400
 OpenBabel11091809063D

 15 15  0  0  0  0  0  0  0  0999 V2000
   -1.4223   -1.4954   -1.0511 C   0  0  0  0  0  0  0  0  0  0  0  0
   -0.0453   -1.1988   -1.0883 C   0  0  0  0  0  0  0  0  0  0  0  0
    0.2871    0.0265   -0.9025 C   0  0  0  0  0  0  0  0  0  0  0  0
   -0.4485    1.1835   -0.6603 C   0  0  0  0  0  0  0  0  0  0  0  0
   -1.8288    0.8820   -0.6236 C   0  0  0  0  0  0  0  0  0  0  0  0
   -2.3022   -0.4252   -0.8144 C   0  0  0  0  0  0  0  0  0  0  0  0
   -1.8136   -2.5047   -1.1967 H   0  0  0  0  0  0  0  0  0  0  0  0
   -2.5187    1.7048   -0.4408 H   0  0  0  0  0  0  0  0  0  0  0  0
    2.1274    0.3037   -0.9726 N   0  0  0  0  0  0  0  0  0  0  0  0
    3.1265   -0.1563   -1.1150 N   0  0  0  0  0  0  0  0  0  0  0  0
   -3.3780   -0.6068   -0.7768 H   0  0  0  0  0  0  0  0  0  0  0  0
   -0.0241    2.5929   -0.4492 C   0  0  0  0  0  0  0  0  0  0  0  0
   -0.7908    3.5104   -0.2446 O   0  0  0  0  0  0  0  0  0  0  0  0
    1.3206    2.7791   -0.5022 O   0  0  0  0  0  0  0  0  0  0  0  0
    1.4692    3.7270   -0.3509 H   0  0  0  0  0  0  0  0  0  0  0  0
  1  6  1  0  0  0  0
  2  1  2  0  0  0  0
  2  3  1  0  0  0  0
  3  4  2  0  0  0  0
  4  5  1  0  0  0  0
  4 12  1  0  0  0  0
  5  8  1  0  0  0  0
  6 11  1  0  0  0  0
  6  5  2  0  0  0  0
  7  1  1  0  0  0  0
  9  3  1  0  0  0  0
 10  9  2  0  0  0  0
 12 13  2  0  0  0  0
 14 12  1  0  0  0  0
 14 15  1  0  0  0  0
M  RAD  2   2   2  10   2
M  END
