Coordinates from ORCA-job 2-HOOC-C6H3-N2-B3LYPG-aug-cc-pVDZ-scan-d09-49-n400
 OpenBabel11091809063D

 15 14  0  0  0  0  0  0  0  0999 V2000
   -1.5504   -1.5139   -1.0703 C   0  0  0  0  0  0  0  0  0  0  0  0
   -0.2220   -1.1090   -1.0706 C   0  0  0  0  0  0  0  0  0  0  0  0
    0.2046    0.0557   -0.8964 C   0  0  0  0  0  0  0  0  0  0  0  0
   -0.5519    1.1963   -0.6482 C   0  0  0  0  0  0  0  0  0  0  0  0
   -1.9353    0.8817   -0.6118 C   0  0  0  0  0  0  0  0  0  0  0  0
   -2.4146   -0.4218   -0.8148 C   0  0  0  0  0  0  0  0  0  0  0  0
   -1.9233   -2.5235   -1.2353 H   0  0  0  0  0  0  0  0  0  0  0  0
   -2.6328    1.6986   -0.4243 H   0  0  0  0  0  0  0  0  0  0  0  0
    2.8687    0.1338   -0.5755 N   0  0  0  0  0  0  0  0  0  0  0  0
    3.6232    0.0101   -1.3738 N   0  0  0  0  0  0  0  0  0  0  0  0
   -3.4901   -0.6029   -0.7770 H   0  0  0  0  0  0  0  0  0  0  0  0
   -0.0918    2.5933   -0.4512 C   0  0  0  0  0  0  0  0  0  0  0  0
   -0.8235    3.5291   -0.2014 O   0  0  0  0  0  0  0  0  0  0  0  0
    1.2497    2.7277   -0.5906 O   0  0  0  0  0  0  0  0  0  0  0  0
    1.4480    3.6674   -0.4481 H   0  0  0  0  0  0  0  0  0  0  0  0
  1  6  1  0  0  0  0
  2  1  2  0  0  0  0
  2  3  1  0  0  0  0
  3  4  2  0  0  0  0
  4  5  1  0  0  0  0
  4 12  1  0  0  0  0
  5  8  1  0  0  0  0
  6 11  1  0  0  0  0
  6  5  2  0  0  0  0
  7  1  1  0  0  0  0
 10  9  3  0  0  0  0
 12 13  2  0  0  0  0
 14 12  1  0  0  0  0
 14 15  1  0  0  0  0
M  RAD  2   2   2   3   2
M  END
