Coordinates from ORCA-job 2-HOOC-C6H3-N2-B3LYPG-aug-cc-pVDZ-scan-d09-49-n400
 OpenBabel11091809063D

 15 14  0  0  0  0  0  0  0  0999 V2000
   -1.4723   -1.5180   -1.0587 C   0  0  0  0  0  0  0  0  0  0  0  0
   -0.1215   -1.1729   -1.0076 C   0  0  0  0  0  0  0  0  0  0  0  0
    0.2835    0.0096   -0.8343 C   0  0  0  0  0  0  0  0  0  0  0  0
   -0.4570    1.1685   -0.6207 C   0  0  0  0  0  0  0  0  0  0  0  0
   -1.8445    0.8740   -0.6306 C   0  0  0  0  0  0  0  0  0  0  0  0
   -2.3356   -0.4230   -0.8406 C   0  0  0  0  0  0  0  0  0  0  0  0
   -1.8588   -2.5226   -1.2322 H   0  0  0  0  0  0  0  0  0  0  0  0
   -2.5324    1.7055   -0.4780 H   0  0  0  0  0  0  0  0  0  0  0  0
    2.3566    0.2313   -0.6508 N   0  0  0  0  0  0  0  0  0  0  0  0
    3.1768    0.0147   -1.3641 N   0  0  0  0  0  0  0  0  0  0  0  0
   -3.4146   -0.5876   -0.8327 H   0  0  0  0  0  0  0  0  0  0  0  0
   -0.0243    2.5778   -0.4286 C   0  0  0  0  0  0  0  0  0  0  0  0
   -0.7774    3.4900   -0.1572 O   0  0  0  0  0  0  0  0  0  0  0  0
    1.3080    2.7645   -0.5991 O   0  0  0  0  0  0  0  0  0  0  0  0
    1.4722    3.7107   -0.4539 H   0  0  0  0  0  0  0  0  0  0  0  0
  1  2  2  0  0  0  0
  1  6  1  0  0  0  0
  2  3  1  0  0  0  0
  3  4  2  0  0  0  0
  4 12  1  0  0  0  0
  5  4  1  0  0  0  0
  5  8  1  0  0  0  0
  6 11  1  0  0  0  0
  6  5  2  0  0  0  0
  7  1  1  0  0  0  0
 10  9  3  0  0  0  0
 12 13  2  0  0  0  0
 14 15  1  0  0  0  0
 14 12  1  0  0  0  0
M  RAD  2   2   2   3   2
M  END
