Coordinates from ORCA-job 2-HOOC-C6H3-N2-B3LYPG-aug-cc-pVDZ-scan-d09-49-n400
 OpenBabel11091809063D

 15 15  0  0  0  0  0  0  0  0999 V2000
   -1.3794   -1.4747   -1.0472 C   0  0  0  0  0  0  0  0  0  0  0  0
    0.0393   -1.3184   -1.1122 C   0  0  0  0  0  0  0  0  0  0  0  0
    0.3964    0.0251   -0.9109 C   0  0  0  0  0  0  0  0  0  0  0  0
   -0.4351    1.1694   -0.6664 C   0  0  0  0  0  0  0  0  0  0  0  0
   -1.7934    0.8969   -0.6259 C   0  0  0  0  0  0  0  0  0  0  0  0
   -2.2607   -0.4228   -0.8168 C   0  0  0  0  0  0  0  0  0  0  0  0
   -1.8003   -2.4751   -1.1861 H   0  0  0  0  0  0  0  0  0  0  0  0
   -2.4840    1.7184   -0.4447 H   0  0  0  0  0  0  0  0  0  0  0  0
    1.7688    0.1659   -0.9772 N   0  0  0  0  0  0  0  0  0  0  0  0
    2.8817    0.1653   -1.0517 N   0  0  0  0  0  0  0  0  0  0  0  0
   -3.3374   -0.6045   -0.7792 H   0  0  0  0  0  0  0  0  0  0  0  0
    0.0040    2.5751   -0.4582 C   0  0  0  0  0  0  0  0  0  0  0  0
   -0.7381    3.5102   -0.2502 O   0  0  0  0  0  0  0  0  0  0  0  0
    1.3572    2.7253   -0.5071 O   0  0  0  0  0  0  0  0  0  0  0  0
    1.5397    3.6667   -0.3554 H   0  0  0  0  0  0  0  0  0  0  0  0
  1  6  1  0  0  0  0
  2  1  2  0  0  0  0
  2  3  1  0  0  0  0
  3  4  2  0  0  0  0
  4  5  1  0  0  0  0
  4 12  1  0  0  0  0
  5  8  1  0  0  0  0
  6 11  1  0  0  0  0
  6  5  2  0  0  0  0
  7  1  1  0  0  0  0
  9  3  1  0  0  0  0
 10  9  1  0  0  0  0
 12 13  2  0  0  0  0
 14 12  1  0  0  0  0
 14 15  1  0  0  0  0
M  RAD  3   2   2   9   2  10   3
M  END
