Coordinates from ORCA-job 2-HOOC-C6H3-N2-B3LYPG-aug-cc-pVDZ-scan-d09-49-n400
 OpenBabel11091809063D

 15 14  0  0  0  0  0  0  0  0999 V2000
   -1.4379   -1.5025   -1.0517 C   0  0  0  0  0  0  0  0  0  0  0  0
   -0.0711   -1.1807   -1.0814 C   0  0  0  0  0  0  0  0  0  0  0  0
    0.2779    0.0290   -0.8989 C   0  0  0  0  0  0  0  0  0  0  0  0
   -0.4522    1.1869   -0.6574 C   0  0  0  0  0  0  0  0  0  0  0  0
   -1.8348    0.8801   -0.6234 C   0  0  0  0  0  0  0  0  0  0  0  0
   -2.3124   -0.4252   -0.8147 C   0  0  0  0  0  0  0  0  0  0  0  0
   -1.8258   -2.5122   -1.1989 H   0  0  0  0  0  0  0  0  0  0  0  0
   -2.5251    1.7031   -0.4413 H   0  0  0  0  0  0  0  0  0  0  0  0
    2.2192    0.3086   -0.9702 N   0  0  0  0  0  0  0  0  0  0  0  0
    3.1885   -0.2030   -1.1335 N   0  0  0  0  0  0  0  0  0  0  0  0
   -3.3888   -0.6030   -0.7777 H   0  0  0  0  0  0  0  0  0  0  0  0
   -0.0329    2.5981   -0.4452 C   0  0  0  0  0  0  0  0  0  0  0  0
   -0.8064    3.5108   -0.2425 O   0  0  0  0  0  0  0  0  0  0  0  0
    1.3091    2.7918   -0.5014 O   0  0  0  0  0  0  0  0  0  0  0  0
    1.4514    3.7409   -0.3512 H   0  0  0  0  0  0  0  0  0  0  0  0
  1  6  1  0  0  0  0
  2  1  2  0  0  0  0
  2  3  1  0  0  0  0
  3  4  2  0  0  0  0
  4  5  1  0  0  0  0
  4 12  1  0  0  0  0
  5  8  1  0  0  0  0
  6 11  1  0  0  0  0
  6  5  2  0  0  0  0
  7  1  1  0  0  0  0
 10  9  3  0  0  0  0
 12 13  2  0  0  0  0
 14 12  1  0  0  0  0
 14 15  1  0  0  0  0
M  RAD  2   2   2   3   2
M  END
