Coordinates from ORCA-job 2-HOOC-C6H3-N2-B3LYPG-aug-cc-pVDZ-scan-d09-49-n400
 OpenBabel11091809063D

 15 14  0  0  0  0  0  0  0  0999 V2000
   -1.4843   -1.5196   -1.0621 C   0  0  0  0  0  0  0  0  0  0  0  0
   -0.1365   -1.1660   -1.0199 C   0  0  0  0  0  0  0  0  0  0  0  0
    0.2727    0.0119   -0.8446 C   0  0  0  0  0  0  0  0  0  0  0  0
   -0.4655    1.1702   -0.6253 C   0  0  0  0  0  0  0  0  0  0  0  0
   -1.8534    0.8738   -0.6268 C   0  0  0  0  0  0  0  0  0  0  0  0
   -2.3453   -0.4231   -0.8363 C   0  0  0  0  0  0  0  0  0  0  0  0
   -1.8704   -2.5242   -1.2347 H   0  0  0  0  0  0  0  0  0  0  0  0
   -2.5416    1.7041   -0.4679 H   0  0  0  0  0  0  0  0  0  0  0  0
    2.4155    0.2263   -0.6396 N   0  0  0  0  0  0  0  0  0  0  0  0
    3.2322    0.0160   -1.3574 N   0  0  0  0  0  0  0  0  0  0  0  0
   -3.4241   -0.5880   -0.8231 H   0  0  0  0  0  0  0  0  0  0  0  0
   -0.0296    2.5783   -0.4342 C   0  0  0  0  0  0  0  0  0  0  0  0
   -0.7809    3.4910   -0.1591 O   0  0  0  0  0  0  0  0  0  0  0  0
    1.3036    2.7628   -0.6018 O   0  0  0  0  0  0  0  0  0  0  0  0
    1.4663    3.7091   -0.4565 H   0  0  0  0  0  0  0  0  0  0  0  0
  1  2  2  0  0  0  0
  1  6  1  0  0  0  0
  2  3  1  0  0  0  0
  3  4  2  0  0  0  0
  4 12  1  0  0  0  0
  5  4  1  0  0  0  0
  5  8  1  0  0  0  0
  6 11  1  0  0  0  0
  6  5  2  0  0  0  0
  7  1  1  0  0  0  0
 10  9  3  0  0  0  0
 12 13  2  0  0  0  0
 14 15  1  0  0  0  0
 14 12  1  0  0  0  0
M  RAD  2   2   2   3   2
M  END
