Coordinates from ORCA-job 2-HOOC-C6H3-N2-B3LYPG-aug-cc-pVDZ-scan-d09-49-n400
 OpenBabel11091809063D

 15 14  0  0  0  0  0  0  0  0999 V2000
   -1.8650   -1.5032   -1.0533 C   0  0  0  0  0  0  0  0  0  0  0  0
   -0.5311   -1.1246   -1.0925 C   0  0  0  0  0  0  0  0  0  0  0  0
   -0.0635    0.0251   -0.9288 C   0  0  0  0  0  0  0  0  0  0  0  0
   -0.7863    1.1840   -0.6678 C   0  0  0  0  0  0  0  0  0  0  0  0
   -2.1766    0.9086   -0.6053 C   0  0  0  0  0  0  0  0  0  0  0  0
   -2.6935   -0.3835   -0.7908 C   0  0  0  0  0  0  0  0  0  0  0  0
   -2.2666   -2.5046   -1.1972 H   0  0  0  0  0  0  0  0  0  0  0  0
   -2.8494    1.7432   -0.4055 H   0  0  0  0  0  0  0  0  0  0  0  0
    4.5833    0.1464   -0.4855 N   0  0  0  0  0  0  0  0  0  0  0  0
    4.9517    0.1350   -1.5266 N   0  0  0  0  0  0  0  0  0  0  0  0
   -3.7725   -0.5363   -0.7315 H   0  0  0  0  0  0  0  0  0  0  0  0
   -0.2606    2.5564   -0.4691 C   0  0  0  0  0  0  0  0  0  0  0  0
   -0.9449    3.5332   -0.2435 O   0  0  0  0  0  0  0  0  0  0  0  0
    1.0904    2.6083   -0.5675 O   0  0  0  0  0  0  0  0  0  0  0  0
    1.3434    3.5345   -0.4245 H   0  0  0  0  0  0  0  0  0  0  0  0
  1  6  1  0  0  0  0
  2  1  2  0  0  0  0
  2  3  1  0  0  0  0
  3  4  2  0  0  0  0
  4  5  1  0  0  0  0
  4 12  1  0  0  0  0
  5  8  1  0  0  0  0
  6 11  1  0  0  0  0
  6  5  2  0  0  0  0
  7  1  1  0  0  0  0
 10  9  3  0  0  0  0
 12 13  2  0  0  0  0
 14 12  1  0  0  0  0
 14 15  1  0  0  0  0
M  RAD  2   2   2   3   2
M  END
