Coordinates from ORCA-job 2-HOOC-C6H3-N2-B3LYPG-aug-cc-pVDZ-scan-d09-49-n400
 OpenBabel11091809063D

 15 14  0  0  0  0  0  0  0  0999 V2000
   -1.5292   -1.5143   -1.0808 C   0  0  0  0  0  0  0  0  0  0  0  0
   -0.1972   -1.1177   -1.0809 C   0  0  0  0  0  0  0  0  0  0  0  0
    0.2257    0.0483   -0.9027 C   0  0  0  0  0  0  0  0  0  0  0  0
   -0.5254    1.1905   -0.6465 C   0  0  0  0  0  0  0  0  0  0  0  0
   -1.9091    0.8769   -0.6049 C   0  0  0  0  0  0  0  0  0  0  0  0
   -2.3914   -0.4243   -0.8137 C   0  0  0  0  0  0  0  0  0  0  0  0
   -1.9052   -2.5218   -1.2527 H   0  0  0  0  0  0  0  0  0  0  0  0
   -2.6040    1.6945   -0.4115 H   0  0  0  0  0  0  0  0  0  0  0  0
    2.7155    0.1615   -0.5737 N   0  0  0  0  0  0  0  0  0  0  0  0
    3.5064    0.0010   -1.3290 N   0  0  0  0  0  0  0  0  0  0  0  0
   -3.4671   -0.6037   -0.7712 H   0  0  0  0  0  0  0  0  0  0  0  0
   -0.0722    2.5906   -0.4523 C   0  0  0  0  0  0  0  0  0  0  0  0
   -0.8066    3.5167   -0.1758 O   0  0  0  0  0  0  0  0  0  0  0  0
    1.2646    2.7417   -0.6196 O   0  0  0  0  0  0  0  0  0  0  0  0
    1.4538    3.6829   -0.4741 H   0  0  0  0  0  0  0  0  0  0  0  0
  1  6  1  0  0  0  0
  2  1  2  0  0  0  0
  2  3  1  0  0  0  0
  3  4  2  0  0  0  0
  4  5  1  0  0  0  0
  4 12  1  0  0  0  0
  5  8  1  0  0  0  0
  6 11  1  0  0  0  0
  6  5  2  0  0  0  0
  7  1  1  0  0  0  0
 10  9  3  0  0  0  0
 12 13  2  0  0  0  0
 14 15  1  0  0  0  0
 14 12  1  0  0  0  0
M  RAD  2   2   2   3   2
M  END
