Coordinates from ORCA-job 2-HOOC-C6H3-N2-B3LYPG-aug-cc-pVDZ-scan-d09-49-n400
 OpenBabel11091809063D

 15 14  0  0  0  0  0  0  0  0999 V2000
   -1.5788   -1.5126   -1.0565 C   0  0  0  0  0  0  0  0  0  0  0  0
   -0.2527   -1.1028   -1.0534 C   0  0  0  0  0  0  0  0  0  0  0  0
    0.1759    0.0614   -0.8836 C   0  0  0  0  0  0  0  0  0  0  0  0
   -0.5850    1.2019   -0.6486 C   0  0  0  0  0  0  0  0  0  0  0  0
   -1.9685    0.8879   -0.6214 C   0  0  0  0  0  0  0  0  0  0  0  0
   -2.4450   -0.4177   -0.8177 C   0  0  0  0  0  0  0  0  0  0  0  0
   -1.9494   -2.5242   -1.2137 H   0  0  0  0  0  0  0  0  0  0  0  0
   -2.6682    1.7053   -0.4442 H   0  0  0  0  0  0  0  0  0  0  0  0
    3.0746    0.1035   -0.5784 N   0  0  0  0  0  0  0  0  0  0  0  0
    3.7706    0.0208   -1.4326 N   0  0  0  0  0  0  0  0  0  0  0  0
   -3.5207   -0.5997   -0.7876 H   0  0  0  0  0  0  0  0  0  0  0  0
   -0.1169    2.5957   -0.4512 C   0  0  0  0  0  0  0  0  0  0  0  0
   -0.8438    3.5416   -0.2267 O   0  0  0  0  0  0  0  0  0  0  0  0
    1.2295    2.7117   -0.5572 O   0  0  0  0  0  0  0  0  0  0  0  0
    1.4372    3.6496   -0.4166 H   0  0  0  0  0  0  0  0  0  0  0  0
  1  2  2  0  0  0  0
  1  6  1  0  0  0  0
  2  3  1  0  0  0  0
  3  4  2  0  0  0  0
  4  5  1  0  0  0  0
  4 12  1  0  0  0  0
  5  8  1  0  0  0  0
  6 11  1  0  0  0  0
  6  5  2  0  0  0  0
  7  1  1  0  0  0  0
 10  9  3  0  0  0  0
 12 13  2  0  0  0  0
 14 12  1  0  0  0  0
 14 15  1  0  0  0  0
M  RAD  2   2   2   3   2
M  END
