Coordinates from ORCA-job 2-HOOC-C6H3-N2-B3LYPG-aug-cc-pVDZ-scan-d09-49-n400
 OpenBabel11091809063D

 15 15  0  0  0  0  0  0  0  0999 V2000
   -1.3833   -1.4726   -1.0497 C   0  0  0  0  0  0  0  0  0  0  0  0
    0.0316   -1.2923   -1.1091 C   0  0  0  0  0  0  0  0  0  0  0  0
    0.3541    0.0266   -0.9070 C   0  0  0  0  0  0  0  0  0  0  0  0
   -0.4482    1.1744   -0.6622 C   0  0  0  0  0  0  0  0  0  0  0  0
   -1.8116    0.8956   -0.6225 C   0  0  0  0  0  0  0  0  0  0  0  0
   -2.2719   -0.4230   -0.8159 C   0  0  0  0  0  0  0  0  0  0  0  0
   -1.7974   -2.4752   -1.1926 H   0  0  0  0  0  0  0  0  0  0  0  0
   -2.5038    1.7155   -0.4400 H   0  0  0  0  0  0  0  0  0  0  0  0
    1.8444    0.1974   -0.9730 N   0  0  0  0  0  0  0  0  0  0  0  0
    2.9495    0.1119   -1.0580 N   0  0  0  0  0  0  0  0  0  0  0  0
   -3.3472   -0.6116   -0.7793 H   0  0  0  0  0  0  0  0  0  0  0  0
   -0.0038    2.5759   -0.4539 C   0  0  0  0  0  0  0  0  0  0  0  0
   -0.7403    3.5155   -0.2468 O   0  0  0  0  0  0  0  0  0  0  0  0
    1.3504    2.7215   -0.5138 O   0  0  0  0  0  0  0  0  0  0  0  0
    1.5361    3.6629   -0.3656 H   0  0  0  0  0  0  0  0  0  0  0  0
  1  6  1  0  0  0  0
  2  1  2  0  0  0  0
  2  3  1  0  0  0  0
  3  4  2  0  0  0  0
  4  5  1  0  0  0  0
  4 12  1  0  0  0  0
  5  8  1  0  0  0  0
  6 11  1  0  0  0  0
  6  5  2  0  0  0  0
  7  1  1  0  0  0  0
  9  3  1  0  0  0  0
 10  9  1  0  0  0  0
 12 13  2  0  0  0  0
 14 12  1  0  0  0  0
 14 15  1  0  0  0  0
M  RAD  3   2   2   9   2  10   3
M  END
