Coordinates from ORCA-job Pyrrole-3-N2+-scan-d09-169-n800
 OpenBabel09191813553D

 11 10  0  0  0  0  0  0  0  0999 V2000
    7.5924    6.6289    1.6920 N   0  0  0  0  0  0  0  0  0  0  0  0
    8.4830    7.2638    1.8524 N   0  0  0  0  0  0  0  0  0  0  0  0
   -3.4772   -1.5186   -0.3544 C   0  0  0  0  0  0  0  0  0  0  0  0
   -3.9067   -0.5141   -1.1656 C   0  0  0  0  0  0  0  0  0  0  0  0
   -4.8882   -0.2164   -1.5082 H   0  0  0  0  0  0  0  0  0  0  0  0
   -2.8670    0.3715   -0.7990 C   0  0  0  0  0  0  0  0  0  0  0  0
   -3.0038    1.4437   -0.6850 H   0  0  0  0  0  0  0  0  0  0  0  0
   -1.8027   -0.2710   -0.1521 N   0  0  0  0  0  0  0  0  0  0  0  0
   -0.9602    0.1949    0.1750 H   0  0  0  0  0  0  0  0  0  0  0  0
   -2.1232   -1.5679   -0.0127 C   0  0  0  0  0  0  0  0  0  0  0  0
   -1.4628   -2.3826    0.2488 H   0  0  0  0  0  0  0  0  0  0  0  0
  1  2  3  0  0  0  0
  3 10  2  0  0  0  0
  4  6  2  0  0  0  0
  4  3  1  0  0  0  0
  5  4  1  0  0  0  0
  6  7  1  0  0  0  0
  6  8  1  0  0  0  0
  8 10  1  0  0  0  0
  8  9  1  0  0  0  0
 10 11  1  0  0  0  0
M  RAD  1   3   2
M  END
