Coordinates from ORCA-job Pyrrole-3-N2+-scan-d09-169-n800
 OpenBabel09191813553D

 11 10  0  0  0  0  0  0  0  0999 V2000
    8.5589    7.3039    1.8921 N   0  0  0  0  0  0  0  0  0  0  0  0
    9.4510    7.9371    2.0514 N   0  0  0  0  0  0  0  0  0  0  0  0
   -3.6929   -1.6681   -0.4029 C   0  0  0  0  0  0  0  0  0  0  0  0
   -4.1203   -0.6616   -1.2126 C   0  0  0  0  0  0  0  0  0  0  0  0
   -5.1008   -0.3625   -1.5567 H   0  0  0  0  0  0  0  0  0  0  0  0
   -3.0806    0.2224   -0.8418 C   0  0  0  0  0  0  0  0  0  0  0  0
   -3.2168    1.2946   -0.7257 H   0  0  0  0  0  0  0  0  0  0  0  0
   -2.0182   -0.4221   -0.1940 N   0  0  0  0  0  0  0  0  0  0  0  0
   -1.1764    0.0426    0.1364 H   0  0  0  0  0  0  0  0  0  0  0  0
   -2.3399   -1.7193   -0.0581 C   0  0  0  0  0  0  0  0  0  0  0  0
   -1.6805   -2.5349    0.2030 H   0  0  0  0  0  0  0  0  0  0  0  0
  1  2  3  0  0  0  0
  3 10  2  0  0  0  0
  4  6  2  0  0  0  0
  4  3  1  0  0  0  0
  5  4  1  0  0  0  0
  6  7  1  0  0  0  0
  6  8  1  0  0  0  0
  8 10  1  0  0  0  0
  8  9  1  0  0  0  0
 10 11  1  0  0  0  0
M  RAD  1   3   2
M  END
