Coordinates from ORCA-job Pyrrole-3-N2+-scan-d09-169-n800
 OpenBabel09191813553D

 11 10  0  0  0  0  0  0  0  0999 V2000
    3.1489    3.4170    1.0007 N   0  0  0  0  0  0  0  0  0  0  0  0
    4.0191    4.0670    1.2055 N   0  0  0  0  0  0  0  0  0  0  0  0
   -1.2147   -0.9368   -0.1285 C   0  0  0  0  0  0  0  0  0  0  0  0
   -2.3279   -0.8740   -0.9090 C   0  0  0  0  0  0  0  0  0  0  0  0
   -3.0848   -1.6020   -1.1664 H   0  0  0  0  0  0  0  0  0  0  0  0
   -2.5680    0.4941   -0.6450 C   0  0  0  0  0  0  0  0  0  0  0  0
   -3.5620    0.9189   -0.5310 H   0  0  0  0  0  0  0  0  0  0  0  0
   -1.4598    1.1472   -0.0886 N   0  0  0  0  0  0  0  0  0  0  0  0
   -1.4331    2.1335    0.1570 H   0  0  0  0  0  0  0  0  0  0  0  0
   -0.4883    0.2375    0.0912 C   0  0  0  0  0  0  0  0  0  0  0  0
    0.5539    0.4296    0.3055 H   0  0  0  0  0  0  0  0  0  0  0  0
  1  2  3  0  0  0  0
  3 10  2  0  0  0  0
  4  6  2  0  0  0  0
  4  3  1  0  0  0  0
  5  4  1  0  0  0  0
  6  7  1  0  0  0  0
  6  8  1  0  0  0  0
  8 10  1  0  0  0  0
  8  9  1  0  0  0  0
 10 11  1  0  0  0  0
M  RAD  1   3   2
M  END
