Coordinates from ORCA-job Pyrrole-3-N2+-scan-d09-169-n800
 OpenBabel09191813553D

 11 10  0  0  0  0  0  0  0  0999 V2000
    2.8883    3.0634    0.9097 N   0  0  0  0  0  0  0  0  0  0  0  0
    3.7701    3.6983    1.1118 N   0  0  0  0  0  0  0  0  0  0  0  0
   -1.0635   -0.8098   -0.1061 C   0  0  0  0  0  0  0  0  0  0  0  0
   -2.1781   -0.8412   -0.8866 C   0  0  0  0  0  0  0  0  0  0  0  0
   -2.8715   -1.6304   -1.1427 H   0  0  0  0  0  0  0  0  0  0  0  0
   -2.5320    0.5023   -0.6247 C   0  0  0  0  0  0  0  0  0  0  0  0
   -3.5579    0.8429   -0.5110 H   0  0  0  0  0  0  0  0  0  0  0  0
   -1.4820    1.2464   -0.0697 N   0  0  0  0  0  0  0  0  0  0  0  0
   -1.5374    2.2319    0.1741 H   0  0  0  0  0  0  0  0  0  0  0  0
   -0.4371    0.4223    0.1108 C   0  0  0  0  0  0  0  0  0  0  0  0
    0.5847    0.7059    0.3256 H   0  0  0  0  0  0  0  0  0  0  0  0
  1  2  3  0  0  0  0
  3 10  2  0  0  0  0
  4  6  2  0  0  0  0
  4  3  1  0  0  0  0
  5  4  1  0  0  0  0
  6  7  1  0  0  0  0
  6  8  1  0  0  0  0
  8 10  1  0  0  0  0
  8  9  1  0  0  0  0
 10 11  1  0  0  0  0
M  RAD  1   3   2
M  END
