Coordinates from ORCA-job Pyrrole-3-N2+-scan-d09-169-n800
 OpenBabel09191813553D

 11 10  0  0  0  0  0  0  0  0999 V2000
    7.8442    6.8045    1.7439 N   0  0  0  0  0  0  0  0  0  0  0  0
    8.7350    7.4391    1.9045 N   0  0  0  0  0  0  0  0  0  0  0  0
   -3.5332   -1.5576   -0.3673 C   0  0  0  0  0  0  0  0  0  0  0  0
   -3.9625   -0.5526   -1.1779 C   0  0  0  0  0  0  0  0  0  0  0  0
   -4.9437   -0.2546   -1.5209 H   0  0  0  0  0  0  0  0  0  0  0  0
   -2.9227    0.3326   -0.8101 C   0  0  0  0  0  0  0  0  0  0  0  0
   -3.0592    1.4049   -0.6955 H   0  0  0  0  0  0  0  0  0  0  0  0
   -1.8589   -0.3102   -0.1630 N   0  0  0  0  0  0  0  0  0  0  0  0
   -1.0168    0.1555    0.1653 H   0  0  0  0  0  0  0  0  0  0  0  0
   -2.1796   -1.6074   -0.0245 C   0  0  0  0  0  0  0  0  0  0  0  0
   -1.5193   -2.4223    0.2369 H   0  0  0  0  0  0  0  0  0  0  0  0
  1  2  3  0  0  0  0
  3 10  2  0  0  0  0
  4  6  2  0  0  0  0
  4  3  1  0  0  0  0
  5  4  1  0  0  0  0
  6  7  1  0  0  0  0
  6  8  1  0  0  0  0
  8 10  1  0  0  0  0
  8  9  1  0  0  0  0
 10 11  1  0  0  0  0
M  RAD  1   3   2
M  END
