Coordinates from ORCA-job Pyrrole-3-N2+-scan-d09-169-n800
 OpenBabel09191813553D

 11 10  0  0  0  0  0  0  0  0999 V2000
    2.5502    2.2443    0.7185 N   0  0  0  0  0  0  0  0  0  0  0  0
    3.5900    2.5636    0.9110 N   0  0  0  0  0  0  0  0  0  0  0  0
   -0.6853   -0.3301   -0.0420 C   0  0  0  0  0  0  0  0  0  0  0  0
   -1.7256   -0.7328   -0.8224 C   0  0  0  0  0  0  0  0  0  0  0  0
   -2.1263   -1.7074   -1.0646 H   0  0  0  0  0  0  0  0  0  0  0  0
   -2.4951    0.4289   -0.5843 C   0  0  0  0  0  0  0  0  0  0  0  0
   -3.5767    0.4229   -0.4776 H   0  0  0  0  0  0  0  0  0  0  0  0
   -1.7434    1.4794   -0.0409 N   0  0  0  0  0  0  0  0  0  0  0  0
   -2.1146    2.3987    0.1832 H   0  0  0  0  0  0  0  0  0  0  0  0
   -0.4888    1.0392    0.1535 C   0  0  0  0  0  0  0  0  0  0  0  0
    0.3989    1.6254    0.3570 H   0  0  0  0  0  0  0  0  0  0  0  0
  1  2  3  0  0  0  0
  3 10  2  0  0  0  0
  4  6  2  0  0  0  0
  4  3  1  0  0  0  0
  5  4  1  0  0  0  0
  6  7  1  0  0  0  0
  6  8  1  0  0  0  0
  8 10  1  0  0  0  0
  8  9  1  0  0  0  0
 10 11  1  0  0  0  0
M  RAD  1   3   2
M  END
