Coordinates from ORCA-job Pyrrole-3-N2+-scan-d09-169-n800
 OpenBabel09191813553D

 11 10  0  0  0  0  0  0  0  0999 V2000
    4.5430    4.4848    1.0703 N   0  0  0  0  0  0  0  0  0  0  0  0
    5.4258    5.1309    1.2287 N   0  0  0  0  0  0  0  0  0  0  0  0
   -2.7894   -1.0466   -0.1869 C   0  0  0  0  0  0  0  0  0  0  0  0
   -3.2394   -0.0587   -1.0072 C   0  0  0  0  0  0  0  0  0  0  0  0
   -4.2284    0.2265   -1.3385 H   0  0  0  0  0  0  0  0  0  0  0  0
   -2.2000    0.8400   -0.6724 C   0  0  0  0  0  0  0  0  0  0  0  0
   -2.3423    1.9131   -0.5739 H   0  0  0  0  0  0  0  0  0  0  0  0
   -1.1207    0.2159   -0.0327 N   0  0  0  0  0  0  0  0  0  0  0  0
   -0.2764    0.6932    0.2728 H   0  0  0  0  0  0  0  0  0  0  0  0
   -1.4296   -1.0808    0.1334 C   0  0  0  0  0  0  0  0  0  0  0  0
   -0.7591   -1.8863    0.3975 H   0  0  0  0  0  0  0  0  0  0  0  0
  1  2  3  0  0  0  0
  3 10  2  0  0  0  0
  4  6  2  0  0  0  0
  4  3  1  0  0  0  0
  5  4  1  0  0  0  0
  6  7  1  0  0  0  0
  6  8  1  0  0  0  0
  8 10  1  0  0  0  0
  8  9  1  0  0  0  0
 10 11  1  0  0  0  0
M  RAD  1   3   2
M  END
