Coordinates from ORCA-job Pyrrole-3-N2+-scan-d09-169-n800
 OpenBabel09191813553D

 11 10  0  0  0  0  0  0  0  0999 V2000
    3.4705    3.8420    1.0976 N   0  0  0  0  0  0  0  0  0  0  0  0
    4.3395    4.4931    1.3043 N   0  0  0  0  0  0  0  0  0  0  0  0
   -1.3928   -1.0739   -0.1554 C   0  0  0  0  0  0  0  0  0  0  0  0
   -2.4897   -0.9063   -0.9433 C   0  0  0  0  0  0  0  0  0  0  0  0
   -3.3068   -1.5617   -1.2120 H   0  0  0  0  0  0  0  0  0  0  0  0
   -2.6084    0.4760   -0.6704 C   0  0  0  0  0  0  0  0  0  0  0  0
   -3.5615    0.9868   -0.5598 H   0  0  0  0  0  0  0  0  0  0  0  0
   -1.4508    1.0234   -0.1007 N   0  0  0  0  0  0  0  0  0  0  0  0
   -1.3380    2.0018    0.1522 H   0  0  0  0  0  0  0  0  0  0  0  0
   -0.5665    0.0288    0.0791 C   0  0  0  0  0  0  0  0  0  0  0  0
    0.4877    0.1218    0.2996 H   0  0  0  0  0  0  0  0  0  0  0  0
  1  2  3  0  0  0  0
  3 10  2  0  0  0  0
  4  6  2  0  0  0  0
  4  3  1  0  0  0  0
  5  4  1  0  0  0  0
  6  7  1  0  0  0  0
  6  8  1  0  0  0  0
  8 10  1  0  0  0  0
  8  9  1  0  0  0  0
 10 11  1  0  0  0  0
M  RAD  1   3   2
M  END
