Coordinates from ORCA-job Pyrrole-3-N2+-scan-d09-169-n800
 OpenBabel09191813553D

 11 10  0  0  0  0  0  0  0  0999 V2000
    4.8446    4.6998    1.1300 N   0  0  0  0  0  0  0  0  0  0  0  0
    5.7287    5.3440    1.2891 N   0  0  0  0  0  0  0  0  0  0  0  0
   -2.8591   -1.0933   -0.2061 C   0  0  0  0  0  0  0  0  0  0  0  0
   -3.3042   -0.1017   -1.0248 C   0  0  0  0  0  0  0  0  0  0  0  0
   -4.2915    0.1866   -1.3585 H   0  0  0  0  0  0  0  0  0  0  0  0
   -2.2645    0.7940   -0.6833 C   0  0  0  0  0  0  0  0  0  0  0  0
   -2.4054    1.8669   -0.5815 H   0  0  0  0  0  0  0  0  0  0  0  0
   -1.1885    0.1655   -0.0420 N   0  0  0  0  0  0  0  0  0  0  0  0
   -0.3442    0.6400    0.2677 H   0  0  0  0  0  0  0  0  0  0  0  0
   -1.5004   -1.1310    0.1185 C   0  0  0  0  0  0  0  0  0  0  0  0
   -0.8323   -1.9388    0.3820 H   0  0  0  0  0  0  0  0  0  0  0  0
  1  2  3  0  0  0  0
  3 10  2  0  0  0  0
  4  6  2  0  0  0  0
  4  3  1  0  0  0  0
  5  4  1  0  0  0  0
  6  7  1  0  0  0  0
  6  8  1  0  0  0  0
  8 10  1  0  0  0  0
  8  9  1  0  0  0  0
 10 11  1  0  0  0  0
M  RAD  1   3   2
M  END
