Coordinates from ORCA-job Pyrrole-3-N2+-scan-d09-169-n800
 OpenBabel09191813553D

 11 10  0  0  0  0  0  0  0  0999 V2000
    2.5982    1.7976    0.5553 N   0  0  0  0  0  0  0  0  0  0  0  0
    3.6924    1.9324    0.6296 N   0  0  0  0  0  0  0  0  0  0  0  0
   -0.5844   -0.0076    0.1303 C   0  0  0  0  0  0  0  0  0  0  0  0
   -1.4279   -0.6095   -0.7521 C   0  0  0  0  0  0  0  0  0  0  0  0
   -1.5976   -1.6443   -1.0157 H   0  0  0  0  0  0  0  0  0  0  0  0
   -2.4339    0.3765   -0.6291 C   0  0  0  0  0  0  0  0  0  0  0  0
   -3.4979    0.1549   -0.6432 H   0  0  0  0  0  0  0  0  0  0  0  0
   -1.9731    1.5567   -0.0304 N   0  0  0  0  0  0  0  0  0  0  0  0
   -2.5436    2.3822    0.1317 H   0  0  0  0  0  0  0  0  0  0  0  0
   -0.6883    1.3729    0.3165 C   0  0  0  0  0  0  0  0  0  0  0  0
    0.0395    2.1202    0.5983 H   0  0  0  0  0  0  0  0  0  0  0  0
  1  2  3  0  0  0  0
  3 10  2  0  0  0  0
  4  6  2  0  0  0  0
  4  3  1  0  0  0  0
  5  4  1  0  0  0  0
  6  8  1  0  0  0  0
  7  6  1  0  0  0  0
  8  9  1  0  0  0  0
  8 10  1  0  0  0  0
 10 11  1  0  0  0  0
M  RAD  1   3   2
M  END
