Coordinates from ORCA-job Pyrrole-3-N2+-scan-d09-169-n800
 OpenBabel09191813553D

 11 10  0  0  0  0  0  0  0  0999 V2000
    5.2132    4.9606    1.2040 N   0  0  0  0  0  0  0  0  0  0  0  0
    6.0984    5.6031    1.3638 N   0  0  0  0  0  0  0  0  0  0  0  0
   -2.9432   -1.1502   -0.2282 C   0  0  0  0  0  0  0  0  0  0  0  0
   -3.3841   -0.1553   -1.0451 C   0  0  0  0  0  0  0  0  0  0  0  0
   -4.3700    0.1357   -1.3809 H   0  0  0  0  0  0  0  0  0  0  0  0
   -2.3440    0.7375   -0.6976 C   0  0  0  0  0  0  0  0  0  0  0  0
   -2.4834    1.8104   -0.5929 H   0  0  0  0  0  0  0  0  0  0  0  0
   -1.2711    0.1052   -0.0550 N   0  0  0  0  0  0  0  0  0  0  0  0
   -0.4269    0.5773    0.2590 H   0  0  0  0  0  0  0  0  0  0  0  0
   -1.5857   -1.1913    0.1005 C   0  0  0  0  0  0  0  0  0  0  0  0
   -0.9197   -2.0010    0.3635 H   0  0  0  0  0  0  0  0  0  0  0  0
  1  2  3  0  0  0  0
  3 10  2  0  0  0  0
  4  6  2  0  0  0  0
  4  3  1  0  0  0  0
  5  4  1  0  0  0  0
  6  7  1  0  0  0  0
  6  8  1  0  0  0  0
  8 10  1  0  0  0  0
  8  9  1  0  0  0  0
 10 11  1  0  0  0  0
M  RAD  1   3   2
M  END
