Coordinates from ORCA-job Pyrrole-3-N2+-scan-d09-169-n800
 OpenBabel09191813553D

 11 10  0  0  0  0  0  0  0  0999 V2000
    8.2680    7.1001    1.8314 N   0  0  0  0  0  0  0  0  0  0  0  0
    9.1591    7.7343    1.9919 N   0  0  0  0  0  0  0  0  0  0  0  0
   -3.6278   -1.6231   -0.3885 C   0  0  0  0  0  0  0  0  0  0  0  0
   -4.0560   -0.6172   -1.1985 C   0  0  0  0  0  0  0  0  0  0  0  0
   -5.0368   -0.3186   -1.5422 H   0  0  0  0  0  0  0  0  0  0  0  0
   -3.0163    0.2673   -0.8288 C   0  0  0  0  0  0  0  0  0  0  0  0
   -3.1527    1.3395   -0.7134 H   0  0  0  0  0  0  0  0  0  0  0  0
   -1.9534   -0.3764   -0.1814 N   0  0  0  0  0  0  0  0  0  0  0  0
   -1.1115    0.0887    0.1483 H   0  0  0  0  0  0  0  0  0  0  0  0
   -2.2745   -1.6737   -0.0444 C   0  0  0  0  0  0  0  0  0  0  0  0
   -1.6148   -2.4890    0.2168 H   0  0  0  0  0  0  0  0  0  0  0  0
  1  2  3  0  0  0  0
  3 10  2  0  0  0  0
  4  6  2  0  0  0  0
  4  3  1  0  0  0  0
  5  4  1  0  0  0  0
  6  7  1  0  0  0  0
  6  8  1  0  0  0  0
  8 10  1  0  0  0  0
  8  9  1  0  0  0  0
 10 11  1  0  0  0  0
M  RAD  1   3   2
M  END
