Coordinates from ORCA-job Pyrrole-3-N2+-scan-d09-169-n800
 OpenBabel09191813553D

 11 10  0  0  0  0  0  0  0  0999 V2000
    6.3354    5.7496    1.4328 N   0  0  0  0  0  0  0  0  0  0  0  0
    7.2236    6.3877    1.5937 N   0  0  0  0  0  0  0  0  0  0  0  0
   -3.1962   -1.3238   -0.2898 C   0  0  0  0  0  0  0  0  0  0  0  0
   -3.6299   -0.3230   -1.1033 C   0  0  0  0  0  0  0  0  0  0  0  0
   -4.6129   -0.0275   -1.4432 H   0  0  0  0  0  0  0  0  0  0  0  0
   -2.5896    0.5650   -0.7443 C   0  0  0  0  0  0  0  0  0  0  0  0
   -2.7269    1.6376   -0.6340 H   0  0  0  0  0  0  0  0  0  0  0  0
   -1.5221   -0.0739   -0.0991 N   0  0  0  0  0  0  0  0  0  0  0  0
   -0.6787    0.3941    0.2228 H   0  0  0  0  0  0  0  0  0  0  0  0
   -1.8408   -1.3705    0.0467 C   0  0  0  0  0  0  0  0  0  0  0  0
   -1.1785   -2.1835    0.3088 H   0  0  0  0  0  0  0  0  0  0  0  0
  1  2  3  0  0  0  0
  3 10  2  0  0  0  0
  4  6  2  0  0  0  0
  4  3  1  0  0  0  0
  5  4  1  0  0  0  0
  6  7  1  0  0  0  0
  6  8  1  0  0  0  0
  8 10  1  0  0  0  0
  8  9  1  0  0  0  0
 10 11  1  0  0  0  0
M  RAD  1   3   2
M  END
