Coordinates from ORCA-job Pyrrole-3-N2+-scan-d09-169-n800
 OpenBabel09191813553D

 11 10  0  0  0  0  0  0  0  0999 V2000
    3.7572    3.9246    0.9247 N   0  0  0  0  0  0  0  0  0  0  0  0
    4.6346    4.5779    1.0837 N   0  0  0  0  0  0  0  0  0  0  0  0
   -2.6110   -0.9198   -0.1176 C   0  0  0  0  0  0  0  0  0  0  0  0
   -3.0780    0.0512   -0.9486 C   0  0  0  0  0  0  0  0  0  0  0  0
   -4.0739    0.3298   -1.2649 H   0  0  0  0  0  0  0  0  0  0  0  0
   -2.0321    0.9565   -0.6543 C   0  0  0  0  0  0  0  0  0  0  0  0
   -2.1725    2.0315   -0.5748 H   0  0  0  0  0  0  0  0  0  0  0  0
   -0.9393    0.3456   -0.0248 N   0  0  0  0  0  0  0  0  0  0  0  0
   -0.0887    0.8291    0.2526 H   0  0  0  0  0  0  0  0  0  0  0  0
   -1.2445   -0.9472    0.1744 C   0  0  0  0  0  0  0  0  0  0  0  0
   -0.5683   -1.7473    0.4409 H   0  0  0  0  0  0  0  0  0  0  0  0
  1  2  3  0  0  0  0
  3 10  2  0  0  0  0
  4  6  2  0  0  0  0
  4  3  1  0  0  0  0
  5  4  1  0  0  0  0
  6  7  1  0  0  0  0
  6  8  1  0  0  0  0
  8 10  1  0  0  0  0
  8  9  1  0  0  0  0
 10 11  1  0  0  0  0
M  RAD  1   3   2
M  END
