Coordinates from ORCA-job Pyrrole-3-N2+-scan-d09-169-n800
 OpenBabel09191813553D

 11 11  0  0  0  0  0  0  0  0999 V2000
    1.7162    0.8210    0.1946 N   0  0  0  0  0  0  0  0  0  0  0  0
    2.8150    0.7875    0.3016 N   0  0  0  0  0  0  0  0  0  0  0  0
   -0.1138    0.8209   -0.0084 C   0  0  0  0  0  0  0  0  0  0  0  0
   -0.8199   -0.2474   -0.5574 C   0  0  0  0  0  0  0  0  0  0  0  0
   -0.4955   -1.2009   -0.9415 H   0  0  0  0  0  0  0  0  0  0  0  0
   -2.1075    0.2612   -0.4756 C   0  0  0  0  0  0  0  0  0  0  0  0
   -3.0310   -0.2074   -0.7841 H   0  0  0  0  0  0  0  0  0  0  0  0
   -2.0893    1.5211    0.0809 N   0  0  0  0  0  0  0  0  0  0  0  0
   -2.9125    2.0900    0.2401 H   0  0  0  0  0  0  0  0  0  0  0  0
   -0.8211    1.9206    0.3977 C   0  0  0  0  0  0  0  0  0  0  0  0
   -0.5572    2.8655    0.8432 H   0  0  0  0  0  0  0  0  0  0  0  0
  1  2  1  0  0  0  0
  3  1  1  0  0  0  0
  3 10  2  0  0  0  0
  4  6  2  0  0  0  0
  4  3  1  0  0  0  0
  5  4  1  0  0  0  0
  6  8  1  0  0  0  0
  7  6  1  0  0  0  0
  8  9  1  0  0  0  0
  8 10  1  0  0  0  0
 10 11  1  0  0  0  0
M  RAD  2   1   2   2   3
M  END
