Coordinates from ORCA-job Pyrrole-3-N2+-scan-d09-169-n800
 OpenBabel09191813553D

 11 11  0  0  0  0  0  0  0  0999 V2000
    1.2888    0.8114    0.1431 N   0  0  0  0  0  0  0  0  0  0  0  0
    2.4114    0.7729    0.2505 N   0  0  0  0  0  0  0  0  0  0  0  0
    0.0950    0.8302    0.0190 C   0  0  0  0  0  0  0  0  0  0  0  0
   -0.7469   -0.2221   -0.5381 C   0  0  0  0  0  0  0  0  0  0  0  0
   -0.4019   -1.1725   -0.9186 H   0  0  0  0  0  0  0  0  0  0  0  0
   -2.0210    0.2453   -0.4732 C   0  0  0  0  0  0  0  0  0  0  0  0
   -2.9520   -0.2100   -0.7769 H   0  0  0  0  0  0  0  0  0  0  0  0
   -1.9969    1.5220    0.0918 N   0  0  0  0  0  0  0  0  0  0  0  0
   -2.8209    2.0924    0.2518 H   0  0  0  0  0  0  0  0  0  0  0  0
   -0.7591    1.9045    0.3973 C   0  0  0  0  0  0  0  0  0  0  0  0
   -0.5130    2.8578    0.8444 H   0  0  0  0  0  0  0  0  0  0  0  0
  1  2  1  0  0  0  0
  3  1  1  0  0  0  0
  3 10  2  0  0  0  0
  4  6  2  0  0  0  0
  4  3  1  0  0  0  0
  5  4  1  0  0  0  0
  6  8  1  0  0  0  0
  7  6  1  0  0  0  0
  8  9  1  0  0  0  0
  8 10  1  0  0  0  0
 10 11  1  0  0  0  0
M  RAD  2   1   2   2   3
M  END
