Coordinates from ORCA-job Pyrrole-3-N2+-scan-d09-169-n800
 OpenBabel09191813553D

 11 10  0  0  0  0  0  0  0  0999 V2000
    7.8043    6.7767    1.7357 N   0  0  0  0  0  0  0  0  0  0  0  0
    8.6951    7.4114    1.8961 N   0  0  0  0  0  0  0  0  0  0  0  0
   -3.5245   -1.5514   -0.3651 C   0  0  0  0  0  0  0  0  0  0  0  0
   -3.9535   -0.5465   -1.1760 C   0  0  0  0  0  0  0  0  0  0  0  0
   -4.9347   -0.2484   -1.5190 H   0  0  0  0  0  0  0  0  0  0  0  0
   -2.9139    0.3388   -0.8083 C   0  0  0  0  0  0  0  0  0  0  0  0
   -3.0506    1.4111   -0.6938 H   0  0  0  0  0  0  0  0  0  0  0  0
   -1.8500   -0.3041   -0.1612 N   0  0  0  0  0  0  0  0  0  0  0  0
   -1.0076    0.1615    0.1666 H   0  0  0  0  0  0  0  0  0  0  0  0
   -2.1707   -1.6011   -0.0227 C   0  0  0  0  0  0  0  0  0  0  0  0
   -1.5105   -2.4160    0.2387 H   0  0  0  0  0  0  0  0  0  0  0  0
  1  2  3  0  0  0  0
  3 10  2  0  0  0  0
  4  6  2  0  0  0  0
  4  3  1  0  0  0  0
  5  4  1  0  0  0  0
  6  7  1  0  0  0  0
  6  8  1  0  0  0  0
  8 10  1  0  0  0  0
  8  9  1  0  0  0  0
 10 11  1  0  0  0  0
M  RAD  1   3   2
M  END
