Coordinates from ORCA-job Pyrrole-3-N2+-scan-d09-169-n800
 OpenBabel09191813553D

 11 10  0  0  0  0  0  0  0  0999 V2000
    2.5824    2.0298    0.6640 N   0  0  0  0  0  0  0  0  0  0  0  0
    3.6607    2.2086    0.8253 N   0  0  0  0  0  0  0  0  0  0  0  0
   -0.6108   -0.1522    0.0018 C   0  0  0  0  0  0  0  0  0  0  0  0
   -1.5792   -0.6761   -0.7989 C   0  0  0  0  0  0  0  0  0  0  0  0
   -1.8594   -1.6916   -1.0424 H   0  0  0  0  0  0  0  0  0  0  0  0
   -2.4830    0.3903   -0.5874 C   0  0  0  0  0  0  0  0  0  0  0  0
   -3.5587    0.2592   -0.5035 H   0  0  0  0  0  0  0  0  0  0  0  0
   -1.8709    1.5244   -0.0365 N   0  0  0  0  0  0  0  0  0  0  0  0
   -2.3512    2.3958    0.1715 H   0  0  0  0  0  0  0  0  0  0  0  0
   -0.5797    1.2320    0.1906 C   0  0  0  0  0  0  0  0  0  0  0  0
    0.2334    1.9117    0.4067 H   0  0  0  0  0  0  0  0  0  0  0  0
  1  2  3  0  0  0  0
  3 10  2  0  0  0  0
  4  6  2  0  0  0  0
  4  3  1  0  0  0  0
  5  4  1  0  0  0  0
  6  7  1  0  0  0  0
  6  8  1  0  0  0  0
  8  9  1  0  0  0  0
  8 10  1  0  0  0  0
 10 11  1  0  0  0  0
M  RAD  1   3   2
M  END
