Coordinates from ORCA-job Pyrrole-3-N2+-scan-d09-169-n800
 OpenBabel09191813553D

 11 10  0  0  0  0  0  0  0  0999 V2000
    5.8201    5.3881    1.3273 N   0  0  0  0  0  0  0  0  0  0  0  0
    6.7072    6.0278    1.4879 N   0  0  0  0  0  0  0  0  0  0  0  0
   -3.0803   -1.2440   -0.2624 C   0  0  0  0  0  0  0  0  0  0  0  0
   -3.5170   -0.2455   -1.0769 C   0  0  0  0  0  0  0  0  0  0  0  0
   -4.5011    0.0483   -1.4153 H   0  0  0  0  0  0  0  0  0  0  0  0
   -2.4764    0.6442   -0.7225 C   0  0  0  0  0  0  0  0  0  0  0  0
   -2.6142    1.7170   -0.6144 H   0  0  0  0  0  0  0  0  0  0  0  0
   -1.4069    0.0079   -0.0784 N   0  0  0  0  0  0  0  0  0  0  0  0
   -0.5634    0.4775    0.2408 H   0  0  0  0  0  0  0  0  0  0  0  0
   -1.7241   -1.2888    0.0713 C   0  0  0  0  0  0  0  0  0  0  0  0
   -1.0605   -2.1006    0.3338 H   0  0  0  0  0  0  0  0  0  0  0  0
  1  2  3  0  0  0  0
  3 10  2  0  0  0  0
  4  6  2  0  0  0  0
  4  3  1  0  0  0  0
  5  4  1  0  0  0  0
  6  7  1  0  0  0  0
  6  8  1  0  0  0  0
  8 10  1  0  0  0  0
  8  9  1  0  0  0  0
 10 11  1  0  0  0  0
M  RAD  1   3   2
M  END
