Coordinates from ORCA-job Pyrrole-3-N2+-scan-d09-169-n800
 OpenBabel09191813553D

 11 10  0  0  0  0  0  0  0  0999 V2000
    7.5659    6.6103    1.6865 N   0  0  0  0  0  0  0  0  0  0  0  0
    8.4564    7.2454    1.8470 N   0  0  0  0  0  0  0  0  0  0  0  0
   -3.4713   -1.5145   -0.3531 C   0  0  0  0  0  0  0  0  0  0  0  0
   -3.9009   -0.5101   -1.1643 C   0  0  0  0  0  0  0  0  0  0  0  0
   -4.8824   -0.2124   -1.5069 H   0  0  0  0  0  0  0  0  0  0  0  0
   -2.8612    0.3755   -0.7978 C   0  0  0  0  0  0  0  0  0  0  0  0
   -2.9980    1.4478   -0.6839 H   0  0  0  0  0  0  0  0  0  0  0  0
   -1.7968   -0.2669   -0.1510 N   0  0  0  0  0  0  0  0  0  0  0  0
   -0.9543    0.1991    0.1760 H   0  0  0  0  0  0  0  0  0  0  0  0
   -2.1173   -1.5638   -0.0114 C   0  0  0  0  0  0  0  0  0  0  0  0
   -1.4568   -2.3784    0.2500 H   0  0  0  0  0  0  0  0  0  0  0  0
  1  2  3  0  0  0  0
  3 10  2  0  0  0  0
  4  6  2  0  0  0  0
  4  3  1  0  0  0  0
  5  4  1  0  0  0  0
  6  7  1  0  0  0  0
  6  8  1  0  0  0  0
  8 10  1  0  0  0  0
  8  9  1  0  0  0  0
 10 11  1  0  0  0  0
M  RAD  1   3   2
M  END
