Coordinates from ORCA-job Pyrrole-3-N2+-scan-d09-169-n800
 OpenBabel09191813553D

 11 10  0  0  0  0  0  0  0  0999 V2000
    2.7592    2.9137    0.8671 N   0  0  0  0  0  0  0  0  0  0  0  0
    3.6412    3.5488    1.0668 N   0  0  0  0  0  0  0  0  0  0  0  0
   -1.0040   -0.7587   -0.0956 C   0  0  0  0  0  0  0  0  0  0  0  0
   -2.1169   -0.8221   -0.8765 C   0  0  0  0  0  0  0  0  0  0  0  0
   -2.7875   -1.6308   -1.1325 H   0  0  0  0  0  0  0  0  0  0  0  0
   -2.5088    0.5109   -0.6154 C   0  0  0  0  0  0  0  0  0  0  0  0
   -3.5440    0.8223   -0.5025 H   0  0  0  0  0  0  0  0  0  0  0  0
   -1.4806    1.2843   -0.0600 N   0  0  0  0  0  0  0  0  0  0  0  0
   -1.5638    2.2679    0.1831 H   0  0  0  0  0  0  0  0  0  0  0  0
   -0.4122    0.4906    0.1210 C   0  0  0  0  0  0  0  0  0  0  0  0
    0.6008    0.8053    0.3356 H   0  0  0  0  0  0  0  0  0  0  0  0
  1  2  3  0  0  0  0
  3 10  2  0  0  0  0
  4  6  2  0  0  0  0
  4  3  1  0  0  0  0
  5  4  1  0  0  0  0
  6  7  1  0  0  0  0
  6  8  1  0  0  0  0
  8 10  1  0  0  0  0
  8  9  1  0  0  0  0
 10 11  1  0  0  0  0
M  RAD  1   3   2
M  END
