Coordinates from ORCA-job Pyrrole-3-N2+-scan-d09-169-n800
 OpenBabel09191813553D

 11 10  0  0  0  0  0  0  0  0999 V2000
    2.6062    1.3069    0.3634 N   0  0  0  0  0  0  0  0  0  0  0  0
    3.7044    1.4239    0.3996 N   0  0  0  0  0  0  0  0  0  0  0  0
   -0.5173    0.3009    0.2639 C   0  0  0  0  0  0  0  0  0  0  0  0
   -1.1634   -0.4345   -0.6820 C   0  0  0  0  0  0  0  0  0  0  0  0
   -1.1186   -1.4789   -0.9579 H   0  0  0  0  0  0  0  0  0  0  0  0
   -2.3368    0.3526   -0.6500 C   0  0  0  0  0  0  0  0  0  0  0  0
   -3.3384   -0.0534   -0.7629 H   0  0  0  0  0  0  0  0  0  0  0  0
   -2.1493    1.5870   -0.0157 N   0  0  0  0  0  0  0  0  0  0  0  0
   -2.8729    2.2911    0.1013 H   0  0  0  0  0  0  0  0  0  0  0  0
   -0.8855    1.6345    0.4411 C   0  0  0  0  0  0  0  0  0  0  0  0
   -0.3449    2.5019    0.7902 H   0  0  0  0  0  0  0  0  0  0  0  0
  1  2  3  0  0  0  0
  3 10  2  0  0  0  0
  4  6  2  0  0  0  0
  4  3  1  0  0  0  0
  5  4  1  0  0  0  0
  6  8  1  0  0  0  0
  7  6  1  0  0  0  0
  8  9  1  0  0  0  0
  8 10  1  0  0  0  0
 10 11  1  0  0  0  0
M  RAD  1   3   2
M  END
