Coordinates from ORCA-job Pyrrole-3-N2+-scan-d09-169-n800
 OpenBabel09191813553D

 11 10  0  0  0  0  0  0  0  0999 V2000
    2.2534    1.0135    0.2478 N   0  0  0  0  0  0  0  0  0  0  0  0
    3.3567    1.0618    0.2778 N   0  0  0  0  0  0  0  0  0  0  0  0
   -0.3828    0.5203    0.2845 C   0  0  0  0  0  0  0  0  0  0  0  0
   -0.9544   -0.3014   -0.6435 C   0  0  0  0  0  0  0  0  0  0  0  0
   -0.7769   -1.3303   -0.9215 H   0  0  0  0  0  0  0  0  0  0  0  0
   -2.2077    0.3412   -0.6272 C   0  0  0  0  0  0  0  0  0  0  0  0
   -3.1572   -0.1629   -0.7781 H   0  0  0  0  0  0  0  0  0  0  0  0
   -2.1647    1.5853    0.0086 N   0  0  0  0  0  0  0  0  0  0  0  0
   -2.9677    2.1945    0.1357 H   0  0  0  0  0  0  0  0  0  0  0  0
   -0.9155    1.7910    0.4724 C   0  0  0  0  0  0  0  0  0  0  0  0
   -0.4997    2.7190    0.8346 H   0  0  0  0  0  0  0  0  0  0  0  0
  1  2  3  0  0  0  0
  3 10  2  0  0  0  0
  4  6  2  0  0  0  0
  4  3  1  0  0  0  0
  5  4  1  0  0  0  0
  6  8  1  0  0  0  0
  7  6  1  0  0  0  0
  8  9  1  0  0  0  0
  8 10  1  0  0  0  0
 10 11  1  0  0  0  0
M  RAD  1   3   2
M  END
