Coordinates from ORCA-job Pyrrole-3-N2+-scan-d09-169-n800
 OpenBabel09191813553D

 11 10  0  0  0  0  0  0  0  0999 V2000
    2.5586    2.5148    0.7785 N   0  0  0  0  0  0  0  0  0  0  0  0
    3.4768    3.0939    0.9834 N   0  0  0  0  0  0  0  0  0  0  0  0
   -0.8326   -0.5728   -0.0734 C   0  0  0  0  0  0  0  0  0  0  0  0
   -1.9326   -0.7802   -0.8481 C   0  0  0  0  0  0  0  0  0  0  0  0
   -2.4980   -1.6680   -1.0955 H   0  0  0  0  0  0  0  0  0  0  0  0
   -2.4864    0.4950   -0.5927 C   0  0  0  0  0  0  0  0  0  0  0  0
   -3.5517    0.6765   -0.4772 H   0  0  0  0  0  0  0  0  0  0  0  0
   -1.5595    1.3929   -0.0465 N   0  0  0  0  0  0  0  0  0  0  0  0
   -1.7638    2.3600    0.1909 H   0  0  0  0  0  0  0  0  0  0  0  0
   -0.3984    0.7405    0.1326 C   0  0  0  0  0  0  0  0  0  0  0  0
    0.5710    1.1795    0.3392 H   0  0  0  0  0  0  0  0  0  0  0  0
  1  2  3  0  0  0  0
  3 10  2  0  0  0  0
  4  6  2  0  0  0  0
  4  3  1  0  0  0  0
  5  4  1  0  0  0  0
  6  7  1  0  0  0  0
  6  8  1  0  0  0  0
  8 10  1  0  0  0  0
  8  9  1  0  0  0  0
 10 11  1  0  0  0  0
M  RAD  1   3   2
M  END
