Coordinates from ORCA-job Pyrrole-3-N2+-scan-d09-169-n800
 OpenBabel09191813553D

 11 11  0  0  0  0  0  0  0  0999 V2000
    1.3024    0.8118    0.1446 N   0  0  0  0  0  0  0  0  0  0  0  0
    2.4236    0.7736    0.2520 N   0  0  0  0  0  0  0  0  0  0  0  0
    0.0887    0.8298    0.0180 C   0  0  0  0  0  0  0  0  0  0  0  0
   -0.7490   -0.2224   -0.5383 C   0  0  0  0  0  0  0  0  0  0  0  0
   -0.4053   -1.1731   -0.9189 H   0  0  0  0  0  0  0  0  0  0  0  0
   -2.0237    0.2458   -0.4734 C   0  0  0  0  0  0  0  0  0  0  0  0
   -2.9546   -0.2096   -0.7772 H   0  0  0  0  0  0  0  0  0  0  0  0
   -1.9996    1.5218    0.0914 N   0  0  0  0  0  0  0  0  0  0  0  0
   -2.8235    2.0922    0.2513 H   0  0  0  0  0  0  0  0  0  0  0  0
   -0.7608    1.9044    0.3972 C   0  0  0  0  0  0  0  0  0  0  0  0
   -0.5149    2.8576    0.8444 H   0  0  0  0  0  0  0  0  0  0  0  0
  1  2  1  0  0  0  0
  3  1  1  0  0  0  0
  3 10  2  0  0  0  0
  4  6  2  0  0  0  0
  4  3  1  0  0  0  0
  5  4  1  0  0  0  0
  6  8  1  0  0  0  0
  7  6  1  0  0  0  0
  8  9  1  0  0  0  0
  8 10  1  0  0  0  0
 10 11  1  0  0  0  0
M  RAD  2   1   2   2   3
M  END
