Coordinates from ORCA-job Pyrrole-3-N2+-scan-d09-169-n800
 OpenBabel09191813553D

 11 10  0  0  0  0  0  0  0  0999 V2000
    5.6747    5.2863    1.2978 N   0  0  0  0  0  0  0  0  0  0  0  0
    6.5617    5.9262    1.4580 N   0  0  0  0  0  0  0  0  0  0  0  0
   -3.0475   -1.2216   -0.2544 C   0  0  0  0  0  0  0  0  0  0  0  0
   -3.4852   -0.2238   -1.0694 C   0  0  0  0  0  0  0  0  0  0  0  0
   -4.4697    0.0694   -1.4072 H   0  0  0  0  0  0  0  0  0  0  0  0
   -2.4446    0.6665   -0.7165 C   0  0  0  0  0  0  0  0  0  0  0  0
   -2.5827    1.7394   -0.6091 H   0  0  0  0  0  0  0  0  0  0  0  0
   -1.3744    0.0311   -0.0727 N   0  0  0  0  0  0  0  0  0  0  0  0
   -0.5308    0.5012    0.2454 H   0  0  0  0  0  0  0  0  0  0  0  0
   -1.6911   -1.2657    0.0783 C   0  0  0  0  0  0  0  0  0  0  0  0
   -1.0270   -2.0770    0.3409 H   0  0  0  0  0  0  0  0  0  0  0  0
  1  2  3  0  0  0  0
  3 10  2  0  0  0  0
  4  6  2  0  0  0  0
  4  3  1  0  0  0  0
  5  4  1  0  0  0  0
  6  7  1  0  0  0  0
  6  8  1  0  0  0  0
  8 10  1  0  0  0  0
  8  9  1  0  0  0  0
 10 11  1  0  0  0  0
M  RAD  1   3   2
M  END
