Coordinates from ORCA-job Pyrrole-3-N2+-scan-d09-169-n800
 OpenBabel09191813553D

 11 11  0  0  0  0  0  0  0  0999 V2000
    1.5448    0.8176    0.1738 N   0  0  0  0  0  0  0  0  0  0  0  0
    2.6488    0.7822    0.2804 N   0  0  0  0  0  0  0  0  0  0  0  0
   -0.0267    0.8242    0.0028 C   0  0  0  0  0  0  0  0  0  0  0  0
   -0.7899   -0.2337   -0.5475 C   0  0  0  0  0  0  0  0  0  0  0  0
   -0.4584   -1.1862   -0.9302 H   0  0  0  0  0  0  0  0  0  0  0  0
   -2.0728    0.2544   -0.4752 C   0  0  0  0  0  0  0  0  0  0  0  0
   -3.0009   -0.2055   -0.7808 H   0  0  0  0  0  0  0  0  0  0  0  0
   -2.0511    1.5201    0.0849 N   0  0  0  0  0  0  0  0  0  0  0  0
   -2.8742    2.0891    0.2441 H   0  0  0  0  0  0  0  0  0  0  0  0
   -0.7943    1.9103    0.3964 C   0  0  0  0  0  0  0  0  0  0  0  0
   -0.5417    2.8595    0.8425 H   0  0  0  0  0  0  0  0  0  0  0  0
  1  2  1  0  0  0  0
  3  1  1  0  0  0  0
  3 10  2  0  0  0  0
  4  6  2  0  0  0  0
  4  3  1  0  0  0  0
  5  4  1  0  0  0  0
  6  8  1  0  0  0  0
  7  6  1  0  0  0  0
  8  9  1  0  0  0  0
  8 10  1  0  0  0  0
 10 11  1  0  0  0  0
M  RAD  2   1   2   2   3
M  END
