Coordinates from ORCA-job Pyrrole-3-N2+-scan-d09-169-n800
 OpenBabel09191813553D

 11 10  0  0  0  0  0  0  0  0999 V2000
    2.4823    1.1221    0.2965 N   0  0  0  0  0  0  0  0  0  0  0  0
    3.5826    1.2170    0.3314 N   0  0  0  0  0  0  0  0  0  0  0  0
   -0.4598    0.4289    0.2831 C   0  0  0  0  0  0  0  0  0  0  0  0
   -1.0504   -0.3539   -0.6623 C   0  0  0  0  0  0  0  0  0  0  0  0
   -0.9261   -1.3913   -0.9395 H   0  0  0  0  0  0  0  0  0  0  0  0
   -2.2763    0.3463   -0.6409 C   0  0  0  0  0  0  0  0  0  0  0  0
   -3.2459   -0.1259   -0.7716 H   0  0  0  0  0  0  0  0  0  0  0  0
   -2.1817    1.5885   -0.0030 N   0  0  0  0  0  0  0  0  0  0  0  0
   -2.9555    2.2368    0.1137 H   0  0  0  0  0  0  0  0  0  0  0  0
   -0.9271    1.7291    0.4635 C   0  0  0  0  0  0  0  0  0  0  0  0
   -0.4587    2.6344    0.8203 H   0  0  0  0  0  0  0  0  0  0  0  0
  1  2  3  0  0  0  0
  3 10  2  0  0  0  0
  4  6  2  0  0  0  0
  4  3  1  0  0  0  0
  5  4  1  0  0  0  0
  6  8  1  0  0  0  0
  7  6  1  0  0  0  0
  8  9  1  0  0  0  0
  8 10  1  0  0  0  0
 10 11  1  0  0  0  0
M  RAD  1   3   2
M  END
