Coordinates from ORCA-job Pyrrole-3-N2+-scan-d09-169-n800
 OpenBabel09191813553D

 11 10  0  0  0  0  0  0  0  0999 V2000
    6.0842    5.5738    1.3814 N   0  0  0  0  0  0  0  0  0  0  0  0
    6.9722    6.2123    1.5421 N   0  0  0  0  0  0  0  0  0  0  0  0
   -3.1397   -1.2849   -0.2766 C   0  0  0  0  0  0  0  0  0  0  0  0
   -3.5749   -0.2852   -1.0905 C   0  0  0  0  0  0  0  0  0  0  0  0
   -4.5585    0.0095   -1.4296 H   0  0  0  0  0  0  0  0  0  0  0  0
   -2.5343    0.6036   -0.7336 C   0  0  0  0  0  0  0  0  0  0  0  0
   -2.6718    1.6763   -0.6244 H   0  0  0  0  0  0  0  0  0  0  0  0
   -1.4660   -0.0340   -0.0890 N   0  0  0  0  0  0  0  0  0  0  0  0
   -0.6227    0.4347    0.2318 H   0  0  0  0  0  0  0  0  0  0  0  0
   -1.7840   -1.3308    0.0587 C   0  0  0  0  0  0  0  0  0  0  0  0
   -1.1211   -2.1433    0.3209 H   0  0  0  0  0  0  0  0  0  0  0  0
  1  2  3  0  0  0  0
  3 10  2  0  0  0  0
  4  6  2  0  0  0  0
  4  3  1  0  0  0  0
  5  4  1  0  0  0  0
  6  7  1  0  0  0  0
  6  8  1  0  0  0  0
  8 10  1  0  0  0  0
  8  9  1  0  0  0  0
 10 11  1  0  0  0  0
M  RAD  1   3   2
M  END
