Coordinates from ORCA-job Pyrrole-3-N2+-scan-d09-169-n800
 OpenBabel09191813553D

 11 10  0  0  0  0  0  0  0  0999 V2000
    2.5851    1.9967    0.6538 N   0  0  0  0  0  0  0  0  0  0  0  0
    3.6665    2.1616    0.8088 N   0  0  0  0  0  0  0  0  0  0  0  0
   -0.6020   -0.1275    0.0109 C   0  0  0  0  0  0  0  0  0  0  0  0
   -1.5579   -0.6666   -0.7946 C   0  0  0  0  0  0  0  0  0  0  0  0
   -1.8212   -1.6865   -1.0390 H   0  0  0  0  0  0  0  0  0  0  0  0
   -2.4791    0.3860   -0.5890 C   0  0  0  0  0  0  0  0  0  0  0  0
   -3.5530    0.2385   -0.5107 H   0  0  0  0  0  0  0  0  0  0  0  0
   -1.8875    1.5298   -0.0357 N   0  0  0  0  0  0  0  0  0  0  0  0
   -2.3822    2.3938    0.1691 H   0  0  0  0  0  0  0  0  0  0  0  0
   -0.5933    1.2571    0.1989 C   0  0  0  0  0  0  0  0  0  0  0  0
    0.2081    1.9491    0.4187 H   0  0  0  0  0  0  0  0  0  0  0  0
  1  2  3  0  0  0  0
  3 10  2  0  0  0  0
  4  6  2  0  0  0  0
  4  3  1  0  0  0  0
  5  4  1  0  0  0  0
  6  7  1  0  0  0  0
  6  8  1  0  0  0  0
  8  9  1  0  0  0  0
  8 10  1  0  0  0  0
 10 11  1  0  0  0  0
M  RAD  1   3   2
M  END
