Coordinates from ORCA-job Pyrrole-3-N2+-scan-d09-169-n800
 OpenBabel09191813553D

 11 10  0  0  0  0  0  0  0  0999 V2000
    6.0578    5.5550    1.3759 N   0  0  0  0  0  0  0  0  0  0  0  0
    6.9455    6.1939    1.5367 N   0  0  0  0  0  0  0  0  0  0  0  0
   -3.1339   -1.2809   -0.2751 C   0  0  0  0  0  0  0  0  0  0  0  0
   -3.5689   -0.2812   -1.0892 C   0  0  0  0  0  0  0  0  0  0  0  0
   -4.5525    0.0135   -1.4283 H   0  0  0  0  0  0  0  0  0  0  0  0
   -2.5286    0.6078   -0.7325 C   0  0  0  0  0  0  0  0  0  0  0  0
   -2.6663    1.6804   -0.6232 H   0  0  0  0  0  0  0  0  0  0  0  0
   -1.4601   -0.0299   -0.0878 N   0  0  0  0  0  0  0  0  0  0  0  0
   -0.6165    0.4389    0.2326 H   0  0  0  0  0  0  0  0  0  0  0  0
   -1.7780   -1.3265    0.0599 C   0  0  0  0  0  0  0  0  0  0  0  0
   -1.1151   -2.1389    0.3222 H   0  0  0  0  0  0  0  0  0  0  0  0
  1  2  3  0  0  0  0
  3 10  2  0  0  0  0
  4  6  2  0  0  0  0
  4  3  1  0  0  0  0
  5  4  1  0  0  0  0
  6  7  1  0  0  0  0
  6  8  1  0  0  0  0
  8 10  1  0  0  0  0
  8  9  1  0  0  0  0
 10 11  1  0  0  0  0
M  RAD  1   3   2
M  END
