Coordinates from ORCA-job Pyrrole-3-N2+-scan-d09-169-n800
 OpenBabel09191813553D

 11 10  0  0  0  0  0  0  0  0999 V2000
    3.8365    3.9796    0.9375 N   0  0  0  0  0  0  0  0  0  0  0  0
    4.7147    4.6317    1.0964 N   0  0  0  0  0  0  0  0  0  0  0  0
   -2.6277   -0.9338   -0.1278 C   0  0  0  0  0  0  0  0  0  0  0  0
   -3.0929    0.0397   -0.9568 C   0  0  0  0  0  0  0  0  0  0  0  0
   -4.0878    0.3179   -1.2762 H   0  0  0  0  0  0  0  0  0  0  0  0
   -2.0498    0.9456   -0.6544 C   0  0  0  0  0  0  0  0  0  0  0  0
   -2.1924    2.0199   -0.5712 H   0  0  0  0  0  0  0  0  0  0  0  0
   -0.9586    0.3340   -0.0227 N   0  0  0  0  0  0  0  0  0  0  0  0
   -0.1101    0.8177    0.2603 H   0  0  0  0  0  0  0  0  0  0  0  0
   -1.2624   -0.9602    0.1700 C   0  0  0  0  0  0  0  0  0  0  0  0
   -0.5860   -1.7602    0.4361 H   0  0  0  0  0  0  0  0  0  0  0  0
  1  2  3  0  0  0  0
  3 10  2  0  0  0  0
  4  6  2  0  0  0  0
  4  3  1  0  0  0  0
  5  4  1  0  0  0  0
  6  7  1  0  0  0  0
  6  8  1  0  0  0  0
  8 10  1  0  0  0  0
  8  9  1  0  0  0  0
 10 11  1  0  0  0  0
M  RAD  1   3   2
M  END
