Coordinates from ORCA-job Pyrrole-3-N2+-scan-d09-169-n800
 OpenBabel09191813553D

 11 10  0  0  0  0  0  0  0  0999 V2000
    3.5969    3.9815    1.1295 N   0  0  0  0  0  0  0  0  0  0  0  0
    4.4659    4.6326    1.3367 N   0  0  0  0  0  0  0  0  0  0  0  0
   -1.4495   -1.1147   -0.1653 C   0  0  0  0  0  0  0  0  0  0  0  0
   -2.5385   -0.9188   -0.9577 C   0  0  0  0  0  0  0  0  0  0  0  0
   -3.3692   -1.5540   -1.2327 H   0  0  0  0  0  0  0  0  0  0  0  0
   -2.6266    0.4648   -0.6799 C   0  0  0  0  0  0  0  0  0  0  0  0
   -3.5680    0.9972   -0.5718 H   0  0  0  0  0  0  0  0  0  0  0  0
   -1.4593    0.9831   -0.1026 N   0  0  0  0  0  0  0  0  0  0  0  0
   -1.3252    1.9576    0.1547 H   0  0  0  0  0  0  0  0  0  0  0  0
   -0.5991   -0.0324    0.0773 C   0  0  0  0  0  0  0  0  0  0  0  0
    0.4560    0.0350    0.3030 H   0  0  0  0  0  0  0  0  0  0  0  0
  1  2  3  0  0  0  0
  3 10  2  0  0  0  0
  4  6  2  0  0  0  0
  4  3  1  0  0  0  0
  5  4  1  0  0  0  0
  6  7  1  0  0  0  0
  6  8  1  0  0  0  0
  8 10  1  0  0  0  0
  8  9  1  0  0  0  0
 10 11  1  0  0  0  0
M  RAD  1   3   2
M  END
