Coordinates from ORCA-job Pyrrole-3-N2+-scan-d09-169-n800
 OpenBabel09191813553D

 11 10  0  0  0  0  0  0  0  0999 V2000
    2.6599    2.7822    0.8323 N   0  0  0  0  0  0  0  0  0  0  0  0
    3.5464    3.4112    1.0312 N   0  0  0  0  0  0  0  0  0  0  0  0
   -0.9500   -0.7089   -0.0870 C   0  0  0  0  0  0  0  0  0  0  0  0
   -2.0608   -0.8065   -0.8674 C   0  0  0  0  0  0  0  0  0  0  0  0
   -2.7068   -1.6353   -1.1224 H   0  0  0  0  0  0  0  0  0  0  0  0
   -2.4927    0.5142   -0.6073 C   0  0  0  0  0  0  0  0  0  0  0  0
   -3.5367    0.7946   -0.4945 H   0  0  0  0  0  0  0  0  0  0  0  0
   -1.4878    1.3184   -0.0530 N   0  0  0  0  0  0  0  0  0  0  0  0
   -1.6005    2.2993    0.1891 H   0  0  0  0  0  0  0  0  0  0  0  0
   -0.3954    0.5579    0.1279 C   0  0  0  0  0  0  0  0  0  0  0  0
    0.6077    0.9049    0.3422 H   0  0  0  0  0  0  0  0  0  0  0  0
  1  2  3  0  0  0  0
  3 10  2  0  0  0  0
  4  6  2  0  0  0  0
  4  3  1  0  0  0  0
  5  4  1  0  0  0  0
  6  7  1  0  0  0  0
  6  8  1  0  0  0  0
  8 10  1  0  0  0  0
  8  9  1  0  0  0  0
 10 11  1  0  0  0  0
M  RAD  1   3   2
M  END
