Coordinates from ORCA-job Pyrrole-3-N2+-scan-d09-169-n800
 OpenBabel09191813553D

 11 10  0  0  0  0  0  0  0  0999 V2000
    8.0694    6.9613    1.7902 N   0  0  0  0  0  0  0  0  0  0  0  0
    8.9601    7.5959    1.9510 N   0  0  0  0  0  0  0  0  0  0  0  0
   -3.5836   -1.5924   -0.3784 C   0  0  0  0  0  0  0  0  0  0  0  0
   -4.0119   -0.5869   -1.1889 C   0  0  0  0  0  0  0  0  0  0  0  0
   -4.9929   -0.2885   -1.5324 H   0  0  0  0  0  0  0  0  0  0  0  0
   -2.9725    0.2980   -0.8200 C   0  0  0  0  0  0  0  0  0  0  0  0
   -3.1091    1.3702   -0.7049 H   0  0  0  0  0  0  0  0  0  0  0  0
   -1.9091   -0.3454   -0.1726 N   0  0  0  0  0  0  0  0  0  0  0  0
   -1.0669    0.1199    0.1561 H   0  0  0  0  0  0  0  0  0  0  0  0
   -2.2300   -1.6425   -0.0351 C   0  0  0  0  0  0  0  0  0  0  0  0
   -1.5701   -2.4576    0.2262 H   0  0  0  0  0  0  0  0  0  0  0  0
  1  2  3  0  0  0  0
  3 10  2  0  0  0  0
  4  6  2  0  0  0  0
  4  3  1  0  0  0  0
  5  4  1  0  0  0  0
  6  7  1  0  0  0  0
  6  8  1  0  0  0  0
  8 10  1  0  0  0  0
  8  9  1  0  0  0  0
 10 11  1  0  0  0  0
M  RAD  1   3   2
M  END
