Coordinates from ORCA-job Pyrrole-3-N2+-scan-d09-169-n800
 OpenBabel09191813553D

 11 10  0  0  0  0  0  0  0  0999 V2000
    6.4278    5.8148    1.4521 N   0  0  0  0  0  0  0  0  0  0  0  0
    7.3166    6.4523    1.6125 N   0  0  0  0  0  0  0  0  0  0  0  0
   -3.2169   -1.3381   -0.2948 C   0  0  0  0  0  0  0  0  0  0  0  0
   -3.6504   -0.3370   -1.1078 C   0  0  0  0  0  0  0  0  0  0  0  0
   -4.6334   -0.0413   -1.4479 H   0  0  0  0  0  0  0  0  0  0  0  0
   -2.6098    0.5507   -0.7483 C   0  0  0  0  0  0  0  0  0  0  0  0
   -2.7468    1.6233   -0.6378 H   0  0  0  0  0  0  0  0  0  0  0  0
   -1.5427   -0.0884   -0.1031 N   0  0  0  0  0  0  0  0  0  0  0  0
   -0.6996    0.3794    0.2195 H   0  0  0  0  0  0  0  0  0  0  0  0
   -1.8617   -1.3853    0.0424 C   0  0  0  0  0  0  0  0  0  0  0  0
   -1.1996   -2.1984    0.3044 H   0  0  0  0  0  0  0  0  0  0  0  0
  1  2  3  0  0  0  0
  3 10  2  0  0  0  0
  4  6  2  0  0  0  0
  4  3  1  0  0  0  0
  5  4  1  0  0  0  0
  6  7  1  0  0  0  0
  6  8  1  0  0  0  0
  8 10  1  0  0  0  0
  8  9  1  0  0  0  0
 10 11  1  0  0  0  0
M  RAD  1   3   2
M  END
