Coordinates from ORCA-job Pyrrole-3-N2+-scan-d09-169-n800
 OpenBabel09191813553D

 11 10  0  0  0  0  0  0  0  0999 V2000
    3.9544    4.0631    0.9582 N   0  0  0  0  0  0  0  0  0  0  0  0
    4.8339    4.7137    1.1166 N   0  0  0  0  0  0  0  0  0  0  0  0
   -2.6539   -0.9538   -0.1403 C   0  0  0  0  0  0  0  0  0  0  0  0
   -3.1159    0.0231   -0.9673 C   0  0  0  0  0  0  0  0  0  0  0  0
   -4.1096    0.3017   -1.2901 H   0  0  0  0  0  0  0  0  0  0  0  0
   -2.0754    0.9287   -0.6558 C   0  0  0  0  0  0  0  0  0  0  0  0
   -2.2198    2.0024   -0.5684 H   0  0  0  0  0  0  0  0  0  0  0  0
   -0.9866    0.3152   -0.0217 N   0  0  0  0  0  0  0  0  0  0  0  0
   -0.1397    0.7984    0.2672 H   0  0  0  0  0  0  0  0  0  0  0  0
   -1.2899   -0.9800    0.1636 C   0  0  0  0  0  0  0  0  0  0  0  0
   -0.6140   -1.7805    0.4292 H   0  0  0  0  0  0  0  0  0  0  0  0
  1  2  3  0  0  0  0
  3 10  2  0  0  0  0
  4  6  2  0  0  0  0
  4  3  1  0  0  0  0
  5  4  1  0  0  0  0
  6  7  1  0  0  0  0
  6  8  1  0  0  0  0
  8 10  1  0  0  0  0
  8  9  1  0  0  0  0
 10 11  1  0  0  0  0
M  RAD  1   3   2
M  END
