Coordinates from ORCA-job Pyrrole-3-N2+-scan-d09-169-n800
 OpenBabel09191813553D

 11 10  0  0  0  0  0  0  0  0999 V2000
    8.6760    7.3889    1.9189 N   0  0  0  0  0  0  0  0  0  0  0  0
    9.5707    8.0195    2.0734 N   0  0  0  0  0  0  0  0  0  0  0  0
   -3.7202   -1.6862   -0.4082 C   0  0  0  0  0  0  0  0  0  0  0  0
   -4.1465   -0.6793   -1.2181 C   0  0  0  0  0  0  0  0  0  0  0  0
   -5.1268   -0.3793   -1.5622 H   0  0  0  0  0  0  0  0  0  0  0  0
   -3.1063    0.2040   -0.8471 C   0  0  0  0  0  0  0  0  0  0  0  0
   -3.2418    1.2762   -0.7309 H   0  0  0  0  0  0  0  0  0  0  0  0
   -2.0444   -0.4415   -0.1993 N   0  0  0  0  0  0  0  0  0  0  0  0
   -1.2020    0.0225    0.1308 H   0  0  0  0  0  0  0  0  0  0  0  0
   -2.3670   -1.7383   -0.0636 C   0  0  0  0  0  0  0  0  0  0  0  0
   -1.7083   -2.5545    0.1975 H   0  0  0  0  0  0  0  0  0  0  0  0
  1  2  3  0  0  0  0
  3 10  2  0  0  0  0
  4  6  2  0  0  0  0
  4  3  1  0  0  0  0
  5  4  1  0  0  0  0
  6  7  1  0  0  0  0
  6  8  1  0  0  0  0
  8 10  1  0  0  0  0
  8  9  1  0  0  0  0
 10 11  1  0  0  0  0
M  RAD  1   3   2
M  END
