Coordinates from ORCA-job Pyrrole-3-N2+-scan-d09-169-n800
 OpenBabel09191813553D

 11 10  0  0  0  0  0  0  0  0999 V2000
    2.5733    2.4422    0.7685 N   0  0  0  0  0  0  0  0  0  0  0  0
    3.5111    2.9878    0.9760 N   0  0  0  0  0  0  0  0  0  0  0  0
   -0.7976   -0.5192   -0.0698 C   0  0  0  0  0  0  0  0  0  0  0  0
   -1.8886   -0.7737   -0.8431 C   0  0  0  0  0  0  0  0  0  0  0  0
   -2.4170   -1.6846   -1.0883 H   0  0  0  0  0  0  0  0  0  0  0  0
   -2.4943    0.4782   -0.5903 C   0  0  0  0  0  0  0  0  0  0  0  0
   -3.5662    0.6160   -0.4749 H   0  0  0  0  0  0  0  0  0  0  0  0
   -1.6049    1.4145   -0.0464 N   0  0  0  0  0  0  0  0  0  0  0  0
   -1.8488    2.3728    0.1888 H   0  0  0  0  0  0  0  0  0  0  0  0
   -0.4178    0.8107    0.1334 C   0  0  0  0  0  0  0  0  0  0  0  0
    0.5342    1.2872    0.3374 H   0  0  0  0  0  0  0  0  0  0  0  0
  1  2  3  0  0  0  0
  3 10  2  0  0  0  0
  4  6  2  0  0  0  0
  4  3  1  0  0  0  0
  5  4  1  0  0  0  0
  6  7  1  0  0  0  0
  6  8  1  0  0  0  0
  8 10  1  0  0  0  0
  8  9  1  0  0  0  0
 10 11  1  0  0  0  0
M  RAD  1   3   2
M  END
