Coordinates from ORCA-job Pyrrole-3-N2+-scan-d09-169-n800
 OpenBabel09191813553D

 11 10  0  0  0  0  0  0  0  0999 V2000
    2.5986    1.7173    0.5280 N   0  0  0  0  0  0  0  0  0  0  0  0
    3.6930    1.8520    0.6006 N   0  0  0  0  0  0  0  0  0  0  0  0
   -0.5687    0.0419    0.1456 C   0  0  0  0  0  0  0  0  0  0  0  0
   -1.3856   -0.5846   -0.7446 C   0  0  0  0  0  0  0  0  0  0  0  0
   -1.5216   -1.6237   -1.0105 H   0  0  0  0  0  0  0  0  0  0  0  0
   -2.4218    0.3708   -0.6306 C   0  0  0  0  0  0  0  0  0  0  0  0
   -3.4784    0.1175   -0.6551 H   0  0  0  0  0  0  0  0  0  0  0  0
   -2.0023    1.5636   -0.0269 N   0  0  0  0  0  0  0  0  0  0  0  0
   -2.5990    2.3713    0.1307 H   0  0  0  0  0  0  0  0  0  0  0  0
   -0.7157    1.4183    0.3319 C   0  0  0  0  0  0  0  0  0  0  0  0
   -0.0151    2.1876    0.6221 H   0  0  0  0  0  0  0  0  0  0  0  0
  1  2  3  0  0  0  0
  3 10  2  0  0  0  0
  4  6  2  0  0  0  0
  4  3  1  0  0  0  0
  5  4  1  0  0  0  0
  6  8  1  0  0  0  0
  7  6  1  0  0  0  0
  8  9  1  0  0  0  0
  8 10  1  0  0  0  0
 10 11  1  0  0  0  0
M  RAD  1   3   2
M  END
