Coordinates from ORCA-job Pyrrole-3-N2+-scan-d09-169-n800
 OpenBabel09191813553D

 11 10  0  0  0  0  0  0  0  0999 V2000
    6.3618    5.7683    1.4384 N   0  0  0  0  0  0  0  0  0  0  0  0
    7.2503    6.4062    1.5991 N   0  0  0  0  0  0  0  0  0  0  0  0
   -3.2020   -1.3279   -0.2913 C   0  0  0  0  0  0  0  0  0  0  0  0
   -3.6359   -0.3270   -1.1045 C   0  0  0  0  0  0  0  0  0  0  0  0
   -4.6190   -0.0315   -1.4445 H   0  0  0  0  0  0  0  0  0  0  0  0
   -2.5953    0.5609   -0.7455 C   0  0  0  0  0  0  0  0  0  0  0  0
   -2.7324    1.6335   -0.6352 H   0  0  0  0  0  0  0  0  0  0  0  0
   -1.5280   -0.0780   -0.1004 N   0  0  0  0  0  0  0  0  0  0  0  0
   -0.6848    0.3901    0.2220 H   0  0  0  0  0  0  0  0  0  0  0  0
   -1.8468   -1.3748    0.0455 C   0  0  0  0  0  0  0  0  0  0  0  0
   -1.1845   -2.1878    0.3075 H   0  0  0  0  0  0  0  0  0  0  0  0
  1  2  3  0  0  0  0
  3 10  2  0  0  0  0
  4  6  2  0  0  0  0
  4  3  1  0  0  0  0
  5  4  1  0  0  0  0
  6  7  1  0  0  0  0
  6  8  1  0  0  0  0
  8 10  1  0  0  0  0
  8  9  1  0  0  0  0
 10 11  1  0  0  0  0
M  RAD  1   3   2
M  END
