Coordinates from ORCA-job Pyrrole-3-N2+-scan-d09-169-n800
 OpenBabel09191813553D

 11 10  0  0  0  0  0  0  0  0999 V2000
    3.5984    3.8154    0.9003 N   0  0  0  0  0  0  0  0  0  0  0  0
    4.4694    4.4764    1.0626 N   0  0  0  0  0  0  0  0  0  0  0  0
   -2.5813   -0.8875   -0.0903 C   0  0  0  0  0  0  0  0  0  0  0  0
   -3.0509    0.0774   -0.9269 C   0  0  0  0  0  0  0  0  0  0  0  0
   -4.0483    0.3608   -1.2336 H   0  0  0  0  0  0  0  0  0  0  0  0
   -1.9934    0.9770   -0.6575 C   0  0  0  0  0  0  0  0  0  0  0  0
   -2.1234    2.0540   -0.5894 H   0  0  0  0  0  0  0  0  0  0  0  0
   -0.8976    0.3642   -0.0350 N   0  0  0  0  0  0  0  0  0  0  0  0
   -0.0394    0.8438    0.2256 H   0  0  0  0  0  0  0  0  0  0  0  0
   -1.2113   -0.9234    0.1841 C   0  0  0  0  0  0  0  0  0  0  0  0
   -0.5386   -1.7260    0.4514 H   0  0  0  0  0  0  0  0  0  0  0  0
  1  2  3  0  0  0  0
  3 10  2  0  0  0  0
  4  6  2  0  0  0  0
  4  3  1  0  0  0  0
  5  4  1  0  0  0  0
  6  7  1  0  0  0  0
  6  8  1  0  0  0  0
  8 10  1  0  0  0  0
  8  9  1  0  0  0  0
 10 11  1  0  0  0  0
M  RAD  1   3   2
M  END
