Coordinates from ORCA-job Pyrrole-3-N2+-scan-d09-169-n800
 OpenBabel09191813553D

 11 10  0  0  0  0  0  0  0  0999 V2000
    5.0551    4.8489    1.1721 N   0  0  0  0  0  0  0  0  0  0  0  0
    5.9399    5.4921    1.3317 N   0  0  0  0  0  0  0  0  0  0  0  0
   -2.9073   -1.1258   -0.2189 C   0  0  0  0  0  0  0  0  0  0  0  0
   -3.3498   -0.1322   -1.0365 C   0  0  0  0  0  0  0  0  0  0  0  0
   -4.3362    0.1578   -1.3715 H   0  0  0  0  0  0  0  0  0  0  0  0
   -2.3098    0.7617   -0.6914 C   0  0  0  0  0  0  0  0  0  0  0  0
   -2.4497    1.8347   -0.5878 H   0  0  0  0  0  0  0  0  0  0  0  0
   -1.2357    0.1309   -0.0492 N   0  0  0  0  0  0  0  0  0  0  0  0
   -0.3914    0.6039    0.2630 H   0  0  0  0  0  0  0  0  0  0  0  0
   -1.5492   -1.1656    0.1082 C   0  0  0  0  0  0  0  0  0  0  0  0
   -0.8825   -1.9746    0.3714 H   0  0  0  0  0  0  0  0  0  0  0  0
  1  2  3  0  0  0  0
  3 10  2  0  0  0  0
  4  6  2  0  0  0  0
  4  3  1  0  0  0  0
  5  4  1  0  0  0  0
  6  7  1  0  0  0  0
  6  8  1  0  0  0  0
  8 10  1  0  0  0  0
  8  9  1  0  0  0  0
 10 11  1  0  0  0  0
M  RAD  1   3   2
M  END
