Coordinates from ORCA-job Pyrrole-3-N2+-scan-d09-169-n800
 OpenBabel09191813553D

 11 10  0  0  0  0  0  0  0  0999 V2000
    6.4015    5.7961    1.4465 N   0  0  0  0  0  0  0  0  0  0  0  0
    7.2900    6.4339    1.6072 N   0  0  0  0  0  0  0  0  0  0  0  0
   -3.2109   -1.3340   -0.2934 C   0  0  0  0  0  0  0  0  0  0  0  0
   -3.6446   -0.3330   -1.1065 C   0  0  0  0  0  0  0  0  0  0  0  0
   -4.6276   -0.0374   -1.4466 H   0  0  0  0  0  0  0  0  0  0  0  0
   -2.6040    0.5548   -0.7472 C   0  0  0  0  0  0  0  0  0  0  0  0
   -2.7411    1.6274   -0.6367 H   0  0  0  0  0  0  0  0  0  0  0  0
   -1.5368   -0.0842   -0.1020 N   0  0  0  0  0  0  0  0  0  0  0  0
   -0.6937    0.3837    0.2206 H   0  0  0  0  0  0  0  0  0  0  0  0
   -1.8557   -1.3811    0.0436 C   0  0  0  0  0  0  0  0  0  0  0  0
   -1.1935   -2.1942    0.3056 H   0  0  0  0  0  0  0  0  0  0  0  0
  1  2  3  0  0  0  0
  3 10  2  0  0  0  0
  4  6  2  0  0  0  0
  4  3  1  0  0  0  0
  5  4  1  0  0  0  0
  6  7  1  0  0  0  0
  6  8  1  0  0  0  0
  8 10  1  0  0  0  0
  8  9  1  0  0  0  0
 10 11  1  0  0  0  0
M  RAD  1   3   2
M  END
