Coordinates from ORCA-job Pyrrole-3-N2+-scan-d09-169-n800
 OpenBabel09191813553D

 11 11  0  0  0  0  0  0  0  0999 V2000
    1.5184    0.8169    0.1707 N   0  0  0  0  0  0  0  0  0  0  0  0
    2.6237    0.7813    0.2776 N   0  0  0  0  0  0  0  0  0  0  0  0
   -0.0134    0.8247    0.0044 C   0  0  0  0  0  0  0  0  0  0  0  0
   -0.7853   -0.2317   -0.5464 C   0  0  0  0  0  0  0  0  0  0  0  0
   -0.4529   -1.1842   -0.9290 H   0  0  0  0  0  0  0  0  0  0  0  0
   -2.0675    0.2533   -0.4749 C   0  0  0  0  0  0  0  0  0  0  0  0
   -2.9960   -0.2058   -0.7801 H   0  0  0  0  0  0  0  0  0  0  0  0
   -2.0453    1.5201    0.0856 N   0  0  0  0  0  0  0  0  0  0  0  0
   -2.8685    2.0893    0.2450 H   0  0  0  0  0  0  0  0  0  0  0  0
   -0.7904    1.9091    0.3960 C   0  0  0  0  0  0  0  0  0  0  0  0
   -0.5393    2.8590    0.8423 H   0  0  0  0  0  0  0  0  0  0  0  0
  1  2  1  0  0  0  0
  3  1  1  0  0  0  0
  3 10  2  0  0  0  0
  4  6  2  0  0  0  0
  4  3  1  0  0  0  0
  5  4  1  0  0  0  0
  6  8  1  0  0  0  0
  7  6  1  0  0  0  0
  8  9  1  0  0  0  0
  8 10  1  0  0  0  0
 10 11  1  0  0  0  0
M  RAD  2   1   2   2   3
M  END
