Coordinates from ORCA-job Pyrrole-3-N2+-scan-d09-169-n800
 OpenBabel09191813553D

 11 10  0  0  0  0  0  0  0  0999 V2000
    2.0221    0.9342    0.2081 N   0  0  0  0  0  0  0  0  0  0  0  0
    3.1260    0.9343    0.2422 N   0  0  0  0  0  0  0  0  0  0  0  0
   -0.2963    0.6083    0.2630 C   0  0  0  0  0  0  0  0  0  0  0  0
   -0.8816   -0.2666   -0.6179 C   0  0  0  0  0  0  0  0  0  0  0  0
   -0.6513   -1.2820   -0.9039 H   0  0  0  0  0  0  0  0  0  0  0  0
   -2.1494    0.3285   -0.6051 C   0  0  0  0  0  0  0  0  0  0  0  0
   -3.0868   -0.1809   -0.7976 H   0  0  0  0  0  0  0  0  0  0  0  0
   -2.1337    1.5743    0.0197 N   0  0  0  0  0  0  0  0  0  0  0  0
   -2.9561    2.1501    0.1709 H   0  0  0  0  0  0  0  0  0  0  0  0
   -0.8858    1.8433    0.4692 C   0  0  0  0  0  0  0  0  0  0  0  0
   -0.5237    2.7885    0.8425 H   0  0  0  0  0  0  0  0  0  0  0  0
  1  2  3  0  0  0  0
  3 10  2  0  0  0  0
  4  6  2  0  0  0  0
  4  3  1  0  0  0  0
  5  4  1  0  0  0  0
  6  8  1  0  0  0  0
  7  6  1  0  0  0  0
  8  9  1  0  0  0  0
  8 10  1  0  0  0  0
 10 11  1  0  0  0  0
M  RAD  1   3   2
M  END
