Coordinates from ORCA-job Pyrrole-3-N2+-scan-d09-169-n800
 OpenBabel09191813553D

 11 10  0  0  0  0  0  0  0  0999 V2000
    6.8118    6.0829    1.5306 N   0  0  0  0  0  0  0  0  0  0  0  0
    7.7009    6.7198    1.6919 N   0  0  0  0  0  0  0  0  0  0  0  0
   -3.3026   -1.3976   -0.3148 C   0  0  0  0  0  0  0  0  0  0  0  0
   -3.7348   -0.3953   -1.1270 C   0  0  0  0  0  0  0  0  0  0  0  0
   -4.7173   -0.0989   -1.4681 H   0  0  0  0  0  0  0  0  0  0  0  0
   -2.6946    0.4917   -0.7649 C   0  0  0  0  0  0  0  0  0  0  0  0
   -2.8315    1.5642   -0.6530 H   0  0  0  0  0  0  0  0  0  0  0  0
   -1.6285   -0.1486   -0.1191 N   0  0  0  0  0  0  0  0  0  0  0  0
   -0.7857    0.3186    0.2055 H   0  0  0  0  0  0  0  0  0  0  0  0
   -1.9479   -1.4455    0.0242 C   0  0  0  0  0  0  0  0  0  0  0  0
   -1.2864   -2.2592    0.2860 H   0  0  0  0  0  0  0  0  0  0  0  0
  1  2  3  0  0  0  0
  3 10  2  0  0  0  0
  4  6  2  0  0  0  0
  4  3  1  0  0  0  0
  5  4  1  0  0  0  0
  6  7  1  0  0  0  0
  6  8  1  0  0  0  0
  8 10  1  0  0  0  0
  8  9  1  0  0  0  0
 10 11  1  0  0  0  0
M  RAD  1   3   2
M  END
