Coordinates from ORCA-job Pyrrole-3-N2+-scan-d09-169-n800
 OpenBabel09191813553D

 11 10  0  0  0  0  0  0  0  0999 V2000
    3.2017    3.5103    1.0213 N   0  0  0  0  0  0  0  0  0  0  0  0
    4.0682    4.1654    1.2264 N   0  0  0  0  0  0  0  0  0  0  0  0
   -1.2573   -0.9716   -0.1337 C   0  0  0  0  0  0  0  0  0  0  0  0
   -2.3683   -0.8785   -0.9142 C   0  0  0  0  0  0  0  0  0  0  0  0
   -3.1446   -1.5857   -1.1721 H   0  0  0  0  0  0  0  0  0  0  0  0
   -2.5715    0.4956   -0.6496 C   0  0  0  0  0  0  0  0  0  0  0  0
   -3.5536    0.9470   -0.5355 H   0  0  0  0  0  0  0  0  0  0  0  0
   -1.4461    1.1182   -0.0926 N   0  0  0  0  0  0  0  0  0  0  0  0
   -1.3928    2.1033    0.1534 H   0  0  0  0  0  0  0  0  0  0  0  0
   -0.4997    0.1825    0.0868 C   0  0  0  0  0  0  0  0  0  0  0  0
    0.5474    0.3455    0.3010 H   0  0  0  0  0  0  0  0  0  0  0  0
  1  2  3  0  0  0  0
  3 10  2  0  0  0  0
  4  6  2  0  0  0  0
  4  3  1  0  0  0  0
  5  4  1  0  0  0  0
  6  7  1  0  0  0  0
  6  8  1  0  0  0  0
  8 10  1  0  0  0  0
  8  9  1  0  0  0  0
 10 11  1  0  0  0  0
M  RAD  1   3   2
M  END
