Coordinates from ORCA-job Pyrrole-3-N2+-scan-d09-169-n800
 OpenBabel09191813553D

 11 10  0  0  0  0  0  0  0  0999 V2000
    9.0673    7.6723    2.0075 N   0  0  0  0  0  0  0  0  0  0  0  0
    9.9716    8.2931    2.1451 N   0  0  0  0  0  0  0  0  0  0  0  0
   -3.8102   -1.7466   -0.4261 C   0  0  0  0  0  0  0  0  0  0  0  0
   -4.2345   -0.7388   -1.2360 C   0  0  0  0  0  0  0  0  0  0  0  0
   -5.2141   -0.4368   -1.5801 H   0  0  0  0  0  0  0  0  0  0  0  0
   -3.1926    0.1424   -0.8649 C   0  0  0  0  0  0  0  0  0  0  0  0
   -3.3259    1.2149   -0.7487 H   0  0  0  0  0  0  0  0  0  0  0  0
   -2.1320   -0.5052   -0.2171 N   0  0  0  0  0  0  0  0  0  0  0  0
   -1.2886   -0.0430    0.1131 H   0  0  0  0  0  0  0  0  0  0  0  0
   -2.4572   -1.8014   -0.0814 C   0  0  0  0  0  0  0  0  0  0  0  0
   -1.8002   -2.6189    0.1797 H   0  0  0  0  0  0  0  0  0  0  0  0
  1  2  3  0  0  0  0
  3 10  2  0  0  0  0
  4  6  2  0  0  0  0
  4  3  1  0  0  0  0
  5  4  1  0  0  0  0
  6  7  1  0  0  0  0
  6  8  1  0  0  0  0
  8 10  1  0  0  0  0
  8  9  1  0  0  0  0
 10 11  1  0  0  0  0
M  RAD  1   3   2
M  END
