Coordinates from ORCA-job Pyrrole-3-N2+-scan-d09-169-n800
 OpenBabel09191813553D

 11 10  0  0  0  0  0  0  0  0999 V2000
    4.8054    4.6718    1.1221 N   0  0  0  0  0  0  0  0  0  0  0  0
    5.6892    5.3163    1.2812 N   0  0  0  0  0  0  0  0  0  0  0  0
   -2.8499   -1.0872   -0.2039 C   0  0  0  0  0  0  0  0  0  0  0  0
   -3.2958   -0.0960   -1.0225 C   0  0  0  0  0  0  0  0  0  0  0  0
   -4.2834    0.1918   -1.3559 H   0  0  0  0  0  0  0  0  0  0  0  0
   -2.2560    0.7999   -0.6819 C   0  0  0  0  0  0  0  0  0  0  0  0
   -2.3968    1.8730   -0.5805 H   0  0  0  0  0  0  0  0  0  0  0  0
   -1.1797    0.1721   -0.0408 N   0  0  0  0  0  0  0  0  0  0  0  0
   -0.3355    0.6470    0.2688 H   0  0  0  0  0  0  0  0  0  0  0  0
   -1.4912   -1.1246    0.1204 C   0  0  0  0  0  0  0  0  0  0  0  0
   -0.8228   -1.9321    0.3840 H   0  0  0  0  0  0  0  0  0  0  0  0
  1  2  3  0  0  0  0
  3 10  2  0  0  0  0
  4  6  2  0  0  0  0
  4  3  1  0  0  0  0
  5  4  1  0  0  0  0
  6  7  1  0  0  0  0
  6  8  1  0  0  0  0
  8 10  1  0  0  0  0
  8  9  1  0  0  0  0
 10 11  1  0  0  0  0
M  RAD  1   3   2
M  END
