Coordinates from ORCA-job Pyrrole-3-N2+-scan-d09-169-n800
 OpenBabel09191813553D

 11 10  0  0  0  0  0  0  0  0999 V2000
    8.8195    7.4930    1.9515 N   0  0  0  0  0  0  0  0  0  0  0  0
    9.7176    8.1201    2.1001 N   0  0  0  0  0  0  0  0  0  0  0  0
   -3.7531   -1.7082   -0.4150 C   0  0  0  0  0  0  0  0  0  0  0  0
   -4.1790   -0.7010   -1.2245 C   0  0  0  0  0  0  0  0  0  0  0  0
   -5.1590   -0.4003   -1.5686 H   0  0  0  0  0  0  0  0  0  0  0  0
   -3.1378    0.1813   -0.8537 C   0  0  0  0  0  0  0  0  0  0  0  0
   -3.2722    1.2537   -0.7376 H   0  0  0  0  0  0  0  0  0  0  0  0
   -2.0764   -0.4649   -0.2061 N   0  0  0  0  0  0  0  0  0  0  0  0
   -1.2338   -0.0016    0.1243 H   0  0  0  0  0  0  0  0  0  0  0  0
   -2.4002   -1.7616   -0.0702 C   0  0  0  0  0  0  0  0  0  0  0  0
   -1.7421   -2.5784    0.1909 H   0  0  0  0  0  0  0  0  0  0  0  0
  1  2  3  0  0  0  0
  3 10  2  0  0  0  0
  4  6  2  0  0  0  0
  4  3  1  0  0  0  0
  5  4  1  0  0  0  0
  6  7  1  0  0  0  0
  6  8  1  0  0  0  0
  8 10  1  0  0  0  0
  8  9  1  0  0  0  0
 10 11  1  0  0  0  0
M  RAD  1   3   2
M  END
