Coordinates from ORCA-job Pyrrole-3-N2+-scan-d09-169-n800
 OpenBabel09191813553D

 11 10  0  0  0  0  0  0  0  0999 V2000
    5.3846    5.0817    1.2387 N   0  0  0  0  0  0  0  0  0  0  0  0
    6.2705    5.7232    1.3988 N   0  0  0  0  0  0  0  0  0  0  0  0
   -2.9819   -1.1766   -0.2382 C   0  0  0  0  0  0  0  0  0  0  0  0
   -3.4217   -0.1806   -1.0542 C   0  0  0  0  0  0  0  0  0  0  0  0
   -4.4070    0.1112   -1.3908 H   0  0  0  0  0  0  0  0  0  0  0  0
   -2.3812    0.7111   -0.7045 C   0  0  0  0  0  0  0  0  0  0  0  0
   -2.5199    1.7840   -0.5988 H   0  0  0  0  0  0  0  0  0  0  0  0
   -1.3095    0.0776   -0.0615 N   0  0  0  0  0  0  0  0  0  0  0  0
   -0.4657    0.5489    0.2544 H   0  0  0  0  0  0  0  0  0  0  0  0
   -1.6249   -1.2191    0.0922 C   0  0  0  0  0  0  0  0  0  0  0  0
   -0.9597   -2.0295    0.3551 H   0  0  0  0  0  0  0  0  0  0  0  0
  1  2  3  0  0  0  0
  3 10  2  0  0  0  0
  4  6  2  0  0  0  0
  4  3  1  0  0  0  0
  5  4  1  0  0  0  0
  6  7  1  0  0  0  0
  6  8  1  0  0  0  0
  8 10  1  0  0  0  0
  8  9  1  0  0  0  0
 10 11  1  0  0  0  0
M  RAD  1   3   2
M  END
