Coordinates from ORCA-job Pyrrole-3-N2+-scan-d09-169-n800
 OpenBabel09191813553D

 11 10  0  0  0  0  0  0  0  0999 V2000
    5.9127    5.4529    1.3461 N   0  0  0  0  0  0  0  0  0  0  0  0
    6.7999    6.0925    1.5070 N   0  0  0  0  0  0  0  0  0  0  0  0
   -3.1011   -1.2583   -0.2675 C   0  0  0  0  0  0  0  0  0  0  0  0
   -3.5372   -0.2593   -1.0817 C   0  0  0  0  0  0  0  0  0  0  0  0
   -4.5212    0.0347   -1.4204 H   0  0  0  0  0  0  0  0  0  0  0  0
   -2.4967    0.6300   -0.7264 C   0  0  0  0  0  0  0  0  0  0  0  0
   -2.6344    1.7028   -0.6178 H   0  0  0  0  0  0  0  0  0  0  0  0
   -1.4276   -0.0068   -0.0820 N   0  0  0  0  0  0  0  0  0  0  0  0
   -0.5842    0.4625    0.2378 H   0  0  0  0  0  0  0  0  0  0  0  0
   -1.7451   -1.3035    0.0669 C   0  0  0  0  0  0  0  0  0  0  0  0
   -1.0818   -2.1155    0.3293 H   0  0  0  0  0  0  0  0  0  0  0  0
  1  2  3  0  0  0  0
  3 10  2  0  0  0  0
  4  6  2  0  0  0  0
  4  3  1  0  0  0  0
  5  4  1  0  0  0  0
  6  7  1  0  0  0  0
  6  8  1  0  0  0  0
  8 10  1  0  0  0  0
  8  9  1  0  0  0  0
 10 11  1  0  0  0  0
M  RAD  1   3   2
M  END
