Coordinates from ORCA-job Pyrrole-3-N2+-scan-d09-169-n800
 OpenBabel09191813553D

 11 10  0  0  0  0  0  0  0  0999 V2000
    4.3727    4.3629    1.0372 N   0  0  0  0  0  0  0  0  0  0  0  0
    5.2548    5.0101    1.1952 N   0  0  0  0  0  0  0  0  0  0  0  0
   -2.7501   -1.0203   -0.1748 C   0  0  0  0  0  0  0  0  0  0  0  0
   -3.2029   -0.0349   -0.9968 C   0  0  0  0  0  0  0  0  0  0  0  0
   -4.1930    0.2484   -1.3264 H   0  0  0  0  0  0  0  0  0  0  0  0
   -2.1640    0.8660   -0.6667 C   0  0  0  0  0  0  0  0  0  0  0  0
   -2.3076    1.9391   -0.5705 H   0  0  0  0  0  0  0  0  0  0  0  0
   -1.0824    0.2447   -0.0280 N   0  0  0  0  0  0  0  0  0  0  0  0
   -0.2376    0.7236    0.2738 H   0  0  0  0  0  0  0  0  0  0  0  0
   -1.3893   -1.0518    0.1419 C   0  0  0  0  0  0  0  0  0  0  0  0
   -0.7172   -1.8559    0.4064 H   0  0  0  0  0  0  0  0  0  0  0  0
  1  2  3  0  0  0  0
  3 10  2  0  0  0  0
  4  6  2  0  0  0  0
  4  3  1  0  0  0  0
  5  4  1  0  0  0  0
  6  7  1  0  0  0  0
  6  8  1  0  0  0  0
  8 10  1  0  0  0  0
  8  9  1  0  0  0  0
 10 11  1  0  0  0  0
M  RAD  1   3   2
M  END
