Coordinates from ORCA-job Pyrrole-3-N2+-scan-d09-169-n800
 OpenBabel09191813553D

 11 10  0  0  0  0  0  0  0  0999 V2000
    4.6346    4.5503    1.0885 N   0  0  0  0  0  0  0  0  0  0  0  0
    5.5179    5.1957    1.2469 N   0  0  0  0  0  0  0  0  0  0  0  0
   -2.8108   -1.0609   -0.1927 C   0  0  0  0  0  0  0  0  0  0  0  0
   -3.2589   -0.0717   -1.0127 C   0  0  0  0  0  0  0  0  0  0  0  0
   -4.2473    0.2145   -1.3448 H   0  0  0  0  0  0  0  0  0  0  0  0
   -2.2196    0.8261   -0.6756 C   0  0  0  0  0  0  0  0  0  0  0  0
   -2.3616    1.8991   -0.5760 H   0  0  0  0  0  0  0  0  0  0  0  0
   -1.1414    0.2005   -0.0353 N   0  0  0  0  0  0  0  0  0  0  0  0
   -0.2969    0.6768    0.2713 H   0  0  0  0  0  0  0  0  0  0  0  0
   -1.4512   -1.0961    0.1288 C   0  0  0  0  0  0  0  0  0  0  0  0
   -0.7815   -1.9024    0.3927 H   0  0  0  0  0  0  0  0  0  0  0  0
  1  2  3  0  0  0  0
  3 10  2  0  0  0  0
  4  6  2  0  0  0  0
  4  3  1  0  0  0  0
  5  4  1  0  0  0  0
  6  7  1  0  0  0  0
  6  8  1  0  0  0  0
  8 10  1  0  0  0  0
  8  9  1  0  0  0  0
 10 11  1  0  0  0  0
M  RAD  1   3   2
M  END
