Coordinates from ORCA-job Pyrrole-3-N2+-scan-d09-169-n800
 OpenBabel09191813553D

 11 10  0  0  0  0  0  0  0  0999 V2000
    1.8106    0.8228    0.2057 N   0  0  0  0  0  0  0  0  0  0  0  0
    2.9087    0.7919    0.3138 N   0  0  0  0  0  0  0  0  0  0  0  0
   -0.1585    0.8185   -0.0144 C   0  0  0  0  0  0  0  0  0  0  0  0
   -0.8376   -0.2553   -0.5624 C   0  0  0  0  0  0  0  0  0  0  0  0
   -0.5177   -1.2097   -0.9473 H   0  0  0  0  0  0  0  0  0  0  0  0
   -2.1269    0.2646   -0.4767 C   0  0  0  0  0  0  0  0  0  0  0  0
   -3.0475   -0.2092   -0.7876 H   0  0  0  0  0  0  0  0  0  0  0  0
   -2.1103    1.5225    0.0796 N   0  0  0  0  0  0  0  0  0  0  0  0
   -2.9335    2.0918    0.2393 H   0  0  0  0  0  0  0  0  0  0  0  0
   -0.8375    1.9258    0.3980 C   0  0  0  0  0  0  0  0  0  0  0  0
   -0.5663    2.8683    0.8432 H   0  0  0  0  0  0  0  0  0  0  0  0
  1  2  3  0  0  0  0
  3 10  2  0  0  0  0
  4  6  2  0  0  0  0
  4  3  1  0  0  0  0
  5  4  1  0  0  0  0
  6  8  1  0  0  0  0
  7  6  1  0  0  0  0
  8  9  1  0  0  0  0
  8 10  1  0  0  0  0
 10 11  1  0  0  0  0
M  RAD  1   3   2
M  END
