Coordinates from ORCA-job Pyrrole-3-N2+-scan-d09-169-n800
 OpenBabel09191813553D

 11 10  0  0  0  0  0  0  0  0999 V2000
    7.9102    6.8507    1.7576 N   0  0  0  0  0  0  0  0  0  0  0  0
    8.8011    7.4852    1.9180 N   0  0  0  0  0  0  0  0  0  0  0  0
   -3.5482   -1.5678   -0.3704 C   0  0  0  0  0  0  0  0  0  0  0  0
   -3.9768   -0.5626   -1.1812 C   0  0  0  0  0  0  0  0  0  0  0  0
   -4.9580   -0.2644   -1.5244 H   0  0  0  0  0  0  0  0  0  0  0  0
   -2.9373    0.3225   -0.8130 C   0  0  0  0  0  0  0  0  0  0  0  0
   -3.0740    1.3947   -0.6982 H   0  0  0  0  0  0  0  0  0  0  0  0
   -1.8736   -0.3207   -0.1658 N   0  0  0  0  0  0  0  0  0  0  0  0
   -1.0313    0.1448    0.1624 H   0  0  0  0  0  0  0  0  0  0  0  0
   -2.1944   -1.6177   -0.0276 C   0  0  0  0  0  0  0  0  0  0  0  0
   -1.5343   -2.4327    0.2337 H   0  0  0  0  0  0  0  0  0  0  0  0
  1  2  3  0  0  0  0
  3 10  2  0  0  0  0
  4  6  2  0  0  0  0
  4  3  1  0  0  0  0
  5  4  1  0  0  0  0
  6  7  1  0  0  0  0
  6  8  1  0  0  0  0
  8 10  1  0  0  0  0
  8  9  1  0  0  0  0
 10 11  1  0  0  0  0
M  RAD  1   3   2
M  END
