Coordinates from ORCA-job Pyrrole-3-N2+-scan-d09-169-n800
 OpenBabel09191813553D

 11 10  0  0  0  0  0  0  0  0999 V2000
    7.9765    6.8970    1.7714 N   0  0  0  0  0  0  0  0  0  0  0  0
    8.8675    7.5313    1.9316 N   0  0  0  0  0  0  0  0  0  0  0  0
   -3.5628   -1.5780   -0.3739 C   0  0  0  0  0  0  0  0  0  0  0  0
   -3.9917   -0.5727   -1.1843 C   0  0  0  0  0  0  0  0  0  0  0  0
   -4.9728   -0.2745   -1.5276 H   0  0  0  0  0  0  0  0  0  0  0  0
   -2.9519    0.3122   -0.8160 C   0  0  0  0  0  0  0  0  0  0  0  0
   -3.0883    1.3845   -0.7011 H   0  0  0  0  0  0  0  0  0  0  0  0
   -1.8884   -0.3309   -0.1688 N   0  0  0  0  0  0  0  0  0  0  0  0
   -1.0463    0.1345    0.1600 H   0  0  0  0  0  0  0  0  0  0  0  0
   -2.2093   -1.6281   -0.0307 C   0  0  0  0  0  0  0  0  0  0  0  0
   -1.5492   -2.4432    0.2306 H   0  0  0  0  0  0  0  0  0  0  0  0
  1  2  3  0  0  0  0
  3 10  2  0  0  0  0
  4  6  2  0  0  0  0
  4  3  1  0  0  0  0
  5  4  1  0  0  0  0
  6  7  1  0  0  0  0
  6  8  1  0  0  0  0
  8 10  1  0  0  0  0
  8  9  1  0  0  0  0
 10 11  1  0  0  0  0
M  RAD  1   3   2
M  END
