Coordinates from ORCA-job Pyrrole-3-N2+-scan-d09-169-n800
 OpenBabel09191813553D

 11 10  0  0  0  0  0  0  0  0999 V2000
    4.4906    4.4473    1.0601 N   0  0  0  0  0  0  0  0  0  0  0  0
    5.3732    5.0938    1.2184 N   0  0  0  0  0  0  0  0  0  0  0  0
   -2.7773   -1.0385   -0.1833 C   0  0  0  0  0  0  0  0  0  0  0  0
   -3.2282   -0.0513   -1.0040 C   0  0  0  0  0  0  0  0  0  0  0  0
   -4.2175    0.2333   -1.3349 H   0  0  0  0  0  0  0  0  0  0  0  0
   -2.1889    0.8480   -0.6706 C   0  0  0  0  0  0  0  0  0  0  0  0
   -2.3315    1.9211   -0.5728 H   0  0  0  0  0  0  0  0  0  0  0  0
   -1.1089    0.2248   -0.0312 N   0  0  0  0  0  0  0  0  0  0  0  0
   -0.2646    0.7026    0.2733 H   0  0  0  0  0  0  0  0  0  0  0  0
   -1.4173   -1.0719    0.1360 C   0  0  0  0  0  0  0  0  0  0  0  0
   -0.7463   -1.8771    0.4002 H   0  0  0  0  0  0  0  0  0  0  0  0
  1  2  3  0  0  0  0
  3 10  2  0  0  0  0
  4  6  2  0  0  0  0
  4  3  1  0  0  0  0
  5  4  1  0  0  0  0
  6  7  1  0  0  0  0
  6  8  1  0  0  0  0
  8 10  1  0  0  0  0
  8  9  1  0  0  0  0
 10 11  1  0  0  0  0
M  RAD  1   3   2
M  END
