Coordinates from ORCA-job Pyrrole-3-N2+-scan-d09-169-n800
 OpenBabel09191813553D

 11 10  0  0  0  0  0  0  0  0999 V2000
    5.9518    5.4811    1.3544 N   0  0  0  0  0  0  0  0  0  0  0  0
    6.8397    6.1199    1.5149 N   0  0  0  0  0  0  0  0  0  0  0  0
   -3.1101   -1.2645   -0.2693 C   0  0  0  0  0  0  0  0  0  0  0  0
   -3.5457   -0.2653   -1.0838 C   0  0  0  0  0  0  0  0  0  0  0  0
   -4.5296    0.0290   -1.4225 H   0  0  0  0  0  0  0  0  0  0  0  0
   -2.5054    0.6240   -0.7280 C   0  0  0  0  0  0  0  0  0  0  0  0
   -2.6432    1.6967   -0.6193 H   0  0  0  0  0  0  0  0  0  0  0  0
   -1.4364   -0.0131   -0.0835 N   0  0  0  0  0  0  0  0  0  0  0  0
   -0.5928    0.4559    0.2361 H   0  0  0  0  0  0  0  0  0  0  0  0
   -1.7541   -1.3097    0.0650 C   0  0  0  0  0  0  0  0  0  0  0  0
   -1.0908   -2.1219    0.3273 H   0  0  0  0  0  0  0  0  0  0  0  0
  1  2  3  0  0  0  0
  3 10  2  0  0  0  0
  4  6  2  0  0  0  0
  4  3  1  0  0  0  0
  5  4  1  0  0  0  0
  6  7  1  0  0  0  0
  6  8  1  0  0  0  0
  8 10  1  0  0  0  0
  8  9  1  0  0  0  0
 10 11  1  0  0  0  0
M  RAD  1   3   2
M  END
