Coordinates from ORCA-job Pyrrole-3-N2+-scan-d09-169-n800
 OpenBabel09191813553D

 11 10  0  0  0  0  0  0  0  0999 V2000
    2.5694    2.6382    0.7972 N   0  0  0  0  0  0  0  0  0  0  0  0
    3.4740    3.2400    0.9979 N   0  0  0  0  0  0  0  0  0  0  0  0
   -0.8862   -0.6429   -0.0784 C   0  0  0  0  0  0  0  0  0  0  0  0
   -1.9932   -0.7903   -0.8567 C   0  0  0  0  0  0  0  0  0  0  0  0
   -2.6030   -1.6469   -1.1087 H   0  0  0  0  0  0  0  0  0  0  0  0
   -2.4813    0.5109   -0.5985 C   0  0  0  0  0  0  0  0  0  0  0  0
   -3.5362    0.7465   -0.4849 H   0  0  0  0  0  0  0  0  0  0  0  0
   -1.5110    1.3585   -0.0472 N   0  0  0  0  0  0  0  0  0  0  0  0
   -1.6655    2.3340    0.1929 H   0  0  0  0  0  0  0  0  0  0  0  0
   -0.3858    0.6465    0.1329 C   0  0  0  0  0  0  0  0  0  0  0  0
    0.6022    1.0376    0.3446 H   0  0  0  0  0  0  0  0  0  0  0  0
  1  2  3  0  0  0  0
  3 10  2  0  0  0  0
  4  6  2  0  0  0  0
  4  3  1  0  0  0  0
  5  4  1  0  0  0  0
  6  7  1  0  0  0  0
  6  8  1  0  0  0  0
  8 10  1  0  0  0  0
  8  9  1  0  0  0  0
 10 11  1  0  0  0  0
M  RAD  1   3   2
M  END
