Coordinates from ORCA-job Pyrrole-3-N2+-scan-d09-169-n800
 OpenBabel09191813553D

 11 10  0  0  0  0  0  0  0  0999 V2000
    3.2558    3.6173    1.0432 N   0  0  0  0  0  0  0  0  0  0  0  0
    4.1168    4.2794    1.2482 N   0  0  0  0  0  0  0  0  0  0  0  0
   -1.3079   -1.0118   -0.1393 C   0  0  0  0  0  0  0  0  0  0  0  0
   -2.4150   -0.8811   -0.9200 C   0  0  0  0  0  0  0  0  0  0  0  0
   -3.2144   -1.5617   -1.1787 H   0  0  0  0  0  0  0  0  0  0  0  0
   -2.5722    0.4988   -0.6545 C   0  0  0  0  0  0  0  0  0  0  0  0
   -3.5388    0.9826   -0.5405 H   0  0  0  0  0  0  0  0  0  0  0  0
   -1.4270    1.0832   -0.0966 N   0  0  0  0  0  0  0  0  0  0  0  0
   -1.3410    2.0658    0.1502 H   0  0  0  0  0  0  0  0  0  0  0  0
   -0.5125    0.1161    0.0825 C   0  0  0  0  0  0  0  0  0  0  0  0
    0.5395    0.2432    0.2968 H   0  0  0  0  0  0  0  0  0  0  0  0
  1  2  3  0  0  0  0
  3 10  2  0  0  0  0
  4  6  2  0  0  0  0
  4  3  1  0  0  0  0
  5  4  1  0  0  0  0
  6  7  1  0  0  0  0
  6  8  1  0  0  0  0
  8 10  1  0  0  0  0
  8  9  1  0  0  0  0
 10 11  1  0  0  0  0
M  RAD  1   3   2
M  END
