Coordinates from ORCA-job Pyrrole-3-N2+-scan-d09-169-n800
 OpenBabel09191813553D

 11 10  0  0  0  0  0  0  0  0999 V2000
    6.4809    5.8517    1.4628 N   0  0  0  0  0  0  0  0  0  0  0  0
    7.3695    6.4893    1.6235 N   0  0  0  0  0  0  0  0  0  0  0  0
   -3.2287   -1.3463   -0.2976 C   0  0  0  0  0  0  0  0  0  0  0  0
   -3.6621   -0.3450   -1.1105 C   0  0  0  0  0  0  0  0  0  0  0  0
   -4.6449   -0.0492   -1.4507 H   0  0  0  0  0  0  0  0  0  0  0  0
   -2.6215    0.5426   -0.7506 C   0  0  0  0  0  0  0  0  0  0  0  0
   -2.7585    1.6152   -0.6399 H   0  0  0  0  0  0  0  0  0  0  0  0
   -1.5546   -0.0967   -0.1053 N   0  0  0  0  0  0  0  0  0  0  0  0
   -0.7115    0.3710    0.2177 H   0  0  0  0  0  0  0  0  0  0  0  0
   -1.8736   -1.3936    0.0399 C   0  0  0  0  0  0  0  0  0  0  0  0
   -1.2116   -2.2068    0.3018 H   0  0  0  0  0  0  0  0  0  0  0  0
  1  2  3  0  0  0  0
  3 10  2  0  0  0  0
  4  6  2  0  0  0  0
  4  3  1  0  0  0  0
  5  4  1  0  0  0  0
  6  7  1  0  0  0  0
  6  8  1  0  0  0  0
  8 10  1  0  0  0  0
  8  9  1  0  0  0  0
 10 11  1  0  0  0  0
M  RAD  1   3   2
M  END
