Coordinates from ORCA-job Pyrrole-3-N2+-scan-d09-169-n800
 OpenBabel09191813553D

 11 10  0  0  0  0  0  0  0  0999 V2000
    3.7563    4.1654    1.1728 N   0  0  0  0  0  0  0  0  0  0  0  0
    4.6226    4.8196    1.3814 N   0  0  0  0  0  0  0  0  0  0  0  0
   -1.5273   -1.1688   -0.1772 C   0  0  0  0  0  0  0  0  0  0  0  0
   -2.6057   -0.9332   -0.9732 C   0  0  0  0  0  0  0  0  0  0  0  0
   -3.4567   -1.5386   -1.2534 H   0  0  0  0  0  0  0  0  0  0  0  0
   -2.6469    0.4519   -0.6918 C   0  0  0  0  0  0  0  0  0  0  0  0
   -3.5698    1.0163   -0.5859 H   0  0  0  0  0  0  0  0  0  0  0  0
   -1.4648    0.9278   -0.1082 N   0  0  0  0  0  0  0  0  0  0  0  0
   -1.2983    1.8964    0.1527 H   0  0  0  0  0  0  0  0  0  0  0  0
   -0.6409   -0.1174    0.0720 C   0  0  0  0  0  0  0  0  0  0  0  0
    0.4149   -0.0874    0.3020 H   0  0  0  0  0  0  0  0  0  0  0  0
  1  2  3  0  0  0  0
  3 10  2  0  0  0  0
  4  6  2  0  0  0  0
  4  3  1  0  0  0  0
  5  4  1  0  0  0  0
  6  7  1  0  0  0  0
  6  8  1  0  0  0  0
  8 10  1  0  0  0  0
  8  9  1  0  0  0  0
 10 11  1  0  0  0  0
M  RAD  1   3   2
M  END
