Coordinates from ORCA-job Pyrrole-3-N2+-scan-d09-169-n800
 OpenBabel09191813553D

 11 10  0  0  0  0  0  0  0  0999 V2000
    3.3285    3.6925    1.0623 N   0  0  0  0  0  0  0  0  0  0  0  0
    4.1939    4.3487    1.2681 N   0  0  0  0  0  0  0  0  0  0  0  0
   -1.3353   -1.0318   -0.1443 C   0  0  0  0  0  0  0  0  0  0  0  0
   -2.4394   -0.8903   -0.9274 C   0  0  0  0  0  0  0  0  0  0  0  0
   -3.2442   -1.5635   -1.1890 H   0  0  0  0  0  0  0  0  0  0  0  0
   -2.5853    0.4905   -0.6599 C   0  0  0  0  0  0  0  0  0  0  0  0
   -3.5481    0.9820   -0.5464 H   0  0  0  0  0  0  0  0  0  0  0  0
   -1.4363    1.0642   -0.0985 N   0  0  0  0  0  0  0  0  0  0  0  0
   -1.3421    2.0458    0.1494 H   0  0  0  0  0  0  0  0  0  0  0  0
   -0.5307    0.0889    0.0810 C   0  0  0  0  0  0  0  0  0  0  0  0
    0.5224    0.2051    0.2959 H   0  0  0  0  0  0  0  0  0  0  0  0
  1  2  3  0  0  0  0
  3 10  2  0  0  0  0
  4  6  2  0  0  0  0
  4  3  1  0  0  0  0
  5  4  1  0  0  0  0
  6  7  1  0  0  0  0
  6  8  1  0  0  0  0
  8 10  1  0  0  0  0
  8  9  1  0  0  0  0
 10 11  1  0  0  0  0
M  RAD  1   3   2
M  END
