Coordinates from ORCA-job Pyrrole-3-N2+-scan-d09-169-n800
 OpenBabel09191813553D

 11 10  0  0  0  0  0  0  0  0999 V2000
    8.0033    6.9152    1.7766 N   0  0  0  0  0  0  0  0  0  0  0  0
    8.8940    7.5499    1.9374 N   0  0  0  0  0  0  0  0  0  0  0  0
   -3.5686   -1.5821   -0.3753 C   0  0  0  0  0  0  0  0  0  0  0  0
   -3.9975   -0.5768   -1.1856 C   0  0  0  0  0  0  0  0  0  0  0  0
   -4.9786   -0.2787   -1.5290 H   0  0  0  0  0  0  0  0  0  0  0  0
   -2.9578    0.3082   -0.8171 C   0  0  0  0  0  0  0  0  0  0  0  0
   -3.0943    1.3804   -0.7022 H   0  0  0  0  0  0  0  0  0  0  0  0
   -1.8943   -0.3350   -0.1699 N   0  0  0  0  0  0  0  0  0  0  0  0
   -1.0524    0.1305    0.1590 H   0  0  0  0  0  0  0  0  0  0  0  0
   -2.2152   -1.6322   -0.0320 C   0  0  0  0  0  0  0  0  0  0  0  0
   -1.5551   -2.4472    0.2293 H   0  0  0  0  0  0  0  0  0  0  0  0
  1  2  3  0  0  0  0
  3 10  2  0  0  0  0
  4  6  2  0  0  0  0
  4  3  1  0  0  0  0
  5  4  1  0  0  0  0
  6  7  1  0  0  0  0
  6  8  1  0  0  0  0
  8 10  1  0  0  0  0
  8  9  1  0  0  0  0
 10 11  1  0  0  0  0
M  RAD  1   3   2
M  END
