Coordinates from ORCA-job Pyrrole-3-N2+-scan-d09-169-n800
 OpenBabel09191813553D

 11 10  0  0  0  0  0  0  0  0999 V2000
    5.0946    4.8771    1.1802 N   0  0  0  0  0  0  0  0  0  0  0  0
    5.9797    5.5199    1.3397 N   0  0  0  0  0  0  0  0  0  0  0  0
   -2.9161   -1.1318   -0.2214 C   0  0  0  0  0  0  0  0  0  0  0  0
   -3.3586   -0.1380   -1.0385 C   0  0  0  0  0  0  0  0  0  0  0  0
   -4.3449    0.1522   -1.3737 H   0  0  0  0  0  0  0  0  0  0  0  0
   -2.3183    0.7556   -0.6930 C   0  0  0  0  0  0  0  0  0  0  0  0
   -2.4579    1.8286   -0.5892 H   0  0  0  0  0  0  0  0  0  0  0  0
   -1.2445    0.1245   -0.0508 N   0  0  0  0  0  0  0  0  0  0  0  0
   -0.4005    0.5974    0.2622 H   0  0  0  0  0  0  0  0  0  0  0  0
   -1.5583   -1.1722    0.1063 C   0  0  0  0  0  0  0  0  0  0  0  0
   -0.8918   -1.9813    0.3695 H   0  0  0  0  0  0  0  0  0  0  0  0
  1  2  3  0  0  0  0
  3 10  2  0  0  0  0
  4  6  2  0  0  0  0
  4  3  1  0  0  0  0
  5  4  1  0  0  0  0
  6  7  1  0  0  0  0
  6  8  1  0  0  0  0
  8 10  1  0  0  0  0
  8  9  1  0  0  0  0
 10 11  1  0  0  0  0
M  RAD  1   3   2
M  END
