Coordinates from ORCA-job Pyrrole-3-N2+-scan-d09-169-n800
 OpenBabel09191813553D

 11 10  0  0  0  0  0  0  0  0999 V2000
    2.4952    1.1301    0.3000 N   0  0  0  0  0  0  0  0  0  0  0  0
    3.5953    1.2277    0.3357 N   0  0  0  0  0  0  0  0  0  0  0  0
   -0.4640    0.4228    0.2820 C   0  0  0  0  0  0  0  0  0  0  0  0
   -1.0569   -0.3577   -0.6636 C   0  0  0  0  0  0  0  0  0  0  0  0
   -0.9363   -1.3955   -0.9408 H   0  0  0  0  0  0  0  0  0  0  0  0
   -2.2807    0.3465   -0.6415 C   0  0  0  0  0  0  0  0  0  0  0  0
   -3.2518   -0.1230   -0.7709 H   0  0  0  0  0  0  0  0  0  0  0  0
   -2.1820    1.5884   -0.0037 N   0  0  0  0  0  0  0  0  0  0  0  0
   -2.9536    2.2394    0.1130 H   0  0  0  0  0  0  0  0  0  0  0  0
   -0.9269    1.7248    0.4623 C   0  0  0  0  0  0  0  0  0  0  0  0
   -0.4550    2.6285    0.8186 H   0  0  0  0  0  0  0  0  0  0  0  0
  1  2  3  0  0  0  0
  3 10  2  0  0  0  0
  4  6  2  0  0  0  0
  4  3  1  0  0  0  0
  5  4  1  0  0  0  0
  6  8  1  0  0  0  0
  7  6  1  0  0  0  0
  8  9  1  0  0  0  0
  8 10  1  0  0  0  0
 10 11  1  0  0  0  0
M  RAD  1   3   2
M  END
