Coordinates from ORCA-job Pyrrole-3-N2+-scan-d09-169-n800
 OpenBabel09191813553D

 11 10  0  0  0  0  0  0  0  0999 V2000
    2.1164    0.9664    0.2244 N   0  0  0  0  0  0  0  0  0  0  0  0
    3.2204    0.9851    0.2561 N   0  0  0  0  0  0  0  0  0  0  0  0
   -0.3332    0.5702    0.2746 C   0  0  0  0  0  0  0  0  0  0  0  0
   -0.9090   -0.2792   -0.6308 C   0  0  0  0  0  0  0  0  0  0  0  0
   -0.7025   -1.3016   -0.9116 H   0  0  0  0  0  0  0  0  0  0  0  0
   -2.1720    0.3355   -0.6160 C   0  0  0  0  0  0  0  0  0  0  0  0
   -3.1138   -0.1754   -0.7862 H   0  0  0  0  0  0  0  0  0  0  0  0
   -2.1475    1.5800    0.0153 N   0  0  0  0  0  0  0  0  0  0  0  0
   -2.9628    2.1691    0.1555 H   0  0  0  0  0  0  0  0  0  0  0  0
   -0.8992    1.8216    0.4718 C   0  0  0  0  0  0  0  0  0  0  0  0
   -0.5133    2.7604    0.8382 H   0  0  0  0  0  0  0  0  0  0  0  0
  1  2  3  0  0  0  0
  3 10  2  0  0  0  0
  4  6  2  0  0  0  0
  4  3  1  0  0  0  0
  5  4  1  0  0  0  0
  6  8  1  0  0  0  0
  7  6  1  0  0  0  0
  8  9  1  0  0  0  0
  8 10  1  0  0  0  0
 10 11  1  0  0  0  0
M  RAD  1   3   2
M  END
