Coordinates from ORCA-job Pyrrole-3-N2+-scan-d09-169-n800
 OpenBabel09191813553D

 11 10  0  0  0  0  0  0  0  0999 V2000
    7.0897    6.2773    1.5879 N   0  0  0  0  0  0  0  0  0  0  0  0
    7.9793    6.9135    1.7492 N   0  0  0  0  0  0  0  0  0  0  0  0
   -3.3647   -1.4407   -0.3291 C   0  0  0  0  0  0  0  0  0  0  0  0
   -3.7961   -0.4376   -1.1408 C   0  0  0  0  0  0  0  0  0  0  0  0
   -4.7781   -0.1407   -1.4825 H   0  0  0  0  0  0  0  0  0  0  0  0
   -2.7559    0.4489   -0.7770 C   0  0  0  0  0  0  0  0  0  0  0  0
   -2.8927    1.5213   -0.6643 H   0  0  0  0  0  0  0  0  0  0  0  0
   -1.6905   -0.1922   -0.1308 N   0  0  0  0  0  0  0  0  0  0  0  0
   -0.8480    0.2746    0.1949 H   0  0  0  0  0  0  0  0  0  0  0  0
   -2.0103   -1.4892    0.0110 C   0  0  0  0  0  0  0  0  0  0  0  0
   -1.3492   -2.3032    0.2727 H   0  0  0  0  0  0  0  0  0  0  0  0
  1  2  3  0  0  0  0
  3 10  2  0  0  0  0
  4  6  2  0  0  0  0
  4  3  1  0  0  0  0
  5  4  1  0  0  0  0
  6  7  1  0  0  0  0
  6  8  1  0  0  0  0
  8 10  1  0  0  0  0
  8  9  1  0  0  0  0
 10 11  1  0  0  0  0
M  RAD  1   3   2
M  END
