Coordinates from ORCA-job Pyrrole-3-N2+-scan-d09-169-n800
 OpenBabel09191813553D

 11 10  0  0  0  0  0  0  0  0999 V2000
    1.8657    0.8238    0.2123 N   0  0  0  0  0  0  0  0  0  0  0  0
    2.9637    0.7948    0.3212 N   0  0  0  0  0  0  0  0  0  0  0  0
   -0.1829    0.8169   -0.0177 C   0  0  0  0  0  0  0  0  0  0  0  0
   -0.8483   -0.2594   -0.5655 C   0  0  0  0  0  0  0  0  0  0  0  0
   -0.5312   -1.2145   -0.9509 H   0  0  0  0  0  0  0  0  0  0  0  0
   -2.1384    0.2663   -0.4773 C   0  0  0  0  0  0  0  0  0  0  0  0
   -3.0575   -0.2104   -0.7892 H   0  0  0  0  0  0  0  0  0  0  0  0
   -2.1225    1.5236    0.0787 N   0  0  0  0  0  0  0  0  0  0  0  0
   -2.9457    2.0934    0.2386 H   0  0  0  0  0  0  0  0  0  0  0  0
   -0.8475    1.9282    0.3980 C   0  0  0  0  0  0  0  0  0  0  0  0
   -0.5721    2.8693    0.8430 H   0  0  0  0  0  0  0  0  0  0  0  0
  1  2  3  0  0  0  0
  3 10  2  0  0  0  0
  4  6  2  0  0  0  0
  4  3  1  0  0  0  0
  5  4  1  0  0  0  0
  6  8  1  0  0  0  0
  7  6  1  0  0  0  0
  8  9  1  0  0  0  0
  8 10  1  0  0  0  0
 10 11  1  0  0  0  0
M  RAD  1   3   2
M  END
