Coordinates from ORCA-job Pyrrole-3-N2+-scan-d09-169-n800
 OpenBabel09191813553D

 11 10  0  0  0  0  0  0  0  0999 V2000
    9.1066    7.7007    2.0164 N   0  0  0  0  0  0  0  0  0  0  0  0
   10.0119    8.3204    2.1522 N   0  0  0  0  0  0  0  0  0  0  0  0
   -3.8190   -1.7526   -0.4281 C   0  0  0  0  0  0  0  0  0  0  0  0
   -4.2435   -0.7448   -1.2377 C   0  0  0  0  0  0  0  0  0  0  0  0
   -5.2231   -0.4428   -1.5819 H   0  0  0  0  0  0  0  0  0  0  0  0
   -3.2012    0.1362   -0.8667 C   0  0  0  0  0  0  0  0  0  0  0  0
   -3.3343    1.2087   -0.7505 H   0  0  0  0  0  0  0  0  0  0  0  0
   -2.1408   -0.5114   -0.2189 N   0  0  0  0  0  0  0  0  0  0  0  0
   -1.2976   -0.0492    0.1116 H   0  0  0  0  0  0  0  0  0  0  0  0
   -2.4662   -1.8077   -0.0831 C   0  0  0  0  0  0  0  0  0  0  0  0
   -1.8092   -2.6253    0.1780 H   0  0  0  0  0  0  0  0  0  0  0  0
  1  2  3  0  0  0  0
  3 10  2  0  0  0  0
  4  6  2  0  0  0  0
  4  3  1  0  0  0  0
  5  4  1  0  0  0  0
  6  7  1  0  0  0  0
  6  8  1  0  0  0  0
  8 10  1  0  0  0  0
  8  9  1  0  0  0  0
 10 11  1  0  0  0  0
M  RAD  1   3   2
M  END
