Coordinates from ORCA-job Pyrrole-3-N2+-scan-d09-169-n800
 OpenBabel09191813553D

 11 10  0  0  0  0  0  0  0  0999 V2000
    3.7704    3.9335    0.9267 N   0  0  0  0  0  0  0  0  0  0  0  0
    4.6478    4.5869    1.0858 N   0  0  0  0  0  0  0  0  0  0  0  0
   -2.6140   -0.9222   -0.1191 C   0  0  0  0  0  0  0  0  0  0  0  0
   -3.0803    0.0494   -0.9501 C   0  0  0  0  0  0  0  0  0  0  0  0
   -4.0759    0.3280   -1.2669 H   0  0  0  0  0  0  0  0  0  0  0  0
   -2.0351    0.9548   -0.6543 C   0  0  0  0  0  0  0  0  0  0  0  0
   -2.1761    2.0296   -0.5741 H   0  0  0  0  0  0  0  0  0  0  0  0
   -0.9425    0.3436   -0.0243 N   0  0  0  0  0  0  0  0  0  0  0  0
   -0.0921    0.8271    0.2538 H   0  0  0  0  0  0  0  0  0  0  0  0
   -1.2475   -0.9493    0.1737 C   0  0  0  0  0  0  0  0  0  0  0  0
   -0.5713   -1.7493    0.4400 H   0  0  0  0  0  0  0  0  0  0  0  0
  1  2  3  0  0  0  0
  3 10  2  0  0  0  0
  4  6  2  0  0  0  0
  4  3  1  0  0  0  0
  5  4  1  0  0  0  0
  6  7  1  0  0  0  0
  6  8  1  0  0  0  0
  8 10  1  0  0  0  0
  8  9  1  0  0  0  0
 10 11  1  0  0  0  0
M  RAD  1   3   2
M  END
