Coordinates from ORCA-job Pyrrole-3-N2+-scan-d09-169-n800
 OpenBabel09191813553D

 11 10  0  0  0  0  0  0  0  0999 V2000
    8.9107    7.5590    1.9722 N   0  0  0  0  0  0  0  0  0  0  0  0
    9.8110    8.1839    2.1168 N   0  0  0  0  0  0  0  0  0  0  0  0
   -3.7743   -1.7224   -0.4190 C   0  0  0  0  0  0  0  0  0  0  0  0
   -4.1993   -0.7148   -1.2288 C   0  0  0  0  0  0  0  0  0  0  0  0
   -5.1792   -0.4136   -1.5729 H   0  0  0  0  0  0  0  0  0  0  0  0
   -3.1580    0.1670   -0.8578 C   0  0  0  0  0  0  0  0  0  0  0  0
   -3.2920    1.2394   -0.7416 H   0  0  0  0  0  0  0  0  0  0  0  0
   -2.0969   -0.4799   -0.2101 N   0  0  0  0  0  0  0  0  0  0  0  0
   -1.2538   -0.0171    0.1200 H   0  0  0  0  0  0  0  0  0  0  0  0
   -2.4212   -1.7762   -0.0743 C   0  0  0  0  0  0  0  0  0  0  0  0
   -1.7636   -2.5933    0.1867 H   0  0  0  0  0  0  0  0  0  0  0  0
  1  2  3  0  0  0  0
  3 10  2  0  0  0  0
  4  6  2  0  0  0  0
  4  3  1  0  0  0  0
  5  4  1  0  0  0  0
  6  7  1  0  0  0  0
  6  8  1  0  0  0  0
  8 10  1  0  0  0  0
  8  9  1  0  0  0  0
 10 11  1  0  0  0  0
M  RAD  1   3   2
M  END
