Coordinates from ORCA-job Pyrrole-3-N2+-scan-d09-169-n800
 OpenBabel09191813553D

 11 10  0  0  0  0  0  0  0  0999 V2000
    3.8100    3.9613    0.9334 N   0  0  0  0  0  0  0  0  0  0  0  0
    4.6882    4.6135    1.0920 N   0  0  0  0  0  0  0  0  0  0  0  0
   -2.6220   -0.9292   -0.1245 C   0  0  0  0  0  0  0  0  0  0  0  0
   -3.0879    0.0434   -0.9541 C   0  0  0  0  0  0  0  0  0  0  0  0
   -4.0832    0.3216   -1.2726 H   0  0  0  0  0  0  0  0  0  0  0  0
   -2.0440    0.9492   -0.6543 C   0  0  0  0  0  0  0  0  0  0  0  0
   -2.1861    2.0238   -0.5723 H   0  0  0  0  0  0  0  0  0  0  0  0
   -0.9523    0.3380   -0.0234 N   0  0  0  0  0  0  0  0  0  0  0  0
   -0.1031    0.8218    0.2579 H   0  0  0  0  0  0  0  0  0  0  0  0
   -1.2563   -0.9558    0.1714 C   0  0  0  0  0  0  0  0  0  0  0  0
   -0.5799   -1.7557    0.4377 H   0  0  0  0  0  0  0  0  0  0  0  0
  1  2  3  0  0  0  0
  3 10  2  0  0  0  0
  4  6  2  0  0  0  0
  4  3  1  0  0  0  0
  5  4  1  0  0  0  0
  6  7  1  0  0  0  0
  6  8  1  0  0  0  0
  8 10  1  0  0  0  0
  8  9  1  0  0  0  0
 10 11  1  0  0  0  0
M  RAD  1   3   2
M  END
