Coordinates from ORCA-job Pyrrole-3-N2+-scan-d09-169-n800
 OpenBabel09191813553D

 11 10  0  0  0  0  0  0  0  0999 V2000
    3.5197    3.8956    1.1099 N   0  0  0  0  0  0  0  0  0  0  0  0
    4.3890    4.5463    1.3167 N   0  0  0  0  0  0  0  0  0  0  0  0
   -1.4143   -1.0894   -0.1593 C   0  0  0  0  0  0  0  0  0  0  0  0
   -2.5082   -0.9113   -0.9490 C   0  0  0  0  0  0  0  0  0  0  0  0
   -3.3303   -1.5593   -1.2203 H   0  0  0  0  0  0  0  0  0  0  0  0
   -2.6157    0.4715   -0.6741 C   0  0  0  0  0  0  0  0  0  0  0  0
   -3.5646    0.9902   -0.5645 H   0  0  0  0  0  0  0  0  0  0  0  0
   -1.4546    1.0082   -0.1013 N   0  0  0  0  0  0  0  0  0  0  0  0
   -1.3340    1.9851    0.1534 H   0  0  0  0  0  0  0  0  0  0  0  0
   -0.5791    0.0058    0.0786 C   0  0  0  0  0  0  0  0  0  0  0  0
    0.4755    0.0894    0.3012 H   0  0  0  0  0  0  0  0  0  0  0  0
  1  2  3  0  0  0  0
  3 10  2  0  0  0  0
  4  6  2  0  0  0  0
  4  3  1  0  0  0  0
  5  4  1  0  0  0  0
  6  7  1  0  0  0  0
  6  8  1  0  0  0  0
  8 10  1  0  0  0  0
  8  9  1  0  0  0  0
 10 11  1  0  0  0  0
M  RAD  1   3   2
M  END
