Coordinates from ORCA-job Pyrrole-3-N2+-scan-d09-169-n800
 OpenBabel09191813553D

 11 10  0  0  0  0  0  0  0  0999 V2000
    2.5406    2.3967    0.7546 N   0  0  0  0  0  0  0  0  0  0  0  0
    3.5217    2.8607    0.9602 N   0  0  0  0  0  0  0  0  0  0  0  0
   -0.7583   -0.4666   -0.0651 C   0  0  0  0  0  0  0  0  0  0  0  0
   -1.8393   -0.7650   -0.8370 C   0  0  0  0  0  0  0  0  0  0  0  0
   -2.3322   -1.6962   -1.0798 H   0  0  0  0  0  0  0  0  0  0  0  0
   -2.4931    0.4629   -0.5862 C   0  0  0  0  0  0  0  0  0  0  0  0
   -3.5694    0.5594   -0.4705 H   0  0  0  0  0  0  0  0  0  0  0  0
   -1.6403    1.4341   -0.0447 N   0  0  0  0  0  0  0  0  0  0  0  0
   -1.9206    2.3829    0.1882 H   0  0  0  0  0  0  0  0  0  0  0  0
   -0.4305    0.8768    0.1351 C   0  0  0  0  0  0  0  0  0  0  0  0
    0.5047    1.3864    0.3363 H   0  0  0  0  0  0  0  0  0  0  0  0
  1  2  3  0  0  0  0
  3 10  2  0  0  0  0
  4  6  2  0  0  0  0
  4  3  1  0  0  0  0
  5  4  1  0  0  0  0
  6  7  1  0  0  0  0
  6  8  1  0  0  0  0
  8 10  1  0  0  0  0
  8  9  1  0  0  0  0
 10 11  1  0  0  0  0
M  RAD  1   3   2
M  END
