Coordinates from ORCA-job Pyrrole-3-N2+-scan-d09-169-n800
 OpenBabel09191813553D

 11 10  0  0  0  0  0  0  0  0999 V2000
    4.0459    4.1288    0.9751 N   0  0  0  0  0  0  0  0  0  0  0  0
    4.9265    4.7781    1.1331 N   0  0  0  0  0  0  0  0  0  0  0  0
   -2.6744   -0.9687   -0.1491 C   0  0  0  0  0  0  0  0  0  0  0  0
   -3.1347    0.0103   -0.9744 C   0  0  0  0  0  0  0  0  0  0  0  0
   -4.1276    0.2895   -1.2993 H   0  0  0  0  0  0  0  0  0  0  0  0
   -2.0950    0.9151   -0.6577 C   0  0  0  0  0  0  0  0  0  0  0  0
   -2.2396    1.9886   -0.5678 H   0  0  0  0  0  0  0  0  0  0  0  0
   -1.0079    0.3002   -0.0223 N   0  0  0  0  0  0  0  0  0  0  0  0
   -0.1621    0.7828    0.2707 H   0  0  0  0  0  0  0  0  0  0  0  0
   -1.3115   -0.9958    0.1587 C   0  0  0  0  0  0  0  0  0  0  0  0
   -0.6361   -1.7969    0.4241 H   0  0  0  0  0  0  0  0  0  0  0  0
  1  2  3  0  0  0  0
  3 10  2  0  0  0  0
  4  6  2  0  0  0  0
  4  3  1  0  0  0  0
  5  4  1  0  0  0  0
  6  7  1  0  0  0  0
  6  8  1  0  0  0  0
  8 10  1  0  0  0  0
  8  9  1  0  0  0  0
 10 11  1  0  0  0  0
M  RAD  1   3   2
M  END
