Coordinates from ORCA-job Pyrrole-3-N2+-scan-d09-169-n800
 OpenBabel09191813553D

 11 10  0  0  0  0  0  0  0  0999 V2000
    2.5979    1.6319    0.4983 N   0  0  0  0  0  0  0  0  0  0  0  0
    3.6918    1.7720    0.5687 N   0  0  0  0  0  0  0  0  0  0  0  0
   -0.5537    0.0927    0.1636 C   0  0  0  0  0  0  0  0  0  0  0  0
   -1.3419   -0.5575   -0.7358 C   0  0  0  0  0  0  0  0  0  0  0  0
   -1.4435   -1.6000   -1.0039 H   0  0  0  0  0  0  0  0  0  0  0  0
   -2.4078    0.3656   -0.6325 C   0  0  0  0  0  0  0  0  0  0  0  0
   -3.4558    0.0801   -0.6693 H   0  0  0  0  0  0  0  0  0  0  0  0
   -2.0316    1.5703   -0.0235 N   0  0  0  0  0  0  0  0  0  0  0  0
   -2.6544    2.3592    0.1281 H   0  0  0  0  0  0  0  0  0  0  0  0
   -0.7453    1.4635    0.3494 C   0  0  0  0  0  0  0  0  0  0  0  0
   -0.0724    2.2542    0.6480 H   0  0  0  0  0  0  0  0  0  0  0  0
  1  2  3  0  0  0  0
  3 10  2  0  0  0  0
  4  6  2  0  0  0  0
  4  3  1  0  0  0  0
  5  4  1  0  0  0  0
  6  8  1  0  0  0  0
  7  6  1  0  0  0  0
  8  9  1  0  0  0  0
  8 10  1  0  0  0  0
 10 11  1  0  0  0  0
M  RAD  1   3   2
M  END
