Coordinates from ORCA-job Pyrrole-3-N2+-scan-d09-169-n800
 OpenBabel09191813553D

 11 10  0  0  0  0  0  0  0  0999 V2000
    9.4467    7.9456    2.0922 N   0  0  0  0  0  0  0  0  0  0  0  0
   10.3609    8.5555    2.2117 N   0  0  0  0  0  0  0  0  0  0  0  0
   -3.8965   -1.8053   -0.4436 C   0  0  0  0  0  0  0  0  0  0  0  0
   -4.3198   -0.7972   -1.2532 C   0  0  0  0  0  0  0  0  0  0  0  0
   -5.2990   -0.4944   -1.5978 H   0  0  0  0  0  0  0  0  0  0  0  0
   -3.2770    0.0830   -0.8817 C   0  0  0  0  0  0  0  0  0  0  0  0
   -3.4093    1.1556   -0.7656 H   0  0  0  0  0  0  0  0  0  0  0  0
   -2.2173   -0.5655   -0.2336 N   0  0  0  0  0  0  0  0  0  0  0  0
   -1.3740   -0.1040    0.0974 H   0  0  0  0  0  0  0  0  0  0  0  0
   -2.5438   -1.8616   -0.0980 C   0  0  0  0  0  0  0  0  0  0  0  0
   -1.8876   -2.6797    0.1634 H   0  0  0  0  0  0  0  0  0  0  0  0
  1  2  3  0  0  0  0
  3 10  2  0  0  0  0
  4  6  2  0  0  0  0
  4  3  1  0  0  0  0
  5  4  1  0  0  0  0
  6  7  1  0  0  0  0
  6  8  1  0  0  0  0
  8 10  1  0  0  0  0
  8  9  1  0  0  0  0
 10 11  1  0  0  0  0
M  RAD  1   3   2
M  END
