Coordinates from ORCA-job Pyrrole-3-N2+-scan-d09-169-n800
 OpenBabel09191813553D

 11 10  0  0  0  0  0  0  0  0999 V2000
    6.8908    6.1387    1.5471 N   0  0  0  0  0  0  0  0  0  0  0  0
    7.7804    6.7750    1.7080 N   0  0  0  0  0  0  0  0  0  0  0  0
   -3.3205   -1.4100   -0.3186 C   0  0  0  0  0  0  0  0  0  0  0  0
   -3.7521   -0.4073   -1.1310 C   0  0  0  0  0  0  0  0  0  0  0  0
   -4.7344   -0.1107   -1.4723 H   0  0  0  0  0  0  0  0  0  0  0  0
   -2.7121    0.4795   -0.7683 C   0  0  0  0  0  0  0  0  0  0  0  0
   -2.8491    1.5519   -0.6562 H   0  0  0  0  0  0  0  0  0  0  0  0
   -1.6462   -0.1612   -0.1223 N   0  0  0  0  0  0  0  0  0  0  0  0
   -0.8032    0.3058    0.2022 H   0  0  0  0  0  0  0  0  0  0  0  0
   -1.9658   -1.4580    0.0204 C   0  0  0  0  0  0  0  0  0  0  0  0
   -1.3044   -2.2718    0.2822 H   0  0  0  0  0  0  0  0  0  0  0  0
  1  2  3  0  0  0  0
  3 10  2  0  0  0  0
  4  6  2  0  0  0  0
  4  3  1  0  0  0  0
  5  4  1  0  0  0  0
  6  7  1  0  0  0  0
  6  8  1  0  0  0  0
  8 10  1  0  0  0  0
  8  9  1  0  0  0  0
 10 11  1  0  0  0  0
M  RAD  1   3   2
M  END
