Coordinates from ORCA-job Pyrrole-3-N2+-scan-d09-169-n800
 OpenBabel09191813553D

 11 10  0  0  0  0  0  0  0  0999 V2000
    2.8052    2.9673    0.8822 N   0  0  0  0  0  0  0  0  0  0  0  0
    3.6873    3.6021    1.0827 N   0  0  0  0  0  0  0  0  0  0  0  0
   -1.0253   -0.7770   -0.0993 C   0  0  0  0  0  0  0  0  0  0  0  0
   -2.1387   -0.8290   -0.8802 C   0  0  0  0  0  0  0  0  0  0  0  0
   -2.8175   -1.6308   -1.1364 H   0  0  0  0  0  0  0  0  0  0  0  0
   -2.5171    0.5079   -0.6188 C   0  0  0  0  0  0  0  0  0  0  0  0
   -3.5491    0.8297   -0.5057 H   0  0  0  0  0  0  0  0  0  0  0  0
   -1.4812    1.2708   -0.0633 N   0  0  0  0  0  0  0  0  0  0  0  0
   -1.5545    2.2552    0.1801 H   0  0  0  0  0  0  0  0  0  0  0  0
   -0.4211    0.4662    0.1176 C   0  0  0  0  0  0  0  0  0  0  0  0
    0.5952    0.7697    0.3321 H   0  0  0  0  0  0  0  0  0  0  0  0
  1  2  3  0  0  0  0
  3 10  2  0  0  0  0
  4  6  2  0  0  0  0
  4  3  1  0  0  0  0
  5  4  1  0  0  0  0
  6  7  1  0  0  0  0
  6  8  1  0  0  0  0
  8 10  1  0  0  0  0
  8  9  1  0  0  0  0
 10 11  1  0  0  0  0
M  RAD  1   3   2
M  END
