Coordinates from ORCA-job Pyrrole-3-N2+-scan-d09-169-n800
 OpenBabel09191813553D

 11 11  0  0  0  0  0  0  0  0999 V2000
    1.3159    0.8120    0.1463 N   0  0  0  0  0  0  0  0  0  0  0  0
    2.4358    0.7741    0.2537 N   0  0  0  0  0  0  0  0  0  0  0  0
    0.0823    0.8295    0.0172 C   0  0  0  0  0  0  0  0  0  0  0  0
   -0.7511   -0.2226   -0.5387 C   0  0  0  0  0  0  0  0  0  0  0  0
   -0.4082   -1.1734   -0.9196 H   0  0  0  0  0  0  0  0  0  0  0  0
   -2.0264    0.2462   -0.4734 C   0  0  0  0  0  0  0  0  0  0  0  0
   -2.9572   -0.2094   -0.7772 H   0  0  0  0  0  0  0  0  0  0  0  0
   -2.0024    1.5217    0.0911 N   0  0  0  0  0  0  0  0  0  0  0  0
   -2.8262    2.0920    0.2510 H   0  0  0  0  0  0  0  0  0  0  0  0
   -0.7626    1.9044    0.3969 C   0  0  0  0  0  0  0  0  0  0  0  0
   -0.5165    2.8575    0.8439 H   0  0  0  0  0  0  0  0  0  0  0  0
  1  2  1  0  0  0  0
  3  1  1  0  0  0  0
  3 10  2  0  0  0  0
  4  6  2  0  0  0  0
  4  3  1  0  0  0  0
  5  4  1  0  0  0  0
  6  8  1  0  0  0  0
  7  6  1  0  0  0  0
  8  9  1  0  0  0  0
  8 10  1  0  0  0  0
 10 11  1  0  0  0  0
M  RAD  2   1   2   2   3
M  END
