Coordinates from ORCA-job Pyrrole-3-N2+-scan-d09-169-n800
 OpenBabel09191813553D

 11 10  0  0  0  0  0  0  0  0999 V2000
    2.0756    0.9539    0.2179 N   0  0  0  0  0  0  0  0  0  0  0  0
    3.1795    0.9645    0.2507 N   0  0  0  0  0  0  0  0  0  0  0  0
   -0.3176    0.5851    0.2697 C   0  0  0  0  0  0  0  0  0  0  0  0
   -0.8972   -0.2741   -0.6262 C   0  0  0  0  0  0  0  0  0  0  0  0
   -0.6817   -1.2940   -0.9085 H   0  0  0  0  0  0  0  0  0  0  0  0
   -2.1622    0.3331   -0.6119 C   0  0  0  0  0  0  0  0  0  0  0  0
   -3.1022   -0.1777   -0.7901 H   0  0  0  0  0  0  0  0  0  0  0  0
   -2.1413    1.5779    0.0171 N   0  0  0  0  0  0  0  0  0  0  0  0
   -2.9597    2.1614    0.1622 H   0  0  0  0  0  0  0  0  0  0  0  0
   -0.8930    1.8302    0.4707 C   0  0  0  0  0  0  0  0  0  0  0  0
   -0.5167    2.7718    0.8395 H   0  0  0  0  0  0  0  0  0  0  0  0
  1  2  3  0  0  0  0
  3 10  2  0  0  0  0
  4  6  2  0  0  0  0
  4  3  1  0  0  0  0
  5  4  1  0  0  0  0
  6  8  1  0  0  0  0
  7  6  1  0  0  0  0
  8  9  1  0  0  0  0
  8 10  1  0  0  0  0
 10 11  1  0  0  0  0
M  RAD  1   3   2
M  END
