Coordinates from ORCA-job Pyrrole-3-N2+-scan-d09-169-n800
 OpenBabel09191813553D

 11 10  0  0  0  0  0  0  0  0999 V2000
    9.3419    7.8703    2.0690 N   0  0  0  0  0  0  0  0  0  0  0  0
   10.2534    8.4833    2.1936 N   0  0  0  0  0  0  0  0  0  0  0  0
   -3.8727   -1.7891   -0.4389 C   0  0  0  0  0  0  0  0  0  0  0  0
   -4.2963   -0.7810   -1.2485 C   0  0  0  0  0  0  0  0  0  0  0  0
   -5.2756   -0.4784   -1.5929 H   0  0  0  0  0  0  0  0  0  0  0  0
   -3.2536    0.0993   -0.8771 C   0  0  0  0  0  0  0  0  0  0  0  0
   -3.3861    1.1719   -0.7609 H   0  0  0  0  0  0  0  0  0  0  0  0
   -2.1937   -0.5490   -0.2291 N   0  0  0  0  0  0  0  0  0  0  0  0
   -1.3504   -0.0873    0.1017 H   0  0  0  0  0  0  0  0  0  0  0  0
   -2.5200   -1.8451   -0.0935 C   0  0  0  0  0  0  0  0  0  0  0  0
   -1.8636   -2.6631    0.1678 H   0  0  0  0  0  0  0  0  0  0  0  0
  1  2  3  0  0  0  0
  3 10  2  0  0  0  0
  4  6  2  0  0  0  0
  4  3  1  0  0  0  0
  5  4  1  0  0  0  0
  6  7  1  0  0  0  0
  6  8  1  0  0  0  0
  8 10  1  0  0  0  0
  8  9  1  0  0  0  0
 10 11  1  0  0  0  0
M  RAD  1   3   2
M  END
