Coordinates from ORCA-job Pyrrole-3-N2+-scan-d09-169-n800
 OpenBabel09191813553D

 11 11  0  0  0  0  0  0  0  0999 V2000
    1.4515    0.8151    0.1629 N   0  0  0  0  0  0  0  0  0  0  0  0
    2.5606    0.7790    0.2701 N   0  0  0  0  0  0  0  0  0  0  0  0
    0.0191    0.8260    0.0087 C   0  0  0  0  0  0  0  0  0  0  0  0
   -0.7738   -0.2275   -0.5437 C   0  0  0  0  0  0  0  0  0  0  0  0
   -0.4385   -1.1795   -0.9261 H   0  0  0  0  0  0  0  0  0  0  0  0
   -2.0539    0.2506   -0.4743 C   0  0  0  0  0  0  0  0  0  0  0  0
   -2.9835   -0.2068   -0.7786 H   0  0  0  0  0  0  0  0  0  0  0  0
   -2.0308    1.5205    0.0874 N   0  0  0  0  0  0  0  0  0  0  0  0
   -2.8541    2.0900    0.2472 H   0  0  0  0  0  0  0  0  0  0  0  0
   -0.7809    1.9066    0.3956 C   0  0  0  0  0  0  0  0  0  0  0  0
   -0.5324    2.8579    0.8420 H   0  0  0  0  0  0  0  0  0  0  0  0
  1  2  1  0  0  0  0
  3  1  1  0  0  0  0
  3 10  2  0  0  0  0
  4  6  2  0  0  0  0
  4  3  1  0  0  0  0
  5  4  1  0  0  0  0
  6  8  1  0  0  0  0
  7  6  1  0  0  0  0
  8  9  1  0  0  0  0
  8 10  1  0  0  0  0
 10 11  1  0  0  0  0
M  RAD  2   1   2   2   3
M  END
