Coordinates from ORCA-job Pyrrole-3-N2+-scan-d09-169-n800
 OpenBabel09191813553D

 11 10  0  0  0  0  0  0  0  0999 V2000
    2.7959    2.9566    0.8792 N   0  0  0  0  0  0  0  0  0  0  0  0
    3.6780    3.5915    1.0795 N   0  0  0  0  0  0  0  0  0  0  0  0
   -1.0210   -0.7734   -0.0985 C   0  0  0  0  0  0  0  0  0  0  0  0
   -2.1344   -0.8276   -0.8795 C   0  0  0  0  0  0  0  0  0  0  0  0
   -2.8116   -1.6308   -1.1356 H   0  0  0  0  0  0  0  0  0  0  0  0
   -2.5154    0.5085   -0.6181 C   0  0  0  0  0  0  0  0  0  0  0  0
   -3.5481    0.8282   -0.5051 H   0  0  0  0  0  0  0  0  0  0  0  0
   -1.4810    1.2735   -0.0626 N   0  0  0  0  0  0  0  0  0  0  0  0
   -1.5562    2.2577    0.1807 H   0  0  0  0  0  0  0  0  0  0  0  0
   -0.4193    0.4710    0.1183 C   0  0  0  0  0  0  0  0  0  0  0  0
    0.5964    0.7767    0.3329 H   0  0  0  0  0  0  0  0  0  0  0  0
  1  2  3  0  0  0  0
  3 10  2  0  0  0  0
  4  6  2  0  0  0  0
  4  3  1  0  0  0  0
  5  4  1  0  0  0  0
  6  7  1  0  0  0  0
  6  8  1  0  0  0  0
  8 10  1  0  0  0  0
  8  9  1  0  0  0  0
 10 11  1  0  0  0  0
M  RAD  1   3   2
M  END
