Coordinates from ORCA-job Pyrrole-3-N2+-scan-d09-169-n800
 OpenBabel09191813553D

 11 10  0  0  0  0  0  0  0  0999 V2000
    8.8455    7.5119    1.9574 N   0  0  0  0  0  0  0  0  0  0  0  0
    9.7443    8.1384    2.1049 N   0  0  0  0  0  0  0  0  0  0  0  0
   -3.7591   -1.7123   -0.4162 C   0  0  0  0  0  0  0  0  0  0  0  0
   -4.1848   -0.7050   -1.2257 C   0  0  0  0  0  0  0  0  0  0  0  0
   -5.1649   -0.4041   -1.5698 H   0  0  0  0  0  0  0  0  0  0  0  0
   -3.1435    0.1772   -0.8549 C   0  0  0  0  0  0  0  0  0  0  0  0
   -3.2778    1.2496   -0.7388 H   0  0  0  0  0  0  0  0  0  0  0  0
   -2.0823   -0.4692   -0.2073 N   0  0  0  0  0  0  0  0  0  0  0  0
   -1.2396   -0.0060    0.1231 H   0  0  0  0  0  0  0  0  0  0  0  0
   -2.4062   -1.7658   -0.0714 C   0  0  0  0  0  0  0  0  0  0  0  0
   -1.7483   -2.5827    0.1897 H   0  0  0  0  0  0  0  0  0  0  0  0
  1  2  3  0  0  0  0
  3 10  2  0  0  0  0
  4  6  2  0  0  0  0
  4  3  1  0  0  0  0
  5  4  1  0  0  0  0
  6  7  1  0  0  0  0
  6  8  1  0  0  0  0
  8 10  1  0  0  0  0
  8  9  1  0  0  0  0
 10 11  1  0  0  0  0
M  RAD  1   3   2
M  END
