Coordinates from ORCA-job Pyrrole-3-N2+-scan-d09-169-n800
 OpenBabel09191813553D

 11 10  0  0  0  0  0  0  0  0999 V2000
    4.4643    4.4288    1.0551 N   0  0  0  0  0  0  0  0  0  0  0  0
    5.3470    5.0751    1.2131 N   0  0  0  0  0  0  0  0  0  0  0  0
   -2.7712   -1.0345   -0.1815 C   0  0  0  0  0  0  0  0  0  0  0  0
   -3.2226   -0.0477   -1.0024 C   0  0  0  0  0  0  0  0  0  0  0  0
   -4.2121    0.2366   -1.3330 H   0  0  0  0  0  0  0  0  0  0  0  0
   -2.1834    0.8520   -0.6698 C   0  0  0  0  0  0  0  0  0  0  0  0
   -2.3262    1.9251   -0.5723 H   0  0  0  0  0  0  0  0  0  0  0  0
   -1.1030    0.2292   -0.0306 N   0  0  0  0  0  0  0  0  0  0  0  0
   -0.2586    0.7073    0.2735 H   0  0  0  0  0  0  0  0  0  0  0  0
   -1.4110   -1.0675    0.1373 C   0  0  0  0  0  0  0  0  0  0  0  0
   -0.7397   -1.8723    0.4016 H   0  0  0  0  0  0  0  0  0  0  0  0
  1  2  3  0  0  0  0
  3 10  2  0  0  0  0
  4  6  2  0  0  0  0
  4  3  1  0  0  0  0
  5  4  1  0  0  0  0
  6  7  1  0  0  0  0
  6  8  1  0  0  0  0
  8 10  1  0  0  0  0
  8  9  1  0  0  0  0
 10 11  1  0  0  0  0
M  RAD  1   3   2
M  END
