Coordinates from ORCA-job Pyrrole-3-N2+-scan-d09-169-n800
 OpenBabel09191813553D

 11 10  0  0  0  0  0  0  0  0999 V2000
    2.5580    1.4120    0.4063 N   0  0  0  0  0  0  0  0  0  0  0  0
    3.6535    1.5499    0.4524 N   0  0  0  0  0  0  0  0  0  0  0  0
   -0.5194    0.2249    0.2322 C   0  0  0  0  0  0  0  0  0  0  0  0
   -1.2171   -0.4801   -0.7002 C   0  0  0  0  0  0  0  0  0  0  0  0
   -1.2264   -1.5258   -0.9748 H   0  0  0  0  0  0  0  0  0  0  0  0
   -2.3533    0.3584   -0.6439 C   0  0  0  0  0  0  0  0  0  0  0  0
   -3.3740   -0.0046   -0.7310 H   0  0  0  0  0  0  0  0  0  0  0  0
   -2.0973    1.5847   -0.0168 N   0  0  0  0  0  0  0  0  0  0  0  0
   -2.7848    2.3225    0.1098 H   0  0  0  0  0  0  0  0  0  0  0  0
   -0.8239    1.5749    0.4129 C   0  0  0  0  0  0  0  0  0  0  0  0
   -0.2319    2.4152    0.7443 H   0  0  0  0  0  0  0  0  0  0  0  0
  1  2  3  0  0  0  0
  3 10  2  0  0  0  0
  4  6  2  0  0  0  0
  4  3  1  0  0  0  0
  5  4  1  0  0  0  0
  6  8  1  0  0  0  0
  7  6  1  0  0  0  0
  8  9  1  0  0  0  0
  8 10  1  0  0  0  0
 10 11  1  0  0  0  0
M  RAD  1   3   2
M  END
