Coordinates from ORCA-job Pyrrole-3-N2+-scan-d09-169-n800
 OpenBabel09191813553D

 11 10  0  0  0  0  0  0  0  0999 V2000
    2.6450    2.7599    0.8268 N   0  0  0  0  0  0  0  0  0  0  0  0
    3.5331    3.3866    1.0257 N   0  0  0  0  0  0  0  0  0  0  0  0
   -0.9405   -0.6996   -0.0856 C   0  0  0  0  0  0  0  0  0  0  0  0
   -2.0509   -0.8040   -0.8659 C   0  0  0  0  0  0  0  0  0  0  0  0
   -2.6919   -1.6367   -1.1205 H   0  0  0  0  0  0  0  0  0  0  0  0
   -2.4905    0.5141   -0.6059 C   0  0  0  0  0  0  0  0  0  0  0  0
   -3.5361    0.7884   -0.4931 H   0  0  0  0  0  0  0  0  0  0  0  0
   -1.4904    1.3244   -0.0520 N   0  0  0  0  0  0  0  0  0  0  0  0
   -1.6088    2.3047    0.1899 H   0  0  0  0  0  0  0  0  0  0  0  0
   -0.3933    0.5704    0.1288 C   0  0  0  0  0  0  0  0  0  0  0  0
    0.6078    0.9237    0.3429 H   0  0  0  0  0  0  0  0  0  0  0  0
  1  2  3  0  0  0  0
  3 10  2  0  0  0  0
  4  6  2  0  0  0  0
  4  3  1  0  0  0  0
  5  4  1  0  0  0  0
  6  7  1  0  0  0  0
  6  8  1  0  0  0  0
  8 10  1  0  0  0  0
  8  9  1  0  0  0  0
 10 11  1  0  0  0  0
M  RAD  1   3   2
M  END
