Coordinates from ORCA-job Pyrrole-3-N2+-scan-d09-169-n800
 OpenBabel09191813553D

 11 10  0  0  0  0  0  0  0  0999 V2000
    5.5165    5.1746    1.2655 N   0  0  0  0  0  0  0  0  0  0  0  0
    6.4028    5.8155    1.4257 N   0  0  0  0  0  0  0  0  0  0  0  0
   -3.0118   -1.1970   -0.2456 C   0  0  0  0  0  0  0  0  0  0  0  0
   -3.4505   -0.2002   -1.0611 C   0  0  0  0  0  0  0  0  0  0  0  0
   -4.4354    0.0923   -1.3983 H   0  0  0  0  0  0  0  0  0  0  0  0
   -2.4100    0.6909   -0.7099 C   0  0  0  0  0  0  0  0  0  0  0  0
   -2.5484    1.7637   -0.6034 H   0  0  0  0  0  0  0  0  0  0  0  0
   -1.3390    0.0564   -0.0665 N   0  0  0  0  0  0  0  0  0  0  0  0
   -0.4953    0.5272    0.2504 H   0  0  0  0  0  0  0  0  0  0  0  0
   -1.6550   -1.2403    0.0859 C   0  0  0  0  0  0  0  0  0  0  0  0
   -0.9904   -2.0511    0.3486 H   0  0  0  0  0  0  0  0  0  0  0  0
  1  2  3  0  0  0  0
  3 10  2  0  0  0  0
  4  6  2  0  0  0  0
  4  3  1  0  0  0  0
  5  4  1  0  0  0  0
  6  7  1  0  0  0  0
  6  8  1  0  0  0  0
  8 10  1  0  0  0  0
  8  9  1  0  0  0  0
 10 11  1  0  0  0  0
M  RAD  1   3   2
M  END
