Coordinates from ORCA-job Pyrrole-3-N2+-scan-d09-169-n800
 OpenBabel09191813553D

 11 10  0  0  0  0  0  0  0  0999 V2000
    6.5072    5.8704    1.4684 N   0  0  0  0  0  0  0  0  0  0  0  0
    7.3961    6.5077    1.6289 N   0  0  0  0  0  0  0  0  0  0  0  0
   -3.2346   -1.3504   -0.2989 C   0  0  0  0  0  0  0  0  0  0  0  0
   -3.6679   -0.3490   -1.1118 C   0  0  0  0  0  0  0  0  0  0  0  0
   -4.6507   -0.0531   -1.4521 H   0  0  0  0  0  0  0  0  0  0  0  0
   -2.6273    0.5385   -0.7518 C   0  0  0  0  0  0  0  0  0  0  0  0
   -2.7642    1.6111   -0.6409 H   0  0  0  0  0  0  0  0  0  0  0  0
   -1.5604   -0.1009   -0.1064 N   0  0  0  0  0  0  0  0  0  0  0  0
   -0.7174    0.3667    0.2166 H   0  0  0  0  0  0  0  0  0  0  0  0
   -1.8796   -1.3978    0.0386 C   0  0  0  0  0  0  0  0  0  0  0  0
   -1.2176   -2.2111    0.3006 H   0  0  0  0  0  0  0  0  0  0  0  0
  1  2  3  0  0  0  0
  3 10  2  0  0  0  0
  4  6  2  0  0  0  0
  4  3  1  0  0  0  0
  5  4  1  0  0  0  0
  6  7  1  0  0  0  0
  6  8  1  0  0  0  0
  8 10  1  0  0  0  0
  8  9  1  0  0  0  0
 10 11  1  0  0  0  0
M  RAD  1   3   2
M  END
