Coordinates from ORCA-job Pyrrole-3-N2+-scan-d09-169-n800
 OpenBabel09191813553D

 11 10  0  0  0  0  0  0  0  0999 V2000
    6.5206    5.8794    1.4710 N   0  0  0  0  0  0  0  0  0  0  0  0
    7.4092    6.5170    1.6317 N   0  0  0  0  0  0  0  0  0  0  0  0
   -3.2376   -1.3525   -0.2996 C   0  0  0  0  0  0  0  0  0  0  0  0
   -3.6708   -0.3510   -1.1125 C   0  0  0  0  0  0  0  0  0  0  0  0
   -4.6536   -0.0551   -1.4528 H   0  0  0  0  0  0  0  0  0  0  0  0
   -2.6303    0.5365   -0.7523 C   0  0  0  0  0  0  0  0  0  0  0  0
   -2.7672    1.6090   -0.6414 H   0  0  0  0  0  0  0  0  0  0  0  0
   -1.5634   -0.1030   -0.1069 N   0  0  0  0  0  0  0  0  0  0  0  0
   -0.7204    0.3647    0.2162 H   0  0  0  0  0  0  0  0  0  0  0  0
   -1.8825   -1.3998    0.0380 C   0  0  0  0  0  0  0  0  0  0  0  0
   -1.2206   -2.2131    0.2999 H   0  0  0  0  0  0  0  0  0  0  0  0
  1  2  3  0  0  0  0
  3 10  2  0  0  0  0
  4  6  2  0  0  0  0
  4  3  1  0  0  0  0
  5  4  1  0  0  0  0
  6  7  1  0  0  0  0
  6  8  1  0  0  0  0
  8 10  1  0  0  0  0
  8  9  1  0  0  0  0
 10 11  1  0  0  0  0
M  RAD  1   3   2
M  END
