Coordinates from ORCA-job Pyrrole-3-N2+-scan-d09-169-n800
 OpenBabel09191813553D

 11 10  0  0  0  0  0  0  0  0999 V2000
    3.3697    3.7352    1.0726 N   0  0  0  0  0  0  0  0  0  0  0  0
    4.2367    4.3892    1.2788 N   0  0  0  0  0  0  0  0  0  0  0  0
   -1.3513   -1.0436   -0.1475 C   0  0  0  0  0  0  0  0  0  0  0  0
   -2.4535   -0.8952   -0.9319 C   0  0  0  0  0  0  0  0  0  0  0  0
   -3.2616   -1.5637   -1.1953 H   0  0  0  0  0  0  0  0  0  0  0  0
   -2.5923    0.4860   -0.6629 C   0  0  0  0  0  0  0  0  0  0  0  0
   -3.5526    0.9826   -0.5502 H   0  0  0  0  0  0  0  0  0  0  0  0
   -1.4410    1.0529   -0.0993 N   0  0  0  0  0  0  0  0  0  0  0  0
   -1.3420    2.0336    0.1499 H   0  0  0  0  0  0  0  0  0  0  0  0
   -0.5410    0.0724    0.0803 C   0  0  0  0  0  0  0  0  0  0  0  0
    0.5125    0.1825    0.2967 H   0  0  0  0  0  0  0  0  0  0  0  0
  1  2  3  0  0  0  0
  3 10  2  0  0  0  0
  4  6  2  0  0  0  0
  4  3  1  0  0  0  0
  5  4  1  0  0  0  0
  6  7  1  0  0  0  0
  6  8  1  0  0  0  0
  8 10  1  0  0  0  0
  8  9  1  0  0  0  0
 10 11  1  0  0  0  0
M  RAD  1   3   2
M  END
