Coordinates from ORCA-job Pyrrole-3-N2+-scan-d09-169-n800
 OpenBabel09191813553D

 11 10  0  0  0  0  0  0  0  0999 V2000
    2.5452    2.2342    0.7151 N   0  0  0  0  0  0  0  0  0  0  0  0
    3.5877    2.5451    0.9064 N   0  0  0  0  0  0  0  0  0  0  0  0
   -0.6804   -0.3216   -0.0400 C   0  0  0  0  0  0  0  0  0  0  0  0
   -1.7179   -0.7300   -0.8214 C   0  0  0  0  0  0  0  0  0  0  0  0
   -2.1134   -1.7068   -1.0635 H   0  0  0  0  0  0  0  0  0  0  0  0
   -2.4937    0.4276   -0.5839 C   0  0  0  0  0  0  0  0  0  0  0  0
   -3.5753    0.4158   -0.4780 H   0  0  0  0  0  0  0  0  0  0  0  0
   -1.7482    1.4824   -0.0403 N   0  0  0  0  0  0  0  0  0  0  0  0
   -2.1242    2.4000    0.1828 H   0  0  0  0  0  0  0  0  0  0  0  0
   -0.4915    1.0486    0.1555 C   0  0  0  0  0  0  0  0  0  0  0  0
    0.3952    1.6367    0.3587 H   0  0  0  0  0  0  0  0  0  0  0  0
  1  2  3  0  0  0  0
  3 10  2  0  0  0  0
  4  6  2  0  0  0  0
  4  3  1  0  0  0  0
  5  4  1  0  0  0  0
  6  7  1  0  0  0  0
  6  8  1  0  0  0  0
  8 10  1  0  0  0  0
  8  9  1  0  0  0  0
 10 11  1  0  0  0  0
M  RAD  1   3   2
M  END
