Coordinates from ORCA-job Pyrrole-3-N2+-scan-d09-169-n800
 OpenBabel09191813553D

 11 10  0  0  0  0  0  0  0  0999 V2000
    4.1244    4.1849    0.9897 N   0  0  0  0  0  0  0  0  0  0  0  0
    5.0053    4.8337    1.1476 N   0  0  0  0  0  0  0  0  0  0  0  0
   -2.6925   -0.9812   -0.1559 C   0  0  0  0  0  0  0  0  0  0  0  0
   -3.1509   -0.0005   -0.9802 C   0  0  0  0  0  0  0  0  0  0  0  0
   -4.1430    0.2796   -1.3064 H   0  0  0  0  0  0  0  0  0  0  0  0
   -2.1116    0.9034   -0.6595 C   0  0  0  0  0  0  0  0  0  0  0  0
   -2.2561    1.9768   -0.5678 H   0  0  0  0  0  0  0  0  0  0  0  0
   -1.0259    0.2870   -0.0232 N   0  0  0  0  0  0  0  0  0  0  0  0
   -0.1806    0.7687    0.2725 H   0  0  0  0  0  0  0  0  0  0  0  0
   -1.3302   -1.0093    0.1546 C   0  0  0  0  0  0  0  0  0  0  0  0
   -0.6555   -1.8111    0.4197 H   0  0  0  0  0  0  0  0  0  0  0  0
  1  2  3  0  0  0  0
  3 10  2  0  0  0  0
  4  6  2  0  0  0  0
  4  3  1  0  0  0  0
  5  4  1  0  0  0  0
  6  7  1  0  0  0  0
  6  8  1  0  0  0  0
  8 10  1  0  0  0  0
  8  9  1  0  0  0  0
 10 11  1  0  0  0  0
M  RAD  1   3   2
M  END
