Coordinates from ORCA-job Pyrrole-3-N2+-scan-d09-169-n800
 OpenBabel09191813553D

 11 11  0  0  0  0  0  0  0  0999 V2000
    1.6106    0.8189    0.1821 N   0  0  0  0  0  0  0  0  0  0  0  0
    2.7119    0.7837    0.2890 N   0  0  0  0  0  0  0  0  0  0  0  0
   -0.0603    0.8230   -0.0016 C   0  0  0  0  0  0  0  0  0  0  0  0
   -0.8012   -0.2385   -0.5516 C   0  0  0  0  0  0  0  0  0  0  0  0
   -0.4722   -1.1912   -0.9350 H   0  0  0  0  0  0  0  0  0  0  0  0
   -2.0862    0.2570   -0.4751 C   0  0  0  0  0  0  0  0  0  0  0  0
   -3.0127   -0.2059   -0.7813 H   0  0  0  0  0  0  0  0  0  0  0  0
   -2.0657    1.5201    0.0833 N   0  0  0  0  0  0  0  0  0  0  0  0
   -2.8889    2.0888    0.2427 H   0  0  0  0  0  0  0  0  0  0  0  0
   -0.8041    1.9142    0.3964 C   0  0  0  0  0  0  0  0  0  0  0  0
   -0.5477    2.8619    0.8422 H   0  0  0  0  0  0  0  0  0  0  0  0
  1  2  1  0  0  0  0
  3  1  1  0  0  0  0
  3 10  2  0  0  0  0
  4  6  2  0  0  0  0
  4  3  1  0  0  0  0
  5  4  1  0  0  0  0
  6  8  1  0  0  0  0
  7  6  1  0  0  0  0
  8  9  1  0  0  0  0
  8 10  1  0  0  0  0
 10 11  1  0  0  0  0
M  RAD  2   1   2   2   3
M  END
