Coordinates from ORCA-job Pyrrole-3-N2+-scan-d09-169-n800
 OpenBabel09191813553D

 11 10  0  0  0  0  0  0  0  0999 V2000
    5.1473    4.9143    1.1908 N   0  0  0  0  0  0  0  0  0  0  0  0
    6.0325    5.5569    1.3504 N   0  0  0  0  0  0  0  0  0  0  0  0
   -2.9281   -1.1400   -0.2245 C   0  0  0  0  0  0  0  0  0  0  0  0
   -3.3700   -0.1457   -1.0414 C   0  0  0  0  0  0  0  0  0  0  0  0
   -4.3561    0.1448   -1.3769 H   0  0  0  0  0  0  0  0  0  0  0  0
   -2.3297    0.7475   -0.6950 C   0  0  0  0  0  0  0  0  0  0  0  0
   -2.4691    1.8205   -0.5909 H   0  0  0  0  0  0  0  0  0  0  0  0
   -1.2563    0.1160   -0.0527 N   0  0  0  0  0  0  0  0  0  0  0  0
   -0.4124    0.5885    0.2609 H   0  0  0  0  0  0  0  0  0  0  0  0
   -1.5705   -1.1807    0.1037 C   0  0  0  0  0  0  0  0  0  0  0  0
   -0.9042   -1.9901    0.3668 H   0  0  0  0  0  0  0  0  0  0  0  0
  1  2  3  0  0  0  0
  3 10  2  0  0  0  0
  4  6  2  0  0  0  0
  4  3  1  0  0  0  0
  5  4  1  0  0  0  0
  6  7  1  0  0  0  0
  6  8  1  0  0  0  0
  8 10  1  0  0  0  0
  8  9  1  0  0  0  0
 10 11  1  0  0  0  0
M  RAD  1   3   2
M  END
