Coordinates from ORCA-job Pyrrole-3-N2+-scan-d09-169-n800
 OpenBabel09191813553D

 11 10  0  0  0  0  0  0  0  0999 V2000
    3.5581    3.7891    0.8966 N   0  0  0  0  0  0  0  0  0  0  0  0
    4.4270    4.4527    1.0589 N   0  0  0  0  0  0  0  0  0  0  0  0
   -2.5749   -0.8781   -0.0804 C   0  0  0  0  0  0  0  0  0  0  0  0
   -3.0453    0.0845   -0.9193 C   0  0  0  0  0  0  0  0  0  0  0  0
   -4.0433    0.3702   -1.2219 H   0  0  0  0  0  0  0  0  0  0  0  0
   -1.9829    0.9813   -0.6600 C   0  0  0  0  0  0  0  0  0  0  0  0
   -2.1085    2.0592   -0.5966 H   0  0  0  0  0  0  0  0  0  0  0  0
   -0.8861    0.3675   -0.0404 N   0  0  0  0  0  0  0  0  0  0  0  0
   -0.0247    0.8450    0.2132 H   0  0  0  0  0  0  0  0  0  0  0  0
   -1.2036   -0.9178    0.1868 C   0  0  0  0  0  0  0  0  0  0  0  0
   -0.5324   -1.7217    0.4544 H   0  0  0  0  0  0  0  0  0  0  0  0
  1  2  3  0  0  0  0
  3 10  2  0  0  0  0
  4  6  2  0  0  0  0
  4  3  1  0  0  0  0
  5  4  1  0  0  0  0
  6  7  1  0  0  0  0
  6  8  1  0  0  0  0
  8 10  1  0  0  0  0
  8  9  1  0  0  0  0
 10 11  1  0  0  0  0
M  RAD  1   3   2
M  END
