Coordinates from ORCA-job Pyrrole-3-N2+-scan-d09-169-n800
 OpenBabel09191813553D

 11 10  0  0  0  0  0  0  0  0999 V2000
    7.3805    6.4810    1.6482 N   0  0  0  0  0  0  0  0  0  0  0  0
    8.2709    7.1162    1.8088 N   0  0  0  0  0  0  0  0  0  0  0  0
   -3.4299   -1.4858   -0.3437 C   0  0  0  0  0  0  0  0  0  0  0  0
   -3.8600   -0.4818   -1.1552 C   0  0  0  0  0  0  0  0  0  0  0  0
   -4.8417   -0.1844   -1.4974 H   0  0  0  0  0  0  0  0  0  0  0  0
   -2.8202    0.4041   -0.7897 C   0  0  0  0  0  0  0  0  0  0  0  0
   -2.9570    1.4764   -0.6762 H   0  0  0  0  0  0  0  0  0  0  0  0
   -1.7555   -0.2379   -0.1431 N   0  0  0  0  0  0  0  0  0  0  0  0
   -0.9128    0.2283    0.1833 H   0  0  0  0  0  0  0  0  0  0  0  0
   -2.0757   -1.5348   -0.0027 C   0  0  0  0  0  0  0  0  0  0  0  0
   -1.4150   -2.3492    0.2589 H   0  0  0  0  0  0  0  0  0  0  0  0
  1  2  3  0  0  0  0
  3 10  2  0  0  0  0
  4  6  2  0  0  0  0
  4  3  1  0  0  0  0
  5  4  1  0  0  0  0
  6  7  1  0  0  0  0
  6  8  1  0  0  0  0
  8 10  1  0  0  0  0
  8  9  1  0  0  0  0
 10 11  1  0  0  0  0
M  RAD  1   3   2
M  END
