Coordinates from ORCA-job Pyrrole-3-N2+-scan-d09-169-n800
 OpenBabel09191813553D

 11 10  0  0  0  0  0  0  0  0999 V2000
    3.7656    4.1762    1.1754 N   0  0  0  0  0  0  0  0  0  0  0  0
    4.6316    4.8307    1.3841 N   0  0  0  0  0  0  0  0  0  0  0  0
   -1.5319   -1.1720   -0.1778 C   0  0  0  0  0  0  0  0  0  0  0  0
   -2.6097   -0.9340   -0.9740 C   0  0  0  0  0  0  0  0  0  0  0  0
   -3.4620   -1.5375   -1.2544 H   0  0  0  0  0  0  0  0  0  0  0  0
   -2.6480    0.4511   -0.6925 C   0  0  0  0  0  0  0  0  0  0  0  0
   -3.5697    1.0175   -0.5866 H   0  0  0  0  0  0  0  0  0  0  0  0
   -1.4650    0.9245   -0.1087 N   0  0  0  0  0  0  0  0  0  0  0  0
   -1.2965    1.8927    0.1523 H   0  0  0  0  0  0  0  0  0  0  0  0
   -0.6434   -0.1225    0.0716 C   0  0  0  0  0  0  0  0  0  0  0  0
    0.4125   -0.0948    0.3017 H   0  0  0  0  0  0  0  0  0  0  0  0
  1  2  3  0  0  0  0
  3 10  2  0  0  0  0
  4  6  2  0  0  0  0
  4  3  1  0  0  0  0
  5  4  1  0  0  0  0
  6  7  1  0  0  0  0
  6  8  1  0  0  0  0
  8 10  1  0  0  0  0
  8  9  1  0  0  0  0
 10 11  1  0  0  0  0
M  RAD  1   3   2
M  END
