Coordinates from ORCA-job Pyrrole-3-N2+-scan-d09-169-n800
 OpenBabel09191813553D

 11 10  0  0  0  0  0  0  0  0999 V2000
    4.2811    4.2976    1.0197 N   0  0  0  0  0  0  0  0  0  0  0  0
    5.1631    4.9450    1.1774 N   0  0  0  0  0  0  0  0  0  0  0  0
   -2.7287   -1.0060   -0.1682 C   0  0  0  0  0  0  0  0  0  0  0  0
   -3.1837   -0.0223   -0.9908 C   0  0  0  0  0  0  0  0  0  0  0  0
   -4.1746    0.2598   -1.3193 H   0  0  0  0  0  0  0  0  0  0  0  0
   -2.1447    0.8798   -0.6640 C   0  0  0  0  0  0  0  0  0  0  0  0
   -2.2886    1.9530   -0.5692 H   0  0  0  0  0  0  0  0  0  0  0  0
   -1.0616    0.2604   -0.0261 N   0  0  0  0  0  0  0  0  0  0  0  0
   -0.2169    0.7404    0.2739 H   0  0  0  0  0  0  0  0  0  0  0  0
   -1.3675   -1.0362    0.1466 C   0  0  0  0  0  0  0  0  0  0  0  0
   -0.6944   -1.8394    0.4113 H   0  0  0  0  0  0  0  0  0  0  0  0
  1  2  3  0  0  0  0
  3 10  2  0  0  0  0
  4  6  2  0  0  0  0
  4  3  1  0  0  0  0
  5  4  1  0  0  0  0
  6  7  1  0  0  0  0
  6  8  1  0  0  0  0
  8 10  1  0  0  0  0
  8  9  1  0  0  0  0
 10 11  1  0  0  0  0
M  RAD  1   3   2
M  END
