Coordinates from ORCA-job Pyrrole-3-N2+-scan-d09-169-n800
 OpenBabel09191813553D

 11 10  0  0  0  0  0  0  0  0999 V2000
    3.7310    3.9060    0.9200 N   0  0  0  0  0  0  0  0  0  0  0  0
    4.6073    4.5605    1.0797 N   0  0  0  0  0  0  0  0  0  0  0  0
   -2.6058   -0.9148   -0.1140 C   0  0  0  0  0  0  0  0  0  0  0  0
   -3.0732    0.0554   -0.9456 C   0  0  0  0  0  0  0  0  0  0  0  0
   -4.0692    0.3345   -1.2608 H   0  0  0  0  0  0  0  0  0  0  0  0
   -2.0259    0.9601   -0.6543 C   0  0  0  0  0  0  0  0  0  0  0  0
   -2.1652    2.0353   -0.5763 H   0  0  0  0  0  0  0  0  0  0  0  0
   -0.9327    0.3491   -0.0257 N   0  0  0  0  0  0  0  0  0  0  0  0
   -0.0812    0.8323    0.2498 H   0  0  0  0  0  0  0  0  0  0  0  0
   -1.2388   -0.9431    0.1759 C   0  0  0  0  0  0  0  0  0  0  0  0
   -0.5630   -1.7434    0.4425 H   0  0  0  0  0  0  0  0  0  0  0  0
  1  2  3  0  0  0  0
  3 10  2  0  0  0  0
  4  6  2  0  0  0  0
  4  3  1  0  0  0  0
  5  4  1  0  0  0  0
  6  7  1  0  0  0  0
  6  8  1  0  0  0  0
  8 10  1  0  0  0  0
  8  9  1  0  0  0  0
 10 11  1  0  0  0  0
M  RAD  1   3   2
M  END
