Coordinates from ORCA-job Pyrrole-3-N2+-scan-d09-169-n800
 OpenBabel09191813553D

 11 10  0  0  0  0  0  0  0  0999 V2000
    6.7984    6.0739    1.5280 N   0  0  0  0  0  0  0  0  0  0  0  0
    7.6877    6.7105    1.6891 N   0  0  0  0  0  0  0  0  0  0  0  0
   -3.2996   -1.3956   -0.3141 C   0  0  0  0  0  0  0  0  0  0  0  0
   -3.7319   -0.3933   -1.1263 C   0  0  0  0  0  0  0  0  0  0  0  0
   -4.7144   -0.0969   -1.4674 H   0  0  0  0  0  0  0  0  0  0  0  0
   -2.6916    0.4937   -0.7643 C   0  0  0  0  0  0  0  0  0  0  0  0
   -2.8285    1.5662   -0.6525 H   0  0  0  0  0  0  0  0  0  0  0  0
   -1.6255   -0.1465   -0.1185 N   0  0  0  0  0  0  0  0  0  0  0  0
   -0.7827    0.3207    0.2059 H   0  0  0  0  0  0  0  0  0  0  0  0
   -1.9449   -1.4435    0.0248 C   0  0  0  0  0  0  0  0  0  0  0  0
   -1.2834   -2.2572    0.2866 H   0  0  0  0  0  0  0  0  0  0  0  0
  1  2  3  0  0  0  0
  3 10  2  0  0  0  0
  4  6  2  0  0  0  0
  4  3  1  0  0  0  0
  5  4  1  0  0  0  0
  6  7  1  0  0  0  0
  6  8  1  0  0  0  0
  8 10  1  0  0  0  0
  8  9  1  0  0  0  0
 10 11  1  0  0  0  0
M  RAD  1   3   2
M  END
