Coordinates from ORCA-job Pyrrole-3-N2+-scan-d09-169-n800
 OpenBabel09191813553D

 11 10  0  0  0  0  0  0  0  0999 V2000
    8.1621    7.0262    1.8095 N   0  0  0  0  0  0  0  0  0  0  0  0
    9.0531    7.6605    1.9700 N   0  0  0  0  0  0  0  0  0  0  0  0
   -3.6041   -1.6067   -0.3832 C   0  0  0  0  0  0  0  0  0  0  0  0
   -4.0326   -0.6011   -1.1933 C   0  0  0  0  0  0  0  0  0  0  0  0
   -5.0135   -0.3026   -1.5369 H   0  0  0  0  0  0  0  0  0  0  0  0
   -2.9929    0.2837   -0.8242 C   0  0  0  0  0  0  0  0  0  0  0  0
   -3.1293    1.3559   -0.7089 H   0  0  0  0  0  0  0  0  0  0  0  0
   -1.9297   -0.3599   -0.1768 N   0  0  0  0  0  0  0  0  0  0  0  0
   -1.0878    0.1054    0.1526 H   0  0  0  0  0  0  0  0  0  0  0  0
   -2.2508   -1.6571   -0.0394 C   0  0  0  0  0  0  0  0  0  0  0  0
   -1.5909   -2.4723    0.2218 H   0  0  0  0  0  0  0  0  0  0  0  0
  1  2  3  0  0  0  0
  3 10  2  0  0  0  0
  4  6  2  0  0  0  0
  4  3  1  0  0  0  0
  5  4  1  0  0  0  0
  6  7  1  0  0  0  0
  6  8  1  0  0  0  0
  8 10  1  0  0  0  0
  8  9  1  0  0  0  0
 10 11  1  0  0  0  0
M  RAD  1   3   2
M  END
