Coordinates from ORCA-job Pyrrole-3-N2+-scan-d09-169-n800
 OpenBabel09191813553D

 11 10  0  0  0  0  0  0  0  0999 V2000
    3.7192    4.1220    1.1623 N   0  0  0  0  0  0  0  0  0  0  0  0
    4.5863    4.7753    1.3705 N   0  0  0  0  0  0  0  0  0  0  0  0
   -1.5087   -1.1561   -0.1745 C   0  0  0  0  0  0  0  0  0  0  0  0
   -2.5896   -0.9299   -0.9700 C   0  0  0  0  0  0  0  0  0  0  0  0
   -3.4357   -1.5426   -1.2494 H   0  0  0  0  0  0  0  0  0  0  0  0
   -2.6424    0.4549   -0.6890 C   0  0  0  0  0  0  0  0  0  0  0  0
   -3.5699    1.0115   -0.5827 H   0  0  0  0  0  0  0  0  0  0  0  0
   -1.4639    0.9411   -0.1065 N   0  0  0  0  0  0  0  0  0  0  0  0
   -1.3054    1.9111    0.1539 H   0  0  0  0  0  0  0  0  0  0  0  0
   -0.6311   -0.0971    0.0737 C   0  0  0  0  0  0  0  0  0  0  0  0
    0.4246   -0.0580    0.3030 H   0  0  0  0  0  0  0  0  0  0  0  0
  1  2  3  0  0  0  0
  3 10  2  0  0  0  0
  4  6  2  0  0  0  0
  4  3  1  0  0  0  0
  5  4  1  0  0  0  0
  6  7  1  0  0  0  0
  6  8  1  0  0  0  0
  8 10  1  0  0  0  0
  8  9  1  0  0  0  0
 10 11  1  0  0  0  0
M  RAD  1   3   2
M  END
