Coordinates from ORCA-job Pyrrole-3-N2+-scan-d09-169-n800
 OpenBabel09191813553D

 11 10  0  0  0  0  0  0  0  0999 V2000
    9.4335    7.9361    2.0893 N   0  0  0  0  0  0  0  0  0  0  0  0
   10.3474    8.5464    2.2094 N   0  0  0  0  0  0  0  0  0  0  0  0
   -3.8936   -1.8034   -0.4428 C   0  0  0  0  0  0  0  0  0  0  0  0
   -4.3166   -0.7951   -1.2527 C   0  0  0  0  0  0  0  0  0  0  0  0
   -5.2958   -0.4923   -1.5973 H   0  0  0  0  0  0  0  0  0  0  0  0
   -3.2741    0.0851   -0.8811 C   0  0  0  0  0  0  0  0  0  0  0  0
   -3.4066    1.1577   -0.7649 H   0  0  0  0  0  0  0  0  0  0  0  0
   -2.2144   -0.5635   -0.2328 N   0  0  0  0  0  0  0  0  0  0  0  0
   -1.3708   -0.1021    0.0978 H   0  0  0  0  0  0  0  0  0  0  0  0
   -2.5408   -1.8594   -0.0974 C   0  0  0  0  0  0  0  0  0  0  0  0
   -1.8846   -2.6776    0.1639 H   0  0  0  0  0  0  0  0  0  0  0  0
  1  2  3  0  0  0  0
  3 10  2  0  0  0  0
  4  6  2  0  0  0  0
  4  3  1  0  0  0  0
  5  4  1  0  0  0  0
  6  7  1  0  0  0  0
  6  8  1  0  0  0  0
  8 10  1  0  0  0  0
  8  9  1  0  0  0  0
 10 11  1  0  0  0  0
M  RAD  1   3   2
M  END
