Coordinates from ORCA-job Pyrrole-3-N2+-scan-d09-169-n800
 OpenBabel09191813553D

 11 10  0  0  0  0  0  0  0  0999 V2000
    2.2808    1.0240    0.2527 N   0  0  0  0  0  0  0  0  0  0  0  0
    3.3839    1.0780    0.2826 N   0  0  0  0  0  0  0  0  0  0  0  0
   -0.3924    0.5103    0.2858 C   0  0  0  0  0  0  0  0  0  0  0  0
   -0.9644   -0.3065   -0.6455 C   0  0  0  0  0  0  0  0  0  0  0  0
   -0.7925   -1.3366   -0.9233 H   0  0  0  0  0  0  0  0  0  0  0  0
   -2.2152    0.3421   -0.6291 C   0  0  0  0  0  0  0  0  0  0  0  0
   -3.1666   -0.1595   -0.7773 H   0  0  0  0  0  0  0  0  0  0  0  0
   -2.1677    1.5860    0.0072 N   0  0  0  0  0  0  0  0  0  0  0  0
   -2.9678    2.1994    0.1321 H   0  0  0  0  0  0  0  0  0  0  0  0
   -0.9182    1.7845    0.4722 C   0  0  0  0  0  0  0  0  0  0  0  0
   -0.4965    2.7102    0.8338 H   0  0  0  0  0  0  0  0  0  0  0  0
  1  2  3  0  0  0  0
  3 10  2  0  0  0  0
  4  6  2  0  0  0  0
  4  3  1  0  0  0  0
  5  4  1  0  0  0  0
  6  8  1  0  0  0  0
  7  6  1  0  0  0  0
  8  9  1  0  0  0  0
  8 10  1  0  0  0  0
 10 11  1  0  0  0  0
M  RAD  1   3   2
M  END
