Coordinates from ORCA-job Pyrrole-3-N2+-scan-d09-169-n800
 OpenBabel09191813553D

 11 10  0  0  0  0  0  0  0  0999 V2000
    3.6065    3.9923    1.1320 N   0  0  0  0  0  0  0  0  0  0  0  0
    4.4753    4.6435    1.3392 N   0  0  0  0  0  0  0  0  0  0  0  0
   -1.4540   -1.1179   -0.1661 C   0  0  0  0  0  0  0  0  0  0  0  0
   -2.5424   -0.9197   -0.9587 C   0  0  0  0  0  0  0  0  0  0  0  0
   -3.3742   -1.5533   -1.2342 H   0  0  0  0  0  0  0  0  0  0  0  0
   -2.6278    0.4640   -0.6807 C   0  0  0  0  0  0  0  0  0  0  0  0
   -3.5683    0.9982   -0.5727 H   0  0  0  0  0  0  0  0  0  0  0  0
   -1.4598    0.9799   -0.1028 N   0  0  0  0  0  0  0  0  0  0  0  0
   -1.3239    1.9541    0.1548 H   0  0  0  0  0  0  0  0  0  0  0  0
   -0.6016   -0.0373    0.0771 C   0  0  0  0  0  0  0  0  0  0  0  0
    0.4536    0.0280    0.3032 H   0  0  0  0  0  0  0  0  0  0  0  0
  1  2  3  0  0  0  0
  3 10  2  0  0  0  0
  4  6  2  0  0  0  0
  4  3  1  0  0  0  0
  5  4  1  0  0  0  0
  6  7  1  0  0  0  0
  6  8  1  0  0  0  0
  8 10  1  0  0  0  0
  8  9  1  0  0  0  0
 10 11  1  0  0  0  0
M  RAD  1   3   2
M  END
