Coordinates from ORCA-job Pyrrole-3-N2+-scan-d09-169-n800
 OpenBabel09191813553D

 11 10  0  0  0  0  0  0  0  0999 V2000
    2.8429    3.0098    0.8944 N   0  0  0  0  0  0  0  0  0  0  0  0
    3.7252    3.6443    1.0956 N   0  0  0  0  0  0  0  0  0  0  0  0
   -1.0421   -0.7912   -0.1022 C   0  0  0  0  0  0  0  0  0  0  0  0
   -2.1559   -0.8345   -0.8831 C   0  0  0  0  0  0  0  0  0  0  0  0
   -2.8409   -1.6310   -1.1394 H   0  0  0  0  0  0  0  0  0  0  0  0
   -2.5240    0.5052   -0.6215 C   0  0  0  0  0  0  0  0  0  0  0  0
   -3.5535    0.8349   -0.5084 H   0  0  0  0  0  0  0  0  0  0  0  0
   -1.4822    1.2601   -0.0660 N   0  0  0  0  0  0  0  0  0  0  0  0
   -1.5480    2.2450    0.1776 H   0  0  0  0  0  0  0  0  0  0  0  0
   -0.4285    0.4472    0.1149 C   0  0  0  0  0  0  0  0  0  0  0  0
    0.5902    0.7423    0.3293 H   0  0  0  0  0  0  0  0  0  0  0  0
  1  2  3  0  0  0  0
  3 10  2  0  0  0  0
  4  6  2  0  0  0  0
  4  3  1  0  0  0  0
  5  4  1  0  0  0  0
  6  7  1  0  0  0  0
  6  8  1  0  0  0  0
  8 10  1  0  0  0  0
  8  9  1  0  0  0  0
 10 11  1  0  0  0  0
M  RAD  1   3   2
M  END
