Coordinates from ORCA-job Pyrrole-3-N2+-scan-d09-169-n800
 OpenBabel09191813553D

 11 10  0  0  0  0  0  0  0  0999 V2000
    7.5132    6.5731    1.6753 N   0  0  0  0  0  0  0  0  0  0  0  0
    8.4033    7.2086    1.8363 N   0  0  0  0  0  0  0  0  0  0  0  0
   -3.4595   -1.5064   -0.3504 C   0  0  0  0  0  0  0  0  0  0  0  0
   -3.8892   -0.5021   -1.1617 C   0  0  0  0  0  0  0  0  0  0  0  0
   -4.8708   -0.2045   -1.5042 H   0  0  0  0  0  0  0  0  0  0  0  0
   -2.8495    0.3837   -0.7955 C   0  0  0  0  0  0  0  0  0  0  0  0
   -2.9864    1.4560   -0.6817 H   0  0  0  0  0  0  0  0  0  0  0  0
   -1.7851   -0.2585   -0.1487 N   0  0  0  0  0  0  0  0  0  0  0  0
   -0.9425    0.2075    0.1782 H   0  0  0  0  0  0  0  0  0  0  0  0
   -2.1054   -1.5555   -0.0089 C   0  0  0  0  0  0  0  0  0  0  0  0
   -1.4448   -2.3700    0.2525 H   0  0  0  0  0  0  0  0  0  0  0  0
  1  2  3  0  0  0  0
  3 10  2  0  0  0  0
  4  6  2  0  0  0  0
  4  3  1  0  0  0  0
  5  4  1  0  0  0  0
  6  7  1  0  0  0  0
  6  8  1  0  0  0  0
  8 10  1  0  0  0  0
  8  9  1  0  0  0  0
 10 11  1  0  0  0  0
M  RAD  1   3   2
M  END
