Coordinates from ORCA-job Pyrrole-3-N2+-scan-d09-169-n800
 OpenBabel09191813553D

 11 10  0  0  0  0  0  0  0  0999 V2000
    8.7413    7.4363    1.9338 N   0  0  0  0  0  0  0  0  0  0  0  0
    9.6375    8.0653    2.0856 N   0  0  0  0  0  0  0  0  0  0  0  0
   -3.7351   -1.6962   -0.4114 C   0  0  0  0  0  0  0  0  0  0  0  0
   -4.1614   -0.6892   -1.2209 C   0  0  0  0  0  0  0  0  0  0  0  0
   -5.1416   -0.3889   -1.5650 H   0  0  0  0  0  0  0  0  0  0  0  0
   -3.1206    0.1936   -0.8501 C   0  0  0  0  0  0  0  0  0  0  0  0
   -3.2555    1.2659   -0.7340 H   0  0  0  0  0  0  0  0  0  0  0  0
   -2.0590   -0.4521   -0.2025 N   0  0  0  0  0  0  0  0  0  0  0  0
   -1.2166    0.0116    0.1279 H   0  0  0  0  0  0  0  0  0  0  0  0
   -2.3821   -1.7489   -0.0666 C   0  0  0  0  0  0  0  0  0  0  0  0
   -1.7237   -2.5654    0.1945 H   0  0  0  0  0  0  0  0  0  0  0  0
  1  2  3  0  0  0  0
  3 10  2  0  0  0  0
  4  6  2  0  0  0  0
  4  3  1  0  0  0  0
  5  4  1  0  0  0  0
  6  7  1  0  0  0  0
  6  8  1  0  0  0  0
  8 10  1  0  0  0  0
  8  9  1  0  0  0  0
 10 11  1  0  0  0  0
M  RAD  1   3   2
M  END
