Coordinates from ORCA-job Pyrrole-3-N2+-scan-d09-169-n800
 OpenBabel09191813553D

 11 11  0  0  0  0  0  0  0  0999 V2000
    1.5975    0.8188    0.1801 N   0  0  0  0  0  0  0  0  0  0  0  0
    2.6993    0.7838    0.2866 N   0  0  0  0  0  0  0  0  0  0  0  0
   -0.0536    0.8232   -0.0006 C   0  0  0  0  0  0  0  0  0  0  0  0
   -0.7990   -0.2378   -0.5502 C   0  0  0  0  0  0  0  0  0  0  0  0
   -0.4695   -1.1906   -0.9332 H   0  0  0  0  0  0  0  0  0  0  0  0
   -2.0835    0.2566   -0.4755 C   0  0  0  0  0  0  0  0  0  0  0  0
   -3.0103   -0.2054   -0.7821 H   0  0  0  0  0  0  0  0  0  0  0  0
   -2.0628    1.5200    0.0836 N   0  0  0  0  0  0  0  0  0  0  0  0
   -2.8859    2.0889    0.2427 H   0  0  0  0  0  0  0  0  0  0  0  0
   -0.8021    1.9132    0.3968 C   0  0  0  0  0  0  0  0  0  0  0  0
   -0.5465    2.8612    0.8428 H   0  0  0  0  0  0  0  0  0  0  0  0
  1  2  1  0  0  0  0
  3  1  1  0  0  0  0
  3 10  2  0  0  0  0
  4  6  2  0  0  0  0
  4  3  1  0  0  0  0
  5  4  1  0  0  0  0
  6  8  1  0  0  0  0
  7  6  1  0  0  0  0
  8  9  1  0  0  0  0
  8 10  1  0  0  0  0
 10 11  1  0  0  0  0
M  RAD  2   1   2   2   3
M  END
