Coordinates from ORCA-job Pyrrole-3-N2+-scan-d09-169-n800
 OpenBabel09191813553D

 11 10  0  0  0  0  0  0  0  0999 V2000
    8.4799    7.2479    1.8753 N   0  0  0  0  0  0  0  0  0  0  0  0
    9.3712    7.8819    2.0356 N   0  0  0  0  0  0  0  0  0  0  0  0
   -3.6751   -1.6558   -0.3990 C   0  0  0  0  0  0  0  0  0  0  0  0
   -4.1028   -0.6495   -1.2087 C   0  0  0  0  0  0  0  0  0  0  0  0
   -5.0834   -0.3506   -1.5528 H   0  0  0  0  0  0  0  0  0  0  0  0
   -3.0631    0.2347   -0.8382 C   0  0  0  0  0  0  0  0  0  0  0  0
   -3.1994    1.3068   -0.7223 H   0  0  0  0  0  0  0  0  0  0  0  0
   -2.0006   -0.4096   -0.1906 N   0  0  0  0  0  0  0  0  0  0  0  0
   -1.1588    0.0553    0.1397 H   0  0  0  0  0  0  0  0  0  0  0  0
   -2.3220   -1.7068   -0.0544 C   0  0  0  0  0  0  0  0  0  0  0  0
   -1.6625   -2.5223    0.2068 H   0  0  0  0  0  0  0  0  0  0  0  0
  1  2  3  0  0  0  0
  3 10  2  0  0  0  0
  4  6  2  0  0  0  0
  4  3  1  0  0  0  0
  5  4  1  0  0  0  0
  6  7  1  0  0  0  0
  6  8  1  0  0  0  0
  8 10  1  0  0  0  0
  8  9  1  0  0  0  0
 10 11  1  0  0  0  0
M  RAD  1   3   2
M  END
