Coordinates from ORCA-job Pyrrole-3-N2+-scan-d09-169-n800
 OpenBabel09191813553D

 11 10  0  0  0  0  0  0  0  0999 V2000
    8.3340    7.1463    1.8452 N   0  0  0  0  0  0  0  0  0  0  0  0
    9.2253    7.7804    2.0054 N   0  0  0  0  0  0  0  0  0  0  0  0
   -3.6428   -1.6334   -0.3916 C   0  0  0  0  0  0  0  0  0  0  0  0
   -4.0704   -0.6272   -1.2018 C   0  0  0  0  0  0  0  0  0  0  0  0
   -5.0511   -0.3284   -1.5456 H   0  0  0  0  0  0  0  0  0  0  0  0
   -3.0309    0.2572   -0.8317 C   0  0  0  0  0  0  0  0  0  0  0  0
   -3.1674    1.3294   -0.7161 H   0  0  0  0  0  0  0  0  0  0  0  0
   -1.9681   -0.3869   -0.1841 N   0  0  0  0  0  0  0  0  0  0  0  0
   -1.1259    0.0780    0.1454 H   0  0  0  0  0  0  0  0  0  0  0  0
   -2.2894   -1.6839   -0.0475 C   0  0  0  0  0  0  0  0  0  0  0  0
   -1.6298   -2.4994    0.2137 H   0  0  0  0  0  0  0  0  0  0  0  0
  1  2  3  0  0  0  0
  3 10  2  0  0  0  0
  4  6  2  0  0  0  0
  4  3  1  0  0  0  0
  5  4  1  0  0  0  0
  6  7  1  0  0  0  0
  6  8  1  0  0  0  0
  8 10  1  0  0  0  0
  8  9  1  0  0  0  0
 10 11  1  0  0  0  0
M  RAD  1   3   2
M  END
