Coordinates from ORCA-job Pyrrole-3-N2+-scan-d09-169-n800
 OpenBabel09191813553D

 11 10  0  0  0  0  0  0  0  0999 V2000
    3.0593    3.2817    0.9677 N   0  0  0  0  0  0  0  0  0  0  0  0
    3.9358    3.9233    1.1720 N   0  0  0  0  0  0  0  0  0  0  0  0
   -1.1547   -0.8868   -0.1204 C   0  0  0  0  0  0  0  0  0  0  0  0
   -2.2694   -0.8641   -0.9009 C   0  0  0  0  0  0  0  0  0  0  0  0
   -2.9999   -1.6188   -1.1579 H   0  0  0  0  0  0  0  0  0  0  0  0
   -2.5583    0.4947   -0.6378 C   0  0  0  0  0  0  0  0  0  0  0  0
   -3.5667    0.8838   -0.5238 H   0  0  0  0  0  0  0  0  0  0  0  0
   -1.4740    1.1872   -0.0819 N   0  0  0  0  0  0  0  0  0  0  0  0
   -1.4824    2.1739    0.1630 H   0  0  0  0  0  0  0  0  0  0  0  0
   -0.4704    0.3131    0.0983 C   0  0  0  0  0  0  0  0  0  0  0  0
    0.5641    0.5440    0.3129 H   0  0  0  0  0  0  0  0  0  0  0  0
  1  2  3  0  0  0  0
  3 10  2  0  0  0  0
  4  6  2  0  0  0  0
  4  3  1  0  0  0  0
  5  4  1  0  0  0  0
  6  7  1  0  0  0  0
  6  8  1  0  0  0  0
  8 10  1  0  0  0  0
  8  9  1  0  0  0  0
 10 11  1  0  0  0  0
M  RAD  1   3   2
M  END
