Coordinates from ORCA-job Pyrrole-3-N2+-scan-d09-169-n800
 OpenBabel09191813553D

 11 10  0  0  0  0  0  0  0  0999 V2000
    6.7059    6.0089    1.5089 N   0  0  0  0  0  0  0  0  0  0  0  0
    7.5948    6.6461    1.6700 N   0  0  0  0  0  0  0  0  0  0  0  0
   -3.2789   -1.3812   -0.3093 C   0  0  0  0  0  0  0  0  0  0  0  0
   -3.7115   -0.3792   -1.1218 C   0  0  0  0  0  0  0  0  0  0  0  0
   -4.6941   -0.0830   -1.4626 H   0  0  0  0  0  0  0  0  0  0  0  0
   -2.6712    0.5080   -0.7603 C   0  0  0  0  0  0  0  0  0  0  0  0
   -2.8081    1.5805   -0.6488 H   0  0  0  0  0  0  0  0  0  0  0  0
   -1.6048   -0.1320   -0.1146 N   0  0  0  0  0  0  0  0  0  0  0  0
   -0.7620    0.3354    0.2094 H   0  0  0  0  0  0  0  0  0  0  0  0
   -1.9241   -1.4289    0.0292 C   0  0  0  0  0  0  0  0  0  0  0  0
   -1.2625   -2.2425    0.2910 H   0  0  0  0  0  0  0  0  0  0  0  0
  1  2  3  0  0  0  0
  3 10  2  0  0  0  0
  4  6  2  0  0  0  0
  4  3  1  0  0  0  0
  5  4  1  0  0  0  0
  6  7  1  0  0  0  0
  6  8  1  0  0  0  0
  8 10  1  0  0  0  0
  8  9  1  0  0  0  0
 10 11  1  0  0  0  0
M  RAD  1   3   2
M  END
