Coordinates from ORCA-job Pyrrole-3-N2+-scan-d09-169-n800
 OpenBabel09191813553D

 11 10  0  0  0  0  0  0  0  0999 V2000
    5.4768    5.1466    1.2574 N   0  0  0  0  0  0  0  0  0  0  0  0
    6.3630    5.7878    1.4176 N   0  0  0  0  0  0  0  0  0  0  0  0
   -3.0030   -1.1910   -0.2432 C   0  0  0  0  0  0  0  0  0  0  0  0
   -3.4417   -0.1943   -1.0591 C   0  0  0  0  0  0  0  0  0  0  0  0
   -4.4267    0.0981   -1.3962 H   0  0  0  0  0  0  0  0  0  0  0  0
   -2.4014    0.6970   -0.7083 C   0  0  0  0  0  0  0  0  0  0  0  0
   -2.5401    1.7699   -0.6019 H   0  0  0  0  0  0  0  0  0  0  0  0
   -1.3302    0.0627   -0.0648 N   0  0  0  0  0  0  0  0  0  0  0  0
   -0.4862    0.5335    0.2515 H   0  0  0  0  0  0  0  0  0  0  0  0
   -1.6460   -1.2338    0.0878 C   0  0  0  0  0  0  0  0  0  0  0  0
   -0.9812   -2.0446    0.3505 H   0  0  0  0  0  0  0  0  0  0  0  0
  1  2  3  0  0  0  0
  3 10  2  0  0  0  0
  4  6  2  0  0  0  0
  4  3  1  0  0  0  0
  5  4  1  0  0  0  0
  6  7  1  0  0  0  0
  6  8  1  0  0  0  0
  8 10  1  0  0  0  0
  8  9  1  0  0  0  0
 10 11  1  0  0  0  0
M  RAD  1   3   2
M  END
