Coordinates from ORCA-job Pyrrole-3-N2+-scan-d09-169-n800
 OpenBabel09191813553D

 11 11  0  0  0  0  0  0  0  0999 V2000
    1.6238    0.8193    0.1833 N   0  0  0  0  0  0  0  0  0  0  0  0
    2.7247    0.7845    0.2897 N   0  0  0  0  0  0  0  0  0  0  0  0
   -0.0671    0.8227   -0.0023 C   0  0  0  0  0  0  0  0  0  0  0  0
   -0.8036   -0.2399   -0.5516 C   0  0  0  0  0  0  0  0  0  0  0  0
   -0.4751   -1.1928   -0.9348 H   0  0  0  0  0  0  0  0  0  0  0  0
   -2.0888    0.2577   -0.4756 C   0  0  0  0  0  0  0  0  0  0  0  0
   -3.0149   -0.2056   -0.7827 H   0  0  0  0  0  0  0  0  0  0  0  0
   -2.0686    1.5201    0.0830 N   0  0  0  0  0  0  0  0  0  0  0  0
   -2.8918    2.0889    0.2422 H   0  0  0  0  0  0  0  0  0  0  0  0
   -0.8062    1.9148    0.3971 C   0  0  0  0  0  0  0  0  0  0  0  0
   -0.5489    2.8622    0.8429 H   0  0  0  0  0  0  0  0  0  0  0  0
  1  2  1  0  0  0  0
  3  1  1  0  0  0  0
  3 10  2  0  0  0  0
  4  6  2  0  0  0  0
  4  3  1  0  0  0  0
  5  4  1  0  0  0  0
  6  8  1  0  0  0  0
  7  6  1  0  0  0  0
  8  9  1  0  0  0  0
  8 10  1  0  0  0  0
 10 11  1  0  0  0  0
M  RAD  2   1   2   2   3
M  END
