Coordinates from ORCA-job Pyrrole-3-N2+-scan-d09-169-n800
 OpenBabel09191813553D

 11 10  0  0  0  0  0  0  0  0999 V2000
    4.9233    4.7560    1.1459 N   0  0  0  0  0  0  0  0  0  0  0  0
    5.8080    5.3994    1.3049 N   0  0  0  0  0  0  0  0  0  0  0  0
   -2.8772   -1.1055   -0.2109 C   0  0  0  0  0  0  0  0  0  0  0  0
   -3.3212   -0.1131   -1.0292 C   0  0  0  0  0  0  0  0  0  0  0  0
   -4.3082    0.1758   -1.3634 H   0  0  0  0  0  0  0  0  0  0  0  0
   -2.2815    0.7819   -0.6863 C   0  0  0  0  0  0  0  0  0  0  0  0
   -2.4220    1.8548   -0.5838 H   0  0  0  0  0  0  0  0  0  0  0  0
   -1.2062    0.1525   -0.0447 N   0  0  0  0  0  0  0  0  0  0  0  0
   -0.3619    0.6264    0.2660 H   0  0  0  0  0  0  0  0  0  0  0  0
   -1.5187   -1.1440    0.1146 C   0  0  0  0  0  0  0  0  0  0  0  0
   -0.8511   -1.9522    0.3780 H   0  0  0  0  0  0  0  0  0  0  0  0
  1  2  3  0  0  0  0
  3 10  2  0  0  0  0
  4  6  2  0  0  0  0
  4  3  1  0  0  0  0
  5  4  1  0  0  0  0
  6  7  1  0  0  0  0
  6  8  1  0  0  0  0
  8 10  1  0  0  0  0
  8  9  1  0  0  0  0
 10 11  1  0  0  0  0
M  RAD  1   3   2
M  END
