Coordinates from ORCA-job Pyrrole-3-N2+-scan-d09-169-n800
 OpenBabel09191813553D

 11 10  0  0  0  0  0  0  0  0999 V2000
    3.7099    4.1112    1.1597 N   0  0  0  0  0  0  0  0  0  0  0  0
    4.5772    4.7642    1.3678 N   0  0  0  0  0  0  0  0  0  0  0  0
   -1.5041   -1.1529   -0.1739 C   0  0  0  0  0  0  0  0  0  0  0  0
   -2.5856   -0.9291   -0.9691 C   0  0  0  0  0  0  0  0  0  0  0  0
   -3.4304   -1.5436   -1.2483 H   0  0  0  0  0  0  0  0  0  0  0  0
   -2.6412    0.4556   -0.6884 C   0  0  0  0  0  0  0  0  0  0  0  0
   -3.5699    1.0103   -0.5819 H   0  0  0  0  0  0  0  0  0  0  0  0
   -1.4637    0.9443   -0.1061 N   0  0  0  0  0  0  0  0  0  0  0  0
   -1.3071    1.9147    0.1541 H   0  0  0  0  0  0  0  0  0  0  0  0
   -0.6287   -0.0920    0.0740 C   0  0  0  0  0  0  0  0  0  0  0  0
    0.4270   -0.0507    0.3031 H   0  0  0  0  0  0  0  0  0  0  0  0
  1  2  3  0  0  0  0
  3 10  2  0  0  0  0
  4  6  2  0  0  0  0
  4  3  1  0  0  0  0
  5  4  1  0  0  0  0
  6  7  1  0  0  0  0
  6  8  1  0  0  0  0
  8 10  1  0  0  0  0
  8  9  1  0  0  0  0
 10 11  1  0  0  0  0
M  RAD  1   3   2
M  END
