Coordinates from ORCA-job Pyrrole-3-N2+-scan-d09-169-n800
 OpenBabel09191813553D

 11 10  0  0  0  0  0  0  0  0999 V2000
    7.0102    6.2219    1.5715 N   0  0  0  0  0  0  0  0  0  0  0  0
    7.8997    6.8581    1.7327 N   0  0  0  0  0  0  0  0  0  0  0  0
   -3.3470   -1.4284   -0.3250 C   0  0  0  0  0  0  0  0  0  0  0  0
   -3.7786   -0.4255   -1.1369 C   0  0  0  0  0  0  0  0  0  0  0  0
   -4.7607   -0.1287   -1.4784 H   0  0  0  0  0  0  0  0  0  0  0  0
   -2.7384    0.4611   -0.7735 C   0  0  0  0  0  0  0  0  0  0  0  0
   -2.8752    1.5335   -0.6611 H   0  0  0  0  0  0  0  0  0  0  0  0
   -1.6728   -0.1797   -0.1274 N   0  0  0  0  0  0  0  0  0  0  0  0
   -0.8302    0.2872    0.1979 H   0  0  0  0  0  0  0  0  0  0  0  0
   -1.9925   -1.4767    0.0148 C   0  0  0  0  0  0  0  0  0  0  0  0
   -1.3313   -2.2907    0.2765 H   0  0  0  0  0  0  0  0  0  0  0  0
  1  2  3  0  0  0  0
  3 10  2  0  0  0  0
  4  6  2  0  0  0  0
  4  3  1  0  0  0  0
  5  4  1  0  0  0  0
  6  7  1  0  0  0  0
  6  8  1  0  0  0  0
  8 10  1  0  0  0  0
  8  9  1  0  0  0  0
 10 11  1  0  0  0  0
M  RAD  1   3   2
M  END
