Coordinates from ORCA-job Pyrrole-3-N2+-scan-d09-169-n800
 OpenBabel09191813553D

 11 10  0  0  0  0  0  0  0  0999 V2000
    8.8716    7.5308    1.9633 N   0  0  0  0  0  0  0  0  0  0  0  0
    9.7710    8.1566    2.1097 N   0  0  0  0  0  0  0  0  0  0  0  0
   -3.7651   -1.7163   -0.4174 C   0  0  0  0  0  0  0  0  0  0  0  0
   -4.1907   -0.7089   -1.2269 C   0  0  0  0  0  0  0  0  0  0  0  0
   -5.1707   -0.4080   -1.5710 H   0  0  0  0  0  0  0  0  0  0  0  0
   -3.1493    0.1731   -0.8561 C   0  0  0  0  0  0  0  0  0  0  0  0
   -3.2834    1.2455   -0.7400 H   0  0  0  0  0  0  0  0  0  0  0  0
   -2.0881   -0.4734   -0.2084 N   0  0  0  0  0  0  0  0  0  0  0  0
   -1.2454   -0.0104    0.1220 H   0  0  0  0  0  0  0  0  0  0  0  0
   -2.4122   -1.7700   -0.0725 C   0  0  0  0  0  0  0  0  0  0  0  0
   -1.7544   -2.5870    0.1885 H   0  0  0  0  0  0  0  0  0  0  0  0
  1  2  3  0  0  0  0
  3 10  2  0  0  0  0
  4  6  2  0  0  0  0
  4  3  1  0  0  0  0
  5  4  1  0  0  0  0
  6  7  1  0  0  0  0
  6  8  1  0  0  0  0
  8 10  1  0  0  0  0
  8  9  1  0  0  0  0
 10 11  1  0  0  0  0
M  RAD  1   3   2
M  END
