Coordinates from ORCA-job Pyrrole-3-N2+-scan-d09-169-n800
 OpenBabel09191813553D

 11 10  0  0  0  0  0  0  0  0999 V2000
    2.5839    1.9037    0.6200 N   0  0  0  0  0  0  0  0  0  0  0  0
    3.6752    2.0163    0.7509 N   0  0  0  0  0  0  0  0  0  0  0  0
   -0.5777   -0.0550    0.0436 C   0  0  0  0  0  0  0  0  0  0  0  0
   -1.4923   -0.6364   -0.7802 C   0  0  0  0  0  0  0  0  0  0  0  0
   -1.7056   -1.6671   -1.0277 H   0  0  0  0  0  0  0  0  0  0  0  0
   -2.4628    0.3750   -0.5955 C   0  0  0  0  0  0  0  0  0  0  0  0
   -3.5306    0.1803   -0.5384 H   0  0  0  0  0  0  0  0  0  0  0  0
   -1.9337    1.5446   -0.0330 N   0  0  0  0  0  0  0  0  0  0  0  0
   -2.4702    2.3861    0.1598 H   0  0  0  0  0  0  0  0  0  0  0  0
   -0.6341    1.3290    0.2290 C   0  0  0  0  0  0  0  0  0  0  0  0
    0.1312    2.0554    0.4628 H   0  0  0  0  0  0  0  0  0  0  0  0
  1  2  3  0  0  0  0
  3 10  2  0  0  0  0
  4  6  2  0  0  0  0
  4  3  1  0  0  0  0
  5  4  1  0  0  0  0
  6  7  1  0  0  0  0
  6  8  1  0  0  0  0
  8  9  1  0  0  0  0
  8 10  1  0  0  0  0
 10 11  1  0  0  0  0
M  RAD  1   3   2
M  END
