Coordinates from ORCA-job Pyrrole-3-N2+-scan-d09-169-n800
 OpenBabel09191813553D

 11 10  0  0  0  0  0  0  0  0999 V2000
    8.7152    7.4174    1.9278 N   0  0  0  0  0  0  0  0  0  0  0  0
    9.6109    8.0470    2.0807 N   0  0  0  0  0  0  0  0  0  0  0  0
   -3.7291   -1.6922   -0.4102 C   0  0  0  0  0  0  0  0  0  0  0  0
   -4.1555   -0.6852   -1.2197 C   0  0  0  0  0  0  0  0  0  0  0  0
   -5.1357   -0.3851   -1.5638 H   0  0  0  0  0  0  0  0  0  0  0  0
   -3.1149    0.1978   -0.8489 C   0  0  0  0  0  0  0  0  0  0  0  0
   -3.2499    1.2700   -0.7328 H   0  0  0  0  0  0  0  0  0  0  0  0
   -2.0531   -0.4478   -0.2013 N   0  0  0  0  0  0  0  0  0  0  0  0
   -1.2108    0.0160    0.1291 H   0  0  0  0  0  0  0  0  0  0  0  0
   -2.3761   -1.7447   -0.0654 C   0  0  0  0  0  0  0  0  0  0  0  0
   -1.7175   -2.5611    0.1957 H   0  0  0  0  0  0  0  0  0  0  0  0
  1  2  3  0  0  0  0
  3 10  2  0  0  0  0
  4  6  2  0  0  0  0
  4  3  1  0  0  0  0
  5  4  1  0  0  0  0
  6  7  1  0  0  0  0
  6  8  1  0  0  0  0
  8 10  1  0  0  0  0
  8  9  1  0  0  0  0
 10 11  1  0  0  0  0
M  RAD  1   3   2
M  END
