Coordinates from ORCA-job Pyrrole-3-N2+-scan-d09-169-n800
 OpenBabel09191813553D

 11 10  0  0  0  0  0  0  0  0999 V2000
    5.4107    5.1005    1.2442 N   0  0  0  0  0  0  0  0  0  0  0  0
    6.2970    5.7416    1.4040 N   0  0  0  0  0  0  0  0  0  0  0  0
   -2.9879   -1.1807   -0.2396 C   0  0  0  0  0  0  0  0  0  0  0  0
   -3.4275   -0.1845   -1.0555 C   0  0  0  0  0  0  0  0  0  0  0  0
   -4.4127    0.1075   -1.3922 H   0  0  0  0  0  0  0  0  0  0  0  0
   -2.3870    0.7071   -0.7056 C   0  0  0  0  0  0  0  0  0  0  0  0
   -2.5256    1.7800   -0.5997 H   0  0  0  0  0  0  0  0  0  0  0  0
   -1.3153    0.0734   -0.0625 N   0  0  0  0  0  0  0  0  0  0  0  0
   -0.4715    0.5445    0.2535 H   0  0  0  0  0  0  0  0  0  0  0  0
   -1.6309   -1.2234    0.0910 C   0  0  0  0  0  0  0  0  0  0  0  0
   -0.9659   -2.0338    0.3538 H   0  0  0  0  0  0  0  0  0  0  0  0
  1  2  3  0  0  0  0
  3 10  2  0  0  0  0
  4  6  2  0  0  0  0
  4  3  1  0  0  0  0
  5  4  1  0  0  0  0
  6  7  1  0  0  0  0
  6  8  1  0  0  0  0
  8 10  1  0  0  0  0
  8  9  1  0  0  0  0
 10 11  1  0  0  0  0
M  RAD  1   3   2
M  END
