Coordinates from ORCA-job Pyrrole-3-N2+-scan-d09-169-n800
 OpenBabel09191813553D

 11 10  0  0  0  0  0  0  0  0999 V2000
    8.4535    7.2293    1.8697 N   0  0  0  0  0  0  0  0  0  0  0  0
    9.3447    7.8635    2.0302 N   0  0  0  0  0  0  0  0  0  0  0  0
   -3.6692   -1.6517   -0.3977 C   0  0  0  0  0  0  0  0  0  0  0  0
   -4.0969   -0.6455   -1.2075 C   0  0  0  0  0  0  0  0  0  0  0  0
   -5.0776   -0.3466   -1.5515 H   0  0  0  0  0  0  0  0  0  0  0  0
   -3.0573    0.2388   -0.8371 C   0  0  0  0  0  0  0  0  0  0  0  0
   -3.1936    1.3109   -0.7212 H   0  0  0  0  0  0  0  0  0  0  0  0
   -1.9947   -0.4054   -0.1894 N   0  0  0  0  0  0  0  0  0  0  0  0
   -1.1529    0.0595    0.1408 H   0  0  0  0  0  0  0  0  0  0  0  0
   -2.3161   -1.7026   -0.0531 C   0  0  0  0  0  0  0  0  0  0  0  0
   -1.6566   -2.5182    0.2080 H   0  0  0  0  0  0  0  0  0  0  0  0
  1  2  3  0  0  0  0
  3 10  2  0  0  0  0
  4  6  2  0  0  0  0
  4  3  1  0  0  0  0
  5  4  1  0  0  0  0
  6  7  1  0  0  0  0
  6  8  1  0  0  0  0
  8 10  1  0  0  0  0
  8  9  1  0  0  0  0
 10 11  1  0  0  0  0
M  RAD  1   3   2
M  END
