Coordinates from ORCA-job Pyrrole-3-N2+-scan-d09-169-n800
 OpenBabel09191813553D

 11 10  0  0  0  0  0  0  0  0999 V2000
    9.5121    7.9925    2.1066 N   0  0  0  0  0  0  0  0  0  0  0  0
   10.4281    8.6004    2.2228 N   0  0  0  0  0  0  0  0  0  0  0  0
   -3.9115   -1.8155   -0.4462 C   0  0  0  0  0  0  0  0  0  0  0  0
   -4.3343   -0.8072   -1.2562 C   0  0  0  0  0  0  0  0  0  0  0  0
   -5.3134   -0.5043   -1.6009 H   0  0  0  0  0  0  0  0  0  0  0  0
   -3.2917    0.0728   -0.8846 C   0  0  0  0  0  0  0  0  0  0  0  0
   -3.4240    1.1454   -0.7684 H   0  0  0  0  0  0  0  0  0  0  0  0
   -2.2321   -0.5759   -0.2362 N   0  0  0  0  0  0  0  0  0  0  0  0
   -1.3885   -0.1146    0.0945 H   0  0  0  0  0  0  0  0  0  0  0  0
   -2.5587   -1.8717   -0.1008 C   0  0  0  0  0  0  0  0  0  0  0  0
   -1.9027   -2.6900    0.1606 H   0  0  0  0  0  0  0  0  0  0  0  0
  1  2  3  0  0  0  0
  3 10  2  0  0  0  0
  4  6  2  0  0  0  0
  4  3  1  0  0  0  0
  5  4  1  0  0  0  0
  6  7  1  0  0  0  0
  6  8  1  0  0  0  0
  8 10  1  0  0  0  0
  8  9  1  0  0  0  0
 10 11  1  0  0  0  0
M  RAD  1   3   2
M  END
