Coordinates from ORCA-job Pyrrole-3-N2+-scan-d09-169-n800
 OpenBabel09191813553D

 11 10  0  0  0  0  0  0  0  0999 V2000
    4.8315    4.6907    1.1275 N   0  0  0  0  0  0  0  0  0  0  0  0
    5.7157    5.3347    1.2864 N   0  0  0  0  0  0  0  0  0  0  0  0
   -2.8559   -1.0912   -0.2055 C   0  0  0  0  0  0  0  0  0  0  0  0
   -3.3015   -0.0999   -1.0239 C   0  0  0  0  0  0  0  0  0  0  0  0
   -4.2890    0.1882   -1.3575 H   0  0  0  0  0  0  0  0  0  0  0  0
   -2.2616    0.7959   -0.6829 C   0  0  0  0  0  0  0  0  0  0  0  0
   -2.4024    1.8689   -0.5813 H   0  0  0  0  0  0  0  0  0  0  0  0
   -1.1856    0.1678   -0.0417 N   0  0  0  0  0  0  0  0  0  0  0  0
   -0.3414    0.6425    0.2682 H   0  0  0  0  0  0  0  0  0  0  0  0
   -1.4973   -1.1290    0.1191 C   0  0  0  0  0  0  0  0  0  0  0  0
   -0.8291   -1.9366    0.3827 H   0  0  0  0  0  0  0  0  0  0  0  0
  1  2  3  0  0  0  0
  3 10  2  0  0  0  0
  4  6  2  0  0  0  0
  4  3  1  0  0  0  0
  5  4  1  0  0  0  0
  6  7  1  0  0  0  0
  6  8  1  0  0  0  0
  8 10  1  0  0  0  0
  8  9  1  0  0  0  0
 10 11  1  0  0  0  0
M  RAD  1   3   2
M  END
