Coordinates from ORCA-job Pyrrole-3-N2+-scan-d09-169-n800
 OpenBabel09191813553D

 11 10  0  0  0  0  0  0  0  0999 V2000
    3.6913    4.0895    1.1546 N   0  0  0  0  0  0  0  0  0  0  0  0
    4.5589    4.7422    1.3625 N   0  0  0  0  0  0  0  0  0  0  0  0
   -1.4949   -1.1466   -0.1725 C   0  0  0  0  0  0  0  0  0  0  0  0
   -2.5776   -0.9274   -0.9674 C   0  0  0  0  0  0  0  0  0  0  0  0
   -3.4200   -1.5455   -1.2460 H   0  0  0  0  0  0  0  0  0  0  0  0
   -2.6389    0.4571   -0.6870 C   0  0  0  0  0  0  0  0  0  0  0  0
   -3.5698    1.0079   -0.5803 H   0  0  0  0  0  0  0  0  0  0  0  0
   -1.4631    0.9509   -0.1053 N   0  0  0  0  0  0  0  0  0  0  0  0
   -1.3105    1.9220    0.1545 H   0  0  0  0  0  0  0  0  0  0  0  0
   -0.6238   -0.0820    0.0747 C   0  0  0  0  0  0  0  0  0  0  0  0
    0.4318   -0.0362    0.3034 H   0  0  0  0  0  0  0  0  0  0  0  0
  1  2  3  0  0  0  0
  3 10  2  0  0  0  0
  4  6  2  0  0  0  0
  4  3  1  0  0  0  0
  5  4  1  0  0  0  0
  6  7  1  0  0  0  0
  6  8  1  0  0  0  0
  8 10  1  0  0  0  0
  8  9  1  0  0  0  0
 10 11  1  0  0  0  0
M  RAD  1   3   2
M  END
