Coordinates from ORCA-job Pyrrole-3-N2+-scan-d09-169-n800
 OpenBabel09191813553D

 11 10  0  0  0  0  0  0  0  0999 V2000
    2.5766    2.6489    0.7999 N   0  0  0  0  0  0  0  0  0  0  0  0
    3.4794    3.2535    1.0004 N   0  0  0  0  0  0  0  0  0  0  0  0
   -0.8911   -0.6481   -0.0790 C   0  0  0  0  0  0  0  0  0  0  0  0
   -1.9984   -0.7917   -0.8575 C   0  0  0  0  0  0  0  0  0  0  0  0
   -2.6111   -1.6461   -1.1098 H   0  0  0  0  0  0  0  0  0  0  0  0
   -2.4822    0.5111   -0.5992 C   0  0  0  0  0  0  0  0  0  0  0  0
   -3.5363    0.7503   -0.4857 H   0  0  0  0  0  0  0  0  0  0  0  0
   -1.5092    1.3554   -0.0476 N   0  0  0  0  0  0  0  0  0  0  0  0
   -1.6605    2.3315    0.1926 H   0  0  0  0  0  0  0  0  0  0  0  0
   -0.3865    0.6397    0.1325 C   0  0  0  0  0  0  0  0  0  0  0  0
    0.6028    1.0275    0.3445 H   0  0  0  0  0  0  0  0  0  0  0  0
  1  2  3  0  0  0  0
  3 10  2  0  0  0  0
  4  6  2  0  0  0  0
  4  3  1  0  0  0  0
  5  4  1  0  0  0  0
  6  7  1  0  0  0  0
  6  8  1  0  0  0  0
  8 10  1  0  0  0  0
  8  9  1  0  0  0  0
 10 11  1  0  0  0  0
M  RAD  1   3   2
M  END
