Coordinates from ORCA-job Pyrrole-3-N2+-scan-d09-169-n800
 OpenBabel09191813553D

 11 10  0  0  0  0  0  0  0  0999 V2000
    2.4292    1.0924    0.2835 N   0  0  0  0  0  0  0  0  0  0  0  0
    3.5305    1.1761    0.3149 N   0  0  0  0  0  0  0  0  0  0  0  0
   -0.4428    0.4517    0.2877 C   0  0  0  0  0  0  0  0  0  0  0  0
   -1.0251   -0.3388   -0.6574 C   0  0  0  0  0  0  0  0  0  0  0  0
   -0.8871   -1.3743   -0.9350 H   0  0  0  0  0  0  0  0  0  0  0  0
   -2.2589    0.3453   -0.6385 C   0  0  0  0  0  0  0  0  0  0  0  0
   -3.2226   -0.1374   -0.7735 H   0  0  0  0  0  0  0  0  0  0  0  0
   -2.1798    1.5881    0.0003 N   0  0  0  0  0  0  0  0  0  0  0  0
   -2.9613    2.2274    0.1156 H   0  0  0  0  0  0  0  0  0  0  0  0
   -0.9277    1.7452    0.4682 C   0  0  0  0  0  0  0  0  0  0  0  0
   -0.4710    2.6563    0.8255 H   0  0  0  0  0  0  0  0  0  0  0  0
  1  2  3  0  0  0  0
  3 10  2  0  0  0  0
  4  6  2  0  0  0  0
  4  3  1  0  0  0  0
  5  4  1  0  0  0  0
  6  8  1  0  0  0  0
  7  6  1  0  0  0  0
  8  9  1  0  0  0  0
  8 10  1  0  0  0  0
 10 11  1  0  0  0  0
M  RAD  1   3   2
M  END
