Coordinates from ORCA-job Pyrrole-3-N2+-scan-d09-169-n800
 OpenBabel09191813553D

 11 10  0  0  0  0  0  0  0  0999 V2000
    4.0852    4.1566    0.9821 N   0  0  0  0  0  0  0  0  0  0  0  0
    4.9656    4.8060    1.1404 N   0  0  0  0  0  0  0  0  0  0  0  0
   -2.6837   -0.9750   -0.1524 C   0  0  0  0  0  0  0  0  0  0  0  0
   -3.1425    0.0050   -0.9775 C   0  0  0  0  0  0  0  0  0  0  0  0
   -4.1350    0.2849   -1.3030 H   0  0  0  0  0  0  0  0  0  0  0  0
   -2.1033    0.9093   -0.6585 C   0  0  0  0  0  0  0  0  0  0  0  0
   -2.2479    1.9828   -0.5676 H   0  0  0  0  0  0  0  0  0  0  0  0
   -1.0169    0.2934   -0.0225 N   0  0  0  0  0  0  0  0  0  0  0  0
   -0.1711    0.7755    0.2716 H   0  0  0  0  0  0  0  0  0  0  0  0
   -1.3209   -1.0025    0.1567 C   0  0  0  0  0  0  0  0  0  0  0  0
   -0.6460   -1.8040    0.4219 H   0  0  0  0  0  0  0  0  0  0  0  0
  1  2  3  0  0  0  0
  3 10  2  0  0  0  0
  4  6  2  0  0  0  0
  4  3  1  0  0  0  0
  5  4  1  0  0  0  0
  6  7  1  0  0  0  0
  6  8  1  0  0  0  0
  8 10  1  0  0  0  0
  8  9  1  0  0  0  0
 10 11  1  0  0  0  0
M  RAD  1   3   2
M  END
