Coordinates from ORCA-job Pyrrole-3-N2+-scan-d09-169-n800
 OpenBabel09191813553D

 11 10  0  0  0  0  0  0  0  0999 V2000
    6.2691    5.7037    1.4195 N   0  0  0  0  0  0  0  0  0  0  0  0
    7.1576    6.3415    1.5799 N   0  0  0  0  0  0  0  0  0  0  0  0
   -3.1813   -1.3135   -0.2864 C   0  0  0  0  0  0  0  0  0  0  0  0
   -3.6156   -0.3130   -1.0998 C   0  0  0  0  0  0  0  0  0  0  0  0
   -4.5988   -0.0178   -1.4395 H   0  0  0  0  0  0  0  0  0  0  0  0
   -2.5749    0.5751   -0.7415 C   0  0  0  0  0  0  0  0  0  0  0  0
   -2.7121    1.6478   -0.6316 H   0  0  0  0  0  0  0  0  0  0  0  0
   -1.5073   -0.0634   -0.0966 N   0  0  0  0  0  0  0  0  0  0  0  0
   -0.6640    0.4048    0.2252 H   0  0  0  0  0  0  0  0  0  0  0  0
   -1.8259   -1.3602    0.0499 C   0  0  0  0  0  0  0  0  0  0  0  0
   -1.1635   -2.1731    0.3120 H   0  0  0  0  0  0  0  0  0  0  0  0
  1  2  3  0  0  0  0
  3 10  2  0  0  0  0
  4  6  2  0  0  0  0
  4  3  1  0  0  0  0
  5  4  1  0  0  0  0
  6  7  1  0  0  0  0
  6  8  1  0  0  0  0
  8 10  1  0  0  0  0
  8  9  1  0  0  0  0
 10 11  1  0  0  0  0
M  RAD  1   3   2
M  END
