Coordinates from ORCA-job Pyrrole-3-N2+-scan-d09-169-n800
 OpenBabel09191813553D

 11 10  0  0  0  0  0  0  0  0999 V2000
    2.6237    2.7264    0.8185 N   0  0  0  0  0  0  0  0  0  0  0  0
    3.5150    3.3483    1.0178 N   0  0  0  0  0  0  0  0  0  0  0  0
   -0.9260   -0.6849   -0.0836 C   0  0  0  0  0  0  0  0  0  0  0  0
   -2.0356   -0.8003   -0.8634 C   0  0  0  0  0  0  0  0  0  0  0  0
   -2.6687   -1.6392   -1.1175 H   0  0  0  0  0  0  0  0  0  0  0  0
   -2.4877    0.5136   -0.6039 C   0  0  0  0  0  0  0  0  0  0  0  0
   -3.5358    0.7781   -0.4909 H   0  0  0  0  0  0  0  0  0  0  0  0
   -1.4951    1.3335   -0.0505 N   0  0  0  0  0  0  0  0  0  0  0  0
   -1.6228    2.3127    0.1909 H   0  0  0  0  0  0  0  0  0  0  0  0
   -0.3907    0.5902    0.1301 C   0  0  0  0  0  0  0  0  0  0  0  0
    0.6071    0.9534    0.3438 H   0  0  0  0  0  0  0  0  0  0  0  0
  1  2  3  0  0  0  0
  3 10  2  0  0  0  0
  4  6  2  0  0  0  0
  4  3  1  0  0  0  0
  5  4  1  0  0  0  0
  6  7  1  0  0  0  0
  6  8  1  0  0  0  0
  8 10  1  0  0  0  0
  8  9  1  0  0  0  0
 10 11  1  0  0  0  0
M  RAD  1   3   2
M  END
