Coordinates from ORCA-job Pyrrole-3-N2+-scan-d09-169-n800
 OpenBabel09191813553D

 11 10  0  0  0  0  0  0  0  0999 V2000
    2.5660    2.5397    0.7833 N   0  0  0  0  0  0  0  0  0  0  0  0
    3.4806    3.1245    0.9880 N   0  0  0  0  0  0  0  0  0  0  0  0
   -0.8432   -0.5868   -0.0751 C   0  0  0  0  0  0  0  0  0  0  0  0
   -1.9452   -0.7829   -0.8499 C   0  0  0  0  0  0  0  0  0  0  0  0
   -2.5191   -1.6651   -1.0981 H   0  0  0  0  0  0  0  0  0  0  0  0
   -2.4868    0.4973   -0.5938 C   0  0  0  0  0  0  0  0  0  0  0  0
   -3.5503    0.6891   -0.4784 H   0  0  0  0  0  0  0  0  0  0  0  0
   -1.5513    1.3859   -0.0472 N   0  0  0  0  0  0  0  0  0  0  0  0
   -1.7462    2.3548    0.1908 H   0  0  0  0  0  0  0  0  0  0  0  0
   -0.3967    0.7222    0.1318 C   0  0  0  0  0  0  0  0  0  0  0  0
    0.5756    1.1534    0.3398 H   0  0  0  0  0  0  0  0  0  0  0  0
  1  2  3  0  0  0  0
  3 10  2  0  0  0  0
  4  6  2  0  0  0  0
  4  3  1  0  0  0  0
  5  4  1  0  0  0  0
  6  7  1  0  0  0  0
  6  8  1  0  0  0  0
  8 10  1  0  0  0  0
  8  9  1  0  0  0  0
 10 11  1  0  0  0  0
M  RAD  1   3   2
M  END
