Coordinates from ORCA-job Pyrrole-3-N2+-scan-d09-169-n800
 OpenBabel09191813553D

 11 10  0  0  0  0  0  0  0  0999 V2000
    2.9060    3.0851    0.9157 N   0  0  0  0  0  0  0  0  0  0  0  0
    3.7876    3.7202    1.1180 N   0  0  0  0  0  0  0  0  0  0  0  0
   -1.0723   -0.8173   -0.1076 C   0  0  0  0  0  0  0  0  0  0  0  0
   -2.1871   -0.8437   -0.8880 C   0  0  0  0  0  0  0  0  0  0  0  0
   -2.8839   -1.6298   -1.1443 H   0  0  0  0  0  0  0  0  0  0  0  0
   -2.5350    0.5014   -0.6260 C   0  0  0  0  0  0  0  0  0  0  0  0
   -3.5594    0.8464   -0.5123 H   0  0  0  0  0  0  0  0  0  0  0  0
   -1.4817    1.2407   -0.0709 N   0  0  0  0  0  0  0  0  0  0  0  0
   -1.5328    2.2264    0.1729 H   0  0  0  0  0  0  0  0  0  0  0  0
   -0.4405    0.4119    0.1095 C   0  0  0  0  0  0  0  0  0  0  0  0
    0.5825    0.6906    0.3243 H   0  0  0  0  0  0  0  0  0  0  0  0
  1  2  3  0  0  0  0
  3 10  2  0  0  0  0
  4  6  2  0  0  0  0
  4  3  1  0  0  0  0
  5  4  1  0  0  0  0
  6  7  1  0  0  0  0
  6  8  1  0  0  0  0
  8 10  1  0  0  0  0
  8  9  1  0  0  0  0
 10 11  1  0  0  0  0
M  RAD  1   3   2
M  END
