Coordinates from ORCA-job Pyrrole-3-N2+-scan-d09-169-n800
 OpenBabel09191813553D

 11 10  0  0  0  0  0  0  0  0999 V2000
    9.0934    7.6912    2.0134 N   0  0  0  0  0  0  0  0  0  0  0  0
    9.9984    8.3113    2.1498 N   0  0  0  0  0  0  0  0  0  0  0  0
   -3.8162   -1.7506   -0.4273 C   0  0  0  0  0  0  0  0  0  0  0  0
   -4.2403   -0.7428   -1.2372 C   0  0  0  0  0  0  0  0  0  0  0  0
   -5.2200   -0.4408   -1.5813 H   0  0  0  0  0  0  0  0  0  0  0  0
   -3.1984    0.1383   -0.8661 C   0  0  0  0  0  0  0  0  0  0  0  0
   -3.3316    1.2108   -0.7498 H   0  0  0  0  0  0  0  0  0  0  0  0
   -2.1379   -0.5094   -0.2182 N   0  0  0  0  0  0  0  0  0  0  0  0
   -1.2945   -0.0473    0.1120 H   0  0  0  0  0  0  0  0  0  0  0  0
   -2.4632   -1.8055   -0.0826 C   0  0  0  0  0  0  0  0  0  0  0  0
   -1.8062   -2.6232    0.1785 H   0  0  0  0  0  0  0  0  0  0  0  0
  1  2  3  0  0  0  0
  3 10  2  0  0  0  0
  4  6  2  0  0  0  0
  4  3  1  0  0  0  0
  5  4  1  0  0  0  0
  6  7  1  0  0  0  0
  6  8  1  0  0  0  0
  8 10  1  0  0  0  0
  8  9  1  0  0  0  0
 10 11  1  0  0  0  0
M  RAD  1   3   2
M  END
