Coordinates from ORCA-job Pyrrole-3-N2+-scan-d09-169-n800
 OpenBabel09191813553D

 11 10  0  0  0  0  0  0  0  0999 V2000
    3.5489    3.9278    1.1172 N   0  0  0  0  0  0  0  0  0  0  0  0
    4.4181    4.5785    1.3242 N   0  0  0  0  0  0  0  0  0  0  0  0
   -1.4273   -1.0989   -0.1616 C   0  0  0  0  0  0  0  0  0  0  0  0
   -2.5195   -0.9142   -0.9523 C   0  0  0  0  0  0  0  0  0  0  0  0
   -3.3447   -1.5575   -1.2251 H   0  0  0  0  0  0  0  0  0  0  0  0
   -2.6199    0.4689   -0.6763 C   0  0  0  0  0  0  0  0  0  0  0  0
   -3.5661    0.9927   -0.5673 H   0  0  0  0  0  0  0  0  0  0  0  0
   -1.4566    0.9989   -0.1017 N   0  0  0  0  0  0  0  0  0  0  0  0
   -1.3310    1.9749    0.1540 H   0  0  0  0  0  0  0  0  0  0  0  0
   -0.5866   -0.0084    0.0782 C   0  0  0  0  0  0  0  0  0  0  0  0
    0.4681    0.0693    0.3020 H   0  0  0  0  0  0  0  0  0  0  0  0
  1  2  3  0  0  0  0
  3 10  2  0  0  0  0
  4  6  2  0  0  0  0
  4  3  1  0  0  0  0
  5  4  1  0  0  0  0
  6  7  1  0  0  0  0
  6  8  1  0  0  0  0
  8 10  1  0  0  0  0
  8  9  1  0  0  0  0
 10 11  1  0  0  0  0
M  RAD  1   3   2
M  END
