Coordinates from ORCA-job Pyrrole-3-N2+-scan-d09-169-n800
 OpenBabel09191813553D

 11 10  0  0  0  0  0  0  0  0999 V2000
    6.4412    5.8239    1.4547 N   0  0  0  0  0  0  0  0  0  0  0  0
    7.3298    6.4616    1.6154 N   0  0  0  0  0  0  0  0  0  0  0  0
   -3.2198   -1.3402   -0.2955 C   0  0  0  0  0  0  0  0  0  0  0  0
   -3.6533   -0.3390   -1.1085 C   0  0  0  0  0  0  0  0  0  0  0  0
   -4.6363   -0.0433   -1.4487 H   0  0  0  0  0  0  0  0  0  0  0  0
   -2.6128    0.5487   -0.7489 C   0  0  0  0  0  0  0  0  0  0  0  0
   -2.7498    1.6213   -0.6383 H   0  0  0  0  0  0  0  0  0  0  0  0
   -1.5457   -0.0905   -0.1036 N   0  0  0  0  0  0  0  0  0  0  0  0
   -0.7026    0.3774    0.2191 H   0  0  0  0  0  0  0  0  0  0  0  0
   -1.8647   -1.3873    0.0417 C   0  0  0  0  0  0  0  0  0  0  0  0
   -1.2026   -2.2005    0.3037 H   0  0  0  0  0  0  0  0  0  0  0  0
  1  2  3  0  0  0  0
  3 10  2  0  0  0  0
  4  6  2  0  0  0  0
  4  3  1  0  0  0  0
  5  4  1  0  0  0  0
  6  7  1  0  0  0  0
  6  8  1  0  0  0  0
  8 10  1  0  0  0  0
  8  9  1  0  0  0  0
 10 11  1  0  0  0  0
M  RAD  1   3   2
M  END
