Coordinates from ORCA-job Pyrrole-3-N2+-scan-d09-169-n800
 OpenBabel09191813553D

 11 10  0  0  0  0  0  0  0  0999 V2000
    3.4903    3.8635    1.1025 N   0  0  0  0  0  0  0  0  0  0  0  0
    4.3595    4.5143    1.3093 N   0  0  0  0  0  0  0  0  0  0  0  0
   -1.4013   -1.0801   -0.1569 C   0  0  0  0  0  0  0  0  0  0  0  0
   -2.4970   -0.9084   -0.9456 C   0  0  0  0  0  0  0  0  0  0  0  0
   -3.3161   -1.5608   -1.2153 H   0  0  0  0  0  0  0  0  0  0  0  0
   -2.6114    0.4742   -0.6719 C   0  0  0  0  0  0  0  0  0  0  0  0
   -3.5628    0.9881   -0.5617 H   0  0  0  0  0  0  0  0  0  0  0  0
   -1.4524    1.0174   -0.1009 N   0  0  0  0  0  0  0  0  0  0  0  0
   -1.3365    1.9952    0.1527 H   0  0  0  0  0  0  0  0  0  0  0  0
   -0.5716    0.0197    0.0789 C   0  0  0  0  0  0  0  0  0  0  0  0
    0.4828    0.1090    0.3002 H   0  0  0  0  0  0  0  0  0  0  0  0
  1  2  3  0  0  0  0
  3 10  2  0  0  0  0
  4  6  2  0  0  0  0
  4  3  1  0  0  0  0
  5  4  1  0  0  0  0
  6  7  1  0  0  0  0
  6  8  1  0  0  0  0
  8 10  1  0  0  0  0
  8  9  1  0  0  0  0
 10 11  1  0  0  0  0
M  RAD  1   3   2
M  END
