Coordinates from ORCA-job Pyrrole-3-N2+-scan-d09-169-n800
 OpenBabel09191813553D

 11 10  0  0  0  0  0  0  0  0999 V2000
    2.5297    2.3790    0.7492 N   0  0  0  0  0  0  0  0  0  0  0  0
    3.5211    2.8211    0.9533 N   0  0  0  0  0  0  0  0  0  0  0  0
   -0.7468   -0.4502   -0.0627 C   0  0  0  0  0  0  0  0  0  0  0  0
   -1.8239   -0.7613   -0.8349 C   0  0  0  0  0  0  0  0  0  0  0  0
   -2.3063   -1.6980   -1.0775 H   0  0  0  0  0  0  0  0  0  0  0  0
   -2.4917    0.4593   -0.5852 C   0  0  0  0  0  0  0  0  0  0  0  0
   -3.5690    0.5435   -0.4699 H   0  0  0  0  0  0  0  0  0  0  0  0
   -1.6502    1.4404   -0.0439 N   0  0  0  0  0  0  0  0  0  0  0  0
   -1.9414    2.3862    0.1881 H   0  0  0  0  0  0  0  0  0  0  0  0
   -0.4344    0.8969    0.1369 C   0  0  0  0  0  0  0  0  0  0  0  0
    0.4962    1.4151    0.3378 H   0  0  0  0  0  0  0  0  0  0  0  0
  1  2  3  0  0  0  0
  3 10  2  0  0  0  0
  4  6  2  0  0  0  0
  4  3  1  0  0  0  0
  5  4  1  0  0  0  0
  6  7  1  0  0  0  0
  6  8  1  0  0  0  0
  8 10  1  0  0  0  0
  8  9  1  0  0  0  0
 10 11  1  0  0  0  0
M  RAD  1   3   2
M  END
