Coordinates from ORCA-job Pyrrole-3-N2+-scan-d09-169-n800
 OpenBabel09191813553D

 11 10  0  0  0  0  0  0  0  0999 V2000
    4.0722    4.1474    0.9798 N   0  0  0  0  0  0  0  0  0  0  0  0
    4.9526    4.7967    1.1379 N   0  0  0  0  0  0  0  0  0  0  0  0
   -2.6805   -0.9729   -0.1515 C   0  0  0  0  0  0  0  0  0  0  0  0
   -3.1401    0.0067   -0.9764 C   0  0  0  0  0  0  0  0  0  0  0  0
   -4.1327    0.2864   -1.3018 H   0  0  0  0  0  0  0  0  0  0  0  0
   -2.1005    0.9112   -0.6582 C   0  0  0  0  0  0  0  0  0  0  0  0
   -2.2450    1.9847   -0.5677 H   0  0  0  0  0  0  0  0  0  0  0  0
   -1.0139    0.2957   -0.0225 N   0  0  0  0  0  0  0  0  0  0  0  0
   -0.1683    0.7780    0.2715 H   0  0  0  0  0  0  0  0  0  0  0  0
   -1.3178   -1.0003    0.1574 C   0  0  0  0  0  0  0  0  0  0  0  0
   -0.6427   -1.8017    0.4226 H   0  0  0  0  0  0  0  0  0  0  0  0
  1  2  3  0  0  0  0
  3 10  2  0  0  0  0
  4  6  2  0  0  0  0
  4  3  1  0  0  0  0
  5  4  1  0  0  0  0
  6  7  1  0  0  0  0
  6  8  1  0  0  0  0
  8 10  1  0  0  0  0
  8  9  1  0  0  0  0
 10 11  1  0  0  0  0
M  RAD  1   3   2
M  END
