Coordinates from ORCA-job Pyrrole-3-N2+-scan-d09-169-n800
 OpenBabel09191813553D

 11 10  0  0  0  0  0  0  0  0999 V2000
    3.6819    4.0787    1.1520 N   0  0  0  0  0  0  0  0  0  0  0  0
    4.5497    4.7312    1.3599 N   0  0  0  0  0  0  0  0  0  0  0  0
   -1.4903   -1.1434   -0.1718 C   0  0  0  0  0  0  0  0  0  0  0  0
   -2.5736   -0.9266   -0.9665 C   0  0  0  0  0  0  0  0  0  0  0  0
   -3.4149   -1.5464   -1.2448 H   0  0  0  0  0  0  0  0  0  0  0  0
   -2.6377    0.4579   -0.6863 C   0  0  0  0  0  0  0  0  0  0  0  0
   -3.5697    1.0068   -0.5795 H   0  0  0  0  0  0  0  0  0  0  0  0
   -1.4628    0.9542   -0.1050 N   0  0  0  0  0  0  0  0  0  0  0  0
   -1.3121    1.9256    0.1546 H   0  0  0  0  0  0  0  0  0  0  0  0
   -0.6213   -0.0769    0.0751 C   0  0  0  0  0  0  0  0  0  0  0  0
    0.4342   -0.0290    0.3035 H   0  0  0  0  0  0  0  0  0  0  0  0
  1  2  3  0  0  0  0
  3 10  2  0  0  0  0
  4  6  2  0  0  0  0
  4  3  1  0  0  0  0
  5  4  1  0  0  0  0
  6  7  1  0  0  0  0
  6  8  1  0  0  0  0
  8 10  1  0  0  0  0
  8  9  1  0  0  0  0
 10 11  1  0  0  0  0
M  RAD  1   3   2
M  END
