Coordinates from ORCA-job Pyrrole-3-N2+-scan-d09-169-n800
 OpenBabel09191813553D

 11 10  0  0  0  0  0  0  0  0999 V2000
    4.7921    4.6625    1.1196 N   0  0  0  0  0  0  0  0  0  0  0  0
    5.6760    5.3070    1.2785 N   0  0  0  0  0  0  0  0  0  0  0  0
   -2.8470   -1.0852   -0.2028 C   0  0  0  0  0  0  0  0  0  0  0  0
   -3.2928   -0.0942   -1.0218 C   0  0  0  0  0  0  0  0  0  0  0  0
   -4.2804    0.1936   -1.3551 H   0  0  0  0  0  0  0  0  0  0  0  0
   -2.2532    0.8020   -0.6813 C   0  0  0  0  0  0  0  0  0  0  0  0
   -2.3944    1.8750   -0.5801 H   0  0  0  0  0  0  0  0  0  0  0  0
   -1.1767    0.1742   -0.0403 N   0  0  0  0  0  0  0  0  0  0  0  0
   -0.3323    0.6491    0.2687 H   0  0  0  0  0  0  0  0  0  0  0  0
   -1.4881   -1.1223    0.1211 C   0  0  0  0  0  0  0  0  0  0  0  0
   -0.8196   -1.9297    0.3847 H   0  0  0  0  0  0  0  0  0  0  0  0
  1  2  3  0  0  0  0
  3 10  2  0  0  0  0
  4  6  2  0  0  0  0
  4  3  1  0  0  0  0
  5  4  1  0  0  0  0
  6  7  1  0  0  0  0
  6  8  1  0  0  0  0
  8 10  1  0  0  0  0
  8  9  1  0  0  0  0
 10 11  1  0  0  0  0
M  RAD  1   3   2
M  END
