Coordinates from ORCA-job Pyrrole-3-N2+-scan-d09-169-n800
 OpenBabel09191813553D

 11 10  0  0  0  0  0  0  0  0999 V2000
    8.0426    6.9431    1.7850 N   0  0  0  0  0  0  0  0  0  0  0  0
    8.9337    7.5774    1.9452 N   0  0  0  0  0  0  0  0  0  0  0  0
   -3.5777   -1.5883   -0.3771 C   0  0  0  0  0  0  0  0  0  0  0  0
   -4.0061   -0.5828   -1.1876 C   0  0  0  0  0  0  0  0  0  0  0  0
   -4.9871   -0.2844   -1.5310 H   0  0  0  0  0  0  0  0  0  0  0  0
   -2.9665    0.3021   -0.8188 C   0  0  0  0  0  0  0  0  0  0  0  0
   -3.1032    1.3743   -0.7038 H   0  0  0  0  0  0  0  0  0  0  0  0
   -1.9032   -0.3414   -0.1715 N   0  0  0  0  0  0  0  0  0  0  0  0
   -1.0609    0.1239    0.1571 H   0  0  0  0  0  0  0  0  0  0  0  0
   -2.2241   -1.6384   -0.0339 C   0  0  0  0  0  0  0  0  0  0  0  0
   -1.5642   -2.4535    0.2274 H   0  0  0  0  0  0  0  0  0  0  0  0
  1  2  3  0  0  0  0
  3 10  2  0  0  0  0
  4  6  2  0  0  0  0
  4  3  1  0  0  0  0
  5  4  1  0  0  0  0
  6  7  1  0  0  0  0
  6  8  1  0  0  0  0
  8 10  1  0  0  0  0
  8  9  1  0  0  0  0
 10 11  1  0  0  0  0
M  RAD  1   3   2
M  END
