Coordinates from ORCA-job Pyrrole-3-N2+-scan-d09-169-n800
 OpenBabel09191813553D

 11 10  0  0  0  0  0  0  0  0999 V2000
    2.5621    2.4263    0.7639 N   0  0  0  0  0  0  0  0  0  0  0  0
    3.5139    2.9475    0.9707 N   0  0  0  0  0  0  0  0  0  0  0  0
   -0.7847   -0.5024   -0.0683 C   0  0  0  0  0  0  0  0  0  0  0  0
   -1.8727   -0.7710   -0.8412 C   0  0  0  0  0  0  0  0  0  0  0  0
   -2.3899   -1.6885   -1.0856 H   0  0  0  0  0  0  0  0  0  0  0  0
   -2.4939    0.4734   -0.5890 C   0  0  0  0  0  0  0  0  0  0  0  0
   -3.5673    0.5980   -0.4735 H   0  0  0  0  0  0  0  0  0  0  0  0
   -1.6161    1.4210   -0.0458 N   0  0  0  0  0  0  0  0  0  0  0  0
   -1.8717    2.3764    0.1888 H   0  0  0  0  0  0  0  0  0  0  0  0
   -0.4215    0.8320    0.1341 C   0  0  0  0  0  0  0  0  0  0  0  0
    0.5252    1.3192    0.3372 H   0  0  0  0  0  0  0  0  0  0  0  0
  1  2  3  0  0  0  0
  3 10  2  0  0  0  0
  4  6  2  0  0  0  0
  4  3  1  0  0  0  0
  5  4  1  0  0  0  0
  6  7  1  0  0  0  0
  6  8  1  0  0  0  0
  8 10  1  0  0  0  0
  8  9  1  0  0  0  0
 10 11  1  0  0  0  0
M  RAD  1   3   2
M  END
