Coordinates from ORCA-job Pyrrole-3-N2+-scan-d09-169-n800
 OpenBabel09191813553D

 11 10  0  0  0  0  0  0  0  0999 V2000
    3.0750    3.3038    0.9733 N   0  0  0  0  0  0  0  0  0  0  0  0
    3.9503    3.9470    1.1777 N   0  0  0  0  0  0  0  0  0  0  0  0
   -1.1644   -0.8950   -0.1218 C   0  0  0  0  0  0  0  0  0  0  0  0
   -2.2790   -0.8660   -0.9023 C   0  0  0  0  0  0  0  0  0  0  0  0
   -3.0137   -1.6166   -1.1594 H   0  0  0  0  0  0  0  0  0  0  0  0
   -2.5602    0.4944   -0.6390 C   0  0  0  0  0  0  0  0  0  0  0  0
   -3.5665    0.8892   -0.5250 H   0  0  0  0  0  0  0  0  0  0  0  0
   -1.4721    1.1808   -0.0831 N   0  0  0  0  0  0  0  0  0  0  0  0
   -1.4749    2.1675    0.1620 H   0  0  0  0  0  0  0  0  0  0  0  0
   -0.4735    0.3010    0.0971 C   0  0  0  0  0  0  0  0  0  0  0  0
    0.5623    0.5257    0.3117 H   0  0  0  0  0  0  0  0  0  0  0  0
  1  2  3  0  0  0  0
  3 10  2  0  0  0  0
  4  6  2  0  0  0  0
  4  3  1  0  0  0  0
  5  4  1  0  0  0  0
  6  7  1  0  0  0  0
  6  8  1  0  0  0  0
  8 10  1  0  0  0  0
  8  9  1  0  0  0  0
 10 11  1  0  0  0  0
M  RAD  1   3   2
M  END
