Coordinates from ORCA-job Pyrrole-3-N2+-scan-d09-169-n800
 OpenBabel09191813553D

 11 10  0  0  0  0  0  0  0  0999 V2000
    4.1634    4.2131    0.9973 N   0  0  0  0  0  0  0  0  0  0  0  0
    5.0448    4.8614    1.1549 N   0  0  0  0  0  0  0  0  0  0  0  0
   -2.7016   -0.9875   -0.1588 C   0  0  0  0  0  0  0  0  0  0  0  0
   -3.1589   -0.0060   -0.9830 C   0  0  0  0  0  0  0  0  0  0  0  0
   -4.1507    0.2747   -1.3098 H   0  0  0  0  0  0  0  0  0  0  0  0
   -2.1199    0.8976   -0.6606 C   0  0  0  0  0  0  0  0  0  0  0  0
   -2.2646    1.9709   -0.5680 H   0  0  0  0  0  0  0  0  0  0  0  0
   -1.0349    0.2803   -0.0237 N   0  0  0  0  0  0  0  0  0  0  0  0
   -0.1895    0.7616    0.2727 H   0  0  0  0  0  0  0  0  0  0  0  0
   -1.3395   -1.0159    0.1526 C   0  0  0  0  0  0  0  0  0  0  0  0
   -0.6652   -1.8180    0.4176 H   0  0  0  0  0  0  0  0  0  0  0  0
  1  2  3  0  0  0  0
  3 10  2  0  0  0  0
  4  6  2  0  0  0  0
  4  3  1  0  0  0  0
  5  4  1  0  0  0  0
  6  7  1  0  0  0  0
  6  8  1  0  0  0  0
  8 10  1  0  0  0  0
  8  9  1  0  0  0  0
 10 11  1  0  0  0  0
M  RAD  1   3   2
M  END
