Coordinates from ORCA-job Pyrrole-3-N2+-scan-d09-169-n800
 OpenBabel09191813553D

 11 10  0  0  0  0  0  0  0  0999 V2000
    2.6675    2.7933    0.8352 N   0  0  0  0  0  0  0  0  0  0  0  0
    3.5533    3.4233    1.0340 N   0  0  0  0  0  0  0  0  0  0  0  0
   -0.9546   -0.7134   -0.0877 C   0  0  0  0  0  0  0  0  0  0  0  0
   -2.0657   -0.8078   -0.8682 C   0  0  0  0  0  0  0  0  0  0  0  0
   -2.7140   -1.6347   -1.1233 H   0  0  0  0  0  0  0  0  0  0  0  0
   -2.4938    0.5141   -0.6080 C   0  0  0  0  0  0  0  0  0  0  0  0
   -3.5370    0.7975   -0.4952 H   0  0  0  0  0  0  0  0  0  0  0  0
   -1.4867    1.3155   -0.0535 N   0  0  0  0  0  0  0  0  0  0  0  0
   -1.5966    2.2967    0.1887 H   0  0  0  0  0  0  0  0  0  0  0  0
   -0.3966    0.5517    0.1274 C   0  0  0  0  0  0  0  0  0  0  0  0
    0.6075    0.8957    0.3418 H   0  0  0  0  0  0  0  0  0  0  0  0
  1  2  3  0  0  0  0
  3 10  2  0  0  0  0
  4  6  2  0  0  0  0
  4  3  1  0  0  0  0
  5  4  1  0  0  0  0
  6  7  1  0  0  0  0
  6  8  1  0  0  0  0
  8 10  1  0  0  0  0
  8  9  1  0  0  0  0
 10 11  1  0  0  0  0
M  RAD  1   3   2
M  END
