Coordinates from ORCA-job Pyrrole-3-N2+-scan-d09-169-n800
 OpenBabel09191813553D

 11 10  0  0  0  0  0  0  0  0999 V2000
    6.6790    5.9907    1.5037 N   0  0  0  0  0  0  0  0  0  0  0  0
    7.5683    6.6274    1.6642 N   0  0  0  0  0  0  0  0  0  0  0  0
   -3.2732   -1.3771   -0.3077 C   0  0  0  0  0  0  0  0  0  0  0  0
   -3.7055   -0.3751   -1.1205 C   0  0  0  0  0  0  0  0  0  0  0  0
   -4.6881   -0.0788   -1.4612 H   0  0  0  0  0  0  0  0  0  0  0  0
   -2.6653    0.5121   -0.7591 C   0  0  0  0  0  0  0  0  0  0  0  0
   -2.8024    1.5846   -0.6477 H   0  0  0  0  0  0  0  0  0  0  0  0
   -1.5989   -0.1280   -0.1134 N   0  0  0  0  0  0  0  0  0  0  0  0
   -0.7557    0.3392    0.2101 H   0  0  0  0  0  0  0  0  0  0  0  0
   -1.9182   -1.4247    0.0304 C   0  0  0  0  0  0  0  0  0  0  0  0
   -1.2566   -2.2383    0.2923 H   0  0  0  0  0  0  0  0  0  0  0  0
  1  2  3  0  0  0  0
  3 10  2  0  0  0  0
  4  6  2  0  0  0  0
  4  3  1  0  0  0  0
  5  4  1  0  0  0  0
  6  7  1  0  0  0  0
  6  8  1  0  0  0  0
  8 10  1  0  0  0  0
  8  9  1  0  0  0  0
 10 11  1  0  0  0  0
M  RAD  1   3   2
M  END
