Coordinates from ORCA-job Pyrrole-3-N2+-scan-d09-169-n800
 OpenBabel09191813553D

 11 10  0  0  0  0  0  0  0  0999 V2000
    3.6912    3.8786    0.9140 N   0  0  0  0  0  0  0  0  0  0  0  0
    4.5664    4.5345    1.0741 N   0  0  0  0  0  0  0  0  0  0  0  0
   -2.5982   -0.9071   -0.1074 C   0  0  0  0  0  0  0  0  0  0  0  0
   -3.0660    0.0616   -0.9407 C   0  0  0  0  0  0  0  0  0  0  0  0
   -4.0625    0.3416   -1.2536 H   0  0  0  0  0  0  0  0  0  0  0  0
   -2.0166    0.9654   -0.6549 C   0  0  0  0  0  0  0  0  0  0  0  0
   -2.1540    2.0410   -0.5794 H   0  0  0  0  0  0  0  0  0  0  0  0
   -0.9225    0.3542   -0.0277 N   0  0  0  0  0  0  0  0  0  0  0  0
   -0.0692    0.8365    0.2435 H   0  0  0  0  0  0  0  0  0  0  0  0
   -1.2303   -0.9368    0.1783 C   0  0  0  0  0  0  0  0  0  0  0  0
   -0.5550   -1.7375    0.4450 H   0  0  0  0  0  0  0  0  0  0  0  0
  1  2  3  0  0  0  0
  3 10  2  0  0  0  0
  4  6  2  0  0  0  0
  4  3  1  0  0  0  0
  5  4  1  0  0  0  0
  6  7  1  0  0  0  0
  6  8  1  0  0  0  0
  8 10  1  0  0  0  0
  8  9  1  0  0  0  0
 10 11  1  0  0  0  0
M  RAD  1   3   2
M  END
