Coordinates from ORCA-job Pyrrole-3-N2+-scan-d09-169-n800
 OpenBabel09191813553D

 11 10  0  0  0  0  0  0  0  0999 V2000
    5.5297    5.1837    1.2681 N   0  0  0  0  0  0  0  0  0  0  0  0
    6.4159    5.8247    1.4284 N   0  0  0  0  0  0  0  0  0  0  0  0
   -3.0149   -1.1992   -0.2462 C   0  0  0  0  0  0  0  0  0  0  0  0
   -3.4532   -0.2021   -1.0619 C   0  0  0  0  0  0  0  0  0  0  0  0
   -4.4381    0.0905   -1.3992 H   0  0  0  0  0  0  0  0  0  0  0  0
   -2.4129    0.6889   -0.7104 C   0  0  0  0  0  0  0  0  0  0  0  0
   -2.5515    1.7618   -0.6037 H   0  0  0  0  0  0  0  0  0  0  0  0
   -1.3420    0.0543   -0.0669 N   0  0  0  0  0  0  0  0  0  0  0  0
   -0.4981    0.5249    0.2499 H   0  0  0  0  0  0  0  0  0  0  0  0
   -1.6581   -1.2423    0.0852 C   0  0  0  0  0  0  0  0  0  0  0  0
   -0.9935   -2.0532    0.3479 H   0  0  0  0  0  0  0  0  0  0  0  0
  1  2  3  0  0  0  0
  3 10  2  0  0  0  0
  4  6  2  0  0  0  0
  4  3  1  0  0  0  0
  5  4  1  0  0  0  0
  6  7  1  0  0  0  0
  6  8  1  0  0  0  0
  8 10  1  0  0  0  0
  8  9  1  0  0  0  0
 10 11  1  0  0  0  0
M  RAD  1   3   2
M  END
