Coordinates from ORCA-job Pyrrole-3-N2+-scan-d09-169-n800
 OpenBabel09191813553D

 11 10  0  0  0  0  0  0  0  0999 V2000
    8.4932    7.2569    1.8779 N   0  0  0  0  0  0  0  0  0  0  0  0
    9.3843    7.8911    2.0384 N   0  0  0  0  0  0  0  0  0  0  0  0
   -3.6782   -1.6580   -0.3995 C   0  0  0  0  0  0  0  0  0  0  0  0
   -4.1055   -0.6515   -1.2095 C   0  0  0  0  0  0  0  0  0  0  0  0
   -5.0861   -0.3525   -1.5536 H   0  0  0  0  0  0  0  0  0  0  0  0
   -3.0661    0.2327   -0.8388 C   0  0  0  0  0  0  0  0  0  0  0  0
   -3.2025    1.3049   -0.7228 H   0  0  0  0  0  0  0  0  0  0  0  0
   -2.0035   -0.4117   -0.1910 N   0  0  0  0  0  0  0  0  0  0  0  0
   -1.1615    0.0531    0.1390 H   0  0  0  0  0  0  0  0  0  0  0  0
   -2.3250   -1.7087   -0.0550 C   0  0  0  0  0  0  0  0  0  0  0  0
   -1.6656   -2.5243    0.2061 H   0  0  0  0  0  0  0  0  0  0  0  0
  1  2  3  0  0  0  0
  3 10  2  0  0  0  0
  4  6  2  0  0  0  0
  4  3  1  0  0  0  0
  5  4  1  0  0  0  0
  6  7  1  0  0  0  0
  6  8  1  0  0  0  0
  8 10  1  0  0  0  0
  8  9  1  0  0  0  0
 10 11  1  0  0  0  0
M  RAD  1   3   2
M  END
