Coordinates from ORCA-job Pyrrole-3-N2+-scan-d09-169-n800
 OpenBabel09191813553D

 11 10  0  0  0  0  0  0  0  0999 V2000
    3.0103    3.2163    0.9507 N   0  0  0  0  0  0  0  0  0  0  0  0
    3.8912    3.8521    1.1542 N   0  0  0  0  0  0  0  0  0  0  0  0
   -1.1260   -0.8625   -0.1161 C   0  0  0  0  0  0  0  0  0  0  0  0
   -2.2408   -0.8580   -0.8968 C   0  0  0  0  0  0  0  0  0  0  0  0
   -2.9589   -1.6246   -1.1538 H   0  0  0  0  0  0  0  0  0  0  0  0
   -2.5518    0.4959   -0.6341 C   0  0  0  0  0  0  0  0  0  0  0  0
   -3.5665    0.8687   -0.5203 H   0  0  0  0  0  0  0  0  0  0  0  0
   -1.4790    1.2060   -0.0781 N   0  0  0  0  0  0  0  0  0  0  0  0
   -1.5032    2.1925    0.1665 H   0  0  0  0  0  0  0  0  0  0  0  0
   -0.4612    0.3486    0.1022 C   0  0  0  0  0  0  0  0  0  0  0  0
    0.5693    0.5972    0.3169 H   0  0  0  0  0  0  0  0  0  0  0  0
  1  2  3  0  0  0  0
  3 10  2  0  0  0  0
  4  6  2  0  0  0  0
  4  3  1  0  0  0  0
  5  4  1  0  0  0  0
  6  7  1  0  0  0  0
  6  8  1  0  0  0  0
  8 10  1  0  0  0  0
  8  9  1  0  0  0  0
 10 11  1  0  0  0  0
M  RAD  1   3   2
M  END
