Coordinates from ORCA-job Pyrrole-3-N2+-scan-d09-169-n800
 OpenBabel09191813553D

 11 10  0  0  0  0  0  0  0  0999 V2000
    6.3751    5.7774    1.4410 N   0  0  0  0  0  0  0  0  0  0  0  0
    7.2633    6.4154    1.6018 N   0  0  0  0  0  0  0  0  0  0  0  0
   -3.2051   -1.3300   -0.2919 C   0  0  0  0  0  0  0  0  0  0  0  0
   -3.6386   -0.3290   -1.1053 C   0  0  0  0  0  0  0  0  0  0  0  0
   -4.6216   -0.0334   -1.4453 H   0  0  0  0  0  0  0  0  0  0  0  0
   -2.5983    0.5589   -0.7460 C   0  0  0  0  0  0  0  0  0  0  0  0
   -2.7356    1.6315   -0.6355 H   0  0  0  0  0  0  0  0  0  0  0  0
   -1.5310   -0.0801   -0.1007 N   0  0  0  0  0  0  0  0  0  0  0  0
   -0.6876    0.3878    0.2214 H   0  0  0  0  0  0  0  0  0  0  0  0
   -1.8498   -1.3768    0.0448 C   0  0  0  0  0  0  0  0  0  0  0  0
   -1.1876   -2.1899    0.3069 H   0  0  0  0  0  0  0  0  0  0  0  0
  1  2  3  0  0  0  0
  3 10  2  0  0  0  0
  4  6  2  0  0  0  0
  4  3  1  0  0  0  0
  5  4  1  0  0  0  0
  6  7  1  0  0  0  0
  6  8  1  0  0  0  0
  8 10  1  0  0  0  0
  8  9  1  0  0  0  0
 10 11  1  0  0  0  0
M  RAD  1   3   2
M  END
