Coordinates from ORCA-job Pyrrole-3-N2+-scan-d09-169-n800
 OpenBabel09191813553D

 11 10  0  0  0  0  0  0  0  0999 V2000
    9.1588    7.7384    2.0281 N   0  0  0  0  0  0  0  0  0  0  0  0
   10.0655    8.3567    2.1615 N   0  0  0  0  0  0  0  0  0  0  0  0
   -3.8310   -1.7607   -0.4305 C   0  0  0  0  0  0  0  0  0  0  0  0
   -4.2552   -0.7528   -1.2401 C   0  0  0  0  0  0  0  0  0  0  0  0
   -5.2348   -0.4507   -1.5843 H   0  0  0  0  0  0  0  0  0  0  0  0
   -3.2129    0.1280   -0.8690 C   0  0  0  0  0  0  0  0  0  0  0  0
   -3.3457    1.2005   -0.7529 H   0  0  0  0  0  0  0  0  0  0  0  0
   -2.1525   -0.5198   -0.2212 N   0  0  0  0  0  0  0  0  0  0  0  0
   -1.3093   -0.0577    0.1094 H   0  0  0  0  0  0  0  0  0  0  0  0
   -2.4782   -1.8161   -0.0855 C   0  0  0  0  0  0  0  0  0  0  0  0
   -1.8213   -2.6338    0.1757 H   0  0  0  0  0  0  0  0  0  0  0  0
  1  2  3  0  0  0  0
  3 10  2  0  0  0  0
  4  6  2  0  0  0  0
  4  3  1  0  0  0  0
  5  4  1  0  0  0  0
  6  7  1  0  0  0  0
  6  8  1  0  0  0  0
  8 10  1  0  0  0  0
  8  9  1  0  0  0  0
 10 11  1  0  0  0  0
M  RAD  1   3   2
M  END
