Coordinates from ORCA-job Pyrrole-3-N2+-scan-d09-169-n800
 OpenBabel09191813553D

 11 10  0  0  0  0  0  0  0  0999 V2000
    8.7673    7.4552    1.9397 N   0  0  0  0  0  0  0  0  0  0  0  0
    9.6642    8.0836    2.0904 N   0  0  0  0  0  0  0  0  0  0  0  0
   -3.7411   -1.7002   -0.4126 C   0  0  0  0  0  0  0  0  0  0  0  0
   -4.1672   -0.6931   -1.2221 C   0  0  0  0  0  0  0  0  0  0  0  0
   -5.1474   -0.3927   -1.5662 H   0  0  0  0  0  0  0  0  0  0  0  0
   -3.1263    0.1895   -0.8513 C   0  0  0  0  0  0  0  0  0  0  0  0
   -3.2610    1.2619   -0.7352 H   0  0  0  0  0  0  0  0  0  0  0  0
   -2.0648   -0.4564   -0.2037 N   0  0  0  0  0  0  0  0  0  0  0  0
   -1.2223    0.0072    0.1267 H   0  0  0  0  0  0  0  0  0  0  0  0
   -2.3881   -1.7532   -0.0678 C   0  0  0  0  0  0  0  0  0  0  0  0
   -1.7298   -2.5697    0.1933 H   0  0  0  0  0  0  0  0  0  0  0  0
  1  2  3  0  0  0  0
  3 10  2  0  0  0  0
  4  6  2  0  0  0  0
  4  3  1  0  0  0  0
  5  4  1  0  0  0  0
  6  7  1  0  0  0  0
  6  8  1  0  0  0  0
  8 10  1  0  0  0  0
  8  9  1  0  0  0  0
 10 11  1  0  0  0  0
M  RAD  1   3   2
M  END
