Coordinates from ORCA-job Pyrrole-3-N2+-scan-d09-169-n800
 OpenBabel09191813553D

 11 10  0  0  0  0  0  0  0  0999 V2000
    5.9255    5.4624    1.3489 N   0  0  0  0  0  0  0  0  0  0  0  0
    6.8131    6.1015    1.5095 N   0  0  0  0  0  0  0  0  0  0  0  0
   -3.1042   -1.2604   -0.2679 C   0  0  0  0  0  0  0  0  0  0  0  0
   -3.5399   -0.2613   -1.0824 C   0  0  0  0  0  0  0  0  0  0  0  0
   -4.5238    0.0329   -1.4211 H   0  0  0  0  0  0  0  0  0  0  0  0
   -2.4996    0.6281   -0.7269 C   0  0  0  0  0  0  0  0  0  0  0  0
   -2.6374    1.7008   -0.6183 H   0  0  0  0  0  0  0  0  0  0  0  0
   -1.4305   -0.0089   -0.0825 N   0  0  0  0  0  0  0  0  0  0  0  0
   -0.5869    0.4602    0.2370 H   0  0  0  0  0  0  0  0  0  0  0  0
   -1.7481   -1.3055    0.0662 C   0  0  0  0  0  0  0  0  0  0  0  0
   -1.0848   -2.1176    0.3286 H   0  0  0  0  0  0  0  0  0  0  0  0
  1  2  3  0  0  0  0
  3 10  2  0  0  0  0
  4  6  2  0  0  0  0
  4  3  1  0  0  0  0
  5  4  1  0  0  0  0
  6  7  1  0  0  0  0
  6  8  1  0  0  0  0
  8 10  1  0  0  0  0
  8  9  1  0  0  0  0
 10 11  1  0  0  0  0
M  RAD  1   3   2
M  END
