Coordinates from ORCA-job Pyrrole-3-N2+-scan-d09-169-n800
 OpenBabel09191813553D

 11 10  0  0  0  0  0  0  0  0999 V2000
    5.6617    5.2765    1.2949 N   0  0  0  0  0  0  0  0  0  0  0  0
    6.5482    5.9170    1.4555 N   0  0  0  0  0  0  0  0  0  0  0  0
   -3.0447   -1.2196   -0.2535 C   0  0  0  0  0  0  0  0  0  0  0  0
   -3.4821   -0.2218   -1.0688 C   0  0  0  0  0  0  0  0  0  0  0  0
   -4.4666    0.0714   -1.4066 H   0  0  0  0  0  0  0  0  0  0  0  0
   -2.4418    0.6687   -0.7159 C   0  0  0  0  0  0  0  0  0  0  0  0
   -2.5801    1.7414   -0.6085 H   0  0  0  0  0  0  0  0  0  0  0  0
   -1.3715    0.0332   -0.0720 N   0  0  0  0  0  0  0  0  0  0  0  0
   -0.5277    0.5032    0.2458 H   0  0  0  0  0  0  0  0  0  0  0  0
   -1.6881   -1.2634    0.0789 C   0  0  0  0  0  0  0  0  0  0  0  0
   -1.0240   -2.0747    0.3415 H   0  0  0  0  0  0  0  0  0  0  0  0
  1  2  3  0  0  0  0
  3 10  2  0  0  0  0
  4  6  2  0  0  0  0
  4  3  1  0  0  0  0
  5  4  1  0  0  0  0
  6  7  1  0  0  0  0
  6  8  1  0  0  0  0
  8 10  1  0  0  0  0
  8  9  1  0  0  0  0
 10 11  1  0  0  0  0
M  RAD  1   3   2
M  END
