Coordinates from ORCA-job Pyrrole-3-N2+-scan-d09-169-n800
 OpenBabel09191813553D

 11 10  0  0  0  0  0  0  0  0999 V2000
    4.0327    4.1195    0.9728 N   0  0  0  0  0  0  0  0  0  0  0  0
    4.9133    4.7687    1.1307 N   0  0  0  0  0  0  0  0  0  0  0  0
   -2.6716   -0.9667   -0.1477 C   0  0  0  0  0  0  0  0  0  0  0  0
   -3.1319    0.0120   -0.9735 C   0  0  0  0  0  0  0  0  0  0  0  0
   -4.1249    0.2912   -1.2980 H   0  0  0  0  0  0  0  0  0  0  0  0
   -2.0923    0.9171   -0.6574 C   0  0  0  0  0  0  0  0  0  0  0  0
   -2.2371    1.9906   -0.5678 H   0  0  0  0  0  0  0  0  0  0  0  0
   -1.0049    0.3023   -0.0221 N   0  0  0  0  0  0  0  0  0  0  0  0
   -0.1587    0.7850    0.2700 H   0  0  0  0  0  0  0  0  0  0  0  0
   -1.3084   -0.9934    0.1594 C   0  0  0  0  0  0  0  0  0  0  0  0
   -0.6329   -1.7944    0.4248 H   0  0  0  0  0  0  0  0  0  0  0  0
  1  2  3  0  0  0  0
  3 10  2  0  0  0  0
  4  6  2  0  0  0  0
  4  3  1  0  0  0  0
  5  4  1  0  0  0  0
  6  7  1  0  0  0  0
  6  8  1  0  0  0  0
  8 10  1  0  0  0  0
  8  9  1  0  0  0  0
 10 11  1  0  0  0  0
M  RAD  1   3   2
M  END
