Coordinates from ORCA-job Pyrrole-3-N2+-scan-d09-169-n800
 OpenBabel09191813553D

 11 10  0  0  0  0  0  0  0  0999 V2000
    1.9077    0.8246    0.2173 N   0  0  0  0  0  0  0  0  0  0  0  0
    3.0057    0.7972    0.3269 N   0  0  0  0  0  0  0  0  0  0  0  0
   -0.2004    0.8156   -0.0201 C   0  0  0  0  0  0  0  0  0  0  0  0
   -0.8566   -0.2622   -0.5679 C   0  0  0  0  0  0  0  0  0  0  0  0
   -0.5417   -1.2177   -0.9539 H   0  0  0  0  0  0  0  0  0  0  0  0
   -2.1473    0.2673   -0.4774 C   0  0  0  0  0  0  0  0  0  0  0  0
   -3.0654   -0.2114   -0.7899 H   0  0  0  0  0  0  0  0  0  0  0  0
   -2.1317    1.5246    0.0778 N   0  0  0  0  0  0  0  0  0  0  0  0
   -2.9548    2.0948    0.2376 H   0  0  0  0  0  0  0  0  0  0  0  0
   -0.8553    1.9296    0.3980 C   0  0  0  0  0  0  0  0  0  0  0  0
   -0.5768    2.8697    0.8429 H   0  0  0  0  0  0  0  0  0  0  0  0
  1  2  3  0  0  0  0
  3 10  2  0  0  0  0
  4  6  2  0  0  0  0
  4  3  1  0  0  0  0
  5  4  1  0  0  0  0
  6  8  1  0  0  0  0
  7  6  1  0  0  0  0
  8  9  1  0  0  0  0
  8 10  1  0  0  0  0
 10 11  1  0  0  0  0
M  RAD  1   3   2
M  END
