Coordinates from ORCA-job Pyrrole-3-N2+-scan-d09-169-n800
 OpenBabel09191813553D

 11 10  0  0  0  0  0  0  0  0999 V2000
    6.9172    6.1573    1.5526 N   0  0  0  0  0  0  0  0  0  0  0  0
    7.8069    6.7934    1.7134 N   0  0  0  0  0  0  0  0  0  0  0  0
   -3.3264   -1.4141   -0.3200 C   0  0  0  0  0  0  0  0  0  0  0  0
   -3.7580   -0.4114   -1.1323 C   0  0  0  0  0  0  0  0  0  0  0  0
   -4.7402   -0.1147   -1.4736 H   0  0  0  0  0  0  0  0  0  0  0  0
   -2.7179    0.4754   -0.7695 C   0  0  0  0  0  0  0  0  0  0  0  0
   -2.8549    1.5479   -0.6573 H   0  0  0  0  0  0  0  0  0  0  0  0
   -1.6521   -0.1653   -0.1234 N   0  0  0  0  0  0  0  0  0  0  0  0
   -0.8091    0.3016    0.2011 H   0  0  0  0  0  0  0  0  0  0  0  0
   -1.9717   -1.4621    0.0192 C   0  0  0  0  0  0  0  0  0  0  0  0
   -1.3104   -2.2760    0.2809 H   0  0  0  0  0  0  0  0  0  0  0  0
  1  2  3  0  0  0  0
  3 10  2  0  0  0  0
  4  6  2  0  0  0  0
  4  3  1  0  0  0  0
  5  4  1  0  0  0  0
  6  7  1  0  0  0  0
  6  8  1  0  0  0  0
  8 10  1  0  0  0  0
  8  9  1  0  0  0  0
 10 11  1  0  0  0  0
M  RAD  1   3   2
M  END
