Coordinates from ORCA-job Pyrrole-3-N2+-scan-d09-169-n800
 OpenBabel09191813553D

 11 10  0  0  0  0  0  0  0  0999 V2000
    8.8977    7.5496    1.9693 N   0  0  0  0  0  0  0  0  0  0  0  0
    9.7978    8.1749    2.1144 N   0  0  0  0  0  0  0  0  0  0  0  0
   -3.7712   -1.7203   -0.4185 C   0  0  0  0  0  0  0  0  0  0  0  0
   -4.1966   -0.7129   -1.2281 C   0  0  0  0  0  0  0  0  0  0  0  0
   -5.1765   -0.4118   -1.5722 H   0  0  0  0  0  0  0  0  0  0  0  0
   -3.1550    0.1690   -0.8573 C   0  0  0  0  0  0  0  0  0  0  0  0
   -3.2890    1.2414   -0.7412 H   0  0  0  0  0  0  0  0  0  0  0  0
   -2.0939   -0.4777   -0.2096 N   0  0  0  0  0  0  0  0  0  0  0  0
   -1.2512   -0.0147    0.1208 H   0  0  0  0  0  0  0  0  0  0  0  0
   -2.4182   -1.7742   -0.0737 C   0  0  0  0  0  0  0  0  0  0  0  0
   -1.7605   -2.5913    0.1873 H   0  0  0  0  0  0  0  0  0  0  0  0
  1  2  3  0  0  0  0
  3 10  2  0  0  0  0
  4  6  2  0  0  0  0
  4  3  1  0  0  0  0
  5  4  1  0  0  0  0
  6  7  1  0  0  0  0
  6  8  1  0  0  0  0
  8 10  1  0  0  0  0
  8  9  1  0  0  0  0
 10 11  1  0  0  0  0
M  RAD  1   3   2
M  END
