Coordinates from ORCA-job Pyrrole-3-N2+-scan-d09-169-n800
 OpenBabel09191813553D

 11 11  0  0  0  0  0  0  0  0999 V2000
    1.1203    0.8095    0.1236 N   0  0  0  0  0  0  0  0  0  0  0  0
    2.2713    0.7641    0.2307 N   0  0  0  0  0  0  0  0  0  0  0  0
    0.1851    0.8358    0.0315 C   0  0  0  0  0  0  0  0  0  0  0  0
   -0.7265   -0.2255   -0.5371 C   0  0  0  0  0  0  0  0  0  0  0  0
   -0.3623   -1.1715   -0.9135 H   0  0  0  0  0  0  0  0  0  0  0  0
   -1.9897    0.2399   -0.4722 C   0  0  0  0  0  0  0  0  0  0  0  0
   -2.9233   -0.2122   -0.7748 H   0  0  0  0  0  0  0  0  0  0  0  0
   -1.9646    1.5244    0.0964 N   0  0  0  0  0  0  0  0  0  0  0  0
   -2.7915    2.0938    0.2555 H   0  0  0  0  0  0  0  0  0  0  0  0
   -0.7426    1.9098    0.4016 C   0  0  0  0  0  0  0  0  0  0  0  0
   -0.4929    2.8639    0.8496 H   0  0  0  0  0  0  0  0  0  0  0  0
  1  2  1  0  0  0  0
  3  1  1  0  0  0  0
  3 10  2  0  0  0  0
  4  6  2  0  0  0  0
  4  3  1  0  0  0  0
  5  4  1  0  0  0  0
  6  8  1  0  0  0  0
  7  6  1  0  0  0  0
  8  9  1  0  0  0  0
  8 10  1  0  0  0  0
 10 11  1  0  0  0  0
M  RAD  2   1   2   2   3
M  END
