Coordinates from ORCA-job Pyrrole-3-N2+-scan-d09-169-n800
 OpenBabel09191813553D

 11 10  0  0  0  0  0  0  0  0999 V2000
    7.2617    6.3976    1.6234 N   0  0  0  0  0  0  0  0  0  0  0  0
    8.1516    7.0334    1.7845 N   0  0  0  0  0  0  0  0  0  0  0  0
   -3.4032   -1.4673   -0.3378 C   0  0  0  0  0  0  0  0  0  0  0  0
   -3.8340   -0.4637   -1.1492 C   0  0  0  0  0  0  0  0  0  0  0  0
   -4.8159   -0.1666   -1.4912 H   0  0  0  0  0  0  0  0  0  0  0  0
   -2.7939    0.4224   -0.7845 C   0  0  0  0  0  0  0  0  0  0  0  0
   -2.9305    1.4948   -0.6714 H   0  0  0  0  0  0  0  0  0  0  0  0
   -1.7289   -0.2192   -0.1381 N   0  0  0  0  0  0  0  0  0  0  0  0
   -0.8864    0.2473    0.1881 H   0  0  0  0  0  0  0  0  0  0  0  0
   -2.0490   -1.5162    0.0029 C   0  0  0  0  0  0  0  0  0  0  0  0
   -1.3881   -2.3305    0.2645 H   0  0  0  0  0  0  0  0  0  0  0  0
  1  2  3  0  0  0  0
  3 10  2  0  0  0  0
  4  6  2  0  0  0  0
  4  3  1  0  0  0  0
  5  4  1  0  0  0  0
  6  7  1  0  0  0  0
  6  8  1  0  0  0  0
  8 10  1  0  0  0  0
  8  9  1  0  0  0  0
 10 11  1  0  0  0  0
M  RAD  1   3   2
M  END
