Coordinates from ORCA-job Pyrrole-3-N2+-scan-d09-169-n800
 OpenBabel09191813553D

 11 10  0  0  0  0  0  0  0  0999 V2000
    5.4374    5.1188    1.2493 N   0  0  0  0  0  0  0  0  0  0  0  0
    6.3234    5.7601    1.4096 N   0  0  0  0  0  0  0  0  0  0  0  0
   -2.9939   -1.1848   -0.2412 C   0  0  0  0  0  0  0  0  0  0  0  0
   -3.4332   -0.1884   -1.0570 C   0  0  0  0  0  0  0  0  0  0  0  0
   -4.4184    0.1037   -1.3938 H   0  0  0  0  0  0  0  0  0  0  0  0
   -2.3927    0.7031   -0.7067 C   0  0  0  0  0  0  0  0  0  0  0  0
   -2.5313    1.7759   -0.6006 H   0  0  0  0  0  0  0  0  0  0  0  0
   -1.3213    0.0691   -0.0635 N   0  0  0  0  0  0  0  0  0  0  0  0
   -0.4775    0.5402    0.2528 H   0  0  0  0  0  0  0  0  0  0  0  0
   -1.6370   -1.2276    0.0897 C   0  0  0  0  0  0  0  0  0  0  0  0
   -0.9720   -2.0382    0.3525 H   0  0  0  0  0  0  0  0  0  0  0  0
  1  2  3  0  0  0  0
  3 10  2  0  0  0  0
  4  6  2  0  0  0  0
  4  3  1  0  0  0  0
  5  4  1  0  0  0  0
  6  7  1  0  0  0  0
  6  8  1  0  0  0  0
  8 10  1  0  0  0  0
  8  9  1  0  0  0  0
 10 11  1  0  0  0  0
M  RAD  1   3   2
M  END
