Coordinates from ORCA-job Pyrrole-3-N2+-scan-d09-169-n800
 OpenBabel09191813553D

 11 10  0  0  0  0  0  0  0  0999 V2000
    3.0513    3.2707    0.9649 N   0  0  0  0  0  0  0  0  0  0  0  0
    3.9285    3.9114    1.1691 N   0  0  0  0  0  0  0  0  0  0  0  0
   -1.1498   -0.8827   -0.1197 C   0  0  0  0  0  0  0  0  0  0  0  0
   -2.2646   -0.8631   -0.9002 C   0  0  0  0  0  0  0  0  0  0  0  0
   -2.9930   -1.6199   -1.1572 H   0  0  0  0  0  0  0  0  0  0  0  0
   -2.5573    0.4949   -0.6372 C   0  0  0  0  0  0  0  0  0  0  0  0
   -3.5668    0.8812   -0.5232 H   0  0  0  0  0  0  0  0  0  0  0  0
   -1.4749    1.1904   -0.0813 N   0  0  0  0  0  0  0  0  0  0  0  0
   -1.4860    2.1771    0.1635 H   0  0  0  0  0  0  0  0  0  0  0  0
   -0.4689    0.3192    0.0989 C   0  0  0  0  0  0  0  0  0  0  0  0
    0.5649    0.5530    0.3136 H   0  0  0  0  0  0  0  0  0  0  0  0
  1  2  3  0  0  0  0
  3 10  2  0  0  0  0
  4  6  2  0  0  0  0
  4  3  1  0  0  0  0
  5  4  1  0  0  0  0
  6  7  1  0  0  0  0
  6  8  1  0  0  0  0
  8 10  1  0  0  0  0
  8  9  1  0  0  0  0
 10 11  1  0  0  0  0
M  RAD  1   3   2
M  END
