Coordinates from ORCA-job Pyrrole-3-N2+-scan-d09-169-n800
 OpenBabel09191813553D

 11 10  0  0  0  0  0  0  0  0999 V2000
    8.0561    6.9523    1.7876 N   0  0  0  0  0  0  0  0  0  0  0  0
    8.9471    7.5867    1.9482 N   0  0  0  0  0  0  0  0  0  0  0  0
   -3.5805   -1.5903   -0.3779 C   0  0  0  0  0  0  0  0  0  0  0  0
   -4.0092   -0.5849   -1.1882 C   0  0  0  0  0  0  0  0  0  0  0  0
   -4.9902   -0.2866   -1.5316 H   0  0  0  0  0  0  0  0  0  0  0  0
   -2.9695    0.3000   -0.8195 C   0  0  0  0  0  0  0  0  0  0  0  0
   -3.1060    1.3722   -0.7044 H   0  0  0  0  0  0  0  0  0  0  0  0
   -1.9061   -0.3433   -0.1722 N   0  0  0  0  0  0  0  0  0  0  0  0
   -1.0642    0.1221    0.1568 H   0  0  0  0  0  0  0  0  0  0  0  0
   -2.2270   -1.6405   -0.0345 C   0  0  0  0  0  0  0  0  0  0  0  0
   -1.5670   -2.4556    0.2268 H   0  0  0  0  0  0  0  0  0  0  0  0
  1  2  3  0  0  0  0
  3 10  2  0  0  0  0
  4  6  2  0  0  0  0
  4  3  1  0  0  0  0
  5  4  1  0  0  0  0
  6  7  1  0  0  0  0
  6  8  1  0  0  0  0
  8 10  1  0  0  0  0
  8  9  1  0  0  0  0
 10 11  1  0  0  0  0
M  RAD  1   3   2
M  END
