Coordinates from ORCA-job Pyrrole-3-N2+-scan-d09-169-n800
 OpenBabel09191813553D

 11 10  0  0  0  0  0  0  0  0999 V2000
    6.9703    6.1941    1.5634 N   0  0  0  0  0  0  0  0  0  0  0  0
    7.8599    6.8303    1.7244 N   0  0  0  0  0  0  0  0  0  0  0  0
   -3.3382   -1.4223   -0.3228 C   0  0  0  0  0  0  0  0  0  0  0  0
   -3.7696   -0.4194   -1.1350 C   0  0  0  0  0  0  0  0  0  0  0  0
   -4.7518   -0.1227   -1.4764 H   0  0  0  0  0  0  0  0  0  0  0  0
   -2.7296    0.4673   -0.7718 C   0  0  0  0  0  0  0  0  0  0  0  0
   -2.8667    1.5397   -0.6594 H   0  0  0  0  0  0  0  0  0  0  0  0
   -1.6639   -0.1736   -0.1256 N   0  0  0  0  0  0  0  0  0  0  0  0
   -0.8210    0.2933    0.1992 H   0  0  0  0  0  0  0  0  0  0  0  0
   -1.9836   -1.4704    0.0167 C   0  0  0  0  0  0  0  0  0  0  0  0
   -1.3223   -2.2843    0.2784 H   0  0  0  0  0  0  0  0  0  0  0  0
  1  2  3  0  0  0  0
  3 10  2  0  0  0  0
  4  6  2  0  0  0  0
  4  3  1  0  0  0  0
  5  4  1  0  0  0  0
  6  7  1  0  0  0  0
  6  8  1  0  0  0  0
  8 10  1  0  0  0  0
  8  9  1  0  0  0  0
 10 11  1  0  0  0  0
M  RAD  1   3   2
M  END
