Coordinates from ORCA-job Pyrrole-3-N2+-scan-d09-169-n800
 OpenBabel09191813553D

 11 10  0  0  0  0  0  0  0  0999 V2000
    8.4136    7.2016    1.8616 N   0  0  0  0  0  0  0  0  0  0  0  0
    9.3048    7.8358    2.0219 N   0  0  0  0  0  0  0  0  0  0  0  0
   -3.6605   -1.6456   -0.3956 C   0  0  0  0  0  0  0  0  0  0  0  0
   -4.0879   -0.6394   -1.2056 C   0  0  0  0  0  0  0  0  0  0  0  0
   -5.0686   -0.3404   -1.5496 H   0  0  0  0  0  0  0  0  0  0  0  0
   -3.0485    0.2450   -0.8353 C   0  0  0  0  0  0  0  0  0  0  0  0
   -3.1849    1.3171   -0.7194 H   0  0  0  0  0  0  0  0  0  0  0  0
   -1.9858   -0.3993   -0.1875 N   0  0  0  0  0  0  0  0  0  0  0  0
   -1.1437    0.0655    0.1422 H   0  0  0  0  0  0  0  0  0  0  0  0
   -2.3072   -1.6964   -0.0513 C   0  0  0  0  0  0  0  0  0  0  0  0
   -1.6477   -2.5119    0.2099 H   0  0  0  0  0  0  0  0  0  0  0  0
  1  2  3  0  0  0  0
  3 10  2  0  0  0  0
  4  6  2  0  0  0  0
  4  3  1  0  0  0  0
  5  4  1  0  0  0  0
  6  7  1  0  0  0  0
  6  8  1  0  0  0  0
  8 10  1  0  0  0  0
  8  9  1  0  0  0  0
 10 11  1  0  0  0  0
M  RAD  1   3   2
M  END
