Coordinates from ORCA-job Pyrrole-3-N2+-scan-d09-169-n800
 OpenBabel09191813553D

 11 10  0  0  0  0  0  0  0  0999 V2000
    3.4506    3.8207    1.0927 N   0  0  0  0  0  0  0  0  0  0  0  0
    4.3194    4.4721    1.2993 N   0  0  0  0  0  0  0  0  0  0  0  0
   -1.3843   -1.0677   -0.1538 C   0  0  0  0  0  0  0  0  0  0  0  0
   -2.4823   -0.9042   -0.9410 C   0  0  0  0  0  0  0  0  0  0  0  0
   -3.2975   -1.5624   -1.2086 H   0  0  0  0  0  0  0  0  0  0  0  0
   -2.6054    0.4779   -0.6689 C   0  0  0  0  0  0  0  0  0  0  0  0
   -3.5600    0.9857   -0.5579 H   0  0  0  0  0  0  0  0  0  0  0  0
   -1.4491    1.0295   -0.1004 N   0  0  0  0  0  0  0  0  0  0  0  0
   -1.3392    2.0083    0.1516 H   0  0  0  0  0  0  0  0  0  0  0  0
   -0.5614    0.0378    0.0793 C   0  0  0  0  0  0  0  0  0  0  0  0
    0.4927    0.1345    0.2989 H   0  0  0  0  0  0  0  0  0  0  0  0
  1  2  3  0  0  0  0
  3 10  2  0  0  0  0
  4  6  2  0  0  0  0
  4  3  1  0  0  0  0
  5  4  1  0  0  0  0
  6  7  1  0  0  0  0
  6  8  1  0  0  0  0
  8 10  1  0  0  0  0
  8  9  1  0  0  0  0
 10 11  1  0  0  0  0
M  RAD  1   3   2
M  END
