Coordinates from ORCA-job Pyrrole-3-N2+-scan-d09-169-n800
 OpenBabel09191813553D

 11 10  0  0  0  0  0  0  0  0999 V2000
    6.4675    5.8426    1.4602 N   0  0  0  0  0  0  0  0  0  0  0  0
    7.3563    6.4800    1.6207 N   0  0  0  0  0  0  0  0  0  0  0  0
   -3.2257   -1.3442   -0.2969 C   0  0  0  0  0  0  0  0  0  0  0  0
   -3.6592   -0.3430   -1.1098 C   0  0  0  0  0  0  0  0  0  0  0  0
   -4.6421   -0.0472   -1.4500 H   0  0  0  0  0  0  0  0  0  0  0  0
   -2.6186    0.5446   -0.7500 C   0  0  0  0  0  0  0  0  0  0  0  0
   -2.7555    1.6172   -0.6393 H   0  0  0  0  0  0  0  0  0  0  0  0
   -1.5516   -0.0947   -0.1048 N   0  0  0  0  0  0  0  0  0  0  0  0
   -0.7085    0.3731    0.2180 H   0  0  0  0  0  0  0  0  0  0  0  0
   -1.8706   -1.3915    0.0405 C   0  0  0  0  0  0  0  0  0  0  0  0
   -1.2086   -2.2048    0.3025 H   0  0  0  0  0  0  0  0  0  0  0  0
  1  2  3  0  0  0  0
  3 10  2  0  0  0  0
  4  6  2  0  0  0  0
  4  3  1  0  0  0  0
  5  4  1  0  0  0  0
  6  7  1  0  0  0  0
  6  8  1  0  0  0  0
  8 10  1  0  0  0  0
  8  9  1  0  0  0  0
 10 11  1  0  0  0  0
M  RAD  1   3   2
M  END
