Coordinates from ORCA-job Pyrrole-3-N2+-scan-d09-169-n800
 OpenBabel09191813553D

 11 10  0  0  0  0  0  0  0  0999 V2000
    6.7849    6.0647    1.5254 N   0  0  0  0  0  0  0  0  0  0  0  0
    7.6743    6.7012    1.6861 N   0  0  0  0  0  0  0  0  0  0  0  0
   -3.2969   -1.3936   -0.3132 C   0  0  0  0  0  0  0  0  0  0  0  0
   -3.7288   -0.3912   -1.1257 C   0  0  0  0  0  0  0  0  0  0  0  0
   -4.7112   -0.0948   -1.4667 H   0  0  0  0  0  0  0  0  0  0  0  0
   -2.6887    0.4958   -0.7637 C   0  0  0  0  0  0  0  0  0  0  0  0
   -2.8257    1.5683   -0.6519 H   0  0  0  0  0  0  0  0  0  0  0  0
   -1.6225   -0.1446   -0.1178 N   0  0  0  0  0  0  0  0  0  0  0  0
   -0.7795    0.3225    0.2061 H   0  0  0  0  0  0  0  0  0  0  0  0
   -1.9420   -1.4413    0.0254 C   0  0  0  0  0  0  0  0  0  0  0  0
   -1.2805   -2.2551    0.2873 H   0  0  0  0  0  0  0  0  0  0  0  0
  1  2  3  0  0  0  0
  3 10  2  0  0  0  0
  4  6  2  0  0  0  0
  4  3  1  0  0  0  0
  5  4  1  0  0  0  0
  6  7  1  0  0  0  0
  6  8  1  0  0  0  0
  8 10  1  0  0  0  0
  8  9  1  0  0  0  0
 10 11  1  0  0  0  0
M  RAD  1   3   2
M  END
