Coordinates from ORCA-job Pyrrole-3-N2+-scan-d09-169-n800
 OpenBabel09191813553D

 11 10  0  0  0  0  0  0  0  0999 V2000
    5.7671    5.3511    1.3166 N   0  0  0  0  0  0  0  0  0  0  0  0
    6.6543    5.9909    1.4770 N   0  0  0  0  0  0  0  0  0  0  0  0
   -3.0684   -1.2358   -0.2595 C   0  0  0  0  0  0  0  0  0  0  0  0
   -3.5054   -0.2376   -1.0742 C   0  0  0  0  0  0  0  0  0  0  0  0
   -4.4897    0.0561   -1.4123 H   0  0  0  0  0  0  0  0  0  0  0  0
   -2.4648    0.6523   -0.7203 C   0  0  0  0  0  0  0  0  0  0  0  0
   -2.6027    1.7251   -0.6125 H   0  0  0  0  0  0  0  0  0  0  0  0
   -1.3951    0.0163   -0.0763 N   0  0  0  0  0  0  0  0  0  0  0  0
   -0.5515    0.4861    0.2425 H   0  0  0  0  0  0  0  0  0  0  0  0
   -1.7122   -1.2804    0.0739 C   0  0  0  0  0  0  0  0  0  0  0  0
   -1.0484   -2.0921    0.3363 H   0  0  0  0  0  0  0  0  0  0  0  0
  1  2  3  0  0  0  0
  3 10  2  0  0  0  0
  4  6  2  0  0  0  0
  4  3  1  0  0  0  0
  5  4  1  0  0  0  0
  6  7  1  0  0  0  0
  6  8  1  0  0  0  0
  8 10  1  0  0  0  0
  8  9  1  0  0  0  0
 10 11  1  0  0  0  0
M  RAD  1   3   2
M  END
