Coordinates from ORCA-job Pyrrole-3-N2+-scan-d09-169-n800
 OpenBabel09191813553D

 11 10  0  0  0  0  0  0  0  0999 V2000
    2.5719    1.4181    0.4091 N   0  0  0  0  0  0  0  0  0  0  0  0
    3.6670    1.5579    0.4574 N   0  0  0  0  0  0  0  0  0  0  0  0
   -0.5231    0.2217    0.2296 C   0  0  0  0  0  0  0  0  0  0  0  0
   -1.2229   -0.4831   -0.7012 C   0  0  0  0  0  0  0  0  0  0  0  0
   -1.2340   -1.5289   -0.9751 H   0  0  0  0  0  0  0  0  0  0  0  0
   -2.3575    0.3582   -0.6442 C   0  0  0  0  0  0  0  0  0  0  0  0
   -3.3791   -0.0020   -0.7305 H   0  0  0  0  0  0  0  0  0  0  0  0
   -2.0983    1.5839   -0.0178 N   0  0  0  0  0  0  0  0  0  0  0  0
   -2.7849    2.3223    0.1108 H   0  0  0  0  0  0  0  0  0  0  0  0
   -0.8242    1.5722    0.4105 C   0  0  0  0  0  0  0  0  0  0  0  0
   -0.2315    2.4117    0.7426 H   0  0  0  0  0  0  0  0  0  0  0  0
  1  2  3  0  0  0  0
  3 10  2  0  0  0  0
  4  6  2  0  0  0  0
  4  3  1  0  0  0  0
  5  4  1  0  0  0  0
  6  8  1  0  0  0  0
  7  6  1  0  0  0  0
  8  9  1  0  0  0  0
  8 10  1  0  0  0  0
 10 11  1  0  0  0  0
M  RAD  1   3   2
M  END
