Coordinates from ORCA-job Pyrrole-3-N2+-scan-d09-169-n800
 OpenBabel09191813553D

 11 11  0  0  0  0  0  0  0  0999 V2000
    1.5579    0.8177    0.1758 N   0  0  0  0  0  0  0  0  0  0  0  0
    2.6613    0.7822    0.2828 N   0  0  0  0  0  0  0  0  0  0  0  0
   -0.0335    0.8240    0.0019 C   0  0  0  0  0  0  0  0  0  0  0  0
   -0.7921   -0.2344   -0.5488 C   0  0  0  0  0  0  0  0  0  0  0  0
   -0.4611   -1.1868   -0.9319 H   0  0  0  0  0  0  0  0  0  0  0  0
   -2.0755    0.2548   -0.4749 C   0  0  0  0  0  0  0  0  0  0  0  0
   -3.0034   -0.2058   -0.7802 H   0  0  0  0  0  0  0  0  0  0  0  0
   -2.0540    1.5200    0.0846 N   0  0  0  0  0  0  0  0  0  0  0  0
   -2.8772    2.0889    0.2442 H   0  0  0  0  0  0  0  0  0  0  0  0
   -0.7962    1.9112    0.3959 C   0  0  0  0  0  0  0  0  0  0  0  0
   -0.5429    2.8602    0.8419 H   0  0  0  0  0  0  0  0  0  0  0  0
  1  2  1  0  0  0  0
  3  1  1  0  0  0  0
  3 10  2  0  0  0  0
  4  6  2  0  0  0  0
  4  3  1  0  0  0  0
  5  4  1  0  0  0  0
  6  8  1  0  0  0  0
  7  6  1  0  0  0  0
  8  9  1  0  0  0  0
  8 10  1  0  0  0  0
 10 11  1  0  0  0  0
M  RAD  2   1   2   2   3
M  END
