Coordinates from ORCA-job Pyrrole-3-N2+-scan-d09-169-n800
 OpenBabel09191813553D

 11 10  0  0  0  0  0  0  0  0999 V2000
    6.0312    5.5369    1.3707 N   0  0  0  0  0  0  0  0  0  0  0  0
    6.9193    6.1753    1.5312 N   0  0  0  0  0  0  0  0  0  0  0  0
   -3.1278   -1.2767   -0.2738 C   0  0  0  0  0  0  0  0  0  0  0  0
   -3.5633   -0.2772   -1.0877 C   0  0  0  0  0  0  0  0  0  0  0  0
   -4.5470    0.0173   -1.4267 H   0  0  0  0  0  0  0  0  0  0  0  0
   -2.5227    0.6117   -0.7314 C   0  0  0  0  0  0  0  0  0  0  0  0
   -2.6602    1.6844   -0.6224 H   0  0  0  0  0  0  0  0  0  0  0  0
   -1.4541   -0.0257   -0.0869 N   0  0  0  0  0  0  0  0  0  0  0  0
   -0.6108    0.4432    0.2336 H   0  0  0  0  0  0  0  0  0  0  0  0
   -1.7720   -1.3225    0.0612 C   0  0  0  0  0  0  0  0  0  0  0  0
   -1.1090   -2.1348    0.3235 H   0  0  0  0  0  0  0  0  0  0  0  0
  1  2  3  0  0  0  0
  3 10  2  0  0  0  0
  4  6  2  0  0  0  0
  4  3  1  0  0  0  0
  5  4  1  0  0  0  0
  6  7  1  0  0  0  0
  6  8  1  0  0  0  0
  8 10  1  0  0  0  0
  8  9  1  0  0  0  0
 10 11  1  0  0  0  0
M  RAD  1   3   2
M  END
