Coordinates from ORCA-job Pyrrole-3-N2+-scan-d09-169-n800
 OpenBabel09191813553D

 11 10  0  0  0  0  0  0  0  0999 V2000
    4.6739    4.5786    1.0963 N   0  0  0  0  0  0  0  0  0  0  0  0
    5.5576    5.2235    1.2548 N   0  0  0  0  0  0  0  0  0  0  0  0
   -2.8197   -1.0669   -0.1955 C   0  0  0  0  0  0  0  0  0  0  0  0
   -3.2675   -0.0773   -1.0149 C   0  0  0  0  0  0  0  0  0  0  0  0
   -4.2558    0.2092   -1.3473 H   0  0  0  0  0  0  0  0  0  0  0  0
   -2.2279    0.8200   -0.6771 C   0  0  0  0  0  0  0  0  0  0  0  0
   -2.3695    1.8930   -0.5771 H   0  0  0  0  0  0  0  0  0  0  0  0
   -1.1502    0.1940   -0.0367 N   0  0  0  0  0  0  0  0  0  0  0  0
   -0.3060    0.6700    0.2710 H   0  0  0  0  0  0  0  0  0  0  0  0
   -1.4604   -1.1028    0.1269 C   0  0  0  0  0  0  0  0  0  0  0  0
   -0.7910   -1.9093    0.3907 H   0  0  0  0  0  0  0  0  0  0  0  0
  1  2  3  0  0  0  0
  3 10  2  0  0  0  0
  4  6  2  0  0  0  0
  4  3  1  0  0  0  0
  5  4  1  0  0  0  0
  6  7  1  0  0  0  0
  6  8  1  0  0  0  0
  8 10  1  0  0  0  0
  8  9  1  0  0  0  0
 10 11  1  0  0  0  0
M  RAD  1   3   2
M  END
