Coordinates from ORCA-job Pyrrole-3-N2+-scan-d09-169-n800
 OpenBabel09191813553D

 11 10  0  0  0  0  0  0  0  0999 V2000
    2.9236    3.1069    0.9216 N   0  0  0  0  0  0  0  0  0  0  0  0
    3.8051    3.7421    1.1241 N   0  0  0  0  0  0  0  0  0  0  0  0
   -1.0812   -0.8248   -0.1090 C   0  0  0  0  0  0  0  0  0  0  0  0
   -2.1960   -0.8462   -0.8895 C   0  0  0  0  0  0  0  0  0  0  0  0
   -2.8963   -1.6292   -1.1458 H   0  0  0  0  0  0  0  0  0  0  0  0
   -2.5379    0.5004   -0.6274 C   0  0  0  0  0  0  0  0  0  0  0  0
   -3.5608    0.8500   -0.5136 H   0  0  0  0  0  0  0  0  0  0  0  0
   -1.4814    1.2350   -0.0722 N   0  0  0  0  0  0  0  0  0  0  0  0
   -1.5281    2.2209    0.1718 H   0  0  0  0  0  0  0  0  0  0  0  0
   -0.4440    0.4015    0.1083 C   0  0  0  0  0  0  0  0  0  0  0  0
    0.5803    0.6753    0.3230 H   0  0  0  0  0  0  0  0  0  0  0  0
  1  2  3  0  0  0  0
  3 10  2  0  0  0  0
  4  6  2  0  0  0  0
  4  3  1  0  0  0  0
  5  4  1  0  0  0  0
  6  7  1  0  0  0  0
  6  8  1  0  0  0  0
  8 10  1  0  0  0  0
  8  9  1  0  0  0  0
 10 11  1  0  0  0  0
M  RAD  1   3   2
M  END
