Coordinates from ORCA-job Pyrrole-3-N2+-scan-d09-169-n800
 OpenBabel09191813553D

 11 10  0  0  0  0  0  0  0  0999 V2000
    8.6110    7.3417    1.9041 N   0  0  0  0  0  0  0  0  0  0  0  0
    9.5042    7.9737    2.0612 N   0  0  0  0  0  0  0  0  0  0  0  0
   -3.7050   -1.6761   -0.4054 C   0  0  0  0  0  0  0  0  0  0  0  0
   -4.1320   -0.6695   -1.2150 C   0  0  0  0  0  0  0  0  0  0  0  0
   -5.1125   -0.3700   -1.5591 H   0  0  0  0  0  0  0  0  0  0  0  0
   -3.0920    0.2142   -0.8442 C   0  0  0  0  0  0  0  0  0  0  0  0
   -3.2278    1.2864   -0.7281 H   0  0  0  0  0  0  0  0  0  0  0  0
   -2.0299   -0.4307   -0.1965 N   0  0  0  0  0  0  0  0  0  0  0  0
   -1.1879    0.0337    0.1339 H   0  0  0  0  0  0  0  0  0  0  0  0
   -2.3519   -1.7278   -0.0605 C   0  0  0  0  0  0  0  0  0  0  0  0
   -1.6929   -2.5437    0.2006 H   0  0  0  0  0  0  0  0  0  0  0  0
  1  2  3  0  0  0  0
  3 10  2  0  0  0  0
  4  6  2  0  0  0  0
  4  3  1  0  0  0  0
  5  4  1  0  0  0  0
  6  7  1  0  0  0  0
  6  8  1  0  0  0  0
  8 10  1  0  0  0  0
  8  9  1  0  0  0  0
 10 11  1  0  0  0  0
M  RAD  1   3   2
M  END
