Coordinates from ORCA-job Pyrrole-3-N2+-scan-d09-169-n800
 OpenBabel09191813553D

 11 10  0  0  0  0  0  0  0  0999 V2000
    4.3859    4.3723    1.0397 N   0  0  0  0  0  0  0  0  0  0  0  0
    5.2680    5.0195    1.1978 N   0  0  0  0  0  0  0  0  0  0  0  0
   -2.7530   -1.0222   -0.1760 C   0  0  0  0  0  0  0  0  0  0  0  0
   -3.2058   -0.0367   -0.9976 C   0  0  0  0  0  0  0  0  0  0  0  0
   -4.1959    0.2467   -1.3274 H   0  0  0  0  0  0  0  0  0  0  0  0
   -2.1667    0.8639   -0.6672 C   0  0  0  0  0  0  0  0  0  0  0  0
   -2.3100    1.9371   -0.5707 H   0  0  0  0  0  0  0  0  0  0  0  0
   -1.0853    0.2425   -0.0285 N   0  0  0  0  0  0  0  0  0  0  0  0
   -0.2408    0.7214    0.2740 H   0  0  0  0  0  0  0  0  0  0  0  0
   -1.3925   -1.0542    0.1413 C   0  0  0  0  0  0  0  0  0  0  0  0
   -0.7205   -1.8584    0.4057 H   0  0  0  0  0  0  0  0  0  0  0  0
  1  2  3  0  0  0  0
  3 10  2  0  0  0  0
  4  6  2  0  0  0  0
  4  3  1  0  0  0  0
  5  4  1  0  0  0  0
  6  7  1  0  0  0  0
  6  8  1  0  0  0  0
  8 10  1  0  0  0  0
  8  9  1  0  0  0  0
 10 11  1  0  0  0  0
M  RAD  1   3   2
M  END
