Coordinates from ORCA-job Pyrrole-3-N2+-scan-d09-169-n800
 OpenBabel09191813553D

 11 10  0  0  0  0  0  0  0  0999 V2000
    6.7188    6.0184    1.5118 N   0  0  0  0  0  0  0  0  0  0  0  0
    7.6080    6.6551    1.6725 N   0  0  0  0  0  0  0  0  0  0  0  0
   -3.2821   -1.3833   -0.3098 C   0  0  0  0  0  0  0  0  0  0  0  0
   -3.7142   -0.3811   -1.1225 C   0  0  0  0  0  0  0  0  0  0  0  0
   -4.6968   -0.0848   -1.4633 H   0  0  0  0  0  0  0  0  0  0  0  0
   -2.6741    0.5060   -0.7609 C   0  0  0  0  0  0  0  0  0  0  0  0
   -2.8111    1.5785   -0.6493 H   0  0  0  0  0  0  0  0  0  0  0  0
   -1.6078   -0.1342   -0.1151 N   0  0  0  0  0  0  0  0  0  0  0  0
   -0.7646    0.3330    0.2086 H   0  0  0  0  0  0  0  0  0  0  0  0
   -1.9272   -1.4310    0.0286 C   0  0  0  0  0  0  0  0  0  0  0  0
   -1.2656   -2.2446    0.2904 H   0  0  0  0  0  0  0  0  0  0  0  0
  1  2  3  0  0  0  0
  3 10  2  0  0  0  0
  4  6  2  0  0  0  0
  4  3  1  0  0  0  0
  5  4  1  0  0  0  0
  6  7  1  0  0  0  0
  6  8  1  0  0  0  0
  8 10  1  0  0  0  0
  8  9  1  0  0  0  0
 10 11  1  0  0  0  0
M  RAD  1   3   2
M  END
