Coordinates from ORCA-job Pyrrole-3-N2+-scan-d09-169-n800
 OpenBabel09191813553D

 11 10  0  0  0  0  0  0  0  0999 V2000
    9.5646    8.0301    2.1181 N   0  0  0  0  0  0  0  0  0  0  0  0
   10.4819    8.6364    2.2317 N   0  0  0  0  0  0  0  0  0  0  0  0
   -3.9234   -1.8236   -0.4485 C   0  0  0  0  0  0  0  0  0  0  0  0
   -4.3460   -0.8153   -1.2586 C   0  0  0  0  0  0  0  0  0  0  0  0
   -5.3251   -0.5123   -1.6033 H   0  0  0  0  0  0  0  0  0  0  0  0
   -3.3034    0.0647   -0.8869 C   0  0  0  0  0  0  0  0  0  0  0  0
   -3.4356    1.1373   -0.7707 H   0  0  0  0  0  0  0  0  0  0  0  0
   -2.2439   -0.5842   -0.2384 N   0  0  0  0  0  0  0  0  0  0  0  0
   -1.4002   -0.1229    0.0923 H   0  0  0  0  0  0  0  0  0  0  0  0
   -2.5707   -1.8800   -0.1030 C   0  0  0  0  0  0  0  0  0  0  0  0
   -1.9147   -2.6983    0.1585 H   0  0  0  0  0  0  0  0  0  0  0  0
  1  2  3  0  0  0  0
  3 10  2  0  0  0  0
  4  6  2  0  0  0  0
  4  3  1  0  0  0  0
  5  4  1  0  0  0  0
  6  7  1  0  0  0  0
  6  8  1  0  0  0  0
  8 10  1  0  0  0  0
  8  9  1  0  0  0  0
 10 11  1  0  0  0  0
M  RAD  1   3   2
M  END
