Coordinates from ORCA-job Pyrrole-3-N2+-scan-d09-169-n800
 OpenBabel09191813553D

 11 10  0  0  0  0  0  0  0  0999 V2000
    2.5402    2.2623    0.7214 N   0  0  0  0  0  0  0  0  0  0  0  0
    3.5746    2.5975    0.9158 N   0  0  0  0  0  0  0  0  0  0  0  0
   -0.6924   -0.3467   -0.0446 C   0  0  0  0  0  0  0  0  0  0  0  0
   -1.7383   -0.7367   -0.8242 C   0  0  0  0  0  0  0  0  0  0  0  0
   -2.1508   -1.7063   -1.0664 H   0  0  0  0  0  0  0  0  0  0  0  0
   -2.4937    0.4338   -0.5841 C   0  0  0  0  0  0  0  0  0  0  0  0
   -3.5752    0.4404   -0.4762 H   0  0  0  0  0  0  0  0  0  0  0  0
   -1.7291    1.4751   -0.0408 N   0  0  0  0  0  0  0  0  0  0  0  0
   -2.0890    2.3986    0.1840 H   0  0  0  0  0  0  0  0  0  0  0  0
   -0.4795    1.0199    0.1519 C   0  0  0  0  0  0  0  0  0  0  0  0
    0.4166    1.5941    0.3543 H   0  0  0  0  0  0  0  0  0  0  0  0
  1  2  3  0  0  0  0
  3 10  2  0  0  0  0
  4  6  2  0  0  0  0
  4  3  1  0  0  0  0
  5  4  1  0  0  0  0
  6  7  1  0  0  0  0
  6  8  1  0  0  0  0
  8 10  1  0  0  0  0
  8  9  1  0  0  0  0
 10 11  1  0  0  0  0
M  RAD  1   3   2
M  END
