Coordinates from ORCA-job Pyrrole-3-N2+-scan-d09-169-n800
 OpenBabel09191813553D

 11 10  0  0  0  0  0  0  0  0999 V2000
    4.1374    4.1941    0.9921 N   0  0  0  0  0  0  0  0  0  0  0  0
    5.0183    4.8430    1.1501 N   0  0  0  0  0  0  0  0  0  0  0  0
   -2.6956   -0.9834   -0.1568 C   0  0  0  0  0  0  0  0  0  0  0  0
   -3.1534   -0.0023   -0.9812 C   0  0  0  0  0  0  0  0  0  0  0  0
   -4.1454    0.2781   -1.3076 H   0  0  0  0  0  0  0  0  0  0  0  0
   -2.1144    0.9015   -0.6598 C   0  0  0  0  0  0  0  0  0  0  0  0
   -2.2590    1.9749   -0.5678 H   0  0  0  0  0  0  0  0  0  0  0  0
   -1.0289    0.2847   -0.0232 N   0  0  0  0  0  0  0  0  0  0  0  0
   -0.1834    0.7662    0.2725 H   0  0  0  0  0  0  0  0  0  0  0  0
   -1.3333   -1.0114    0.1540 C   0  0  0  0  0  0  0  0  0  0  0  0
   -0.6588   -1.8134    0.4190 H   0  0  0  0  0  0  0  0  0  0  0  0
  1  2  3  0  0  0  0
  3 10  2  0  0  0  0
  4  6  2  0  0  0  0
  4  3  1  0  0  0  0
  5  4  1  0  0  0  0
  6  7  1  0  0  0  0
  6  8  1  0  0  0  0
  8 10  1  0  0  0  0
  8  9  1  0  0  0  0
 10 11  1  0  0  0  0
M  RAD  1   3   2
M  END
