Coordinates from ORCA-job Pyrrole-3-N2+-scan-d09-169-n800
 OpenBabel09191813553D

 11 10  0  0  0  0  0  0  0  0999 V2000
    3.2203    3.5459    1.0288 N   0  0  0  0  0  0  0  0  0  0  0  0
    4.0853    4.2028    1.2339 N   0  0  0  0  0  0  0  0  0  0  0  0
   -1.2738   -0.9849   -0.1356 C   0  0  0  0  0  0  0  0  0  0  0  0
   -2.3837   -0.8797   -0.9161 C   0  0  0  0  0  0  0  0  0  0  0  0
   -3.1676   -1.5784   -1.1742 H   0  0  0  0  0  0  0  0  0  0  0  0
   -2.5721    0.4964   -0.6513 C   0  0  0  0  0  0  0  0  0  0  0  0
   -3.5494    0.9583   -0.5372 H   0  0  0  0  0  0  0  0  0  0  0  0
   -1.4402    1.1069   -0.0940 N   0  0  0  0  0  0  0  0  0  0  0  0
   -1.3764    2.0913    0.1522 H   0  0  0  0  0  0  0  0  0  0  0  0
   -0.5039    0.1609    0.0853 C   0  0  0  0  0  0  0  0  0  0  0  0
    0.5449    0.3124    0.2995 H   0  0  0  0  0  0  0  0  0  0  0  0
  1  2  3  0  0  0  0
  3 10  2  0  0  0  0
  4  6  2  0  0  0  0
  4  3  1  0  0  0  0
  5  4  1  0  0  0  0
  6  7  1  0  0  0  0
  6  8  1  0  0  0  0
  8 10  1  0  0  0  0
  8  9  1  0  0  0  0
 10 11  1  0  0  0  0
M  RAD  1   3   2
M  END
