Coordinates from ORCA-job Pyrrole-3-N2+-scan-d09-169-n800
 OpenBabel09191813553D

 11 10  0  0  0  0  0  0  0  0999 V2000
    2.1028    0.9621    0.2222 N   0  0  0  0  0  0  0  0  0  0  0  0
    3.2068    0.9781    0.2544 N   0  0  0  0  0  0  0  0  0  0  0  0
   -0.3280    0.5752    0.2729 C   0  0  0  0  0  0  0  0  0  0  0  0
   -0.9050   -0.2774   -0.6294 C   0  0  0  0  0  0  0  0  0  0  0  0
   -0.6955   -1.2990   -0.9106 H   0  0  0  0  0  0  0  0  0  0  0  0
   -2.1687    0.3347   -0.6146 C   0  0  0  0  0  0  0  0  0  0  0  0
   -3.1099   -0.1763   -0.7873 H   0  0  0  0  0  0  0  0  0  0  0  0
   -2.1455    1.5794    0.0159 N   0  0  0  0  0  0  0  0  0  0  0  0
   -2.9619    2.1665    0.1578 H   0  0  0  0  0  0  0  0  0  0  0  0
   -0.8972    1.8245    0.4714 C   0  0  0  0  0  0  0  0  0  0  0  0
   -0.5145    2.7643    0.8385 H   0  0  0  0  0  0  0  0  0  0  0  0
  1  2  3  0  0  0  0
  3 10  2  0  0  0  0
  4  6  2  0  0  0  0
  4  3  1  0  0  0  0
  5  4  1  0  0  0  0
  6  8  1  0  0  0  0
  7  6  1  0  0  0  0
  8  9  1  0  0  0  0
  8 10  1  0  0  0  0
 10 11  1  0  0  0  0
M  RAD  1   3   2
M  END
