Coordinates from ORCA-job Pyrrole-3-N2+-scan-d09-169-n800
 OpenBabel09191813553D

 11 10  0  0  0  0  0  0  0  0999 V2000
    2.5337    1.1553    0.3111 N   0  0  0  0  0  0  0  0  0  0  0  0
    3.6330    1.2610    0.3496 N   0  0  0  0  0  0  0  0  0  0  0  0
   -0.4765    0.4040    0.2781 C   0  0  0  0  0  0  0  0  0  0  0  0
   -1.0773   -0.3696   -0.6679 C   0  0  0  0  0  0  0  0  0  0  0  0
   -0.9682   -1.4087   -0.9451 H   0  0  0  0  0  0  0  0  0  0  0  0
   -2.2942    0.3471   -0.6431 C   0  0  0  0  0  0  0  0  0  0  0  0
   -3.2700   -0.1139   -0.7684 H   0  0  0  0  0  0  0  0  0  0  0  0
   -2.1822    1.5882   -0.0056 N   0  0  0  0  0  0  0  0  0  0  0  0
   -2.9470    2.2473    0.1114 H   0  0  0  0  0  0  0  0  0  0  0  0
   -0.9252    1.7113    0.4582 C   0  0  0  0  0  0  0  0  0  0  0  0
   -0.4425    2.6099    0.8129 H   0  0  0  0  0  0  0  0  0  0  0  0
  1  2  3  0  0  0  0
  3 10  2  0  0  0  0
  4  6  2  0  0  0  0
  4  3  1  0  0  0  0
  5  4  1  0  0  0  0
  6  8  1  0  0  0  0
  7  6  1  0  0  0  0
  8  9  1  0  0  0  0
  8 10  1  0  0  0  0
 10 11  1  0  0  0  0
M  RAD  1   3   2
M  END
