Coordinates from ORCA-job Pyrrole-3-N2+-scan-d09-169-n800
 OpenBabel09191813553D

 11 10  0  0  0  0  0  0  0  0999 V2000
    3.0827    3.3150    0.9761 N   0  0  0  0  0  0  0  0  0  0  0  0
    3.9575    3.9589    1.1805 N   0  0  0  0  0  0  0  0  0  0  0  0
   -1.1693   -0.8991   -0.1225 C   0  0  0  0  0  0  0  0  0  0  0  0
   -2.2838   -0.8669   -0.9030 C   0  0  0  0  0  0  0  0  0  0  0  0
   -3.0207   -1.6154   -1.1601 H   0  0  0  0  0  0  0  0  0  0  0  0
   -2.5612    0.4943   -0.6396 C   0  0  0  0  0  0  0  0  0  0  0  0
   -3.5663    0.8919   -0.5257 H   0  0  0  0  0  0  0  0  0  0  0  0
   -1.4710    1.1775   -0.0836 N   0  0  0  0  0  0  0  0  0  0  0  0
   -1.4711    2.1643    0.1614 H   0  0  0  0  0  0  0  0  0  0  0  0
   -0.4750    0.2949    0.0965 C   0  0  0  0  0  0  0  0  0  0  0  0
    0.5615    0.5165    0.3110 H   0  0  0  0  0  0  0  0  0  0  0  0
  1  2  3  0  0  0  0
  3 10  2  0  0  0  0
  4  6  2  0  0  0  0
  4  3  1  0  0  0  0
  5  4  1  0  0  0  0
  6  7  1  0  0  0  0
  6  8  1  0  0  0  0
  8 10  1  0  0  0  0
  8  9  1  0  0  0  0
 10 11  1  0  0  0  0
M  RAD  1   3   2
M  END
