Coordinates from ORCA-job Pyrrole-3-N2+-scan-d09-169-n800
 OpenBabel09191813553D

 11 10  0  0  0  0  0  0  0  0999 V2000
    7.1956    6.3513    1.6098 N   0  0  0  0  0  0  0  0  0  0  0  0
    8.0853    6.9873    1.7709 N   0  0  0  0  0  0  0  0  0  0  0  0
   -3.3884   -1.4570   -0.3344 C   0  0  0  0  0  0  0  0  0  0  0  0
   -3.8194   -0.4536   -1.1460 C   0  0  0  0  0  0  0  0  0  0  0  0
   -4.8014   -0.1566   -1.4878 H   0  0  0  0  0  0  0  0  0  0  0  0
   -2.7793    0.4326   -0.7816 C   0  0  0  0  0  0  0  0  0  0  0  0
   -2.9160    1.5050   -0.6687 H   0  0  0  0  0  0  0  0  0  0  0  0
   -1.7141   -0.2088   -0.1353 N   0  0  0  0  0  0  0  0  0  0  0  0
   -0.8716    0.2578    0.1907 H   0  0  0  0  0  0  0  0  0  0  0  0
   -2.0341   -1.5058    0.0061 C   0  0  0  0  0  0  0  0  0  0  0  0
   -1.3732   -2.3200    0.2677 H   0  0  0  0  0  0  0  0  0  0  0  0
  1  2  3  0  0  0  0
  3 10  2  0  0  0  0
  4  6  2  0  0  0  0
  4  3  1  0  0  0  0
  5  4  1  0  0  0  0
  6  7  1  0  0  0  0
  6  8  1  0  0  0  0
  8 10  1  0  0  0  0
  8  9  1  0  0  0  0
 10 11  1  0  0  0  0
M  RAD  1   3   2
M  END
