Coordinates from ORCA-job Pyrrole-3-N2+-scan-d09-169-n800
 OpenBabel09191813553D

 11 10  0  0  0  0  0  0  0  0999 V2000
    2.6096    1.7250    0.5302 N   0  0  0  0  0  0  0  0  0  0  0  0
    3.7035    1.8632    0.6029 N   0  0  0  0  0  0  0  0  0  0  0  0
   -0.5734    0.0367    0.1460 C   0  0  0  0  0  0  0  0  0  0  0  0
   -1.3913   -0.5875   -0.7449 C   0  0  0  0  0  0  0  0  0  0  0  0
   -1.5302   -1.6263   -1.0108 H   0  0  0  0  0  0  0  0  0  0  0  0
   -2.4246    0.3711   -0.6319 C   0  0  0  0  0  0  0  0  0  0  0  0
   -3.4820    0.1211   -0.6575 H   0  0  0  0  0  0  0  0  0  0  0  0
   -2.0020    1.5626   -0.0279 N   0  0  0  0  0  0  0  0  0  0  0  0
   -2.5966    2.3718    0.1300 H   0  0  0  0  0  0  0  0  0  0  0  0
   -0.7162    1.4134    0.3323 C   0  0  0  0  0  0  0  0  0  0  0  0
   -0.0135    2.1809    0.6227 H   0  0  0  0  0  0  0  0  0  0  0  0
  1  2  3  0  0  0  0
  3 10  2  0  0  0  0
  4  6  2  0  0  0  0
  4  3  1  0  0  0  0
  5  4  1  0  0  0  0
  6  8  1  0  0  0  0
  7  6  1  0  0  0  0
  8  9  1  0  0  0  0
  8 10  1  0  0  0  0
 10 11  1  0  0  0  0
M  RAD  1   3   2
M  END
