Coordinates from ORCA-job Pyrrole-3-N2+-scan-d09-169-n800
 OpenBabel09191813553D

 11 10  0  0  0  0  0  0  0  0999 V2000
    5.5427    5.1934    1.2710 N   0  0  0  0  0  0  0  0  0  0  0  0
    6.4294    5.8339    1.4310 N   0  0  0  0  0  0  0  0  0  0  0  0
   -3.0177   -1.2011   -0.2471 C   0  0  0  0  0  0  0  0  0  0  0  0
   -3.4563   -0.2041   -1.0625 C   0  0  0  0  0  0  0  0  0  0  0  0
   -4.4412    0.0885   -1.3997 H   0  0  0  0  0  0  0  0  0  0  0  0
   -2.4158    0.6868   -0.7110 C   0  0  0  0  0  0  0  0  0  0  0  0
   -2.5541    1.7597   -0.6044 H   0  0  0  0  0  0  0  0  0  0  0  0
   -1.3449    0.0522   -0.0676 N   0  0  0  0  0  0  0  0  0  0  0  0
   -0.5012    0.5228    0.2495 H   0  0  0  0  0  0  0  0  0  0  0  0
   -1.6610   -1.2445    0.0846 C   0  0  0  0  0  0  0  0  0  0  0  0
   -0.9965   -2.0555    0.3473 H   0  0  0  0  0  0  0  0  0  0  0  0
  1  2  3  0  0  0  0
  3 10  2  0  0  0  0
  4  6  2  0  0  0  0
  4  3  1  0  0  0  0
  5  4  1  0  0  0  0
  6  7  1  0  0  0  0
  6  8  1  0  0  0  0
  8 10  1  0  0  0  0
  8  9  1  0  0  0  0
 10 11  1  0  0  0  0
M  RAD  1   3   2
M  END
