Coordinates from ORCA-job Pyrrole-3-N2+-scan-d09-169-n800
 OpenBabel09191813553D

 11 10  0  0  0  0  0  0  0  0999 V2000
    4.2029    4.2410    1.0044 N   0  0  0  0  0  0  0  0  0  0  0  0
    5.0841    4.8895    1.1625 N   0  0  0  0  0  0  0  0  0  0  0  0
   -2.7106   -0.9936   -0.1623 C   0  0  0  0  0  0  0  0  0  0  0  0
   -3.1672   -0.0113   -0.9856 C   0  0  0  0  0  0  0  0  0  0  0  0
   -4.1587    0.2699   -1.3131 H   0  0  0  0  0  0  0  0  0  0  0  0
   -2.1281    0.8916   -0.6616 C   0  0  0  0  0  0  0  0  0  0  0  0
   -2.2723    1.9650   -0.5683 H   0  0  0  0  0  0  0  0  0  0  0  0
   -1.0438    0.2736   -0.0244 N   0  0  0  0  0  0  0  0  0  0  0  0
   -0.1989    0.7545    0.2736 H   0  0  0  0  0  0  0  0  0  0  0  0
   -1.3489   -1.0228    0.1506 C   0  0  0  0  0  0  0  0  0  0  0  0
   -0.6751   -1.8254    0.4155 H   0  0  0  0  0  0  0  0  0  0  0  0
  1  2  3  0  0  0  0
  3 10  2  0  0  0  0
  4  6  2  0  0  0  0
  4  3  1  0  0  0  0
  5  4  1  0  0  0  0
  6  7  1  0  0  0  0
  6  8  1  0  0  0  0
  8 10  1  0  0  0  0
  8  9  1  0  0  0  0
 10 11  1  0  0  0  0
M  RAD  1   3   2
M  END
