Coordinates from ORCA-job Pyrrole-3-N2+-scan-d09-169-n800
 OpenBabel09191813553D

 11 11  0  0  0  0  0  0  0  0999 V2000
    1.6369    0.8194    0.1853 N   0  0  0  0  0  0  0  0  0  0  0  0
    2.7373    0.7845    0.2921 N   0  0  0  0  0  0  0  0  0  0  0  0
   -0.0738    0.8226   -0.0033 C   0  0  0  0  0  0  0  0  0  0  0  0
   -0.8058   -0.2407   -0.5531 C   0  0  0  0  0  0  0  0  0  0  0  0
   -0.4779   -1.1935   -0.9366 H   0  0  0  0  0  0  0  0  0  0  0  0
   -2.0915    0.2581   -0.4752 C   0  0  0  0  0  0  0  0  0  0  0  0
   -3.0173   -0.2062   -0.7819 H   0  0  0  0  0  0  0  0  0  0  0  0
   -2.0715    1.5202    0.0827 N   0  0  0  0  0  0  0  0  0  0  0  0
   -2.8948    2.0889    0.2420 H   0  0  0  0  0  0  0  0  0  0  0  0
   -0.8082    1.9158    0.3967 C   0  0  0  0  0  0  0  0  0  0  0  0
   -0.5500    2.8629    0.8425 H   0  0  0  0  0  0  0  0  0  0  0  0
  1  2  1  0  0  0  0
  3  1  1  0  0  0  0
  3 10  2  0  0  0  0
  4  6  2  0  0  0  0
  4  3  1  0  0  0  0
  5  4  1  0  0  0  0
  6  8  1  0  0  0  0
  7  6  1  0  0  0  0
  8  9  1  0  0  0  0
  8 10  1  0  0  0  0
 10 11  1  0  0  0  0
M  RAD  2   1   2   2   3
M  END
