Coordinates from ORCA-job Pyrrole-3-N2+-scan-d09-169-n800
 OpenBabel09191813553D

 11 10  0  0  0  0  0  0  0  0999 V2000
    3.2384    3.5815    1.0361 N   0  0  0  0  0  0  0  0  0  0  0  0
    4.1015    4.2409    1.2412 N   0  0  0  0  0  0  0  0  0  0  0  0
   -1.2907   -0.9983   -0.1375 C   0  0  0  0  0  0  0  0  0  0  0  0
   -2.3993   -0.8805   -0.9181 C   0  0  0  0  0  0  0  0  0  0  0  0
   -3.1908   -1.5704   -1.1764 H   0  0  0  0  0  0  0  0  0  0  0  0
   -2.5724    0.4975   -0.6529 C   0  0  0  0  0  0  0  0  0  0  0  0
   -3.5445    0.9702   -0.5389 H   0  0  0  0  0  0  0  0  0  0  0  0
   -1.4338    1.0952   -0.0953 N   0  0  0  0  0  0  0  0  0  0  0  0
   -1.3591    2.0788    0.1511 H   0  0  0  0  0  0  0  0  0  0  0  0
   -0.5082    0.1388    0.0838 C   0  0  0  0  0  0  0  0  0  0  0  0
    0.5423    0.2783    0.2981 H   0  0  0  0  0  0  0  0  0  0  0  0
  1  2  3  0  0  0  0
  3 10  2  0  0  0  0
  4  6  2  0  0  0  0
  4  3  1  0  0  0  0
  5  4  1  0  0  0  0
  6  7  1  0  0  0  0
  6  8  1  0  0  0  0
  8 10  1  0  0  0  0
  8  9  1  0  0  0  0
 10 11  1  0  0  0  0
M  RAD  1   3   2
M  END
