Coordinates from ORCA-job Pyrrole-3-N2+-scan-d09-169-n800
 OpenBabel09191813553D

 11 10  0  0  0  0  0  0  0  0999 V2000
    5.0286    4.8306    1.1670 N   0  0  0  0  0  0  0  0  0  0  0  0
    5.9136    5.4735    1.3262 N   0  0  0  0  0  0  0  0  0  0  0  0
   -2.9012   -1.1217   -0.2172 C   0  0  0  0  0  0  0  0  0  0  0  0
   -3.3441   -0.1284   -1.0350 C   0  0  0  0  0  0  0  0  0  0  0  0
   -4.3306    0.1614   -1.3698 H   0  0  0  0  0  0  0  0  0  0  0  0
   -2.3041    0.7657   -0.6904 C   0  0  0  0  0  0  0  0  0  0  0  0
   -2.4442    1.8387   -0.5870 H   0  0  0  0  0  0  0  0  0  0  0  0
   -1.2298    0.1352   -0.0484 N   0  0  0  0  0  0  0  0  0  0  0  0
   -0.3855    0.6084    0.2636 H   0  0  0  0  0  0  0  0  0  0  0  0
   -1.5431   -1.1613    0.1095 C   0  0  0  0  0  0  0  0  0  0  0  0
   -0.8762   -1.9701    0.3727 H   0  0  0  0  0  0  0  0  0  0  0  0
  1  2  3  0  0  0  0
  3 10  2  0  0  0  0
  4  6  2  0  0  0  0
  4  3  1  0  0  0  0
  5  4  1  0  0  0  0
  6  7  1  0  0  0  0
  6  8  1  0  0  0  0
  8 10  1  0  0  0  0
  8  9  1  0  0  0  0
 10 11  1  0  0  0  0
M  RAD  1   3   2
M  END
