Coordinates from ORCA-job Pyrrole-3-N2+-scan-d09-169-n800
 OpenBabel09191813553D

 11 10  0  0  0  0  0  0  0  0999 V2000
    5.0812    4.8678    1.1776 N   0  0  0  0  0  0  0  0  0  0  0  0
    5.9664    5.5105    1.3369 N   0  0  0  0  0  0  0  0  0  0  0  0
   -2.9132   -1.1299   -0.2204 C   0  0  0  0  0  0  0  0  0  0  0  0
   -3.3555   -0.1360   -1.0379 C   0  0  0  0  0  0  0  0  0  0  0  0
   -4.3418    0.1541   -1.3730 H   0  0  0  0  0  0  0  0  0  0  0  0
   -2.3155    0.7577   -0.6924 C   0  0  0  0  0  0  0  0  0  0  0  0
   -2.4553    1.8306   -0.5887 H   0  0  0  0  0  0  0  0  0  0  0  0
   -1.2416    0.1266   -0.0502 N   0  0  0  0  0  0  0  0  0  0  0  0
   -0.3973    0.5995    0.2623 H   0  0  0  0  0  0  0  0  0  0  0  0
   -1.5553   -1.1699    0.1069 C   0  0  0  0  0  0  0  0  0  0  0  0
   -0.8887   -1.9790    0.3701 H   0  0  0  0  0  0  0  0  0  0  0  0
  1  2  3  0  0  0  0
  3 10  2  0  0  0  0
  4  6  2  0  0  0  0
  4  3  1  0  0  0  0
  5  4  1  0  0  0  0
  6  7  1  0  0  0  0
  6  8  1  0  0  0  0
  8 10  1  0  0  0  0
  8  9  1  0  0  0  0
 10 11  1  0  0  0  0
M  RAD  1   3   2
M  END
