Coordinates from ORCA-job Pyrrole-3-N2+-scan-d09-169-n800
 OpenBabel09191813553D

 11 10  0  0  0  0  0  0  0  0999 V2000
    2.1712    0.9843    0.2336 N   0  0  0  0  0  0  0  0  0  0  0  0
    3.2750    1.0151    0.2648 N   0  0  0  0  0  0  0  0  0  0  0  0
   -0.3534    0.5502    0.2790 C   0  0  0  0  0  0  0  0  0  0  0  0
   -0.9264   -0.2874   -0.6366 C   0  0  0  0  0  0  0  0  0  0  0  0
   -0.7318   -1.3127   -0.9159 H   0  0  0  0  0  0  0  0  0  0  0  0
   -2.1860    0.3381   -0.6207 C   0  0  0  0  0  0  0  0  0  0  0  0
   -3.1306   -0.1712   -0.7817 H   0  0  0  0  0  0  0  0  0  0  0  0
   -2.1548    1.5824    0.0127 N   0  0  0  0  0  0  0  0  0  0  0  0
   -2.9655    2.1794    0.1473 H   0  0  0  0  0  0  0  0  0  0  0  0
   -0.9062    1.8096    0.4720 C   0  0  0  0  0  0  0  0  0  0  0  0
   -0.5082    2.7443    0.8367 H   0  0  0  0  0  0  0  0  0  0  0  0
  1  2  3  0  0  0  0
  3 10  2  0  0  0  0
  4  6  2  0  0  0  0
  4  3  1  0  0  0  0
  5  4  1  0  0  0  0
  6  8  1  0  0  0  0
  7  6  1  0  0  0  0
  8  9  1  0  0  0  0
  8 10  1  0  0  0  0
 10 11  1  0  0  0  0
M  RAD  1   3   2
M  END
