Coordinates from ORCA-job Pyrrole-3-N2+-scan-d09-169-n800
 OpenBabel09191813553D

 11 10  0  0  0  0  0  0  0  0999 V2000
    8.4003    7.1926    1.8590 N   0  0  0  0  0  0  0  0  0  0  0  0
    9.2917    7.8266    2.0190 N   0  0  0  0  0  0  0  0  0  0  0  0
   -3.6574   -1.6435   -0.3951 C   0  0  0  0  0  0  0  0  0  0  0  0
   -4.0852   -0.6374   -1.2049 C   0  0  0  0  0  0  0  0  0  0  0  0
   -5.0659   -0.3385   -1.5488 H   0  0  0  0  0  0  0  0  0  0  0  0
   -3.0455    0.2469   -0.8347 C   0  0  0  0  0  0  0  0  0  0  0  0
   -3.1817    1.3191   -0.7190 H   0  0  0  0  0  0  0  0  0  0  0  0
   -1.9828   -0.3972   -0.1871 N   0  0  0  0  0  0  0  0  0  0  0  0
   -1.1410    0.0677    0.1428 H   0  0  0  0  0  0  0  0  0  0  0  0
   -2.3043   -1.6944   -0.0506 C   0  0  0  0  0  0  0  0  0  0  0  0
   -1.6447   -2.5099    0.2106 H   0  0  0  0  0  0  0  0  0  0  0  0
  1  2  3  0  0  0  0
  3 10  2  0  0  0  0
  4  6  2  0  0  0  0
  4  3  1  0  0  0  0
  5  4  1  0  0  0  0
  6  7  1  0  0  0  0
  6  8  1  0  0  0  0
  8 10  1  0  0  0  0
  8  9  1  0  0  0  0
 10 11  1  0  0  0  0
M  RAD  1   3   2
M  END
