Coordinates from ORCA-job Pyrrole-3-N2+-scan-d09-169-n800
 OpenBabel09191813553D

 11 10  0  0  0  0  0  0  0  0999 V2000
    4.9628    4.7842    1.1539 N   0  0  0  0  0  0  0  0  0  0  0  0
    5.8478    5.4272    1.3129 N   0  0  0  0  0  0  0  0  0  0  0  0
   -2.8860   -1.1115   -0.2135 C   0  0  0  0  0  0  0  0  0  0  0  0
   -3.3300   -0.1189   -1.0313 C   0  0  0  0  0  0  0  0  0  0  0  0
   -4.3169    0.1703   -1.3657 H   0  0  0  0  0  0  0  0  0  0  0  0
   -2.2899    0.7757   -0.6879 C   0  0  0  0  0  0  0  0  0  0  0  0
   -2.4300    1.8487   -0.5851 H   0  0  0  0  0  0  0  0  0  0  0  0
   -1.2150    0.1461   -0.0462 N   0  0  0  0  0  0  0  0  0  0  0  0
   -0.3709    0.6198    0.2653 H   0  0  0  0  0  0  0  0  0  0  0  0
   -1.5278   -1.1506    0.1127 C   0  0  0  0  0  0  0  0  0  0  0  0
   -0.8605   -1.9590    0.3761 H   0  0  0  0  0  0  0  0  0  0  0  0
  1  2  3  0  0  0  0
  3 10  2  0  0  0  0
  4  6  2  0  0  0  0
  4  3  1  0  0  0  0
  5  4  1  0  0  0  0
  6  7  1  0  0  0  0
  6  8  1  0  0  0  0
  8 10  1  0  0  0  0
  8  9  1  0  0  0  0
 10 11  1  0  0  0  0
M  RAD  1   3   2
M  END
