Coordinates from ORCA-job Pyrrole-3-N2+-scan-d09-169-n800
 OpenBabel09191813553D

 11 10  0  0  0  0  0  0  0  0999 V2000
    4.2419    4.2692    1.0120 N   0  0  0  0  0  0  0  0  0  0  0  0
    5.1235    4.9172    1.1699 N   0  0  0  0  0  0  0  0  0  0  0  0
   -2.7198   -0.9999   -0.1651 C   0  0  0  0  0  0  0  0  0  0  0  0
   -3.1752   -0.0168   -0.9883 C   0  0  0  0  0  0  0  0  0  0  0  0
   -4.1664    0.2649   -1.3163 H   0  0  0  0  0  0  0  0  0  0  0  0
   -2.1364    0.8858   -0.6627 C   0  0  0  0  0  0  0  0  0  0  0  0
   -2.2807    1.9590   -0.5686 H   0  0  0  0  0  0  0  0  0  0  0  0
   -1.0527    0.2669   -0.0251 N   0  0  0  0  0  0  0  0  0  0  0  0
   -0.2077    0.7473    0.2736 H   0  0  0  0  0  0  0  0  0  0  0  0
   -1.3582   -1.0294    0.1486 C   0  0  0  0  0  0  0  0  0  0  0  0
   -0.6848   -1.8323    0.4133 H   0  0  0  0  0  0  0  0  0  0  0  0
  1  2  3  0  0  0  0
  3 10  2  0  0  0  0
  4  6  2  0  0  0  0
  4  3  1  0  0  0  0
  5  4  1  0  0  0  0
  6  7  1  0  0  0  0
  6  8  1  0  0  0  0
  8 10  1  0  0  0  0
  8  9  1  0  0  0  0
 10 11  1  0  0  0  0
M  RAD  1   3   2
M  END
