Coordinates from ORCA-job Pyrrole-3-N2+-scan-d09-169-n800
 OpenBabel09191813553D

 11 10  0  0  0  0  0  0  0  0999 V2000
    5.7276    5.3233    1.3085 N   0  0  0  0  0  0  0  0  0  0  0  0
    6.6146    5.9632    1.4689 N   0  0  0  0  0  0  0  0  0  0  0  0
   -3.0594   -1.2297   -0.2573 C   0  0  0  0  0  0  0  0  0  0  0  0
   -3.4967   -0.2317   -1.0721 C   0  0  0  0  0  0  0  0  0  0  0  0
   -4.4811    0.0618   -1.4101 H   0  0  0  0  0  0  0  0  0  0  0  0
   -2.4561    0.6584   -0.7187 C   0  0  0  0  0  0  0  0  0  0  0  0
   -2.5941    1.7312   -0.6110 H   0  0  0  0  0  0  0  0  0  0  0  0
   -1.3862    0.0226   -0.0748 N   0  0  0  0  0  0  0  0  0  0  0  0
   -0.5427    0.4926    0.2438 H   0  0  0  0  0  0  0  0  0  0  0  0
   -1.7031   -1.2741    0.0757 C   0  0  0  0  0  0  0  0  0  0  0  0
   -1.0392   -2.0856    0.3383 H   0  0  0  0  0  0  0  0  0  0  0  0
  1  2  3  0  0  0  0
  3 10  2  0  0  0  0
  4  6  2  0  0  0  0
  4  3  1  0  0  0  0
  5  4  1  0  0  0  0
  6  7  1  0  0  0  0
  6  8  1  0  0  0  0
  8 10  1  0  0  0  0
  8  9  1  0  0  0  0
 10 11  1  0  0  0  0
M  RAD  1   3   2
M  END
