Coordinates from ORCA-job Pyrrole-3-N2+-scan-d09-169-n800
 OpenBabel09191813553D

 11 10  0  0  0  0  0  0  0  0999 V2000
    4.6215    4.5412    1.0859 N   0  0  0  0  0  0  0  0  0  0  0  0
    5.5049    5.1864    1.2443 N   0  0  0  0  0  0  0  0  0  0  0  0
   -2.8076   -1.0588   -0.1920 C   0  0  0  0  0  0  0  0  0  0  0  0
   -3.2563   -0.0699   -1.0118 C   0  0  0  0  0  0  0  0  0  0  0  0
   -4.2448    0.2161   -1.3438 H   0  0  0  0  0  0  0  0  0  0  0  0
   -2.2168    0.8280   -0.6752 C   0  0  0  0  0  0  0  0  0  0  0  0
   -2.3587    1.9011   -0.5758 H   0  0  0  0  0  0  0  0  0  0  0  0
   -1.1384    0.2027   -0.0351 N   0  0  0  0  0  0  0  0  0  0  0  0
   -0.2942    0.6793    0.2717 H   0  0  0  0  0  0  0  0  0  0  0  0
   -1.4481   -1.0940    0.1295 C   0  0  0  0  0  0  0  0  0  0  0  0
   -0.7782   -1.9001    0.3934 H   0  0  0  0  0  0  0  0  0  0  0  0
  1  2  3  0  0  0  0
  3 10  2  0  0  0  0
  4  6  2  0  0  0  0
  4  3  1  0  0  0  0
  5  4  1  0  0  0  0
  6  7  1  0  0  0  0
  6  8  1  0  0  0  0
  8 10  1  0  0  0  0
  8  9  1  0  0  0  0
 10 11  1  0  0  0  0
M  RAD  1   3   2
M  END
