Coordinates from ORCA-job Pyrrole-3-N2+-scan-d09-169-n800
 OpenBabel09191813553D

 11 10  0  0  0  0  0  0  0  0999 V2000
    2.5937    1.2984    0.3590 N   0  0  0  0  0  0  0  0  0  0  0  0
    3.6924    1.4115    0.3930 N   0  0  0  0  0  0  0  0  0  0  0  0
   -0.5136    0.3069    0.2669 C   0  0  0  0  0  0  0  0  0  0  0  0
   -1.1560   -0.4305   -0.6800 C   0  0  0  0  0  0  0  0  0  0  0  0
   -1.1071   -1.4747   -0.9561 H   0  0  0  0  0  0  0  0  0  0  0  0
   -2.3320    0.3527   -0.6500 C   0  0  0  0  0  0  0  0  0  0  0  0
   -3.3321   -0.0564   -0.7652 H   0  0  0  0  0  0  0  0  0  0  0  0
   -2.1495    1.5875   -0.0152 N   0  0  0  0  0  0  0  0  0  0  0  0
   -2.8757    2.2891    0.1007 H   0  0  0  0  0  0  0  0  0  0  0  0
   -0.8868    1.6392    0.4439 C   0  0  0  0  0  0  0  0  0  0  0  0
   -0.3498    2.5084    0.7942 H   0  0  0  0  0  0  0  0  0  0  0  0
  1  2  3  0  0  0  0
  3 10  2  0  0  0  0
  4  6  2  0  0  0  0
  4  3  1  0  0  0  0
  5  4  1  0  0  0  0
  6  8  1  0  0  0  0
  7  6  1  0  0  0  0
  8  9  1  0  0  0  0
  8 10  1  0  0  0  0
 10 11  1  0  0  0  0
M  RAD  1   3   2
M  END
