Coordinates from ORCA-job Pyrrole-3-N2+-scan-d09-169-n800
 OpenBabel09191813553D

 11 10  0  0  0  0  0  0  0  0999 V2000
    2.6056    1.5525    0.4657 N   0  0  0  0  0  0  0  0  0  0  0  0
    3.7000    1.6920    0.5300 N   0  0  0  0  0  0  0  0  0  0  0  0
   -0.5451    0.1421    0.1875 C   0  0  0  0  0  0  0  0  0  0  0  0
   -1.2997   -0.5307   -0.7236 C   0  0  0  0  0  0  0  0  0  0  0  0
   -1.3663   -1.5754   -0.9940 H   0  0  0  0  0  0  0  0  0  0  0  0
   -2.3930    0.3617   -0.6377 C   0  0  0  0  0  0  0  0  0  0  0  0
   -3.4319    0.0472   -0.6928 H   0  0  0  0  0  0  0  0  0  0  0  0
   -2.0615    1.5754   -0.0220 N   0  0  0  0  0  0  0  0  0  0  0  0
   -2.7100    2.3448    0.1224 H   0  0  0  0  0  0  0  0  0  0  0  0
   -0.7784    1.5060    0.3719 C   0  0  0  0  0  0  0  0  0  0  0  0
   -0.1364    2.3165    0.6839 H   0  0  0  0  0  0  0  0  0  0  0  0
  1  2  3  0  0  0  0
  3 10  2  0  0  0  0
  4  6  2  0  0  0  0
  4  3  1  0  0  0  0
  5  4  1  0  0  0  0
  6  8  1  0  0  0  0
  7  6  1  0  0  0  0
  8  9  1  0  0  0  0
  8 10  1  0  0  0  0
 10 11  1  0  0  0  0
M  RAD  1   3   2
M  END
