Coordinates from ORCA-job Pyrrole-3-N2+-scan-d09-169-n800
 OpenBabel09191813553D

 11 10  0  0  0  0  0  0  0  0999 V2000
    2.5275    1.2623    0.3395 N   0  0  0  0  0  0  0  0  0  0  0  0
    3.6283    1.3555    0.3628 N   0  0  0  0  0  0  0  0  0  0  0  0
   -0.4951    0.3329    0.2809 C   0  0  0  0  0  0  0  0  0  0  0  0
   -1.1215   -0.4124   -0.6714 C   0  0  0  0  0  0  0  0  0  0  0  0
   -1.0556   -1.4552   -0.9485 H   0  0  0  0  0  0  0  0  0  0  0  0
   -2.3085    0.3530   -0.6498 C   0  0  0  0  0  0  0  0  0  0  0  0
   -3.3016   -0.0699   -0.7745 H   0  0  0  0  0  0  0  0  0  0  0  0
   -2.1483    1.5896   -0.0120 N   0  0  0  0  0  0  0  0  0  0  0  0
   -2.8846    2.2816    0.0975 H   0  0  0  0  0  0  0  0  0  0  0  0
   -0.8899    1.6591    0.4566 C   0  0  0  0  0  0  0  0  0  0  0  0
   -0.3673    2.5356    0.8103 H   0  0  0  0  0  0  0  0  0  0  0  0
  1  2  3  0  0  0  0
  3 10  2  0  0  0  0
  4  6  2  0  0  0  0
  4  3  1  0  0  0  0
  5  4  1  0  0  0  0
  6  8  1  0  0  0  0
  7  6  1  0  0  0  0
  8  9  1  0  0  0  0
  8 10  1  0  0  0  0
 10 11  1  0  0  0  0
M  RAD  1   3   2
M  END
