Coordinates from ORCA-job Pyrrole-3-N2+-scan-d09-169-n800
 OpenBabel09191813553D

 11 10  0  0  0  0  0  0  0  0999 V2000
    2.2123    0.9985    0.2406 N   0  0  0  0  0  0  0  0  0  0  0  0
    3.3159    1.0381    0.2712 N   0  0  0  0  0  0  0  0  0  0  0  0
   -0.3682    0.5352    0.2821 C   0  0  0  0  0  0  0  0  0  0  0  0
   -0.9401   -0.2941   -0.6402 C   0  0  0  0  0  0  0  0  0  0  0  0
   -0.7541   -1.3213   -0.9188 H   0  0  0  0  0  0  0  0  0  0  0  0
   -2.1967    0.3398   -0.6240 C   0  0  0  0  0  0  0  0  0  0  0  0
   -3.1437   -0.1674   -0.7796 H   0  0  0  0  0  0  0  0  0  0  0  0
   -2.1600    1.5840    0.0107 N   0  0  0  0  0  0  0  0  0  0  0  0
   -2.9670    2.1870    0.1413 H   0  0  0  0  0  0  0  0  0  0  0  0
   -0.9111    1.8004    0.4723 C   0  0  0  0  0  0  0  0  0  0  0  0
   -0.5041    2.7318    0.8357 H   0  0  0  0  0  0  0  0  0  0  0  0
  1  2  3  0  0  0  0
  3 10  2  0  0  0  0
  4  6  2  0  0  0  0
  4  3  1  0  0  0  0
  5  4  1  0  0  0  0
  6  8  1  0  0  0  0
  7  6  1  0  0  0  0
  8  9  1  0  0  0  0
  8 10  1  0  0  0  0
 10 11  1  0  0  0  0
M  RAD  1   3   2
M  END
