Coordinates from ORCA-job Pyrrole-3-N2+-scan-d09-169-n800
 OpenBabel09191813553D

 11 11  0  0  0  0  0  0  0  0999 V2000
    1.7295    0.8213    0.1961 N   0  0  0  0  0  0  0  0  0  0  0  0
    2.8282    0.7881    0.3032 N   0  0  0  0  0  0  0  0  0  0  0  0
   -0.1203    0.8206   -0.0092 C   0  0  0  0  0  0  0  0  0  0  0  0
   -0.8224   -0.2487   -0.5578 C   0  0  0  0  0  0  0  0  0  0  0  0
   -0.4986   -1.2024   -0.9419 H   0  0  0  0  0  0  0  0  0  0  0  0
   -2.1102    0.2619   -0.4761 C   0  0  0  0  0  0  0  0  0  0  0  0
   -3.0333   -0.2073   -0.7853 H   0  0  0  0  0  0  0  0  0  0  0  0
   -2.0923    1.5211    0.0810 N   0  0  0  0  0  0  0  0  0  0  0  0
   -2.9155    2.0900    0.2405 H   0  0  0  0  0  0  0  0  0  0  0  0
   -0.8234    1.9215    0.3977 C   0  0  0  0  0  0  0  0  0  0  0  0
   -0.5585    2.8660    0.8431 H   0  0  0  0  0  0  0  0  0  0  0  0
  1  2  1  0  0  0  0
  3  1  1  0  0  0  0
  3 10  2  0  0  0  0
  4  6  2  0  0  0  0
  4  3  1  0  0  0  0
  5  4  1  0  0  0  0
  6  8  1  0  0  0  0
  7  6  1  0  0  0  0
  8  9  1  0  0  0  0
  8 10  1  0  0  0  0
 10 11  1  0  0  0  0
M  RAD  2   1   2   2   3
M  END
