Coordinates from ORCA-job Pyrrole-3-N2+-scan-d09-169-n800
 OpenBabel09191813553D

 11 10  0  0  0  0  0  0  0  0999 V2000
    3.0672    3.2927    0.9705 N   0  0  0  0  0  0  0  0  0  0  0  0
    3.9431    3.9351    1.1748 N   0  0  0  0  0  0  0  0  0  0  0  0
   -1.1595   -0.8909   -0.1211 C   0  0  0  0  0  0  0  0  0  0  0  0
   -2.2742   -0.8650   -0.9016 C   0  0  0  0  0  0  0  0  0  0  0  0
   -3.0068   -1.6177   -1.1586 H   0  0  0  0  0  0  0  0  0  0  0  0
   -2.5593    0.4946   -0.6384 C   0  0  0  0  0  0  0  0  0  0  0  0
   -3.5666    0.8865   -0.5244 H   0  0  0  0  0  0  0  0  0  0  0  0
   -1.4730    1.1840   -0.0825 N   0  0  0  0  0  0  0  0  0  0  0  0
   -1.4787    2.1707    0.1625 H   0  0  0  0  0  0  0  0  0  0  0  0
   -0.4720    0.3071    0.0977 C   0  0  0  0  0  0  0  0  0  0  0  0
    0.5632    0.5349    0.3123 H   0  0  0  0  0  0  0  0  0  0  0  0
  1  2  3  0  0  0  0
  3 10  2  0  0  0  0
  4  6  2  0  0  0  0
  4  3  1  0  0  0  0
  5  4  1  0  0  0  0
  6  7  1  0  0  0  0
  6  8  1  0  0  0  0
  8 10  1  0  0  0  0
  8  9  1  0  0  0  0
 10 11  1  0  0  0  0
M  RAD  1   3   2
M  END
