Coordinates from ORCA-job Pyrrole-3-N2+-scan-d09-169-n800
 OpenBabel09191813553D

 11 10  0  0  0  0  0  0  0  0999 V2000
    9.4991    7.9832    2.1038 N   0  0  0  0  0  0  0  0  0  0  0  0
   10.4148    8.5915    2.2206 N   0  0  0  0  0  0  0  0  0  0  0  0
   -3.9084   -1.8135   -0.4459 C   0  0  0  0  0  0  0  0  0  0  0  0
   -4.3315   -0.8052   -1.2556 C   0  0  0  0  0  0  0  0  0  0  0  0
   -5.3107   -0.5024   -1.6002 H   0  0  0  0  0  0  0  0  0  0  0  0
   -3.2887    0.0748   -0.8840 C   0  0  0  0  0  0  0  0  0  0  0  0
   -3.4209    1.1474   -0.7679 H   0  0  0  0  0  0  0  0  0  0  0  0
   -2.2291   -0.5738   -0.2358 N   0  0  0  0  0  0  0  0  0  0  0  0
   -1.3858   -0.1123    0.0952 H   0  0  0  0  0  0  0  0  0  0  0  0
   -2.5557   -1.8698   -0.1002 C   0  0  0  0  0  0  0  0  0  0  0  0
   -1.8996   -2.6880    0.1612 H   0  0  0  0  0  0  0  0  0  0  0  0
  1  2  3  0  0  0  0
  3 10  2  0  0  0  0
  4  6  2  0  0  0  0
  4  3  1  0  0  0  0
  5  4  1  0  0  0  0
  6  7  1  0  0  0  0
  6  8  1  0  0  0  0
  8 10  1  0  0  0  0
  8  9  1  0  0  0  0
 10 11  1  0  0  0  0
M  RAD  1   3   2
M  END
