Coordinates from ORCA-job Pyrrole-3-N2+-scan-d09-169-n800
 OpenBabel09191813553D

 11 10  0  0  0  0  0  0  0  0999 V2000
    9.5253    8.0020    2.1095 N   0  0  0  0  0  0  0  0  0  0  0  0
   10.4417    8.6095    2.2251 N   0  0  0  0  0  0  0  0  0  0  0  0
   -3.9143   -1.8175   -0.4470 C   0  0  0  0  0  0  0  0  0  0  0  0
   -4.3374   -0.8093   -1.2567 C   0  0  0  0  0  0  0  0  0  0  0  0
   -5.3166   -0.5064   -1.6014 H   0  0  0  0  0  0  0  0  0  0  0  0
   -3.2946    0.0707   -0.8852 C   0  0  0  0  0  0  0  0  0  0  0  0
   -3.4267    1.1434   -0.7691 H   0  0  0  0  0  0  0  0  0  0  0  0
   -2.2350   -0.5779   -0.2369 N   0  0  0  0  0  0  0  0  0  0  0  0
   -1.3916   -0.1165    0.0941 H   0  0  0  0  0  0  0  0  0  0  0  0
   -2.5617   -1.8739   -0.1013 C   0  0  0  0  0  0  0  0  0  0  0  0
   -1.9056   -2.6921    0.1601 H   0  0  0  0  0  0  0  0  0  0  0  0
  1  2  3  0  0  0  0
  3 10  2  0  0  0  0
  4  6  2  0  0  0  0
  4  3  1  0  0  0  0
  5  4  1  0  0  0  0
  6  7  1  0  0  0  0
  6  8  1  0  0  0  0
  8 10  1  0  0  0  0
  8  9  1  0  0  0  0
 10 11  1  0  0  0  0
M  RAD  1   3   2
M  END
