Coordinates from ORCA-job Pyrrole-3-N2+-scan-d09-169-n800
 OpenBabel09191813553D

 11 10  0  0  0  0  0  0  0  0999 V2000
    2.5409    1.2688    0.3428 N   0  0  0  0  0  0  0  0  0  0  0  0
    3.6414    1.3658    0.3684 N   0  0  0  0  0  0  0  0  0  0  0  0
   -0.4992    0.3286    0.2776 C   0  0  0  0  0  0  0  0  0  0  0  0
   -1.1281   -0.4163   -0.6728 C   0  0  0  0  0  0  0  0  0  0  0  0
   -1.0648   -1.4595   -0.9493 H   0  0  0  0  0  0  0  0  0  0  0  0
   -2.3130    0.3529   -0.6498 C   0  0  0  0  0  0  0  0  0  0  0  0
   -3.3077   -0.0666   -0.7734 H   0  0  0  0  0  0  0  0  0  0  0  0
   -2.1486    1.5891   -0.0132 N   0  0  0  0  0  0  0  0  0  0  0  0
   -2.8835    2.2822    0.0986 H   0  0  0  0  0  0  0  0  0  0  0  0
   -0.8891    1.6559    0.4540 C   0  0  0  0  0  0  0  0  0  0  0  0
   -0.3649    2.5310    0.8084 H   0  0  0  0  0  0  0  0  0  0  0  0
  1  2  3  0  0  0  0
  3 10  2  0  0  0  0
  4  6  2  0  0  0  0
  4  3  1  0  0  0  0
  5  4  1  0  0  0  0
  6  8  1  0  0  0  0
  7  6  1  0  0  0  0
  8  9  1  0  0  0  0
  8 10  1  0  0  0  0
 10 11  1  0  0  0  0
M  RAD  1   3   2
M  END
