Coordinates from ORCA-job Pyrrole-3-N2+-scan-d09-169-n800
 OpenBabel09191813553D

 11 10  0  0  0  0  0  0  0  0999 V2000
    6.5865    5.9258    1.4846 N   0  0  0  0  0  0  0  0  0  0  0  0
    7.4754    6.5630    1.6452 N   0  0  0  0  0  0  0  0  0  0  0  0
   -3.2526   -1.3627   -0.3029 C   0  0  0  0  0  0  0  0  0  0  0  0
   -3.6851   -0.3610   -1.1158 C   0  0  0  0  0  0  0  0  0  0  0  0
   -4.6678   -0.0649   -1.4563 H   0  0  0  0  0  0  0  0  0  0  0  0
   -2.6448    0.5263   -0.7551 C   0  0  0  0  0  0  0  0  0  0  0  0
   -2.7819    1.5989   -0.6440 H   0  0  0  0  0  0  0  0  0  0  0  0
   -1.5782   -0.1135   -0.1096 N   0  0  0  0  0  0  0  0  0  0  0  0
   -0.7349    0.3539    0.2135 H   0  0  0  0  0  0  0  0  0  0  0  0
   -1.8975   -1.4102    0.0348 C   0  0  0  0  0  0  0  0  0  0  0  0
   -1.2357   -2.2236    0.2968 H   0  0  0  0  0  0  0  0  0  0  0  0
  1  2  3  0  0  0  0
  3 10  2  0  0  0  0
  4  6  2  0  0  0  0
  4  3  1  0  0  0  0
  5  4  1  0  0  0  0
  6  7  1  0  0  0  0
  6  8  1  0  0  0  0
  8 10  1  0  0  0  0
  8  9  1  0  0  0  0
 10 11  1  0  0  0  0
M  RAD  1   3   2
M  END
