Coordinates from ORCA-job Pyrrole-3-N2+-scan-d09-169-n800
 OpenBabel09191813553D

 11 10  0  0  0  0  0  0  0  0999 V2000
    8.5063    7.2665    1.8809 N   0  0  0  0  0  0  0  0  0  0  0  0
    9.3977    7.9004    2.0409 N   0  0  0  0  0  0  0  0  0  0  0  0
   -3.6811   -1.6599   -0.4003 C   0  0  0  0  0  0  0  0  0  0  0  0
   -4.1086   -0.6535   -1.2100 C   0  0  0  0  0  0  0  0  0  0  0  0
   -5.0892   -0.3545   -1.5541 H   0  0  0  0  0  0  0  0  0  0  0  0
   -3.0689    0.2306   -0.8394 C   0  0  0  0  0  0  0  0  0  0  0  0
   -3.2051    1.3028   -0.7235 H   0  0  0  0  0  0  0  0  0  0  0  0
   -2.0064   -0.4138   -0.1917 N   0  0  0  0  0  0  0  0  0  0  0  0
   -1.1646    0.0510    0.1385 H   0  0  0  0  0  0  0  0  0  0  0  0
   -2.3280   -1.7110   -0.0556 C   0  0  0  0  0  0  0  0  0  0  0  0
   -1.6686   -2.5266    0.2055 H   0  0  0  0  0  0  0  0  0  0  0  0
  1  2  3  0  0  0  0
  3 10  2  0  0  0  0
  4  6  2  0  0  0  0
  4  3  1  0  0  0  0
  5  4  1  0  0  0  0
  6  7  1  0  0  0  0
  6  8  1  0  0  0  0
  8 10  1  0  0  0  0
  8  9  1  0  0  0  0
 10 11  1  0  0  0  0
M  RAD  1   3   2
M  END
