Coordinates from ORCA-job Pyrrole-3-N2+-scan-d09-169-n800
 OpenBabel09191813553D

 11 11  0  0  0  0  0  0  0  0999 V2000
    1.2349    0.8105    0.1367 N   0  0  0  0  0  0  0  0  0  0  0  0
    2.3640    0.7704    0.2441 N   0  0  0  0  0  0  0  0  0  0  0  0
    0.1207    0.8319    0.0226 C   0  0  0  0  0  0  0  0  0  0  0  0
   -0.7390   -0.2218   -0.5371 C   0  0  0  0  0  0  0  0  0  0  0  0
   -0.3891   -1.1711   -0.9166 H   0  0  0  0  0  0  0  0  0  0  0  0
   -2.0106    0.2437   -0.4727 C   0  0  0  0  0  0  0  0  0  0  0  0
   -2.9420   -0.2111   -0.7762 H   0  0  0  0  0  0  0  0  0  0  0  0
   -1.9862    1.5226    0.0932 N   0  0  0  0  0  0  0  0  0  0  0  0
   -2.8107    2.0930    0.2531 H   0  0  0  0  0  0  0  0  0  0  0  0
   -0.7528    1.9052    0.3983 C   0  0  0  0  0  0  0  0  0  0  0  0
   -0.5059    2.8588    0.8456 H   0  0  0  0  0  0  0  0  0  0  0  0
  1  2  1  0  0  0  0
  3  1  1  0  0  0  0
  3 10  2  0  0  0  0
  4  6  2  0  0  0  0
  4  3  1  0  0  0  0
  5  4  1  0  0  0  0
  6  8  1  0  0  0  0
  7  6  1  0  0  0  0
  8  9  1  0  0  0  0
  8 10  1  0  0  0  0
 10 11  1  0  0  0  0
M  RAD  2   1   2   2   3
M  END
