Coordinates from ORCA-job Pyrrole-3-N2+-scan-d09-169-n800
 OpenBabel09191813553D

 11 10  0  0  0  0  0  0  0  0999 V2000
    8.4400    7.2202    1.8671 N   0  0  0  0  0  0  0  0  0  0  0  0
    9.3313    7.8542    2.0272 N   0  0  0  0  0  0  0  0  0  0  0  0
   -3.6665   -1.6497   -0.3969 C   0  0  0  0  0  0  0  0  0  0  0  0
   -4.0938   -0.6434   -1.2069 C   0  0  0  0  0  0  0  0  0  0  0  0
   -5.0744   -0.3444   -1.5509 H   0  0  0  0  0  0  0  0  0  0  0  0
   -3.0543    0.2409   -0.8364 C   0  0  0  0  0  0  0  0  0  0  0  0
   -3.1907    1.3130   -0.7205 H   0  0  0  0  0  0  0  0  0  0  0  0
   -1.9917   -0.4035   -0.1887 N   0  0  0  0  0  0  0  0  0  0  0  0
   -1.1496    0.0613    0.1411 H   0  0  0  0  0  0  0  0  0  0  0  0
   -2.3132   -1.7005   -0.0525 C   0  0  0  0  0  0  0  0  0  0  0  0
   -1.6537   -2.5161    0.2086 H   0  0  0  0  0  0  0  0  0  0  0  0
  1  2  3  0  0  0  0
  3 10  2  0  0  0  0
  4  6  2  0  0  0  0
  4  3  1  0  0  0  0
  5  4  1  0  0  0  0
  6  7  1  0  0  0  0
  6  8  1  0  0  0  0
  8 10  1  0  0  0  0
  8  9  1  0  0  0  0
 10 11  1  0  0  0  0
M  RAD  1   3   2
M  END
