Coordinates from ORCA-job Pyrrole-3-N2+-scan-d09-169-n800
 OpenBabel09191813553D

 11 10  0  0  0  0  0  0  0  0999 V2000
    2.9674    3.1614    0.9362 N   0  0  0  0  0  0  0  0  0  0  0  0
    3.8486    3.7969    1.1393 N   0  0  0  0  0  0  0  0  0  0  0  0
   -1.1034   -0.8436   -0.1126 C   0  0  0  0  0  0  0  0  0  0  0  0
   -2.2183   -0.8522   -0.8932 C   0  0  0  0  0  0  0  0  0  0  0  0
   -2.9274   -1.6272   -1.1498 H   0  0  0  0  0  0  0  0  0  0  0  0
   -2.5451    0.4980   -0.6307 C   0  0  0  0  0  0  0  0  0  0  0  0
   -3.5640    0.8590   -0.5170 H   0  0  0  0  0  0  0  0  0  0  0  0
   -1.4805    1.2206   -0.0752 N   0  0  0  0  0  0  0  0  0  0  0  0
   -1.5161    2.2069    0.1691 H   0  0  0  0  0  0  0  0  0  0  0  0
   -0.4526    0.3753    0.1052 C   0  0  0  0  0  0  0  0  0  0  0  0
    0.5748    0.6367    0.3199 H   0  0  0  0  0  0  0  0  0  0  0  0
  1  2  3  0  0  0  0
  3 10  2  0  0  0  0
  4  6  2  0  0  0  0
  4  3  1  0  0  0  0
  5  4  1  0  0  0  0
  6  7  1  0  0  0  0
  6  8  1  0  0  0  0
  8 10  1  0  0  0  0
  8  9  1  0  0  0  0
 10 11  1  0  0  0  0
M  RAD  1   3   2
M  END
