Coordinates from ORCA-job Pyrrole-3-N2+-scan-d09-169-n800
 OpenBabel09191813553D

 11 10  0  0  0  0  0  0  0  0999 V2000
    5.7538    5.3420    1.3140 N   0  0  0  0  0  0  0  0  0  0  0  0
    6.6411    5.9816    1.4742 N   0  0  0  0  0  0  0  0  0  0  0  0
   -3.0654   -1.2338   -0.2587 C   0  0  0  0  0  0  0  0  0  0  0  0
   -3.5025   -0.2356   -1.0735 C   0  0  0  0  0  0  0  0  0  0  0  0
   -4.4868    0.0580   -1.4115 H   0  0  0  0  0  0  0  0  0  0  0  0
   -2.4619    0.6544   -0.7198 C   0  0  0  0  0  0  0  0  0  0  0  0
   -2.5998    1.7272   -0.6120 H   0  0  0  0  0  0  0  0  0  0  0  0
   -1.3921    0.0184   -0.0758 N   0  0  0  0  0  0  0  0  0  0  0  0
   -0.5485    0.4882    0.2428 H   0  0  0  0  0  0  0  0  0  0  0  0
   -1.7092   -1.2783    0.0745 C   0  0  0  0  0  0  0  0  0  0  0  0
   -1.0454   -2.0900    0.3370 H   0  0  0  0  0  0  0  0  0  0  0  0
  1  2  3  0  0  0  0
  3 10  2  0  0  0  0
  4  6  2  0  0  0  0
  4  3  1  0  0  0  0
  5  4  1  0  0  0  0
  6  7  1  0  0  0  0
  6  8  1  0  0  0  0
  8 10  1  0  0  0  0
  8  9  1  0  0  0  0
 10 11  1  0  0  0  0
M  RAD  1   3   2
M  END
