Coordinates from ORCA-job Pyrrole-3-N2+-scan-d09-169-n800
 OpenBabel09191813553D

 11 10  0  0  0  0  0  0  0  0999 V2000
    2.8707    3.0418    0.9037 N   0  0  0  0  0  0  0  0  0  0  0  0
    3.7528    3.6762    1.1055 N   0  0  0  0  0  0  0  0  0  0  0  0
   -1.0548   -0.8022   -0.1046 C   0  0  0  0  0  0  0  0  0  0  0  0
   -2.1691   -0.8386   -0.8852 C   0  0  0  0  0  0  0  0  0  0  0  0
   -2.8589   -1.6309   -1.1414 H   0  0  0  0  0  0  0  0  0  0  0  0
   -2.5290    0.5033   -0.6234 C   0  0  0  0  0  0  0  0  0  0  0  0
   -3.5565    0.8392   -0.5098 H   0  0  0  0  0  0  0  0  0  0  0  0
   -1.4825    1.2520   -0.0683 N   0  0  0  0  0  0  0  0  0  0  0  0
   -1.5423    2.2373    0.1754 H   0  0  0  0  0  0  0  0  0  0  0  0
   -0.4338    0.4327    0.1124 C   0  0  0  0  0  0  0  0  0  0  0  0
    0.5867    0.7212    0.3270 H   0  0  0  0  0  0  0  0  0  0  0  0
  1  2  3  0  0  0  0
  3 10  2  0  0  0  0
  4  6  2  0  0  0  0
  4  3  1  0  0  0  0
  5  4  1  0  0  0  0
  6  7  1  0  0  0  0
  6  8  1  0  0  0  0
  8 10  1  0  0  0  0
  8  9  1  0  0  0  0
 10 11  1  0  0  0  0
M  RAD  1   3   2
M  END
