Coordinates from ORCA-job Pyrrole-3-N2+-scan-d09-169-n800
 OpenBabel09191813553D

 11 10  0  0  0  0  0  0  0  0999 V2000
    1.9789    0.8259    0.2260 N   0  0  0  0  0  0  0  0  0  0  0  0
    3.0770    0.8017    0.3356 N   0  0  0  0  0  0  0  0  0  0  0  0
   -0.2289    0.8124   -0.0218 C   0  0  0  0  0  0  0  0  0  0  0  0
   -0.8711   -0.2666   -0.5720 C   0  0  0  0  0  0  0  0  0  0  0  0
   -0.5599   -1.2235   -0.9577 H   0  0  0  0  0  0  0  0  0  0  0  0
   -2.1623    0.2698   -0.4798 C   0  0  0  0  0  0  0  0  0  0  0  0
   -3.0789   -0.2125   -0.7923 H   0  0  0  0  0  0  0  0  0  0  0  0
   -2.1472    1.5262    0.0765 N   0  0  0  0  0  0  0  0  0  0  0  0
   -2.9703    2.0966    0.2373 H   0  0  0  0  0  0  0  0  0  0  0  0
   -0.8688    1.9315    0.3977 C   0  0  0  0  0  0  0  0  0  0  0  0
   -0.5851    2.8705    0.8416 H   0  0  0  0  0  0  0  0  0  0  0  0
  1  2  3  0  0  0  0
  3 10  2  0  0  0  0
  4  6  2  0  0  0  0
  4  3  1  0  0  0  0
  5  4  1  0  0  0  0
  6  8  1  0  0  0  0
  7  6  1  0  0  0  0
  8  9  1  0  0  0  0
  8 10  1  0  0  0  0
 10 11  1  0  0  0  0
M  RAD  1   3   2
M  END
