Coordinates from ORCA-job Pyrrole-3-N2+-scan-d09-169-n800
 OpenBabel09191813553D

 11 10  0  0  0  0  0  0  0  0999 V2000
    2.1575    0.9798    0.2313 N   0  0  0  0  0  0  0  0  0  0  0  0
    3.2614    1.0075    0.2626 N   0  0  0  0  0  0  0  0  0  0  0  0
   -0.3484    0.5552    0.2780 C   0  0  0  0  0  0  0  0  0  0  0  0
   -0.9220   -0.2853   -0.6353 C   0  0  0  0  0  0  0  0  0  0  0  0
   -0.7244   -1.3099   -0.9148 H   0  0  0  0  0  0  0  0  0  0  0  0
   -2.1824    0.3375   -0.6196 C   0  0  0  0  0  0  0  0  0  0  0  0
   -3.1263   -0.1724   -0.7827 H   0  0  0  0  0  0  0  0  0  0  0  0
   -2.1530    1.5819    0.0133 N   0  0  0  0  0  0  0  0  0  0  0  0
   -2.9649    2.1768    0.1493 H   0  0  0  0  0  0  0  0  0  0  0  0
   -0.9045    1.8127    0.4719 C   0  0  0  0  0  0  0  0  0  0  0  0
   -0.5095    2.7483    0.8371 H   0  0  0  0  0  0  0  0  0  0  0  0
  1  2  3  0  0  0  0
  3 10  2  0  0  0  0
  4  6  2  0  0  0  0
  4  3  1  0  0  0  0
  5  4  1  0  0  0  0
  6  8  1  0  0  0  0
  7  6  1  0  0  0  0
  8  9  1  0  0  0  0
  8 10  1  0  0  0  0
 10 11  1  0  0  0  0
M  RAD  1   3   2
M  END
