Coordinates from ORCA-job Pyrrole-3-N2+-scan-d09-169-n800
 OpenBabel09191813553D

 11 10  0  0  0  0  0  0  0  0999 V2000
    5.4502    5.1284    1.2522 N   0  0  0  0  0  0  0  0  0  0  0  0
    6.3366    5.7692    1.4121 N   0  0  0  0  0  0  0  0  0  0  0  0
   -2.9970   -1.1869   -0.2417 C   0  0  0  0  0  0  0  0  0  0  0  0
   -3.4359   -0.1904   -1.0577 C   0  0  0  0  0  0  0  0  0  0  0  0
   -4.4210    0.1019   -1.3946 H   0  0  0  0  0  0  0  0  0  0  0  0
   -2.3956    0.7011   -0.7072 C   0  0  0  0  0  0  0  0  0  0  0  0
   -2.5344    1.7739   -0.6010 H   0  0  0  0  0  0  0  0  0  0  0  0
   -1.3242    0.0669   -0.0639 N   0  0  0  0  0  0  0  0  0  0  0  0
   -0.4802    0.5378    0.2521 H   0  0  0  0  0  0  0  0  0  0  0  0
   -1.6400   -1.2296    0.0890 C   0  0  0  0  0  0  0  0  0  0  0  0
   -0.9751   -2.0402    0.3518 H   0  0  0  0  0  0  0  0  0  0  0  0
  1  2  3  0  0  0  0
  3 10  2  0  0  0  0
  4  6  2  0  0  0  0
  4  3  1  0  0  0  0
  5  4  1  0  0  0  0
  6  7  1  0  0  0  0
  6  8  1  0  0  0  0
  8 10  1  0  0  0  0
  8  9  1  0  0  0  0
 10 11  1  0  0  0  0
M  RAD  1   3   2
M  END
