Coordinates from ORCA-job Pyrrole-3-N2+-scan-d09-169-n800
 OpenBabel09191813553D

 11 10  0  0  0  0  0  0  0  0999 V2000
    7.2085    6.3608    1.6127 N   0  0  0  0  0  0  0  0  0  0  0  0
    8.0986    6.9964    1.7734 N   0  0  0  0  0  0  0  0  0  0  0  0
   -3.3914   -1.4591   -0.3350 C   0  0  0  0  0  0  0  0  0  0  0  0
   -3.8223   -0.4556   -1.1466 C   0  0  0  0  0  0  0  0  0  0  0  0
   -4.8042   -0.1584   -1.4884 H   0  0  0  0  0  0  0  0  0  0  0  0
   -2.7821    0.4305   -0.7822 C   0  0  0  0  0  0  0  0  0  0  0  0
   -2.9188    1.5029   -0.6693 H   0  0  0  0  0  0  0  0  0  0  0  0
   -1.7170   -0.2109   -0.1359 N   0  0  0  0  0  0  0  0  0  0  0  0
   -0.8745    0.2555    0.1901 H   0  0  0  0  0  0  0  0  0  0  0  0
   -2.0372   -1.5079    0.0054 C   0  0  0  0  0  0  0  0  0  0  0  0
   -1.3762   -2.3222    0.2671 H   0  0  0  0  0  0  0  0  0  0  0  0
  1  2  3  0  0  0  0
  3 10  2  0  0  0  0
  4  6  2  0  0  0  0
  4  3  1  0  0  0  0
  5  4  1  0  0  0  0
  6  7  1  0  0  0  0
  6  8  1  0  0  0  0
  8 10  1  0  0  0  0
  8  9  1  0  0  0  0
 10 11  1  0  0  0  0
M  RAD  1   3   2
M  END
