Coordinates from ORCA-job Pyrrole-3-N2+-scan-d09-169-n800
 OpenBabel09191813553D

 11 10  0  0  0  0  0  0  0  0999 V2000
    4.3074    4.3162    1.0246 N   0  0  0  0  0  0  0  0  0  0  0  0
    5.1893    4.9637    1.1825 N   0  0  0  0  0  0  0  0  0  0  0  0
   -2.7348   -1.0100   -0.1702 C   0  0  0  0  0  0  0  0  0  0  0  0
   -3.1892   -0.0258   -0.9925 C   0  0  0  0  0  0  0  0  0  0  0  0
   -4.1799    0.2566   -1.3214 H   0  0  0  0  0  0  0  0  0  0  0  0
   -2.1502    0.8758   -0.6647 C   0  0  0  0  0  0  0  0  0  0  0  0
   -2.2939    1.9490   -0.5695 H   0  0  0  0  0  0  0  0  0  0  0  0
   -1.0676    0.2559   -0.0266 N   0  0  0  0  0  0  0  0  0  0  0  0
   -0.2229    0.7356    0.2740 H   0  0  0  0  0  0  0  0  0  0  0  0
   -1.3738   -1.0407    0.1453 C   0  0  0  0  0  0  0  0  0  0  0  0
   -0.7010   -1.8442    0.4099 H   0  0  0  0  0  0  0  0  0  0  0  0
  1  2  3  0  0  0  0
  3 10  2  0  0  0  0
  4  6  2  0  0  0  0
  4  3  1  0  0  0  0
  5  4  1  0  0  0  0
  6  7  1  0  0  0  0
  6  8  1  0  0  0  0
  8 10  1  0  0  0  0
  8  9  1  0  0  0  0
 10 11  1  0  0  0  0
M  RAD  1   3   2
M  END
