Coordinates from ORCA-job Pyrrole-3-N2+-scan-d09-169-n800
 OpenBabel09191813553D

 11 10  0  0  0  0  0  0  0  0999 V2000
    3.4205    3.7886    1.0853 N   0  0  0  0  0  0  0  0  0  0  0  0
    4.2889    4.4407    1.2918 N   0  0  0  0  0  0  0  0  0  0  0  0
   -1.3718   -1.0586   -0.1514 C   0  0  0  0  0  0  0  0  0  0  0  0
   -2.4714   -0.9010   -0.9376 C   0  0  0  0  0  0  0  0  0  0  0  0
   -3.2838   -1.5632   -1.2036 H   0  0  0  0  0  0  0  0  0  0  0  0
   -2.6007    0.4808   -0.6667 C   0  0  0  0  0  0  0  0  0  0  0  0
   -3.5575    0.9842   -0.5550 H   0  0  0  0  0  0  0  0  0  0  0  0
   -1.4463    1.0384   -0.1001 N   0  0  0  0  0  0  0  0  0  0  0  0
   -1.3407    2.0180    0.1509 H   0  0  0  0  0  0  0  0  0  0  0  0
   -0.5538    0.0511    0.0796 C   0  0  0  0  0  0  0  0  0  0  0  0
    0.5001    0.1530    0.2980 H   0  0  0  0  0  0  0  0  0  0  0  0
  1  2  3  0  0  0  0
  3 10  2  0  0  0  0
  4  6  2  0  0  0  0
  4  3  1  0  0  0  0
  5  4  1  0  0  0  0
  6  7  1  0  0  0  0
  6  8  1  0  0  0  0
  8 10  1  0  0  0  0
  8  9  1  0  0  0  0
 10 11  1  0  0  0  0
M  RAD  1   3   2
M  END
