Coordinates from ORCA-job Pyrrole-3-N2+-scan-d09-169-n800
 OpenBabel09191813553D

 11 10  0  0  0  0  0  0  0  0999 V2000
    6.1105    5.5925    1.3869 N   0  0  0  0  0  0  0  0  0  0  0  0
    6.9987    6.2307    1.5474 N   0  0  0  0  0  0  0  0  0  0  0  0
   -3.1456   -1.2890   -0.2780 C   0  0  0  0  0  0  0  0  0  0  0  0
   -3.5807   -0.2891   -1.0918 C   0  0  0  0  0  0  0  0  0  0  0  0
   -4.5643    0.0056   -1.4310 H   0  0  0  0  0  0  0  0  0  0  0  0
   -2.5401    0.5995   -0.7348 C   0  0  0  0  0  0  0  0  0  0  0  0
   -2.6775    1.6722   -0.6254 H   0  0  0  0  0  0  0  0  0  0  0  0
   -1.4719   -0.0383   -0.0901 N   0  0  0  0  0  0  0  0  0  0  0  0
   -0.6285    0.4304    0.2308 H   0  0  0  0  0  0  0  0  0  0  0  0
   -1.7900   -1.3351    0.0574 C   0  0  0  0  0  0  0  0  0  0  0  0
   -1.1272   -2.1476    0.3197 H   0  0  0  0  0  0  0  0  0  0  0  0
  1  2  3  0  0  0  0
  3 10  2  0  0  0  0
  4  6  2  0  0  0  0
  4  3  1  0  0  0  0
  5  4  1  0  0  0  0
  6  7  1  0  0  0  0
  6  8  1  0  0  0  0
  8 10  1  0  0  0  0
  8  9  1  0  0  0  0
 10 11  1  0  0  0  0
M  RAD  1   3   2
M  END
