Coordinates from ORCA-job Pyrrole-3-N2+-scan-d09-169-n800
 OpenBabel09191813553D

 11 10  0  0  0  0  0  0  0  0999 V2000
    3.1626    3.4401    1.0059 N   0  0  0  0  0  0  0  0  0  0  0  0
    4.0318    4.0914    1.2108 N   0  0  0  0  0  0  0  0  0  0  0  0
   -1.2251   -0.9454   -0.1298 C   0  0  0  0  0  0  0  0  0  0  0  0
   -2.3379   -0.8753   -0.9103 C   0  0  0  0  0  0  0  0  0  0  0  0
   -3.0996   -1.5983   -1.1678 H   0  0  0  0  0  0  0  0  0  0  0  0
   -2.5691    0.4944   -0.6462 C   0  0  0  0  0  0  0  0  0  0  0  0
   -3.5603    0.9256   -0.5322 H   0  0  0  0  0  0  0  0  0  0  0  0
   -1.4567    1.1401   -0.0896 N   0  0  0  0  0  0  0  0  0  0  0  0
   -1.4235    2.1262    0.1560 H   0  0  0  0  0  0  0  0  0  0  0  0
   -0.4912    0.2241    0.0901 C   0  0  0  0  0  0  0  0  0  0  0  0
    0.5523    0.4092    0.3043 H   0  0  0  0  0  0  0  0  0  0  0  0
  1  2  3  0  0  0  0
  3 10  2  0  0  0  0
  4  6  2  0  0  0  0
  4  3  1  0  0  0  0
  5  4  1  0  0  0  0
  6  7  1  0  0  0  0
  6  8  1  0  0  0  0
  8 10  1  0  0  0  0
  8  9  1  0  0  0  0
 10 11  1  0  0  0  0
M  RAD  1   3   2
M  END
