Coordinates from ORCA-job Pyrrole-3-N2+-scan-d09-169-n800
 OpenBabel09191813553D

 11 10  0  0  0  0  0  0  0  0999 V2000
    1.9360    0.8251    0.2207 N   0  0  0  0  0  0  0  0  0  0  0  0
    3.0340    0.7988    0.3306 N   0  0  0  0  0  0  0  0  0  0  0  0
   -0.2119    0.8147   -0.0215 C   0  0  0  0  0  0  0  0  0  0  0  0
   -0.8624   -0.2641   -0.5694 C   0  0  0  0  0  0  0  0  0  0  0  0
   -0.5489   -1.2200   -0.9556 H   0  0  0  0  0  0  0  0  0  0  0  0
   -2.1533    0.2681   -0.4779 C   0  0  0  0  0  0  0  0  0  0  0  0
   -3.0707   -0.2119   -0.7907 H   0  0  0  0  0  0  0  0  0  0  0  0
   -2.1379    1.5252    0.0773 N   0  0  0  0  0  0  0  0  0  0  0  0
   -2.9609    2.0956    0.2373 H   0  0  0  0  0  0  0  0  0  0  0  0
   -0.8607    1.9305    0.3978 C   0  0  0  0  0  0  0  0  0  0  0  0
   -0.5801    2.8700    0.8427 H   0  0  0  0  0  0  0  0  0  0  0  0
  1  2  3  0  0  0  0
  3 10  2  0  0  0  0
  4  6  2  0  0  0  0
  4  3  1  0  0  0  0
  5  4  1  0  0  0  0
  6  8  1  0  0  0  0
  7  6  1  0  0  0  0
  8  9  1  0  0  0  0
  8 10  1  0  0  0  0
 10 11  1  0  0  0  0
M  RAD  1   3   2
M  END
