Coordinates from ORCA-job Pyrrole-3-N2+-scan-d09-169-n800
 OpenBabel09191813553D

 11 10  0  0  0  0  0  0  0  0999 V2000
    2.6169    2.7153    0.8158 N   0  0  0  0  0  0  0  0  0  0  0  0
    3.5096    3.3352    1.0153 N   0  0  0  0  0  0  0  0  0  0  0  0
   -0.9210   -0.6798   -0.0830 C   0  0  0  0  0  0  0  0  0  0  0  0
   -2.0304   -0.7991   -0.8626 C   0  0  0  0  0  0  0  0  0  0  0  0
   -2.6607   -1.6402   -1.1164 H   0  0  0  0  0  0  0  0  0  0  0  0
   -2.4869    0.5134   -0.6033 C   0  0  0  0  0  0  0  0  0  0  0  0
   -3.5359    0.7744   -0.4902 H   0  0  0  0  0  0  0  0  0  0  0  0
   -1.4969    1.3366   -0.0501 N   0  0  0  0  0  0  0  0  0  0  0  0
   -1.6279    2.3154    0.1912 H   0  0  0  0  0  0  0  0  0  0  0  0
   -0.3900    0.5971    0.1305 C   0  0  0  0  0  0  0  0  0  0  0  0
    0.6067    0.9637    0.3439 H   0  0  0  0  0  0  0  0  0  0  0  0
  1  2  3  0  0  0  0
  3 10  2  0  0  0  0
  4  6  2  0  0  0  0
  4  3  1  0  0  0  0
  5  4  1  0  0  0  0
  6  7  1  0  0  0  0
  6  8  1  0  0  0  0
  8 10  1  0  0  0  0
  8  9  1  0  0  0  0
 10 11  1  0  0  0  0
M  RAD  1   3   2
M  END
