Coordinates from ORCA-job Pyrrole-3-N2+-scan-d09-169-n800
 OpenBabel09191813553D

 11 10  0  0  0  0  0  0  0  0999 V2000
    4.6870    4.5877    1.0988 N   0  0  0  0  0  0  0  0  0  0  0  0
    5.5706    5.2328    1.2574 N   0  0  0  0  0  0  0  0  0  0  0  0
   -2.8229   -1.0690   -0.1961 C   0  0  0  0  0  0  0  0  0  0  0  0
   -3.2702   -0.0792   -1.0158 C   0  0  0  0  0  0  0  0  0  0  0  0
   -4.2583    0.2076   -1.3483 H   0  0  0  0  0  0  0  0  0  0  0  0
   -2.2308    0.8180   -0.6775 C   0  0  0  0  0  0  0  0  0  0  0  0
   -2.3725    1.8911   -0.5773 H   0  0  0  0  0  0  0  0  0  0  0  0
   -1.1531    0.1917   -0.0369 N   0  0  0  0  0  0  0  0  0  0  0  0
   -0.3087    0.6675    0.2706 H   0  0  0  0  0  0  0  0  0  0  0  0
   -1.4636   -1.1049    0.1262 C   0  0  0  0  0  0  0  0  0  0  0  0
   -0.7942   -1.9115    0.3900 H   0  0  0  0  0  0  0  0  0  0  0  0
  1  2  3  0  0  0  0
  3 10  2  0  0  0  0
  4  6  2  0  0  0  0
  4  3  1  0  0  0  0
  5  4  1  0  0  0  0
  6  7  1  0  0  0  0
  6  8  1  0  0  0  0
  8 10  1  0  0  0  0
  8  9  1  0  0  0  0
 10 11  1  0  0  0  0
M  RAD  1   3   2
M  END
