Coordinates from ORCA-job Pyrrole-3-N2+-scan-d09-169-n800
 OpenBabel09191813553D

 11 10  0  0  0  0  0  0  0  0999 V2000
    4.1766    4.2225    0.9996 N   0  0  0  0  0  0  0  0  0  0  0  0
    5.0579    4.8708    1.1575 N   0  0  0  0  0  0  0  0  0  0  0  0
   -2.7045   -0.9895   -0.1602 C   0  0  0  0  0  0  0  0  0  0  0  0
   -3.1618   -0.0078   -0.9838 C   0  0  0  0  0  0  0  0  0  0  0  0
   -4.1535    0.2730   -1.3109 H   0  0  0  0  0  0  0  0  0  0  0  0
   -2.1226    0.8956   -0.6609 C   0  0  0  0  0  0  0  0  0  0  0  0
   -2.2670    1.9689   -0.5681 H   0  0  0  0  0  0  0  0  0  0  0  0
   -1.0379    0.2781   -0.0240 N   0  0  0  0  0  0  0  0  0  0  0  0
   -0.1928    0.7593    0.2732 H   0  0  0  0  0  0  0  0  0  0  0  0
   -1.3426   -1.0183    0.1519 C   0  0  0  0  0  0  0  0  0  0  0  0
   -0.6685   -1.8205    0.4169 H   0  0  0  0  0  0  0  0  0  0  0  0
  1  2  3  0  0  0  0
  3 10  2  0  0  0  0
  4  6  2  0  0  0  0
  4  3  1  0  0  0  0
  5  4  1  0  0  0  0
  6  7  1  0  0  0  0
  6  8  1  0  0  0  0
  8 10  1  0  0  0  0
  8  9  1  0  0  0  0
 10 11  1  0  0  0  0
M  RAD  1   3   2
M  END
