Coordinates from ORCA-job Pyrrole-3-N2+-scan-d09-169-n800
 OpenBabel09191813553D

 11 10  0  0  0  0  0  0  0  0999 V2000
    3.2443    3.5934    1.0385 N   0  0  0  0  0  0  0  0  0  0  0  0
    4.1066    4.2537    1.2435 N   0  0  0  0  0  0  0  0  0  0  0  0
   -1.2964   -1.0028   -0.1381 C   0  0  0  0  0  0  0  0  0  0  0  0
   -2.4045   -0.8807   -0.9187 C   0  0  0  0  0  0  0  0  0  0  0  0
   -3.1987   -1.5676   -1.1772 H   0  0  0  0  0  0  0  0  0  0  0  0
   -2.5724    0.4979   -0.6534 C   0  0  0  0  0  0  0  0  0  0  0  0
   -3.5427    0.9743   -0.5394 H   0  0  0  0  0  0  0  0  0  0  0  0
   -1.4316    1.0912   -0.0958 N   0  0  0  0  0  0  0  0  0  0  0  0
   -1.3531    2.0745    0.1508 H   0  0  0  0  0  0  0  0  0  0  0  0
   -0.5096    0.1313    0.0834 C   0  0  0  0  0  0  0  0  0  0  0  0
    0.5414    0.2667    0.2977 H   0  0  0  0  0  0  0  0  0  0  0  0
  1  2  3  0  0  0  0
  3 10  2  0  0  0  0
  4  6  2  0  0  0  0
  4  3  1  0  0  0  0
  5  4  1  0  0  0  0
  6  7  1  0  0  0  0
  6  8  1  0  0  0  0
  8 10  1  0  0  0  0
  8  9  1  0  0  0  0
 10 11  1  0  0  0  0
M  RAD  1   3   2
M  END
