Coordinates from ORCA-job Pyrrole-3-N2+-scan-d09-169-n800
 OpenBabel09191813553D

 11 10  0  0  0  0  0  0  0  0999 V2000
    2.6752    2.8044    0.8380 N   0  0  0  0  0  0  0  0  0  0  0  0
    3.5605    3.4352    1.0368 N   0  0  0  0  0  0  0  0  0  0  0  0
   -0.9593   -0.7179   -0.0884 C   0  0  0  0  0  0  0  0  0  0  0  0
   -2.0706   -0.8090   -0.8690 C   0  0  0  0  0  0  0  0  0  0  0  0
   -2.7212   -1.6341   -1.1242 H   0  0  0  0  0  0  0  0  0  0  0  0
   -2.4950    0.5140   -0.6086 C   0  0  0  0  0  0  0  0  0  0  0  0
   -3.5374    0.8003   -0.4958 H   0  0  0  0  0  0  0  0  0  0  0  0
   -1.4857    1.3125   -0.0540 N   0  0  0  0  0  0  0  0  0  0  0  0
   -1.5928    2.2940    0.1883 H   0  0  0  0  0  0  0  0  0  0  0  0
   -0.3977    0.5457    0.1269 C   0  0  0  0  0  0  0  0  0  0  0  0
    0.6073    0.8867    0.3414 H   0  0  0  0  0  0  0  0  0  0  0  0
  1  2  3  0  0  0  0
  3 10  2  0  0  0  0
  4  6  2  0  0  0  0
  4  3  1  0  0  0  0
  5  4  1  0  0  0  0
  6  7  1  0  0  0  0
  6  8  1  0  0  0  0
  8 10  1  0  0  0  0
  8  9  1  0  0  0  0
 10 11  1  0  0  0  0
M  RAD  1   3   2
M  END
