Coordinates from ORCA-job Pyrrole-3-N2+-scan-d09-169-n800
 OpenBabel09191813553D

 11 10  0  0  0  0  0  0  0  0999 V2000
    4.4774    4.4380    1.0576 N   0  0  0  0  0  0  0  0  0  0  0  0
    5.3600    5.0844    1.2157 N   0  0  0  0  0  0  0  0  0  0  0  0
   -2.7744   -1.0365   -0.1822 C   0  0  0  0  0  0  0  0  0  0  0  0
   -3.2252   -0.0495   -1.0033 C   0  0  0  0  0  0  0  0  0  0  0  0
   -4.2146    0.2350   -1.3340 H   0  0  0  0  0  0  0  0  0  0  0  0
   -2.1862    0.8500   -0.6702 C   0  0  0  0  0  0  0  0  0  0  0  0
   -2.3291    1.9231   -0.5724 H   0  0  0  0  0  0  0  0  0  0  0  0
   -1.1060    0.2269   -0.0308 N   0  0  0  0  0  0  0  0  0  0  0  0
   -0.2613    0.7048    0.2731 H   0  0  0  0  0  0  0  0  0  0  0  0
   -1.4141   -1.0696    0.1367 C   0  0  0  0  0  0  0  0  0  0  0  0
   -0.7430   -1.8746    0.4009 H   0  0  0  0  0  0  0  0  0  0  0  0
  1  2  3  0  0  0  0
  3 10  2  0  0  0  0
  4  6  2  0  0  0  0
  4  3  1  0  0  0  0
  5  4  1  0  0  0  0
  6  7  1  0  0  0  0
  6  8  1  0  0  0  0
  8 10  1  0  0  0  0
  8  9  1  0  0  0  0
 10 11  1  0  0  0  0
M  RAD  1   3   2
M  END
