Coordinates from ORCA-job Pyrrole-3-N2+-scan-d09-169-n800
 OpenBabel09191813553D

 11 10  0  0  0  0  0  0  0  0999 V2000
    8.9238    7.5685    1.9752 N   0  0  0  0  0  0  0  0  0  0  0  0
    9.8245    8.1931    2.1192 N   0  0  0  0  0  0  0  0  0  0  0  0
   -3.7772   -1.7243   -0.4197 C   0  0  0  0  0  0  0  0  0  0  0  0
   -4.2024   -0.7169   -1.2293 C   0  0  0  0  0  0  0  0  0  0  0  0
   -5.1823   -0.4156   -1.5734 H   0  0  0  0  0  0  0  0  0  0  0  0
   -3.1608    0.1649   -0.8585 C   0  0  0  0  0  0  0  0  0  0  0  0
   -3.2946    1.2373   -0.7423 H   0  0  0  0  0  0  0  0  0  0  0  0
   -2.0998   -0.4819   -0.2108 N   0  0  0  0  0  0  0  0  0  0  0  0
   -1.2569   -0.0191    0.1196 H   0  0  0  0  0  0  0  0  0  0  0  0
   -2.4242   -1.7784   -0.0749 C   0  0  0  0  0  0  0  0  0  0  0  0
   -1.7666   -2.5956    0.1862 H   0  0  0  0  0  0  0  0  0  0  0  0
  1  2  3  0  0  0  0
  3 10  2  0  0  0  0
  4  6  2  0  0  0  0
  4  3  1  0  0  0  0
  5  4  1  0  0  0  0
  6  7  1  0  0  0  0
  6  8  1  0  0  0  0
  8 10  1  0  0  0  0
  8  9  1  0  0  0  0
 10 11  1  0  0  0  0
M  RAD  1   3   2
M  END
