Coordinates from ORCA-job Pyrrole-3-N2+-scan-d09-169-n800
 OpenBabel09191813553D

 11 10  0  0  0  0  0  0  0  0999 V2000
    6.8780    6.1292    1.5442 N   0  0  0  0  0  0  0  0  0  0  0  0
    7.7672    6.7659    1.7056 N   0  0  0  0  0  0  0  0  0  0  0  0
   -3.3174   -1.4079   -0.3182 C   0  0  0  0  0  0  0  0  0  0  0  0
   -3.7494   -0.4054   -1.1303 C   0  0  0  0  0  0  0  0  0  0  0  0
   -4.7317   -0.1089   -1.4715 H   0  0  0  0  0  0  0  0  0  0  0  0
   -2.7092    0.4815   -0.7678 C   0  0  0  0  0  0  0  0  0  0  0  0
   -2.8461    1.5540   -0.6557 H   0  0  0  0  0  0  0  0  0  0  0  0
   -1.6433   -0.1589   -0.1218 N   0  0  0  0  0  0  0  0  0  0  0  0
   -0.8006    0.3082    0.2030 H   0  0  0  0  0  0  0  0  0  0  0  0
   -1.9628   -1.4559    0.0211 C   0  0  0  0  0  0  0  0  0  0  0  0
   -1.3013   -2.2697    0.2828 H   0  0  0  0  0  0  0  0  0  0  0  0
  1  2  3  0  0  0  0
  3 10  2  0  0  0  0
  4  6  2  0  0  0  0
  4  3  1  0  0  0  0
  5  4  1  0  0  0  0
  6  7  1  0  0  0  0
  6  8  1  0  0  0  0
  8 10  1  0  0  0  0
  8  9  1  0  0  0  0
 10 11  1  0  0  0  0
M  RAD  1   3   2
M  END
