Coordinates from ORCA-job Pyrrole-3-N2+-scan-d09-169-n800
 OpenBabel09191813553D

 11 10  0  0  0  0  0  0  0  0999 V2000
    2.1849    0.9889    0.2359 N   0  0  0  0  0  0  0  0  0  0  0  0
    3.2887    1.0227    0.2669 N   0  0  0  0  0  0  0  0  0  0  0  0
   -0.3584    0.5452    0.2801 C   0  0  0  0  0  0  0  0  0  0  0  0
   -0.9309   -0.2896   -0.6379 C   0  0  0  0  0  0  0  0  0  0  0  0
   -0.7391   -1.3155   -0.9169 H   0  0  0  0  0  0  0  0  0  0  0  0
   -2.1895    0.3387   -0.6219 C   0  0  0  0  0  0  0  0  0  0  0  0
   -3.1349   -0.1700   -0.7809 H   0  0  0  0  0  0  0  0  0  0  0  0
   -2.1566    1.5830    0.0121 N   0  0  0  0  0  0  0  0  0  0  0  0
   -2.9661    2.1819    0.1453 H   0  0  0  0  0  0  0  0  0  0  0  0
   -0.9079    1.8066    0.4721 C   0  0  0  0  0  0  0  0  0  0  0  0
   -0.5068    2.7401    0.8363 H   0  0  0  0  0  0  0  0  0  0  0  0
  1  2  3  0  0  0  0
  3 10  2  0  0  0  0
  4  6  2  0  0  0  0
  4  3  1  0  0  0  0
  5  4  1  0  0  0  0
  6  8  1  0  0  0  0
  7  6  1  0  0  0  0
  8  9  1  0  0  0  0
  8 10  1  0  0  0  0
 10 11  1  0  0  0  0
M  RAD  1   3   2
M  END
