Coordinates from ORCA-job Pyrrole-3-N2+-scan-d09-169-n800
 OpenBabel09191813553D

 11 10  0  0  0  0  0  0  0  0999 V2000
    2.5792    2.0622    0.6737 N   0  0  0  0  0  0  0  0  0  0  0  0
    3.6540    2.2563    0.8399 N   0  0  0  0  0  0  0  0  0  0  0  0
   -0.6201   -0.1770   -0.0063 C   0  0  0  0  0  0  0  0  0  0  0  0
   -1.6003   -0.6851   -0.8028 C   0  0  0  0  0  0  0  0  0  0  0  0
   -1.8973   -1.6960   -1.0457 H   0  0  0  0  0  0  0  0  0  0  0  0
   -2.4864    0.3950   -0.5863 C   0  0  0  0  0  0  0  0  0  0  0  0
   -3.5636    0.2807   -0.4976 H   0  0  0  0  0  0  0  0  0  0  0  0
   -1.8541    1.5188   -0.0373 N   0  0  0  0  0  0  0  0  0  0  0  0
   -2.3197    2.3974    0.1736 H   0  0  0  0  0  0  0  0  0  0  0  0
   -0.5664    1.2063    0.1834 C   0  0  0  0  0  0  0  0  0  0  0  0
    0.2581    1.8734    0.3966 H   0  0  0  0  0  0  0  0  0  0  0  0
  1  2  3  0  0  0  0
  3 10  2  0  0  0  0
  4  6  2  0  0  0  0
  4  3  1  0  0  0  0
  5  4  1  0  0  0  0
  6  7  1  0  0  0  0
  6  8  1  0  0  0  0
  8  9  1  0  0  0  0
  8 10  1  0  0  0  0
 10 11  1  0  0  0  0
M  RAD  1   3   2
M  END
