Coordinates from ORCA-job Pyrrole-3-N2+-scan-d09-169-n800
 OpenBabel09191813553D

 11 10  0  0  0  0  0  0  0  0999 V2000
    4.1112    4.1755    0.9874 N   0  0  0  0  0  0  0  0  0  0  0  0
    4.9921    4.8243    1.1452 N   0  0  0  0  0  0  0  0  0  0  0  0
   -2.6896   -0.9792   -0.1545 C   0  0  0  0  0  0  0  0  0  0  0  0
   -3.1480    0.0012   -0.9793 C   0  0  0  0  0  0  0  0  0  0  0  0
   -4.1403    0.2813   -1.3053 H   0  0  0  0  0  0  0  0  0  0  0  0
   -2.1089    0.9054   -0.6592 C   0  0  0  0  0  0  0  0  0  0  0  0
   -2.2536    1.9788   -0.5677 H   0  0  0  0  0  0  0  0  0  0  0  0
   -1.0229    0.2891   -0.0229 N   0  0  0  0  0  0  0  0  0  0  0  0
   -0.1773    0.7710    0.2719 H   0  0  0  0  0  0  0  0  0  0  0  0
   -1.3270   -1.0069    0.1553 C   0  0  0  0  0  0  0  0  0  0  0  0
   -0.6523   -1.8086    0.4204 H   0  0  0  0  0  0  0  0  0  0  0  0
  1  2  3  0  0  0  0
  3 10  2  0  0  0  0
  4  6  2  0  0  0  0
  4  3  1  0  0  0  0
  5  4  1  0  0  0  0
  6  7  1  0  0  0  0
  6  8  1  0  0  0  0
  8 10  1  0  0  0  0
  8  9  1  0  0  0  0
 10 11  1  0  0  0  0
M  RAD  1   3   2
M  END
