Coordinates from ORCA-job Pyrrole-3-N2+-scan-d09-169-n800
 OpenBabel09191813553D

 11 10  0  0  0  0  0  0  0  0999 V2000
    6.0182    5.5272    1.3677 N   0  0  0  0  0  0  0  0  0  0  0  0
    6.9058    6.1662    1.5286 N   0  0  0  0  0  0  0  0  0  0  0  0
   -3.1250   -1.2748   -0.2729 C   0  0  0  0  0  0  0  0  0  0  0  0
   -3.5602   -0.2752   -1.0872 C   0  0  0  0  0  0  0  0  0  0  0  0
   -4.5439    0.0193   -1.4262 H   0  0  0  0  0  0  0  0  0  0  0  0
   -2.5199    0.6139   -0.7308 C   0  0  0  0  0  0  0  0  0  0  0  0
   -2.6577    1.6865   -0.6217 H   0  0  0  0  0  0  0  0  0  0  0  0
   -1.4512   -0.0236   -0.0862 N   0  0  0  0  0  0  0  0  0  0  0  0
   -0.6077    0.4453    0.2340 H   0  0  0  0  0  0  0  0  0  0  0  0
   -1.7690   -1.3202    0.0618 C   0  0  0  0  0  0  0  0  0  0  0  0
   -1.1060   -2.1325    0.3241 H   0  0  0  0  0  0  0  0  0  0  0  0
  1  2  3  0  0  0  0
  3 10  2  0  0  0  0
  4  6  2  0  0  0  0
  4  3  1  0  0  0  0
  5  4  1  0  0  0  0
  6  7  1  0  0  0  0
  6  8  1  0  0  0  0
  8 10  1  0  0  0  0
  8  9  1  0  0  0  0
 10 11  1  0  0  0  0
M  RAD  1   3   2
M  END
