Coordinates from ORCA-job Pyrrole-3-N2+-scan-d09-169-n800
 OpenBabel09191813553D

 11 10  0  0  0  0  0  0  0  0999 V2000
    7.1820    6.3422    1.6072 N   0  0  0  0  0  0  0  0  0  0  0  0
    8.0719    6.9780    1.7680 N   0  0  0  0  0  0  0  0  0  0  0  0
   -3.3856   -1.4550   -0.3335 C   0  0  0  0  0  0  0  0  0  0  0  0
   -3.8163   -0.4516   -1.1454 C   0  0  0  0  0  0  0  0  0  0  0  0
   -4.7982   -0.1544   -1.4872 H   0  0  0  0  0  0  0  0  0  0  0  0
   -2.7763    0.4347   -0.7810 C   0  0  0  0  0  0  0  0  0  0  0  0
   -2.9132    1.5070   -0.6681 H   0  0  0  0  0  0  0  0  0  0  0  0
   -1.7112   -0.2068   -0.1346 N   0  0  0  0  0  0  0  0  0  0  0  0
   -0.8683    0.2596    0.1910 H   0  0  0  0  0  0  0  0  0  0  0  0
   -2.0312   -1.5037    0.0067 C   0  0  0  0  0  0  0  0  0  0  0  0
   -1.3703   -2.3179    0.2683 H   0  0  0  0  0  0  0  0  0  0  0  0
  1  2  3  0  0  0  0
  3 10  2  0  0  0  0
  4  6  2  0  0  0  0
  4  3  1  0  0  0  0
  5  4  1  0  0  0  0
  6  7  1  0  0  0  0
  6  8  1  0  0  0  0
  8 10  1  0  0  0  0
  8  9  1  0  0  0  0
 10 11  1  0  0  0  0
M  RAD  1   3   2
M  END
