Coordinates from ORCA-job Pyrrole-3-N2+-scan-d09-169-n800
 OpenBabel09191813553D

 11 10  0  0  0  0  0  0  0  0999 V2000
    1.8937    0.8243    0.2156 N   0  0  0  0  0  0  0  0  0  0  0  0
    2.9916    0.7964    0.3250 N   0  0  0  0  0  0  0  0  0  0  0  0
   -0.1946    0.8161   -0.0193 C   0  0  0  0  0  0  0  0  0  0  0  0
   -0.8538   -0.2614   -0.5670 C   0  0  0  0  0  0  0  0  0  0  0  0
   -0.5382   -1.2168   -0.9527 H   0  0  0  0  0  0  0  0  0  0  0  0
   -2.1442    0.2671   -0.4776 C   0  0  0  0  0  0  0  0  0  0  0  0
   -3.0627   -0.2109   -0.7900 H   0  0  0  0  0  0  0  0  0  0  0  0
   -2.1286    1.5242    0.0783 N   0  0  0  0  0  0  0  0  0  0  0  0
   -2.9518    2.0942    0.2382 H   0  0  0  0  0  0  0  0  0  0  0  0
   -0.8527    1.9292    0.3979 C   0  0  0  0  0  0  0  0  0  0  0  0
   -0.5752    2.8697    0.8428 H   0  0  0  0  0  0  0  0  0  0  0  0
  1  2  3  0  0  0  0
  3 10  2  0  0  0  0
  4  6  2  0  0  0  0
  4  3  1  0  0  0  0
  5  4  1  0  0  0  0
  6  8  1  0  0  0  0
  7  6  1  0  0  0  0
  8  9  1  0  0  0  0
  8 10  1  0  0  0  0
 10 11  1  0  0  0  0
M  RAD  1   3   2
M  END
