Coordinates from ORCA-job Pyrrole-3-N2+-scan-d09-169-n800
 OpenBabel09191813553D

 11 10  0  0  0  0  0  0  0  0999 V2000
    8.3740    7.1740    1.8534 N   0  0  0  0  0  0  0  0  0  0  0  0
    9.2652    7.8081    2.0137 N   0  0  0  0  0  0  0  0  0  0  0  0
   -3.6515   -1.6395   -0.3938 C   0  0  0  0  0  0  0  0  0  0  0  0
   -4.0794   -0.6334   -1.2036 C   0  0  0  0  0  0  0  0  0  0  0  0
   -5.0601   -0.3346   -1.5475 H   0  0  0  0  0  0  0  0  0  0  0  0
   -3.0397    0.2510   -0.8335 C   0  0  0  0  0  0  0  0  0  0  0  0
   -3.1760    1.3232   -0.7178 H   0  0  0  0  0  0  0  0  0  0  0  0
   -1.9770   -0.3930   -0.1860 N   0  0  0  0  0  0  0  0  0  0  0  0
   -1.1351    0.0720    0.1440 H   0  0  0  0  0  0  0  0  0  0  0  0
   -2.2983   -1.6902   -0.0494 C   0  0  0  0  0  0  0  0  0  0  0  0
   -1.6387   -2.5057    0.2118 H   0  0  0  0  0  0  0  0  0  0  0  0
  1  2  3  0  0  0  0
  3 10  2  0  0  0  0
  4  6  2  0  0  0  0
  4  3  1  0  0  0  0
  5  4  1  0  0  0  0
  6  7  1  0  0  0  0
  6  8  1  0  0  0  0
  8 10  1  0  0  0  0
  8  9  1  0  0  0  0
 10 11  1  0  0  0  0
M  RAD  1   3   2
M  END
