Coordinates from ORCA-job Pyrrole-3-N2+-scan-d09-169-n800
 OpenBabel09191813553D

 11 10  0  0  0  0  0  0  0  0999 V2000
    7.5531    6.6009    1.6835 N   0  0  0  0  0  0  0  0  0  0  0  0
    8.4432    7.2363    1.8446 N   0  0  0  0  0  0  0  0  0  0  0  0
   -3.4682   -1.5124   -0.3526 C   0  0  0  0  0  0  0  0  0  0  0  0
   -3.8982   -0.5082   -1.1636 C   0  0  0  0  0  0  0  0  0  0  0  0
   -4.8797   -0.2106   -1.5062 H   0  0  0  0  0  0  0  0  0  0  0  0
   -2.8583    0.3775   -0.7973 C   0  0  0  0  0  0  0  0  0  0  0  0
   -2.9949    1.4498   -0.6834 H   0  0  0  0  0  0  0  0  0  0  0  0
   -1.7939   -0.2647   -0.1505 N   0  0  0  0  0  0  0  0  0  0  0  0
   -0.9517    0.2015    0.1768 H   0  0  0  0  0  0  0  0  0  0  0  0
   -2.1143   -1.5618   -0.0108 C   0  0  0  0  0  0  0  0  0  0  0  0
   -1.4537   -2.3764    0.2507 H   0  0  0  0  0  0  0  0  0  0  0  0
  1  2  3  0  0  0  0
  3 10  2  0  0  0  0
  4  6  2  0  0  0  0
  4  3  1  0  0  0  0
  5  4  1  0  0  0  0
  6  7  1  0  0  0  0
  6  8  1  0  0  0  0
  8 10  1  0  0  0  0
  8  9  1  0  0  0  0
 10 11  1  0  0  0  0
M  RAD  1   3   2
M  END
