Coordinates from ORCA-job Pyrrole-3-N2+-scan-d09-169-n800
 OpenBabel09191813553D

 11 10  0  0  0  0  0  0  0  0999 V2000
    7.0366    6.2405    1.5771 N   0  0  0  0  0  0  0  0  0  0  0  0
    7.9263    6.8765    1.7381 N   0  0  0  0  0  0  0  0  0  0  0  0
   -3.3529   -1.4325   -0.3263 C   0  0  0  0  0  0  0  0  0  0  0  0
   -3.7844   -0.4295   -1.1382 C   0  0  0  0  0  0  0  0  0  0  0  0
   -4.7665   -0.1327   -1.4797 H   0  0  0  0  0  0  0  0  0  0  0  0
   -2.7442    0.4570   -0.7747 C   0  0  0  0  0  0  0  0  0  0  0  0
   -2.8810    1.5295   -0.6622 H   0  0  0  0  0  0  0  0  0  0  0  0
   -1.6787   -0.1839   -0.1286 N   0  0  0  0  0  0  0  0  0  0  0  0
   -0.8361    0.2829    0.1968 H   0  0  0  0  0  0  0  0  0  0  0  0
   -1.9985   -1.4809    0.0135 C   0  0  0  0  0  0  0  0  0  0  0  0
   -1.3373   -2.2949    0.2753 H   0  0  0  0  0  0  0  0  0  0  0  0
  1  2  3  0  0  0  0
  3 10  2  0  0  0  0
  4  6  2  0  0  0  0
  4  3  1  0  0  0  0
  5  4  1  0  0  0  0
  6  7  1  0  0  0  0
  6  8  1  0  0  0  0
  8 10  1  0  0  0  0
  8  9  1  0  0  0  0
 10 11  1  0  0  0  0
M  RAD  1   3   2
M  END
