Coordinates from ORCA-job Pyrrole-3-N2+-scan-d09-169-n800
 OpenBabel09191813553D

 11 10  0  0  0  0  0  0  0  0999 V2000
    9.2764    7.8231    2.0544 N   0  0  0  0  0  0  0  0  0  0  0  0
   10.1861    8.4381    2.1822 N   0  0  0  0  0  0  0  0  0  0  0  0
   -3.8580   -1.7790   -0.4357 C   0  0  0  0  0  0  0  0  0  0  0  0
   -4.2814   -0.7709   -1.2456 C   0  0  0  0  0  0  0  0  0  0  0  0
   -5.2608   -0.4684   -1.5900 H   0  0  0  0  0  0  0  0  0  0  0  0
   -3.2391    0.1096   -0.8742 C   0  0  0  0  0  0  0  0  0  0  0  0
   -3.3718    1.1822   -0.7579 H   0  0  0  0  0  0  0  0  0  0  0  0
   -2.1790   -0.5387   -0.2261 N   0  0  0  0  0  0  0  0  0  0  0  0
   -1.3355   -0.0769    0.1043 H   0  0  0  0  0  0  0  0  0  0  0  0
   -2.5051   -1.8346   -0.0906 C   0  0  0  0  0  0  0  0  0  0  0  0
   -1.8485   -2.6526    0.1705 H   0  0  0  0  0  0  0  0  0  0  0  0
  1  2  3  0  0  0  0
  3 10  2  0  0  0  0
  4  6  2  0  0  0  0
  4  3  1  0  0  0  0
  5  4  1  0  0  0  0
  6  7  1  0  0  0  0
  6  8  1  0  0  0  0
  8 10  1  0  0  0  0
  8  9  1  0  0  0  0
 10 11  1  0  0  0  0
M  RAD  1   3   2
M  END
