Coordinates from ORCA-job Pyrrole-3-N2+-scan-d09-169-n800
 OpenBabel09191813553D

 11 10  0  0  0  0  0  0  0  0999 V2000
    4.2551    4.2786    1.0144 N   0  0  0  0  0  0  0  0  0  0  0  0
    5.1367    4.9266    1.1725 N   0  0  0  0  0  0  0  0  0  0  0  0
   -2.7227   -1.0018   -0.1663 C   0  0  0  0  0  0  0  0  0  0  0  0
   -3.1782   -0.0185   -0.9891 C   0  0  0  0  0  0  0  0  0  0  0  0
   -4.1692    0.2633   -1.3173 H   0  0  0  0  0  0  0  0  0  0  0  0
   -2.1391    0.8837   -0.6631 C   0  0  0  0  0  0  0  0  0  0  0  0
   -2.2831    1.9570   -0.5688 H   0  0  0  0  0  0  0  0  0  0  0  0
   -1.0557    0.2647   -0.0255 N   0  0  0  0  0  0  0  0  0  0  0  0
   -0.2109    0.7451    0.2740 H   0  0  0  0  0  0  0  0  0  0  0  0
   -1.3614   -1.0318    0.1479 C   0  0  0  0  0  0  0  0  0  0  0  0
   -0.6880   -1.8348    0.4127 H   0  0  0  0  0  0  0  0  0  0  0  0
  1  2  3  0  0  0  0
  3 10  2  0  0  0  0
  4  6  2  0  0  0  0
  4  3  1  0  0  0  0
  5  4  1  0  0  0  0
  6  7  1  0  0  0  0
  6  8  1  0  0  0  0
  8 10  1  0  0  0  0
  8  9  1  0  0  0  0
 10 11  1  0  0  0  0
M  RAD  1   3   2
M  END
