Coordinates from ORCA-job Pyrrole-3-N2+-scan-d09-169-n800
 OpenBabel09191813553D

 11 10  0  0  0  0  0  0  0  0999 V2000
    4.7264    4.6160    1.1067 N   0  0  0  0  0  0  0  0  0  0  0  0
    5.6103    5.2606    1.2653 N   0  0  0  0  0  0  0  0  0  0  0  0
   -2.8318   -1.0750   -0.1988 C   0  0  0  0  0  0  0  0  0  0  0  0
   -3.2789   -0.0848   -1.0179 C   0  0  0  0  0  0  0  0  0  0  0  0
   -4.2668    0.2023   -1.3508 H   0  0  0  0  0  0  0  0  0  0  0  0
   -2.2392    0.8120   -0.6790 C   0  0  0  0  0  0  0  0  0  0  0  0
   -2.3804    1.8850   -0.5784 H   0  0  0  0  0  0  0  0  0  0  0  0
   -1.1620    0.1852   -0.0383 N   0  0  0  0  0  0  0  0  0  0  0  0
   -0.3178    0.6608    0.2701 H   0  0  0  0  0  0  0  0  0  0  0  0
   -1.4728   -1.1115    0.1243 C   0  0  0  0  0  0  0  0  0  0  0  0
   -0.8037   -1.9184    0.3880 H   0  0  0  0  0  0  0  0  0  0  0  0
  1  2  3  0  0  0  0
  3 10  2  0  0  0  0
  4  6  2  0  0  0  0
  4  3  1  0  0  0  0
  5  4  1  0  0  0  0
  6  7  1  0  0  0  0
  6  8  1  0  0  0  0
  8 10  1  0  0  0  0
  8  9  1  0  0  0  0
 10 11  1  0  0  0  0
M  RAD  1   3   2
M  END
