Coordinates from ORCA-job Pyrrole-3-N2+-scan-d09-169-n800
 OpenBabel09191813553D

 11 10  0  0  0  0  0  0  0  0999 V2000
    8.2017    7.0538    1.8178 N   0  0  0  0  0  0  0  0  0  0  0  0
    9.0927    7.6882    1.9782 N   0  0  0  0  0  0  0  0  0  0  0  0
   -3.6132   -1.6129   -0.3850 C   0  0  0  0  0  0  0  0  0  0  0  0
   -4.0412   -0.6071   -1.1954 C   0  0  0  0  0  0  0  0  0  0  0  0
   -5.0220   -0.3084   -1.5390 H   0  0  0  0  0  0  0  0  0  0  0  0
   -3.0017    0.2776   -0.8259 C   0  0  0  0  0  0  0  0  0  0  0  0
   -3.1382    1.3498   -0.7105 H   0  0  0  0  0  0  0  0  0  0  0  0
   -1.9386   -0.3662   -0.1783 N   0  0  0  0  0  0  0  0  0  0  0  0
   -1.0964    0.0989    0.1508 H   0  0  0  0  0  0  0  0  0  0  0  0
   -2.2597   -1.6632   -0.0413 C   0  0  0  0  0  0  0  0  0  0  0  0
   -1.6000   -2.4785    0.2199 H   0  0  0  0  0  0  0  0  0  0  0  0
  1  2  3  0  0  0  0
  3 10  2  0  0  0  0
  4  6  2  0  0  0  0
  4  3  1  0  0  0  0
  5  4  1  0  0  0  0
  6  7  1  0  0  0  0
  6  8  1  0  0  0  0
  8 10  1  0  0  0  0
  8  9  1  0  0  0  0
 10 11  1  0  0  0  0
M  RAD  1   3   2
M  END
