Coordinates from ORCA-job Pyrrole-3-N2+-scan-d09-169-n800
 OpenBabel09191813553D

 11 10  0  0  0  0  0  0  0  0999 V2000
    5.2262    4.9703    1.2069 N   0  0  0  0  0  0  0  0  0  0  0  0
    6.1119    5.6123    1.3663 N   0  0  0  0  0  0  0  0  0  0  0  0
   -2.9461   -1.1522   -0.2291 C   0  0  0  0  0  0  0  0  0  0  0  0
   -3.3872   -0.1573   -1.0456 C   0  0  0  0  0  0  0  0  0  0  0  0
   -4.3731    0.1337   -1.3815 H   0  0  0  0  0  0  0  0  0  0  0  0
   -2.3468    0.7354   -0.6982 C   0  0  0  0  0  0  0  0  0  0  0  0
   -2.4859    1.8083   -0.5935 H   0  0  0  0  0  0  0  0  0  0  0  0
   -1.2740    0.1031   -0.0556 N   0  0  0  0  0  0  0  0  0  0  0  0
   -0.4301    0.5752    0.2587 H   0  0  0  0  0  0  0  0  0  0  0  0
   -1.5886   -1.1936    0.0999 C   0  0  0  0  0  0  0  0  0  0  0  0
   -0.9228   -2.0033    0.3629 H   0  0  0  0  0  0  0  0  0  0  0  0
  1  2  3  0  0  0  0
  3 10  2  0  0  0  0
  4  6  2  0  0  0  0
  4  3  1  0  0  0  0
  5  4  1  0  0  0  0
  6  7  1  0  0  0  0
  6  8  1  0  0  0  0
  8 10  1  0  0  0  0
  8  9  1  0  0  0  0
 10 11  1  0  0  0  0
M  RAD  1   3   2
M  END
