Coordinates from ORCA-job Pyrrole-3-N2+-scan-d09-169-n800
 OpenBabel09191813553D

 11 10  0  0  0  0  0  0  0  0999 V2000
    2.5809    1.2903    0.3547 N   0  0  0  0  0  0  0  0  0  0  0  0
    3.6801    1.3995    0.3865 N   0  0  0  0  0  0  0  0  0  0  0  0
   -0.5100    0.3127    0.2698 C   0  0  0  0  0  0  0  0  0  0  0  0
   -1.1487   -0.4267   -0.6781 C   0  0  0  0  0  0  0  0  0  0  0  0
   -1.0960   -1.4706   -0.9543 H   0  0  0  0  0  0  0  0  0  0  0  0
   -2.3272    0.3527   -0.6501 C   0  0  0  0  0  0  0  0  0  0  0  0
   -3.3258   -0.0593   -0.7674 H   0  0  0  0  0  0  0  0  0  0  0  0
   -2.1496    1.5879   -0.0147 N   0  0  0  0  0  0  0  0  0  0  0  0
   -2.8782    2.2873    0.1001 H   0  0  0  0  0  0  0  0  0  0  0  0
   -0.8878    1.6437    0.4466 C   0  0  0  0  0  0  0  0  0  0  0  0
   -0.3543    2.5145    0.7981 H   0  0  0  0  0  0  0  0  0  0  0  0
  1  2  3  0  0  0  0
  3 10  2  0  0  0  0
  4  6  2  0  0  0  0
  4  3  1  0  0  0  0
  5  4  1  0  0  0  0
  6  8  1  0  0  0  0
  7  6  1  0  0  0  0
  8  9  1  0  0  0  0
  8 10  1  0  0  0  0
 10 11  1  0  0  0  0
M  RAD  1   3   2
M  END
