Coordinates from ORCA-job Pyrrole-3-N2+-scan-d09-169-n800
 OpenBabel09191813553D

 11 10  0  0  0  0  0  0  0  0999 V2000
    3.7748    4.1871    1.1780 N   0  0  0  0  0  0  0  0  0  0  0  0
    4.6406    4.8418    1.3869 N   0  0  0  0  0  0  0  0  0  0  0  0
   -1.5366   -1.1752   -0.1785 C   0  0  0  0  0  0  0  0  0  0  0  0
   -2.6138   -0.9348   -0.9747 C   0  0  0  0  0  0  0  0  0  0  0  0
   -3.4673   -1.5365   -1.2553 H   0  0  0  0  0  0  0  0  0  0  0  0
   -2.6492    0.4504   -0.6931 C   0  0  0  0  0  0  0  0  0  0  0  0
   -3.5696    1.0187   -0.5874 H   0  0  0  0  0  0  0  0  0  0  0  0
   -1.4651    0.9212   -0.1092 N   0  0  0  0  0  0  0  0  0  0  0  0
   -1.2946    1.8890    0.1519 H   0  0  0  0  0  0  0  0  0  0  0  0
   -0.6458   -0.1276    0.0711 C   0  0  0  0  0  0  0  0  0  0  0  0
    0.4101   -0.1022    0.3014 H   0  0  0  0  0  0  0  0  0  0  0  0
  1  2  3  0  0  0  0
  3 10  2  0  0  0  0
  4  6  2  0  0  0  0
  4  3  1  0  0  0  0
  5  4  1  0  0  0  0
  6  7  1  0  0  0  0
  6  8  1  0  0  0  0
  8 10  1  0  0  0  0
  8  9  1  0  0  0  0
 10 11  1  0  0  0  0
M  RAD  1   3   2
M  END
