Coordinates from ORCA-job Pyrrole-3-N2+-scan-d09-169-n800
 OpenBabel09191813553D

 11 10  0  0  0  0  0  0  0  0999 V2000
    2.7775    2.9352    0.8732 N   0  0  0  0  0  0  0  0  0  0  0  0
    3.6595    3.5702    1.0732 N   0  0  0  0  0  0  0  0  0  0  0  0
   -1.0125   -0.7661   -0.0971 C   0  0  0  0  0  0  0  0  0  0  0  0
   -2.1256   -0.8249   -0.8780 C   0  0  0  0  0  0  0  0  0  0  0  0
   -2.7996   -1.6308   -1.1341 H   0  0  0  0  0  0  0  0  0  0  0  0
   -2.5121    0.5097   -0.6167 C   0  0  0  0  0  0  0  0  0  0  0  0
   -3.5460    0.8253   -0.5038 H   0  0  0  0  0  0  0  0  0  0  0  0
   -1.4808    1.2789   -0.0613 N   0  0  0  0  0  0  0  0  0  0  0  0
   -1.5599    2.2628    0.1819 H   0  0  0  0  0  0  0  0  0  0  0  0
   -0.4157    0.4808    0.1196 C   0  0  0  0  0  0  0  0  0  0  0  0
    0.5987    0.7909    0.3343 H   0  0  0  0  0  0  0  0  0  0  0  0
  1  2  3  0  0  0  0
  3 10  2  0  0  0  0
  4  6  2  0  0  0  0
  4  3  1  0  0  0  0
  5  4  1  0  0  0  0
  6  7  1  0  0  0  0
  6  8  1  0  0  0  0
  8 10  1  0  0  0  0
  8  9  1  0  0  0  0
 10 11  1  0  0  0  0
M  RAD  1   3   2
M  END
