Coordinates from ORCA-job Pyrrole-3-N2+-scan-d09-169-n800
 OpenBabel09191813553D

 11 10  0  0  0  0  0  0  0  0999 V2000
    5.6088    5.2395    1.2842 N   0  0  0  0  0  0  0  0  0  0  0  0
    6.4953    5.8801    1.4446 N   0  0  0  0  0  0  0  0  0  0  0  0
   -3.0328   -1.2114   -0.2506 C   0  0  0  0  0  0  0  0  0  0  0  0
   -3.4705   -0.2139   -1.0661 C   0  0  0  0  0  0  0  0  0  0  0  0
   -4.4552    0.0790   -1.4036 H   0  0  0  0  0  0  0  0  0  0  0  0
   -2.4302    0.6768   -0.7137 C   0  0  0  0  0  0  0  0  0  0  0  0
   -2.5687    1.7496   -0.6066 H   0  0  0  0  0  0  0  0  0  0  0  0
   -1.3597    0.0416   -0.0699 N   0  0  0  0  0  0  0  0  0  0  0  0
   -0.5158    0.5119    0.2474 H   0  0  0  0  0  0  0  0  0  0  0  0
   -1.6761   -1.2550    0.0814 C   0  0  0  0  0  0  0  0  0  0  0  0
   -1.0118   -2.0661    0.3440 H   0  0  0  0  0  0  0  0  0  0  0  0
  1  2  3  0  0  0  0
  3 10  2  0  0  0  0
  4  6  2  0  0  0  0
  4  3  1  0  0  0  0
  5  4  1  0  0  0  0
  6  7  1  0  0  0  0
  6  8  1  0  0  0  0
  8 10  1  0  0  0  0
  8  9  1  0  0  0  0
 10 11  1  0  0  0  0
M  RAD  1   3   2
M  END
