Coordinates from ORCA-job Pyrrole-3-N2+-scan-d09-169-n800
 OpenBabel09191813553D

 11 10  0  0  0  0  0  0  0  0999 V2000
    5.3978    5.0908    1.2413 N   0  0  0  0  0  0  0  0  0  0  0  0
    6.2835    5.7324    1.4015 N   0  0  0  0  0  0  0  0  0  0  0  0
   -2.9851   -1.1787   -0.2388 C   0  0  0  0  0  0  0  0  0  0  0  0
   -3.4244   -0.1825   -1.0550 C   0  0  0  0  0  0  0  0  0  0  0  0
   -4.4096    0.1095   -1.3917 H   0  0  0  0  0  0  0  0  0  0  0  0
   -2.3842    0.7092   -0.7050 C   0  0  0  0  0  0  0  0  0  0  0  0
   -2.5230    1.7820   -0.5991 H   0  0  0  0  0  0  0  0  0  0  0  0
   -1.3124    0.0754   -0.0618 N   0  0  0  0  0  0  0  0  0  0  0  0
   -0.4684    0.5466    0.2538 H   0  0  0  0  0  0  0  0  0  0  0  0
   -1.6279   -1.2211    0.0916 C   0  0  0  0  0  0  0  0  0  0  0  0
   -0.9629   -2.0316    0.3544 H   0  0  0  0  0  0  0  0  0  0  0  0
  1  2  3  0  0  0  0
  3 10  2  0  0  0  0
  4  6  2  0  0  0  0
  4  3  1  0  0  0  0
  5  4  1  0  0  0  0
  6  7  1  0  0  0  0
  6  8  1  0  0  0  0
  8 10  1  0  0  0  0
  8  9  1  0  0  0  0
 10 11  1  0  0  0  0
M  RAD  1   3   2
M  END
