Coordinates from ORCA-job Pyrrole-3-N2+-scan-d09-169-n800
 OpenBabel09191813553D

 11 10  0  0  0  0  0  0  0  0999 V2000
    7.5795    6.6195    1.6891 N   0  0  0  0  0  0  0  0  0  0  0  0
    8.4698    7.2547    1.8500 N   0  0  0  0  0  0  0  0  0  0  0  0
   -3.4741   -1.5165   -0.3540 C   0  0  0  0  0  0  0  0  0  0  0  0
   -3.9040   -0.5122   -1.1649 C   0  0  0  0  0  0  0  0  0  0  0  0
   -4.8856   -0.2146   -1.5075 H   0  0  0  0  0  0  0  0  0  0  0  0
   -2.8641    0.3734   -0.7985 C   0  0  0  0  0  0  0  0  0  0  0  0
   -3.0008    1.4457   -0.6845 H   0  0  0  0  0  0  0  0  0  0  0  0
   -1.7998   -0.2688   -0.1517 N   0  0  0  0  0  0  0  0  0  0  0  0
   -0.9576    0.1973    0.1758 H   0  0  0  0  0  0  0  0  0  0  0  0
   -2.1202   -1.5659   -0.0120 C   0  0  0  0  0  0  0  0  0  0  0  0
   -1.4597   -2.3805    0.2494 H   0  0  0  0  0  0  0  0  0  0  0  0
  1  2  3  0  0  0  0
  3 10  2  0  0  0  0
  4  6  2  0  0  0  0
  4  3  1  0  0  0  0
  5  4  1  0  0  0  0
  6  7  1  0  0  0  0
  6  8  1  0  0  0  0
  8 10  1  0  0  0  0
  8  9  1  0  0  0  0
 10 11  1  0  0  0  0
M  RAD  1   3   2
M  END
