Coordinates from ORCA-job Pyrrole-3-N2+-scan-d09-169-n800
 OpenBabel09191813553D

 11 10  0  0  0  0  0  0  0  0999 V2000
    2.7414    2.8920    0.8612 N   0  0  0  0  0  0  0  0  0  0  0  0
    3.6237    3.5270    1.0606 N   0  0  0  0  0  0  0  0  0  0  0  0
   -0.9953   -0.7511   -0.0941 C   0  0  0  0  0  0  0  0  0  0  0  0
   -2.1079   -0.8194   -0.8751 C   0  0  0  0  0  0  0  0  0  0  0  0
   -2.7750   -1.6311   -1.1309 H   0  0  0  0  0  0  0  0  0  0  0  0
   -2.5057    0.5118   -0.6140 C   0  0  0  0  0  0  0  0  0  0  0  0
   -3.5422    0.8188   -0.5011 H   0  0  0  0  0  0  0  0  0  0  0  0
   -1.4809    1.2897   -0.0587 N   0  0  0  0  0  0  0  0  0  0  0  0
   -1.5683    2.2730    0.1842 H   0  0  0  0  0  0  0  0  0  0  0  0
   -0.4089    0.5009    0.1222 C   0  0  0  0  0  0  0  0  0  0  0  0
    0.6027    0.8203    0.3369 H   0  0  0  0  0  0  0  0  0  0  0  0
  1  2  3  0  0  0  0
  3 10  2  0  0  0  0
  4  6  2  0  0  0  0
  4  3  1  0  0  0  0
  5  4  1  0  0  0  0
  6  7  1  0  0  0  0
  6  8  1  0  0  0  0
  8 10  1  0  0  0  0
  8  9  1  0  0  0  0
 10 11  1  0  0  0  0
M  RAD  1   3   2
M  END
