Coordinates from ORCA-job Pyrrole-3-N2+-scan-d09-169-n800
 OpenBabel09191813553D

 11 10  0  0  0  0  0  0  0  0999 V2000
    8.1485    7.0170    1.8069 N   0  0  0  0  0  0  0  0  0  0  0  0
    9.0397    7.6512    1.9671 N   0  0  0  0  0  0  0  0  0  0  0  0
   -3.6014   -1.6047   -0.3823 C   0  0  0  0  0  0  0  0  0  0  0  0
   -4.0295   -0.5990   -1.1928 C   0  0  0  0  0  0  0  0  0  0  0  0
   -5.0104   -0.3004   -1.5363 H   0  0  0  0  0  0  0  0  0  0  0  0
   -2.9900    0.2858   -0.8235 C   0  0  0  0  0  0  0  0  0  0  0  0
   -3.1265    1.3580   -0.7082 H   0  0  0  0  0  0  0  0  0  0  0  0
   -1.9268   -0.3579   -0.1761 N   0  0  0  0  0  0  0  0  0  0  0  0
   -1.0845    0.1072    0.1529 H   0  0  0  0  0  0  0  0  0  0  0  0
   -2.2479   -1.6550   -0.0388 C   0  0  0  0  0  0  0  0  0  0  0  0
   -1.5881   -2.4702    0.2224 H   0  0  0  0  0  0  0  0  0  0  0  0
  1  2  3  0  0  0  0
  3 10  2  0  0  0  0
  4  6  2  0  0  0  0
  4  3  1  0  0  0  0
  5  4  1  0  0  0  0
  6  7  1  0  0  0  0
  6  8  1  0  0  0  0
  8 10  1  0  0  0  0
  8  9  1  0  0  0  0
 10 11  1  0  0  0  0
M  RAD  1   3   2
M  END
