Coordinates from ORCA-job Pyrrole-3-N2+-scan-d09-169-n800
 OpenBabel09191813553D

 11 10  0  0  0  0  0  0  0  0999 V2000
    5.6880    5.2954    1.3004 N   0  0  0  0  0  0  0  0  0  0  0  0
    6.5749    5.9355    1.4608 N   0  0  0  0  0  0  0  0  0  0  0  0
   -3.0505   -1.2236   -0.2552 C   0  0  0  0  0  0  0  0  0  0  0  0
   -3.4880   -0.2258   -1.0701 C   0  0  0  0  0  0  0  0  0  0  0  0
   -4.4725    0.0675   -1.4080 H   0  0  0  0  0  0  0  0  0  0  0  0
   -2.4475    0.6645   -0.7170 C   0  0  0  0  0  0  0  0  0  0  0  0
   -2.5856    1.7373   -0.6096 H   0  0  0  0  0  0  0  0  0  0  0  0
   -1.3774    0.0290   -0.0732 N   0  0  0  0  0  0  0  0  0  0  0  0
   -0.5338    0.4991    0.2451 H   0  0  0  0  0  0  0  0  0  0  0  0
   -1.6941   -1.2678    0.0776 C   0  0  0  0  0  0  0  0  0  0  0  0
   -1.0301   -2.0791    0.3402 H   0  0  0  0  0  0  0  0  0  0  0  0
  1  2  3  0  0  0  0
  3 10  2  0  0  0  0
  4  6  2  0  0  0  0
  4  3  1  0  0  0  0
  5  4  1  0  0  0  0
  6  7  1  0  0  0  0
  6  8  1  0  0  0  0
  8 10  1  0  0  0  0
  8  9  1  0  0  0  0
 10 11  1  0  0  0  0
M  RAD  1   3   2
M  END
