Coordinates from ORCA-job Pyrrole-3-N2+-scan-d09-169-n800
 OpenBabel09191813553D

 11 10  0  0  0  0  0  0  0  0999 V2000
    5.0024    4.8117    1.1615 N   0  0  0  0  0  0  0  0  0  0  0  0
    5.8871    5.4551    1.3210 N   0  0  0  0  0  0  0  0  0  0  0  0
   -2.8952   -1.1177   -0.2157 C   0  0  0  0  0  0  0  0  0  0  0  0
   -3.3383   -0.1245   -1.0336 C   0  0  0  0  0  0  0  0  0  0  0  0
   -4.3250    0.1650   -1.3683 H   0  0  0  0  0  0  0  0  0  0  0  0
   -2.2984    0.7698   -0.6893 C   0  0  0  0  0  0  0  0  0  0  0  0
   -2.4386    1.8427   -0.5861 H   0  0  0  0  0  0  0  0  0  0  0  0
   -1.2239    0.1395   -0.0474 N   0  0  0  0  0  0  0  0  0  0  0  0
   -0.3796    0.6129    0.2643 H   0  0  0  0  0  0  0  0  0  0  0  0
   -1.5370   -1.1570    0.1108 C   0  0  0  0  0  0  0  0  0  0  0  0
   -0.8700   -1.9657    0.3741 H   0  0  0  0  0  0  0  0  0  0  0  0
  1  2  3  0  0  0  0
  3 10  2  0  0  0  0
  4  6  2  0  0  0  0
  4  3  1  0  0  0  0
  5  4  1  0  0  0  0
  6  7  1  0  0  0  0
  6  8  1  0  0  0  0
  8 10  1  0  0  0  0
  8  9  1  0  0  0  0
 10 11  1  0  0  0  0
M  RAD  1   3   2
M  END
