Coordinates from ORCA-job Pyrrole-3-N2+-scan-d09-169-n800
 OpenBabel09191813553D

 11 10  0  0  0  0  0  0  0  0999 V2000
    3.8496    3.9887    0.9397 N   0  0  0  0  0  0  0  0  0  0  0  0
    4.7278    4.6408    1.0986 N   0  0  0  0  0  0  0  0  0  0  0  0
   -2.6307   -0.9361   -0.1290 C   0  0  0  0  0  0  0  0  0  0  0  0
   -3.0952    0.0379   -0.9581 C   0  0  0  0  0  0  0  0  0  0  0  0
   -4.0900    0.3162   -1.2779 H   0  0  0  0  0  0  0  0  0  0  0  0
   -2.0526    0.9438   -0.6545 C   0  0  0  0  0  0  0  0  0  0  0  0
   -2.1956    2.0180   -0.5707 H   0  0  0  0  0  0  0  0  0  0  0  0
   -0.9618    0.3319   -0.0224 N   0  0  0  0  0  0  0  0  0  0  0  0
   -0.1132    0.8155    0.2610 H   0  0  0  0  0  0  0  0  0  0  0  0
   -1.2655   -0.9623    0.1693 C   0  0  0  0  0  0  0  0  0  0  0  0
   -0.5892   -1.7623    0.4353 H   0  0  0  0  0  0  0  0  0  0  0  0
  1  2  3  0  0  0  0
  3 10  2  0  0  0  0
  4  6  2  0  0  0  0
  4  3  1  0  0  0  0
  5  4  1  0  0  0  0
  6  7  1  0  0  0  0
  6  8  1  0  0  0  0
  8 10  1  0  0  0  0
  8  9  1  0  0  0  0
 10 11  1  0  0  0  0
M  RAD  1   3   2
M  END
