Coordinates from ORCA-job Pyrrole-3-N2+-scan-d09-169-n800
 OpenBabel09191813553D

 11 10  0  0  0  0  0  0  0  0999 V2000
    8.9889    7.6157    1.9899 N   0  0  0  0  0  0  0  0  0  0  0  0
    9.8912    8.2386    2.1310 N   0  0  0  0  0  0  0  0  0  0  0  0
   -3.7923   -1.7345   -0.4225 C   0  0  0  0  0  0  0  0  0  0  0  0
   -4.2169   -0.7268   -1.2324 C   0  0  0  0  0  0  0  0  0  0  0  0
   -5.1966   -0.4252   -1.5765 H   0  0  0  0  0  0  0  0  0  0  0  0
   -3.1752    0.1547   -0.8614 C   0  0  0  0  0  0  0  0  0  0  0  0
   -3.3089    1.2271   -0.7452 H   0  0  0  0  0  0  0  0  0  0  0  0
   -2.1144   -0.4926   -0.2136 N   0  0  0  0  0  0  0  0  0  0  0  0
   -1.2712   -0.0301    0.1165 H   0  0  0  0  0  0  0  0  0  0  0  0
   -2.4393   -1.7888   -0.0779 C   0  0  0  0  0  0  0  0  0  0  0  0
   -1.7819   -2.6062    0.1832 H   0  0  0  0  0  0  0  0  0  0  0  0
  1  2  3  0  0  0  0
  3 10  2  0  0  0  0
  4  6  2  0  0  0  0
  4  3  1  0  0  0  0
  5  4  1  0  0  0  0
  6  7  1  0  0  0  0
  6  8  1  0  0  0  0
  8 10  1  0  0  0  0
  8  9  1  0  0  0  0
 10 11  1  0  0  0  0
M  RAD  1   3   2
M  END
