Coordinates from ORCA-job Pyrrole-3-N2+-scan-d09-169-n800
 OpenBabel09191813553D

 11 10  0  0  0  0  0  0  0  0999 V2000
    5.0154    4.8215    1.1644 N   0  0  0  0  0  0  0  0  0  0  0  0
    5.9006    5.4642    1.3235 N   0  0  0  0  0  0  0  0  0  0  0  0
   -2.8981   -1.1197   -0.2166 C   0  0  0  0  0  0  0  0  0  0  0  0
   -3.3414   -0.1265   -1.0342 C   0  0  0  0  0  0  0  0  0  0  0  0
   -4.3281    0.1631   -1.3689 H   0  0  0  0  0  0  0  0  0  0  0  0
   -2.3012    0.7677   -0.6899 C   0  0  0  0  0  0  0  0  0  0  0  0
   -2.4411    1.8407   -0.5867 H   0  0  0  0  0  0  0  0  0  0  0  0
   -1.2268    0.1374   -0.0481 N   0  0  0  0  0  0  0  0  0  0  0  0
   -0.3828    0.6108    0.2640 H   0  0  0  0  0  0  0  0  0  0  0  0
   -1.5400   -1.1593    0.1101 C   0  0  0  0  0  0  0  0  0  0  0  0
   -0.8730   -1.9680    0.3734 H   0  0  0  0  0  0  0  0  0  0  0  0
  1  2  3  0  0  0  0
  3 10  2  0  0  0  0
  4  6  2  0  0  0  0
  4  3  1  0  0  0  0
  5  4  1  0  0  0  0
  6  7  1  0  0  0  0
  6  8  1  0  0  0  0
  8 10  1  0  0  0  0
  8  9  1  0  0  0  0
 10 11  1  0  0  0  0
M  RAD  1   3   2
M  END
