Coordinates from ORCA-job Pyrrole-3-N2+-scan-d09-169-n800
 OpenBabel09191813553D

 11 10  0  0  0  0  0  0  0  0999 V2000
    7.2353    6.3790    1.6179 N   0  0  0  0  0  0  0  0  0  0  0  0
    8.1250    7.0150    1.7791 N   0  0  0  0  0  0  0  0  0  0  0  0
   -3.3973   -1.4632   -0.3365 C   0  0  0  0  0  0  0  0  0  0  0  0
   -3.8282   -0.4597   -1.1479 C   0  0  0  0  0  0  0  0  0  0  0  0
   -4.8101   -0.1626   -1.4899 H   0  0  0  0  0  0  0  0  0  0  0  0
   -2.7880    0.4264   -0.7834 C   0  0  0  0  0  0  0  0  0  0  0  0
   -2.9247    1.4989   -0.6703 H   0  0  0  0  0  0  0  0  0  0  0  0
   -1.7230   -0.2150   -0.1370 N   0  0  0  0  0  0  0  0  0  0  0  0
   -0.8805    0.2515    0.1892 H   0  0  0  0  0  0  0  0  0  0  0  0
   -2.0431   -1.5120    0.0042 C   0  0  0  0  0  0  0  0  0  0  0  0
   -1.3822   -2.3263    0.2658 H   0  0  0  0  0  0  0  0  0  0  0  0
  1  2  3  0  0  0  0
  3 10  2  0  0  0  0
  4  6  2  0  0  0  0
  4  3  1  0  0  0  0
  5  4  1  0  0  0  0
  6  7  1  0  0  0  0
  6  8  1  0  0  0  0
  8 10  1  0  0  0  0
  8  9  1  0  0  0  0
 10 11  1  0  0  0  0
M  RAD  1   3   2
M  END
