Coordinates from ORCA-job Pyrrole-3-N2+-scan-d09-169-n800
 OpenBabel09191813553D

 11 10  0  0  0  0  0  0  0  0999 V2000
    6.3221    5.7406    1.4302 N   0  0  0  0  0  0  0  0  0  0  0  0
    7.2105    6.3785    1.5909 N   0  0  0  0  0  0  0  0  0  0  0  0
   -3.1931   -1.3217   -0.2892 C   0  0  0  0  0  0  0  0  0  0  0  0
   -3.6272   -0.3210   -1.1025 C   0  0  0  0  0  0  0  0  0  0  0  0
   -4.6103   -0.0256   -1.4424 H   0  0  0  0  0  0  0  0  0  0  0  0
   -2.5866    0.5670   -0.7438 C   0  0  0  0  0  0  0  0  0  0  0  0
   -2.7237    1.6396   -0.6336 H   0  0  0  0  0  0  0  0  0  0  0  0
   -1.5191   -0.0717   -0.0987 N   0  0  0  0  0  0  0  0  0  0  0  0
   -0.6760    0.3964    0.2234 H   0  0  0  0  0  0  0  0  0  0  0  0
   -1.8378   -1.3685    0.0474 C   0  0  0  0  0  0  0  0  0  0  0  0
   -1.1755   -2.1815    0.3095 H   0  0  0  0  0  0  0  0  0  0  0  0
  1  2  3  0  0  0  0
  3 10  2  0  0  0  0
  4  6  2  0  0  0  0
  4  3  1  0  0  0  0
  5  4  1  0  0  0  0
  6  7  1  0  0  0  0
  6  8  1  0  0  0  0
  8 10  1  0  0  0  0
  8  9  1  0  0  0  0
 10 11  1  0  0  0  0
M  RAD  1   3   2
M  END
