Coordinates from ORCA-job Pyrrole-3-N2+-scan-d09-169-n800
 OpenBabel09191813553D

 11 10  0  0  0  0  0  0  0  0999 V2000
    4.5034    4.4569    1.0629 N   0  0  0  0  0  0  0  0  0  0  0  0
    5.3865    5.1028    1.2208 N   0  0  0  0  0  0  0  0  0  0  0  0
   -2.7804   -1.0406   -0.1839 C   0  0  0  0  0  0  0  0  0  0  0  0
   -3.2308   -0.0533   -1.0048 C   0  0  0  0  0  0  0  0  0  0  0  0
   -4.2201    0.2315   -1.3358 H   0  0  0  0  0  0  0  0  0  0  0  0
   -2.1918    0.8460   -0.6711 C   0  0  0  0  0  0  0  0  0  0  0  0
   -2.3346    1.9191   -0.5730 H   0  0  0  0  0  0  0  0  0  0  0  0
   -1.1119    0.2226   -0.0315 N   0  0  0  0  0  0  0  0  0  0  0  0
   -0.2673    0.7002    0.2728 H   0  0  0  0  0  0  0  0  0  0  0  0
   -1.4203   -1.0740    0.1354 C   0  0  0  0  0  0  0  0  0  0  0  0
   -0.7494   -1.8792    0.3995 H   0  0  0  0  0  0  0  0  0  0  0  0
  1  2  3  0  0  0  0
  3 10  2  0  0  0  0
  4  6  2  0  0  0  0
  4  3  1  0  0  0  0
  5  4  1  0  0  0  0
  6  7  1  0  0  0  0
  6  8  1  0  0  0  0
  8 10  1  0  0  0  0
  8  9  1  0  0  0  0
 10 11  1  0  0  0  0
M  RAD  1   3   2
M  END
