Coordinates from ORCA-job Pyrrole-3-N2+-scan-d09-169-n800
 OpenBabel09191813553D

 11 10  0  0  0  0  0  0  0  0999 V2000
    6.1501    5.6203    1.3951 N   0  0  0  0  0  0  0  0  0  0  0  0
    7.0384    6.2584    1.5555 N   0  0  0  0  0  0  0  0  0  0  0  0
   -3.1546   -1.2951   -0.2801 C   0  0  0  0  0  0  0  0  0  0  0  0
   -3.5894   -0.2951   -1.0938 C   0  0  0  0  0  0  0  0  0  0  0  0
   -4.5729   -0.0002   -1.4331 H   0  0  0  0  0  0  0  0  0  0  0  0
   -2.5488    0.5934   -0.7365 C   0  0  0  0  0  0  0  0  0  0  0  0
   -2.6861    1.6661   -0.6269 H   0  0  0  0  0  0  0  0  0  0  0  0
   -1.4807   -0.0446   -0.0917 N   0  0  0  0  0  0  0  0  0  0  0  0
   -0.6374    0.4240    0.2294 H   0  0  0  0  0  0  0  0  0  0  0  0
   -1.7990   -1.3413    0.0556 C   0  0  0  0  0  0  0  0  0  0  0  0
   -1.1363   -2.1539    0.3178 H   0  0  0  0  0  0  0  0  0  0  0  0
  1  2  3  0  0  0  0
  3 10  2  0  0  0  0
  4  6  2  0  0  0  0
  4  3  1  0  0  0  0
  5  4  1  0  0  0  0
  6  7  1  0  0  0  0
  6  8  1  0  0  0  0
  8 10  1  0  0  0  0
  8  9  1  0  0  0  0
 10 11  1  0  0  0  0
M  RAD  1   3   2
M  END
