Coordinates from ORCA-job Pyrrole-3-N2+-scan-d09-169-n800
 OpenBabel09191813553D

 11 10  0  0  0  0  0  0  0  0999 V2000
    3.6250    3.8334    0.9040 N   0  0  0  0  0  0  0  0  0  0  0  0
    4.4975    4.4925    1.0655 N   0  0  0  0  0  0  0  0  0  0  0  0
   -2.5858   -0.8935   -0.0959 C   0  0  0  0  0  0  0  0  0  0  0  0
   -3.0550    0.0727   -0.9313 C   0  0  0  0  0  0  0  0  0  0  0  0
   -4.0522    0.3548   -1.2401 H   0  0  0  0  0  0  0  0  0  0  0  0
   -2.0002    0.9738   -0.6564 C   0  0  0  0  0  0  0  0  0  0  0  0
   -2.1328    2.0503   -0.5859 H   0  0  0  0  0  0  0  0  0  0  0  0
   -0.9050    0.3617   -0.0324 N   0  0  0  0  0  0  0  0  0  0  0  0
   -0.0485    0.8424    0.2319 H   0  0  0  0  0  0  0  0  0  0  0  0
   -1.2166   -0.9271    0.1824 C   0  0  0  0  0  0  0  0  0  0  0  0
   -0.5429   -1.7290    0.4495 H   0  0  0  0  0  0  0  0  0  0  0  0
  1  2  3  0  0  0  0
  3 10  2  0  0  0  0
  4  6  2  0  0  0  0
  4  3  1  0  0  0  0
  5  4  1  0  0  0  0
  6  7  1  0  0  0  0
  6  8  1  0  0  0  0
  8 10  1  0  0  0  0
  8  9  1  0  0  0  0
 10 11  1  0  0  0  0
M  RAD  1   3   2
M  END
