Coordinates from ORCA-job Pyrrole-3-N2+-scan-d09-169-n800
 OpenBabel09191813553D

 11 11  0  0  0  0  0  0  0  0999 V2000
    1.5316    0.8171    0.1725 N   0  0  0  0  0  0  0  0  0  0  0  0
    2.6362    0.7816    0.2793 N   0  0  0  0  0  0  0  0  0  0  0  0
   -0.0201    0.8244    0.0036 C   0  0  0  0  0  0  0  0  0  0  0  0
   -0.7876   -0.2326   -0.5472 C   0  0  0  0  0  0  0  0  0  0  0  0
   -0.4556   -1.1850   -0.9300 H   0  0  0  0  0  0  0  0  0  0  0  0
   -2.0702    0.2538   -0.4749 C   0  0  0  0  0  0  0  0  0  0  0  0
   -2.9985   -0.2058   -0.7801 H   0  0  0  0  0  0  0  0  0  0  0  0
   -2.0482    1.5201    0.0853 N   0  0  0  0  0  0  0  0  0  0  0  0
   -2.8714    2.0891    0.2447 H   0  0  0  0  0  0  0  0  0  0  0  0
   -0.7923    1.9097    0.3959 C   0  0  0  0  0  0  0  0  0  0  0  0
   -0.5405    2.8594    0.8421 H   0  0  0  0  0  0  0  0  0  0  0  0
  1  2  1  0  0  0  0
  3  1  1  0  0  0  0
  3 10  2  0  0  0  0
  4  6  2  0  0  0  0
  4  3  1  0  0  0  0
  5  4  1  0  0  0  0
  6  8  1  0  0  0  0
  7  6  1  0  0  0  0
  8  9  1  0  0  0  0
  8 10  1  0  0  0  0
 10 11  1  0  0  0  0
M  RAD  2   1   2   2   3
M  END
