Coordinates from ORCA-job Pyrrole-3-N2+-scan-d09-169-n800
 OpenBabel09191813553D

 11 10  0  0  0  0  0  0  0  0999 V2000
    1.8518    0.8235    0.2107 N   0  0  0  0  0  0  0  0  0  0  0  0
    2.9498    0.7941    0.3194 N   0  0  0  0  0  0  0  0  0  0  0  0
   -0.1769    0.8173   -0.0169 C   0  0  0  0  0  0  0  0  0  0  0  0
   -0.8455   -0.2583   -0.5649 C   0  0  0  0  0  0  0  0  0  0  0  0
   -0.5278   -1.2131   -0.9504 H   0  0  0  0  0  0  0  0  0  0  0  0
   -2.1355    0.2657   -0.4768 C   0  0  0  0  0  0  0  0  0  0  0  0
   -3.0550   -0.2103   -0.7882 H   0  0  0  0  0  0  0  0  0  0  0  0
   -2.1194    1.5235    0.0786 N   0  0  0  0  0  0  0  0  0  0  0  0
   -2.9426    2.0932    0.2382 H   0  0  0  0  0  0  0  0  0  0  0  0
   -0.8450    1.9275    0.3982 C   0  0  0  0  0  0  0  0  0  0  0  0
   -0.5706    2.8689    0.8433 H   0  0  0  0  0  0  0  0  0  0  0  0
  1  2  3  0  0  0  0
  3 10  2  0  0  0  0
  4  6  2  0  0  0  0
  4  3  1  0  0  0  0
  5  4  1  0  0  0  0
  6  8  1  0  0  0  0
  7  6  1  0  0  0  0
  8  9  1  0  0  0  0
  8 10  1  0  0  0  0
 10 11  1  0  0  0  0
M  RAD  1   3   2
M  END
