Coordinates from ORCA-job Pyrrole-3-N2+-scan-d09-169-n800
 OpenBabel09191813553D

 11 10  0  0  0  0  0  0  0  0999 V2000
    9.1979    7.7666    2.0368 N   0  0  0  0  0  0  0  0  0  0  0  0
   10.1056    8.3838    2.1684 N   0  0  0  0  0  0  0  0  0  0  0  0
   -3.8401   -1.7668   -0.4321 C   0  0  0  0  0  0  0  0  0  0  0  0
   -4.2638   -0.7588   -1.2420 C   0  0  0  0  0  0  0  0  0  0  0  0
   -5.2433   -0.4565   -1.5863 H   0  0  0  0  0  0  0  0  0  0  0  0
   -3.2216    0.1219   -0.8707 C   0  0  0  0  0  0  0  0  0  0  0  0
   -3.3545    1.1944   -0.7545 H   0  0  0  0  0  0  0  0  0  0  0  0
   -2.1614   -0.5262   -0.2228 N   0  0  0  0  0  0  0  0  0  0  0  0
   -1.3179   -0.0643    0.1075 H   0  0  0  0  0  0  0  0  0  0  0  0
   -2.4871   -1.8222   -0.0872 C   0  0  0  0  0  0  0  0  0  0  0  0
   -1.8305   -2.6400    0.1739 H   0  0  0  0  0  0  0  0  0  0  0  0
  1  2  3  0  0  0  0
  3 10  2  0  0  0  0
  4  6  2  0  0  0  0
  4  3  1  0  0  0  0
  5  4  1  0  0  0  0
  6  7  1  0  0  0  0
  6  8  1  0  0  0  0
  8 10  1  0  0  0  0
  8  9  1  0  0  0  0
 10 11  1  0  0  0  0
M  RAD  1   3   2
M  END
