Coordinates from ORCA-job Pyrrole-3-N2+-scan-d09-169-n800
 OpenBabel09191813553D

 11 10  0  0  0  0  0  0  0  0999 V2000
    3.5874    3.9708    1.1270 N   0  0  0  0  0  0  0  0  0  0  0  0
    4.4564    4.6218    1.3342 N   0  0  0  0  0  0  0  0  0  0  0  0
   -1.4450   -1.1115   -0.1646 C   0  0  0  0  0  0  0  0  0  0  0  0
   -2.5347   -0.9179   -0.9566 C   0  0  0  0  0  0  0  0  0  0  0  0
   -3.3643   -1.5548   -1.2313 H   0  0  0  0  0  0  0  0  0  0  0  0
   -2.6253    0.4656   -0.6792 C   0  0  0  0  0  0  0  0  0  0  0  0
   -3.5677    0.9963   -0.5709 H   0  0  0  0  0  0  0  0  0  0  0  0
   -1.4588    0.9863   -0.1024 N   0  0  0  0  0  0  0  0  0  0  0  0
   -1.3264    1.9611    0.1546 H   0  0  0  0  0  0  0  0  0  0  0  0
   -0.5966   -0.0276    0.0775 C   0  0  0  0  0  0  0  0  0  0  0  0
    0.4584    0.0419    0.3028 H   0  0  0  0  0  0  0  0  0  0  0  0
  1  2  3  0  0  0  0
  3 10  2  0  0  0  0
  4  6  2  0  0  0  0
  4  3  1  0  0  0  0
  5  4  1  0  0  0  0
  6  7  1  0  0  0  0
  6  8  1  0  0  0  0
  8 10  1  0  0  0  0
  8  9  1  0  0  0  0
 10 11  1  0  0  0  0
M  RAD  1   3   2
M  END
