Coordinates from ORCA-job Pyrrole-3-N2+-scan-d09-169-n800
 OpenBabel09191813553D

 11 10  0  0  0  0  0  0  0  0999 V2000
    5.8066    5.3789    1.3247 N   0  0  0  0  0  0  0  0  0  0  0  0
    6.6939    6.0185    1.4851 N   0  0  0  0  0  0  0  0  0  0  0  0
   -3.0775   -1.2420   -0.2614 C   0  0  0  0  0  0  0  0  0  0  0  0
   -3.5139   -0.2435   -1.0763 C   0  0  0  0  0  0  0  0  0  0  0  0
   -4.4980    0.0504   -1.4146 H   0  0  0  0  0  0  0  0  0  0  0  0
   -2.4735    0.6463   -0.7219 C   0  0  0  0  0  0  0  0  0  0  0  0
   -2.6115    1.7191   -0.6138 H   0  0  0  0  0  0  0  0  0  0  0  0
   -1.4039    0.0099   -0.0777 N   0  0  0  0  0  0  0  0  0  0  0  0
   -0.5602    0.4794    0.2409 H   0  0  0  0  0  0  0  0  0  0  0  0
   -1.7212   -1.2866    0.0719 C   0  0  0  0  0  0  0  0  0  0  0  0
   -1.0575   -2.0984    0.3344 H   0  0  0  0  0  0  0  0  0  0  0  0
  1  2  3  0  0  0  0
  3 10  2  0  0  0  0
  4  6  2  0  0  0  0
  4  3  1  0  0  0  0
  5  4  1  0  0  0  0
  6  7  1  0  0  0  0
  6  8  1  0  0  0  0
  8 10  1  0  0  0  0
  8  9  1  0  0  0  0
 10 11  1  0  0  0  0
M  RAD  1   3   2
M  END
