Coordinates from ORCA-job Pyrrole-3-N2+-scan-d09-169-n800
 OpenBabel09191813553D

 11 10  0  0  0  0  0  0  0  0999 V2000
    5.6218    5.2492    1.2871 N   0  0  0  0  0  0  0  0  0  0  0  0
    6.5088    5.8892    1.4472 N   0  0  0  0  0  0  0  0  0  0  0  0
   -3.0356   -1.2134   -0.2515 C   0  0  0  0  0  0  0  0  0  0  0  0
   -3.4736   -0.2159   -1.0666 C   0  0  0  0  0  0  0  0  0  0  0  0
   -4.4583    0.0770   -1.4042 H   0  0  0  0  0  0  0  0  0  0  0  0
   -2.4331    0.6747   -0.7143 C   0  0  0  0  0  0  0  0  0  0  0  0
   -2.5712    1.7475   -0.6072 H   0  0  0  0  0  0  0  0  0  0  0  0
   -1.3626    0.0395   -0.0706 N   0  0  0  0  0  0  0  0  0  0  0  0
   -0.5189    0.5098    0.2470 H   0  0  0  0  0  0  0  0  0  0  0  0
   -1.6791   -1.2572    0.0808 C   0  0  0  0  0  0  0  0  0  0  0  0
   -1.0148   -2.0684    0.3435 H   0  0  0  0  0  0  0  0  0  0  0  0
  1  2  3  0  0  0  0
  3 10  2  0  0  0  0
  4  6  2  0  0  0  0
  4  3  1  0  0  0  0
  5  4  1  0  0  0  0
  6  7  1  0  0  0  0
  6  8  1  0  0  0  0
  8 10  1  0  0  0  0
  8  9  1  0  0  0  0
 10 11  1  0  0  0  0
M  RAD  1   3   2
M  END
