Coordinates from ORCA-job Pyrrole-3-N2+-scan-d09-169-n800
 OpenBabel09191813553D

 11 10  0  0  0  0  0  0  0  0999 V2000
    7.0629    6.2591    1.5827 N   0  0  0  0  0  0  0  0  0  0  0  0
    7.9528    6.8949    1.7434 N   0  0  0  0  0  0  0  0  0  0  0  0
   -3.3588   -1.4365   -0.3277 C   0  0  0  0  0  0  0  0  0  0  0  0
   -3.7902   -0.4335   -1.1394 C   0  0  0  0  0  0  0  0  0  0  0  0
   -4.7723   -0.1366   -1.4810 H   0  0  0  0  0  0  0  0  0  0  0  0
   -2.7500    0.4529   -0.7759 C   0  0  0  0  0  0  0  0  0  0  0  0
   -2.8867    1.5254   -0.6633 H   0  0  0  0  0  0  0  0  0  0  0  0
   -1.6846   -0.1881   -0.1297 N   0  0  0  0  0  0  0  0  0  0  0  0
   -0.8419    0.2787    0.1958 H   0  0  0  0  0  0  0  0  0  0  0  0
   -2.0044   -1.4851    0.0123 C   0  0  0  0  0  0  0  0  0  0  0  0
   -1.3433   -2.2991    0.2740 H   0  0  0  0  0  0  0  0  0  0  0  0
  1  2  3  0  0  0  0
  3 10  2  0  0  0  0
  4  6  2  0  0  0  0
  4  3  1  0  0  0  0
  5  4  1  0  0  0  0
  6  7  1  0  0  0  0
  6  8  1  0  0  0  0
  8 10  1  0  0  0  0
  8  9  1  0  0  0  0
 10 11  1  0  0  0  0
M  RAD  1   3   2
M  END
