Coordinates from ORCA-job Pyrrole-3-N2+-scan-d09-169-n800
 OpenBabel09191813553D

 11 10  0  0  0  0  0  0  0  0999 V2000
    4.5558    4.4944    1.0732 N   0  0  0  0  0  0  0  0  0  0  0  0
    5.4391    5.1399    1.2312 N   0  0  0  0  0  0  0  0  0  0  0  0
   -2.7926   -1.0487   -0.1874 C   0  0  0  0  0  0  0  0  0  0  0  0
   -3.2420   -0.0606   -1.0080 C   0  0  0  0  0  0  0  0  0  0  0  0
   -4.2310    0.2247   -1.3394 H   0  0  0  0  0  0  0  0  0  0  0  0
   -2.2029    0.8380   -0.6729 C   0  0  0  0  0  0  0  0  0  0  0  0
   -2.3454    1.9111   -0.5742 H   0  0  0  0  0  0  0  0  0  0  0  0
   -1.1237    0.2137   -0.0330 N   0  0  0  0  0  0  0  0  0  0  0  0
   -0.2791    0.6908    0.2722 H   0  0  0  0  0  0  0  0  0  0  0  0
   -1.4327   -1.0828    0.1328 C   0  0  0  0  0  0  0  0  0  0  0  0
   -0.7622   -1.8885    0.3968 H   0  0  0  0  0  0  0  0  0  0  0  0
  1  2  3  0  0  0  0
  3 10  2  0  0  0  0
  4  6  2  0  0  0  0
  4  3  1  0  0  0  0
  5  4  1  0  0  0  0
  6  7  1  0  0  0  0
  6  8  1  0  0  0  0
  8 10  1  0  0  0  0
  8  9  1  0  0  0  0
 10 11  1  0  0  0  0
M  RAD  1   3   2
M  END
