Coordinates from ORCA-job Pyrrole-3-N2+-scan-d09-169-n800
 OpenBabel09191813553D

 11 10  0  0  0  0  0  0  0  0999 V2000
    2.3761    1.0648    0.2716 N   0  0  0  0  0  0  0  0  0  0  0  0
    3.4781    1.1380    0.3019 N   0  0  0  0  0  0  0  0  0  0  0  0
   -0.4247    0.4741    0.2882 C   0  0  0  0  0  0  0  0  0  0  0  0
   -1.0016   -0.3258   -0.6531 C   0  0  0  0  0  0  0  0  0  0  0  0
   -0.8507   -1.3594   -0.9307 H   0  0  0  0  0  0  0  0  0  0  0  0
   -2.2425    0.3444   -0.6354 C   0  0  0  0  0  0  0  0  0  0  0  0
   -3.2011   -0.1469   -0.7745 H   0  0  0  0  0  0  0  0  0  0  0  0
   -2.1765    1.5877    0.0027 N   0  0  0  0  0  0  0  0  0  0  0  0
   -2.9655    2.2170    0.1210 H   0  0  0  0  0  0  0  0  0  0  0  0
   -0.9257    1.7605    0.4703 C   0  0  0  0  0  0  0  0  0  0  0  0
   -0.4823    2.6774    0.8291 H   0  0  0  0  0  0  0  0  0  0  0  0
  1  2  3  0  0  0  0
  3 10  2  0  0  0  0
  4  6  2  0  0  0  0
  4  3  1  0  0  0  0
  5  4  1  0  0  0  0
  6  8  1  0  0  0  0
  7  6  1  0  0  0  0
  8  9  1  0  0  0  0
  8 10  1  0  0  0  0
 10 11  1  0  0  0  0
M  RAD  1   3   2
M  END
