Coordinates from ORCA-job Pyrrole-3-N2+-scan-d09-169-n800
 OpenBabel09191813553D

 11 10  0  0  0  0  0  0  0  0999 V2000
    2.6036    2.6929    0.8105 N   0  0  0  0  0  0  0  0  0  0  0  0
    3.4992    3.3083    1.0103 N   0  0  0  0  0  0  0  0  0  0  0  0
   -0.9111   -0.6694   -0.0817 C   0  0  0  0  0  0  0  0  0  0  0  0
   -2.0198   -0.7966   -0.8610 C   0  0  0  0  0  0  0  0  0  0  0  0
   -2.6443   -1.6422   -1.1143 H   0  0  0  0  0  0  0  0  0  0  0  0
   -2.4853    0.5127   -0.6019 C   0  0  0  0  0  0  0  0  0  0  0  0
   -3.5361    0.7665   -0.4887 H   0  0  0  0  0  0  0  0  0  0  0  0
   -1.5010    1.3429   -0.0493 N   0  0  0  0  0  0  0  0  0  0  0  0
   -1.6386    2.3208    0.1917 H   0  0  0  0  0  0  0  0  0  0  0  0
   -0.3887    0.6112    0.1312 C   0  0  0  0  0  0  0  0  0  0  0  0
    0.6055    0.9849    0.3442 H   0  0  0  0  0  0  0  0  0  0  0  0
  1  2  3  0  0  0  0
  3 10  2  0  0  0  0
  4  6  2  0  0  0  0
  4  3  1  0  0  0  0
  5  4  1  0  0  0  0
  6  7  1  0  0  0  0
  6  8  1  0  0  0  0
  8 10  1  0  0  0  0
  8  9  1  0  0  0  0
 10 11  1  0  0  0  0
M  RAD  1   3   2
M  END
