Coordinates from ORCA-job Pyrrole-3-N2+-scan-d09-169-n800
 OpenBabel09191813553D

 11 10  0  0  0  0  0  0  0  0999 V2000
    2.5793    2.5596    0.7879 N   0  0  0  0  0  0  0  0  0  0  0  0
    3.4873    3.1550    0.9921 N   0  0  0  0  0  0  0  0  0  0  0  0
   -0.8543   -0.5990   -0.0759 C   0  0  0  0  0  0  0  0  0  0  0  0
   -1.9570   -0.7854   -0.8520 C   0  0  0  0  0  0  0  0  0  0  0  0
   -2.5381   -1.6625   -1.1011 H   0  0  0  0  0  0  0  0  0  0  0  0
   -2.4879    0.4993   -0.5955 C   0  0  0  0  0  0  0  0  0  0  0  0
   -3.5499    0.6998   -0.4809 H   0  0  0  0  0  0  0  0  0  0  0  0
   -1.5457    1.3798   -0.0474 N   0  0  0  0  0  0  0  0  0  0  0  0
   -1.7327    2.3501    0.1910 H   0  0  0  0  0  0  0  0  0  0  0  0
   -0.3968    0.7063    0.1322 C   0  0  0  0  0  0  0  0  0  0  0  0
    0.5793    1.1289    0.3407 H   0  0  0  0  0  0  0  0  0  0  0  0
  1  2  3  0  0  0  0
  3 10  2  0  0  0  0
  4  6  2  0  0  0  0
  4  3  1  0  0  0  0
  5  4  1  0  0  0  0
  6  7  1  0  0  0  0
  6  8  1  0  0  0  0
  8 10  1  0  0  0  0
  8  9  1  0  0  0  0
 10 11  1  0  0  0  0
M  RAD  1   3   2
M  END
