Coordinates from ORCA-job Pyrrole-3-N2+-scan-d09-169-n800
 OpenBabel09191813553D

 11 10  0  0  0  0  0  0  0  0999 V2000
    2.5793    1.9539    0.6389 N   0  0  0  0  0  0  0  0  0  0  0  0
    3.6648    2.0982    0.7861 N   0  0  0  0  0  0  0  0  0  0  0  0
   -0.5895   -0.0955    0.0233 C   0  0  0  0  0  0  0  0  0  0  0  0
   -1.5289   -0.6534   -0.7889 C   0  0  0  0  0  0  0  0  0  0  0  0
   -1.7708   -1.6783   -1.0343 H   0  0  0  0  0  0  0  0  0  0  0  0
   -2.4717    0.3813   -0.5906 C   0  0  0  0  0  0  0  0  0  0  0  0
   -3.5430    0.2127   -0.5192 H   0  0  0  0  0  0  0  0  0  0  0  0
   -1.9065    1.5369   -0.0343 N   0  0  0  0  0  0  0  0  0  0  0  0
   -2.4195    2.3914    0.1657 H   0  0  0  0  0  0  0  0  0  0  0  0
   -0.6093    1.2895    0.2103 C   0  0  0  0  0  0  0  0  0  0  0  0
    0.1786    1.9954    0.4341 H   0  0  0  0  0  0  0  0  0  0  0  0
  1  2  3  0  0  0  0
  3 10  2  0  0  0  0
  4  6  2  0  0  0  0
  4  3  1  0  0  0  0
  5  4  1  0  0  0  0
  6  7  1  0  0  0  0
  6  8  1  0  0  0  0
  8  9  1  0  0  0  0
  8 10  1  0  0  0  0
 10 11  1  0  0  0  0
M  RAD  1   3   2
M  END
