Coordinates from ORCA-job Pyrrole-3-N2+-scan-d09-169-n800
 OpenBabel09191813553D

 11 10  0  0  0  0  0  0  0  0999 V2000
    4.5297    4.4754    1.0679 N   0  0  0  0  0  0  0  0  0  0  0  0
    5.4126    5.1215    1.2261 N   0  0  0  0  0  0  0  0  0  0  0  0
   -2.7865   -1.0447   -0.1857 C   0  0  0  0  0  0  0  0  0  0  0  0
   -3.2364   -0.0569   -1.0065 C   0  0  0  0  0  0  0  0  0  0  0  0
   -4.2255    0.2282   -1.3377 H   0  0  0  0  0  0  0  0  0  0  0  0
   -2.1973    0.8421   -0.6719 C   0  0  0  0  0  0  0  0  0  0  0  0
   -2.3399    1.9151   -0.5735 H   0  0  0  0  0  0  0  0  0  0  0  0
   -1.1178    0.2181   -0.0322 N   0  0  0  0  0  0  0  0  0  0  0  0
   -0.2732    0.6954    0.2727 H   0  0  0  0  0  0  0  0  0  0  0  0
   -1.4265   -1.0784    0.1341 C   0  0  0  0  0  0  0  0  0  0  0  0
   -0.7559   -1.8839    0.3981 H   0  0  0  0  0  0  0  0  0  0  0  0
  1  2  3  0  0  0  0
  3 10  2  0  0  0  0
  4  6  2  0  0  0  0
  4  3  1  0  0  0  0
  5  4  1  0  0  0  0
  6  7  1  0  0  0  0
  6  8  1  0  0  0  0
  8 10  1  0  0  0  0
  8  9  1  0  0  0  0
 10 11  1  0  0  0  0
M  RAD  1   3   2
M  END
