Coordinates from ORCA-job Pyrrole-3-N2+-scan-d09-169-n800
 OpenBabel09191813553D

 11 10  0  0  0  0  0  0  0  0999 V2000
    6.3484    5.7593    1.4358 N   0  0  0  0  0  0  0  0  0  0  0  0
    7.2371    6.3969    1.5962 N   0  0  0  0  0  0  0  0  0  0  0  0
   -3.1991   -1.3258   -0.2906 C   0  0  0  0  0  0  0  0  0  0  0  0
   -3.6330   -0.3250   -1.1038 C   0  0  0  0  0  0  0  0  0  0  0  0
   -4.6161   -0.0295   -1.4437 H   0  0  0  0  0  0  0  0  0  0  0  0
   -2.5924    0.5629   -0.7449 C   0  0  0  0  0  0  0  0  0  0  0  0
   -2.7294    1.6356   -0.6347 H   0  0  0  0  0  0  0  0  0  0  0  0
   -1.5250   -0.0759   -0.0998 N   0  0  0  0  0  0  0  0  0  0  0  0
   -0.6818    0.3921    0.2224 H   0  0  0  0  0  0  0  0  0  0  0  0
   -1.8438   -1.3727    0.0461 C   0  0  0  0  0  0  0  0  0  0  0  0
   -1.1816   -2.1858    0.3082 H   0  0  0  0  0  0  0  0  0  0  0  0
  1  2  3  0  0  0  0
  3 10  2  0  0  0  0
  4  6  2  0  0  0  0
  4  3  1  0  0  0  0
  5  4  1  0  0  0  0
  6  7  1  0  0  0  0
  6  8  1  0  0  0  0
  8 10  1  0  0  0  0
  8  9  1  0  0  0  0
 10 11  1  0  0  0  0
M  RAD  1   3   2
M  END
