Coordinates from ORCA-job Pyrrole-3-N2+-scan-d09-169-n800
 OpenBabel09191813553D

 11 10  0  0  0  0  0  0  0  0999 V2000
    3.5585    3.9385    1.1197 N   0  0  0  0  0  0  0  0  0  0  0  0
    4.4277    4.5893    1.3267 N   0  0  0  0  0  0  0  0  0  0  0  0
   -1.4317   -1.1020   -0.1623 C   0  0  0  0  0  0  0  0  0  0  0  0
   -2.5232   -0.9152   -0.9534 C   0  0  0  0  0  0  0  0  0  0  0  0
   -3.3496   -1.5569   -1.2267 H   0  0  0  0  0  0  0  0  0  0  0  0
   -2.6213    0.4681   -0.6771 C   0  0  0  0  0  0  0  0  0  0  0  0
   -3.5665    0.9935   -0.5682 H   0  0  0  0  0  0  0  0  0  0  0  0
   -1.4572    0.9957   -0.1018 N   0  0  0  0  0  0  0  0  0  0  0  0
   -1.3299    1.9715    0.1542 H   0  0  0  0  0  0  0  0  0  0  0  0
   -0.5891   -0.0131    0.0780 C   0  0  0  0  0  0  0  0  0  0  0  0
    0.4657    0.0625    0.3022 H   0  0  0  0  0  0  0  0  0  0  0  0
  1  2  3  0  0  0  0
  3 10  2  0  0  0  0
  4  6  2  0  0  0  0
  4  3  1  0  0  0  0
  5  4  1  0  0  0  0
  6  7  1  0  0  0  0
  6  8  1  0  0  0  0
  8 10  1  0  0  0  0
  8  9  1  0  0  0  0
 10 11  1  0  0  0  0
M  RAD  1   3   2
M  END
