Coordinates from ORCA-job Pyrrole-3-N2+-scan-d09-169-n800
 OpenBabel09191813553D

 11 10  0  0  0  0  0  0  0  0999 V2000
    9.0412    7.6534    2.0016 N   0  0  0  0  0  0  0  0  0  0  0  0
    9.9448    8.2749    2.1405 N   0  0  0  0  0  0  0  0  0  0  0  0
   -3.8043   -1.7426   -0.4249 C   0  0  0  0  0  0  0  0  0  0  0  0
   -4.2286   -0.7348   -1.2348 C   0  0  0  0  0  0  0  0  0  0  0  0
   -5.2083   -0.4329   -1.5789 H   0  0  0  0  0  0  0  0  0  0  0  0
   -3.1868    0.1465   -0.8637 C   0  0  0  0  0  0  0  0  0  0  0  0
   -3.3203    1.2190   -0.7475 H   0  0  0  0  0  0  0  0  0  0  0  0
   -2.1261   -0.5010   -0.2159 N   0  0  0  0  0  0  0  0  0  0  0  0
   -1.2828   -0.0387    0.1142 H   0  0  0  0  0  0  0  0  0  0  0  0
   -2.4512   -1.7972   -0.0802 C   0  0  0  0  0  0  0  0  0  0  0  0
   -1.7941   -2.6147    0.1808 H   0  0  0  0  0  0  0  0  0  0  0  0
  1  2  3  0  0  0  0
  3 10  2  0  0  0  0
  4  6  2  0  0  0  0
  4  3  1  0  0  0  0
  5  4  1  0  0  0  0
  6  7  1  0  0  0  0
  6  8  1  0  0  0  0
  8 10  1  0  0  0  0
  8  9  1  0  0  0  0
 10 11  1  0  0  0  0
M  RAD  1   3   2
M  END
