Coordinates from ORCA-job Pyrrole-3-N2+-scan-d09-169-n800
 OpenBabel09191813553D

 11 11  0  0  0  0  0  0  0  0999 V2000
    1.1825    0.8098    0.1305 N   0  0  0  0  0  0  0  0  0  0  0  0
    2.3198    0.7678    0.2379 N   0  0  0  0  0  0  0  0  0  0  0  0
    0.1478    0.8336    0.0263 C   0  0  0  0  0  0  0  0  0  0  0  0
   -0.7323   -0.2226   -0.5366 C   0  0  0  0  0  0  0  0  0  0  0  0
   -0.3767   -1.1706   -0.9148 H   0  0  0  0  0  0  0  0  0  0  0  0
   -2.0007    0.2421   -0.4724 C   0  0  0  0  0  0  0  0  0  0  0  0
   -2.9328   -0.2119   -0.7757 H   0  0  0  0  0  0  0  0  0  0  0  0
   -1.9761    1.5232    0.0946 N   0  0  0  0  0  0  0  0  0  0  0  0
   -2.8015    2.0935    0.2543 H   0  0  0  0  0  0  0  0  0  0  0  0
   -0.7473    1.9066    0.3996 C   0  0  0  0  0  0  0  0  0  0  0  0
   -0.4994    2.8604    0.8472 H   0  0  0  0  0  0  0  0  0  0  0  0
  1  2  1  0  0  0  0
  3  1  1  0  0  0  0
  3 10  2  0  0  0  0
  4  6  2  0  0  0  0
  4  3  1  0  0  0  0
  5  4  1  0  0  0  0
  6  8  1  0  0  0  0
  7  6  1  0  0  0  0
  8  9  1  0  0  0  0
  8 10  1  0  0  0  0
 10 11  1  0  0  0  0
M  RAD  2   1   2   2   3
M  END
