Coordinates from ORCA-job Pyrrole-3-N2+-scan-d09-169-n800
 OpenBabel09191813553D

 11 10  0  0  0  0  0  0  0  0999 V2000
    5.2655    4.9982    1.2149 N   0  0  0  0  0  0  0  0  0  0  0  0
    6.1515    5.6399    1.3743 N   0  0  0  0  0  0  0  0  0  0  0  0
   -2.9552   -1.1584   -0.2311 C   0  0  0  0  0  0  0  0  0  0  0  0
   -3.3956   -0.1631   -1.0479 C   0  0  0  0  0  0  0  0  0  0  0  0
   -4.3813    0.1282   -1.3839 H   0  0  0  0  0  0  0  0  0  0  0  0
   -2.3555    0.7294   -0.6997 C   0  0  0  0  0  0  0  0  0  0  0  0
   -2.4947    1.8023   -0.5947 H   0  0  0  0  0  0  0  0  0  0  0  0
   -1.2829    0.0967   -0.0570 N   0  0  0  0  0  0  0  0  0  0  0  0
   -0.4387    0.5685    0.2574 H   0  0  0  0  0  0  0  0  0  0  0  0
   -1.5977   -1.1998    0.0980 C   0  0  0  0  0  0  0  0  0  0  0  0
   -0.9320   -2.0098    0.3610 H   0  0  0  0  0  0  0  0  0  0  0  0
  1  2  3  0  0  0  0
  3 10  2  0  0  0  0
  4  6  2  0  0  0  0
  4  3  1  0  0  0  0
  5  4  1  0  0  0  0
  6  7  1  0  0  0  0
  6  8  1  0  0  0  0
  8 10  1  0  0  0  0
  8  9  1  0  0  0  0
 10 11  1  0  0  0  0
M  RAD  1   3   2
M  END
