Coordinates from ORCA-job Pyrrole-3-N2+-scan-d09-169-n800
 OpenBabel09191813553D

 11 10  0  0  0  0  0  0  0  0999 V2000
    4.7656    4.6440    1.1145 N   0  0  0  0  0  0  0  0  0  0  0  0
    5.6498    5.2883    1.2731 N   0  0  0  0  0  0  0  0  0  0  0  0
   -2.8410   -1.0812   -0.2011 C   0  0  0  0  0  0  0  0  0  0  0  0
   -3.2871   -0.0905   -1.0203 C   0  0  0  0  0  0  0  0  0  0  0  0
   -4.2749    0.1971   -1.3534 H   0  0  0  0  0  0  0  0  0  0  0  0
   -2.2476    0.8060   -0.6804 C   0  0  0  0  0  0  0  0  0  0  0  0
   -2.3889    1.8790   -0.5794 H   0  0  0  0  0  0  0  0  0  0  0  0
   -1.1708    0.1786   -0.0395 N   0  0  0  0  0  0  0  0  0  0  0  0
   -0.3264    0.6537    0.2691 H   0  0  0  0  0  0  0  0  0  0  0  0
   -1.4820   -1.1180    0.1224 C   0  0  0  0  0  0  0  0  0  0  0  0
   -0.8132   -1.9252    0.3860 H   0  0  0  0  0  0  0  0  0  0  0  0
  1  2  3  0  0  0  0
  3 10  2  0  0  0  0
  4  6  2  0  0  0  0
  4  3  1  0  0  0  0
  5  4  1  0  0  0  0
  6  7  1  0  0  0  0
  6  8  1  0  0  0  0
  8 10  1  0  0  0  0
  8  9  1  0  0  0  0
 10 11  1  0  0  0  0
M  RAD  1   3   2
M  END
