Coordinates from ORCA-job Pyrrole-3-N2+-scan-d09-169-n800
 OpenBabel09191813553D

 11 10  0  0  0  0  0  0  0  0999 V2000
    3.6632    4.0571    1.1470 N   0  0  0  0  0  0  0  0  0  0  0  0
    4.5312    4.7092    1.3546 N   0  0  0  0  0  0  0  0  0  0  0  0
   -1.4811   -1.1370   -0.1704 C   0  0  0  0  0  0  0  0  0  0  0  0
   -2.5657   -0.9249   -0.9646 C   0  0  0  0  0  0  0  0  0  0  0  0
   -3.4046   -1.5482   -1.2423 H   0  0  0  0  0  0  0  0  0  0  0  0
   -2.6353    0.4594   -0.6849 C   0  0  0  0  0  0  0  0  0  0  0  0
   -3.5695    1.0046   -0.5779 H   0  0  0  0  0  0  0  0  0  0  0  0
   -1.4622    0.9607   -0.1043 N   0  0  0  0  0  0  0  0  0  0  0  0
   -1.3152    1.9328    0.1548 H   0  0  0  0  0  0  0  0  0  0  0  0
   -0.6164   -0.0669    0.0757 C   0  0  0  0  0  0  0  0  0  0  0  0
    0.4390   -0.0145    0.3035 H   0  0  0  0  0  0  0  0  0  0  0  0
  1  2  3  0  0  0  0
  3 10  2  0  0  0  0
  4  6  2  0  0  0  0
  4  3  1  0  0  0  0
  5  4  1  0  0  0  0
  6  7  1  0  0  0  0
  6  8  1  0  0  0  0
  8 10  1  0  0  0  0
  8  9  1  0  0  0  0
 10 11  1  0  0  0  0
M  RAD  1   3   2
M  END
