Coordinates from ORCA-job Pyrrole-3-N2+-scan-d09-169-n800
 OpenBabel09191813553D

 11 10  0  0  0  0  0  0  0  0999 V2000
    3.9937    4.0914    0.9655 N   0  0  0  0  0  0  0  0  0  0  0  0
    4.8738    4.7412    1.1236 N   0  0  0  0  0  0  0  0  0  0  0  0
   -2.6625   -0.9602   -0.1443 C   0  0  0  0  0  0  0  0  0  0  0  0
   -3.1240    0.0175   -0.9704 C   0  0  0  0  0  0  0  0  0  0  0  0
   -4.1174    0.2963   -1.2941 H   0  0  0  0  0  0  0  0  0  0  0  0
   -2.0839    0.9228   -0.6566 C   0  0  0  0  0  0  0  0  0  0  0  0
   -2.2283    1.9965   -0.5680 H   0  0  0  0  0  0  0  0  0  0  0  0
   -0.9958    0.3089   -0.0219 N   0  0  0  0  0  0  0  0  0  0  0  0
   -0.1496    0.7919    0.2691 H   0  0  0  0  0  0  0  0  0  0  0  0
   -1.2991   -0.9868    0.1615 C   0  0  0  0  0  0  0  0  0  0  0  0
   -0.6234   -1.7875    0.4270 H   0  0  0  0  0  0  0  0  0  0  0  0
  1  2  3  0  0  0  0
  3 10  2  0  0  0  0
  4  6  2  0  0  0  0
  4  3  1  0  0  0  0
  5  4  1  0  0  0  0
  6  7  1  0  0  0  0
  6  8  1  0  0  0  0
  8 10  1  0  0  0  0
  8  9  1  0  0  0  0
 10 11  1  0  0  0  0
M  RAD  1   3   2
M  END
