Coordinates from ORCA-job Pyrrole-3-N2+-scan-d09-169-n800
 OpenBabel09191813553D

 11 10  0  0  0  0  0  0  0  0999 V2000
    2.0335    0.9429    0.2101 N   0  0  0  0  0  0  0  0  0  0  0  0
    3.1375    0.9456    0.2407 N   0  0  0  0  0  0  0  0  0  0  0  0
   -0.3024    0.5988    0.2686 C   0  0  0  0  0  0  0  0  0  0  0  0
   -0.8854   -0.2696   -0.6190 C   0  0  0  0  0  0  0  0  0  0  0  0
   -0.6616   -1.2871   -0.9032 H   0  0  0  0  0  0  0  0  0  0  0  0
   -2.1517    0.3307   -0.6084 C   0  0  0  0  0  0  0  0  0  0  0  0
   -3.0900   -0.1787   -0.7975 H   0  0  0  0  0  0  0  0  0  0  0  0
   -2.1345    1.5757    0.0186 N   0  0  0  0  0  0  0  0  0  0  0  0
   -2.9553    2.1553    0.1646 H   0  0  0  0  0  0  0  0  0  0  0  0
   -0.8873    1.8374    0.4723 C   0  0  0  0  0  0  0  0  0  0  0  0
   -0.5193    2.7810    0.8443 H   0  0  0  0  0  0  0  0  0  0  0  0
  1  2  3  0  0  0  0
  3 10  2  0  0  0  0
  4  6  2  0  0  0  0
  4  3  1  0  0  0  0
  5  4  1  0  0  0  0
  6  8  1  0  0  0  0
  7  6  1  0  0  0  0
  8  9  1  0  0  0  0
  8 10  1  0  0  0  0
 10 11  1  0  0  0  0
M  RAD  1   3   2
M  END
