Coordinates from ORCA-job Pyrrole-3-N2+-scan-d09-169-n800
 OpenBabel09191813553D

 11 10  0  0  0  0  0  0  0  0999 V2000
    2.7503    2.9029    0.8642 N   0  0  0  0  0  0  0  0  0  0  0  0
    3.6324    3.5380    1.0637 N   0  0  0  0  0  0  0  0  0  0  0  0
   -0.9997   -0.7549   -0.0948 C   0  0  0  0  0  0  0  0  0  0  0  0
   -2.1124   -0.8208   -0.8758 C   0  0  0  0  0  0  0  0  0  0  0  0
   -2.7813   -1.6309   -1.1317 H   0  0  0  0  0  0  0  0  0  0  0  0
   -2.5073    0.5114   -0.6147 C   0  0  0  0  0  0  0  0  0  0  0  0
   -3.5431    0.8206   -0.5018 H   0  0  0  0  0  0  0  0  0  0  0  0
   -1.4807    1.2870   -0.0594 N   0  0  0  0  0  0  0  0  0  0  0  0
   -1.5660    2.2704    0.1837 H   0  0  0  0  0  0  0  0  0  0  0  0
   -0.4106    0.4957    0.1216 C   0  0  0  0  0  0  0  0  0  0  0  0
    0.6018    0.8128    0.3363 H   0  0  0  0  0  0  0  0  0  0  0  0
  1  2  3  0  0  0  0
  3 10  2  0  0  0  0
  4  6  2  0  0  0  0
  4  3  1  0  0  0  0
  5  4  1  0  0  0  0
  6  7  1  0  0  0  0
  6  8  1  0  0  0  0
  8 10  1  0  0  0  0
  8  9  1  0  0  0  0
 10 11  1  0  0  0  0
M  RAD  1   3   2
M  END
