Coordinates from ORCA-job Pyrrole-3-N2+-scan-d09-169-n800
 OpenBabel09191813553D

 11 10  0  0  0  0  0  0  0  0999 V2000
    3.5451    3.7799    0.8940 N   0  0  0  0  0  0  0  0  0  0  0  0
    4.4121    4.4456    1.0581 N   0  0  0  0  0  0  0  0  0  0  0  0
   -2.5733   -0.8745   -0.0767 C   0  0  0  0  0  0  0  0  0  0  0  0
   -3.0435    0.0875   -0.9163 C   0  0  0  0  0  0  0  0  0  0  0  0
   -4.0416    0.3746   -1.2175 H   0  0  0  0  0  0  0  0  0  0  0  0
   -1.9789    0.9828   -0.6608 C   0  0  0  0  0  0  0  0  0  0  0  0
   -2.1023    2.0610   -0.5992 H   0  0  0  0  0  0  0  0  0  0  0  0
   -0.8820    0.3680   -0.0424 N   0  0  0  0  0  0  0  0  0  0  0  0
   -0.0192    0.8444    0.2087 H   0  0  0  0  0  0  0  0  0  0  0  0
   -1.2015   -0.9163    0.1878 C   0  0  0  0  0  0  0  0  0  0  0  0
   -0.5314   -1.7209    0.4555 H   0  0  0  0  0  0  0  0  0  0  0  0
  1  2  3  0  0  0  0
  3 10  2  0  0  0  0
  4  6  2  0  0  0  0
  4  3  1  0  0  0  0
  5  4  1  0  0  0  0
  6  7  1  0  0  0  0
  6  8  1  0  0  0  0
  8 10  1  0  0  0  0
  8  9  1  0  0  0  0
 10 11  1  0  0  0  0
M  RAD  1   3   2
M  END
