Coordinates from ORCA-job Pyrrole-3-N2+-scan-d09-169-n800
 OpenBabel09191813553D

 11 10  0  0  0  0  0  0  0  0999 V2000
    7.4467    6.5274    1.6620 N   0  0  0  0  0  0  0  0  0  0  0  0
    8.3373    7.1624    1.8224 N   0  0  0  0  0  0  0  0  0  0  0  0
   -3.4446   -1.4960   -0.3472 C   0  0  0  0  0  0  0  0  0  0  0  0
   -3.8749   -0.4919   -1.1583 C   0  0  0  0  0  0  0  0  0  0  0  0
   -4.8565   -0.1945   -1.5007 H   0  0  0  0  0  0  0  0  0  0  0  0
   -2.8348    0.3938   -0.7927 C   0  0  0  0  0  0  0  0  0  0  0  0
   -2.9713    1.4662   -0.6791 H   0  0  0  0  0  0  0  0  0  0  0  0
   -1.7702   -0.2482   -0.1461 N   0  0  0  0  0  0  0  0  0  0  0  0
   -0.9278    0.2180    0.1808 H   0  0  0  0  0  0  0  0  0  0  0  0
   -2.0906   -1.5453   -0.0058 C   0  0  0  0  0  0  0  0  0  0  0  0
   -1.4300   -2.3598    0.2557 H   0  0  0  0  0  0  0  0  0  0  0  0
  1  2  3  0  0  0  0
  3 10  2  0  0  0  0
  4  6  2  0  0  0  0
  4  3  1  0  0  0  0
  5  4  1  0  0  0  0
  6  7  1  0  0  0  0
  6  8  1  0  0  0  0
  8 10  1  0  0  0  0
  8  9  1  0  0  0  0
 10 11  1  0  0  0  0
M  RAD  1   3   2
M  END
