Coordinates from ORCA-job Pyrrole-3-N2+-scan-d09-169-n800
 OpenBabel09191813553D

 11 10  0  0  0  0  0  0  0  0999 V2000
    7.7118    6.7120    1.7165 N   0  0  0  0  0  0  0  0  0  0  0  0
    8.6024    7.3469    1.8772 N   0  0  0  0  0  0  0  0  0  0  0  0
   -3.5036   -1.5371   -0.3607 C   0  0  0  0  0  0  0  0  0  0  0  0
   -3.9332   -0.5324   -1.1714 C   0  0  0  0  0  0  0  0  0  0  0  0
   -4.9146   -0.2346   -1.5142 H   0  0  0  0  0  0  0  0  0  0  0  0
   -2.8934    0.3530   -0.8043 C   0  0  0  0  0  0  0  0  0  0  0  0
   -3.0300    1.4253   -0.6900 H   0  0  0  0  0  0  0  0  0  0  0  0
   -1.8294   -0.2895   -0.1573 N   0  0  0  0  0  0  0  0  0  0  0  0
   -0.9872    0.1764    0.1706 H   0  0  0  0  0  0  0  0  0  0  0  0
   -2.1499   -1.5867   -0.0183 C   0  0  0  0  0  0  0  0  0  0  0  0
   -1.4895   -2.4014    0.2431 H   0  0  0  0  0  0  0  0  0  0  0  0
  1  2  3  0  0  0  0
  3 10  2  0  0  0  0
  4  6  2  0  0  0  0
  4  3  1  0  0  0  0
  5  4  1  0  0  0  0
  6  7  1  0  0  0  0
  6  8  1  0  0  0  0
  8 10  1  0  0  0  0
  8  9  1  0  0  0  0
 10 11  1  0  0  0  0
M  RAD  1   3   2
M  END
