Coordinates from ORCA-job Pyrrole-3-N2+-scan-d09-169-n800
 OpenBabel09191813553D

 11 10  0  0  0  0  0  0  0  0999 V2000
    6.8382    6.1016    1.5361 N   0  0  0  0  0  0  0  0  0  0  0  0
    7.7274    6.7382    1.6973 N   0  0  0  0  0  0  0  0  0  0  0  0
   -3.3085   -1.4017   -0.3162 C   0  0  0  0  0  0  0  0  0  0  0  0
   -3.7407   -0.3993   -1.1283 C   0  0  0  0  0  0  0  0  0  0  0  0
   -4.7231   -0.1029   -1.4695 H   0  0  0  0  0  0  0  0  0  0  0  0
   -2.7004    0.4876   -0.7660 C   0  0  0  0  0  0  0  0  0  0  0  0
   -2.8373    1.5601   -0.6541 H   0  0  0  0  0  0  0  0  0  0  0  0
   -1.6344   -0.1528   -0.1202 N   0  0  0  0  0  0  0  0  0  0  0  0
   -0.7917    0.3144    0.2044 H   0  0  0  0  0  0  0  0  0  0  0  0
   -1.9539   -1.4497    0.0229 C   0  0  0  0  0  0  0  0  0  0  0  0
   -1.2924   -2.2634    0.2847 H   0  0  0  0  0  0  0  0  0  0  0  0
  1  2  3  0  0  0  0
  3 10  2  0  0  0  0
  4  6  2  0  0  0  0
  4  3  1  0  0  0  0
  5  4  1  0  0  0  0
  6  7  1  0  0  0  0
  6  8  1  0  0  0  0
  8 10  1  0  0  0  0
  8  9  1  0  0  0  0
 10 11  1  0  0  0  0
M  RAD  1   3   2
M  END
