Coordinates from ORCA-job Pyrrole-3-N2+-scan-d09-169-n800
 OpenBabel09191813553D

 11 10  0  0  0  0  0  0  0  0999 V2000
    3.3077    3.6711    1.0570 N   0  0  0  0  0  0  0  0  0  0  0  0
    4.1721    4.3287    1.2626 N   0  0  0  0  0  0  0  0  0  0  0  0
   -1.3275   -1.0260   -0.1427 C   0  0  0  0  0  0  0  0  0  0  0  0
   -2.4323   -0.8877   -0.9252 C   0  0  0  0  0  0  0  0  0  0  0  0
   -3.2356   -1.5631   -1.1860 H   0  0  0  0  0  0  0  0  0  0  0  0
   -2.5816    0.4928   -0.6583 C   0  0  0  0  0  0  0  0  0  0  0  0
   -3.5456    0.9819   -0.5446 H   0  0  0  0  0  0  0  0  0  0  0  0
   -1.4337    1.0698   -0.0981 N   0  0  0  0  0  0  0  0  0  0  0  0
   -1.3419    2.0517    0.1492 H   0  0  0  0  0  0  0  0  0  0  0  0
   -0.5256    0.0969    0.0815 C   0  0  0  0  0  0  0  0  0  0  0  0
    0.5274    0.2160    0.2957 H   0  0  0  0  0  0  0  0  0  0  0  0
  1  2  3  0  0  0  0
  3 10  2  0  0  0  0
  4  6  2  0  0  0  0
  4  3  1  0  0  0  0
  5  4  1  0  0  0  0
  6  7  1  0  0  0  0
  6  8  1  0  0  0  0
  8 10  1  0  0  0  0
  8  9  1  0  0  0  0
 10 11  1  0  0  0  0
M  RAD  1   3   2
M  END
