Coordinates from ORCA-job Pyrrole-3-N2+-scan-d09-169-n800
 OpenBabel09191813553D

 11 10  0  0  0  0  0  0  0  0999 V2000
    3.9804    4.0820    0.9632 N   0  0  0  0  0  0  0  0  0  0  0  0
    4.8605    4.7319    1.1212 N   0  0  0  0  0  0  0  0  0  0  0  0
   -2.6597   -0.9582   -0.1428 C   0  0  0  0  0  0  0  0  0  0  0  0
   -3.1212    0.0193   -0.9694 C   0  0  0  0  0  0  0  0  0  0  0  0
   -4.1147    0.2980   -1.2928 H   0  0  0  0  0  0  0  0  0  0  0  0
   -2.0811    0.9248   -0.6563 C   0  0  0  0  0  0  0  0  0  0  0  0
   -2.2257    1.9985   -0.5682 H   0  0  0  0  0  0  0  0  0  0  0  0
   -0.9928    0.3110   -0.0218 N   0  0  0  0  0  0  0  0  0  0  0  0
   -0.1461    0.7941    0.2682 H   0  0  0  0  0  0  0  0  0  0  0  0
   -1.2960   -0.9844    0.1622 C   0  0  0  0  0  0  0  0  0  0  0  0
   -0.6201   -1.7850    0.4277 H   0  0  0  0  0  0  0  0  0  0  0  0
  1  2  3  0  0  0  0
  3 10  2  0  0  0  0
  4  6  2  0  0  0  0
  4  3  1  0  0  0  0
  5  4  1  0  0  0  0
  6  7  1  0  0  0  0
  6  8  1  0  0  0  0
  8 10  1  0  0  0  0
  8  9  1  0  0  0  0
 10 11  1  0  0  0  0
M  RAD  1   3   2
M  END
