Coordinates from ORCA-job Pyrrole-3-N2+-scan-d09-169-n800
 OpenBabel09191813553D

 11 10  0  0  0  0  0  0  0  0999 V2000
    2.5210    1.1467    0.3073 N   0  0  0  0  0  0  0  0  0  0  0  0
    3.6205    1.2497    0.3448 N   0  0  0  0  0  0  0  0  0  0  0  0
   -0.4724    0.4104    0.2795 C   0  0  0  0  0  0  0  0  0  0  0  0
   -1.0704   -0.3655   -0.6664 C   0  0  0  0  0  0  0  0  0  0  0  0
   -0.9574   -1.4042   -0.9436 H   0  0  0  0  0  0  0  0  0  0  0  0
   -2.2897    0.3469   -0.6426 C   0  0  0  0  0  0  0  0  0  0  0  0
   -3.2639   -0.1170   -0.7693 H   0  0  0  0  0  0  0  0  0  0  0  0
   -2.1822    1.5883   -0.0050 N   0  0  0  0  0  0  0  0  0  0  0  0
   -2.9494    2.2447    0.1119 H   0  0  0  0  0  0  0  0  0  0  0  0
   -0.9259    1.7159    0.4597 C   0  0  0  0  0  0  0  0  0  0  0  0
   -0.4469    2.6163    0.8150 H   0  0  0  0  0  0  0  0  0  0  0  0
  1  2  3  0  0  0  0
  3 10  2  0  0  0  0
  4  6  2  0  0  0  0
  4  3  1  0  0  0  0
  5  4  1  0  0  0  0
  6  8  1  0  0  0  0
  7  6  1  0  0  0  0
  8  9  1  0  0  0  0
  8 10  1  0  0  0  0
 10 11  1  0  0  0  0
M  RAD  1   3   2
M  END
