Coordinates from ORCA-job Pyrrole-3-N2+-scan-d09-169-n800
 OpenBabel09191813553D

 11 11  0  0  0  0  0  0  0  0999 V2000
    1.2617    0.8109    0.1399 N   0  0  0  0  0  0  0  0  0  0  0  0
    2.3874    0.7717    0.2473 N   0  0  0  0  0  0  0  0  0  0  0  0
    0.1077    0.8310    0.0208 C   0  0  0  0  0  0  0  0  0  0  0  0
   -0.7428   -0.2218   -0.5375 C   0  0  0  0  0  0  0  0  0  0  0  0
   -0.3955   -1.1717   -0.9176 H   0  0  0  0  0  0  0  0  0  0  0  0
   -2.0157    0.2445   -0.4729 C   0  0  0  0  0  0  0  0  0  0  0  0
   -2.9470   -0.2106   -0.7765 H   0  0  0  0  0  0  0  0  0  0  0  0
   -1.9915    1.5223    0.0925 N   0  0  0  0  0  0  0  0  0  0  0  0
   -2.8157    2.0927    0.2525 H   0  0  0  0  0  0  0  0  0  0  0  0
   -0.7559    1.9048    0.3978 C   0  0  0  0  0  0  0  0  0  0  0  0
   -0.5094    2.8582    0.8450 H   0  0  0  0  0  0  0  0  0  0  0  0
  1  2  1  0  0  0  0
  3  1  1  0  0  0  0
  3 10  2  0  0  0  0
  4  6  2  0  0  0  0
  4  3  1  0  0  0  0
  5  4  1  0  0  0  0
  6  8  1  0  0  0  0
  7  6  1  0  0  0  0
  8  9  1  0  0  0  0
  8 10  1  0  0  0  0
 10 11  1  0  0  0  0
M  RAD  2   1   2   2   3
M  END
