Coordinates from ORCA-job Pyrrole-3-N2+-scan-d09-169-n800
 OpenBabel09191813553D

 11 10  0  0  0  0  0  0  0  0999 V2000
    8.8846    7.5401    1.9663 N   0  0  0  0  0  0  0  0  0  0  0  0
    9.7843    8.1657    2.1120 N   0  0  0  0  0  0  0  0  0  0  0  0
   -3.7683   -1.7184   -0.4178 C   0  0  0  0  0  0  0  0  0  0  0  0
   -4.1934   -0.7109   -1.2276 C   0  0  0  0  0  0  0  0  0  0  0  0
   -5.1733   -0.4098   -1.5717 H   0  0  0  0  0  0  0  0  0  0  0  0
   -3.1522    0.1711   -0.8566 C   0  0  0  0  0  0  0  0  0  0  0  0
   -3.2864    1.2435   -0.7405 H   0  0  0  0  0  0  0  0  0  0  0  0
   -2.0910   -0.4756   -0.2089 N   0  0  0  0  0  0  0  0  0  0  0  0
   -1.2480   -0.0127    0.1212 H   0  0  0  0  0  0  0  0  0  0  0  0
   -2.4152   -1.7720   -0.0731 C   0  0  0  0  0  0  0  0  0  0  0  0
   -1.7575   -2.5891    0.1879 H   0  0  0  0  0  0  0  0  0  0  0  0
  1  2  3  0  0  0  0
  3 10  2  0  0  0  0
  4  6  2  0  0  0  0
  4  3  1  0  0  0  0
  5  4  1  0  0  0  0
  6  7  1  0  0  0  0
  6  8  1  0  0  0  0
  8 10  1  0  0  0  0
  8  9  1  0  0  0  0
 10 11  1  0  0  0  0
M  RAD  1   3   2
M  END
