Coordinates from ORCA-job Pyrrole-3-N2+-scan-d09-169-n800
 OpenBabel09191813553D

 11 10  0  0  0  0  0  0  0  0999 V2000
    2.5533    2.6174    0.7916 N   0  0  0  0  0  0  0  0  0  0  0  0
    3.4611    3.2142    0.9923 N   0  0  0  0  0  0  0  0  0  0  0  0
   -0.8768   -0.6332   -0.0769 C   0  0  0  0  0  0  0  0  0  0  0  0
   -1.9831   -0.7876   -0.8550 C   0  0  0  0  0  0  0  0  0  0  0  0
   -2.5879   -1.6478   -1.1066 H   0  0  0  0  0  0  0  0  0  0  0  0
   -2.4789    0.5108   -0.5971 C   0  0  0  0  0  0  0  0  0  0  0  0
   -3.5351    0.7402   -0.4833 H   0  0  0  0  0  0  0  0  0  0  0  0
   -1.5135    1.3642   -0.0462 N   0  0  0  0  0  0  0  0  0  0  0  0
   -1.6738    2.3390    0.1935 H   0  0  0  0  0  0  0  0  0  0  0  0
   -0.3840    0.6590    0.1339 C   0  0  0  0  0  0  0  0  0  0  0  0
    0.6020    1.0558    0.3449 H   0  0  0  0  0  0  0  0  0  0  0  0
  1  2  3  0  0  0  0
  3 10  2  0  0  0  0
  4  6  2  0  0  0  0
  4  3  1  0  0  0  0
  5  4  1  0  0  0  0
  6  7  1  0  0  0  0
  6  8  1  0  0  0  0
  8 10  1  0  0  0  0
  8  9  1  0  0  0  0
 10 11  1  0  0  0  0
M  RAD  1   3   2
M  END
