Coordinates from ORCA-job Pyrrole-3-N2+-scan-d09-169-n800
 OpenBabel09191813553D

 11 10  0  0  0  0  0  0  0  0999 V2000
    7.4999    6.5641    1.6727 N   0  0  0  0  0  0  0  0  0  0  0  0
    8.3903    7.1993    1.8335 N   0  0  0  0  0  0  0  0  0  0  0  0
   -3.4563   -1.5042   -0.3499 C   0  0  0  0  0  0  0  0  0  0  0  0
   -3.8865   -0.5001   -1.1610 C   0  0  0  0  0  0  0  0  0  0  0  0
   -4.8681   -0.2026   -1.5034 H   0  0  0  0  0  0  0  0  0  0  0  0
   -2.8466    0.3857   -0.7950 C   0  0  0  0  0  0  0  0  0  0  0  0
   -2.9832    1.4580   -0.6812 H   0  0  0  0  0  0  0  0  0  0  0  0
   -1.7821   -0.2564   -0.1483 N   0  0  0  0  0  0  0  0  0  0  0  0
   -0.9398    0.2098    0.1789 H   0  0  0  0  0  0  0  0  0  0  0  0
   -2.1024   -1.5535   -0.0083 C   0  0  0  0  0  0  0  0  0  0  0  0
   -1.4418   -2.3680    0.2532 H   0  0  0  0  0  0  0  0  0  0  0  0
  1  2  3  0  0  0  0
  3 10  2  0  0  0  0
  4  6  2  0  0  0  0
  4  3  1  0  0  0  0
  5  4  1  0  0  0  0
  6  7  1  0  0  0  0
  6  8  1  0  0  0  0
  8 10  1  0  0  0  0
  8  9  1  0  0  0  0
 10 11  1  0  0  0  0
M  RAD  1   3   2
M  END
