Coordinates from ORCA-job Pyrrole-3-N2+-scan-d09-169-n800
 OpenBabel09191813553D

 11 10  0  0  0  0  0  0  0  0999 V2000
    3.6254    4.0139    1.1369 N   0  0  0  0  0  0  0  0  0  0  0  0
    4.4941    4.6653    1.3443 N   0  0  0  0  0  0  0  0  0  0  0  0
   -1.4630   -1.1242   -0.1675 C   0  0  0  0  0  0  0  0  0  0  0  0
   -2.5501   -0.9215   -0.9607 C   0  0  0  0  0  0  0  0  0  0  0  0
   -3.3843   -1.5517   -1.2370 H   0  0  0  0  0  0  0  0  0  0  0  0
   -2.6304    0.4625   -0.6821 C   0  0  0  0  0  0  0  0  0  0  0  0
   -3.5688    1.0003   -0.5744 H   0  0  0  0  0  0  0  0  0  0  0  0
   -1.4607    0.9736   -0.1032 N   0  0  0  0  0  0  0  0  0  0  0  0
   -1.3211    1.9471    0.1549 H   0  0  0  0  0  0  0  0  0  0  0  0
   -0.6065   -0.0471    0.0767 C   0  0  0  0  0  0  0  0  0  0  0  0
    0.4487    0.0139    0.3034 H   0  0  0  0  0  0  0  0  0  0  0  0
  1  2  3  0  0  0  0
  3 10  2  0  0  0  0
  4  6  2  0  0  0  0
  4  3  1  0  0  0  0
  5  4  1  0  0  0  0
  6  7  1  0  0  0  0
  6  8  1  0  0  0  0
  8 10  1  0  0  0  0
  8  9  1  0  0  0  0
 10 11  1  0  0  0  0
M  RAD  1   3   2
M  END
