1,2,4-Triazine-3-UB3LYP-aug-cc-pVDZ-Doublet.log
 OpenBabel04131813123D
Gaussian home/ubuntu/g09/g09 #p Temperature=298.15 opt freq UB3LYP/aug-cc-pVDZ
  8  8  0  0  0  0  0  0  0  0999 V2000
   -0.1608   -1.2950   -0.0001 C   0  0  0  0  0  0  0  0  0  0  0  0
    0.0870    1.2416   -0.0001 C   0  0  0  0  0  0  0  0  0  0  0  0
    0.1563    2.3303   -0.0001 H   0  0  0  0  0  0  0  0  0  0  0  0
    1.2324    0.4275    0.0002 C   0  0  0  0  0  0  0  0  0  0  0  0
    2.2425    0.8430    0.0003 H   0  0  0  0  0  0  0  0  0  0  0  0
    1.0902   -0.9004   -0.0001 N   0  0  0  0  0  0  0  0  0  0  0  0
   -1.2799   -0.6109    0.0002 N   0  0  0  0  0  0  0  0  0  0  0  0
   -1.1462    0.7373   -0.0001 N   0  0  0  0  0  0  0  0  0  0  0  0
  1  6  1  0  0  0  0
  1  7  2  0  0  0  0
  2  3  1  0  0  0  0
  2  8  2  0  0  0  0
  2  4  1  0  0  0  0
  4  5  1  0  0  0  0
  6  4  2  0  0  0  0
  8  7  1  0  0  0  0
M  RAD  1   1   2
M  END
