1,3,5-(CH3)3-Pyrazole-4-UB3LYP-aug-cc-pVDZ-Doublet.log
 OpenBabel04131813123D
Gaussian home/ubuntu/g09/g09 #p Temperature=298.15 opt freq UB3LYP/aug-cc-pVDZ
 17 17  0  0  0  0  0  0  0  0999 V2000
   -0.5264   -1.2266   -0.0000 C   0  0  0  0  0  0  0  0  0  0  0  0
   -1.4258   -0.1443   -0.0000 C   0  0  0  0  0  0  0  0  0  0  0  0
    0.6014    0.6231    0.0001 N   0  0  0  0  0  0  0  0  0  0  0  0
    0.7653   -0.7339   -0.0000 C   0  0  0  0  0  0  0  0  0  0  0  0
   -0.7083    0.9908    0.0000 N   0  0  0  0  0  0  0  0  0  0  0  0
    2.0968   -1.4112    0.0000 C   0  0  0  0  0  0  0  0  0  0  0  0
    2.6906   -1.1468    0.8881 H   0  0  0  0  0  0  0  0  0  0  0  0
    1.9529   -2.4971    0.0001 H   0  0  0  0  0  0  0  0  0  0  0  0
    2.6906   -1.1469   -0.8882 H   0  0  0  0  0  0  0  0  0  0  0  0
   -2.9213   -0.1187   -0.0000 C   0  0  0  0  0  0  0  0  0  0  0  0
   -3.3262   -0.6273   -0.8863 H   0  0  0  0  0  0  0  0  0  0  0  0
   -3.3262   -0.6265    0.8868 H   0  0  0  0  0  0  0  0  0  0  0  0
   -3.2733    0.9194   -0.0005 H   0  0  0  0  0  0  0  0  0  0  0  0
    1.6281    1.6469   -0.0000 C   0  0  0  0  0  0  0  0  0  0  0  0
    2.2612    1.5705    0.8951 H   0  0  0  0  0  0  0  0  0  0  0  0
    2.2612    1.5703   -0.8951 H   0  0  0  0  0  0  0  0  0  0  0  0
    1.1171    2.6137   -0.0002 H   0  0  0  0  0  0  0  0  0  0  0  0
  1  2  1  0  0  0  0
  1  4  2  0  0  0  0
  2  5  2  0  0  0  0
  4  6  1  0  0  0  0
  4  3  1  0  0  0  0
  5  3  1  0  0  0  0
  6  8  1  0  0  0  0
  6  7  1  0  0  0  0
  9  6  1  0  0  0  0
 10  2  1  0  0  0  0
 10 12  1  0  0  0  0
 11 10  1  0  0  0  0
 13 10  1  0  0  0  0
 14  3  1  0  0  0  0
 14 15  1  0  0  0  0
 16 14  1  0  0  0  0
 17 14  1  0  0  0  0
M  RAD  1   1   2
M  END
