1-CH3-C2H4+-RB3LYP-aug-cc-pVDZ-Singlet.log
 OpenBabel04131813123D
Gaussian home/ubuntu/g09/g09 #p Temperature=298.15 opt freq RB3LYP/aug-cc-pVDZ
 10  9  0  0  0  0  0  0  0  0999 V2000
   -0.0000    0.4539    0.0000 C   0  0  0  0  0  0  0  0  0  0  0  0
    0.0002    1.5528    0.0001 H   0  0  0  0  0  0  0  0  0  0  0  0
    1.2842   -0.1981    0.0223 C   0  0  0  0  0  0  0  0  0  0  0  0
    1.6449   -0.0148   -1.0264 H   0  0  0  0  0  0  0  0  0  0  0  0
    2.0286    0.3442    0.6266 H   0  0  0  0  0  0  0  0  0  0  0  0
    1.2614   -1.2788    0.1947 H   0  0  0  0  0  0  0  0  0  0  0  0
   -1.2842   -0.1980   -0.0223 C   0  0  0  0  0  0  0  0  0  0  0  0
   -1.6442   -0.0168    1.0270 H   0  0  0  0  0  0  0  0  0  0  0  0
   -2.0290    0.3452   -0.6255 H   0  0  0  0  0  0  0  0  0  0  0  0
   -1.2615   -1.2784   -0.1965 H   0  0  0  0  0  0  0  0  0  0  0  0
  1  2  1  0  0  0  0
  1  3  1  0  0  0  0
  3  6  1  0  0  0  0
  3  5  1  0  0  0  0
  4  3  1  0  0  0  0
  7  1  1  0  0  0  0
  7  8  1  0  0  0  0
  9  7  1  0  0  0  0
 10  7  1  0  0  0  0
M  RAD  1   1   2
M  END
