1H-1,2,4-Triazole-3+-RB3LYP-aug-cc-pVDZ-Singlet.log
 OpenBabel04131813123D
Gaussian home/ubuntu/g09/g09 #p Temperature=298.15 opt=(maxcycles=1024) SCF=(max
  7  7  0  0  0  0  0  0  0  0999 V2000
    0.0351   -0.9975    0.0001 C   0  0  0  0  0  0  0  0  0  0  0  0
    0.6996    0.7913   -0.0000 C   0  0  0  0  0  0  0  0  0  0  0  0
    1.3283    1.6804    0.0000 H   0  0  0  0  0  0  0  0  0  0  0  0
   -0.6620    0.7687    0.0000 N   0  0  0  0  0  0  0  0  0  0  0  0
   -1.3412    1.5337    0.0000 H   0  0  0  0  0  0  0  0  0  0  0  0
   -1.1472   -0.5501   -0.0000 N   0  0  0  0  0  0  0  0  0  0  0  0
    1.1812   -0.5009   -0.0000 N   0  0  0  0  0  0  0  0  0  0  0  0
  2  4  1  0  0  0  0
  2  3  1  0  0  0  0
  4  5  1  0  0  0  0
  6  4  1  0  0  0  0
  6  1  2  0  0  0  0
  7  2  2  0  0  0  0
  7  1  1  0  0  0  0
M  RAD  1   1   2
M  END
