1H-1,2,4-Triazole-3+-UB3LYP-aug-cc-pVDZ-Triplet.log
 OpenBabel04131813133D
Gaussian home/ubuntu/g09/g09 #p Temperature=298.15 opt=(maxcycles=1024) SCF=(max
  7  7  0  0  0  0  0  0  0  0999 V2000
    0.3246   -1.1329    0.0005 C   0  0  0  0  0  0  0  0  0  0  0  0
    0.5362    0.9236    0.0002 C   0  0  0  0  0  0  0  0  0  0  0  0
    0.9152    1.9461    0.0002 H   0  0  0  0  0  0  0  0  0  0  0  0
   -0.8447    0.6043   -0.0000 N   0  0  0  0  0  0  0  0  0  0  0  0
   -1.6491    1.2404    0.0003 H   0  0  0  0  0  0  0  0  0  0  0  0
   -1.0271   -0.6749   -0.0003 N   0  0  0  0  0  0  0  0  0  0  0  0
    1.2388   -0.2052   -0.0004 N   0  0  0  0  0  0  0  0  0  0  0  0
  2  3  1  0  0  0  0
  4  2  1  0  0  0  0
  4  5  1  0  0  0  0
  6  4  1  0  0  0  0
  6  1  2  0  0  0  0
  7  2  2  0  0  0  0
  7  1  1  0  0  0  0
M  RAD  1   1   2
M  END
