1H-1,2,3-Triazole-4-N2+-UB3LYP-aug-cc-pVDZ-Triplet.log
 OpenBabel04131813123D
Gaussian home/ubuntu/g09/g09 #p Temperature=298.15 opt=(maxcycles=1024) SCF=(max
  9  9  0  0  0  0  0  0  0  0999 V2000
    1.7107   -0.5009    0.0012 N   0  0  0  0  0  0  0  0  0  0  0  0
    2.5370    0.3802   -0.0012 N   0  0  0  0  0  0  0  0  0  0  0  0
    0.3587   -0.2046    0.0004 C   0  0  0  0  0  0  0  0  0  0  0  0
   -1.5876    0.7705   -0.0000 N   0  0  0  0  0  0  0  0  0  0  0  0
   -2.4212    1.3620    0.0001 H   0  0  0  0  0  0  0  0  0  0  0  0
   -0.3353    1.0899    0.0004 C   0  0  0  0  0  0  0  0  0  0  0  0
    0.0703    2.1008    0.0007 H   0  0  0  0  0  0  0  0  0  0  0  0
   -1.7506   -0.7019   -0.0005 N   0  0  0  0  0  0  0  0  0  0  0  0
   -0.5936   -1.2012   -0.0002 N   0  0  0  0  0  0  0  0  0  0  0  0
  2  1  2  0  0  0  0
  3  6  2  0  0  0  0
  3  1  1  0  0  0  0
  4  5  1  0  0  0  0
  4  6  1  0  0  0  0
  6  7  1  0  0  0  0
  8  9  2  0  0  0  0
  8  4  1  0  0  0  0
  9  3  1  0  0  0  0
M  RAD  1   2   2
M  END
