2H-1,2,3-Triazole-4+-RB3LYP-aug-cc-pVDZ-Singlet.log
 OpenBabel04131813133D
Gaussian home/ubuntu/g09/g09 #p Temperature=298.15 opt=(maxcycles=1024) SCF=(max
  7  7  0  0  0  0  0  0  0  0999 V2000
   -0.1871   -1.0142    0.0000 C   0  0  0  0  0  0  0  0  0  0  0  0
   -1.2642   -0.1673   -0.0000 C   0  0  0  0  0  0  0  0  0  0  0  0
   -2.3466   -0.2239    0.0001 H   0  0  0  0  0  0  0  0  0  0  0  0
    0.8091    0.6080   -0.0000 N   0  0  0  0  0  0  0  0  0  0  0  0
    1.5492    1.3125    0.0001 H   0  0  0  0  0  0  0  0  0  0  0  0
    1.0476   -0.6965   -0.0000 N   0  0  0  0  0  0  0  0  0  0  0  0
   -0.4988    0.9457   -0.0000 N   0  0  0  0  0  0  0  0  0  0  0  0
  2  7  2  0  0  0  0
  2  1  1  0  0  0  0
  2  3  1  0  0  0  0
  4  5  1  0  0  0  0
  6  4  1  0  0  0  0
  6  1  2  0  0  0  0
  7  4  1  0  0  0  0
M  RAD  1   1   2
M  END
