4-CH3O-Ph-N2+-UB3LYP-aug-cc-pVDZ-Triplet.log
 OpenBabel04131813133D
Gaussian home/ubuntu/g09/g09 #p Temperature=298.15 opt freq UB3LYP/aug-cc-pVDZ
 17 17  0  0  0  0  0  0  0  0999 V2000
    0.5927   -1.0209   -0.0544 C   0  0  0  0  0  0  0  0  0  0  0  0
   -0.7779   -1.0692   -0.0840 C   0  0  0  0  0  0  0  0  0  0  0  0
   -1.5309    0.1455   -0.0642 C   0  0  0  0  0  0  0  0  0  0  0  0
   -0.9026    1.4146   -0.0171 C   0  0  0  0  0  0  0  0  0  0  0  0
    0.4674    1.4779    0.0287 C   0  0  0  0  0  0  0  0  0  0  0  0
    1.2383    0.2593    0.0083 C   0  0  0  0  0  0  0  0  0  0  0  0
    1.1772   -1.9377   -0.0751 H   0  0  0  0  0  0  0  0  0  0  0  0
   -1.3088   -2.0196   -0.1266 H   0  0  0  0  0  0  0  0  0  0  0  0
   -1.5182    2.3133   -0.0184 H   0  0  0  0  0  0  0  0  0  0  0  0
    1.0054    2.4242    0.0705 H   0  0  0  0  0  0  0  0  0  0  0  0
   -2.9642    0.1314   -0.1427 N   0  0  0  0  0  0  0  0  0  0  0  0
   -3.6198   -0.7888    0.2346 N   0  0  0  0  0  0  0  0  0  0  0  0
    2.5324    0.4327    0.0450 O   0  0  0  0  0  0  0  0  0  0  0  0
    3.4734   -0.6848    0.0280 C   0  0  0  0  0  0  0  0  0  0  0  0
    4.4565   -0.2137    0.0726 H   0  0  0  0  0  0  0  0  0  0  0  0
    3.3518   -1.2460   -0.9055 H   0  0  0  0  0  0  0  0  0  0  0  0
    3.3029   -1.3154    0.9080 H   0  0  0  0  0  0  0  0  0  0  0  0
  1  6  2  0  0  0  0
  2  3  2  0  0  0  0
  2  1  1  0  0  0  0
  3  4  1  0  0  0  0
  4  5  2  0  0  0  0
  5 10  1  0  0  0  0
  6  5  1  0  0  0  0
  6 13  1  0  0  0  0
  7  1  1  0  0  0  0
  8  2  1  0  0  0  0
  9  4  1  0  0  0  0
 11  3  1  0  0  0  0
 11 12  2  0  0  0  0
 14 13  1  0  0  0  0
 14 15  1  0  0  0  0
 14 17  1  0  0  0  0
 16 14  1  0  0  0  0
M  RAD  1  12   2
M  END
