4-NO2-Ph-N2-UB3LYP-aug-cc-pVDZ-Doublet.log
 OpenBabel04131813133D
Gaussian home/ubuntu/g09/g09 #p Temperature=298.15 opt freq UB3LYP/aug-cc-pVDZ
 15 15  0  0  0  0  0  0  0  0999 V2000
    0.3271    1.2276   -0.0000 C   0  0  0  0  0  0  0  0  0  0  0  0
   -1.0522    1.2433   -0.0002 C   0  0  0  0  0  0  0  0  0  0  0  0
   -1.7569    0.0000    0.0001 C   0  0  0  0  0  0  0  0  0  0  0  0
   -1.0522   -1.2433    0.0004 C   0  0  0  0  0  0  0  0  0  0  0  0
    0.3271   -1.2276    0.0001 C   0  0  0  0  0  0  0  0  0  0  0  0
    1.0181   -0.0000   -0.0000 C   0  0  0  0  0  0  0  0  0  0  0  0
    0.8951    2.1546   -0.0002 H   0  0  0  0  0  0  0  0  0  0  0  0
   -1.6059    2.1799   -0.0002 H   0  0  0  0  0  0  0  0  0  0  0  0
   -1.6059   -2.1799    0.0005 H   0  0  0  0  0  0  0  0  0  0  0  0
    0.8950   -2.1546    0.0001 H   0  0  0  0  0  0  0  0  0  0  0  0
    2.4651   -0.0000   -0.0001 N   0  0  0  0  0  0  0  0  0  0  0  0
    3.0452    1.0925    0.0003 O   0  0  0  0  0  0  0  0  0  0  0  0
    3.0452   -1.0925   -0.0005 O   0  0  0  0  0  0  0  0  0  0  0  0
   -3.0978    0.0000    0.0005 N   0  0  0  0  0  0  0  0  0  0  0  0
   -4.2485    0.0000   -0.0007 N   0  0  0  0  0  0  0  0  0  0  0  0
  1  6  1  0  0  0  0
  2  1  2  0  0  0  0
  2  3  1  0  0  0  0
  3  4  2  0  0  0  0
  3 14  1  0  0  0  0
  4  9  1  0  0  0  0
  5 10  1  0  0  0  0
  5  4  1  0  0  0  0
  6  5  2  0  0  0  0
  7  1  1  0  0  0  0
  8  2  1  0  0  0  0
 11  6  1  0  0  0  0
 11 12  2  0  0  0  0
 13 11  2  0  0  0  0
 15 14  1  0  0  0  0
M  RAD  2  14   2  15   3
M  END
