C13H18N6-N2++-UB3LYP-aug-cc-pVDZ-Singlet.log
 OpenBabel04131813133D
Gaussian home/ubuntu/g09/g09 #p Temperature=298.15 opt freq UB3LYP/aug-cc-pVDZ
 39 40  0  0  0  0  0  0  0  0999 V2000
   -5.6591   -0.4920   -0.6425 N   0  0  0  0  0  0  0  0  0  0  0  0
   -6.6813   -0.8270   -0.9549 N   0  0  0  0  0  0  0  0  0  0  0  0
   -4.4410   -0.0444   -0.2986 C   0  0  0  0  0  0  0  0  0  0  0  0
   -3.8190    1.1835   -0.7427 C   0  0  0  0  0  0  0  0  0  0  0  0
   -2.4858    0.1245    0.6059 N   0  0  0  0  0  0  0  0  0  0  0  0
   -3.5397   -0.6995    0.5802 C   0  0  0  0  0  0  0  0  0  0  0  0
   -2.6360    1.2521   -0.1739 N   0  0  0  0  0  0  0  0  0  0  0  0
   -3.6854   -1.9771    1.3349 C   0  0  0  0  0  0  0  0  0  0  0  0
   -3.6961   -1.7915    2.4183 H   0  0  0  0  0  0  0  0  0  0  0  0
   -4.6231   -2.4779    1.0714 H   0  0  0  0  0  0  0  0  0  0  0  0
   -2.8609   -2.6668    1.1100 H   0  0  0  0  0  0  0  0  0  0  0  0
   -4.3558    2.2238   -1.6638 C   0  0  0  0  0  0  0  0  0  0  0  0
   -4.5662    1.8009   -2.6564 H   0  0  0  0  0  0  0  0  0  0  0  0
   -5.2906    2.6498   -1.2726 H   0  0  0  0  0  0  0  0  0  0  0  0
   -3.6222    3.0285   -1.7716 H   0  0  0  0  0  0  0  0  0  0  0  0
   -1.2593    0.0111    1.4065 C   0  0  0  0  0  0  0  0  0  0  0  0
   -1.3409   -0.9058    1.9994 H   0  0  0  0  0  0  0  0  0  0  0  0
   -1.2534    0.8658    2.0961 H   0  0  0  0  0  0  0  0  0  0  0  0
    0.0000   -0.0003    0.5269 C   0  0  0  0  0  0  0  0  0  0  0  0
   -0.0004   -0.8878   -0.1174 H   0  0  0  0  0  0  0  0  0  0  0  0
    0.0005    0.8879   -0.1163 H   0  0  0  0  0  0  0  0  0  0  0  0
    1.2593   -0.0129    1.4066 C   0  0  0  0  0  0  0  0  0  0  0  0
    1.2533   -0.8684    2.0952 H   0  0  0  0  0  0  0  0  0  0  0  0
    1.3409    0.9034    2.0006 H   0  0  0  0  0  0  0  0  0  0  0  0
    2.4859   -0.1253    0.6060 N   0  0  0  0  0  0  0  0  0  0  0  0
    3.5395    0.6990    0.5808 C   0  0  0  0  0  0  0  0  0  0  0  0
    4.4410    0.0449   -0.2984 C   0  0  0  0  0  0  0  0  0  0  0  0
    3.8193   -1.1830   -0.7435 C   0  0  0  0  0  0  0  0  0  0  0  0
    2.6364   -1.2523   -0.1747 N   0  0  0  0  0  0  0  0  0  0  0  0
    3.6848    1.9761    1.3364 C   0  0  0  0  0  0  0  0  0  0  0  0
    2.8606    2.6661    1.1111 H   0  0  0  0  0  0  0  0  0  0  0  0
    3.6945    1.7899    2.4197 H   0  0  0  0  0  0  0  0  0  0  0  0
    4.6228    2.4769    1.0741 H   0  0  0  0  0  0  0  0  0  0  0  0
    4.3564   -2.2224   -1.6653 C   0  0  0  0  0  0  0  0  0  0  0  0
    4.5670   -1.7986   -2.6575 H   0  0  0  0  0  0  0  0  0  0  0  0
    5.2911   -2.6488   -1.2742 H   0  0  0  0  0  0  0  0  0  0  0  0
    3.6228   -3.0270   -1.7740 H   0  0  0  0  0  0  0  0  0  0  0  0
    5.6589    0.4931   -0.6422 N   0  0  0  0  0  0  0  0  0  0  0  0
    6.6810    0.8285   -0.9544 N   0  0  0  0  0  0  0  0  0  0  0  0
  1  3  1  0  0  0  0
  2  1  1  0  0  0  0
  3  6  2  0  0  0  0
  4  3  1  0  0  0  0
  4  7  2  0  0  0  0
  5 16  1  0  0  0  0
  6  5  1  0  0  0  0
  6  8  1  0  0  0  0
  7  5  1  0  0  0  0
  8  9  1  0  0  0  0
 10  8  1  0  0  0  0
 11  8  1  0  0  0  0
 12 14  1  0  0  0  0
 12  4  1  0  0  0  0
 13 12  1  0  0  0  0
 15 12  1  0  0  0  0
 16 17  1  0  0  0  0
 16 18  1  0  0  0  0
 19 16  1  0  0  0  0
 19 22  1  0  0  0  0
 20 19  1  0  0  0  0
 21 19  1  0  0  0  0
 22 24  1  0  0  0  0
 22 23  1  0  0  0  0
 25 22  1  0  0  0  0
 26 25  1  0  0  0  0
 26 30  1  0  0  0  0
 27 26  2  0  0  0  0
 28 27  1  0  0  0  0
 28 29  2  0  0  0  0
 29 25  1  0  0  0  0
 30 32  1  0  0  0  0
 31 30  1  0  0  0  0
 33 30  1  0  0  0  0
 34 36  1  0  0  0  0
 34 28  1  0  0  0  0
 35 34  1  0  0  0  0
 37 34  1  0  0  0  0
 38 27  1  0  0  0  0
 39 38  1  0  0  0  0
M  RAD  4   1   2   2   3  38   2  39   3
M  END
