C2H5-N2+-UB3LYP-aug-cc-pVDZ-Singlet.log
 OpenBabel04131813133D
Gaussian home/ubuntu/g09/g09 #p Temperature=298.15 opt freq UB3LYP/aug-cc-pVDZ
  9  8  0  0  0  0  0  0  0  0999 V2000
    0.5234    0.6664   -0.0000 C   0  0  0  0  0  0  0  0  0  0  0  0
    0.5345    1.2957   -0.9014 H   0  0  0  0  0  0  0  0  0  0  0  0
    0.5345    1.2957    0.9014 H   0  0  0  0  0  0  0  0  0  0  0  0
   -0.8556    0.1038    0.0000 N   0  0  0  0  0  0  0  0  0  0  0  0
   -1.8622   -0.3476    0.0000 N   0  0  0  0  0  0  0  0  0  0  0  0
    1.5544   -0.4602   -0.0000 C   0  0  0  0  0  0  0  0  0  0  0  0
    1.4768   -1.0789   -0.9008 H   0  0  0  0  0  0  0  0  0  0  0  0
    2.5345    0.0361   -0.0000 H   0  0  0  0  0  0  0  0  0  0  0  0
    1.4768   -1.0789    0.9008 H   0  0  0  0  0  0  0  0  0  0  0  0
  1  6  1  0  0  0  0
  1  4  1  0  0  0  0
  1  3  1  0  0  0  0
  2  1  1  0  0  0  0
  5  4  1  0  0  0  0
  6  9  1  0  0  0  0
  7  6  1  0  0  0  0
  8  6  1  0  0  0  0
M  RAD  2   4   2   5   3
M  END
