N-O-Pyridine-4-UB3LYP-aug-cc-pVDZ-Doublet.log
 OpenBabel04131813133D
Gaussian home/ubuntu/g09/g09 #p Temperature=298.15 opt freq UB3LYP/aug-cc-pVDZ
 11 11  0  0  0  0  0  0  0  0999 V2000
    0.2224   -1.1865   -0.0000 C   0  0  0  0  0  0  0  0  0  0  0  0
   -1.1699   -1.2149    0.0000 C   0  0  0  0  0  0  0  0  0  0  0  0
   -1.8241    0.0000    0.0000 C   0  0  0  0  0  0  0  0  0  0  0  0
   -1.1699    1.2149    0.0000 C   0  0  0  0  0  0  0  0  0  0  0  0
    0.2224    1.1865   -0.0000 C   0  0  0  0  0  0  0  0  0  0  0  0
    0.8576   -2.0683   -0.0000 H   0  0  0  0  0  0  0  0  0  0  0  0
   -1.6869   -2.1741    0.0000 H   0  0  0  0  0  0  0  0  0  0  0  0
    0.8576    2.0683    0.0000 H   0  0  0  0  0  0  0  0  0  0  0  0
   -1.6869    2.1741   -0.0000 H   0  0  0  0  0  0  0  0  0  0  0  0
    0.9141    0.0000   -0.0000 N   0  0  0  0  0  0  0  0  0  0  0  0
    2.1968   -0.0000    0.0000 O   0  0  0  0  0  0  0  0  0  0  0  0
  1  2  2  0  0  0  0
  2  3  1  0  0  0  0
  2  7  1  0  0  0  0
  4  3  1  0  0  0  0
  5  4  2  0  0  0  0
  5  8  1  0  0  0  0
  6  1  1  0  0  0  0
  9  4  1  0  0  0  0
 10  1  1  0  0  0  0
 10  5  1  0  0  0  0
 10 11  1  0  0  0  0
M  RAD  2   3   2  11   2
M  END
