N-O-Pyridine-4+-UB3LYP-aug-cc-pVDZ-Singlet.log
 OpenBabel04131813133D
Gaussian home/ubuntu/g09/g09 #p Temperature=298.15 opt freq UB3LYP/aug-cc-pVDZ
 11 11  0  0  0  0  0  0  0  0999 V2000
   -0.2102    1.2161   -0.0371 C   0  0  0  0  0  0  0  0  0  0  0  0
    1.1820    1.2490   -0.0682 C   0  0  0  0  0  0  0  0  0  0  0  0
    1.6505    0.0000    0.2000 C   0  0  0  0  0  0  0  0  0  0  0  0
    1.1821   -1.2489   -0.0682 C   0  0  0  0  0  0  0  0  0  0  0  0
   -0.2101   -1.2161   -0.0371 C   0  0  0  0  0  0  0  0  0  0  0  0
   -0.8424    2.1015    0.0212 H   0  0  0  0  0  0  0  0  0  0  0  0
    1.7501    2.1787   -0.1285 H   0  0  0  0  0  0  0  0  0  0  0  0
   -0.8423   -2.1015    0.0213 H   0  0  0  0  0  0  0  0  0  0  0  0
    1.7502   -2.1787   -0.1284 H   0  0  0  0  0  0  0  0  0  0  0  0
   -0.8933   -0.0000   -0.0030 N   0  0  0  0  0  0  0  0  0  0  0  0
   -2.1411   -0.0000    0.0373 O   0  0  0  0  0  0  0  0  0  0  0  0
  1 10  1  0  0  0  0
  1  6  1  0  0  0  0
  2  1  2  0  0  0  0
  2  3  1  0  0  0  0
  4  5  2  0  0  0  0
  4  3  1  0  0  0  0
  5 10  1  0  0  0  0
  5  8  1  0  0  0  0
  7  2  1  0  0  0  0
  9  4  1  0  0  0  0
 10 11  1  0  0  0  0
M  RAD  2   3   2  11   2
M  END
