N-O-Pyridine-4-N2+-UB3LYP-aug-cc-pVDZ-Triplet.log
 OpenBabel04131813133D
Gaussian home/ubuntu/g09/g09 #p Temperature=298.15 opt freq UB3LYP/aug-cc-pVDZ
 13 13  0  0  0  0  0  0  0  0999 V2000
   -1.0555   -1.2171   -0.0000 C   0  0  0  0  0  0  0  0  0  0  0  0
    0.3062   -1.2509    0.0000 C   0  0  0  0  0  0  0  0  0  0  0  0
    1.0146    0.0000    0.0000 C   0  0  0  0  0  0  0  0  0  0  0  0
    0.3062    1.2509    0.0000 C   0  0  0  0  0  0  0  0  0  0  0  0
   -1.0555    1.2171   -0.0000 C   0  0  0  0  0  0  0  0  0  0  0  0
   -1.6991   -2.0943   -0.0000 H   0  0  0  0  0  0  0  0  0  0  0  0
    0.8371   -2.2001    0.0000 H   0  0  0  0  0  0  0  0  0  0  0  0
    2.3560   -0.0000    0.0003 N   0  0  0  0  0  0  0  0  0  0  0  0
    3.4987    0.0000   -0.0003 N   0  0  0  0  0  0  0  0  0  0  0  0
   -1.6991    2.0943   -0.0000 H   0  0  0  0  0  0  0  0  0  0  0  0
    0.8371    2.2001    0.0000 H   0  0  0  0  0  0  0  0  0  0  0  0
   -1.7277    0.0000   -0.0000 N   0  0  0  0  0  0  0  0  0  0  0  0
   -3.0326   -0.0000   -0.0000 O   0  0  0  0  0  0  0  0  0  0  0  0
  1  2  2  0  0  0  0
  2  7  1  0  0  0  0
  3  2  1  0  0  0  0
  3  4  2  0  0  0  0
  3  8  1  0  0  0  0
  4 11  1  0  0  0  0
  5  4  1  0  0  0  0
  6  1  1  0  0  0  0
  9  8  1  0  0  0  0
 10  5  1  0  0  0  0
 12  5  1  0  0  0  0
 12  1  1  0  0  0  0
 13 12  1  0  0  0  0
M  RAD  3   8   2   9   3  13   2
M  END
