N-O-Pyridine-2+-RB3LYP-aug-cc-pVDZ-Singlet.log
 OpenBabel04131813133D
Gaussian home/ubuntu/g09/g09 #p Temperature=298.15 opt freq RB3LYP/aug-cc-pVDZ
 11 11  0  0  0  0  0  0  0  0999 V2000
    0.1362   -1.1137    0.3012 C   0  0  0  0  0  0  0  0  0  0  0  0
   -1.1350   -1.2511   -0.1541 C   0  0  0  0  0  0  0  0  0  0  0  0
   -1.7153    0.0385   -0.0710 C   0  0  0  0  0  0  0  0  0  0  0  0
   -2.7955    0.0805    0.1003 H   0  0  0  0  0  0  0  0  0  0  0  0
   -1.7202   -2.1701   -0.1412 H   0  0  0  0  0  0  0  0  0  0  0  0
   -0.9489    1.2433   -0.0136 C   0  0  0  0  0  0  0  0  0  0  0  0
   -1.4620    2.2025   -0.0918 H   0  0  0  0  0  0  0  0  0  0  0  0
    0.4140    1.2111    0.0811 C   0  0  0  0  0  0  0  0  0  0  0  0
    1.1222    2.0297   -0.0442 H   0  0  0  0  0  0  0  0  0  0  0  0
    0.9857   -0.0763    0.1026 N   0  0  0  0  0  0  0  0  0  0  0  0
    2.1811   -0.2971   -0.1754 O   0  0  0  0  0  0  0  0  0  0  0  0
  2  5  1  0  0  0  0
  2  3  1  0  0  0  0
  2  1  1  0  0  0  0
  3  6  1  0  0  0  0
  3  4  1  0  0  0  0
  6  8  2  0  0  0  0
  7  6  1  0  0  0  0
  8 10  1  0  0  0  0
  9  8  1  0  0  0  0
 10  1  1  0  0  0  0
 11 10  1  0  0  0  0
M  RAD  2   1   2  11   2
M  END
