Pyrimidine-4+-UB3LYP-aug-cc-pVDZ-Triplet.log
 OpenBabel04131813133D
Gaussian home/ubuntu/g09/g09 #p Temperature=298.15 opt freq UB3LYP/aug-cc-pVDZ
  9  9  0  0  0  0  0  0  0  0999 V2000
   -1.3322    0.4111   -0.0000 C   0  0  0  0  0  0  0  0  0  0  0  0
    0.1758   -1.3072    0.0000 C   0  0  0  0  0  0  0  0  0  0  0  0
    1.3351   -0.5255    0.0000 C   0  0  0  0  0  0  0  0  0  0  0  0
    1.0517    0.8392   -0.0000 C   0  0  0  0  0  0  0  0  0  0  0  0
   -2.3328    0.8391    0.0001 H   0  0  0  0  0  0  0  0  0  0  0  0
    1.7874    1.6496    0.0000 H   0  0  0  0  0  0  0  0  0  0  0  0
    2.3447   -0.9341    0.0000 H   0  0  0  0  0  0  0  0  0  0  0  0
   -0.2367    1.1694    0.0000 N   0  0  0  0  0  0  0  0  0  0  0  0
   -1.0751   -0.8924   -0.0000 N   0  0  0  0  0  0  0  0  0  0  0  0
  1  9  2  0  0  0  0
  1  8  1  0  0  0  0
  1  5  1  0  0  0  0
  3  2  2  0  0  0  0
  3  7  1  0  0  0  0
  4  3  1  0  0  0  0
  4  8  2  0  0  0  0
  4  6  1  0  0  0  0
  9  2  1  0  0  0  0
M  RAD  1   2   2
M  END
