Pyridine-3-UB3LYP-aug-cc-pVDZ-Doublet.log
 OpenBabel04131813133D
Gaussian home/ubuntu/g09/g09 #p Temperature=298.15 opt freq UB3LYP/aug-cc-pVDZ
 10 10  0  0  0  0  0  0  0  0999 V2000
    1.2761   -0.6072    0.0000 C   0  0  0  0  0  0  0  0  0  0  0  0
    0.1279   -1.3786    0.0000 C   0  0  0  0  0  0  0  0  0  0  0  0
   -1.1476   -0.8562   -0.0000 C   0  0  0  0  0  0  0  0  0  0  0  0
   -1.2367    0.5453    0.0000 C   0  0  0  0  0  0  0  0  0  0  0  0
    2.2811   -1.0306    0.0000 H   0  0  0  0  0  0  0  0  0  0  0  0
   -2.2046    1.0492   -0.0000 H   0  0  0  0  0  0  0  0  0  0  0  0
   -2.0406   -1.4833    0.0001 H   0  0  0  0  0  0  0  0  0  0  0  0
    1.1739    0.7377   -0.0000 N   0  0  0  0  0  0  0  0  0  0  0  0
   -0.0482    1.2842   -0.0000 C   0  0  0  0  0  0  0  0  0  0  0  0
   -0.0819    2.3761    0.0002 H   0  0  0  0  0  0  0  0  0  0  0  0
  1  2  2  0  0  0  0
  1  5  1  0  0  0  0
  3  4  2  0  0  0  0
  3  2  1  0  0  0  0
  3  7  1  0  0  0  0
  6  4  1  0  0  0  0
  8  1  1  0  0  0  0
  9  8  2  0  0  0  0
  9  4  1  0  0  0  0
  9 10  1  0  0  0  0
M  RAD  1   2   2
M  END
