Tetrazole-5-N2-UB3LYP-aug-cc-pVDZ-Doublet.log
 OpenBabel04131813133D
Gaussian home/ubuntu/g09/g09 #p Temperature=298.15 opt freq UB3LYP/aug-cc-pVDZ
  8  8  0  0  0  0  0  0  0  0999 V2000
   -1.6717    0.4610   -0.0002 N   0  0  0  0  0  0  0  0  0  0  0  0
   -2.5642   -0.3247    0.0003 N   0  0  0  0  0  0  0  0  0  0  0  0
    0.6646    1.0337   -0.0000 N   0  0  0  0  0  0  0  0  0  0  0  0
    1.8589    0.4219    0.0001 N   0  0  0  0  0  0  0  0  0  0  0  0
    0.2747   -1.1018   -0.0001 N   0  0  0  0  0  0  0  0  0  0  0  0
    1.6087   -0.8571    0.0001 N   0  0  0  0  0  0  0  0  0  0  0  0
   -0.2969    0.0877   -0.0002 C   0  0  0  0  0  0  0  0  0  0  0  0
    0.5839    2.0436    0.0003 H   0  0  0  0  0  0  0  0  0  0  0  0
  1  7  1  0  0  0  0
  1  2  2  0  0  0  0
  3  4  1  0  0  0  0
  3  8  1  0  0  0  0
  5  6  1  0  0  0  0
  6  4  2  0  0  0  0
  7  5  2  0  0  0  0
  7  3  1  0  0  0  0
M  RAD  1   2   2
M  END
