12
Coordinates from ORCA-job 4-Br-C6H3-N2-B3LYPG-aug-cc-pVDZ-scan-d09-49-n400
  C   -2.11439372565678     -1.80141907134201     -1.08067646700399
  C   -0.73212980762515     -1.69977936557439     -1.14202604131689
  C   -0.05428479247432     -0.65703717835849     -0.99393650983043
  C   -0.49754297574905      0.63120392618199     -0.73714478943591
  C   -1.90746355273309      0.64681478494492     -0.65315771309020
  C   -2.67049998285915     -0.52848122619486     -0.82017407715192
  H   -2.72453310713496     -2.69262847768726     -1.20549111746733
  H   0.10311647878324      1.52929692984973     -0.61054263181469
  H   -2.42114597948410      1.58697718108201     -0.45481553672598
  N   3.34771026461575      1.87465285918946     -0.73775131211798
  N   4.39217659184942      1.53727836919800     -0.85782860913823
  Br  -4.58360941153178     -0.39737873128910     -0.68645519490643
