6
Coordinates from ORCA-job CH3-N2+-scan-d09-169-n800
  C   -0.93780148699743      2.22762485479167      0.05604301102117
  H   -0.42176577377437      2.41007480786629      1.00409887197284
  H   -0.42174161841664      2.41010046047778     -0.89199476582428
  H   -1.96994553784095      1.86283803570334      0.05602492453936
  N   1.91272640750690     -5.83274119295028      0.05596886193185
  N   2.28012800952248     -6.87549696588882      0.05595909635906
