Coordinates from ORCA-job Ph-N2+-scan-d09-499-n800
 OpenBabel09191814153D

 13 12  0  0  0  0  0  0  0  0999 V2000
   -3.2942    0.2829   -1.2291 C   0  0  0  0  0  0  0  0  0  0  0  0
   -2.9709   -0.6985   -0.2321 C   0  0  0  0  0  0  0  0  0  0  0  0
   -3.0814   -0.0383    0.9139 C   0  0  0  0  0  0  0  0  0  0  0  0
   -3.3491    1.1108    1.5216 C   0  0  0  0  0  0  0  0  0  0  0  0
   -3.6548    2.0089    0.4431 C   0  0  0  0  0  0  0  0  0  0  0  0
   -3.6248    1.5953   -0.8890 C   0  0  0  0  0  0  0  0  0  0  0  0
   -3.2617   -0.0660   -2.2591 H   0  0  0  0  0  0  0  0  0  0  0  0
   -2.7036   -1.7267   -0.4444 H   0  0  0  0  0  0  0  0  0  0  0  0
   11.6658    1.0700   -0.2868 N   0  0  0  0  0  0  0  0  0  0  0  0
   12.7700    1.1056   -0.3251 N   0  0  0  0  0  0  0  0  0  0  0  0
   -3.8620    2.3060   -1.6736 H   0  0  0  0  0  0  0  0  0  0  0  0
   -3.9099    3.0248    0.7370 H   0  0  0  0  0  0  0  0  0  0  0  0
   -3.3571    1.3830    2.5704 H   0  0  0  0  0  0  0  0  0  0  0  0
  1  6  2  0  0  0  0
  1  2  1  0  0  0  0
  2  3  2  0  0  0  0
  3  4  1  0  0  0  0
  4 13  1  0  0  0  0
  5 12  1  0  0  0  0
  5  4  2  0  0  0  0
  6  5  1  0  0  0  0
  7  1  1  0  0  0  0
  8  2  1  0  0  0  0
 10  9  3  0  0  0  0
 11  6  1  0  0  0  0
M  RAD  1   3   2
M  END
