Coordinates from ORCA-job Ph-N2+-scan-d09-499-n800
 OpenBabel09191814153D

 13 12  0  0  0  0  0  0  0  0999 V2000
   -2.3252    0.1196   -1.1162 C   0  0  0  0  0  0  0  0  0  0  0  0
   -0.9025   -0.0152   -0.9780 C   0  0  0  0  0  0  0  0  0  0  0  0
   -0.5957    0.8200    0.0066 C   0  0  0  0  0  0  0  0  0  0  0  0
   -1.0264    1.7056    0.8963 C   0  0  0  0  0  0  0  0  0  0  0  0
   -2.4434    1.7614    0.6717 C   0  0  0  0  0  0  0  0  0  0  0  0
   -3.0631    0.9865   -0.3093 C   0  0  0  0  0  0  0  0  0  0  0  0
   -2.7831   -0.4951   -1.8884 H   0  0  0  0  0  0  0  0  0  0  0  0
   -0.2837   -0.6711   -1.5790 H   0  0  0  0  0  0  0  0  0  0  0  0
    3.6574    0.6872    0.2850 N   0  0  0  0  0  0  0  0  0  0  0  0
    4.7607    0.6695    0.3481 N   0  0  0  0  0  0  0  0  0  0  0  0
   -4.1369    1.0599   -0.4478 H   0  0  0  0  0  0  0  0  0  0  0  0
   -2.9949    2.4443    1.3146 H   0  0  0  0  0  0  0  0  0  0  0  0
   -0.4968    2.2851    1.6432 H   0  0  0  0  0  0  0  0  0  0  0  0
  1  2  2  0  0  0  0
  1  6  1  0  0  0  0
  2  3  1  0  0  0  0
  3  4  2  0  0  0  0
  4 13  1  0  0  0  0
  5  4  1  0  0  0  0
  5 12  1  0  0  0  0
  6  5  2  0  0  0  0
  7  1  1  0  0  0  0
  8  2  1  0  0  0  0
  9 10  3  0  0  0  0
 11  6  1  0  0  0  0
M  RAD  1   3   2
M  END
