Coordinates from ORCA-job Ph-N2+-scan-d09-499-n800
 OpenBabel09191814153D

 13 12  0  0  0  0  0  0  0  0999 V2000
   -3.3732    0.2570   -1.2351 C   0  0  0  0  0  0  0  0  0  0  0  0
   -2.7370   -0.6504   -0.3213 C   0  0  0  0  0  0  0  0  0  0  0  0
   -2.6568    0.0398    0.8095 C   0  0  0  0  0  0  0  0  0  0  0  0
   -2.8982    1.1803    1.4441 C   0  0  0  0  0  0  0  0  0  0  0  0
   -3.5270    2.0029    0.4483 C   0  0  0  0  0  0  0  0  0  0  0  0
   -3.7519    1.5435   -0.8499 C   0  0  0  0  0  0  0  0  0  0  0  0
   -3.5365   -0.1265   -2.2400 H   0  0  0  0  0  0  0  0  0  0  0  0
   -2.4214   -1.6560   -0.5717 H   0  0  0  0  0  0  0  0  0  0  0  0
   10.9513    1.0184   -0.1356 N   0  0  0  0  0  0  0  0  0  0  0  0
   12.0555    1.0600   -0.1673 N   0  0  0  0  0  0  0  0  0  0  0  0
   -4.2280    2.1981   -1.5723 H   0  0  0  0  0  0  0  0  0  0  0  0
   -3.8120    3.0003    0.7754 H   0  0  0  0  0  0  0  0  0  0  0  0
   -2.6986    1.4903    2.4628 H   0  0  0  0  0  0  0  0  0  0  0  0
  1  6  2  0  0  0  0
  1  2  1  0  0  0  0
  2  3  2  0  0  0  0
  3  4  1  0  0  0  0
  4 13  1  0  0  0  0
  5 12  1  0  0  0  0
  5  4  2  0  0  0  0
  6  5  1  0  0  0  0
  7  1  1  0  0  0  0
  8  2  1  0  0  0  0
 10  9  3  0  0  0  0
 11  6  1  0  0  0  0
M  RAD  1   3   2
M  END
