Coordinates from ORCA-job Ph-N2+-scan-d09-499-n800
 OpenBabel09191814153D

 13 12  0  0  0  0  0  0  0  0999 V2000
   -3.2855    0.2367   -1.2178 C   0  0  0  0  0  0  0  0  0  0  0  0
   -2.3703   -0.5370   -0.4267 C   0  0  0  0  0  0  0  0  0  0  0  0
   -2.2153    0.1817    0.6781 C   0  0  0  0  0  0  0  0  0  0  0  0
   -2.5288    1.2833    1.3483 C   0  0  0  0  0  0  0  0  0  0  0  0
   -3.4366    1.9732    0.4753 C   0  0  0  0  0  0  0  0  0  0  0  0
   -3.7965    1.4549   -0.7691 C   0  0  0  0  0  0  0  0  0  0  0  0
   -3.5489   -0.1901   -2.1830 H   0  0  0  0  0  0  0  0  0  0  0  0
   -1.9457   -1.4864   -0.7299 H   0  0  0  0  0  0  0  0  0  0  0  0
    9.9558    0.9146   -0.0376 N   0  0  0  0  0  0  0  0  0  0  0  0
   11.0602    0.9548   -0.0635 N   0  0  0  0  0  0  0  0  0  0  0  0
   -4.4850    2.0089   -1.3987 H   0  0  0  0  0  0  0  0  0  0  0  0
   -3.8191    2.9200    0.8495 H   0  0  0  0  0  0  0  0  0  0  0  0
   -2.2179    1.6431    2.3217 H   0  0  0  0  0  0  0  0  0  0  0  0
  1  6  2  0  0  0  0
  1  2  1  0  0  0  0
  2  3  2  0  0  0  0
  3  4  1  0  0  0  0
  4 13  1  0  0  0  0
  5 12  1  0  0  0  0
  5  4  2  0  0  0  0
  6  5  1  0  0  0  0
  7  1  1  0  0  0  0
  8  2  1  0  0  0  0
 10  9  3  0  0  0  0
 11  6  1  0  0  0  0
M  RAD  1   3   2
M  END
