Coordinates from ORCA-job Ph-N2+-scan-d09-499-n800
 OpenBabel09191814153D

 13 12  0  0  0  0  0  0  0  0999 V2000
   -2.6740    0.1729   -1.1677 C   0  0  0  0  0  0  0  0  0  0  0  0
   -1.3182   -0.1207   -0.7971 C   0  0  0  0  0  0  0  0  0  0  0  0
   -1.0900    0.6763    0.2392 C   0  0  0  0  0  0  0  0  0  0  0  0
   -1.5626    1.6057    1.0602 C   0  0  0  0  0  0  0  0  0  0  0  0
   -2.9071    1.8194    0.6041 C   0  0  0  0  0  0  0  0  0  0  0  0
   -3.4360    1.1178   -0.4798 C   0  0  0  0  0  0  0  0  0  0  0  0
   -3.0607   -0.3879   -2.0159 H   0  0  0  0  0  0  0  0  0  0  0  0
   -0.6855   -0.8433   -1.2988 H   0  0  0  0  0  0  0  0  0  0  0  0
    6.0178    0.6556    0.2240 N   0  0  0  0  0  0  0  0  0  0  0  0
    7.1231    0.6655    0.2191 N   0  0  0  0  0  0  0  0  0  0  0  0
   -4.4564    1.3107   -0.7932 H   0  0  0  0  0  0  0  0  0  0  0  0
   -3.4785    2.5612    1.1583 H   0  0  0  0  0  0  0  0  0  0  0  0
   -1.1055    2.1245    1.8944 H   0  0  0  0  0  0  0  0  0  0  0  0
  1  2  2  0  0  0  0
  1  6  1  0  0  0  0
  2  3  1  0  0  0  0
  3  4  2  0  0  0  0
  4 13  1  0  0  0  0
  5  4  1  0  0  0  0
  5 12  1  0  0  0  0
  6  5  2  0  0  0  0
  7  1  1  0  0  0  0
  8  2  1  0  0  0  0
 10  9  3  0  0  0  0
 11  6  1  0  0  0  0
M  RAD  1   3   2
M  END
