Coordinates from ORCA-job Ph-N2+-scan-d09-499-n800
 OpenBabel09191814153D

 13 12  0  0  0  0  0  0  0  0999 V2000
   -3.3733    0.2586   -1.2359 C   0  0  0  0  0  0  0  0  0  0  0  0
   -2.7621   -0.6566   -0.3134 C   0  0  0  0  0  0  0  0  0  0  0  0
   -2.6916    0.0300    0.8201 C   0  0  0  0  0  0  0  0  0  0  0  0
   -2.9295    1.1732    1.4510 C   0  0  0  0  0  0  0  0  0  0  0  0
   -3.5328    2.0041    0.4471 C   0  0  0  0  0  0  0  0  0  0  0  0
   -3.7426    1.5490   -0.8551 C   0  0  0  0  0  0  0  0  0  0  0  0
   -3.5255   -0.1221   -2.2436 H   0  0  0  0  0  0  0  0  0  0  0  0
   -2.4554   -1.6659   -0.5606 H   0  0  0  0  0  0  0  0  0  0  0  0
   11.0145    1.0255   -0.1456 N   0  0  0  0  0  0  0  0  0  0  0  0
   12.1187    1.0670   -0.1777 N   0  0  0  0  0  0  0  0  0  0  0  0
   -4.1991    2.2102   -1.5842 H   0  0  0  0  0  0  0  0  0  0  0  0
   -3.8115    3.0043    0.7714 H   0  0  0  0  0  0  0  0  0  0  0  0
   -2.7436    1.4802    2.4732 H   0  0  0  0  0  0  0  0  0  0  0  0
  1  6  2  0  0  0  0
  1  2  1  0  0  0  0
  2  3  2  0  0  0  0
  3  4  1  0  0  0  0
  4 13  1  0  0  0  0
  5 12  1  0  0  0  0
  5  4  2  0  0  0  0
  6  5  1  0  0  0  0
  7  1  1  0  0  0  0
  8  2  1  0  0  0  0
 10  9  3  0  0  0  0
 11  6  1  0  0  0  0
M  RAD  1   3   2
M  END
