Coordinates from ORCA-job Ph-N2+-scan-d09-499-n800
 OpenBabel09191814153D

 13 12  0  0  0  0  0  0  0  0999 V2000
   -2.6082    0.1517   -1.1489 C   0  0  0  0  0  0  0  0  0  0  0  0
   -1.2135   -0.0616   -0.8821 C   0  0  0  0  0  0  0  0  0  0  0  0
   -0.9537    0.7545    0.1317 C   0  0  0  0  0  0  0  0  0  0  0  0
   -1.4149    1.6623    0.9831 C   0  0  0  0  0  0  0  0  0  0  0  0
   -2.8002    1.7959    0.6299 C   0  0  0  0  0  0  0  0  0  0  0  0
   -3.3686    1.0572   -0.4083 C   0  0  0  0  0  0  0  0  0  0  0  0
   -3.0257   -0.4365   -1.9634 H   0  0  0  0  0  0  0  0  0  0  0  0
   -0.5801   -0.7503   -1.4286 H   0  0  0  0  0  0  0  0  0  0  0  0
    5.4705    0.6376    0.2779 N   0  0  0  0  0  0  0  0  0  0  0  0
    6.5757    0.6372    0.2975 N   0  0  0  0  0  0  0  0  0  0  0  0
   -4.4192    1.1898   -0.6445 H   0  0  0  0  0  0  0  0  0  0  0  0
   -3.3697    2.5079    1.2237 H   0  0  0  0  0  0  0  0  0  0  0  0
   -0.9262    2.2121    1.7787 H   0  0  0  0  0  0  0  0  0  0  0  0
  1  2  2  0  0  0  0
  1  6  1  0  0  0  0
  2  3  1  0  0  0  0
  3  4  2  0  0  0  0
  4 13  1  0  0  0  0
  5  4  1  0  0  0  0
  5 12  1  0  0  0  0
  6  5  2  0  0  0  0
  7  1  1  0  0  0  0
  8  2  1  0  0  0  0
  9 10  3  0  0  0  0
 11  6  1  0  0  0  0
M  RAD  1   3   2
M  END
