Coordinates from ORCA-job Ph-N2+-scan-d09-499-n800
 OpenBabel09191814153D

 13 12  0  0  0  0  0  0  0  0999 V2000
   -2.6853    0.1878   -1.1787 C   0  0  0  0  0  0  0  0  0  0  0  0
   -1.3648   -0.1572   -0.7330 C   0  0  0  0  0  0  0  0  0  0  0  0
   -1.1674    0.6262    0.3199 C   0  0  0  0  0  0  0  0  0  0  0  0
   -1.6522    1.5687    1.1185 C   0  0  0  0  0  0  0  0  0  0  0  0
   -2.9596    1.8338    0.5876 C   0  0  0  0  0  0  0  0  0  0  0  0
   -3.4507    1.1568   -0.5292 C   0  0  0  0  0  0  0  0  0  0  0  0
   -3.0430   -0.3547   -2.0512 H   0  0  0  0  0  0  0  0  0  0  0  0
   -0.7313   -0.9007   -1.2021 H   0  0  0  0  0  0  0  0  0  0  0  0
    6.2592    0.6653    0.1703 N   0  0  0  0  0  0  0  0  0  0  0  0
    7.3643    0.6825    0.1503 N   0  0  0  0  0  0  0  0  0  0  0  0
   -4.4438    1.3883   -0.8989 H   0  0  0  0  0  0  0  0  0  0  0  0
   -3.5341    2.5940    1.1127 H   0  0  0  0  0  0  0  0  0  0  0  0
   -1.2250    2.0670    1.9805 H   0  0  0  0  0  0  0  0  0  0  0  0
  1  2  2  0  0  0  0
  1  6  1  0  0  0  0
  2  3  1  0  0  0  0
  3  4  2  0  0  0  0
  4 13  1  0  0  0  0
  5 12  1  0  0  0  0
  5  4  1  0  0  0  0
  6  5  2  0  0  0  0
  7  1  1  0  0  0  0
  8  2  1  0  0  0  0
 10  9  3  0  0  0  0
 11  6  1  0  0  0  0
M  RAD  1   3   2
M  END
