Coordinates from ORCA-job Ph-N2+-scan-d09-499-n800
 OpenBabel09191814153D

 13 12  0  0  0  0  0  0  0  0999 V2000
   -2.6801    0.1781   -1.1717 C   0  0  0  0  0  0  0  0  0  0  0  0
   -1.3361   -0.1342   -0.7747 C   0  0  0  0  0  0  0  0  0  0  0  0
   -1.1179    0.6579    0.2674 C   0  0  0  0  0  0  0  0  0  0  0  0
   -1.5943    1.5922    1.0805 C   0  0  0  0  0  0  0  0  0  0  0  0
   -2.9265    1.8247    0.5982 C   0  0  0  0  0  0  0  0  0  0  0  0
   -3.4430    1.1320   -0.4973 C   0  0  0  0  0  0  0  0  0  0  0  0
   -3.0573   -0.3760   -2.0285 H   0  0  0  0  0  0  0  0  0  0  0  0
   -0.7033   -0.8646   -1.2650 H   0  0  0  0  0  0  0  0  0  0  0  0
    6.1098    0.6595    0.2061 N   0  0  0  0  0  0  0  0  0  0  0  0
    7.2151    0.6722    0.1958 N   0  0  0  0  0  0  0  0  0  0  0  0
   -4.4543    1.3390   -0.8305 H   0  0  0  0  0  0  0  0  0  0  0  0
   -3.4987    2.5733    1.1421 H   0  0  0  0  0  0  0  0  0  0  0  0
   -1.1470    2.1036    1.9245 H   0  0  0  0  0  0  0  0  0  0  0  0
  1  2  2  0  0  0  0
  1  6  1  0  0  0  0
  2  3  1  0  0  0  0
  3  4  2  0  0  0  0
  4 13  1  0  0  0  0
  5  4  1  0  0  0  0
  5 12  1  0  0  0  0
  6  5  2  0  0  0  0
  7  1  1  0  0  0  0
  8  2  1  0  0  0  0
 10  9  3  0  0  0  0
 11  6  1  0  0  0  0
M  RAD  1   3   2
M  END
