Coordinates from ORCA-job Ph-N2+-scan-d09-499-n800
 OpenBabel09191814153D

 13 12  0  0  0  0  0  0  0  0999 V2000
   -2.5234    0.1405   -1.1375 C   0  0  0  0  0  0  0  0  0  0  0  0
   -1.1154   -0.0352   -0.9167 C   0  0  0  0  0  0  0  0  0  0  0  0
   -0.8440    0.7897    0.0869 C   0  0  0  0  0  0  0  0  0  0  0  0
   -1.3005    1.6868    0.9518 C   0  0  0  0  0  0  0  0  0  0  0  0
   -2.6998    1.7832    0.6444 C   0  0  0  0  0  0  0  0  0  0  0  0
   -3.2825    1.0274   -0.3734 C   0  0  0  0  0  0  0  0  0  0  0  0
   -2.9520   -0.4603   -1.9369 H   0  0  0  0  0  0  0  0  0  0  0  0
   -0.4823   -0.7082   -1.4828 H   0  0  0  0  0  0  0  0  0  0  0  0
    4.9368    0.6385    0.2843 N   0  0  0  0  0  0  0  0  0  0  0  0
    6.0417    0.6318    0.3155 N   0  0  0  0  0  0  0  0  0  0  0  0
   -4.3436    1.1317   -0.5749 H   0  0  0  0  0  0  0  0  0  0  0  0
   -3.2681    2.4812    1.2557 H   0  0  0  0  0  0  0  0  0  0  0  0
   -0.8005    2.2507    1.7303 H   0  0  0  0  0  0  0  0  0  0  0  0
  1  2  2  0  0  0  0
  1  6  1  0  0  0  0
  2  3  1  0  0  0  0
  3  4  2  0  0  0  0
  4 13  1  0  0  0  0
  5  4  1  0  0  0  0
  5 12  1  0  0  0  0
  6  5  2  0  0  0  0
  7  1  1  0  0  0  0
  8  2  1  0  0  0  0
  9 10  3  0  0  0  0
 11  6  1  0  0  0  0
M  RAD  1   3   2
M  END
