Coordinates from ORCA-job Ph-N2+-scan-d09-499-n800
 OpenBabel09191814153D

 13 12  0  0  0  0  0  0  0  0999 V2000
   -2.7841    0.2259   -1.2029 C   0  0  0  0  0  0  0  0  0  0  0  0
   -1.6105   -0.2910   -0.5570 C   0  0  0  0  0  0  0  0  0  0  0  0
   -1.4918    0.4536    0.5352 C   0  0  0  0  0  0  0  0  0  0  0  0
   -1.9757    1.4489    1.2677 C   0  0  0  0  0  0  0  0  0  0  0  0
   -3.1325    1.8852    0.5376 C   0  0  0  0  0  0  0  0  0  0  0  0
   -3.5153    1.2837   -0.6616 C   0  0  0  0  0  0  0  0  0  0  0  0
   -3.0600   -0.2613   -2.1355 H   0  0  0  0  0  0  0  0  0  0  0  0
   -1.0098   -1.1098   -0.9352 H   0  0  0  0  0  0  0  0  0  0  0  0
    7.2784    0.7152    0.0100 N   0  0  0  0  0  0  0  0  0  0  0  0
    8.3824    0.7671   -0.0112 N   0  0  0  0  0  0  0  0  0  0  0  0
   -4.3962    1.6446   -1.1815 H   0  0  0  0  0  0  0  0  0  0  0  0
   -3.6827    2.7122    0.9812 H   0  0  0  0  0  0  0  0  0  0  0  0
   -1.6361    1.8834    2.2001 H   0  0  0  0  0  0  0  0  0  0  0  0
  1  6  2  0  0  0  0
  1  2  1  0  0  0  0
  2  3  2  0  0  0  0
  3  4  1  0  0  0  0
  4 13  1  0  0  0  0
  5 12  1  0  0  0  0
  5  4  2  0  0  0  0
  6  5  1  0  0  0  0
  7  1  1  0  0  0  0
  8  2  1  0  0  0  0
 10  9  3  0  0  0  0
 11  6  1  0  0  0  0
M  RAD  1   3   2
M  END
