Coordinates from ORCA-job Ph-N2+-scan-d09-499-n800
 OpenBabel09191814153D

 13 12  0  0  0  0  0  0  0  0999 V2000
   -3.3680    0.2642   -1.2377 C   0  0  0  0  0  0  0  0  0  0  0  0
   -2.8435   -0.6769   -0.2880 C   0  0  0  0  0  0  0  0  0  0  0  0
   -2.8122    0.0031    0.8514 C   0  0  0  0  0  0  0  0  0  0  0  0
   -3.0428    1.1514    1.4757 C   0  0  0  0  0  0  0  0  0  0  0  0
   -3.5580    2.0081    0.4441 C   0  0  0  0  0  0  0  0  0  0  0  0
   -3.7110    1.5659   -0.8705 C   0  0  0  0  0  0  0  0  0  0  0  0
   -3.4768   -0.1066   -2.2548 H   0  0  0  0  0  0  0  0  0  0  0  0
   -2.5589   -1.6953   -0.5234 H   0  0  0  0  0  0  0  0  0  0  0  0
   11.2277    1.0467   -0.1817 N   0  0  0  0  0  0  0  0  0  0  0  0
   12.3319    1.0875   -0.2152 N   0  0  0  0  0  0  0  0  0  0  0  0
   -4.1020    2.2461   -1.6198 H   0  0  0  0  0  0  0  0  0  0  0  0
   -3.8178    3.0165    0.7582 H   0  0  0  0  0  0  0  0  0  0  0  0
   -2.9023    1.4471    2.5085 H   0  0  0  0  0  0  0  0  0  0  0  0
  1  6  2  0  0  0  0
  1  2  1  0  0  0  0
  2  3  2  0  0  0  0
  3  4  1  0  0  0  0
  4 13  1  0  0  0  0
  5 12  1  0  0  0  0
  5  4  2  0  0  0  0
  6  5  1  0  0  0  0
  7  1  1  0  0  0  0
  8  2  1  0  0  0  0
 10  9  3  0  0  0  0
 11  6  1  0  0  0  0
M  RAD  1   3   2
M  END
