Coordinates from ORCA-job Ph-N2+-scan-d09-499-n800
 OpenBabel09191814153D

 13 13  0  0  0  0  0  0  0  0999 V2000
   -1.9174    0.0900   -1.0831 C   0  0  0  0  0  0  0  0  0  0  0  0
   -0.5405    0.0153   -0.9703 C   0  0  0  0  0  0  0  0  0  0  0  0
    0.0940    0.8269    0.0112 C   0  0  0  0  0  0  0  0  0  0  0  0
   -0.6387    1.6977    0.8651 C   0  0  0  0  0  0  0  0  0  0  0  0
   -2.0139    1.7434    0.7207 C   0  0  0  0  0  0  0  0  0  0  0  0
   -2.6493    0.9468   -0.2455 C   0  0  0  0  0  0  0  0  0  0  0  0
   -2.4272   -0.5174   -1.8235 H   0  0  0  0  0  0  0  0  0  0  0  0
    0.0537   -0.6360   -1.6029 H   0  0  0  0  0  0  0  0  0  0  0  0
    1.3678    0.7723    0.1294 N   0  0  0  0  0  0  0  0  0  0  0  0
    2.4828    0.7245    0.2326 N   0  0  0  0  0  0  0  0  0  0  0  0
   -3.7298    0.9948   -0.3473 H   0  0  0  0  0  0  0  0  0  0  0  0
   -2.5974    2.3988    1.3586 H   0  0  0  0  0  0  0  0  0  0  0  0
   -0.1177    2.3007    1.6017 H   0  0  0  0  0  0  0  0  0  0  0  0
  1  2  2  0  0  0  0
  1  6  1  0  0  0  0
  2  3  1  0  0  0  0
  3  9  1  0  0  0  0
  3  4  2  0  0  0  0
  4 13  1  0  0  0  0
  5  4  1  0  0  0  0
  5 12  1  0  0  0  0
  6  5  2  0  0  0  0
  7  1  1  0  0  0  0
  8  2  1  0  0  0  0
  9 10  1  0  0  0  0
 11  6  1  0  0  0  0
M  RAD  2   9   2  10   3
M  END
