Coordinates from ORCA-job Ph-N2+-scan-d09-499-n800
 OpenBabel09191814153D

 13 13  0  0  0  0  0  0  0  0999 V2000
   -1.8957    0.0891   -1.0810 C   0  0  0  0  0  0  0  0  0  0  0  0
   -0.5262    0.0143   -0.9697 C   0  0  0  0  0  0  0  0  0  0  0  0
    0.1701    0.8238    0.0180 C   0  0  0  0  0  0  0  0  0  0  0  0
   -0.6245    1.6978    0.8670 C   0  0  0  0  0  0  0  0  0  0  0  0
   -1.9923    1.7424    0.7227 C   0  0  0  0  0  0  0  0  0  0  0  0
   -2.6307    0.9459   -0.2437 C   0  0  0  0  0  0  0  0  0  0  0  0
   -2.4040   -0.5194   -1.8223 H   0  0  0  0  0  0  0  0  0  0  0  0
    0.0724   -0.6361   -1.6008 H   0  0  0  0  0  0  0  0  0  0  0  0
    1.2248    0.7784    0.1161 N   0  0  0  0  0  0  0  0  0  0  0  0
    2.3569    0.7296    0.2213 N   0  0  0  0  0  0  0  0  0  0  0  0
   -3.7115    0.9937   -0.3454 H   0  0  0  0  0  0  0  0  0  0  0  0
   -2.5742    2.3987    1.3619 H   0  0  0  0  0  0  0  0  0  0  0  0
   -0.0989    2.2995    1.6027 H   0  0  0  0  0  0  0  0  0  0  0  0
  1  2  2  0  0  0  0
  1  6  1  0  0  0  0
  2  3  1  0  0  0  0
  3  9  1  0  0  0  0
  3  4  2  0  0  0  0
  4 13  1  0  0  0  0
  5  4  1  0  0  0  0
  5 12  1  0  0  0  0
  6  5  2  0  0  0  0
  7  1  1  0  0  0  0
  8  2  1  0  0  0  0
  9 10  1  0  0  0  0
 11  6  1  0  0  0  0
M  RAD  2   9   2  10   3
M  END
