Coordinates from ORCA-job Ph-N2+-scan-d09-499-n800
 OpenBabel09191814153D

 13 12  0  0  0  0  0  0  0  0999 V2000
   -2.2105    0.1104   -1.1046 C   0  0  0  0  0  0  0  0  0  0  0  0
   -0.7844   -0.0070   -0.9971 C   0  0  0  0  0  0  0  0  0  0  0  0
   -0.4634    0.8322   -0.0198 C   0  0  0  0  0  0  0  0  0  0  0  0
   -0.8878    1.7129    0.8784 C   0  0  0  0  0  0  0  0  0  0  0  0
   -2.3093    1.7519    0.6854 C   0  0  0  0  0  0  0  0  0  0  0  0
   -2.9409    0.9688   -0.2818 C   0  0  0  0  0  0  0  0  0  0  0  0
   -2.6790   -0.5098   -1.8659 H   0  0  0  0  0  0  0  0  0  0  0  0
   -0.1702   -0.6553   -1.6104 H   0  0  0  0  0  0  0  0  0  0  0  0
    2.9661    0.7127    0.2624 N   0  0  0  0  0  0  0  0  0  0  0  0
    4.0678    0.6851    0.3449 N   0  0  0  0  0  0  0  0  0  0  0  0
   -4.0184    1.0292   -0.3966 H   0  0  0  0  0  0  0  0  0  0  0  0
   -2.8558    2.4281    1.3393 H   0  0  0  0  0  0  0  0  0  0  0  0
   -0.3480    2.2985    1.6127 H   0  0  0  0  0  0  0  0  0  0  0  0
  1  2  2  0  0  0  0
  1  6  1  0  0  0  0
  2  3  1  0  0  0  0
  3  4  2  0  0  0  0
  4 13  1  0  0  0  0
  5  4  1  0  0  0  0
  5 12  1  0  0  0  0
  6  5  2  0  0  0  0
  7  1  1  0  0  0  0
  8  2  1  0  0  0  0
  9 10  3  0  0  0  0
 11  6  1  0  0  0  0
M  RAD  1   3   2
M  END
