Coordinates from ORCA-job Ph-N2+-scan-d09-499-n800
 OpenBabel09191814153D

 13 12  0  0  0  0  0  0  0  0999 V2000
   -3.2564    0.2363   -1.2170 C   0  0  0  0  0  0  0  0  0  0  0  0
   -2.3215   -0.5222   -0.4343 C   0  0  0  0  0  0  0  0  0  0  0  0
   -2.1695    0.1982    0.6699 C   0  0  0  0  0  0  0  0  0  0  0  0
   -2.4963    1.2937    1.3438 C   0  0  0  0  0  0  0  0  0  0  0  0
   -3.4230    1.9686    0.4790 C   0  0  0  0  0  0  0  0  0  0  0  0
   -3.7845    1.4452   -0.7628 C   0  0  0  0  0  0  0  0  0  0  0  0
   -3.5205   -0.1942   -2.1803 H   0  0  0  0  0  0  0  0  0  0  0  0
   -1.8833   -1.4640   -0.7419 H   0  0  0  0  0  0  0  0  0  0  0  0
    9.8031    0.9009   -0.0348 N   0  0  0  0  0  0  0  0  0  0  0  0
   10.9075    0.9411   -0.0608 N   0  0  0  0  0  0  0  0  0  0  0  0
   -4.4876    1.9878   -1.3860 H   0  0  0  0  0  0  0  0  0  0  0  0
   -3.8185    2.9085    0.8573 H   0  0  0  0  0  0  0  0  0  0  0  0
   -2.1834    1.6579    2.3148 H   0  0  0  0  0  0  0  0  0  0  0  0
  1  6  2  0  0  0  0
  1  2  1  0  0  0  0
  2  3  2  0  0  0  0
  3  4  1  0  0  0  0
  4 13  1  0  0  0  0
  5 12  1  0  0  0  0
  5  4  2  0  0  0  0
  6  5  1  0  0  0  0
  7  1  1  0  0  0  0
  8  2  1  0  0  0  0
 10  9  3  0  0  0  0
 11  6  1  0  0  0  0
M  RAD  1   3   2
M  END
