Coordinates from ORCA-job Ph-N2+-scan-d09-499-n800
 OpenBabel09191814153D

 13 12  0  0  0  0  0  0  0  0999 V2000
   -3.3655    0.2657   -1.2378 C   0  0  0  0  0  0  0  0  0  0  0  0
   -2.8547   -0.6785   -0.2838 C   0  0  0  0  0  0  0  0  0  0  0  0
   -2.8291    0.0008    0.8560 C   0  0  0  0  0  0  0  0  0  0  0  0
   -3.0648    1.1484    1.4794 C   0  0  0  0  0  0  0  0  0  0  0  0
   -3.5657    2.0083    0.4440 C   0  0  0  0  0  0  0  0  0  0  0  0
   -3.7069    1.5683   -0.8726 C   0  0  0  0  0  0  0  0  0  0  0  0
   -3.4662   -0.1042   -2.2560 H   0  0  0  0  0  0  0  0  0  0  0  0
   -2.5744   -1.6986   -0.5174 H   0  0  0  0  0  0  0  0  0  0  0  0
   11.2701    1.0490   -0.1889 N   0  0  0  0  0  0  0  0  0  0  0  0
   12.3743    1.0892   -0.2225 N   0  0  0  0  0  0  0  0  0  0  0  0
   -4.0883    2.2505   -1.6250 H   0  0  0  0  0  0  0  0  0  0  0  0
   -3.8258    3.0172    0.7568 H   0  0  0  0  0  0  0  0  0  0  0  0
   -2.9368    1.4416    2.5146 H   0  0  0  0  0  0  0  0  0  0  0  0
  1  6  2  0  0  0  0
  1  2  1  0  0  0  0
  2  3  2  0  0  0  0
  3  4  1  0  0  0  0
  4 13  1  0  0  0  0
  5 12  1  0  0  0  0
  5  4  2  0  0  0  0
  6  5  1  0  0  0  0
  7  1  1  0  0  0  0
  8  2  1  0  0  0  0
 10  9  3  0  0  0  0
 11  6  1  0  0  0  0
M  RAD  1   3   2
M  END
