Coordinates from ORCA-job Ph-N2+-scan-d09-499-n800
 OpenBabel09191814153D

 13 12  0  0  0  0  0  0  0  0999 V2000
   -3.0814    0.3307   -1.1554 C   0  0  0  0  0  0  0  0  0  0  0  0
   -3.0279   -0.6906   -0.1479 C   0  0  0  0  0  0  0  0  0  0  0  0
   -3.4297   -0.0730    0.9560 C   0  0  0  0  0  0  0  0  0  0  0  0
   -3.8465    1.0550    1.5173 C   0  0  0  0  0  0  0  0  0  0  0  0
   -3.8623    1.9962    0.4325 C   0  0  0  0  0  0  0  0  0  0  0  0
   -3.4883    1.6328   -0.8615 C   0  0  0  0  0  0  0  0  0  0  0  0
   -2.7836    0.0204   -2.1547 H   0  0  0  0  0  0  0  0  0  0  0  0
   -2.7173   -1.7134   -0.3244 H   0  0  0  0  0  0  0  0  0  0  0  0
   12.1631    1.0551   -0.4701 N   0  0  0  0  0  0  0  0  0  0  0  0
   13.2672    1.0794   -0.5196 N   0  0  0  0  0  0  0  0  0  0  0  0
   -3.5144    2.3749   -1.6525 H   0  0  0  0  0  0  0  0  0  0  0  0
   -4.1844    3.0030    0.6898 H   0  0  0  0  0  0  0  0  0  0  0  0
   -4.1283    1.2872    2.5374 H   0  0  0  0  0  0  0  0  0  0  0  0
  1  6  2  0  0  0  0
  1  2  1  0  0  0  0
  2  3  2  0  0  0  0
  3  4  1  0  0  0  0
  4 13  1  0  0  0  0
  5 12  1  0  0  0  0
  5  4  2  0  0  0  0
  6  5  1  0  0  0  0
  7  1  1  0  0  0  0
  8  2  1  0  0  0  0
 10  9  3  0  0  0  0
 11  6  1  0  0  0  0
M  RAD  1   3   2
M  END
