Coordinates from ORCA-job Ph-N2+-scan-d09-499-n800
 OpenBabel09191814153D

 13 13  0  0  0  0  0  0  0  0999 V2000
   -1.8843    0.0888   -1.0798 C   0  0  0  0  0  0  0  0  0  0  0  0
   -0.5210    0.0112   -0.9725 C   0  0  0  0  0  0  0  0  0  0  0  0
    0.2346    0.8210    0.0240 C   0  0  0  0  0  0  0  0  0  0  0  0
   -0.6196    1.7005    0.8705 C   0  0  0  0  0  0  0  0  0  0  0  0
   -1.9808    1.7418    0.7235 C   0  0  0  0  0  0  0  0  0  0  0  0
   -2.6226    0.9456   -0.2428 C   0  0  0  0  0  0  0  0  0  0  0  0
   -2.3914   -0.5207   -1.8220 H   0  0  0  0  0  0  0  0  0  0  0  0
    0.0870   -0.6360   -1.5989 H   0  0  0  0  0  0  0  0  0  0  0  0
    1.1298    0.7822    0.1075 N   0  0  0  0  0  0  0  0  0  0  0  0
    2.2840    0.7328    0.2146 N   0  0  0  0  0  0  0  0  0  0  0  0
   -3.7034    0.9932   -0.3445 H   0  0  0  0  0  0  0  0  0  0  0  0
   -2.5617    2.3989    1.3639 H   0  0  0  0  0  0  0  0  0  0  0  0
   -0.0842    2.2984    1.6032 H   0  0  0  0  0  0  0  0  0  0  0  0
  1  2  2  0  0  0  0
  1  6  1  0  0  0  0
  2  3  1  0  0  0  0
  3  9  1  0  0  0  0
  3  4  2  0  0  0  0
  4 13  1  0  0  0  0
  5  4  1  0  0  0  0
  5 12  1  0  0  0  0
  6  5  2  0  0  0  0
  7  1  1  0  0  0  0
  8  2  1  0  0  0  0
  9 10  1  0  0  0  0
 11  6  1  0  0  0  0
M  RAD  2   9   2  10   3
M  END
