Coordinates from ORCA-job Ph-N2+-scan-d09-499-n800
 OpenBabel09191814153D

 13 12  0  0  0  0  0  0  0  0999 V2000
   -3.3708    0.2621   -1.2372 C   0  0  0  0  0  0  0  0  0  0  0  0
   -2.8119   -0.6694   -0.2978 C   0  0  0  0  0  0  0  0  0  0  0  0
   -2.7609    0.0139    0.8386 C   0  0  0  0  0  0  0  0  0  0  0  0
   -2.9955    1.1597    1.4656 C   0  0  0  0  0  0  0  0  0  0  0  0
   -3.5458    2.0069    0.4450 C   0  0  0  0  0  0  0  0  0  0  0  0
   -3.7228    1.5598   -0.8649 C   0  0  0  0  0  0  0  0  0  0  0  0
   -3.4989   -0.1132   -2.2503 H   0  0  0  0  0  0  0  0  0  0  0  0
   -2.5221   -1.6853   -0.5376 H   0  0  0  0  0  0  0  0  0  0  0  0
   11.1415    1.0390   -0.1667 N   0  0  0  0  0  0  0  0  0  0  0  0
   12.2457    1.0802   -0.1996 N   0  0  0  0  0  0  0  0  0  0  0  0
   -4.1406    2.2326   -1.6063 H   0  0  0  0  0  0  0  0  0  0  0  0
   -3.8130    3.0122    0.7632 H   0  0  0  0  0  0  0  0  0  0  0  0
   -2.8386    1.4591    2.4950 H   0  0  0  0  0  0  0  0  0  0  0  0
  1  6  2  0  0  0  0
  1  2  1  0  0  0  0
  2  3  2  0  0  0  0
  3  4  1  0  0  0  0
  4 13  1  0  0  0  0
  5 12  1  0  0  0  0
  5  4  2  0  0  0  0
  6  5  1  0  0  0  0
  7  1  1  0  0  0  0
  8  2  1  0  0  0  0
 10  9  3  0  0  0  0
 11  6  1  0  0  0  0
M  RAD  1   3   2
M  END
