Coordinates from ORCA-job Ph-N2+-scan-d09-499-n800
 OpenBabel09191814153D

 13 12  0  0  0  0  0  0  0  0999 V2000
   -2.3226    0.1194   -1.1159 C   0  0  0  0  0  0  0  0  0  0  0  0
   -0.8997   -0.0151   -0.9787 C   0  0  0  0  0  0  0  0  0  0  0  0
   -0.5924    0.8203    0.0057 C   0  0  0  0  0  0  0  0  0  0  0  0
   -1.0228    1.7057    0.8957 C   0  0  0  0  0  0  0  0  0  0  0  0
   -2.4400    1.7611    0.6721 C   0  0  0  0  0  0  0  0  0  0  0  0
   -3.0601    0.9860   -0.3086 C   0  0  0  0  0  0  0  0  0  0  0  0
   -2.7809   -0.4955   -1.8878 H   0  0  0  0  0  0  0  0  0  0  0  0
   -0.2812   -0.6707   -1.5801 H   0  0  0  0  0  0  0  0  0  0  0  0
    3.6405    0.6880    0.2849 N   0  0  0  0  0  0  0  0  0  0  0  0
    4.7438    0.6701    0.3484 N   0  0  0  0  0  0  0  0  0  0  0  0
   -4.1341    1.0591   -0.4463 H   0  0  0  0  0  0  0  0  0  0  0  0
   -2.9913    2.4439    1.3153 H   0  0  0  0  0  0  0  0  0  0  0  0
   -0.4929    2.2854    1.6421 H   0  0  0  0  0  0  0  0  0  0  0  0
  1  2  2  0  0  0  0
  1  6  1  0  0  0  0
  2  3  1  0  0  0  0
  3  4  2  0  0  0  0
  4 13  1  0  0  0  0
  5  4  1  0  0  0  0
  5 12  1  0  0  0  0
  6  5  2  0  0  0  0
  7  1  1  0  0  0  0
  8  2  1  0  0  0  0
  9 10  3  0  0  0  0
 11  6  1  0  0  0  0
M  RAD  1   3   2
M  END
