Coordinates from ORCA-job Ph-N2+-scan-d09-499-n800
 OpenBabel09191814153D

 13 12  0  0  0  0  0  0  0  0999 V2000
   -2.8812    0.4077   -1.0051 C   0  0  0  0  0  0  0  0  0  0  0  0
   -3.0227   -0.6523   -0.0464 C   0  0  0  0  0  0  0  0  0  0  0  0
   -3.7189   -0.1011    0.9399 C   0  0  0  0  0  0  0  0  0  0  0  0
   -4.3245    0.9807    1.4128 C   0  0  0  0  0  0  0  0  0  0  0  0
   -4.1239    1.9652    0.3863 C   0  0  0  0  0  0  0  0  0  0  0  0
   -3.4206    1.6753   -0.7834 C   0  0  0  0  0  0  0  0  0  0  0  0
   -2.3313    0.1536   -1.9088 H   0  0  0  0  0  0  0  0  0  0  0  0
   -2.6265   -1.6529   -0.1717 H   0  0  0  0  0  0  0  0  0  0  0  0
   12.7062    1.0082   -0.6546 N   0  0  0  0  0  0  0  0  0  0  0  0
   13.8099    1.0215   -0.7143 N   0  0  0  0  0  0  0  0  0  0  0  0
   -3.2902    2.4489   -1.5331 H   0  0  0  0  0  0  0  0  0  0  0  0
   -4.5530    2.9447    0.5860 H   0  0  0  0  0  0  0  0  0  0  0  0
   -4.8570    1.1581    2.3395 H   0  0  0  0  0  0  0  0  0  0  0  0
  1  6  2  0  0  0  0
  1  2  1  0  0  0  0
  2  3  2  0  0  0  0
  3  4  1  0  0  0  0
  4 13  1  0  0  0  0
  5 12  1  0  0  0  0
  5  4  2  0  0  0  0
  6  5  1  0  0  0  0
  7  1  1  0  0  0  0
  8  2  1  0  0  0  0
 10  9  3  0  0  0  0
 11  6  1  0  0  0  0
M  RAD  1   3   2
M  END
