Coordinates from ORCA-job Ph-N2+-scan-d09-499-n800
 OpenBabel09191814153D

 13 12  0  0  0  0  0  0  0  0999 V2000
   -2.3750    0.1245   -1.1213 C   0  0  0  0  0  0  0  0  0  0  0  0
   -0.9549   -0.0183   -0.9642 C   0  0  0  0  0  0  0  0  0  0  0  0
   -0.6571    0.8149    0.0249 C   0  0  0  0  0  0  0  0  0  0  0  0
   -1.0946    1.7028    0.9089 C   0  0  0  0  0  0  0  0  0  0  0  0
   -2.5082    1.7665    0.6652 C   0  0  0  0  0  0  0  0  0  0  0  0
   -3.1189    0.9952   -0.3243 C   0  0  0  0  0  0  0  0  0  0  0  0
   -2.8257   -0.4876   -1.8998 H   0  0  0  0  0  0  0  0  0  0  0  0
   -0.3322   -0.6775   -1.5573 H   0  0  0  0  0  0  0  0  0  0  0  0
    3.9780    0.6726    0.2869 N   0  0  0  0  0  0  0  0  0  0  0  0
    5.0819    0.6582    0.3409 N   0  0  0  0  0  0  0  0  0  0  0  0
   -4.1903    1.0747   -0.4773 H   0  0  0  0  0  0  0  0  0  0  0  0
   -3.0644    2.4524    1.3009 H   0  0  0  0  0  0  0  0  0  0  0  0
   -0.5723    2.2794    1.6632 H   0  0  0  0  0  0  0  0  0  0  0  0
  1  2  2  0  0  0  0
  1  6  1  0  0  0  0
  2  3  1  0  0  0  0
  3  4  2  0  0  0  0
  4 13  1  0  0  0  0
  5  4  1  0  0  0  0
  5 12  1  0  0  0  0
  6  5  2  0  0  0  0
  7  1  1  0  0  0  0
  8  2  1  0  0  0  0
  9 10  3  0  0  0  0
 11  6  1  0  0  0  0
M  RAD  1   3   2
M  END
