Coordinates from ORCA-job Ph-N2+-scan-d09-499-n800
 OpenBabel09191814153D

 13 12  0  0  0  0  0  0  0  0999 V2000
   -3.2388    0.2937   -1.2169 C   0  0  0  0  0  0  0  0  0  0  0  0
   -2.9963   -0.7000   -0.2095 C   0  0  0  0  0  0  0  0  0  0  0  0
   -3.1822   -0.0496    0.9324 C   0  0  0  0  0  0  0  0  0  0  0  0
   -3.4838    1.0958    1.5310 C   0  0  0  0  0  0  0  0  0  0  0  0
   -3.7036    2.0070    0.4426 C   0  0  0  0  0  0  0  0  0  0  0  0
   -3.5820    1.6057   -0.8881 C   0  0  0  0  0  0  0  0  0  0  0  0
   -3.1351   -0.0456   -2.2455 H   0  0  0  0  0  0  0  0  0  0  0  0
   -2.7234   -1.7286   -0.4125 H   0  0  0  0  0  0  0  0  0  0  0  0
   11.8003    1.0700   -0.3360 N   0  0  0  0  0  0  0  0  0  0  0  0
   12.9045    1.1030   -0.3773 N   0  0  0  0  0  0  0  0  0  0  0  0
   -3.7570    2.3259   -1.6804 H   0  0  0  0  0  0  0  0  0  0  0  0
   -3.9706    3.0223    0.7278 H   0  0  0  0  0  0  0  0  0  0  0  0
   -3.5658    1.3579    2.5792 H   0  0  0  0  0  0  0  0  0  0  0  0
  1  6  2  0  0  0  0
  1  2  1  0  0  0  0
  2  3  2  0  0  0  0
  3  4  1  0  0  0  0
  4 13  1  0  0  0  0
  5 12  1  0  0  0  0
  5  4  2  0  0  0  0
  6  5  1  0  0  0  0
  7  1  1  0  0  0  0
  8  2  1  0  0  0  0
 10  9  3  0  0  0  0
 11  6  1  0  0  0  0
M  RAD  1   3   2
M  END
