Coordinates from ORCA-job Ph-N2+-scan-d09-499-n800
 OpenBabel09191814153D

 13 12  0  0  0  0  0  0  0  0999 V2000
   -2.4627    0.1338   -1.1306 C   0  0  0  0  0  0  0  0  0  0  0  0
   -1.0488   -0.0255   -0.9364 C   0  0  0  0  0  0  0  0  0  0  0  0
   -0.7679    0.8035    0.0612 C   0  0  0  0  0  0  0  0  0  0  0  0
   -1.2183    1.6960    0.9341 C   0  0  0  0  0  0  0  0  0  0  0  0
   -2.6242    1.7761    0.6532 C   0  0  0  0  0  0  0  0  0  0  0  0
   -3.2173    1.0125   -0.3528 C   0  0  0  0  0  0  0  0  0  0  0  0
   -2.8995   -0.4727   -1.9213 H   0  0  0  0  0  0  0  0  0  0  0  0
   -0.4186   -0.6915   -1.5138 H   0  0  0  0  0  0  0  0  0  0  0  0
    4.5506    0.6485    0.2852 N   0  0  0  0  0  0  0  0  0  0  0  0
    5.6552    0.6383    0.3249 N   0  0  0  0  0  0  0  0  0  0  0  0
   -4.2833    1.1044   -0.5341 H   0  0  0  0  0  0  0  0  0  0  0  0
   -3.1889    2.4680    1.2746 H   0  0  0  0  0  0  0  0  0  0  0  0
   -0.7100    2.2663    1.7025 H   0  0  0  0  0  0  0  0  0  0  0  0
  1  2  2  0  0  0  0
  1  6  1  0  0  0  0
  2  3  1  0  0  0  0
  3  4  2  0  0  0  0
  4 13  1  0  0  0  0
  5  4  1  0  0  0  0
  5 12  1  0  0  0  0
  6  5  2  0  0  0  0
  7  1  1  0  0  0  0
  8  2  1  0  0  0  0
  9 10  3  0  0  0  0
 11  6  1  0  0  0  0
M  RAD  1   3   2
M  END
