Coordinates from ORCA-job Ph-N2+-scan-d09-499-n800
 OpenBabel09191814153D

 13 12  0  0  0  0  0  0  0  0999 V2000
   -2.6763    0.1746   -1.1690 C   0  0  0  0  0  0  0  0  0  0  0  0
   -1.3243   -0.1251   -0.7899 C   0  0  0  0  0  0  0  0  0  0  0  0
   -1.0991    0.6702    0.2483 C   0  0  0  0  0  0  0  0  0  0  0  0
   -1.5729    1.6013    1.0667 C   0  0  0  0  0  0  0  0  0  0  0  0
   -2.9135    1.8212    0.6022 C   0  0  0  0  0  0  0  0  0  0  0  0
   -3.4385    1.1224   -0.4855 C   0  0  0  0  0  0  0  0  0  0  0  0
   -3.0600   -0.3840   -2.0200 H   0  0  0  0  0  0  0  0  0  0  0  0
   -0.6915   -0.8503   -1.2879 H   0  0  0  0  0  0  0  0  0  0  0  0
    6.0486    0.6569    0.2183 N   0  0  0  0  0  0  0  0  0  0  0  0
    7.1540    0.6677    0.2117 N   0  0  0  0  0  0  0  0  0  0  0  0
   -4.4560    1.3200   -0.8053 H   0  0  0  0  0  0  0  0  0  0  0  0
   -3.4851    2.5652    1.1530 H   0  0  0  0  0  0  0  0  0  0  0  0
   -1.1189    2.1176    1.9041 H   0  0  0  0  0  0  0  0  0  0  0  0
  1  2  2  0  0  0  0
  1  6  1  0  0  0  0
  2  3  1  0  0  0  0
  3  4  2  0  0  0  0
  4 13  1  0  0  0  0
  5  4  1  0  0  0  0
  5 12  1  0  0  0  0
  6  5  2  0  0  0  0
  7  1  1  0  0  0  0
  8  2  1  0  0  0  0
 10  9  3  0  0  0  0
 11  6  1  0  0  0  0
M  RAD  1   3   2
M  END
