Coordinates from ORCA-job Ph-N2+-scan-d09-499-n800
 OpenBabel09191814153D

 13 12  0  0  0  0  0  0  0  0999 V2000
   -2.0914    0.1036   -1.0931 C   0  0  0  0  0  0  0  0  0  0  0  0
   -0.6680   -0.0003   -0.9967 C   0  0  0  0  0  0  0  0  0  0  0  0
   -0.3217    0.8394   -0.0220 C   0  0  0  0  0  0  0  0  0  0  0  0
   -0.7685    1.7164    0.8760 C   0  0  0  0  0  0  0  0  0  0  0  0
   -2.1876    1.7455    0.6978 C   0  0  0  0  0  0  0  0  0  0  0  0
   -2.8213    0.9567   -0.2638 C   0  0  0  0  0  0  0  0  0  0  0  0
   -2.5665   -0.5185   -1.8482 H   0  0  0  0  0  0  0  0  0  0  0  0
   -0.0564   -0.6444   -1.6156 H   0  0  0  0  0  0  0  0  0  0  0  0
    2.3076    0.7326    0.2152 N   0  0  0  0  0  0  0  0  0  0  0  0
    3.4078    0.6954    0.3072 N   0  0  0  0  0  0  0  0  0  0  0  0
   -3.9002    1.0083   -0.3691 H   0  0  0  0  0  0  0  0  0  0  0  0
   -2.7383    2.4158    1.3536 H   0  0  0  0  0  0  0  0  0  0  0  0
   -0.2293    2.3072    1.6055 H   0  0  0  0  0  0  0  0  0  0  0  0
  1  2  2  0  0  0  0
  1  6  1  0  0  0  0
  2  3  1  0  0  0  0
  3  4  2  0  0  0  0
  4 13  1  0  0  0  0
  5  4  1  0  0  0  0
  5 12  1  0  0  0  0
  6  5  2  0  0  0  0
  7  1  1  0  0  0  0
  8  2  1  0  0  0  0
  9 10  3  0  0  0  0
 11  6  1  0  0  0  0
M  RAD  1   3   2
M  END
