Coordinates from ORCA-job Ph-N2+-scan-d09-499-n800
 OpenBabel09191814153D

 13 12  0  0  0  0  0  0  0  0999 V2000
   -2.4497    0.1324   -1.1292 C   0  0  0  0  0  0  0  0  0  0  0  0
   -1.0348   -0.0241   -0.9405 C   0  0  0  0  0  0  0  0  0  0  0  0
   -0.7516    0.8056    0.0558 C   0  0  0  0  0  0  0  0  0  0  0  0
   -1.2002    1.6974    0.9304 C   0  0  0  0  0  0  0  0  0  0  0  0
   -2.6074    1.7746    0.6550 C   0  0  0  0  0  0  0  0  0  0  0  0
   -3.2030    1.0098   -0.3486 C   0  0  0  0  0  0  0  0  0  0  0  0
   -2.8884   -0.4751   -1.9181 H   0  0  0  0  0  0  0  0  0  0  0  0
   -0.4055   -0.6890   -1.5203 H   0  0  0  0  0  0  0  0  0  0  0  0
    4.4665    0.6515    0.2855 N   0  0  0  0  0  0  0  0  0  0  0  0
    5.5710    0.6408    0.3271 N   0  0  0  0  0  0  0  0  0  0  0  0
   -4.2698    1.0995   -0.5256 H   0  0  0  0  0  0  0  0  0  0  0  0
   -3.1710    2.4655    1.2786 H   0  0  0  0  0  0  0  0  0  0  0  0
   -0.6899    2.2688    1.6967 H   0  0  0  0  0  0  0  0  0  0  0  0
  1  2  2  0  0  0  0
  1  6  1  0  0  0  0
  2  3  1  0  0  0  0
  3  4  2  0  0  0  0
  4 13  1  0  0  0  0
  5  4  1  0  0  0  0
  5 12  1  0  0  0  0
  6  5  2  0  0  0  0
  7  1  1  0  0  0  0
  8  2  1  0  0  0  0
  9 10  3  0  0  0  0
 11  6  1  0  0  0  0
M  RAD  1   3   2
M  END
