Coordinates from ORCA-job Ph-N2+-scan-d09-499-n800
 OpenBabel09191814153D

 13 12  0  0  0  0  0  0  0  0999 V2000
   -3.1839    0.3057   -1.2010 C   0  0  0  0  0  0  0  0  0  0  0  0
   -3.0054   -0.6969   -0.1891 C   0  0  0  0  0  0  0  0  0  0  0  0
   -3.2648   -0.0572    0.9445 C   0  0  0  0  0  0  0  0  0  0  0  0
   -3.6050    1.0828    1.5327 C   0  0  0  0  0  0  0  0  0  0  0  0
   -3.7557    2.0036    0.4407 C   0  0  0  0  0  0  0  0  0  0  0  0
   -3.5487    1.6145   -0.8829 C   0  0  0  0  0  0  0  0  0  0  0  0
   -3.0141   -0.0242   -2.2237 H   0  0  0  0  0  0  0  0  0  0  0  0
   -2.7195   -1.7237   -0.3836 H   0  0  0  0  0  0  0  0  0  0  0  0
   11.9142    1.0648   -0.3809 N   0  0  0  0  0  0  0  0  0  0  0  0
   13.0184    1.0950   -0.4249 N   0  0  0  0  0  0  0  0  0  0  0  0
   -3.6734    2.3418   -1.6783 H   0  0  0  0  0  0  0  0  0  0  0  0
   -4.0412    3.0163    0.7174 H   0  0  0  0  0  0  0  0  0  0  0  0
   -3.7546    1.3352    2.5758 H   0  0  0  0  0  0  0  0  0  0  0  0
  1  6  2  0  0  0  0
  1  2  1  0  0  0  0
  2  3  2  0  0  0  0
  3  4  1  0  0  0  0
  4 13  1  0  0  0  0
  5 12  1  0  0  0  0
  5  4  2  0  0  0  0
  6  5  1  0  0  0  0
  7  1  1  0  0  0  0
  8  2  1  0  0  0  0
 10  9  3  0  0  0  0
 11  6  1  0  0  0  0
M  RAD  1   3   2
M  END
