Coordinates from ORCA-job Ph-N2+-scan-d09-499-n800
 OpenBabel09191814153D

 13 12  0  0  0  0  0  0  0  0999 V2000
   -2.6858    0.1919   -1.1814 C   0  0  0  0  0  0  0  0  0  0  0  0
   -1.3760   -0.1662   -0.7151 C   0  0  0  0  0  0  0  0  0  0  0  0
   -1.1882    0.6134    0.3423 C   0  0  0  0  0  0  0  0  0  0  0  0
   -1.6769    1.5591    1.1347 C   0  0  0  0  0  0  0  0  0  0  0  0
   -2.9730    1.8374    0.5833 C   0  0  0  0  0  0  0  0  0  0  0  0
   -3.4524    1.1670   -0.5426 C   0  0  0  0  0  0  0  0  0  0  0  0
   -3.0344   -0.3457   -2.0606 H   0  0  0  0  0  0  0  0  0  0  0  0
   -0.7420   -0.9150   -1.1753 H   0  0  0  0  0  0  0  0  0  0  0  0
    6.3175    0.6673    0.1542 N   0  0  0  0  0  0  0  0  0  0  0  0
    7.4225    0.6861    0.1302 N   0  0  0  0  0  0  0  0  0  0  0  0
   -4.4372    1.4084   -0.9277 H   0  0  0  0  0  0  0  0  0  0  0  0
   -3.5488    2.6022    1.1004 H   0  0  0  0  0  0  0  0  0  0  0  0
   -1.2591    2.0520    2.0043 H   0  0  0  0  0  0  0  0  0  0  0  0
  1  2  2  0  0  0  0
  1  6  1  0  0  0  0
  2  3  1  0  0  0  0
  3  4  2  0  0  0  0
  4 13  1  0  0  0  0
  5 12  1  0  0  0  0
  5  4  1  0  0  0  0
  6  5  2  0  0  0  0
  7  1  1  0  0  0  0
  8  2  1  0  0  0  0
 10  9  3  0  0  0  0
 11  6  1  0  0  0  0
M  RAD  1   3   2
M  END
