Coordinates from ORCA-job Ph-N2+-scan-d09-499-n800
 OpenBabel09191814153D

 13 12  0  0  0  0  0  0  0  0999 V2000
   -2.0205    0.0993   -1.0874 C   0  0  0  0  0  0  0  0  0  0  0  0
   -0.6076    0.0038   -0.9901 C   0  0  0  0  0  0  0  0  0  0  0  0
   -0.2012    0.8381   -0.0146 C   0  0  0  0  0  0  0  0  0  0  0  0
   -0.7074    1.7131    0.8746 C   0  0  0  0  0  0  0  0  0  0  0  0
   -2.1165    1.7430    0.7058 C   0  0  0  0  0  0  0  0  0  0  0  0
   -2.7502    0.9517   -0.2554 C   0  0  0  0  0  0  0  0  0  0  0  0
   -2.5069   -0.5189   -1.8372 H   0  0  0  0  0  0  0  0  0  0  0  0
   -0.0009   -0.6407   -1.6126 H   0  0  0  0  0  0  0  0  0  0  0  0
    1.9295    0.7484    0.1810 N   0  0  0  0  0  0  0  0  0  0  0  0
    3.0282    0.7038    0.2801 N   0  0  0  0  0  0  0  0  0  0  0  0
   -3.8294    1.0007   -0.3581 H   0  0  0  0  0  0  0  0  0  0  0  0
   -2.6778    2.4080    1.3566 H   0  0  0  0  0  0  0  0  0  0  0  0
   -0.1732    2.3073    1.6044 H   0  0  0  0  0  0  0  0  0  0  0  0
  1  2  2  0  0  0  0
  1  6  1  0  0  0  0
  2  3  1  0  0  0  0
  3  4  2  0  0  0  0
  4 13  1  0  0  0  0
  5  4  1  0  0  0  0
  5 12  1  0  0  0  0
  6  5  2  0  0  0  0
  7  1  1  0  0  0  0
  8  2  1  0  0  0  0
  9 10  3  0  0  0  0
 11  6  1  0  0  0  0
M  RAD  1   3   2
M  END
