Coordinates from ORCA-job Ph-N2+-scan-d09-499-n800
 OpenBabel09191814153D

 13 12  0  0  0  0  0  0  0  0999 V2000
   -3.0273    0.2365   -1.2126 C   0  0  0  0  0  0  0  0  0  0  0  0
   -1.9659   -0.4018   -0.4861 C   0  0  0  0  0  0  0  0  0  0  0  0
   -1.8488    0.3276    0.6165 C   0  0  0  0  0  0  0  0  0  0  0  0
   -2.2758    1.3704    1.3177 C   0  0  0  0  0  0  0  0  0  0  0  0
   -3.3229    1.9267    0.5077 C   0  0  0  0  0  0  0  0  0  0  0  0
   -3.6790    1.3673   -0.7198 C   0  0  0  0  0  0  0  0  0  0  0  0
   -3.2848   -0.2201   -2.1657 H   0  0  0  0  0  0  0  0  0  0  0  0
   -1.4303   -1.2807   -0.8246 H   0  0  0  0  0  0  0  0  0  0  0  0
    8.6732    0.7974   -0.0251 N   0  0  0  0  0  0  0  0  0  0  0  0
    9.7776    0.8387   -0.0507 N   0  0  0  0  0  0  0  0  0  0  0  0
   -4.4760    1.8194   -1.3006 H   0  0  0  0  0  0  0  0  0  0  0  0
   -3.8125    2.8085    0.9150 H   0  0  0  0  0  0  0  0  0  0  0  0
   -1.9611    1.7675    2.2751 H   0  0  0  0  0  0  0  0  0  0  0  0
  1  6  2  0  0  0  0
  1  2  1  0  0  0  0
  2  3  2  0  0  0  0
  3  4  1  0  0  0  0
  4 13  1  0  0  0  0
  5 12  1  0  0  0  0
  5  4  2  0  0  0  0
  6  5  1  0  0  0  0
  7  1  1  0  0  0  0
  8  2  1  0  0  0  0
 10  9  3  0  0  0  0
 11  6  1  0  0  0  0
M  RAD  1   3   2
M  END
