Coordinates from ORCA-job Ph-N2+-scan-d09-499-n800
 OpenBabel09191814153D

 13 12  0  0  0  0  0  0  0  0999 V2000
   -3.0167    0.3507   -1.1208 C   0  0  0  0  0  0  0  0  0  0  0  0
   -3.0219   -0.6798   -0.1213 C   0  0  0  0  0  0  0  0  0  0  0  0
   -3.5120   -0.0799    0.9564 C   0  0  0  0  0  0  0  0  0  0  0  0
   -3.9838    1.0358    1.4977 C   0  0  0  0  0  0  0  0  0  0  0  0
   -3.9348    1.9877    0.4228 C   0  0  0  0  0  0  0  0  0  0  0  0
   -3.4627    1.6438   -0.8440 C   0  0  0  0  0  0  0  0  0  0  0  0
   -2.6454    0.0549   -2.0995 H   0  0  0  0  0  0  0  0  0  0  0  0
   -2.6879   -1.6975   -0.2842 H   0  0  0  0  0  0  0  0  0  0  0  0
   12.2983    1.0415   -0.5216 N   0  0  0  0  0  0  0  0  0  0  0  0
   13.4022    1.0632   -0.5750 N   0  0  0  0  0  0  0  0  0  0  0  0
   -3.4418    2.3946   -1.6272 H   0  0  0  0  0  0  0  0  0  0  0  0
   -4.2880    2.9874    0.6664 H   0  0  0  0  0  0  0  0  0  0  0  0
   -4.3391    1.2553    2.4973 H   0  0  0  0  0  0  0  0  0  0  0  0
  1  6  2  0  0  0  0
  1  2  1  0  0  0  0
  2  3  2  0  0  0  0
  3  4  1  0  0  0  0
  4 13  1  0  0  0  0
  5 12  1  0  0  0  0
  5  4  2  0  0  0  0
  6  5  1  0  0  0  0
  7  1  1  0  0  0  0
  8  2  1  0  0  0  0
 10  9  3  0  0  0  0
 11  6  1  0  0  0  0
M  RAD  1   3   2
M  END
