Coordinates from ORCA-job Ph-N2+-scan-d09-499-n800
 OpenBabel09191814153D

 13 12  0  0  0  0  0  0  0  0999 V2000
   -2.8524    0.2296   -1.2060 C   0  0  0  0  0  0  0  0  0  0  0  0
   -1.7109   -0.3251   -0.5344 C   0  0  0  0  0  0  0  0  0  0  0  0
   -1.5934    0.4145    0.5613 C   0  0  0  0  0  0  0  0  0  0  0  0
   -2.0616    1.4245    1.2839 C   0  0  0  0  0  0  0  0  0  0  0  0
   -3.1868    1.8982    0.5282 C   0  0  0  0  0  0  0  0  0  0  0  0
   -3.5614    1.3100   -0.6801 C   0  0  0  0  0  0  0  0  0  0  0  0
   -3.1225   -0.2480   -2.1452 H   0  0  0  0  0  0  0  0  0  0  0  0
   -1.1286   -1.1626   -0.8999 H   0  0  0  0  0  0  0  0  0  0  0  0
    7.6742    0.7339   -0.0077 N   0  0  0  0  0  0  0  0  0  0  0  0
    8.7779    0.7942   -0.0186 N   0  0  0  0  0  0  0  0  0  0  0  0
   -4.4183    1.6992   -1.2194 H   0  0  0  0  0  0  0  0  0  0  0  0
   -3.7201    2.7422    0.9603 H   0  0  0  0  0  0  0  0  0  0  0  0
   -1.7296    1.8472    2.2244 H   0  0  0  0  0  0  0  0  0  0  0  0
  1  6  2  0  0  0  0
  1  2  1  0  0  0  0
  2  3  2  0  0  0  0
  3  4  1  0  0  0  0
  4 13  1  0  0  0  0
  5 12  1  0  0  0  0
  5  4  2  0  0  0  0
  6  5  1  0  0  0  0
  7  1  1  0  0  0  0
  8  2  1  0  0  0  0
 10  9  3  0  0  0  0
 11  6  1  0  0  0  0
M  RAD  1   3   2
M  END
