Coordinates from ORCA-job Ph-N2+-scan-d09-499-n800
 OpenBabel09191814153D

 13 13  0  0  0  0  0  0  0  0999 V2000
   -1.9461    0.0921   -1.0848 C   0  0  0  0  0  0  0  0  0  0  0  0
   -0.5593    0.0128   -0.9753 C   0  0  0  0  0  0  0  0  0  0  0  0
    0.0028    0.8306    0.0030 C   0  0  0  0  0  0  0  0  0  0  0  0
   -0.6579    1.7015    0.8670 C   0  0  0  0  0  0  0  0  0  0  0  0
   -2.0425    1.7437    0.7170 C   0  0  0  0  0  0  0  0  0  0  0  0
   -2.6759    0.9480   -0.2480 C   0  0  0  0  0  0  0  0  0  0  0  0
   -2.4545   -0.5158   -1.8257 H   0  0  0  0  0  0  0  0  0  0  0  0
    0.0384   -0.6363   -1.6048 H   0  0  0  0  0  0  0  0  0  0  0  0
    1.5357    0.7651    0.1449 N   0  0  0  0  0  0  0  0  0  0  0  0
    2.6393    0.7182    0.2464 N   0  0  0  0  0  0  0  0  0  0  0  0
   -3.7559    0.9962   -0.3500 H   0  0  0  0  0  0  0  0  0  0  0  0
   -2.6246    2.3997    1.3557 H   0  0  0  0  0  0  0  0  0  0  0  0
   -0.1332    2.3018    1.6014 H   0  0  0  0  0  0  0  0  0  0  0  0
  1  2  2  0  0  0  0
  1  6  1  0  0  0  0
  2  3  1  0  0  0  0
  3  9  1  0  0  0  0
  3  4  2  0  0  0  0
  4 13  1  0  0  0  0
  5  4  1  0  0  0  0
  5 12  1  0  0  0  0
  6  5  2  0  0  0  0
  7  1  1  0  0  0  0
  8  2  1  0  0  0  0
  9 10  1  0  0  0  0
 11  6  1  0  0  0  0
M  RAD  2   9   2  10   3
M  END
