Coordinates from ORCA-job Ph-N2+-scan-d09-499-n800
 OpenBabel09191814153D

 13 13  0  0  0  0  0  0  0  0999 V2000
   -1.9890    0.0967   -1.0859 C   0  0  0  0  0  0  0  0  0  0  0  0
   -0.5854    0.0068   -0.9848 C   0  0  0  0  0  0  0  0  0  0  0  0
   -0.1263    0.8355   -0.0084 C   0  0  0  0  0  0  0  0  0  0  0  0
   -0.6848    1.7092    0.8725 C   0  0  0  0  0  0  0  0  0  0  0  0
   -2.0852    1.7429    0.7101 C   0  0  0  0  0  0  0  0  0  0  0  0
   -2.7184    0.9501   -0.2522 C   0  0  0  0  0  0  0  0  0  0  0  0
   -2.4849   -0.5172   -1.8319 H   0  0  0  0  0  0  0  0  0  0  0  0
    0.0183   -0.6389   -1.6094 H   0  0  0  0  0  0  0  0  0  0  0  0
    1.7652    0.7553    0.1660 N   0  0  0  0  0  0  0  0  0  0  0  0
    2.8638    0.7096    0.2661 N   0  0  0  0  0  0  0  0  0  0  0  0
   -3.7978    0.9986   -0.3545 H   0  0  0  0  0  0  0  0  0  0  0  0
   -2.6554    2.4040    1.3557 H   0  0  0  0  0  0  0  0  0  0  0  0
   -0.1537    2.3052    1.6034 H   0  0  0  0  0  0  0  0  0  0  0  0
  1  2  2  0  0  0  0
  1  6  1  0  0  0  0
  2  3  1  0  0  0  0
  3  9  1  0  0  0  0
  3  4  2  0  0  0  0
  4 13  1  0  0  0  0
  5  4  1  0  0  0  0
  5 12  1  0  0  0  0
  6  5  2  0  0  0  0
  7  1  1  0  0  0  0
  8  2  1  0  0  0  0
  9 10  1  0  0  0  0
 11  6  1  0  0  0  0
M  RAD  2   9   2  10   3
M  END
