Coordinates from ORCA-job Ph-N2+-scan-d09-499-n800
 OpenBabel09191814153D

 13 12  0  0  0  0  0  0  0  0999 V2000
   -3.3691    0.2635   -1.2376 C   0  0  0  0  0  0  0  0  0  0  0  0
   -2.8348   -0.6751   -0.2908 C   0  0  0  0  0  0  0  0  0  0  0  0
   -2.7984    0.0058    0.8479 C   0  0  0  0  0  0  0  0  0  0  0  0
   -3.0290    1.1537    1.4730 C   0  0  0  0  0  0  0  0  0  0  0  0
   -3.5542    2.0078    0.4443 C   0  0  0  0  0  0  0  0  0  0  0  0
   -3.7143    1.5642   -0.8689 C   0  0  0  0  0  0  0  0  0  0  0  0
   -3.4834   -0.1084   -2.2537 H   0  0  0  0  0  0  0  0  0  0  0  0
   -2.5481   -1.6926   -0.5274 H   0  0  0  0  0  0  0  0  0  0  0  0
   11.2022    1.0447   -0.1773 N   0  0  0  0  0  0  0  0  0  0  0  0
   12.3064    1.0856   -0.2106 N   0  0  0  0  0  0  0  0  0  0  0  0
   -4.1128    2.2424   -1.6161 H   0  0  0  0  0  0  0  0  0  0  0  0
   -3.8156    3.0155    0.7594 H   0  0  0  0  0  0  0  0  0  0  0  0
   -2.8826    1.4506    2.5047 H   0  0  0  0  0  0  0  0  0  0  0  0
  1  6  2  0  0  0  0
  1  2  1  0  0  0  0
  2  3  2  0  0  0  0
  3  4  1  0  0  0  0
  4 13  1  0  0  0  0
  5 12  1  0  0  0  0
  5  4  2  0  0  0  0
  6  5  1  0  0  0  0
  7  1  1  0  0  0  0
  8  2  1  0  0  0  0
 10  9  3  0  0  0  0
 11  6  1  0  0  0  0
M  RAD  1   3   2
M  END
