Coordinates from ORCA-job Ph-N2+-scan-d09-499-n800
 OpenBabel09191814153D

 13 12  0  0  0  0  0  0  0  0999 V2000
   -2.5394    0.1424   -1.1394 C   0  0  0  0  0  0  0  0  0  0  0  0
   -1.1334   -0.0389   -0.9111 C   0  0  0  0  0  0  0  0  0  0  0  0
   -0.8641    0.7847    0.0941 C   0  0  0  0  0  0  0  0  0  0  0  0
   -1.3218    1.6833    0.9568 C   0  0  0  0  0  0  0  0  0  0  0  0
   -2.7190    1.7853    0.6419 C   0  0  0  0  0  0  0  0  0  0  0  0
   -3.2992    1.0320   -0.3792 C   0  0  0  0  0  0  0  0  0  0  0  0
   -2.9661   -0.4566   -1.9413 H   0  0  0  0  0  0  0  0  0  0  0  0
   -0.4999   -0.7142   -1.4741 H   0  0  0  0  0  0  0  0  0  0  0  0
    5.0373    0.6372    0.2839 N   0  0  0  0  0  0  0  0  0  0  0  0
    6.1423    0.6315    0.3130 N   0  0  0  0  0  0  0  0  0  0  0  0
   -4.3588    1.1405   -0.5863 H   0  0  0  0  0  0  0  0  0  0  0  0
   -3.2879    2.4853    1.2504 H   0  0  0  0  0  0  0  0  0  0  0  0
   -0.8237    2.2452    1.7381 H   0  0  0  0  0  0  0  0  0  0  0  0
  1  2  2  0  0  0  0
  1  6  1  0  0  0  0
  2  3  1  0  0  0  0
  3  4  2  0  0  0  0
  4 13  1  0  0  0  0
  5  4  1  0  0  0  0
  5 12  1  0  0  0  0
  6  5  2  0  0  0  0
  7  1  1  0  0  0  0
  8  2  1  0  0  0  0
  9 10  3  0  0  0  0
 11  6  1  0  0  0  0
M  RAD  1   3   2
M  END
