Coordinates from ORCA-job Ph-N2+-scan-d09-499-n800
 OpenBabel09191814153D

 13 13  0  0  0  0  0  0  0  0999 V2000
   -1.9438    0.0919   -1.0847 C   0  0  0  0  0  0  0  0  0  0  0  0
   -0.5579    0.0132   -0.9748 C   0  0  0  0  0  0  0  0  0  0  0  0
    0.0100    0.8303    0.0037 C   0  0  0  0  0  0  0  0  0  0  0  0
   -0.6565    1.7011    0.8668 C   0  0  0  0  0  0  0  0  0  0  0  0
   -2.0403    1.7437    0.7173 C   0  0  0  0  0  0  0  0  0  0  0  0
   -2.6737    0.9479   -0.2478 C   0  0  0  0  0  0  0  0  0  0  0  0
   -2.4525   -0.5159   -1.8255 H   0  0  0  0  0  0  0  0  0  0  0  0
    0.0394   -0.6362   -1.6046 H   0  0  0  0  0  0  0  0  0  0  0  0
    1.5230    0.7656    0.1437 N   0  0  0  0  0  0  0  0  0  0  0  0
    2.6273    0.7187    0.2454 N   0  0  0  0  0  0  0  0  0  0  0  0
   -3.7538    0.9961   -0.3498 H   0  0  0  0  0  0  0  0  0  0  0  0
   -2.6227    2.3996    1.3558 H   0  0  0  0  0  0  0  0  0  0  0  0
   -0.1322    2.3017    1.6013 H   0  0  0  0  0  0  0  0  0  0  0  0
  1  2  2  0  0  0  0
  1  6  1  0  0  0  0
  2  3  1  0  0  0  0
  3  9  1  0  0  0  0
  3  4  2  0  0  0  0
  4 13  1  0  0  0  0
  5  4  1  0  0  0  0
  5 12  1  0  0  0  0
  6  5  2  0  0  0  0
  7  1  1  0  0  0  0
  8  2  1  0  0  0  0
  9 10  1  0  0  0  0
 11  6  1  0  0  0  0
M  RAD  2   9   2  10   3
M  END
