Coordinates from ORCA-job Ph-N2+-scan-d09-499-n800
 OpenBabel09191814153D

 13 12  0  0  0  0  0  0  0  0999 V2000
   -3.2683    0.2364   -1.2173 C   0  0  0  0  0  0  0  0  0  0  0  0
   -2.3412   -0.5283   -0.4313 C   0  0  0  0  0  0  0  0  0  0  0  0
   -2.1878    0.1915    0.6731 C   0  0  0  0  0  0  0  0  0  0  0  0
   -2.5091    1.2895    1.3455 C   0  0  0  0  0  0  0  0  0  0  0  0
   -3.4283    1.9705    0.4775 C   0  0  0  0  0  0  0  0  0  0  0  0
   -3.7894    1.4491   -0.7653 C   0  0  0  0  0  0  0  0  0  0  0  0
   -3.5323   -0.1926   -2.1813 H   0  0  0  0  0  0  0  0  0  0  0  0
   -1.9085   -1.4732   -0.7371 H   0  0  0  0  0  0  0  0  0  0  0  0
    9.8643    0.9065   -0.0358 N   0  0  0  0  0  0  0  0  0  0  0  0
   10.9687    0.9467   -0.0617 N   0  0  0  0  0  0  0  0  0  0  0  0
   -4.4867    1.9964   -1.3910 H   0  0  0  0  0  0  0  0  0  0  0  0
   -3.8185    2.9132    0.8541 H   0  0  0  0  0  0  0  0  0  0  0  0
   -2.1968    1.6520    2.3174 H   0  0  0  0  0  0  0  0  0  0  0  0
  1  6  2  0  0  0  0
  1  2  1  0  0  0  0
  2  3  2  0  0  0  0
  3  4  1  0  0  0  0
  4 13  1  0  0  0  0
  5 12  1  0  0  0  0
  5  4  2  0  0  0  0
  6  5  1  0  0  0  0
  7  1  1  0  0  0  0
  8  2  1  0  0  0  0
 10  9  3  0  0  0  0
 11  6  1  0  0  0  0
M  RAD  1   3   2
M  END
