Coordinates from ORCA-job Ph-N2+-scan-d09-499-n800
 OpenBabel09191814153D

 13 13  0  0  0  0  0  0  0  0999 V2000
   -1.9552    0.0931   -1.0850 C   0  0  0  0  0  0  0  0  0  0  0  0
   -0.5648    0.0115   -0.9774 C   0  0  0  0  0  0  0  0  0  0  0  0
   -0.0265    0.8317    0.0004 C   0  0  0  0  0  0  0  0  0  0  0  0
   -0.6636    1.7032    0.8683 C   0  0  0  0  0  0  0  0  0  0  0  0
   -2.0516    1.7435    0.7156 C   0  0  0  0  0  0  0  0  0  0  0  0
   -2.6847    0.9484   -0.2489 C   0  0  0  0  0  0  0  0  0  0  0  0
   -2.4618   -0.5158   -1.8267 H   0  0  0  0  0  0  0  0  0  0  0  0
    0.0345   -0.6367   -1.6055 H   0  0  0  0  0  0  0  0  0  0  0  0
    1.5861    0.7629    0.1495 N   0  0  0  0  0  0  0  0  0  0  0  0
    2.6876    0.7163    0.2506 N   0  0  0  0  0  0  0  0  0  0  0  0
   -3.7645    0.9967   -0.3509 H   0  0  0  0  0  0  0  0  0  0  0  0
   -2.6320    2.4003    1.3552 H   0  0  0  0  0  0  0  0  0  0  0  0
   -0.1372    2.3023    1.6017 H   0  0  0  0  0  0  0  0  0  0  0  0
  1  2  2  0  0  0  0
  1  6  1  0  0  0  0
  2  3  1  0  0  0  0
  3  9  1  0  0  0  0
  3  4  2  0  0  0  0
  4 13  1  0  0  0  0
  5  4  1  0  0  0  0
  5 12  1  0  0  0  0
  6  5  2  0  0  0  0
  7  1  1  0  0  0  0
  8  2  1  0  0  0  0
  9 10  1  0  0  0  0
 11  6  1  0  0  0  0
M  RAD  2   9   2  10   3
M  END
