Coordinates from ORCA-job Ph-N2+-scan-d09-499-n800
 OpenBabel09191814153D

 13 12  0  0  0  0  0  0  0  0999 V2000
   -2.6889    0.2101   -1.1923 C   0  0  0  0  0  0  0  0  0  0  0  0
   -1.4321   -0.2067   -0.6373 C   0  0  0  0  0  0  0  0  0  0  0  0
   -1.2887    0.5561    0.4392 C   0  0  0  0  0  0  0  0  0  0  0  0
   -1.7928    1.5164    1.2041 C   0  0  0  0  0  0  0  0  0  0  0  0
   -3.0332    1.8533    0.5642 C   0  0  0  0  0  0  0  0  0  0  0  0
   -3.4580    1.2121   -0.5998 C   0  0  0  0  0  0  0  0  0  0  0  0
   -2.9959   -0.3060   -2.0993 H   0  0  0  0  0  0  0  0  0  0  0  0
   -0.7989   -0.9789   -1.0581 H   0  0  0  0  0  0  0  0  0  0  0  0
    6.5909    0.6763    0.0811 N   0  0  0  0  0  0  0  0  0  0  0  0
    7.6954    0.7037    0.0441 N   0  0  0  0  0  0  0  0  0  0  0  0
   -4.4019    1.4977   -1.0515 H   0  0  0  0  0  0  0  0  0  0  0  0
   -3.6118    2.6385    1.0463 H   0  0  0  0  0  0  0  0  0  0  0  0
   -1.4180    1.9851    2.1060 H   0  0  0  0  0  0  0  0  0  0  0  0
  1  2  2  0  0  0  0
  1  6  1  0  0  0  0
  2  3  1  0  0  0  0
  3  4  2  0  0  0  0
  4 13  1  0  0  0  0
  5 12  1  0  0  0  0
  5  4  1  0  0  0  0
  6  5  2  0  0  0  0
  7  1  1  0  0  0  0
  8  2  1  0  0  0  0
 10  9  3  0  0  0  0
 11  6  1  0  0  0  0
M  RAD  1   3   2
M  END
