Coordinates from ORCA-job Ph-N2+-scan-d09-499-n800
 OpenBabel09191814153D

 13 12  0  0  0  0  0  0  0  0999 V2000
   -2.7226    0.2207   -1.1988 C   0  0  0  0  0  0  0  0  0  0  0  0
   -1.5112   -0.2489   -0.5876 C   0  0  0  0  0  0  0  0  0  0  0  0
   -1.3889    0.5025    0.4995 C   0  0  0  0  0  0  0  0  0  0  0  0
   -1.8891    1.4798    1.2452 C   0  0  0  0  0  0  0  0  0  0  0  0
   -3.0832    1.8693    0.5494 C   0  0  0  0  0  0  0  0  0  0  0  0
   -3.4779    1.2507   -0.6372 C   0  0  0  0  0  0  0  0  0  0  0  0
   -3.0069   -0.2789   -2.1222 H   0  0  0  0  0  0  0  0  0  0  0  0
   -0.8906   -1.0446   -0.9825 H   0  0  0  0  0  0  0  0  0  0  0  0
    6.9052    0.6935    0.0355 N   0  0  0  0  0  0  0  0  0  0  0  0
    8.0094    0.7326    0.0020 N   0  0  0  0  0  0  0  0  0  0  0  0
   -4.3871    1.5761   -1.1311 H   0  0  0  0  0  0  0  0  0  0  0  0
   -3.6517    2.6755    1.0082 H   0  0  0  0  0  0  0  0  0  0  0  0
   -1.5390    1.9294    2.1664 H   0  0  0  0  0  0  0  0  0  0  0  0
  1  6  2  0  0  0  0
  1  2  1  0  0  0  0
  2  3  2  0  0  0  0
  3  4  1  0  0  0  0
  4 13  1  0  0  0  0
  5 12  1  0  0  0  0
  5  4  2  0  0  0  0
  6  5  1  0  0  0  0
  7  1  1  0  0  0  0
  8  2  1  0  0  0  0
 10  9  3  0  0  0  0
 11  6  1  0  0  0  0
M  RAD  1   3   2
M  END
