Coordinates from ORCA-job Ph-N2+-scan-d09-499-n800
 OpenBabel09191814153D

 13 12  0  0  0  0  0  0  0  0999 V2000
   -2.6871    0.2077   -1.1909 C   0  0  0  0  0  0  0  0  0  0  0  0
   -1.4223   -0.2006   -0.6476 C   0  0  0  0  0  0  0  0  0  0  0  0
   -1.2733    0.5645    0.4265 C   0  0  0  0  0  0  0  0  0  0  0  0
   -1.7760    1.5225    1.1951 C   0  0  0  0  0  0  0  0  0  0  0  0
   -3.0246    1.8510    0.5669 C   0  0  0  0  0  0  0  0  0  0  0  0
   -3.4566    1.2057   -0.5922 C   0  0  0  0  0  0  0  0  0  0  0  0
   -2.9995   -0.3114   -2.0944 H   0  0  0  0  0  0  0  0  0  0  0  0
   -0.7884   -0.9692   -1.0737 H   0  0  0  0  0  0  0  0  0  0  0  0
    6.5474    0.6746    0.0909 N   0  0  0  0  0  0  0  0  0  0  0  0
    7.6519    0.7005    0.0549 N   0  0  0  0  0  0  0  0  0  0  0  0
   -4.4066    1.4848   -1.0351 H   0  0  0  0  0  0  0  0  0  0  0  0
   -3.6034    2.6330    1.0537 H   0  0  0  0  0  0  0  0  0  0  0  0
   -1.3954    1.9947    2.0928 H   0  0  0  0  0  0  0  0  0  0  0  0
  1  2  2  0  0  0  0
  1  6  1  0  0  0  0
  2  3  1  0  0  0  0
  3  4  2  0  0  0  0
  4 13  1  0  0  0  0
  5 12  1  0  0  0  0
  5  4  1  0  0  0  0
  6  5  2  0  0  0  0
  7  1  1  0  0  0  0
  8  2  1  0  0  0  0
 10  9  3  0  0  0  0
 11  6  1  0  0  0  0
M  RAD  1   3   2
M  END
