Coordinates from ORCA-job Ph-N2+-scan-d09-499-n800
 OpenBabel09191814153D

 13 12  0  0  0  0  0  0  0  0999 V2000
   -3.3731    0.2588   -1.2362 C   0  0  0  0  0  0  0  0  0  0  0  0
   -2.7672   -0.6586   -0.3119 C   0  0  0  0  0  0  0  0  0  0  0  0
   -2.7009    0.0278    0.8222 C   0  0  0  0  0  0  0  0  0  0  0  0
   -2.9356    1.1718    1.4530 C   0  0  0  0  0  0  0  0  0  0  0  0
   -3.5337    2.0046    0.4468 C   0  0  0  0  0  0  0  0  0  0  0  0
   -3.7405    1.5502   -0.8562 C   0  0  0  0  0  0  0  0  0  0  0  0
   -3.5226   -0.1209   -2.2446 H   0  0  0  0  0  0  0  0  0  0  0  0
   -2.4604   -1.6679   -0.5581 H   0  0  0  0  0  0  0  0  0  0  0  0
   11.0248    1.0269   -0.1475 N   0  0  0  0  0  0  0  0  0  0  0  0
   12.1290    1.0685   -0.1797 N   0  0  0  0  0  0  0  0  0  0  0  0
   -4.1930    2.2127   -1.5865 H   0  0  0  0  0  0  0  0  0  0  0  0
   -3.8105    3.0056    0.7701 H   0  0  0  0  0  0  0  0  0  0  0  0
   -2.7500    1.4781    2.4755 H   0  0  0  0  0  0  0  0  0  0  0  0
  1  6  2  0  0  0  0
  1  2  1  0  0  0  0
  2  3  2  0  0  0  0
  3  4  1  0  0  0  0
  4 13  1  0  0  0  0
  5 12  1  0  0  0  0
  5  4  2  0  0  0  0
  6  5  1  0  0  0  0
  7  1  1  0  0  0  0
  8  2  1  0  0  0  0
 10  9  3  0  0  0  0
 11  6  1  0  0  0  0
M  RAD  1   3   2
M  END
