Coordinates from ORCA-job Ph-N2+-scan-d09-499-n800
 OpenBabel09191814153D

 13 12  0  0  0  0  0  0  0  0999 V2000
   -2.2017    0.1098   -1.1037 C   0  0  0  0  0  0  0  0  0  0  0  0
   -0.7754   -0.0063   -0.9977 C   0  0  0  0  0  0  0  0  0  0  0  0
   -0.4536    0.8331   -0.0207 C   0  0  0  0  0  0  0  0  0  0  0  0
   -0.8783    1.7135    0.8778 C   0  0  0  0  0  0  0  0  0  0  0  0
   -2.2999    1.7513    0.6863 C   0  0  0  0  0  0  0  0  0  0  0  0
   -2.9319    0.9677   -0.2802 C   0  0  0  0  0  0  0  0  0  0  0  0
   -2.6705   -0.5107   -1.8644 H   0  0  0  0  0  0  0  0  0  0  0  0
   -0.1614   -0.6542   -1.6115 H   0  0  0  0  0  0  0  0  0  0  0  0
    2.9158    0.7142    0.2594 N   0  0  0  0  0  0  0  0  0  0  0  0
    4.0173    0.6856    0.3431 N   0  0  0  0  0  0  0  0  0  0  0  0
   -4.0096    1.0271   -0.3938 H   0  0  0  0  0  0  0  0  0  0  0  0
   -2.8464    2.4270    1.3407 H   0  0  0  0  0  0  0  0  0  0  0  0
   -0.3382    2.2995    1.6115 H   0  0  0  0  0  0  0  0  0  0  0  0
  1  2  2  0  0  0  0
  1  6  1  0  0  0  0
  2  3  1  0  0  0  0
  3  4  2  0  0  0  0
  4 13  1  0  0  0  0
  5  4  1  0  0  0  0
  5 12  1  0  0  0  0
  6  5  2  0  0  0  0
  7  1  1  0  0  0  0
  8  2  1  0  0  0  0
  9 10  3  0  0  0  0
 11  6  1  0  0  0  0
M  RAD  1   3   2
M  END
