Coordinates from ORCA-job Ph-N2+-scan-d09-499-n800
 OpenBabel09191814153D

 13 12  0  0  0  0  0  0  0  0999 V2000
   -2.3093    0.1181   -1.1146 C   0  0  0  0  0  0  0  0  0  0  0  0
   -0.8858   -0.0143   -0.9821 C   0  0  0  0  0  0  0  0  0  0  0  0
   -0.5763    0.8216    0.0012 C   0  0  0  0  0  0  0  0  0  0  0  0
   -1.0051    1.7064    0.8926 C   0  0  0  0  0  0  0  0  0  0  0  0
   -2.4231    1.7598    0.6738 C   0  0  0  0  0  0  0  0  0  0  0  0
   -3.0453    0.9838   -0.3047 C   0  0  0  0  0  0  0  0  0  0  0  0
   -2.7694   -0.4974   -1.8848 H   0  0  0  0  0  0  0  0  0  0  0  0
   -0.2683   -0.6690   -1.5854 H   0  0  0  0  0  0  0  0  0  0  0  0
    3.5561    0.6917    0.2839 N   0  0  0  0  0  0  0  0  0  0  0  0
    4.6592    0.6730    0.3500 N   0  0  0  0  0  0  0  0  0  0  0  0
   -4.1199    1.0553   -0.4389 H   0  0  0  0  0  0  0  0  0  0  0  0
   -2.9732    2.4418    1.3188 H   0  0  0  0  0  0  0  0  0  0  0  0
   -0.4733    2.2868    1.6371 H   0  0  0  0  0  0  0  0  0  0  0  0
  1  2  2  0  0  0  0
  1  6  1  0  0  0  0
  2  3  1  0  0  0  0
  3  4  2  0  0  0  0
  4 13  1  0  0  0  0
  5  4  1  0  0  0  0
  5 12  1  0  0  0  0
  6  5  2  0  0  0  0
  7  1  1  0  0  0  0
  8  2  1  0  0  0  0
  9 10  3  0  0  0  0
 11  6  1  0  0  0  0
M  RAD  1   3   2
M  END
