Coordinates from ORCA-job Ph-N2+-scan-d09-499-n800
 OpenBabel09191814153D

 13 12  0  0  0  0  0  0  0  0999 V2000
   -3.1142    0.3223   -1.1724 C   0  0  0  0  0  0  0  0  0  0  0  0
   -3.0204   -0.6928   -0.1615 C   0  0  0  0  0  0  0  0  0  0  0  0
   -3.3758   -0.0678    0.9540 C   0  0  0  0  0  0  0  0  0  0  0  0
   -3.7674    1.0644    1.5251 C   0  0  0  0  0  0  0  0  0  0  0  0
   -3.8267    1.9988    0.4360 C   0  0  0  0  0  0  0  0  0  0  0  0
   -3.5069    1.6267   -0.8701 C   0  0  0  0  0  0  0  0  0  0  0  0
   -2.8577    0.0054   -2.1810 H   0  0  0  0  0  0  0  0  0  0  0  0
   -2.7177   -1.7170   -0.3440 H   0  0  0  0  0  0  0  0  0  0  0  0
   12.0789    1.0583   -0.4409 N   0  0  0  0  0  0  0  0  0  0  0  0
   13.1830    1.0846   -0.4887 N   0  0  0  0  0  0  0  0  0  0  0  0
   -3.5648    2.3639   -1.6640 H   0  0  0  0  0  0  0  0  0  0  0  0
   -4.1369    3.0076    0.6999 H   0  0  0  0  0  0  0  0  0  0  0  0
   -4.0072    1.3033    2.5543 H   0  0  0  0  0  0  0  0  0  0  0  0
  1  6  2  0  0  0  0
  1  2  1  0  0  0  0
  2  3  2  0  0  0  0
  3  4  1  0  0  0  0
  4 13  1  0  0  0  0
  5 12  1  0  0  0  0
  5  4  2  0  0  0  0
  6  5  1  0  0  0  0
  7  1  1  0  0  0  0
  8  2  1  0  0  0  0
 10  9  3  0  0  0  0
 11  6  1  0  0  0  0
M  RAD  1   3   2
M  END
