Coordinates from ORCA-job Ph-N2+-scan-d09-499-n800
 OpenBabel09191814153D

 13 12  0  0  0  0  0  0  0  0999 V2000
   -3.0108    0.3528   -1.1172 C   0  0  0  0  0  0  0  0  0  0  0  0
   -3.0209   -0.6786   -0.1187 C   0  0  0  0  0  0  0  0  0  0  0  0
   -3.5190   -0.0805    0.9563 C   0  0  0  0  0  0  0  0  0  0  0  0
   -3.9964    1.0340    1.4954 C   0  0  0  0  0  0  0  0  0  0  0  0
   -3.9419    1.9868    0.4217 C   0  0  0  0  0  0  0  0  0  0  0  0
   -3.4609    1.6449   -0.8423 C   0  0  0  0  0  0  0  0  0  0  0  0
   -2.6328    0.0584   -2.0938 H   0  0  0  0  0  0  0  0  0  0  0  0
   -2.6842   -1.6956   -0.2803 H   0  0  0  0  0  0  0  0  0  0  0  0
   12.3111    1.0400   -0.5263 N   0  0  0  0  0  0  0  0  0  0  0  0
   13.4150    1.0614   -0.5801 N   0  0  0  0  0  0  0  0  0  0  0  0
   -3.4361    2.3964   -1.6246 H   0  0  0  0  0  0  0  0  0  0  0  0
   -4.2984    2.9857    0.6639 H   0  0  0  0  0  0  0  0  0  0  0  0
   -4.3583    1.2520    2.4929 H   0  0  0  0  0  0  0  0  0  0  0  0
  1  6  2  0  0  0  0
  1  2  1  0  0  0  0
  2  3  2  0  0  0  0
  3  4  1  0  0  0  0
  4 13  1  0  0  0  0
  5 12  1  0  0  0  0
  5  4  2  0  0  0  0
  6  5  1  0  0  0  0
  7  1  1  0  0  0  0
  8  2  1  0  0  0  0
 10  9  3  0  0  0  0
 11  6  1  0  0  0  0
M  RAD  1   3   2
M  END
