Coordinates from ORCA-job Ph-N2+-scan-d09-499-n800
 OpenBabel09191814153D

 13 12  0  0  0  0  0  0  0  0999 V2000
   -1.9915    0.0969   -1.0859 C   0  0  0  0  0  0  0  0  0  0  0  0
   -0.5871    0.0065   -0.9853 C   0  0  0  0  0  0  0  0  0  0  0  0
   -0.1330    0.8358   -0.0089 C   0  0  0  0  0  0  0  0  0  0  0  0
   -0.6865    1.7096    0.8727 C   0  0  0  0  0  0  0  0  0  0  0  0
   -2.0877    1.7429    0.7097 C   0  0  0  0  0  0  0  0  0  0  0  0
   -2.7210    0.9502   -0.2524 C   0  0  0  0  0  0  0  0  0  0  0  0
   -2.4866   -0.5173   -1.8323 H   0  0  0  0  0  0  0  0  0  0  0  0
    0.0169   -0.6391   -1.6097 H   0  0  0  0  0  0  0  0  0  0  0  0
    1.7784    0.7547    0.1672 N   0  0  0  0  0  0  0  0  0  0  0  0
    2.8770    0.7091    0.2672 N   0  0  0  0  0  0  0  0  0  0  0  0
   -3.8004    0.9988   -0.3548 H   0  0  0  0  0  0  0  0  0  0  0  0
   -2.6571    2.4044    1.3558 H   0  0  0  0  0  0  0  0  0  0  0  0
   -0.1552    2.3054    1.6035 H   0  0  0  0  0  0  0  0  0  0  0  0
  1  2  2  0  0  0  0
  1  6  1  0  0  0  0
  2  3  1  0  0  0  0
  3  4  2  0  0  0  0
  4 13  1  0  0  0  0
  5  4  1  0  0  0  0
  5 12  1  0  0  0  0
  6  5  2  0  0  0  0
  7  1  1  0  0  0  0
  8  2  1  0  0  0  0
  9 10  3  0  0  0  0
 11  6  1  0  0  0  0
M  RAD  1   3   2
M  END
