Coordinates from ORCA-job Ph-N2+-scan-d09-499-n800
 OpenBabel09191814153D

 13 12  0  0  0  0  0  0  0  0999 V2000
   -2.2480    0.1131   -1.1083 C   0  0  0  0  0  0  0  0  0  0  0  0
   -0.8225   -0.0099   -0.9927 C   0  0  0  0  0  0  0  0  0  0  0  0
   -0.5056    0.8281   -0.0135 C   0  0  0  0  0  0  0  0  0  0  0  0
   -0.9303    1.7103    0.8827 C   0  0  0  0  0  0  0  0  0  0  0  0
   -2.3509    1.7546    0.6811 C   0  0  0  0  0  0  0  0  0  0  0  0
   -2.9798    0.9742   -0.2898 C   0  0  0  0  0  0  0  0  0  0  0  0
   -2.7138   -0.5054   -1.8727 H   0  0  0  0  0  0  0  0  0  0  0  0
   -0.2075   -0.6606   -1.6028 H   0  0  0  0  0  0  0  0  0  0  0  0
    3.1849    0.7059    0.2721 N   0  0  0  0  0  0  0  0  0  0  0  0
    4.2871    0.6815    0.3492 N   0  0  0  0  0  0  0  0  0  0  0  0
   -4.0564    1.0388   -0.4110 H   0  0  0  0  0  0  0  0  0  0  0  0
   -2.8981    2.4331    1.3322 H   0  0  0  0  0  0  0  0  0  0  0  0
   -0.3928    2.2940    1.6204 H   0  0  0  0  0  0  0  0  0  0  0  0
  1  2  2  0  0  0  0
  1  6  1  0  0  0  0
  2  3  1  0  0  0  0
  3  4  2  0  0  0  0
  4 13  1  0  0  0  0
  5  4  1  0  0  0  0
  5 12  1  0  0  0  0
  6  5  2  0  0  0  0
  7  1  1  0  0  0  0
  8  2  1  0  0  0  0
  9 10  3  0  0  0  0
 11  6  1  0  0  0  0
M  RAD  1   3   2
M  END
