Coordinates from ORCA-job Ph-N2+-scan-d09-499-n800
 OpenBabel09191814153D

 13 12  0  0  0  0  0  0  0  0999 V2000
   -2.1002    0.1041   -1.0939 C   0  0  0  0  0  0  0  0  0  0  0  0
   -0.6762   -0.0008   -0.9971 C   0  0  0  0  0  0  0  0  0  0  0  0
   -0.3338    0.8391   -0.0223 C   0  0  0  0  0  0  0  0  0  0  0  0
   -0.7768    1.7164    0.8760 C   0  0  0  0  0  0  0  0  0  0  0  0
   -2.1964    1.7459    0.6969 C   0  0  0  0  0  0  0  0  0  0  0  0
   -2.8301    0.9575   -0.2650 C   0  0  0  0  0  0  0  0  0  0  0  0
   -2.5745   -0.5181   -1.8495 H   0  0  0  0  0  0  0  0  0  0  0  0
   -0.0642   -0.6451   -1.6155 H   0  0  0  0  0  0  0  0  0  0  0  0
    2.3555    0.7309    0.2192 N   0  0  0  0  0  0  0  0  0  0  0  0
    3.4558    0.6947    0.3102 N   0  0  0  0  0  0  0  0  0  0  0  0
   -3.9090    1.0096   -0.3708 H   0  0  0  0  0  0  0  0  0  0  0  0
   -2.7465    2.4167    1.3528 H   0  0  0  0  0  0  0  0  0  0  0  0
   -0.2372    2.3067    1.6058 H   0  0  0  0  0  0  0  0  0  0  0  0
  1  2  2  0  0  0  0
  1  6  1  0  0  0  0
  2  3  1  0  0  0  0
  3  4  2  0  0  0  0
  4 13  1  0  0  0  0
  5  4  1  0  0  0  0
  5 12  1  0  0  0  0
  6  5  2  0  0  0  0
  7  1  1  0  0  0  0
  8  2  1  0  0  0  0
  9 10  3  0  0  0  0
 11  6  1  0  0  0  0
M  RAD  1   3   2
M  END
