Coordinates from ORCA-job Ph-N2+-scan-d09-499-n800
 OpenBabel09191814153D

 13 12  0  0  0  0  0  0  0  0999 V2000
   -3.0717    0.2372   -1.2139 C   0  0  0  0  0  0  0  0  0  0  0  0
   -2.0329   -0.4239   -0.4751 C   0  0  0  0  0  0  0  0  0  0  0  0
   -1.9123    0.3035    0.6285 C   0  0  0  0  0  0  0  0  0  0  0  0
   -2.3240    1.3559    1.3243 C   0  0  0  0  0  0  0  0  0  0  0  0
   -3.3492    1.9348    0.5023 C   0  0  0  0  0  0  0  0  0  0  0  0
   -3.7037    1.3825   -0.7289 C   0  0  0  0  0  0  0  0  0  0  0  0
   -3.3283   -0.2142   -2.1697 H   0  0  0  0  0  0  0  0  0  0  0  0
   -1.5130   -1.3145   -0.8072 H   0  0  0  0  0  0  0  0  0  0  0  0
    8.9082    0.8160   -0.0279 N   0  0  0  0  0  0  0  0  0  0  0  0
   10.0126    0.8548   -0.0555 N   0  0  0  0  0  0  0  0  0  0  0  0
   -4.4839    1.8517   -1.3189 H   0  0  0  0  0  0  0  0  0  0  0  0
   -3.8239    2.8273    0.9037 H   0  0  0  0  0  0  0  0  0  0  0  0
   -2.0115    1.7466    2.2851 H   0  0  0  0  0  0  0  0  0  0  0  0
  1  6  2  0  0  0  0
  1  2  1  0  0  0  0
  2  3  2  0  0  0  0
  3  4  1  0  0  0  0
  4 13  1  0  0  0  0
  5 12  1  0  0  0  0
  5  4  2  0  0  0  0
  6  5  1  0  0  0  0
  7  1  1  0  0  0  0
  8  2  1  0  0  0  0
 10  9  3  0  0  0  0
 11  6  1  0  0  0  0
M  RAD  1   3   2
M  END
