Coordinates from ORCA-job Ph-N2+-scan-d09-499-n800
 OpenBabel09191814153D

 13 12  0  0  0  0  0  0  0  0999 V2000
   -2.9929    0.2356   -1.2115 C   0  0  0  0  0  0  0  0  0  0  0  0
   -1.9148   -0.3857   -0.4950 C   0  0  0  0  0  0  0  0  0  0  0  0
   -1.7991    0.3454    0.6066 C   0  0  0  0  0  0  0  0  0  0  0  0
   -2.2361    1.3812    1.3119 C   0  0  0  0  0  0  0  0  0  0  0  0
   -3.2993    1.9209    0.5117 C   0  0  0  0  0  0  0  0  0  0  0  0
   -3.6579    1.3559   -0.7124 C   0  0  0  0  0  0  0  0  0  0  0  0
   -3.2520   -0.2250   -2.1623 H   0  0  0  0  0  0  0  0  0  0  0  0
   -1.3686   -1.2561   -0.8385 H   0  0  0  0  0  0  0  0  0  0  0  0
    8.4841    0.7836   -0.0227 N   0  0  0  0  0  0  0  0  0  0  0  0
    9.5884    0.8284   -0.0453 N   0  0  0  0  0  0  0  0  0  0  0  0
   -4.4674    1.7953   -1.2857 H   0  0  0  0  0  0  0  0  0  0  0  0
   -3.7991    2.7948    0.9237 H   0  0  0  0  0  0  0  0  0  0  0  0
   -1.9188    1.7834    2.2663 H   0  0  0  0  0  0  0  0  0  0  0  0
  1  6  2  0  0  0  0
  1  2  1  0  0  0  0
  2  3  2  0  0  0  0
  3  4  1  0  0  0  0
  4 13  1  0  0  0  0
  5 12  1  0  0  0  0
  5  4  2  0  0  0  0
  6  5  1  0  0  0  0
  7  1  1  0  0  0  0
  8  2  1  0  0  0  0
 10  9  3  0  0  0  0
 11  6  1  0  0  0  0
M  RAD  1   3   2
M  END
