Coordinates from ORCA-job Ph-N2+-scan-d09-499-n800
 OpenBabel09191814153D

 13 12  0  0  0  0  0  0  0  0999 V2000
   -2.0124    0.0987   -1.0869 C   0  0  0  0  0  0  0  0  0  0  0  0
   -0.6016    0.0044   -0.9889 C   0  0  0  0  0  0  0  0  0  0  0  0
   -0.1836    0.8375   -0.0132 C   0  0  0  0  0  0  0  0  0  0  0  0
   -0.7013    1.7123    0.8742 C   0  0  0  0  0  0  0  0  0  0  0  0
   -2.1084    1.7429    0.7068 C   0  0  0  0  0  0  0  0  0  0  0  0
   -2.7420    0.9513   -0.2546 C   0  0  0  0  0  0  0  0  0  0  0  0
   -2.5009   -0.5185   -1.8359 H   0  0  0  0  0  0  0  0  0  0  0  0
    0.0044   -0.6403   -1.6119 H   0  0  0  0  0  0  0  0  0  0  0  0
    1.8873    0.7501    0.1772 N   0  0  0  0  0  0  0  0  0  0  0  0
    2.9859    0.7053    0.2766 N   0  0  0  0  0  0  0  0  0  0  0  0
   -3.8213    1.0002   -0.3572 H   0  0  0  0  0  0  0  0  0  0  0  0
   -2.6718    2.4070    1.3564 H   0  0  0  0  0  0  0  0  0  0  0  0
   -0.1678    2.3068    1.6042 H   0  0  0  0  0  0  0  0  0  0  0  0
  1  2  2  0  0  0  0
  1  6  1  0  0  0  0
  2  3  1  0  0  0  0
  3  4  2  0  0  0  0
  4 13  1  0  0  0  0
  5  4  1  0  0  0  0
  5 12  1  0  0  0  0
  6  5  2  0  0  0  0
  7  1  1  0  0  0  0
  8  2  1  0  0  0  0
  9 10  3  0  0  0  0
 11  6  1  0  0  0  0
M  RAD  1   3   2
M  END
