Coordinates from ORCA-job Ph-N2+-scan-d09-499-n800
 OpenBabel09191814153D

 13 12  0  0  0  0  0  0  0  0999 V2000
   -2.8168    0.2277   -1.2045 C   0  0  0  0  0  0  0  0  0  0  0  0
   -1.6592   -0.3083   -0.5456 C   0  0  0  0  0  0  0  0  0  0  0  0
   -1.5410    0.4337    0.5484 C   0  0  0  0  0  0  0  0  0  0  0  0
   -2.0169    1.4365    1.2759 C   0  0  0  0  0  0  0  0  0  0  0  0
   -3.1581    1.8918    0.5328 C   0  0  0  0  0  0  0  0  0  0  0  0
   -3.5369    1.2970   -0.6709 C   0  0  0  0  0  0  0  0  0  0  0  0
   -3.0900   -0.2546   -2.1404 H   0  0  0  0  0  0  0  0  0  0  0  0
   -1.0677   -1.1367   -0.9173 H   0  0  0  0  0  0  0  0  0  0  0  0
    7.4679    0.7243    0.0008 N   0  0  0  0  0  0  0  0  0  0  0  0
    8.5718    0.7814   -0.0146 N   0  0  0  0  0  0  0  0  0  0  0  0
   -4.4060    1.6723   -1.2007 H   0  0  0  0  0  0  0  0  0  0  0  0
   -3.6998    2.7275    0.9706 H   0  0  0  0  0  0  0  0  0  0  0  0
   -1.6810    1.8650    2.2123 H   0  0  0  0  0  0  0  0  0  0  0  0
  1  6  2  0  0  0  0
  1  2  1  0  0  0  0
  2  3  2  0  0  0  0
  3  4  1  0  0  0  0
  4 13  1  0  0  0  0
  5 12  1  0  0  0  0
  5  4  2  0  0  0  0
  6  5  1  0  0  0  0
  7  1  1  0  0  0  0
  8  2  1  0  0  0  0
 10  9  3  0  0  0  0
 11  6  1  0  0  0  0
M  RAD  1   3   2
M  END
