Coordinates from ORCA-job Ph-N2+-scan-d09-499-n800
 OpenBabel09191814153D

 13 12  0  0  0  0  0  0  0  0999 V2000
   -2.6860    0.2050   -1.1894 C   0  0  0  0  0  0  0  0  0  0  0  0
   -1.4130   -0.1944   -0.6589 C   0  0  0  0  0  0  0  0  0  0  0  0
   -1.2575    0.5732    0.4125 C   0  0  0  0  0  0  0  0  0  0  0  0
   -1.7583    1.5289    1.1852 C   0  0  0  0  0  0  0  0  0  0  0  0
   -3.0155    1.8485    0.5697 C   0  0  0  0  0  0  0  0  0  0  0  0
   -3.4556    1.1989   -0.5840 C   0  0  0  0  0  0  0  0  0  0  0  0
   -3.0045   -0.3172   -2.0889 H   0  0  0  0  0  0  0  0  0  0  0  0
   -0.7786   -0.9595   -1.0907 H   0  0  0  0  0  0  0  0  0  0  0  0
    6.5042    0.6731    0.1017 N   0  0  0  0  0  0  0  0  0  0  0  0
    7.6088    0.6976    0.0670 N   0  0  0  0  0  0  0  0  0  0  0  0
   -4.4119    1.4713   -1.0172 H   0  0  0  0  0  0  0  0  0  0  0  0
   -3.5943    2.6275    1.0616 H   0  0  0  0  0  0  0  0  0  0  0  0
   -1.3715    2.0047    2.0782 H   0  0  0  0  0  0  0  0  0  0  0  0
  1  2  2  0  0  0  0
  1  6  1  0  0  0  0
  2  3  1  0  0  0  0
  3  4  2  0  0  0  0
  4 13  1  0  0  0  0
  5 12  1  0  0  0  0
  5  4  1  0  0  0  0
  6  5  2  0  0  0  0
  7  1  1  0  0  0  0
  8  2  1  0  0  0  0
 10  9  3  0  0  0  0
 11  6  1  0  0  0  0
M  RAD  1   3   2
M  END
