Coordinates from ORCA-job Ph-N2+-scan-d09-499-n800
 OpenBabel09191814153D

 13 12  0  0  0  0  0  0  0  0999 V2000
   -3.2473    0.2363   -1.2168 C   0  0  0  0  0  0  0  0  0  0  0  0
   -2.3065   -0.5175   -0.4365 C   0  0  0  0  0  0  0  0  0  0  0  0
   -2.1558    0.2033    0.6676 C   0  0  0  0  0  0  0  0  0  0  0  0
   -2.4869    1.2969    1.3426 C   0  0  0  0  0  0  0  0  0  0  0  0
   -3.4192    1.9671    0.4801 C   0  0  0  0  0  0  0  0  0  0  0  0
   -3.7807    1.4422   -0.7610 C   0  0  0  0  0  0  0  0  0  0  0  0
   -3.5113   -0.1953   -2.1796 H   0  0  0  0  0  0  0  0  0  0  0  0
   -1.8641   -1.4569   -0.7454 H   0  0  0  0  0  0  0  0  0  0  0  0
    9.7572    0.8966   -0.0342 N   0  0  0  0  0  0  0  0  0  0  0  0
   10.8616    0.9367   -0.0603 N   0  0  0  0  0  0  0  0  0  0  0  0
   -4.4882    1.9812   -1.3824 H   0  0  0  0  0  0  0  0  0  0  0  0
   -3.8187    2.9048    0.8596 H   0  0  0  0  0  0  0  0  0  0  0  0
   -2.1737    1.6624    2.3130 H   0  0  0  0  0  0  0  0  0  0  0  0
  1  6  2  0  0  0  0
  1  2  1  0  0  0  0
  2  3  2  0  0  0  0
  3  4  1  0  0  0  0
  4 13  1  0  0  0  0
  5 12  1  0  0  0  0
  5  4  2  0  0  0  0
  6  5  1  0  0  0  0
  7  1  1  0  0  0  0
  8  2  1  0  0  0  0
 10  9  3  0  0  0  0
 11  6  1  0  0  0  0
M  RAD  1   3   2
M  END
