Coordinates from ORCA-job Ph-N2+-scan-d09-499-n800
 OpenBabel09191814153D

 13 12  0  0  0  0  0  0  0  0999 V2000
   -3.2653    0.2364   -1.2172 C   0  0  0  0  0  0  0  0  0  0  0  0
   -2.3363   -0.5268   -0.4320 C   0  0  0  0  0  0  0  0  0  0  0  0
   -2.1832    0.1931    0.6723 C   0  0  0  0  0  0  0  0  0  0  0  0
   -2.5058    1.2906    1.3450 C   0  0  0  0  0  0  0  0  0  0  0  0
   -3.4269    1.9700    0.4778 C   0  0  0  0  0  0  0  0  0  0  0  0
   -3.7882    1.4481   -0.7646 C   0  0  0  0  0  0  0  0  0  0  0  0
   -3.5294   -0.1930   -2.1810 H   0  0  0  0  0  0  0  0  0  0  0  0
   -1.9023   -1.4709   -0.7383 H   0  0  0  0  0  0  0  0  0  0  0  0
    9.8490    0.9051   -0.0355 N   0  0  0  0  0  0  0  0  0  0  0  0
   10.9534    0.9453   -0.0615 N   0  0  0  0  0  0  0  0  0  0  0  0
   -4.4870    1.9943   -1.3897 H   0  0  0  0  0  0  0  0  0  0  0  0
   -3.8184    2.9121    0.8549 H   0  0  0  0  0  0  0  0  0  0  0  0
   -2.1934    1.6535    2.3167 H   0  0  0  0  0  0  0  0  0  0  0  0
  1  6  2  0  0  0  0
  1  2  1  0  0  0  0
  2  3  2  0  0  0  0
  3  4  1  0  0  0  0
  4 13  1  0  0  0  0
  5 12  1  0  0  0  0
  5  4  2  0  0  0  0
  6  5  1  0  0  0  0
  7  1  1  0  0  0  0
  8  2  1  0  0  0  0
 10  9  3  0  0  0  0
 11  6  1  0  0  0  0
M  RAD  1   3   2
M  END
