Coordinates from ORCA-job Ph-N2+-scan-d09-499-n800
 OpenBabel09191814153D

 13 12  0  0  0  0  0  0  0  0999 V2000
   -2.3594    0.1229   -1.1197 C   0  0  0  0  0  0  0  0  0  0  0  0
   -0.9385   -0.0175   -0.9687 C   0  0  0  0  0  0  0  0  0  0  0  0
   -0.6377    0.8163    0.0190 C   0  0  0  0  0  0  0  0  0  0  0  0
   -1.0729    1.7036    0.9048 C   0  0  0  0  0  0  0  0  0  0  0  0
   -2.4876    1.7649    0.6673 C   0  0  0  0  0  0  0  0  0  0  0  0
   -3.1013    0.9925   -0.3195 C   0  0  0  0  0  0  0  0  0  0  0  0
   -2.8126   -0.4900   -1.8962 H   0  0  0  0  0  0  0  0  0  0  0  0
   -0.3171   -0.6757   -1.5644 H   0  0  0  0  0  0  0  0  0  0  0  0
    3.8768    0.6774    0.2867 N   0  0  0  0  0  0  0  0  0  0  0  0
    4.9805    0.6620    0.3435 N   0  0  0  0  0  0  0  0  0  0  0  0
   -4.1735    1.0701   -0.4679 H   0  0  0  0  0  0  0  0  0  0  0  0
   -3.0422    2.4499    1.3053 H   0  0  0  0  0  0  0  0  0  0  0  0
   -0.5482    2.2811    1.6567 H   0  0  0  0  0  0  0  0  0  0  0  0
  1  2  2  0  0  0  0
  1  6  1  0  0  0  0
  2  3  1  0  0  0  0
  3  4  2  0  0  0  0
  4 13  1  0  0  0  0
  5  4  1  0  0  0  0
  5 12  1  0  0  0  0
  6  5  2  0  0  0  0
  7  1  1  0  0  0  0
  8  2  1  0  0  0  0
  9 10  3  0  0  0  0
 11  6  1  0  0  0  0
M  RAD  1   3   2
M  END
