Coordinates from ORCA-job Ph-N2+-scan-d09-499-n800
 OpenBabel09191814153D

 13 12  0  0  0  0  0  0  0  0999 V2000
   -2.6792    0.1772   -1.1710 C   0  0  0  0  0  0  0  0  0  0  0  0
   -1.3332   -0.1320   -0.7786 C   0  0  0  0  0  0  0  0  0  0  0  0
   -1.1131    0.6610    0.2625 C   0  0  0  0  0  0  0  0  0  0  0  0
   -1.5889    1.5945    1.0770 C   0  0  0  0  0  0  0  0  0  0  0  0
   -2.9232    1.8238    0.5992 C   0  0  0  0  0  0  0  0  0  0  0  0
   -3.4420    1.1295   -0.4943 C   0  0  0  0  0  0  0  0  0  0  0  0
   -3.0582   -0.3781   -2.0264 H   0  0  0  0  0  0  0  0  0  0  0  0
   -0.7004   -0.8610   -1.2709 H   0  0  0  0  0  0  0  0  0  0  0  0
    6.0946    0.6589    0.2093 N   0  0  0  0  0  0  0  0  0  0  0  0
    7.1999    0.6711    0.1999 N   0  0  0  0  0  0  0  0  0  0  0  0
   -4.4549    1.3342   -0.8241 H   0  0  0  0  0  0  0  0  0  0  0  0
   -3.4953    2.5713    1.1449 H   0  0  0  0  0  0  0  0  0  0  0  0
   -1.1399    2.1072    1.9193 H   0  0  0  0  0  0  0  0  0  0  0  0
  1  2  2  0  0  0  0
  1  6  1  0  0  0  0
  2  3  1  0  0  0  0
  3  4  2  0  0  0  0
  4 13  1  0  0  0  0
  5  4  1  0  0  0  0
  5 12  1  0  0  0  0
  6  5  2  0  0  0  0
  7  1  1  0  0  0  0
  8  2  1  0  0  0  0
 10  9  3  0  0  0  0
 11  6  1  0  0  0  0
M  RAD  1   3   2
M  END
