Coordinates from ORCA-job Ph-N2+-scan-d09-499-n800
 OpenBabel09191814153D

 13 12  0  0  0  0  0  0  0  0999 V2000
   -2.8494    0.4223   -0.9597 C   0  0  0  0  0  0  0  0  0  0  0  0
   -3.0433   -0.6492   -0.0230 C   0  0  0  0  0  0  0  0  0  0  0  0
   -3.7985   -0.1110    0.9264 C   0  0  0  0  0  0  0  0  0  0  0  0
   -4.4350    0.9637    1.3746 C   0  0  0  0  0  0  0  0  0  0  0  0
   -4.1776    1.9603    0.3730 C   0  0  0  0  0  0  0  0  0  0  0  0
   -3.4053    1.6858   -0.7563 C   0  0  0  0  0  0  0  0  0  0  0  0
   -2.2457    0.1801   -1.8319 H   0  0  0  0  0  0  0  0  0  0  0  0
   -2.6363   -1.6469   -0.1357 H   0  0  0  0  0  0  0  0  0  0  0  0
   12.8651    1.0032   -0.7000 N   0  0  0  0  0  0  0  0  0  0  0  0
   13.9688    1.0160   -0.7603 N   0  0  0  0  0  0  0  0  0  0  0  0
   -3.2334    2.4682   -1.4882 H   0  0  0  0  0  0  0  0  0  0  0  0
   -4.6211    2.9363    0.5578 H   0  0  0  0  0  0  0  0  0  0  0  0
   -5.0221    1.1287    2.2701 H   0  0  0  0  0  0  0  0  0  0  0  0
  1  6  2  0  0  0  0
  1  2  1  0  0  0  0
  2  3  2  0  0  0  0
  3  4  1  0  0  0  0
  4 13  1  0  0  0  0
  5 12  1  0  0  0  0
  5  4  2  0  0  0  0
  6  5  1  0  0  0  0
  7  1  1  0  0  0  0
  8  2  1  0  0  0  0
 10  9  3  0  0  0  0
 11  6  1  0  0  0  0
M  RAD  1   3   2
M  END
