Coordinates from ORCA-job Ph-N2+-scan-d09-499-n800
 OpenBabel09191814153D

 13 12  0  0  0  0  0  0  0  0999 V2000
   -3.3638    0.2665   -1.2378 C   0  0  0  0  0  0  0  0  0  0  0  0
   -2.8624   -0.6799   -0.2810 C   0  0  0  0  0  0  0  0  0  0  0  0
   -2.8426   -0.0016    0.8595 C   0  0  0  0  0  0  0  0  0  0  0  0
   -3.0792    1.1462    1.4821 C   0  0  0  0  0  0  0  0  0  0  0  0
   -3.5704    2.0085    0.4439 C   0  0  0  0  0  0  0  0  0  0  0  0
   -3.7038    1.5698   -0.8740 C   0  0  0  0  0  0  0  0  0  0  0  0
   -3.4586   -0.1023   -2.2569 H   0  0  0  0  0  0  0  0  0  0  0  0
   -2.5835   -1.7006   -0.5135 H   0  0  0  0  0  0  0  0  0  0  0  0
   11.2959    1.0506   -0.1936 N   0  0  0  0  0  0  0  0  0  0  0  0
   12.4001    1.0905   -0.2273 N   0  0  0  0  0  0  0  0  0  0  0  0
   -4.0781    2.2538   -1.6285 H   0  0  0  0  0  0  0  0  0  0  0  0
   -3.8296    3.0178    0.7557 H   0  0  0  0  0  0  0  0  0  0  0  0
   -2.9575    1.4384    2.5183 H   0  0  0  0  0  0  0  0  0  0  0  0
  1  6  2  0  0  0  0
  1  2  1  0  0  0  0
  2  3  2  0  0  0  0
  3  4  1  0  0  0  0
  4 13  1  0  0  0  0
  5 12  1  0  0  0  0
  5  4  2  0  0  0  0
  6  5  1  0  0  0  0
  7  1  1  0  0  0  0
  8  2  1  0  0  0  0
 10  9  3  0  0  0  0
 11  6  1  0  0  0  0
M  RAD  1   3   2
M  END
