Coordinates from ORCA-job Ph-N2+-scan-d09-499-n800
 OpenBabel09191814153D

 13 12  0  0  0  0  0  0  0  0999 V2000
   -3.1174    0.3221   -1.1740 C   0  0  0  0  0  0  0  0  0  0  0  0
   -3.0175   -0.6928   -0.1627 C   0  0  0  0  0  0  0  0  0  0  0  0
   -3.3656   -0.0659    0.9540 C   0  0  0  0  0  0  0  0  0  0  0  0
   -3.7585    1.0656    1.5256 C   0  0  0  0  0  0  0  0  0  0  0  0
   -3.8239    1.9989    0.4365 C   0  0  0  0  0  0  0  0  0  0  0  0
   -3.5103    1.6260   -0.8710 C   0  0  0  0  0  0  0  0  0  0  0  0
   -2.8660    0.0040   -2.1836 H   0  0  0  0  0  0  0  0  0  0  0  0
   -2.7168   -1.7172   -0.3466 H   0  0  0  0  0  0  0  0  0  0  0  0
   12.0694    1.0580   -0.4374 N   0  0  0  0  0  0  0  0  0  0  0  0
   13.1735    1.0844   -0.4850 N   0  0  0  0  0  0  0  0  0  0  0  0
   -3.5733    2.3623   -1.6654 H   0  0  0  0  0  0  0  0  0  0  0  0
   -4.1338    3.0078    0.7006 H   0  0  0  0  0  0  0  0  0  0  0  0
   -3.9934    1.3045    2.5560 H   0  0  0  0  0  0  0  0  0  0  0  0
  1  6  2  0  0  0  0
  1  2  1  0  0  0  0
  2  3  2  0  0  0  0
  3  4  1  0  0  0  0
  4 13  1  0  0  0  0
  5 12  1  0  0  0  0
  5  4  2  0  0  0  0
  6  5  1  0  0  0  0
  7  1  1  0  0  0  0
  8  2  1  0  0  0  0
 10  9  3  0  0  0  0
 11  6  1  0  0  0  0
M  RAD  1   3   2
M  END
