Coordinates from ORCA-job Ph-N2+-scan-d09-499-n800
 OpenBabel09191814153D

 13 12  0  0  0  0  0  0  0  0999 V2000
   -2.7950    0.2265   -1.2034 C   0  0  0  0  0  0  0  0  0  0  0  0
   -1.6268   -0.2970   -0.5531 C   0  0  0  0  0  0  0  0  0  0  0  0
   -1.5083    0.4467    0.5398 C   0  0  0  0  0  0  0  0  0  0  0  0
   -1.9894    1.4446    1.2705 C   0  0  0  0  0  0  0  0  0  0  0  0
   -3.1409    1.8875    0.5359 C   0  0  0  0  0  0  0  0  0  0  0  0
   -3.5223    1.2883   -0.6648 C   0  0  0  0  0  0  0  0  0  0  0  0
   -3.0699   -0.2589   -2.1372 H   0  0  0  0  0  0  0  0  0  0  0  0
   -1.0293   -1.1191   -0.9290 H   0  0  0  0  0  0  0  0  0  0  0  0
    7.3415    0.7184    0.0068 N   0  0  0  0  0  0  0  0  0  0  0  0
    8.4454    0.7721   -0.0124 N   0  0  0  0  0  0  0  0  0  0  0  0
   -4.3992    1.6542   -1.1882 H   0  0  0  0  0  0  0  0  0  0  0  0
   -3.6882    2.7175    0.9775 H   0  0  0  0  0  0  0  0  0  0  0  0
   -1.6511    1.8770    2.2043 H   0  0  0  0  0  0  0  0  0  0  0  0
  1  6  2  0  0  0  0
  1  2  1  0  0  0  0
  2  3  2  0  0  0  0
  3  4  1  0  0  0  0
  4 13  1  0  0  0  0
  5 12  1  0  0  0  0
  5  4  2  0  0  0  0
  6  5  1  0  0  0  0
  7  1  1  0  0  0  0
  8  2  1  0  0  0  0
 10  9  3  0  0  0  0
 11  6  1  0  0  0  0
M  RAD  1   3   2
M  END
