Coordinates from ORCA-job Ph-N2+-scan-d09-499-n800
 OpenBabel09191814153D

 13 12  0  0  0  0  0  0  0  0999 V2000
   -3.3667    0.2649   -1.2378 C   0  0  0  0  0  0  0  0  0  0  0  0
   -2.8518   -0.6785   -0.2852 C   0  0  0  0  0  0  0  0  0  0  0  0
   -2.8255    0.0007    0.8547 C   0  0  0  0  0  0  0  0  0  0  0  0
   -3.0570    1.1492    1.4784 C   0  0  0  0  0  0  0  0  0  0  0  0
   -3.5624    2.0083    0.4439 C   0  0  0  0  0  0  0  0  0  0  0  0
   -3.7080    1.5675   -0.8719 C   0  0  0  0  0  0  0  0  0  0  0  0
   -3.4698   -0.1048   -2.2558 H   0  0  0  0  0  0  0  0  0  0  0  0
   -2.5688   -1.6977   -0.5194 H   0  0  0  0  0  0  0  0  0  0  0  0
   11.2538    1.0485   -0.1863 N   0  0  0  0  0  0  0  0  0  0  0  0
   12.3580    1.0891   -0.2198 N   0  0  0  0  0  0  0  0  0  0  0  0
   -4.0918    2.2494   -1.6234 H   0  0  0  0  0  0  0  0  0  0  0  0
   -3.8211    3.0174    0.7570 H   0  0  0  0  0  0  0  0  0  0  0  0
   -2.9226    1.4437    2.5124 H   0  0  0  0  0  0  0  0  0  0  0  0
  1  6  2  0  0  0  0
  1  2  1  0  0  0  0
  2  3  2  0  0  0  0
  3  4  1  0  0  0  0
  4 13  1  0  0  0  0
  5 12  1  0  0  0  0
  5  4  2  0  0  0  0
  6  5  1  0  0  0  0
  7  1  1  0  0  0  0
  8  2  1  0  0  0  0
 10  9  3  0  0  0  0
 11  6  1  0  0  0  0
M  RAD  1   3   2
M  END
