Coordinates from ORCA-job Ph-N2+-scan-d09-499-n800
 OpenBabel09191814153D

 13 12  0  0  0  0  0  0  0  0999 V2000
   -3.1260    0.3189   -1.1777 C   0  0  0  0  0  0  0  0  0  0  0  0
   -3.0206   -0.6941   -0.1662 C   0  0  0  0  0  0  0  0  0  0  0  0
   -3.3626   -0.0673    0.9524 C   0  0  0  0  0  0  0  0  0  0  0  0
   -3.7417    1.0674    1.5273 C   0  0  0  0  0  0  0  0  0  0  0  0
   -3.8137    1.9997    0.4369 C   0  0  0  0  0  0  0  0  0  0  0  0
   -3.5120    1.6247   -0.8725 C   0  0  0  0  0  0  0  0  0  0  0  0
   -2.8823    0.0002   -2.1890 H   0  0  0  0  0  0  0  0  0  0  0  0
   -2.7195   -1.7186   -0.3497 H   0  0  0  0  0  0  0  0  0  0  0  0
   12.0527    1.0602   -0.4316 N   0  0  0  0  0  0  0  0  0  0  0  0
   13.1568    1.0872   -0.4788 N   0  0  0  0  0  0  0  0  0  0  0  0
   -3.5781    2.3609   -1.6668 H   0  0  0  0  0  0  0  0  0  0  0  0
   -4.1190    3.0094    0.7033 H   0  0  0  0  0  0  0  0  0  0  0  0
   -3.9676    1.3092    2.5589 H   0  0  0  0  0  0  0  0  0  0  0  0
  1  6  2  0  0  0  0
  1  2  1  0  0  0  0
  2  3  2  0  0  0  0
  3  4  1  0  0  0  0
  4 13  1  0  0  0  0
  5 12  1  0  0  0  0
  5  4  2  0  0  0  0
  6  5  1  0  0  0  0
  7  1  1  0  0  0  0
  8  2  1  0  0  0  0
 10  9  3  0  0  0  0
 11  6  1  0  0  0  0
M  RAD  1   3   2
M  END
