Coordinates from ORCA-job Ph-N2+-scan-d09-499-n800
 OpenBabel09191814153D

 13 12  0  0  0  0  0  0  0  0999 V2000
   -2.2622    0.1142   -1.1098 C   0  0  0  0  0  0  0  0  0  0  0  0
   -0.8372   -0.0111   -0.9907 C   0  0  0  0  0  0  0  0  0  0  0  0
   -0.5217    0.8263   -0.0106 C   0  0  0  0  0  0  0  0  0  0  0  0
   -0.9469    1.7092    0.8846 C   0  0  0  0  0  0  0  0  0  0  0  0
   -2.3670    1.7558    0.6794 C   0  0  0  0  0  0  0  0  0  0  0  0
   -2.9947    0.9764   -0.2931 C   0  0  0  0  0  0  0  0  0  0  0  0
   -2.7270   -0.5036   -1.8754 H   0  0  0  0  0  0  0  0  0  0  0  0
   -0.2218   -0.6628   -1.5994 H   0  0  0  0  0  0  0  0  0  0  0  0
    3.2692    0.7032    0.2754 N   0  0  0  0  0  0  0  0  0  0  0  0
    4.3716    0.6801    0.3502 N   0  0  0  0  0  0  0  0  0  0  0  0
   -4.0709    1.0427   -0.4169 H   0  0  0  0  0  0  0  0  0  0  0  0
   -2.9146    2.4351    1.3293 H   0  0  0  0  0  0  0  0  0  0  0  0
   -0.4105    2.2921    1.6237 H   0  0  0  0  0  0  0  0  0  0  0  0
  1  2  2  0  0  0  0
  1  6  1  0  0  0  0
  2  3  1  0  0  0  0
  3  4  2  0  0  0  0
  4 13  1  0  0  0  0
  5  4  1  0  0  0  0
  5 12  1  0  0  0  0
  6  5  2  0  0  0  0
  7  1  1  0  0  0  0
  8  2  1  0  0  0  0
  9 10  3  0  0  0  0
 11  6  1  0  0  0  0
M  RAD  1   3   2
M  END
