Coordinates from ORCA-job Ph-N2+-scan-d09-499-n800
 OpenBabel09191814153D

 13 12  0  0  0  0  0  0  0  0999 V2000
   -2.7119    0.2190   -1.1976 C   0  0  0  0  0  0  0  0  0  0  0  0
   -1.4911   -0.2390   -0.5966 C   0  0  0  0  0  0  0  0  0  0  0  0
   -1.3662    0.5144    0.4888 C   0  0  0  0  0  0  0  0  0  0  0  0
   -1.8689    1.4876    1.2381 C   0  0  0  0  0  0  0  0  0  0  0  0
   -3.0725    1.8656    0.5524 C   0  0  0  0  0  0  0  0  0  0  0  0
   -3.4717    1.2424   -0.6303 C   0  0  0  0  0  0  0  0  0  0  0  0
   -2.9996   -0.2839   -2.1182 H   0  0  0  0  0  0  0  0  0  0  0  0
   -0.8665   -1.0293   -0.9963 H   0  0  0  0  0  0  0  0  0  0  0  0
    6.8290    0.6888    0.0433 N   0  0  0  0  0  0  0  0  0  0  0  0
    7.9333    0.7250    0.0079 N   0  0  0  0  0  0  0  0  0  0  0  0
   -4.3881    1.5591   -1.1165 H   0  0  0  0  0  0  0  0  0  0  0  0
   -3.6444    2.6669    1.0156 H   0  0  0  0  0  0  0  0  0  0  0  0
   -1.5149    1.9411    2.1560 H   0  0  0  0  0  0  0  0  0  0  0  0
  1  6  2  0  0  0  0
  1  2  1  0  0  0  0
  2  3  2  0  0  0  0
  3  4  1  0  0  0  0
  4 13  1  0  0  0  0
  5 12  1  0  0  0  0
  5  4  2  0  0  0  0
  6  5  1  0  0  0  0
  7  1  1  0  0  0  0
  8  2  1  0  0  0  0
 10  9  3  0  0  0  0
 11  6  1  0  0  0  0
M  RAD  1   3   2
M  END
