Coordinates from ORCA-job Ph-N2+-scan-d09-499-n800
 OpenBabel09191814153D

 13 12  0  0  0  0  0  0  0  0999 V2000
   -2.8852    0.2312   -1.2074 C   0  0  0  0  0  0  0  0  0  0  0  0
   -1.7583   -0.3395   -0.5246 C   0  0  0  0  0  0  0  0  0  0  0  0
   -1.6416    0.3979    0.5726 C   0  0  0  0  0  0  0  0  0  0  0  0
   -2.1029    1.4141    1.2909 C   0  0  0  0  0  0  0  0  0  0  0  0
   -3.2139    1.9036    0.5242 C   0  0  0  0  0  0  0  0  0  0  0  0
   -3.5844    1.3211   -0.6881 C   0  0  0  0  0  0  0  0  0  0  0  0
   -3.1525   -0.2422   -2.1495 H   0  0  0  0  0  0  0  0  0  0  0  0
   -1.1841   -1.1849   -0.8847 H   0  0  0  0  0  0  0  0  0  0  0  0
    7.8649    0.7452   -0.0129 N   0  0  0  0  0  0  0  0  0  0  0  0
    8.9688    0.8022   -0.0242 N   0  0  0  0  0  0  0  0  0  0  0  0
   -4.4304    1.7224   -1.2358 H   0  0  0  0  0  0  0  0  0  0  0  0
   -3.7397    2.7548    0.9514 H   0  0  0  0  0  0  0  0  0  0  0  0
   -1.7746    1.8318    2.2349 H   0  0  0  0  0  0  0  0  0  0  0  0
  1  6  2  0  0  0  0
  1  2  1  0  0  0  0
  2  3  2  0  0  0  0
  3  4  1  0  0  0  0
  4 13  1  0  0  0  0
  5 12  1  0  0  0  0
  5  4  2  0  0  0  0
  6  5  1  0  0  0  0
  7  1  1  0  0  0  0
  8  2  1  0  0  0  0
 10  9  3  0  0  0  0
 11  6  1  0  0  0  0
M  RAD  1   3   2
M  END
