Coordinates from ORCA-job Ph-N2+-scan-d09-499-n800
 OpenBabel09191814153D

 13 12  0  0  0  0  0  0  0  0999 V2000
   -3.0244    0.2364   -1.2125 C   0  0  0  0  0  0  0  0  0  0  0  0
   -1.9616   -0.4004   -0.4868 C   0  0  0  0  0  0  0  0  0  0  0  0
   -1.8446    0.3291    0.6157 C   0  0  0  0  0  0  0  0  0  0  0  0
   -2.2726    1.3713    1.3172 C   0  0  0  0  0  0  0  0  0  0  0  0
   -3.3210    1.9262    0.5080 C   0  0  0  0  0  0  0  0  0  0  0  0
   -3.6773    1.3664   -0.7191 C   0  0  0  0  0  0  0  0  0  0  0  0
   -3.2820   -0.2205   -2.1655 H   0  0  0  0  0  0  0  0  0  0  0  0
   -1.4250   -1.2785   -0.8257 H   0  0  0  0  0  0  0  0  0  0  0  0
    8.6575    0.7963   -0.0249 N   0  0  0  0  0  0  0  0  0  0  0  0
    9.7619    0.8378   -0.0503 N   0  0  0  0  0  0  0  0  0  0  0  0
   -4.4754    1.8174   -1.2993 H   0  0  0  0  0  0  0  0  0  0  0  0
   -3.8116    2.8073    0.9157 H   0  0  0  0  0  0  0  0  0  0  0  0
   -1.9577    1.7689    2.2744 H   0  0  0  0  0  0  0  0  0  0  0  0
  1  6  2  0  0  0  0
  1  2  1  0  0  0  0
  2  3  2  0  0  0  0
  3  4  1  0  0  0  0
  4 13  1  0  0  0  0
  5 12  1  0  0  0  0
  5  4  2  0  0  0  0
  6  5  1  0  0  0  0
  7  1  1  0  0  0  0
  8  2  1  0  0  0  0
 10  9  3  0  0  0  0
 11  6  1  0  0  0  0
M  RAD  1   3   2
M  END
