Coordinates from ORCA-job Ph-N2+-scan-d09-499-n800
 OpenBabel09191814153D

 13 12  0  0  0  0  0  0  0  0999 V2000
   -2.6809    0.1790   -1.1724 C   0  0  0  0  0  0  0  0  0  0  0  0
   -1.3391   -0.1365   -0.7708 C   0  0  0  0  0  0  0  0  0  0  0  0
   -1.1226    0.6548    0.2723 C   0  0  0  0  0  0  0  0  0  0  0  0
   -1.5998    1.5899    1.0841 C   0  0  0  0  0  0  0  0  0  0  0  0
   -2.9297    1.8256    0.5972 C   0  0  0  0  0  0  0  0  0  0  0  0
   -3.4440    1.1344   -0.5004 C   0  0  0  0  0  0  0  0  0  0  0  0
   -3.0564   -0.3740   -2.0307 H   0  0  0  0  0  0  0  0  0  0  0  0
   -0.7062   -0.8682   -1.2591 H   0  0  0  0  0  0  0  0  0  0  0  0
    6.1250    0.6601    0.2028 N   0  0  0  0  0  0  0  0  0  0  0  0
    7.2302    0.6733    0.1916 N   0  0  0  0  0  0  0  0  0  0  0  0
   -4.4536    1.3438   -0.8370 H   0  0  0  0  0  0  0  0  0  0  0  0
   -3.5022    2.5754    1.1393 H   0  0  0  0  0  0  0  0  0  0  0  0
   -1.1543    2.1001    1.9298 H   0  0  0  0  0  0  0  0  0  0  0  0
  1  2  2  0  0  0  0
  1  6  1  0  0  0  0
  2  3  1  0  0  0  0
  3  4  2  0  0  0  0
  4 13  1  0  0  0  0
  5  4  1  0  0  0  0
  5 12  1  0  0  0  0
  6  5  2  0  0  0  0
  7  1  1  0  0  0  0
  8  2  1  0  0  0  0
 10  9  3  0  0  0  0
 11  6  1  0  0  0  0
M  RAD  1   3   2
M  END
