Coordinates from ORCA-job Ph-N2+-scan-d09-499-n800
 OpenBabel09191814153D

 13 12  0  0  0  0  0  0  0  0999 V2000
   -2.8633    0.2301   -1.2065 C   0  0  0  0  0  0  0  0  0  0  0  0
   -1.7268   -0.3300   -0.5311 C   0  0  0  0  0  0  0  0  0  0  0  0
   -1.6095    0.4089    0.5651 C   0  0  0  0  0  0  0  0  0  0  0  0
   -2.0753    1.4209    1.2863 C   0  0  0  0  0  0  0  0  0  0  0  0
   -3.1958    1.9001    0.5269 C   0  0  0  0  0  0  0  0  0  0  0  0
   -3.5690    1.3137   -0.6828 C   0  0  0  0  0  0  0  0  0  0  0  0
   -3.1325   -0.2460   -2.1467 H   0  0  0  0  0  0  0  0  0  0  0  0
   -1.1472   -1.1702   -0.8947 H   0  0  0  0  0  0  0  0  0  0  0  0
    7.7377    0.7377   -0.0096 N   0  0  0  0  0  0  0  0  0  0  0  0
    8.8415    0.7970   -0.0203 N   0  0  0  0  0  0  0  0  0  0  0  0
   -4.4223    1.7071   -1.2250 H   0  0  0  0  0  0  0  0  0  0  0  0
   -3.7266    2.7465    0.9573 H   0  0  0  0  0  0  0  0  0  0  0  0
   -1.7446    1.8420    2.2279 H   0  0  0  0  0  0  0  0  0  0  0  0
  1  6  2  0  0  0  0
  1  2  1  0  0  0  0
  2  3  2  0  0  0  0
  3  4  1  0  0  0  0
  4 13  1  0  0  0  0
  5 12  1  0  0  0  0
  5  4  2  0  0  0  0
  6  5  1  0  0  0  0
  7  1  1  0  0  0  0
  8  2  1  0  0  0  0
 10  9  3  0  0  0  0
 11  6  1  0  0  0  0
M  RAD  1   3   2
M  END
