Coordinates from ORCA-job Ph-N2+-scan-d09-499-n800
 OpenBabel09191814153D

 13 12  0  0  0  0  0  0  0  0999 V2000
   -2.3173    0.1189   -1.1154 C   0  0  0  0  0  0  0  0  0  0  0  0
   -0.8942   -0.0148   -0.9801 C   0  0  0  0  0  0  0  0  0  0  0  0
   -0.5860    0.8208    0.0038 C   0  0  0  0  0  0  0  0  0  0  0  0
   -1.0157    1.7060    0.8944 C   0  0  0  0  0  0  0  0  0  0  0  0
   -2.4332    1.7606    0.6728 C   0  0  0  0  0  0  0  0  0  0  0  0
   -3.0542    0.9851   -0.3070 C   0  0  0  0  0  0  0  0  0  0  0  0
   -2.7763   -0.4963   -1.8866 H   0  0  0  0  0  0  0  0  0  0  0  0
   -0.2761   -0.6701   -1.5823 H   0  0  0  0  0  0  0  0  0  0  0  0
    3.6067    0.6895    0.2846 N   0  0  0  0  0  0  0  0  0  0  0  0
    4.7099    0.6713    0.3491 N   0  0  0  0  0  0  0  0  0  0  0  0
   -4.1284    1.0576   -0.4433 H   0  0  0  0  0  0  0  0  0  0  0  0
   -2.9840    2.4431    1.3167 H   0  0  0  0  0  0  0  0  0  0  0  0
   -0.4850    2.2860    1.6401 H   0  0  0  0  0  0  0  0  0  0  0  0
  1  2  2  0  0  0  0
  1  6  1  0  0  0  0
  2  3  1  0  0  0  0
  3  4  2  0  0  0  0
  4 13  1  0  0  0  0
  5  4  1  0  0  0  0
  5 12  1  0  0  0  0
  6  5  2  0  0  0  0
  7  1  1  0  0  0  0
  8  2  1  0  0  0  0
  9 10  3  0  0  0  0
 11  6  1  0  0  0  0
M  RAD  1   3   2
M  END
