Coordinates from ORCA-job Ph-N2+-scan-d09-499-n800
 OpenBabel09191814153D

 13 12  0  0  0  0  0  0  0  0999 V2000
   -2.5688    0.1460   -1.1432 C   0  0  0  0  0  0  0  0  0  0  0  0
   -1.1668   -0.0471   -0.9001 C   0  0  0  0  0  0  0  0  0  0  0  0
   -0.9014    0.7737    0.1084 C   0  0  0  0  0  0  0  0  0  0  0  0
   -1.3608    1.6757    0.9668 C   0  0  0  0  0  0  0  0  0  0  0  0
   -2.7537    1.7894    0.6372 C   0  0  0  0  0  0  0  0  0  0  0  0
   -3.3292    1.0415   -0.3905 C   0  0  0  0  0  0  0  0  0  0  0  0
   -2.9919   -0.4489   -1.9500 H   0  0  0  0  0  0  0  0  0  0  0  0
   -0.5331   -0.7273   -1.4568 H   0  0  0  0  0  0  0  0  0  0  0  0
    5.2211    0.6362    0.2825 N   0  0  0  0  0  0  0  0  0  0  0  0
    6.3262    0.6325    0.3077 N   0  0  0  0  0  0  0  0  0  0  0  0
   -4.3856    1.1590   -0.6088 H   0  0  0  0  0  0  0  0  0  0  0  0
   -3.3231    2.4939    1.2400 H   0  0  0  0  0  0  0  0  0  0  0  0
   -0.8665    2.2331    1.7536 H   0  0  0  0  0  0  0  0  0  0  0  0
  1  2  2  0  0  0  0
  1  6  1  0  0  0  0
  2  3  1  0  0  0  0
  3  4  2  0  0  0  0
  4 13  1  0  0  0  0
  5  4  1  0  0  0  0
  5 12  1  0  0  0  0
  6  5  2  0  0  0  0
  7  1  1  0  0  0  0
  8  2  1  0  0  0  0
  9 10  3  0  0  0  0
 11  6  1  0  0  0  0
M  RAD  1   3   2
M  END
