Coordinates from ORCA-job Ph-N2+-scan-d09-499-n800
 OpenBabel09191814153D

 13 12  0  0  0  0  0  0  0  0999 V2000
   -3.0966    0.3266   -1.1633 C   0  0  0  0  0  0  0  0  0  0  0  0
   -3.0262   -0.6921   -0.1541 C   0  0  0  0  0  0  0  0  0  0  0  0
   -3.4070   -0.0710    0.9552 C   0  0  0  0  0  0  0  0  0  0  0  0
   -3.8114    1.0593    1.5211 C   0  0  0  0  0  0  0  0  0  0  0  0
   -3.8456    1.9976    0.4342 C   0  0  0  0  0  0  0  0  0  0  0  0
   -3.4960    1.6301   -0.8654 C   0  0  0  0  0  0  0  0  0  0  0  0
   -2.8173    0.0132   -2.1669 H   0  0  0  0  0  0  0  0  0  0  0  0
   -2.7198   -1.7157   -0.3334 H   0  0  0  0  0  0  0  0  0  0  0  0
   12.1266    1.0571   -0.4570 N   0  0  0  0  0  0  0  0  0  0  0  0
   13.2307    1.0824   -0.5058 N   0  0  0  0  0  0  0  0  0  0  0  0
   -3.5354    2.3701   -1.6578 H   0  0  0  0  0  0  0  0  0  0  0  0
   -4.1615    3.0055    0.6946 H   0  0  0  0  0  0  0  0  0  0  0  0
   -4.0744    1.2947    2.5454 H   0  0  0  0  0  0  0  0  0  0  0  0
  1  6  2  0  0  0  0
  1  2  1  0  0  0  0
  2  3  2  0  0  0  0
  3  4  1  0  0  0  0
  4 13  1  0  0  0  0
  5 12  1  0  0  0  0
  5  4  2  0  0  0  0
  6  5  1  0  0  0  0
  7  1  1  0  0  0  0
  8  2  1  0  0  0  0
 10  9  3  0  0  0  0
 11  6  1  0  0  0  0
M  RAD  1   3   2
M  END
