Coordinates from ORCA-job Ph-N2+-scan-d09-499-n800
 OpenBabel09191814153D

 13 12  0  0  0  0  0  0  0  0999 V2000
   -2.8797    0.2309   -1.2072 C   0  0  0  0  0  0  0  0  0  0  0  0
   -1.7504   -0.3372   -0.5262 C   0  0  0  0  0  0  0  0  0  0  0  0
   -1.6335    0.4006    0.5708 C   0  0  0  0  0  0  0  0  0  0  0  0
   -2.0960    1.4157    1.2898 C   0  0  0  0  0  0  0  0  0  0  0  0
   -3.2093    1.9028    0.5249 C   0  0  0  0  0  0  0  0  0  0  0  0
   -3.5805    1.3193   -0.6868 C   0  0  0  0  0  0  0  0  0  0  0  0
   -3.1475   -0.2432   -2.1488 H   0  0  0  0  0  0  0  0  0  0  0  0
   -1.1749   -1.1813   -0.8872 H   0  0  0  0  0  0  0  0  0  0  0  0
    7.8331    0.7435   -0.0122 N   0  0  0  0  0  0  0  0  0  0  0  0
    8.9370    0.8008   -0.0231 N   0  0  0  0  0  0  0  0  0  0  0  0
   -4.4283    1.7187   -1.2332 H   0  0  0  0  0  0  0  0  0  0  0  0
   -3.7364    2.7528    0.9528 H   0  0  0  0  0  0  0  0  0  0  0  0
   -1.7671    1.8343    2.2332 H   0  0  0  0  0  0  0  0  0  0  0  0
  1  6  2  0  0  0  0
  1  2  1  0  0  0  0
  2  3  2  0  0  0  0
  3  4  1  0  0  0  0
  4 13  1  0  0  0  0
  5 12  1  0  0  0  0
  5  4  2  0  0  0  0
  6  5  1  0  0  0  0
  7  1  1  0  0  0  0
  8  2  1  0  0  0  0
 10  9  3  0  0  0  0
 11  6  1  0  0  0  0
M  RAD  1   3   2
M  END
