Coordinates from ORCA-job Ph-N2+-scan-d09-499-n800
 OpenBabel09191814153D

 13 12  0  0  0  0  0  0  0  0999 V2000
   -3.3445    0.2389   -1.2206 C   0  0  0  0  0  0  0  0  0  0  0  0
   -2.4781   -0.5672   -0.4072 C   0  0  0  0  0  0  0  0  0  0  0  0
   -2.3236    0.1467    0.7008 C   0  0  0  0  0  0  0  0  0  0  0  0
   -2.6122    1.2601    1.3627 C   0  0  0  0  0  0  0  0  0  0  0  0
   -3.4723    1.9820    0.4676 C   0  0  0  0  0  0  0  0  0  0  0  0
   -3.8208    1.4758   -0.7850 C   0  0  0  0  0  0  0  0  0  0  0  0
   -3.6000   -0.1791   -2.1918 H   0  0  0  0  0  0  0  0  0  0  0  0
   -2.0814   -1.5318   -0.6998 H   0  0  0  0  0  0  0  0  0  0  0  0
   10.3039    0.9430   -0.0487 N   0  0  0  0  0  0  0  0  0  0  0  0
   11.4083    0.9828   -0.0749 N   0  0  0  0  0  0  0  0  0  0  0  0
   -4.4724    2.0543   -1.4316 H   0  0  0  0  0  0  0  0  0  0  0  0
   -3.8287    2.9427    0.8321 H   0  0  0  0  0  0  0  0  0  0  0  0
   -2.3119    1.6094    2.3432 H   0  0  0  0  0  0  0  0  0  0  0  0
  1  6  2  0  0  0  0
  1  2  1  0  0  0  0
  2  3  2  0  0  0  0
  3  4  1  0  0  0  0
  4 13  1  0  0  0  0
  5 12  1  0  0  0  0
  5  4  2  0  0  0  0
  6  5  1  0  0  0  0
  7  1  1  0  0  0  0
  8  2  1  0  0  0  0
 10  9  3  0  0  0  0
 11  6  1  0  0  0  0
M  RAD  1   3   2
M  END
