Coordinates from ORCA-job Ph-N2+-scan-d09-499-n800
 OpenBabel09191814153D

 13 12  0  0  0  0  0  0  0  0999 V2000
   -3.3730    0.2582   -1.2357 C   0  0  0  0  0  0  0  0  0  0  0  0
   -2.7523   -0.6541   -0.3164 C   0  0  0  0  0  0  0  0  0  0  0  0
   -2.6756    0.0351    0.8151 C   0  0  0  0  0  0  0  0  0  0  0  0
   -2.9174    1.1760    1.4482 C   0  0  0  0  0  0  0  0  0  0  0  0
   -3.5304    2.0039    0.4474 C   0  0  0  0  0  0  0  0  0  0  0  0
   -3.7460    1.5471   -0.8533 C   0  0  0  0  0  0  0  0  0  0  0  0
   -3.5300   -0.1241   -2.2420 H   0  0  0  0  0  0  0  0  0  0  0  0
   -2.4442   -1.6627   -0.5644 H   0  0  0  0  0  0  0  0  0  0  0  0
   10.9914    1.0228   -0.1418 N   0  0  0  0  0  0  0  0  0  0  0  0
   12.0957    1.0642   -0.1737 N   0  0  0  0  0  0  0  0  0  0  0  0
   -4.2111    2.2054   -1.5795 H   0  0  0  0  0  0  0  0  0  0  0  0
   -3.8124    3.0027    0.7731 H   0  0  0  0  0  0  0  0  0  0  0  0
   -2.7284    1.4832    2.4698 H   0  0  0  0  0  0  0  0  0  0  0  0
  1  6  2  0  0  0  0
  1  2  1  0  0  0  0
  2  3  2  0  0  0  0
  3  4  1  0  0  0  0
  4 13  1  0  0  0  0
  5 12  1  0  0  0  0
  5  4  2  0  0  0  0
  6  5  1  0  0  0  0
  7  1  1  0  0  0  0
  8  2  1  0  0  0  0
 10  9  3  0  0  0  0
 11  6  1  0  0  0  0
M  RAD  1   3   2
M  END
