Coordinates from ORCA-job Ph-N2+-scan-d09-499-n800
 OpenBabel09191814153D

 13 12  0  0  0  0  0  0  0  0999 V2000
   -2.5978    0.1501   -1.1473 C   0  0  0  0  0  0  0  0  0  0  0  0
   -1.2009   -0.0573   -0.8873 C   0  0  0  0  0  0  0  0  0  0  0  0
   -0.9395    0.7602    0.1249 C   0  0  0  0  0  0  0  0  0  0  0  0
   -1.4003    1.6662    0.9783 C   0  0  0  0  0  0  0  0  0  0  0  0
   -2.7879    1.7941    0.6319 C   0  0  0  0  0  0  0  0  0  0  0  0
   -3.3583    1.0527   -0.4033 C   0  0  0  0  0  0  0  0  0  0  0  0
   -3.0169   -0.4401   -1.9596 H   0  0  0  0  0  0  0  0  0  0  0  0
   -0.5674   -0.7436   -1.4367 H   0  0  0  0  0  0  0  0  0  0  0  0
    5.4042    0.6369    0.2796 N   0  0  0  0  0  0  0  0  0  0  0  0
    6.5094    0.6356    0.3007 N   0  0  0  0  0  0  0  0  0  0  0  0
   -4.4107    1.1809   -0.6343 H   0  0  0  0  0  0  0  0  0  0  0  0
   -3.3574    2.5039    1.2283 H   0  0  0  0  0  0  0  0  0  0  0  0
   -0.9100    2.2182    1.7715 H   0  0  0  0  0  0  0  0  0  0  0  0
  1  2  2  0  0  0  0
  1  6  1  0  0  0  0
  2  3  1  0  0  0  0
  3  4  2  0  0  0  0
  4 13  1  0  0  0  0
  5  4  1  0  0  0  0
  5 12  1  0  0  0  0
  6  5  2  0  0  0  0
  7  1  1  0  0  0  0
  8  2  1  0  0  0  0
  9 10  3  0  0  0  0
 11  6  1  0  0  0  0
M  RAD  1   3   2
M  END
