Coordinates from ORCA-job Ph-N2+-scan-d09-499-n800
 OpenBabel09191814153D

 13 12  0  0  0  0  0  0  0  0999 V2000
   -2.8441    0.4239   -0.9515 C   0  0  0  0  0  0  0  0  0  0  0  0
   -3.0488   -0.6496   -0.0195 C   0  0  0  0  0  0  0  0  0  0  0  0
   -3.8133   -0.1130    0.9232 C   0  0  0  0  0  0  0  0  0  0  0  0
   -4.4535    0.9613    1.3673 C   0  0  0  0  0  0  0  0  0  0  0  0
   -4.1846    1.9601    0.3709 C   0  0  0  0  0  0  0  0  0  0  0  0
   -3.4008    1.6874   -0.7509 C   0  0  0  0  0  0  0  0  0  0  0  0
   -2.2315    0.1832   -1.8179 H   0  0  0  0  0  0  0  0  0  0  0  0
   -2.6416   -1.6475   -0.1303 H   0  0  0  0  0  0  0  0  0  0  0  0
   12.8901    1.0033   -0.7077 N   0  0  0  0  0  0  0  0  0  0  0  0
   13.9938    1.0164   -0.7682 N   0  0  0  0  0  0  0  0  0  0  0  0
   -3.2205    2.4714   -1.4791 H   0  0  0  0  0  0  0  0  0  0  0  0
   -4.6291    2.9361    0.5534 H   0  0  0  0  0  0  0  0  0  0  0  0
   -5.0497    1.1248    2.2571 H   0  0  0  0  0  0  0  0  0  0  0  0
  1  6  2  0  0  0  0
  1  2  1  0  0  0  0
  2  3  2  0  0  0  0
  3  4  1  0  0  0  0
  4 13  1  0  0  0  0
  5 12  1  0  0  0  0
  5  4  2  0  0  0  0
  6  5  1  0  0  0  0
  7  1  1  0  0  0  0
  8  2  1  0  0  0  0
 10  9  3  0  0  0  0
 11  6  1  0  0  0  0
M  RAD  1   3   2
M  END
