Coordinates from ORCA-job Ph-N2+-scan-d09-499-n800
 OpenBabel09191814153D

 13 12  0  0  0  0  0  0  0  0999 V2000
   -3.3695    0.2525   -1.2321 C   0  0  0  0  0  0  0  0  0  0  0  0
   -2.6610   -0.6274   -0.3449 C   0  0  0  0  0  0  0  0  0  0  0  0
   -2.5576    0.0694    0.7799 C   0  0  0  0  0  0  0  0  0  0  0  0
   -2.8136    1.2023    1.4222 C   0  0  0  0  0  0  0  0  0  0  0  0
   -3.5150    1.9975    0.4530 C   0  0  0  0  0  0  0  0  0  0  0  0
   -3.7787    1.5254   -0.8332 C   0  0  0  0  0  0  0  0  0  0  0  0
   -3.5617   -0.1402   -2.2282 H   0  0  0  0  0  0  0  0  0  0  0  0
   -2.3197   -1.6217   -0.6066 H   0  0  0  0  0  0  0  0  0  0  0  0
   10.7764    0.9958   -0.1091 N   0  0  0  0  0  0  0  0  0  0  0  0
   11.8806    1.0370   -0.1395 N   0  0  0  0  0  0  0  0  0  0  0  0
   -4.3096    2.1594   -1.5356 H   0  0  0  0  0  0  0  0  0  0  0  0
   -3.8223    2.9849    0.7901 H   0  0  0  0  0  0  0  0  0  0  0  0
   -2.5821    1.5229    2.4308 H   0  0  0  0  0  0  0  0  0  0  0  0
  1  6  2  0  0  0  0
  1  2  1  0  0  0  0
  2  3  2  0  0  0  0
  3  4  1  0  0  0  0
  4 13  1  0  0  0  0
  5 12  1  0  0  0  0
  5  4  2  0  0  0  0
  6  5  1  0  0  0  0
  7  1  1  0  0  0  0
  8  2  1  0  0  0  0
 10  9  3  0  0  0  0
 11  6  1  0  0  0  0
M  RAD  1   3   2
M  END
