Coordinates from ORCA-job Ph-N2+-scan-d09-499-n800
 OpenBabel09191814153D

 13 12  0  0  0  0  0  0  0  0999 V2000
   -3.0808    0.2372   -1.2141 C   0  0  0  0  0  0  0  0  0  0  0  0
   -2.0468   -0.4286   -0.4729 C   0  0  0  0  0  0  0  0  0  0  0  0
   -1.9251    0.2984    0.6308 C   0  0  0  0  0  0  0  0  0  0  0  0
   -2.3333    1.3529    1.3255 C   0  0  0  0  0  0  0  0  0  0  0  0
   -3.3540    1.9365    0.5011 C   0  0  0  0  0  0  0  0  0  0  0  0
   -3.7085    1.3856   -0.7307 C   0  0  0  0  0  0  0  0  0  0  0  0
   -3.3375   -0.2130   -2.1704 H   0  0  0  0  0  0  0  0  0  0  0  0
   -1.5304   -1.3217   -0.8037 H   0  0  0  0  0  0  0  0  0  0  0  0
    8.9550    0.8199   -0.0285 N   0  0  0  0  0  0  0  0  0  0  0  0
   10.0594    0.8585   -0.0562 N   0  0  0  0  0  0  0  0  0  0  0  0
   -4.4851    1.8585   -1.3225 H   0  0  0  0  0  0  0  0  0  0  0  0
   -3.8254    2.8313    0.9014 H   0  0  0  0  0  0  0  0  0  0  0  0
   -2.0212    1.7422    2.2870 H   0  0  0  0  0  0  0  0  0  0  0  0
  1  6  2  0  0  0  0
  1  2  1  0  0  0  0
  2  3  2  0  0  0  0
  3  4  1  0  0  0  0
  4 13  1  0  0  0  0
  5 12  1  0  0  0  0
  5  4  2  0  0  0  0
  6  5  1  0  0  0  0
  7  1  1  0  0  0  0
  8  2  1  0  0  0  0
 10  9  3  0  0  0  0
 11  6  1  0  0  0  0
M  RAD  1   3   2
M  END
