Coordinates from ORCA-job Ph-N2+-scan-d09-499-n800
 OpenBabel09191814153D

 13 12  0  0  0  0  0  0  0  0999 V2000
   -3.3708    0.2537   -1.2330 C   0  0  0  0  0  0  0  0  0  0  0  0
   -2.6827   -0.6343   -0.3380 C   0  0  0  0  0  0  0  0  0  0  0  0
   -2.5878    0.0594    0.7895 C   0  0  0  0  0  0  0  0  0  0  0  0
   -2.8368    1.1957    1.4286 C   0  0  0  0  0  0  0  0  0  0  0  0
   -3.5178    1.9991    0.4516 C   0  0  0  0  0  0  0  0  0  0  0  0
   -3.7708    1.5308   -0.8382 C   0  0  0  0  0  0  0  0  0  0  0  0
   -3.5549   -0.1361   -2.2318 H   0  0  0  0  0  0  0  0  0  0  0  0
   -2.3481   -1.6316   -0.5967 H   0  0  0  0  0  0  0  0  0  0  0  0
   10.8243    1.0024   -0.1164 N   0  0  0  0  0  0  0  0  0  0  0  0
   11.9286    1.0439   -0.1473 N   0  0  0  0  0  0  0  0  0  0  0  0
   -4.2856    2.1713   -1.5467 H   0  0  0  0  0  0  0  0  0  0  0  0
   -3.8182    2.9897    0.7856 H   0  0  0  0  0  0  0  0  0  0  0  0
   -2.6130    1.5137    2.4398 H   0  0  0  0  0  0  0  0  0  0  0  0
  1  6  2  0  0  0  0
  1  2  1  0  0  0  0
  2  3  2  0  0  0  0
  3  4  1  0  0  0  0
  4 13  1  0  0  0  0
  5 12  1  0  0  0  0
  5  4  2  0  0  0  0
  6  5  1  0  0  0  0
  7  1  1  0  0  0  0
  8  2  1  0  0  0  0
 10  9  3  0  0  0  0
 11  6  1  0  0  0  0
M  RAD  1   3   2
M  END
