Coordinates from ORCA-job Ph-N2+-scan-d09-499-n800
 OpenBabel09191814153D

 13 12  0  0  0  0  0  0  0  0999 V2000
   -2.1897    0.1091   -1.1025 C   0  0  0  0  0  0  0  0  0  0  0  0
   -0.7634   -0.0054   -0.9982 C   0  0  0  0  0  0  0  0  0  0  0  0
   -0.4404    0.8344   -0.0217 C   0  0  0  0  0  0  0  0  0  0  0  0
   -0.8658    1.7142    0.8772 C   0  0  0  0  0  0  0  0  0  0  0  0
   -2.2875    1.7506    0.6876 C   0  0  0  0  0  0  0  0  0  0  0  0
   -2.9199    0.9662   -0.2781 C   0  0  0  0  0  0  0  0  0  0  0  0
   -2.6591   -0.5119   -1.8625 H   0  0  0  0  0  0  0  0  0  0  0  0
   -0.1495   -0.6526   -1.6127 H   0  0  0  0  0  0  0  0  0  0  0  0
    2.8488    0.7159    0.2551 N   0  0  0  0  0  0  0  0  0  0  0  0
    3.9502    0.6863    0.3401 N   0  0  0  0  0  0  0  0  0  0  0  0
   -3.9977    1.0245   -0.3904 H   0  0  0  0  0  0  0  0  0  0  0  0
   -2.8342    2.4257    1.3425 H   0  0  0  0  0  0  0  0  0  0  0  0
   -0.3255    2.3008    1.6102 H   0  0  0  0  0  0  0  0  0  0  0  0
  1  2  2  0  0  0  0
  1  6  1  0  0  0  0
  2  3  1  0  0  0  0
  3  4  2  0  0  0  0
  4 13  1  0  0  0  0
  5  4  1  0  0  0  0
  5 12  1  0  0  0  0
  6  5  2  0  0  0  0
  7  1  1  0  0  0  0
  8  2  1  0  0  0  0
  9 10  3  0  0  0  0
 11  6  1  0  0  0  0
M  RAD  1   3   2
M  END
