Coordinates from ORCA-job Ph-N2+-scan-d09-499-n800
 OpenBabel09191814153D

 13 12  0  0  0  0  0  0  0  0999 V2000
   -2.3776    0.1247   -1.1216 C   0  0  0  0  0  0  0  0  0  0  0  0
   -0.9576   -0.0184   -0.9634 C   0  0  0  0  0  0  0  0  0  0  0  0
   -0.6603    0.8146    0.0259 C   0  0  0  0  0  0  0  0  0  0  0  0
   -1.0982    1.7027    0.9097 C   0  0  0  0  0  0  0  0  0  0  0  0
   -2.5117    1.7668    0.6649 C   0  0  0  0  0  0  0  0  0  0  0  0
   -3.1218    0.9957   -0.3251 C   0  0  0  0  0  0  0  0  0  0  0  0
   -2.8279   -0.4872   -1.9004 H   0  0  0  0  0  0  0  0  0  0  0  0
   -0.3347   -0.6778   -1.5561 H   0  0  0  0  0  0  0  0  0  0  0  0
    3.9949    0.6718    0.2869 N   0  0  0  0  0  0  0  0  0  0  0  0
    5.0988    0.6575    0.3405 N   0  0  0  0  0  0  0  0  0  0  0  0
   -4.1931    1.0755   -0.4789 H   0  0  0  0  0  0  0  0  0  0  0  0
   -3.0681    2.4528    1.3002 H   0  0  0  0  0  0  0  0  0  0  0  0
   -0.5764    2.2792    1.6643 H   0  0  0  0  0  0  0  0  0  0  0  0
  1  2  2  0  0  0  0
  1  6  1  0  0  0  0
  2  3  1  0  0  0  0
  3  4  2  0  0  0  0
  4 13  1  0  0  0  0
  5  4  1  0  0  0  0
  5 12  1  0  0  0  0
  6  5  2  0  0  0  0
  7  1  1  0  0  0  0
  8  2  1  0  0  0  0
  9 10  3  0  0  0  0
 11  6  1  0  0  0  0
M  RAD  1   3   2
M  END
