Coordinates from ORCA-job Ph-N2+-scan-d09-499-n800
 OpenBabel09191814153D

 13 12  0  0  0  0  0  0  0  0999 V2000
   -2.8360    0.2287   -1.2053 C   0  0  0  0  0  0  0  0  0  0  0  0
   -1.6871   -0.3176   -0.5395 C   0  0  0  0  0  0  0  0  0  0  0  0
   -1.5693    0.4231    0.5555 C   0  0  0  0  0  0  0  0  0  0  0  0
   -2.0409    1.4299    1.2803 C   0  0  0  0  0  0  0  0  0  0  0  0
   -3.1735    1.8953    0.5303 C   0  0  0  0  0  0  0  0  0  0  0  0
   -3.5500    1.3041   -0.6760 C   0  0  0  0  0  0  0  0  0  0  0  0
   -3.1076   -0.2509   -2.1430 H   0  0  0  0  0  0  0  0  0  0  0  0
   -1.1007   -1.1510   -0.9078 H   0  0  0  0  0  0  0  0  0  0  0  0
    7.5789    0.7292   -0.0040 N   0  0  0  0  0  0  0  0  0  0  0  0
    8.6826    0.7888   -0.0166 N   0  0  0  0  0  0  0  0  0  0  0  0
   -4.4125    1.6871   -1.2109 H   0  0  0  0  0  0  0  0  0  0  0  0
   -3.7106    2.7356    0.9650 H   0  0  0  0  0  0  0  0  0  0  0  0
   -1.7071    1.8553    2.2189 H   0  0  0  0  0  0  0  0  0  0  0  0
  1  6  2  0  0  0  0
  1  2  1  0  0  0  0
  2  3  2  0  0  0  0
  3  4  1  0  0  0  0
  4 13  1  0  0  0  0
  5 12  1  0  0  0  0
  5  4  2  0  0  0  0
  6  5  1  0  0  0  0
  7  1  1  0  0  0  0
  8  2  1  0  0  0  0
 10  9  3  0  0  0  0
 11  6  1  0  0  0  0
M  RAD  1   3   2
M  END
