Coordinates from ORCA-job Ph-N2+-scan-d09-499-n800
 OpenBabel09191814153D

 13 12  0  0  0  0  0  0  0  0999 V2000
   -2.6466    0.1606   -1.1572 C   0  0  0  0  0  0  0  0  0  0  0  0
   -1.2662   -0.0863   -0.8485 C   0  0  0  0  0  0  0  0  0  0  0  0
   -1.0177    0.7220    0.1742 C   0  0  0  0  0  0  0  0  0  0  0  0
   -1.4830    1.6388    1.0134 C   0  0  0  0  0  0  0  0  0  0  0  0
   -2.8533    1.8060    0.6188 C   0  0  0  0  0  0  0  0  0  0  0  0
   -3.4074    1.0827   -0.4379 C   0  0  0  0  0  0  0  0  0  0  0  0
   -3.0528   -0.4163   -1.9854 H   0  0  0  0  0  0  0  0  0  0  0  0
   -0.6332   -0.7894   -1.3769 H   0  0  0  0  0  0  0  0  0  0  0  0
    5.7487    0.6448    0.2607 N   0  0  0  0  0  0  0  0  0  0  0  0
    6.8540    0.6480    0.2692 N   0  0  0  0  0  0  0  0  0  0  0  0
   -4.4469    1.2406   -0.7052 H   0  0  0  0  0  0  0  0  0  0  0  0
   -3.4233    2.5305    1.1967 H   0  0  0  0  0  0  0  0  0  0  0  0
   -1.0059    2.1757    1.8247 H   0  0  0  0  0  0  0  0  0  0  0  0
  1  2  2  0  0  0  0
  1  6  1  0  0  0  0
  2  3  1  0  0  0  0
  3  4  2  0  0  0  0
  4 13  1  0  0  0  0
  5  4  1  0  0  0  0
  5 12  1  0  0  0  0
  6  5  2  0  0  0  0
  7  1  1  0  0  0  0
  8  2  1  0  0  0  0
  9 10  3  0  0  0  0
 11  6  1  0  0  0  0
M  RAD  1   3   2
M  END
