Coordinates from ORCA-job Ph-N2+-scan-d09-499-n800
 OpenBabel09191814153D

 13 13  0  0  0  0  0  0  0  0999 V2000
   -1.8893    0.0889   -1.0804 C   0  0  0  0  0  0  0  0  0  0  0  0
   -0.5227    0.0128   -0.9708 C   0  0  0  0  0  0  0  0  0  0  0  0
    0.2005    0.8225    0.0208 C   0  0  0  0  0  0  0  0  0  0  0  0
   -0.6212    1.6988    0.8687 C   0  0  0  0  0  0  0  0  0  0  0  0
   -1.9859    1.7421    0.7232 C   0  0  0  0  0  0  0  0  0  0  0  0
   -2.6257    0.9457   -0.2432 C   0  0  0  0  0  0  0  0  0  0  0  0
   -2.3970   -0.5201   -1.8220 H   0  0  0  0  0  0  0  0  0  0  0  0
    0.0798   -0.6363   -1.5999 H   0  0  0  0  0  0  0  0  0  0  0  0
    1.1755    0.7805    0.1116 N   0  0  0  0  0  0  0  0  0  0  0  0
    2.3173    0.7315    0.2176 N   0  0  0  0  0  0  0  0  0  0  0  0
   -3.7065    0.9936   -0.3450 H   0  0  0  0  0  0  0  0  0  0  0  0
   -2.5672    2.3988    1.3630 H   0  0  0  0  0  0  0  0  0  0  0  0
   -0.0913    2.2989    1.6031 H   0  0  0  0  0  0  0  0  0  0  0  0
  1  2  2  0  0  0  0
  1  6  1  0  0  0  0
  2  3  1  0  0  0  0
  3  9  1  0  0  0  0
  3  4  2  0  0  0  0
  4 13  1  0  0  0  0
  5  4  1  0  0  0  0
  5 12  1  0  0  0  0
  6  5  2  0  0  0  0
  7  1  1  0  0  0  0
  8  2  1  0  0  0  0
  9 10  1  0  0  0  0
 11  6  1  0  0  0  0
M  RAD  2   9   2  10   3
M  END
