Coordinates from ORCA-job Ph-N2+-scan-d09-499-n800
 OpenBabel09191814153D

 13 12  0  0  0  0  0  0  0  0999 V2000
   -2.9317    0.2333   -1.2093 C   0  0  0  0  0  0  0  0  0  0  0  0
   -1.8254   -0.3591   -0.5115 C   0  0  0  0  0  0  0  0  0  0  0  0
   -1.7097    0.3755    0.5878 C   0  0  0  0  0  0  0  0  0  0  0  0
   -2.1615    1.3999    1.3004 C   0  0  0  0  0  0  0  0  0  0  0  0
   -3.2522    1.9110    0.5188 C   0  0  0  0  0  0  0  0  0  0  0  0
   -3.6170    1.3361   -0.6989 C   0  0  0  0  0  0  0  0  0  0  0  0
   -3.1950   -0.2345   -2.1553 H   0  0  0  0  0  0  0  0  0  0  0  0
   -1.2626   -1.2151   -0.8642 H   0  0  0  0  0  0  0  0  0  0  0  0
    8.1353    0.7605   -0.0181 N   0  0  0  0  0  0  0  0  0  0  0  0
    9.2394    0.8135   -0.0334 N   0  0  0  0  0  0  0  0  0  0  0  0
   -4.4476    1.7538   -1.2580 H   0  0  0  0  0  0  0  0  0  0  0  0
   -3.7675    2.7718    0.9393 H   0  0  0  0  0  0  0  0  0  0  0  0
   -1.8383    1.8109    2.2491 H   0  0  0  0  0  0  0  0  0  0  0  0
  1  6  2  0  0  0  0
  1  2  1  0  0  0  0
  2  3  2  0  0  0  0
  3  4  1  0  0  0  0
  4 13  1  0  0  0  0
  5 12  1  0  0  0  0
  5  4  2  0  0  0  0
  6  5  1  0  0  0  0
  7  1  1  0  0  0  0
  8  2  1  0  0  0  0
 10  9  3  0  0  0  0
 11  6  1  0  0  0  0
M  RAD  1   3   2
M  END
