Coordinates from ORCA-job Ph-N2+-scan-d09-499-n800
 OpenBabel09191814153D

 13 12  0  0  0  0  0  0  0  0999 V2000
   -2.6823    0.1809   -1.1738 C   0  0  0  0  0  0  0  0  0  0  0  0
   -1.3449   -0.1411   -0.7627 C   0  0  0  0  0  0  0  0  0  0  0  0
   -1.1323    0.6485    0.2825 C   0  0  0  0  0  0  0  0  0  0  0  0
   -1.6110    1.5853    1.0914 C   0  0  0  0  0  0  0  0  0  0  0  0
   -2.9363    1.8274    0.5951 C   0  0  0  0  0  0  0  0  0  0  0  0
   -3.4458    1.1393   -0.5066 C   0  0  0  0  0  0  0  0  0  0  0  0
   -3.0542   -0.3698   -2.0351 H   0  0  0  0  0  0  0  0  0  0  0  0
   -0.7119   -0.8754   -1.2469 H   0  0  0  0  0  0  0  0  0  0  0  0
    6.1552    0.6614    0.1961 N   0  0  0  0  0  0  0  0  0  0  0  0
    7.2604    0.6754    0.1830 N   0  0  0  0  0  0  0  0  0  0  0  0
   -4.4521    1.3535   -0.8503 H   0  0  0  0  0  0  0  0  0  0  0  0
   -3.5091    2.5795    1.1336 H   0  0  0  0  0  0  0  0  0  0  0  0
   -1.1693    2.0928    1.9406 H   0  0  0  0  0  0  0  0  0  0  0  0
  1  2  2  0  0  0  0
  1  6  1  0  0  0  0
  2  3  1  0  0  0  0
  3  4  2  0  0  0  0
  4 13  1  0  0  0  0
  5  4  1  0  0  0  0
  5 12  1  0  0  0  0
  6  5  2  0  0  0  0
  7  1  1  0  0  0  0
  8  2  1  0  0  0  0
 10  9  3  0  0  0  0
 11  6  1  0  0  0  0
M  RAD  1   3   2
M  END
