Coordinates from ORCA-job Ph-N2+-scan-d09-499-n800
 OpenBabel09191814153D

 13 12  0  0  0  0  0  0  0  0999 V2000
   -3.3732    0.2583   -1.2359 C   0  0  0  0  0  0  0  0  0  0  0  0
   -2.7573   -0.6559   -0.3149 C   0  0  0  0  0  0  0  0  0  0  0  0
   -2.6851    0.0323    0.8176 C   0  0  0  0  0  0  0  0  0  0  0  0
   -2.9234    1.1746    1.4501 C   0  0  0  0  0  0  0  0  0  0  0  0
   -3.5316    2.0041    0.4472 C   0  0  0  0  0  0  0  0  0  0  0  0
   -3.7444    1.5481   -0.8542 C   0  0  0  0  0  0  0  0  0  0  0  0
   -3.5273   -0.1227   -2.2431 H   0  0  0  0  0  0  0  0  0  0  0  0
   -2.4482   -1.6642   -0.5624 H   0  0  0  0  0  0  0  0  0  0  0  0
   11.0015    1.0241   -0.1436 N   0  0  0  0  0  0  0  0  0  0  0  0
   12.1057    1.0656   -0.1756 N   0  0  0  0  0  0  0  0  0  0  0  0
   -4.2051    2.2078   -1.5819 H   0  0  0  0  0  0  0  0  0  0  0  0
   -3.8113    3.0038    0.7719 H   0  0  0  0  0  0  0  0  0  0  0  0
   -2.7340    1.4818    2.4716 H   0  0  0  0  0  0  0  0  0  0  0  0
  1  6  2  0  0  0  0
  1  2  1  0  0  0  0
  2  3  2  0  0  0  0
  3  4  1  0  0  0  0
  4 13  1  0  0  0  0
  5 12  1  0  0  0  0
  5  4  2  0  0  0  0
  6  5  1  0  0  0  0
  7  1  1  0  0  0  0
  8  2  1  0  0  0  0
 10  9  3  0  0  0  0
 11  6  1  0  0  0  0
M  RAD  1   3   2
M  END
