Coordinates from ORCA-job Ph-N2+-scan-d09-499-n800
 OpenBabel09191814153D

 13 12  0  0  0  0  0  0  0  0999 V2000
   -2.3278    0.1199   -1.1165 C   0  0  0  0  0  0  0  0  0  0  0  0
   -0.9052   -0.0154   -0.9773 C   0  0  0  0  0  0  0  0  0  0  0  0
   -0.5989    0.8197    0.0076 C   0  0  0  0  0  0  0  0  0  0  0  0
   -1.0300    1.7054    0.8970 C   0  0  0  0  0  0  0  0  0  0  0  0
   -2.4468    1.7617    0.6714 C   0  0  0  0  0  0  0  0  0  0  0  0
   -3.0660    0.9869   -0.3101 C   0  0  0  0  0  0  0  0  0  0  0  0
   -2.7854   -0.4947   -1.8890 H   0  0  0  0  0  0  0  0  0  0  0  0
   -0.2863   -0.6714   -1.5779 H   0  0  0  0  0  0  0  0  0  0  0  0
    3.6743    0.6864    0.2852 N   0  0  0  0  0  0  0  0  0  0  0  0
    4.7776    0.6689    0.3477 N   0  0  0  0  0  0  0  0  0  0  0  0
   -4.1398    1.0606   -0.4494 H   0  0  0  0  0  0  0  0  0  0  0  0
   -2.9986    2.4448    1.3139 H   0  0  0  0  0  0  0  0  0  0  0  0
   -0.5008    2.2848    1.6442 H   0  0  0  0  0  0  0  0  0  0  0  0
  1  2  2  0  0  0  0
  1  6  1  0  0  0  0
  2  3  1  0  0  0  0
  3  4  2  0  0  0  0
  4 13  1  0  0  0  0
  5  4  1  0  0  0  0
  5 12  1  0  0  0  0
  6  5  2  0  0  0  0
  7  1  1  0  0  0  0
  8  2  1  0  0  0  0
  9 10  3  0  0  0  0
 11  6  1  0  0  0  0
M  RAD  1   3   2
M  END
