Coordinates from ORCA-job Ph-N2+-scan-d09-499-n800
 OpenBabel09191814153D

 13 12  0  0  0  0  0  0  0  0999 V2000
   -2.2651    0.1144   -1.1101 C   0  0  0  0  0  0  0  0  0  0  0  0
   -0.8401   -0.0114   -0.9903 C   0  0  0  0  0  0  0  0  0  0  0  0
   -0.5249    0.8260   -0.0100 C   0  0  0  0  0  0  0  0  0  0  0  0
   -0.9502    1.7090    0.8850 C   0  0  0  0  0  0  0  0  0  0  0  0
   -2.3702    1.7560    0.6791 C   0  0  0  0  0  0  0  0  0  0  0  0
   -2.9977    0.9769   -0.2937 C   0  0  0  0  0  0  0  0  0  0  0  0
   -2.7296   -0.5032   -1.8759 H   0  0  0  0  0  0  0  0  0  0  0  0
   -0.2246   -0.6632   -1.5987 H   0  0  0  0  0  0  0  0  0  0  0  0
    3.2860    0.7026    0.2761 N   0  0  0  0  0  0  0  0  0  0  0  0
    4.3885    0.6798    0.3504 N   0  0  0  0  0  0  0  0  0  0  0  0
   -4.0738    1.0435   -0.4181 H   0  0  0  0  0  0  0  0  0  0  0  0
   -2.9179    2.4355    1.3287 H   0  0  0  0  0  0  0  0  0  0  0  0
   -0.4140    2.2918    1.6244 H   0  0  0  0  0  0  0  0  0  0  0  0
  1  2  2  0  0  0  0
  1  6  1  0  0  0  0
  2  3  1  0  0  0  0
  3  4  2  0  0  0  0
  4 13  1  0  0  0  0
  5  4  1  0  0  0  0
  5 12  1  0  0  0  0
  6  5  2  0  0  0  0
  7  1  1  0  0  0  0
  8  2  1  0  0  0  0
  9 10  3  0  0  0  0
 11  6  1  0  0  0  0
M  RAD  1   3   2
M  END
