Coordinates from ORCA-job Ph-N2+-scan-d09-499-n800
 OpenBabel09191814153D

 13 12  0  0  0  0  0  0  0  0999 V2000
   -2.9789    0.2351   -1.2110 C   0  0  0  0  0  0  0  0  0  0  0  0
   -1.8941   -0.3794   -0.4987 C   0  0  0  0  0  0  0  0  0  0  0  0
   -1.7786    0.3525    0.6024 C   0  0  0  0  0  0  0  0  0  0  0  0
   -2.2193    1.3856    1.3093 C   0  0  0  0  0  0  0  0  0  0  0  0
   -3.2890    1.9186    0.5134 C   0  0  0  0  0  0  0  0  0  0  0  0
   -3.6488    1.3513   -0.7094 C   0  0  0  0  0  0  0  0  0  0  0  0
   -3.2387   -0.2271   -2.1607 H   0  0  0  0  0  0  0  0  0  0  0  0
   -1.3438   -1.2464   -0.8443 H   0  0  0  0  0  0  0  0  0  0  0  0
    8.4050    0.7781   -0.0217 N   0  0  0  0  0  0  0  0  0  0  0  0
    9.5093    0.8247   -0.0428 N   0  0  0  0  0  0  0  0  0  0  0  0
   -4.4633    1.7856   -1.2794 H   0  0  0  0  0  0  0  0  0  0  0  0
   -3.7926    2.7894    0.9273 H   0  0  0  0  0  0  0  0  0  0  0  0
   -1.9008    1.7898    2.2626 H   0  0  0  0  0  0  0  0  0  0  0  0
  1  6  2  0  0  0  0
  1  2  1  0  0  0  0
  2  3  2  0  0  0  0
  3  4  1  0  0  0  0
  4 13  1  0  0  0  0
  5 12  1  0  0  0  0
  5  4  2  0  0  0  0
  6  5  1  0  0  0  0
  7  1  1  0  0  0  0
  8  2  1  0  0  0  0
 10  9  3  0  0  0  0
 11  6  1  0  0  0  0
M  RAD  1   3   2
M  END
