Coordinates from ORCA-job Ph-N2+-scan-d09-499-n800
 OpenBabel09191814153D

 13 13  0  0  0  0  0  0  0  0999 V2000
   -1.9717    0.0949   -1.0854 C   0  0  0  0  0  0  0  0  0  0  0  0
   -0.5746    0.0090   -0.9812 C   0  0  0  0  0  0  0  0  0  0  0  0
   -0.0775    0.8337   -0.0041 C   0  0  0  0  0  0  0  0  0  0  0  0
   -0.6737    1.7063    0.8705 C   0  0  0  0  0  0  0  0  0  0  0  0
   -2.0680    1.7432    0.7128 C   0  0  0  0  0  0  0  0  0  0  0  0
   -2.7010    0.9492   -0.2505 C   0  0  0  0  0  0  0  0  0  0  0  0
   -2.4735   -0.5162   -1.8290 H   0  0  0  0  0  0  0  0  0  0  0  0
    0.0271   -0.6377   -1.6073 H   0  0  0  0  0  0  0  0  0  0  0  0
    1.6745    0.7591    0.1577 N   0  0  0  0  0  0  0  0  0  0  0  0
    2.7739    0.7130    0.2582 N   0  0  0  0  0  0  0  0  0  0  0  0
   -3.7806    0.9976   -0.3526 H   0  0  0  0  0  0  0  0  0  0  0  0
   -2.6438    2.4019    1.3552 H   0  0  0  0  0  0  0  0  0  0  0  0
   -0.1447    2.3037    1.6025 H   0  0  0  0  0  0  0  0  0  0  0  0
  1  2  2  0  0  0  0
  1  6  1  0  0  0  0
  2  3  1  0  0  0  0
  3  9  1  0  0  0  0
  3  4  2  0  0  0  0
  4 13  1  0  0  0  0
  5  4  1  0  0  0  0
  5 12  1  0  0  0  0
  6  5  2  0  0  0  0
  7  1  1  0  0  0  0
  8  2  1  0  0  0  0
  9 10  1  0  0  0  0
 11  6  1  0  0  0  0
M  RAD  2   9   2  10   3
M  END
