Coordinates from ORCA-job Ph-N2+-scan-d09-499-n800
 OpenBabel09191814153D

 13 12  0  0  0  0  0  0  0  0999 V2000
   -2.8906    0.2315   -1.2076 C   0  0  0  0  0  0  0  0  0  0  0  0
   -1.7662   -0.3418   -0.5231 C   0  0  0  0  0  0  0  0  0  0  0  0
   -1.6496    0.3953    0.5744 C   0  0  0  0  0  0  0  0  0  0  0  0
   -2.1098    1.4124    1.2921 C   0  0  0  0  0  0  0  0  0  0  0  0
   -3.2184    1.9045    0.5236 C   0  0  0  0  0  0  0  0  0  0  0  0
   -3.5882    1.3229   -0.6894 C   0  0  0  0  0  0  0  0  0  0  0  0
   -3.1575   -0.2413   -2.1502 H   0  0  0  0  0  0  0  0  0  0  0  0
   -1.1932   -1.1885   -0.8822 H   0  0  0  0  0  0  0  0  0  0  0  0
    7.8967    0.7469   -0.0136 N   0  0  0  0  0  0  0  0  0  0  0  0
    9.0006    0.8036   -0.0252 N   0  0  0  0  0  0  0  0  0  0  0  0
   -4.4325    1.7261   -1.2385 H   0  0  0  0  0  0  0  0  0  0  0  0
   -3.7430    2.7568    0.9499 H   0  0  0  0  0  0  0  0  0  0  0  0
   -1.7821    1.8293    2.2366 H   0  0  0  0  0  0  0  0  0  0  0  0
  1  6  2  0  0  0  0
  1  2  1  0  0  0  0
  2  3  2  0  0  0  0
  3  4  1  0  0  0  0
  4 13  1  0  0  0  0
  5 12  1  0  0  0  0
  5  4  2  0  0  0  0
  6  5  1  0  0  0  0
  7  1  1  0  0  0  0
  8  2  1  0  0  0  0
 10  9  3  0  0  0  0
 11  6  1  0  0  0  0
M  RAD  1   3   2
M  END
