Coordinates from ORCA-job Ph-N2+-scan-d09-499-n800
 OpenBabel09191814153D

 13 13  0  0  0  0  0  0  0  0999 V2000
   -1.9645    0.0941   -1.0852 C   0  0  0  0  0  0  0  0  0  0  0  0
   -0.5703    0.0101   -0.9795 C   0  0  0  0  0  0  0  0  0  0  0  0
   -0.0558    0.8329   -0.0022 C   0  0  0  0  0  0  0  0  0  0  0  0
   -0.6693    1.7050    0.8695 C   0  0  0  0  0  0  0  0  0  0  0  0
   -2.0609    1.7433    0.7140 C   0  0  0  0  0  0  0  0  0  0  0  0
   -2.6939    0.9489   -0.2498 C   0  0  0  0  0  0  0  0  0  0  0  0
   -2.4686   -0.5159   -1.8280 H   0  0  0  0  0  0  0  0  0  0  0  0
    0.0304   -0.6372   -1.6065 H   0  0  0  0  0  0  0  0  0  0  0  0
    1.6365    0.7608    0.1541 N   0  0  0  0  0  0  0  0  0  0  0  0
    2.7365    0.7144    0.2549 N   0  0  0  0  0  0  0  0  0  0  0  0
   -3.7735    0.9972   -0.3519 H   0  0  0  0  0  0  0  0  0  0  0  0
   -2.6389    2.4012    1.3551 H   0  0  0  0  0  0  0  0  0  0  0  0
   -0.1413    2.3031    1.6021 H   0  0  0  0  0  0  0  0  0  0  0  0
  1  2  2  0  0  0  0
  1  6  1  0  0  0  0
  2  3  1  0  0  0  0
  3  9  1  0  0  0  0
  3  4  2  0  0  0  0
  4 13  1  0  0  0  0
  5  4  1  0  0  0  0
  5 12  1  0  0  0  0
  6  5  2  0  0  0  0
  7  1  1  0  0  0  0
  8  2  1  0  0  0  0
  9 10  1  0  0  0  0
 11  6  1  0  0  0  0
M  RAD  2   9   2  10   3
M  END
