Coordinates from ORCA-job Ph-N2+-scan-d09-499-n800
 OpenBabel09191814153D

 13 12  0  0  0  0  0  0  0  0999 V2000
   -2.6056    0.1513   -1.1485 C   0  0  0  0  0  0  0  0  0  0  0  0
   -1.2103   -0.0605   -0.8834 C   0  0  0  0  0  0  0  0  0  0  0  0
   -0.9501    0.7560    0.1300 C   0  0  0  0  0  0  0  0  0  0  0  0
   -1.4112    1.6633    0.9819 C   0  0  0  0  0  0  0  0  0  0  0  0
   -2.7971    1.7955    0.6304 C   0  0  0  0  0  0  0  0  0  0  0  0
   -3.3661    1.0560   -0.4070 C   0  0  0  0  0  0  0  0  0  0  0  0
   -3.0235   -0.4374   -1.9625 H   0  0  0  0  0  0  0  0  0  0  0  0
   -0.5769   -0.7486   -1.4307 H   0  0  0  0  0  0  0  0  0  0  0  0
    5.4540    0.6374    0.2784 N   0  0  0  0  0  0  0  0  0  0  0  0
    6.5592    0.6368    0.2983 N   0  0  0  0  0  0  0  0  0  0  0  0
   -4.4171    1.1875   -0.6419 H   0  0  0  0  0  0  0  0  0  0  0  0
   -3.3667    2.5069    1.2249 H   0  0  0  0  0  0  0  0  0  0  0  0
   -0.9222    2.2136    1.7769 H   0  0  0  0  0  0  0  0  0  0  0  0
  1  2  2  0  0  0  0
  1  6  1  0  0  0  0
  2  3  1  0  0  0  0
  3  4  2  0  0  0  0
  4 13  1  0  0  0  0
  5  4  1  0  0  0  0
  5 12  1  0  0  0  0
  6  5  2  0  0  0  0
  7  1  1  0  0  0  0
  8  2  1  0  0  0  0
  9 10  3  0  0  0  0
 11  6  1  0  0  0  0
M  RAD  1   3   2
M  END
