Coordinates from ORCA-job Ph-N2+-scan-d09-499-n800
 OpenBabel09191814153D

 13 12  0  0  0  0  0  0  0  0999 V2000
   -2.0623    0.1019   -1.0906 C   0  0  0  0  0  0  0  0  0  0  0  0
   -0.6415    0.0009   -0.9950 C   0  0  0  0  0  0  0  0  0  0  0  0
   -0.2788    0.8395   -0.0200 C   0  0  0  0  0  0  0  0  0  0  0  0
   -0.7418    1.7161    0.8761 C   0  0  0  0  0  0  0  0  0  0  0  0
   -2.1583    1.7443    0.7009 C   0  0  0  0  0  0  0  0  0  0  0  0
   -2.7920    0.9545   -0.2602 C   0  0  0  0  0  0  0  0  0  0  0  0
   -2.5410   -0.5191   -1.8438 H   0  0  0  0  0  0  0  0  0  0  0  0
   -0.0316   -0.6431   -1.6152 H   0  0  0  0  0  0  0  0  0  0  0  0
    2.1509    0.7384    0.2016 N   0  0  0  0  0  0  0  0  0  0  0  0
    3.2506    0.6987    0.2962 N   0  0  0  0  0  0  0  0  0  0  0  0
   -3.8711    1.0048   -0.3642 H   0  0  0  0  0  0  0  0  0  0  0  0
   -2.7125    2.4128    1.3554 H   0  0  0  0  0  0  0  0  0  0  0  0
   -0.2043    2.3081    1.6054 H   0  0  0  0  0  0  0  0  0  0  0  0
  1  2  2  0  0  0  0
  1  6  1  0  0  0  0
  2  3  1  0  0  0  0
  3  4  2  0  0  0  0
  4 13  1  0  0  0  0
  5  4  1  0  0  0  0
  5 12  1  0  0  0  0
  6  5  2  0  0  0  0
  7  1  1  0  0  0  0
  8  2  1  0  0  0  0
  9 10  3  0  0  0  0
 11  6  1  0  0  0  0
M  RAD  1   3   2
M  END
