Coordinates from ORCA-job Ph-N2+-scan-d09-499-n800
 OpenBabel09191814153D

 13 12  0  0  0  0  0  0  0  0999 V2000
   -3.2623    0.2364   -1.2171 C   0  0  0  0  0  0  0  0  0  0  0  0
   -2.3313   -0.5253   -0.4328 C   0  0  0  0  0  0  0  0  0  0  0  0
   -2.1786    0.1948    0.6715 C   0  0  0  0  0  0  0  0  0  0  0  0
   -2.5026    1.2916    1.3446 C   0  0  0  0  0  0  0  0  0  0  0  0
   -3.4256    1.9695    0.4782 C   0  0  0  0  0  0  0  0  0  0  0  0
   -3.7869    1.4471   -0.7640 C   0  0  0  0  0  0  0  0  0  0  0  0
   -3.5264   -0.1934   -2.1808 H   0  0  0  0  0  0  0  0  0  0  0  0
   -1.8960   -1.4687   -0.7395 H   0  0  0  0  0  0  0  0  0  0  0  0
    9.8337    0.9037   -0.0353 N   0  0  0  0  0  0  0  0  0  0  0  0
   10.9381    0.9439   -0.0612 N   0  0  0  0  0  0  0  0  0  0  0  0
   -4.4872    1.9921   -1.3885 H   0  0  0  0  0  0  0  0  0  0  0  0
   -3.8184    2.9109    0.8557 H   0  0  0  0  0  0  0  0  0  0  0  0
   -2.1900    1.6550    2.3161 H   0  0  0  0  0  0  0  0  0  0  0  0
  1  6  2  0  0  0  0
  1  2  1  0  0  0  0
  2  3  2  0  0  0  0
  3  4  1  0  0  0  0
  4 13  1  0  0  0  0
  5 12  1  0  0  0  0
  5  4  2  0  0  0  0
  6  5  1  0  0  0  0
  7  1  1  0  0  0  0
  8  2  1  0  0  0  0
 10  9  3  0  0  0  0
 11  6  1  0  0  0  0
M  RAD  1   3   2
M  END
