Coordinates from ORCA-job Ph-N2+-scan-d09-499-n800
 OpenBabel09191814153D

 13 12  0  0  0  0  0  0  0  0999 V2000
   -2.9024    0.3978   -1.0285 C   0  0  0  0  0  0  0  0  0  0  0  0
   -3.0177   -0.6559   -0.0601 C   0  0  0  0  0  0  0  0  0  0  0  0
   -3.6791   -0.0965    0.9455 C   0  0  0  0  0  0  0  0  0  0  0  0
   -4.2638    0.9909    1.4316 C   0  0  0  0  0  0  0  0  0  0  0  0
   -4.0920    1.9688    0.3936 C   0  0  0  0  0  0  0  0  0  0  0  0
   -3.4283    1.6695   -0.7965 C   0  0  0  0  0  0  0  0  0  0  0  0
   -2.3836    0.1362   -1.9483 H   0  0  0  0  0  0  0  0  0  0  0  0
   -2.6304   -1.6590   -0.1928 H   0  0  0  0  0  0  0  0  0  0  0  0
   12.6269    1.0125   -0.6298 N   0  0  0  0  0  0  0  0  0  0  0  0
   13.7306    1.0275   -0.6895 N   0  0  0  0  0  0  0  0  0  0  0  0
   -3.3188    2.4386   -1.5541 H   0  0  0  0  0  0  0  0  0  0  0  0
   -4.5098    2.9514    0.6017 H   0  0  0  0  0  0  0  0  0  0  0  0
   -4.7653    1.1760    2.3740 H   0  0  0  0  0  0  0  0  0  0  0  0
  1  6  2  0  0  0  0
  1  2  1  0  0  0  0
  2  3  2  0  0  0  0
  3  4  1  0  0  0  0
  4 13  1  0  0  0  0
  5 12  1  0  0  0  0
  5  4  2  0  0  0  0
  6  5  1  0  0  0  0
  7  1  1  0  0  0  0
  8  2  1  0  0  0  0
 10  9  3  0  0  0  0
 11  6  1  0  0  0  0
M  RAD  1   3   2
M  END
