Coordinates from ORCA-job Ph-N2+-scan-d09-499-n800
 OpenBabel09191814153D

 13 12  0  0  0  0  0  0  0  0999 V2000
   -3.3730    0.2562   -1.2348 C   0  0  0  0  0  0  0  0  0  0  0  0
   -2.7262   -0.6473   -0.3247 C   0  0  0  0  0  0  0  0  0  0  0  0
   -2.6442    0.0428    0.8061 C   0  0  0  0  0  0  0  0  0  0  0  0
   -2.8852    1.1833    1.4410 C   0  0  0  0  0  0  0  0  0  0  0  0
   -3.5247    2.0021    0.4489 C   0  0  0  0  0  0  0  0  0  0  0  0
   -3.7556    1.5410   -0.8476 C   0  0  0  0  0  0  0  0  0  0  0  0
   -3.5407   -0.1283   -2.2385 H   0  0  0  0  0  0  0  0  0  0  0  0
   -2.4064   -1.6512   -0.5768 H   0  0  0  0  0  0  0  0  0  0  0  0
   10.9246    1.0153   -0.1315 N   0  0  0  0  0  0  0  0  0  0  0  0
   12.0289    1.0570   -0.1631 N   0  0  0  0  0  0  0  0  0  0  0  0
   -4.2391    2.1932   -1.5674 H   0  0  0  0  0  0  0  0  0  0  0  0
   -3.8124    2.9984    0.7773 H   0  0  0  0  0  0  0  0  0  0  0  0
   -2.6797    1.4952    2.4579 H   0  0  0  0  0  0  0  0  0  0  0  0
  1  6  2  0  0  0  0
  1  2  1  0  0  0  0
  2  3  2  0  0  0  0
  3  4  1  0  0  0  0
  4 13  1  0  0  0  0
  5 12  1  0  0  0  0
  5  4  2  0  0  0  0
  6  5  1  0  0  0  0
  7  1  1  0  0  0  0
  8  2  1  0  0  0  0
 10  9  3  0  0  0  0
 11  6  1  0  0  0  0
M  RAD  1   3   2
M  END
