Coordinates from ORCA-job Ph-N2+-scan-d09-499-n800
 OpenBabel09191814153D

 13 12  0  0  0  0  0  0  0  0999 V2000
   -2.3853    0.1255   -1.1224 C   0  0  0  0  0  0  0  0  0  0  0  0
   -0.9658   -0.0189   -0.9610 C   0  0  0  0  0  0  0  0  0  0  0  0
   -0.6701    0.8138    0.0291 C   0  0  0  0  0  0  0  0  0  0  0  0
   -1.1091    1.7023    0.9118 C   0  0  0  0  0  0  0  0  0  0  0  0
   -2.5220    1.7676    0.6639 C   0  0  0  0  0  0  0  0  0  0  0  0
   -3.1306    0.9971   -0.3276 C   0  0  0  0  0  0  0  0  0  0  0  0
   -2.8344   -0.4860   -1.9023 H   0  0  0  0  0  0  0  0  0  0  0  0
   -0.3421   -0.6788   -1.5524 H   0  0  0  0  0  0  0  0  0  0  0  0
    4.0455    0.6694    0.2868 N   0  0  0  0  0  0  0  0  0  0  0  0
    5.1494    0.6555    0.3391 N   0  0  0  0  0  0  0  0  0  0  0  0
   -4.2014    1.0778   -0.4838 H   0  0  0  0  0  0  0  0  0  0  0  0
   -3.0792    2.4541    1.2979 H   0  0  0  0  0  0  0  0  0  0  0  0
   -0.5886    2.2783    1.6677 H   0  0  0  0  0  0  0  0  0  0  0  0
  1  2  2  0  0  0  0
  1  6  1  0  0  0  0
  2  3  1  0  0  0  0
  3  4  2  0  0  0  0
  4 13  1  0  0  0  0
  5  4  1  0  0  0  0
  5 12  1  0  0  0  0
  6  5  2  0  0  0  0
  7  1  1  0  0  0  0
  8  2  1  0  0  0  0
  9 10  3  0  0  0  0
 11  6  1  0  0  0  0
M  RAD  1   3   2
M  END
