Coordinates from ORCA-job Ph-N2+-scan-d09-499-n800
 OpenBabel09191814153D

 13 12  0  0  0  0  0  0  0  0999 V2000
   -2.8333    0.2286   -1.2052 C   0  0  0  0  0  0  0  0  0  0  0  0
   -1.6832   -0.3163   -0.5403 C   0  0  0  0  0  0  0  0  0  0  0  0
   -1.5652    0.4246    0.5545 C   0  0  0  0  0  0  0  0  0  0  0  0
   -2.0375    1.4308    1.2796 C   0  0  0  0  0  0  0  0  0  0  0  0
   -3.1712    1.8948    0.5306 C   0  0  0  0  0  0  0  0  0  0  0  0
   -3.5481    1.3031   -0.6753 C   0  0  0  0  0  0  0  0  0  0  0  0
   -3.1050   -0.2515   -2.1426 H   0  0  0  0  0  0  0  0  0  0  0  0
   -1.0960   -1.1490   -0.9091 H   0  0  0  0  0  0  0  0  0  0  0  0
    7.5630    0.7285   -0.0034 N   0  0  0  0  0  0  0  0  0  0  0  0
    8.6668    0.7878   -0.0163 N   0  0  0  0  0  0  0  0  0  0  0  0
   -4.4115    1.6851   -1.2095 H   0  0  0  0  0  0  0  0  0  0  0  0
   -3.7090    2.7345    0.9657 H   0  0  0  0  0  0  0  0  0  0  0  0
   -1.7034    1.8566    2.2180 H   0  0  0  0  0  0  0  0  0  0  0  0
  1  6  2  0  0  0  0
  1  2  1  0  0  0  0
  2  3  2  0  0  0  0
  3  4  1  0  0  0  0
  4 13  1  0  0  0  0
  5 12  1  0  0  0  0
  5  4  2  0  0  0  0
  6  5  1  0  0  0  0
  7  1  1  0  0  0  0
  8  2  1  0  0  0  0
 10  9  3  0  0  0  0
 11  6  1  0  0  0  0
M  RAD  1   3   2
M  END
