Coordinates from ORCA-job Ph-N2+-scan-d09-499-n800
 OpenBabel09191814153D

 13 12  0  0  0  0  0  0  0  0999 V2000
   -3.0015    0.2358   -1.2118 C   0  0  0  0  0  0  0  0  0  0  0  0
   -1.9274   -0.3896   -0.4928 C   0  0  0  0  0  0  0  0  0  0  0  0
   -1.8115    0.3411    0.6091 C   0  0  0  0  0  0  0  0  0  0  0  0
   -2.2461    1.3786    1.3133 C   0  0  0  0  0  0  0  0  0  0  0  0
   -3.3054    1.9223    0.5107 C   0  0  0  0  0  0  0  0  0  0  0  0
   -3.6633    1.3587   -0.7143 C   0  0  0  0  0  0  0  0  0  0  0  0
   -3.2600   -0.2238   -2.1631 H   0  0  0  0  0  0  0  0  0  0  0  0
   -1.3837   -1.2620   -0.8350 H   0  0  0  0  0  0  0  0  0  0  0  0
    8.5315    0.7870   -0.0233 N   0  0  0  0  0  0  0  0  0  0  0  0
    9.6358    0.8308   -0.0468 N   0  0  0  0  0  0  0  0  0  0  0  0
   -4.4698    1.8012   -1.2894 H   0  0  0  0  0  0  0  0  0  0  0  0
   -3.8028    2.7981    0.9216 H   0  0  0  0  0  0  0  0  0  0  0  0
   -1.9295    1.7795    2.2686 H   0  0  0  0  0  0  0  0  0  0  0  0
  1  6  2  0  0  0  0
  1  2  1  0  0  0  0
  2  3  2  0  0  0  0
  3  4  1  0  0  0  0
  4 13  1  0  0  0  0
  5 12  1  0  0  0  0
  5  4  2  0  0  0  0
  6  5  1  0  0  0  0
  7  1  1  0  0  0  0
  8  2  1  0  0  0  0
 10  9  3  0  0  0  0
 11  6  1  0  0  0  0
M  RAD  1   3   2
M  END
