Coordinates from ORCA-job Ph-N2+-scan-d09-499-n800
 OpenBabel09191814153D

 13 12  0  0  0  0  0  0  0  0999 V2000
   -2.9344    0.2334   -1.2094 C   0  0  0  0  0  0  0  0  0  0  0  0
   -1.8294   -0.3603   -0.5107 C   0  0  0  0  0  0  0  0  0  0  0  0
   -1.7138    0.3742    0.5887 C   0  0  0  0  0  0  0  0  0  0  0  0
   -2.1649    1.3991    1.3010 C   0  0  0  0  0  0  0  0  0  0  0  0
   -3.2544    1.9114    0.5185 C   0  0  0  0  0  0  0  0  0  0  0  0
   -3.6189    1.3370   -0.6995 C   0  0  0  0  0  0  0  0  0  0  0  0
   -3.1975   -0.2340   -2.1556 H   0  0  0  0  0  0  0  0  0  0  0  0
   -1.2672   -1.2169   -0.8630 H   0  0  0  0  0  0  0  0  0  0  0  0
    8.1512    0.7615   -0.0183 N   0  0  0  0  0  0  0  0  0  0  0  0
    9.2553    0.8141   -0.0340 N   0  0  0  0  0  0  0  0  0  0  0  0
   -4.4486    1.7556   -1.2592 H   0  0  0  0  0  0  0  0  0  0  0  0
   -3.7691    2.7728    0.9386 H   0  0  0  0  0  0  0  0  0  0  0  0
   -1.8420    1.8097    2.2499 H   0  0  0  0  0  0  0  0  0  0  0  0
  1  6  2  0  0  0  0
  1  2  1  0  0  0  0
  2  3  2  0  0  0  0
  3  4  1  0  0  0  0
  4 13  1  0  0  0  0
  5 12  1  0  0  0  0
  5  4  2  0  0  0  0
  6  5  1  0  0  0  0
  7  1  1  0  0  0  0
  8  2  1  0  0  0  0
 10  9  3  0  0  0  0
 11  6  1  0  0  0  0
M  RAD  1   3   2
M  END
