Coordinates from ORCA-job Ph-N2+-scan-d09-499-n800
 OpenBabel09191814153D

 13 13  0  0  0  0  0  0  0  0999 V2000
   -1.9131    0.0898   -1.0827 C   0  0  0  0  0  0  0  0  0  0  0  0
   -0.5376    0.0154   -0.9699 C   0  0  0  0  0  0  0  0  0  0  0  0
    0.1075    0.8263    0.0124 C   0  0  0  0  0  0  0  0  0  0  0  0
   -0.6358    1.6974    0.8652 C   0  0  0  0  0  0  0  0  0  0  0  0
   -2.0097    1.7432    0.7211 C   0  0  0  0  0  0  0  0  0  0  0  0
   -2.6456    0.9466   -0.2451 C   0  0  0  0  0  0  0  0  0  0  0  0
   -2.4228   -0.5177   -1.8232 H   0  0  0  0  0  0  0  0  0  0  0  0
    0.0567   -0.6361   -1.6026 H   0  0  0  0  0  0  0  0  0  0  0  0
    1.3415    0.7734    0.1269 N   0  0  0  0  0  0  0  0  0  0  0  0
    2.4589    0.7255    0.2304 N   0  0  0  0  0  0  0  0  0  0  0  0
   -3.7261    0.9946   -0.3469 H   0  0  0  0  0  0  0  0  0  0  0  0
   -2.5930    2.3987    1.3592 H   0  0  0  0  0  0  0  0  0  0  0  0
   -0.1146    2.3005    1.6019 H   0  0  0  0  0  0  0  0  0  0  0  0
  1  2  2  0  0  0  0
  1  6  1  0  0  0  0
  2  3  1  0  0  0  0
  3  9  1  0  0  0  0
  3  4  2  0  0  0  0
  4 13  1  0  0  0  0
  5  4  1  0  0  0  0
  5 12  1  0  0  0  0
  6  5  2  0  0  0  0
  7  1  1  0  0  0  0
  8  2  1  0  0  0  0
  9 10  1  0  0  0  0
 11  6  1  0  0  0  0
M  RAD  2   9   2  10   3
M  END
