Coordinates from ORCA-job Ph-N2+-scan-d09-499-n800
 OpenBabel09191814153D

 13 12  0  0  0  0  0  0  0  0999 V2000
   -3.3228    0.2378   -1.2194 C   0  0  0  0  0  0  0  0  0  0  0  0
   -2.4366   -0.5559   -0.4152 C   0  0  0  0  0  0  0  0  0  0  0  0
   -2.2806    0.1600    0.6913 C   0  0  0  0  0  0  0  0  0  0  0  0
   -2.5782    1.2692    1.3564 C   0  0  0  0  0  0  0  0  0  0  0  0
   -3.4576    1.9788    0.4705 C   0  0  0  0  0  0  0  0  0  0  0  0
   -3.8120    1.4678   -0.7785 C   0  0  0  0  0  0  0  0  0  0  0  0
   -3.5824   -0.1837   -2.1879 H   0  0  0  0  0  0  0  0  0  0  0  0
   -2.0294   -1.5149   -0.7120 H   0  0  0  0  0  0  0  0  0  0  0  0
   10.1683    0.9323   -0.0436 N   0  0  0  0  0  0  0  0  0  0  0  0
   11.2727    0.9724   -0.0695 N   0  0  0  0  0  0  0  0  0  0  0  0
   -4.4786    2.0370   -1.4181 H   0  0  0  0  0  0  0  0  0  0  0  0
   -3.8238    2.9344    0.8389 H   0  0  0  0  0  0  0  0  0  0  0  0
   -2.2726    1.6226    2.3338 H   0  0  0  0  0  0  0  0  0  0  0  0
  1  6  2  0  0  0  0
  1  2  1  0  0  0  0
  2  3  2  0  0  0  0
  3  4  1  0  0  0  0
  4 13  1  0  0  0  0
  5 12  1  0  0  0  0
  5  4  2  0  0  0  0
  6  5  1  0  0  0  0
  7  1  1  0  0  0  0
  8  2  1  0  0  0  0
 10  9  3  0  0  0  0
 11  6  1  0  0  0  0
M  RAD  1   3   2
M  END
