Coordinates from ORCA-job Ph-N2+-scan-d09-499-n800
 OpenBabel09191814153D

 13 12  0  0  0  0  0  0  0  0999 V2000
   -3.2295    0.2961   -1.2146 C   0  0  0  0  0  0  0  0  0  0  0  0
   -2.9941   -0.6988   -0.2064 C   0  0  0  0  0  0  0  0  0  0  0  0
   -3.1879   -0.0491    0.9346 C   0  0  0  0  0  0  0  0  0  0  0  0
   -3.5002    1.0944    1.5313 C   0  0  0  0  0  0  0  0  0  0  0  0
   -3.7120    2.0066    0.4426 C   0  0  0  0  0  0  0  0  0  0  0  0
   -3.5778    1.6070   -0.8875 C   0  0  0  0  0  0  0  0  0  0  0  0
   -3.1172   -0.0426   -2.2425 H   0  0  0  0  0  0  0  0  0  0  0  0
   -2.7204   -1.7273   -0.4090 H   0  0  0  0  0  0  0  0  0  0  0  0
   11.8142    1.0683   -0.3423 N   0  0  0  0  0  0  0  0  0  0  0  0
   12.9184    1.1006   -0.3840 N   0  0  0  0  0  0  0  0  0  0  0  0
   -3.7480    2.3275   -1.6806 H   0  0  0  0  0  0  0  0  0  0  0  0
   -3.9843    3.0210    0.7261 H   0  0  0  0  0  0  0  0  0  0  0  0
   -3.5948    1.3539    2.5791 H   0  0  0  0  0  0  0  0  0  0  0  0
  1  6  2  0  0  0  0
  1  2  1  0  0  0  0
  2  3  2  0  0  0  0
  3  4  1  0  0  0  0
  4 13  1  0  0  0  0
  5 12  1  0  0  0  0
  5  4  2  0  0  0  0
  6  5  1  0  0  0  0
  7  1  1  0  0  0  0
  8  2  1  0  0  0  0
 10  9  3  0  0  0  0
 11  6  1  0  0  0  0
M  RAD  1   3   2
M  END
