Coordinates from ORCA-job Ph-N2+-scan-d09-499-n800
 OpenBabel09191814153D

 13 12  0  0  0  0  0  0  0  0999 V2000
   -3.3655    0.2488   -1.2292 C   0  0  0  0  0  0  0  0  0  0  0  0
   -2.6028   -0.6074   -0.3641 C   0  0  0  0  0  0  0  0  0  0  0  0
   -2.4864    0.0938    0.7568 C   0  0  0  0  0  0  0  0  0  0  0  0
   -2.7542    1.2206    1.4049 C   0  0  0  0  0  0  0  0  0  0  0  0
   -3.5098    1.9922    0.4577 C   0  0  0  0  0  0  0  0  0  0  0  0
   -3.8000    1.5097   -0.8189 C   0  0  0  0  0  0  0  0  0  0  0  0
   -3.5772   -0.1513   -2.2183 H   0  0  0  0  0  0  0  0  0  0  0  0
   -2.2399   -1.5913   -0.6355 H   0  0  0  0  0  0  0  0  0  0  0  0
   10.6521    0.9774   -0.0901 N   0  0  0  0  0  0  0  0  0  0  0  0
   11.7564    1.0178   -0.1195 N   0  0  0  0  0  0  0  0  0  0  0  0
   -4.3716    2.1261   -1.5049 H   0  0  0  0  0  0  0  0  0  0  0  0
   -3.8354    2.9709    0.8030 H   0  0  0  0  0  0  0  0  0  0  0  0
   -2.4995    1.5505    2.4049 H   0  0  0  0  0  0  0  0  0  0  0  0
  1  6  2  0  0  0  0
  1  2  1  0  0  0  0
  2  3  2  0  0  0  0
  3  4  1  0  0  0  0
  4 13  1  0  0  0  0
  5 12  1  0  0  0  0
  5  4  2  0  0  0  0
  6  5  1  0  0  0  0
  7  1  1  0  0  0  0
  8  2  1  0  0  0  0
 10  9  3  0  0  0  0
 11  6  1  0  0  0  0
M  RAD  1   3   2
M  END
