Coordinates from ORCA-job Ph-N2+-scan-d09-499-n800
 OpenBabel09191814153D

 13 12  0  0  0  0  0  0  0  0999 V2000
   -3.3728    0.2599   -1.2365 C   0  0  0  0  0  0  0  0  0  0  0  0
   -2.7823   -0.6620   -0.3071 C   0  0  0  0  0  0  0  0  0  0  0  0
   -2.7201    0.0228    0.8280 C   0  0  0  0  0  0  0  0  0  0  0  0
   -2.9553    1.1677    1.4569 C   0  0  0  0  0  0  0  0  0  0  0  0
   -3.5377    2.0052    0.4462 C   0  0  0  0  0  0  0  0  0  0  0  0
   -3.7348    1.5534   -0.8591 C   0  0  0  0  0  0  0  0  0  0  0  0
   -3.5155   -0.1184   -2.2465 H   0  0  0  0  0  0  0  0  0  0  0  0
   -2.4819   -1.6738   -0.5515 H   0  0  0  0  0  0  0  0  0  0  0  0
   11.0645    1.0311   -0.1538 N   0  0  0  0  0  0  0  0  0  0  0  0
   12.1687    1.0725   -0.1862 N   0  0  0  0  0  0  0  0  0  0  0  0
   -4.1756    2.2195   -1.5933 H   0  0  0  0  0  0  0  0  0  0  0  0
   -3.8111    3.0077    0.7680 H   0  0  0  0  0  0  0  0  0  0  0  0
   -2.7799    1.4720    2.4818 H   0  0  0  0  0  0  0  0  0  0  0  0
  1  6  2  0  0  0  0
  1  2  1  0  0  0  0
  2  3  2  0  0  0  0
  3  4  1  0  0  0  0
  4 13  1  0  0  0  0
  5 12  1  0  0  0  0
  5  4  2  0  0  0  0
  6  5  1  0  0  0  0
  7  1  1  0  0  0  0
  8  2  1  0  0  0  0
 10  9  3  0  0  0  0
 11  6  1  0  0  0  0
M  RAD  1   3   2
M  END
