Coordinates from ORCA-job Ph-N2+-scan-d09-499-n800
 OpenBabel09191814153D

 13 12  0  0  0  0  0  0  0  0999 V2000
   -3.1604    0.2369   -1.2155 C   0  0  0  0  0  0  0  0  0  0  0  0
   -2.1692   -0.4713   -0.4553 C   0  0  0  0  0  0  0  0  0  0  0  0
   -2.0345    0.2528    0.6487 C   0  0  0  0  0  0  0  0  0  0  0  0
   -2.4076    1.3262    1.3340 C   0  0  0  0  0  0  0  0  0  0  0  0
   -3.3877    1.9516    0.4911 C   0  0  0  0  0  0  0  0  0  0  0  0
   -3.7452    1.4131   -0.7453 C   0  0  0  0  0  0  0  0  0  0  0  0
   -3.4202   -0.2044   -2.1751 H   0  0  0  0  0  0  0  0  0  0  0  0
   -1.6865   -1.3868   -0.7757 H   0  0  0  0  0  0  0  0  0  0  0  0
    9.3424    0.8558   -0.0313 N   0  0  0  0  0  0  0  0  0  0  0  0
   10.4468    0.8947   -0.0587 N   0  0  0  0  0  0  0  0  0  0  0  0
   -4.4901    1.9179   -1.3515 H   0  0  0  0  0  0  0  0  0  0  0  0
   -3.8263    2.8671    0.8814 H   0  0  0  0  0  0  0  0  0  0  0  0
   -2.0952    1.7042    2.2999 H   0  0  0  0  0  0  0  0  0  0  0  0
  1  6  2  0  0  0  0
  1  2  1  0  0  0  0
  2  3  2  0  0  0  0
  3  4  1  0  0  0  0
  4 13  1  0  0  0  0
  5 12  1  0  0  0  0
  5  4  2  0  0  0  0
  6  5  1  0  0  0  0
  7  1  1  0  0  0  0
  8  2  1  0  0  0  0
 10  9  3  0  0  0  0
 11  6  1  0  0  0  0
M  RAD  1   3   2
M  END
