Coordinates from ORCA-job Ph-N2+-scan-d09-499-n800
 OpenBabel09191814153D

 13 13  0  0  0  0  0  0  0  0999 V2000
   -1.9865    0.0964   -1.0858 C   0  0  0  0  0  0  0  0  0  0  0  0
   -0.5838    0.0071   -0.9843 C   0  0  0  0  0  0  0  0  0  0  0  0
   -0.1196    0.8353   -0.0078 C   0  0  0  0  0  0  0  0  0  0  0  0
   -0.6831    1.7088    0.8722 C   0  0  0  0  0  0  0  0  0  0  0  0
   -2.0827    1.7429    0.7104 C   0  0  0  0  0  0  0  0  0  0  0  0
   -2.7159    0.9499   -0.2519 C   0  0  0  0  0  0  0  0  0  0  0  0
   -2.4832   -0.5170   -1.8314 H   0  0  0  0  0  0  0  0  0  0  0  0
    0.0197   -0.6388   -1.6091 H   0  0  0  0  0  0  0  0  0  0  0  0
    1.7521    0.7558    0.1648 N   0  0  0  0  0  0  0  0  0  0  0  0
    2.8507    0.7101    0.2649 N   0  0  0  0  0  0  0  0  0  0  0  0
   -3.7953    0.9985   -0.3542 H   0  0  0  0  0  0  0  0  0  0  0  0
   -2.6537    2.4037    1.3556 H   0  0  0  0  0  0  0  0  0  0  0  0
   -0.1523    2.3050    1.6033 H   0  0  0  0  0  0  0  0  0  0  0  0
  1  2  2  0  0  0  0
  1  6  1  0  0  0  0
  2  3  1  0  0  0  0
  3  9  1  0  0  0  0
  3  4  2  0  0  0  0
  4 13  1  0  0  0  0
  5  4  1  0  0  0  0
  5 12  1  0  0  0  0
  6  5  2  0  0  0  0
  7  1  1  0  0  0  0
  8  2  1  0  0  0  0
  9 10  1  0  0  0  0
 11  6  1  0  0  0  0
M  RAD  2   9   2  10   3
M  END
