Coordinates from ORCA-job Ph-N2+-scan-d09-499-n800
 OpenBabel09191814153D

 13 12  0  0  0  0  0  0  0  0999 V2000
   -2.1838    0.1087   -1.1019 C   0  0  0  0  0  0  0  0  0  0  0  0
   -0.7574   -0.0050   -0.9983 C   0  0  0  0  0  0  0  0  0  0  0  0
   -0.4338    0.8349   -0.0220 C   0  0  0  0  0  0  0  0  0  0  0  0
   -0.8596    1.7146    0.8770 C   0  0  0  0  0  0  0  0  0  0  0  0
   -2.2814    1.7502    0.6882 C   0  0  0  0  0  0  0  0  0  0  0  0
   -2.9138    0.9655   -0.2771 C   0  0  0  0  0  0  0  0  0  0  0  0
   -2.6534   -0.5125   -1.8616 H   0  0  0  0  0  0  0  0  0  0  0  0
   -0.1435   -0.6519   -1.6131 H   0  0  0  0  0  0  0  0  0  0  0  0
    2.8154    0.7168    0.2529 N   0  0  0  0  0  0  0  0  0  0  0  0
    3.9167    0.6866    0.3385 N   0  0  0  0  0  0  0  0  0  0  0  0
   -3.9918    1.0232   -0.3888 H   0  0  0  0  0  0  0  0  0  0  0  0
   -2.8282    2.4250    1.3434 H   0  0  0  0  0  0  0  0  0  0  0  0
   -0.3192    2.3015    1.6097 H   0  0  0  0  0  0  0  0  0  0  0  0
  1  2  2  0  0  0  0
  1  6  1  0  0  0  0
  2  3  1  0  0  0  0
  3  4  2  0  0  0  0
  4 13  1  0  0  0  0
  5  4  1  0  0  0  0
  5 12  1  0  0  0  0
  6  5  2  0  0  0  0
  7  1  1  0  0  0  0
  8  2  1  0  0  0  0
  9 10  3  0  0  0  0
 11  6  1  0  0  0  0
M  RAD  1   3   2
M  END
