Coordinates from ORCA-job Ph-N2+-scan-d09-499-n800
 OpenBabel09191814153D

 13 12  0  0  0  0  0  0  0  0999 V2000
   -2.9233    0.3885   -1.0488 C   0  0  0  0  0  0  0  0  0  0  0  0
   -3.0164   -0.6600   -0.0725 C   0  0  0  0  0  0  0  0  0  0  0  0
   -3.6455   -0.0927    0.9492 C   0  0  0  0  0  0  0  0  0  0  0  0
   -4.2097    1.0001    1.4473 C   0  0  0  0  0  0  0  0  0  0  0  0
   -4.0626    1.9724    0.4001 C   0  0  0  0  0  0  0  0  0  0  0  0
   -3.4355    1.6641   -0.8074 C   0  0  0  0  0  0  0  0  0  0  0  0
   -2.4328    0.1202   -1.9820 H   0  0  0  0  0  0  0  0  0  0  0  0
   -2.6386   -1.6659   -0.2114 H   0  0  0  0  0  0  0  0  0  0  0  0
   12.5613    1.0172   -0.6080 N   0  0  0  0  0  0  0  0  0  0  0  0
   13.6651    1.0340   -0.6672 N   0  0  0  0  0  0  0  0  0  0  0  0
   -3.3438    2.4293   -1.5713 H   0  0  0  0  0  0  0  0  0  0  0  0
   -4.4690    2.9581    0.6158 H   0  0  0  0  0  0  0  0  0  0  0  0
   -4.6829    1.1924    2.4027 H   0  0  0  0  0  0  0  0  0  0  0  0
  1  6  2  0  0  0  0
  1  2  1  0  0  0  0
  2  3  2  0  0  0  0
  3  4  1  0  0  0  0
  4 13  1  0  0  0  0
  5 12  1  0  0  0  0
  5  4  2  0  0  0  0
  6  5  1  0  0  0  0
  7  1  1  0  0  0  0
  8  2  1  0  0  0  0
 10  9  3  0  0  0  0
 11  6  1  0  0  0  0
M  RAD  1   3   2
M  END
