Coordinates from ORCA-job Ph-N2+-scan-d09-499-n800
 OpenBabel09191814153D

 13 13  0  0  0  0  0  0  0  0999 V2000
   -1.9195    0.0901   -1.0833 C   0  0  0  0  0  0  0  0  0  0  0  0
   -0.5420    0.0153   -0.9705 C   0  0  0  0  0  0  0  0  0  0  0  0
    0.0872    0.8272    0.0106 C   0  0  0  0  0  0  0  0  0  0  0  0
   -0.6402    1.6979    0.8651 C   0  0  0  0  0  0  0  0  0  0  0  0
   -2.0161    1.7434    0.7204 C   0  0  0  0  0  0  0  0  0  0  0  0
   -2.6512    0.9469   -0.2456 C   0  0  0  0  0  0  0  0  0  0  0  0
   -2.4294   -0.5172   -1.8236 H   0  0  0  0  0  0  0  0  0  0  0  0
    0.0523   -0.6360   -1.6031 H   0  0  0  0  0  0  0  0  0  0  0  0
    1.3809    0.7717    0.1306 N   0  0  0  0  0  0  0  0  0  0  0  0
    2.4948    0.7240    0.2336 N   0  0  0  0  0  0  0  0  0  0  0  0
   -3.7317    0.9949   -0.3475 H   0  0  0  0  0  0  0  0  0  0  0  0
   -2.5996    2.3988    1.3584 H   0  0  0  0  0  0  0  0  0  0  0  0
   -0.1191    2.3007    1.6016 H   0  0  0  0  0  0  0  0  0  0  0  0
  1  2  2  0  0  0  0
  1  6  1  0  0  0  0
  2  3  1  0  0  0  0
  3  9  1  0  0  0  0
  3  4  2  0  0  0  0
  4 13  1  0  0  0  0
  5  4  1  0  0  0  0
  5 12  1  0  0  0  0
  6  5  2  0  0  0  0
  7  1  1  0  0  0  0
  8  2  1  0  0  0  0
  9 10  1  0  0  0  0
 11  6  1  0  0  0  0
M  RAD  2   9   2  10   3
M  END
