Coordinates from ORCA-job Ph-N2+-scan-d09-499-n800
 OpenBabel09191814153D

 13 12  0  0  0  0  0  0  0  0999 V2000
   -2.4862    0.1363   -1.1332 C   0  0  0  0  0  0  0  0  0  0  0  0
   -1.0745   -0.0285   -0.9289 C   0  0  0  0  0  0  0  0  0  0  0  0
   -0.7975    0.7990    0.0710 C   0  0  0  0  0  0  0  0  0  0  0  0
   -1.2506    1.6931    0.9409 C   0  0  0  0  0  0  0  0  0  0  0  0
   -2.6542    1.7788    0.6498 C   0  0  0  0  0  0  0  0  0  0  0  0
   -3.2430    1.0178   -0.3606 C   0  0  0  0  0  0  0  0  0  0  0  0
   -2.9197   -0.4682   -1.9272 H   0  0  0  0  0  0  0  0  0  0  0  0
   -0.4428   -0.6969   -1.5020 H   0  0  0  0  0  0  0  0  0  0  0  0
    4.7019    0.6437    0.2849 N   0  0  0  0  0  0  0  0  0  0  0  0
    5.8066    0.6348    0.3212 N   0  0  0  0  0  0  0  0  0  0  0  0
   -4.3073    1.1140   -0.5496 H   0  0  0  0  0  0  0  0  0  0  0  0
   -3.2206    2.4727    1.2675 H   0  0  0  0  0  0  0  0  0  0  0  0
   -0.7457    2.2612    1.7131 H   0  0  0  0  0  0  0  0  0  0  0  0
  1  2  2  0  0  0  0
  1  6  1  0  0  0  0
  2  3  1  0  0  0  0
  3  4  2  0  0  0  0
  4 13  1  0  0  0  0
  5  4  1  0  0  0  0
  5 12  1  0  0  0  0
  6  5  2  0  0  0  0
  7  1  1  0  0  0  0
  8  2  1  0  0  0  0
  9 10  3  0  0  0  0
 11  6  1  0  0  0  0
M  RAD  1   3   2
M  END
