Coordinates from ORCA-job Ph-N2+-scan-d09-499-n800
 OpenBabel09191814153D

 13 12  0  0  0  0  0  0  0  0999 V2000
   -2.1658    0.1077   -1.1001 C   0  0  0  0  0  0  0  0  0  0  0  0
   -0.7396   -0.0038   -0.9987 C   0  0  0  0  0  0  0  0  0  0  0  0
   -0.4136    0.8364   -0.0230 C   0  0  0  0  0  0  0  0  0  0  0  0
   -0.8412    1.7154    0.8764 C   0  0  0  0  0  0  0  0  0  0  0  0
   -2.2629    1.7492    0.6901 C   0  0  0  0  0  0  0  0  0  0  0  0
   -2.8958    0.9635   -0.2742 C   0  0  0  0  0  0  0  0  0  0  0  0
   -2.6363   -0.5140   -1.8588 H   0  0  0  0  0  0  0  0  0  0  0  0
   -0.1258   -0.6500   -1.6144 H   0  0  0  0  0  0  0  0  0  0  0  0
    2.7155    0.7195    0.2463 N   0  0  0  0  0  0  0  0  0  0  0  0
    3.8165    0.6881    0.3334 N   0  0  0  0  0  0  0  0  0  0  0  0
   -3.9740    1.0196   -0.3841 H   0  0  0  0  0  0  0  0  0  0  0  0
   -2.8100    2.4231    1.3458 H   0  0  0  0  0  0  0  0  0  0  0  0
   -0.3005    2.3031    1.6081 H   0  0  0  0  0  0  0  0  0  0  0  0
  1  2  2  0  0  0  0
  1  6  1  0  0  0  0
  2  3  1  0  0  0  0
  3  4  2  0  0  0  0
  4 13  1  0  0  0  0
  5  4  1  0  0  0  0
  5 12  1  0  0  0  0
  6  5  2  0  0  0  0
  7  1  1  0  0  0  0
  8  2  1  0  0  0  0
  9 10  3  0  0  0  0
 11  6  1  0  0  0  0
M  RAD  1   3   2
M  END
