Coordinates from ORCA-job Ph-N2+-scan-d09-499-n800
 OpenBabel09191814153D

 13 12  0  0  0  0  0  0  0  0999 V2000
   -3.3659    0.2493   -1.2295 C   0  0  0  0  0  0  0  0  0  0  0  0
   -2.6088   -0.6089   -0.3621 C   0  0  0  0  0  0  0  0  0  0  0  0
   -2.4923    0.0910    0.7595 C   0  0  0  0  0  0  0  0  0  0  0  0
   -2.7600    1.2187    1.4060 C   0  0  0  0  0  0  0  0  0  0  0  0
   -3.5100    1.9928    0.4572 C   0  0  0  0  0  0  0  0  0  0  0  0
   -3.7976    1.5113   -0.8205 C   0  0  0  0  0  0  0  0  0  0  0  0
   -3.5762   -0.1506   -2.2190 H   0  0  0  0  0  0  0  0  0  0  0  0
   -2.2496   -1.5945   -0.6327 H   0  0  0  0  0  0  0  0  0  0  0  0
   10.6657    0.9793   -0.0920 N   0  0  0  0  0  0  0  0  0  0  0  0
   11.7700    1.0199   -0.1215 N   0  0  0  0  0  0  0  0  0  0  0  0
   -4.3654    2.1295   -1.5080 H   0  0  0  0  0  0  0  0  0  0  0  0
   -3.8342    2.9720    0.8021 H   0  0  0  0  0  0  0  0  0  0  0  0
   -2.5093    1.5478    2.4073 H   0  0  0  0  0  0  0  0  0  0  0  0
  1  6  2  0  0  0  0
  1  2  1  0  0  0  0
  2  3  2  0  0  0  0
  3  4  1  0  0  0  0
  4 13  1  0  0  0  0
  5 12  1  0  0  0  0
  5  4  2  0  0  0  0
  6  5  1  0  0  0  0
  7  1  1  0  0  0  0
  8  2  1  0  0  0  0
 10  9  3  0  0  0  0
 11  6  1  0  0  0  0
M  RAD  1   3   2
M  END
