Coordinates from ORCA-job Ph-N2+-scan-d09-499-n800
 OpenBabel09191814153D

 13 12  0  0  0  0  0  0  0  0999 V2000
   -3.0778    0.2372   -1.2140 C   0  0  0  0  0  0  0  0  0  0  0  0
   -2.0422   -0.4270   -0.4736 C   0  0  0  0  0  0  0  0  0  0  0  0
   -1.9208    0.3001    0.6300 C   0  0  0  0  0  0  0  0  0  0  0  0
   -2.3302    1.3539    1.3251 C   0  0  0  0  0  0  0  0  0  0  0  0
   -3.3524    1.9359    0.5015 C   0  0  0  0  0  0  0  0  0  0  0  0
   -3.7069    1.3846   -0.7301 C   0  0  0  0  0  0  0  0  0  0  0  0
   -3.3344   -0.2134   -2.1701 H   0  0  0  0  0  0  0  0  0  0  0  0
   -1.5245   -1.3193   -0.8049 H   0  0  0  0  0  0  0  0  0  0  0  0
    8.9394    0.8186   -0.0283 N   0  0  0  0  0  0  0  0  0  0  0  0
   10.0438    0.8573   -0.0560 N   0  0  0  0  0  0  0  0  0  0  0  0
   -4.4847    1.8562   -1.3213 H   0  0  0  0  0  0  0  0  0  0  0  0
   -3.8249    2.8300    0.9021 H   0  0  0  0  0  0  0  0  0  0  0  0
   -2.0180    1.7437    2.2864 H   0  0  0  0  0  0  0  0  0  0  0  0
  1  6  2  0  0  0  0
  1  2  1  0  0  0  0
  2  3  2  0  0  0  0
  3  4  1  0  0  0  0
  4 13  1  0  0  0  0
  5 12  1  0  0  0  0
  5  4  2  0  0  0  0
  6  5  1  0  0  0  0
  7  1  1  0  0  0  0
  8  2  1  0  0  0  0
 10  9  3  0  0  0  0
 11  6  1  0  0  0  0
M  RAD  1   3   2
M  END
