Coordinates from ORCA-job Ph-N2+-scan-d09-499-n800
 OpenBabel09191814153D

 13 12  0  0  0  0  0  0  0  0999 V2000
   -2.3542    0.1224   -1.1192 C   0  0  0  0  0  0  0  0  0  0  0  0
   -0.9330   -0.0172   -0.9702 C   0  0  0  0  0  0  0  0  0  0  0  0
   -0.6312    0.8169    0.0170 C   0  0  0  0  0  0  0  0  0  0  0  0
   -1.0657    1.7038    0.9035 C   0  0  0  0  0  0  0  0  0  0  0  0
   -2.4808    1.7644    0.6680 C   0  0  0  0  0  0  0  0  0  0  0  0
   -3.0954    0.9916   -0.3180 C   0  0  0  0  0  0  0  0  0  0  0  0
   -2.8081   -0.4907   -1.8950 H   0  0  0  0  0  0  0  0  0  0  0  0
   -0.3120   -0.6750   -1.5667 H   0  0  0  0  0  0  0  0  0  0  0  0
    3.8430    0.6790    0.2865 N   0  0  0  0  0  0  0  0  0  0  0  0
    4.9467    0.6633    0.3442 N   0  0  0  0  0  0  0  0  0  0  0  0
   -4.1679    1.0686   -0.4648 H   0  0  0  0  0  0  0  0  0  0  0  0
   -3.0349    2.4490    1.3067 H   0  0  0  0  0  0  0  0  0  0  0  0
   -0.5402    2.2817    1.6546 H   0  0  0  0  0  0  0  0  0  0  0  0
  1  2  2  0  0  0  0
  1  6  1  0  0  0  0
  2  3  1  0  0  0  0
  3  4  2  0  0  0  0
  4 13  1  0  0  0  0
  5  4  1  0  0  0  0
  5 12  1  0  0  0  0
  6  5  2  0  0  0  0
  7  1  1  0  0  0  0
  8  2  1  0  0  0  0
  9 10  3  0  0  0  0
 11  6  1  0  0  0  0
M  RAD  1   3   2
M  END
