Coordinates from ORCA-job Ph-N2+-scan-d09-499-n800
 OpenBabel09191814153D

 13 12  0  0  0  0  0  0  0  0999 V2000
   -2.6857    0.1898   -1.1800 C   0  0  0  0  0  0  0  0  0  0  0  0
   -1.3704   -0.1617   -0.7241 C   0  0  0  0  0  0  0  0  0  0  0  0
   -1.1777    0.6198    0.3310 C   0  0  0  0  0  0  0  0  0  0  0  0
   -1.6645    1.5639    1.1265 C   0  0  0  0  0  0  0  0  0  0  0  0
   -2.9663    1.8356    0.5855 C   0  0  0  0  0  0  0  0  0  0  0  0
   -3.4516    1.1619   -0.5359 C   0  0  0  0  0  0  0  0  0  0  0  0
   -3.0388   -0.3502   -2.0559 H   0  0  0  0  0  0  0  0  0  0  0  0
   -0.7367   -0.9079   -1.1888 H   0  0  0  0  0  0  0  0  0  0  0  0
    6.2884    0.6663    0.1624 N   0  0  0  0  0  0  0  0  0  0  0  0
    7.3935    0.6843    0.1403 N   0  0  0  0  0  0  0  0  0  0  0  0
   -4.4406    1.3983   -0.9132 H   0  0  0  0  0  0  0  0  0  0  0  0
   -3.5414    2.5981    1.1066 H   0  0  0  0  0  0  0  0  0  0  0  0
   -1.2419    2.0595    1.9924 H   0  0  0  0  0  0  0  0  0  0  0  0
  1  2  2  0  0  0  0
  1  6  1  0  0  0  0
  2  3  1  0  0  0  0
  3  4  2  0  0  0  0
  4 13  1  0  0  0  0
  5 12  1  0  0  0  0
  5  4  1  0  0  0  0
  6  5  2  0  0  0  0
  7  1  1  0  0  0  0
  8  2  1  0  0  0  0
 10  9  3  0  0  0  0
 11  6  1  0  0  0  0
M  RAD  1   3   2
M  END
