Coordinates from ORCA-job Ph-N2+-scan-d09-499-n800
 OpenBabel09191814153D

 13 12  0  0  0  0  0  0  0  0999 V2000
   -2.7418    0.2229   -1.2004 C   0  0  0  0  0  0  0  0  0  0  0  0
   -1.5442   -0.2640   -0.5756 C   0  0  0  0  0  0  0  0  0  0  0  0
   -1.4242    0.4847    0.5136 C   0  0  0  0  0  0  0  0  0  0  0  0
   -1.9193    1.4684    1.2542 C   0  0  0  0  0  0  0  0  0  0  0  0
   -3.0996    1.8750    0.5450 C   0  0  0  0  0  0  0  0  0  0  0  0
   -3.4891    1.2628   -0.6466 C   0  0  0  0  0  0  0  0  0  0  0  0
   -3.0224   -0.2721   -2.1275 H   0  0  0  0  0  0  0  0  0  0  0  0
   -0.9303   -1.0680   -0.9640 H   0  0  0  0  0  0  0  0  0  0  0  0
    7.0284    0.7012    0.0253 N   0  0  0  0  0  0  0  0  0  0  0  0
    8.1326    0.7447   -0.0043 N   0  0  0  0  0  0  0  0  0  0  0  0
   -4.3880    1.6012   -1.1507 H   0  0  0  0  0  0  0  0  0  0  0  0
   -3.6621    2.6887    0.9979 H   0  0  0  0  0  0  0  0  0  0  0  0
   -1.5736    1.9123    2.1799 H   0  0  0  0  0  0  0  0  0  0  0  0
  1  6  2  0  0  0  0
  1  2  1  0  0  0  0
  2  3  2  0  0  0  0
  3  4  1  0  0  0  0
  4 13  1  0  0  0  0
  5 12  1  0  0  0  0
  5  4  2  0  0  0  0
  6  5  1  0  0  0  0
  7  1  1  0  0  0  0
  8  2  1  0  0  0  0
 10  9  3  0  0  0  0
 11  6  1  0  0  0  0
M  RAD  1   3   2
M  END
