Coordinates from ORCA-job Ph-N2+-scan-d09-499-n800
 OpenBabel09191814153D

 13 12  0  0  0  0  0  0  0  0999 V2000
   -2.4600    0.1335   -1.1303 C   0  0  0  0  0  0  0  0  0  0  0  0
   -1.0460   -0.0252   -0.9372 C   0  0  0  0  0  0  0  0  0  0  0  0
   -0.7647    0.8039    0.0601 C   0  0  0  0  0  0  0  0  0  0  0  0
   -1.2147    1.6963    0.9334 C   0  0  0  0  0  0  0  0  0  0  0  0
   -2.6209    1.7758    0.6535 C   0  0  0  0  0  0  0  0  0  0  0  0
   -3.2145    1.0119   -0.3520 C   0  0  0  0  0  0  0  0  0  0  0  0
   -2.8972   -0.4732   -1.9207 H   0  0  0  0  0  0  0  0  0  0  0  0
   -0.4160   -0.6910   -1.5151 H   0  0  0  0  0  0  0  0  0  0  0  0
    4.5338    0.6491    0.2853 N   0  0  0  0  0  0  0  0  0  0  0  0
    5.6384    0.6388    0.3253 N   0  0  0  0  0  0  0  0  0  0  0  0
   -4.2806    1.1034   -0.5324 H   0  0  0  0  0  0  0  0  0  0  0  0
   -3.1854    2.4675    1.2754 H   0  0  0  0  0  0  0  0  0  0  0  0
   -0.7060    2.2668    1.7014 H   0  0  0  0  0  0  0  0  0  0  0  0
  1  2  2  0  0  0  0
  1  6  1  0  0  0  0
  2  3  1  0  0  0  0
  3  4  2  0  0  0  0
  4 13  1  0  0  0  0
  5  4  1  0  0  0  0
  5 12  1  0  0  0  0
  6  5  2  0  0  0  0
  7  1  1  0  0  0  0
  8  2  1  0  0  0  0
  9 10  3  0  0  0  0
 11  6  1  0  0  0  0
M  RAD  1   3   2
M  END
