Coordinates from ORCA-job Ph-N2+-scan-d09-499-n800
 OpenBabel09191814153D

 13 12  0  0  0  0  0  0  0  0999 V2000
   -3.1637    0.2369   -1.2155 C   0  0  0  0  0  0  0  0  0  0  0  0
   -2.1743   -0.4731   -0.4547 C   0  0  0  0  0  0  0  0  0  0  0  0
   -2.0389    0.2509    0.6493 C   0  0  0  0  0  0  0  0  0  0  0  0
   -2.4105    1.3251    1.3343 C   0  0  0  0  0  0  0  0  0  0  0  0
   -3.3889    1.9522    0.4907 C   0  0  0  0  0  0  0  0  0  0  0  0
   -3.7465    1.4142   -0.7459 C   0  0  0  0  0  0  0  0  0  0  0  0
   -3.4237   -0.2041   -2.1752 H   0  0  0  0  0  0  0  0  0  0  0  0
   -1.6931   -1.3895   -0.7745 H   0  0  0  0  0  0  0  0  0  0  0  0
    9.3578    0.8573   -0.0314 N   0  0  0  0  0  0  0  0  0  0  0  0
   10.4622    0.8962   -0.0587 N   0  0  0  0  0  0  0  0  0  0  0  0
   -4.4902    1.9203   -1.3526 H   0  0  0  0  0  0  0  0  0  0  0  0
   -3.8260    2.8686    0.8806 H   0  0  0  0  0  0  0  0  0  0  0  0
   -2.0980    1.7026    2.3004 H   0  0  0  0  0  0  0  0  0  0  0  0
  1  6  2  0  0  0  0
  1  2  1  0  0  0  0
  2  3  2  0  0  0  0
  3  4  1  0  0  0  0
  4 13  1  0  0  0  0
  5 12  1  0  0  0  0
  5  4  2  0  0  0  0
  6  5  1  0  0  0  0
  7  1  1  0  0  0  0
  8  2  1  0  0  0  0
 10  9  3  0  0  0  0
 11  6  1  0  0  0  0
M  RAD  1   3   2
M  END
