Coordinates from ORCA-job Ph-N2+-scan-d09-499-n800
 OpenBabel09191814153D

 13 12  0  0  0  0  0  0  0  0999 V2000
   -3.3701    0.2628   -1.2374 C   0  0  0  0  0  0  0  0  0  0  0  0
   -2.8210   -0.6714   -0.2950 C   0  0  0  0  0  0  0  0  0  0  0  0
   -2.7747    0.0110    0.8422 C   0  0  0  0  0  0  0  0  0  0  0  0
   -3.0090    1.1573    1.4684 C   0  0  0  0  0  0  0  0  0  0  0  0
   -3.5493    2.0073    0.4447 C   0  0  0  0  0  0  0  0  0  0  0  0
   -3.7195    1.5616   -0.8665 C   0  0  0  0  0  0  0  0  0  0  0  0
   -3.4930   -0.1114   -2.2515 H   0  0  0  0  0  0  0  0  0  0  0  0
   -2.5332   -1.6883   -0.5335 H   0  0  0  0  0  0  0  0  0  0  0  0
   11.1670    1.0412   -0.1710 N   0  0  0  0  0  0  0  0  0  0  0  0
   12.2712    1.0823   -0.2040 N   0  0  0  0  0  0  0  0  0  0  0  0
   -4.1300    2.2365   -1.6102 H   0  0  0  0  0  0  0  0  0  0  0  0
   -3.8146    3.0134    0.7619 H   0  0  0  0  0  0  0  0  0  0  0  0
   -2.8574    1.4555    2.4989 H   0  0  0  0  0  0  0  0  0  0  0  0
  1  6  2  0  0  0  0
  1  2  1  0  0  0  0
  2  3  2  0  0  0  0
  3  4  1  0  0  0  0
  4 13  1  0  0  0  0
  5 12  1  0  0  0  0
  5  4  2  0  0  0  0
  6  5  1  0  0  0  0
  7  1  1  0  0  0  0
  8  2  1  0  0  0  0
 10  9  3  0  0  0  0
 11  6  1  0  0  0  0
M  RAD  1   3   2
M  END
