Coordinates from ORCA-job Ph-N2+-scan-d09-499-n800
 OpenBabel09191814153D

 13 12  0  0  0  0  0  0  0  0999 V2000
   -2.8086    0.2273   -1.2041 C   0  0  0  0  0  0  0  0  0  0  0  0
   -1.6471   -0.3042   -0.5483 C   0  0  0  0  0  0  0  0  0  0  0  0
   -1.5288    0.4384    0.5452 C   0  0  0  0  0  0  0  0  0  0  0  0
   -2.0066    1.4394    1.2739 C   0  0  0  0  0  0  0  0  0  0  0  0
   -3.1516    1.8902    0.5340 C   0  0  0  0  0  0  0  0  0  0  0  0
   -3.5314    1.2938   -0.6687 C   0  0  0  0  0  0  0  0  0  0  0  0
   -3.0824   -0.2562   -2.1392 H   0  0  0  0  0  0  0  0  0  0  0  0
   -1.0534   -1.1303   -0.9216 H   0  0  0  0  0  0  0  0  0  0  0  0
    7.4204    0.7222    0.0030 N   0  0  0  0  0  0  0  0  0  0  0  0
    8.5243    0.7780   -0.0138 N   0  0  0  0  0  0  0  0  0  0  0  0
   -4.4033    1.6657   -1.1961 H   0  0  0  0  0  0  0  0  0  0  0  0
   -3.6954    2.7238    0.9731 H   0  0  0  0  0  0  0  0  0  0  0  0
   -1.6698    1.8694    2.2094 H   0  0  0  0  0  0  0  0  0  0  0  0
  1  6  2  0  0  0  0
  1  2  1  0  0  0  0
  2  3  2  0  0  0  0
  3  4  1  0  0  0  0
  4 13  1  0  0  0  0
  5 12  1  0  0  0  0
  5  4  2  0  0  0  0
  6  5  1  0  0  0  0
  7  1  1  0  0  0  0
  8  2  1  0  0  0  0
 10  9  3  0  0  0  0
 11  6  1  0  0  0  0
M  RAD  1   3   2
M  END
