Coordinates from ORCA-job Ph-N2+-scan-d09-499-n800
 OpenBabel09191814153D

 13 12  0  0  0  0  0  0  0  0999 V2000
   -3.2698    0.2880   -1.2243 C   0  0  0  0  0  0  0  0  0  0  0  0
   -2.9805   -0.6988   -0.2221 C   0  0  0  0  0  0  0  0  0  0  0  0
   -3.1209   -0.0422    0.9226 C   0  0  0  0  0  0  0  0  0  0  0  0
   -3.4067    1.1046    1.5262 C   0  0  0  0  0  0  0  0  0  0  0  0
   -3.6760    2.0082    0.4433 C   0  0  0  0  0  0  0  0  0  0  0  0
   -3.6064    1.5999   -0.8892 C   0  0  0  0  0  0  0  0  0  0  0  0
   -3.2075   -0.0575   -2.2541 H   0  0  0  0  0  0  0  0  0  0  0  0
   -2.7128   -1.7277   -0.4310 H   0  0  0  0  0  0  0  0  0  0  0  0
   11.7243    1.0697   -0.3080 N   0  0  0  0  0  0  0  0  0  0  0  0
   12.8285    1.1041   -0.3476 N   0  0  0  0  0  0  0  0  0  0  0  0
   -3.8181    2.3144   -1.6777 H   0  0  0  0  0  0  0  0  0  0  0  0
   -3.9380    3.0235    0.7331 H   0  0  0  0  0  0  0  0  0  0  0  0
   -3.4496    1.3715    2.5756 H   0  0  0  0  0  0  0  0  0  0  0  0
  1  6  2  0  0  0  0
  1  2  1  0  0  0  0
  2  3  2  0  0  0  0
  3  4  1  0  0  0  0
  4 13  1  0  0  0  0
  5 12  1  0  0  0  0
  5  4  2  0  0  0  0
  6  5  1  0  0  0  0
  7  1  1  0  0  0  0
  8  2  1  0  0  0  0
 10  9  3  0  0  0  0
 11  6  1  0  0  0  0
M  RAD  1   3   2
M  END
