Coordinates from ORCA-job Ph-N2+-scan-d09-499-n800
 OpenBabel09191814153D

 13 12  0  0  0  0  0  0  0  0999 V2000
   -2.5952    0.1497   -1.1469 C   0  0  0  0  0  0  0  0  0  0  0  0
   -1.1978   -0.0563   -0.8886 C   0  0  0  0  0  0  0  0  0  0  0  0
   -0.9360    0.7615    0.1233 C   0  0  0  0  0  0  0  0  0  0  0  0
   -1.3967    1.6672    0.9772 C   0  0  0  0  0  0  0  0  0  0  0  0
   -2.7848    1.7936    0.6324 C   0  0  0  0  0  0  0  0  0  0  0  0
   -3.3557    1.0516   -0.4020 C   0  0  0  0  0  0  0  0  0  0  0  0
   -3.0147   -0.4409   -1.9587 H   0  0  0  0  0  0  0  0  0  0  0  0
   -0.5643   -0.7420   -1.4387 H   0  0  0  0  0  0  0  0  0  0  0  0
    5.3876    0.6368    0.2799 N   0  0  0  0  0  0  0  0  0  0  0  0
    6.4928    0.6352    0.3014 N   0  0  0  0  0  0  0  0  0  0  0  0
   -4.4085    1.1787   -0.6318 H   0  0  0  0  0  0  0  0  0  0  0  0
   -3.3543    2.5029    1.2295 H   0  0  0  0  0  0  0  0  0  0  0  0
   -0.9060    2.2197    1.7697 H   0  0  0  0  0  0  0  0  0  0  0  0
  1  2  2  0  0  0  0
  1  6  1  0  0  0  0
  2  3  1  0  0  0  0
  3  4  2  0  0  0  0
  4 13  1  0  0  0  0
  5  4  1  0  0  0  0
  5 12  1  0  0  0  0
  6  5  2  0  0  0  0
  7  1  1  0  0  0  0
  8  2  1  0  0  0  0
  9 10  3  0  0  0  0
 11  6  1  0  0  0  0
M  RAD  1   3   2
M  END
