Coordinates from ORCA-job Ph-N2+-scan-d09-499-n800
 OpenBabel09191814153D

 13 12  0  0  0  0  0  0  0  0999 V2000
   -2.2046    0.1100   -1.1040 C   0  0  0  0  0  0  0  0  0  0  0  0
   -0.7784   -0.0065   -0.9975 C   0  0  0  0  0  0  0  0  0  0  0  0
   -0.4569    0.8328   -0.0205 C   0  0  0  0  0  0  0  0  0  0  0  0
   -0.8814    1.7133    0.8780 C   0  0  0  0  0  0  0  0  0  0  0  0
   -2.3030    1.7515    0.6860 C   0  0  0  0  0  0  0  0  0  0  0  0
   -2.9349    0.9681   -0.2807 C   0  0  0  0  0  0  0  0  0  0  0  0
   -2.6734   -0.5104   -1.8649 H   0  0  0  0  0  0  0  0  0  0  0  0
   -0.1643   -0.6545   -1.6112 H   0  0  0  0  0  0  0  0  0  0  0  0
    2.9326    0.7137    0.2604 N   0  0  0  0  0  0  0  0  0  0  0  0
    4.0341    0.6855    0.3437 N   0  0  0  0  0  0  0  0  0  0  0  0
   -4.0125    1.0278   -0.3947 H   0  0  0  0  0  0  0  0  0  0  0  0
   -2.8495    2.4274    1.3403 H   0  0  0  0  0  0  0  0  0  0  0  0
   -0.3414    2.2992    1.6119 H   0  0  0  0  0  0  0  0  0  0  0  0
  1  2  2  0  0  0  0
  1  6  1  0  0  0  0
  2  3  1  0  0  0  0
  3  4  2  0  0  0  0
  4 13  1  0  0  0  0
  5  4  1  0  0  0  0
  5 12  1  0  0  0  0
  6  5  2  0  0  0  0
  7  1  1  0  0  0  0
  8  2  1  0  0  0  0
  9 10  3  0  0  0  0
 11  6  1  0  0  0  0
M  RAD  1   3   2
M  END
