Coordinates from ORCA-job Ph-N2+-scan-d09-499-n800
 OpenBabel09191814153D

 13 12  0  0  0  0  0  0  0  0999 V2000
   -3.3709    0.2544   -1.2333 C   0  0  0  0  0  0  0  0  0  0  0  0
   -2.6891   -0.6359   -0.3360 C   0  0  0  0  0  0  0  0  0  0  0  0
   -2.5912    0.0589    0.7905 C   0  0  0  0  0  0  0  0  0  0  0  0
   -2.8438    1.1939    1.4298 C   0  0  0  0  0  0  0  0  0  0  0  0
   -3.5183    1.9998    0.4510 C   0  0  0  0  0  0  0  0  0  0  0  0
   -3.7683    1.5326   -0.8398 C   0  0  0  0  0  0  0  0  0  0  0  0
   -3.5535   -0.1355   -2.2323 H   0  0  0  0  0  0  0  0  0  0  0  0
   -2.3602   -1.6355   -0.5932 H   0  0  0  0  0  0  0  0  0  0  0  0
   10.8406    1.0045   -0.1187 N   0  0  0  0  0  0  0  0  0  0  0  0
   11.9449    1.0458   -0.1496 N   0  0  0  0  0  0  0  0  0  0  0  0
   -4.2798    2.1743   -1.5495 H   0  0  0  0  0  0  0  0  0  0  0  0
   -3.8179    2.9907    0.7848 H   0  0  0  0  0  0  0  0  0  0  0  0
   -2.6263    1.5098    2.4431 H   0  0  0  0  0  0  0  0  0  0  0  0
  1  6  2  0  0  0  0
  1  2  1  0  0  0  0
  2  3  2  0  0  0  0
  3  4  1  0  0  0  0
  4 13  1  0  0  0  0
  5 12  1  0  0  0  0
  5  4  2  0  0  0  0
  6  5  1  0  0  0  0
  7  1  1  0  0  0  0
  8  2  1  0  0  0  0
 10  9  3  0  0  0  0
 11  6  1  0  0  0  0
M  RAD  1   3   2
M  END
