Coordinates from ORCA-job Ph-N2+-scan-d09-499-n800
 OpenBabel09191814153D

 13 12  0  0  0  0  0  0  0  0999 V2000
   -2.9262    0.2331   -1.2091 C   0  0  0  0  0  0  0  0  0  0  0  0
   -1.8174   -0.3568   -0.5130 C   0  0  0  0  0  0  0  0  0  0  0  0
   -1.7017    0.3781    0.5860 C   0  0  0  0  0  0  0  0  0  0  0  0
   -2.1546    1.4016    1.2993 C   0  0  0  0  0  0  0  0  0  0  0  0
   -3.2477    1.9101    0.5194 C   0  0  0  0  0  0  0  0  0  0  0  0
   -3.6132    1.3344   -0.6976 C   0  0  0  0  0  0  0  0  0  0  0  0
   -3.1900   -0.2354   -2.1546 H   0  0  0  0  0  0  0  0  0  0  0  0
   -1.2532   -1.2115   -0.8666 H   0  0  0  0  0  0  0  0  0  0  0  0
    8.1035    0.7586   -0.0176 N   0  0  0  0  0  0  0  0  0  0  0  0
    9.2076    0.8122   -0.0323 N   0  0  0  0  0  0  0  0  0  0  0  0
   -4.4456    1.7501   -1.2554 H   0  0  0  0  0  0  0  0  0  0  0  0
   -3.7643    2.7698    0.9407 H   0  0  0  0  0  0  0  0  0  0  0  0
   -1.8308    1.8134    2.2475 H   0  0  0  0  0  0  0  0  0  0  0  0
  1  6  2  0  0  0  0
  1  2  1  0  0  0  0
  2  3  2  0  0  0  0
  3  4  1  0  0  0  0
  4 13  1  0  0  0  0
  5 12  1  0  0  0  0
  5  4  2  0  0  0  0
  6  5  1  0  0  0  0
  7  1  1  0  0  0  0
  8  2  1  0  0  0  0
 10  9  3  0  0  0  0
 11  6  1  0  0  0  0
M  RAD  1   3   2
M  END
