Coordinates from ORCA-job Ph-N2+-scan-d09-499-n800
 OpenBabel09191814153D

 13 13  0  0  0  0  0  0  0  0999 V2000
   -1.9282    0.0907   -1.0839 C   0  0  0  0  0  0  0  0  0  0  0  0
   -0.5478    0.0148   -0.9718 C   0  0  0  0  0  0  0  0  0  0  0  0
    0.0597    0.8283    0.0081 C   0  0  0  0  0  0  0  0  0  0  0  0
   -0.6462    1.6988    0.8654 C   0  0  0  0  0  0  0  0  0  0  0  0
   -2.0248    1.7436    0.7194 C   0  0  0  0  0  0  0  0  0  0  0  0
   -2.6591    0.9472   -0.2464 C   0  0  0  0  0  0  0  0  0  0  0  0
   -2.4382   -0.5166   -1.8242 H   0  0  0  0  0  0  0  0  0  0  0  0
    0.0470   -0.6360   -1.6036 H   0  0  0  0  0  0  0  0  0  0  0  0
    1.4332    0.7695    0.1354 N   0  0  0  0  0  0  0  0  0  0  0  0
    2.5429    0.7221    0.2380 N   0  0  0  0  0  0  0  0  0  0  0  0
   -3.7395    0.9953   -0.3483 H   0  0  0  0  0  0  0  0  0  0  0  0
   -2.6083    2.3990    1.3573 H   0  0  0  0  0  0  0  0  0  0  0  0
   -0.1244    2.3010    1.6014 H   0  0  0  0  0  0  0  0  0  0  0  0
  1  2  2  0  0  0  0
  1  6  1  0  0  0  0
  2  3  1  0  0  0  0
  3  9  1  0  0  0  0
  3  4  2  0  0  0  0
  4 13  1  0  0  0  0
  5  4  1  0  0  0  0
  5 12  1  0  0  0  0
  6  5  2  0  0  0  0
  7  1  1  0  0  0  0
  8  2  1  0  0  0  0
  9 10  1  0  0  0  0
 11  6  1  0  0  0  0
M  RAD  2   9   2  10   3
M  END
