Coordinates from ORCA-job Ph-N2+-scan-d09-499-n800
 OpenBabel09191814153D

 13 12  0  0  0  0  0  0  0  0999 V2000
   -2.3568    0.1227   -1.1195 C   0  0  0  0  0  0  0  0  0  0  0  0
   -0.9357   -0.0173   -0.9694 C   0  0  0  0  0  0  0  0  0  0  0  0
   -0.6345    0.8166    0.0180 C   0  0  0  0  0  0  0  0  0  0  0  0
   -1.0693    1.7037    0.9042 C   0  0  0  0  0  0  0  0  0  0  0  0
   -2.4842    1.7646    0.6676 C   0  0  0  0  0  0  0  0  0  0  0  0
   -3.0984    0.9920   -0.3187 C   0  0  0  0  0  0  0  0  0  0  0  0
   -2.8103   -0.4904   -1.8956 H   0  0  0  0  0  0  0  0  0  0  0  0
   -0.3146   -0.6753   -1.5655 H   0  0  0  0  0  0  0  0  0  0  0  0
    3.8599    0.6782    0.2866 N   0  0  0  0  0  0  0  0  0  0  0  0
    4.9636    0.6627    0.3438 N   0  0  0  0  0  0  0  0  0  0  0  0
   -4.1707    1.0694   -0.4663 H   0  0  0  0  0  0  0  0  0  0  0  0
   -3.0385    2.4495    1.3060 H   0  0  0  0  0  0  0  0  0  0  0  0
   -0.5442    2.2814    1.6557 H   0  0  0  0  0  0  0  0  0  0  0  0
  1  2  2  0  0  0  0
  1  6  1  0  0  0  0
  2  3  1  0  0  0  0
  3  4  2  0  0  0  0
  4 13  1  0  0  0  0
  5  4  1  0  0  0  0
  5 12  1  0  0  0  0
  6  5  2  0  0  0  0
  7  1  1  0  0  0  0
  8  2  1  0  0  0  0
  9 10  3  0  0  0  0
 11  6  1  0  0  0  0
M  RAD  1   3   2
M  END
