Coordinates from ORCA-job Ph-N2+-scan-d09-499-n800
 OpenBabel09191814153D

 13 12  0  0  0  0  0  0  0  0999 V2000
   -3.2856    0.2846   -1.2275 C   0  0  0  0  0  0  0  0  0  0  0  0
   -2.9757   -0.6989   -0.2284 C   0  0  0  0  0  0  0  0  0  0  0  0
   -3.0980   -0.0403    0.9173 C   0  0  0  0  0  0  0  0  0  0  0  0
   -3.3710    1.1083    1.5237 C   0  0  0  0  0  0  0  0  0  0  0  0
   -3.6624    2.0086    0.4431 C   0  0  0  0  0  0  0  0  0  0  0  0
   -3.6178    1.5970   -0.8893 C   0  0  0  0  0  0  0  0  0  0  0  0
   -3.2416   -0.0627   -2.2577 H   0  0  0  0  0  0  0  0  0  0  0  0
   -2.7077   -1.7273   -0.4391 H   0  0  0  0  0  0  0  0  0  0  0  0
   11.6884    1.0702   -0.2947 N   0  0  0  0  0  0  0  0  0  0  0  0
   12.7926    1.1054   -0.3335 N   0  0  0  0  0  0  0  0  0  0  0  0
   -3.8448    2.3094   -1.6754 H   0  0  0  0  0  0  0  0  0  0  0  0
   -3.9191    3.0245    0.7356 H   0  0  0  0  0  0  0  0  0  0  0  0
   -3.3908    1.3789    2.5728 H   0  0  0  0  0  0  0  0  0  0  0  0
  1  6  2  0  0  0  0
  1  2  1  0  0  0  0
  2  3  2  0  0  0  0
  3  4  1  0  0  0  0
  4 13  1  0  0  0  0
  5 12  1  0  0  0  0
  5  4  2  0  0  0  0
  6  5  1  0  0  0  0
  7  1  1  0  0  0  0
  8  2  1  0  0  0  0
 10  9  3  0  0  0  0
 11  6  1  0  0  0  0
M  RAD  1   3   2
M  END
