Coordinates from ORCA-job Ph-N2+-scan-d09-499-n800
 OpenBabel09191814153D

 13 12  0  0  0  0  0  0  0  0999 V2000
   -3.3642    0.2478   -1.2282 C   0  0  0  0  0  0  0  0  0  0  0  0
   -2.5878   -0.6018   -0.3694 C   0  0  0  0  0  0  0  0  0  0  0  0
   -2.4643    0.1007    0.7497 C   0  0  0  0  0  0  0  0  0  0  0  0
   -2.7368    1.2255    1.3991 C   0  0  0  0  0  0  0  0  0  0  0  0
   -3.5061    1.9910    0.4588 C   0  0  0  0  0  0  0  0  0  0  0  0
   -3.8041    1.5056   -0.8149 C   0  0  0  0  0  0  0  0  0  0  0  0
   -3.5823   -0.1552   -2.2148 H   0  0  0  0  0  0  0  0  0  0  0  0
   -2.2222   -1.5841   -0.6435 H   0  0  0  0  0  0  0  0  0  0  0  0
   10.6154    0.9731   -0.0847 N   0  0  0  0  0  0  0  0  0  0  0  0
   11.7197    1.0134   -0.1137 N   0  0  0  0  0  0  0  0  0  0  0  0
   -4.3869    2.1171   -1.4959 H   0  0  0  0  0  0  0  0  0  0  0  0
   -3.8362    2.9670    0.8069 H   0  0  0  0  0  0  0  0  0  0  0  0
   -2.4779    1.5576    2.3973 H   0  0  0  0  0  0  0  0  0  0  0  0
  1  6  2  0  0  0  0
  1  2  1  0  0  0  0
  2  3  2  0  0  0  0
  3  4  1  0  0  0  0
  4 13  1  0  0  0  0
  5 12  1  0  0  0  0
  5  4  2  0  0  0  0
  6  5  1  0  0  0  0
  7  1  1  0  0  0  0
  8  2  1  0  0  0  0
 10  9  3  0  0  0  0
 11  6  1  0  0  0  0
M  RAD  1   3   2
M  END
