Coordinates from ORCA-job Ph-N2+-scan-d09-499-n800
 OpenBabel09191814153D

 13 12  0  0  0  0  0  0  0  0999 V2000
   -3.3688    0.2517   -1.2315 C   0  0  0  0  0  0  0  0  0  0  0  0
   -2.6488   -0.6234   -0.3488 C   0  0  0  0  0  0  0  0  0  0  0  0
   -2.5446    0.0733    0.7761 C   0  0  0  0  0  0  0  0  0  0  0  0
   -2.8011    1.2060    1.4187 C   0  0  0  0  0  0  0  0  0  0  0  0
   -3.5140    1.9964    0.4540 C   0  0  0  0  0  0  0  0  0  0  0  0
   -3.7832    1.5222   -0.8304 C   0  0  0  0  0  0  0  0  0  0  0  0
   -3.5649   -0.1424   -2.2263 H   0  0  0  0  0  0  0  0  0  0  0  0
   -2.3022   -1.6152   -0.6127 H   0  0  0  0  0  0  0  0  0  0  0  0
   10.7502    0.9919   -0.1051 N   0  0  0  0  0  0  0  0  0  0  0  0
   11.8544    1.0331   -0.1354 N   0  0  0  0  0  0  0  0  0  0  0  0
   -4.3221    2.1529   -1.5296 H   0  0  0  0  0  0  0  0  0  0  0  0
   -3.8249    2.9821    0.7926 H   0  0  0  0  0  0  0  0  0  0  0  0
   -2.5638    1.5289    2.4253 H   0  0  0  0  0  0  0  0  0  0  0  0
  1  6  2  0  0  0  0
  1  2  1  0  0  0  0
  2  3  2  0  0  0  0
  3  4  1  0  0  0  0
  4 13  1  0  0  0  0
  5 12  1  0  0  0  0
  5  4  2  0  0  0  0
  6  5  1  0  0  0  0
  7  1  1  0  0  0  0
  8  2  1  0  0  0  0
 10  9  3  0  0  0  0
 11  6  1  0  0  0  0
M  RAD  1   3   2
M  END
