Coordinates from ORCA-job Ph-N2+-scan-d09-499-n800
 OpenBabel09191814153D

 13 12  0  0  0  0  0  0  0  0999 V2000
   -2.7140    0.2193   -1.1979 C   0  0  0  0  0  0  0  0  0  0  0  0
   -1.4950   -0.2410   -0.5946 C   0  0  0  0  0  0  0  0  0  0  0  0
   -1.3708    0.5120    0.4911 C   0  0  0  0  0  0  0  0  0  0  0  0
   -1.8731    1.4860    1.2396 C   0  0  0  0  0  0  0  0  0  0  0  0
   -3.0747    1.8664    0.5518 C   0  0  0  0  0  0  0  0  0  0  0  0
   -3.4729    1.2441   -0.6317 C   0  0  0  0  0  0  0  0  0  0  0  0
   -3.0009   -0.2829   -2.1191 H   0  0  0  0  0  0  0  0  0  0  0  0
   -0.8713   -1.0323   -0.9934 H   0  0  0  0  0  0  0  0  0  0  0  0
    6.8442    0.6897    0.0416 N   0  0  0  0  0  0  0  0  0  0  0  0
    7.9484    0.7265    0.0066 N   0  0  0  0  0  0  0  0  0  0  0  0
   -4.3878    1.5626   -1.1196 H   0  0  0  0  0  0  0  0  0  0  0  0
   -3.6460    2.6686    1.0141 H   0  0  0  0  0  0  0  0  0  0  0  0
   -1.5199    1.9387    2.1582 H   0  0  0  0  0  0  0  0  0  0  0  0
  1  6  2  0  0  0  0
  1  2  1  0  0  0  0
  2  3  2  0  0  0  0
  3  4  1  0  0  0  0
  4 13  1  0  0  0  0
  5 12  1  0  0  0  0
  5  4  2  0  0  0  0
  6  5  1  0  0  0  0
  7  1  1  0  0  0  0
  8  2  1  0  0  0  0
 10  9  3  0  0  0  0
 11  6  1  0  0  0  0
M  RAD  1   3   2
M  END
