Coordinates from ORCA-job Ph-N2+-scan-d09-499-n800
 OpenBabel09191814153D

 13 12  0  0  0  0  0  0  0  0999 V2000
   -2.9179    0.2327   -1.2088 C   0  0  0  0  0  0  0  0  0  0  0  0
   -1.8056   -0.3533   -0.5153 C   0  0  0  0  0  0  0  0  0  0  0  0
   -1.6896    0.3821    0.5834 C   0  0  0  0  0  0  0  0  0  0  0  0
   -2.1443    1.4041    1.2977 C   0  0  0  0  0  0  0  0  0  0  0  0
   -3.2410    1.9088    0.5204 C   0  0  0  0  0  0  0  0  0  0  0  0
   -3.6075    1.3317   -0.6957 C   0  0  0  0  0  0  0  0  0  0  0  0
   -3.1824   -0.2367   -2.1536 H   0  0  0  0  0  0  0  0  0  0  0  0
   -1.2393   -1.2062   -0.8702 H   0  0  0  0  0  0  0  0  0  0  0  0
    8.0558    0.7558   -0.0168 N   0  0  0  0  0  0  0  0  0  0  0  0
    9.1598    0.8103   -0.0306 N   0  0  0  0  0  0  0  0  0  0  0  0
   -4.4426    1.7446   -1.2515 H   0  0  0  0  0  0  0  0  0  0  0  0
   -3.7595    2.7668    0.9428 H   0  0  0  0  0  0  0  0  0  0  0  0
   -1.8196    1.8170    2.2450 H   0  0  0  0  0  0  0  0  0  0  0  0
  1  6  2  0  0  0  0
  1  2  1  0  0  0  0
  2  3  2  0  0  0  0
  3  4  1  0  0  0  0
  4 13  1  0  0  0  0
  5 12  1  0  0  0  0
  5  4  2  0  0  0  0
  6  5  1  0  0  0  0
  7  1  1  0  0  0  0
  8  2  1  0  0  0  0
 10  9  3  0  0  0  0
 11  6  1  0  0  0  0
M  RAD  1   3   2
M  END
