Coordinates from ORCA-job Ph-N2+-scan-d09-499-n800
 OpenBabel09191814153D

 13 12  0  0  0  0  0  0  0  0999 V2000
   -2.2985    0.1172   -1.1135 C   0  0  0  0  0  0  0  0  0  0  0  0
   -0.8746   -0.0136   -0.9846 C   0  0  0  0  0  0  0  0  0  0  0  0
   -0.5634    0.8227   -0.0021 C   0  0  0  0  0  0  0  0  0  0  0  0
   -0.9911    1.7071    0.8903 C   0  0  0  0  0  0  0  0  0  0  0  0
   -2.4096    1.7588    0.6751 C   0  0  0  0  0  0  0  0  0  0  0  0
   -3.0335    0.9820   -0.3018 C   0  0  0  0  0  0  0  0  0  0  0  0
   -2.7599   -0.4989   -1.8825 H   0  0  0  0  0  0  0  0  0  0  0  0
   -0.2577   -0.6676   -1.5893 H   0  0  0  0  0  0  0  0  0  0  0  0
    3.4885    0.6946    0.2826 N   0  0  0  0  0  0  0  0  0  0  0  0
    4.5915    0.6750    0.3508 N   0  0  0  0  0  0  0  0  0  0  0  0
   -4.1085    1.0523   -0.4332 H   0  0  0  0  0  0  0  0  0  0  0  0
   -2.9590    2.4402    1.3214 H   0  0  0  0  0  0  0  0  0  0  0  0
   -0.4580    2.2881    1.6334 H   0  0  0  0  0  0  0  0  0  0  0  0
  1  2  2  0  0  0  0
  1  6  1  0  0  0  0
  2  3  1  0  0  0  0
  3  4  2  0  0  0  0
  4 13  1  0  0  0  0
  5  4  1  0  0  0  0
  5 12  1  0  0  0  0
  6  5  2  0  0  0  0
  7  1  1  0  0  0  0
  8  2  1  0  0  0  0
  9 10  3  0  0  0  0
 11  6  1  0  0  0  0
M  RAD  1   3   2
M  END
