Coordinates from ORCA-job Ph-N2+-scan-d09-499-n800
 OpenBabel09191814153D

 13 12  0  0  0  0  0  0  0  0999 V2000
   -3.0227    0.3486   -1.1243 C   0  0  0  0  0  0  0  0  0  0  0  0
   -3.0231   -0.6810   -0.1240 C   0  0  0  0  0  0  0  0  0  0  0  0
   -3.5049   -0.0794    0.9564 C   0  0  0  0  0  0  0  0  0  0  0  0
   -3.9712    1.0377    1.4999 C   0  0  0  0  0  0  0  0  0  0  0  0
   -3.9276    1.9886    0.4239 C   0  0  0  0  0  0  0  0  0  0  0  0
   -3.4646    1.6428   -0.8458 C   0  0  0  0  0  0  0  0  0  0  0  0
   -2.6583    0.0513   -2.1052 H   0  0  0  0  0  0  0  0  0  0  0  0
   -2.6918   -1.6994   -0.2882 H   0  0  0  0  0  0  0  0  0  0  0  0
   12.2856    1.0431   -0.5168 N   0  0  0  0  0  0  0  0  0  0  0  0
   13.3895    1.0650   -0.5698 N   0  0  0  0  0  0  0  0  0  0  0  0
   -3.4475    2.3928   -1.6297 H   0  0  0  0  0  0  0  0  0  0  0  0
   -4.2775    2.9891    0.6689 H   0  0  0  0  0  0  0  0  0  0  0  0
   -4.3196    1.2586    2.5015 H   0  0  0  0  0  0  0  0  0  0  0  0
  1  6  2  0  0  0  0
  1  2  1  0  0  0  0
  2  3  2  0  0  0  0
  3  4  1  0  0  0  0
  4 13  1  0  0  0  0
  5 12  1  0  0  0  0
  5  4  2  0  0  0  0
  6  5  1  0  0  0  0
  7  1  1  0  0  0  0
  8  2  1  0  0  0  0
 10  9  3  0  0  0  0
 11  6  1  0  0  0  0
M  RAD  1   3   2
M  END
