Coordinates from ORCA-job Ph-N2+-scan-d09-499-n800
 OpenBabel09191814153D

 13 12  0  0  0  0  0  0  0  0999 V2000
   -2.3463    0.1217   -1.1184 C   0  0  0  0  0  0  0  0  0  0  0  0
   -0.9246   -0.0167   -0.9723 C   0  0  0  0  0  0  0  0  0  0  0  0
   -0.6215    0.8177    0.0142 C   0  0  0  0  0  0  0  0  0  0  0  0
   -1.0549    1.7043    0.9015 C   0  0  0  0  0  0  0  0  0  0  0  0
   -2.4706    1.7636    0.6690 C   0  0  0  0  0  0  0  0  0  0  0  0
   -3.0866    0.9902   -0.3156 C   0  0  0  0  0  0  0  0  0  0  0  0
   -2.8013   -0.4919   -1.8932 H   0  0  0  0  0  0  0  0  0  0  0  0
   -0.3043   -0.6740   -1.5700 H   0  0  0  0  0  0  0  0  0  0  0  0
    3.7924    0.6812    0.2861 N   0  0  0  0  0  0  0  0  0  0  0  0
    4.8960    0.6650    0.3453 N   0  0  0  0  0  0  0  0  0  0  0  0
   -4.1595    1.0663   -0.4601 H   0  0  0  0  0  0  0  0  0  0  0  0
   -3.0240    2.4478    1.3089 H   0  0  0  0  0  0  0  0  0  0  0  0
   -0.5284    2.2826    1.6515 H   0  0  0  0  0  0  0  0  0  0  0  0
  1  2  2  0  0  0  0
  1  6  1  0  0  0  0
  2  3  1  0  0  0  0
  3  4  2  0  0  0  0
  4 13  1  0  0  0  0
  5  4  1  0  0  0  0
  5 12  1  0  0  0  0
  6  5  2  0  0  0  0
  7  1  1  0  0  0  0
  8  2  1  0  0  0  0
  9 10  3  0  0  0  0
 11  6  1  0  0  0  0
M  RAD  1   3   2
M  END
