Coordinates from ORCA-job Ph-N2+-scan-d09-499-n800
 OpenBabel09191814153D

 13 12  0  0  0  0  0  0  0  0999 V2000
   -2.6230    0.1544   -1.1516 C   0  0  0  0  0  0  0  0  0  0  0  0
   -1.2323   -0.0690   -0.8724 C   0  0  0  0  0  0  0  0  0  0  0  0
   -0.9754    0.7448    0.1439 C   0  0  0  0  0  0  0  0  0  0  0  0
   -1.4376    1.6552    0.9917 C   0  0  0  0  0  0  0  0  0  0  0  0
   -2.8188    1.7991    0.6265 C   0  0  0  0  0  0  0  0  0  0  0  0
   -3.3833    1.0650   -0.4172 C   0  0  0  0  0  0  0  0  0  0  0  0
   -3.0373   -0.4304   -1.9701 H   0  0  0  0  0  0  0  0  0  0  0  0
   -0.5992   -0.7622   -1.4136 H   0  0  0  0  0  0  0  0  0  0  0  0
    5.5695    0.6395    0.2740 N   0  0  0  0  0  0  0  0  0  0  0  0
    6.6748    0.6404    0.2905 N   0  0  0  0  0  0  0  0  0  0  0  0
   -4.4309    1.2053   -0.6624 H   0  0  0  0  0  0  0  0  0  0  0  0
   -3.3882    2.5149    1.2157 H   0  0  0  0  0  0  0  0  0  0  0  0
   -0.9521    2.2010    1.7920 H   0  0  0  0  0  0  0  0  0  0  0  0
  1  2  2  0  0  0  0
  1  6  1  0  0  0  0
  2  3  1  0  0  0  0
  3  4  2  0  0  0  0
  4 13  1  0  0  0  0
  5  4  1  0  0  0  0
  5 12  1  0  0  0  0
  6  5  2  0  0  0  0
  7  1  1  0  0  0  0
  8  2  1  0  0  0  0
  9 10  3  0  0  0  0
 11  6  1  0  0  0  0
M  RAD  1   3   2
M  END
