Coordinates from ORCA-job Ph-N2+-scan-d09-499-n800
 OpenBabel09191814153D

 13 12  0  0  0  0  0  0  0  0999 V2000
   -2.4033    0.1274   -1.1243 C   0  0  0  0  0  0  0  0  0  0  0  0
   -0.9850   -0.0202   -0.9553 C   0  0  0  0  0  0  0  0  0  0  0  0
   -0.6928    0.8118    0.0365 C   0  0  0  0  0  0  0  0  0  0  0  0
   -1.1347    1.7011    0.9170 C   0  0  0  0  0  0  0  0  0  0  0  0
   -2.5460    1.7695    0.6614 C   0  0  0  0  0  0  0  0  0  0  0  0
   -3.1509    1.0005   -0.3334 C   0  0  0  0  0  0  0  0  0  0  0  0
   -2.8494   -0.4830   -1.9067 H   0  0  0  0  0  0  0  0  0  0  0  0
   -0.3597   -0.6814   -1.5434 H   0  0  0  0  0  0  0  0  0  0  0  0
    4.1635    0.6642    0.2865 N   0  0  0  0  0  0  0  0  0  0  0  0
    5.2676    0.6511    0.3356 N   0  0  0  0  0  0  0  0  0  0  0  0
   -4.2207    1.0836   -0.4955 H   0  0  0  0  0  0  0  0  0  0  0  0
   -3.1052    2.4572    1.2925 H   0  0  0  0  0  0  0  0  0  0  0  0
   -0.6170    2.2759    1.6758 H   0  0  0  0  0  0  0  0  0  0  0  0
  1  2  2  0  0  0  0
  1  6  1  0  0  0  0
  2  3  1  0  0  0  0
  3  4  2  0  0  0  0
  4 13  1  0  0  0  0
  5  4  1  0  0  0  0
  5 12  1  0  0  0  0
  6  5  2  0  0  0  0
  7  1  1  0  0  0  0
  8  2  1  0  0  0  0
  9 10  3  0  0  0  0
 11  6  1  0  0  0  0
M  RAD  1   3   2
M  END
