Coordinates from ORCA-job Ph-N2+-scan-d09-499-n800
 OpenBabel09191814153D

 13 12  0  0  0  0  0  0  0  0999 V2000
   -3.0390    0.2367   -1.2130 C   0  0  0  0  0  0  0  0  0  0  0  0
   -1.9834   -0.4074   -0.4831 C   0  0  0  0  0  0  0  0  0  0  0  0
   -1.8656    0.3214    0.6197 C   0  0  0  0  0  0  0  0  0  0  0  0
   -2.2889    1.3666    1.3195 C   0  0  0  0  0  0  0  0  0  0  0  0
   -3.3303    1.9288    0.5063 C   0  0  0  0  0  0  0  0  0  0  0  0
   -3.6858    1.3713   -0.7222 C   0  0  0  0  0  0  0  0  0  0  0  0
   -3.2961   -0.2185   -2.1668 H   0  0  0  0  0  0  0  0  0  0  0  0
   -1.4517   -1.2893   -0.8199 H   0  0  0  0  0  0  0  0  0  0  0  0
    8.7361    0.8022   -0.0259 N   0  0  0  0  0  0  0  0  0  0  0  0
    9.8404    0.8426   -0.0522 N   0  0  0  0  0  0  0  0  0  0  0  0
   -4.4785    1.8278   -1.3055 H   0  0  0  0  0  0  0  0  0  0  0  0
   -3.8162    2.8133    0.9120 H   0  0  0  0  0  0  0  0  0  0  0  0
   -1.9749    1.7621    2.2779 H   0  0  0  0  0  0  0  0  0  0  0  0
  1  6  2  0  0  0  0
  1  2  1  0  0  0  0
  2  3  2  0  0  0  0
  3  4  1  0  0  0  0
  4 13  1  0  0  0  0
  5 12  1  0  0  0  0
  5  4  2  0  0  0  0
  6  5  1  0  0  0  0
  7  1  1  0  0  0  0
  8  2  1  0  0  0  0
 10  9  3  0  0  0  0
 11  6  1  0  0  0  0
M  RAD  1   3   2
M  END
