Coordinates from ORCA-job Ph-N2+-scan-d09-499-n800
 OpenBabel09191814153D

 13 12  0  0  0  0  0  0  0  0999 V2000
   -3.3717    0.2548   -1.2337 C   0  0  0  0  0  0  0  0  0  0  0  0
   -2.6994   -0.6389   -0.3328 C   0  0  0  0  0  0  0  0  0  0  0  0
   -2.6070    0.0534    0.7957 C   0  0  0  0  0  0  0  0  0  0  0  0
   -2.8551    1.1909    1.4328 C   0  0  0  0  0  0  0  0  0  0  0  0
   -3.5201    2.0003    0.4505 C   0  0  0  0  0  0  0  0  0  0  0  0
   -3.7649    1.5348   -0.8419 C   0  0  0  0  0  0  0  0  0  0  0  0
   -3.5502   -0.1335   -2.2341 H   0  0  0  0  0  0  0  0  0  0  0  0
   -2.3724   -1.6394   -0.5890 H   0  0  0  0  0  0  0  0  0  0  0  0
   10.8639    1.0075   -0.1222 N   0  0  0  0  0  0  0  0  0  0  0  0
   11.9681    1.0490   -0.1533 N   0  0  0  0  0  0  0  0  0  0  0  0
   -4.2683    2.1797   -1.5546 H   0  0  0  0  0  0  0  0  0  0  0  0
   -3.8162    2.9928    0.7828 H   0  0  0  0  0  0  0  0  0  0  0  0
   -2.6403    1.5064    2.4467 H   0  0  0  0  0  0  0  0  0  0  0  0
  1  6  2  0  0  0  0
  1  2  1  0  0  0  0
  2  3  2  0  0  0  0
  3  4  1  0  0  0  0
  4 13  1  0  0  0  0
  5 12  1  0  0  0  0
  5  4  2  0  0  0  0
  6  5  1  0  0  0  0
  7  1  1  0  0  0  0
  8  2  1  0  0  0  0
 10  9  3  0  0  0  0
 11  6  1  0  0  0  0
M  RAD  1   3   2
M  END
