Coordinates from ORCA-job Ph-N2+-scan-d09-499-n800
 OpenBabel09191814153D

 13 12  0  0  0  0  0  0  0  0999 V2000
   -3.3684    0.2515   -1.2312 C   0  0  0  0  0  0  0  0  0  0  0  0
   -2.6433   -0.6209   -0.3506 C   0  0  0  0  0  0  0  0  0  0  0  0
   -2.5357    0.0758    0.7739 C   0  0  0  0  0  0  0  0  0  0  0  0
   -2.7953    1.2077    1.4164 C   0  0  0  0  0  0  0  0  0  0  0  0
   -3.5131    1.9959    0.4544 C   0  0  0  0  0  0  0  0  0  0  0  0
   -3.7850    1.5208   -0.8291 C   0  0  0  0  0  0  0  0  0  0  0  0
   -3.5670   -0.1439   -2.2250 H   0  0  0  0  0  0  0  0  0  0  0  0
   -2.2967   -1.6125   -0.6156 H   0  0  0  0  0  0  0  0  0  0  0  0
   10.7395    0.9903   -0.1033 N   0  0  0  0  0  0  0  0  0  0  0  0
   11.8438    1.0314   -0.1335 N   0  0  0  0  0  0  0  0  0  0  0  0
   -4.3283    2.1497   -1.5266 H   0  0  0  0  0  0  0  0  0  0  0  0
   -3.8263    2.9804    0.7943 H   0  0  0  0  0  0  0  0  0  0  0  0
   -2.5579    1.5315    2.4226 H   0  0  0  0  0  0  0  0  0  0  0  0
  1  6  2  0  0  0  0
  1  2  1  0  0  0  0
  2  3  2  0  0  0  0
  3  4  1  0  0  0  0
  4 13  1  0  0  0  0
  5 12  1  0  0  0  0
  5  4  2  0  0  0  0
  6  5  1  0  0  0  0
  7  1  1  0  0  0  0
  8  2  1  0  0  0  0
 10  9  3  0  0  0  0
 11  6  1  0  0  0  0
M  RAD  1   3   2
M  END
