Coordinates from ORCA-job Ph-N2+-scan-d09-499-n800
 OpenBabel09191814153D

 13 12  0  0  0  0  0  0  0  0999 V2000
   -3.0350    0.3444   -1.1313 C   0  0  0  0  0  0  0  0  0  0  0  0
   -3.0257   -0.6836   -0.1293 C   0  0  0  0  0  0  0  0  0  0  0  0
   -3.4908   -0.0783    0.9564 C   0  0  0  0  0  0  0  0  0  0  0  0
   -3.9455    1.0415    1.5041 C   0  0  0  0  0  0  0  0  0  0  0  0
   -3.9128    1.9903    0.4260 C   0  0  0  0  0  0  0  0  0  0  0  0
   -3.4683    1.6406   -0.8492 C   0  0  0  0  0  0  0  0  0  0  0  0
   -2.6846    0.0441   -2.1164 H   0  0  0  0  0  0  0  0  0  0  0  0
   -2.6999   -1.7033   -0.2960 H   0  0  0  0  0  0  0  0  0  0  0  0
   12.2601    1.0463   -0.5071 N   0  0  0  0  0  0  0  0  0  0  0  0
   13.3641    1.0688   -0.5594 N   0  0  0  0  0  0  0  0  0  0  0  0
   -3.4591    2.3892   -1.6346 H   0  0  0  0  0  0  0  0  0  0  0  0
   -4.2561    2.9925    0.6738 H   0  0  0  0  0  0  0  0  0  0  0  0
   -4.2801    1.2652    2.5098 H   0  0  0  0  0  0  0  0  0  0  0  0
  1  6  2  0  0  0  0
  1  2  1  0  0  0  0
  2  3  2  0  0  0  0
  3  4  1  0  0  0  0
  4 13  1  0  0  0  0
  5 12  1  0  0  0  0
  5  4  2  0  0  0  0
  6  5  1  0  0  0  0
  7  1  1  0  0  0  0
  8  2  1  0  0  0  0
 10  9  3  0  0  0  0
 11  6  1  0  0  0  0
M  RAD  1   3   2
M  END
