Coordinates from ORCA-job Ph-N2+-scan-d09-499-n800
 OpenBabel09191814153D

 13 12  0  0  0  0  0  0  0  0999 V2000
   -2.3930    0.1263   -1.1232 C   0  0  0  0  0  0  0  0  0  0  0  0
   -0.9740   -0.0194   -0.9586 C   0  0  0  0  0  0  0  0  0  0  0  0
   -0.6798    0.8130    0.0322 C   0  0  0  0  0  0  0  0  0  0  0  0
   -1.1201    1.7018    0.9140 C   0  0  0  0  0  0  0  0  0  0  0  0
   -2.5323    1.7684    0.6628 C   0  0  0  0  0  0  0  0  0  0  0  0
   -3.1393    0.9985   -0.3301 C   0  0  0  0  0  0  0  0  0  0  0  0
   -2.8408   -0.4847   -1.9041 H   0  0  0  0  0  0  0  0  0  0  0  0
   -0.3496   -0.6799   -1.5486 H   0  0  0  0  0  0  0  0  0  0  0  0
    4.0960    0.6671    0.2866 N   0  0  0  0  0  0  0  0  0  0  0  0
    5.2001    0.6535    0.3376 N   0  0  0  0  0  0  0  0  0  0  0  0
   -4.2097    1.0803   -0.4888 H   0  0  0  0  0  0  0  0  0  0  0  0
   -3.0904    2.4554    1.2956 H   0  0  0  0  0  0  0  0  0  0  0  0
   -0.6008    2.2773    1.6712 H   0  0  0  0  0  0  0  0  0  0  0  0
  1  2  2  0  0  0  0
  1  6  1  0  0  0  0
  2  3  1  0  0  0  0
  3  4  2  0  0  0  0
  4 13  1  0  0  0  0
  5  4  1  0  0  0  0
  5 12  1  0  0  0  0
  6  5  2  0  0  0  0
  7  1  1  0  0  0  0
  8  2  1  0  0  0  0
  9 10  3  0  0  0  0
 11  6  1  0  0  0  0
M  RAD  1   3   2
M  END
