Coordinates from ORCA-job Ph-N2+-scan-d09-499-n800
 OpenBabel09191814153D

 13 12  0  0  0  0  0  0  0  0999 V2000
   -2.3879    0.1258   -1.1226 C   0  0  0  0  0  0  0  0  0  0  0  0
   -0.9686   -0.0191   -0.9602 C   0  0  0  0  0  0  0  0  0  0  0  0
   -0.6733    0.8136    0.0301 C   0  0  0  0  0  0  0  0  0  0  0  0
   -1.1128    1.7021    0.9126 C   0  0  0  0  0  0  0  0  0  0  0  0
   -2.5254    1.7679    0.6635 C   0  0  0  0  0  0  0  0  0  0  0  0
   -3.1335    0.9976   -0.3284 C   0  0  0  0  0  0  0  0  0  0  0  0
   -2.8365   -0.4856   -1.9029 H   0  0  0  0  0  0  0  0  0  0  0  0
   -0.3446   -0.6791   -1.5511 H   0  0  0  0  0  0  0  0  0  0  0  0
    4.0623    0.6687    0.2868 N   0  0  0  0  0  0  0  0  0  0  0  0
    5.1663    0.6548    0.3386 N   0  0  0  0  0  0  0  0  0  0  0  0
   -4.2042    1.0786   -0.4855 H   0  0  0  0  0  0  0  0  0  0  0  0
   -3.0830    2.4545    1.2972 H   0  0  0  0  0  0  0  0  0  0  0  0
   -0.5926    2.2779    1.6688 H   0  0  0  0  0  0  0  0  0  0  0  0
  1  2  2  0  0  0  0
  1  6  1  0  0  0  0
  2  3  1  0  0  0  0
  3  4  2  0  0  0  0
  4 13  1  0  0  0  0
  5  4  1  0  0  0  0
  5 12  1  0  0  0  0
  6  5  2  0  0  0  0
  7  1  1  0  0  0  0
  8  2  1  0  0  0  0
  9 10  3  0  0  0  0
 11  6  1  0  0  0  0
M  RAD  1   3   2
M  END
