Coordinates from ORCA-job Ph-N2+-scan-d09-499-n800
 OpenBabel09191814153D

 13 12  0  0  0  0  0  0  0  0999 V2000
   -2.7977    0.2267   -1.2036 C   0  0  0  0  0  0  0  0  0  0  0  0
   -1.6309   -0.2985   -0.5521 C   0  0  0  0  0  0  0  0  0  0  0  0
   -1.5124    0.4450    0.5409 C   0  0  0  0  0  0  0  0  0  0  0  0
   -1.9929    1.4435    1.2712 C   0  0  0  0  0  0  0  0  0  0  0  0
   -3.1430    1.8881    0.5355 C   0  0  0  0  0  0  0  0  0  0  0  0
   -3.5241    1.2894   -0.6656 C   0  0  0  0  0  0  0  0  0  0  0  0
   -3.0724   -0.2584   -2.1376 H   0  0  0  0  0  0  0  0  0  0  0  0
   -1.0342   -1.1214   -0.9275 H   0  0  0  0  0  0  0  0  0  0  0  0
    7.3572    0.7192    0.0060 N   0  0  0  0  0  0  0  0  0  0  0  0
    8.4612    0.7733   -0.0127 N   0  0  0  0  0  0  0  0  0  0  0  0
   -4.4000    1.6566   -1.1898 H   0  0  0  0  0  0  0  0  0  0  0  0
   -3.6896    2.7188    0.9766 H   0  0  0  0  0  0  0  0  0  0  0  0
   -1.6549    1.8754    2.2054 H   0  0  0  0  0  0  0  0  0  0  0  0
  1  6  2  0  0  0  0
  1  2  1  0  0  0  0
  2  3  2  0  0  0  0
  3  4  1  0  0  0  0
  4 13  1  0  0  0  0
  5 12  1  0  0  0  0
  5  4  2  0  0  0  0
  6  5  1  0  0  0  0
  7  1  1  0  0  0  0
  8  2  1  0  0  0  0
 10  9  3  0  0  0  0
 11  6  1  0  0  0  0
M  RAD  1   3   2
M  END
