Coordinates from ORCA-job Ph-N2+-scan-d09-499-n800
 OpenBabel09191814153D

 13 12  0  0  0  0  0  0  0  0999 V2000
   -2.3724    0.1242   -1.1211 C   0  0  0  0  0  0  0  0  0  0  0  0
   -0.9522   -0.0182   -0.9650 C   0  0  0  0  0  0  0  0  0  0  0  0
   -0.6539    0.8151    0.0239 C   0  0  0  0  0  0  0  0  0  0  0  0
   -1.0909    1.7029    0.9082 C   0  0  0  0  0  0  0  0  0  0  0  0
   -2.5048    1.7662    0.6656 C   0  0  0  0  0  0  0  0  0  0  0  0
   -3.1159    0.9948   -0.3235 C   0  0  0  0  0  0  0  0  0  0  0  0
   -2.8235   -0.4880   -1.8992 H   0  0  0  0  0  0  0  0  0  0  0  0
   -0.3297   -0.6772   -1.5585 H   0  0  0  0  0  0  0  0  0  0  0  0
    3.9611    0.6734    0.2869 N   0  0  0  0  0  0  0  0  0  0  0  0
    5.0650    0.6588    0.3414 N   0  0  0  0  0  0  0  0  0  0  0  0
   -4.1875    1.0739   -0.4757 H   0  0  0  0  0  0  0  0  0  0  0  0
   -3.0607    2.4519    1.3016 H   0  0  0  0  0  0  0  0  0  0  0  0
   -0.5683    2.2797    1.6621 H   0  0  0  0  0  0  0  0  0  0  0  0
  1  2  2  0  0  0  0
  1  6  1  0  0  0  0
  2  3  1  0  0  0  0
  3  4  2  0  0  0  0
  4 13  1  0  0  0  0
  5  4  1  0  0  0  0
  5 12  1  0  0  0  0
  6  5  2  0  0  0  0
  7  1  1  0  0  0  0
  8  2  1  0  0  0  0
  9 10  3  0  0  0  0
 11  6  1  0  0  0  0
M  RAD  1   3   2
M  END
