Coordinates from ORCA-job Ph-N2+-scan-d09-499-n800
 OpenBabel09191814153D

 13 13  0  0  0  0  0  0  0  0999 V2000
   -1.8855    0.0888   -1.0800 C   0  0  0  0  0  0  0  0  0  0  0  0
   -0.5214    0.0117   -0.9721 C   0  0  0  0  0  0  0  0  0  0  0  0
    0.2254    0.8213    0.0233 C   0  0  0  0  0  0  0  0  0  0  0  0
   -0.6200    1.7001    0.8701 C   0  0  0  0  0  0  0  0  0  0  0  0
   -1.9820    1.7418    0.7235 C   0  0  0  0  0  0  0  0  0  0  0  0
   -2.6232    0.9455   -0.2429 C   0  0  0  0  0  0  0  0  0  0  0  0
   -2.3926   -0.5206   -1.8221 H   0  0  0  0  0  0  0  0  0  0  0  0
    0.0858   -0.6358   -1.5989 H   0  0  0  0  0  0  0  0  0  0  0  0
    1.1406    0.7817    0.1085 N   0  0  0  0  0  0  0  0  0  0  0  0
    2.2913    0.7325    0.2152 N   0  0  0  0  0  0  0  0  0  0  0  0
   -3.7040    0.9933   -0.3446 H   0  0  0  0  0  0  0  0  0  0  0  0
   -2.5629    2.3990    1.3637 H   0  0  0  0  0  0  0  0  0  0  0  0
   -0.0854    2.2984    1.6030 H   0  0  0  0  0  0  0  0  0  0  0  0
  1  2  2  0  0  0  0
  1  6  1  0  0  0  0
  2  3  1  0  0  0  0
  3  9  1  0  0  0  0
  3  4  2  0  0  0  0
  4 13  1  0  0  0  0
  5  4  1  0  0  0  0
  5 12  1  0  0  0  0
  6  5  2  0  0  0  0
  7  1  1  0  0  0  0
  8  2  1  0  0  0  0
  9 10  1  0  0  0  0
 11  6  1  0  0  0  0
M  RAD  2   9   2  10   3
M  END
