Coordinates from ORCA-job Ph-N2+-scan-d09-499-n800
 OpenBabel09191814153D

 13 12  0  0  0  0  0  0  0  0999 V2000
   -3.1734    0.3088   -1.1977 C   0  0  0  0  0  0  0  0  0  0  0  0
   -3.0013   -0.6951   -0.1855 C   0  0  0  0  0  0  0  0  0  0  0  0
   -3.2696   -0.0563    0.9465 C   0  0  0  0  0  0  0  0  0  0  0  0
   -3.6230    1.0810    1.5321 C   0  0  0  0  0  0  0  0  0  0  0  0
   -3.7661    2.0029    0.4405 C   0  0  0  0  0  0  0  0  0  0  0  0
   -3.5453    1.6160   -0.8817 C   0  0  0  0  0  0  0  0  0  0  0  0
   -2.9939   -0.0202   -2.2191 H   0  0  0  0  0  0  0  0  0  0  0  0
   -2.7132   -1.7213   -0.3796 H   0  0  0  0  0  0  0  0  0  0  0  0
   11.9290    1.0621   -0.3878 N   0  0  0  0  0  0  0  0  0  0  0  0
   13.0332    1.0916   -0.4322 N   0  0  0  0  0  0  0  0  0  0  0  0
   -3.6657    2.3434   -1.6776 H   0  0  0  0  0  0  0  0  0  0  0  0
   -4.0584    3.0142    0.7150 H   0  0  0  0  0  0  0  0  0  0  0  0
   -3.7859    1.3304    2.5739 H   0  0  0  0  0  0  0  0  0  0  0  0
  1  6  2  0  0  0  0
  1  2  1  0  0  0  0
  2  3  2  0  0  0  0
  3  4  1  0  0  0  0
  4 13  1  0  0  0  0
  5 12  1  0  0  0  0
  5  4  2  0  0  0  0
  6  5  1  0  0  0  0
  7  1  1  0  0  0  0
  8  2  1  0  0  0  0
 10  9  3  0  0  0  0
 11  6  1  0  0  0  0
M  RAD  1   3   2
M  END
