Coordinates from ORCA-job Ph-N2+-scan-d09-499-n800
 OpenBabel09191814153D

 13 12  0  0  0  0  0  0  0  0999 V2000
   -3.0508    0.2369   -1.2133 C   0  0  0  0  0  0  0  0  0  0  0  0
   -2.0012   -0.4132   -0.4802 C   0  0  0  0  0  0  0  0  0  0  0  0
   -1.8825    0.3150    0.6229 C   0  0  0  0  0  0  0  0  0  0  0  0
   -2.3017    1.3628    1.3213 C   0  0  0  0  0  0  0  0  0  0  0  0
   -3.3374    1.9309    0.5048 C   0  0  0  0  0  0  0  0  0  0  0  0
   -3.6924    1.3753   -0.7246 C   0  0  0  0  0  0  0  0  0  0  0  0
   -3.3076   -0.2169   -2.1679 H   0  0  0  0  0  0  0  0  0  0  0  0
   -1.4736   -1.2982   -0.8153 H   0  0  0  0  0  0  0  0  0  0  0  0
    8.7988    0.8071   -0.0266 N   0  0  0  0  0  0  0  0  0  0  0  0
    9.9032    0.8468   -0.0535 N   0  0  0  0  0  0  0  0  0  0  0  0
   -4.4807    1.8364   -1.3104 H   0  0  0  0  0  0  0  0  0  0  0  0
   -3.8194    2.8183    0.9090 H   0  0  0  0  0  0  0  0  0  0  0  0
   -1.9884    1.7565    2.2806 H   0  0  0  0  0  0  0  0  0  0  0  0
  1  6  2  0  0  0  0
  1  2  1  0  0  0  0
  2  3  2  0  0  0  0
  3  4  1  0  0  0  0
  4 13  1  0  0  0  0
  5 12  1  0  0  0  0
  5  4  2  0  0  0  0
  6  5  1  0  0  0  0
  7  1  1  0  0  0  0
  8  2  1  0  0  0  0
 10  9  3  0  0  0  0
 11  6  1  0  0  0  0
M  RAD  1   3   2
M  END
