Coordinates from ORCA-job Ph-N2+-scan-d09-499-n800
 OpenBabel09191814153D

 13 12  0  0  0  0  0  0  0  0999 V2000
   -3.3302    0.2382   -1.2198 C   0  0  0  0  0  0  0  0  0  0  0  0
   -2.4505   -0.5597   -0.4125 C   0  0  0  0  0  0  0  0  0  0  0  0
   -2.2949    0.1555    0.6944 C   0  0  0  0  0  0  0  0  0  0  0  0
   -2.5893    1.2661    1.3584 C   0  0  0  0  0  0  0  0  0  0  0  0
   -3.4624    1.9799    0.4695 C   0  0  0  0  0  0  0  0  0  0  0  0
   -3.8151    1.4705   -0.7806 C   0  0  0  0  0  0  0  0  0  0  0  0
   -3.5886   -0.1822   -2.1891 H   0  0  0  0  0  0  0  0  0  0  0  0
   -2.0469   -1.5206   -0.7080 H   0  0  0  0  0  0  0  0  0  0  0  0
   10.2136    0.9359   -0.0452 N   0  0  0  0  0  0  0  0  0  0  0  0
   11.3180    0.9759   -0.0712 N   0  0  0  0  0  0  0  0  0  0  0  0
   -4.4767    2.0428   -1.4225 H   0  0  0  0  0  0  0  0  0  0  0  0
   -3.8253    2.9373    0.8366 H   0  0  0  0  0  0  0  0  0  0  0  0
   -2.2854    1.6182    2.3368 H   0  0  0  0  0  0  0  0  0  0  0  0
  1  6  2  0  0  0  0
  1  2  1  0  0  0  0
  2  3  2  0  0  0  0
  3  4  1  0  0  0  0
  4 13  1  0  0  0  0
  5 12  1  0  0  0  0
  5  4  2  0  0  0  0
  6  5  1  0  0  0  0
  7  1  1  0  0  0  0
  8  2  1  0  0  0  0
 10  9  3  0  0  0  0
 11  6  1  0  0  0  0
M  RAD  1   3   2
M  END
