Coordinates from ORCA-job Ph-N2+-scan-d09-499-n800
 OpenBabel09191814153D

 13 12  0  0  0  0  0  0  0  0999 V2000
   -2.8661    0.2303   -1.2066 C   0  0  0  0  0  0  0  0  0  0  0  0
   -1.7307   -0.3313   -0.5303 C   0  0  0  0  0  0  0  0  0  0  0  0
   -1.6135    0.4074    0.5661 C   0  0  0  0  0  0  0  0  0  0  0  0
   -2.0788    1.4200    1.2869 C   0  0  0  0  0  0  0  0  0  0  0  0
   -3.1980    1.9005    0.5265 C   0  0  0  0  0  0  0  0  0  0  0  0
   -3.5709    1.3147   -0.6835 C   0  0  0  0  0  0  0  0  0  0  0  0
   -3.1350   -0.2455   -2.1470 H   0  0  0  0  0  0  0  0  0  0  0  0
   -1.1518   -1.1721   -0.8935 H   0  0  0  0  0  0  0  0  0  0  0  0
    7.7536    0.7389   -0.0100 N   0  0  0  0  0  0  0  0  0  0  0  0
    8.8574    0.7974   -0.0208 N   0  0  0  0  0  0  0  0  0  0  0  0
   -4.4233    1.7091   -1.2264 H   0  0  0  0  0  0  0  0  0  0  0  0
   -3.7282    2.7476    0.9565 H   0  0  0  0  0  0  0  0  0  0  0  0
   -1.7483    1.8406    2.2288 H   0  0  0  0  0  0  0  0  0  0  0  0
  1  6  2  0  0  0  0
  1  2  1  0  0  0  0
  2  3  2  0  0  0  0
  3  4  1  0  0  0  0
  4 13  1  0  0  0  0
  5 12  1  0  0  0  0
  5  4  2  0  0  0  0
  6  5  1  0  0  0  0
  7  1  1  0  0  0  0
  8  2  1  0  0  0  0
 10  9  3  0  0  0  0
 11  6  1  0  0  0  0
M  RAD  1   3   2
M  END
