Coordinates from ORCA-job Ph-N2+-scan-d09-499-n800
 OpenBabel09191814153D

 13 12  0  0  0  0  0  0  0  0999 V2000
   -3.1834    0.2366   -1.2157 C   0  0  0  0  0  0  0  0  0  0  0  0
   -2.2049   -0.4838   -0.4505 C   0  0  0  0  0  0  0  0  0  0  0  0
   -2.0657    0.2396    0.6534 C   0  0  0  0  0  0  0  0  0  0  0  0
   -2.4277    1.3185    1.3360 C   0  0  0  0  0  0  0  0  0  0  0  0
   -3.3957    1.9558    0.4882 C   0  0  0  0  0  0  0  0  0  0  0  0
   -3.7547    1.4209   -0.7493 C   0  0  0  0  0  0  0  0  0  0  0  0
   -3.4446   -0.2022   -2.1761 H   0  0  0  0  0  0  0  0  0  0  0  0
   -1.7327   -1.4057   -0.7679 H   0  0  0  0  0  0  0  0  0  0  0  0
    9.4502    0.8666   -0.0318 N   0  0  0  0  0  0  0  0  0  0  0  0
   10.5546    0.9058   -0.0588 N   0  0  0  0  0  0  0  0  0  0  0  0
   -4.4902    1.9348   -1.3593 H   0  0  0  0  0  0  0  0  0  0  0  0
   -3.8241    2.8774    0.8757 H   0  0  0  0  0  0  0  0  0  0  0  0
   -2.1148    1.6932    2.3031 H   0  0  0  0  0  0  0  0  0  0  0  0
  1  6  2  0  0  0  0
  1  2  1  0  0  0  0
  2  3  2  0  0  0  0
  3  4  1  0  0  0  0
  4 13  1  0  0  0  0
  5 12  1  0  0  0  0
  5  4  2  0  0  0  0
  6  5  1  0  0  0  0
  7  1  1  0  0  0  0
  8  2  1  0  0  0  0
 10  9  3  0  0  0  0
 11  6  1  0  0  0  0
M  RAD  1   3   2
M  END
