Coordinates from ORCA-job Ph-N2+-scan-d09-499-n800
 OpenBabel09191814153D

 13 12  0  0  0  0  0  0  0  0999 V2000
   -2.5287    0.1411   -1.1381 C   0  0  0  0  0  0  0  0  0  0  0  0
   -1.1214   -0.0364   -0.9149 C   0  0  0  0  0  0  0  0  0  0  0  0
   -0.8507    0.7881    0.0892 C   0  0  0  0  0  0  0  0  0  0  0  0
   -1.3076    1.6857    0.9535 C   0  0  0  0  0  0  0  0  0  0  0  0
   -2.7063    1.7839    0.6436 C   0  0  0  0  0  0  0  0  0  0  0  0
   -3.2881    1.0289   -0.3753 C   0  0  0  0  0  0  0  0  0  0  0  0
   -2.9567   -0.4591   -1.9384 H   0  0  0  0  0  0  0  0  0  0  0  0
   -0.4881   -0.7101   -1.4800 H   0  0  0  0  0  0  0  0  0  0  0  0
    4.9703    0.6380    0.2842 N   0  0  0  0  0  0  0  0  0  0  0  0
    6.0752    0.6316    0.3147 N   0  0  0  0  0  0  0  0  0  0  0  0
   -4.3487    1.1346   -0.5786 H   0  0  0  0  0  0  0  0  0  0  0  0
   -3.2747    2.4825    1.2540 H   0  0  0  0  0  0  0  0  0  0  0  0
   -0.8082    2.2490    1.7329 H   0  0  0  0  0  0  0  0  0  0  0  0
  1  2  2  0  0  0  0
  1  6  1  0  0  0  0
  2  3  1  0  0  0  0
  3  4  2  0  0  0  0
  4 13  1  0  0  0  0
  5  4  1  0  0  0  0
  5 12  1  0  0  0  0
  6  5  2  0  0  0  0
  7  1  1  0  0  0  0
  8  2  1  0  0  0  0
  9 10  3  0  0  0  0
 11  6  1  0  0  0  0
M  RAD  1   3   2
M  END
