Coordinates from ORCA-job Ph-N2+-scan-d09-499-n800
 OpenBabel09191814153D

 13 12  0  0  0  0  0  0  0  0999 V2000
   -3.0842    0.3306   -1.1571 C   0  0  0  0  0  0  0  0  0  0  0  0
   -3.0249   -0.6905   -0.1490 C   0  0  0  0  0  0  0  0  0  0  0  0
   -3.4197   -0.0712    0.9564 C   0  0  0  0  0  0  0  0  0  0  0  0
   -3.8379    1.0561    1.5181 C   0  0  0  0  0  0  0  0  0  0  0  0
   -3.8597    1.9964    0.4330 C   0  0  0  0  0  0  0  0  0  0  0  0
   -3.4914    1.6321   -0.8625 C   0  0  0  0  0  0  0  0  0  0  0  0
   -2.7915    0.0190   -2.1575 H   0  0  0  0  0  0  0  0  0  0  0  0
   -2.7163   -1.7136   -0.3273 H   0  0  0  0  0  0  0  0  0  0  0  0
   12.1534    1.0548   -0.4667 N   0  0  0  0  0  0  0  0  0  0  0  0
   13.2575    1.0792   -0.5161 N   0  0  0  0  0  0  0  0  0  0  0  0
   -3.5226    2.3733   -1.6543 H   0  0  0  0  0  0  0  0  0  0  0  0
   -4.1814    3.0033    0.6904 H   0  0  0  0  0  0  0  0  0  0  0  0
   -4.1151    1.2883    2.5394 H   0  0  0  0  0  0  0  0  0  0  0  0
  1  6  2  0  0  0  0
  1  2  1  0  0  0  0
  2  3  2  0  0  0  0
  3  4  1  0  0  0  0
  4 13  1  0  0  0  0
  5 12  1  0  0  0  0
  5  4  2  0  0  0  0
  6  5  1  0  0  0  0
  7  1  1  0  0  0  0
  8  2  1  0  0  0  0
 10  9  3  0  0  0  0
 11  6  1  0  0  0  0
M  RAD  1   3   2
M  END
