Coordinates from ORCA-job Ph-N2+-scan-d09-499-n800
 OpenBabel09191814153D

 13 12  0  0  0  0  0  0  0  0999 V2000
   -2.4187    0.1291   -1.1259 C   0  0  0  0  0  0  0  0  0  0  0  0
   -1.0015   -0.0214   -0.9504 C   0  0  0  0  0  0  0  0  0  0  0  0
   -0.7124    0.8099    0.0429 C   0  0  0  0  0  0  0  0  0  0  0  0
   -1.1566    1.7000    0.9215 C   0  0  0  0  0  0  0  0  0  0  0  0
   -2.5666    1.7712    0.6593 C   0  0  0  0  0  0  0  0  0  0  0  0
   -3.1683    1.0035   -0.3384 C   0  0  0  0  0  0  0  0  0  0  0  0
   -2.8624   -0.4804   -1.9105 H   0  0  0  0  0  0  0  0  0  0  0  0
   -0.3748   -0.6838   -1.5358 H   0  0  0  0  0  0  0  0  0  0  0  0
    4.2645    0.6598    0.2862 N   0  0  0  0  0  0  0  0  0  0  0  0
    5.3688    0.6475    0.3327 N   0  0  0  0  0  0  0  0  0  0  0  0
   -4.2372    1.0888   -0.5055 H   0  0  0  0  0  0  0  0  0  0  0  0
   -3.1272    2.4599    1.2879 H   0  0  0  0  0  0  0  0  0  0  0  0
   -0.6414    2.2737    1.6828 H   0  0  0  0  0  0  0  0  0  0  0  0
  1  2  2  0  0  0  0
  1  6  1  0  0  0  0
  2  3  1  0  0  0  0
  3  4  2  0  0  0  0
  4 13  1  0  0  0  0
  5  4  1  0  0  0  0
  5 12  1  0  0  0  0
  6  5  2  0  0  0  0
  7  1  1  0  0  0  0
  8  2  1  0  0  0  0
  9 10  3  0  0  0  0
 11  6  1  0  0  0  0
M  RAD  1   3   2
M  END
