Coordinates from ORCA-job Ph-N2+-scan-d09-499-n800
 OpenBabel09191814153D

 13 12  0  0  0  0  0  0  0  0999 V2000
   -3.3689    0.2524   -1.2319 C   0  0  0  0  0  0  0  0  0  0  0  0
   -2.6557   -0.6253   -0.3465 C   0  0  0  0  0  0  0  0  0  0  0  0
   -2.5484    0.0725    0.7772 C   0  0  0  0  0  0  0  0  0  0  0  0
   -2.8079    1.2039    1.4201 C   0  0  0  0  0  0  0  0  0  0  0  0
   -3.5140    1.9972    0.4533 C   0  0  0  0  0  0  0  0  0  0  0  0
   -3.7802    1.5243   -0.8321 C   0  0  0  0  0  0  0  0  0  0  0  0
   -3.5636   -0.1417   -2.2269 H   0  0  0  0  0  0  0  0  0  0  0  0
   -2.3152   -1.6196   -0.6089 H   0  0  0  0  0  0  0  0  0  0  0  0
   10.7660    0.9943   -0.1074 N   0  0  0  0  0  0  0  0  0  0  0  0
   11.8703    1.0354   -0.1377 N   0  0  0  0  0  0  0  0  0  0  0  0
   -4.3156    2.1564   -1.5328 H   0  0  0  0  0  0  0  0  0  0  0  0
   -3.8236    2.9835    0.7916 H   0  0  0  0  0  0  0  0  0  0  0  0
   -2.5770    1.5246    2.4288 H   0  0  0  0  0  0  0  0  0  0  0  0
  1  6  2  0  0  0  0
  1  2  1  0  0  0  0
  2  3  2  0  0  0  0
  3  4  1  0  0  0  0
  4 13  1  0  0  0  0
  5 12  1  0  0  0  0
  5  4  2  0  0  0  0
  6  5  1  0  0  0  0
  7  1  1  0  0  0  0
  8  2  1  0  0  0  0
 10  9  3  0  0  0  0
 11  6  1  0  0  0  0
M  RAD  1   3   2
M  END
