Coordinates from ORCA-job Ph-N2+-scan-d09-499-n800
 OpenBabel09191814153D

 13 12  0  0  0  0  0  0  0  0999 V2000
   -2.6856    0.1971   -1.1847 C   0  0  0  0  0  0  0  0  0  0  0  0
   -1.3898   -0.1773   -0.6926 C   0  0  0  0  0  0  0  0  0  0  0  0
   -1.2148    0.5975    0.3704 C   0  0  0  0  0  0  0  0  0  0  0  0
   -1.7086    1.5472    1.1550 C   0  0  0  0  0  0  0  0  0  0  0  0
   -2.9898    1.8418    0.5779 C   0  0  0  0  0  0  0  0  0  0  0  0
   -3.4537    1.1796   -0.5592 C   0  0  0  0  0  0  0  0  0  0  0  0
   -3.0224   -0.3344   -2.0721 H   0  0  0  0  0  0  0  0  0  0  0  0
   -0.7554   -0.9326   -1.1415 H   0  0  0  0  0  0  0  0  0  0  0  0
    6.3896    0.6695    0.1335 N   0  0  0  0  0  0  0  0  0  0  0  0
    7.4944    0.6905    0.1048 N   0  0  0  0  0  0  0  0  0  0  0  0
   -4.4277    1.4333   -0.9636 H   0  0  0  0  0  0  0  0  0  0  0  0
   -3.5670    2.6122    1.0849 H   0  0  0  0  0  0  0  0  0  0  0  0
   -1.3028    2.0333    2.0341 H   0  0  0  0  0  0  0  0  0  0  0  0
  1  2  2  0  0  0  0
  1  6  1  0  0  0  0
  2  3  1  0  0  0  0
  3  4  2  0  0  0  0
  4 13  1  0  0  0  0
  5 12  1  0  0  0  0
  5  4  1  0  0  0  0
  6  5  2  0  0  0  0
  7  1  1  0  0  0  0
  8  2  1  0  0  0  0
 10  9  3  0  0  0  0
 11  6  1  0  0  0  0
M  RAD  1   3   2
M  END
