Coordinates from ORCA-job Ph-N2+-scan-d09-499-n800
 OpenBabel09191814153D

 13 12  0  0  0  0  0  0  0  0999 V2000
   -2.9152    0.2326   -1.2086 C   0  0  0  0  0  0  0  0  0  0  0  0
   -1.8016   -0.3522   -0.5161 C   0  0  0  0  0  0  0  0  0  0  0  0
   -1.6856    0.3834    0.5825 C   0  0  0  0  0  0  0  0  0  0  0  0
   -2.1408    1.4049    1.2971 C   0  0  0  0  0  0  0  0  0  0  0  0
   -3.2388    1.9084    0.5207 C   0  0  0  0  0  0  0  0  0  0  0  0
   -3.6056    1.3308   -0.6951 C   0  0  0  0  0  0  0  0  0  0  0  0
   -3.1799   -0.2372   -2.1533 H   0  0  0  0  0  0  0  0  0  0  0  0
   -1.2347   -1.2044   -0.8714 H   0  0  0  0  0  0  0  0  0  0  0  0
    8.0399    0.7548   -0.0165 N   0  0  0  0  0  0  0  0  0  0  0  0
    9.1439    0.8097   -0.0301 N   0  0  0  0  0  0  0  0  0  0  0  0
   -4.4416    1.7427   -1.2503 H   0  0  0  0  0  0  0  0  0  0  0  0
   -3.7579    2.7658    0.9435 H   0  0  0  0  0  0  0  0  0  0  0  0
   -1.8159    1.8183    2.2442 H   0  0  0  0  0  0  0  0  0  0  0  0
  1  6  2  0  0  0  0
  1  2  1  0  0  0  0
  2  3  2  0  0  0  0
  3  4  1  0  0  0  0
  4 13  1  0  0  0  0
  5 12  1  0  0  0  0
  5  4  2  0  0  0  0
  6  5  1  0  0  0  0
  7  1  1  0  0  0  0
  8  2  1  0  0  0  0
 10  9  3  0  0  0  0
 11  6  1  0  0  0  0
M  RAD  1   3   2
M  END
