Coordinates from ORCA-job Ph-N2+-scan-d09-499-n800
 OpenBabel09191814153D

 13 12  0  0  0  0  0  0  0  0999 V2000
   -2.6207    0.1539   -1.1511 C   0  0  0  0  0  0  0  0  0  0  0  0
   -1.2292   -0.0675   -0.8744 C   0  0  0  0  0  0  0  0  0  0  0  0
   -0.9716    0.7467    0.1413 C   0  0  0  0  0  0  0  0  0  0  0  0
   -1.4336    1.6566    0.9898 C   0  0  0  0  0  0  0  0  0  0  0  0
   -2.8156    1.7985    0.6271 C   0  0  0  0  0  0  0  0  0  0  0  0
   -3.3810    1.0634   -0.4154 C   0  0  0  0  0  0  0  0  0  0  0  0
   -3.0357   -0.4317   -1.9688 H   0  0  0  0  0  0  0  0  0  0  0  0
   -0.5960   -0.7599   -1.4167 H   0  0  0  0  0  0  0  0  0  0  0  0
    5.5531    0.6390    0.2750 N   0  0  0  0  0  0  0  0  0  0  0  0
    6.6584    0.6397    0.2922 N   0  0  0  0  0  0  0  0  0  0  0  0
   -4.4292    1.2022   -0.6588 H   0  0  0  0  0  0  0  0  0  0  0  0
   -3.3850    2.5135    1.2173 H   0  0  0  0  0  0  0  0  0  0  0  0
   -0.9474    2.2032    1.7892 H   0  0  0  0  0  0  0  0  0  0  0  0
  1  2  2  0  0  0  0
  1  6  1  0  0  0  0
  2  3  1  0  0  0  0
  3  4  2  0  0  0  0
  4 13  1  0  0  0  0
  5  4  1  0  0  0  0
  5 12  1  0  0  0  0
  6  5  2  0  0  0  0
  7  1  1  0  0  0  0
  8  2  1  0  0  0  0
  9 10  3  0  0  0  0
 11  6  1  0  0  0  0
M  RAD  1   3   2
M  END
