Coordinates from ORCA-job Ph-N2+-scan-d09-499-n800
 OpenBabel09191814153D

 13 12  0  0  0  0  0  0  0  0999 V2000
   -2.8278    0.2283   -1.2050 C   0  0  0  0  0  0  0  0  0  0  0  0
   -1.6752   -0.3137   -0.5421 C   0  0  0  0  0  0  0  0  0  0  0  0
   -1.5571    0.4276    0.5525 C   0  0  0  0  0  0  0  0  0  0  0  0
   -2.0306    1.4327    1.2784 C   0  0  0  0  0  0  0  0  0  0  0  0
   -3.1668    1.8939    0.5314 C   0  0  0  0  0  0  0  0  0  0  0  0
   -3.5444    1.3011   -0.6738 C   0  0  0  0  0  0  0  0  0  0  0  0
   -3.1000   -0.2525   -2.1419 H   0  0  0  0  0  0  0  0  0  0  0  0
   -1.0866   -1.1449   -0.9118 H   0  0  0  0  0  0  0  0  0  0  0  0
    7.5313    0.7272   -0.0020 N   0  0  0  0  0  0  0  0  0  0  0  0
    8.6351    0.7857   -0.0157 N   0  0  0  0  0  0  0  0  0  0  0  0
   -4.4096    1.6809   -1.2066 H   0  0  0  0  0  0  0  0  0  0  0  0
   -3.7059    2.7322    0.9673 H   0  0  0  0  0  0  0  0  0  0  0  0
   -1.6959    1.8594    2.2161 H   0  0  0  0  0  0  0  0  0  0  0  0
  1  6  2  0  0  0  0
  1  2  1  0  0  0  0
  2  3  2  0  0  0  0
  3  4  1  0  0  0  0
  4 13  1  0  0  0  0
  5 12  1  0  0  0  0
  5  4  2  0  0  0  0
  6  5  1  0  0  0  0
  7  1  1  0  0  0  0
  8  2  1  0  0  0  0
 10  9  3  0  0  0  0
 11  6  1  0  0  0  0
M  RAD  1   3   2
M  END
