Coordinates from ORCA-job Ph-N2+-scan-d09-499-n800
 OpenBabel09191814153D

 13 12  0  0  0  0  0  0  0  0999 V2000
   -2.1748    0.1082   -1.1010 C   0  0  0  0  0  0  0  0  0  0  0  0
   -0.7485   -0.0044   -0.9986 C   0  0  0  0  0  0  0  0  0  0  0  0
   -0.4237    0.8357   -0.0226 C   0  0  0  0  0  0  0  0  0  0  0  0
   -0.8504    1.7150    0.8767 C   0  0  0  0  0  0  0  0  0  0  0  0
   -2.2722    1.7497    0.6892 C   0  0  0  0  0  0  0  0  0  0  0  0
   -2.9048    0.9645   -0.2756 C   0  0  0  0  0  0  0  0  0  0  0  0
   -2.6448   -0.5133   -1.8602 H   0  0  0  0  0  0  0  0  0  0  0  0
   -0.1346   -0.6509   -1.6138 H   0  0  0  0  0  0  0  0  0  0  0  0
    2.7654    0.7181    0.2496 N   0  0  0  0  0  0  0  0  0  0  0  0
    3.8666    0.6873    0.3360 N   0  0  0  0  0  0  0  0  0  0  0  0
   -3.9829    1.0213   -0.3864 H   0  0  0  0  0  0  0  0  0  0  0  0
   -2.8191    2.4240    1.3446 H   0  0  0  0  0  0  0  0  0  0  0  0
   -0.3098    2.3023    1.6089 H   0  0  0  0  0  0  0  0  0  0  0  0
  1  2  2  0  0  0  0
  1  6  1  0  0  0  0
  2  3  1  0  0  0  0
  3  4  2  0  0  0  0
  4 13  1  0  0  0  0
  5  4  1  0  0  0  0
  5 12  1  0  0  0  0
  6  5  2  0  0  0  0
  7  1  1  0  0  0  0
  8  2  1  0  0  0  0
  9 10  3  0  0  0  0
 11  6  1  0  0  0  0
M  RAD  1   3   2
M  END
