Coordinates from ORCA-job Ph-N2+-scan-d09-499-n800
 OpenBabel09191814153D

 13 12  0  0  0  0  0  0  0  0999 V2000
   -3.3329    0.2752   -1.2352 C   0  0  0  0  0  0  0  0  0  0  0  0
   -2.9326   -0.6926   -0.2527 C   0  0  0  0  0  0  0  0  0  0  0  0
   -2.9837   -0.0247    0.8930 C   0  0  0  0  0  0  0  0  0  0  0  0
   -3.2322    1.1252    1.5075 C   0  0  0  0  0  0  0  0  0  0  0  0
   -3.6185    2.0092    0.4433 C   0  0  0  0  0  0  0  0  0  0  0  0
   -3.6634    1.5849   -0.8852 C   0  0  0  0  0  0  0  0  0  0  0  0
   -3.3585   -0.0819   -2.2626 H   0  0  0  0  0  0  0  0  0  0  0  0
   -2.6620   -1.7181   -0.4734 H   0  0  0  0  0  0  0  0  0  0  0  0
   11.5282    1.0641   -0.2451 N   0  0  0  0  0  0  0  0  0  0  0  0
   12.6324    1.1016   -0.2811 N   0  0  0  0  0  0  0  0  0  0  0  0
   -3.9595    2.2853   -1.6590 H   0  0  0  0  0  0  0  0  0  0  0  0
   -3.8717    3.0233    0.7446 H   0  0  0  0  0  0  0  0  0  0  0  0
   -3.1794    1.4062    2.5527 H   0  0  0  0  0  0  0  0  0  0  0  0
  1  6  2  0  0  0  0
  1  2  1  0  0  0  0
  2  3  2  0  0  0  0
  3  4  1  0  0  0  0
  4 13  1  0  0  0  0
  5 12  1  0  0  0  0
  5  4  2  0  0  0  0
  6  5  1  0  0  0  0
  7  1  1  0  0  0  0
  8  2  1  0  0  0  0
 10  9  3  0  0  0  0
 11  6  1  0  0  0  0
M  RAD  1   3   2
M  END
