Coordinates from ORCA-job Ph-N2+-scan-d09-499-n800
 OpenBabel09191814153D

 13 12  0  0  0  0  0  0  0  0999 V2000
   -2.3305    0.1201   -1.1168 C   0  0  0  0  0  0  0  0  0  0  0  0
   -0.9080   -0.0156   -0.9766 C   0  0  0  0  0  0  0  0  0  0  0  0
   -0.6021    0.8195    0.0085 C   0  0  0  0  0  0  0  0  0  0  0  0
   -1.0335    1.7053    0.8976 C   0  0  0  0  0  0  0  0  0  0  0  0
   -2.4502    1.7619    0.6711 C   0  0  0  0  0  0  0  0  0  0  0  0
   -3.0690    0.9874   -0.3109 C   0  0  0  0  0  0  0  0  0  0  0  0
   -2.7876   -0.4943   -1.8896 H   0  0  0  0  0  0  0  0  0  0  0  0
   -0.2889   -0.6717   -1.5767 H   0  0  0  0  0  0  0  0  0  0  0  0
    3.6911    0.6856    0.2853 N   0  0  0  0  0  0  0  0  0  0  0  0
    4.7945    0.6684    0.3473 N   0  0  0  0  0  0  0  0  0  0  0  0
   -4.1426    1.0614   -0.4509 H   0  0  0  0  0  0  0  0  0  0  0  0
   -3.0022    2.4452    1.3132 H   0  0  0  0  0  0  0  0  0  0  0  0
   -0.5047    2.2845    1.6453 H   0  0  0  0  0  0  0  0  0  0  0  0
  1  2  2  0  0  0  0
  1  6  1  0  0  0  0
  2  3  1  0  0  0  0
  3  4  2  0  0  0  0
  4 13  1  0  0  0  0
  5  4  1  0  0  0  0
  5 12  1  0  0  0  0
  6  5  2  0  0  0  0
  7  1  1  0  0  0  0
  8  2  1  0  0  0  0
  9 10  3  0  0  0  0
 11  6  1  0  0  0  0
M  RAD  1   3   2
M  END
