Coordinates from ORCA-job Ph-N2+-scan-d09-499-n800
 OpenBabel09191814153D

 13 12  0  0  0  0  0  0  0  0999 V2000
   -3.3604    0.2444   -1.2255 C   0  0  0  0  0  0  0  0  0  0  0  0
   -2.5488   -0.5892   -0.3838 C   0  0  0  0  0  0  0  0  0  0  0  0
   -2.4122    0.1175    0.7311 C   0  0  0  0  0  0  0  0  0  0  0  0
   -2.6903    1.2384    1.3852 C   0  0  0  0  0  0  0  0  0  0  0  0
   -3.4951    1.9878    0.4619 C   0  0  0  0  0  0  0  0  0  0  0  0
   -3.8138    1.4946   -0.8038 C   0  0  0  0  0  0  0  0  0  0  0  0
   -3.5940   -0.1643   -2.2061 H   0  0  0  0  0  0  0  0  0  0  0  0
   -2.1718   -1.5652   -0.6648 H   0  0  0  0  0  0  0  0  0  0  0  0
   10.5105    0.9622   -0.0703 N   0  0  0  0  0  0  0  0  0  0  0  0
   11.6149    1.0022   -0.0982 N   0  0  0  0  0  0  0  0  0  0  0  0
   -4.4236    2.0940   -1.4718 H   0  0  0  0  0  0  0  0  0  0  0  0
   -3.8349    2.9584    0.8162 H   0  0  0  0  0  0  0  0  0  0  0  0
   -2.4144    1.5769    2.3766 H   0  0  0  0  0  0  0  0  0  0  0  0
  1  6  2  0  0  0  0
  1  2  1  0  0  0  0
  2  3  2  0  0  0  0
  3  4  1  0  0  0  0
  4 13  1  0  0  0  0
  5 12  1  0  0  0  0
  5  4  2  0  0  0  0
  6  5  1  0  0  0  0
  7  1  1  0  0  0  0
  8  2  1  0  0  0  0
 10  9  3  0  0  0  0
 11  6  1  0  0  0  0
M  RAD  1   3   2
M  END
