Coordinates from ORCA-job Ph-N2+-scan-d09-499-n800
 OpenBabel09191814153D

 13 12  0  0  0  0  0  0  0  0999 V2000
   -2.4290    0.1302   -1.1270 C   0  0  0  0  0  0  0  0  0  0  0  0
   -1.0125   -0.0222   -0.9471 C   0  0  0  0  0  0  0  0  0  0  0  0
   -0.7254    0.8085    0.0472 C   0  0  0  0  0  0  0  0  0  0  0  0
   -1.1711    1.6992    0.9244 C   0  0  0  0  0  0  0  0  0  0  0  0
   -2.5802    1.7724    0.6579 C   0  0  0  0  0  0  0  0  0  0  0  0
   -3.1799    1.0056   -0.3418 C   0  0  0  0  0  0  0  0  0  0  0  0
   -2.8710   -0.4787   -1.9130 H   0  0  0  0  0  0  0  0  0  0  0  0
   -0.3850   -0.6854   -1.5306 H   0  0  0  0  0  0  0  0  0  0  0  0
    4.3319    0.6569    0.2860 N   0  0  0  0  0  0  0  0  0  0  0  0
    5.4362    0.6451    0.3307 N   0  0  0  0  0  0  0  0  0  0  0  0
   -4.2481    1.0923   -0.5122 H   0  0  0  0  0  0  0  0  0  0  0  0
   -3.1419    2.4617    1.2848 H   0  0  0  0  0  0  0  0  0  0  0  0
   -0.6576    2.2721    1.6874 H   0  0  0  0  0  0  0  0  0  0  0  0
  1  2  2  0  0  0  0
  1  6  1  0  0  0  0
  2  3  1  0  0  0  0
  3  4  2  0  0  0  0
  4 13  1  0  0  0  0
  5  4  1  0  0  0  0
  5 12  1  0  0  0  0
  6  5  2  0  0  0  0
  7  1  1  0  0  0  0
  8  2  1  0  0  0  0
  9 10  3  0  0  0  0
 11  6  1  0  0  0  0
M  RAD  1   3   2
M  END
