Coordinates from ORCA-job Ph-N2+-scan-d09-499-n800
 OpenBabel09191814153D

 13 12  0  0  0  0  0  0  0  0999 V2000
   -2.1539    0.1070   -1.0990 C   0  0  0  0  0  0  0  0  0  0  0  0
   -0.7278   -0.0032   -0.9988 C   0  0  0  0  0  0  0  0  0  0  0  0
   -0.3999    0.8371   -0.0233 C   0  0  0  0  0  0  0  0  0  0  0  0
   -0.8291    1.7157    0.8761 C   0  0  0  0  0  0  0  0  0  0  0  0
   -2.2506    1.7485    0.6914 C   0  0  0  0  0  0  0  0  0  0  0  0
   -2.8838    0.9623   -0.2723 C   0  0  0  0  0  0  0  0  0  0  0  0
   -2.6250   -0.5149   -1.8571 H   0  0  0  0  0  0  0  0  0  0  0  0
   -0.1143   -0.6489   -1.6150 H   0  0  0  0  0  0  0  0  0  0  0  0
    2.6491    0.7216    0.2418 N   0  0  0  0  0  0  0  0  0  0  0  0
    3.7501    0.6893    0.3296 N   0  0  0  0  0  0  0  0  0  0  0  0
   -3.9622    1.0176   -0.3813 H   0  0  0  0  0  0  0  0  0  0  0  0
   -2.7981    2.4219    1.3473 H   0  0  0  0  0  0  0  0  0  0  0  0
   -0.2882    2.3039    1.6073 H   0  0  0  0  0  0  0  0  0  0  0  0
  1  2  2  0  0  0  0
  1  6  1  0  0  0  0
  2  3  1  0  0  0  0
  3  4  2  0  0  0  0
  4 13  1  0  0  0  0
  5  4  1  0  0  0  0
  5 12  1  0  0  0  0
  6  5  2  0  0  0  0
  7  1  1  0  0  0  0
  8  2  1  0  0  0  0
  9 10  3  0  0  0  0
 11  6  1  0  0  0  0
M  RAD  1   3   2
M  END
