Coordinates from ORCA-job Ph-N2+-scan-d09-499-n800
 OpenBabel09191814153D

 13 12  0  0  0  0  0  0  0  0999 V2000
   -3.3536    0.2700   -1.2373 C   0  0  0  0  0  0  0  0  0  0  0  0
   -2.8972   -0.6866   -0.2683 C   0  0  0  0  0  0  0  0  0  0  0  0
   -2.9086   -0.0132    0.8753 C   0  0  0  0  0  0  0  0  0  0  0  0
   -3.1469    1.1364    1.4943 C   0  0  0  0  0  0  0  0  0  0  0  0
   -3.5916    2.0090    0.4434 C   0  0  0  0  0  0  0  0  0  0  0  0
   -3.6876    1.5768   -0.8798 C   0  0  0  0  0  0  0  0  0  0  0  0
   -3.4186   -0.0932   -2.2608 H   0  0  0  0  0  0  0  0  0  0  0  0
   -2.6219   -1.7095   -0.4954 H   0  0  0  0  0  0  0  0  0  0  0  0
   11.4068    1.0577   -0.2159 N   0  0  0  0  0  0  0  0  0  0  0  0
   12.5111    1.0966   -0.2504 N   0  0  0  0  0  0  0  0  0  0  0  0
   -4.0267    2.2687   -1.6436 H   0  0  0  0  0  0  0  0  0  0  0  0
   -3.8462    3.0210    0.7504 H   0  0  0  0  0  0  0  0  0  0  0  0
   -3.0528    1.4240    2.5348 H   0  0  0  0  0  0  0  0  0  0  0  0
  1  6  2  0  0  0  0
  1  2  1  0  0  0  0
  2  3  2  0  0  0  0
  3  4  1  0  0  0  0
  4 13  1  0  0  0  0
  5 12  1  0  0  0  0
  5  4  2  0  0  0  0
  6  5  1  0  0  0  0
  7  1  1  0  0  0  0
  8  2  1  0  0  0  0
 10  9  3  0  0  0  0
 11  6  1  0  0  0  0
M  RAD  1   3   2
M  END
