Coordinates from ORCA-job Ph-N2+-scan-d09-499-n800
 OpenBabel09191814153D

 13 12  0  0  0  0  0  0  0  0999 V2000
   -3.0449    0.2368   -1.2131 C   0  0  0  0  0  0  0  0  0  0  0  0
   -1.9922   -0.4103   -0.4817 C   0  0  0  0  0  0  0  0  0  0  0  0
   -1.8740    0.3182    0.6213 C   0  0  0  0  0  0  0  0  0  0  0  0
   -2.2953    1.3647    1.3204 C   0  0  0  0  0  0  0  0  0  0  0  0
   -3.3339    1.9299    0.5056 C   0  0  0  0  0  0  0  0  0  0  0  0
   -3.6891    1.3733   -0.7234 C   0  0  0  0  0  0  0  0  0  0  0  0
   -3.3018   -0.2177   -2.1674 H   0  0  0  0  0  0  0  0  0  0  0  0
   -1.4626   -1.2937   -0.8176 H   0  0  0  0  0  0  0  0  0  0  0  0
    8.7674    0.8047   -0.0262 N   0  0  0  0  0  0  0  0  0  0  0  0
    9.8718    0.8447   -0.0529 N   0  0  0  0  0  0  0  0  0  0  0  0
   -4.4796    1.8321   -1.3080 H   0  0  0  0  0  0  0  0  0  0  0  0
   -3.8179    2.8158    0.9105 H   0  0  0  0  0  0  0  0  0  0  0  0
   -1.9817    1.7593    2.2792 H   0  0  0  0  0  0  0  0  0  0  0  0
  1  6  2  0  0  0  0
  1  2  1  0  0  0  0
  2  3  2  0  0  0  0
  3  4  1  0  0  0  0
  4 13  1  0  0  0  0
  5 12  1  0  0  0  0
  5  4  2  0  0  0  0
  6  5  1  0  0  0  0
  7  1  1  0  0  0  0
  8  2  1  0  0  0  0
 10  9  3  0  0  0  0
 11  6  1  0  0  0  0
M  RAD  1   3   2
M  END
