Coordinates from ORCA-job Ph-N2+-scan-d09-499-n800
 OpenBabel09191814153D

 13 12  0  0  0  0  0  0  0  0999 V2000
   -2.9455    0.2339   -1.2098 C   0  0  0  0  0  0  0  0  0  0  0  0
   -1.8454   -0.3649   -0.5077 C   0  0  0  0  0  0  0  0  0  0  0  0
   -1.7299    0.3688    0.5921 C   0  0  0  0  0  0  0  0  0  0  0  0
   -2.1786    1.3958    1.3031 C   0  0  0  0  0  0  0  0  0  0  0  0
   -3.2632    1.9132    0.5172 C   0  0  0  0  0  0  0  0  0  0  0  0
   -3.6265    1.3406   -0.7020 C   0  0  0  0  0  0  0  0  0  0  0  0
   -3.2077   -0.2323   -2.1569 H   0  0  0  0  0  0  0  0  0  0  0  0
   -1.2861   -1.2241   -0.8583 H   0  0  0  0  0  0  0  0  0  0  0  0
    8.2148    0.7655   -0.0193 N   0  0  0  0  0  0  0  0  0  0  0  0
    9.3189    0.8167   -0.0362 N   0  0  0  0  0  0  0  0  0  0  0  0
   -4.4525    1.7630   -1.2643 H   0  0  0  0  0  0  0  0  0  0  0  0
   -3.7753    2.7769    0.9358 H   0  0  0  0  0  0  0  0  0  0  0  0
   -1.8568    1.8048    2.2532 H   0  0  0  0  0  0  0  0  0  0  0  0
  1  6  2  0  0  0  0
  1  2  1  0  0  0  0
  2  3  2  0  0  0  0
  3  4  1  0  0  0  0
  4 13  1  0  0  0  0
  5 12  1  0  0  0  0
  5  4  2  0  0  0  0
  6  5  1  0  0  0  0
  7  1  1  0  0  0  0
  8  2  1  0  0  0  0
 10  9  3  0  0  0  0
 11  6  1  0  0  0  0
M  RAD  1   3   2
M  END
