Coordinates from ORCA-job Ph-N2+-scan-d09-499-n800
 OpenBabel09191814153D

 13 12  0  0  0  0  0  0  0  0999 V2000
   -2.7080    0.2182   -1.1971 C   0  0  0  0  0  0  0  0  0  0  0  0
   -1.4831   -0.2350   -0.6005 C   0  0  0  0  0  0  0  0  0  0  0  0
   -1.3569    0.5194    0.4840 C   0  0  0  0  0  0  0  0  0  0  0  0
   -1.8605    1.4909    1.2349 C   0  0  0  0  0  0  0  0  0  0  0  0
   -3.0681    1.8641    0.5537 C   0  0  0  0  0  0  0  0  0  0  0  0
   -3.4695    1.2390   -0.6272 C   0  0  0  0  0  0  0  0  0  0  0  0
   -2.9973   -0.2862   -2.1164 H   0  0  0  0  0  0  0  0  0  0  0  0
   -0.8572   -1.0230   -1.0024 H   0  0  0  0  0  0  0  0  0  0  0  0
    6.7987    0.6870    0.0469 N   0  0  0  0  0  0  0  0  0  0  0  0
    7.9030    0.7220    0.0109 N   0  0  0  0  0  0  0  0  0  0  0  0
   -4.3889    1.5520   -1.1101 H   0  0  0  0  0  0  0  0  0  0  0  0
   -3.6413    2.6634    1.0188 H   0  0  0  0  0  0  0  0  0  0  0  0
   -1.5047    1.9460    2.1513 H   0  0  0  0  0  0  0  0  0  0  0  0
  1  6  2  0  0  0  0
  1  2  1  0  0  0  0
  2  3  2  0  0  0  0
  3  4  1  0  0  0  0
  4 13  1  0  0  0  0
  5 12  1  0  0  0  0
  5  4  2  0  0  0  0
  6  5  1  0  0  0  0
  7  1  1  0  0  0  0
  8  2  1  0  0  0  0
 10  9  3  0  0  0  0
 11  6  1  0  0  0  0
M  RAD  1   3   2
M  END
