Coordinates from ORCA-job Ph-N2+-scan-d09-499-n800
 OpenBabel09191814153D

 13 12  0  0  0  0  0  0  0  0999 V2000
   -3.1940    0.3034   -1.2044 C   0  0  0  0  0  0  0  0  0  0  0  0
   -3.0028   -0.6972   -0.1930 C   0  0  0  0  0  0  0  0  0  0  0  0
   -3.2486   -0.0556    0.9425 C   0  0  0  0  0  0  0  0  0  0  0  0
   -3.5818    1.0853    1.5330 C   0  0  0  0  0  0  0  0  0  0  0  0
   -3.7461    2.0041    0.4411 C   0  0  0  0  0  0  0  0  0  0  0  0
   -3.5553    1.6128   -0.8843 C   0  0  0  0  0  0  0  0  0  0  0  0
   -3.0364   -0.0281   -2.2287 H   0  0  0  0  0  0  0  0  0  0  0  0
   -2.7184   -1.7241   -0.3890 H   0  0  0  0  0  0  0  0  0  0  0  0
   11.8910    1.0655   -0.3723 N   0  0  0  0  0  0  0  0  0  0  0  0
   12.9952    1.0961   -0.4158 N   0  0  0  0  0  0  0  0  0  0  0  0
   -3.6899    2.3386   -1.6793 H   0  0  0  0  0  0  0  0  0  0  0  0
   -4.0284    3.0172    0.7196 H   0  0  0  0  0  0  0  0  0  0  0  0
   -3.7182    1.3398    2.5773 H   0  0  0  0  0  0  0  0  0  0  0  0
  1  6  2  0  0  0  0
  1  2  1  0  0  0  0
  2  3  2  0  0  0  0
  3  4  1  0  0  0  0
  4 13  1  0  0  0  0
  5 12  1  0  0  0  0
  5  4  2  0  0  0  0
  6  5  1  0  0  0  0
  7  1  1  0  0  0  0
  8  2  1  0  0  0  0
 10  9  3  0  0  0  0
 11  6  1  0  0  0  0
M  RAD  1   3   2
M  END
