Coordinates from ORCA-job Ph-N2+-scan-d09-499-n800
 OpenBabel09191814153D

 13 12  0  0  0  0  0  0  0  0999 V2000
   -2.4548    0.1329   -1.1297 C   0  0  0  0  0  0  0  0  0  0  0  0
   -1.0404   -0.0246   -0.9389 C   0  0  0  0  0  0  0  0  0  0  0  0
   -0.7581    0.8048    0.0580 C   0  0  0  0  0  0  0  0  0  0  0  0
   -1.2075    1.6969    0.9319 C   0  0  0  0  0  0  0  0  0  0  0  0
   -2.6141    1.7752    0.6543 C   0  0  0  0  0  0  0  0  0  0  0  0
   -3.2087    1.0108   -0.3503 C   0  0  0  0  0  0  0  0  0  0  0  0
   -2.8928   -0.4741   -1.9194 H   0  0  0  0  0  0  0  0  0  0  0  0
   -0.4107   -0.6899   -1.5177 H   0  0  0  0  0  0  0  0  0  0  0  0
    4.5002    0.6503    0.2854 N   0  0  0  0  0  0  0  0  0  0  0  0
    5.6047    0.6398    0.3262 N   0  0  0  0  0  0  0  0  0  0  0  0
   -4.2752    1.1015   -0.5290 H   0  0  0  0  0  0  0  0  0  0  0  0
   -3.1782    2.4665    1.2770 H   0  0  0  0  0  0  0  0  0  0  0  0
   -0.6979    2.2678    1.6990 H   0  0  0  0  0  0  0  0  0  0  0  0
  1  2  2  0  0  0  0
  1  6  1  0  0  0  0
  2  3  1  0  0  0  0
  3  4  2  0  0  0  0
  4 13  1  0  0  0  0
  5  4  1  0  0  0  0
  5 12  1  0  0  0  0
  6  5  2  0  0  0  0
  7  1  1  0  0  0  0
  8  2  1  0  0  0  0
  9 10  3  0  0  0  0
 11  6  1  0  0  0  0
M  RAD  1   3   2
M  END
