Coordinates from ORCA-job Ph-N2+-scan-d09-499-n800
 OpenBabel09191814153D

 13 12  0  0  0  0  0  0  0  0999 V2000
   -3.0596    0.2371   -1.2136 C   0  0  0  0  0  0  0  0  0  0  0  0
   -2.0146   -0.4177   -0.4780 C   0  0  0  0  0  0  0  0  0  0  0  0
   -1.8952    0.3101    0.6254 C   0  0  0  0  0  0  0  0  0  0  0  0
   -2.3114    1.3599    1.3226 C   0  0  0  0  0  0  0  0  0  0  0  0
   -3.3426    1.9325    0.5038 C   0  0  0  0  0  0  0  0  0  0  0  0
   -3.6973    1.3783   -0.7264 C   0  0  0  0  0  0  0  0  0  0  0  0
   -3.3163   -0.2157   -2.1687 H   0  0  0  0  0  0  0  0  0  0  0  0
   -1.4902   -1.3051   -0.8118 H   0  0  0  0  0  0  0  0  0  0  0  0
    8.8457    0.8109   -0.0272 N   0  0  0  0  0  0  0  0  0  0  0  0
    9.9501    0.8501   -0.0545 N   0  0  0  0  0  0  0  0  0  0  0  0
   -4.4822    1.8429   -1.3141 H   0  0  0  0  0  0  0  0  0  0  0  0
   -3.8216    2.8221    0.9068 H   0  0  0  0  0  0  0  0  0  0  0  0
   -1.9985    1.7523    2.2826 H   0  0  0  0  0  0  0  0  0  0  0  0
  1  6  2  0  0  0  0
  1  2  1  0  0  0  0
  2  3  2  0  0  0  0
  3  4  1  0  0  0  0
  4 13  1  0  0  0  0
  5 12  1  0  0  0  0
  5  4  2  0  0  0  0
  6  5  1  0  0  0  0
  7  1  1  0  0  0  0
  8  2  1  0  0  0  0
 10  9  3  0  0  0  0
 11  6  1  0  0  0  0
M  RAD  1   3   2
M  END
