Coordinates from ORCA-job Ph-N2+-scan-d09-499-n800
 OpenBabel09191814153D

 13 12  0  0  0  0  0  0  0  0999 V2000
   -3.3730    0.2569   -1.2350 C   0  0  0  0  0  0  0  0  0  0  0  0
   -2.7318   -0.6484   -0.3229 C   0  0  0  0  0  0  0  0  0  0  0  0
   -2.6472    0.0427    0.8069 C   0  0  0  0  0  0  0  0  0  0  0  0
   -2.8921    1.1818    1.4420 C   0  0  0  0  0  0  0  0  0  0  0  0
   -3.5258    2.0027    0.4485 C   0  0  0  0  0  0  0  0  0  0  0  0
   -3.7537    1.5425   -0.8489 C   0  0  0  0  0  0  0  0  0  0  0  0
   -3.5392   -0.1279   -2.2388 H   0  0  0  0  0  0  0  0  0  0  0  0
   -2.4171   -1.6542   -0.5739 H   0  0  0  0  0  0  0  0  0  0  0  0
   10.9414    1.0170   -0.1337 N   0  0  0  0  0  0  0  0  0  0  0  0
   12.0456    1.0584   -0.1653 N   0  0  0  0  0  0  0  0  0  0  0  0
   -4.2345    2.1954   -1.5697 H   0  0  0  0  0  0  0  0  0  0  0  0
   -3.8133    2.9990    0.7768 H   0  0  0  0  0  0  0  0  0  0  0  0
   -2.6930    1.4919    2.4608 H   0  0  0  0  0  0  0  0  0  0  0  0
  1  6  2  0  0  0  0
  1  2  1  0  0  0  0
  2  3  2  0  0  0  0
  3  4  1  0  0  0  0
  4 13  1  0  0  0  0
  5 12  1  0  0  0  0
  5  4  2  0  0  0  0
  6  5  1  0  0  0  0
  7  1  1  0  0  0  0
  8  2  1  0  0  0  0
 10  9  3  0  0  0  0
 11  6  1  0  0  0  0
M  RAD  1   3   2
M  END
