Coordinates from ORCA-job Ph-N2+-scan-d09-499-n800
 OpenBabel09191814153D

 13 12  0  0  0  0  0  0  0  0999 V2000
   -3.0936    0.3270   -1.1615 C   0  0  0  0  0  0  0  0  0  0  0  0
   -3.0291   -0.6923   -0.1528 C   0  0  0  0  0  0  0  0  0  0  0  0
   -3.4162   -0.0724    0.9549 C   0  0  0  0  0  0  0  0  0  0  0  0
   -3.8206    1.0582    1.5203 C   0  0  0  0  0  0  0  0  0  0  0  0
   -3.8486    1.9974    0.4338 C   0  0  0  0  0  0  0  0  0  0  0  0
   -3.4929    1.6307   -0.8643 C   0  0  0  0  0  0  0  0  0  0  0  0
   -2.8091    0.0145   -2.1640 H   0  0  0  0  0  0  0  0  0  0  0  0
   -2.7215   -1.7158   -0.3307 H   0  0  0  0  0  0  0  0  0  0  0  0
   12.1371    1.0574   -0.4605 N   0  0  0  0  0  0  0  0  0  0  0  0
   13.2412    1.0826   -0.5095 N   0  0  0  0  0  0  0  0  0  0  0  0
   -3.5272    2.3717   -1.6561 H   0  0  0  0  0  0  0  0  0  0  0  0
   -4.1650    3.0053    0.6938 H   0  0  0  0  0  0  0  0  0  0  0  0
   -4.0883    1.2934    2.5435 H   0  0  0  0  0  0  0  0  0  0  0  0
  1  6  2  0  0  0  0
  1  2  1  0  0  0  0
  2  3  2  0  0  0  0
  3  4  1  0  0  0  0
  4 13  1  0  0  0  0
  5 12  1  0  0  0  0
  5  4  2  0  0  0  0
  6  5  1  0  0  0  0
  7  1  1  0  0  0  0
  8  2  1  0  0  0  0
 10  9  3  0  0  0  0
 11  6  1  0  0  0  0
M  RAD  1   3   2
M  END
