Coordinates from ORCA-job Ph-N2+-scan-d09-499-n800
 OpenBabel09191814153D

 13 12  0  0  0  0  0  0  0  0999 V2000
   -3.3652    0.2657   -1.2378 C   0  0  0  0  0  0  0  0  0  0  0  0
   -2.8596   -0.6800   -0.2825 C   0  0  0  0  0  0  0  0  0  0  0  0
   -2.8390   -0.0017    0.8581 C   0  0  0  0  0  0  0  0  0  0  0  0
   -3.0712    1.1471    1.4811 C   0  0  0  0  0  0  0  0  0  0  0  0
   -3.5670    2.0084    0.4438 C   0  0  0  0  0  0  0  0  0  0  0  0
   -3.7050    1.5691   -0.8733 C   0  0  0  0  0  0  0  0  0  0  0  0
   -3.4625   -0.1029   -2.2568 H   0  0  0  0  0  0  0  0  0  0  0  0
   -2.5781   -1.6998   -0.5155 H   0  0  0  0  0  0  0  0  0  0  0  0
   11.2797    1.0502   -0.1909 N   0  0  0  0  0  0  0  0  0  0  0  0
   12.3839    1.0905   -0.2246 N   0  0  0  0  0  0  0  0  0  0  0  0
   -4.0817    2.2527   -1.6269 H   0  0  0  0  0  0  0  0  0  0  0  0
   -3.8248    3.0181    0.7559 H   0  0  0  0  0  0  0  0  0  0  0  0
   -2.9430    1.4405    2.5162 H   0  0  0  0  0  0  0  0  0  0  0  0
  1  6  2  0  0  0  0
  1  2  1  0  0  0  0
  2  3  2  0  0  0  0
  3  4  1  0  0  0  0
  4 13  1  0  0  0  0
  5 12  1  0  0  0  0
  5  4  2  0  0  0  0
  6  5  1  0  0  0  0
  7  1  1  0  0  0  0
  8  2  1  0  0  0  0
 10  9  3  0  0  0  0
 11  6  1  0  0  0  0
M  RAD  1   3   2
M  END
