Coordinates from ORCA-job Ph-N2+-scan-d09-499-n800
 OpenBabel09191814153D

 13 12  0  0  0  0  0  0  0  0999 V2000
   -2.0151    0.0989   -1.0871 C   0  0  0  0  0  0  0  0  0  0  0  0
   -0.6035    0.0042   -0.9893 C   0  0  0  0  0  0  0  0  0  0  0  0
   -0.1896    0.8377   -0.0137 C   0  0  0  0  0  0  0  0  0  0  0  0
   -0.7033    1.7126    0.8744 C   0  0  0  0  0  0  0  0  0  0  0  0
   -2.1111    1.7429    0.7064 C   0  0  0  0  0  0  0  0  0  0  0  0
   -2.7447    0.9514   -0.2548 C   0  0  0  0  0  0  0  0  0  0  0  0
   -2.5029   -0.5187   -1.8363 H   0  0  0  0  0  0  0  0  0  0  0  0
    0.0026   -0.6404   -1.6122 H   0  0  0  0  0  0  0  0  0  0  0  0
    1.9013    0.7496    0.1784 N   0  0  0  0  0  0  0  0  0  0  0  0
    2.9999    0.7048    0.2777 N   0  0  0  0  0  0  0  0  0  0  0  0
   -3.8240    1.0004   -0.3575 H   0  0  0  0  0  0  0  0  0  0  0  0
   -2.6738    2.4074    1.3565 H   0  0  0  0  0  0  0  0  0  0  0  0
   -0.1696    2.3070    1.6043 H   0  0  0  0  0  0  0  0  0  0  0  0
  1  2  2  0  0  0  0
  1  6  1  0  0  0  0
  2  3  1  0  0  0  0
  3  4  2  0  0  0  0
  4 13  1  0  0  0  0
  5  4  1  0  0  0  0
  5 12  1  0  0  0  0
  6  5  2  0  0  0  0
  7  1  1  0  0  0  0
  8  2  1  0  0  0  0
  9 10  3  0  0  0  0
 11  6  1  0  0  0  0
M  RAD  1   3   2
M  END
