Coordinates from ORCA-job Ph-N2+-scan-d09-499-n800
 OpenBabel09191814153D

 13 12  0  0  0  0  0  0  0  0999 V2000
   -2.0071    0.0982   -1.0867 C   0  0  0  0  0  0  0  0  0  0  0  0
   -0.5977    0.0049   -0.9881 C   0  0  0  0  0  0  0  0  0  0  0  0
   -0.1715    0.8371   -0.0122 C   0  0  0  0  0  0  0  0  0  0  0  0
   -0.6974    1.7117    0.8739 C   0  0  0  0  0  0  0  0  0  0  0  0
   -2.1032    1.7429    0.7075 C   0  0  0  0  0  0  0  0  0  0  0  0
   -2.7367    0.9510   -0.2540 C   0  0  0  0  0  0  0  0  0  0  0  0
   -2.4972   -0.5183   -1.8350 H   0  0  0  0  0  0  0  0  0  0  0  0
    0.0077   -0.6400   -1.6114 H   0  0  0  0  0  0  0  0  0  0  0  0
    1.8595    0.7513    0.1747 N   0  0  0  0  0  0  0  0  0  0  0  0
    2.9581    0.7063    0.2742 N   0  0  0  0  0  0  0  0  0  0  0  0
   -3.8160    0.9998   -0.3565 H   0  0  0  0  0  0  0  0  0  0  0  0
   -2.6679    2.4064    1.3563 H   0  0  0  0  0  0  0  0  0  0  0  0
   -0.1645    2.3065    1.6041 H   0  0  0  0  0  0  0  0  0  0  0  0
  1  2  2  0  0  0  0
  1  6  1  0  0  0  0
  2  3  1  0  0  0  0
  3  4  2  0  0  0  0
  4 13  1  0  0  0  0
  5  4  1  0  0  0  0
  5 12  1  0  0  0  0
  6  5  2  0  0  0  0
  7  1  1  0  0  0  0
  8  2  1  0  0  0  0
  9 10  3  0  0  0  0
 11  6  1  0  0  0  0
M  RAD  1   3   2
M  END
