Coordinates from ORCA-job Ph-N2+-scan-d09-499-n800
 OpenBabel09191814153D

 13 12  0  0  0  0  0  0  0  0999 V2000
   -2.2193    0.1110   -1.1055 C   0  0  0  0  0  0  0  0  0  0  0  0
   -0.7932   -0.0076   -0.9964 C   0  0  0  0  0  0  0  0  0  0  0  0
   -0.4732    0.8313   -0.0187 C   0  0  0  0  0  0  0  0  0  0  0  0
   -0.8974    1.7123    0.8792 C   0  0  0  0  0  0  0  0  0  0  0  0
   -2.3188    1.7525    0.6844 C   0  0  0  0  0  0  0  0  0  0  0  0
   -2.9499    0.9700   -0.2836 C   0  0  0  0  0  0  0  0  0  0  0  0
   -2.6872   -0.5088   -1.8674 H   0  0  0  0  0  0  0  0  0  0  0  0
   -0.1789   -0.6565   -1.6089 H   0  0  0  0  0  0  0  0  0  0  0  0
    3.0165    0.7111    0.2651 N   0  0  0  0  0  0  0  0  0  0  0  0
    4.1183    0.6844    0.3462 N   0  0  0  0  0  0  0  0  0  0  0  0
   -4.0272    1.0313   -0.3997 H   0  0  0  0  0  0  0  0  0  0  0  0
   -2.8653    2.4292    1.3378 H   0  0  0  0  0  0  0  0  0  0  0  0
   -0.3580    2.2975    1.6142 H   0  0  0  0  0  0  0  0  0  0  0  0
  1  2  2  0  0  0  0
  1  6  1  0  0  0  0
  2  3  1  0  0  0  0
  3  4  2  0  0  0  0
  4 13  1  0  0  0  0
  5  4  1  0  0  0  0
  5 12  1  0  0  0  0
  6  5  2  0  0  0  0
  7  1  1  0  0  0  0
  8  2  1  0  0  0  0
  9 10  3  0  0  0  0
 11  6  1  0  0  0  0
M  RAD  1   3   2
M  END
