Coordinates from ORCA-job Ph-N2+-scan-d09-499-n800
 OpenBabel09191814153D

 13 12  0  0  0  0  0  0  0  0999 V2000
   -3.2870    0.2846   -1.2278 C   0  0  0  0  0  0  0  0  0  0  0  0
   -2.9712   -0.6980   -0.2295 C   0  0  0  0  0  0  0  0  0  0  0  0
   -3.0873   -0.0381    0.9161 C   0  0  0  0  0  0  0  0  0  0  0  0
   -3.3635    1.1095    1.5228 C   0  0  0  0  0  0  0  0  0  0  0  0
   -3.6610    2.0087    0.4433 C   0  0  0  0  0  0  0  0  0  0  0  0
   -3.6206    1.5964   -0.8891 C   0  0  0  0  0  0  0  0  0  0  0  0
   -3.2472   -0.0638   -2.2578 H   0  0  0  0  0  0  0  0  0  0  0  0
   -2.7043   -1.7264   -0.4412 H   0  0  0  0  0  0  0  0  0  0  0  0
   11.6795    1.0692   -0.2922 N   0  0  0  0  0  0  0  0  0  0  0  0
   12.7837    1.1043   -0.3309 N   0  0  0  0  0  0  0  0  0  0  0  0
   -3.8529    2.3076   -1.6748 H   0  0  0  0  0  0  0  0  0  0  0  0
   -3.9197    3.0240    0.7360 H   0  0  0  0  0  0  0  0  0  0  0  0
   -3.3824    1.3797    2.5720 H   0  0  0  0  0  0  0  0  0  0  0  0
  1  6  2  0  0  0  0
  1  2  1  0  0  0  0
  2  3  2  0  0  0  0
  3  4  1  0  0  0  0
  4 13  1  0  0  0  0
  5 12  1  0  0  0  0
  5  4  2  0  0  0  0
  6  5  1  0  0  0  0
  7  1  1  0  0  0  0
  8  2  1  0  0  0  0
 10  9  3  0  0  0  0
 11  6  1  0  0  0  0
M  RAD  1   3   2
M  END
