Coordinates from ORCA-job Ph-N2+-scan-d09-499-n800
 OpenBabel09191814153D

 13 12  0  0  0  0  0  0  0  0999 V2000
   -2.0826    0.1030   -1.0924 C   0  0  0  0  0  0  0  0  0  0  0  0
   -0.6596   -0.0001   -0.9965 C   0  0  0  0  0  0  0  0  0  0  0  0
   -0.3098    0.8396   -0.0216 C   0  0  0  0  0  0  0  0  0  0  0  0
   -0.7601    1.7166    0.8762 C   0  0  0  0  0  0  0  0  0  0  0  0
   -2.1787    1.7451    0.6988 C   0  0  0  0  0  0  0  0  0  0  0  0
   -2.8123    0.9560   -0.2627 C   0  0  0  0  0  0  0  0  0  0  0  0
   -2.5588   -0.5187   -1.8469 H   0  0  0  0  0  0  0  0  0  0  0  0
   -0.0482   -0.6440   -1.6156 H   0  0  0  0  0  0  0  0  0  0  0  0
    2.2596    0.7343    0.2111 N   0  0  0  0  0  0  0  0  0  0  0  0
    3.3597    0.6962    0.3040 N   0  0  0  0  0  0  0  0  0  0  0  0
   -3.8913    1.0071   -0.3675 H   0  0  0  0  0  0  0  0  0  0  0  0
   -2.7306    2.4149    1.3542 H   0  0  0  0  0  0  0  0  0  0  0  0
   -0.2210    2.3076    1.6055 H   0  0  0  0  0  0  0  0  0  0  0  0
  1  2  2  0  0  0  0
  1  6  1  0  0  0  0
  2  3  1  0  0  0  0
  3  4  2  0  0  0  0
  4 13  1  0  0  0  0
  5  4  1  0  0  0  0
  5 12  1  0  0  0  0
  6  5  2  0  0  0  0
  7  1  1  0  0  0  0
  8  2  1  0  0  0  0
  9 10  3  0  0  0  0
 11  6  1  0  0  0  0
M  RAD  1   3   2
M  END
