Coordinates from ORCA-job Ph-N2+-scan-d09-499-n800
 OpenBabel09191814153D

 13 12  0  0  0  0  0  0  0  0999 V2000
   -2.8461    0.4235   -0.9555 C   0  0  0  0  0  0  0  0  0  0  0  0
   -3.0448   -0.6482   -0.0210 C   0  0  0  0  0  0  0  0  0  0  0  0
   -3.8055   -0.1122    0.9254 C   0  0  0  0  0  0  0  0  0  0  0  0
   -4.4446    0.9618    1.3710 C   0  0  0  0  0  0  0  0  0  0  0  0
   -4.1822    1.9596    0.3715 C   0  0  0  0  0  0  0  0  0  0  0  0
   -3.4039    1.6867   -0.7537 C   0  0  0  0  0  0  0  0  0  0  0  0
   -2.2381    0.1824   -1.8249 H   0  0  0  0  0  0  0  0  0  0  0  0
   -2.6367   -1.6457   -0.1326 H   0  0  0  0  0  0  0  0  0  0  0  0
   12.8780    1.0027   -0.7039 N   0  0  0  0  0  0  0  0  0  0  0  0
   13.9817    1.0154   -0.7644 N   0  0  0  0  0  0  0  0  0  0  0  0
   -3.2283    2.4700   -1.4839 H   0  0  0  0  0  0  0  0  0  0  0  0
   -4.6271    2.9352    0.5551 H   0  0  0  0  0  0  0  0  0  0  0  0
   -5.0362    1.1263    2.2637 H   0  0  0  0  0  0  0  0  0  0  0  0
  1  6  2  0  0  0  0
  1  2  1  0  0  0  0
  2  3  2  0  0  0  0
  3  4  1  0  0  0  0
  4 13  1  0  0  0  0
  5 12  1  0  0  0  0
  5  4  2  0  0  0  0
  6  5  1  0  0  0  0
  7  1  1  0  0  0  0
  8  2  1  0  0  0  0
 10  9  3  0  0  0  0
 11  6  1  0  0  0  0
M  RAD  1   3   2
M  END
