Coordinates from ORCA-job Ph-N2+-scan-d09-499-n800
 OpenBabel09191814153D

 13 12  0  0  0  0  0  0  0  0999 V2000
   -3.2030    0.2364   -1.2160 C   0  0  0  0  0  0  0  0  0  0  0  0
   -2.2356   -0.4943   -0.4464 C   0  0  0  0  0  0  0  0  0  0  0  0
   -2.0926    0.2284    0.6575 C   0  0  0  0  0  0  0  0  0  0  0  0
   -2.4450    1.3119    1.3378 C   0  0  0  0  0  0  0  0  0  0  0  0
   -3.4025    1.9594    0.4857 C   0  0  0  0  0  0  0  0  0  0  0  0
   -3.7627    1.4275   -0.7528 C   0  0  0  0  0  0  0  0  0  0  0  0
   -3.4653   -0.2002   -2.1771 H   0  0  0  0  0  0  0  0  0  0  0  0
   -1.7726   -1.4217   -0.7612 H   0  0  0  0  0  0  0  0  0  0  0  0
    9.5425    0.8758   -0.0323 N   0  0  0  0  0  0  0  0  0  0  0  0
   10.6469    0.9154   -0.0590 N   0  0  0  0  0  0  0  0  0  0  0  0
   -4.4899    1.9492   -1.3661 H   0  0  0  0  0  0  0  0  0  0  0  0
   -3.8221    2.8860    0.8708 H   0  0  0  0  0  0  0  0  0  0  0  0
   -2.1317    1.6839    2.3058 H   0  0  0  0  0  0  0  0  0  0  0  0
  1  6  2  0  0  0  0
  1  2  1  0  0  0  0
  2  3  2  0  0  0  0
  3  4  1  0  0  0  0
  4 13  1  0  0  0  0
  5 12  1  0  0  0  0
  5  4  2  0  0  0  0
  6  5  1  0  0  0  0
  7  1  1  0  0  0  0
  8  2  1  0  0  0  0
 10  9  3  0  0  0  0
 11  6  1  0  0  0  0
M  RAD  1   3   2
M  END
