Coordinates from ORCA-job Ph-N2+-scan-d09-499-n800
 OpenBabel09191814153D

 13 12  0  0  0  0  0  0  0  0999 V2000
   -2.8543    0.4205   -0.9674 C   0  0  0  0  0  0  0  0  0  0  0  0
   -3.0385   -0.6490   -0.0266 C   0  0  0  0  0  0  0  0  0  0  0  0
   -3.7845   -0.1092    0.9291 C   0  0  0  0  0  0  0  0  0  0  0  0
   -4.4170    0.9662    1.3813 C   0  0  0  0  0  0  0  0  0  0  0  0
   -4.1700    1.9608    0.3751 C   0  0  0  0  0  0  0  0  0  0  0  0
   -3.4087    1.6841   -0.7612 C   0  0  0  0  0  0  0  0  0  0  0  0
   -2.2592    0.1767   -1.8450 H   0  0  0  0  0  0  0  0  0  0  0  0
   -2.6322   -1.6469   -0.1412 H   0  0  0  0  0  0  0  0  0  0  0  0
   12.8393    1.0035   -0.6925 N   0  0  0  0  0  0  0  0  0  0  0  0
   13.9431    1.0161   -0.7527 N   0  0  0  0  0  0  0  0  0  0  0  0
   -3.2444    2.4651   -1.4964 H   0  0  0  0  0  0  0  0  0  0  0  0
   -4.6121    2.9370    0.5622 H   0  0  0  0  0  0  0  0  0  0  0  0
   -4.9953    1.1329    2.2822 H   0  0  0  0  0  0  0  0  0  0  0  0
  1  6  2  0  0  0  0
  1  2  1  0  0  0  0
  2  3  2  0  0  0  0
  3  4  1  0  0  0  0
  4 13  1  0  0  0  0
  5 12  1  0  0  0  0
  5  4  2  0  0  0  0
  6  5  1  0  0  0  0
  7  1  1  0  0  0  0
  8  2  1  0  0  0  0
 10  9  3  0  0  0  0
 11  6  1  0  0  0  0
M  RAD  1   3   2
M  END
