Coordinates from ORCA-job Ph-N2+-scan-d09-499-n800
 OpenBabel09191814153D

 13 12  0  0  0  0  0  0  0  0999 V2000
   -2.9845    0.2353   -1.2112 C   0  0  0  0  0  0  0  0  0  0  0  0
   -1.9024   -0.3819   -0.4972 C   0  0  0  0  0  0  0  0  0  0  0  0
   -1.7868    0.3496    0.6041 C   0  0  0  0  0  0  0  0  0  0  0  0
   -2.2260    1.3839    1.3104 C   0  0  0  0  0  0  0  0  0  0  0  0
   -3.2932    1.9195    0.5127 C   0  0  0  0  0  0  0  0  0  0  0  0
   -3.6525    1.3532   -0.7106 C   0  0  0  0  0  0  0  0  0  0  0  0
   -3.2440   -0.2263   -2.1613 H   0  0  0  0  0  0  0  0  0  0  0  0
   -1.3537   -1.2502   -0.8420 H   0  0  0  0  0  0  0  0  0  0  0  0
    8.4367    0.7803   -0.0221 N   0  0  0  0  0  0  0  0  0  0  0  0
    9.5410    0.8262   -0.0438 N   0  0  0  0  0  0  0  0  0  0  0  0
   -4.4650    1.7895   -1.2819 H   0  0  0  0  0  0  0  0  0  0  0  0
   -3.7953    2.7915    0.9259 H   0  0  0  0  0  0  0  0  0  0  0  0
   -1.9080    1.7872    2.2641 H   0  0  0  0  0  0  0  0  0  0  0  0
  1  6  2  0  0  0  0
  1  2  1  0  0  0  0
  2  3  2  0  0  0  0
  3  4  1  0  0  0  0
  4 13  1  0  0  0  0
  5 12  1  0  0  0  0
  5  4  2  0  0  0  0
  6  5  1  0  0  0  0
  7  1  1  0  0  0  0
  8  2  1  0  0  0  0
 10  9  3  0  0  0  0
 11  6  1  0  0  0  0
M  RAD  1   3   2
M  END
