Coordinates from ORCA-job Ph-N2+-scan-d09-499-n800
 OpenBabel09191814153D

 13 12  0  0  0  0  0  0  0  0999 V2000
   -2.5341    0.1417   -1.1388 C   0  0  0  0  0  0  0  0  0  0  0  0
   -1.1273   -0.0376   -0.9130 C   0  0  0  0  0  0  0  0  0  0  0  0
   -0.8574    0.7864    0.0916 C   0  0  0  0  0  0  0  0  0  0  0  0
   -1.3147    1.6845    0.9551 C   0  0  0  0  0  0  0  0  0  0  0  0
   -2.7127    1.7846    0.6428 C   0  0  0  0  0  0  0  0  0  0  0  0
   -3.2937    1.0304   -0.3772 C   0  0  0  0  0  0  0  0  0  0  0  0
   -2.9614   -0.4579   -1.9398 H   0  0  0  0  0  0  0  0  0  0  0  0
   -0.4940   -0.7121   -1.4771 H   0  0  0  0  0  0  0  0  0  0  0  0
    5.0038    0.6376    0.2841 N   0  0  0  0  0  0  0  0  0  0  0  0
    6.1088    0.6315    0.3138 N   0  0  0  0  0  0  0  0  0  0  0  0
   -4.3538    1.1375   -0.5824 H   0  0  0  0  0  0  0  0  0  0  0  0
   -3.2813    2.4839    1.2522 H   0  0  0  0  0  0  0  0  0  0  0  0
   -0.8160    2.2471    1.7355 H   0  0  0  0  0  0  0  0  0  0  0  0
  1  2  2  0  0  0  0
  1  6  1  0  0  0  0
  2  3  1  0  0  0  0
  3  4  2  0  0  0  0
  4 13  1  0  0  0  0
  5  4  1  0  0  0  0
  5 12  1  0  0  0  0
  6  5  2  0  0  0  0
  7  1  1  0  0  0  0
  8  2  1  0  0  0  0
  9 10  3  0  0  0  0
 11  6  1  0  0  0  0
M  RAD  1   3   2
M  END
