Coordinates from ORCA-job Ph-N2+-scan-d09-499-n800
 OpenBabel09191814153D

 13 12  0  0  0  0  0  0  0  0999 V2000
   -2.1151    0.1049   -1.0953 C   0  0  0  0  0  0  0  0  0  0  0  0
   -0.6902   -0.0015   -0.9977 C   0  0  0  0  0  0  0  0  0  0  0  0
   -0.3531    0.8386   -0.0228 C   0  0  0  0  0  0  0  0  0  0  0  0
   -0.7909    1.7163    0.8761 C   0  0  0  0  0  0  0  0  0  0  0  0
   -2.2113    1.7466    0.6954 C   0  0  0  0  0  0  0  0  0  0  0  0
   -2.8449    0.9588   -0.2670 C   0  0  0  0  0  0  0  0  0  0  0  0
   -2.5883   -0.5173   -1.8516 H   0  0  0  0  0  0  0  0  0  0  0  0
   -0.0776   -0.6461   -1.6155 H   0  0  0  0  0  0  0  0  0  0  0  0
    2.4360    0.7283    0.2257 N   0  0  0  0  0  0  0  0  0  0  0  0
    3.5366    0.6933    0.3156 N   0  0  0  0  0  0  0  0  0  0  0  0
   -3.9236    1.0118   -0.3736 H   0  0  0  0  0  0  0  0  0  0  0  0
   -2.7605    2.4182    1.3515 H   0  0  0  0  0  0  0  0  0  0  0  0
   -0.2507    2.3059    1.6061 H   0  0  0  0  0  0  0  0  0  0  0  0
  1  2  2  0  0  0  0
  1  6  1  0  0  0  0
  2  3  1  0  0  0  0
  3  4  2  0  0  0  0
  4 13  1  0  0  0  0
  5  4  1  0  0  0  0
  5 12  1  0  0  0  0
  6  5  2  0  0  0  0
  7  1  1  0  0  0  0
  8  2  1  0  0  0  0
  9 10  3  0  0  0  0
 11  6  1  0  0  0  0
M  RAD  1   3   2
M  END
