Coordinates from ORCA-job Ph-N2+-scan-d09-499-n800
 OpenBabel09191814153D

 13 12  0  0  0  0  0  0  0  0999 V2000
   -2.8223    0.2280   -1.2047 C   0  0  0  0  0  0  0  0  0  0  0  0
   -1.6672   -0.3110   -0.5438 C   0  0  0  0  0  0  0  0  0  0  0  0
   -1.5491    0.4306    0.5504 C   0  0  0  0  0  0  0  0  0  0  0  0
   -2.0238    1.4346    1.2771 C   0  0  0  0  0  0  0  0  0  0  0  0
   -3.1624    1.8928    0.5321 C   0  0  0  0  0  0  0  0  0  0  0  0
   -3.5406    1.2991   -0.6724 C   0  0  0  0  0  0  0  0  0  0  0  0
   -3.0950   -0.2535   -2.1411 H   0  0  0  0  0  0  0  0  0  0  0  0
   -1.0772   -1.1408   -0.9145 H   0  0  0  0  0  0  0  0  0  0  0  0
    7.4996    0.7258   -0.0006 N   0  0  0  0  0  0  0  0  0  0  0  0
    8.6034    0.7835   -0.0152 N   0  0  0  0  0  0  0  0  0  0  0  0
   -4.4078    1.6767   -1.2036 H   0  0  0  0  0  0  0  0  0  0  0  0
   -3.7028    2.7298    0.9690 H   0  0  0  0  0  0  0  0  0  0  0  0
   -1.6885    1.8622    2.2142 H   0  0  0  0  0  0  0  0  0  0  0  0
  1  6  2  0  0  0  0
  1  2  1  0  0  0  0
  2  3  2  0  0  0  0
  3  4  1  0  0  0  0
  4 13  1  0  0  0  0
  5 12  1  0  0  0  0
  5  4  2  0  0  0  0
  6  5  1  0  0  0  0
  7  1  1  0  0  0  0
  8  2  1  0  0  0  0
 10  9  3  0  0  0  0
 11  6  1  0  0  0  0
M  RAD  1   3   2
M  END
