Coordinates from ORCA-job Ph-N2+-scan-d09-499-n800
 OpenBabel09191814153D

 13 12  0  0  0  0  0  0  0  0999 V2000
   -2.2847    0.1160   -1.1121 C   0  0  0  0  0  0  0  0  0  0  0  0
   -0.8603   -0.0127   -0.9872 C   0  0  0  0  0  0  0  0  0  0  0  0
   -0.5474    0.8240   -0.0057 C   0  0  0  0  0  0  0  0  0  0  0  0
   -0.9739    1.7079    0.8878 C   0  0  0  0  0  0  0  0  0  0  0  0
   -2.3931    1.7576    0.6768 C   0  0  0  0  0  0  0  0  0  0  0  0
   -3.0186    0.9798   -0.2983 C   0  0  0  0  0  0  0  0  0  0  0  0
   -2.7475   -0.5007   -1.8797 H   0  0  0  0  0  0  0  0  0  0  0  0
   -0.2441   -0.6657   -1.5936 H   0  0  0  0  0  0  0  0  0  0  0  0
    3.4041    0.6980    0.2803 N   0  0  0  0  0  0  0  0  0  0  0  0
    4.5069    0.6772    0.3511 N   0  0  0  0  0  0  0  0  0  0  0  0
   -4.0941    1.0485   -0.4266 H   0  0  0  0  0  0  0  0  0  0  0  0
   -2.9416    2.4382    1.3246 H   0  0  0  0  0  0  0  0  0  0  0  0
   -0.4393    2.2896    1.6294 H   0  0  0  0  0  0  0  0  0  0  0  0
  1  2  2  0  0  0  0
  1  6  1  0  0  0  0
  2  3  1  0  0  0  0
  3  4  2  0  0  0  0
  4 13  1  0  0  0  0
  5  4  1  0  0  0  0
  5 12  1  0  0  0  0
  6  5  2  0  0  0  0
  7  1  1  0  0  0  0
  8  2  1  0  0  0  0
  9 10  3  0  0  0  0
 11  6  1  0  0  0  0
M  RAD  1   3   2
M  END
