Coordinates from ORCA-job Ph-N2+-scan-d09-499-n800
 OpenBabel09191814153D

 13 12  0  0  0  0  0  0  0  0999 V2000
   -2.6783    0.1763   -1.1703 C   0  0  0  0  0  0  0  0  0  0  0  0
   -1.3302   -0.1297   -0.7824 C   0  0  0  0  0  0  0  0  0  0  0  0
   -1.1084    0.6641    0.2577 C   0  0  0  0  0  0  0  0  0  0  0  0
   -1.5835    1.5968    1.0735 C   0  0  0  0  0  0  0  0  0  0  0  0
   -2.9200    1.8229    0.6002 C   0  0  0  0  0  0  0  0  0  0  0  0
   -3.4409    1.1272   -0.4913 C   0  0  0  0  0  0  0  0  0  0  0  0
   -3.0589   -0.3801   -2.0242 H   0  0  0  0  0  0  0  0  0  0  0  0
   -0.6974   -0.8574   -1.2766 H   0  0  0  0  0  0  0  0  0  0  0  0
    6.0793    0.6582    0.2124 N   0  0  0  0  0  0  0  0  0  0  0  0
    7.1846    0.6700    0.2040 N   0  0  0  0  0  0  0  0  0  0  0  0
   -4.4553    1.3294   -0.8178 H   0  0  0  0  0  0  0  0  0  0  0  0
   -3.4919    2.5693    1.1476 H   0  0  0  0  0  0  0  0  0  0  0  0
   -1.1328    2.1107    1.9141 H   0  0  0  0  0  0  0  0  0  0  0  0
  1  2  2  0  0  0  0
  1  6  1  0  0  0  0
  2  3  1  0  0  0  0
  3  4  2  0  0  0  0
  4 13  1  0  0  0  0
  5  4  1  0  0  0  0
  5 12  1  0  0  0  0
  6  5  2  0  0  0  0
  7  1  1  0  0  0  0
  8  2  1  0  0  0  0
 10  9  3  0  0  0  0
 11  6  1  0  0  0  0
M  RAD  1   3   2
M  END
