Coordinates from ORCA-job Ph-N2+-scan-d09-499-n800
 OpenBabel09191814153D

 13 12  0  0  0  0  0  0  0  0999 V2000
   -2.3956    0.1266   -1.1235 C   0  0  0  0  0  0  0  0  0  0  0  0
   -0.9768   -0.0196   -0.9578 C   0  0  0  0  0  0  0  0  0  0  0  0
   -0.6831    0.8127    0.0333 C   0  0  0  0  0  0  0  0  0  0  0  0
   -1.1238    1.7016    0.9148 C   0  0  0  0  0  0  0  0  0  0  0  0
   -2.5358    1.7687    0.6625 C   0  0  0  0  0  0  0  0  0  0  0  0
   -3.1422    0.9990   -0.3309 C   0  0  0  0  0  0  0  0  0  0  0  0
   -2.8429   -0.4843   -1.9048 H   0  0  0  0  0  0  0  0  0  0  0  0
   -0.3521   -0.6802   -1.5473 H   0  0  0  0  0  0  0  0  0  0  0  0
    4.1129    0.6664    0.2866 N   0  0  0  0  0  0  0  0  0  0  0  0
    5.2170    0.6529    0.3371 N   0  0  0  0  0  0  0  0  0  0  0  0
   -4.2125    1.0811   -0.4905 H   0  0  0  0  0  0  0  0  0  0  0  0
   -3.0941    2.4558    1.2948 H   0  0  0  0  0  0  0  0  0  0  0  0
   -0.6049    2.2769    1.6723 H   0  0  0  0  0  0  0  0  0  0  0  0
  1  2  2  0  0  0  0
  1  6  1  0  0  0  0
  2  3  1  0  0  0  0
  3  4  2  0  0  0  0
  4 13  1  0  0  0  0
  5  4  1  0  0  0  0
  5 12  1  0  0  0  0
  6  5  2  0  0  0  0
  7  1  1  0  0  0  0
  8  2  1  0  0  0  0
  9 10  3  0  0  0  0
 11  6  1  0  0  0  0
M  RAD  1   3   2
M  END
