Coordinates from ORCA-job Ph-N2+-scan-d09-499-n800
 OpenBabel09191814153D

 13 12  0  0  0  0  0  0  0  0999 V2000
   -2.5582    0.1447   -1.1418 C   0  0  0  0  0  0  0  0  0  0  0  0
   -1.1546   -0.0439   -0.9043 C   0  0  0  0  0  0  0  0  0  0  0  0
   -0.8878    0.7780    0.1030 C   0  0  0  0  0  0  0  0  0  0  0  0
   -1.3466    1.6787    0.9630 C   0  0  0  0  0  0  0  0  0  0  0  0
   -2.7412    1.7879    0.6390 C   0  0  0  0  0  0  0  0  0  0  0  0
   -3.3184    1.0379   -0.3863 C   0  0  0  0  0  0  0  0  0  0  0  0
   -2.9825   -0.4518   -1.9467 H   0  0  0  0  0  0  0  0  0  0  0  0
   -0.5209   -0.7222   -1.4633 H   0  0  0  0  0  0  0  0  0  0  0  0
    5.1543    0.6363    0.2832 N   0  0  0  0  0  0  0  0  0  0  0  0
    6.2594    0.6319    0.3098 N   0  0  0  0  0  0  0  0  0  0  0  0
   -4.3760    1.1519   -0.6003 H   0  0  0  0  0  0  0  0  0  0  0  0
   -3.3104    2.4906    1.2439 H   0  0  0  0  0  0  0  0  0  0  0  0
   -0.8509    2.2378    1.7477 H   0  0  0  0  0  0  0  0  0  0  0  0
  1  2  2  0  0  0  0
  1  6  1  0  0  0  0
  2  3  1  0  0  0  0
  3  4  2  0  0  0  0
  4 13  1  0  0  0  0
  5  4  1  0  0  0  0
  5 12  1  0  0  0  0
  6  5  2  0  0  0  0
  7  1  1  0  0  0  0
  8  2  1  0  0  0  0
  9 10  3  0  0  0  0
 11  6  1  0  0  0  0
M  RAD  1   3   2
M  END
