Coordinates from ORCA-job Ph-N2+-scan-d09-499-n800
 OpenBabel09191814153D

 13 12  0  0  0  0  0  0  0  0999 V2000
   -3.3217    0.2776   -1.2336 C   0  0  0  0  0  0  0  0  0  0  0  0
   -2.9461   -0.6948   -0.2461 C   0  0  0  0  0  0  0  0  0  0  0  0
   -3.0156   -0.0293    0.9001 C   0  0  0  0  0  0  0  0  0  0  0  0
   -3.2694    1.1204    1.5126 C   0  0  0  0  0  0  0  0  0  0  0  0
   -3.6298    2.0092    0.4432 C   0  0  0  0  0  0  0  0  0  0  0  0
   -3.6515    1.5884   -0.8869 C   0  0  0  0  0  0  0  0  0  0  0  0
   -3.3292   -0.0770   -2.2623 H   0  0  0  0  0  0  0  0  0  0  0  0
   -2.6772   -1.7214   -0.4640 H   0  0  0  0  0  0  0  0  0  0  0  0
   11.5748    1.0664   -0.2582 N   0  0  0  0  0  0  0  0  0  0  0  0
   12.6790    1.1033   -0.2949 N   0  0  0  0  0  0  0  0  0  0  0  0
   -3.9286    2.2922   -1.6645 H   0  0  0  0  0  0  0  0  0  0  0  0
   -3.8830    3.0240    0.7422 H   0  0  0  0  0  0  0  0  0  0  0  0
   -3.2355    1.3986    2.5593 H   0  0  0  0  0  0  0  0  0  0  0  0
  1  6  2  0  0  0  0
  1  2  1  0  0  0  0
  2  3  2  0  0  0  0
  3  4  1  0  0  0  0
  4 13  1  0  0  0  0
  5 12  1  0  0  0  0
  5  4  2  0  0  0  0
  6  5  1  0  0  0  0
  7  1  1  0  0  0  0
  8  2  1  0  0  0  0
 10  9  3  0  0  0  0
 11  6  1  0  0  0  0
M  RAD  1   3   2
M  END
