Coordinates from ORCA-job Ph-N2+-scan-d09-499-n800
 OpenBabel09191814153D

 13 12  0  0  0  0  0  0  0  0999 V2000
   -2.5180    0.1399   -1.1368 C   0  0  0  0  0  0  0  0  0  0  0  0
   -1.1095   -0.0341   -0.9185 C   0  0  0  0  0  0  0  0  0  0  0  0
   -0.8373    0.7912    0.0845 C   0  0  0  0  0  0  0  0  0  0  0  0
   -1.2934    1.6878    0.9502 C   0  0  0  0  0  0  0  0  0  0  0  0
   -2.6934    1.7826    0.6452 C   0  0  0  0  0  0  0  0  0  0  0  0
   -3.2769    1.0259   -0.3715 C   0  0  0  0  0  0  0  0  0  0  0  0
   -2.9473   -0.4615   -1.9355 H   0  0  0  0  0  0  0  0  0  0  0  0
   -0.4765   -0.7064   -1.4856 H   0  0  0  0  0  0  0  0  0  0  0  0
    4.9033    0.6391    0.2844 N   0  0  0  0  0  0  0  0  0  0  0  0
    6.0082    0.6320    0.3163 N   0  0  0  0  0  0  0  0  0  0  0  0
   -4.3385    1.1290   -0.5712 H   0  0  0  0  0  0  0  0  0  0  0  0
   -3.2615    2.4799    1.2575 H   0  0  0  0  0  0  0  0  0  0  0  0
   -0.7927    2.2524    1.7278 H   0  0  0  0  0  0  0  0  0  0  0  0
  1  2  2  0  0  0  0
  1  6  1  0  0  0  0
  2  3  1  0  0  0  0
  3  4  2  0  0  0  0
  4 13  1  0  0  0  0
  5  4  1  0  0  0  0
  5 12  1  0  0  0  0
  6  5  2  0  0  0  0
  7  1  1  0  0  0  0
  8  2  1  0  0  0  0
  9 10  3  0  0  0  0
 11  6  1  0  0  0  0
M  RAD  1   3   2
M  END
