Coordinates from ORCA-job Ph-N2+-scan-d09-499-n800
 OpenBabel09191814153D

 13 12  0  0  0  0  0  0  0  0999 V2000
   -2.5662    0.1457   -1.1428 C   0  0  0  0  0  0  0  0  0  0  0  0
   -1.1638   -0.0463   -0.9012 C   0  0  0  0  0  0  0  0  0  0  0  0
   -0.8980    0.7748    0.1070 C   0  0  0  0  0  0  0  0  0  0  0  0
   -1.3572    1.6765    0.9658 C   0  0  0  0  0  0  0  0  0  0  0  0
   -2.7506    1.7890    0.6376 C   0  0  0  0  0  0  0  0  0  0  0  0
   -3.3265    1.0406   -0.3895 C   0  0  0  0  0  0  0  0  0  0  0  0
   -2.9895   -0.4497   -1.9491 H   0  0  0  0  0  0  0  0  0  0  0  0
   -0.5301   -0.7260   -1.4584 H   0  0  0  0  0  0  0  0  0  0  0  0
    5.2044    0.6362    0.2827 N   0  0  0  0  0  0  0  0  0  0  0  0
    6.3095    0.6323    0.3082 N   0  0  0  0  0  0  0  0  0  0  0  0
   -4.3832    1.1572   -0.6067 H   0  0  0  0  0  0  0  0  0  0  0  0
   -3.3199    2.4930    1.2410 H   0  0  0  0  0  0  0  0  0  0  0  0
   -0.8626    2.2343    1.7521 H   0  0  0  0  0  0  0  0  0  0  0  0
  1  2  2  0  0  0  0
  1  6  1  0  0  0  0
  2  3  1  0  0  0  0
  3  4  2  0  0  0  0
  4 13  1  0  0  0  0
  5  4  1  0  0  0  0
  5 12  1  0  0  0  0
  6  5  2  0  0  0  0
  7  1  1  0  0  0  0
  8  2  1  0  0  0  0
  9 10  3  0  0  0  0
 11  6  1  0  0  0  0
M  RAD  1   3   2
M  END
