Coordinates from ORCA-job Ph-N2+-scan-d09-499-n800
 OpenBabel09191814153D

 13 12  0  0  0  0  0  0  0  0999 V2000
   -2.8407    0.4251   -0.9471 C   0  0  0  0  0  0  0  0  0  0  0  0
   -3.0504   -0.6487   -0.0174 C   0  0  0  0  0  0  0  0  0  0  0  0
   -3.8206   -0.1143    0.9221 C   0  0  0  0  0  0  0  0  0  0  0  0
   -4.4632    0.9594    1.3635 C   0  0  0  0  0  0  0  0  0  0  0  0
   -4.1890    1.9594    0.3693 C   0  0  0  0  0  0  0  0  0  0  0  0
   -3.3991    1.6884   -0.7482 C   0  0  0  0  0  0  0  0  0  0  0  0
   -2.2236    0.1854   -1.8106 H   0  0  0  0  0  0  0  0  0  0  0  0
   -2.6423   -1.6464   -0.1272 H   0  0  0  0  0  0  0  0  0  0  0  0
   12.9026    1.0029   -0.7117 N   0  0  0  0  0  0  0  0  0  0  0  0
   14.0063    1.0159   -0.7724 N   0  0  0  0  0  0  0  0  0  0  0  0
   -3.2148    2.4733   -1.4744 H   0  0  0  0  0  0  0  0  0  0  0  0
   -4.6348    2.9350    0.5506 H   0  0  0  0  0  0  0  0  0  0  0  0
   -5.0641    1.1224    2.2503 H   0  0  0  0  0  0  0  0  0  0  0  0
  1  6  2  0  0  0  0
  1  2  1  0  0  0  0
  2  3  2  0  0  0  0
  3  4  1  0  0  0  0
  4 13  1  0  0  0  0
  5 12  1  0  0  0  0
  5  4  2  0  0  0  0
  6  5  1  0  0  0  0
  7  1  1  0  0  0  0
  8  2  1  0  0  0  0
 10  9  3  0  0  0  0
 11  6  1  0  0  0  0
M  RAD  1   3   2
M  END
