Coordinates from ORCA-job Ph-N2+-scan-d09-499-n800
 OpenBabel09191814153D

 13 12  0  0  0  0  0  0  0  0999 V2000
   -2.1330    0.1058   -1.0970 C   0  0  0  0  0  0  0  0  0  0  0  0
   -0.7074   -0.0023   -0.9984 C   0  0  0  0  0  0  0  0  0  0  0  0
   -0.3753    0.8380   -0.0232 C   0  0  0  0  0  0  0  0  0  0  0  0
   -0.8083    1.7162    0.8760 C   0  0  0  0  0  0  0  0  0  0  0  0
   -2.2294    1.7475    0.6935 C   0  0  0  0  0  0  0  0  0  0  0  0
   -2.8628    0.9603   -0.2694 C   0  0  0  0  0  0  0  0  0  0  0  0
   -2.6051   -0.5163   -1.8541 H   0  0  0  0  0  0  0  0  0  0  0  0
   -0.0942   -0.6473   -1.6154 H   0  0  0  0  0  0  0  0  0  0  0  0
    2.5338    0.7252    0.2333 N   0  0  0  0  0  0  0  0  0  0  0  0
    3.6345    0.6914    0.3223 N   0  0  0  0  0  0  0  0  0  0  0  0
   -3.9414    1.0143   -0.3770 H   0  0  0  0  0  0  0  0  0  0  0  0
   -2.7776    2.4199    1.3497 H   0  0  0  0  0  0  0  0  0  0  0  0
   -0.2676    2.3051    1.6065 H   0  0  0  0  0  0  0  0  0  0  0  0
  1  2  2  0  0  0  0
  1  6  1  0  0  0  0
  2  3  1  0  0  0  0
  3  4  2  0  0  0  0
  4 13  1  0  0  0  0
  5  4  1  0  0  0  0
  5 12  1  0  0  0  0
  6  5  2  0  0  0  0
  7  1  1  0  0  0  0
  8  2  1  0  0  0  0
  9 10  3  0  0  0  0
 11  6  1  0  0  0  0
M  RAD  1   3   2
M  END
