Coordinates from ORCA-job Ph-N2+-scan-d09-499-n800
 OpenBabel09191814153D

 13 12  0  0  0  0  0  0  0  0999 V2000
   -2.6485    0.1612   -1.1578 C   0  0  0  0  0  0  0  0  0  0  0  0
   -1.2693   -0.0881   -0.8459 C   0  0  0  0  0  0  0  0  0  0  0  0
   -1.0217    0.7197    0.1775 C   0  0  0  0  0  0  0  0  0  0  0  0
   -1.4873    1.6371    1.0157 C   0  0  0  0  0  0  0  0  0  0  0  0
   -2.8565    1.8067    0.6181 C   0  0  0  0  0  0  0  0  0  0  0  0
   -3.4094    1.0845   -0.4400 C   0  0  0  0  0  0  0  0  0  0  0  0
   -3.0538   -0.4148   -1.9870 H   0  0  0  0  0  0  0  0  0  0  0  0
   -0.6363   -0.7922   -1.3730 H   0  0  0  0  0  0  0  0  0  0  0  0
    5.7648    0.6453    0.2591 N   0  0  0  0  0  0  0  0  0  0  0  0
    6.8701    0.6488    0.2668 N   0  0  0  0  0  0  0  0  0  0  0  0
   -4.4480    1.2442   -0.7097 H   0  0  0  0  0  0  0  0  0  0  0  0
   -3.4266    2.5321    1.1948 H   0  0  0  0  0  0  0  0  0  0  0  0
   -1.0112    2.1731    1.8282 H   0  0  0  0  0  0  0  0  0  0  0  0
  1  2  2  0  0  0  0
  1  6  1  0  0  0  0
  2  3  1  0  0  0  0
  3  4  2  0  0  0  0
  4 13  1  0  0  0  0
  5  4  1  0  0  0  0
  5 12  1  0  0  0  0
  6  5  2  0  0  0  0
  7  1  1  0  0  0  0
  8  2  1  0  0  0  0
  9 10  3  0  0  0  0
 11  6  1  0  0  0  0
M  RAD  1   3   2
M  END
