Coordinates from ORCA-job Ph-N2+-scan-d09-499-n800
 OpenBabel09191814153D

 13 12  0  0  0  0  0  0  0  0999 V2000
   -2.6406    0.1587   -1.1556 C   0  0  0  0  0  0  0  0  0  0  0  0
   -1.2570   -0.0810   -0.8558 C   0  0  0  0  0  0  0  0  0  0  0  0
   -1.0058    0.7289    0.1649 C   0  0  0  0  0  0  0  0  0  0  0  0
   -1.4701    1.6438    1.0067 C   0  0  0  0  0  0  0  0  0  0  0  0
   -2.8439    1.8039    0.6211 C   0  0  0  0  0  0  0  0  0  0  0  0
   -3.4013    1.0773   -0.4316 C   0  0  0  0  0  0  0  0  0  0  0  0
   -3.0494   -0.4206   -1.9808 H   0  0  0  0  0  0  0  0  0  0  0  0
   -0.6239   -0.7811   -1.3882 H   0  0  0  0  0  0  0  0  0  0  0  0
    5.7002    0.6431    0.2652 N   0  0  0  0  0  0  0  0  0  0  0  0
    6.8055    0.6455    0.2761 N   0  0  0  0  0  0  0  0  0  0  0  0
   -4.4433    1.2299   -0.6922 H   0  0  0  0  0  0  0  0  0  0  0  0
   -3.4137    2.5258    1.2025 H   0  0  0  0  0  0  0  0  0  0  0  0
   -0.9904    2.1834    1.8146 H   0  0  0  0  0  0  0  0  0  0  0  0
  1  2  2  0  0  0  0
  1  6  1  0  0  0  0
  2  3  1  0  0  0  0
  3  4  2  0  0  0  0
  4 13  1  0  0  0  0
  5  4  1  0  0  0  0
  5 12  1  0  0  0  0
  6  5  2  0  0  0  0
  7  1  1  0  0  0  0
  8  2  1  0  0  0  0
  9 10  3  0  0  0  0
 11  6  1  0  0  0  0
M  RAD  1   3   2
M  END
