Coordinates from ORCA-job Ph-N2+-scan-d09-499-n800
 OpenBabel09191814153D

 13 12  0  0  0  0  0  0  0  0999 V2000
   -2.1599    0.1073   -1.0996 C   0  0  0  0  0  0  0  0  0  0  0  0
   -0.7337   -0.0035   -0.9988 C   0  0  0  0  0  0  0  0  0  0  0  0
   -0.4068    0.8367   -0.0232 C   0  0  0  0  0  0  0  0  0  0  0  0
   -0.8351    1.7156    0.8762 C   0  0  0  0  0  0  0  0  0  0  0  0
   -2.2568    1.7489    0.6908 C   0  0  0  0  0  0  0  0  0  0  0  0
   -2.8898    0.9629   -0.2732 C   0  0  0  0  0  0  0  0  0  0  0  0
   -2.6306   -0.5145   -1.8580 H   0  0  0  0  0  0  0  0  0  0  0  0
   -0.1200   -0.6494   -1.6147 H   0  0  0  0  0  0  0  0  0  0  0  0
    2.6822    0.7206    0.2441 N   0  0  0  0  0  0  0  0  0  0  0  0
    3.7833    0.6887    0.3315 N   0  0  0  0  0  0  0  0  0  0  0  0
   -3.9681    1.0186   -0.3827 H   0  0  0  0  0  0  0  0  0  0  0  0
   -2.8040    2.4225    1.3466 H   0  0  0  0  0  0  0  0  0  0  0  0
   -0.2943    2.3035    1.6077 H   0  0  0  0  0  0  0  0  0  0  0  0
  1  2  2  0  0  0  0
  1  6  1  0  0  0  0
  2  3  1  0  0  0  0
  3  4  2  0  0  0  0
  4 13  1  0  0  0  0
  5  4  1  0  0  0  0
  5 12  1  0  0  0  0
  6  5  2  0  0  0  0
  7  1  1  0  0  0  0
  8  2  1  0  0  0  0
  9 10  3  0  0  0  0
 11  6  1  0  0  0  0
M  RAD  1   3   2
M  END
