Coordinates from ORCA-job Ph-N2+-scan-d09-499-n800
 OpenBabel09191814153D

 13 12  0  0  0  0  0  0  0  0999 V2000
   -2.0425    0.1007   -1.0890 C   0  0  0  0  0  0  0  0  0  0  0  0
   -0.6250    0.0024   -0.9929 C   0  0  0  0  0  0  0  0  0  0  0  0
   -0.2445    0.8392   -0.0179 C   0  0  0  0  0  0  0  0  0  0  0  0
   -0.7251    1.7149    0.8753 C   0  0  0  0  0  0  0  0  0  0  0  0
   -2.1386    1.7436    0.7032 C   0  0  0  0  0  0  0  0  0  0  0  0
   -2.7724    0.9530   -0.2578 C   0  0  0  0  0  0  0  0  0  0  0  0
   -2.5240   -0.5194   -1.8408 H   0  0  0  0  0  0  0  0  0  0  0  0
   -0.0164   -0.6416   -1.6141 H   0  0  0  0  0  0  0  0  0  0  0  0
    2.0457    0.7437    0.1913 N   0  0  0  0  0  0  0  0  0  0  0  0
    3.1448    0.7001    0.2895 N   0  0  0  0  0  0  0  0  0  0  0  0
   -3.8515    1.0025   -0.3610 H   0  0  0  0  0  0  0  0  0  0  0  0
   -2.6953    2.4106    1.3564 H   0  0  0  0  0  0  0  0  0  0  0  0
   -0.1889    2.3079    1.6046 H   0  0  0  0  0  0  0  0  0  0  0  0
  1  2  2  0  0  0  0
  1  6  1  0  0  0  0
  2  3  1  0  0  0  0
  3  4  2  0  0  0  0
  4 13  1  0  0  0  0
  5  4  1  0  0  0  0
  5 12  1  0  0  0  0
  6  5  2  0  0  0  0
  7  1  1  0  0  0  0
  8  2  1  0  0  0  0
  9 10  3  0  0  0  0
 11  6  1  0  0  0  0
M  RAD  1   3   2
M  END
