Coordinates from ORCA-job Ph-N2+-scan-d09-499-n800
 OpenBabel09191814153D

 13 12  0  0  0  0  0  0  0  0999 V2000
   -3.2317    0.2363   -1.2165 C   0  0  0  0  0  0  0  0  0  0  0  0
   -2.2814   -0.5095   -0.4401 C   0  0  0  0  0  0  0  0  0  0  0  0
   -2.1332    0.2121    0.6638 C   0  0  0  0  0  0  0  0  0  0  0  0
   -2.4716    1.3022    1.3407 C   0  0  0  0  0  0  0  0  0  0  0  0
   -3.4130    1.9645    0.4821 C   0  0  0  0  0  0  0  0  0  0  0  0
   -3.7744    1.4370   -0.7580 C   0  0  0  0  0  0  0  0  0  0  0  0
   -3.4954   -0.1971   -2.1786 H   0  0  0  0  0  0  0  0  0  0  0  0
   -1.8318   -1.4447   -0.7511 H   0  0  0  0  0  0  0  0  0  0  0  0
    9.6806    0.8893   -0.0334 N   0  0  0  0  0  0  0  0  0  0  0  0
   10.7850    0.9293   -0.0596 N   0  0  0  0  0  0  0  0  0  0  0  0
   -4.4890    1.9700   -1.3764 H   0  0  0  0  0  0  0  0  0  0  0  0
   -3.8196    2.8983    0.8636 H   0  0  0  0  0  0  0  0  0  0  0  0
   -2.1582    1.6700    2.3102 H   0  0  0  0  0  0  0  0  0  0  0  0
  1  6  2  0  0  0  0
  1  2  1  0  0  0  0
  2  3  2  0  0  0  0
  3  4  1  0  0  0  0
  4 13  1  0  0  0  0
  5 12  1  0  0  0  0
  5  4  2  0  0  0  0
  6  5  1  0  0  0  0
  7  1  1  0  0  0  0
  8  2  1  0  0  0  0
 10  9  3  0  0  0  0
 11  6  1  0  0  0  0
M  RAD  1   3   2
M  END
