Coordinates from ORCA-job Ph-N2+-scan-d09-499-n800
 OpenBabel09191814153D

 13 12  0  0  0  0  0  0  0  0999 V2000
   -3.3619    0.2673   -1.2377 C   0  0  0  0  0  0  0  0  0  0  0  0
   -2.8701   -0.6813   -0.2782 C   0  0  0  0  0  0  0  0  0  0  0  0
   -2.8563   -0.0039    0.8629 C   0  0  0  0  0  0  0  0  0  0  0  0
   -3.0939    1.1441    1.4847 C   0  0  0  0  0  0  0  0  0  0  0  0
   -3.5752    2.0086    0.4438 C   0  0  0  0  0  0  0  0  0  0  0  0
   -3.7006    1.5714   -0.8753 C   0  0  0  0  0  0  0  0  0  0  0  0
   -3.4504   -0.1004   -2.2578 H   0  0  0  0  0  0  0  0  0  0  0  0
   -2.5924   -1.7026   -0.5096 H   0  0  0  0  0  0  0  0  0  0  0  0
   11.3215    1.0521   -0.1984 N   0  0  0  0  0  0  0  0  0  0  0  0
   12.4258    1.0918   -0.2323 N   0  0  0  0  0  0  0  0  0  0  0  0
   -4.0676    2.2570   -1.6319 H   0  0  0  0  0  0  0  0  0  0  0  0
   -3.8337    3.0185    0.7546 H   0  0  0  0  0  0  0  0  0  0  0  0
   -2.9788    1.4351    2.5221 H   0  0  0  0  0  0  0  0  0  0  0  0
  1  6  2  0  0  0  0
  1  2  1  0  0  0  0
  2  3  2  0  0  0  0
  3  4  1  0  0  0  0
  4 13  1  0  0  0  0
  5 12  1  0  0  0  0
  5  4  2  0  0  0  0
  6  5  1  0  0  0  0
  7  1  1  0  0  0  0
  8  2  1  0  0  0  0
 10  9  3  0  0  0  0
 11  6  1  0  0  0  0
M  RAD  1   3   2
M  END
