Coordinates from ORCA-job Ph-N2+-scan-d09-499-n800
 OpenBabel09191814153D

 13 12  0  0  0  0  0  0  0  0999 V2000
   -3.3339    0.2752   -1.2353 C   0  0  0  0  0  0  0  0  0  0  0  0
   -2.9277   -0.6913   -0.2539 C   0  0  0  0  0  0  0  0  0  0  0  0
   -2.9731   -0.0223    0.8914 C   0  0  0  0  0  0  0  0  0  0  0  0
   -3.2250    1.1264    1.5061 C   0  0  0  0  0  0  0  0  0  0  0  0
   -3.6171    2.0092    0.4434 C   0  0  0  0  0  0  0  0  0  0  0  0
   -3.6660    1.5842   -0.8847 C   0  0  0  0  0  0  0  0  0  0  0  0
   -3.3634   -0.0831   -2.2622 H   0  0  0  0  0  0  0  0  0  0  0  0
   -2.6584   -1.7170   -0.4755 H   0  0  0  0  0  0  0  0  0  0  0  0
   11.5192    1.0630   -0.2429 N   0  0  0  0  0  0  0  0  0  0  0  0
   12.6234    1.1004   -0.2787 N   0  0  0  0  0  0  0  0  0  0  0  0
   -3.9673    2.2833   -1.6576 H   0  0  0  0  0  0  0  0  0  0  0  0
   -3.8726    3.0225    0.7453 H   0  0  0  0  0  0  0  0  0  0  0  0
   -3.1719    1.4072    2.5514 H   0  0  0  0  0  0  0  0  0  0  0  0
  1  6  2  0  0  0  0
  1  2  1  0  0  0  0
  2  3  2  0  0  0  0
  3  4  1  0  0  0  0
  4 13  1  0  0  0  0
  5 12  1  0  0  0  0
  5  4  2  0  0  0  0
  6  5  1  0  0  0  0
  7  1  1  0  0  0  0
  8  2  1  0  0  0  0
 10  9  3  0  0  0  0
 11  6  1  0  0  0  0
M  RAD  1   3   2
M  END
