Coordinates from ORCA-job Ph-N2+-scan-d09-499-n800
 OpenBabel09191814153D

 13 12  0  0  0  0  0  0  0  0999 V2000
   -3.2798    0.2366   -1.2176 C   0  0  0  0  0  0  0  0  0  0  0  0
   -2.3607   -0.5342   -0.4282 C   0  0  0  0  0  0  0  0  0  0  0  0
   -2.2061    0.1849    0.6764 C   0  0  0  0  0  0  0  0  0  0  0  0
   -2.5222    1.2854    1.3473 C   0  0  0  0  0  0  0  0  0  0  0  0
   -3.4337    1.9723    0.4760 C   0  0  0  0  0  0  0  0  0  0  0  0
   -3.7942    1.4530   -0.7678 C   0  0  0  0  0  0  0  0  0  0  0  0
   -3.5435   -0.1910   -2.1824 H   0  0  0  0  0  0  0  0  0  0  0  0
   -1.9334   -1.4821   -0.7323 H   0  0  0  0  0  0  0  0  0  0  0  0
    9.9253    0.9119   -0.0370 N   0  0  0  0  0  0  0  0  0  0  0  0
   11.0297    0.9521   -0.0628 N   0  0  0  0  0  0  0  0  0  0  0  0
   -4.4856    2.0048   -1.3961 H   0  0  0  0  0  0  0  0  0  0  0  0
   -3.8188    2.9178    0.8510 H   0  0  0  0  0  0  0  0  0  0  0  0
   -2.2107    1.6461    2.3202 H   0  0  0  0  0  0  0  0  0  0  0  0
  1  6  2  0  0  0  0
  1  2  1  0  0  0  0
  2  3  2  0  0  0  0
  3  4  1  0  0  0  0
  4 13  1  0  0  0  0
  5 12  1  0  0  0  0
  5  4  2  0  0  0  0
  6  5  1  0  0  0  0
  7  1  1  0  0  0  0
  8  2  1  0  0  0  0
 10  9  3  0  0  0  0
 11  6  1  0  0  0  0
M  RAD  1   3   2
M  END
