Coordinates from ORCA-job Ph-N2+-scan-d09-499-n800
 OpenBabel09191814153D

 13 12  0  0  0  0  0  0  0  0999 V2000
   -2.4968    0.1375   -1.1344 C   0  0  0  0  0  0  0  0  0  0  0  0
   -1.0860   -0.0302   -0.9254 C   0  0  0  0  0  0  0  0  0  0  0  0
   -0.8107    0.7966    0.0754 C   0  0  0  0  0  0  0  0  0  0  0  0
   -1.2650    1.6915    0.9439 C   0  0  0  0  0  0  0  0  0  0  0  0
   -2.6674    1.7800    0.6483 C   0  0  0  0  0  0  0  0  0  0  0  0
   -3.2544    1.0204   -0.3642 C   0  0  0  0  0  0  0  0  0  0  0  0
   -2.9288   -0.4661   -1.9299 H   0  0  0  0  0  0  0  0  0  0  0  0
   -0.4539   -0.6998   -1.4966 H   0  0  0  0  0  0  0  0  0  0  0  0
    4.7691    0.6420    0.2847 N   0  0  0  0  0  0  0  0  0  0  0  0
    5.8738    0.6336    0.3196 N   0  0  0  0  0  0  0  0  0  0  0  0
   -4.3178    1.1187   -0.5567 H   0  0  0  0  0  0  0  0  0  0  0  0
   -3.2344    2.4750    1.2642 H   0  0  0  0  0  0  0  0  0  0  0  0
   -0.7615    2.2585    1.7179 H   0  0  0  0  0  0  0  0  0  0  0  0
  1  2  2  0  0  0  0
  1  6  1  0  0  0  0
  2  3  1  0  0  0  0
  3  4  2  0  0  0  0
  4 13  1  0  0  0  0
  5  4  1  0  0  0  0
  5 12  1  0  0  0  0
  6  5  2  0  0  0  0
  7  1  1  0  0  0  0
  8  2  1  0  0  0  0
  9 10  3  0  0  0  0
 11  6  1  0  0  0  0
M  RAD  1   3   2
M  END
