Coordinates from ORCA-job Ph-N2+-scan-d09-499-n800
 OpenBabel09191814153D

 13 12  0  0  0  0  0  0  0  0999 V2000
   -2.5074    0.1387   -1.1356 C   0  0  0  0  0  0  0  0  0  0  0  0
   -1.0977   -0.0321   -0.9220 C   0  0  0  0  0  0  0  0  0  0  0  0
   -0.8240    0.7940    0.0799 C   0  0  0  0  0  0  0  0  0  0  0  0
   -1.2792    1.6898    0.9471 C   0  0  0  0  0  0  0  0  0  0  0  0
   -2.6804    1.7813    0.6468 C   0  0  0  0  0  0  0  0  0  0  0  0
   -3.2657    1.0231   -0.3678 C   0  0  0  0  0  0  0  0  0  0  0  0
   -2.9380   -0.4639   -1.9327 H   0  0  0  0  0  0  0  0  0  0  0  0
   -0.4651   -0.7029   -1.4912 H   0  0  0  0  0  0  0  0  0  0  0  0
    4.8362    0.6404    0.2846 N   0  0  0  0  0  0  0  0  0  0  0  0
    5.9410    0.6327    0.3179 N   0  0  0  0  0  0  0  0  0  0  0  0
   -4.3282    1.1237   -0.5639 H   0  0  0  0  0  0  0  0  0  0  0  0
   -3.2480    2.4774    1.2608 H   0  0  0  0  0  0  0  0  0  0  0  0
   -0.7771    2.2556    1.7228 H   0  0  0  0  0  0  0  0  0  0  0  0
  1  2  2  0  0  0  0
  1  6  1  0  0  0  0
  2  3  1  0  0  0  0
  3  4  2  0  0  0  0
  4 13  1  0  0  0  0
  5  4  1  0  0  0  0
  5 12  1  0  0  0  0
  6  5  2  0  0  0  0
  7  1  1  0  0  0  0
  8  2  1  0  0  0  0
  9 10  3  0  0  0  0
 11  6  1  0  0  0  0
M  RAD  1   3   2
M  END
