Coordinates from ORCA-job Ph-N2+-scan-d09-499-n800
 OpenBabel09191814153D

 13 12  0  0  0  0  0  0  0  0999 V2000
   -2.3827    0.1253   -1.1221 C   0  0  0  0  0  0  0  0  0  0  0  0
   -0.9631   -0.0187   -0.9618 C   0  0  0  0  0  0  0  0  0  0  0  0
   -0.6668    0.8141    0.0280 C   0  0  0  0  0  0  0  0  0  0  0  0
   -1.1055    1.7024    0.9111 C   0  0  0  0  0  0  0  0  0  0  0  0
   -2.5186    1.7673    0.6642 C   0  0  0  0  0  0  0  0  0  0  0  0
   -3.1276    0.9966   -0.3267 C   0  0  0  0  0  0  0  0  0  0  0  0
   -2.8322   -0.4864   -1.9016 H   0  0  0  0  0  0  0  0  0  0  0  0
   -0.3396   -0.6785   -1.5536 H   0  0  0  0  0  0  0  0  0  0  0  0
    4.0286    0.6702    0.2868 N   0  0  0  0  0  0  0  0  0  0  0  0
    5.1326    0.6562    0.3395 N   0  0  0  0  0  0  0  0  0  0  0  0
   -4.1987    1.0770   -0.4822 H   0  0  0  0  0  0  0  0  0  0  0  0
   -3.0755    2.4536    1.2987 H   0  0  0  0  0  0  0  0  0  0  0  0
   -0.5845    2.2786    1.6666 H   0  0  0  0  0  0  0  0  0  0  0  0
  1  2  2  0  0  0  0
  1  6  1  0  0  0  0
  2  3  1  0  0  0  0
  3  4  2  0  0  0  0
  4 13  1  0  0  0  0
  5  4  1  0  0  0  0
  5 12  1  0  0  0  0
  6  5  2  0  0  0  0
  7  1  1  0  0  0  0
  8  2  1  0  0  0  0
  9 10  3  0  0  0  0
 11  6  1  0  0  0  0
M  RAD  1   3   2
M  END
