Coordinates from ORCA-job Ph-N2+-scan-d09-499-n800
 OpenBabel09191814153D

 13 13  0  0  0  0  0  0  0  0999 V2000
   -1.9030    0.0893   -1.0818 C   0  0  0  0  0  0  0  0  0  0  0  0
   -0.5308    0.0150   -0.9694 C   0  0  0  0  0  0  0  0  0  0  0  0
    0.1417    0.8249    0.0155 C   0  0  0  0  0  0  0  0  0  0  0  0
   -0.6290    1.6972    0.8660 C   0  0  0  0  0  0  0  0  0  0  0  0
   -1.9996    1.7428    0.7220 C   0  0  0  0  0  0  0  0  0  0  0  0
   -2.6368    0.9462   -0.2443 C   0  0  0  0  0  0  0  0  0  0  0  0
   -2.4120   -0.5186   -1.8226 H   0  0  0  0  0  0  0  0  0  0  0  0
    0.0650   -0.6362   -1.6017 H   0  0  0  0  0  0  0  0  0  0  0  0
    1.2761    0.7762    0.1209 N   0  0  0  0  0  0  0  0  0  0  0  0
    2.4007    0.7280    0.2252 N   0  0  0  0  0  0  0  0  0  0  0  0
   -3.7175    0.9942   -0.3461 H   0  0  0  0  0  0  0  0  0  0  0  0
   -2.5822    2.3987    1.3607 H   0  0  0  0  0  0  0  0  0  0  0  0
   -0.1062    2.3000    1.6024 H   0  0  0  0  0  0  0  0  0  0  0  0
  1  2  2  0  0  0  0
  1  6  1  0  0  0  0
  2  3  1  0  0  0  0
  3  9  1  0  0  0  0
  3  4  2  0  0  0  0
  4 13  1  0  0  0  0
  5  4  1  0  0  0  0
  5 12  1  0  0  0  0
  6  5  2  0  0  0  0
  7  1  1  0  0  0  0
  8  2  1  0  0  0  0
  9 10  1  0  0  0  0
 11  6  1  0  0  0  0
M  RAD  2   9   2  10   3
M  END
