Coordinates from ORCA-job Ph-N2+-scan-d09-499-n800
 OpenBabel09191814153D

 13 12  0  0  0  0  0  0  0  0999 V2000
   -3.0657    0.2371   -1.2137 C   0  0  0  0  0  0  0  0  0  0  0  0
   -2.0237   -0.4208   -0.4765 C   0  0  0  0  0  0  0  0  0  0  0  0
   -1.9037    0.3068    0.6269 C   0  0  0  0  0  0  0  0  0  0  0  0
   -2.3177    1.3579    1.3235 C   0  0  0  0  0  0  0  0  0  0  0  0
   -3.3459    1.9336    0.5030 C   0  0  0  0  0  0  0  0  0  0  0  0
   -3.7005    1.3804   -0.7277 C   0  0  0  0  0  0  0  0  0  0  0  0
   -3.3223   -0.2149   -2.1692 H   0  0  0  0  0  0  0  0  0  0  0  0
   -1.5015   -1.3097   -0.8095 H   0  0  0  0  0  0  0  0  0  0  0  0
    8.8770    0.8134   -0.0276 N   0  0  0  0  0  0  0  0  0  0  0  0
    9.9814    0.8524   -0.0550 N   0  0  0  0  0  0  0  0  0  0  0  0
   -4.4831    1.8473   -1.3165 H   0  0  0  0  0  0  0  0  0  0  0  0
   -3.8228    2.8247    0.9052 H   0  0  0  0  0  0  0  0  0  0  0  0
   -2.0050    1.7494    2.2839 H   0  0  0  0  0  0  0  0  0  0  0  0
  1  6  2  0  0  0  0
  1  2  1  0  0  0  0
  2  3  2  0  0  0  0
  3  4  1  0  0  0  0
  4 13  1  0  0  0  0
  5 12  1  0  0  0  0
  5  4  2  0  0  0  0
  6  5  1  0  0  0  0
  7  1  1  0  0  0  0
  8  2  1  0  0  0  0
 10  9  3  0  0  0  0
 11  6  1  0  0  0  0
M  RAD  1   3   2
M  END
