Coordinates from ORCA-job Ph-N2+-scan-d09-499-n800
 OpenBabel09191814153D

 13 12  0  0  0  0  0  0  0  0999 V2000
   -3.0479    0.3400   -1.1383 C   0  0  0  0  0  0  0  0  0  0  0  0
   -3.0288   -0.6862   -0.1346 C   0  0  0  0  0  0  0  0  0  0  0  0
   -3.4767   -0.0773    0.9562 C   0  0  0  0  0  0  0  0  0  0  0  0
   -3.9192    1.0453    1.5081 C   0  0  0  0  0  0  0  0  0  0  0  0
   -3.8977    1.9921    0.4280 C   0  0  0  0  0  0  0  0  0  0  0  0
   -3.4722    1.6385   -0.8525 C   0  0  0  0  0  0  0  0  0  0  0  0
   -2.7117    0.0368   -2.1275 H   0  0  0  0  0  0  0  0  0  0  0  0
   -2.7084   -1.7073   -0.3038 H   0  0  0  0  0  0  0  0  0  0  0  0
   12.2347    1.0497   -0.4973 N   0  0  0  0  0  0  0  0  0  0  0  0
   13.3387    1.0727   -0.5488 N   0  0  0  0  0  0  0  0  0  0  0  0
   -3.4708    2.3856   -1.6393 H   0  0  0  0  0  0  0  0  0  0  0  0
   -4.2339    2.9959    0.6787 H   0  0  0  0  0  0  0  0  0  0  0  0
   -4.2398    1.2719    2.5178 H   0  0  0  0  0  0  0  0  0  0  0  0
  1  6  2  0  0  0  0
  1  2  1  0  0  0  0
  2  3  2  0  0  0  0
  3  4  1  0  0  0  0
  4 13  1  0  0  0  0
  5 12  1  0  0  0  0
  5  4  2  0  0  0  0
  6  5  1  0  0  0  0
  7  1  1  0  0  0  0
  8  2  1  0  0  0  0
 10  9  3  0  0  0  0
 11  6  1  0  0  0  0
M  RAD  1   3   2
M  END
