Coordinates from ORCA-job Ph-N2+-scan-d09-499-n800
 OpenBabel09191814153D

 13 12  0  0  0  0  0  0  0  0999 V2000
   -2.6857    0.1961   -1.1841 C   0  0  0  0  0  0  0  0  0  0  0  0
   -1.3871   -0.1751   -0.6971 C   0  0  0  0  0  0  0  0  0  0  0  0
   -1.2094    0.6007    0.3648 C   0  0  0  0  0  0  0  0  0  0  0  0
   -1.7022    1.5496    1.1510 C   0  0  0  0  0  0  0  0  0  0  0  0
   -2.9865    1.8409    0.5790 C   0  0  0  0  0  0  0  0  0  0  0  0
   -3.4535    1.1771   -0.5559 C   0  0  0  0  0  0  0  0  0  0  0  0
   -3.0248   -0.3366   -2.0698 H   0  0  0  0  0  0  0  0  0  0  0  0
   -0.7527   -0.9291   -1.1482 H   0  0  0  0  0  0  0  0  0  0  0  0
    6.3752    0.6691    0.1377 N   0  0  0  0  0  0  0  0  0  0  0  0
    7.4801    0.6896    0.1098 N   0  0  0  0  0  0  0  0  0  0  0  0
   -4.4296    1.4283   -0.9565 H   0  0  0  0  0  0  0  0  0  0  0  0
   -3.5634    2.6102    1.0880 H   0  0  0  0  0  0  0  0  0  0  0  0
   -1.2940    2.0370    2.0282 H   0  0  0  0  0  0  0  0  0  0  0  0
  1  2  2  0  0  0  0
  1  6  1  0  0  0  0
  2  3  1  0  0  0  0
  3  4  2  0  0  0  0
  4 13  1  0  0  0  0
  5 12  1  0  0  0  0
  5  4  1  0  0  0  0
  6  5  2  0  0  0  0
  7  1  1  0  0  0  0
  8  2  1  0  0  0  0
 10  9  3  0  0  0  0
 11  6  1  0  0  0  0
M  RAD  1   3   2
M  END
