Coordinates from ORCA-job Ph-N2+-scan-d09-499-n800
 OpenBabel09191814153D

 13 12  0  0  0  0  0  0  0  0999 V2000
   -2.7204    0.2204   -1.1986 C   0  0  0  0  0  0  0  0  0  0  0  0
   -1.5072   -0.2470   -0.5893 C   0  0  0  0  0  0  0  0  0  0  0  0
   -1.3844    0.5048    0.4975 C   0  0  0  0  0  0  0  0  0  0  0  0
   -1.8852    1.4813    1.2439 C   0  0  0  0  0  0  0  0  0  0  0  0
   -3.0811    1.8686    0.5500 C   0  0  0  0  0  0  0  0  0  0  0  0
   -3.4766    1.2491   -0.6359 C   0  0  0  0  0  0  0  0  0  0  0  0
   -3.0053   -0.2798   -2.1215 H   0  0  0  0  0  0  0  0  0  0  0  0
   -0.8857   -1.0415   -0.9851 H   0  0  0  0  0  0  0  0  0  0  0  0
    6.8899    0.6926    0.0369 N   0  0  0  0  0  0  0  0  0  0  0  0
    7.9941    0.7311    0.0031 N   0  0  0  0  0  0  0  0  0  0  0  0
   -4.3872    1.5728   -1.1283 H   0  0  0  0  0  0  0  0  0  0  0  0
   -3.6503    2.6738    1.0096 H   0  0  0  0  0  0  0  0  0  0  0  0
   -1.5343    1.9316    2.1645 H   0  0  0  0  0  0  0  0  0  0  0  0
  1  6  2  0  0  0  0
  1  2  1  0  0  0  0
  2  3  2  0  0  0  0
  3  4  1  0  0  0  0
  4 13  1  0  0  0  0
  5 12  1  0  0  0  0
  5  4  2  0  0  0  0
  6  5  1  0  0  0  0
  7  1  1  0  0  0  0
  8  2  1  0  0  0  0
 10  9  3  0  0  0  0
 11  6  1  0  0  0  0
M  RAD  1   3   2
M  END
