Coordinates from ORCA-job Ph-N2+-scan-d09-499-n800
 OpenBabel09191814153D

 13 12  0  0  0  0  0  0  0  0999 V2000
   -3.2052    0.3009   -1.2078 C   0  0  0  0  0  0  0  0  0  0  0  0
   -3.0016   -0.6981   -0.1971 C   0  0  0  0  0  0  0  0  0  0  0  0
   -3.2318   -0.0540    0.9403 C   0  0  0  0  0  0  0  0  0  0  0  0
   -3.5574    1.0880    1.5328 C   0  0  0  0  0  0  0  0  0  0  0  0
   -3.7352    2.0050    0.4416 C   0  0  0  0  0  0  0  0  0  0  0  0
   -3.5616    1.6111   -0.8854 C   0  0  0  0  0  0  0  0  0  0  0  0
   -3.0612   -0.0327   -2.2333 H   0  0  0  0  0  0  0  0  0  0  0  0
   -2.7208   -1.7256   -0.3950 H   0  0  0  0  0  0  0  0  0  0  0  0
   11.8685    1.0668   -0.3632 N   0  0  0  0  0  0  0  0  0  0  0  0
   12.9727    1.0980   -0.4062 N   0  0  0  0  0  0  0  0  0  0  0  0
   -3.7062    2.3354   -1.6801 H   0  0  0  0  0  0  0  0  0  0  0  0
   -4.0135    3.0187    0.7218 H   0  0  0  0  0  0  0  0  0  0  0  0
   -3.6806    1.3442    2.5784 H   0  0  0  0  0  0  0  0  0  0  0  0
  1  6  2  0  0  0  0
  1  2  1  0  0  0  0
  2  3  2  0  0  0  0
  3  4  1  0  0  0  0
  4 13  1  0  0  0  0
  5 12  1  0  0  0  0
  5  4  2  0  0  0  0
  6  5  1  0  0  0  0
  7  1  1  0  0  0  0
  8  2  1  0  0  0  0
 10  9  3  0  0  0  0
 11  6  1  0  0  0  0
M  RAD  1   3   2
M  END
