Coordinates from ORCA-job Ph-N2+-scan-d09-499-n800
 OpenBabel09191814153D

 13 12  0  0  0  0  0  0  0  0999 V2000
   -2.7320    0.2219   -1.1996 C   0  0  0  0  0  0  0  0  0  0  0  0
   -1.5277   -0.2566   -0.5813 C   0  0  0  0  0  0  0  0  0  0  0  0
   -1.4067    0.4934    0.5070 C   0  0  0  0  0  0  0  0  0  0  0  0
   -1.9045    1.4739    1.2500 C   0  0  0  0  0  0  0  0  0  0  0  0
   -3.0915    1.8722    0.5471 C   0  0  0  0  0  0  0  0  0  0  0  0
   -3.4833    1.2569   -0.6421 C   0  0  0  0  0  0  0  0  0  0  0  0
   -3.0142   -0.2753   -2.1250 H   0  0  0  0  0  0  0  0  0  0  0  0
   -0.9103   -1.0565   -0.9728 H   0  0  0  0  0  0  0  0  0  0  0  0
    6.9666    0.6973    0.0301 N   0  0  0  0  0  0  0  0  0  0  0  0
    8.0708    0.7387   -0.0015 N   0  0  0  0  0  0  0  0  0  0  0  0
   -4.3872    1.5890   -1.1414 H   0  0  0  0  0  0  0  0  0  0  0  0
   -3.6570    2.6822    1.0029 H   0  0  0  0  0  0  0  0  0  0  0  0
   -1.5568    1.9206    2.1736 H   0  0  0  0  0  0  0  0  0  0  0  0
  1  6  2  0  0  0  0
  1  2  1  0  0  0  0
  2  3  2  0  0  0  0
  3  4  1  0  0  0  0
  4 13  1  0  0  0  0
  5 12  1  0  0  0  0
  5  4  2  0  0  0  0
  6  5  1  0  0  0  0
  7  1  1  0  0  0  0
  8  2  1  0  0  0  0
 10  9  3  0  0  0  0
 11  6  1  0  0  0  0
M  RAD  1   3   2
M  END
