Coordinates from ORCA-job Ph-N2+-scan-d09-499-n800
 OpenBabel09191814153D

 13 12  0  0  0  0  0  0  0  0999 V2000
   -2.0178    0.0991   -1.0873 C   0  0  0  0  0  0  0  0  0  0  0  0
   -0.6055    0.0040   -0.9897 C   0  0  0  0  0  0  0  0  0  0  0  0
   -0.1954    0.8379   -0.0142 C   0  0  0  0  0  0  0  0  0  0  0  0
   -0.7053    1.7128    0.8745 C   0  0  0  0  0  0  0  0  0  0  0  0
   -2.1138    1.7430    0.7061 C   0  0  0  0  0  0  0  0  0  0  0  0
   -2.7474    0.9516   -0.2551 C   0  0  0  0  0  0  0  0  0  0  0  0
   -2.5049   -0.5188   -1.8368 H   0  0  0  0  0  0  0  0  0  0  0  0
    0.0009   -0.6406   -1.6124 H   0  0  0  0  0  0  0  0  0  0  0  0
    1.9153    0.7490    0.1797 N   0  0  0  0  0  0  0  0  0  0  0  0
    3.0140    0.7043    0.2789 N   0  0  0  0  0  0  0  0  0  0  0  0
   -3.8267    1.0005   -0.3578 H   0  0  0  0  0  0  0  0  0  0  0  0
   -2.6758    2.4077    1.3565 H   0  0  0  0  0  0  0  0  0  0  0  0
   -0.1714    2.3071    1.6043 H   0  0  0  0  0  0  0  0  0  0  0  0
  1  2  2  0  0  0  0
  1  6  1  0  0  0  0
  2  3  1  0  0  0  0
  3  4  2  0  0  0  0
  4 13  1  0  0  0  0
  5  4  1  0  0  0  0
  5 12  1  0  0  0  0
  6  5  2  0  0  0  0
  7  1  1  0  0  0  0
  8  2  1  0  0  0  0
  9 10  3  0  0  0  0
 11  6  1  0  0  0  0
M  RAD  1   3   2
M  END
