Coordinates from ORCA-job Ph-N2+-scan-d09-499-n800
 OpenBabel09191814153D

 13 12  0  0  0  0  0  0  0  0999 V2000
   -2.8742    0.2307   -1.2070 C   0  0  0  0  0  0  0  0  0  0  0  0
   -1.7426   -0.3348   -0.5278 C   0  0  0  0  0  0  0  0  0  0  0  0
   -1.6255    0.4033    0.5689 C   0  0  0  0  0  0  0  0  0  0  0  0
   -2.0891    1.4175    1.2886 C   0  0  0  0  0  0  0  0  0  0  0  0
   -3.2048    1.9019    0.5255 C   0  0  0  0  0  0  0  0  0  0  0  0
   -3.5767    1.3175   -0.6855 C   0  0  0  0  0  0  0  0  0  0  0  0
   -3.1425   -0.2441   -2.1481 H   0  0  0  0  0  0  0  0  0  0  0  0
   -1.1657   -1.1776   -0.8897 H   0  0  0  0  0  0  0  0  0  0  0  0
    7.8013    0.7416   -0.0113 N   0  0  0  0  0  0  0  0  0  0  0  0
    8.9051    0.7995   -0.0222 N   0  0  0  0  0  0  0  0  0  0  0  0
   -4.4263    1.7148   -1.2305 H   0  0  0  0  0  0  0  0  0  0  0  0
   -3.7331    2.7507    0.9543 H   0  0  0  0  0  0  0  0  0  0  0  0
   -1.7596    1.8368    2.2315 H   0  0  0  0  0  0  0  0  0  0  0  0
  1  6  2  0  0  0  0
  1  2  1  0  0  0  0
  2  3  2  0  0  0  0
  3  4  1  0  0  0  0
  4 13  1  0  0  0  0
  5 12  1  0  0  0  0
  5  4  2  0  0  0  0
  6  5  1  0  0  0  0
  7  1  1  0  0  0  0
  8  2  1  0  0  0  0
 10  9  3  0  0  0  0
 11  6  1  0  0  0  0
M  RAD  1   3   2
M  END
