Coordinates from ORCA-job Ph-N2+-scan-d09-499-n800
 OpenBabel09191814153D

 13 12  0  0  0  0  0  0  0  0999 V2000
   -3.3016    0.2815   -1.2304 C   0  0  0  0  0  0  0  0  0  0  0  0
   -2.9651   -0.6977   -0.2357 C   0  0  0  0  0  0  0  0  0  0  0  0
   -3.0647   -0.0361    0.9105 C   0  0  0  0  0  0  0  0  0  0  0  0
   -3.3285    1.1132    1.5195 C   0  0  0  0  0  0  0  0  0  0  0  0
   -3.6482    2.0090    0.4432 C   0  0  0  0  0  0  0  0  0  0  0  0
   -3.6317    1.5935   -0.8887 C   0  0  0  0  0  0  0  0  0  0  0  0
   -3.2796   -0.0689   -2.2603 H   0  0  0  0  0  0  0  0  0  0  0  0
   -2.6976   -1.7256   -0.4494 H   0  0  0  0  0  0  0  0  0  0  0  0
   11.6433    1.0692   -0.2794 N   0  0  0  0  0  0  0  0  0  0  0  0
   12.7475    1.1052   -0.3173 N   0  0  0  0  0  0  0  0  0  0  0  0
   -3.8791    2.3026   -1.6716 H   0  0  0  0  0  0  0  0  0  0  0  0
   -3.9026    3.0247    0.7383 H   0  0  0  0  0  0  0  0  0  0  0  0
   -3.3256    1.3870    2.5680 H   0  0  0  0  0  0  0  0  0  0  0  0
  1  6  2  0  0  0  0
  1  2  1  0  0  0  0
  2  3  2  0  0  0  0
  3  4  1  0  0  0  0
  4 13  1  0  0  0  0
  5 12  1  0  0  0  0
  5  4  2  0  0  0  0
  6  5  1  0  0  0  0
  7  1  1  0  0  0  0
  8  2  1  0  0  0  0
 10  9  3  0  0  0  0
 11  6  1  0  0  0  0
M  RAD  1   3   2
M  END
