Coordinates from ORCA-job Ph-N2+-scan-d09-499-n800
 OpenBabel09191814153D

 13 12  0  0  0  0  0  0  0  0999 V2000
   -2.0537    0.1014   -1.0899 C   0  0  0  0  0  0  0  0  0  0  0  0
   -0.6342    0.0015   -0.9942 C   0  0  0  0  0  0  0  0  0  0  0  0
   -0.2646    0.8395   -0.0192 C   0  0  0  0  0  0  0  0  0  0  0  0
   -0.7344    1.7157    0.8758 C   0  0  0  0  0  0  0  0  0  0  0  0
   -2.1498    1.7440    0.7019 C   0  0  0  0  0  0  0  0  0  0  0  0
   -2.7835    0.9538   -0.2591 C   0  0  0  0  0  0  0  0  0  0  0  0
   -2.5336   -0.5193   -1.8425 H   0  0  0  0  0  0  0  0  0  0  0  0
   -0.0250   -0.6425   -1.6149 H   0  0  0  0  0  0  0  0  0  0  0  0
    2.1053    0.7405    0.1974 N   0  0  0  0  0  0  0  0  0  0  0  0
    3.2048    0.6993    0.2933 N   0  0  0  0  0  0  0  0  0  0  0  0
   -3.8626    1.0037   -0.3627 H   0  0  0  0  0  0  0  0  0  0  0  0
   -2.7050    2.4118    1.3559 H   0  0  0  0  0  0  0  0  0  0  0  0
   -0.1975    2.3082    1.6051 H   0  0  0  0  0  0  0  0  0  0  0  0
  1  2  2  0  0  0  0
  1  6  1  0  0  0  0
  2  3  1  0  0  0  0
  3  4  2  0  0  0  0
  4 13  1  0  0  0  0
  5  4  1  0  0  0  0
  5 12  1  0  0  0  0
  6  5  2  0  0  0  0
  7  1  1  0  0  0  0
  8  2  1  0  0  0  0
  9 10  3  0  0  0  0
 11  6  1  0  0  0  0
M  RAD  1   3   2
M  END
