Coordinates from ORCA-job Ph-N2+-scan-d09-499-n800
 OpenBabel09191814153D

 13 12  0  0  0  0  0  0  0  0999 V2000
   -2.3410    0.1211   -1.1178 C   0  0  0  0  0  0  0  0  0  0  0  0
   -0.9191   -0.0163   -0.9737 C   0  0  0  0  0  0  0  0  0  0  0  0
   -0.6151    0.8183    0.0123 C   0  0  0  0  0  0  0  0  0  0  0  0
   -1.0478    1.7046    0.9002 C   0  0  0  0  0  0  0  0  0  0  0  0
   -2.4638    1.7630    0.6697 C   0  0  0  0  0  0  0  0  0  0  0  0
   -3.0807    0.9893   -0.3140 C   0  0  0  0  0  0  0  0  0  0  0  0
   -2.7968   -0.4927   -1.8920 H   0  0  0  0  0  0  0  0  0  0  0  0
   -0.2992   -0.6732   -1.5723 H   0  0  0  0  0  0  0  0  0  0  0  0
    3.7587    0.6827    0.2858 N   0  0  0  0  0  0  0  0  0  0  0  0
    4.8622    0.6661    0.3460 N   0  0  0  0  0  0  0  0  0  0  0  0
   -4.1539    1.0646   -0.4571 H   0  0  0  0  0  0  0  0  0  0  0  0
   -3.0167    2.4469    1.3103 H   0  0  0  0  0  0  0  0  0  0  0  0
   -0.5205    2.2832    1.6494 H   0  0  0  0  0  0  0  0  0  0  0  0
  1  2  2  0  0  0  0
  1  6  1  0  0  0  0
  2  3  1  0  0  0  0
  3  4  2  0  0  0  0
  4 13  1  0  0  0  0
  5  4  1  0  0  0  0
  5 12  1  0  0  0  0
  6  5  2  0  0  0  0
  7  1  1  0  0  0  0
  8  2  1  0  0  0  0
  9 10  3  0  0  0  0
 11  6  1  0  0  0  0
M  RAD  1   3   2
M  END
