Coordinates from ORCA-job Ph-N2+-scan-d09-499-n800
 OpenBabel09191814153D

 13 12  0  0  0  0  0  0  0  0999 V2000
   -2.5926    0.1493   -1.1465 C   0  0  0  0  0  0  0  0  0  0  0  0
   -1.1947   -0.0553   -0.8898 C   0  0  0  0  0  0  0  0  0  0  0  0
   -0.9325    0.7628    0.1217 C   0  0  0  0  0  0  0  0  0  0  0  0
   -1.3930    1.6681    0.9761 C   0  0  0  0  0  0  0  0  0  0  0  0
   -2.7817    1.7932    0.6329 C   0  0  0  0  0  0  0  0  0  0  0  0
   -3.3531    1.0505   -0.4008 C   0  0  0  0  0  0  0  0  0  0  0  0
   -3.0125   -0.4418   -1.9578 H   0  0  0  0  0  0  0  0  0  0  0  0
   -0.5611   -0.7404   -1.4406 H   0  0  0  0  0  0  0  0  0  0  0  0
    5.3710    0.6367    0.2803 N   0  0  0  0  0  0  0  0  0  0  0  0
    6.4761    0.6349    0.3021 N   0  0  0  0  0  0  0  0  0  0  0  0
   -4.4063    1.1766   -0.6294 H   0  0  0  0  0  0  0  0  0  0  0  0
   -3.3512    2.5019    1.2306 H   0  0  0  0  0  0  0  0  0  0  0  0
   -0.9020    2.2211    1.7680 H   0  0  0  0  0  0  0  0  0  0  0  0
  1  2  2  0  0  0  0
  1  6  1  0  0  0  0
  2  3  1  0  0  0  0
  3  4  2  0  0  0  0
  4 13  1  0  0  0  0
  5  4  1  0  0  0  0
  5 12  1  0  0  0  0
  6  5  2  0  0  0  0
  7  1  1  0  0  0  0
  8  2  1  0  0  0  0
  9 10  3  0  0  0  0
 11  6  1  0  0  0  0
M  RAD  1   3   2
M  END
