Coordinates from ORCA-job Ph-N2+-scan-d09-499-n800
 OpenBabel09191814153D

 13 12  0  0  0  0  0  0  0  0999 V2000
   -2.3384    0.1209   -1.1176 C   0  0  0  0  0  0  0  0  0  0  0  0
   -0.9163   -0.0161   -0.9745 C   0  0  0  0  0  0  0  0  0  0  0  0
   -0.6118    0.8186    0.0113 C   0  0  0  0  0  0  0  0  0  0  0  0
   -1.0442    1.7048    0.8996 C   0  0  0  0  0  0  0  0  0  0  0  0
   -2.4604    1.7627    0.6700 C   0  0  0  0  0  0  0  0  0  0  0  0
   -3.0778    0.9888   -0.3133 C   0  0  0  0  0  0  0  0  0  0  0  0
   -2.7945   -0.4931   -1.8914 H   0  0  0  0  0  0  0  0  0  0  0  0
   -0.2966   -0.6728   -1.5734 H   0  0  0  0  0  0  0  0  0  0  0  0
    3.7418    0.6834    0.2857 N   0  0  0  0  0  0  0  0  0  0  0  0
    4.8453    0.6667    0.3463 N   0  0  0  0  0  0  0  0  0  0  0  0
   -4.1510    1.0638   -0.4555 H   0  0  0  0  0  0  0  0  0  0  0  0
   -3.0131    2.4465    1.3110 H   0  0  0  0  0  0  0  0  0  0  0  0
   -0.5166    2.2836    1.6484 H   0  0  0  0  0  0  0  0  0  0  0  0
  1  2  2  0  0  0  0
  1  6  1  0  0  0  0
  2  3  1  0  0  0  0
  3  4  2  0  0  0  0
  4 13  1  0  0  0  0
  5  4  1  0  0  0  0
  5 12  1  0  0  0  0
  6  5  2  0  0  0  0
  7  1  1  0  0  0  0
  8  2  1  0  0  0  0
  9 10  3  0  0  0  0
 11  6  1  0  0  0  0
M  RAD  1   3   2
M  END
