Coordinates from ORCA-job Ph-N2+-scan-d09-499-n800
 OpenBabel09191814153D

 13 12  0  0  0  0  0  0  0  0999 V2000
   -3.3491    0.2392   -1.2210 C   0  0  0  0  0  0  0  0  0  0  0  0
   -2.4872   -0.5696   -0.4054 C   0  0  0  0  0  0  0  0  0  0  0  0
   -2.3332    0.1438    0.7031 C   0  0  0  0  0  0  0  0  0  0  0  0
   -2.6200    1.2581    1.3642 C   0  0  0  0  0  0  0  0  0  0  0  0
   -3.4756    1.9827    0.4670 C   0  0  0  0  0  0  0  0  0  0  0  0
   -3.8226    1.4776   -0.7865 C   0  0  0  0  0  0  0  0  0  0  0  0
   -3.6035   -0.1781   -2.1927 H   0  0  0  0  0  0  0  0  0  0  0  0
   -2.0928   -1.5355   -0.6970 H   0  0  0  0  0  0  0  0  0  0  0  0
   10.3339    0.9453   -0.0500 N   0  0  0  0  0  0  0  0  0  0  0  0
   11.4383    0.9851   -0.0762 N   0  0  0  0  0  0  0  0  0  0  0  0
   -4.4708    2.0581   -1.4347 H   0  0  0  0  0  0  0  0  0  0  0  0
   -3.8300    2.9445    0.8306 H   0  0  0  0  0  0  0  0  0  0  0  0
   -2.3210    1.6065    2.3454 H   0  0  0  0  0  0  0  0  0  0  0  0
  1  6  2  0  0  0  0
  1  2  1  0  0  0  0
  2  3  2  0  0  0  0
  3  4  1  0  0  0  0
  4 13  1  0  0  0  0
  5 12  1  0  0  0  0
  5  4  2  0  0  0  0
  6  5  1  0  0  0  0
  7  1  1  0  0  0  0
  8  2  1  0  0  0  0
 10  9  3  0  0  0  0
 11  6  1  0  0  0  0
M  RAD  1   3   2
M  END
