Coordinates from ORCA-job Ph-N2+-scan-d09-499-n800
 OpenBabel09191814153D

 13 12  0  0  0  0  0  0  0  0999 V2000
   -2.3066    0.1179   -1.1143 C   0  0  0  0  0  0  0  0  0  0  0  0
   -0.8830   -0.0141   -0.9827 C   0  0  0  0  0  0  0  0  0  0  0  0
   -0.5731    0.8218    0.0003 C   0  0  0  0  0  0  0  0  0  0  0  0
   -1.0015    1.7066    0.8920 C   0  0  0  0  0  0  0  0  0  0  0  0
   -2.4197    1.7596    0.6741 C   0  0  0  0  0  0  0  0  0  0  0  0
   -3.0424    0.9833   -0.3040 C   0  0  0  0  0  0  0  0  0  0  0  0
   -2.7670   -0.4978   -1.8842 H   0  0  0  0  0  0  0  0  0  0  0  0
   -0.2657   -0.6687   -1.5864 H   0  0  0  0  0  0  0  0  0  0  0  0
    3.5392    0.6925    0.2836 N   0  0  0  0  0  0  0  0  0  0  0  0
    4.6422    0.6735    0.3502 N   0  0  0  0  0  0  0  0  0  0  0  0
   -4.1171    1.0545   -0.4374 H   0  0  0  0  0  0  0  0  0  0  0  0
   -2.9696    2.4414    1.3194 H   0  0  0  0  0  0  0  0  0  0  0  0
   -0.4695    2.2871    1.6362 H   0  0  0  0  0  0  0  0  0  0  0  0
  1  2  2  0  0  0  0
  1  6  1  0  0  0  0
  2  3  1  0  0  0  0
  3  4  2  0  0  0  0
  4 13  1  0  0  0  0
  5  4  1  0  0  0  0
  5 12  1  0  0  0  0
  6  5  2  0  0  0  0
  7  1  1  0  0  0  0
  8  2  1  0  0  0  0
  9 10  3  0  0  0  0
 11  6  1  0  0  0  0
M  RAD  1   3   2
M  END
