Coordinates from ORCA-job Ph-N2+-scan-d09-499-n800
 OpenBabel09191814153D

 13 12  0  0  0  0  0  0  0  0999 V2000
   -3.2349    0.2363   -1.2165 C   0  0  0  0  0  0  0  0  0  0  0  0
   -2.2865   -0.5111   -0.4394 C   0  0  0  0  0  0  0  0  0  0  0  0
   -2.1377    0.2103    0.6646 C   0  0  0  0  0  0  0  0  0  0  0  0
   -2.4747    1.3011    1.3411 C   0  0  0  0  0  0  0  0  0  0  0  0
   -3.4142    1.9650    0.4817 C   0  0  0  0  0  0  0  0  0  0  0  0
   -3.7757    1.4381   -0.7586 C   0  0  0  0  0  0  0  0  0  0  0  0
   -3.4986   -0.1967   -2.1788 H   0  0  0  0  0  0  0  0  0  0  0  0
   -1.8383   -1.4472   -0.7500 H   0  0  0  0  0  0  0  0  0  0  0  0
    9.6959    0.8908   -0.0335 N   0  0  0  0  0  0  0  0  0  0  0  0
   10.8003    0.9308   -0.0597 N   0  0  0  0  0  0  0  0  0  0  0  0
   -4.4889    1.9723   -1.3776 H   0  0  0  0  0  0  0  0  0  0  0  0
   -3.8193    2.8996    0.8628 H   0  0  0  0  0  0  0  0  0  0  0  0
   -2.1612    1.6685    2.3108 H   0  0  0  0  0  0  0  0  0  0  0  0
  1  6  2  0  0  0  0
  1  2  1  0  0  0  0
  2  3  2  0  0  0  0
  3  4  1  0  0  0  0
  4 13  1  0  0  0  0
  5 12  1  0  0  0  0
  5  4  2  0  0  0  0
  6  5  1  0  0  0  0
  7  1  1  0  0  0  0
  8  2  1  0  0  0  0
 10  9  3  0  0  0  0
 11  6  1  0  0  0  0
M  RAD  1   3   2
M  END
