Coordinates from ORCA-job Ph-N2+-scan-d09-499-n800
 OpenBabel09191814153D

 13 12  0  0  0  0  0  0  0  0999 V2000
   -2.6385    0.1581   -1.1550 C   0  0  0  0  0  0  0  0  0  0  0  0
   -1.2539   -0.0793   -0.8582 C   0  0  0  0  0  0  0  0  0  0  0  0
   -1.0019    0.7312    0.1619 C   0  0  0  0  0  0  0  0  0  0  0  0
   -1.4659    1.6454    1.0045 C   0  0  0  0  0  0  0  0  0  0  0  0
   -2.8408    1.8033    0.6218 C   0  0  0  0  0  0  0  0  0  0  0  0
   -3.3992    1.0756   -0.4296 C   0  0  0  0  0  0  0  0  0  0  0  0
   -3.0481   -0.4220   -1.9793 H   0  0  0  0  0  0  0  0  0  0  0  0
   -0.6208   -0.7784   -1.3918 H   0  0  0  0  0  0  0  0  0  0  0  0
    5.6839    0.6425    0.2666 N   0  0  0  0  0  0  0  0  0  0  0  0
    6.7893    0.6447    0.2782 N   0  0  0  0  0  0  0  0  0  0  0  0
   -4.4420    1.2265   -0.6880 H   0  0  0  0  0  0  0  0  0  0  0  0
   -3.4105    2.5243    1.2043 H   0  0  0  0  0  0  0  0  0  0  0  0
   -0.9853    2.1859    1.8114 H   0  0  0  0  0  0  0  0  0  0  0  0
  1  2  2  0  0  0  0
  1  6  1  0  0  0  0
  2  3  1  0  0  0  0
  3  4  2  0  0  0  0
  4 13  1  0  0  0  0
  5  4  1  0  0  0  0
  5 12  1  0  0  0  0
  6  5  2  0  0  0  0
  7  1  1  0  0  0  0
  8  2  1  0  0  0  0
  9 10  3  0  0  0  0
 11  6  1  0  0  0  0
M  RAD  1   3   2
M  END
