Coordinates from ORCA-job Ph-N2+-scan-d09-499-n800
 OpenBabel09191814153D

 13 12  0  0  0  0  0  0  0  0999 V2000
   -2.8707    0.4121   -0.9928 C   0  0  0  0  0  0  0  0  0  0  0  0
   -3.0260   -0.6504   -0.0397 C   0  0  0  0  0  0  0  0  0  0  0  0
   -3.7395   -0.1040    0.9369 C   0  0  0  0  0  0  0  0  0  0  0  0
   -4.3546    0.9755    1.4027 C   0  0  0  0  0  0  0  0  0  0  0  0
   -4.1390    1.9633    0.3823 C   0  0  0  0  0  0  0  0  0  0  0  0
   -3.4161    1.6783   -0.7764 C   0  0  0  0  0  0  0  0  0  0  0  0
   -2.3059    0.1616   -1.8883 H   0  0  0  0  0  0  0  0  0  0  0  0
   -2.6258   -1.6499   -0.1615 H   0  0  0  0  0  0  0  0  0  0  0  0
   12.7451    1.0062   -0.6670 N   0  0  0  0  0  0  0  0  0  0  0  0
   13.8489    1.0191   -0.7268 N   0  0  0  0  0  0  0  0  0  0  0  0
   -3.2748    2.4546   -1.5214 H   0  0  0  0  0  0  0  0  0  0  0  0
   -4.5731    2.9415    0.5778 H   0  0  0  0  0  0  0  0  0  0  0  0
   -4.9023    1.1496    2.3211 H   0  0  0  0  0  0  0  0  0  0  0  0
  1  6  2  0  0  0  0
  1  2  1  0  0  0  0
  2  3  2  0  0  0  0
  3  4  1  0  0  0  0
  4 13  1  0  0  0  0
  5 12  1  0  0  0  0
  5  4  2  0  0  0  0
  6  5  1  0  0  0  0
  7  1  1  0  0  0  0
  8  2  1  0  0  0  0
 10  9  3  0  0  0  0
 11  6  1  0  0  0  0
M  RAD  1   3   2
M  END
