Coordinates from ORCA-job Ph-N2+-scan-d09-499-n800
 OpenBabel09191814153D

 13 12  0  0  0  0  0  0  0  0999 V2000
   -2.9234    0.2330   -1.2090 C   0  0  0  0  0  0  0  0  0  0  0  0
   -1.8135   -0.3556   -0.5138 C   0  0  0  0  0  0  0  0  0  0  0  0
   -1.6977    0.3794    0.5852 C   0  0  0  0  0  0  0  0  0  0  0  0
   -2.1512    1.4024    1.2988 C   0  0  0  0  0  0  0  0  0  0  0  0
   -3.2455    1.9097    0.5198 C   0  0  0  0  0  0  0  0  0  0  0  0
   -3.6113    1.3335   -0.6970 C   0  0  0  0  0  0  0  0  0  0  0  0
   -3.1874   -0.2358   -2.1543 H   0  0  0  0  0  0  0  0  0  0  0  0
   -1.2486   -1.2098   -0.8678 H   0  0  0  0  0  0  0  0  0  0  0  0
    8.0876    0.7576   -0.0173 N   0  0  0  0  0  0  0  0  0  0  0  0
    9.1917    0.8116   -0.0317 N   0  0  0  0  0  0  0  0  0  0  0  0
   -4.4447    1.7482   -1.2541 H   0  0  0  0  0  0  0  0  0  0  0  0
   -3.7627    2.7688    0.9414 H   0  0  0  0  0  0  0  0  0  0  0  0
   -1.8271    1.8146    2.2467 H   0  0  0  0  0  0  0  0  0  0  0  0
  1  6  2  0  0  0  0
  1  2  1  0  0  0  0
  2  3  2  0  0  0  0
  3  4  1  0  0  0  0
  4 13  1  0  0  0  0
  5 12  1  0  0  0  0
  5  4  2  0  0  0  0
  6  5  1  0  0  0  0
  7  1  1  0  0  0  0
  8  2  1  0  0  0  0
 10  9  3  0  0  0  0
 11  6  1  0  0  0  0
M  RAD  1   3   2
M  END
