Coordinates from ORCA-job Ph-N2+-scan-d09-499-n800
 OpenBabel09191814153D

 13 12  0  0  0  0  0  0  0  0999 V2000
   -3.2167    0.2984   -1.2111 C   0  0  0  0  0  0  0  0  0  0  0  0
   -3.0003   -0.6989   -0.2013 C   0  0  0  0  0  0  0  0  0  0  0  0
   -3.2154   -0.0527    0.9378 C   0  0  0  0  0  0  0  0  0  0  0  0
   -3.5325    1.0906    1.5324 C   0  0  0  0  0  0  0  0  0  0  0  0
   -3.7241    2.0057    0.4420 C   0  0  0  0  0  0  0  0  0  0  0  0
   -3.5683    1.6093   -0.8865 C   0  0  0  0  0  0  0  0  0  0  0  0
   -3.0864   -0.0372   -2.2378 H   0  0  0  0  0  0  0  0  0  0  0  0
   -2.7225   -1.7269   -0.4010 H   0  0  0  0  0  0  0  0  0  0  0  0
   11.8456    1.0681   -0.3540 N   0  0  0  0  0  0  0  0  0  0  0  0
   12.9498    1.1000   -0.3964 N   0  0  0  0  0  0  0  0  0  0  0  0
   -3.7228    2.3323   -1.6805 H   0  0  0  0  0  0  0  0  0  0  0  0
   -3.9983    3.0201    0.7239 H   0  0  0  0  0  0  0  0  0  0  0  0
   -3.6417    1.3489    2.5791 H   0  0  0  0  0  0  0  0  0  0  0  0
  1  6  2  0  0  0  0
  1  2  1  0  0  0  0
  2  3  2  0  0  0  0
  3  4  1  0  0  0  0
  4 13  1  0  0  0  0
  5 12  1  0  0  0  0
  5  4  2  0  0  0  0
  6  5  1  0  0  0  0
  7  1  1  0  0  0  0
  8  2  1  0  0  0  0
 10  9  3  0  0  0  0
 11  6  1  0  0  0  0
M  RAD  1   3   2
M  END
