Coordinates from ORCA-job Ph-N2+-scan-d09-499-n800
 OpenBabel09191814153D

 13 12  0  0  0  0  0  0  0  0999 V2000
   -2.9733    0.2349   -1.2108 C   0  0  0  0  0  0  0  0  0  0  0  0
   -1.8859   -0.3769   -0.5002 C   0  0  0  0  0  0  0  0  0  0  0  0
   -1.7705    0.3552    0.6007 C   0  0  0  0  0  0  0  0  0  0  0  0
   -2.2126    1.3873    1.3083 C   0  0  0  0  0  0  0  0  0  0  0  0
   -3.2848    1.9176    0.5140 C   0  0  0  0  0  0  0  0  0  0  0  0
   -3.6452    1.3495   -0.7081 C   0  0  0  0  0  0  0  0  0  0  0  0
   -3.2335   -0.2280   -2.1601 H   0  0  0  0  0  0  0  0  0  0  0  0
   -1.3340   -1.2426   -0.8466 H   0  0  0  0  0  0  0  0  0  0  0  0
    8.3734    0.7759   -0.0214 N   0  0  0  0  0  0  0  0  0  0  0  0
    9.4776    0.8233   -0.0417 N   0  0  0  0  0  0  0  0  0  0  0  0
   -4.4616    1.7818   -1.2769 H   0  0  0  0  0  0  0  0  0  0  0  0
   -3.7899    2.7872    0.9287 H   0  0  0  0  0  0  0  0  0  0  0  0
   -1.8935    1.7923    2.2610 H   0  0  0  0  0  0  0  0  0  0  0  0
  1  6  2  0  0  0  0
  1  2  1  0  0  0  0
  2  3  2  0  0  0  0
  3  4  1  0  0  0  0
  4 13  1  0  0  0  0
  5 12  1  0  0  0  0
  5  4  2  0  0  0  0
  6  5  1  0  0  0  0
  7  1  1  0  0  0  0
  8  2  1  0  0  0  0
 10  9  3  0  0  0  0
 11  6  1  0  0  0  0
M  RAD  1   3   2
M  END
