Coordinates from ORCA-job Ph-N2+-scan-d09-499-n800
 OpenBabel09191814153D

 13 12  0  0  0  0  0  0  0  0999 V2000
   -2.5768    0.1471   -1.1443 C   0  0  0  0  0  0  0  0  0  0  0  0
   -1.1761   -0.0497   -0.8968 C   0  0  0  0  0  0  0  0  0  0  0  0
   -0.9117    0.7703    0.1127 C   0  0  0  0  0  0  0  0  0  0  0  0
   -1.3715    1.6733    0.9697 C   0  0  0  0  0  0  0  0  0  0  0  0
   -2.7631    1.7907    0.6358 C   0  0  0  0  0  0  0  0  0  0  0  0
   -3.3373    1.0444   -0.3939 C   0  0  0  0  0  0  0  0  0  0  0  0
   -2.9988   -0.4466   -1.9525 H   0  0  0  0  0  0  0  0  0  0  0  0
   -0.5424   -0.7315   -1.4516 H   0  0  0  0  0  0  0  0  0  0  0  0
    5.2711    0.6362    0.2819 N   0  0  0  0  0  0  0  0  0  0  0  0
    6.3762    0.6332    0.3060 N   0  0  0  0  0  0  0  0  0  0  0  0
   -4.3926    1.1646   -0.6154 H   0  0  0  0  0  0  0  0  0  0  0  0
   -3.3325    2.4964    1.2370 H   0  0  0  0  0  0  0  0  0  0  0  0
   -0.8782    2.2293    1.7582 H   0  0  0  0  0  0  0  0  0  0  0  0
  1  2  2  0  0  0  0
  1  6  1  0  0  0  0
  2  3  1  0  0  0  0
  3  4  2  0  0  0  0
  4 13  1  0  0  0  0
  5  4  1  0  0  0  0
  5 12  1  0  0  0  0
  6  5  2  0  0  0  0
  7  1  1  0  0  0  0
  8  2  1  0  0  0  0
  9 10  3  0  0  0  0
 11  6  1  0  0  0  0
M  RAD  1   3   2
M  END
