Coordinates from ORCA-job Ph-N2+-scan-d09-499-n800
 OpenBabel09191814153D

 13 13  0  0  0  0  0  0  0  0999 V2000
   -1.9111    0.0897   -1.0825 C   0  0  0  0  0  0  0  0  0  0  0  0
   -0.5362    0.0154   -0.9697 C   0  0  0  0  0  0  0  0  0  0  0  0
    0.1143    0.8261    0.0130 C   0  0  0  0  0  0  0  0  0  0  0  0
   -0.6344    1.6973    0.8653 C   0  0  0  0  0  0  0  0  0  0  0  0
   -2.0076    1.7431    0.7213 C   0  0  0  0  0  0  0  0  0  0  0  0
   -2.6437    0.9465   -0.2449 C   0  0  0  0  0  0  0  0  0  0  0  0
   -2.4206   -0.5179   -1.8231 H   0  0  0  0  0  0  0  0  0  0  0  0
    0.0583   -0.6361   -1.6025 H   0  0  0  0  0  0  0  0  0  0  0  0
    1.3284    0.7740    0.1257 N   0  0  0  0  0  0  0  0  0  0  0  0
    2.4471    0.7260    0.2294 N   0  0  0  0  0  0  0  0  0  0  0  0
   -3.7243    0.9945   -0.3467 H   0  0  0  0  0  0  0  0  0  0  0  0
   -2.5908    2.3987    1.3595 H   0  0  0  0  0  0  0  0  0  0  0  0
   -0.1130    2.3004    1.6020 H   0  0  0  0  0  0  0  0  0  0  0  0
  1  2  2  0  0  0  0
  1  6  1  0  0  0  0
  2  3  1  0  0  0  0
  3  9  1  0  0  0  0
  3  4  2  0  0  0  0
  4 13  1  0  0  0  0
  5  4  1  0  0  0  0
  5 12  1  0  0  0  0
  6  5  2  0  0  0  0
  7  1  1  0  0  0  0
  8  2  1  0  0  0  0
  9 10  1  0  0  0  0
 11  6  1  0  0  0  0
M  RAD  2   9   2  10   3
M  END
