Coordinates from ORCA-job Ph-N2+-scan-d09-499-n800
 OpenBabel09191814153D

 13 12  0  0  0  0  0  0  0  0999 V2000
   -2.8589    0.4185   -0.9748 C   0  0  0  0  0  0  0  0  0  0  0  0
   -3.0342   -0.6492   -0.0302 C   0  0  0  0  0  0  0  0  0  0  0  0
   -3.7712   -0.1076    0.9314 C   0  0  0  0  0  0  0  0  0  0  0  0
   -4.3993    0.9687    1.3876 C   0  0  0  0  0  0  0  0  0  0  0  0
   -4.1618    1.9614    0.3771 C   0  0  0  0  0  0  0  0  0  0  0  0
   -3.4114    1.6825   -0.7658 C   0  0  0  0  0  0  0  0  0  0  0  0
   -2.2721    0.1730   -1.8575 H   0  0  0  0  0  0  0  0  0  0  0  0
   -2.6291   -1.6474   -0.1467 H   0  0  0  0  0  0  0  0  0  0  0  0
   12.8129    1.0039   -0.6853 N   0  0  0  0  0  0  0  0  0  0  0  0
   13.9166    1.0165   -0.7453 N   0  0  0  0  0  0  0  0  0  0  0  0
   -3.2540    2.4621   -1.5040 H   0  0  0  0  0  0  0  0  0  0  0  0
   -4.6021    2.9380    0.5665 H   0  0  0  0  0  0  0  0  0  0  0  0
   -4.9690    1.1372    2.2936 H   0  0  0  0  0  0  0  0  0  0  0  0
  1  6  2  0  0  0  0
  1  2  1  0  0  0  0
  2  3  2  0  0  0  0
  3  4  1  0  0  0  0
  4 13  1  0  0  0  0
  5 12  1  0  0  0  0
  5  4  2  0  0  0  0
  6  5  1  0  0  0  0
  7  1  1  0  0  0  0
  8  2  1  0  0  0  0
 10  9  3  0  0  0  0
 11  6  1  0  0  0  0
M  RAD  1   3   2
M  END
