Coordinates from ORCA-job Ph-N2+-scan-d09-499-n800
 OpenBabel09191814153D

 13 12  0  0  0  0  0  0  0  0999 V2000
   -3.3669    0.2649   -1.2377 C   0  0  0  0  0  0  0  0  0  0  0  0
   -2.8468   -0.6770   -0.2865 C   0  0  0  0  0  0  0  0  0  0  0  0
   -2.8156    0.0032    0.8526 C   0  0  0  0  0  0  0  0  0  0  0  0
   -3.0506    1.1505    1.4767 C   0  0  0  0  0  0  0  0  0  0  0  0
   -3.5611    2.0082    0.4441 C   0  0  0  0  0  0  0  0  0  0  0  0
   -3.7098    1.5667   -0.8712 C   0  0  0  0  0  0  0  0  0  0  0  0
   -3.4734   -0.1060   -2.2550 H   0  0  0  0  0  0  0  0  0  0  0  0
   -2.5650   -1.6964   -0.5213 H   0  0  0  0  0  0  0  0  0  0  0  0
   11.2442    1.0473   -0.1843 N   0  0  0  0  0  0  0  0  0  0  0  0
   12.3484    1.0878   -0.2178 N   0  0  0  0  0  0  0  0  0  0  0  0
   -4.0984    2.2473   -1.6215 H   0  0  0  0  0  0  0  0  0  0  0  0
   -3.8221    3.0164    0.7579 H   0  0  0  0  0  0  0  0  0  0  0  0
   -2.9165    1.4449    2.5108 H   0  0  0  0  0  0  0  0  0  0  0  0
  1  6  2  0  0  0  0
  1  2  1  0  0  0  0
  2  3  2  0  0  0  0
  3  4  1  0  0  0  0
  4 13  1  0  0  0  0
  5 12  1  0  0  0  0
  5  4  2  0  0  0  0
  6  5  1  0  0  0  0
  7  1  1  0  0  0  0
  8  2  1  0  0  0  0
 10  9  3  0  0  0  0
 11  6  1  0  0  0  0
M  RAD  1   3   2
M  END
