Coordinates from ORCA-job Ph-N2+-scan-d09-499-n800
 OpenBabel09191814153D

 13 12  0  0  0  0  0  0  0  0999 V2000
   -3.3228    0.2776   -1.2338 C   0  0  0  0  0  0  0  0  0  0  0  0
   -2.9412   -0.6936   -0.2473 C   0  0  0  0  0  0  0  0  0  0  0  0
   -3.0048   -0.0270    0.8986 C   0  0  0  0  0  0  0  0  0  0  0  0
   -3.2620    1.1217    1.5113 C   0  0  0  0  0  0  0  0  0  0  0  0
   -3.6285    2.0092    0.4434 C   0  0  0  0  0  0  0  0  0  0  0  0
   -3.6542    1.5877   -0.8865 C   0  0  0  0  0  0  0  0  0  0  0  0
   -3.3344   -0.0781   -2.2620 H   0  0  0  0  0  0  0  0  0  0  0  0
   -2.6735   -1.7203   -0.4661 H   0  0  0  0  0  0  0  0  0  0  0  0
   11.5659    1.0653   -0.2559 N   0  0  0  0  0  0  0  0  0  0  0  0
   12.6702    1.1021   -0.2924 N   0  0  0  0  0  0  0  0  0  0  0  0
   -3.9367    2.2903   -1.6633 H   0  0  0  0  0  0  0  0  0  0  0  0
   -3.8840    3.0233    0.7428 H   0  0  0  0  0  0  0  0  0  0  0  0
   -3.2277    1.3996    2.5580 H   0  0  0  0  0  0  0  0  0  0  0  0
  1  6  2  0  0  0  0
  1  2  1  0  0  0  0
  2  3  2  0  0  0  0
  3  4  1  0  0  0  0
  4 13  1  0  0  0  0
  5 12  1  0  0  0  0
  5  4  2  0  0  0  0
  6  5  1  0  0  0  0
  7  1  1  0  0  0  0
  8  2  1  0  0  0  0
 10  9  3  0  0  0  0
 11  6  1  0  0  0  0
M  RAD  1   3   2
M  END
