Coordinates from ORCA-job Ph-N2+-scan-d09-499-n800
 OpenBabel09191814153D

 13 12  0  0  0  0  0  0  0  0999 V2000
   -2.9817    0.2352   -1.2111 C   0  0  0  0  0  0  0  0  0  0  0  0
   -1.8982   -0.3807   -0.4980 C   0  0  0  0  0  0  0  0  0  0  0  0
   -1.7827    0.3511    0.6032 C   0  0  0  0  0  0  0  0  0  0  0  0
   -2.2227    1.3847    1.3098 C   0  0  0  0  0  0  0  0  0  0  0  0
   -3.2911    1.9190    0.5131 C   0  0  0  0  0  0  0  0  0  0  0  0
   -3.6507    1.3522   -0.7100 C   0  0  0  0  0  0  0  0  0  0  0  0
   -3.2414   -0.2267   -2.1610 H   0  0  0  0  0  0  0  0  0  0  0  0
   -1.3487   -1.2483   -0.8431 H   0  0  0  0  0  0  0  0  0  0  0  0
    8.4209    0.7792   -0.0219 N   0  0  0  0  0  0  0  0  0  0  0  0
    9.5251    0.8255   -0.0433 N   0  0  0  0  0  0  0  0  0  0  0  0
   -4.4642    1.7875   -1.2807 H   0  0  0  0  0  0  0  0  0  0  0  0
   -3.7939    2.7904    0.9266 H   0  0  0  0  0  0  0  0  0  0  0  0
   -1.9044    1.7885    2.2633 H   0  0  0  0  0  0  0  0  0  0  0  0
  1  6  2  0  0  0  0
  1  2  1  0  0  0  0
  2  3  2  0  0  0  0
  3  4  1  0  0  0  0
  4 13  1  0  0  0  0
  5 12  1  0  0  0  0
  5  4  2  0  0  0  0
  6  5  1  0  0  0  0
  7  1  1  0  0  0  0
  8  2  1  0  0  0  0
 10  9  3  0  0  0  0
 11  6  1  0  0  0  0
M  RAD  1   3   2
M  END
