Coordinates from ORCA-job Ph-N2+-scan-d09-499-n800
 OpenBabel09191814153D

 13 12  0  0  0  0  0  0  0  0999 V2000
   -2.6609    0.1660   -1.1619 C   0  0  0  0  0  0  0  0  0  0  0  0
   -1.2906   -0.1012   -0.8264 C   0  0  0  0  0  0  0  0  0  0  0  0
   -1.0505    0.7022    0.2021 C   0  0  0  0  0  0  0  0  0  0  0  0
   -1.5190    1.6245    1.0335 C   0  0  0  0  0  0  0  0  0  0  0  0
   -2.8787    1.8119    0.6124 C   0  0  0  0  0  0  0  0  0  0  0  0
   -3.4224    1.0980   -0.4561 C   0  0  0  0  0  0  0  0  0  0  0  0
   -3.0591   -0.4039   -1.9988 H   0  0  0  0  0  0  0  0  0  0  0  0
   -0.6576   -0.8128   -1.3434 H   0  0  0  0  0  0  0  0  0  0  0  0
    5.8767    0.6495    0.2460 N   0  0  0  0  0  0  0  0  0  0  0  0
    6.9820    0.6551    0.2481 N   0  0  0  0  0  0  0  0  0  0  0  0
   -4.4540    1.2711   -0.7434 H   0  0  0  0  0  0  0  0  0  0  0  0
   -3.4494    2.5440    1.1800 H   0  0  0  0  0  0  0  0  0  0  0  0
   -1.0501    2.1535    1.8546 H   0  0  0  0  0  0  0  0  0  0  0  0
  1  2  2  0  0  0  0
  1  6  1  0  0  0  0
  2  3  1  0  0  0  0
  3  4  2  0  0  0  0
  4 13  1  0  0  0  0
  5  4  1  0  0  0  0
  5 12  1  0  0  0  0
  6  5  2  0  0  0  0
  7  1  1  0  0  0  0
  8  2  1  0  0  0  0
  9 10  3  0  0  0  0
 11  6  1  0  0  0  0
M  RAD  1   3   2
M  END
