Coordinates from ORCA-job Ph-N2+-scan-d09-499-n800
 OpenBabel09191814153D

 13 12  0  0  0  0  0  0  0  0999 V2000
   -3.3721    0.2556   -1.2342 C   0  0  0  0  0  0  0  0  0  0  0  0
   -2.7107   -0.6424   -0.3293 C   0  0  0  0  0  0  0  0  0  0  0  0
   -2.6193    0.0505    0.7988 C   0  0  0  0  0  0  0  0  0  0  0  0
   -2.8678    1.1877    1.4360 C   0  0  0  0  0  0  0  0  0  0  0  0
   -3.5219    2.0013    0.4497 C   0  0  0  0  0  0  0  0  0  0  0  0
   -3.7609    1.5377   -0.8445 C   0  0  0  0  0  0  0  0  0  0  0  0
   -3.5466   -0.1317   -2.2357 H   0  0  0  0  0  0  0  0  0  0  0  0
   -2.3890   -1.6452   -0.5833 H   0  0  0  0  0  0  0  0  0  0  0  0
   10.8909    1.0108   -0.1262 N   0  0  0  0  0  0  0  0  0  0  0  0
   11.9952    1.0523   -0.1574 N   0  0  0  0  0  0  0  0  0  0  0  0
   -4.2570    2.1851   -1.5599 H   0  0  0  0  0  0  0  0  0  0  0  0
   -3.8152    2.9951    0.7807 H   0  0  0  0  0  0  0  0  0  0  0  0
   -2.6594    1.5007    2.4521 H   0  0  0  0  0  0  0  0  0  0  0  0
  1  6  2  0  0  0  0
  1  2  1  0  0  0  0
  2  3  2  0  0  0  0
  3  4  1  0  0  0  0
  4 13  1  0  0  0  0
  5 12  1  0  0  0  0
  5  4  2  0  0  0  0
  6  5  1  0  0  0  0
  7  1  1  0  0  0  0
  8  2  1  0  0  0  0
 10  9  3  0  0  0  0
 11  6  1  0  0  0  0
M  RAD  1   3   2
M  END
