Coordinates from ORCA-job Ph-N2+-scan-d09-499-n800
 OpenBabel09191814153D

 13 12  0  0  0  0  0  0  0  0999 V2000
   -2.3802    0.1250   -1.1218 C   0  0  0  0  0  0  0  0  0  0  0  0
   -0.9604   -0.0186   -0.9626 C   0  0  0  0  0  0  0  0  0  0  0  0
   -0.6636    0.8144    0.0270 C   0  0  0  0  0  0  0  0  0  0  0  0
   -1.1019    1.7025    0.9104 C   0  0  0  0  0  0  0  0  0  0  0  0
   -2.5151    1.7670    0.6646 C   0  0  0  0  0  0  0  0  0  0  0  0
   -3.1247    0.9962   -0.3259 C   0  0  0  0  0  0  0  0  0  0  0  0
   -2.8300   -0.4868   -1.9010 H   0  0  0  0  0  0  0  0  0  0  0  0
   -0.3371   -0.6781   -1.5549 H   0  0  0  0  0  0  0  0  0  0  0  0
    4.0117    0.6710    0.2869 N   0  0  0  0  0  0  0  0  0  0  0  0
    5.1157    0.6568    0.3400 N   0  0  0  0  0  0  0  0  0  0  0  0
   -4.1959    1.0762   -0.4805 H   0  0  0  0  0  0  0  0  0  0  0  0
   -3.0718    2.4532    1.2994 H   0  0  0  0  0  0  0  0  0  0  0  0
   -0.5804    2.2789    1.6654 H   0  0  0  0  0  0  0  0  0  0  0  0
  1  2  2  0  0  0  0
  1  6  1  0  0  0  0
  2  3  1  0  0  0  0
  3  4  2  0  0  0  0
  4 13  1  0  0  0  0
  5  4  1  0  0  0  0
  5 12  1  0  0  0  0
  6  5  2  0  0  0  0
  7  1  1  0  0  0  0
  8  2  1  0  0  0  0
  9 10  3  0  0  0  0
 11  6  1  0  0  0  0
M  RAD  1   3   2
M  END
