Coordinates from ORCA-job Ph-N2+-scan-d09-499-n800
 OpenBabel09191814153D

 13 12  0  0  0  0  0  0  0  0999 V2000
   -3.3677    0.2508   -1.2306 C   0  0  0  0  0  0  0  0  0  0  0  0
   -2.6321   -0.6171   -0.3543 C   0  0  0  0  0  0  0  0  0  0  0  0
   -2.5210    0.0809    0.7690 C   0  0  0  0  0  0  0  0  0  0  0  0
   -2.7836    1.2113    1.4130 C   0  0  0  0  0  0  0  0  0  0  0  0
   -3.5120    1.9949    0.4552 C   0  0  0  0  0  0  0  0  0  0  0  0
   -3.7891    1.5178   -0.8263 C   0  0  0  0  0  0  0  0  0  0  0  0
   -3.5702   -0.1460   -2.2230 H   0  0  0  0  0  0  0  0  0  0  0  0
   -2.2815   -1.6068   -0.6211 H   0  0  0  0  0  0  0  0  0  0  0  0
   10.7152    0.9868   -0.0995 N   0  0  0  0  0  0  0  0  0  0  0  0
   11.8194    1.0277   -0.1295 N   0  0  0  0  0  0  0  0  0  0  0  0
   -4.3405    2.1432   -1.5206 H   0  0  0  0  0  0  0  0  0  0  0  0
   -3.8287    2.9778    0.7968 H   0  0  0  0  0  0  0  0  0  0  0  0
   -2.5419    1.5366    2.4178 H   0  0  0  0  0  0  0  0  0  0  0  0
  1  6  2  0  0  0  0
  1  2  1  0  0  0  0
  2  3  2  0  0  0  0
  3  4  1  0  0  0  0
  4 13  1  0  0  0  0
  5 12  1  0  0  0  0
  5  4  2  0  0  0  0
  6  5  1  0  0  0  0
  7  1  1  0  0  0  0
  8  2  1  0  0  0  0
 10  9  3  0  0  0  0
 11  6  1  0  0  0  0
M  RAD  1   3   2
M  END
