Coordinates from ORCA-job Ph-N2+-scan-d09-499-n800
 OpenBabel09191814153D

 13 12  0  0  0  0  0  0  0  0999 V2000
   -3.1703    0.3090   -1.1966 C   0  0  0  0  0  0  0  0  0  0  0  0
   -3.0044   -0.6952   -0.1842 C   0  0  0  0  0  0  0  0  0  0  0  0
   -3.2803   -0.0581    0.9469 C   0  0  0  0  0  0  0  0  0  0  0  0
   -3.6319    1.0798    1.5323 C   0  0  0  0  0  0  0  0  0  0  0  0
   -3.7687    2.0025    0.4401 C   0  0  0  0  0  0  0  0  0  0  0  0
   -3.5419    1.6165   -0.8813 C   0  0  0  0  0  0  0  0  0  0  0  0
   -2.9853   -0.0186   -2.2175 H   0  0  0  0  0  0  0  0  0  0  0  0
   -2.7139   -1.7211   -0.3767 H   0  0  0  0  0  0  0  0  0  0  0  0
   11.9379    1.0625   -0.3912 N   0  0  0  0  0  0  0  0  0  0  0  0
   13.0421    1.0918   -0.4358 N   0  0  0  0  0  0  0  0  0  0  0  0
   -3.6569    2.3451   -1.6770 H   0  0  0  0  0  0  0  0  0  0  0  0
   -4.0608    3.0139    0.7146 H   0  0  0  0  0  0  0  0  0  0  0  0
   -3.7992    1.3296    2.5732 H   0  0  0  0  0  0  0  0  0  0  0  0
  1  6  2  0  0  0  0
  1  2  1  0  0  0  0
  2  3  2  0  0  0  0
  3  4  1  0  0  0  0
  4 13  1  0  0  0  0
  5 12  1  0  0  0  0
  5  4  2  0  0  0  0
  6  5  1  0  0  0  0
  7  1  1  0  0  0  0
  8  2  1  0  0  0  0
 10  9  3  0  0  0  0
 11  6  1  0  0  0  0
M  RAD  1   3   2
M  END
