Coordinates from ORCA-job Ph-N2+-scan-d09-499-n800
 OpenBabel09191814153D

 13 12  0  0  0  0  0  0  0  0999 V2000
   -2.6857    0.1908   -1.1807 C   0  0  0  0  0  0  0  0  0  0  0  0
   -1.3732   -0.1640   -0.7196 C   0  0  0  0  0  0  0  0  0  0  0  0
   -1.1829    0.6166    0.3366 C   0  0  0  0  0  0  0  0  0  0  0  0
   -1.6707    1.5615    1.1306 C   0  0  0  0  0  0  0  0  0  0  0  0
   -2.9697    1.8365    0.5844 C   0  0  0  0  0  0  0  0  0  0  0  0
   -3.4520    1.1645   -0.5392 C   0  0  0  0  0  0  0  0  0  0  0  0
   -3.0367   -0.3479   -2.0582 H   0  0  0  0  0  0  0  0  0  0  0  0
   -0.7393   -0.9115   -1.1820 H   0  0  0  0  0  0  0  0  0  0  0  0
    6.3030    0.6668    0.1583 N   0  0  0  0  0  0  0  0  0  0  0  0
    7.4080    0.6852    0.1353 N   0  0  0  0  0  0  0  0  0  0  0  0
   -4.4390    1.4034   -0.9204 H   0  0  0  0  0  0  0  0  0  0  0  0
   -3.5451    2.6001    1.1035 H   0  0  0  0  0  0  0  0  0  0  0  0
   -1.2504    2.0557    1.9983 H   0  0  0  0  0  0  0  0  0  0  0  0
  1  2  2  0  0  0  0
  1  6  1  0  0  0  0
  2  3  1  0  0  0  0
  3  4  2  0  0  0  0
  4 13  1  0  0  0  0
  5 12  1  0  0  0  0
  5  4  1  0  0  0  0
  6  5  2  0  0  0  0
  7  1  1  0  0  0  0
  8  2  1  0  0  0  0
 10  9  3  0  0  0  0
 11  6  1  0  0  0  0
M  RAD  1   3   2
M  END
