Coordinates from ORCA-job Ph-N2+-scan-d09-499-n800
 OpenBabel09191814153D

 13 12  0  0  0  0  0  0  0  0999 V2000
   -3.3432    0.2730   -1.2364 C   0  0  0  0  0  0  0  0  0  0  0  0
   -2.9138   -0.6889   -0.2604 C   0  0  0  0  0  0  0  0  0  0  0  0
   -2.9424   -0.0177    0.8841 C   0  0  0  0  0  0  0  0  0  0  0  0
   -3.1897    1.1310    1.5008 C   0  0  0  0  0  0  0  0  0  0  0  0
   -3.6062    2.0091    0.4435 C   0  0  0  0  0  0  0  0  0  0  0  0
   -3.6765    1.5809   -0.8827 C   0  0  0  0  0  0  0  0  0  0  0  0
   -3.3894   -0.0878   -2.2617 H   0  0  0  0  0  0  0  0  0  0  0  0
   -2.6427   -1.7136   -0.4845 H   0  0  0  0  0  0  0  0  0  0  0  0
   11.4714    1.0605   -0.2306 N   0  0  0  0  0  0  0  0  0  0  0  0
   12.5756    1.0985   -0.2658 N   0  0  0  0  0  0  0  0  0  0  0  0
   -3.9956    2.2765   -1.6515 H   0  0  0  0  0  0  0  0  0  0  0  0
   -3.8619    3.0217    0.7477 H   0  0  0  0  0  0  0  0  0  0  0  0
   -3.1192    1.4145    2.5443 H   0  0  0  0  0  0  0  0  0  0  0  0
  1  6  2  0  0  0  0
  1  2  1  0  0  0  0
  2  3  2  0  0  0  0
  3  4  1  0  0  0  0
  4 13  1  0  0  0  0
  5 12  1  0  0  0  0
  5  4  2  0  0  0  0
  6  5  1  0  0  0  0
  7  1  1  0  0  0  0
  8  2  1  0  0  0  0
 10  9  3  0  0  0  0
 11  6  1  0  0  0  0
M  RAD  1   3   2
M  END
