Coordinates from ORCA-job Ph-N2+-scan-d09-499-n800
 OpenBabel09191814153D

 13 12  0  0  0  0  0  0  0  0999 V2000
   -3.2411    0.2363   -1.2166 C   0  0  0  0  0  0  0  0  0  0  0  0
   -2.2965   -0.5144   -0.4379 C   0  0  0  0  0  0  0  0  0  0  0  0
   -2.1468    0.2068    0.6660 C   0  0  0  0  0  0  0  0  0  0  0  0
   -2.4807    1.2990    1.3418 C   0  0  0  0  0  0  0  0  0  0  0  0
   -3.4167    1.9660    0.4809 C   0  0  0  0  0  0  0  0  0  0  0  0
   -3.7782    1.4401   -0.7598 C   0  0  0  0  0  0  0  0  0  0  0  0
   -3.5050   -0.1960   -2.1792 H   0  0  0  0  0  0  0  0  0  0  0  0
   -1.8513   -1.4521   -0.7477 H   0  0  0  0  0  0  0  0  0  0  0  0
    9.7266    0.8937   -0.0338 N   0  0  0  0  0  0  0  0  0  0  0  0
   10.8310    0.9338   -0.0600 N   0  0  0  0  0  0  0  0  0  0  0  0
   -4.4886    1.9768   -1.3800 H   0  0  0  0  0  0  0  0  0  0  0  0
   -3.8190    2.9022    0.8612 H   0  0  0  0  0  0  0  0  0  0  0  0
   -2.1674    1.6655    2.3119 H   0  0  0  0  0  0  0  0  0  0  0  0
  1  6  2  0  0  0  0
  1  2  1  0  0  0  0
  2  3  2  0  0  0  0
  3  4  1  0  0  0  0
  4 13  1  0  0  0  0
  5 12  1  0  0  0  0
  5  4  2  0  0  0  0
  6  5  1  0  0  0  0
  7  1  1  0  0  0  0
  8  2  1  0  0  0  0
 10  9  3  0  0  0  0
 11  6  1  0  0  0  0
M  RAD  1   3   2
M  END
