Coordinates from ORCA-job Ph-N2+-scan-d09-499-n800
 OpenBabel09191814153D

 13 12  0  0  0  0  0  0  0  0999 V2000
   -2.6855    0.1982   -1.1854 C   0  0  0  0  0  0  0  0  0  0  0  0
   -1.3926   -0.1795   -0.6882 C   0  0  0  0  0  0  0  0  0  0  0  0
   -1.2201    0.5944    0.3760 C   0  0  0  0  0  0  0  0  0  0  0  0
   -1.7149    1.5448    1.1590 C   0  0  0  0  0  0  0  0  0  0  0  0
   -2.9931    1.8427    0.5768 C   0  0  0  0  0  0  0  0  0  0  0  0
   -3.4539    1.1821   -0.5625 C   0  0  0  0  0  0  0  0  0  0  0  0
   -3.0200   -0.3321   -2.0743 H   0  0  0  0  0  0  0  0  0  0  0  0
   -0.7582   -0.9360   -1.1348 H   0  0  0  0  0  0  0  0  0  0  0  0
    6.4039    0.6699    0.1294 N   0  0  0  0  0  0  0  0  0  0  0  0
    7.5087    0.6913    0.0997 N   0  0  0  0  0  0  0  0  0  0  0  0
   -4.4256    1.4382   -0.9707 H   0  0  0  0  0  0  0  0  0  0  0  0
   -3.5706    2.6141    1.0819 H   0  0  0  0  0  0  0  0  0  0  0  0
   -1.3116    2.0296    2.0399 H   0  0  0  0  0  0  0  0  0  0  0  0
  1  2  2  0  0  0  0
  1  6  1  0  0  0  0
  2  3  1  0  0  0  0
  3  4  2  0  0  0  0
  4 13  1  0  0  0  0
  5 12  1  0  0  0  0
  5  4  1  0  0  0  0
  6  5  2  0  0  0  0
  7  1  1  0  0  0  0
  8  2  1  0  0  0  0
 10  9  3  0  0  0  0
 11  6  1  0  0  0  0
M  RAD  1   3   2
M  END
