Coordinates from ORCA-job Ph-N2+-scan-d09-499-n800
 OpenBabel09191814153D

 13 12  0  0  0  0  0  0  0  0999 V2000
   -2.6030    0.1509   -1.1481 C   0  0  0  0  0  0  0  0  0  0  0  0
   -1.2072   -0.0594   -0.8847 C   0  0  0  0  0  0  0  0  0  0  0  0
   -0.9466    0.7574    0.1283 C   0  0  0  0  0  0  0  0  0  0  0  0
   -1.4076    1.6643    0.9807 C   0  0  0  0  0  0  0  0  0  0  0  0
   -2.7941    1.7950    0.6309 C   0  0  0  0  0  0  0  0  0  0  0  0
   -3.3635    1.0549   -0.4058 C   0  0  0  0  0  0  0  0  0  0  0  0
   -3.0213   -0.4383   -1.9615 H   0  0  0  0  0  0  0  0  0  0  0  0
   -0.5737   -0.7469   -1.4327 H   0  0  0  0  0  0  0  0  0  0  0  0
    5.4374    0.6373    0.2788 N   0  0  0  0  0  0  0  0  0  0  0  0
    6.5426    0.6364    0.2991 N   0  0  0  0  0  0  0  0  0  0  0  0
   -4.4150    1.1853   -0.6393 H   0  0  0  0  0  0  0  0  0  0  0  0
   -3.3636    2.5058    1.2260 H   0  0  0  0  0  0  0  0  0  0  0  0
   -0.9181    2.2152    1.7750 H   0  0  0  0  0  0  0  0  0  0  0  0
  1  2  2  0  0  0  0
  1  6  1  0  0  0  0
  2  3  1  0  0  0  0
  3  4  2  0  0  0  0
  4 13  1  0  0  0  0
  5  4  1  0  0  0  0
  5 12  1  0  0  0  0
  6  5  2  0  0  0  0
  7  1  1  0  0  0  0
  8  2  1  0  0  0  0
  9 10  3  0  0  0  0
 11  6  1  0  0  0  0
M  RAD  1   3   2
M  END
