Coordinates from ORCA-job Ph-N2+-scan-d09-499-n800
 OpenBabel09191814153D

 13 13  0  0  0  0  0  0  0  0999 V2000
   -1.8975    0.0891   -1.0812 C   0  0  0  0  0  0  0  0  0  0  0  0
   -0.5272    0.0145   -0.9696 C   0  0  0  0  0  0  0  0  0  0  0  0
    0.1628    0.8240    0.0175 C   0  0  0  0  0  0  0  0  0  0  0  0
   -0.6255    1.6976    0.8667 C   0  0  0  0  0  0  0  0  0  0  0  0
   -1.9940    1.7425    0.7225 C   0  0  0  0  0  0  0  0  0  0  0  0
   -2.6321    0.9460   -0.2438 C   0  0  0  0  0  0  0  0  0  0  0  0
   -2.4059   -0.5192   -1.8224 H   0  0  0  0  0  0  0  0  0  0  0  0
    0.0705   -0.6361   -1.6011 H   0  0  0  0  0  0  0  0  0  0  0  0
    1.2375    0.7778    0.1173 N   0  0  0  0  0  0  0  0  0  0  0  0
    2.3675    0.7293    0.2222 N   0  0  0  0  0  0  0  0  0  0  0  0
   -3.7129    0.9938   -0.3456 H   0  0  0  0  0  0  0  0  0  0  0  0
   -2.5761    2.3987    1.3615 H   0  0  0  0  0  0  0  0  0  0  0  0
   -0.1008    2.2997    1.6026 H   0  0  0  0  0  0  0  0  0  0  0  0
  1  2  2  0  0  0  0
  1  6  1  0  0  0  0
  2  3  1  0  0  0  0
  3  9  1  0  0  0  0
  3  4  2  0  0  0  0
  4 13  1  0  0  0  0
  5  4  1  0  0  0  0
  5 12  1  0  0  0  0
  6  5  2  0  0  0  0
  7  1  1  0  0  0  0
  8  2  1  0  0  0  0
  9 10  1  0  0  0  0
 11  6  1  0  0  0  0
M  RAD  2   9   2  10   3
M  END
