Coordinates from ORCA-job Ph-N2+-scan-d09-499-n800
 OpenBabel09191814153D

 13 12  0  0  0  0  0  0  0  0999 V2000
   -2.8715    0.2305   -1.2068 C   0  0  0  0  0  0  0  0  0  0  0  0
   -1.7386   -0.3337   -0.5286 C   0  0  0  0  0  0  0  0  0  0  0  0
   -1.6215    0.4047    0.5680 C   0  0  0  0  0  0  0  0  0  0  0  0
   -2.0857    1.4183    1.2880 C   0  0  0  0  0  0  0  0  0  0  0  0
   -3.2025    1.9014    0.5259 C   0  0  0  0  0  0  0  0  0  0  0  0
   -3.5747    1.3165   -0.6848 C   0  0  0  0  0  0  0  0  0  0  0  0
   -3.1400   -0.2446   -2.1477 H   0  0  0  0  0  0  0  0  0  0  0  0
   -1.1611   -1.1758   -0.8909 H   0  0  0  0  0  0  0  0  0  0  0  0
    7.7854    0.7408   -0.0109 N   0  0  0  0  0  0  0  0  0  0  0  0
    8.8892    0.7988   -0.0217 N   0  0  0  0  0  0  0  0  0  0  0  0
   -4.4253    1.7129   -1.2291 H   0  0  0  0  0  0  0  0  0  0  0  0
   -3.7314    2.7497    0.9550 H   0  0  0  0  0  0  0  0  0  0  0  0
   -1.7558    1.8381    2.2306 H   0  0  0  0  0  0  0  0  0  0  0  0
  1  6  2  0  0  0  0
  1  2  1  0  0  0  0
  2  3  2  0  0  0  0
  3  4  1  0  0  0  0
  4 13  1  0  0  0  0
  5 12  1  0  0  0  0
  5  4  2  0  0  0  0
  6  5  1  0  0  0  0
  7  1  1  0  0  0  0
  8  2  1  0  0  0  0
 10  9  3  0  0  0  0
 11  6  1  0  0  0  0
M  RAD  1   3   2
M  END
