Coordinates from ORCA-job Ph-N2+-scan-d09-499-n800
 OpenBabel09191814153D

 13 12  0  0  0  0  0  0  0  0999 V2000
   -3.0932    0.2373   -1.2143 C   0  0  0  0  0  0  0  0  0  0  0  0
   -2.0656   -0.4350   -0.4700 C   0  0  0  0  0  0  0  0  0  0  0  0
   -1.9424    0.2914    0.6338 C   0  0  0  0  0  0  0  0  0  0  0  0
   -2.3456    1.3488    1.3271 C   0  0  0  0  0  0  0  0  0  0  0  0
   -3.3601    1.9388    0.4996 C   0  0  0  0  0  0  0  0  0  0  0  0
   -3.7146    1.3899   -0.7331 C   0  0  0  0  0  0  0  0  0  0  0  0
   -3.3500   -0.2116   -2.1713 H   0  0  0  0  0  0  0  0  0  0  0  0
   -1.5540   -1.3315   -0.7992 H   0  0  0  0  0  0  0  0  0  0  0  0
    9.0172    0.8253   -0.0291 N   0  0  0  0  0  0  0  0  0  0  0  0
   10.1217    0.8637   -0.0570 N   0  0  0  0  0  0  0  0  0  0  0  0
   -4.4865    1.8677   -1.3273 H   0  0  0  0  0  0  0  0  0  0  0  0
   -3.8268    2.8368    0.8982 H   0  0  0  0  0  0  0  0  0  0  0  0
   -2.0338    1.7363    2.2893 H   0  0  0  0  0  0  0  0  0  0  0  0
  1  6  2  0  0  0  0
  1  2  1  0  0  0  0
  2  3  2  0  0  0  0
  3  4  1  0  0  0  0
  4 13  1  0  0  0  0
  5 12  1  0  0  0  0
  5  4  2  0  0  0  0
  6  5  1  0  0  0  0
  7  1  1  0  0  0  0
  8  2  1  0  0  0  0
 10  9  3  0  0  0  0
 11  6  1  0  0  0  0
M  RAD  1   3   2
M  END
