Coordinates from ORCA-job Ph-N2+-scan-d09-499-n800
 OpenBabel09191814153D

 13 12  0  0  0  0  0  0  0  0999 V2000
   -3.2955    0.2830   -1.2294 C   0  0  0  0  0  0  0  0  0  0  0  0
   -2.9661   -0.6974   -0.2332 C   0  0  0  0  0  0  0  0  0  0  0  0
   -3.0705   -0.0361    0.9127 C   0  0  0  0  0  0  0  0  0  0  0  0
   -3.3415    1.1120    1.5205 C   0  0  0  0  0  0  0  0  0  0  0  0
   -3.6533    2.0089    0.4434 C   0  0  0  0  0  0  0  0  0  0  0  0
   -3.6276    1.5947   -0.8888 C   0  0  0  0  0  0  0  0  0  0  0  0
   -3.2674   -0.0671   -2.2591 H   0  0  0  0  0  0  0  0  0  0  0  0
   -2.7002   -1.7258   -0.4465 H   0  0  0  0  0  0  0  0  0  0  0  0
   11.6571    1.0689   -0.2843 N   0  0  0  0  0  0  0  0  0  0  0  0
   12.7613    1.1045   -0.3225 N   0  0  0  0  0  0  0  0  0  0  0  0
   -3.8702    2.3042   -1.6728 H   0  0  0  0  0  0  0  0  0  0  0  0
   -3.9107    3.0242    0.7375 H   0  0  0  0  0  0  0  0  0  0  0  0
   -3.3490    1.3838    2.5695 H   0  0  0  0  0  0  0  0  0  0  0  0
  1  6  2  0  0  0  0
  1  2  1  0  0  0  0
  2  3  2  0  0  0  0
  3  4  1  0  0  0  0
  4 13  1  0  0  0  0
  5 12  1  0  0  0  0
  5  4  2  0  0  0  0
  6  5  1  0  0  0  0
  7  1  1  0  0  0  0
  8  2  1  0  0  0  0
 10  9  3  0  0  0  0
 11  6  1  0  0  0  0
M  RAD  1   3   2
M  END
