Coordinates from ORCA-job Ph-N2+-scan-d09-499-n800
 OpenBabel09191814153D

 13 12  0  0  0  0  0  0  0  0999 V2000
   -2.7027    0.2168   -1.1962 C   0  0  0  0  0  0  0  0  0  0  0  0
   -1.4715   -0.2290   -0.6071 C   0  0  0  0  0  0  0  0  0  0  0  0
   -1.3428    0.5269    0.4762 C   0  0  0  0  0  0  0  0  0  0  0  0
   -1.8473    1.4960    1.2296 C   0  0  0  0  0  0  0  0  0  0  0  0
   -3.0612    1.8618    0.5557 C   0  0  0  0  0  0  0  0  0  0  0  0
   -3.4664    1.2336   -0.6223 C   0  0  0  0  0  0  0  0  0  0  0  0
   -2.9947   -0.2898   -2.1135 H   0  0  0  0  0  0  0  0  0  0  0  0
   -0.8435   -1.0136   -1.0123 H   0  0  0  0  0  0  0  0  0  0  0  0
    6.7536    0.6844    0.0528 N   0  0  0  0  0  0  0  0  0  0  0  0
    7.8579    0.7177    0.0160 N   0  0  0  0  0  0  0  0  0  0  0  0
   -4.3906    1.5411   -1.0996 H   0  0  0  0  0  0  0  0  0  0  0  0
   -3.6361    2.6581    1.0239 H   0  0  0  0  0  0  0  0  0  0  0  0
   -1.4884    1.9538    2.1435 H   0  0  0  0  0  0  0  0  0  0  0  0
  1  6  2  0  0  0  0
  1  2  1  0  0  0  0
  2  3  2  0  0  0  0
  3  4  1  0  0  0  0
  4 13  1  0  0  0  0
  5 12  1  0  0  0  0
  5  4  2  0  0  0  0
  6  5  1  0  0  0  0
  7  1  1  0  0  0  0
  8  2  1  0  0  0  0
 10  9  3  0  0  0  0
 11  6  1  0  0  0  0
M  RAD  1   3   2
M  END
