Coordinates from ORCA-job Ph-N2+-scan-d09-499-n800
 OpenBabel09191814153D

 13 12  0  0  0  0  0  0  0  0999 V2000
   -2.6857    0.1950   -1.1834 C   0  0  0  0  0  0  0  0  0  0  0  0
   -1.3843   -0.1729   -0.7016 C   0  0  0  0  0  0  0  0  0  0  0  0
   -1.2041    0.6038    0.3592 C   0  0  0  0  0  0  0  0  0  0  0  0
   -1.6959    1.5519    1.1469 C   0  0  0  0  0  0  0  0  0  0  0  0
   -2.9831    1.8400    0.5800 C   0  0  0  0  0  0  0  0  0  0  0  0
   -3.4533    1.1746   -0.5526 C   0  0  0  0  0  0  0  0  0  0  0  0
   -3.0273   -0.3389   -2.0675 H   0  0  0  0  0  0  0  0  0  0  0  0
   -0.7500   -0.9256   -1.1549 H   0  0  0  0  0  0  0  0  0  0  0  0
    6.3608    0.6686    0.1418 N   0  0  0  0  0  0  0  0  0  0  0  0
    7.4657    0.6888    0.1149 N   0  0  0  0  0  0  0  0  0  0  0  0
   -4.4316    1.4234   -0.9493 H   0  0  0  0  0  0  0  0  0  0  0  0
   -3.5597    2.6082    1.0911 H   0  0  0  0  0  0  0  0  0  0  0  0
   -1.2853    2.0407    2.0222 H   0  0  0  0  0  0  0  0  0  0  0  0
  1  2  2  0  0  0  0
  1  6  1  0  0  0  0
  2  3  1  0  0  0  0
  3  4  2  0  0  0  0
  4 13  1  0  0  0  0
  5 12  1  0  0  0  0
  5  4  1  0  0  0  0
  6  5  2  0  0  0  0
  7  1  1  0  0  0  0
  8  2  1  0  0  0  0
 10  9  3  0  0  0  0
 11  6  1  0  0  0  0
M  RAD  1   3   2
M  END
