Coordinates from ORCA-job Ph-N2+-scan-d09-499-n800
 OpenBabel09191814153D

 13 12  0  0  0  0  0  0  0  0999 V2000
   -3.1088    0.2373   -1.2147 C   0  0  0  0  0  0  0  0  0  0  0  0
   -2.0896   -0.4434   -0.4665 C   0  0  0  0  0  0  0  0  0  0  0  0
   -1.9641    0.2825    0.6375 C   0  0  0  0  0  0  0  0  0  0  0  0
   -2.3608    1.3435    1.3289 C   0  0  0  0  0  0  0  0  0  0  0  0
   -3.3674    1.9417    0.4977 C   0  0  0  0  0  0  0  0  0  0  0  0
   -3.7222    1.3953   -0.7360 C   0  0  0  0  0  0  0  0  0  0  0  0
   -3.3660   -0.2098   -2.1723 H   0  0  0  0  0  0  0  0  0  0  0  0
   -1.5844   -1.3442   -0.7935 H   0  0  0  0  0  0  0  0  0  0  0  0
    9.0949    0.8322   -0.0298 N   0  0  0  0  0  0  0  0  0  0  0  0
   10.1993    0.8705   -0.0578 N   0  0  0  0  0  0  0  0  0  0  0  0
   -4.4879    1.8794   -1.3332 H   0  0  0  0  0  0  0  0  0  0  0  0
   -3.8279    2.8438    0.8943 H   0  0  0  0  0  0  0  0  0  0  0  0
   -2.0491    1.7288    2.2921 H   0  0  0  0  0  0  0  0  0  0  0  0
  1  6  2  0  0  0  0
  1  2  1  0  0  0  0
  2  3  2  0  0  0  0
  3  4  1  0  0  0  0
  4 13  1  0  0  0  0
  5 12  1  0  0  0  0
  5  4  2  0  0  0  0
  6  5  1  0  0  0  0
  7  1  1  0  0  0  0
  8  2  1  0  0  0  0
 10  9  3  0  0  0  0
 11  6  1  0  0  0  0
M  RAD  1   3   2
M  END
