Coordinates from ORCA-job Ph-N2+-scan-d09-499-n800
 OpenBabel09191814153D

 13 12  0  0  0  0  0  0  0  0999 V2000
   -2.4367    0.1310   -1.1278 C   0  0  0  0  0  0  0  0  0  0  0  0
   -1.0208   -0.0228   -0.9446 C   0  0  0  0  0  0  0  0  0  0  0  0
   -0.7352    0.8075    0.0505 C   0  0  0  0  0  0  0  0  0  0  0  0
   -1.1821    1.6985    0.9267 C   0  0  0  0  0  0  0  0  0  0  0  0
   -2.5904    1.7732    0.6568 C   0  0  0  0  0  0  0  0  0  0  0  0
   -3.1886    1.0071   -0.3443 C   0  0  0  0  0  0  0  0  0  0  0  0
   -2.8775   -0.4773   -1.9149 H   0  0  0  0  0  0  0  0  0  0  0  0
   -0.3926   -0.6867   -1.5267 H   0  0  0  0  0  0  0  0  0  0  0  0
    4.3824    0.6548    0.2858 N   0  0  0  0  0  0  0  0  0  0  0  0
    5.4868    0.6434    0.3293 N   0  0  0  0  0  0  0  0  0  0  0  0
   -4.2563    1.0949   -0.5172 H   0  0  0  0  0  0  0  0  0  0  0  0
   -3.1529    2.4631    1.2825 H   0  0  0  0  0  0  0  0  0  0  0  0
   -0.6698    2.2709    1.6909 H   0  0  0  0  0  0  0  0  0  0  0  0
  1  2  2  0  0  0  0
  1  6  1  0  0  0  0
  2  3  1  0  0  0  0
  3  4  2  0  0  0  0
  4 13  1  0  0  0  0
  5  4  1  0  0  0  0
  5 12  1  0  0  0  0
  6  5  2  0  0  0  0
  7  1  1  0  0  0  0
  8  2  1  0  0  0  0
  9 10  3  0  0  0  0
 11  6  1  0  0  0  0
M  RAD  1   3   2
M  END
