Coordinates from ORCA-job Ph-N2+-scan-d09-499-n800
 OpenBabel09191814153D

 13 12  0  0  0  0  0  0  0  0999 V2000
   -2.8602    0.4177   -0.9780 C   0  0  0  0  0  0  0  0  0  0  0  0
   -3.0313   -0.6484   -0.0317 C   0  0  0  0  0  0  0  0  0  0  0  0
   -3.7649   -0.1071    0.9329 C   0  0  0  0  0  0  0  0  0  0  0  0
   -4.3912    0.9694    1.3904 C   0  0  0  0  0  0  0  0  0  0  0  0
   -4.1583    1.9612    0.3776 C   0  0  0  0  0  0  0  0  0  0  0  0
   -3.4126    1.6819   -0.7678 C   0  0  0  0  0  0  0  0  0  0  0  0
   -2.2774    0.1715   -1.8632 H   0  0  0  0  0  0  0  0  0  0  0  0
   -2.6264   -1.6465   -0.1490 H   0  0  0  0  0  0  0  0  0  0  0  0
   12.7993    1.0039   -0.6819 N   0  0  0  0  0  0  0  0  0  0  0  0
   13.9030    1.0163   -0.7420 N   0  0  0  0  0  0  0  0  0  0  0  0
   -3.2585    2.4608   -1.5074 H   0  0  0  0  0  0  0  0  0  0  0  0
   -4.5983    2.9377    0.5682 H   0  0  0  0  0  0  0  0  0  0  0  0
   -4.9569    1.1392    2.2988 H   0  0  0  0  0  0  0  0  0  0  0  0
  1  6  2  0  0  0  0
  1  2  1  0  0  0  0
  2  3  2  0  0  0  0
  3  4  1  0  0  0  0
  4 13  1  0  0  0  0
  5 12  1  0  0  0  0
  5  4  2  0  0  0  0
  6  5  1  0  0  0  0
  7  1  1  0  0  0  0
  8  2  1  0  0  0  0
 10  9  3  0  0  0  0
 11  6  1  0  0  0  0
M  RAD  1   3   2
M  END
