Coordinates from ORCA-job Ph-N2+-scan-d09-499-n800
 OpenBabel09191814153D

 13 12  0  0  0  0  0  0  0  0999 V2000
   -3.3379    0.2741   -1.2358 C   0  0  0  0  0  0  0  0  0  0  0  0
   -2.9257   -0.6914   -0.2560 C   0  0  0  0  0  0  0  0  0  0  0  0
   -2.9682   -0.0224    0.8895 C   0  0  0  0  0  0  0  0  0  0  0  0
   -3.2142    1.1275    1.5049 C   0  0  0  0  0  0  0  0  0  0  0  0
   -3.6129    2.0091    0.4433 C   0  0  0  0  0  0  0  0  0  0  0  0
   -3.6689    1.5833   -0.8842 C   0  0  0  0  0  0  0  0  0  0  0  0
   -3.3720   -0.0843   -2.2625 H   0  0  0  0  0  0  0  0  0  0  0  0
   -2.6543   -1.7165   -0.4780 H   0  0  0  0  0  0  0  0  0  0  0  0
   11.5045    1.0629   -0.2389 N   0  0  0  0  0  0  0  0  0  0  0  0
   12.6087    1.1007   -0.2745 N   0  0  0  0  0  0  0  0  0  0  0  0
   -3.9741    2.2819   -1.6561 H   0  0  0  0  0  0  0  0  0  0  0  0
   -3.8662    3.0229    0.7458 H   0  0  0  0  0  0  0  0  0  0  0  0
   -3.1525    1.4099    2.5492 H   0  0  0  0  0  0  0  0  0  0  0  0
  1  6  2  0  0  0  0
  1  2  1  0  0  0  0
  2  3  2  0  0  0  0
  3  4  1  0  0  0  0
  4 13  1  0  0  0  0
  5 12  1  0  0  0  0
  5  4  2  0  0  0  0
  6  5  1  0  0  0  0
  7  1  1  0  0  0  0
  8  2  1  0  0  0  0
 10  9  3  0  0  0  0
 11  6  1  0  0  0  0
M  RAD  1   3   2
M  END
