Coordinates from ORCA-job Ph-N2+-scan-d09-499-n800
 OpenBabel09191814153D

 13 12  0  0  0  0  0  0  0  0999 V2000
   -2.6004    0.1505   -1.1477 C   0  0  0  0  0  0  0  0  0  0  0  0
   -1.2041   -0.0584   -0.8860 C   0  0  0  0  0  0  0  0  0  0  0  0
   -0.9430    0.7588    0.1266 C   0  0  0  0  0  0  0  0  0  0  0  0
   -1.4039    1.6653    0.9795 C   0  0  0  0  0  0  0  0  0  0  0  0
   -2.7910    1.7945    0.6314 C   0  0  0  0  0  0  0  0  0  0  0  0
   -3.3609    1.0538   -0.4045 C   0  0  0  0  0  0  0  0  0  0  0  0
   -3.0192   -0.4392   -1.9606 H   0  0  0  0  0  0  0  0  0  0  0  0
   -0.5706   -0.7452   -1.4347 H   0  0  0  0  0  0  0  0  0  0  0  0
    5.4208    0.6371    0.2792 N   0  0  0  0  0  0  0  0  0  0  0  0
    6.5260    0.6360    0.2999 N   0  0  0  0  0  0  0  0  0  0  0  0
   -4.4128    1.1831   -0.6368 H   0  0  0  0  0  0  0  0  0  0  0  0
   -3.3605    2.5048    1.2272 H   0  0  0  0  0  0  0  0  0  0  0  0
   -0.9140    2.2167    1.7732 H   0  0  0  0  0  0  0  0  0  0  0  0
  1  2  2  0  0  0  0
  1  6  1  0  0  0  0
  2  3  1  0  0  0  0
  3  4  2  0  0  0  0
  4 13  1  0  0  0  0
  5  4  1  0  0  0  0
  5 12  1  0  0  0  0
  6  5  2  0  0  0  0
  7  1  1  0  0  0  0
  8  2  1  0  0  0  0
  9 10  3  0  0  0  0
 11  6  1  0  0  0  0
M  RAD  1   3   2
M  END
