Coordinates from ORCA-job Ph-N2+-scan-d09-499-n800
 OpenBabel09191814153D

 13 12  0  0  0  0  0  0  0  0999 V2000
   -2.1300    0.1057   -1.0967 C   0  0  0  0  0  0  0  0  0  0  0  0
   -0.7045   -0.0022   -0.9983 C   0  0  0  0  0  0  0  0  0  0  0  0
   -0.3716    0.8381   -0.0232 C   0  0  0  0  0  0  0  0  0  0  0  0
   -0.8054    1.7162    0.8760 C   0  0  0  0  0  0  0  0  0  0  0  0
   -2.2264    1.7473    0.6938 C   0  0  0  0  0  0  0  0  0  0  0  0
   -2.8598    0.9601   -0.2690 C   0  0  0  0  0  0  0  0  0  0  0  0
   -2.6023   -0.5165   -1.8537 H   0  0  0  0  0  0  0  0  0  0  0  0
   -0.0914   -0.6471   -1.6154 H   0  0  0  0  0  0  0  0  0  0  0  0
    2.5174    0.7257    0.2321 N   0  0  0  0  0  0  0  0  0  0  0  0
    3.6181    0.6917    0.3212 N   0  0  0  0  0  0  0  0  0  0  0  0
   -3.9384    1.0139   -0.3764 H   0  0  0  0  0  0  0  0  0  0  0  0
   -2.7747    2.4196    1.3500 H   0  0  0  0  0  0  0  0  0  0  0  0
   -0.2647    2.3052    1.6064 H   0  0  0  0  0  0  0  0  0  0  0  0
  1  2  2  0  0  0  0
  1  6  1  0  0  0  0
  2  3  1  0  0  0  0
  3  4  2  0  0  0  0
  4 13  1  0  0  0  0
  5  4  1  0  0  0  0
  5 12  1  0  0  0  0
  6  5  2  0  0  0  0
  7  1  1  0  0  0  0
  8  2  1  0  0  0  0
  9 10  3  0  0  0  0
 11  6  1  0  0  0  0
M  RAD  1   3   2
M  END
