Coordinates from ORCA-job Ph-N2+-scan-d09-499-n800
 OpenBabel09191814153D

 13 13  0  0  0  0  0  0  0  0999 V2000
   -1.9348    0.0911   -1.0843 C   0  0  0  0  0  0  0  0  0  0  0  0
   -0.5522    0.0142   -0.9729 C   0  0  0  0  0  0  0  0  0  0  0  0
    0.0387    0.8292    0.0062 C   0  0  0  0  0  0  0  0  0  0  0  0
   -0.6506    1.6997    0.8659 C   0  0  0  0  0  0  0  0  0  0  0  0
   -2.0314    1.7437    0.7186 C   0  0  0  0  0  0  0  0  0  0  0  0
   -2.6653    0.9475   -0.2470 C   0  0  0  0  0  0  0  0  0  0  0  0
   -2.4445   -0.5163   -1.8247 H   0  0  0  0  0  0  0  0  0  0  0  0
    0.0435   -0.6360   -1.6040 H   0  0  0  0  0  0  0  0  0  0  0  0
    1.4719    0.7678    0.1390 N   0  0  0  0  0  0  0  0  0  0  0  0
    2.5791    0.7206    0.2411 N   0  0  0  0  0  0  0  0  0  0  0  0
   -3.7455    0.9956   -0.3489 H   0  0  0  0  0  0  0  0  0  0  0  0
   -2.6146    2.3992    1.3566 H   0  0  0  0  0  0  0  0  0  0  0  0
   -0.1279    2.3013    1.6013 H   0  0  0  0  0  0  0  0  0  0  0  0
  1  2  2  0  0  0  0
  1  6  1  0  0  0  0
  2  3  1  0  0  0  0
  3  9  1  0  0  0  0
  3  4  2  0  0  0  0
  4 13  1  0  0  0  0
  5  4  1  0  0  0  0
  5 12  1  0  0  0  0
  6  5  2  0  0  0  0
  7  1  1  0  0  0  0
  8  2  1  0  0  0  0
  9 10  1  0  0  0  0
 11  6  1  0  0  0  0
M  RAD  2   9   2  10   3
M  END
