Coordinates from ORCA-job Ph-N2+-scan-d09-499-n800
 OpenBabel09191814153D

 13 12  0  0  0  0  0  0  0  0999 V2000
   -1.9967    0.0974   -1.0862 C   0  0  0  0  0  0  0  0  0  0  0  0
   -0.5905    0.0059   -0.9863 C   0  0  0  0  0  0  0  0  0  0  0  0
   -0.1462    0.8362   -0.0101 C   0  0  0  0  0  0  0  0  0  0  0  0
   -0.6900    1.7103    0.8732 C   0  0  0  0  0  0  0  0  0  0  0  0
   -2.0928    1.7428    0.7089 C   0  0  0  0  0  0  0  0  0  0  0  0
   -2.7262    0.9504   -0.2530 C   0  0  0  0  0  0  0  0  0  0  0  0
   -2.4900   -0.5177   -1.8332 H   0  0  0  0  0  0  0  0  0  0  0  0
    0.0140   -0.6394   -1.6103 H   0  0  0  0  0  0  0  0  0  0  0  0
    1.8051    0.7536    0.1697 N   0  0  0  0  0  0  0  0  0  0  0  0
    2.9037    0.7082    0.2695 N   0  0  0  0  0  0  0  0  0  0  0  0
   -3.8055    0.9991   -0.3553 H   0  0  0  0  0  0  0  0  0  0  0  0
   -2.6606    2.4050    1.3560 H   0  0  0  0  0  0  0  0  0  0  0  0
   -0.1581    2.3058    1.6037 H   0  0  0  0  0  0  0  0  0  0  0  0
  1  2  2  0  0  0  0
  1  6  1  0  0  0  0
  2  3  1  0  0  0  0
  3  4  2  0  0  0  0
  4 13  1  0  0  0  0
  5  4  1  0  0  0  0
  5 12  1  0  0  0  0
  6  5  2  0  0  0  0
  7  1  1  0  0  0  0
  8  2  1  0  0  0  0
  9 10  3  0  0  0  0
 11  6  1  0  0  0  0
M  RAD  1   3   2
M  END
