Coordinates from ORCA-job Ph-N2+-scan-d09-499-n800
 OpenBabel09191814153D

 13 12  0  0  0  0  0  0  0  0999 V2000
   -2.8933    0.2316   -1.2078 C   0  0  0  0  0  0  0  0  0  0  0  0
   -1.7701   -0.3430   -0.5223 C   0  0  0  0  0  0  0  0  0  0  0  0
   -1.6536    0.3939    0.5753 C   0  0  0  0  0  0  0  0  0  0  0  0
   -2.1133    1.4115    1.2926 C   0  0  0  0  0  0  0  0  0  0  0  0
   -3.2207    1.9049    0.5233 C   0  0  0  0  0  0  0  0  0  0  0  0
   -3.5902    1.3238   -0.6900 C   0  0  0  0  0  0  0  0  0  0  0  0
   -3.1600   -0.2408   -2.1506 H   0  0  0  0  0  0  0  0  0  0  0  0
   -1.1978   -1.1902   -0.8810 H   0  0  0  0  0  0  0  0  0  0  0  0
    7.9126    0.7477   -0.0140 N   0  0  0  0  0  0  0  0  0  0  0  0
    9.0166    0.8043   -0.0257 N   0  0  0  0  0  0  0  0  0  0  0  0
   -4.4335    1.7280   -1.2398 H   0  0  0  0  0  0  0  0  0  0  0  0
   -3.7447    2.7578    0.9492 H   0  0  0  0  0  0  0  0  0  0  0  0
   -1.7859    1.8281    2.2375 H   0  0  0  0  0  0  0  0  0  0  0  0
  1  6  2  0  0  0  0
  1  2  1  0  0  0  0
  2  3  2  0  0  0  0
  3  4  1  0  0  0  0
  4 13  1  0  0  0  0
  5 12  1  0  0  0  0
  5  4  2  0  0  0  0
  6  5  1  0  0  0  0
  7  1  1  0  0  0  0
  8  2  1  0  0  0  0
 10  9  3  0  0  0  0
 11  6  1  0  0  0  0
M  RAD  1   3   2
M  END
