Coordinates from ORCA-job Ph-N2+-scan-d09-499-n800
 OpenBabel09191814153D

 13 12  0  0  0  0  0  0  0  0999 V2000
   -2.1180    0.1050   -1.0956 C   0  0  0  0  0  0  0  0  0  0  0  0
   -0.6931   -0.0017   -0.9978 C   0  0  0  0  0  0  0  0  0  0  0  0
   -0.3569    0.8385   -0.0229 C   0  0  0  0  0  0  0  0  0  0  0  0
   -0.7938    1.7163    0.8761 C   0  0  0  0  0  0  0  0  0  0  0  0
   -2.2143    1.7467    0.6951 C   0  0  0  0  0  0  0  0  0  0  0  0
   -2.8479    0.9591   -0.2674 C   0  0  0  0  0  0  0  0  0  0  0  0
   -2.5910   -0.5172   -1.8520 H   0  0  0  0  0  0  0  0  0  0  0  0
   -0.0803   -0.6463   -1.6155 H   0  0  0  0  0  0  0  0  0  0  0  0
    2.4522    0.7278    0.2270 N   0  0  0  0  0  0  0  0  0  0  0  0
    3.5528    0.6929    0.3167 N   0  0  0  0  0  0  0  0  0  0  0  0
   -3.9266    1.0122   -0.3741 H   0  0  0  0  0  0  0  0  0  0  0  0
   -2.7633    2.4185    1.3512 H   0  0  0  0  0  0  0  0  0  0  0  0
   -0.2535    2.3058    1.6062 H   0  0  0  0  0  0  0  0  0  0  0  0
  1  2  2  0  0  0  0
  1  6  1  0  0  0  0
  2  3  1  0  0  0  0
  3  4  2  0  0  0  0
  4 13  1  0  0  0  0
  5  4  1  0  0  0  0
  5 12  1  0  0  0  0
  6  5  2  0  0  0  0
  7  1  1  0  0  0  0
  8  2  1  0  0  0  0
  9 10  3  0  0  0  0
 11  6  1  0  0  0  0
M  RAD  1   3   2
M  END
