Coordinates from ORCA-job Ph-N2+-scan-d09-499-n800
 OpenBabel09191814153D

 13 12  0  0  0  0  0  0  0  0999 V2000
   -2.9510    0.2341   -1.2100 C   0  0  0  0  0  0  0  0  0  0  0  0
   -1.8534   -0.3673   -0.5062 C   0  0  0  0  0  0  0  0  0  0  0  0
   -1.7380    0.3661    0.5939 C   0  0  0  0  0  0  0  0  0  0  0  0
   -2.1854    1.3941    1.3042 C   0  0  0  0  0  0  0  0  0  0  0  0
   -3.2676    1.9141    0.5166 C   0  0  0  0  0  0  0  0  0  0  0  0
   -3.6303    1.3423   -0.7032 C   0  0  0  0  0  0  0  0  0  0  0  0
   -3.2128   -0.2314   -2.1576 H   0  0  0  0  0  0  0  0  0  0  0  0
   -1.2955   -1.2278   -0.8560 H   0  0  0  0  0  0  0  0  0  0  0  0
    8.2465    0.7675   -0.0197 N   0  0  0  0  0  0  0  0  0  0  0  0
    9.3507    0.8180   -0.0373 N   0  0  0  0  0  0  0  0  0  0  0  0
   -4.4544    1.7667   -1.2669 H   0  0  0  0  0  0  0  0  0  0  0  0
   -3.7783    2.7789    0.9344 H   0  0  0  0  0  0  0  0  0  0  0  0
   -1.8642    1.8023    2.2548 H   0  0  0  0  0  0  0  0  0  0  0  0
  1  6  2  0  0  0  0
  1  2  1  0  0  0  0
  2  3  2  0  0  0  0
  3  4  1  0  0  0  0
  4 13  1  0  0  0  0
  5 12  1  0  0  0  0
  5  4  2  0  0  0  0
  6  5  1  0  0  0  0
  7  1  1  0  0  0  0
  8  2  1  0  0  0  0
 10  9  3  0  0  0  0
 11  6  1  0  0  0  0
M  RAD  1   3   2
M  END
