Coordinates from ORCA-job Ph-N2+-scan-d09-499-n800
 OpenBabel09191814153D

 13 12  0  0  0  0  0  0  0  0999 V2000
   -2.8387    0.2289   -1.2054 C   0  0  0  0  0  0  0  0  0  0  0  0
   -1.6911   -0.3189   -0.5386 C   0  0  0  0  0  0  0  0  0  0  0  0
   -1.5733    0.4217    0.5564 C   0  0  0  0  0  0  0  0  0  0  0  0
   -2.0444    1.4290    1.2809 C   0  0  0  0  0  0  0  0  0  0  0  0
   -3.1757    1.8958    0.5299 C   0  0  0  0  0  0  0  0  0  0  0  0
   -3.5519    1.3051   -0.6767 C   0  0  0  0  0  0  0  0  0  0  0  0
   -3.1101   -0.2504   -2.1434 H   0  0  0  0  0  0  0  0  0  0  0  0
   -1.1054   -1.1529   -0.9064 H   0  0  0  0  0  0  0  0  0  0  0  0
    7.5948    0.7299   -0.0047 N   0  0  0  0  0  0  0  0  0  0  0  0
    8.6985    0.7898   -0.0169 N   0  0  0  0  0  0  0  0  0  0  0  0
   -4.4134    1.6892   -1.2124 H   0  0  0  0  0  0  0  0  0  0  0  0
   -3.7121    2.7367    0.9642 H   0  0  0  0  0  0  0  0  0  0  0  0
   -1.7109    1.8539    2.2198 H   0  0  0  0  0  0  0  0  0  0  0  0
  1  6  2  0  0  0  0
  1  2  1  0  0  0  0
  2  3  2  0  0  0  0
  3  4  1  0  0  0  0
  4 13  1  0  0  0  0
  5 12  1  0  0  0  0
  5  4  2  0  0  0  0
  6  5  1  0  0  0  0
  7  1  1  0  0  0  0
  8  2  1  0  0  0  0
 10  9  3  0  0  0  0
 11  6  1  0  0  0  0
M  RAD  1   3   2
M  END
