Coordinates from ORCA-job Ph-N2+-scan-d09-499-n800
 OpenBabel09191814153D

 13 12  0  0  0  0  0  0  0  0999 V2000
   -3.3351    0.2384   -1.2201 C   0  0  0  0  0  0  0  0  0  0  0  0
   -2.4598   -0.5622   -0.4108 C   0  0  0  0  0  0  0  0  0  0  0  0
   -2.3044    0.1526    0.6965 C   0  0  0  0  0  0  0  0  0  0  0  0
   -2.5969    1.2641    1.3598 C   0  0  0  0  0  0  0  0  0  0  0  0
   -3.4657    1.9806    0.4688 C   0  0  0  0  0  0  0  0  0  0  0  0
   -3.8170    1.4723   -0.7821 C   0  0  0  0  0  0  0  0  0  0  0  0
   -3.5925   -0.1812   -2.1900 H   0  0  0  0  0  0  0  0  0  0  0  0
   -2.0585   -1.5244   -0.7053 H   0  0  0  0  0  0  0  0  0  0  0  0
   10.2437    0.9383   -0.0463 N   0  0  0  0  0  0  0  0  0  0  0  0
   11.3481    0.9782   -0.0724 N   0  0  0  0  0  0  0  0  0  0  0  0
   -4.4754    2.0466   -1.4255 H   0  0  0  0  0  0  0  0  0  0  0  0
   -3.8264    2.9391    0.8351 H   0  0  0  0  0  0  0  0  0  0  0  0
   -2.2940    1.6153    2.3389 H   0  0  0  0  0  0  0  0  0  0  0  0
  1  6  2  0  0  0  0
  1  2  1  0  0  0  0
  2  3  2  0  0  0  0
  3  4  1  0  0  0  0
  4 13  1  0  0  0  0
  5 12  1  0  0  0  0
  5  4  2  0  0  0  0
  6  5  1  0  0  0  0
  7  1  1  0  0  0  0
  8  2  1  0  0  0  0
 10  9  3  0  0  0  0
 11  6  1  0  0  0  0
M  RAD  1   3   2
M  END
