Coordinates from ORCA-job Ph-N2+-scan-d09-499-n800
 OpenBabel09191814153D

 13 12  0  0  0  0  0  0  0  0999 V2000
   -3.3714    0.2544   -1.2335 C   0  0  0  0  0  0  0  0  0  0  0  0
   -2.6943   -0.6380   -0.3344 C   0  0  0  0  0  0  0  0  0  0  0  0
   -2.6005    0.0559    0.7931 C   0  0  0  0  0  0  0  0  0  0  0  0
   -2.8495    1.1924    1.4319 C   0  0  0  0  0  0  0  0  0  0  0  0
   -3.5193    2.0000    0.4508 C   0  0  0  0  0  0  0  0  0  0  0  0
   -3.7667    1.5337   -0.8408 C   0  0  0  0  0  0  0  0  0  0  0  0
   -3.5514   -0.1340   -2.2336 H   0  0  0  0  0  0  0  0  0  0  0  0
   -2.3647   -1.6374   -0.5910 H   0  0  0  0  0  0  0  0  0  0  0  0
   10.8509    1.0059   -0.1204 N   0  0  0  0  0  0  0  0  0  0  0  0
   11.9551    1.0474   -0.1514 N   0  0  0  0  0  0  0  0  0  0  0  0
   -4.2737    2.1771   -1.5522 H   0  0  0  0  0  0  0  0  0  0  0  0
   -3.8166    2.9921    0.7833 H   0  0  0  0  0  0  0  0  0  0  0  0
   -2.6315    1.5082    2.4450 H   0  0  0  0  0  0  0  0  0  0  0  0
  1  6  2  0  0  0  0
  1  2  1  0  0  0  0
  2  3  2  0  0  0  0
  3  4  1  0  0  0  0
  4 13  1  0  0  0  0
  5 12  1  0  0  0  0
  5  4  2  0  0  0  0
  6  5  1  0  0  0  0
  7  1  1  0  0  0  0
  8  2  1  0  0  0  0
 10  9  3  0  0  0  0
 11  6  1  0  0  0  0
M  RAD  1   3   2
M  END
