Coordinates from ORCA-job Ph-N2+-scan-d09-499-n800
 OpenBabel09191814153D

 13 12  0  0  0  0  0  0  0  0999 V2000
   -3.3047    0.2372   -1.2185 C   0  0  0  0  0  0  0  0  0  0  0  0
   -2.4038   -0.5467   -0.4210 C   0  0  0  0  0  0  0  0  0  0  0  0
   -2.2478    0.1707    0.6845 C   0  0  0  0  0  0  0  0  0  0  0  0
   -2.5529    1.2762    1.3521 C   0  0  0  0  0  0  0  0  0  0  0  0
   -3.4468    1.9761    0.4728 C   0  0  0  0  0  0  0  0  0  0  0  0
   -3.8045    1.4614   -0.7737 C   0  0  0  0  0  0  0  0  0  0  0  0
   -3.5666   -0.1870   -2.1853 H   0  0  0  0  0  0  0  0  0  0  0  0
   -1.9881   -1.5010   -0.7211 H   0  0  0  0  0  0  0  0  0  0  0  0
   10.0623    0.9236   -0.0403 N   0  0  0  0  0  0  0  0  0  0  0  0
   11.1667    0.9638   -0.0661 N   0  0  0  0  0  0  0  0  0  0  0  0
   -4.4822    2.0231   -1.4081 H   0  0  0  0  0  0  0  0  0  0  0  0
   -3.8210    2.9275    0.8442 H   0  0  0  0  0  0  0  0  0  0  0  0
   -2.2443    1.6328    2.3274 H   0  0  0  0  0  0  0  0  0  0  0  0
  1  6  2  0  0  0  0
  1  2  1  0  0  0  0
  2  3  2  0  0  0  0
  3  4  1  0  0  0  0
  4 13  1  0  0  0  0
  5 12  1  0  0  0  0
  5  4  2  0  0  0  0
  6  5  1  0  0  0  0
  7  1  1  0  0  0  0
  8  2  1  0  0  0  0
 10  9  3  0  0  0  0
 11  6  1  0  0  0  0
M  RAD  1   3   2
M  END
