25
Coordinates from ORCA-job C6H6+TfO-+NH2N2+-scan
  N   -2.17674734413250     -0.73361724358473      1.22587923055524
  N   -1.74515033630386     -0.92708627046545      0.23815039826104
  N   1.55440266102832     -2.40385494765120     -1.19865672342611
  H   2.44426526533189     -2.27746307281522     -0.67022914564825
  H   0.89727841437169     -2.80442206154180     -0.41223078942131
  C   -0.21989157329350     -2.15405922090838     -4.22756330270956
  C   -0.03690910486123     -2.47256836154073     -2.77711100492741
  C   1.36675487320487     -2.21176766535797     -2.16192760021501
  C   2.37563316309070     -1.66295494029068     -3.12130578508611
  C   2.08425973449588     -1.41797240169182     -4.40843196200795
  C   0.76772599932371     -1.66273161319222     -4.98371379726863
  H   -1.20324281550283     -2.34009491429940     -4.64683819242375
  H   -0.76095610940613     -1.90882925908423     -2.17537893353091
  H   -0.27842391565564     -3.52794349108174     -2.59471351869546
  H   3.36574257614666     -1.47309987686571     -2.71490297716731
  H   2.85867604193989     -1.01996581061037     -5.05654905622301
  H   0.60932844559763     -1.43899364419585     -6.03186452391605
  S   1.66519562640401     -3.17432441043231      1.89551057793454
  O   1.85929750621106     -4.30317359117251      2.78749439937903
  O   2.85141243638172     -2.65530301751271      1.16769478396166
  O   0.48427322580728     -3.29069133396451      0.95895095846916
  C   1.15302555764075     -1.73604939779351      2.98059213570394
  F   0.92986258023031     -0.65021242156025      2.21571607602510
  F   0.03006377582585     -2.01950839426736      3.64385920816028
  F   2.11292331612365     -1.44361263811917      3.85876954421680
