25
Coordinates from ORCA-job C6H6+TfO-+NH2N2+-scan
  N   -0.79693448797275     -1.02312516422288     -0.91108499712014
  N   -1.79484042921831     -0.87165649717781     -1.44857625828094
  N   0.29364610808896     -1.72203426368000     -0.86407784451885
  H   1.10100354009010     -1.10631612685562     -0.72771734351531
  H   0.46740173473600     -2.79342523445381      0.51318217585364
  C   -0.33585145779259     -1.69815857927358     -4.37339493078914
  C   -0.51201718278963     -2.53803267049334     -3.27169456727837
  C   0.58163724339942     -2.79239980681657     -2.38437542958465
  C   1.88628801668863     -2.37562744200767     -2.80974747958932
  C   2.02867971059040     -1.53758269464222     -3.89451033844305
  C   0.91388334654901     -1.17202033215242     -4.67169106007753
  H   -1.18112100661482     -1.48566237423310     -5.01901206351316
  H   -1.45495965884325     -3.04897927699909     -3.12334263121696
  H   0.52147091385287     -3.68797239239425     -1.77535922827759
  H   2.75150394255970     -2.68956935169538     -2.23594614683888
  H   3.01632677478169     -1.18781984375897     -4.17600739005685
  H   1.04268976901890     -0.52682885676080     -5.53303638082465
  S   2.15759242941395     -2.96947684434039      1.83600628678707
  O   2.81794132560759     -4.12785966998748      2.38110967144909
  O   2.79931584830015     -2.06269762087433      0.89650519887281
  O   0.73811362719676     -3.41621975282899      1.25377556686684
  C   1.58595752154023     -1.91206496007587      3.28183748012547
  F   0.79712517867998     -0.93614862409244      2.82252183781346
  F   0.91348802285927     -2.65073282239518      4.15455944060941
  F   2.65045916927795     -1.37788879778771      3.87127643154752
