25
Coordinates from ORCA-job C6H6+TfO-+NH2N2+-scan
  N   -1.72735323966465     -2.96022414293086     -0.87501480805884
  N   -2.82934091704261     -2.91775755134824     -1.10751950118918
  N   -0.54822370929520     -2.99323234889649     -0.49553123962901
  H   0.09700780871810     -3.12663643338719     -1.28144392864167
  H   0.01247850762254     -2.74697774757243      1.09149052859817
  C   0.64125851082428     -0.86249793269187     -3.37383494150768
  C   -0.12944766935874     -1.91456465425773     -3.86949965925696
  C   0.30616774555217     -3.23088284676299     -3.70930761496527
  C   1.51816135968011     -3.49309335615053     -3.06385195652257
  C   2.28560339435394     -2.43870522190191     -2.56439134769063
  C   1.84420592751068     -1.12465341516119     -2.71877626133721
  H   0.30249290442760      0.16035766384392     -3.49591037446071
  H   -1.06400935694299     -1.71008001453195     -4.38026706675597
  H   -0.28585561749355     -4.05057964905466     -4.10270843371583
  H   1.86200492549442     -4.51518987312262     -2.94859063630929
  H   3.20992825367199     -2.64419808088357     -2.03877743537510
  H   2.43560737366594     -0.30704128806263     -2.32308591099056
  S   1.93627797770317     -2.31890438764239      1.99291316313438
  O   2.46508494815070     -2.59628791073726      3.30517257050384
  O   2.51945186321873     -2.85946074322111      0.77767407106003
  O   0.36788884962542     -2.58607084402127      2.01895636806981
  C   1.93894422272762     -0.45160399474450      1.78332227500360
  F   1.24796985445973     -0.12530955824869      0.68493845357018
  F   1.38696961764513      0.13622627539264      2.83820496946184
  F   3.19552646474559     -0.03293194390442      1.64703871700458
