25
Coordinates from ORCA-job C6H6+TfO-+NH2N2+-scan
  N   -1.75482798825190     -1.25046627116039     -0.78386756254592
  N   -2.68990694454436     -0.65453924993083     -0.98568788222698
  N   -0.75868996620717     -1.90189159283684     -0.43657753271529
  H   -0.17805470537625     -2.17230026964320     -1.23934956751315
  H   -0.35386159166986     -2.41275116154574      1.12960312545331
  C   0.18063999229976     -1.87529505195732     -4.43710595878507
  C   0.34586625950232     -2.99778344026792     -3.62505534542804
  C   1.29549950711939     -2.98620018384046     -2.59909036344655
  C   2.08626715467528     -1.85158593477667     -2.39596164066375
  C   1.92279821063883     -0.73239624851120     -3.21128981453865
  C   0.96973533968412     -0.74392757384050     -4.22991180812028
  H   -0.55605637255079     -1.88497282998318     -5.23287061564822
  H   -0.26015437290342     -3.88210430135569     -3.79051543877092
  H   1.43138330291013     -3.85345940621779     -1.96277884158170
  H   2.82054871529770     -1.84629585349490     -1.59891604653089
  H   2.53724511455770      0.14717448181741     -3.05385422281288
  H   0.84331415503224      0.12743557163894     -4.86309889509910
  S   1.36663628527592     -3.42109936793558      1.97681361421686
  O   1.50135158433893     -4.29525881553787      3.11481571351642
  O   1.65842767279207     -3.84715874520595      0.61833896213572
  O   -0.06314419926885     -2.72822214428193      2.04050127689419
  C   2.46273852358153     -1.92808569471638      2.29167254660436
  F   2.22574208282254     -1.00095638111795      1.35607201092692
  F   2.21801397947013     -1.41407948504207      3.49059817200446
  F   3.73728826077415     -2.30408005025593      2.21871611467512
