25
Coordinates from ORCA-job C6H6+TfO-+NH2N2+-scan
  N   -1.60148704682840     -2.85957306706385     -0.77642012490062
  N   -2.69413543587145     -2.82074951957590     -1.04862728861623
  N   -0.44069952686314     -2.91605566992642     -0.34406118121268
  H   0.25180081403686     -2.88220975562367     -1.09972123676224
  H   0.11204187462434     -2.77361421041384      1.26089678249626
  C   0.63595766701439     -0.93798912157126     -3.47800677027524
  C   -0.08704493566080     -1.92682025656671     -4.14660514458398
  C   0.29647178925582     -3.26398889557097     -4.03987347825094
  C   1.40687185658516     -3.61249182881484     -3.26834400921086
  C   2.12940500412918     -2.62362455594159     -2.59603051912740
  C   1.74023270475406     -1.28622271681437     -2.70043514780703
  H   0.33765978423796      0.10137828068011     -3.56029255430790
  H   -0.94704048377826     -1.65652844878960     -4.74947651410777
  H   -0.26436461204818     -4.03213623124042     -4.56111680134585
  H   1.70810216778105     -4.65111493302770     -3.18723241873909
  H   2.97842823679319     -2.89190345916694     -1.97880357680306
  H   2.29500604891223     -0.52189781113034     -2.16841522016173
  S   2.04754313794035     -2.22826746260853      2.05641282681872
  O   2.70632672973501     -2.55347106442922      3.29641792860703
  O   2.57888526887472     -2.60681149630497      0.75806989301373
  O   0.51954523835157     -2.65871183768712      2.17299154396874
  C   1.85251550041942     -0.36032402615120      2.00512505004422
  F   1.07629173747785     -0.02534117072444      0.96762816532597
  F   1.29901031368099      0.08207828312774      3.12762774522740
  F   3.05147616644620      0.19609097533613      1.84949205071051
