25
Coordinates from ORCA-job C6H6+TfO-+NH2N2+-scan
  N   -1.85327868926923      0.10237812530029      0.74961563135894
  N   -1.42233438265030     -0.52552450353894     -0.03744626720512
  N   1.65937350582243     -2.35933108326003     -1.11596082294190
  H   2.55788597225056     -2.13922043135110     -0.67263222174574
  H   1.03409892100440     -2.82768939426185     -0.37379898076283
  C   -0.25622159138216     -2.29369278542415     -4.20032343033124
  C   0.01286763121535     -2.57129394163752     -2.75503618955677
  C   1.38525190600127     -2.16001635695386     -2.23609259288250
  C   2.30866363866118     -1.54049167873611     -3.18107921941120
  C   1.95684813297459     -1.34568221497421     -4.46929820010693
  C   0.65476953311026     -1.71872930783840     -4.99698463610808
  H   -1.23286775342756     -2.57651597891721     -4.57768386075329
  H   -0.74131382801629     -2.05908491961345     -2.13990475568219
  H   -0.13965324415557     -3.63734471349297     -2.53832174586094
  H   3.28610068049138     -1.24819615691313     -2.81174795261449
  H   2.67323642704884     -0.89158727639095     -5.14614145494325
  H   0.44019131120522     -1.52125670722552     -6.04021440535037
  S   1.69750386105341     -3.25708522377471      1.96701902605344
  O   1.93941935250290     -4.41602931877026      2.81084574485602
  O   2.86949324753126     -2.60697861934832      1.33493041933556
  O   0.56996836332500     -3.41508097669341      0.97720291629036
  C   1.02416174450921     -1.93117882672277      3.10439374216329
  F   0.69012604429717     -0.83908414597448      2.38766406896495
  F   -0.06662410733035     -2.35936273687983      3.74545047895539
  F   1.94113332322717     -1.57222082660696      4.00674470827882
