25
Coordinates from ORCA-job C6H6+TfO-+NH2N2+-scan
  N   -1.61802394151430     -2.82839758834477     -0.71867667372489
  N   -2.71287817507609     -2.77475565681195     -0.97880077811427
  N   -0.45293785155455     -2.89991519309104     -0.29913019462032
  H   0.23078099057102     -2.87177199832052     -1.06286992866625
  H   0.12059741673728     -2.76037157676386      1.29903808532706
  C   0.60576504455499     -0.95519768519261     -3.51032462300953
  C   -0.05983800166157     -1.94290030763884     -4.23720037007629
  C   0.34190078093378     -3.27485409451771     -4.13462539807157
  C   1.41160385816190     -3.61962424062973     -3.30725590918107
  C   2.07808422219380     -2.63218749996958     -2.57756445928369
  C   1.67181538044073     -1.29931191488639     -2.67922325735375
  H   0.29353366696118      0.08023445933362     -3.59114757560417
  H   -0.88868766534979     -1.67482229487891     -4.88317937721243
  H   -0.17339020892214     -4.04201735659203     -4.70229151137807
  H   1.72751183797397     -4.65423459214886     -3.23029834480414
  H   2.89983981211686     -2.89661379812207     -1.92285201804475
  H   2.18544991416683     -0.53535248795724     -2.10681144563696
  S   2.06716058255950     -2.22581899351009      2.07693374919351
  O   2.73636818854097     -2.55920010165889      3.30908934225237
  O   2.58381960288069     -2.60241055215870      0.77219863918568
  O   0.53846082309779     -2.64857097025749      2.20670478603048
  C   1.88169128863561     -0.35667417176407      2.03377856770414
  F   1.09812187499135     -0.01445270582478      1.00395810745430
  F   1.34006295176313      0.08495744187076      3.16229491641089
  F   3.08198760679718      0.19396387983580      1.86945567122370
