25
Coordinates from ORCA-job C6H6+TfO-+NH2N2+-scan
  N   -1.65235727590847     -3.00661728164689     -0.80589626759656
  N   -2.74578379704462     -3.05688335079860     -1.07321405791809
  N   -0.48839742656128     -2.96115237250676     -0.38095312814398
  H   0.19448461598322     -2.93363697640451     -1.14469568126514
  H   0.04636573043754     -2.74122356234951      1.22394403860976
  C   0.64950324575387     -0.88145471727217     -3.42137860717263
  C   -0.09145088388259     -1.88333043618654     -4.04952806728960
  C   0.29846271202779     -3.21764175376642     -3.93014584447875
  C   1.43299334170320     -3.54940330566235     -3.18616100360610
  C   2.17377960089148     -2.54701731221992     -2.55563529096276
  C   1.77849366423782     -1.21284434546202     -2.67277788678415
  H   0.34468007743889      0.15513361854609     -3.51382708059636
  H   -0.96902289866612     -1.62500955239308     -4.63200917958160
  H   -0.27377696264378     -3.99676037092177     -4.42203321380934
  H   1.73831922347250     -4.58604200897586     -3.09542626512010
  H   3.04084751100986     -2.80377523077516     -1.95928732746971
  H   2.34875475797613     -0.43715061888413     -2.17486359069206
  S   1.98895594575475     -2.26606073274057      2.04740329903072
  O   2.58612057831467     -2.54096961417396      3.33003668193389
  O   2.53442284378598     -2.76985031018461      0.79895977845159
  O   0.43334836917087     -2.58995391013808      2.13929865753281
  C   1.91576076155660     -0.39782226050522      1.85949589411581
  F   1.17368633040012     -0.08912802140740      0.78911204061712
  F   1.38071048280279      0.15968755347942      2.93879657786902
  F   3.14989945198891      0.06860687335010      1.68198552432622
