9
Coordinates from ORCA-job C2H5-N2+-scan-d09-169-n800
  C   0.29408148706511      2.70957518613689      2.34334627659763
  H   1.06262695897609      2.49424040008524      1.60069148084385
  H   -0.46746481467333      1.95391405770400      2.53722937484386
  N   0.38803031045893    -11.99721494934557     -5.98200631562550
  N   0.35157299259832    -12.92791461376345     -6.57744245061412
  C   0.30096684869445      3.90325381623421      3.04327917543245
  H   1.07533168875186      4.64966594319162      2.86491532133546
  H   -0.35191226265325      3.77476782336339      1.90249156475924
  H   -0.45483320921821      4.10931233639376      3.80149557242716
