9
Coordinates from ORCA-job C2H5-N2+-scan-d09-169-n800
  C   -0.08430646007671      0.42978193537319      0.41092208389713
  H   0.45547191114625      0.51018498557677     -0.53253709098329
  H   -1.07293143548712     -0.02900535382817      0.40221438775082
  N   0.53274617448019     -2.93284515068717     -0.52020037892522
  N   0.72526780194230     -3.98167696344885     -0.81051758715976
  C   0.47590430834199      0.88757285206659      1.59098240631715
  H   1.47528403507599      1.32249243398423      1.60120480156831
  H   -0.25403992713776      1.68045817208169      0.85482405661207
  H   -0.05499640828512      0.78263708888174      2.53710732092278
