9
Coordinates from ORCA-job C2H5-N2+-scan-d09-169-n800
  C   -0.14572399911422      0.30132141284914      0.23638008009085
  H   0.35203603428528      0.46036960008217     -0.72183377573434
  H   -1.16934009564588     -0.07640461618927      0.20866360673821
  N   0.52882866900461     -2.42011737428801     -0.23068150016554
  N   0.78920336495230     -3.47786760727569     -0.41533795464508
  C   0.43344970850135      0.74439233137524      1.43892897182177
  H   1.50325586648743      0.95880913575836      1.44921998283343
  H   -0.07621689161883      1.75669440984035      1.18957214747941
  H   -0.01709265685204      0.42240270784771      2.37908844158128
