9
Coordinates from ORCA-job C2H5-N2+-scan-d09-169-n800
  C   -0.09138650644205     -0.12874002364839      0.07709320101048
  H   0.28348118973148      0.29802966791517     -0.86039664625256
  H   -1.18302729630128     -0.21941331925888      0.03653951918549
  N   0.37311922713269     -1.53379270951544      0.02599937180499
  N   0.73896652509847     -2.57619867884837      0.02282202162649
  C   0.43663172394934      0.56078955768993      1.33820468277646
  H   1.52738496416769      0.60084314594021      1.34917461585259
  H   0.05144807753840      1.58439951881620      1.29898627290499
  H   0.06178209512527      0.08368284090956      2.24557696109106
