Coordinates from ORCA-job Pyridine-4-N2+-scan-d09-160-n800
 OpenBabel09191813523D

 12 11  0  0  0  0  0  0  0  0999 V2000
   -3.0733    0.1946   -1.1316 C   0  0  0  0  0  0  0  0  0  0  0  0
   -1.6160    0.0733   -1.0600 C   0  0  0  0  0  0  0  0  0  0  0  0
   -1.2253    0.8968   -0.0997 C   0  0  0  0  0  0  0  0  0  0  0  0
   -1.7388    1.7533    0.7697 C   0  0  0  0  0  0  0  0  0  0  0  0
   -3.1861    1.7377    0.5490 C   0  0  0  0  0  0  0  0  0  0  0  0
   -3.5605   -0.4264   -1.8828 H   0  0  0  0  0  0  0  0  0  0  0  0
   -1.0825   -0.5979   -1.7228 H   0  0  0  0  0  0  0  0  0  0  0  0
    7.1414    0.5034    0.6498 N   0  0  0  0  0  0  0  0  0  0  0  0
    8.2411    0.4529    0.7498 N   0  0  0  0  0  0  0  0  0  0  0  0
   -3.7670    2.3976    1.1928 H   0  0  0  0  0  0  0  0  0  0  0  0
   -1.3009    2.3890    1.5302 H   0  0  0  0  0  0  0  0  0  0  0  0
   -3.7626    0.9892   -0.3549 N   0  0  0  0  0  0  0  0  0  0  0  0
  1  2  2  0  0  0  0
  1 12  1  0  0  0  0
  2  3  1  0  0  0  0
  3  4  2  0  0  0  0
  4 11  1  0  0  0  0
  5  4  1  0  0  0  0
  5 10  1  0  0  0  0
  6  1  1  0  0  0  0
  7  2  1  0  0  0  0
  8  9  3  0  0  0  0
 12  5  2  0  0  0  0
M  RAD  1   3   2
M  END
