Coordinates from ORCA-job Pyridine-4-N2+-scan-d09-160-n800
 OpenBabel09191813533D

 12 11  0  0  0  0  0  0  0  0999 V2000
   -3.3429    0.2058   -1.1574 C   0  0  0  0  0  0  0  0  0  0  0  0
   -1.8855    0.0895   -1.0803 C   0  0  0  0  0  0  0  0  0  0  0  0
   -1.5012    0.9148   -0.1189 C   0  0  0  0  0  0  0  0  0  0  0  0
   -2.0210    1.7699    0.7481 C   0  0  0  0  0  0  0  0  0  0  0  0
   -3.4674    1.7493    0.5221 C   0  0  0  0  0  0  0  0  0  0  0  0
   -3.8252   -0.4173   -1.9101 H   0  0  0  0  0  0  0  0  0  0  0  0
   -1.3473   -0.5801   -1.7408 H   0  0  0  0  0  0  0  0  0  0  0  0
    8.5195    0.4348    0.7690 N   0  0  0  0  0  0  0  0  0  0  0  0
    9.6194    0.3835    0.8680 N   0  0  0  0  0  0  0  0  0  0  0  0
   -4.0530    2.4075    1.1633 H   0  0  0  0  0  0  0  0  0  0  0  0
   -1.5882    2.4076    1.5100 H   0  0  0  0  0  0  0  0  0  0  0  0
   -4.0379    0.9984   -0.3837 N   0  0  0  0  0  0  0  0  0  0  0  0
  1  2  2  0  0  0  0
  1 12  1  0  0  0  0
  2  3  1  0  0  0  0
  3  4  2  0  0  0  0
  4 11  1  0  0  0  0
  5  4  1  0  0  0  0
  5 10  1  0  0  0  0
  6  1  1  0  0  0  0
  7  2  1  0  0  0  0
  8  9  3  0  0  0  0
 12  5  2  0  0  0  0
M  RAD  1   3   2
M  END
