Coordinates from ORCA-job Pyridine-4-N2+-scan-d09-160-n800
 OpenBabel09191813533D

 12 11  0  0  0  0  0  0  0  0999 V2000
   -4.1828    0.2404   -1.2380 C   0  0  0  0  0  0  0  0  0  0  0  0
   -2.7251    0.1409   -1.1421 C   0  0  0  0  0  0  0  0  0  0  0  0
   -2.3625    0.9721   -0.1773 C   0  0  0  0  0  0  0  0  0  0  0  0
   -2.9031    1.8226    0.6815 C   0  0  0  0  0  0  0  0  0  0  0  0
   -4.3462    1.7851    0.4371 C   0  0  0  0  0  0  0  0  0  0  0  0
   -4.6482   -0.3893   -1.9957 H   0  0  0  0  0  0  0  0  0  0  0  0
   -2.1710   -0.5235   -1.7946 H   0  0  0  0  0  0  0  0  0  0  0  0
   12.8199    0.2174    1.1371 N   0  0  0  0  0  0  0  0  0  0  0  0
   13.9197    0.1679    1.2381 N   0  0  0  0  0  0  0  0  0  0  0  0
   -4.9473    2.4375    1.0698 H   0  0  0  0  0  0  0  0  0  0  0  0
   -2.4875    2.4663    1.4478 H   0  0  0  0  0  0  0  0  0  0  0  0
   -4.8964    1.0262   -0.4745 N   0  0  0  0  0  0  0  0  0  0  0  0
  1  2  2  0  0  0  0
  1 12  1  0  0  0  0
  2  3  1  0  0  0  0
  3  4  2  0  0  0  0
  4 11  1  0  0  0  0
  5  4  1  0  0  0  0
  5 10  1  0  0  0  0
  6  1  1  0  0  0  0
  7  2  1  0  0  0  0
  8  9  3  0  0  0  0
 12  5  2  0  0  0  0
M  RAD  1   3   2
M  END
