Coordinates from ORCA-job Pyridine-4-N2+-scan-d09-160-n800
 OpenBabel09191813533D

 12 11  0  0  0  0  0  0  0  0999 V2000
   -3.7422    0.2223   -1.1956 C   0  0  0  0  0  0  0  0  0  0  0  0
   -2.2846    0.1137   -1.1099 C   0  0  0  0  0  0  0  0  0  0  0  0
   -1.9102    0.9417   -0.1470 C   0  0  0  0  0  0  0  0  0  0  0  0
   -2.4395    1.7948    0.7163 C   0  0  0  0  0  0  0  0  0  0  0  0
   -3.8845    1.7664    0.4819 C   0  0  0  0  0  0  0  0  0  0  0  0
   -4.2168   -0.4038   -1.9507 H   0  0  0  0  0  0  0  0  0  0  0  0
   -1.7391   -0.5536   -1.7668 H   0  0  0  0  0  0  0  0  0  0  0  0
   10.5618    0.3328    0.9452 N   0  0  0  0  0  0  0  0  0  0  0  0
   11.6617    0.2804    1.0430 N   0  0  0  0  0  0  0  0  0  0  0  0
   -4.4772    2.4220    1.1193 H   0  0  0  0  0  0  0  0  0  0  0  0
   -2.0146    2.4352    1.4802 H   0  0  0  0  0  0  0  0  0  0  0  0
   -4.4457    1.0118   -0.4266 N   0  0  0  0  0  0  0  0  0  0  0  0
  1  2  2  0  0  0  0
  1 12  1  0  0  0  0
  2  3  1  0  0  0  0
  3  4  2  0  0  0  0
  4 11  1  0  0  0  0
  5  4  1  0  0  0  0
  5 10  1  0  0  0  0
  6  1  1  0  0  0  0
  7  2  1  0  0  0  0
  8  9  3  0  0  0  0
 12  5  2  0  0  0  0
M  RAD  1   3   2
M  END
