Coordinates from ORCA-job Pyridine-4-N2+-scan-d09-160-n800
 OpenBabel09191813533D

 12 11  0  0  0  0  0  0  0  0999 V2000
   -3.9334    0.2302   -1.2140 C   0  0  0  0  0  0  0  0  0  0  0  0
   -2.4758    0.1254   -1.1240 C   0  0  0  0  0  0  0  0  0  0  0  0
   -2.1064    0.9548   -0.1603 C   0  0  0  0  0  0  0  0  0  0  0  0
   -2.6405    1.8067    0.7012 C   0  0  0  0  0  0  0  0  0  0  0  0
   -4.0847    1.7745    0.4625 C   0  0  0  0  0  0  0  0  0  0  0  0
   -4.4042   -0.3975   -1.9702 H   0  0  0  0  0  0  0  0  0  0  0  0
   -1.9267   -0.5406   -1.7790 H   0  0  0  0  0  0  0  0  0  0  0  0
   11.5414    0.2837    1.0295 N   0  0  0  0  0  0  0  0  0  0  0  0
   12.6413    0.2309    1.1269 N   0  0  0  0  0  0  0  0  0  0  0  0
   -4.6810    2.4288    1.0979 H   0  0  0  0  0  0  0  0  0  0  0  0
   -2.2195    2.4486    1.4661 H   0  0  0  0  0  0  0  0  0  0  0  0
   -4.6413    1.0181   -0.4473 N   0  0  0  0  0  0  0  0  0  0  0  0
  1  2  2  0  0  0  0
  1 12  1  0  0  0  0
  2  3  1  0  0  0  0
  3  4  2  0  0  0  0
  4 11  1  0  0  0  0
  5  4  1  0  0  0  0
  5 10  1  0  0  0  0
  6  1  1  0  0  0  0
  7  2  1  0  0  0  0
  8  9  3  0  0  0  0
 12  5  2  0  0  0  0
M  RAD  1   3   2
M  END
