Coordinates from ORCA-job Pyridine-4-N2+-scan-d09-160-n800
 OpenBabel09191813523D

 12 11  0  0  0  0  0  0  0  0999 V2000
   -3.1123    0.1962   -1.1353 C   0  0  0  0  0  0  0  0  0  0  0  0
   -1.6550    0.0756   -1.0630 C   0  0  0  0  0  0  0  0  0  0  0  0
   -1.2652    0.8994   -0.1025 C   0  0  0  0  0  0  0  0  0  0  0  0
   -1.7796    1.7557    0.7665 C   0  0  0  0  0  0  0  0  0  0  0  0
   -3.2268    1.7394    0.5451 C   0  0  0  0  0  0  0  0  0  0  0  0
   -3.5988   -0.4251   -1.8868 H   0  0  0  0  0  0  0  0  0  0  0  0
   -1.1208   -0.5953   -1.7255 H   0  0  0  0  0  0  0  0  0  0  0  0
    7.3406    0.4935    0.6670 N   0  0  0  0  0  0  0  0  0  0  0  0
    8.4404    0.4429    0.7669 N   0  0  0  0  0  0  0  0  0  0  0  0
   -3.8083    2.3991    1.1886 H   0  0  0  0  0  0  0  0  0  0  0  0
   -1.3424    2.3917    1.5272 H   0  0  0  0  0  0  0  0  0  0  0  0
   -3.8024    0.9905   -0.3591 N   0  0  0  0  0  0  0  0  0  0  0  0
  1  2  2  0  0  0  0
  1 12  1  0  0  0  0
  2  3  1  0  0  0  0
  3  4  2  0  0  0  0
  4 11  1  0  0  0  0
  5  4  1  0  0  0  0
  5 10  1  0  0  0  0
  6  1  1  0  0  0  0
  7  2  1  0  0  0  0
  8  9  3  0  0  0  0
 12  5  2  0  0  0  0
M  RAD  1   3   2
M  END
