Coordinates from ORCA-job Pyridine-4-N2+-scan-d09-160-n800
 OpenBabel09191813523D

 12 11  0  0  0  0  0  0  0  0999 V2000
   -2.5809    0.1741   -1.0847 C   0  0  0  0  0  0  0  0  0  0  0  0
   -1.1241    0.0446   -1.0219 C   0  0  0  0  0  0  0  0  0  0  0  0
   -0.7239    0.8654   -0.0631 C   0  0  0  0  0  0  0  0  0  0  0  0
   -1.2272    1.7241    0.8100 C   0  0  0  0  0  0  0  0  0  0  0  0
   -2.6757    1.7164    0.5976 C   0  0  0  0  0  0  0  0  0  0  0  0
   -3.0761   -0.4436   -1.8335 H   0  0  0  0  0  0  0  0  0  0  0  0
   -0.5975   -0.6287   -1.6880 H   0  0  0  0  0  0  0  0  0  0  0  0
    4.6337    0.6263    0.4307 N   0  0  0  0  0  0  0  0  0  0  0  0
    5.7333    0.5776    0.5326 N   0  0  0  0  0  0  0  0  0  0  0  0
   -3.2494    2.3789    1.2451 H   0  0  0  0  0  0  0  0  0  0  0  0
   -0.7809    2.3566    1.5683 H   0  0  0  0  0  0  0  0  0  0  0  0
   -3.2618    0.9718   -0.3036 N   0  0  0  0  0  0  0  0  0  0  0  0
  1  2  2  0  0  0  0
  1 12  1  0  0  0  0
  2  3  1  0  0  0  0
  3  4  2  0  0  0  0
  4 11  1  0  0  0  0
  5  4  1  0  0  0  0
  5 10  1  0  0  0  0
  6  1  1  0  0  0  0
  7  2  1  0  0  0  0
  8  9  3  0  0  0  0
 12  5  2  0  0  0  0
M  RAD  1   3   2
M  END
