Coordinates from ORCA-job Pyridine-4-N2+-scan-d09-160-n800
 OpenBabel09191813523D

 12 11  0  0  0  0  0  0  0  0999 V2000
   -2.5612    0.1733   -1.0829 C   0  0  0  0  0  0  0  0  0  0  0  0
   -1.1044    0.0435   -1.0203 C   0  0  0  0  0  0  0  0  0  0  0  0
   -0.7040    0.8643   -0.0616 C   0  0  0  0  0  0  0  0  0  0  0  0
   -1.2071    1.7231    0.8117 C   0  0  0  0  0  0  0  0  0  0  0  0
   -2.6555    1.7156    0.5995 C   0  0  0  0  0  0  0  0  0  0  0  0
   -3.0566   -0.4443   -1.8316 H   0  0  0  0  0  0  0  0  0  0  0  0
   -0.5780   -0.6298   -1.6864 H   0  0  0  0  0  0  0  0  0  0  0  0
    4.5340    0.6310    0.4218 N   0  0  0  0  0  0  0  0  0  0  0  0
    5.6336    0.5824    0.5237 N   0  0  0  0  0  0  0  0  0  0  0  0
   -3.2291    2.3781    1.2471 H   0  0  0  0  0  0  0  0  0  0  0  0
   -0.7604    2.3555    1.5699 H   0  0  0  0  0  0  0  0  0  0  0  0
   -3.2419    0.9711   -0.3016 N   0  0  0  0  0  0  0  0  0  0  0  0
  1  2  2  0  0  0  0
  1 12  1  0  0  0  0
  2  3  1  0  0  0  0
  3  4  2  0  0  0  0
  4 11  1  0  0  0  0
  5  4  1  0  0  0  0
  5 10  1  0  0  0  0
  6  1  1  0  0  0  0
  7  2  1  0  0  0  0
  8  9  3  0  0  0  0
 12  5  2  0  0  0  0
M  RAD  1   3   2
M  END
