Coordinates from ORCA-job Pyridine-4-N2+-scan-d09-160-n800
 OpenBabel09191813523D

 12 11  0  0  0  0  0  0  0  0999 V2000
   -2.9725    0.1904   -1.1220 C   0  0  0  0  0  0  0  0  0  0  0  0
   -1.5153    0.0672   -1.0524 C   0  0  0  0  0  0  0  0  0  0  0  0
   -1.1223    0.8901   -0.0925 C   0  0  0  0  0  0  0  0  0  0  0  0
   -1.6335    1.7471    0.7777 C   0  0  0  0  0  0  0  0  0  0  0  0
   -3.0811    1.7334    0.5591 C   0  0  0  0  0  0  0  0  0  0  0  0
   -3.4616   -0.4298   -1.8726 H   0  0  0  0  0  0  0  0  0  0  0  0
   -0.9835   -0.6044   -1.7160 H   0  0  0  0  0  0  0  0  0  0  0  0
    6.6266    0.5290    0.6052 N   0  0  0  0  0  0  0  0  0  0  0  0
    7.7263    0.4789    0.7055 N   0  0  0  0  0  0  0  0  0  0  0  0
   -3.6603    2.3939    1.2038 H   0  0  0  0  0  0  0  0  0  0  0  0
   -1.1937    2.3821    1.5377 H   0  0  0  0  0  0  0  0  0  0  0  0
   -3.6598    0.9858   -0.3442 N   0  0  0  0  0  0  0  0  0  0  0  0
  1  2  2  0  0  0  0
  1 12  1  0  0  0  0
  2  3  1  0  0  0  0
  3  4  2  0  0  0  0
  4 11  1  0  0  0  0
  5  4  1  0  0  0  0
  5 10  1  0  0  0  0
  6  1  1  0  0  0  0
  7  2  1  0  0  0  0
  8  9  3  0  0  0  0
 12  5  2  0  0  0  0
M  RAD  1   3   2
M  END
