Coordinates from ORCA-job Pyridine-4-N2+-scan-d09-160-n800
 OpenBabel09191813523D

 12 11  0  0  0  0  0  0  0  0999 V2000
   -2.7478    0.1811   -1.1006 C   0  0  0  0  0  0  0  0  0  0  0  0
   -1.2908    0.0540   -1.0352 C   0  0  0  0  0  0  0  0  0  0  0  0
   -0.8931    0.8755   -0.0760 C   0  0  0  0  0  0  0  0  0  0  0  0
   -1.3995    1.7335    0.7960 C   0  0  0  0  0  0  0  0  0  0  0  0
   -2.8477    1.7237    0.5814 C   0  0  0  0  0  0  0  0  0  0  0  0
   -3.2406   -0.4376   -1.8501 H   0  0  0  0  0  0  0  0  0  0  0  0
   -0.7624   -0.6187   -1.7004 H   0  0  0  0  0  0  0  0  0  0  0  0
    5.4807    0.5854    0.5054 N   0  0  0  0  0  0  0  0  0  0  0  0
    6.5804    0.5362    0.6067 N   0  0  0  0  0  0  0  0  0  0  0  0
   -3.4234    2.3855    1.2279 H   0  0  0  0  0  0  0  0  0  0  0  0
   -0.9556    2.3670    1.5549 H   0  0  0  0  0  0  0  0  0  0  0  0
   -3.4309    0.9780   -0.3206 N   0  0  0  0  0  0  0  0  0  0  0  0
  1  2  2  0  0  0  0
  1 12  1  0  0  0  0
  2  3  1  0  0  0  0
  3  4  2  0  0  0  0
  4 11  1  0  0  0  0
  5  4  1  0  0  0  0
  5 10  1  0  0  0  0
  6  1  1  0  0  0  0
  7  2  1  0  0  0  0
  8  9  3  0  0  0  0
 12  5  2  0  0  0  0
M  RAD  1   3   2
M  END
