Coordinates from ORCA-job Pyridine-4-N2+-scan-d09-160-n800
 OpenBabel09191813533D

 12 11  0  0  0  0  0  0  0  0999 V2000
   -4.2409    0.2428   -1.2436 C   0  0  0  0  0  0  0  0  0  0  0  0
   -2.7833    0.1446   -1.1462 C   0  0  0  0  0  0  0  0  0  0  0  0
   -2.4224    0.9762   -0.1812 C   0  0  0  0  0  0  0  0  0  0  0  0
   -2.9646    1.8263    0.6770 C   0  0  0  0  0  0  0  0  0  0  0  0
   -4.4074    1.7875    0.4311 C   0  0  0  0  0  0  0  0  0  0  0  0
   -4.7050   -0.3874   -2.0017 H   0  0  0  0  0  0  0  0  0  0  0  0
   -2.2279   -0.5194   -1.7981 H   0  0  0  0  0  0  0  0  0  0  0  0
   13.1188    0.2021    1.1624 N   0  0  0  0  0  0  0  0  0  0  0  0
   14.2185    0.1529    1.2638 N   0  0  0  0  0  0  0  0  0  0  0  0
   -5.0098    2.4395    1.0631 H   0  0  0  0  0  0  0  0  0  0  0  0
   -2.5504    2.4706    1.4436 H   0  0  0  0  0  0  0  0  0  0  0  0
   -4.9561    1.0281   -0.4810 N   0  0  0  0  0  0  0  0  0  0  0  0
  1  2  2  0  0  0  0
  1 12  1  0  0  0  0
  2  3  1  0  0  0  0
  3  4  2  0  0  0  0
  4 11  1  0  0  0  0
  5  4  1  0  0  0  0
  5 10  1  0  0  0  0
  6  1  1  0  0  0  0
  7  2  1  0  0  0  0
  8  9  3  0  0  0  0
 12  5  2  0  0  0  0
M  RAD  1   3   2
M  END
