Coordinates from ORCA-job Pyridine-4-N2+-scan-d09-160-n800
 OpenBabel09191813523D

 12 11  0  0  0  0  0  0  0  0999 V2000
   -3.2552    0.2021   -1.1490 C   0  0  0  0  0  0  0  0  0  0  0  0
   -1.7978    0.0842   -1.0737 C   0  0  0  0  0  0  0  0  0  0  0  0
   -1.4115    0.9090   -0.1127 C   0  0  0  0  0  0  0  0  0  0  0  0
   -1.9292    1.7645    0.7551 C   0  0  0  0  0  0  0  0  0  0  0  0
   -3.3759    1.7456    0.5308 C   0  0  0  0  0  0  0  0  0  0  0  0
   -3.7391   -0.4202   -1.9012 H   0  0  0  0  0  0  0  0  0  0  0  0
   -1.2612   -0.5859   -1.7350 H   0  0  0  0  0  0  0  0  0  0  0  0
    8.0712    0.4572    0.7302 N   0  0  0  0  0  0  0  0  0  0  0  0
    9.1710    0.4061    0.8296 N   0  0  0  0  0  0  0  0  0  0  0  0
   -3.9599    2.4043    1.1730 H   0  0  0  0  0  0  0  0  0  0  0  0
   -1.4947    2.4015    1.5165 H   0  0  0  0  0  0  0  0  0  0  0  0
   -3.9483    0.9954   -0.3743 N   0  0  0  0  0  0  0  0  0  0  0  0
  1  2  2  0  0  0  0
  1 12  1  0  0  0  0
  2  3  1  0  0  0  0
  3  4  2  0  0  0  0
  4 11  1  0  0  0  0
  5  4  1  0  0  0  0
  5 10  1  0  0  0  0
  6  1  1  0  0  0  0
  7  2  1  0  0  0  0
  8  9  3  0  0  0  0
 12  5  2  0  0  0  0
M  RAD  1   3   2
M  END
