Coordinates from ORCA-job Pyridine-4-N2+-scan-d09-160-n800
 OpenBabel09191813523D

 12 11  0  0  0  0  0  0  0  0999 V2000
   -2.0883    0.1527   -1.0389 C   0  0  0  0  0  0  0  0  0  0  0  0
   -0.6456    0.0222   -0.9787 C   0  0  0  0  0  0  0  0  0  0  0  0
   -0.2202    0.8409   -0.0186 C   0  0  0  0  0  0  0  0  0  0  0  0
   -0.7439    1.7008    0.8529 C   0  0  0  0  0  0  0  0  0  0  0  0
   -2.1786    1.6952    0.6442 C   0  0  0  0  0  0  0  0  0  0  0  0
   -2.5964   -0.4591   -1.7831 H   0  0  0  0  0  0  0  0  0  0  0  0
   -0.1092   -0.6471   -1.6388 H   0  0  0  0  0  0  0  0  0  0  0  0
    2.1890    0.7364    0.2064 N   0  0  0  0  0  0  0  0  0  0  0  0
    3.2878    0.6886    0.3090 N   0  0  0  0  0  0  0  0  0  0  0  0
   -2.7611    2.3542    1.2866 H   0  0  0  0  0  0  0  0  0  0  0  0
   -0.2833    2.3268    1.6061 H   0  0  0  0  0  0  0  0  0  0  0  0
   -2.7808    0.9520   -0.2578 N   0  0  0  0  0  0  0  0  0  0  0  0
  1  2  2  0  0  0  0
  1 12  1  0  0  0  0
  2  3  1  0  0  0  0
  3  4  2  0  0  0  0
  4 11  1  0  0  0  0
  5  4  1  0  0  0  0
  5 10  1  0  0  0  0
  6  1  1  0  0  0  0
  7  2  1  0  0  0  0
  8  9  3  0  0  0  0
 12  5  2  0  0  0  0
M  RAD  1   3   2
M  END
