Coordinates from ORCA-job Pyridine-4-N2+-scan-d09-160-n800
 OpenBabel09191813533D

 12 11  0  0  0  0  0  0  0  0999 V2000
   -3.5670    0.2150   -1.1788 C   0  0  0  0  0  0  0  0  0  0  0  0
   -2.1094    0.1030   -1.0970 C   0  0  0  0  0  0  0  0  0  0  0  0
   -1.7306    0.9299   -0.1347 C   0  0  0  0  0  0  0  0  0  0  0  0
   -2.2557    1.7838    0.7302 C   0  0  0  0  0  0  0  0  0  0  0  0
   -3.7013    1.7589    0.4996 C   0  0  0  0  0  0  0  0  0  0  0  0
   -4.0450   -0.4097   -1.9329 H   0  0  0  0  0  0  0  0  0  0  0  0
   -1.5672   -0.5653   -1.7555 H   0  0  0  0  0  0  0  0  0  0  0  0
    9.6652    0.3776    0.8679 N   0  0  0  0  0  0  0  0  0  0  0  0
   10.7651    0.3257    0.9662 N   0  0  0  0  0  0  0  0  0  0  0  0
   -4.2908    2.4157    1.1387 H   0  0  0  0  0  0  0  0  0  0  0  0
   -1.8273    2.4231    1.4932 H   0  0  0  0  0  0  0  0  0  0  0  0
   -4.2666    1.0059   -0.4077 N   0  0  0  0  0  0  0  0  0  0  0  0
  1  2  2  0  0  0  0
  1 12  1  0  0  0  0
  2  3  1  0  0  0  0
  3  4  2  0  0  0  0
  4 11  1  0  0  0  0
  5  4  1  0  0  0  0
  5 10  1  0  0  0  0
  6  1  1  0  0  0  0
  7  2  1  0  0  0  0
  8  9  3  0  0  0  0
 12  5  2  0  0  0  0
M  RAD  1   3   2
M  END
