Coordinates from ORCA-job Pyridine-4-N2+-scan-d09-160-n800
 OpenBabel09191813533D

 12 11  0  0  0  0  0  0  0  0999 V2000
   -3.4988    0.2122   -1.1723 C   0  0  0  0  0  0  0  0  0  0  0  0
   -2.0413    0.0989   -1.0919 C   0  0  0  0  0  0  0  0  0  0  0  0
   -1.6608    0.9253   -0.1299 C   0  0  0  0  0  0  0  0  0  0  0  0
   -2.1842    1.7796    0.7357 C   0  0  0  0  0  0  0  0  0  0  0  0
   -3.6301    1.7560    0.5064 C   0  0  0  0  0  0  0  0  0  0  0  0
   -3.9781   -0.4120   -1.9259 H   0  0  0  0  0  0  0  0  0  0  0  0
   -1.5003   -0.5698   -1.7510 H   0  0  0  0  0  0  0  0  0  0  0  0
    9.3165    0.3951    0.8378 N   0  0  0  0  0  0  0  0  0  0  0  0
   10.4164    0.3433    0.9364 N   0  0  0  0  0  0  0  0  0  0  0  0
   -4.2184    2.4132    1.1462 H   0  0  0  0  0  0  0  0  0  0  0  0
   -1.7545    2.4183    1.4983 H   0  0  0  0  0  0  0  0  0  0  0  0
   -4.1970    1.0036   -0.4004 N   0  0  0  0  0  0  0  0  0  0  0  0
  1  2  2  0  0  0  0
  1 12  1  0  0  0  0
  2  3  1  0  0  0  0
  3  4  2  0  0  0  0
  4 11  1  0  0  0  0
  5  4  1  0  0  0  0
  5 10  1  0  0  0  0
  6  1  1  0  0  0  0
  7  2  1  0  0  0  0
  8  9  3  0  0  0  0
 12  5  2  0  0  0  0
M  RAD  1   3   2
M  END
