Coordinates from ORCA-job Pyridine-4-N2+-scan-d09-160-n800
 OpenBabel09191813533D

 12 11  0  0  0  0  0  0  0  0999 V2000
   -3.7130    0.2211   -1.1928 C   0  0  0  0  0  0  0  0  0  0  0  0
   -2.2554    0.1119   -1.1078 C   0  0  0  0  0  0  0  0  0  0  0  0
   -1.8803    0.9398   -0.1449 C   0  0  0  0  0  0  0  0  0  0  0  0
   -2.4089    1.7929    0.7186 C   0  0  0  0  0  0  0  0  0  0  0  0
   -3.8539    1.7651    0.4848 C   0  0  0  0  0  0  0  0  0  0  0  0
   -4.1881   -0.4048   -1.9477 H   0  0  0  0  0  0  0  0  0  0  0  0
   -1.7104   -0.5555   -1.7649 H   0  0  0  0  0  0  0  0  0  0  0  0
   10.4124    0.3403    0.9323 N   0  0  0  0  0  0  0  0  0  0  0  0
   11.5123    0.2880    1.0302 N   0  0  0  0  0  0  0  0  0  0  0  0
   -4.4461    2.4209    1.1225 H   0  0  0  0  0  0  0  0  0  0  0  0
   -1.9834    2.4332    1.4824 H   0  0  0  0  0  0  0  0  0  0  0  0
   -4.4158    1.0108   -0.4234 N   0  0  0  0  0  0  0  0  0  0  0  0
  1  2  2  0  0  0  0
  1 12  1  0  0  0  0
  2  3  1  0  0  0  0
  3  4  2  0  0  0  0
  4 11  1  0  0  0  0
  5  4  1  0  0  0  0
  5 10  1  0  0  0  0
  6  1  1  0  0  0  0
  7  2  1  0  0  0  0
  8  9  3  0  0  0  0
 12  5  2  0  0  0  0
M  RAD  1   3   2
M  END
