Coordinates from ORCA-job Pyridine-4-N2+-scan-d09-160-n800
 OpenBabel09191813533D

 12 11  0  0  0  0  0  0  0  0999 V2000
   -3.6838    0.2199   -1.1900 C   0  0  0  0  0  0  0  0  0  0  0  0
   -2.2262    0.1101   -1.1056 C   0  0  0  0  0  0  0  0  0  0  0  0
   -1.8503    0.9378   -0.1429 C   0  0  0  0  0  0  0  0  0  0  0  0
   -2.3782    1.7911    0.7210 C   0  0  0  0  0  0  0  0  0  0  0  0
   -3.8234    1.7639    0.4878 C   0  0  0  0  0  0  0  0  0  0  0  0
   -4.1595   -0.4058   -1.9447 H   0  0  0  0  0  0  0  0  0  0  0  0
   -1.6818   -0.5575   -1.7630 H   0  0  0  0  0  0  0  0  0  0  0  0
   10.2630    0.3478    0.9194 N   0  0  0  0  0  0  0  0  0  0  0  0
   11.3628    0.2955    1.0174 N   0  0  0  0  0  0  0  0  0  0  0  0
   -4.4151    2.4199    1.1258 H   0  0  0  0  0  0  0  0  0  0  0  0
   -1.9521    2.4312    1.4846 H   0  0  0  0  0  0  0  0  0  0  0  0
   -4.3860    1.0099   -0.4203 N   0  0  0  0  0  0  0  0  0  0  0  0
  1  2  2  0  0  0  0
  1 12  1  0  0  0  0
  2  3  1  0  0  0  0
  3  4  2  0  0  0  0
  4 11  1  0  0  0  0
  5  4  1  0  0  0  0
  5 10  1  0  0  0  0
  6  1  1  0  0  0  0
  7  2  1  0  0  0  0
  8  9  3  0  0  0  0
 12  5  2  0  0  0  0
M  RAD  1   3   2
M  END
