Coordinates from ORCA-job Pyridine-4-N2+-scan-d09-160-n800
 OpenBabel09191813533D

 12 11  0  0  0  0  0  0  0  0999 V2000
   -3.7876    0.2241   -1.2000 C   0  0  0  0  0  0  0  0  0  0  0  0
   -2.3300    0.1165   -1.1133 C   0  0  0  0  0  0  0  0  0  0  0  0
   -1.9567    0.9448   -0.1502 C   0  0  0  0  0  0  0  0  0  0  0  0
   -2.4872    1.7976    0.7127 C   0  0  0  0  0  0  0  0  0  0  0  0
   -3.9320    1.7683    0.4773 C   0  0  0  0  0  0  0  0  0  0  0  0
   -4.2613   -0.4023   -1.9553 H   0  0  0  0  0  0  0  0  0  0  0  0
   -1.7836   -0.5505   -1.7697 H   0  0  0  0  0  0  0  0  0  0  0  0
   10.7943    0.3212    0.9652 N   0  0  0  0  0  0  0  0  0  0  0  0
   11.8942    0.2687    1.0629 N   0  0  0  0  0  0  0  0  0  0  0  0
   -4.5255    2.4236    1.1142 H   0  0  0  0  0  0  0  0  0  0  0  0
   -2.0632    2.4384    1.4768 H   0  0  0  0  0  0  0  0  0  0  0  0
   -4.4921    1.0133   -0.4315 N   0  0  0  0  0  0  0  0  0  0  0  0
  1  2  2  0  0  0  0
  1 12  1  0  0  0  0
  2  3  1  0  0  0  0
  3  4  2  0  0  0  0
  4 11  1  0  0  0  0
  5  4  1  0  0  0  0
  5 10  1  0  0  0  0
  6  1  1  0  0  0  0
  7  2  1  0  0  0  0
  8  9  3  0  0  0  0
 12  5  2  0  0  0  0
M  RAD  1   3   2
M  END
