Coordinates from ORCA-job Pyridine-4-N2+-scan-d09-160-n800
 OpenBabel09191813523D

 12 11  0  0  0  0  0  0  0  0999 V2000
   -2.3402    0.1638   -1.0622 C   0  0  0  0  0  0  0  0  0  0  0  0
   -0.8841    0.0325   -1.0012 C   0  0  0  0  0  0  0  0  0  0  0  0
   -0.4819    0.8527   -0.0427 C   0  0  0  0  0  0  0  0  0  0  0  0
   -0.9831    1.7119    0.8313 C   0  0  0  0  0  0  0  0  0  0  0  0
   -2.4311    1.7059    0.6204 C   0  0  0  0  0  0  0  0  0  0  0  0
   -2.8374   -0.4529   -1.8103 H   0  0  0  0  0  0  0  0  0  0  0  0
   -0.3575   -0.6407   -1.6671 H   0  0  0  0  0  0  0  0  0  0  0  0
    3.4212    0.6822    0.3209 N   0  0  0  0  0  0  0  0  0  0  0  0
    4.5207    0.6342    0.4234 N   0  0  0  0  0  0  0  0  0  0  0  0
   -3.0038    2.3688    1.2685 H   0  0  0  0  0  0  0  0  0  0  0  0
   -0.5334    2.3431    1.5885 H   0  0  0  0  0  0  0  0  0  0  0  0
   -3.0201    0.9622   -0.2802 N   0  0  0  0  0  0  0  0  0  0  0  0
  1  2  2  0  0  0  0
  1 12  1  0  0  0  0
  2  3  1  0  0  0  0
  3  4  2  0  0  0  0
  4 11  1  0  0  0  0
  5  4  1  0  0  0  0
  5 10  1  0  0  0  0
  6  1  1  0  0  0  0
  7  2  1  0  0  0  0
  8  9  3  0  0  0  0
 12  5  2  0  0  0  0
M  RAD  1   3   2
M  END
