Coordinates from ORCA-job Pyridine-4-N2+-scan-d09-160-n800
 OpenBabel09191813533D

 12 11  0  0  0  0  0  0  0  0999 V2000
   -3.9561    0.2311   -1.2161 C   0  0  0  0  0  0  0  0  0  0  0  0
   -2.4985    0.1268   -1.1257 C   0  0  0  0  0  0  0  0  0  0  0  0
   -2.1297    0.9563   -0.1618 C   0  0  0  0  0  0  0  0  0  0  0  0
   -2.6643    1.8082    0.6994 C   0  0  0  0  0  0  0  0  0  0  0  0
   -4.1084    1.7755    0.4602 C   0  0  0  0  0  0  0  0  0  0  0  0
   -4.4264   -0.3967   -1.9725 H   0  0  0  0  0  0  0  0  0  0  0  0
   -1.9490   -0.5391   -1.7805 H   0  0  0  0  0  0  0  0  0  0  0  0
   11.6577    0.2775    1.0391 N   0  0  0  0  0  0  0  0  0  0  0  0
   12.7575    0.2253    1.1372 N   0  0  0  0  0  0  0  0  0  0  0  0
   -4.7051    2.4296    1.0954 H   0  0  0  0  0  0  0  0  0  0  0  0
   -2.2438    2.4502    1.4644 H   0  0  0  0  0  0  0  0  0  0  0  0
   -4.6645    1.0189   -0.4498 N   0  0  0  0  0  0  0  0  0  0  0  0
  1  2  2  0  0  0  0
  1 12  1  0  0  0  0
  2  3  1  0  0  0  0
  3  4  2  0  0  0  0
  4 11  1  0  0  0  0
  5  4  1  0  0  0  0
  5 10  1  0  0  0  0
  6  1  1  0  0  0  0
  7  2  1  0  0  0  0
  8  9  3  0  0  0  0
 12  5  2  0  0  0  0
M  RAD  1   3   2
M  END
