Coordinates from ORCA-job Pyridine-4-N2+-scan-d09-160-n800
 OpenBabel09191813523D

 12 11  0  0  0  0  0  0  0  0999 V2000
   -2.5317    0.1720   -1.0802 C   0  0  0  0  0  0  0  0  0  0  0  0
   -1.0749    0.0421   -1.0177 C   0  0  0  0  0  0  0  0  0  0  0  0
   -0.6741    0.8626   -0.0591 C   0  0  0  0  0  0  0  0  0  0  0  0
   -1.1769    1.7214    0.8142 C   0  0  0  0  0  0  0  0  0  0  0  0
   -2.6253    1.7143    0.6023 C   0  0  0  0  0  0  0  0  0  0  0  0
   -3.0273   -0.4455   -1.8288 H   0  0  0  0  0  0  0  0  0  0  0  0
   -0.5486   -0.6313   -1.6839 H   0  0  0  0  0  0  0  0  0  0  0  0
    4.3846    0.6381    0.4084 N   0  0  0  0  0  0  0  0  0  0  0  0
    5.4842    0.5895    0.5104 N   0  0  0  0  0  0  0  0  0  0  0  0
   -3.1986    2.3770    1.2501 H   0  0  0  0  0  0  0  0  0  0  0  0
   -0.7298    2.3536    1.5722 H   0  0  0  0  0  0  0  0  0  0  0  0
   -3.2120    0.9699   -0.2987 N   0  0  0  0  0  0  0  0  0  0  0  0
  1  2  2  0  0  0  0
  1 12  1  0  0  0  0
  2  3  1  0  0  0  0
  3  4  2  0  0  0  0
  4 11  1  0  0  0  0
  5  4  1  0  0  0  0
  5 10  1  0  0  0  0
  6  1  1  0  0  0  0
  7  2  1  0  0  0  0
  8  9  3  0  0  0  0
 12  5  2  0  0  0  0
M  RAD  1   3   2
M  END
