Coordinates from ORCA-job Pyridine-4-N2+-scan-d09-160-n800
 OpenBabel09191813533D

 12 11  0  0  0  0  0  0  0  0999 V2000
   -3.6481    0.2184   -1.1866 C   0  0  0  0  0  0  0  0  0  0  0  0
   -2.1905    0.1080   -1.1030 C   0  0  0  0  0  0  0  0  0  0  0  0
   -1.8138    0.9354   -0.1404 C   0  0  0  0  0  0  0  0  0  0  0  0
   -2.3408    1.7889    0.7238 C   0  0  0  0  0  0  0  0  0  0  0  0
   -3.7861    1.7624    0.4914 C   0  0  0  0  0  0  0  0  0  0  0  0
   -4.1245   -0.4070   -1.9411 H   0  0  0  0  0  0  0  0  0  0  0  0
   -1.6468   -0.5599   -1.7607 H   0  0  0  0  0  0  0  0  0  0  0  0
   10.0803    0.3569    0.9037 N   0  0  0  0  0  0  0  0  0  0  0  0
   11.1802    0.3047    1.0018 N   0  0  0  0  0  0  0  0  0  0  0  0
   -4.3771    2.4186    1.1297 H   0  0  0  0  0  0  0  0  0  0  0  0
   -1.9140    2.4287    1.4872 H   0  0  0  0  0  0  0  0  0  0  0  0
   -4.3495    1.0087   -0.4165 N   0  0  0  0  0  0  0  0  0  0  0  0
  1  2  2  0  0  0  0
  1 12  1  0  0  0  0
  2  3  1  0  0  0  0
  3  4  2  0  0  0  0
  4 11  1  0  0  0  0
  5  4  1  0  0  0  0
  5 10  1  0  0  0  0
  6  1  1  0  0  0  0
  7  2  1  0  0  0  0
  8  9  3  0  0  0  0
 12  5  2  0  0  0  0
M  RAD  1   3   2
M  END
