Coordinates from ORCA-job Pyridine-4-N2+-scan-d09-160-n800
 OpenBabel09191813533D

 12 11  0  0  0  0  0  0  0  0999 V2000
   -4.2667    0.2438   -1.2461 C   0  0  0  0  0  0  0  0  0  0  0  0
   -2.8091    0.1463   -1.1481 C   0  0  0  0  0  0  0  0  0  0  0  0
   -2.4491    0.9781   -0.1829 C   0  0  0  0  0  0  0  0  0  0  0  0
   -2.9920    1.8280    0.6750 C   0  0  0  0  0  0  0  0  0  0  0  0
   -4.4347    1.7886    0.4285 C   0  0  0  0  0  0  0  0  0  0  0  0
   -4.7303   -0.3866   -2.0044 H   0  0  0  0  0  0  0  0  0  0  0  0
   -2.2532   -0.5176   -1.7996 H   0  0  0  0  0  0  0  0  0  0  0  0
   13.2516    0.1952    1.1737 N   0  0  0  0  0  0  0  0  0  0  0  0
   14.3513    0.1462    1.2752 N   0  0  0  0  0  0  0  0  0  0  0  0
   -5.0376    2.4403    1.0601 H   0  0  0  0  0  0  0  0  0  0  0  0
   -2.5783    2.4725    1.4417 H   0  0  0  0  0  0  0  0  0  0  0  0
   -4.9826    1.0288   -0.4839 N   0  0  0  0  0  0  0  0  0  0  0  0
  1  2  2  0  0  0  0
  1 12  1  0  0  0  0
  2  3  1  0  0  0  0
  3  4  2  0  0  0  0
  4 11  1  0  0  0  0
  5  4  1  0  0  0  0
  5 10  1  0  0  0  0
  6  1  1  0  0  0  0
  7  2  1  0  0  0  0
  8  9  3  0  0  0  0
 12  5  2  0  0  0  0
M  RAD  1   3   2
M  END
