Coordinates from ORCA-job Pyridine-4-N2+-scan-d09-160-n800
 OpenBabel09191813533D

 12 11  0  0  0  0  0  0  0  0999 V2000
   -3.4891    0.2118   -1.1714 C   0  0  0  0  0  0  0  0  0  0  0  0
   -2.0315    0.0983   -1.0912 C   0  0  0  0  0  0  0  0  0  0  0  0
   -1.6508    0.9246   -0.1292 C   0  0  0  0  0  0  0  0  0  0  0  0
   -2.1740    1.7790    0.7364 C   0  0  0  0  0  0  0  0  0  0  0  0
   -3.6199    1.7556    0.5074 C   0  0  0  0  0  0  0  0  0  0  0  0
   -3.9686   -0.4123   -1.9250 H   0  0  0  0  0  0  0  0  0  0  0  0
   -1.4907   -0.5705   -1.7504 H   0  0  0  0  0  0  0  0  0  0  0  0
    9.2667    0.3975    0.8335 N   0  0  0  0  0  0  0  0  0  0  0  0
   10.3666    0.3458    0.9321 N   0  0  0  0  0  0  0  0  0  0  0  0
   -4.2081    2.4128    1.1473 H   0  0  0  0  0  0  0  0  0  0  0  0
   -1.7441    2.4177    1.4990 H   0  0  0  0  0  0  0  0  0  0  0  0
   -4.1871    1.0033   -0.3994 N   0  0  0  0  0  0  0  0  0  0  0  0
  1  2  2  0  0  0  0
  1 12  1  0  0  0  0
  2  3  1  0  0  0  0
  3  4  2  0  0  0  0
  4 11  1  0  0  0  0
  5  4  1  0  0  0  0
  5 10  1  0  0  0  0
  6  1  1  0  0  0  0
  7  2  1  0  0  0  0
  8  9  3  0  0  0  0
 12  5  2  0  0  0  0
M  RAD  1   3   2
M  END
