Coordinates from ORCA-job Pyridine-4-N2+-scan-d09-160-n800
 OpenBabel09191813523D

 12 11  0  0  0  0  0  0  0  0999 V2000
   -2.5744    0.1738   -1.0841 C   0  0  0  0  0  0  0  0  0  0  0  0
   -1.1175    0.0442   -1.0214 C   0  0  0  0  0  0  0  0  0  0  0  0
   -0.7173    0.8650   -0.0626 C   0  0  0  0  0  0  0  0  0  0  0  0
   -1.2205    1.7238    0.8106 C   0  0  0  0  0  0  0  0  0  0  0  0
   -2.6689    1.7161    0.5982 C   0  0  0  0  0  0  0  0  0  0  0  0
   -3.0696   -0.4438   -1.8329 H   0  0  0  0  0  0  0  0  0  0  0  0
   -0.5910   -0.6291   -1.6875 H   0  0  0  0  0  0  0  0  0  0  0  0
    4.6005    0.6279    0.4277 N   0  0  0  0  0  0  0  0  0  0  0  0
    5.7001    0.5792    0.5296 N   0  0  0  0  0  0  0  0  0  0  0  0
   -3.2426    2.3787    1.2458 H   0  0  0  0  0  0  0  0  0  0  0  0
   -0.7740    2.3562    1.5688 H   0  0  0  0  0  0  0  0  0  0  0  0
   -3.2552    0.9716   -0.3030 N   0  0  0  0  0  0  0  0  0  0  0  0
  1  2  2  0  0  0  0
  1 12  1  0  0  0  0
  2  3  1  0  0  0  0
  3  4  2  0  0  0  0
  4 11  1  0  0  0  0
  5  4  1  0  0  0  0
  5 10  1  0  0  0  0
  6  1  1  0  0  0  0
  7  2  1  0  0  0  0
  8  9  3  0  0  0  0
 12  5  2  0  0  0  0
M  RAD  1   3   2
M  END
