Coordinates from ORCA-job Pyridine-4-N2+-scan-d09-160-n800
 OpenBabel09191813523D

 12 11  0  0  0  0  0  0  0  0999 V2000
   -2.9530    0.1896   -1.1201 C   0  0  0  0  0  0  0  0  0  0  0  0
   -1.4958    0.0661   -1.0510 C   0  0  0  0  0  0  0  0  0  0  0  0
   -1.1024    0.8888   -0.0911 C   0  0  0  0  0  0  0  0  0  0  0  0
   -1.6131    1.7459    0.7793 C   0  0  0  0  0  0  0  0  0  0  0  0
   -3.0608    1.7326    0.5610 C   0  0  0  0  0  0  0  0  0  0  0  0
   -3.4424   -0.4305   -1.8707 H   0  0  0  0  0  0  0  0  0  0  0  0
   -0.9643   -0.6057   -1.7147 H   0  0  0  0  0  0  0  0  0  0  0  0
    6.5270    0.5339    0.5965 N   0  0  0  0  0  0  0  0  0  0  0  0
    7.6267    0.4839    0.6970 N   0  0  0  0  0  0  0  0  0  0  0  0
   -3.6397    2.3932    1.2059 H   0  0  0  0  0  0  0  0  0  0  0  0
   -1.1729    2.3808    1.5392 H   0  0  0  0  0  0  0  0  0  0  0  0
   -3.6399    0.9851   -0.3422 N   0  0  0  0  0  0  0  0  0  0  0  0
  1  2  2  0  0  0  0
  1 12  1  0  0  0  0
  2  3  1  0  0  0  0
  3  4  2  0  0  0  0
  4 11  1  0  0  0  0
  5  4  1  0  0  0  0
  5 10  1  0  0  0  0
  6  1  1  0  0  0  0
  7  2  1  0  0  0  0
  8  9  3  0  0  0  0
 12  5  2  0  0  0  0
M  RAD  1   3   2
M  END
