Coordinates from ORCA-job Pyridine-4-N2+-scan-d09-160-n800
 OpenBabel09191813533D

 12 11  0  0  0  0  0  0  0  0999 V2000
   -4.2280    0.2422   -1.2423 C   0  0  0  0  0  0  0  0  0  0  0  0
   -2.7704    0.1438   -1.1453 C   0  0  0  0  0  0  0  0  0  0  0  0
   -2.4091    0.9753   -0.1803 C   0  0  0  0  0  0  0  0  0  0  0  0
   -2.9509    1.8255    0.6780 C   0  0  0  0  0  0  0  0  0  0  0  0
   -4.3938    1.7869    0.4325 C   0  0  0  0  0  0  0  0  0  0  0  0
   -4.6924   -0.3878   -2.0004 H   0  0  0  0  0  0  0  0  0  0  0  0
   -2.2153   -0.5203   -1.7973 H   0  0  0  0  0  0  0  0  0  0  0  0
   13.0524    0.2055    1.1568 N   0  0  0  0  0  0  0  0  0  0  0  0
   14.1521    0.1562    1.2581 N   0  0  0  0  0  0  0  0  0  0  0  0
   -4.9959    2.4391    1.0646 H   0  0  0  0  0  0  0  0  0  0  0  0
   -2.5364    2.4696    1.4445 H   0  0  0  0  0  0  0  0  0  0  0  0
   -4.9428    1.0277   -0.4795 N   0  0  0  0  0  0  0  0  0  0  0  0
  1  2  2  0  0  0  0
  1 12  1  0  0  0  0
  2  3  1  0  0  0  0
  3  4  2  0  0  0  0
  4 11  1  0  0  0  0
  5  4  1  0  0  0  0
  5 10  1  0  0  0  0
  6  1  1  0  0  0  0
  7  2  1  0  0  0  0
  8  9  3  0  0  0  0
 12  5  2  0  0  0  0
M  RAD  1   3   2
M  END
