Coordinates from ORCA-job Pyridine-4-N2+-scan-d09-160-n800
 OpenBabel09191813523D

 12 12  0  0  0  0  0  0  0  0999 V2000
   -1.9903    0.1440   -1.0345 C   0  0  0  0  0  0  0  0  0  0  0  0
   -0.5766    0.0194   -0.9721 C   0  0  0  0  0  0  0  0  0  0  0  0
   -0.0804    0.8348   -0.0055 C   0  0  0  0  0  0  0  0  0  0  0  0
   -0.6748    1.6976    0.8591 C   0  0  0  0  0  0  0  0  0  0  0  0
   -2.0811    1.6953    0.6582 C   0  0  0  0  0  0  0  0  0  0  0  0
   -2.5257   -0.4547   -1.7683 H   0  0  0  0  0  0  0  0  0  0  0  0
   -0.0193   -0.6429   -1.6216 H   0  0  0  0  0  0  0  0  0  0  0  0
    1.7511    0.7554    0.1655 N   0  0  0  0  0  0  0  0  0  0  0  0
    2.8494    0.7077    0.2681 N   0  0  0  0  0  0  0  0  0  0  0  0
   -2.6895    2.3437    1.2851 H   0  0  0  0  0  0  0  0  0  0  0  0
   -0.1925    2.3148    1.6058 H   0  0  0  0  0  0  0  0  0  0  0  0
   -2.7009    0.9485   -0.2503 N   0  0  0  0  0  0  0  0  0  0  0  0
  1  2  2  0  0  0  0
  1 12  1  0  0  0  0
  2  3  1  0  0  0  0
  3  8  1  0  0  0  0
  3  4  2  0  0  0  0
  4 11  1  0  0  0  0
  5  4  1  0  0  0  0
  5 10  1  0  0  0  0
  6  1  1  0  0  0  0
  7  2  1  0  0  0  0
  8  9  1  0  0  0  0
 12  5  2  0  0  0  0
M  RAD  2   8   2   9   3
M  END
