Coordinates from ORCA-job Pyridine-4-N2+-scan-d09-160-n800
 OpenBabel09191813533D

 12 11  0  0  0  0  0  0  0  0999 V2000
   -3.6513    0.2185   -1.1869 C   0  0  0  0  0  0  0  0  0  0  0  0
   -2.1938    0.1082   -1.1032 C   0  0  0  0  0  0  0  0  0  0  0  0
   -1.8171    0.9356   -0.1406 C   0  0  0  0  0  0  0  0  0  0  0  0
   -2.3442    1.7891    0.7235 C   0  0  0  0  0  0  0  0  0  0  0  0
   -3.7895    1.7625    0.4911 C   0  0  0  0  0  0  0  0  0  0  0  0
   -4.1277   -0.4069   -1.9414 H   0  0  0  0  0  0  0  0  0  0  0  0
   -1.6500   -0.5597   -1.7609 H   0  0  0  0  0  0  0  0  0  0  0  0
   10.0969    0.3561    0.9051 N   0  0  0  0  0  0  0  0  0  0  0  0
   11.1968    0.3039    1.0032 N   0  0  0  0  0  0  0  0  0  0  0  0
   -4.3805    2.4187    1.1294 H   0  0  0  0  0  0  0  0  0  0  0  0
   -1.9174    2.4289    1.4870 H   0  0  0  0  0  0  0  0  0  0  0  0
   -4.3529    1.0088   -0.4168 N   0  0  0  0  0  0  0  0  0  0  0  0
  1  2  2  0  0  0  0
  1 12  1  0  0  0  0
  2  3  1  0  0  0  0
  3  4  2  0  0  0  0
  4 11  1  0  0  0  0
  5  4  1  0  0  0  0
  5 10  1  0  0  0  0
  6  1  1  0  0  0  0
  7  2  1  0  0  0  0
  8  9  3  0  0  0  0
 12  5  2  0  0  0  0
M  RAD  1   3   2
M  END
