Coordinates from ORCA-job Pyridine-4-N2+-scan-d09-160-n800
 OpenBabel09191813533D

 12 11  0  0  0  0  0  0  0  0999 V2000
   -3.9886    0.2324   -1.2193 C   0  0  0  0  0  0  0  0  0  0  0  0
   -2.5309    0.1288   -1.1281 C   0  0  0  0  0  0  0  0  0  0  0  0
   -2.1630    0.9586   -0.1641 C   0  0  0  0  0  0  0  0  0  0  0  0
   -2.6984    1.8102    0.6968 C   0  0  0  0  0  0  0  0  0  0  0  0
   -4.1423    1.7769    0.4570 C   0  0  0  0  0  0  0  0  0  0  0  0
   -4.4582   -0.3956   -1.9758 H   0  0  0  0  0  0  0  0  0  0  0  0
   -1.9808   -0.5369   -1.7826 H   0  0  0  0  0  0  0  0  0  0  0  0
   11.8237    0.2689    1.0530 N   0  0  0  0  0  0  0  0  0  0  0  0
   12.9235    0.2173    1.1517 N   0  0  0  0  0  0  0  0  0  0  0  0
   -4.7396    2.4308    1.0918 H   0  0  0  0  0  0  0  0  0  0  0  0
   -2.2785    2.4525    1.4620 H   0  0  0  0  0  0  0  0  0  0  0  0
   -4.6976    1.0200   -0.4533 N   0  0  0  0  0  0  0  0  0  0  0  0
  1  2  2  0  0  0  0
  1 12  1  0  0  0  0
  2  3  1  0  0  0  0
  3  4  2  0  0  0  0
  4 11  1  0  0  0  0
  5  4  1  0  0  0  0
  5 10  1  0  0  0  0
  6  1  1  0  0  0  0
  7  2  1  0  0  0  0
  8  9  3  0  0  0  0
 12  5  2  0  0  0  0
M  RAD  1   3   2
M  END
