Coordinates from ORCA-job Pyridine-4-N2+-scan-d09-160-n800
 OpenBabel09191813533D

 12 11  0  0  0  0  0  0  0  0999 V2000
   -3.6027    0.2165   -1.1822 C   0  0  0  0  0  0  0  0  0  0  0  0
   -2.1451    0.1052   -1.0996 C   0  0  0  0  0  0  0  0  0  0  0  0
   -1.7672    0.9323   -0.1372 C   0  0  0  0  0  0  0  0  0  0  0  0
   -2.2931    1.7860    0.7274 C   0  0  0  0  0  0  0  0  0  0  0  0
   -3.7386    1.7604    0.4960 C   0  0  0  0  0  0  0  0  0  0  0  0
   -4.0800   -0.4085   -1.9365 H   0  0  0  0  0  0  0  0  0  0  0  0
   -1.6022   -0.5629   -1.7578 H   0  0  0  0  0  0  0  0  0  0  0  0
    9.8479    0.3685    0.8836 N   0  0  0  0  0  0  0  0  0  0  0  0
   10.9477    0.3165    0.9819 N   0  0  0  0  0  0  0  0  0  0  0  0
   -4.3288    2.4170    1.1347 H   0  0  0  0  0  0  0  0  0  0  0  0
   -1.8654    2.4255    1.4906 H   0  0  0  0  0  0  0  0  0  0  0  0
   -4.3031    1.0071   -0.4116 N   0  0  0  0  0  0  0  0  0  0  0  0
  1  2  2  0  0  0  0
  1 12  1  0  0  0  0
  2  3  1  0  0  0  0
  3  4  2  0  0  0  0
  4 11  1  0  0  0  0
  5  4  1  0  0  0  0
  5 10  1  0  0  0  0
  6  1  1  0  0  0  0
  7  2  1  0  0  0  0
  8  9  3  0  0  0  0
 12  5  2  0  0  0  0
M  RAD  1   3   2
M  END
