Coordinates from ORCA-job Pyridine-4-N2+-scan-d09-160-n800
 OpenBabel09191813533D

 12 11  0  0  0  0  0  0  0  0999 V2000
   -3.8265    0.2258   -1.2037 C   0  0  0  0  0  0  0  0  0  0  0  0
   -2.3689    0.1189   -1.1162 C   0  0  0  0  0  0  0  0  0  0  0  0
   -1.9967    0.9475   -0.1529 C   0  0  0  0  0  0  0  0  0  0  0  0
   -2.5280    1.8000    0.7096 C   0  0  0  0  0  0  0  0  0  0  0  0
   -3.9727    1.7700    0.4734 C   0  0  0  0  0  0  0  0  0  0  0  0
   -4.2994   -0.4010   -1.9593 H   0  0  0  0  0  0  0  0  0  0  0  0
   -1.8218   -0.5479   -1.7722 H   0  0  0  0  0  0  0  0  0  0  0  0
   10.9935    0.3112    0.9824 N   0  0  0  0  0  0  0  0  0  0  0  0
   12.0934    0.2586    1.0800 N   0  0  0  0  0  0  0  0  0  0  0  0
   -4.5669    2.4250    1.1099 H   0  0  0  0  0  0  0  0  0  0  0  0
   -2.1048    2.4411    1.4740 H   0  0  0  0  0  0  0  0  0  0  0  0
   -4.5319    1.0146   -0.4357 N   0  0  0  0  0  0  0  0  0  0  0  0
  1  2  2  0  0  0  0
  1 12  1  0  0  0  0
  2  3  1  0  0  0  0
  3  4  2  0  0  0  0
  4 11  1  0  0  0  0
  5  4  1  0  0  0  0
  5 10  1  0  0  0  0
  6  1  1  0  0  0  0
  7  2  1  0  0  0  0
  8  9  3  0  0  0  0
 12  5  2  0  0  0  0
M  RAD  1   3   2
M  END
