Coordinates from ORCA-job Pyridine-4-N2+-scan-d09-160-n800
 OpenBabel09191813523D

 12 11  0  0  0  0  0  0  0  0999 V2000
   -2.9432    0.1892   -1.1192 C   0  0  0  0  0  0  0  0  0  0  0  0
   -1.4860    0.0655   -1.0502 C   0  0  0  0  0  0  0  0  0  0  0  0
   -1.0924    0.8882   -0.0904 C   0  0  0  0  0  0  0  0  0  0  0  0
   -1.6029    1.7453    0.7801 C   0  0  0  0  0  0  0  0  0  0  0  0
   -3.0506    1.7322    0.5620 C   0  0  0  0  0  0  0  0  0  0  0  0
   -3.4328   -0.4308   -1.8697 H   0  0  0  0  0  0  0  0  0  0  0  0
   -0.9547   -0.6063   -1.7141 H   0  0  0  0  0  0  0  0  0  0  0  0
    6.4771    0.5364    0.5922 N   0  0  0  0  0  0  0  0  0  0  0  0
    7.5769    0.4864    0.6927 N   0  0  0  0  0  0  0  0  0  0  0  0
   -3.6293    2.3928    1.2070 H   0  0  0  0  0  0  0  0  0  0  0  0
   -1.1626    2.3801    1.5400 H   0  0  0  0  0  0  0  0  0  0  0  0
   -3.6299    0.9848   -0.3411 N   0  0  0  0  0  0  0  0  0  0  0  0
  1  2  2  0  0  0  0
  1 12  1  0  0  0  0
  2  3  1  0  0  0  0
  3  4  2  0  0  0  0
  4 11  1  0  0  0  0
  5  4  1  0  0  0  0
  5 10  1  0  0  0  0
  6  1  1  0  0  0  0
  7  2  1  0  0  0  0
  8  9  3  0  0  0  0
 12  5  2  0  0  0  0
M  RAD  1   3   2
M  END
