Coordinates from ORCA-job Pyridine-4-N2+-scan-d09-160-n800
 OpenBabel09191813533D

 12 11  0  0  0  0  0  0  0  0999 V2000
   -4.2603    0.2436   -1.2455 C   0  0  0  0  0  0  0  0  0  0  0  0
   -2.8027    0.1459   -1.1476 C   0  0  0  0  0  0  0  0  0  0  0  0
   -2.4424    0.9776   -0.1825 C   0  0  0  0  0  0  0  0  0  0  0  0
   -2.9851    1.8276    0.6755 C   0  0  0  0  0  0  0  0  0  0  0  0
   -4.4279    1.7883    0.4291 C   0  0  0  0  0  0  0  0  0  0  0  0
   -4.7240   -0.3868   -2.0038 H   0  0  0  0  0  0  0  0  0  0  0  0
   -2.2469   -0.5180   -1.7992 H   0  0  0  0  0  0  0  0  0  0  0  0
   13.2184    0.1970    1.1709 N   0  0  0  0  0  0  0  0  0  0  0  0
   14.3181    0.1479    1.2723 N   0  0  0  0  0  0  0  0  0  0  0  0
   -5.0307    2.4401    1.0609 H   0  0  0  0  0  0  0  0  0  0  0  0
   -2.5713    2.4720    1.4422 H   0  0  0  0  0  0  0  0  0  0  0  0
   -4.9759    1.0286   -0.4831 N   0  0  0  0  0  0  0  0  0  0  0  0
  1  2  2  0  0  0  0
  1 12  1  0  0  0  0
  2  3  1  0  0  0  0
  3  4  2  0  0  0  0
  4 11  1  0  0  0  0
  5  4  1  0  0  0  0
  5 10  1  0  0  0  0
  6  1  1  0  0  0  0
  7  2  1  0  0  0  0
  8  9  3  0  0  0  0
 12  5  2  0  0  0  0
M  RAD  1   3   2
M  END
