Coordinates from ORCA-job Pyridine-4-N2+-scan-d09-160-n800
 OpenBabel09191813523D

 12 11  0  0  0  0  0  0  0  0999 V2000
   -2.7021    0.1792   -1.0962 C   0  0  0  0  0  0  0  0  0  0  0  0
   -1.2451    0.0514   -1.0316 C   0  0  0  0  0  0  0  0  0  0  0  0
   -0.8466    0.8727   -0.0726 C   0  0  0  0  0  0  0  0  0  0  0  0
   -1.3521    1.7309    0.7997 C   0  0  0  0  0  0  0  0  0  0  0  0
   -2.8004    1.7217    0.5858 C   0  0  0  0  0  0  0  0  0  0  0  0
   -3.1956   -0.4392   -1.8455 H   0  0  0  0  0  0  0  0  0  0  0  0
   -0.7173   -0.6215   -1.6971 H   0  0  0  0  0  0  0  0  0  0  0  0
    5.2482    0.5968    0.4850 N   0  0  0  0  0  0  0  0  0  0  0  0
    6.3479    0.5477    0.5865 N   0  0  0  0  0  0  0  0  0  0  0  0
   -3.3755    2.3837    1.2327 H   0  0  0  0  0  0  0  0  0  0  0  0
   -0.9075    2.3641    1.5585 H   0  0  0  0  0  0  0  0  0  0  0  0
   -3.3845    0.9763   -0.3159 N   0  0  0  0  0  0  0  0  0  0  0  0
  1  2  2  0  0  0  0
  1 12  1  0  0  0  0
  2  3  1  0  0  0  0
  3  4  2  0  0  0  0
  4 11  1  0  0  0  0
  5  4  1  0  0  0  0
  5 10  1  0  0  0  0
  6  1  1  0  0  0  0
  7  2  1  0  0  0  0
  8  9  3  0  0  0  0
 12  5  2  0  0  0  0
M  RAD  1   3   2
M  END
