Coordinates from ORCA-job Pyridine-4-N2+-scan-d09-160-n800
 OpenBabel09191813533D

 12 11  0  0  0  0  0  0  0  0999 V2000
   -4.0987    0.2370   -1.2298 C   0  0  0  0  0  0  0  0  0  0  0  0
   -2.6411    0.1357   -1.1361 C   0  0  0  0  0  0  0  0  0  0  0  0
   -2.2760    0.9662   -0.1717 C   0  0  0  0  0  0  0  0  0  0  0  0
   -2.8143    1.8172    0.6881 C   0  0  0  0  0  0  0  0  0  0  0  0
   -4.2578    1.7815    0.4458 C   0  0  0  0  0  0  0  0  0  0  0  0
   -4.5660   -0.3920   -1.9871 H   0  0  0  0  0  0  0  0  0  0  0  0
   -2.0887   -0.5294   -1.7895 H   0  0  0  0  0  0  0  0  0  0  0  0
   12.3882    0.2396    1.1006 N   0  0  0  0  0  0  0  0  0  0  0  0
   13.4880    0.1895    1.2009 N   0  0  0  0  0  0  0  0  0  0  0  0
   -4.8572    2.4346    1.0794 H   0  0  0  0  0  0  0  0  0  0  0  0
   -2.3968    2.4602    1.4539 H   0  0  0  0  0  0  0  0  0  0  0  0
   -4.8103    1.0236   -0.4653 N   0  0  0  0  0  0  0  0  0  0  0  0
  1  2  2  0  0  0  0
  1 12  1  0  0  0  0
  2  3  1  0  0  0  0
  3  4  2  0  0  0  0
  4 11  1  0  0  0  0
  5  4  1  0  0  0  0
  5 10  1  0  0  0  0
  6  1  1  0  0  0  0
  7  2  1  0  0  0  0
  8  9  3  0  0  0  0
 12  5  2  0  0  0  0
M  RAD  1   3   2
M  END
