Coordinates from ORCA-job Pyridine-4-N2+-scan-d09-160-n800
 OpenBabel09191813523D

 12 11  0  0  0  0  0  0  0  0999 V2000
   -2.1085    0.1537   -1.0406 C   0  0  0  0  0  0  0  0  0  0  0  0
   -0.6620    0.0224   -0.9809 C   0  0  0  0  0  0  0  0  0  0  0  0
   -0.2449    0.8420   -0.0209 C   0  0  0  0  0  0  0  0  0  0  0  0
   -0.7604    1.7021    0.8519 C   0  0  0  0  0  0  0  0  0  0  0  0
   -2.1988    1.6959    0.6421 C   0  0  0  0  0  0  0  0  0  0  0  0
   -2.6140   -0.4592   -1.7858 H   0  0  0  0  0  0  0  0  0  0  0  0
   -0.1285   -0.6479   -1.6425 H   0  0  0  0  0  0  0  0  0  0  0  0
    2.2838    0.7322    0.2153 N   0  0  0  0  0  0  0  0  0  0  0  0
    3.3827    0.6845    0.3179 N   0  0  0  0  0  0  0  0  0  0  0  0
   -2.7788    2.3559    1.2859 H   0  0  0  0  0  0  0  0  0  0  0  0
   -0.3029    2.3294    1.6061 H   0  0  0  0  0  0  0  0  0  0  0  0
   -2.7983    0.9528   -0.2594 N   0  0  0  0  0  0  0  0  0  0  0  0
  1  2  2  0  0  0  0
  1 12  1  0  0  0  0
  2  3  1  0  0  0  0
  3  4  2  0  0  0  0
  4 11  1  0  0  0  0
  5  4  1  0  0  0  0
  5 10  1  0  0  0  0
  6  1  1  0  0  0  0
  7  2  1  0  0  0  0
  8  9  3  0  0  0  0
 12  5  2  0  0  0  0
M  RAD  1   3   2
M  END
