Coordinates from ORCA-job Pyridine-4-N2+-scan-d09-160-n800
 OpenBabel09191813533D

 12 11  0  0  0  0  0  0  0  0999 V2000
   -4.2958    0.2450   -1.2489 C   0  0  0  0  0  0  0  0  0  0  0  0
   -2.8382    0.1482   -1.1501 C   0  0  0  0  0  0  0  0  0  0  0  0
   -2.4790    0.9802   -0.1848 C   0  0  0  0  0  0  0  0  0  0  0  0
   -3.0228    1.8299    0.6727 C   0  0  0  0  0  0  0  0  0  0  0  0
   -4.4653    1.7898    0.4255 C   0  0  0  0  0  0  0  0  0  0  0  0
   -4.7586   -0.3857   -2.0075 H   0  0  0  0  0  0  0  0  0  0  0  0
   -2.2816   -0.5155   -1.8013 H   0  0  0  0  0  0  0  0  0  0  0  0
   13.4010    0.1876    1.1864 N   0  0  0  0  0  0  0  0  0  0  0  0
   14.5007    0.1386    1.2880 N   0  0  0  0  0  0  0  0  0  0  0  0
   -5.0689    2.4413    1.0568 H   0  0  0  0  0  0  0  0  0  0  0  0
   -2.6099    2.4746    1.4397 H   0  0  0  0  0  0  0  0  0  0  0  0
   -5.0124    1.0297   -0.4871 N   0  0  0  0  0  0  0  0  0  0  0  0
  1  2  2  0  0  0  0
  1 12  1  0  0  0  0
  2  3  1  0  0  0  0
  3  4  2  0  0  0  0
  4 11  1  0  0  0  0
  5  4  1  0  0  0  0
  5 10  1  0  0  0  0
  6  1  1  0  0  0  0
  7  2  1  0  0  0  0
  8  9  3  0  0  0  0
 12  5  2  0  0  0  0
M  RAD  1   3   2
M  END
