Coordinates from ORCA-job Pyridine-4-N2+-scan-d09-160-n800
 OpenBabel09191813523D

 12 11  0  0  0  0  0  0  0  0999 V2000
   -2.3169    0.1628   -1.0600 C   0  0  0  0  0  0  0  0  0  0  0  0
   -0.8610    0.0314   -0.9991 C   0  0  0  0  0  0  0  0  0  0  0  0
   -0.4587    0.8516   -0.0406 C   0  0  0  0  0  0  0  0  0  0  0  0
   -0.9599    1.7109    0.8334 C   0  0  0  0  0  0  0  0  0  0  0  0
   -2.4077    1.7049    0.6226 C   0  0  0  0  0  0  0  0  0  0  0  0
   -2.8144   -0.4538   -1.8081 H   0  0  0  0  0  0  0  0  0  0  0  0
   -0.3341   -0.6417   -1.6649 H   0  0  0  0  0  0  0  0  0  0  0  0
    3.3050    0.6874    0.3102 N   0  0  0  0  0  0  0  0  0  0  0  0
    4.4044    0.6394    0.4127 N   0  0  0  0  0  0  0  0  0  0  0  0
   -2.9805    2.3677    1.2706 H   0  0  0  0  0  0  0  0  0  0  0  0
   -0.5098    2.3418    1.5905 H   0  0  0  0  0  0  0  0  0  0  0  0
   -2.9970    0.9613   -0.2781 N   0  0  0  0  0  0  0  0  0  0  0  0
  1  2  2  0  0  0  0
  1 12  1  0  0  0  0
  2  3  1  0  0  0  0
  3  4  2  0  0  0  0
  4 11  1  0  0  0  0
  5  4  1  0  0  0  0
  5 10  1  0  0  0  0
  6  1  1  0  0  0  0
  7  2  1  0  0  0  0
  8  9  3  0  0  0  0
 12  5  2  0  0  0  0
M  RAD  1   3   2
M  END
