Coordinates from ORCA-job Pyridine-4-N2+-scan-d09-160-n800
 OpenBabel09191813533D

 12 11  0  0  0  0  0  0  0  0999 V2000
   -4.3764    0.2482   -1.2567 C   0  0  0  0  0  0  0  0  0  0  0  0
   -2.9188    0.1534   -1.1557 C   0  0  0  0  0  0  0  0  0  0  0  0
   -2.5622    0.9861   -0.1900 C   0  0  0  0  0  0  0  0  0  0  0  0
   -3.1084    1.8352    0.6665 C   0  0  0  0  0  0  0  0  0  0  0  0
   -4.5505    1.7931    0.4171 C   0  0  0  0  0  0  0  0  0  0  0  0
   -4.8372   -0.3832   -2.0159 H   0  0  0  0  0  0  0  0  0  0  0  0
   -2.3603   -0.5096   -1.8060 H   0  0  0  0  0  0  0  0  0  0  0  0
   13.8161    0.1663    1.2216 N   0  0  0  0  0  0  0  0  0  0  0  0
   14.9158    0.1176    1.3234 N   0  0  0  0  0  0  0  0  0  0  0  0
   -5.1560    2.4439    1.0473 H   0  0  0  0  0  0  0  0  0  0  0  0
   -2.6975    2.4806    1.4339 H   0  0  0  0  0  0  0  0  0  0  0  0
   -5.0952    1.0321   -0.4962 N   0  0  0  0  0  0  0  0  0  0  0  0
  1  2  2  0  0  0  0
  1 12  1  0  0  0  0
  2  3  1  0  0  0  0
  3  4  2  0  0  0  0
  4 11  1  0  0  0  0
  5  4  1  0  0  0  0
  5 10  1  0  0  0  0
  6  1  1  0  0  0  0
  7  2  1  0  0  0  0
  8  9  3  0  0  0  0
 12  5  2  0  0  0  0
M  RAD  1   3   2
M  END
