Coordinates from ORCA-job Pyridine-4-N2+-scan-d09-160-n800
 OpenBabel09191813523D

 12 11  0  0  0  0  0  0  0  0999 V2000
   -3.0668    0.1943   -1.1310 C   0  0  0  0  0  0  0  0  0  0  0  0
   -1.6095    0.0729   -1.0596 C   0  0  0  0  0  0  0  0  0  0  0  0
   -1.2187    0.8964   -0.0993 C   0  0  0  0  0  0  0  0  0  0  0  0
   -1.7320    1.7529    0.7702 C   0  0  0  0  0  0  0  0  0  0  0  0
   -3.1793    1.7375    0.5497 C   0  0  0  0  0  0  0  0  0  0  0  0
   -3.5542   -0.4266   -1.8822 H   0  0  0  0  0  0  0  0  0  0  0  0
   -1.0761   -0.5983   -1.7224 H   0  0  0  0  0  0  0  0  0  0  0  0
    7.1081    0.5051    0.6469 N   0  0  0  0  0  0  0  0  0  0  0  0
    8.2079    0.4546    0.7469 N   0  0  0  0  0  0  0  0  0  0  0  0
   -3.7601    2.3974    1.1935 H   0  0  0  0  0  0  0  0  0  0  0  0
   -1.2940    2.3886    1.5306 H   0  0  0  0  0  0  0  0  0  0  0  0
   -3.7560    0.9890   -0.3542 N   0  0  0  0  0  0  0  0  0  0  0  0
  1  2  2  0  0  0  0
  1 12  1  0  0  0  0
  2  3  1  0  0  0  0
  3  4  2  0  0  0  0
  4 11  1  0  0  0  0
  5  4  1  0  0  0  0
  5 10  1  0  0  0  0
  6  1  1  0  0  0  0
  7  2  1  0  0  0  0
  8  9  3  0  0  0  0
 12  5  2  0  0  0  0
M  RAD  1   3   2
M  END
