Coordinates from ORCA-job Pyridine-4-N2+-scan-d09-160-n800
 OpenBabel09191813523D

 12 12  0  0  0  0  0  0  0  0999 V2000
   -1.9033    0.1344   -1.0329 C   0  0  0  0  0  0  0  0  0  0  0  0
   -0.5205    0.0234   -0.9597 C   0  0  0  0  0  0  0  0  0  0  0  0
    0.1536    0.8246    0.0164 C   0  0  0  0  0  0  0  0  0  0  0  0
   -0.6180    1.6887    0.8573 C   0  0  0  0  0  0  0  0  0  0  0  0
   -1.9948    1.6975    0.6727 C   0  0  0  0  0  0  0  0  0  0  0  0
   -2.4574   -0.4550   -1.7591 H   0  0  0  0  0  0  0  0  0  0  0  0
    0.0449   -0.6387   -1.6079 H   0  0  0  0  0  0  0  0  0  0  0  0
    1.3079    0.7746    0.1241 N   0  0  0  0  0  0  0  0  0  0  0  0
    2.4275    0.7260    0.2287 N   0  0  0  0  0  0  0  0  0  0  0  0
   -2.6209    2.3381    1.2886 H   0  0  0  0  0  0  0  0  0  0  0  0
   -0.1274    2.3050    1.6041 H   0  0  0  0  0  0  0  0  0  0  0  0
   -2.6221    0.9451   -0.2430 N   0  0  0  0  0  0  0  0  0  0  0  0
  1  2  2  0  0  0  0
  1 12  1  0  0  0  0
  2  3  1  0  0  0  0
  3  8  1  0  0  0  0
  3  4  2  0  0  0  0
  4 11  1  0  0  0  0
  5  4  1  0  0  0  0
  5 10  1  0  0  0  0
  6  1  1  0  0  0  0
  7  2  1  0  0  0  0
  8  9  1  0  0  0  0
 12  5  2  0  0  0  0
M  RAD  2   8   2   9   3
M  END
