Coordinates from ORCA-job Pyridine-4-N2+-scan-d09-160-n800
 OpenBabel09191813533D

 12 11  0  0  0  0  0  0  0  0999 V2000
   -4.4344    0.2505   -1.2624 C   0  0  0  0  0  0  0  0  0  0  0  0
   -2.9768    0.1572   -1.1597 C   0  0  0  0  0  0  0  0  0  0  0  0
   -2.6221    0.9904   -0.1938 C   0  0  0  0  0  0  0  0  0  0  0  0
   -3.1701    1.8391    0.6620 C   0  0  0  0  0  0  0  0  0  0  0  0
   -4.6119    1.7955    0.4110 C   0  0  0  0  0  0  0  0  0  0  0  0
   -4.8937   -0.3815   -2.0219 H   0  0  0  0  0  0  0  0  0  0  0  0
   -2.4169   -0.5054   -1.8093 H   0  0  0  0  0  0  0  0  0  0  0  0
   14.1149    0.1510    1.2470 N   0  0  0  0  0  0  0  0  0  0  0  0
   15.2146    0.1024    1.3489 N   0  0  0  0  0  0  0  0  0  0  0  0
   -5.2187    2.4458    1.0405 H   0  0  0  0  0  0  0  0  0  0  0  0
   -2.7607    2.4850    1.4298 H   0  0  0  0  0  0  0  0  0  0  0  0
   -5.1548    1.0338   -0.5027 N   0  0  0  0  0  0  0  0  0  0  0  0
  1  2  2  0  0  0  0
  1 12  1  0  0  0  0
  2  3  1  0  0  0  0
  3  4  2  0  0  0  0
  4 11  1  0  0  0  0
  5  4  1  0  0  0  0
  5 10  1  0  0  0  0
  6  1  1  0  0  0  0
  7  2  1  0  0  0  0
  8  9  3  0  0  0  0
 12  5  2  0  0  0  0
M  RAD  1   3   2
M  END
