Coordinates from ORCA-job Pyridine-4-N2+-scan-d09-160-n800
 OpenBabel09191813523D

 12 11  0  0  0  0  0  0  0  0999 V2000
   -2.9107    0.1879   -1.1161 C   0  0  0  0  0  0  0  0  0  0  0  0
   -1.4535    0.0636   -1.0477 C   0  0  0  0  0  0  0  0  0  0  0  0
   -1.0592    0.8861   -0.0880 C   0  0  0  0  0  0  0  0  0  0  0  0
   -1.5690    1.7433    0.7827 C   0  0  0  0  0  0  0  0  0  0  0  0
   -3.0168    1.7308    0.5652 C   0  0  0  0  0  0  0  0  0  0  0  0
   -3.4009   -0.4319   -1.8664 H   0  0  0  0  0  0  0  0  0  0  0  0
   -0.9227   -0.6084   -1.7118 H   0  0  0  0  0  0  0  0  0  0  0  0
    6.3111    0.5446    0.5778 N   0  0  0  0  0  0  0  0  0  0  0  0
    7.4108    0.4947    0.6784 N   0  0  0  0  0  0  0  0  0  0  0  0
   -3.5949    2.3916    1.2105 H   0  0  0  0  0  0  0  0  0  0  0  0
   -1.1280    2.3779    1.5424 H   0  0  0  0  0  0  0  0  0  0  0  0
   -3.5968    0.9837   -0.3377 N   0  0  0  0  0  0  0  0  0  0  0  0
  1  2  2  0  0  0  0
  1 12  1  0  0  0  0
  2  3  1  0  0  0  0
  3  4  2  0  0  0  0
  4 11  1  0  0  0  0
  5  4  1  0  0  0  0
  5 10  1  0  0  0  0
  6  1  1  0  0  0  0
  7  2  1  0  0  0  0
  8  9  3  0  0  0  0
 12  5  2  0  0  0  0
M  RAD  1   3   2
M  END
