Coordinates from ORCA-job Pyridine-4-N2+-scan-d09-160-n800
 OpenBabel09191813523D

 12 11  0  0  0  0  0  0  0  0999 V2000
   -2.9497    0.1895   -1.1198 C   0  0  0  0  0  0  0  0  0  0  0  0
   -1.4925    0.0659   -1.0507 C   0  0  0  0  0  0  0  0  0  0  0  0
   -1.0990    0.8886   -0.0909 C   0  0  0  0  0  0  0  0  0  0  0  0
   -1.6097    1.7457    0.7796 C   0  0  0  0  0  0  0  0  0  0  0  0
   -3.0574    1.7324    0.5614 C   0  0  0  0  0  0  0  0  0  0  0  0
   -3.4392   -0.4306   -1.8703 H   0  0  0  0  0  0  0  0  0  0  0  0
   -0.9611   -0.6059   -1.7145 H   0  0  0  0  0  0  0  0  0  0  0  0
    6.5103    0.5347    0.5951 N   0  0  0  0  0  0  0  0  0  0  0  0
    7.6101    0.4847    0.6955 N   0  0  0  0  0  0  0  0  0  0  0  0
   -3.6362    2.3931    1.2063 H   0  0  0  0  0  0  0  0  0  0  0  0
   -1.1695    2.3806    1.5395 H   0  0  0  0  0  0  0  0  0  0  0  0
   -3.6366    0.9850   -0.3418 N   0  0  0  0  0  0  0  0  0  0  0  0
  1  2  2  0  0  0  0
  1 12  1  0  0  0  0
  2  3  1  0  0  0  0
  3  4  2  0  0  0  0
  4 11  1  0  0  0  0
  5  4  1  0  0  0  0
  5 10  1  0  0  0  0
  6  1  1  0  0  0  0
  7  2  1  0  0  0  0
  8  9  3  0  0  0  0
 12  5  2  0  0  0  0
M  RAD  1   3   2
M  END
