Coordinates from ORCA-job Pyridine-4-N2+-scan-d09-160-n800
 OpenBabel09191813533D

 12 11  0  0  0  0  0  0  0  0999 V2000
   -3.9010    0.2288   -1.2109 C   0  0  0  0  0  0  0  0  0  0  0  0
   -2.4434    0.1235   -1.1216 C   0  0  0  0  0  0  0  0  0  0  0  0
   -2.0732    0.9526   -0.1580 C   0  0  0  0  0  0  0  0  0  0  0  0
   -2.6064    1.8047    0.7037 C   0  0  0  0  0  0  0  0  0  0  0  0
   -4.0507    1.7731    0.4658 C   0  0  0  0  0  0  0  0  0  0  0  0
   -4.3724   -0.3985   -1.9669 H   0  0  0  0  0  0  0  0  0  0  0  0
   -1.8949   -0.5428   -1.7770 H   0  0  0  0  0  0  0  0  0  0  0  0
   11.3754    0.2920    1.0152 N   0  0  0  0  0  0  0  0  0  0  0  0
   12.4753    0.2393    1.1127 N   0  0  0  0  0  0  0  0  0  0  0  0
   -4.6464    2.4277    1.1016 H   0  0  0  0  0  0  0  0  0  0  0  0
   -2.1847    2.4463    1.4685 H   0  0  0  0  0  0  0  0  0  0  0  0
   -4.6081    1.0171   -0.4438 N   0  0  0  0  0  0  0  0  0  0  0  0
  1  2  2  0  0  0  0
  1 12  1  0  0  0  0
  2  3  1  0  0  0  0
  3  4  2  0  0  0  0
  4 11  1  0  0  0  0
  5  4  1  0  0  0  0
  5 10  1  0  0  0  0
  6  1  1  0  0  0  0
  7  2  1  0  0  0  0
  8  9  3  0  0  0  0
 12  5  2  0  0  0  0
M  RAD  1   3   2
M  END
