Coordinates from ORCA-job Pyridine-4-N2+-scan-d09-160-n800
 OpenBabel09191813533D

 12 11  0  0  0  0  0  0  0  0999 V2000
   -3.7292    0.2217   -1.1944 C   0  0  0  0  0  0  0  0  0  0  0  0
   -2.2716    0.1129   -1.1090 C   0  0  0  0  0  0  0  0  0  0  0  0
   -1.8969    0.9409   -0.1461 C   0  0  0  0  0  0  0  0  0  0  0  0
   -2.4259    1.7939    0.7174 C   0  0  0  0  0  0  0  0  0  0  0  0
   -3.8709    1.7658    0.4832 C   0  0  0  0  0  0  0  0  0  0  0  0
   -4.2040   -0.4043   -1.9494 H   0  0  0  0  0  0  0  0  0  0  0  0
   -1.7263   -0.5544   -1.7660 H   0  0  0  0  0  0  0  0  0  0  0  0
   10.4954    0.3361    0.9395 N   0  0  0  0  0  0  0  0  0  0  0  0
   11.5953    0.2838    1.0374 N   0  0  0  0  0  0  0  0  0  0  0  0
   -4.4634    2.4215    1.1207 H   0  0  0  0  0  0  0  0  0  0  0  0
   -2.0007    2.4343    1.4812 H   0  0  0  0  0  0  0  0  0  0  0  0
   -4.4324    1.0114   -0.4252 N   0  0  0  0  0  0  0  0  0  0  0  0
  1  2  2  0  0  0  0
  1 12  1  0  0  0  0
  2  3  1  0  0  0  0
  3  4  2  0  0  0  0
  4 11  1  0  0  0  0
  5  4  1  0  0  0  0
  5 10  1  0  0  0  0
  6  1  1  0  0  0  0
  7  2  1  0  0  0  0
  8  9  3  0  0  0  0
 12  5  2  0  0  0  0
M  RAD  1   3   2
M  END
