Coordinates from ORCA-job Pyridine-4-N2+-scan-d09-160-n800
 OpenBabel09191813523D

 12 11  0  0  0  0  0  0  0  0999 V2000
   -3.2682    0.2027   -1.1502 C   0  0  0  0  0  0  0  0  0  0  0  0
   -1.8108    0.0850   -1.0747 C   0  0  0  0  0  0  0  0  0  0  0  0
   -1.4248    0.9098   -0.1136 C   0  0  0  0  0  0  0  0  0  0  0  0
   -1.9428    1.7653    0.7541 C   0  0  0  0  0  0  0  0  0  0  0  0
   -3.3894    1.7461    0.5295 C   0  0  0  0  0  0  0  0  0  0  0  0
   -3.7519   -0.4198   -1.9026 H   0  0  0  0  0  0  0  0  0  0  0  0
   -1.2739   -0.5851   -1.7358 H   0  0  0  0  0  0  0  0  0  0  0  0
    8.1376    0.4539    0.7360 N   0  0  0  0  0  0  0  0  0  0  0  0
    9.2374    0.4027    0.8353 N   0  0  0  0  0  0  0  0  0  0  0  0
   -3.9737    2.4048    1.1715 H   0  0  0  0  0  0  0  0  0  0  0  0
   -1.5086    2.4024    1.5155 H   0  0  0  0  0  0  0  0  0  0  0  0
   -3.9616    0.9958   -0.3757 N   0  0  0  0  0  0  0  0  0  0  0  0
  1  2  2  0  0  0  0
  1 12  1  0  0  0  0
  2  3  1  0  0  0  0
  3  4  2  0  0  0  0
  4 11  1  0  0  0  0
  5  4  1  0  0  0  0
  5 10  1  0  0  0  0
  6  1  1  0  0  0  0
  7  2  1  0  0  0  0
  8  9  3  0  0  0  0
 12  5  2  0  0  0  0
M  RAD  1   3   2
M  END
