Coordinates from ORCA-job Pyridine-4-N2+-scan-d09-160-n800
 OpenBabel09191813523D

 12 12  0  0  0  0  0  0  0  0999 V2000
   -1.8954    0.1342   -1.0319 C   0  0  0  0  0  0  0  0  0  0  0  0
   -0.5151    0.0229   -0.9595 C   0  0  0  0  0  0  0  0  0  0  0  0
    0.1821    0.8233    0.0192 C   0  0  0  0  0  0  0  0  0  0  0  0
   -0.6126    1.6886    0.8581 C   0  0  0  0  0  0  0  0  0  0  0  0
   -1.9869    1.6969    0.6732 C   0  0  0  0  0  0  0  0  0  0  0  0
   -2.4485   -0.4557   -1.7587 H   0  0  0  0  0  0  0  0  0  0  0  0
    0.0529   -0.6385   -1.6066 H   0  0  0  0  0  0  0  0  0  0  0  0
    1.2566    0.7768    0.1194 N   0  0  0  0  0  0  0  0  0  0  0  0
    2.3832    0.7281    0.2244 N   0  0  0  0  0  0  0  0  0  0  0  0
   -2.6121    2.3382    1.2898 H   0  0  0  0  0  0  0  0  0  0  0  0
   -0.1193    2.3041    1.6043 H   0  0  0  0  0  0  0  0  0  0  0  0
   -2.6156    0.9448   -0.2424 N   0  0  0  0  0  0  0  0  0  0  0  0
  1  2  2  0  0  0  0
  1 12  1  0  0  0  0
  2  3  1  0  0  0  0
  3  8  1  0  0  0  0
  3  4  2  0  0  0  0
  4 11  1  0  0  0  0
  5  4  1  0  0  0  0
  5 10  1  0  0  0  0
  6  1  1  0  0  0  0
  7  2  1  0  0  0  0
  8  9  1  0  0  0  0
 12  5  2  0  0  0  0
M  RAD  2   8   2   9   3
M  END
