Coordinates from ORCA-job Pyridine-4-N2+-scan-d09-160-n800
 OpenBabel09191813523D

 12 11  0  0  0  0  0  0  0  0999 V2000
   -2.7935    0.1830   -1.1049 C   0  0  0  0  0  0  0  0  0  0  0  0
   -1.3364    0.0567   -1.0387 C   0  0  0  0  0  0  0  0  0  0  0  0
   -0.9396    0.8784   -0.0794 C   0  0  0  0  0  0  0  0  0  0  0  0
   -1.4469    1.7363    0.7922 C   0  0  0  0  0  0  0  0  0  0  0  0
   -2.8950    1.7257    0.5769 C   0  0  0  0  0  0  0  0  0  0  0  0
   -3.2856   -0.4360   -1.8546 H   0  0  0  0  0  0  0  0  0  0  0  0
   -0.8074   -0.6159   -1.7037 H   0  0  0  0  0  0  0  0  0  0  0  0
    5.7132    0.5741    0.5257 N   0  0  0  0  0  0  0  0  0  0  0  0
    6.8129    0.5246    0.6268 N   0  0  0  0  0  0  0  0  0  0  0  0
   -3.4713    2.3872    1.2230 H   0  0  0  0  0  0  0  0  0  0  0  0
   -1.0038    2.3701    1.5514 H   0  0  0  0  0  0  0  0  0  0  0  0
   -3.4774    0.9796   -0.3254 N   0  0  0  0  0  0  0  0  0  0  0  0
  1  2  2  0  0  0  0
  1 12  1  0  0  0  0
  2  3  1  0  0  0  0
  3  4  2  0  0  0  0
  4 11  1  0  0  0  0
  5  4  1  0  0  0  0
  5 10  1  0  0  0  0
  6  1  1  0  0  0  0
  7  2  1  0  0  0  0
  8  9  3  0  0  0  0
 12  5  2  0  0  0  0
M  RAD  1   3   2
M  END
