Coordinates from ORCA-job Pyridine-4-N2+-scan-d09-160-n800
 OpenBabel09191813533D

 12 11  0  0  0  0  0  0  0  0999 V2000
   -3.8427    0.2264   -1.2053 C   0  0  0  0  0  0  0  0  0  0  0  0
   -2.3851    0.1199   -1.1173 C   0  0  0  0  0  0  0  0  0  0  0  0
   -2.0133    0.9486   -0.1540 C   0  0  0  0  0  0  0  0  0  0  0  0
   -2.5451    1.8010    0.7083 C   0  0  0  0  0  0  0  0  0  0  0  0
   -3.9896    1.7707    0.4717 C   0  0  0  0  0  0  0  0  0  0  0  0
   -4.3153   -0.4005   -1.9609 H   0  0  0  0  0  0  0  0  0  0  0  0
   -1.8377   -0.5468   -1.7733 H   0  0  0  0  0  0  0  0  0  0  0  0
   11.0765    0.3070    0.9895 N   0  0  0  0  0  0  0  0  0  0  0  0
   12.1764    0.2544    1.0871 N   0  0  0  0  0  0  0  0  0  0  0  0
   -4.5842    2.4256    1.1081 H   0  0  0  0  0  0  0  0  0  0  0  0
   -2.1222    2.4422    1.4728 H   0  0  0  0  0  0  0  0  0  0  0  0
   -4.5484    1.0151   -0.4375 N   0  0  0  0  0  0  0  0  0  0  0  0
  1  2  2  0  0  0  0
  1 12  1  0  0  0  0
  2  3  1  0  0  0  0
  3  4  2  0  0  0  0
  4 11  1  0  0  0  0
  5  4  1  0  0  0  0
  5 10  1  0  0  0  0
  6  1  1  0  0  0  0
  7  2  1  0  0  0  0
  8  9  3  0  0  0  0
 12  5  2  0  0  0  0
M  RAD  1   3   2
M  END
