Coordinates from ORCA-job Pyridine-4-N2+-scan-d09-160-n800
 OpenBabel09191813533D

 12 11  0  0  0  0  0  0  0  0999 V2000
   -3.8362    0.2262   -1.2046 C   0  0  0  0  0  0  0  0  0  0  0  0
   -2.3786    0.1195   -1.1169 C   0  0  0  0  0  0  0  0  0  0  0  0
   -2.0066    0.9481   -0.1535 C   0  0  0  0  0  0  0  0  0  0  0  0
   -2.5382    1.8006    0.7089 C   0  0  0  0  0  0  0  0  0  0  0  0
   -3.9828    1.7704    0.4724 C   0  0  0  0  0  0  0  0  0  0  0  0
   -4.3089   -0.4007   -1.9603 H   0  0  0  0  0  0  0  0  0  0  0  0
   -1.8313   -0.5472   -1.7728 H   0  0  0  0  0  0  0  0  0  0  0  0
   11.0433    0.3087    0.9867 N   0  0  0  0  0  0  0  0  0  0  0  0
   12.1432    0.2561    1.0843 N   0  0  0  0  0  0  0  0  0  0  0  0
   -4.5773    2.4254    1.1088 H   0  0  0  0  0  0  0  0  0  0  0  0
   -2.1152    2.4418    1.4732 H   0  0  0  0  0  0  0  0  0  0  0  0
   -4.5418    1.0149   -0.4368 N   0  0  0  0  0  0  0  0  0  0  0  0
  1  2  2  0  0  0  0
  1 12  1  0  0  0  0
  2  3  1  0  0  0  0
  3  4  2  0  0  0  0
  4 11  1  0  0  0  0
  5  4  1  0  0  0  0
  5 10  1  0  0  0  0
  6  1  1  0  0  0  0
  7  2  1  0  0  0  0
  8  9  3  0  0  0  0
 12  5  2  0  0  0  0
M  RAD  1   3   2
M  END
