Coordinates from ORCA-job Pyridine-4-N2+-scan-d09-160-n800
 OpenBabel09191813523D

 12 11  0  0  0  0  0  0  0  0999 V2000
   -2.0815    0.1524   -1.0383 C   0  0  0  0  0  0  0  0  0  0  0  0
   -0.6403    0.0221   -0.9781 C   0  0  0  0  0  0  0  0  0  0  0  0
   -0.2116    0.8406   -0.0178 C   0  0  0  0  0  0  0  0  0  0  0  0
   -0.7386    1.7005    0.8533 C   0  0  0  0  0  0  0  0  0  0  0  0
   -2.1718    1.6949    0.6449 C   0  0  0  0  0  0  0  0  0  0  0  0
   -2.5909   -0.4588   -1.7821 H   0  0  0  0  0  0  0  0  0  0  0  0
   -0.1027   -0.6468   -1.6377 H   0  0  0  0  0  0  0  0  0  0  0  0
    2.1577    0.7377    0.2035 N   0  0  0  0  0  0  0  0  0  0  0  0
    3.2565    0.6900    0.3061 N   0  0  0  0  0  0  0  0  0  0  0  0
   -2.7555    2.3535    1.2866 H   0  0  0  0  0  0  0  0  0  0  0  0
   -0.2768    2.3260    1.6061 H   0  0  0  0  0  0  0  0  0  0  0  0
   -2.7752    0.9518   -0.2573 N   0  0  0  0  0  0  0  0  0  0  0  0
  1  2  2  0  0  0  0
  1 12  1  0  0  0  0
  2  3  1  0  0  0  0
  3  4  2  0  0  0  0
  4 11  1  0  0  0  0
  5  4  1  0  0  0  0
  5 10  1  0  0  0  0
  6  1  1  0  0  0  0
  7  2  1  0  0  0  0
  8  9  3  0  0  0  0
 12  5  2  0  0  0  0
M  RAD  1   3   2
M  END
