Coordinates from ORCA-job Pyridine-4-N2+-scan-d09-160-n800
 OpenBabel09191813533D

 12 11  0  0  0  0  0  0  0  0999 V2000
   -3.4955    0.2121   -1.1720 C   0  0  0  0  0  0  0  0  0  0  0  0
   -2.0380    0.0987   -1.0917 C   0  0  0  0  0  0  0  0  0  0  0  0
   -1.6575    0.9251   -0.1297 C   0  0  0  0  0  0  0  0  0  0  0  0
   -2.1808    1.7794    0.7359 C   0  0  0  0  0  0  0  0  0  0  0  0
   -3.6267    1.7558    0.5067 C   0  0  0  0  0  0  0  0  0  0  0  0
   -3.9749   -0.4121   -1.9256 H   0  0  0  0  0  0  0  0  0  0  0  0
   -1.4971   -0.5700   -1.7508 H   0  0  0  0  0  0  0  0  0  0  0  0
    9.2999    0.3959    0.8364 N   0  0  0  0  0  0  0  0  0  0  0  0
   10.3998    0.3441    0.9349 N   0  0  0  0  0  0  0  0  0  0  0  0
   -4.2150    2.4131    1.1466 H   0  0  0  0  0  0  0  0  0  0  0  0
   -1.7510    2.4181    1.4986 H   0  0  0  0  0  0  0  0  0  0  0  0
   -4.1937    1.0035   -0.4001 N   0  0  0  0  0  0  0  0  0  0  0  0
  1  2  2  0  0  0  0
  1 12  1  0  0  0  0
  2  3  1  0  0  0  0
  3  4  2  0  0  0  0
  4 11  1  0  0  0  0
  5  4  1  0  0  0  0
  5 10  1  0  0  0  0
  6  1  1  0  0  0  0
  7  2  1  0  0  0  0
  8  9  3  0  0  0  0
 12  5  2  0  0  0  0
M  RAD  1   3   2
M  END
