Coordinates from ORCA-job Pyridine-4-N2+-scan-d09-160-n800
 OpenBabel09191813523D

 12 11  0  0  0  0  0  0  0  0999 V2000
   -3.2845    0.2033   -1.1518 C   0  0  0  0  0  0  0  0  0  0  0  0
   -1.8270    0.0860   -1.0759 C   0  0  0  0  0  0  0  0  0  0  0  0
   -1.4414    0.9109   -0.1148 C   0  0  0  0  0  0  0  0  0  0  0  0
   -1.9598    1.7663    0.7528 C   0  0  0  0  0  0  0  0  0  0  0  0
   -3.4064    1.7468    0.5279 C   0  0  0  0  0  0  0  0  0  0  0  0
   -3.7678   -0.4193   -1.9042 H   0  0  0  0  0  0  0  0  0  0  0  0
   -1.2899   -0.5840   -1.7369 H   0  0  0  0  0  0  0  0  0  0  0  0
    8.2207    0.4497    0.7431 N   0  0  0  0  0  0  0  0  0  0  0  0
    9.3205    0.3986    0.8424 N   0  0  0  0  0  0  0  0  0  0  0  0
   -3.9909    2.4054    1.1698 H   0  0  0  0  0  0  0  0  0  0  0  0
   -1.5259    2.4036    1.5143 H   0  0  0  0  0  0  0  0  0  0  0  0
   -3.9782    0.9964   -0.3775 N   0  0  0  0  0  0  0  0  0  0  0  0
  1  2  2  0  0  0  0
  1 12  1  0  0  0  0
  2  3  1  0  0  0  0
  3  4  2  0  0  0  0
  4 11  1  0  0  0  0
  5  4  1  0  0  0  0
  5 10  1  0  0  0  0
  6  1  1  0  0  0  0
  7  2  1  0  0  0  0
  8  9  3  0  0  0  0
 12  5  2  0  0  0  0
M  RAD  1   3   2
M  END
