Coordinates from ORCA-job Pyridine-4-N2+-scan-d09-160-n800
 OpenBabel09191813533D

 12 11  0  0  0  0  0  0  0  0999 V2000
   -3.5962    0.2162   -1.1816 C   0  0  0  0  0  0  0  0  0  0  0  0
   -2.1386    0.1048   -1.0991 C   0  0  0  0  0  0  0  0  0  0  0  0
   -1.7606    0.9319   -0.1368 C   0  0  0  0  0  0  0  0  0  0  0  0
   -2.2863    1.7856    0.7279 C   0  0  0  0  0  0  0  0  0  0  0  0
   -3.7318    1.7602    0.4966 C   0  0  0  0  0  0  0  0  0  0  0  0
   -4.0736   -0.4087   -1.9358 H   0  0  0  0  0  0  0  0  0  0  0  0
   -1.5958   -0.5633   -1.7574 H   0  0  0  0  0  0  0  0  0  0  0  0
    9.8147    0.3702    0.8808 N   0  0  0  0  0  0  0  0  0  0  0  0
   10.9145    0.3182    0.9791 N   0  0  0  0  0  0  0  0  0  0  0  0
   -4.3219    2.4167    1.1355 H   0  0  0  0  0  0  0  0  0  0  0  0
   -1.8585    2.4251    1.4911 H   0  0  0  0  0  0  0  0  0  0  0  0
   -4.2965    1.0069   -0.4109 N   0  0  0  0  0  0  0  0  0  0  0  0
  1  2  2  0  0  0  0
  1 12  1  0  0  0  0
  2  3  1  0  0  0  0
  3  4  2  0  0  0  0
  4 11  1  0  0  0  0
  5  4  1  0  0  0  0
  5 10  1  0  0  0  0
  6  1  1  0  0  0  0
  7  2  1  0  0  0  0
  8  9  3  0  0  0  0
 12  5  2  0  0  0  0
M  RAD  1   3   2
M  END
