Coordinates from ORCA-job Pyridine-4-N2+-scan-d09-160-n800
 OpenBabel09191813533D

 12 11  0  0  0  0  0  0  0  0999 V2000
   -3.9594    0.2312   -1.2165 C   0  0  0  0  0  0  0  0  0  0  0  0
   -2.5018    0.1270   -1.1259 C   0  0  0  0  0  0  0  0  0  0  0  0
   -2.1330    0.9566   -0.1621 C   0  0  0  0  0  0  0  0  0  0  0  0
   -2.6677    1.8084    0.6991 C   0  0  0  0  0  0  0  0  0  0  0  0
   -4.1118    1.7756    0.4599 C   0  0  0  0  0  0  0  0  0  0  0  0
   -4.4296   -0.3966   -1.9728 H   0  0  0  0  0  0  0  0  0  0  0  0
   -1.9521   -0.5389   -1.7807 H   0  0  0  0  0  0  0  0  0  0  0  0
   11.6743    0.2767    1.0405 N   0  0  0  0  0  0  0  0  0  0  0  0
   12.7741    0.2245    1.1386 N   0  0  0  0  0  0  0  0  0  0  0  0
   -4.7086    2.4297    1.0951 H   0  0  0  0  0  0  0  0  0  0  0  0
   -2.2472    2.4504    1.4641 H   0  0  0  0  0  0  0  0  0  0  0  0
   -4.6678    1.0190   -0.4501 N   0  0  0  0  0  0  0  0  0  0  0  0
  1  2  2  0  0  0  0
  1 12  1  0  0  0  0
  2  3  1  0  0  0  0
  3  4  2  0  0  0  0
  4 11  1  0  0  0  0
  5  4  1  0  0  0  0
  5 10  1  0  0  0  0
  6  1  1  0  0  0  0
  7  2  1  0  0  0  0
  8  9  3  0  0  0  0
 12  5  2  0  0  0  0
M  RAD  1   3   2
M  END
