Coordinates from ORCA-job Pyridine-4-N2+-scan-d09-160-n800
 OpenBabel09191813523D

 12 11  0  0  0  0  0  0  0  0999 V2000
   -3.2780    0.2031   -1.1512 C   0  0  0  0  0  0  0  0  0  0  0  0
   -1.8205    0.0856   -1.0754 C   0  0  0  0  0  0  0  0  0  0  0  0
   -1.4347    0.9105   -0.1143 C   0  0  0  0  0  0  0  0  0  0  0  0
   -1.9530    1.7659    0.7533 C   0  0  0  0  0  0  0  0  0  0  0  0
   -3.3996    1.7465    0.5286 C   0  0  0  0  0  0  0  0  0  0  0  0
   -3.7615   -0.4195   -1.9035 H   0  0  0  0  0  0  0  0  0  0  0  0
   -1.2835   -0.5844   -1.7365 H   0  0  0  0  0  0  0  0  0  0  0  0
    8.1875    0.4514    0.7403 N   0  0  0  0  0  0  0  0  0  0  0  0
    9.2873    0.4002    0.8395 N   0  0  0  0  0  0  0  0  0  0  0  0
   -3.9840    2.4051    1.1705 H   0  0  0  0  0  0  0  0  0  0  0  0
   -1.5190    2.4031    1.5148 H   0  0  0  0  0  0  0  0  0  0  0  0
   -3.9715    0.9962   -0.3768 N   0  0  0  0  0  0  0  0  0  0  0  0
  1  2  2  0  0  0  0
  1 12  1  0  0  0  0
  2  3  1  0  0  0  0
  3  4  2  0  0  0  0
  4 11  1  0  0  0  0
  5  4  1  0  0  0  0
  5 10  1  0  0  0  0
  6  1  1  0  0  0  0
  7  2  1  0  0  0  0
  8  9  3  0  0  0  0
 12  5  2  0  0  0  0
M  RAD  1   3   2
M  END
