Coordinates from ORCA-job Pyridine-4-N2+-scan-d09-160-n800
 OpenBabel09191813533D

 12 11  0  0  0  0  0  0  0  0999 V2000
   -4.0177    0.2337   -1.2221 C   0  0  0  0  0  0  0  0  0  0  0  0
   -2.5601    0.1306   -1.1302 C   0  0  0  0  0  0  0  0  0  0  0  0
   -2.1929    0.9606   -0.1661 C   0  0  0  0  0  0  0  0  0  0  0  0
   -2.7290    1.8120    0.6945 C   0  0  0  0  0  0  0  0  0  0  0  0
   -4.1729    1.7781    0.4540 C   0  0  0  0  0  0  0  0  0  0  0  0
   -4.4868   -0.3946   -1.9788 H   0  0  0  0  0  0  0  0  0  0  0  0
   -2.0094   -0.5350   -1.7844 H   0  0  0  0  0  0  0  0  0  0  0  0
   11.9731    0.2611    1.0656 N   0  0  0  0  0  0  0  0  0  0  0  0
   13.0730    0.2100    1.1648 N   0  0  0  0  0  0  0  0  0  0  0  0
   -4.7707    2.4318    1.0885 H   0  0  0  0  0  0  0  0  0  0  0  0
   -2.3098    2.4545    1.4598 H   0  0  0  0  0  0  0  0  0  0  0  0
   -4.7274    1.0209   -0.4564 N   0  0  0  0  0  0  0  0  0  0  0  0
  1  2  2  0  0  0  0
  1 12  1  0  0  0  0
  2  3  1  0  0  0  0
  3  4  2  0  0  0  0
  4 11  1  0  0  0  0
  5  4  1  0  0  0  0
  5 10  1  0  0  0  0
  6  1  1  0  0  0  0
  7  2  1  0  0  0  0
  8  9  3  0  0  0  0
 12  5  2  0  0  0  0
M  RAD  1   3   2
M  END
