Coordinates from ORCA-job Pyridine-4-N2+-scan-d09-160-n800
 OpenBabel09191813533D

 12 11  0  0  0  0  0  0  0  0999 V2000
   -3.5118    0.2127   -1.1735 C   0  0  0  0  0  0  0  0  0  0  0  0
   -2.0542    0.0997   -1.0929 C   0  0  0  0  0  0  0  0  0  0  0  0
   -1.6741    0.9262   -0.1308 C   0  0  0  0  0  0  0  0  0  0  0  0
   -2.1978    1.7804    0.7346 C   0  0  0  0  0  0  0  0  0  0  0  0
   -3.6437    1.7565    0.5051 C   0  0  0  0  0  0  0  0  0  0  0  0
   -3.9908   -0.4116   -1.9273 H   0  0  0  0  0  0  0  0  0  0  0  0
   -1.5130   -0.5690   -1.7519 H   0  0  0  0  0  0  0  0  0  0  0  0
    9.3830    0.3917    0.8435 N   0  0  0  0  0  0  0  0  0  0  0  0
   10.4828    0.3399    0.9421 N   0  0  0  0  0  0  0  0  0  0  0  0
   -4.2322    2.4137    1.1448 H   0  0  0  0  0  0  0  0  0  0  0  0
   -1.7684    2.4192    1.4974 H   0  0  0  0  0  0  0  0  0  0  0  0
   -4.2103    1.0041   -0.4018 N   0  0  0  0  0  0  0  0  0  0  0  0
  1  2  2  0  0  0  0
  1 12  1  0  0  0  0
  2  3  1  0  0  0  0
  3  4  2  0  0  0  0
  4 11  1  0  0  0  0
  5  4  1  0  0  0  0
  5 10  1  0  0  0  0
  6  1  1  0  0  0  0
  7  2  1  0  0  0  0
  8  9  3  0  0  0  0
 12  5  2  0  0  0  0
M  RAD  1   3   2
M  END
