Coordinates from ORCA-job Pyridine-4-N2+-scan-d09-160-n800
 OpenBabel09191813523D

 12 11  0  0  0  0  0  0  0  0999 V2000
   -3.2390    0.2014   -1.1474 C   0  0  0  0  0  0  0  0  0  0  0  0
   -1.7816    0.0832   -1.0725 C   0  0  0  0  0  0  0  0  0  0  0  0
   -1.3948    0.9079   -0.1115 C   0  0  0  0  0  0  0  0  0  0  0  0
   -1.9122    1.7635    0.7564 C   0  0  0  0  0  0  0  0  0  0  0  0
   -3.3589    1.7449    0.5325 C   0  0  0  0  0  0  0  0  0  0  0  0
   -3.7232   -0.4208   -1.8996 H   0  0  0  0  0  0  0  0  0  0  0  0
   -1.2452   -0.5870   -1.7339 H   0  0  0  0  0  0  0  0  0  0  0  0
    7.9882    0.4613    0.7231 N   0  0  0  0  0  0  0  0  0  0  0  0
    9.0880    0.4103    0.8224 N   0  0  0  0  0  0  0  0  0  0  0  0
   -3.9427    2.4037    1.1747 H   0  0  0  0  0  0  0  0  0  0  0  0
   -1.4774    2.4004    1.5177 H   0  0  0  0  0  0  0  0  0  0  0  0
   -3.9317    0.9949   -0.3726 N   0  0  0  0  0  0  0  0  0  0  0  0
  1  2  2  0  0  0  0
  1 12  1  0  0  0  0
  2  3  1  0  0  0  0
  3  4  2  0  0  0  0
  4 11  1  0  0  0  0
  5  4  1  0  0  0  0
  5 10  1  0  0  0  0
  6  1  1  0  0  0  0
  7  2  1  0  0  0  0
  8  9  3  0  0  0  0
 12  5  2  0  0  0  0
M  RAD  1   3   2
M  END
