Coordinates from ORCA-job Pyridine-4-N2+-scan-d09-160-n800
 OpenBabel09191813533D

 12 11  0  0  0  0  0  0  0  0999 V2000
   -3.4501    0.2102   -1.1676 C   0  0  0  0  0  0  0  0  0  0  0  0
   -1.9926    0.0960   -1.0883 C   0  0  0  0  0  0  0  0  0  0  0  0
   -1.6109    0.9220   -0.1265 C   0  0  0  0  0  0  0  0  0  0  0  0
   -2.1332    1.7766    0.7396 C   0  0  0  0  0  0  0  0  0  0  0  0
   -3.5793    1.7539    0.5113 C   0  0  0  0  0  0  0  0  0  0  0  0
   -3.9303   -0.4137   -1.9210 H   0  0  0  0  0  0  0  0  0  0  0  0
   -1.4525   -0.5730   -1.7478 H   0  0  0  0  0  0  0  0  0  0  0  0
    9.0675    0.4075    0.8163 N   0  0  0  0  0  0  0  0  0  0  0  0
   10.1673    0.3559    0.9150 N   0  0  0  0  0  0  0  0  0  0  0  0
   -4.1667    2.4114    1.1516 H   0  0  0  0  0  0  0  0  0  0  0  0
   -1.7025    2.4150    1.5020 H   0  0  0  0  0  0  0  0  0  0  0  0
   -4.1473    1.0020   -0.3952 N   0  0  0  0  0  0  0  0  0  0  0  0
  1  2  2  0  0  0  0
  1 12  1  0  0  0  0
  2  3  1  0  0  0  0
  3  4  2  0  0  0  0
  4 11  1  0  0  0  0
  5  4  1  0  0  0  0
  5 10  1  0  0  0  0
  6  1  1  0  0  0  0
  7  2  1  0  0  0  0
  8  9  3  0  0  0  0
 12  5  2  0  0  0  0
M  RAD  1   3   2
M  END
