Coordinates from ORCA-job Pyridine-4-N2+-scan-d09-160-n800
 OpenBabel09191813523D

 12 11  0  0  0  0  0  0  0  0999 V2000
   -3.3040    0.2041   -1.1536 C   0  0  0  0  0  0  0  0  0  0  0  0
   -1.8465    0.0871   -1.0774 C   0  0  0  0  0  0  0  0  0  0  0  0
   -1.4613    0.9122   -0.1161 C   0  0  0  0  0  0  0  0  0  0  0  0
   -1.9802    1.7675    0.7512 C   0  0  0  0  0  0  0  0  0  0  0  0
   -3.4267    1.7476    0.5260 C   0  0  0  0  0  0  0  0  0  0  0  0
   -3.7870   -0.4186   -1.9062 H   0  0  0  0  0  0  0  0  0  0  0  0
   -1.3090   -0.5827   -1.7382 H   0  0  0  0  0  0  0  0  0  0  0  0
    8.3203    0.4448    0.7518 N   0  0  0  0  0  0  0  0  0  0  0  0
    9.4201    0.3935    0.8509 N   0  0  0  0  0  0  0  0  0  0  0  0
   -4.0116    2.4061    1.1676 H   0  0  0  0  0  0  0  0  0  0  0  0
   -1.5467    2.4049    1.5129 H   0  0  0  0  0  0  0  0  0  0  0  0
   -3.9981    0.9971   -0.3795 N   0  0  0  0  0  0  0  0  0  0  0  0
  1  2  2  0  0  0  0
  1 12  1  0  0  0  0
  2  3  1  0  0  0  0
  3  4  2  0  0  0  0
  4 11  1  0  0  0  0
  5  4  1  0  0  0  0
  5 10  1  0  0  0  0
  6  1  1  0  0  0  0
  7  2  1  0  0  0  0
  8  9  3  0  0  0  0
 12  5  2  0  0  0  0
M  RAD  1   3   2
M  END
