Coordinates from ORCA-job Pyridine-4-N2+-scan-d09-160-n800
 OpenBabel09191813523D

 12 11  0  0  0  0  0  0  0  0999 V2000
   -2.6858    0.1785   -1.0947 C   0  0  0  0  0  0  0  0  0  0  0  0
   -1.2288    0.0505   -1.0303 C   0  0  0  0  0  0  0  0  0  0  0  0
   -0.8300    0.8717   -0.0714 C   0  0  0  0  0  0  0  0  0  0  0  0
   -1.3352    1.7299    0.8011 C   0  0  0  0  0  0  0  0  0  0  0  0
   -2.7835    1.7210    0.5874 C   0  0  0  0  0  0  0  0  0  0  0  0
   -3.1795   -0.4398   -1.8439 H   0  0  0  0  0  0  0  0  0  0  0  0
   -0.7012   -0.6225   -1.6959 H   0  0  0  0  0  0  0  0  0  0  0  0
    5.1652    0.6008    0.4777 N   0  0  0  0  0  0  0  0  0  0  0  0
    6.2648    0.5518    0.5792 N   0  0  0  0  0  0  0  0  0  0  0  0
   -3.3584    2.3831    1.2344 H   0  0  0  0  0  0  0  0  0  0  0  0
   -0.8903    2.3630    1.5598 H   0  0  0  0  0  0  0  0  0  0  0  0
   -3.3679    0.9757   -0.3142 N   0  0  0  0  0  0  0  0  0  0  0  0
  1  2  2  0  0  0  0
  1 12  1  0  0  0  0
  2  3  1  0  0  0  0
  3  4  2  0  0  0  0
  4 11  1  0  0  0  0
  5  4  1  0  0  0  0
  5 10  1  0  0  0  0
  6  1  1  0  0  0  0
  7  2  1  0  0  0  0
  8  9  3  0  0  0  0
 12  5  2  0  0  0  0
M  RAD  1   3   2
M  END
