Coordinates from ORCA-job Pyridine-4-N2+-scan-d09-160-n800
 OpenBabel09191813533D

 12 11  0  0  0  0  0  0  0  0999 V2000
   -3.6643    0.2191   -1.1882 C   0  0  0  0  0  0  0  0  0  0  0  0
   -2.2067    0.1090   -1.1042 C   0  0  0  0  0  0  0  0  0  0  0  0
   -1.8304    0.9365   -0.1415 C   0  0  0  0  0  0  0  0  0  0  0  0
   -2.3578    1.7899    0.7225 C   0  0  0  0  0  0  0  0  0  0  0  0
   -3.8031    1.7631    0.4897 C   0  0  0  0  0  0  0  0  0  0  0  0
   -4.1404   -0.4064   -1.9428 H   0  0  0  0  0  0  0  0  0  0  0  0
   -1.6627   -0.5588   -1.7618 H   0  0  0  0  0  0  0  0  0  0  0  0
   10.1633    0.3527    0.9108 N   0  0  0  0  0  0  0  0  0  0  0  0
   11.2632    0.3006    1.0089 N   0  0  0  0  0  0  0  0  0  0  0  0
   -4.3944    2.4192    1.1279 H   0  0  0  0  0  0  0  0  0  0  0  0
   -1.9313    2.4298    1.4860 H   0  0  0  0  0  0  0  0  0  0  0  0
   -4.3661    1.0092   -0.4182 N   0  0  0  0  0  0  0  0  0  0  0  0
  1  2  2  0  0  0  0
  1 12  1  0  0  0  0
  2  3  1  0  0  0  0
  3  4  2  0  0  0  0
  4 11  1  0  0  0  0
  5  4  1  0  0  0  0
  5 10  1  0  0  0  0
  6  1  1  0  0  0  0
  7  2  1  0  0  0  0
  8  9  3  0  0  0  0
 12  5  2  0  0  0  0
M  RAD  1   3   2
M  END
