Coordinates from ORCA-job Pyridine-4-N2+-scan-d09-160-n800
 OpenBabel09191813523D

 12 12  0  0  0  0  0  0  0  0999 V2000
   -1.9304    0.1358   -1.0351 C   0  0  0  0  0  0  0  0  0  0  0  0
   -0.5401    0.0227   -0.9633 C   0  0  0  0  0  0  0  0  0  0  0  0
    0.0704    0.8283    0.0085 C   0  0  0  0  0  0  0  0  0  0  0  0
   -0.6377    1.6911    0.8572 C   0  0  0  0  0  0  0  0  0  0  0  0
   -2.0218    1.6984    0.6699 C   0  0  0  0  0  0  0  0  0  0  0  0
   -2.4849   -0.4533   -1.7610 H   0  0  0  0  0  0  0  0  0  0  0  0
    0.0237   -0.6391   -1.6113 H   0  0  0  0  0  0  0  0  0  0  0  0
    1.4636    0.7678    0.1387 N   0  0  0  0  0  0  0  0  0  0  0  0
    2.5697    0.7198    0.2420 N   0  0  0  0  0  0  0  0  0  0  0  0
   -2.6483    2.3387    1.2854 H   0  0  0  0  0  0  0  0  0  0  0  0
   -0.1487    2.3072    1.6036 H   0  0  0  0  0  0  0  0  0  0  0  0
   -2.6460    0.9462   -0.2452 N   0  0  0  0  0  0  0  0  0  0  0  0
  1  2  2  0  0  0  0
  1 12  1  0  0  0  0
  2  3  1  0  0  0  0
  3  8  1  0  0  0  0
  3  4  2  0  0  0  0
  4 11  1  0  0  0  0
  5  4  1  0  0  0  0
  5 10  1  0  0  0  0
  6  1  1  0  0  0  0
  7  2  1  0  0  0  0
  8  9  1  0  0  0  0
 12  5  2  0  0  0  0
M  RAD  2   8   2   9   3
M  END
