Coordinates from ORCA-job Pyridine-4-N2+-scan-d09-160-n800
 OpenBabel09191813523D

 12 11  0  0  0  0  0  0  0  0999 V2000
   -3.1968    0.1997   -1.1434 C   0  0  0  0  0  0  0  0  0  0  0  0
   -1.7394    0.0807   -1.0693 C   0  0  0  0  0  0  0  0  0  0  0  0
   -1.3516    0.9050   -0.1085 C   0  0  0  0  0  0  0  0  0  0  0  0
   -1.8680    1.7609    0.7598 C   0  0  0  0  0  0  0  0  0  0  0  0
   -3.3149    1.7430    0.5367 C   0  0  0  0  0  0  0  0  0  0  0  0
   -3.6818   -0.4222   -1.8953 H   0  0  0  0  0  0  0  0  0  0  0  0
   -1.2038   -0.5898   -1.7311 H   0  0  0  0  0  0  0  0  0  0  0  0
    7.7723    0.4720    0.7044 N   0  0  0  0  0  0  0  0  0  0  0  0
    8.8721    0.4212    0.8039 N   0  0  0  0  0  0  0  0  0  0  0  0
   -3.8979    2.4022    1.1794 H   0  0  0  0  0  0  0  0  0  0  0  0
   -1.4324    2.3975    1.5209 H   0  0  0  0  0  0  0  0  0  0  0  0
   -3.8886    0.9934   -0.3681 N   0  0  0  0  0  0  0  0  0  0  0  0
  1  2  2  0  0  0  0
  1 12  1  0  0  0  0
  2  3  1  0  0  0  0
  3  4  2  0  0  0  0
  4 11  1  0  0  0  0
  5  4  1  0  0  0  0
  5 10  1  0  0  0  0
  6  1  1  0  0  0  0
  7  2  1  0  0  0  0
  8  9  3  0  0  0  0
 12  5  2  0  0  0  0
M  RAD  1   3   2
M  END
