Coordinates from ORCA-job Pyridine-4-N2+-scan-d09-160-n800
 OpenBabel09191813523D

 12 11  0  0  0  0  0  0  0  0999 V2000
   -2.4724    0.1695   -1.0745 C   0  0  0  0  0  0  0  0  0  0  0  0
   -1.0158    0.0389   -1.0128 C   0  0  0  0  0  0  0  0  0  0  0  0
   -0.6144    0.8594   -0.0542 C   0  0  0  0  0  0  0  0  0  0  0  0
   -1.1165    1.7184    0.8194 C   0  0  0  0  0  0  0  0  0  0  0  0
   -2.5649    1.7117    0.6080 C   0  0  0  0  0  0  0  0  0  0  0  0
   -2.9686   -0.4477   -1.8230 H   0  0  0  0  0  0  0  0  0  0  0  0
   -0.4897   -0.6345   -1.6791 H   0  0  0  0  0  0  0  0  0  0  0  0
    4.0856    0.6520    0.3815 N   0  0  0  0  0  0  0  0  0  0  0  0
    5.1852    0.6037    0.4837 N   0  0  0  0  0  0  0  0  0  0  0  0
   -3.1379    2.3745    1.2559 H   0  0  0  0  0  0  0  0  0  0  0  0
   -0.6687    2.3503    1.5773 H   0  0  0  0  0  0  0  0  0  0  0  0
   -3.1524    0.9676   -0.2929 N   0  0  0  0  0  0  0  0  0  0  0  0
  1  2  2  0  0  0  0
  1 12  1  0  0  0  0
  2  3  1  0  0  0  0
  3  4  2  0  0  0  0
  4 11  1  0  0  0  0
  5  4  1  0  0  0  0
  5 10  1  0  0  0  0
  6  1  1  0  0  0  0
  7  2  1  0  0  0  0
  8  9  3  0  0  0  0
 12  5  2  0  0  0  0
M  RAD  1   3   2
M  END
