Coordinates from ORCA-job Pyridine-4-N2+-scan-d09-160-n800
 OpenBabel09191813523D

 12 11  0  0  0  0  0  0  0  0999 V2000
   -2.8521    0.1854   -1.1105 C   0  0  0  0  0  0  0  0  0  0  0  0
   -1.3950    0.0601   -1.0433 C   0  0  0  0  0  0  0  0  0  0  0  0
   -0.9994    0.8822   -0.0838 C   0  0  0  0  0  0  0  0  0  0  0  0
   -1.5079    1.7398    0.7875 C   0  0  0  0  0  0  0  0  0  0  0  0
   -2.9558    1.7282    0.5711 C   0  0  0  0  0  0  0  0  0  0  0  0
   -3.3433   -0.4339   -1.8605 H   0  0  0  0  0  0  0  0  0  0  0  0
   -0.8651   -0.6122   -1.7078 H   0  0  0  0  0  0  0  0  0  0  0  0
    6.0122    0.5594    0.5518 N   0  0  0  0  0  0  0  0  0  0  0  0
    7.1119    0.5097    0.6526 N   0  0  0  0  0  0  0  0  0  0  0  0
   -3.5331    2.3894    1.2168 H   0  0  0  0  0  0  0  0  0  0  0  0
   -1.0659    2.3740    1.5469 H   0  0  0  0  0  0  0  0  0  0  0  0
   -3.5371    0.9816   -0.3315 N   0  0  0  0  0  0  0  0  0  0  0  0
  1  2  2  0  0  0  0
  1 12  1  0  0  0  0
  2  3  1  0  0  0  0
  3  4  2  0  0  0  0
  4 11  1  0  0  0  0
  5  4  1  0  0  0  0
  5 10  1  0  0  0  0
  6  1  1  0  0  0  0
  7  2  1  0  0  0  0
  8  9  3  0  0  0  0
 12  5  2  0  0  0  0
M  RAD  1   3   2
M  END
