Coordinates from ORCA-job Pyridine-4-N2+-scan-d09-160-n800
 OpenBabel09191813533D

 12 11  0  0  0  0  0  0  0  0999 V2000
   -3.8751    0.2278   -1.2084 C   0  0  0  0  0  0  0  0  0  0  0  0
   -2.4175    0.1219   -1.1197 C   0  0  0  0  0  0  0  0  0  0  0  0
   -2.0465    0.9508   -0.1562 C   0  0  0  0  0  0  0  0  0  0  0  0
   -2.5791    1.8031    0.7058 C   0  0  0  0  0  0  0  0  0  0  0  0
   -4.0236    1.7720    0.4684 C   0  0  0  0  0  0  0  0  0  0  0  0
   -4.3470   -0.3994   -1.9642 H   0  0  0  0  0  0  0  0  0  0  0  0
   -1.8695   -0.5446   -1.7753 H   0  0  0  0  0  0  0  0  0  0  0  0
   11.2426    0.2987    1.0038 N   0  0  0  0  0  0  0  0  0  0  0  0
   12.3425    0.2460    1.1013 N   0  0  0  0  0  0  0  0  0  0  0  0
   -4.6188    2.4267    1.1045 H   0  0  0  0  0  0  0  0  0  0  0  0
   -2.1569    2.4445    1.4704 H   0  0  0  0  0  0  0  0  0  0  0  0
   -4.5816    1.0162   -0.4410 N   0  0  0  0  0  0  0  0  0  0  0  0
  1  2  2  0  0  0  0
  1 12  1  0  0  0  0
  2  3  1  0  0  0  0
  3  4  2  0  0  0  0
  4 11  1  0  0  0  0
  5  4  1  0  0  0  0
  5 10  1  0  0  0  0
  6  1  1  0  0  0  0
  7  2  1  0  0  0  0
  8  9  3  0  0  0  0
 12  5  2  0  0  0  0
M  RAD  1   3   2
M  END
