Coordinates from ORCA-job Pyridine-4-N2+-scan-d09-160-n800
 OpenBabel09191813533D

 12 11  0  0  0  0  0  0  0  0999 V2000
   -4.2570    0.2434   -1.2451 C   0  0  0  0  0  0  0  0  0  0  0  0
   -2.7994    0.1457   -1.1474 C   0  0  0  0  0  0  0  0  0  0  0  0
   -2.4391    0.9774   -0.1823 C   0  0  0  0  0  0  0  0  0  0  0  0
   -2.9817    1.8274    0.6757 C   0  0  0  0  0  0  0  0  0  0  0  0
   -4.4245    1.7882    0.4295 C   0  0  0  0  0  0  0  0  0  0  0  0
   -4.7208   -0.3869   -2.0034 H   0  0  0  0  0  0  0  0  0  0  0  0
   -2.2437   -0.5182   -1.7990 H   0  0  0  0  0  0  0  0  0  0  0  0
   13.2018    0.1978    1.1695 N   0  0  0  0  0  0  0  0  0  0  0  0
   14.3015    0.1487    1.2709 N   0  0  0  0  0  0  0  0  0  0  0  0
   -5.0272    2.4400    1.0613 H   0  0  0  0  0  0  0  0  0  0  0  0
   -2.5679    2.4717    1.4424 H   0  0  0  0  0  0  0  0  0  0  0  0
   -4.9726    1.0285   -0.4828 N   0  0  0  0  0  0  0  0  0  0  0  0
  1  2  2  0  0  0  0
  1 12  1  0  0  0  0
  2  3  1  0  0  0  0
  3  4  2  0  0  0  0
  4 11  1  0  0  0  0
  5  4  1  0  0  0  0
  5 10  1  0  0  0  0
  6  1  1  0  0  0  0
  7  2  1  0  0  0  0
  8  9  3  0  0  0  0
 12  5  2  0  0  0  0
M  RAD  1   3   2
M  END
