Coordinates from ORCA-job Pyridine-4-N2+-scan-d09-160-n800
 OpenBabel09191813533D

 12 11  0  0  0  0  0  0  0  0999 V2000
   -4.1795    0.2403   -1.2376 C   0  0  0  0  0  0  0  0  0  0  0  0
   -2.7219    0.1407   -1.1419 C   0  0  0  0  0  0  0  0  0  0  0  0
   -2.3592    0.9719   -0.1771 C   0  0  0  0  0  0  0  0  0  0  0  0
   -2.8997    1.8223    0.6818 C   0  0  0  0  0  0  0  0  0  0  0  0
   -4.3428    1.7849    0.4375 C   0  0  0  0  0  0  0  0  0  0  0  0
   -4.6451   -0.3894   -1.9954 H   0  0  0  0  0  0  0  0  0  0  0  0
   -2.1679   -0.5237   -1.7944 H   0  0  0  0  0  0  0  0  0  0  0  0
   12.8033    0.2182    1.1357 N   0  0  0  0  0  0  0  0  0  0  0  0
   13.9031    0.1688    1.2367 N   0  0  0  0  0  0  0  0  0  0  0  0
   -4.9439    2.4374    1.0702 H   0  0  0  0  0  0  0  0  0  0  0  0
   -2.4840    2.4661    1.4480 H   0  0  0  0  0  0  0  0  0  0  0  0
   -4.8931    1.0261   -0.4742 N   0  0  0  0  0  0  0  0  0  0  0  0
  1  2  2  0  0  0  0
  1 12  1  0  0  0  0
  2  3  1  0  0  0  0
  3  4  2  0  0  0  0
  4 11  1  0  0  0  0
  5  4  1  0  0  0  0
  5 10  1  0  0  0  0
  6  1  1  0  0  0  0
  7  2  1  0  0  0  0
  8  9  3  0  0  0  0
 12  5  2  0  0  0  0
M  RAD  1   3   2
M  END
