Coordinates from ORCA-job Pyridine-4-N2+-scan-d09-160-n800
 OpenBabel09191813533D

 12 11  0  0  0  0  0  0  0  0999 V2000
   -3.5215    0.2131   -1.1745 C   0  0  0  0  0  0  0  0  0  0  0  0
   -2.0640    0.1003   -1.0936 C   0  0  0  0  0  0  0  0  0  0  0  0
   -1.6841    0.9268   -0.1315 C   0  0  0  0  0  0  0  0  0  0  0  0
   -2.2080    1.7810    0.7339 C   0  0  0  0  0  0  0  0  0  0  0  0
   -3.6538    1.7570    0.5041 C   0  0  0  0  0  0  0  0  0  0  0  0
   -4.0004   -0.4112   -1.9283 H   0  0  0  0  0  0  0  0  0  0  0  0
   -1.5226   -0.5683   -1.7525 H   0  0  0  0  0  0  0  0  0  0  0  0
    9.4328    0.3893    0.8478 N   0  0  0  0  0  0  0  0  0  0  0  0
   10.5326    0.3374    0.9463 N   0  0  0  0  0  0  0  0  0  0  0  0
   -4.2426    2.4140    1.1437 H   0  0  0  0  0  0  0  0  0  0  0  0
   -1.7788    2.4199    1.4966 H   0  0  0  0  0  0  0  0  0  0  0  0
   -4.2202    1.0044   -0.4028 N   0  0  0  0  0  0  0  0  0  0  0  0
  1  2  2  0  0  0  0
  1 12  1  0  0  0  0
  2  3  1  0  0  0  0
  3  4  2  0  0  0  0
  4 11  1  0  0  0  0
  5  4  1  0  0  0  0
  5 10  1  0  0  0  0
  6  1  1  0  0  0  0
  7  2  1  0  0  0  0
  8  9  3  0  0  0  0
 12  5  2  0  0  0  0
M  RAD  1   3   2
M  END
