Coordinates from ORCA-job Pyridine-4-N2+-scan-d09-160-n800
 OpenBabel09191813523D

 12 11  0  0  0  0  0  0  0  0999 V2000
   -2.5777    0.1739   -1.0845 C   0  0  0  0  0  0  0  0  0  0  0  0
   -1.1209    0.0445   -1.0216 C   0  0  0  0  0  0  0  0  0  0  0  0
   -0.7205    0.8652   -0.0629 C   0  0  0  0  0  0  0  0  0  0  0  0
   -1.2239    1.7239    0.8102 C   0  0  0  0  0  0  0  0  0  0  0  0
   -2.6724    1.7163    0.5979 C   0  0  0  0  0  0  0  0  0  0  0  0
   -3.0728   -0.4437   -1.8333 H   0  0  0  0  0  0  0  0  0  0  0  0
   -0.5943   -0.6288   -1.6876 H   0  0  0  0  0  0  0  0  0  0  0  0
    4.6171    0.6271    0.4292 N   0  0  0  0  0  0  0  0  0  0  0  0
    5.7167    0.5784    0.5311 N   0  0  0  0  0  0  0  0  0  0  0  0
   -3.2460    2.3788    1.2455 H   0  0  0  0  0  0  0  0  0  0  0  0
   -0.7775    2.3563    1.5684 H   0  0  0  0  0  0  0  0  0  0  0  0
   -3.2585    0.9717   -0.3033 N   0  0  0  0  0  0  0  0  0  0  0  0
  1  2  2  0  0  0  0
  1 12  1  0  0  0  0
  2  3  1  0  0  0  0
  3  4  2  0  0  0  0
  4 11  1  0  0  0  0
  5  4  1  0  0  0  0
  5 10  1  0  0  0  0
  6  1  1  0  0  0  0
  7  2  1  0  0  0  0
  8  9  3  0  0  0  0
 12  5  2  0  0  0  0
M  RAD  1   3   2
M  END
