Coordinates from ORCA-job Pyridine-4-N2+-scan-d09-160-n800
 OpenBabel09191813533D

 12 11  0  0  0  0  0  0  0  0999 V2000
   -3.9075    0.2291   -1.2115 C   0  0  0  0  0  0  0  0  0  0  0  0
   -2.4499    0.1238   -1.1221 C   0  0  0  0  0  0  0  0  0  0  0  0
   -2.0798    0.9530   -0.1585 C   0  0  0  0  0  0  0  0  0  0  0  0
   -2.6132    1.8051    0.7032 C   0  0  0  0  0  0  0  0  0  0  0  0
   -4.0575    1.7734    0.4652 C   0  0  0  0  0  0  0  0  0  0  0  0
   -4.3788   -0.3983   -1.9675 H   0  0  0  0  0  0  0  0  0  0  0  0
   -1.9013   -0.5424   -1.7774 H   0  0  0  0  0  0  0  0  0  0  0  0
   11.4086    0.2904    1.0181 N   0  0  0  0  0  0  0  0  0  0  0  0
   12.5085    0.2376    1.1155 N   0  0  0  0  0  0  0  0  0  0  0  0
   -4.6533    2.4279    1.1008 H   0  0  0  0  0  0  0  0  0  0  0  0
   -2.1917    2.4468    1.4680 H   0  0  0  0  0  0  0  0  0  0  0  0
   -4.6147    1.0173   -0.4445 N   0  0  0  0  0  0  0  0  0  0  0  0
  1  2  2  0  0  0  0
  1 12  1  0  0  0  0
  2  3  1  0  0  0  0
  3  4  2  0  0  0  0
  4 11  1  0  0  0  0
  5  4  1  0  0  0  0
  5 10  1  0  0  0  0
  6  1  1  0  0  0  0
  7  2  1  0  0  0  0
  8  9  3  0  0  0  0
 12  5  2  0  0  0  0
M  RAD  1   3   2
M  END
