Coordinates from ORCA-job Pyridine-4-N2+-scan-d09-160-n800
 OpenBabel09191813533D

 12 11  0  0  0  0  0  0  0  0999 V2000
   -3.6773    0.2196   -1.1894 C   0  0  0  0  0  0  0  0  0  0  0  0
   -2.2197    0.1098   -1.1051 C   0  0  0  0  0  0  0  0  0  0  0  0
   -1.8437    0.9373   -0.1424 C   0  0  0  0  0  0  0  0  0  0  0  0
   -2.3714    1.7907    0.7215 C   0  0  0  0  0  0  0  0  0  0  0  0
   -3.8166    1.7636    0.4884 C   0  0  0  0  0  0  0  0  0  0  0  0
   -4.1531   -0.4060   -1.9441 H   0  0  0  0  0  0  0  0  0  0  0  0
   -1.6754   -0.5579   -1.7626 H   0  0  0  0  0  0  0  0  0  0  0  0
   10.2298    0.3494    0.9166 N   0  0  0  0  0  0  0  0  0  0  0  0
   11.3296    0.2972    1.0146 N   0  0  0  0  0  0  0  0  0  0  0  0
   -4.4082    2.4197    1.1265 H   0  0  0  0  0  0  0  0  0  0  0  0
   -1.9452    2.4307    1.4850 H   0  0  0  0  0  0  0  0  0  0  0  0
   -4.3794    1.0096   -0.4196 N   0  0  0  0  0  0  0  0  0  0  0  0
  1  2  2  0  0  0  0
  1 12  1  0  0  0  0
  2  3  1  0  0  0  0
  3  4  2  0  0  0  0
  4 11  1  0  0  0  0
  5  4  1  0  0  0  0
  5 10  1  0  0  0  0
  6  1  1  0  0  0  0
  7  2  1  0  0  0  0
  8  9  3  0  0  0  0
 12  5  2  0  0  0  0
M  RAD  1   3   2
M  END
