Coordinates from ORCA-job Pyridine-4-N2+-scan-d09-160-n800
 OpenBabel09191813523D

 12 11  0  0  0  0  0  0  0  0999 V2000
   -2.0575    0.1509   -1.0365 C   0  0  0  0  0  0  0  0  0  0  0  0
   -0.6209    0.0212   -0.9764 C   0  0  0  0  0  0  0  0  0  0  0  0
   -0.1827    0.8393   -0.0151 C   0  0  0  0  0  0  0  0  0  0  0  0
   -0.7191    1.6997    0.8551 C   0  0  0  0  0  0  0  0  0  0  0  0
   -2.1479    1.6943    0.6475 C   0  0  0  0  0  0  0  0  0  0  0  0
   -2.5707   -0.4585   -1.7789 H   0  0  0  0  0  0  0  0  0  0  0  0
   -0.0805   -0.6466   -1.6343 H   0  0  0  0  0  0  0  0  0  0  0  0
    2.0472    0.7425    0.1932 N   0  0  0  0  0  0  0  0  0  0  0  0
    3.1459    0.6948    0.2958 N   0  0  0  0  0  0  0  0  0  0  0  0
   -2.7352    2.3514    1.2872 H   0  0  0  0  0  0  0  0  0  0  0  0
   -0.2544    2.3239    1.6070 H   0  0  0  0  0  0  0  0  0  0  0  0
   -2.7549    0.9509   -0.2554 N   0  0  0  0  0  0  0  0  0  0  0  0
  1  2  2  0  0  0  0
  1 12  1  0  0  0  0
  2  3  1  0  0  0  0
  3  4  2  0  0  0  0
  4 11  1  0  0  0  0
  5  4  1  0  0  0  0
  5 10  1  0  0  0  0
  6  1  1  0  0  0  0
  7  2  1  0  0  0  0
  8  9  3  0  0  0  0
 12  5  2  0  0  0  0
M  RAD  1   3   2
M  END
