Coordinates from ORCA-job Pyridine-4-N2+-scan-d09-160-n800
 OpenBabel09191813523D

 12 11  0  0  0  0  0  0  0  0999 V2000
   -2.1121    0.1539   -1.0409 C   0  0  0  0  0  0  0  0  0  0  0  0
   -0.6655    0.0229   -0.9808 C   0  0  0  0  0  0  0  0  0  0  0  0
   -0.2481    0.8421   -0.0212 C   0  0  0  0  0  0  0  0  0  0  0  0
   -0.7638    1.7019    0.8513 C   0  0  0  0  0  0  0  0  0  0  0  0
   -2.2024    1.6960    0.6418 C   0  0  0  0  0  0  0  0  0  0  0  0
   -2.6169   -0.4593   -1.7863 H   0  0  0  0  0  0  0  0  0  0  0  0
   -0.1323   -0.6476   -1.6427 H   0  0  0  0  0  0  0  0  0  0  0  0
    2.3005    0.7315    0.2169 N   0  0  0  0  0  0  0  0  0  0  0  0
    3.3994    0.6837    0.3195 N   0  0  0  0  0  0  0  0  0  0  0  0
   -2.7817    2.3563    1.2859 H   0  0  0  0  0  0  0  0  0  0  0  0
   -0.3066    2.3294    1.6056 H   0  0  0  0  0  0  0  0  0  0  0  0
   -2.8014    0.9529   -0.2597 N   0  0  0  0  0  0  0  0  0  0  0  0
  1  2  2  0  0  0  0
  1 12  1  0  0  0  0
  2  3  1  0  0  0  0
  3  4  2  0  0  0  0
  4 11  1  0  0  0  0
  5  4  1  0  0  0  0
  5 10  1  0  0  0  0
  6  1  1  0  0  0  0
  7  2  1  0  0  0  0
  8  9  3  0  0  0  0
 12  5  2  0  0  0  0
M  RAD  1   3   2
M  END
