Coordinates from ORCA-job Pyridine-4-N2+-scan-d09-160-n800
 OpenBabel09191813523D

 12 11  0  0  0  0  0  0  0  0999 V2000
   -2.6072    0.1752   -1.0872 C   0  0  0  0  0  0  0  0  0  0  0  0
   -1.1503    0.0460   -1.0241 C   0  0  0  0  0  0  0  0  0  0  0  0
   -0.7504    0.8669   -0.0652 C   0  0  0  0  0  0  0  0  0  0  0  0
   -1.2542    1.7256    0.8078 C   0  0  0  0  0  0  0  0  0  0  0  0
   -2.7026    1.7176    0.5950 C   0  0  0  0  0  0  0  0  0  0  0  0
   -3.1020   -0.4426   -1.8361 H   0  0  0  0  0  0  0  0  0  0  0  0
   -0.6235   -0.6272   -1.6901 H   0  0  0  0  0  0  0  0  0  0  0  0
    4.7666    0.6200    0.4425 N   0  0  0  0  0  0  0  0  0  0  0  0
    5.8662    0.5712    0.5443 N   0  0  0  0  0  0  0  0  0  0  0  0
   -3.2766    2.3800    1.2424 H   0  0  0  0  0  0  0  0  0  0  0  0
   -0.8082    2.3582    1.5661 H   0  0  0  0  0  0  0  0  0  0  0  0
   -3.2884    0.9728   -0.3062 N   0  0  0  0  0  0  0  0  0  0  0  0
  1  2  2  0  0  0  0
  1 12  1  0  0  0  0
  2  3  1  0  0  0  0
  3  4  2  0  0  0  0
  4 11  1  0  0  0  0
  5  4  1  0  0  0  0
  5 10  1  0  0  0  0
  6  1  1  0  0  0  0
  7  2  1  0  0  0  0
  8  9  3  0  0  0  0
 12  5  2  0  0  0  0
M  RAD  1   3   2
M  END
