Coordinates from ORCA-job Pyridine-4-N2+-scan-d09-160-n800
 OpenBabel09191813523D

 12 11  0  0  0  0  0  0  0  0999 V2000
   -2.6662    0.1777   -1.0928 C   0  0  0  0  0  0  0  0  0  0  0  0
   -1.2092    0.0494   -1.0287 C   0  0  0  0  0  0  0  0  0  0  0  0
   -0.8101    0.8705   -0.0698 C   0  0  0  0  0  0  0  0  0  0  0  0
   -1.3149    1.7288    0.8027 C   0  0  0  0  0  0  0  0  0  0  0  0
   -2.7633    1.7202    0.5894 C   0  0  0  0  0  0  0  0  0  0  0  0
   -3.1602   -0.4405   -1.8420 H   0  0  0  0  0  0  0  0  0  0  0  0
   -0.6818   -0.6237   -1.6944 H   0  0  0  0  0  0  0  0  0  0  0  0
    5.0655    0.6056    0.4690 N   0  0  0  0  0  0  0  0  0  0  0  0
    6.1652    0.5567    0.5705 N   0  0  0  0  0  0  0  0  0  0  0  0
   -3.3379    2.3823    1.2364 H   0  0  0  0  0  0  0  0  0  0  0  0
   -0.8697    2.3618    1.5613 H   0  0  0  0  0  0  0  0  0  0  0  0
   -3.3480    0.9750   -0.3122 N   0  0  0  0  0  0  0  0  0  0  0  0
  1  2  2  0  0  0  0
  1 12  1  0  0  0  0
  2  3  1  0  0  0  0
  3  4  2  0  0  0  0
  4 11  1  0  0  0  0
  5  4  1  0  0  0  0
  5 10  1  0  0  0  0
  6  1  1  0  0  0  0
  7  2  1  0  0  0  0
  8  9  3  0  0  0  0
 12  5  2  0  0  0  0
M  RAD  1   3   2
M  END
