Coordinates from ORCA-job Pyridine-4-N2+-scan-d09-160-n800
 OpenBabel09191813523D

 12 12  0  0  0  0  0  0  0  0999 V2000
   -1.9054    0.1345   -1.0331 C   0  0  0  0  0  0  0  0  0  0  0  0
   -0.5220    0.0235   -0.9599 C   0  0  0  0  0  0  0  0  0  0  0  0
    0.1467    0.8250    0.0157 C   0  0  0  0  0  0  0  0  0  0  0  0
   -0.6195    1.6887    0.8572 C   0  0  0  0  0  0  0  0  0  0  0  0
   -1.9969    1.6976    0.6725 C   0  0  0  0  0  0  0  0  0  0  0  0
   -2.4597   -0.4549   -1.7592 H   0  0  0  0  0  0  0  0  0  0  0  0
    0.0429   -0.6387   -1.6082 H   0  0  0  0  0  0  0  0  0  0  0  0
    1.3208    0.7740    0.1253 N   0  0  0  0  0  0  0  0  0  0  0  0
    2.4390    0.7255    0.2298 N   0  0  0  0  0  0  0  0  0  0  0  0
   -2.6232    2.3381    1.2883 H   0  0  0  0  0  0  0  0  0  0  0  0
   -0.1294    2.3051    1.6040 H   0  0  0  0  0  0  0  0  0  0  0  0
   -2.6238    0.9452   -0.2431 N   0  0  0  0  0  0  0  0  0  0  0  0
  1  2  2  0  0  0  0
  1 12  1  0  0  0  0
  2  3  1  0  0  0  0
  3  8  1  0  0  0  0
  3  4  2  0  0  0  0
  4 11  1  0  0  0  0
  5  4  1  0  0  0  0
  5 10  1  0  0  0  0
  6  1  1  0  0  0  0
  7  2  1  0  0  0  0
  8  9  1  0  0  0  0
 12  5  2  0  0  0  0
M  RAD  2   8   2   9   3
M  END
