Coordinates from ORCA-job Pyridine-4-N2+-scan-d09-160-n800
 OpenBabel09191813523D

 12 11  0  0  0  0  0  0  0  0999 V2000
   -2.0370    0.1494   -1.0352 C   0  0  0  0  0  0  0  0  0  0  0  0
   -0.6060    0.0205   -0.9750 C   0  0  0  0  0  0  0  0  0  0  0  0
   -0.1552    0.8381   -0.0125 C   0  0  0  0  0  0  0  0  0  0  0  0
   -0.7042    1.6990    0.8565 C   0  0  0  0  0  0  0  0  0  0  0  0
   -2.1274    1.6940    0.6501 C   0  0  0  0  0  0  0  0  0  0  0  0
   -2.5552   -0.4576   -1.7757 H   0  0  0  0  0  0  0  0  0  0  0  0
   -0.0614   -0.6458   -1.6307 H   0  0  0  0  0  0  0  0  0  0  0  0
    1.9552    0.7465    0.1846 N   0  0  0  0  0  0  0  0  0  0  0  0
    3.0537    0.6988    0.2872 N   0  0  0  0  0  0  0  0  0  0  0  0
   -2.7195    2.3492    1.2869 H   0  0  0  0  0  0  0  0  0  0  0  0
   -0.2351    2.3214    1.6070 H   0  0  0  0  0  0  0  0  0  0  0  0
   -2.7385    0.9502   -0.2538 N   0  0  0  0  0  0  0  0  0  0  0  0
  1  2  2  0  0  0  0
  1 12  1  0  0  0  0
  2  3  1  0  0  0  0
  3  4  2  0  0  0  0
  4 11  1  0  0  0  0
  5  4  1  0  0  0  0
  5 10  1  0  0  0  0
  6  1  1  0  0  0  0
  7  2  1  0  0  0  0
  8  9  3  0  0  0  0
 12  5  2  0  0  0  0
M  RAD  1   3   2
M  END
