Coordinates from ORCA-job Pyridine-4-N2+-scan-d09-160-n800
 OpenBabel09191813523D

 12 11  0  0  0  0  0  0  0  0999 V2000
   -2.7250    0.1801   -1.0984 C   0  0  0  0  0  0  0  0  0  0  0  0
   -1.2679    0.0527   -1.0334 C   0  0  0  0  0  0  0  0  0  0  0  0
   -0.8699    0.8741   -0.0743 C   0  0  0  0  0  0  0  0  0  0  0  0
   -1.3758    1.7322    0.7979 C   0  0  0  0  0  0  0  0  0  0  0  0
   -2.8240    1.7227    0.5836 C   0  0  0  0  0  0  0  0  0  0  0  0
   -3.2182   -0.4384   -1.8478 H   0  0  0  0  0  0  0  0  0  0  0  0
   -0.7399   -0.6201   -1.6988 H   0  0  0  0  0  0  0  0  0  0  0  0
    5.3645    0.5911    0.4952 N   0  0  0  0  0  0  0  0  0  0  0  0
    6.4641    0.5419    0.5966 N   0  0  0  0  0  0  0  0  0  0  0  0
   -3.3994    2.3846    1.2303 H   0  0  0  0  0  0  0  0  0  0  0  0
   -0.9316    2.3656    1.5567 H   0  0  0  0  0  0  0  0  0  0  0  0
   -3.4077    0.9771   -0.3183 N   0  0  0  0  0  0  0  0  0  0  0  0
  1  2  2  0  0  0  0
  1 12  1  0  0  0  0
  2  3  1  0  0  0  0
  3  4  2  0  0  0  0
  4 11  1  0  0  0  0
  5  4  1  0  0  0  0
  5 10  1  0  0  0  0
  6  1  1  0  0  0  0
  7  2  1  0  0  0  0
  8  9  3  0  0  0  0
 12  5  2  0  0  0  0
M  RAD  1   3   2
M  END
