Coordinates from ORCA-job Pyridine-4-N2+-scan-d09-160-n800
 OpenBabel09191813523D

 12 11  0  0  0  0  0  0  0  0999 V2000
   -2.1730    0.1566   -1.0465 C   0  0  0  0  0  0  0  0  0  0  0  0
   -0.7209    0.0250   -0.9863 C   0  0  0  0  0  0  0  0  0  0  0  0
   -0.3140    0.8450   -0.0274 C   0  0  0  0  0  0  0  0  0  0  0  0
   -0.8193    1.7046    0.8463 C   0  0  0  0  0  0  0  0  0  0  0  0
   -2.2633    1.6986    0.6360 C   0  0  0  0  0  0  0  0  0  0  0  0
   -2.6736   -0.4586   -1.7934 H   0  0  0  0  0  0  0  0  0  0  0  0
   -0.1907   -0.6467   -1.6499 H   0  0  0  0  0  0  0  0  0  0  0  0
    2.5932    0.7188    0.2442 N   0  0  0  0  0  0  0  0  0  0  0  0
    3.6923    0.6710    0.3468 N   0  0  0  0  0  0  0  0  0  0  0  0
   -2.8388    2.3604    1.2825 H   0  0  0  0  0  0  0  0  0  0  0  0
   -0.3653    2.3336    1.6020 H   0  0  0  0  0  0  0  0  0  0  0  0
   -2.8571    0.9553   -0.2649 N   0  0  0  0  0  0  0  0  0  0  0  0
  1  2  2  0  0  0  0
  1 12  1  0  0  0  0
  2  3  1  0  0  0  0
  3  4  2  0  0  0  0
  4 11  1  0  0  0  0
  5  4  1  0  0  0  0
  5 10  1  0  0  0  0
  6  1  1  0  0  0  0
  7  2  1  0  0  0  0
  8  9  3  0  0  0  0
 12  5  2  0  0  0  0
M  RAD  1   3   2
M  END
