Coordinates from ORCA-job Pyridine-4-N2+-scan-d09-160-n800
 OpenBabel09191813533D

 12 11  0  0  0  0  0  0  0  0999 V2000
   -4.3409    0.2468   -1.2533 C   0  0  0  0  0  0  0  0  0  0  0  0
   -2.8833    0.1511   -1.1533 C   0  0  0  0  0  0  0  0  0  0  0  0
   -2.5256    0.9835   -0.1878 C   0  0  0  0  0  0  0  0  0  0  0  0
   -3.0707    1.8329    0.6692 C   0  0  0  0  0  0  0  0  0  0  0  0
   -4.5130    1.7916    0.4208 C   0  0  0  0  0  0  0  0  0  0  0  0
   -4.8026   -0.3843   -2.0122 H   0  0  0  0  0  0  0  0  0  0  0  0
   -2.3257   -0.5122   -1.8039 H   0  0  0  0  0  0  0  0  0  0  0  0
   13.6335    0.1757    1.2061 N   0  0  0  0  0  0  0  0  0  0  0  0
   14.7332    0.1269    1.3078 N   0  0  0  0  0  0  0  0  0  0  0  0
   -5.1176    2.4428    1.0515 H   0  0  0  0  0  0  0  0  0  0  0  0
   -2.6589    2.4780    1.4364 H   0  0  0  0  0  0  0  0  0  0  0  0
   -5.0588    1.0311   -0.4922 N   0  0  0  0  0  0  0  0  0  0  0  0
  1  2  2  0  0  0  0
  1 12  1  0  0  0  0
  2  3  1  0  0  0  0
  3  4  2  0  0  0  0
  4 11  1  0  0  0  0
  5  4  1  0  0  0  0
  5 10  1  0  0  0  0
  6  1  1  0  0  0  0
  7  2  1  0  0  0  0
  8  9  3  0  0  0  0
 12  5  2  0  0  0  0
M  RAD  1   3   2
M  END
