Coordinates from ORCA-job Pyridine-4-N2+-scan-d09-160-n800
 OpenBabel09191813523D

 12 12  0  0  0  0  0  0  0  0999 V2000
   -1.9691    0.1407   -1.0352 C   0  0  0  0  0  0  0  0  0  0  0  0
   -0.5645    0.0197   -0.9700 C   0  0  0  0  0  0  0  0  0  0  0  0
   -0.0355    0.8329   -0.0014 C   0  0  0  0  0  0  0  0  0  0  0  0
   -0.6627    1.6962    0.8593 C   0  0  0  0  0  0  0  0  0  0  0  0
   -2.0602    1.6969    0.6628 C   0  0  0  0  0  0  0  0  0  0  0  0
   -2.5138   -0.4534   -1.7653 H   0  0  0  0  0  0  0  0  0  0  0  0
   -0.0021   -0.6413   -1.6173 H   0  0  0  0  0  0  0  0  0  0  0  0
    1.6565    0.7595    0.1567 N   0  0  0  0  0  0  0  0  0  0  0  0
    2.7555    0.7117    0.2593 N   0  0  0  0  0  0  0  0  0  0  0  0
   -2.6774    2.3414    1.2843 H   0  0  0  0  0  0  0  0  0  0  0  0
   -0.1750    2.3116    1.6047 H   0  0  0  0  0  0  0  0  0  0  0  0
   -2.6822    0.9477   -0.2486 N   0  0  0  0  0  0  0  0  0  0  0  0
  1  2  2  0  0  0  0
  1 12  1  0  0  0  0
  2  3  1  0  0  0  0
  3  8  1  0  0  0  0
  3  4  2  0  0  0  0
  4 11  1  0  0  0  0
  5  4  1  0  0  0  0
  5 10  1  0  0  0  0
  6  1  1  0  0  0  0
  7  2  1  0  0  0  0
  8  9  1  0  0  0  0
 12  5  2  0  0  0  0
M  RAD  2   8   2   9   3
M  END
