Coordinates from ORCA-job Pyridine-4-N2+-scan-d09-160-n800
 OpenBabel09191813533D

 12 11  0  0  0  0  0  0  0  0999 V2000
   -4.3377    0.2467   -1.2530 C   0  0  0  0  0  0  0  0  0  0  0  0
   -2.8801    0.1509   -1.1530 C   0  0  0  0  0  0  0  0  0  0  0  0
   -2.5223    0.9833   -0.1875 C   0  0  0  0  0  0  0  0  0  0  0  0
   -3.0673    1.8327    0.6695 C   0  0  0  0  0  0  0  0  0  0  0  0
   -4.5096    1.7915    0.4211 C   0  0  0  0  0  0  0  0  0  0  0  0
   -4.7995   -0.3844   -2.0118 H   0  0  0  0  0  0  0  0  0  0  0  0
   -2.3225   -0.5124   -1.8037 H   0  0  0  0  0  0  0  0  0  0  0  0
   13.6169    0.1765    1.2047 N   0  0  0  0  0  0  0  0  0  0  0  0
   14.7166    0.1277    1.3064 N   0  0  0  0  0  0  0  0  0  0  0  0
   -5.1142    2.4427    1.0519 H   0  0  0  0  0  0  0  0  0  0  0  0
   -2.6554    2.4777    1.4367 H   0  0  0  0  0  0  0  0  0  0  0  0
   -5.0554    1.0310   -0.4918 N   0  0  0  0  0  0  0  0  0  0  0  0
  1  2  2  0  0  0  0
  1 12  1  0  0  0  0
  2  3  1  0  0  0  0
  3  4  2  0  0  0  0
  4 11  1  0  0  0  0
  5  4  1  0  0  0  0
  5 10  1  0  0  0  0
  6  1  1  0  0  0  0
  7  2  1  0  0  0  0
  8  9  3  0  0  0  0
 12  5  2  0  0  0  0
M  RAD  1   3   2
M  END
