Coordinates from ORCA-job Pyridine-4-N2+-scan-d09-160-n800
 OpenBabel09191813523D

 12 11  0  0  0  0  0  0  0  0999 V2000
   -2.7804    0.1824   -1.1037 C   0  0  0  0  0  0  0  0  0  0  0  0
   -1.3233    0.0559   -1.0377 C   0  0  0  0  0  0  0  0  0  0  0  0
   -0.9263    0.8776   -0.0785 C   0  0  0  0  0  0  0  0  0  0  0  0
   -1.4333    1.7355    0.7933 C   0  0  0  0  0  0  0  0  0  0  0  0
   -2.8814    1.7251    0.5781 C   0  0  0  0  0  0  0  0  0  0  0  0
   -3.2728   -0.4364   -1.8533 H   0  0  0  0  0  0  0  0  0  0  0  0
   -0.7945   -0.6167   -1.7027 H   0  0  0  0  0  0  0  0  0  0  0  0
    5.6468    0.5773    0.5199 N   0  0  0  0  0  0  0  0  0  0  0  0
    6.7465    0.5279    0.6211 N   0  0  0  0  0  0  0  0  0  0  0  0
   -3.4576    2.3867    1.2244 H   0  0  0  0  0  0  0  0  0  0  0  0
   -0.9901    2.3692    1.5524 H   0  0  0  0  0  0  0  0  0  0  0  0
   -3.4641    0.9791   -0.3240 N   0  0  0  0  0  0  0  0  0  0  0  0
  1  2  2  0  0  0  0
  1 12  1  0  0  0  0
  2  3  1  0  0  0  0
  3  4  2  0  0  0  0
  4 11  1  0  0  0  0
  5  4  1  0  0  0  0
  5 10  1  0  0  0  0
  6  1  1  0  0  0  0
  7  2  1  0  0  0  0
  8  9  3  0  0  0  0
 12  5  2  0  0  0  0
M  RAD  1   3   2
M  END
