Coordinates from ORCA-job Pyridine-4-N2+-scan-d09-160-n800
 OpenBabel09191813533D

 12 11  0  0  0  0  0  0  0  0999 V2000
   -3.3397    0.2056   -1.1571 C   0  0  0  0  0  0  0  0  0  0  0  0
   -1.8822    0.0893   -1.0800 C   0  0  0  0  0  0  0  0  0  0  0  0
   -1.4979    0.9146   -0.1187 C   0  0  0  0  0  0  0  0  0  0  0  0
   -2.0176    1.7697    0.7484 C   0  0  0  0  0  0  0  0  0  0  0  0
   -3.4640    1.7492    0.5224 C   0  0  0  0  0  0  0  0  0  0  0  0
   -3.8220   -0.4174   -1.9098 H   0  0  0  0  0  0  0  0  0  0  0  0
   -1.3441   -0.5803   -1.7406 H   0  0  0  0  0  0  0  0  0  0  0  0
    8.5029    0.4356    0.7675 N   0  0  0  0  0  0  0  0  0  0  0  0
    9.6028    0.3843    0.8666 N   0  0  0  0  0  0  0  0  0  0  0  0
   -4.0495    2.4074    1.1637 H   0  0  0  0  0  0  0  0  0  0  0  0
   -1.5848    2.4074    1.5102 H   0  0  0  0  0  0  0  0  0  0  0  0
   -4.0345    0.9983   -0.3834 N   0  0  0  0  0  0  0  0  0  0  0  0
  1  2  2  0  0  0  0
  1 12  1  0  0  0  0
  2  3  1  0  0  0  0
  3  4  2  0  0  0  0
  4 11  1  0  0  0  0
  5  4  1  0  0  0  0
  5 10  1  0  0  0  0
  6  1  1  0  0  0  0
  7  2  1  0  0  0  0
  8  9  3  0  0  0  0
 12  5  2  0  0  0  0
M  RAD  1   3   2
M  END
