Coordinates from ORCA-job Pyridine-4-N2+-scan-d09-160-n800
 OpenBabel09191813523D

 12 11  0  0  0  0  0  0  0  0999 V2000
   -2.3932    0.1661   -1.0671 C   0  0  0  0  0  0  0  0  0  0  0  0
   -0.9368    0.0350   -1.0059 C   0  0  0  0  0  0  0  0  0  0  0  0
   -0.5349    0.8553   -0.0474 C   0  0  0  0  0  0  0  0  0  0  0  0
   -1.0363    1.7145    0.8265 C   0  0  0  0  0  0  0  0  0  0  0  0
   -2.4846    1.7082    0.6155 C   0  0  0  0  0  0  0  0  0  0  0  0
   -2.8900   -0.4508   -1.8154 H   0  0  0  0  0  0  0  0  0  0  0  0
   -0.4106   -0.6384   -1.6720 H   0  0  0  0  0  0  0  0  0  0  0  0
    3.6870    0.6703    0.3453 N   0  0  0  0  0  0  0  0  0  0  0  0
    4.7865    0.6221    0.4477 N   0  0  0  0  0  0  0  0  0  0  0  0
   -3.0573    2.3711    1.2635 H   0  0  0  0  0  0  0  0  0  0  0  0
   -0.5875    2.3459    1.5840 H   0  0  0  0  0  0  0  0  0  0  0  0
   -3.0730    0.9644   -0.2853 N   0  0  0  0  0  0  0  0  0  0  0  0
  1  2  2  0  0  0  0
  1 12  1  0  0  0  0
  2  3  1  0  0  0  0
  3  4  2  0  0  0  0
  4 11  1  0  0  0  0
  5  4  1  0  0  0  0
  5 10  1  0  0  0  0
  6  1  1  0  0  0  0
  7  2  1  0  0  0  0
  8  9  3  0  0  0  0
 12  5  2  0  0  0  0
M  RAD  1   3   2
M  END
