Coordinates from ORCA-job Pyridine-4-N2+-scan-d09-160-n800
 OpenBabel09191813523D

 12 11  0  0  0  0  0  0  0  0999 V2000
   -2.4559    0.1688   -1.0730 C   0  0  0  0  0  0  0  0  0  0  0  0
   -0.9993    0.0381   -1.0114 C   0  0  0  0  0  0  0  0  0  0  0  0
   -0.5979    0.8585   -0.0528 C   0  0  0  0  0  0  0  0  0  0  0  0
   -1.0998    1.7176    0.8209 C   0  0  0  0  0  0  0  0  0  0  0  0
   -2.5482    1.7110    0.6095 C   0  0  0  0  0  0  0  0  0  0  0  0
   -2.9523   -0.4484   -1.8214 H   0  0  0  0  0  0  0  0  0  0  0  0
   -0.4733   -0.6354   -1.6776 H   0  0  0  0  0  0  0  0  0  0  0  0
    4.0026    0.6558    0.3740 N   0  0  0  0  0  0  0  0  0  0  0  0
    5.1021    0.6075    0.4762 N   0  0  0  0  0  0  0  0  0  0  0  0
   -3.1210    2.3738    1.2575 H   0  0  0  0  0  0  0  0  0  0  0  0
   -0.6518    2.3494    1.5787 H   0  0  0  0  0  0  0  0  0  0  0  0
   -3.1359    0.9669   -0.2913 N   0  0  0  0  0  0  0  0  0  0  0  0
  1  2  2  0  0  0  0
  1 12  1  0  0  0  0
  2  3  1  0  0  0  0
  3  4  2  0  0  0  0
  4 11  1  0  0  0  0
  5  4  1  0  0  0  0
  5 10  1  0  0  0  0
  6  1  1  0  0  0  0
  7  2  1  0  0  0  0
  8  9  3  0  0  0  0
 12  5  2  0  0  0  0
M  RAD  1   3   2
M  END
