Coordinates from ORCA-job Pyridine-4-N2+-scan-d09-160-n800
 OpenBabel09191813523D

 12 11  0  0  0  0  0  0  0  0999 V2000
   -2.4823    0.1699   -1.0755 C   0  0  0  0  0  0  0  0  0  0  0  0
   -1.0256    0.0394   -1.0137 C   0  0  0  0  0  0  0  0  0  0  0  0
   -0.6244    0.8599   -0.0550 C   0  0  0  0  0  0  0  0  0  0  0  0
   -1.1265    1.7189    0.8186 C   0  0  0  0  0  0  0  0  0  0  0  0
   -2.5750    1.7121    0.6070 C   0  0  0  0  0  0  0  0  0  0  0  0
   -2.9784   -0.4473   -1.8240 H   0  0  0  0  0  0  0  0  0  0  0  0
   -0.4996   -0.6340   -1.6799 H   0  0  0  0  0  0  0  0  0  0  0  0
    4.1354    0.6497    0.3860 N   0  0  0  0  0  0  0  0  0  0  0  0
    5.2350    0.6013    0.4882 N   0  0  0  0  0  0  0  0  0  0  0  0
   -3.1480    2.3749    1.2549 H   0  0  0  0  0  0  0  0  0  0  0  0
   -0.6789    2.3509    1.5765 H   0  0  0  0  0  0  0  0  0  0  0  0
   -3.1624    0.9680   -0.2939 N   0  0  0  0  0  0  0  0  0  0  0  0
  1  2  2  0  0  0  0
  1 12  1  0  0  0  0
  2  3  1  0  0  0  0
  3  4  2  0  0  0  0
  4 11  1  0  0  0  0
  5  4  1  0  0  0  0
  5 10  1  0  0  0  0
  6  1  1  0  0  0  0
  7  2  1  0  0  0  0
  8  9  3  0  0  0  0
 12  5  2  0  0  0  0
M  RAD  1   3   2
M  END
