Coordinates from ORCA-job Pyridine-4-N2+-scan-d09-160-n800
 OpenBabel09191813523D

 12 11  0  0  0  0  0  0  0  0999 V2000
   -3.1838    0.1992   -1.1421 C   0  0  0  0  0  0  0  0  0  0  0  0
   -1.7264    0.0799   -1.0684 C   0  0  0  0  0  0  0  0  0  0  0  0
   -1.3383    0.9042   -0.1076 C   0  0  0  0  0  0  0  0  0  0  0  0
   -1.8544    1.7601    0.7608 C   0  0  0  0  0  0  0  0  0  0  0  0
   -3.3013    1.7425    0.5380 C   0  0  0  0  0  0  0  0  0  0  0  0
   -3.6690   -0.4227   -1.8940 H   0  0  0  0  0  0  0  0  0  0  0  0
   -1.1910   -0.5906   -1.7302 H   0  0  0  0  0  0  0  0  0  0  0  0
    7.7059    0.4754    0.6986 N   0  0  0  0  0  0  0  0  0  0  0  0
    8.8057    0.4245    0.7982 N   0  0  0  0  0  0  0  0  0  0  0  0
   -3.8841    2.4017    1.1808 H   0  0  0  0  0  0  0  0  0  0  0  0
   -1.4186    2.3966    1.5219 H   0  0  0  0  0  0  0  0  0  0  0  0
   -3.8754    0.9930   -0.3667 N   0  0  0  0  0  0  0  0  0  0  0  0
  1  2  2  0  0  0  0
  1 12  1  0  0  0  0
  2  3  1  0  0  0  0
  3  4  2  0  0  0  0
  4 11  1  0  0  0  0
  5  4  1  0  0  0  0
  5 10  1  0  0  0  0
  6  1  1  0  0  0  0
  7  2  1  0  0  0  0
  8  9  3  0  0  0  0
 12  5  2  0  0  0  0
M  RAD  1   3   2
M  END
