Coordinates from ORCA-job Pyridine-4-N2+-scan-d09-160-n800
 OpenBabel09191813523D

 12 11  0  0  0  0  0  0  0  0999 V2000
   -2.9140    0.1880   -1.1164 C   0  0  0  0  0  0  0  0  0  0  0  0
   -1.4568    0.0637   -1.0480 C   0  0  0  0  0  0  0  0  0  0  0  0
   -1.0625    0.8863   -0.0883 C   0  0  0  0  0  0  0  0  0  0  0  0
   -1.5724    1.7435    0.7825 C   0  0  0  0  0  0  0  0  0  0  0  0
   -3.0202    1.7309    0.5649 C   0  0  0  0  0  0  0  0  0  0  0  0
   -3.4041   -0.4318   -1.8667 H   0  0  0  0  0  0  0  0  0  0  0  0
   -0.9259   -0.6082   -1.7121 H   0  0  0  0  0  0  0  0  0  0  0  0
    6.3277    0.5438    0.5792 N   0  0  0  0  0  0  0  0  0  0  0  0
    7.4274    0.4939    0.6798 N   0  0  0  0  0  0  0  0  0  0  0  0
   -3.5984    2.3917    1.2101 H   0  0  0  0  0  0  0  0  0  0  0  0
   -1.1315    2.3781    1.5422 H   0  0  0  0  0  0  0  0  0  0  0  0
   -3.6001    0.9838   -0.3380 N   0  0  0  0  0  0  0  0  0  0  0  0
  1  2  2  0  0  0  0
  1 12  1  0  0  0  0
  2  3  1  0  0  0  0
  3  4  2  0  0  0  0
  4 11  1  0  0  0  0
  5  4  1  0  0  0  0
  5 10  1  0  0  0  0
  6  1  1  0  0  0  0
  7  2  1  0  0  0  0
  8  9  3  0  0  0  0
 12  5  2  0  0  0  0
M  RAD  1   3   2
M  END
