Coordinates from ORCA-job Pyridine-4-N2+-scan-d09-160-n800
 OpenBabel09191813533D

 12 11  0  0  0  0  0  0  0  0999 V2000
   -4.0534    0.2351   -1.2255 C   0  0  0  0  0  0  0  0  0  0  0  0
   -2.5957    0.1328   -1.1328 C   0  0  0  0  0  0  0  0  0  0  0  0
   -2.2295    0.9630   -0.1686 C   0  0  0  0  0  0  0  0  0  0  0  0
   -2.7665    1.8143    0.6917 C   0  0  0  0  0  0  0  0  0  0  0  0
   -4.2102    1.7796    0.4504 C   0  0  0  0  0  0  0  0  0  0  0  0
   -4.5217   -0.3934   -1.9824 H   0  0  0  0  0  0  0  0  0  0  0  0
   -2.0443   -0.5325   -1.7866 H   0  0  0  0  0  0  0  0  0  0  0  0
   12.1558    0.2516    1.0810 N   0  0  0  0  0  0  0  0  0  0  0  0
   13.2556    0.2010    1.1807 N   0  0  0  0  0  0  0  0  0  0  0  0
   -4.8088    2.4331    1.0845 H   0  0  0  0  0  0  0  0  0  0  0  0
   -2.3480    2.4570    1.4572 H   0  0  0  0  0  0  0  0  0  0  0  0
   -4.7639    1.0221   -0.4603 N   0  0  0  0  0  0  0  0  0  0  0  0
  1  2  2  0  0  0  0
  1 12  1  0  0  0  0
  2  3  1  0  0  0  0
  3  4  2  0  0  0  0
  4 11  1  0  0  0  0
  5  4  1  0  0  0  0
  5 10  1  0  0  0  0
  6  1  1  0  0  0  0
  7  2  1  0  0  0  0
  8  9  3  0  0  0  0
 12  5  2  0  0  0  0
M  RAD  1   3   2
M  END
