Coordinates from ORCA-job Pyridine-4-N2+-scan-d09-160-n800
 OpenBabel09191813523D

 12 11  0  0  0  0  0  0  0  0999 V2000
   -2.5054    0.1708   -1.0777 C   0  0  0  0  0  0  0  0  0  0  0  0
   -1.0487    0.0407   -1.0155 C   0  0  0  0  0  0  0  0  0  0  0  0
   -0.6476    0.8612   -0.0569 C   0  0  0  0  0  0  0  0  0  0  0  0
   -1.1500    1.7200    0.8165 C   0  0  0  0  0  0  0  0  0  0  0  0
   -2.5985    1.7132    0.6049 C   0  0  0  0  0  0  0  0  0  0  0  0
   -3.0012   -0.4465   -1.8263 H   0  0  0  0  0  0  0  0  0  0  0  0
   -0.5224   -0.6327   -1.6817 H   0  0  0  0  0  0  0  0  0  0  0  0
    4.2517    0.6443    0.3965 N   0  0  0  0  0  0  0  0  0  0  0  0
    5.3513    0.5958    0.4986 N   0  0  0  0  0  0  0  0  0  0  0  0
   -3.1716    2.3759    1.2527 H   0  0  0  0  0  0  0  0  0  0  0  0
   -0.7026    2.3521    1.5744 H   0  0  0  0  0  0  0  0  0  0  0  0
   -3.1855    0.9689   -0.2961 N   0  0  0  0  0  0  0  0  0  0  0  0
  1  2  2  0  0  0  0
  1 12  1  0  0  0  0
  2  3  1  0  0  0  0
  3  4  2  0  0  0  0
  4 11  1  0  0  0  0
  5  4  1  0  0  0  0
  5 10  1  0  0  0  0
  6  1  1  0  0  0  0
  7  2  1  0  0  0  0
  8  9  3  0  0  0  0
 12  5  2  0  0  0  0
M  RAD  1   3   2
M  END
