Coordinates from ORCA-job Pyridine-4-N2+-scan-d09-160-n800
 OpenBabel09191813523D

 12 11  0  0  0  0  0  0  0  0999 V2000
   -2.1899    0.1573   -1.0481 C   0  0  0  0  0  0  0  0  0  0  0  0
   -0.7369    0.0257   -0.9878 C   0  0  0  0  0  0  0  0  0  0  0  0
   -0.3314    0.8458   -0.0290 C   0  0  0  0  0  0  0  0  0  0  0  0
   -0.8353    1.7053    0.8449 C   0  0  0  0  0  0  0  0  0  0  0  0
   -2.2802    1.6993    0.6345 C   0  0  0  0  0  0  0  0  0  0  0  0
   -2.6898   -0.4581   -1.7953 H   0  0  0  0  0  0  0  0  0  0  0  0
   -0.2073   -0.6463   -1.6518 H   0  0  0  0  0  0  0  0  0  0  0  0
    2.6754    0.7152    0.2518 N   0  0  0  0  0  0  0  0  0  0  0  0
    3.7746    0.6674    0.3544 N   0  0  0  0  0  0  0  0  0  0  0  0
   -2.8550    2.3614    1.2812 H   0  0  0  0  0  0  0  0  0  0  0  0
   -0.3819    2.3347    1.6008 H   0  0  0  0  0  0  0  0  0  0  0  0
   -2.8731    0.9560   -0.2664 N   0  0  0  0  0  0  0  0  0  0  0  0
  1  2  2  0  0  0  0
  1 12  1  0  0  0  0
  2  3  1  0  0  0  0
  3  4  2  0  0  0  0
  4 11  1  0  0  0  0
  5  4  1  0  0  0  0
  5 10  1  0  0  0  0
  6  1  1  0  0  0  0
  7  2  1  0  0  0  0
  8  9  3  0  0  0  0
 12  5  2  0  0  0  0
M  RAD  1   3   2
M  END
