Coordinates from ORCA-job Pyridine-4-N2+-scan-d09-160-n800
 OpenBabel09191813523D

 12 11  0  0  0  0  0  0  0  0999 V2000
   -2.5974    0.1747   -1.0863 C   0  0  0  0  0  0  0  0  0  0  0  0
   -1.1405    0.0456   -1.0232 C   0  0  0  0  0  0  0  0  0  0  0  0
   -0.7404    0.8664   -0.0645 C   0  0  0  0  0  0  0  0  0  0  0  0
   -1.2441    1.7249    0.8085 C   0  0  0  0  0  0  0  0  0  0  0  0
   -2.6925    1.7172    0.5960 C   0  0  0  0  0  0  0  0  0  0  0  0
   -3.0923   -0.4430   -1.8352 H   0  0  0  0  0  0  0  0  0  0  0  0
   -0.6138   -0.6277   -1.6892 H   0  0  0  0  0  0  0  0  0  0  0  0
    4.7168    0.6224    0.4381 N   0  0  0  0  0  0  0  0  0  0  0  0
    5.8164    0.5736    0.5399 N   0  0  0  0  0  0  0  0  0  0  0  0
   -3.2664    2.3796    1.2435 H   0  0  0  0  0  0  0  0  0  0  0  0
   -0.7979    2.3575    1.5668 H   0  0  0  0  0  0  0  0  0  0  0  0
   -3.2784    0.9725   -0.3052 N   0  0  0  0  0  0  0  0  0  0  0  0
  1  2  2  0  0  0  0
  1 12  1  0  0  0  0
  2  3  1  0  0  0  0
  3  4  2  0  0  0  0
  4 11  1  0  0  0  0
  5  4  1  0  0  0  0
  5 10  1  0  0  0  0
  6  1  1  0  0  0  0
  7  2  1  0  0  0  0
  8  9  3  0  0  0  0
 12  5  2  0  0  0  0
M  RAD  1   3   2
M  END
