Coordinates from ORCA-job Pyridine-4-N2+-scan-d09-160-n800
 OpenBabel09191813523D

 12 12  0  0  0  0  0  0  0  0999 V2000
   -1.9580    0.1390   -1.0356 C   0  0  0  0  0  0  0  0  0  0  0  0
   -0.5581    0.0204   -0.9684 C   0  0  0  0  0  0  0  0  0  0  0  0
   -0.0079    0.8317    0.0012 C   0  0  0  0  0  0  0  0  0  0  0  0
   -0.6561    1.6950    0.8589 C   0  0  0  0  0  0  0  0  0  0  0  0
   -2.0493    1.6976    0.6652 C   0  0  0  0  0  0  0  0  0  0  0  0
   -2.5069   -0.4530   -1.7638 H   0  0  0  0  0  0  0  0  0  0  0  0
    0.0059   -0.6404   -1.6153 H   0  0  0  0  0  0  0  0  0  0  0  0
    1.6045    0.7617    0.1518 N   0  0  0  0  0  0  0  0  0  0  0  0
    2.7045    0.7140    0.2546 N   0  0  0  0  0  0  0  0  0  0  0  0
   -2.6704    2.3404    1.2841 H   0  0  0  0  0  0  0  0  0  0  0  0
   -0.1669    2.3101    1.6042 H   0  0  0  0  0  0  0  0  0  0  0  0
   -2.6719    0.9473   -0.2476 N   0  0  0  0  0  0  0  0  0  0  0  0
  1  2  2  0  0  0  0
  1 12  1  0  0  0  0
  2  3  1  0  0  0  0
  3  8  1  0  0  0  0
  3  4  2  0  0  0  0
  4 11  1  0  0  0  0
  5  4  1  0  0  0  0
  5 10  1  0  0  0  0
  6  1  1  0  0  0  0
  7  2  1  0  0  0  0
  8  9  1  0  0  0  0
 12  5  2  0  0  0  0
M  RAD  2   8   2   9   3
M  END
