Coordinates from ORCA-job Pyridine-4-N2+-scan-d09-160-n800
 OpenBabel09191813523D

 12 11  0  0  0  0  0  0  0  0999 V2000
   -2.7348    0.1805   -1.0993 C   0  0  0  0  0  0  0  0  0  0  0  0
   -1.2777    0.0533   -1.0342 C   0  0  0  0  0  0  0  0  0  0  0  0
   -0.8798    0.8747   -0.0751 C   0  0  0  0  0  0  0  0  0  0  0  0
   -1.3859    1.7328    0.7971 C   0  0  0  0  0  0  0  0  0  0  0  0
   -2.8341    1.7232    0.5826 C   0  0  0  0  0  0  0  0  0  0  0  0
   -3.2278   -0.4380   -1.8488 H   0  0  0  0  0  0  0  0  0  0  0  0
   -0.7495   -0.6195   -1.6995 H   0  0  0  0  0  0  0  0  0  0  0  0
    5.4143    0.5887    0.4996 N   0  0  0  0  0  0  0  0  0  0  0  0
    6.5140    0.5394    0.6009 N   0  0  0  0  0  0  0  0  0  0  0  0
   -3.4097    2.3850    1.2292 H   0  0  0  0  0  0  0  0  0  0  0  0
   -0.9419    2.3662    1.5559 H   0  0  0  0  0  0  0  0  0  0  0  0
   -3.4177    0.9775   -0.3193 N   0  0  0  0  0  0  0  0  0  0  0  0
  1  2  2  0  0  0  0
  1 12  1  0  0  0  0
  2  3  1  0  0  0  0
  3  4  2  0  0  0  0
  4 11  1  0  0  0  0
  5  4  1  0  0  0  0
  5 10  1  0  0  0  0
  6  1  1  0  0  0  0
  7  2  1  0  0  0  0
  8  9  3  0  0  0  0
 12  5  2  0  0  0  0
M  RAD  1   3   2
M  END
