Coordinates from ORCA-job Pyridine-4-N2+-scan-d09-160-n800
 OpenBabel09191813523D

 12 11  0  0  0  0  0  0  0  0999 V2000
   -2.9693    0.1903   -1.1216 C   0  0  0  0  0  0  0  0  0  0  0  0
   -1.5120    0.0670   -1.0522 C   0  0  0  0  0  0  0  0  0  0  0  0
   -1.1190    0.8899   -0.0923 C   0  0  0  0  0  0  0  0  0  0  0  0
   -1.6301    1.7469    0.7780 C   0  0  0  0  0  0  0  0  0  0  0  0
   -3.0777    1.7333    0.5594 C   0  0  0  0  0  0  0  0  0  0  0  0
   -3.4584   -0.4299   -1.8723 H   0  0  0  0  0  0  0  0  0  0  0  0
   -0.9803   -0.6046   -1.7158 H   0  0  0  0  0  0  0  0  0  0  0  0
    6.6100    0.5298    0.6037 N   0  0  0  0  0  0  0  0  0  0  0  0
    7.7097    0.4797    0.7041 N   0  0  0  0  0  0  0  0  0  0  0  0
   -3.6569    2.3938    1.2041 H   0  0  0  0  0  0  0  0  0  0  0  0
   -1.1902    2.3819    1.5380 H   0  0  0  0  0  0  0  0  0  0  0  0
   -3.6565    0.9857   -0.3439 N   0  0  0  0  0  0  0  0  0  0  0  0
  1  2  2  0  0  0  0
  1 12  1  0  0  0  0
  2  3  1  0  0  0  0
  3  4  2  0  0  0  0
  4 11  1  0  0  0  0
  5  4  1  0  0  0  0
  5 10  1  0  0  0  0
  6  1  1  0  0  0  0
  7  2  1  0  0  0  0
  8  9  3  0  0  0  0
 12  5  2  0  0  0  0
M  RAD  1   3   2
M  END
