Coordinates from ORCA-job Pyridine-4-N2+-scan-d09-160-n800
 OpenBabel09191813523D

 12 12  0  0  0  0  0  0  0  0999 V2000
   -1.9809    0.1426   -1.0348 C   0  0  0  0  0  0  0  0  0  0  0  0
   -0.5712    0.0194   -0.9713 C   0  0  0  0  0  0  0  0  0  0  0  0
   -0.0618    0.8340   -0.0038 C   0  0  0  0  0  0  0  0  0  0  0  0
   -0.6694    1.6971    0.8593 C   0  0  0  0  0  0  0  0  0  0  0  0
   -2.0719    1.6960    0.6602 C   0  0  0  0  0  0  0  0  0  0  0  0
   -2.5205   -0.4541   -1.7669 H   0  0  0  0  0  0  0  0  0  0  0  0
   -0.0114   -0.6422   -1.6197 H   0  0  0  0  0  0  0  0  0  0  0  0
    1.7099    0.7571    0.1617 N   0  0  0  0  0  0  0  0  0  0  0  0
    2.8083    0.7095    0.2643 N   0  0  0  0  0  0  0  0  0  0  0  0
   -2.6843    2.3426    1.2847 H   0  0  0  0  0  0  0  0  0  0  0  0
   -0.1845    2.3134    1.6053 H   0  0  0  0  0  0  0  0  0  0  0  0
   -2.6929    0.9482   -0.2496 N   0  0  0  0  0  0  0  0  0  0  0  0
  1  2  2  0  0  0  0
  1 12  1  0  0  0  0
  2  3  1  0  0  0  0
  3  8  1  0  0  0  0
  3  4  2  0  0  0  0
  4 11  1  0  0  0  0
  5  4  1  0  0  0  0
  5 10  1  0  0  0  0
  6  1  1  0  0  0  0
  7  2  1  0  0  0  0
  8  9  1  0  0  0  0
 12  5  2  0  0  0  0
M  RAD  2   8   2   9   3
M  END
