Coordinates from ORCA-job Pyridine-4-N2+-scan-d09-160-n800
 OpenBabel09191813523D

 12 11  0  0  0  0  0  0  0  0999 V2000
   -3.1773    0.1989   -1.1415 C   0  0  0  0  0  0  0  0  0  0  0  0
   -1.7199    0.0795   -1.0679 C   0  0  0  0  0  0  0  0  0  0  0  0
   -1.3317    0.9037   -0.1071 C   0  0  0  0  0  0  0  0  0  0  0  0
   -1.8476    1.7597    0.7613 C   0  0  0  0  0  0  0  0  0  0  0  0
   -3.2945    1.7422    0.5386 C   0  0  0  0  0  0  0  0  0  0  0  0
   -3.6626   -0.4229   -1.8933 H   0  0  0  0  0  0  0  0  0  0  0  0
   -1.1846   -0.5910   -1.7298 H   0  0  0  0  0  0  0  0  0  0  0  0
    7.6727    0.4770    0.6958 N   0  0  0  0  0  0  0  0  0  0  0  0
    8.7725    0.4262    0.7954 N   0  0  0  0  0  0  0  0  0  0  0  0
   -3.8772    2.4015    1.1815 H   0  0  0  0  0  0  0  0  0  0  0  0
   -1.4116    2.3962    1.5224 H   0  0  0  0  0  0  0  0  0  0  0  0
   -3.8687    0.9928   -0.3660 N   0  0  0  0  0  0  0  0  0  0  0  0
  1  2  2  0  0  0  0
  1 12  1  0  0  0  0
  2  3  1  0  0  0  0
  3  4  2  0  0  0  0
  4 11  1  0  0  0  0
  5  4  1  0  0  0  0
  5 10  1  0  0  0  0
  6  1  1  0  0  0  0
  7  2  1  0  0  0  0
  8  9  3  0  0  0  0
 12  5  2  0  0  0  0
M  RAD  1   3   2
M  END
