Coordinates from ORCA-job Pyridine-4-N2+-scan-d09-160-n800
 OpenBabel09191813523D

 12 11  0  0  0  0  0  0  0  0999 V2000
   -2.0335    0.1491   -1.0351 C   0  0  0  0  0  0  0  0  0  0  0  0
   -0.6042    0.0206   -0.9747 C   0  0  0  0  0  0  0  0  0  0  0  0
   -0.1494    0.8378   -0.0120 C   0  0  0  0  0  0  0  0  0  0  0  0
   -0.7025    1.6989    0.8566 C   0  0  0  0  0  0  0  0  0  0  0  0
   -2.1240    1.6940    0.6506 C   0  0  0  0  0  0  0  0  0  0  0  0
   -2.5535   -0.4571   -1.7750 H   0  0  0  0  0  0  0  0  0  0  0  0
   -0.0582   -0.6454   -1.6298 H   0  0  0  0  0  0  0  0  0  0  0  0
    1.9410    0.7471    0.1833 N   0  0  0  0  0  0  0  0  0  0  0  0
    3.0395    0.6994    0.2859 N   0  0  0  0  0  0  0  0  0  0  0  0
   -2.7177    2.3486    1.2865 H   0  0  0  0  0  0  0  0  0  0  0  0
   -0.2319    2.3207    1.6066 H   0  0  0  0  0  0  0  0  0  0  0  0
   -2.7362    0.9501   -0.2536 N   0  0  0  0  0  0  0  0  0  0  0  0
  1  2  2  0  0  0  0
  1 12  1  0  0  0  0
  2  3  1  0  0  0  0
  3  4  2  0  0  0  0
  4 11  1  0  0  0  0
  5  4  1  0  0  0  0
  5 10  1  0  0  0  0
  6  1  1  0  0  0  0
  7  2  1  0  0  0  0
  8  9  3  0  0  0  0
 12  5  2  0  0  0  0
M  RAD  1   3   2
M  END
