Coordinates from ORCA-job Pyridine-4-N2+-scan-d09-160-n800
 OpenBabel09191813533D

 12 11  0  0  0  0  0  0  0  0999 V2000
   -3.7065    0.2208   -1.1922 C   0  0  0  0  0  0  0  0  0  0  0  0
   -2.2489    0.1115   -1.1073 C   0  0  0  0  0  0  0  0  0  0  0  0
   -1.8736    0.9393   -0.1445 C   0  0  0  0  0  0  0  0  0  0  0  0
   -2.4020    1.7925    0.7192 C   0  0  0  0  0  0  0  0  0  0  0  0
   -3.8471    1.7649    0.4855 C   0  0  0  0  0  0  0  0  0  0  0  0
   -4.1818   -0.4050   -1.9471 H   0  0  0  0  0  0  0  0  0  0  0  0
   -1.7041   -0.5560   -1.7645 H   0  0  0  0  0  0  0  0  0  0  0  0
   10.3792    0.3419    0.9294 N   0  0  0  0  0  0  0  0  0  0  0  0
   11.4791    0.2896    1.0274 N   0  0  0  0  0  0  0  0  0  0  0  0
   -4.4392    2.4207    1.1232 H   0  0  0  0  0  0  0  0  0  0  0  0
   -1.9764    2.4327    1.4829 H   0  0  0  0  0  0  0  0  0  0  0  0
   -4.4092    1.0106   -0.4227 N   0  0  0  0  0  0  0  0  0  0  0  0
  1  2  2  0  0  0  0
  1 12  1  0  0  0  0
  2  3  1  0  0  0  0
  3  4  2  0  0  0  0
  4 11  1  0  0  0  0
  5  4  1  0  0  0  0
  5 10  1  0  0  0  0
  6  1  1  0  0  0  0
  7  2  1  0  0  0  0
  8  9  3  0  0  0  0
 12  5  2  0  0  0  0
M  RAD  1   3   2
M  END
