Coordinates from ORCA-job Pyridine-4-N2+-scan-d09-160-n800
 OpenBabel09191813523D

 12 11  0  0  0  0  0  0  0  0999 V2000
   -2.1865    0.1572   -1.0478 C   0  0  0  0  0  0  0  0  0  0  0  0
   -0.7337    0.0256   -0.9875 C   0  0  0  0  0  0  0  0  0  0  0  0
   -0.3279    0.8456   -0.0286 C   0  0  0  0  0  0  0  0  0  0  0  0
   -0.8320    1.7052    0.8452 C   0  0  0  0  0  0  0  0  0  0  0  0
   -2.2768    1.6992    0.6348 C   0  0  0  0  0  0  0  0  0  0  0  0
   -2.6866   -0.4582   -1.7949 H   0  0  0  0  0  0  0  0  0  0  0  0
   -0.2039   -0.6463   -1.6515 H   0  0  0  0  0  0  0  0  0  0  0  0
    2.6589    0.7159    0.2503 N   0  0  0  0  0  0  0  0  0  0  0  0
    3.7581    0.6681    0.3529 N   0  0  0  0  0  0  0  0  0  0  0  0
   -2.8517    2.3612    1.2815 H   0  0  0  0  0  0  0  0  0  0  0  0
   -0.3786    2.3345    1.6010 H   0  0  0  0  0  0  0  0  0  0  0  0
   -2.8699    0.9559   -0.2661 N   0  0  0  0  0  0  0  0  0  0  0  0
  1  2  2  0  0  0  0
  1 12  1  0  0  0  0
  2  3  1  0  0  0  0
  3  4  2  0  0  0  0
  4 11  1  0  0  0  0
  5  4  1  0  0  0  0
  5 10  1  0  0  0  0
  6  1  1  0  0  0  0
  7  2  1  0  0  0  0
  8  9  3  0  0  0  0
 12  5  2  0  0  0  0
M  RAD  1   3   2
M  END
