Coordinates from ORCA-job Pyridine-4-N2+-scan-d09-160-n800
 OpenBabel09191813533D

 12 11  0  0  0  0  0  0  0  0999 V2000
   -4.3474    0.2471   -1.2539 C   0  0  0  0  0  0  0  0  0  0  0  0
   -2.8898    0.1515   -1.1537 C   0  0  0  0  0  0  0  0  0  0  0  0
   -2.5322    0.9840   -0.1882 C   0  0  0  0  0  0  0  0  0  0  0  0
   -3.0776    1.8333    0.6687 C   0  0  0  0  0  0  0  0  0  0  0  0
   -4.5199    1.7919    0.4201 C   0  0  0  0  0  0  0  0  0  0  0  0
   -4.8089   -0.3841   -2.0128 H   0  0  0  0  0  0  0  0  0  0  0  0
   -2.3320   -0.5117   -1.8043 H   0  0  0  0  0  0  0  0  0  0  0  0
   13.6667    0.1740    1.2089 N   0  0  0  0  0  0  0  0  0  0  0  0
   14.7664    0.1252    1.3106 N   0  0  0  0  0  0  0  0  0  0  0  0
   -5.1246    2.4430    1.0507 H   0  0  0  0  0  0  0  0  0  0  0  0
   -2.6660    2.4784    1.4360 H   0  0  0  0  0  0  0  0  0  0  0  0
   -5.0654    1.0313   -0.4929 N   0  0  0  0  0  0  0  0  0  0  0  0
  1  2  2  0  0  0  0
  1 12  1  0  0  0  0
  2  3  1  0  0  0  0
  3  4  2  0  0  0  0
  4 11  1  0  0  0  0
  5  4  1  0  0  0  0
  5 10  1  0  0  0  0
  6  1  1  0  0  0  0
  7  2  1  0  0  0  0
  8  9  3  0  0  0  0
 12  5  2  0  0  0  0
M  RAD  1   3   2
M  END
