Coordinates from ORCA-job Pyridine-4-N2+-scan-d09-160-n800
 OpenBabel09191813533D

 12 11  0  0  0  0  0  0  0  0999 V2000
   -3.3462    0.2059   -1.1577 C   0  0  0  0  0  0  0  0  0  0  0  0
   -1.8887    0.0897   -1.0805 C   0  0  0  0  0  0  0  0  0  0  0  0
   -1.5045    0.9150   -0.1191 C   0  0  0  0  0  0  0  0  0  0  0  0
   -2.0244    1.7701    0.7478 C   0  0  0  0  0  0  0  0  0  0  0  0
   -3.4708    1.7495    0.5217 C   0  0  0  0  0  0  0  0  0  0  0  0
   -3.8284   -0.4172   -1.9105 H   0  0  0  0  0  0  0  0  0  0  0  0
   -1.3505   -0.5799   -1.7410 H   0  0  0  0  0  0  0  0  0  0  0  0
    8.5362    0.4340    0.7704 N   0  0  0  0  0  0  0  0  0  0  0  0
    9.6360    0.3827    0.8694 N   0  0  0  0  0  0  0  0  0  0  0  0
   -4.0564    2.4076    1.1630 H   0  0  0  0  0  0  0  0  0  0  0  0
   -1.5917    2.4078    1.5097 H   0  0  0  0  0  0  0  0  0  0  0  0
   -4.0412    0.9985   -0.3841 N   0  0  0  0  0  0  0  0  0  0  0  0
  1  2  2  0  0  0  0
  1 12  1  0  0  0  0
  2  3  1  0  0  0  0
  3  4  2  0  0  0  0
  4 11  1  0  0  0  0
  5  4  1  0  0  0  0
  5 10  1  0  0  0  0
  6  1  1  0  0  0  0
  7  2  1  0  0  0  0
  8  9  3  0  0  0  0
 12  5  2  0  0  0  0
M  RAD  1   3   2
M  END
