Coordinates from ORCA-job Pyridine-4-N2+-scan-d09-160-n800
 OpenBabel09191813533D

 12 11  0  0  0  0  0  0  0  0999 V2000
   -4.3570    0.2474   -1.2549 C   0  0  0  0  0  0  0  0  0  0  0  0
   -2.8995    0.1521   -1.1544 C   0  0  0  0  0  0  0  0  0  0  0  0
   -2.5422    0.9847   -0.1888 C   0  0  0  0  0  0  0  0  0  0  0  0
   -3.0879    1.8339    0.6680 C   0  0  0  0  0  0  0  0  0  0  0  0
   -4.5301    1.7923    0.4191 C   0  0  0  0  0  0  0  0  0  0  0  0
   -4.8183   -0.3838   -2.0138 H   0  0  0  0  0  0  0  0  0  0  0  0
   -2.3414   -0.5110   -1.8048 H   0  0  0  0  0  0  0  0  0  0  0  0
   13.7165    0.1714    1.2131 N   0  0  0  0  0  0  0  0  0  0  0  0
   14.8162    0.1226    1.3149 N   0  0  0  0  0  0  0  0  0  0  0  0
   -5.1351    2.4433    1.0496 H   0  0  0  0  0  0  0  0  0  0  0  0
   -2.6765    2.4792    1.4353 H   0  0  0  0  0  0  0  0  0  0  0  0
   -5.0753    1.0316   -0.4940 N   0  0  0  0  0  0  0  0  0  0  0  0
  1  2  2  0  0  0  0
  1 12  1  0  0  0  0
  2  3  1  0  0  0  0
  3  4  2  0  0  0  0
  4 11  1  0  0  0  0
  5  4  1  0  0  0  0
  5 10  1  0  0  0  0
  6  1  1  0  0  0  0
  7  2  1  0  0  0  0
  8  9  3  0  0  0  0
 12  5  2  0  0  0  0
M  RAD  1   3   2
M  END
