Coordinates from ORCA-job Pyridine-4-N2+-scan-d09-160-n800
 OpenBabel09191813533D

 12 11  0  0  0  0  0  0  0  0999 V2000
   -3.7908    0.2243   -1.2003 C   0  0  0  0  0  0  0  0  0  0  0  0
   -2.3332    0.1167   -1.1135 C   0  0  0  0  0  0  0  0  0  0  0  0
   -1.9601    0.9451   -0.1504 C   0  0  0  0  0  0  0  0  0  0  0  0
   -2.4906    1.7978    0.7125 C   0  0  0  0  0  0  0  0  0  0  0  0
   -3.9353    1.7685    0.4770 C   0  0  0  0  0  0  0  0  0  0  0  0
   -4.2644   -0.4022   -1.9556 H   0  0  0  0  0  0  0  0  0  0  0  0
   -1.7868   -0.5503   -1.7699 H   0  0  0  0  0  0  0  0  0  0  0  0
   10.8109    0.3203    0.9666 N   0  0  0  0  0  0  0  0  0  0  0  0
   11.9108    0.2678    1.0644 N   0  0  0  0  0  0  0  0  0  0  0  0
   -4.5290    2.4237    1.1139 H   0  0  0  0  0  0  0  0  0  0  0  0
   -2.0666    2.4386    1.4766 H   0  0  0  0  0  0  0  0  0  0  0  0
   -4.4954    1.0134   -0.4318 N   0  0  0  0  0  0  0  0  0  0  0  0
  1  2  2  0  0  0  0
  1 12  1  0  0  0  0
  2  3  1  0  0  0  0
  3  4  2  0  0  0  0
  4 11  1  0  0  0  0
  5  4  1  0  0  0  0
  5 10  1  0  0  0  0
  6  1  1  0  0  0  0
  7  2  1  0  0  0  0
  8  9  3  0  0  0  0
 12  5  2  0  0  0  0
M  RAD  1   3   2
M  END
