Coordinates from ORCA-job Pyridine-4-N2+-scan-d09-160-n800
 OpenBabel09191813523D

 12 11  0  0  0  0  0  0  0  0999 V2000
   -2.4262    0.1675   -1.0702 C   0  0  0  0  0  0  0  0  0  0  0  0
   -0.9697    0.0366   -1.0088 C   0  0  0  0  0  0  0  0  0  0  0  0
   -0.5681    0.8570   -0.0503 C   0  0  0  0  0  0  0  0  0  0  0  0
   -1.0697    1.7161    0.8235 C   0  0  0  0  0  0  0  0  0  0  0  0
   -2.5180    1.7097    0.6123 C   0  0  0  0  0  0  0  0  0  0  0  0
   -2.9228   -0.4495   -1.8186 H   0  0  0  0  0  0  0  0  0  0  0  0
   -0.4436   -0.6368   -1.6750 H   0  0  0  0  0  0  0  0  0  0  0  0
    3.8531    0.6627    0.3604 N   0  0  0  0  0  0  0  0  0  0  0  0
    4.9526    0.6145    0.4627 N   0  0  0  0  0  0  0  0  0  0  0  0
   -3.0908    2.3725    1.2603 H   0  0  0  0  0  0  0  0  0  0  0  0
   -0.6213    2.3477    1.5812 H   0  0  0  0  0  0  0  0  0  0  0  0
   -3.1061    0.9658   -0.2884 N   0  0  0  0  0  0  0  0  0  0  0  0
  1  2  2  0  0  0  0
  1 12  1  0  0  0  0
  2  3  1  0  0  0  0
  3  4  2  0  0  0  0
  4 11  1  0  0  0  0
  5  4  1  0  0  0  0
  5 10  1  0  0  0  0
  6  1  1  0  0  0  0
  7  2  1  0  0  0  0
  8  9  3  0  0  0  0
 12  5  2  0  0  0  0
M  RAD  1   3   2
M  END
