Coordinates from ORCA-job Pyridine-4-N2+-scan-d09-160-n800
 OpenBabel09191813533D

 12 11  0  0  0  0  0  0  0  0999 V2000
   -3.4793    0.2114   -1.1704 C   0  0  0  0  0  0  0  0  0  0  0  0
   -2.0218    0.0977   -1.0904 C   0  0  0  0  0  0  0  0  0  0  0  0
   -1.6408    0.9240   -0.1285 C   0  0  0  0  0  0  0  0  0  0  0  0
   -2.1638    1.7784    0.7372 C   0  0  0  0  0  0  0  0  0  0  0  0
   -3.6098    1.7552    0.5084 C   0  0  0  0  0  0  0  0  0  0  0  0
   -3.9590   -0.4127   -1.9240 H   0  0  0  0  0  0  0  0  0  0  0  0
   -1.4811   -0.5711   -1.7497 H   0  0  0  0  0  0  0  0  0  0  0  0
    9.2169    0.4000    0.8292 N   0  0  0  0  0  0  0  0  0  0  0  0
   10.3168    0.3483    0.9278 N   0  0  0  0  0  0  0  0  0  0  0  0
   -4.1977    2.4125    1.1484 H   0  0  0  0  0  0  0  0  0  0  0  0
   -1.7337    2.4170    1.4998 H   0  0  0  0  0  0  0  0  0  0  0  0
   -4.1771    1.0030   -0.3983 N   0  0  0  0  0  0  0  0  0  0  0  0
  1  2  2  0  0  0  0
  1 12  1  0  0  0  0
  2  3  1  0  0  0  0
  3  4  2  0  0  0  0
  4 11  1  0  0  0  0
  5  4  1  0  0  0  0
  5 10  1  0  0  0  0
  6  1  1  0  0  0  0
  7  2  1  0  0  0  0
  8  9  3  0  0  0  0
 12  5  2  0  0  0  0
M  RAD  1   3   2
M  END
