Coordinates from ORCA-job Pyridine-4-N2+-scan-d09-160-n800
 OpenBabel09191813523D

 12 11  0  0  0  0  0  0  0  0999 V2000
   -3.1383    0.1973   -1.1378 C   0  0  0  0  0  0  0  0  0  0  0  0
   -1.6809    0.0772   -1.0649 C   0  0  0  0  0  0  0  0  0  0  0  0
   -1.2918    0.9011   -0.1044 C   0  0  0  0  0  0  0  0  0  0  0  0
   -1.8068    1.7573    0.7644 C   0  0  0  0  0  0  0  0  0  0  0  0
   -3.2539    1.7405    0.5425 C   0  0  0  0  0  0  0  0  0  0  0  0
   -3.6244   -0.4242   -1.8894 H   0  0  0  0  0  0  0  0  0  0  0  0
   -1.1463   -0.5936   -1.7272 H   0  0  0  0  0  0  0  0  0  0  0  0
    7.4735    0.4869    0.6785 N   0  0  0  0  0  0  0  0  0  0  0  0
    8.5732    0.4362    0.7783 N   0  0  0  0  0  0  0  0  0  0  0  0
   -3.8359    2.4000    1.1858 H   0  0  0  0  0  0  0  0  0  0  0  0
   -1.3701    2.3935    1.5253 H   0  0  0  0  0  0  0  0  0  0  0  0
   -3.8289    0.9914   -0.3618 N   0  0  0  0  0  0  0  0  0  0  0  0
  1  2  2  0  0  0  0
  1 12  1  0  0  0  0
  2  3  1  0  0  0  0
  3  4  2  0  0  0  0
  4 11  1  0  0  0  0
  5  4  1  0  0  0  0
  5 10  1  0  0  0  0
  6  1  1  0  0  0  0
  7  2  1  0  0  0  0
  8  9  3  0  0  0  0
 12  5  2  0  0  0  0
M  RAD  1   3   2
M  END
