Coordinates from ORCA-job Pyridine-4-N2+-scan-d09-160-n800
 OpenBabel09191813523D

 12 11  0  0  0  0  0  0  0  0999 V2000
   -2.3965    0.1662   -1.0674 C   0  0  0  0  0  0  0  0  0  0  0  0
   -0.9401    0.0352   -1.0062 C   0  0  0  0  0  0  0  0  0  0  0  0
   -0.5383    0.8555   -0.0477 C   0  0  0  0  0  0  0  0  0  0  0  0
   -1.0397    1.7146    0.8262 C   0  0  0  0  0  0  0  0  0  0  0  0
   -2.4879    1.7084    0.6151 C   0  0  0  0  0  0  0  0  0  0  0  0
   -2.8933   -0.4507   -1.8157 H   0  0  0  0  0  0  0  0  0  0  0  0
   -0.4139   -0.6382   -1.6723 H   0  0  0  0  0  0  0  0  0  0  0  0
    3.7036    0.6695    0.3468 N   0  0  0  0  0  0  0  0  0  0  0  0
    4.8031    0.6213    0.4492 N   0  0  0  0  0  0  0  0  0  0  0  0
   -3.0606    2.3713    1.2632 H   0  0  0  0  0  0  0  0  0  0  0  0
   -0.5908    2.3461    1.5837 H   0  0  0  0  0  0  0  0  0  0  0  0
   -3.0763    0.9645   -0.2856 N   0  0  0  0  0  0  0  0  0  0  0  0
  1  2  2  0  0  0  0
  1 12  1  0  0  0  0
  2  3  1  0  0  0  0
  3  4  2  0  0  0  0
  4 11  1  0  0  0  0
  5  4  1  0  0  0  0
  5 10  1  0  0  0  0
  6  1  1  0  0  0  0
  7  2  1  0  0  0  0
  8  9  3  0  0  0  0
 12  5  2  0  0  0  0
M  RAD  1   3   2
M  END
