Coordinates from ORCA-job Pyridine-4-N2+-scan-d09-160-n800
 OpenBabel09191813533D

 12 11  0  0  0  0  0  0  0  0999 V2000
   -3.9626    0.2314   -1.2168 C   0  0  0  0  0  0  0  0  0  0  0  0
   -2.5050    0.1272   -1.1261 C   0  0  0  0  0  0  0  0  0  0  0  0
   -2.1363    0.9568   -0.1623 C   0  0  0  0  0  0  0  0  0  0  0  0
   -2.6711    1.8086    0.6989 C   0  0  0  0  0  0  0  0  0  0  0  0
   -4.1152    1.7758    0.4596 C   0  0  0  0  0  0  0  0  0  0  0  0
   -4.4328   -0.3965   -1.9732 H   0  0  0  0  0  0  0  0  0  0  0  0
   -1.9553   -0.5387   -1.7809 H   0  0  0  0  0  0  0  0  0  0  0  0
   11.6909    0.2758    1.0419 N   0  0  0  0  0  0  0  0  0  0  0  0
   12.7907    0.2237    1.1401 N   0  0  0  0  0  0  0  0  0  0  0  0
   -4.7120    2.4299    1.0947 H   0  0  0  0  0  0  0  0  0  0  0  0
   -2.2507    2.4506    1.4639 H   0  0  0  0  0  0  0  0  0  0  0  0
   -4.6711    1.0191   -0.4505 N   0  0  0  0  0  0  0  0  0  0  0  0
  1  2  2  0  0  0  0
  1 12  1  0  0  0  0
  2  3  1  0  0  0  0
  3  4  2  0  0  0  0
  4 11  1  0  0  0  0
  5  4  1  0  0  0  0
  5 10  1  0  0  0  0
  6  1  1  0  0  0  0
  7  2  1  0  0  0  0
  8  9  3  0  0  0  0
 12  5  2  0  0  0  0
M  RAD  1   3   2
M  END
