Coordinates from ORCA-job Pyridine-4-N2+-scan-d09-160-n800
 OpenBabel09191813533D

 12 11  0  0  0  0  0  0  0  0999 V2000
   -3.6156    0.2170   -1.1835 C   0  0  0  0  0  0  0  0  0  0  0  0
   -2.1581    0.1060   -1.1006 C   0  0  0  0  0  0  0  0  0  0  0  0
   -1.7805    0.9332   -0.1381 C   0  0  0  0  0  0  0  0  0  0  0  0
   -2.3067    1.7869    0.7264 C   0  0  0  0  0  0  0  0  0  0  0  0
   -3.7522    1.7610    0.4947 C   0  0  0  0  0  0  0  0  0  0  0  0
   -4.0927   -0.4081   -1.9378 H   0  0  0  0  0  0  0  0  0  0  0  0
   -1.6149   -0.5620   -1.7586 H   0  0  0  0  0  0  0  0  0  0  0  0
    9.9143    0.3652    0.8894 N   0  0  0  0  0  0  0  0  0  0  0  0
   11.0141    0.3131    0.9876 N   0  0  0  0  0  0  0  0  0  0  0  0
   -4.3426    2.4174    1.1333 H   0  0  0  0  0  0  0  0  0  0  0  0
   -1.8793    2.4264    1.4896 H   0  0  0  0  0  0  0  0  0  0  0  0
   -4.3164    1.0076   -0.4130 N   0  0  0  0  0  0  0  0  0  0  0  0
  1  2  2  0  0  0  0
  1 12  1  0  0  0  0
  2  3  1  0  0  0  0
  3  4  2  0  0  0  0
  4 11  1  0  0  0  0
  5  4  1  0  0  0  0
  5 10  1  0  0  0  0
  6  1  1  0  0  0  0
  7  2  1  0  0  0  0
  8  9  3  0  0  0  0
 12  5  2  0  0  0  0
M  RAD  1   3   2
M  END
