Coordinates from ORCA-job Pyridine-4-N2+-scan-d09-160-n800
 OpenBabel09191813533D

 12 11  0  0  0  0  0  0  0  0999 V2000
   -3.5605    0.2148   -1.1782 C   0  0  0  0  0  0  0  0  0  0  0  0
   -2.1029    0.1026   -1.0965 C   0  0  0  0  0  0  0  0  0  0  0  0
   -1.7240    0.9294   -0.1343 C   0  0  0  0  0  0  0  0  0  0  0  0
   -2.2489    1.7834    0.7308 C   0  0  0  0  0  0  0  0  0  0  0  0
   -3.6945    1.7586    0.5002 C   0  0  0  0  0  0  0  0  0  0  0  0
   -4.0386   -0.4099   -1.9322 H   0  0  0  0  0  0  0  0  0  0  0  0
   -1.5608   -0.5657   -1.7550 H   0  0  0  0  0  0  0  0  0  0  0  0
    9.6320    0.3793    0.8650 N   0  0  0  0  0  0  0  0  0  0  0  0
   10.7319    0.3274    0.9634 N   0  0  0  0  0  0  0  0  0  0  0  0
   -4.2839    2.4154    1.1394 H   0  0  0  0  0  0  0  0  0  0  0  0
   -1.8203    2.4226    1.4937 H   0  0  0  0  0  0  0  0  0  0  0  0
   -4.2600    1.0057   -0.4070 N   0  0  0  0  0  0  0  0  0  0  0  0
  1  2  2  0  0  0  0
  1 12  1  0  0  0  0
  2  3  1  0  0  0  0
  3  4  2  0  0  0  0
  4 11  1  0  0  0  0
  5  4  1  0  0  0  0
  5 10  1  0  0  0  0
  6  1  1  0  0  0  0
  7  2  1  0  0  0  0
  8  9  3  0  0  0  0
 12  5  2  0  0  0  0
M  RAD  1   3   2
M  END
