Coordinates from ORCA-job Pyridine-4-N2+-scan-d09-160-n800
 OpenBabel09191813523D

 12 11  0  0  0  0  0  0  0  0999 V2000
   -2.5120    0.1711   -1.0783 C   0  0  0  0  0  0  0  0  0  0  0  0
   -1.0552    0.0410   -1.0161 C   0  0  0  0  0  0  0  0  0  0  0  0
   -0.6542    0.8616   -0.0575 C   0  0  0  0  0  0  0  0  0  0  0  0
   -1.1567    1.7204    0.8159 C   0  0  0  0  0  0  0  0  0  0  0  0
   -2.6052    1.7135    0.6042 C   0  0  0  0  0  0  0  0  0  0  0  0
   -3.0078   -0.4463   -1.8269 H   0  0  0  0  0  0  0  0  0  0  0  0
   -0.5290   -0.6324   -1.6822 H   0  0  0  0  0  0  0  0  0  0  0  0
    4.2849    0.6427    0.3995 N   0  0  0  0  0  0  0  0  0  0  0  0
    5.3845    0.5942    0.5015 N   0  0  0  0  0  0  0  0  0  0  0  0
   -3.1784    2.3762    1.2520 H   0  0  0  0  0  0  0  0  0  0  0  0
   -0.7094    2.3525    1.5739 H   0  0  0  0  0  0  0  0  0  0  0  0
   -3.1922    0.9692   -0.2968 N   0  0  0  0  0  0  0  0  0  0  0  0
  1  2  2  0  0  0  0
  1 12  1  0  0  0  0
  2  3  1  0  0  0  0
  3  4  2  0  0  0  0
  4 11  1  0  0  0  0
  5  4  1  0  0  0  0
  5 10  1  0  0  0  0
  6  1  1  0  0  0  0
  7  2  1  0  0  0  0
  8  9  3  0  0  0  0
 12  5  2  0  0  0  0
M  RAD  1   3   2
M  END
