Coordinates from ORCA-job Pyridine-4-N2+-scan-d09-160-n800
 OpenBabel09191813523D

 12 11  0  0  0  0  0  0  0  0999 V2000
   -2.7315    0.1804   -1.0990 C   0  0  0  0  0  0  0  0  0  0  0  0
   -1.2745    0.0531   -1.0339 C   0  0  0  0  0  0  0  0  0  0  0  0
   -0.8765    0.8745   -0.0748 C   0  0  0  0  0  0  0  0  0  0  0  0
   -1.3825    1.7326    0.7973 C   0  0  0  0  0  0  0  0  0  0  0  0
   -2.8308    1.7230    0.5830 C   0  0  0  0  0  0  0  0  0  0  0  0
   -3.2246   -0.4381   -1.8484 H   0  0  0  0  0  0  0  0  0  0  0  0
   -0.7463   -0.6197   -1.6992 H   0  0  0  0  0  0  0  0  0  0  0  0
    5.3977    0.5895    0.4981 N   0  0  0  0  0  0  0  0  0  0  0  0
    6.4974    0.5403    0.5995 N   0  0  0  0  0  0  0  0  0  0  0  0
   -3.4062    2.3849    1.2296 H   0  0  0  0  0  0  0  0  0  0  0  0
   -0.9384    2.3660    1.5562 H   0  0  0  0  0  0  0  0  0  0  0  0
   -3.4143    0.9774   -0.3189 N   0  0  0  0  0  0  0  0  0  0  0  0
  1  2  2  0  0  0  0
  1 12  1  0  0  0  0
  2  3  1  0  0  0  0
  3  4  2  0  0  0  0
  4 11  1  0  0  0  0
  5  4  1  0  0  0  0
  5 10  1  0  0  0  0
  6  1  1  0  0  0  0
  7  2  1  0  0  0  0
  8  9  3  0  0  0  0
 12  5  2  0  0  0  0
M  RAD  1   3   2
M  END
