Coordinates from ORCA-job Pyridine-4-N2+-scan-d09-160-n800
 OpenBabel09191813523D

 12 11  0  0  0  0  0  0  0  0999 V2000
   -2.2670    0.1606   -1.0553 C   0  0  0  0  0  0  0  0  0  0  0  0
   -0.8117    0.0291   -0.9947 C   0  0  0  0  0  0  0  0  0  0  0  0
   -0.4090    0.8493   -0.0361 C   0  0  0  0  0  0  0  0  0  0  0  0
   -0.9103    1.7086    0.8379 C   0  0  0  0  0  0  0  0  0  0  0  0
   -2.3575    1.7027    0.6273 C   0  0  0  0  0  0  0  0  0  0  0  0
   -2.7651   -0.4557   -1.8032 H   0  0  0  0  0  0  0  0  0  0  0  0
   -0.2840   -0.6437   -1.6599 H   0  0  0  0  0  0  0  0  0  0  0  0
    3.0559    0.6985    0.2872 N   0  0  0  0  0  0  0  0  0  0  0  0
    4.1553    0.6506    0.3898 N   0  0  0  0  0  0  0  0  0  0  0  0
   -2.9306    2.3654    1.2750 H   0  0  0  0  0  0  0  0  0  0  0  0
   -0.4591    2.3391    1.5947 H   0  0  0  0  0  0  0  0  0  0  0  0
   -2.9477    0.9592   -0.2734 N   0  0  0  0  0  0  0  0  0  0  0  0
  1  2  2  0  0  0  0
  1 12  1  0  0  0  0
  2  3  1  0  0  0  0
  3  4  2  0  0  0  0
  4 11  1  0  0  0  0
  5  4  1  0  0  0  0
  5 10  1  0  0  0  0
  6  1  1  0  0  0  0
  7  2  1  0  0  0  0
  8  9  3  0  0  0  0
 12  5  2  0  0  0  0
M  RAD  1   3   2
M  END
