Coordinates from ORCA-job Pyridine-4-N2+-scan-d09-160-n800
 OpenBabel09191813523D

 12 11  0  0  0  0  0  0  0  0999 V2000
   -2.4196    0.1672   -1.0696 C   0  0  0  0  0  0  0  0  0  0  0  0
   -0.9631    0.0363   -1.0082 C   0  0  0  0  0  0  0  0  0  0  0  0
   -0.5615    0.8566   -0.0497 C   0  0  0  0  0  0  0  0  0  0  0  0
   -1.0630    1.7158    0.8241 C   0  0  0  0  0  0  0  0  0  0  0  0
   -2.5113    1.7094    0.6130 C   0  0  0  0  0  0  0  0  0  0  0  0
   -2.9163   -0.4498   -1.8179 H   0  0  0  0  0  0  0  0  0  0  0  0
   -0.4370   -0.6371   -1.6744 H   0  0  0  0  0  0  0  0  0  0  0  0
    3.8198    0.6642    0.3574 N   0  0  0  0  0  0  0  0  0  0  0  0
    4.9194    0.6160    0.4597 N   0  0  0  0  0  0  0  0  0  0  0  0
   -3.0841    2.3723    1.2610 H   0  0  0  0  0  0  0  0  0  0  0  0
   -0.6145    2.3474    1.5817 H   0  0  0  0  0  0  0  0  0  0  0  0
   -3.0995    0.9655   -0.2878 N   0  0  0  0  0  0  0  0  0  0  0  0
  1  2  2  0  0  0  0
  1 12  1  0  0  0  0
  2  3  1  0  0  0  0
  3  4  2  0  0  0  0
  4 11  1  0  0  0  0
  5  4  1  0  0  0  0
  5 10  1  0  0  0  0
  6  1  1  0  0  0  0
  7  2  1  0  0  0  0
  8  9  3  0  0  0  0
 12  5  2  0  0  0  0
M  RAD  1   3   2
M  END
