Coordinates from ORCA-job Pyridine-4-N2+-scan-d09-160-n800
 OpenBabel09191813523D

 12 11  0  0  0  0  0  0  0  0999 V2000
   -2.4889    0.1702   -1.0761 C   0  0  0  0  0  0  0  0  0  0  0  0
   -1.0322    0.0397   -1.0142 C   0  0  0  0  0  0  0  0  0  0  0  0
   -0.6311    0.8603   -0.0556 C   0  0  0  0  0  0  0  0  0  0  0  0
   -1.1332    1.7193    0.8180 C   0  0  0  0  0  0  0  0  0  0  0  0
   -2.5817    1.7124    0.6064 C   0  0  0  0  0  0  0  0  0  0  0  0
   -2.9849   -0.4471   -1.8246 H   0  0  0  0  0  0  0  0  0  0  0  0
   -0.5061   -0.6337   -1.6804 H   0  0  0  0  0  0  0  0  0  0  0  0
    4.1686    0.6482    0.3890 N   0  0  0  0  0  0  0  0  0  0  0  0
    5.2682    0.5998    0.4912 N   0  0  0  0  0  0  0  0  0  0  0  0
   -3.1547    2.3752    1.2543 H   0  0  0  0  0  0  0  0  0  0  0  0
   -0.6856    2.3513    1.5759 H   0  0  0  0  0  0  0  0  0  0  0  0
   -3.1690    0.9683   -0.2945 N   0  0  0  0  0  0  0  0  0  0  0  0
  1  2  2  0  0  0  0
  1 12  1  0  0  0  0
  2  3  1  0  0  0  0
  3  4  2  0  0  0  0
  4 11  1  0  0  0  0
  5  4  1  0  0  0  0
  5 10  1  0  0  0  0
  6  1  1  0  0  0  0
  7  2  1  0  0  0  0
  8  9  3  0  0  0  0
 12  5  2  0  0  0  0
M  RAD  1   3   2
M  END
