Coordinates from ORCA-job Pyridine-4-N2+-scan-d09-160-n800
 OpenBabel09191813523D

 12 11  0  0  0  0  0  0  0  0999 V2000
   -2.1595    0.1560   -1.0452 C   0  0  0  0  0  0  0  0  0  0  0  0
   -0.7083    0.0245   -0.9851 C   0  0  0  0  0  0  0  0  0  0  0  0
   -0.2998    0.8444   -0.0260 C   0  0  0  0  0  0  0  0  0  0  0  0
   -0.8067    1.7040    0.8475 C   0  0  0  0  0  0  0  0  0  0  0  0
   -2.2498    1.6980    0.6373 C   0  0  0  0  0  0  0  0  0  0  0  0
   -2.6608   -0.4588   -1.7919 H   0  0  0  0  0  0  0  0  0  0  0  0
   -0.1775   -0.6470   -1.6484 H   0  0  0  0  0  0  0  0  0  0  0  0
    2.5276    0.7216    0.2381 N   0  0  0  0  0  0  0  0  0  0  0  0
    3.6267    0.6738    0.3407 N   0  0  0  0  0  0  0  0  0  0  0  0
   -2.8259    2.3596    1.2834 H   0  0  0  0  0  0  0  0  0  0  0  0
   -0.3521    2.3327    1.6029 H   0  0  0  0  0  0  0  0  0  0  0  0
   -2.8445    0.9548   -0.2637 N   0  0  0  0  0  0  0  0  0  0  0  0
  1  2  2  0  0  0  0
  1 12  1  0  0  0  0
  2  3  1  0  0  0  0
  3  4  2  0  0  0  0
  4 11  1  0  0  0  0
  5  4  1  0  0  0  0
  5 10  1  0  0  0  0
  6  1  1  0  0  0  0
  7  2  1  0  0  0  0
  8  9  3  0  0  0  0
 12  5  2  0  0  0  0
M  RAD  1   3   2
M  END
