Coordinates from ORCA-job Pyridine-4-N2+-scan-d09-160-n800
 OpenBabel09191813533D

 12 11  0  0  0  0  0  0  0  0999 V2000
   -3.4176    0.2088   -1.1645 C   0  0  0  0  0  0  0  0  0  0  0  0
   -1.9601    0.0940   -1.0858 C   0  0  0  0  0  0  0  0  0  0  0  0
   -1.5777    0.9198   -0.1242 C   0  0  0  0  0  0  0  0  0  0  0  0
   -2.0992    1.7746    0.7421 C   0  0  0  0  0  0  0  0  0  0  0  0
   -3.5454    1.7525    0.5146 C   0  0  0  0  0  0  0  0  0  0  0  0
   -3.8985   -0.4148   -1.9177 H   0  0  0  0  0  0  0  0  0  0  0  0
   -1.4206   -0.5752   -1.7457 H   0  0  0  0  0  0  0  0  0  0  0  0
    8.9014    0.4158    0.8020 N   0  0  0  0  0  0  0  0  0  0  0  0
   10.0013    0.3642    0.9008 N   0  0  0  0  0  0  0  0  0  0  0  0
   -4.1322    2.4102    1.1551 H   0  0  0  0  0  0  0  0  0  0  0  0
   -1.6679    2.4127    1.5044 H   0  0  0  0  0  0  0  0  0  0  0  0
   -4.1141    1.0009   -0.3917 N   0  0  0  0  0  0  0  0  0  0  0  0
  1  2  2  0  0  0  0
  1 12  1  0  0  0  0
  2  3  1  0  0  0  0
  3  4  2  0  0  0  0
  4 11  1  0  0  0  0
  5  4  1  0  0  0  0
  5 10  1  0  0  0  0
  6  1  1  0  0  0  0
  7  2  1  0  0  0  0
  8  9  3  0  0  0  0
 12  5  2  0  0  0  0
M  RAD  1   3   2
M  END
