Coordinates from ORCA-job Pyridine-4-N2+-scan-d09-160-n800
 OpenBabel09191813533D

 12 11  0  0  0  0  0  0  0  0999 V2000
   -4.1181    0.2378   -1.2317 C   0  0  0  0  0  0  0  0  0  0  0  0
   -2.6605    0.1369   -1.1375 C   0  0  0  0  0  0  0  0  0  0  0  0
   -2.2960    0.9675   -0.1730 C   0  0  0  0  0  0  0  0  0  0  0  0
   -2.8348    1.8184    0.6866 C   0  0  0  0  0  0  0  0  0  0  0  0
   -4.2782    1.7823    0.4438 C   0  0  0  0  0  0  0  0  0  0  0  0
   -4.5850   -0.3913   -1.9891 H   0  0  0  0  0  0  0  0  0  0  0  0
   -2.1077   -0.5280   -1.7907 H   0  0  0  0  0  0  0  0  0  0  0  0
   12.4879    0.2345    1.1090 N   0  0  0  0  0  0  0  0  0  0  0  0
   13.5876    0.1845    1.2095 N   0  0  0  0  0  0  0  0  0  0  0  0
   -4.8780    2.4353    1.0772 H   0  0  0  0  0  0  0  0  0  0  0  0
   -2.4177    2.4616    1.4525 H   0  0  0  0  0  0  0  0  0  0  0  0
   -4.8302    1.0242   -0.4674 N   0  0  0  0  0  0  0  0  0  0  0  0
  1  2  2  0  0  0  0
  1 12  1  0  0  0  0
  2  3  1  0  0  0  0
  3  4  2  0  0  0  0
  4 11  1  0  0  0  0
  5  4  1  0  0  0  0
  5 10  1  0  0  0  0
  6  1  1  0  0  0  0
  7  2  1  0  0  0  0
  8  9  3  0  0  0  0
 12  5  2  0  0  0  0
M  RAD  1   3   2
M  END
