Coordinates from ORCA-job Pyridine-4-N2+-scan-d09-160-n800
 OpenBabel09191813523D

 12 11  0  0  0  0  0  0  0  0999 V2000
   -3.0278    0.1927   -1.1272 C   0  0  0  0  0  0  0  0  0  0  0  0
   -1.5705    0.0705   -1.0566 C   0  0  0  0  0  0  0  0  0  0  0  0
   -1.1788    0.8938   -0.0965 C   0  0  0  0  0  0  0  0  0  0  0  0
   -1.6912    1.7505    0.7733 C   0  0  0  0  0  0  0  0  0  0  0  0
   -3.1387    1.7358    0.5536 C   0  0  0  0  0  0  0  0  0  0  0  0
   -3.5159   -0.4279   -1.8782 H   0  0  0  0  0  0  0  0  0  0  0  0
   -1.0378   -0.6008   -1.7198 H   0  0  0  0  0  0  0  0  0  0  0  0
    6.9089    0.5150    0.6296 N   0  0  0  0  0  0  0  0  0  0  0  0
    8.0086    0.4647    0.7298 N   0  0  0  0  0  0  0  0  0  0  0  0
   -3.7188    2.3960    1.1978 H   0  0  0  0  0  0  0  0  0  0  0  0
   -1.2525    2.3859    1.5336 H   0  0  0  0  0  0  0  0  0  0  0  0
   -3.7162    0.9877   -0.3501 N   0  0  0  0  0  0  0  0  0  0  0  0
  1  2  2  0  0  0  0
  1 12  1  0  0  0  0
  2  3  1  0  0  0  0
  3  4  2  0  0  0  0
  4 11  1  0  0  0  0
  5  4  1  0  0  0  0
  5 10  1  0  0  0  0
  6  1  1  0  0  0  0
  7  2  1  0  0  0  0
  8  9  3  0  0  0  0
 12  5  2  0  0  0  0
M  RAD  1   3   2
M  END
