Coordinates from ORCA-job Pyridine-4-N2+-scan-d09-160-n800
 OpenBabel09191813523D

 12 11  0  0  0  0  0  0  0  0999 V2000
   -2.0609    0.1512   -1.0367 C   0  0  0  0  0  0  0  0  0  0  0  0
   -0.6239    0.0214   -0.9766 C   0  0  0  0  0  0  0  0  0  0  0  0
   -0.1864    0.8395   -0.0154 C   0  0  0  0  0  0  0  0  0  0  0  0
   -0.7222    1.6997    0.8548 C   0  0  0  0  0  0  0  0  0  0  0  0
   -2.1513    1.6943    0.6471 C   0  0  0  0  0  0  0  0  0  0  0  0
   -2.5738   -0.4584   -1.7792 H   0  0  0  0  0  0  0  0  0  0  0  0
   -0.0837   -0.6465   -1.6346 H   0  0  0  0  0  0  0  0  0  0  0  0
    2.0634    0.7418    0.1947 N   0  0  0  0  0  0  0  0  0  0  0  0
    3.1621    0.6941    0.2973 N   0  0  0  0  0  0  0  0  0  0  0  0
   -2.7383    2.3516    1.2869 H   0  0  0  0  0  0  0  0  0  0  0  0
   -0.2576    2.3240    1.6067 H   0  0  0  0  0  0  0  0  0  0  0  0
   -2.7581    0.9510   -0.2557 N   0  0  0  0  0  0  0  0  0  0  0  0
  1  2  2  0  0  0  0
  1 12  1  0  0  0  0
  2  3  1  0  0  0  0
  3  4  2  0  0  0  0
  4 11  1  0  0  0  0
  5  4  1  0  0  0  0
  5 10  1  0  0  0  0
  6  1  1  0  0  0  0
  7  2  1  0  0  0  0
  8  9  3  0  0  0  0
 12  5  2  0  0  0  0
M  RAD  1   3   2
M  END
