Coordinates from ORCA-job Pyridine-4-N2+-scan-d09-160-n800
 OpenBabel09191813523D

 12 11  0  0  0  0  0  0  0  0999 V2000
   -3.2585    0.2023   -1.1493 C   0  0  0  0  0  0  0  0  0  0  0  0
   -1.8011    0.0844   -1.0740 C   0  0  0  0  0  0  0  0  0  0  0  0
   -1.4148    0.9092   -0.1129 C   0  0  0  0  0  0  0  0  0  0  0  0
   -1.9326    1.7647    0.7548 C   0  0  0  0  0  0  0  0  0  0  0  0
   -3.3793    1.7457    0.5305 C   0  0  0  0  0  0  0  0  0  0  0  0
   -3.7423   -0.4201   -1.9016 H   0  0  0  0  0  0  0  0  0  0  0  0
   -1.2644   -0.5857   -1.7352 H   0  0  0  0  0  0  0  0  0  0  0  0
    8.0878    0.4563    0.7317 N   0  0  0  0  0  0  0  0  0  0  0  0
    9.1876    0.4053    0.8310 N   0  0  0  0  0  0  0  0  0  0  0  0
   -3.9634    2.4044    1.1726 H   0  0  0  0  0  0  0  0  0  0  0  0
   -1.4982    2.4018    1.5163 H   0  0  0  0  0  0  0  0  0  0  0  0
   -3.9516    0.9955   -0.3747 N   0  0  0  0  0  0  0  0  0  0  0  0
  1  2  2  0  0  0  0
  1 12  1  0  0  0  0
  2  3  1  0  0  0  0
  3  4  2  0  0  0  0
  4 11  1  0  0  0  0
  5  4  1  0  0  0  0
  5 10  1  0  0  0  0
  6  1  1  0  0  0  0
  7  2  1  0  0  0  0
  8  9  3  0  0  0  0
 12  5  2  0  0  0  0
M  RAD  1   3   2
M  END
