Coordinates from ORCA-job Pyridine-4-N2+-scan-d09-160-n800
 OpenBabel09191813523D

 12 11  0  0  0  0  0  0  0  0999 V2000
   -3.3202    0.2048   -1.1552 C   0  0  0  0  0  0  0  0  0  0  0  0
   -1.8628    0.0881   -1.0786 C   0  0  0  0  0  0  0  0  0  0  0  0
   -1.4779    0.9133   -0.1173 C   0  0  0  0  0  0  0  0  0  0  0  0
   -1.9972    1.7685    0.7499 C   0  0  0  0  0  0  0  0  0  0  0  0
   -3.4437    1.7483    0.5243 C   0  0  0  0  0  0  0  0  0  0  0  0
   -3.8029   -0.4180   -1.9078 H   0  0  0  0  0  0  0  0  0  0  0  0
   -1.3250   -0.5816   -1.7393 H   0  0  0  0  0  0  0  0  0  0  0  0
    8.4033    0.4406    0.7589 N   0  0  0  0  0  0  0  0  0  0  0  0
    9.5031    0.3894    0.8580 N   0  0  0  0  0  0  0  0  0  0  0  0
   -4.0288    2.4067    1.1658 H   0  0  0  0  0  0  0  0  0  0  0  0
   -1.5640    2.4060    1.5117 H   0  0  0  0  0  0  0  0  0  0  0  0
   -4.0146    0.9976   -0.3813 N   0  0  0  0  0  0  0  0  0  0  0  0
  1  2  2  0  0  0  0
  1 12  1  0  0  0  0
  2  3  1  0  0  0  0
  3  4  2  0  0  0  0
  4 11  1  0  0  0  0
  5  4  1  0  0  0  0
  5 10  1  0  0  0  0
  6  1  1  0  0  0  0
  7  2  1  0  0  0  0
  8  9  3  0  0  0  0
 12  5  2  0  0  0  0
M  RAD  1   3   2
M  END
