Coordinates from ORCA-job Pyridine-4-N2+-scan-d09-160-n800
 OpenBabel09191813523D

 12 11  0  0  0  0  0  0  0  0999 V2000
   -2.3136    0.1626   -1.0597 C   0  0  0  0  0  0  0  0  0  0  0  0
   -0.8577    0.0312   -0.9988 C   0  0  0  0  0  0  0  0  0  0  0  0
   -0.4554    0.8515   -0.0403 C   0  0  0  0  0  0  0  0  0  0  0  0
   -0.9565    1.7107    0.8337 C   0  0  0  0  0  0  0  0  0  0  0  0
   -2.4044    1.7048    0.6229 C   0  0  0  0  0  0  0  0  0  0  0  0
   -2.8111   -0.4540   -1.8077 H   0  0  0  0  0  0  0  0  0  0  0  0
   -0.3308   -0.6419   -1.6645 H   0  0  0  0  0  0  0  0  0  0  0  0
    3.2884    0.6882    0.3087 N   0  0  0  0  0  0  0  0  0  0  0  0
    4.3878    0.6402    0.4112 N   0  0  0  0  0  0  0  0  0  0  0  0
   -2.9772    2.3676    1.2709 H   0  0  0  0  0  0  0  0  0  0  0  0
   -0.5064    2.3416    1.5908 H   0  0  0  0  0  0  0  0  0  0  0  0
   -2.9937    0.9611   -0.2777 N   0  0  0  0  0  0  0  0  0  0  0  0
  1  2  2  0  0  0  0
  1 12  1  0  0  0  0
  2  3  1  0  0  0  0
  3  4  2  0  0  0  0
  4 11  1  0  0  0  0
  5  4  1  0  0  0  0
  5 10  1  0  0  0  0
  6  1  1  0  0  0  0
  7  2  1  0  0  0  0
  8  9  3  0  0  0  0
 12  5  2  0  0  0  0
M  RAD  1   3   2
M  END
