Coordinates from ORCA-job Pyridine-4-N2+-scan-d09-160-n800
 OpenBabel09191813533D

 12 11  0  0  0  0  0  0  0  0999 V2000
   -3.6903    0.2201   -1.1906 C   0  0  0  0  0  0  0  0  0  0  0  0
   -2.2327    0.1105   -1.1061 C   0  0  0  0  0  0  0  0  0  0  0  0
   -1.8570    0.9382   -0.1434 C   0  0  0  0  0  0  0  0  0  0  0  0
   -2.3850    1.7915    0.7204 C   0  0  0  0  0  0  0  0  0  0  0  0
   -3.8302    1.7642    0.4871 C   0  0  0  0  0  0  0  0  0  0  0  0
   -4.1659   -0.4056   -1.9454 H   0  0  0  0  0  0  0  0  0  0  0  0
   -1.6882   -0.5570   -1.7635 H   0  0  0  0  0  0  0  0  0  0  0  0
   10.2962    0.3461    0.9223 N   0  0  0  0  0  0  0  0  0  0  0  0
   11.3960    0.2938    1.0203 N   0  0  0  0  0  0  0  0  0  0  0  0
   -4.4220    2.4201    1.1250 H   0  0  0  0  0  0  0  0  0  0  0  0
   -1.9591    2.4316    1.4841 H   0  0  0  0  0  0  0  0  0  0  0  0
   -4.3926    1.0101   -0.4210 N   0  0  0  0  0  0  0  0  0  0  0  0
  1  2  2  0  0  0  0
  1 12  1  0  0  0  0
  2  3  1  0  0  0  0
  3  4  2  0  0  0  0
  4 11  1  0  0  0  0
  5  4  1  0  0  0  0
  5 10  1  0  0  0  0
  6  1  1  0  0  0  0
  7  2  1  0  0  0  0
  8  9  3  0  0  0  0
 12  5  2  0  0  0  0
M  RAD  1   3   2
M  END
