Coordinates from ORCA-job Pyridine-4-N2+-scan-d09-160-n800
 OpenBabel09191813533D

 12 11  0  0  0  0  0  0  0  0999 V2000
   -4.4408    0.2508   -1.2630 C   0  0  0  0  0  0  0  0  0  0  0  0
   -2.9833    0.1576   -1.1602 C   0  0  0  0  0  0  0  0  0  0  0  0
   -2.6288    0.9908   -0.1942 C   0  0  0  0  0  0  0  0  0  0  0  0
   -3.1770    1.8395    0.6615 C   0  0  0  0  0  0  0  0  0  0  0  0
   -4.6188    1.7957    0.4103 C   0  0  0  0  0  0  0  0  0  0  0  0
   -4.9000   -0.3813   -2.0226 H   0  0  0  0  0  0  0  0  0  0  0  0
   -2.4232   -0.5049   -1.8096 H   0  0  0  0  0  0  0  0  0  0  0  0
   14.1481    0.1493    1.2498 N   0  0  0  0  0  0  0  0  0  0  0  0
   15.2478    0.1007    1.3517 N   0  0  0  0  0  0  0  0  0  0  0  0
   -5.2257    2.4460    1.0397 H   0  0  0  0  0  0  0  0  0  0  0  0
   -2.7678    2.4855    1.4294 H   0  0  0  0  0  0  0  0  0  0  0  0
   -5.1614    1.0340   -0.5035 N   0  0  0  0  0  0  0  0  0  0  0  0
  1  2  2  0  0  0  0
  1 12  1  0  0  0  0
  2  3  1  0  0  0  0
  3  4  2  0  0  0  0
  4 11  1  0  0  0  0
  5  4  1  0  0  0  0
  5 10  1  0  0  0  0
  6  1  1  0  0  0  0
  7  2  1  0  0  0  0
  8  9  3  0  0  0  0
 12  5  2  0  0  0  0
M  RAD  1   3   2
M  END
