Coordinates from ORCA-job Pyridine-4-N2+-scan-d09-160-n800
 OpenBabel09191813523D

 12 11  0  0  0  0  0  0  0  0999 V2000
   -3.0928    0.1954   -1.1334 C   0  0  0  0  0  0  0  0  0  0  0  0
   -1.6355    0.0744   -1.0615 C   0  0  0  0  0  0  0  0  0  0  0  0
   -1.2453    0.8981   -0.1011 C   0  0  0  0  0  0  0  0  0  0  0  0
   -1.7592    1.7545    0.7681 C   0  0  0  0  0  0  0  0  0  0  0  0
   -3.2064    1.7386    0.5471 C   0  0  0  0  0  0  0  0  0  0  0  0
   -3.5797   -0.4257   -1.8848 H   0  0  0  0  0  0  0  0  0  0  0  0
   -1.1017   -0.5966   -1.7242 H   0  0  0  0  0  0  0  0  0  0  0  0
    7.2410    0.4985    0.6584 N   0  0  0  0  0  0  0  0  0  0  0  0
    8.3407    0.4479    0.7583 N   0  0  0  0  0  0  0  0  0  0  0  0
   -3.7877    2.3984    1.1907 H   0  0  0  0  0  0  0  0  0  0  0  0
   -1.3217    2.3904    1.5287 H   0  0  0  0  0  0  0  0  0  0  0  0
   -3.7825    0.9899   -0.3570 N   0  0  0  0  0  0  0  0  0  0  0  0
  1  2  2  0  0  0  0
  1 12  1  0  0  0  0
  2  3  1  0  0  0  0
  3  4  2  0  0  0  0
  4 11  1  0  0  0  0
  5  4  1  0  0  0  0
  5 10  1  0  0  0  0
  6  1  1  0  0  0  0
  7  2  1  0  0  0  0
  8  9  3  0  0  0  0
 12  5  2  0  0  0  0
M  RAD  1   3   2
M  END
