Coordinates from ORCA-job Pyridine-4-N2+-scan-d09-160-n800
 OpenBabel09191813533D

 12 11  0  0  0  0  0  0  0  0999 V2000
   -4.3635    0.2477   -1.2555 C   0  0  0  0  0  0  0  0  0  0  0  0
   -2.9059    0.1525   -1.1548 C   0  0  0  0  0  0  0  0  0  0  0  0
   -2.5489    0.9851   -0.1892 C   0  0  0  0  0  0  0  0  0  0  0  0
   -3.0947    1.8344    0.6675 C   0  0  0  0  0  0  0  0  0  0  0  0
   -4.5369    1.7925    0.4184 C   0  0  0  0  0  0  0  0  0  0  0  0
   -4.8246   -0.3836   -2.0145 H   0  0  0  0  0  0  0  0  0  0  0  0
   -2.3477   -0.5106   -1.8052 H   0  0  0  0  0  0  0  0  0  0  0  0
   13.7497    0.1697    1.2160 N   0  0  0  0  0  0  0  0  0  0  0  0
   14.8494    0.1209    1.3177 N   0  0  0  0  0  0  0  0  0  0  0  0
   -5.1420    2.4435    1.0489 H   0  0  0  0  0  0  0  0  0  0  0  0
   -2.6835    2.4797    1.4348 H   0  0  0  0  0  0  0  0  0  0  0  0
   -5.0819    1.0318   -0.4947 N   0  0  0  0  0  0  0  0  0  0  0  0
  1  2  2  0  0  0  0
  1 12  1  0  0  0  0
  2  3  1  0  0  0  0
  3  4  2  0  0  0  0
  4 11  1  0  0  0  0
  5  4  1  0  0  0  0
  5 10  1  0  0  0  0
  6  1  1  0  0  0  0
  7  2  1  0  0  0  0
  8  9  3  0  0  0  0
 12  5  2  0  0  0  0
M  RAD  1   3   2
M  END
