Coordinates from ORCA-job Pyridine-4-N2+-scan-d09-160-n800
 OpenBabel09191813523D

 12 11  0  0  0  0  0  0  0  0999 V2000
   -3.2617    0.2024   -1.1496 C   0  0  0  0  0  0  0  0  0  0  0  0
   -1.8043    0.0846   -1.0742 C   0  0  0  0  0  0  0  0  0  0  0  0
   -1.4181    0.9094   -0.1131 C   0  0  0  0  0  0  0  0  0  0  0  0
   -1.9360    1.7649    0.7546 C   0  0  0  0  0  0  0  0  0  0  0  0
   -3.3827    1.7458    0.5302 C   0  0  0  0  0  0  0  0  0  0  0  0
   -3.7455   -0.4200   -1.9019 H   0  0  0  0  0  0  0  0  0  0  0  0
   -1.2676   -0.5855   -1.7354 H   0  0  0  0  0  0  0  0  0  0  0  0
    8.1044    0.4555    0.7331 N   0  0  0  0  0  0  0  0  0  0  0  0
    9.2042    0.4044    0.8324 N   0  0  0  0  0  0  0  0  0  0  0  0
   -3.9668    2.4046    1.1722 H   0  0  0  0  0  0  0  0  0  0  0  0
   -1.5017    2.4020    1.5160 H   0  0  0  0  0  0  0  0  0  0  0  0
   -3.9549    0.9956   -0.3750 N   0  0  0  0  0  0  0  0  0  0  0  0
  1  2  2  0  0  0  0
  1 12  1  0  0  0  0
  2  3  1  0  0  0  0
  3  4  2  0  0  0  0
  4 11  1  0  0  0  0
  5  4  1  0  0  0  0
  5 10  1  0  0  0  0
  6  1  1  0  0  0  0
  7  2  1  0  0  0  0
  8  9  3  0  0  0  0
 12  5  2  0  0  0  0
M  RAD  1   3   2
M  END
