Coordinates from ORCA-job Pyridine-4-N2+-scan-d09-160-n800
 OpenBabel09191813533D

 12 11  0  0  0  0  0  0  0  0999 V2000
   -3.7324    0.2219   -1.1947 C   0  0  0  0  0  0  0  0  0  0  0  0
   -2.2748    0.1131   -1.1092 C   0  0  0  0  0  0  0  0  0  0  0  0
   -1.9002    0.9411   -0.1463 C   0  0  0  0  0  0  0  0  0  0  0  0
   -2.4293    1.7941    0.7171 C   0  0  0  0  0  0  0  0  0  0  0  0
   -3.8743    1.7660    0.4829 C   0  0  0  0  0  0  0  0  0  0  0  0
   -4.2072   -0.4042   -1.9497 H   0  0  0  0  0  0  0  0  0  0  0  0
   -1.7295   -0.5542   -1.7662 H   0  0  0  0  0  0  0  0  0  0  0  0
   10.5120    0.3353    0.9409 N   0  0  0  0  0  0  0  0  0  0  0  0
   11.6119    0.2829    1.0388 N   0  0  0  0  0  0  0  0  0  0  0  0
   -4.4668    2.4216    1.1204 H   0  0  0  0  0  0  0  0  0  0  0  0
   -2.0042    2.4345    1.4809 H   0  0  0  0  0  0  0  0  0  0  0  0
   -4.4357    1.0115   -0.4255 N   0  0  0  0  0  0  0  0  0  0  0  0
  1  2  2  0  0  0  0
  1 12  1  0  0  0  0
  2  3  1  0  0  0  0
  3  4  2  0  0  0  0
  4 11  1  0  0  0  0
  5  4  1  0  0  0  0
  5 10  1  0  0  0  0
  6  1  1  0  0  0  0
  7  2  1  0  0  0  0
  8  9  3  0  0  0  0
 12  5  2  0  0  0  0
M  RAD  1   3   2
M  END
