Coordinates from ORCA-job Pyridine-4-N2+-scan-d09-160-n800
 OpenBabel09191813523D

 12 11  0  0  0  0  0  0  0  0999 V2000
   -2.1831    0.1570   -1.0475 C   0  0  0  0  0  0  0  0  0  0  0  0
   -0.7305    0.0255   -0.9872 C   0  0  0  0  0  0  0  0  0  0  0  0
   -0.3244    0.8455   -0.0283 C   0  0  0  0  0  0  0  0  0  0  0  0
   -0.8288    1.7050    0.8455 C   0  0  0  0  0  0  0  0  0  0  0  0
   -2.2735    1.6990    0.6351 C   0  0  0  0  0  0  0  0  0  0  0  0
   -2.6834   -0.4583   -1.7945 H   0  0  0  0  0  0  0  0  0  0  0  0
   -0.2006   -0.6464   -1.6511 H   0  0  0  0  0  0  0  0  0  0  0  0
    2.6425    0.7166    0.2488 N   0  0  0  0  0  0  0  0  0  0  0  0
    3.7417    0.6688    0.3514 N   0  0  0  0  0  0  0  0  0  0  0  0
   -2.8485    2.3610    1.2817 H   0  0  0  0  0  0  0  0  0  0  0  0
   -0.3752    2.3342    1.6013 H   0  0  0  0  0  0  0  0  0  0  0  0
   -2.8667    0.9557   -0.2658 N   0  0  0  0  0  0  0  0  0  0  0  0
  1  2  2  0  0  0  0
  1 12  1  0  0  0  0
  2  3  1  0  0  0  0
  3  4  2  0  0  0  0
  4 11  1  0  0  0  0
  5  4  1  0  0  0  0
  5 10  1  0  0  0  0
  6  1  1  0  0  0  0
  7  2  1  0  0  0  0
  8  9  3  0  0  0  0
 12  5  2  0  0  0  0
M  RAD  1   3   2
M  END
