Coordinates from ORCA-job Pyridine-4-N2+-scan-d09-160-n800
 OpenBabel09191813533D

 12 11  0  0  0  0  0  0  0  0999 V2000
   -4.3731    0.2481   -1.2564 C   0  0  0  0  0  0  0  0  0  0  0  0
   -2.9156    0.1532   -1.1555 C   0  0  0  0  0  0  0  0  0  0  0  0
   -2.5589    0.9859   -0.1898 C   0  0  0  0  0  0  0  0  0  0  0  0
   -3.1050    1.8350    0.6668 C   0  0  0  0  0  0  0  0  0  0  0  0
   -4.5471    1.7929    0.4174 C   0  0  0  0  0  0  0  0  0  0  0  0
   -4.8341   -0.3833   -2.0155 H   0  0  0  0  0  0  0  0  0  0  0  0
   -2.3571   -0.5099   -1.8058 H   0  0  0  0  0  0  0  0  0  0  0  0
   13.7995    0.1672    1.2202 N   0  0  0  0  0  0  0  0  0  0  0  0
   14.8992    0.1184    1.3220 N   0  0  0  0  0  0  0  0  0  0  0  0
   -5.1525    2.4438    1.0477 H   0  0  0  0  0  0  0  0  0  0  0  0
   -2.6940    2.4804    1.4342 H   0  0  0  0  0  0  0  0  0  0  0  0
   -5.0919    1.0320   -0.4958 N   0  0  0  0  0  0  0  0  0  0  0  0
  1  2  2  0  0  0  0
  1 12  1  0  0  0  0
  2  3  1  0  0  0  0
  3  4  2  0  0  0  0
  4 11  1  0  0  0  0
  5  4  1  0  0  0  0
  5 10  1  0  0  0  0
  6  1  1  0  0  0  0
  7  2  1  0  0  0  0
  8  9  3  0  0  0  0
 12  5  2  0  0  0  0
M  RAD  1   3   2
M  END
