Coordinates from ORCA-job Pyridine-4-N2+-scan-d09-160-n800
 OpenBabel09191813523D

 12 11  0  0  0  0  0  0  0  0999 V2000
   -2.9270    0.1885   -1.1176 C   0  0  0  0  0  0  0  0  0  0  0  0
   -1.4698    0.0645   -1.0490 C   0  0  0  0  0  0  0  0  0  0  0  0
   -1.0758    0.8871   -0.0892 C   0  0  0  0  0  0  0  0  0  0  0  0
   -1.5860    1.7443    0.7814 C   0  0  0  0  0  0  0  0  0  0  0  0
   -3.0337    1.7315    0.5636 C   0  0  0  0  0  0  0  0  0  0  0  0
   -3.4168   -0.4314   -1.8680 H   0  0  0  0  0  0  0  0  0  0  0  0
   -0.9387   -0.6074   -1.7129 H   0  0  0  0  0  0  0  0  0  0  0  0
    6.3941    0.5405    0.5850 N   0  0  0  0  0  0  0  0  0  0  0  0
    7.4938    0.4905    0.6855 N   0  0  0  0  0  0  0  0  0  0  0  0
   -3.6121    2.3922    1.2087 H   0  0  0  0  0  0  0  0  0  0  0  0
   -1.1453    2.3790    1.5412 H   0  0  0  0  0  0  0  0  0  0  0  0
   -3.6133    0.9842   -0.3394 N   0  0  0  0  0  0  0  0  0  0  0  0
  1  2  2  0  0  0  0
  1 12  1  0  0  0  0
  2  3  1  0  0  0  0
  3  4  2  0  0  0  0
  4 11  1  0  0  0  0
  5  4  1  0  0  0  0
  5 10  1  0  0  0  0
  6  1  1  0  0  0  0
  7  2  1  0  0  0  0
  8  9  3  0  0  0  0
 12  5  2  0  0  0  0
M  RAD  1   3   2
M  END
