Coordinates from ORCA-job Pyridine-4-N2+-scan-d09-160-n800
 OpenBabel09191813523D

 12 11  0  0  0  0  0  0  0  0999 V2000
   -2.2569    0.1602   -1.0544 C   0  0  0  0  0  0  0  0  0  0  0  0
   -0.8018    0.0286   -0.9938 C   0  0  0  0  0  0  0  0  0  0  0  0
   -0.3990    0.8488   -0.0352 C   0  0  0  0  0  0  0  0  0  0  0  0
   -0.9004    1.7082    0.8388 C   0  0  0  0  0  0  0  0  0  0  0  0
   -2.3474    1.7023    0.6282 C   0  0  0  0  0  0  0  0  0  0  0  0
   -2.7552   -0.4560   -1.8022 H   0  0  0  0  0  0  0  0  0  0  0  0
   -0.2740   -0.6441   -1.6589 H   0  0  0  0  0  0  0  0  0  0  0  0
    3.0062    0.7007    0.2826 N   0  0  0  0  0  0  0  0  0  0  0  0
    4.1055    0.6528    0.3852 N   0  0  0  0  0  0  0  0  0  0  0  0
   -2.9207    2.3649    1.2759 H   0  0  0  0  0  0  0  0  0  0  0  0
   -0.4490    2.3385    1.5955 H   0  0  0  0  0  0  0  0  0  0  0  0
   -2.9379    0.9588   -0.2725 N   0  0  0  0  0  0  0  0  0  0  0  0
  1  2  2  0  0  0  0
  1 12  1  0  0  0  0
  2  3  1  0  0  0  0
  3  4  2  0  0  0  0
  4 11  1  0  0  0  0
  5  4  1  0  0  0  0
  5 10  1  0  0  0  0
  6  1  1  0  0  0  0
  7  2  1  0  0  0  0
  8  9  3  0  0  0  0
 12  5  2  0  0  0  0
M  RAD  1   3   2
M  END
