Coordinates from ORCA-job Pyridine-4-N2+-scan-d09-160-n800
 OpenBabel09191813523D

 12 11  0  0  0  0  0  0  0  0999 V2000
   -2.2033    0.1579   -1.0494 C   0  0  0  0  0  0  0  0  0  0  0  0
   -0.7497    0.0263   -0.9890 C   0  0  0  0  0  0  0  0  0  0  0  0
   -0.3451    0.8464   -0.0302 C   0  0  0  0  0  0  0  0  0  0  0  0
   -0.8481    1.7059    0.8437 C   0  0  0  0  0  0  0  0  0  0  0  0
   -2.2937    1.6999    0.6332 C   0  0  0  0  0  0  0  0  0  0  0  0
   -2.7028   -0.4578   -1.7967 H   0  0  0  0  0  0  0  0  0  0  0  0
   -0.2206   -0.6459   -1.6533 H   0  0  0  0  0  0  0  0  0  0  0  0
    2.7413    0.7123    0.2580 N   0  0  0  0  0  0  0  0  0  0  0  0
    3.8406    0.6645    0.3606 N   0  0  0  0  0  0  0  0  0  0  0  0
   -2.8681    2.3621    1.2802 H   0  0  0  0  0  0  0  0  0  0  0  0
   -0.3952    2.3355    1.5998 H   0  0  0  0  0  0  0  0  0  0  0  0
   -2.8859    0.9565   -0.2676 N   0  0  0  0  0  0  0  0  0  0  0  0
  1  2  2  0  0  0  0
  1 12  1  0  0  0  0
  2  3  1  0  0  0  0
  3  4  2  0  0  0  0
  4 11  1  0  0  0  0
  5  4  1  0  0  0  0
  5 10  1  0  0  0  0
  6  1  1  0  0  0  0
  7  2  1  0  0  0  0
  8  9  3  0  0  0  0
 12  5  2  0  0  0  0
M  RAD  1   3   2
M  END
