Coordinates from ORCA-job Pyridine-4-N2+-scan-d09-160-n800
 OpenBabel09191813523D

 12 11  0  0  0  0  0  0  0  0999 V2000
   -2.7967    0.1831   -1.1052 C   0  0  0  0  0  0  0  0  0  0  0  0
   -1.3396    0.0568   -1.0390 C   0  0  0  0  0  0  0  0  0  0  0  0
   -0.9429    0.8787   -0.0797 C   0  0  0  0  0  0  0  0  0  0  0  0
   -1.4503    1.7365    0.7920 C   0  0  0  0  0  0  0  0  0  0  0  0
   -2.8983    1.7258    0.5765 C   0  0  0  0  0  0  0  0  0  0  0  0
   -3.2888   -0.4359   -1.8549 H   0  0  0  0  0  0  0  0  0  0  0  0
   -0.8106   -0.6157   -1.7039 H   0  0  0  0  0  0  0  0  0  0  0  0
    5.7298    0.5732    0.5272 N   0  0  0  0  0  0  0  0  0  0  0  0
    6.8295    0.5238    0.6282 N   0  0  0  0  0  0  0  0  0  0  0  0
   -3.4748    2.3874    1.2227 H   0  0  0  0  0  0  0  0  0  0  0  0
   -1.0073    2.3703    1.5511 H   0  0  0  0  0  0  0  0  0  0  0  0
   -3.4807    0.9797   -0.3257 N   0  0  0  0  0  0  0  0  0  0  0  0
  1  2  2  0  0  0  0
  1 12  1  0  0  0  0
  2  3  1  0  0  0  0
  3  4  2  0  0  0  0
  4 11  1  0  0  0  0
  5  4  1  0  0  0  0
  5 10  1  0  0  0  0
  6  1  1  0  0  0  0
  7  2  1  0  0  0  0
  8  9  3  0  0  0  0
 12  5  2  0  0  0  0
M  RAD  1   3   2
M  END
