Coordinates from ORCA-job Pyridine-4-N2+-scan-d09-160-n800
 OpenBabel09191813523D

 12 11  0  0  0  0  0  0  0  0999 V2000
   -2.4394    0.1681   -1.0714 C   0  0  0  0  0  0  0  0  0  0  0  0
   -0.9829    0.0373   -1.0099 C   0  0  0  0  0  0  0  0  0  0  0  0
   -0.5813    0.8577   -0.0514 C   0  0  0  0  0  0  0  0  0  0  0  0
   -1.0831    1.7167    0.8224 C   0  0  0  0  0  0  0  0  0  0  0  0
   -2.5314    1.7103    0.6111 C   0  0  0  0  0  0  0  0  0  0  0  0
   -2.9359   -0.4490   -1.8198 H   0  0  0  0  0  0  0  0  0  0  0  0
   -0.4568   -0.6362   -1.6762 H   0  0  0  0  0  0  0  0  0  0  0  0
    3.9195    0.6596    0.3665 N   0  0  0  0  0  0  0  0  0  0  0  0
    5.0191    0.6114    0.4687 N   0  0  0  0  0  0  0  0  0  0  0  0
   -3.1042    2.3731    1.2591 H   0  0  0  0  0  0  0  0  0  0  0  0
   -0.6349    2.3485    1.5801 H   0  0  0  0  0  0  0  0  0  0  0  0
   -3.1193    0.9663   -0.2897 N   0  0  0  0  0  0  0  0  0  0  0  0
  1  2  2  0  0  0  0
  1 12  1  0  0  0  0
  2  3  1  0  0  0  0
  3  4  2  0  0  0  0
  4 11  1  0  0  0  0
  5  4  1  0  0  0  0
  5 10  1  0  0  0  0
  6  1  1  0  0  0  0
  7  2  1  0  0  0  0
  8  9  3  0  0  0  0
 12  5  2  0  0  0  0
M  RAD  1   3   2
M  END
