Coordinates from ORCA-job Pyridine-4-N2+-scan-d09-160-n800
 OpenBabel09191813523D

 12 11  0  0  0  0  0  0  0  0999 V2000
   -2.3069    0.1623   -1.0591 C   0  0  0  0  0  0  0  0  0  0  0  0
   -0.8511    0.0309   -0.9982 C   0  0  0  0  0  0  0  0  0  0  0  0
   -0.4488    0.8512   -0.0397 C   0  0  0  0  0  0  0  0  0  0  0  0
   -0.9499    1.7104    0.8343 C   0  0  0  0  0  0  0  0  0  0  0  0
   -2.3977    1.7045    0.6236 C   0  0  0  0  0  0  0  0  0  0  0  0
   -2.8045   -0.4542   -1.8071 H   0  0  0  0  0  0  0  0  0  0  0  0
   -0.3241   -0.6421   -1.6639 H   0  0  0  0  0  0  0  0  0  0  0  0
    3.2552    0.6897    0.3056 N   0  0  0  0  0  0  0  0  0  0  0  0
    4.3546    0.6417    0.4081 N   0  0  0  0  0  0  0  0  0  0  0  0
   -2.9705    2.3673    1.2715 H   0  0  0  0  0  0  0  0  0  0  0  0
   -0.4996    2.3413    1.5913 H   0  0  0  0  0  0  0  0  0  0  0  0
   -2.9871    0.9608   -0.2771 N   0  0  0  0  0  0  0  0  0  0  0  0
  1  2  2  0  0  0  0
  1 12  1  0  0  0  0
  2  3  1  0  0  0  0
  3  4  2  0  0  0  0
  4 11  1  0  0  0  0
  5  4  1  0  0  0  0
  5 10  1  0  0  0  0
  6  1  1  0  0  0  0
  7  2  1  0  0  0  0
  8  9  3  0  0  0  0
 12  5  2  0  0  0  0
M  RAD  1   3   2
M  END
