Coordinates from ORCA-job Pyridine-4-N2+-scan-d09-160-n800
 OpenBabel09191813523D

 12 11  0  0  0  0  0  0  0  0999 V2000
   -3.2325    0.2012   -1.1468 C   0  0  0  0  0  0  0  0  0  0  0  0
   -1.7751    0.0828   -1.0720 C   0  0  0  0  0  0  0  0  0  0  0  0
   -1.3882    0.9074   -0.1111 C   0  0  0  0  0  0  0  0  0  0  0  0
   -1.9054    1.7631    0.7569 C   0  0  0  0  0  0  0  0  0  0  0  0
   -3.3522    1.7446    0.5331 C   0  0  0  0  0  0  0  0  0  0  0  0
   -3.7168   -0.4210   -1.8989 H   0  0  0  0  0  0  0  0  0  0  0  0
   -1.2389   -0.5874   -1.7335 H   0  0  0  0  0  0  0  0  0  0  0  0
    7.9550    0.4630    0.7202 N   0  0  0  0  0  0  0  0  0  0  0  0
    9.0548    0.4120    0.8196 N   0  0  0  0  0  0  0  0  0  0  0  0
   -3.9358    2.4035    1.1755 H   0  0  0  0  0  0  0  0  0  0  0  0
   -1.4705    2.4000    1.5182 H   0  0  0  0  0  0  0  0  0  0  0  0
   -3.9251    0.9946   -0.3719 N   0  0  0  0  0  0  0  0  0  0  0  0
  1  2  2  0  0  0  0
  1 12  1  0  0  0  0
  2  3  1  0  0  0  0
  3  4  2  0  0  0  0
  4 11  1  0  0  0  0
  5  4  1  0  0  0  0
  5 10  1  0  0  0  0
  6  1  1  0  0  0  0
  7  2  1  0  0  0  0
  8  9  3  0  0  0  0
 12  5  2  0  0  0  0
M  RAD  1   3   2
M  END
