Coordinates from ORCA-job Pyridine-4-N2+-scan-d09-160-n800
 OpenBabel09191813523D

 12 11  0  0  0  0  0  0  0  0999 V2000
   -2.3236    0.1631   -1.0606 C   0  0  0  0  0  0  0  0  0  0  0  0
   -0.8676    0.0317   -0.9997 C   0  0  0  0  0  0  0  0  0  0  0  0
   -0.4654    0.8519   -0.0412 C   0  0  0  0  0  0  0  0  0  0  0  0
   -0.9665    1.7112    0.8328 C   0  0  0  0  0  0  0  0  0  0  0  0
   -2.4144    1.7052    0.6220 C   0  0  0  0  0  0  0  0  0  0  0  0
   -2.8210   -0.4536   -1.8087 H   0  0  0  0  0  0  0  0  0  0  0  0
   -0.3408   -0.6414   -1.6655 H   0  0  0  0  0  0  0  0  0  0  0  0
    3.3382    0.6860    0.3133 N   0  0  0  0  0  0  0  0  0  0  0  0
    4.4376    0.6379    0.4158 N   0  0  0  0  0  0  0  0  0  0  0  0
   -2.9871    2.3680    1.2700 H   0  0  0  0  0  0  0  0  0  0  0  0
   -0.5165    2.3422    1.5899 H   0  0  0  0  0  0  0  0  0  0  0  0
   -3.0036    0.9615   -0.2787 N   0  0  0  0  0  0  0  0  0  0  0  0
  1  2  2  0  0  0  0
  1 12  1  0  0  0  0
  2  3  1  0  0  0  0
  3  4  2  0  0  0  0
  4 11  1  0  0  0  0
  5  4  1  0  0  0  0
  5 10  1  0  0  0  0
  6  1  1  0  0  0  0
  7  2  1  0  0  0  0
  8  9  3  0  0  0  0
 12  5  2  0  0  0  0
M  RAD  1   3   2
M  END
