Coordinates from ORCA-job Pyridine-4-N2+-scan-d09-160-n800
 OpenBabel09191813523D

 12 11  0  0  0  0  0  0  0  0999 V2000
   -2.3601    0.1646   -1.0640 C   0  0  0  0  0  0  0  0  0  0  0  0
   -0.9038    0.0334   -1.0030 C   0  0  0  0  0  0  0  0  0  0  0  0
   -0.5018    0.8537   -0.0445 C   0  0  0  0  0  0  0  0  0  0  0  0
   -1.0030    1.7129    0.8295 C   0  0  0  0  0  0  0  0  0  0  0  0
   -2.4512    1.7068    0.6186 C   0  0  0  0  0  0  0  0  0  0  0  0
   -2.8571   -0.4521   -1.8122 H   0  0  0  0  0  0  0  0  0  0  0  0
   -0.3774   -0.6399   -1.6690 H   0  0  0  0  0  0  0  0  0  0  0  0
    3.5209    0.6778    0.3301 N   0  0  0  0  0  0  0  0  0  0  0  0
    4.6204    0.6297    0.4325 N   0  0  0  0  0  0  0  0  0  0  0  0
   -3.0238    2.3697    1.2666 H   0  0  0  0  0  0  0  0  0  0  0  0
   -0.5537    2.3441    1.5868 H   0  0  0  0  0  0  0  0  0  0  0  0
   -3.0399    0.9630   -0.2821 N   0  0  0  0  0  0  0  0  0  0  0  0
  1  2  2  0  0  0  0
  1 12  1  0  0  0  0
  2  3  1  0  0  0  0
  3  4  2  0  0  0  0
  4 11  1  0  0  0  0
  5  4  1  0  0  0  0
  5 10  1  0  0  0  0
  6  1  1  0  0  0  0
  7  2  1  0  0  0  0
  8  9  3  0  0  0  0
 12  5  2  0  0  0  0
M  RAD  1   3   2
M  END
