Coordinates from ORCA-job Pyridine-4-N2+-scan-d09-160-n800
 OpenBabel09191813533D

 12 11  0  0  0  0  0  0  0  0999 V2000
   -4.2925    0.2449   -1.2486 C   0  0  0  0  0  0  0  0  0  0  0  0
   -2.8350    0.1480   -1.1499 C   0  0  0  0  0  0  0  0  0  0  0  0
   -2.4757    0.9800   -0.1846 C   0  0  0  0  0  0  0  0  0  0  0  0
   -3.0194    1.8297    0.6730 C   0  0  0  0  0  0  0  0  0  0  0  0
   -4.4619    1.7896    0.4258 C   0  0  0  0  0  0  0  0  0  0  0  0
   -4.7555   -0.3858   -2.0071 H   0  0  0  0  0  0  0  0  0  0  0  0
   -2.2784   -0.5157   -1.8011 H   0  0  0  0  0  0  0  0  0  0  0  0
   13.3844    0.1884    1.1850 N   0  0  0  0  0  0  0  0  0  0  0  0
   14.4841    0.1395    1.2865 N   0  0  0  0  0  0  0  0  0  0  0  0
   -5.0654    2.4412    1.0571 H   0  0  0  0  0  0  0  0  0  0  0  0
   -2.6064    2.4744    1.4399 H   0  0  0  0  0  0  0  0  0  0  0  0
   -5.0091    1.0296   -0.4867 N   0  0  0  0  0  0  0  0  0  0  0  0
  1  2  2  0  0  0  0
  1 12  1  0  0  0  0
  2  3  1  0  0  0  0
  3  4  2  0  0  0  0
  4 11  1  0  0  0  0
  5  4  1  0  0  0  0
  5 10  1  0  0  0  0
  6  1  1  0  0  0  0
  7  2  1  0  0  0  0
  8  9  3  0  0  0  0
 12  5  2  0  0  0  0
M  RAD  1   3   2
M  END
