Coordinates from ORCA-job Pyridine-4-N2+-scan-d09-160-n800
 OpenBabel09191813533D

 12 11  0  0  0  0  0  0  0  0999 V2000
   -3.5864    0.2158   -1.1807 C   0  0  0  0  0  0  0  0  0  0  0  0
   -2.1289    0.1042   -1.0984 C   0  0  0  0  0  0  0  0  0  0  0  0
   -1.7506    0.9312   -0.1361 C   0  0  0  0  0  0  0  0  0  0  0  0
   -2.2761    1.7850    0.7287 C   0  0  0  0  0  0  0  0  0  0  0  0
   -3.7217    1.7597    0.4976 C   0  0  0  0  0  0  0  0  0  0  0  0
   -4.0641   -0.4091   -1.9348 H   0  0  0  0  0  0  0  0  0  0  0  0
   -1.5863   -0.5640   -1.7567 H   0  0  0  0  0  0  0  0  0  0  0  0
    9.7648    0.3727    0.8765 N   0  0  0  0  0  0  0  0  0  0  0  0
   10.8647    0.3207    0.9748 N   0  0  0  0  0  0  0  0  0  0  0  0
   -4.3115    2.4164    1.1365 H   0  0  0  0  0  0  0  0  0  0  0  0
   -1.8481    2.4244    1.4918 H   0  0  0  0  0  0  0  0  0  0  0  0
   -4.2865    1.0066   -0.4098 N   0  0  0  0  0  0  0  0  0  0  0  0
  1  2  2  0  0  0  0
  1 12  1  0  0  0  0
  2  3  1  0  0  0  0
  3  4  2  0  0  0  0
  4 11  1  0  0  0  0
  5  4  1  0  0  0  0
  5 10  1  0  0  0  0
  6  1  1  0  0  0  0
  7  2  1  0  0  0  0
  8  9  3  0  0  0  0
 12  5  2  0  0  0  0
M  RAD  1   3   2
M  END
