Coordinates from ORCA-job Pyridine-4-N2+-scan-d09-160-n800
 OpenBabel09191813523D

 12 11  0  0  0  0  0  0  0  0999 V2000
   -3.0473    0.1935   -1.1291 C   0  0  0  0  0  0  0  0  0  0  0  0
   -1.5900    0.0717   -1.0581 C   0  0  0  0  0  0  0  0  0  0  0  0
   -1.1987    0.8951   -0.0979 C   0  0  0  0  0  0  0  0  0  0  0  0
   -1.7116    1.7517    0.7717 C   0  0  0  0  0  0  0  0  0  0  0  0
   -3.1590    1.7366    0.5516 C   0  0  0  0  0  0  0  0  0  0  0  0
   -3.5350   -0.4273   -1.8802 H   0  0  0  0  0  0  0  0  0  0  0  0
   -1.0570   -0.5996   -1.7211 H   0  0  0  0  0  0  0  0  0  0  0  0
    7.0085    0.5100    0.6383 N   0  0  0  0  0  0  0  0  0  0  0  0
    8.1083    0.4596    0.7384 N   0  0  0  0  0  0  0  0  0  0  0  0
   -3.7395    2.3967    1.1957 H   0  0  0  0  0  0  0  0  0  0  0  0
   -1.2732    2.3872    1.5321 H   0  0  0  0  0  0  0  0  0  0  0  0
   -3.7361    0.9883   -0.3522 N   0  0  0  0  0  0  0  0  0  0  0  0
  1  2  2  0  0  0  0
  1 12  1  0  0  0  0
  2  3  1  0  0  0  0
  3  4  2  0  0  0  0
  4 11  1  0  0  0  0
  5  4  1  0  0  0  0
  5 10  1  0  0  0  0
  6  1  1  0  0  0  0
  7  2  1  0  0  0  0
  8  9  3  0  0  0  0
 12  5  2  0  0  0  0
M  RAD  1   3   2
M  END
