Coordinates from ORCA-job Pyridine-4-N2+-scan-d09-160-n800
 OpenBabel09191813523D

 12 11  0  0  0  0  0  0  0  0999 V2000
   -3.0018    0.1916   -1.1248 C   0  0  0  0  0  0  0  0  0  0  0  0
   -1.5445    0.0690   -1.0546 C   0  0  0  0  0  0  0  0  0  0  0  0
   -1.1522    0.8921   -0.0946 C   0  0  0  0  0  0  0  0  0  0  0  0
   -1.6641    1.7489    0.7754 C   0  0  0  0  0  0  0  0  0  0  0  0
   -3.1116    1.7347    0.5562 C   0  0  0  0  0  0  0  0  0  0  0  0
   -3.4903   -0.4288   -1.8756 H   0  0  0  0  0  0  0  0  0  0  0  0
   -1.0122   -0.6025   -1.7180 H   0  0  0  0  0  0  0  0  0  0  0  0
    6.7760    0.5216    0.6181 N   0  0  0  0  0  0  0  0  0  0  0  0
    7.8758    0.4713    0.7184 N   0  0  0  0  0  0  0  0  0  0  0  0
   -3.6913    2.3950    1.2006 H   0  0  0  0  0  0  0  0  0  0  0  0
   -1.2248    2.3841    1.5355 H   0  0  0  0  0  0  0  0  0  0  0  0
   -3.6896    0.9868   -0.3473 N   0  0  0  0  0  0  0  0  0  0  0  0
  1  2  2  0  0  0  0
  1 12  1  0  0  0  0
  2  3  1  0  0  0  0
  3  4  2  0  0  0  0
  4 11  1  0  0  0  0
  5  4  1  0  0  0  0
  5 10  1  0  0  0  0
  6  1  1  0  0  0  0
  7  2  1  0  0  0  0
  8  9  3  0  0  0  0
 12  5  2  0  0  0  0
M  RAD  1   3   2
M  END
