Coordinates from ORCA-job Pyridine-4-N2+-scan-d09-160-n800
 OpenBabel09191813523D

 12 11  0  0  0  0  0  0  0  0999 V2000
   -2.0644    0.1514   -1.0370 C   0  0  0  0  0  0  0  0  0  0  0  0
   -0.6261    0.0214   -0.9769 C   0  0  0  0  0  0  0  0  0  0  0  0
   -0.1914    0.8397   -0.0159 C   0  0  0  0  0  0  0  0  0  0  0  0
   -0.7244    1.6999    0.8546 C   0  0  0  0  0  0  0  0  0  0  0  0
   -2.1547    1.6944    0.6468 C   0  0  0  0  0  0  0  0  0  0  0  0
   -2.5761   -0.4587   -1.7799 H   0  0  0  0  0  0  0  0  0  0  0  0
   -0.0868   -0.6468   -1.6354 H   0  0  0  0  0  0  0  0  0  0  0  0
    2.0783    0.7412    0.1961 N   0  0  0  0  0  0  0  0  0  0  0  0
    3.1770    0.6934    0.2987 N   0  0  0  0  0  0  0  0  0  0  0  0
   -2.7407    2.3521    1.2871 H   0  0  0  0  0  0  0  0  0  0  0  0
   -0.2608    2.3246    1.6069 H   0  0  0  0  0  0  0  0  0  0  0  0
   -2.7605    0.9511   -0.2559 N   0  0  0  0  0  0  0  0  0  0  0  0
  1  2  2  0  0  0  0
  1 12  1  0  0  0  0
  2  3  1  0  0  0  0
  3  4  2  0  0  0  0
  4 11  1  0  0  0  0
  5  4  1  0  0  0  0
  5 10  1  0  0  0  0
  6  1  1  0  0  0  0
  7  2  1  0  0  0  0
  8  9  3  0  0  0  0
 12  5  2  0  0  0  0
M  RAD  1   3   2
M  END
