Coordinates from ORCA-job Pyridine-4-N2+-scan-d09-160-n800
 OpenBabel09191813533D

 12 11  0  0  0  0  0  0  0  0999 V2000
   -3.6675    0.2192   -1.1885 C   0  0  0  0  0  0  0  0  0  0  0  0
   -2.2100    0.1092   -1.1044 C   0  0  0  0  0  0  0  0  0  0  0  0
   -1.8337    0.9367   -0.1418 C   0  0  0  0  0  0  0  0  0  0  0  0
   -2.3612    1.7901    0.7222 C   0  0  0  0  0  0  0  0  0  0  0  0
   -3.8064    1.7632    0.4894 C   0  0  0  0  0  0  0  0  0  0  0  0
   -4.1436   -0.4063   -1.9431 H   0  0  0  0  0  0  0  0  0  0  0  0
   -1.6659   -0.5586   -1.7620 H   0  0  0  0  0  0  0  0  0  0  0  0
   10.1799    0.3519    0.9123 N   0  0  0  0  0  0  0  0  0  0  0  0
   11.2798    0.2997    1.0103 N   0  0  0  0  0  0  0  0  0  0  0  0
   -4.3978    2.4193    1.1276 H   0  0  0  0  0  0  0  0  0  0  0  0
   -1.9348    2.4300    1.4858 H   0  0  0  0  0  0  0  0  0  0  0  0
   -4.3694    1.0093   -0.4185 N   0  0  0  0  0  0  0  0  0  0  0  0
  1  2  2  0  0  0  0
  1 12  1  0  0  0  0
  2  3  1  0  0  0  0
  3  4  2  0  0  0  0
  4 11  1  0  0  0  0
  5  4  1  0  0  0  0
  5 10  1  0  0  0  0
  6  1  1  0  0  0  0
  7  2  1  0  0  0  0
  8  9  3  0  0  0  0
 12  5  2  0  0  0  0
M  RAD  1   3   2
M  END
