Coordinates from ORCA-job Pyridine-4-N2+-scan-d09-160-n800
 OpenBabel09191813523D

 12 11  0  0  0  0  0  0  0  0999 V2000
   -2.6760    0.1781   -1.0938 C   0  0  0  0  0  0  0  0  0  0  0  0
   -1.2190    0.0499   -1.0295 C   0  0  0  0  0  0  0  0  0  0  0  0
   -0.8201    0.8711   -0.0706 C   0  0  0  0  0  0  0  0  0  0  0  0
   -1.3251    1.7294    0.8019 C   0  0  0  0  0  0  0  0  0  0  0  0
   -2.7734    1.7206    0.5884 C   0  0  0  0  0  0  0  0  0  0  0  0
   -3.1699   -0.4401   -1.8429 H   0  0  0  0  0  0  0  0  0  0  0  0
   -0.6915   -0.6231   -1.6952 H   0  0  0  0  0  0  0  0  0  0  0  0
    5.1154    0.6032    0.4734 N   0  0  0  0  0  0  0  0  0  0  0  0
    6.2150    0.5542    0.5749 N   0  0  0  0  0  0  0  0  0  0  0  0
   -3.3481    2.3827    1.2354 H   0  0  0  0  0  0  0  0  0  0  0  0
   -0.8800    2.3624    1.5605 H   0  0  0  0  0  0  0  0  0  0  0  0
   -3.3580    0.9754   -0.3132 N   0  0  0  0  0  0  0  0  0  0  0  0
  1  2  2  0  0  0  0
  1 12  1  0  0  0  0
  2  3  1  0  0  0  0
  3  4  2  0  0  0  0
  4 11  1  0  0  0  0
  5  4  1  0  0  0  0
  5 10  1  0  0  0  0
  6  1  1  0  0  0  0
  7  2  1  0  0  0  0
  8  9  3  0  0  0  0
 12  5  2  0  0  0  0
M  RAD  1   3   2
M  END
