Coordinates from ORCA-job Pyridine-4-N2+-scan-d09-160-n800
 OpenBabel09191813533D

 12 11  0  0  0  0  0  0  0  0999 V2000
   -3.9399    0.2304   -1.2146 C   0  0  0  0  0  0  0  0  0  0  0  0
   -2.4823    0.1258   -1.1245 C   0  0  0  0  0  0  0  0  0  0  0  0
   -2.1131    0.9552   -0.1607 C   0  0  0  0  0  0  0  0  0  0  0  0
   -2.6473    1.8072    0.7007 C   0  0  0  0  0  0  0  0  0  0  0  0
   -4.0915    1.7748    0.4619 C   0  0  0  0  0  0  0  0  0  0  0  0
   -4.4105   -0.3972   -1.9709 H   0  0  0  0  0  0  0  0  0  0  0  0
   -1.9330   -0.5402   -1.7794 H   0  0  0  0  0  0  0  0  0  0  0  0
   11.5746    0.2819    1.0322 N   0  0  0  0  0  0  0  0  0  0  0  0
   12.6745    0.2293    1.1298 N   0  0  0  0  0  0  0  0  0  0  0  0
   -4.6879    2.4290    1.0972 H   0  0  0  0  0  0  0  0  0  0  0  0
   -2.2264    2.4491    1.4656 H   0  0  0  0  0  0  0  0  0  0  0  0
   -4.6479    1.0184   -0.4480 N   0  0  0  0  0  0  0  0  0  0  0  0
  1  2  2  0  0  0  0
  1 12  1  0  0  0  0
  2  3  1  0  0  0  0
  3  4  2  0  0  0  0
  4 11  1  0  0  0  0
  5  4  1  0  0  0  0
  5 10  1  0  0  0  0
  6  1  1  0  0  0  0
  7  2  1  0  0  0  0
  8  9  3  0  0  0  0
 12  5  2  0  0  0  0
M  RAD  1   3   2
M  END
