Coordinates from ORCA-job Pyridine-4-N2+-scan-d09-160-n800
 OpenBabel09191813523D

 12 11  0  0  0  0  0  0  0  0999 V2000
   -2.4592    0.1689   -1.0733 C   0  0  0  0  0  0  0  0  0  0  0  0
   -1.0026    0.0382   -1.0117 C   0  0  0  0  0  0  0  0  0  0  0  0
   -0.6012    0.8587   -0.0531 C   0  0  0  0  0  0  0  0  0  0  0  0
   -1.1031    1.7177    0.8206 C   0  0  0  0  0  0  0  0  0  0  0  0
   -2.5515    1.7111    0.6092 C   0  0  0  0  0  0  0  0  0  0  0  0
   -2.9556   -0.4482   -1.8217 H   0  0  0  0  0  0  0  0  0  0  0  0
   -0.4766   -0.6352   -1.6779 H   0  0  0  0  0  0  0  0  0  0  0  0
    4.0192    0.6551    0.3755 N   0  0  0  0  0  0  0  0  0  0  0  0
    5.1187    0.6068    0.4777 N   0  0  0  0  0  0  0  0  0  0  0  0
   -3.1244    2.3739    1.2572 H   0  0  0  0  0  0  0  0  0  0  0  0
   -0.6552    2.3496    1.5784 H   0  0  0  0  0  0  0  0  0  0  0  0
   -3.1392    0.9671   -0.2916 N   0  0  0  0  0  0  0  0  0  0  0  0
  1  2  2  0  0  0  0
  1 12  1  0  0  0  0
  2  3  1  0  0  0  0
  3  4  2  0  0  0  0
  4 11  1  0  0  0  0
  5  4  1  0  0  0  0
  5 10  1  0  0  0  0
  6  1  1  0  0  0  0
  7  2  1  0  0  0  0
  8  9  3  0  0  0  0
 12  5  2  0  0  0  0
M  RAD  1   3   2
M  END
