Coordinates from ORCA-job Pyridine-4-N2+-scan-d09-160-n800
 OpenBabel09191813523D

 12 11  0  0  0  0  0  0  0  0999 V2000
   -2.7511    0.1812   -1.1009 C   0  0  0  0  0  0  0  0  0  0  0  0
   -1.2940    0.0542   -1.0354 C   0  0  0  0  0  0  0  0  0  0  0  0
   -0.8964    0.8757   -0.0763 C   0  0  0  0  0  0  0  0  0  0  0  0
   -1.4029    1.7337    0.7957 C   0  0  0  0  0  0  0  0  0  0  0  0
   -2.8510    1.7239    0.5810 C   0  0  0  0  0  0  0  0  0  0  0  0
   -3.2439   -0.4375   -1.8504 H   0  0  0  0  0  0  0  0  0  0  0  0
   -0.7656   -0.6185   -1.7006 H   0  0  0  0  0  0  0  0  0  0  0  0
    5.4973    0.5846    0.5069 N   0  0  0  0  0  0  0  0  0  0  0  0
    6.5970    0.5353    0.6081 N   0  0  0  0  0  0  0  0  0  0  0  0
   -3.4268    2.3856    1.2275 H   0  0  0  0  0  0  0  0  0  0  0  0
   -0.9591    2.3673    1.5547 H   0  0  0  0  0  0  0  0  0  0  0  0
   -3.4342    0.9781   -0.3210 N   0  0  0  0  0  0  0  0  0  0  0  0
  1  2  2  0  0  0  0
  1 12  1  0  0  0  0
  2  3  1  0  0  0  0
  3  4  2  0  0  0  0
  4 11  1  0  0  0  0
  5  4  1  0  0  0  0
  5 10  1  0  0  0  0
  6  1  1  0  0  0  0
  7  2  1  0  0  0  0
  8  9  3  0  0  0  0
 12  5  2  0  0  0  0
M  RAD  1   3   2
M  END
