Coordinates from ORCA-job Pyridine-4-N2+-scan-d09-160-n800
 OpenBabel09191813533D

 12 11  0  0  0  0  0  0  0  0999 V2000
   -3.4339    0.2095   -1.1661 C   0  0  0  0  0  0  0  0  0  0  0  0
   -1.9764    0.0950   -1.0871 C   0  0  0  0  0  0  0  0  0  0  0  0
   -1.5943    0.9209   -0.1253 C   0  0  0  0  0  0  0  0  0  0  0  0
   -2.1162    1.7756    0.7408 C   0  0  0  0  0  0  0  0  0  0  0  0
   -3.5623    1.7532    0.5129 C   0  0  0  0  0  0  0  0  0  0  0  0
   -3.9144   -0.4142   -1.9194 H   0  0  0  0  0  0  0  0  0  0  0  0
   -1.4365   -0.5741   -1.7468 H   0  0  0  0  0  0  0  0  0  0  0  0
    8.9845    0.4116    0.8091 N   0  0  0  0  0  0  0  0  0  0  0  0
   10.0843    0.3600    0.9079 N   0  0  0  0  0  0  0  0  0  0  0  0
   -4.1495    2.4108    1.1534 H   0  0  0  0  0  0  0  0  0  0  0  0
   -1.6852    2.4139    1.5032 H   0  0  0  0  0  0  0  0  0  0  0  0
   -4.1307    1.0014   -0.3934 N   0  0  0  0  0  0  0  0  0  0  0  0
  1  2  2  0  0  0  0
  1 12  1  0  0  0  0
  2  3  1  0  0  0  0
  3  4  2  0  0  0  0
  4 11  1  0  0  0  0
  5  4  1  0  0  0  0
  5 10  1  0  0  0  0
  6  1  1  0  0  0  0
  7  2  1  0  0  0  0
  8  9  3  0  0  0  0
 12  5  2  0  0  0  0
M  RAD  1   3   2
M  END
