Coordinates from ORCA-job Pyridine-4-N2+-scan-d09-160-n800
 OpenBabel09191813523D

 12 11  0  0  0  0  0  0  0  0999 V2000
   -2.4625    0.1691   -1.0736 C   0  0  0  0  0  0  0  0  0  0  0  0
   -1.0059    0.0384   -1.0120 C   0  0  0  0  0  0  0  0  0  0  0  0
   -0.6045    0.8589   -0.0534 C   0  0  0  0  0  0  0  0  0  0  0  0
   -1.1064    1.7179    0.8203 C   0  0  0  0  0  0  0  0  0  0  0  0
   -2.5549    1.7113    0.6089 C   0  0  0  0  0  0  0  0  0  0  0  0
   -2.9588   -0.4481   -1.8221 H   0  0  0  0  0  0  0  0  0  0  0  0
   -0.4799   -0.6350   -1.6782 H   0  0  0  0  0  0  0  0  0  0  0  0
    4.0358    0.6543    0.3770 N   0  0  0  0  0  0  0  0  0  0  0  0
    5.1353    0.6060    0.4792 N   0  0  0  0  0  0  0  0  0  0  0  0
   -3.1278    2.3741    1.2568 H   0  0  0  0  0  0  0  0  0  0  0  0
   -0.6585    2.3498    1.5781 H   0  0  0  0  0  0  0  0  0  0  0  0
   -3.1425    0.9672   -0.2919 N   0  0  0  0  0  0  0  0  0  0  0  0
  1  2  2  0  0  0  0
  1 12  1  0  0  0  0
  2  3  1  0  0  0  0
  3  4  2  0  0  0  0
  4 11  1  0  0  0  0
  5  4  1  0  0  0  0
  5 10  1  0  0  0  0
  6  1  1  0  0  0  0
  7  2  1  0  0  0  0
  8  9  3  0  0  0  0
 12  5  2  0  0  0  0
M  RAD  1   3   2
M  END
