Coordinates from ORCA-job Pyridine-4-N2+-scan-d09-160-n800
 OpenBabel09191813533D

 12 11  0  0  0  0  0  0  0  0999 V2000
   -3.9756    0.2319   -1.2180 C   0  0  0  0  0  0  0  0  0  0  0  0
   -2.5180    0.1280   -1.1271 C   0  0  0  0  0  0  0  0  0  0  0  0
   -2.1496    0.9577   -0.1632 C   0  0  0  0  0  0  0  0  0  0  0  0
   -2.6847    1.8094    0.6978 C   0  0  0  0  0  0  0  0  0  0  0  0
   -4.1288    1.7763    0.4583 C   0  0  0  0  0  0  0  0  0  0  0  0
   -4.4455   -0.3960   -1.9745 H   0  0  0  0  0  0  0  0  0  0  0  0
   -1.9680   -0.5378   -1.7817 H   0  0  0  0  0  0  0  0  0  0  0  0
   11.7573    0.2723    1.0475 N   0  0  0  0  0  0  0  0  0  0  0  0
   12.8571    0.2205    1.1459 N   0  0  0  0  0  0  0  0  0  0  0  0
   -4.7258    2.4303    1.0933 H   0  0  0  0  0  0  0  0  0  0  0  0
   -2.2646    2.4515    1.4629 H   0  0  0  0  0  0  0  0  0  0  0  0
   -4.6843    1.0196   -0.4519 N   0  0  0  0  0  0  0  0  0  0  0  0
  1  2  2  0  0  0  0
  1 12  1  0  0  0  0
  2  3  1  0  0  0  0
  3  4  2  0  0  0  0
  4 11  1  0  0  0  0
  5  4  1  0  0  0  0
  5 10  1  0  0  0  0
  6  1  1  0  0  0  0
  7  2  1  0  0  0  0
  8  9  3  0  0  0  0
 12  5  2  0  0  0  0
M  RAD  1   3   2
M  END
