Coordinates from ORCA-job Pyridine-4-N2+-scan-d09-160-n800
 OpenBabel09191813523D

 12 11  0  0  0  0  0  0  0  0999 V2000
   -2.2770    0.1611   -1.0563 C   0  0  0  0  0  0  0  0  0  0  0  0
   -0.8215    0.0295   -0.9956 C   0  0  0  0  0  0  0  0  0  0  0  0
   -0.4189    0.8498   -0.0370 C   0  0  0  0  0  0  0  0  0  0  0  0
   -0.9201    1.7091    0.8370 C   0  0  0  0  0  0  0  0  0  0  0  0
   -2.3675    1.7032    0.6264 C   0  0  0  0  0  0  0  0  0  0  0  0
   -2.7749   -0.4553   -1.8041 H   0  0  0  0  0  0  0  0  0  0  0  0
   -0.2941   -0.6433   -1.6609 H   0  0  0  0  0  0  0  0  0  0  0  0
    3.1057    0.6963    0.2918 N   0  0  0  0  0  0  0  0  0  0  0  0
    4.2051    0.6484    0.3944 N   0  0  0  0  0  0  0  0  0  0  0  0
   -2.9406    2.3659    1.2741 H   0  0  0  0  0  0  0  0  0  0  0  0
   -0.4692    2.3396    1.5938 H   0  0  0  0  0  0  0  0  0  0  0  0
   -2.9575    0.9596   -0.2743 N   0  0  0  0  0  0  0  0  0  0  0  0
  1  2  2  0  0  0  0
  1 12  1  0  0  0  0
  2  3  1  0  0  0  0
  3  4  2  0  0  0  0
  4 11  1  0  0  0  0
  5  4  1  0  0  0  0
  5 10  1  0  0  0  0
  6  1  1  0  0  0  0
  7  2  1  0  0  0  0
  8  9  3  0  0  0  0
 12  5  2  0  0  0  0
M  RAD  1   3   2
M  END
