Coordinates from ORCA-job Pyridine-4-N2+-scan-d09-160-n800
 OpenBabel09191813523D

 12 11  0  0  0  0  0  0  0  0999 V2000
   -2.1359    0.1550   -1.0430 C   0  0  0  0  0  0  0  0  0  0  0  0
   -0.6866    0.0237   -0.9829 C   0  0  0  0  0  0  0  0  0  0  0  0
   -0.2745    0.8433   -0.0237 C   0  0  0  0  0  0  0  0  0  0  0  0
   -0.7849    1.7030    0.8494 C   0  0  0  0  0  0  0  0  0  0  0  0
   -2.2262    1.6970    0.6395 C   0  0  0  0  0  0  0  0  0  0  0  0
   -2.6386   -0.4592   -1.7892 H   0  0  0  0  0  0  0  0  0  0  0  0
   -0.1547   -0.6473   -1.6456 H   0  0  0  0  0  0  0  0  0  0  0  0
    2.4135    0.7266    0.2274 N   0  0  0  0  0  0  0  0  0  0  0  0
    3.5126    0.6788    0.3300 N   0  0  0  0  0  0  0  0  0  0  0  0
   -2.8036    2.3580    1.2848 H   0  0  0  0  0  0  0  0  0  0  0  0
   -0.3291    2.3311    1.6043 H   0  0  0  0  0  0  0  0  0  0  0  0
   -2.8227    0.9538   -0.2617 N   0  0  0  0  0  0  0  0  0  0  0  0
  1  2  2  0  0  0  0
  1 12  1  0  0  0  0
  2  3  1  0  0  0  0
  3  4  2  0  0  0  0
  4 11  1  0  0  0  0
  5  4  1  0  0  0  0
  5 10  1  0  0  0  0
  6  1  1  0  0  0  0
  7  2  1  0  0  0  0
  8  9  3  0  0  0  0
 12  5  2  0  0  0  0
M  RAD  1   3   2
M  END
