Coordinates from ORCA-job Pyridine-4-N2+-scan-d09-160-n800
 OpenBabel09191813533D

 12 11  0  0  0  0  0  0  0  0999 V2000
   -3.9983    0.2329   -1.2202 C   0  0  0  0  0  0  0  0  0  0  0  0
   -2.5407    0.1294   -1.1288 C   0  0  0  0  0  0  0  0  0  0  0  0
   -2.1729    0.9592   -0.1648 C   0  0  0  0  0  0  0  0  0  0  0  0
   -2.7086    1.8108    0.6960 C   0  0  0  0  0  0  0  0  0  0  0  0
   -4.1525    1.7773    0.4560 C   0  0  0  0  0  0  0  0  0  0  0  0
   -4.4677   -0.3953   -1.9768 H   0  0  0  0  0  0  0  0  0  0  0  0
   -1.9903   -0.5363   -1.7832 H   0  0  0  0  0  0  0  0  0  0  0  0
   11.8735    0.2663    1.0572 N   0  0  0  0  0  0  0  0  0  0  0  0
   12.9734    0.2148    1.1561 N   0  0  0  0  0  0  0  0  0  0  0  0
   -4.7500    2.4311    1.0907 H   0  0  0  0  0  0  0  0  0  0  0  0
   -2.2889    2.4531    1.4613 H   0  0  0  0  0  0  0  0  0  0  0  0
   -4.7075    1.0203   -0.4543 N   0  0  0  0  0  0  0  0  0  0  0  0
  1  2  2  0  0  0  0
  1 12  1  0  0  0  0
  2  3  1  0  0  0  0
  3  4  2  0  0  0  0
  4 11  1  0  0  0  0
  5  4  1  0  0  0  0
  5 10  1  0  0  0  0
  6  1  1  0  0  0  0
  7  2  1  0  0  0  0
  8  9  3  0  0  0  0
 12  5  2  0  0  0  0
M  RAD  1   3   2
M  END
