Coordinates from ORCA-job Pyridine-4-N2+-scan-d09-160-n800
 OpenBabel09191813523D

 12 11  0  0  0  0  0  0  0  0999 V2000
   -3.3234    0.2049   -1.1555 C   0  0  0  0  0  0  0  0  0  0  0  0
   -1.8660    0.0883   -1.0788 C   0  0  0  0  0  0  0  0  0  0  0  0
   -1.4813    0.9135   -0.1175 C   0  0  0  0  0  0  0  0  0  0  0  0
   -2.0006    1.7687    0.7497 C   0  0  0  0  0  0  0  0  0  0  0  0
   -3.4471    1.7485    0.5240 C   0  0  0  0  0  0  0  0  0  0  0  0
   -3.8061   -0.4179   -1.9082 H   0  0  0  0  0  0  0  0  0  0  0  0
   -1.3281   -0.5814   -1.7395 H   0  0  0  0  0  0  0  0  0  0  0  0
    8.4199    0.4398    0.7604 N   0  0  0  0  0  0  0  0  0  0  0  0
    9.5197    0.3885    0.8595 N   0  0  0  0  0  0  0  0  0  0  0  0
   -4.0323    2.4068    1.1655 H   0  0  0  0  0  0  0  0  0  0  0  0
   -1.5674    2.4062    1.5114 H   0  0  0  0  0  0  0  0  0  0  0  0
   -4.0180    0.9977   -0.3816 N   0  0  0  0  0  0  0  0  0  0  0  0
  1  2  2  0  0  0  0
  1 12  1  0  0  0  0
  2  3  1  0  0  0  0
  3  4  2  0  0  0  0
  4 11  1  0  0  0  0
  5  4  1  0  0  0  0
  5 10  1  0  0  0  0
  6  1  1  0  0  0  0
  7  2  1  0  0  0  0
  8  9  3  0  0  0  0
 12  5  2  0  0  0  0
M  RAD  1   3   2
M  END
