Coordinates from ORCA-job Pyridine-4-N2+-scan-d09-160-n800
 OpenBabel09191813533D

 12 11  0  0  0  0  0  0  0  0999 V2000
   -3.6967    0.2204   -1.1913 C   0  0  0  0  0  0  0  0  0  0  0  0
   -2.2392    0.1109   -1.1066 C   0  0  0  0  0  0  0  0  0  0  0  0
   -1.8636    0.9387   -0.1438 C   0  0  0  0  0  0  0  0  0  0  0  0
   -2.3918    1.7919    0.7199 C   0  0  0  0  0  0  0  0  0  0  0  0
   -3.8370    1.7644    0.4865 C   0  0  0  0  0  0  0  0  0  0  0  0
   -4.1722   -0.4054   -1.9461 H   0  0  0  0  0  0  0  0  0  0  0  0
   -1.6945   -0.5566   -1.7639 H   0  0  0  0  0  0  0  0  0  0  0  0
   10.3294    0.3444    0.9252 N   0  0  0  0  0  0  0  0  0  0  0  0
   11.4292    0.2922    1.0231 N   0  0  0  0  0  0  0  0  0  0  0  0
   -4.4289    2.4204    1.1243 H   0  0  0  0  0  0  0  0  0  0  0  0
   -1.9660    2.4321    1.4836 H   0  0  0  0  0  0  0  0  0  0  0  0
   -4.3993    1.0103   -0.4217 N   0  0  0  0  0  0  0  0  0  0  0  0
  1  2  2  0  0  0  0
  1 12  1  0  0  0  0
  2  3  1  0  0  0  0
  3  4  2  0  0  0  0
  4 11  1  0  0  0  0
  5  4  1  0  0  0  0
  5 10  1  0  0  0  0
  6  1  1  0  0  0  0
  7  2  1  0  0  0  0
  8  9  3  0  0  0  0
 12  5  2  0  0  0  0
M  RAD  1   3   2
M  END
