Coordinates from ORCA-job Pyridine-4-N2+-scan-d09-160-n800
 OpenBabel09191813533D

 12 11  0  0  0  0  0  0  0  0999 V2000
   -3.6091    0.2168   -1.1829 C   0  0  0  0  0  0  0  0  0  0  0  0
   -2.1516    0.1056   -1.1001 C   0  0  0  0  0  0  0  0  0  0  0  0
   -1.7739    0.9327   -0.1377 C   0  0  0  0  0  0  0  0  0  0  0  0
   -2.2999    1.7865    0.7269 C   0  0  0  0  0  0  0  0  0  0  0  0
   -3.7454    1.7607    0.4953 C   0  0  0  0  0  0  0  0  0  0  0  0
   -4.0863   -0.4083   -1.9372 H   0  0  0  0  0  0  0  0  0  0  0  0
   -1.6086   -0.5625   -1.7582 H   0  0  0  0  0  0  0  0  0  0  0  0
    9.8811    0.3669    0.8865 N   0  0  0  0  0  0  0  0  0  0  0  0
   10.9809    0.3148    0.9847 N   0  0  0  0  0  0  0  0  0  0  0  0
   -4.3357    2.4172    1.1340 H   0  0  0  0  0  0  0  0  0  0  0  0
   -1.8724    2.4260    1.4901 H   0  0  0  0  0  0  0  0  0  0  0  0
   -4.3098    1.0074   -0.4123 N   0  0  0  0  0  0  0  0  0  0  0  0
  1  2  2  0  0  0  0
  1 12  1  0  0  0  0
  2  3  1  0  0  0  0
  3  4  2  0  0  0  0
  4 11  1  0  0  0  0
  5  4  1  0  0  0  0
  5 10  1  0  0  0  0
  6  1  1  0  0  0  0
  7  2  1  0  0  0  0
  8  9  3  0  0  0  0
 12  5  2  0  0  0  0
M  RAD  1   3   2
M  END
