Coordinates from ORCA-job Pyridine-4-N2+-scan-d09-160-n800
 OpenBabel09191813533D

 12 11  0  0  0  0  0  0  0  0999 V2000
   -4.2151    0.2417   -1.2411 C   0  0  0  0  0  0  0  0  0  0  0  0
   -2.7575    0.1430   -1.1444 C   0  0  0  0  0  0  0  0  0  0  0  0
   -2.3958    0.9744   -0.1795 C   0  0  0  0  0  0  0  0  0  0  0  0
   -2.9373    1.8246    0.6790 C   0  0  0  0  0  0  0  0  0  0  0  0
   -4.3802    1.7864    0.4338 C   0  0  0  0  0  0  0  0  0  0  0  0
   -4.6798   -0.3882   -1.9991 H   0  0  0  0  0  0  0  0  0  0  0  0
   -2.2026   -0.5212   -1.7965 H   0  0  0  0  0  0  0  0  0  0  0  0
   12.9860    0.2089    1.1512 N   0  0  0  0  0  0  0  0  0  0  0  0
   14.0857    0.1596    1.2524 N   0  0  0  0  0  0  0  0  0  0  0  0
   -4.9820    2.4386    1.0661 H   0  0  0  0  0  0  0  0  0  0  0  0
   -2.5224    2.4687    1.4454 H   0  0  0  0  0  0  0  0  0  0  0  0
   -4.9296    1.0273   -0.4781 N   0  0  0  0  0  0  0  0  0  0  0  0
  1  2  2  0  0  0  0
  1 12  1  0  0  0  0
  2  3  1  0  0  0  0
  3  4  2  0  0  0  0
  4 11  1  0  0  0  0
  5  4  1  0  0  0  0
  5 10  1  0  0  0  0
  6  1  1  0  0  0  0
  7  2  1  0  0  0  0
  8  9  3  0  0  0  0
 12  5  2  0  0  0  0
M  RAD  1   3   2
M  END
