Coordinates from ORCA-job Pyridine-4-N2+-scan-d09-160-n800
 OpenBabel09191813533D

 12 11  0  0  0  0  0  0  0  0999 V2000
   -3.3559    0.2063   -1.1586 C   0  0  0  0  0  0  0  0  0  0  0  0
   -1.8985    0.0903   -1.0812 C   0  0  0  0  0  0  0  0  0  0  0  0
   -1.5145    0.9157   -0.1198 C   0  0  0  0  0  0  0  0  0  0  0  0
   -2.0346    1.7707    0.7471 C   0  0  0  0  0  0  0  0  0  0  0  0
   -3.4810    1.7499    0.5208 C   0  0  0  0  0  0  0  0  0  0  0  0
   -3.8379   -0.4168   -1.9114 H   0  0  0  0  0  0  0  0  0  0  0  0
   -1.3600   -0.5793   -1.7416 H   0  0  0  0  0  0  0  0  0  0  0  0
    8.5860    0.4315    0.7747 N   0  0  0  0  0  0  0  0  0  0  0  0
    9.6858    0.3801    0.8737 N   0  0  0  0  0  0  0  0  0  0  0  0
   -4.0668    2.4080    1.1619 H   0  0  0  0  0  0  0  0  0  0  0  0
   -1.6021    2.4085    1.5090 H   0  0  0  0  0  0  0  0  0  0  0  0
   -4.0511    0.9988   -0.3851 N   0  0  0  0  0  0  0  0  0  0  0  0
  1  2  2  0  0  0  0
  1 12  1  0  0  0  0
  2  3  1  0  0  0  0
  3  4  2  0  0  0  0
  4 11  1  0  0  0  0
  5  4  1  0  0  0  0
  5 10  1  0  0  0  0
  6  1  1  0  0  0  0
  7  2  1  0  0  0  0
  8  9  3  0  0  0  0
 12  5  2  0  0  0  0
M  RAD  1   3   2
M  END
