Coordinates from ORCA-job Pyridine-4-N2+-scan-d09-160-n800
 OpenBabel09191813523D

 12 11  0  0  0  0  0  0  0  0999 V2000
   -2.8098    0.1837   -1.1064 C   0  0  0  0  0  0  0  0  0  0  0  0
   -1.3527    0.0576   -1.0400 C   0  0  0  0  0  0  0  0  0  0  0  0
   -0.9562    0.8795   -0.0807 C   0  0  0  0  0  0  0  0  0  0  0  0
   -1.4638    1.7372    0.7909 C   0  0  0  0  0  0  0  0  0  0  0  0
   -2.9119    1.7264    0.5752 C   0  0  0  0  0  0  0  0  0  0  0  0
   -3.3016   -0.4354   -1.8562 H   0  0  0  0  0  0  0  0  0  0  0  0
   -0.8234   -0.6148   -1.7048 H   0  0  0  0  0  0  0  0  0  0  0  0
    5.7963    0.5700    0.5330 N   0  0  0  0  0  0  0  0  0  0  0  0
    6.8960    0.5205    0.6340 N   0  0  0  0  0  0  0  0  0  0  0  0
   -3.4885    2.3878    1.2213 H   0  0  0  0  0  0  0  0  0  0  0  0
   -1.0211    2.3711    1.5501 H   0  0  0  0  0  0  0  0  0  0  0  0
   -3.4939    0.9801   -0.3271 N   0  0  0  0  0  0  0  0  0  0  0  0
  1  2  2  0  0  0  0
  1 12  1  0  0  0  0
  2  3  1  0  0  0  0
  3  4  2  0  0  0  0
  4 11  1  0  0  0  0
  5  4  1  0  0  0  0
  5 10  1  0  0  0  0
  6  1  1  0  0  0  0
  7  2  1  0  0  0  0
  8  9  3  0  0  0  0
 12  5  2  0  0  0  0
M  RAD  1   3   2
M  END
