Coordinates from ORCA-job Pyridine-4-N2+-scan-d09-160-n800
 OpenBabel09191813533D

 12 11  0  0  0  0  0  0  0  0999 V2000
   -3.3852    0.2075   -1.1614 C   0  0  0  0  0  0  0  0  0  0  0  0
   -1.9277    0.0920   -1.0834 C   0  0  0  0  0  0  0  0  0  0  0  0
   -1.5444    0.9177   -0.1219 C   0  0  0  0  0  0  0  0  0  0  0  0
   -2.0652    1.7726    0.7447 C   0  0  0  0  0  0  0  0  0  0  0  0
   -3.5115    1.7511    0.5178 C   0  0  0  0  0  0  0  0  0  0  0  0
   -3.8666   -0.4159   -1.9144 H   0  0  0  0  0  0  0  0  0  0  0  0
   -1.3887   -0.5773   -1.7435 H   0  0  0  0  0  0  0  0  0  0  0  0
    8.7354    0.4241    0.7876 N   0  0  0  0  0  0  0  0  0  0  0  0
    9.8352    0.3726    0.8865 N   0  0  0  0  0  0  0  0  0  0  0  0
   -4.0978    2.4091    1.1587 H   0  0  0  0  0  0  0  0  0  0  0  0
   -1.6332    2.4105    1.5068 H   0  0  0  0  0  0  0  0  0  0  0  0
   -4.0810    0.9998   -0.3882 N   0  0  0  0  0  0  0  0  0  0  0  0
  1  2  2  0  0  0  0
  1 12  1  0  0  0  0
  2  3  1  0  0  0  0
  3  4  2  0  0  0  0
  4 11  1  0  0  0  0
  5  4  1  0  0  0  0
  5 10  1  0  0  0  0
  6  1  1  0  0  0  0
  7  2  1  0  0  0  0
  8  9  3  0  0  0  0
 12  5  2  0  0  0  0
M  RAD  1   3   2
M  END
