Coordinates from ORCA-job Pyridine-4-N2+-scan-d09-160-n800
 OpenBabel09191813523D

 12 11  0  0  0  0  0  0  0  0999 V2000
   -3.2910    0.2036   -1.1524 C   0  0  0  0  0  0  0  0  0  0  0  0
   -1.8335    0.0864   -1.0764 C   0  0  0  0  0  0  0  0  0  0  0  0
   -1.4480    0.9113   -0.1152 C   0  0  0  0  0  0  0  0  0  0  0  0
   -1.9666    1.7667    0.7522 C   0  0  0  0  0  0  0  0  0  0  0  0
   -3.4132    1.7471    0.5273 C   0  0  0  0  0  0  0  0  0  0  0  0
   -3.7742   -0.4190   -1.9049 H   0  0  0  0  0  0  0  0  0  0  0  0
   -1.2963   -0.5836   -1.7373 H   0  0  0  0  0  0  0  0  0  0  0  0
    8.2539    0.4481    0.7460 N   0  0  0  0  0  0  0  0  0  0  0  0
    9.3537    0.3969    0.8452 N   0  0  0  0  0  0  0  0  0  0  0  0
   -3.9978    2.4056    1.1690 H   0  0  0  0  0  0  0  0  0  0  0  0
   -1.5328    2.4040    1.5138 H   0  0  0  0  0  0  0  0  0  0  0  0
   -3.9848    0.9966   -0.3781 N   0  0  0  0  0  0  0  0  0  0  0  0
  1  2  2  0  0  0  0
  1 12  1  0  0  0  0
  2  3  1  0  0  0  0
  3  4  2  0  0  0  0
  4 11  1  0  0  0  0
  5  4  1  0  0  0  0
  5 10  1  0  0  0  0
  6  1  1  0  0  0  0
  7  2  1  0  0  0  0
  8  9  3  0  0  0  0
 12  5  2  0  0  0  0
M  RAD  1   3   2
M  END
