Coordinates from ORCA-job Pyridine-4-N2+-scan-d09-160-n800
 OpenBabel09191813533D

 12 11  0  0  0  0  0  0  0  0999 V2000
   -4.0372    0.2345   -1.2239 C   0  0  0  0  0  0  0  0  0  0  0  0
   -2.5796    0.1318   -1.1316 C   0  0  0  0  0  0  0  0  0  0  0  0
   -2.2128    0.9619   -0.1675 C   0  0  0  0  0  0  0  0  0  0  0  0
   -2.7495    1.8133    0.6930 C   0  0  0  0  0  0  0  0  0  0  0  0
   -4.1933    1.7789    0.4520 C   0  0  0  0  0  0  0  0  0  0  0  0
   -4.5058   -0.3940   -1.9808 H   0  0  0  0  0  0  0  0  0  0  0  0
   -2.0284   -0.5336   -1.7856 H   0  0  0  0  0  0  0  0  0  0  0  0
   12.0728    0.2559    1.0740 N   0  0  0  0  0  0  0  0  0  0  0  0
   13.1726    0.2051    1.1735 N   0  0  0  0  0  0  0  0  0  0  0  0
   -4.7915    2.4325    1.0864 H   0  0  0  0  0  0  0  0  0  0  0  0
   -2.3306    2.4559    1.4584 H   0  0  0  0  0  0  0  0  0  0  0  0
   -4.7473    1.0216   -0.4585 N   0  0  0  0  0  0  0  0  0  0  0  0
  1  2  2  0  0  0  0
  1 12  1  0  0  0  0
  2  3  1  0  0  0  0
  3  4  2  0  0  0  0
  4 11  1  0  0  0  0
  5  4  1  0  0  0  0
  5 10  1  0  0  0  0
  6  1  1  0  0  0  0
  7  2  1  0  0  0  0
  8  9  3  0  0  0  0
 12  5  2  0  0  0  0
M  RAD  1   3   2
M  END
