Coordinates from ORCA-job Pyridine-4-N2+-scan-d09-160-n800
 OpenBabel09191813523D

 12 11  0  0  0  0  0  0  0  0999 V2000
   -2.6171    0.1756   -1.0882 C   0  0  0  0  0  0  0  0  0  0  0  0
   -1.1602    0.0466   -1.0248 C   0  0  0  0  0  0  0  0  0  0  0  0
   -0.7603    0.8675   -0.0660 C   0  0  0  0  0  0  0  0  0  0  0  0
   -1.2643    1.7260    0.8069 C   0  0  0  0  0  0  0  0  0  0  0  0
   -2.7127    1.7181    0.5941 C   0  0  0  0  0  0  0  0  0  0  0  0
   -3.1118   -0.4423   -1.8371 H   0  0  0  0  0  0  0  0  0  0  0  0
   -0.6333   -0.6266   -1.6907 H   0  0  0  0  0  0  0  0  0  0  0  0
    4.8164    0.6176    0.4469 N   0  0  0  0  0  0  0  0  0  0  0  0
    5.9160    0.5688    0.5487 N   0  0  0  0  0  0  0  0  0  0  0  0
   -3.2868    2.3804    1.2415 H   0  0  0  0  0  0  0  0  0  0  0  0
   -0.8184    2.3587    1.5652 H   0  0  0  0  0  0  0  0  0  0  0  0
   -3.2983    0.9732   -0.3072 N   0  0  0  0  0  0  0  0  0  0  0  0
  1  2  2  0  0  0  0
  1 12  1  0  0  0  0
  2  3  1  0  0  0  0
  3  4  2  0  0  0  0
  4 11  1  0  0  0  0
  5  4  1  0  0  0  0
  5 10  1  0  0  0  0
  6  1  1  0  0  0  0
  7  2  1  0  0  0  0
  8  9  3  0  0  0  0
 12  5  2  0  0  0  0
M  RAD  1   3   2
M  END
