Coordinates from ORCA-job Pyridine-4-N2+-scan-d09-160-n800
 OpenBabel09191813533D

 12 11  0  0  0  0  0  0  0  0999 V2000
   -3.8783    0.2279   -1.2087 C   0  0  0  0  0  0  0  0  0  0  0  0
   -2.4207    0.1221   -1.1200 C   0  0  0  0  0  0  0  0  0  0  0  0
   -2.0499    0.9510   -0.1565 C   0  0  0  0  0  0  0  0  0  0  0  0
   -2.5825    1.8033    0.7055 C   0  0  0  0  0  0  0  0  0  0  0  0
   -4.0270    1.7722    0.4681 C   0  0  0  0  0  0  0  0  0  0  0  0
   -4.3502   -0.3993   -1.9646 H   0  0  0  0  0  0  0  0  0  0  0  0
   -1.8727   -0.5444   -1.7755 H   0  0  0  0  0  0  0  0  0  0  0  0
   11.2592    0.2979    1.0052 N   0  0  0  0  0  0  0  0  0  0  0  0
   12.3591    0.2452    1.1027 N   0  0  0  0  0  0  0  0  0  0  0  0
   -4.6222    2.4268    1.1041 H   0  0  0  0  0  0  0  0  0  0  0  0
   -2.1604    2.4447    1.4701 H   0  0  0  0  0  0  0  0  0  0  0  0
   -4.5849    1.0163   -0.4413 N   0  0  0  0  0  0  0  0  0  0  0  0
  1  2  2  0  0  0  0
  1 12  1  0  0  0  0
  2  3  1  0  0  0  0
  3  4  2  0  0  0  0
  4 11  1  0  0  0  0
  5  4  1  0  0  0  0
  5 10  1  0  0  0  0
  6  1  1  0  0  0  0
  7  2  1  0  0  0  0
  8  9  3  0  0  0  0
 12  5  2  0  0  0  0
M  RAD  1   3   2
M  END
