Coordinates from ORCA-job Pyridine-4-N2+-scan-d09-160-n800
 OpenBabel09191813523D

 12 11  0  0  0  0  0  0  0  0999 V2000
   -3.1643    0.1984   -1.1403 C   0  0  0  0  0  0  0  0  0  0  0  0
   -1.7069    0.0787   -1.0669 C   0  0  0  0  0  0  0  0  0  0  0  0
   -1.3184    0.9029   -0.1062 C   0  0  0  0  0  0  0  0  0  0  0  0
   -1.8340    1.7589    0.7624 C   0  0  0  0  0  0  0  0  0  0  0  0
   -3.2810    1.7416    0.5399 C   0  0  0  0  0  0  0  0  0  0  0  0
   -3.6499   -0.4233   -1.8920 H   0  0  0  0  0  0  0  0  0  0  0  0
   -1.1719   -0.5919   -1.7289 H   0  0  0  0  0  0  0  0  0  0  0  0
    7.6063    0.4803    0.6900 N   0  0  0  0  0  0  0  0  0  0  0  0
    8.7061    0.4295    0.7897 N   0  0  0  0  0  0  0  0  0  0  0  0
   -3.8634    2.4010    1.1829 H   0  0  0  0  0  0  0  0  0  0  0  0
   -1.3978    2.3953    1.5233 H   0  0  0  0  0  0  0  0  0  0  0  0
   -3.8555    0.9923   -0.3646 N   0  0  0  0  0  0  0  0  0  0  0  0
  1  2  2  0  0  0  0
  1 12  1  0  0  0  0
  2  3  1  0  0  0  0
  3  4  2  0  0  0  0
  4 11  1  0  0  0  0
  5  4  1  0  0  0  0
  5 10  1  0  0  0  0
  6  1  1  0  0  0  0
  7  2  1  0  0  0  0
  8  9  3  0  0  0  0
 12  5  2  0  0  0  0
M  RAD  1   3   2
M  END
