Coordinates from ORCA-job Pyridine-4-N2+-scan-d09-160-n800
 OpenBabel09191813533D

 12 11  0  0  0  0  0  0  0  0999 V2000
   -3.7519    0.2227   -1.1965 C   0  0  0  0  0  0  0  0  0  0  0  0
   -2.2943    0.1143   -1.1107 C   0  0  0  0  0  0  0  0  0  0  0  0
   -1.9202    0.9424   -0.1477 C   0  0  0  0  0  0  0  0  0  0  0  0
   -2.4497    1.7954    0.7156 C   0  0  0  0  0  0  0  0  0  0  0  0
   -3.8946    1.7668    0.4809 C   0  0  0  0  0  0  0  0  0  0  0  0
   -4.2263   -0.4035   -1.9517 H   0  0  0  0  0  0  0  0  0  0  0  0
   -1.7486   -0.5529   -1.7674 H   0  0  0  0  0  0  0  0  0  0  0  0
   10.6116    0.3303    0.9495 N   0  0  0  0  0  0  0  0  0  0  0  0
   11.7115    0.2779    1.0473 N   0  0  0  0  0  0  0  0  0  0  0  0
   -4.4875    2.4223    1.1182 H   0  0  0  0  0  0  0  0  0  0  0  0
   -2.0250    2.4359    1.4795 H   0  0  0  0  0  0  0  0  0  0  0  0
   -4.4556    1.0121   -0.4276 N   0  0  0  0  0  0  0  0  0  0  0  0
  1  2  2  0  0  0  0
  1 12  1  0  0  0  0
  2  3  1  0  0  0  0
  3  4  2  0  0  0  0
  4 11  1  0  0  0  0
  5  4  1  0  0  0  0
  5 10  1  0  0  0  0
  6  1  1  0  0  0  0
  7  2  1  0  0  0  0
  8  9  3  0  0  0  0
 12  5  2  0  0  0  0
M  RAD  1   3   2
M  END
