Coordinates from ORCA-job Pyridine-4-N2+-scan-d09-160-n800
 OpenBabel09191813523D

 12 11  0  0  0  0  0  0  0  0999 V2000
   -2.6727    0.1779   -1.0934 C   0  0  0  0  0  0  0  0  0  0  0  0
   -1.2157    0.0497   -1.0293 C   0  0  0  0  0  0  0  0  0  0  0  0
   -0.8168    0.8709   -0.0704 C   0  0  0  0  0  0  0  0  0  0  0  0
   -1.3217    1.7292    0.8022 C   0  0  0  0  0  0  0  0  0  0  0  0
   -2.7700    1.7205    0.5887 C   0  0  0  0  0  0  0  0  0  0  0  0
   -3.1667   -0.4402   -1.8426 H   0  0  0  0  0  0  0  0  0  0  0  0
   -0.6883   -0.6233   -1.6949 H   0  0  0  0  0  0  0  0  0  0  0  0
    5.0988    0.6040    0.4719 N   0  0  0  0  0  0  0  0  0  0  0  0
    6.1984    0.5550    0.5734 N   0  0  0  0  0  0  0  0  0  0  0  0
   -3.3447    2.3826    1.2358 H   0  0  0  0  0  0  0  0  0  0  0  0
   -0.8766    2.3622    1.5608 H   0  0  0  0  0  0  0  0  0  0  0  0
   -3.3546    0.9752   -0.3129 N   0  0  0  0  0  0  0  0  0  0  0  0
  1  2  2  0  0  0  0
  1 12  1  0  0  0  0
  2  3  1  0  0  0  0
  3  4  2  0  0  0  0
  4 11  1  0  0  0  0
  5  4  1  0  0  0  0
  5 10  1  0  0  0  0
  6  1  1  0  0  0  0
  7  2  1  0  0  0  0
  8  9  3  0  0  0  0
 12  5  2  0  0  0  0
M  RAD  1   3   2
M  END
