Coordinates from ORCA-job Pyridine-4-N2+-scan-d09-160-n800
 OpenBabel09191813523D

 12 12  0  0  0  0  0  0  0  0999 V2000
   -1.9280    0.1356   -1.0350 C   0  0  0  0  0  0  0  0  0  0  0  0
   -0.5384    0.0229   -0.9629 C   0  0  0  0  0  0  0  0  0  0  0  0
    0.0774    0.8280    0.0092 C   0  0  0  0  0  0  0  0  0  0  0  0
   -0.6360    1.6908    0.8571 C   0  0  0  0  0  0  0  0  0  0  0  0
   -2.0195    1.6984    0.6702 C   0  0  0  0  0  0  0  0  0  0  0  0
   -2.4827   -0.4534   -1.7608 H   0  0  0  0  0  0  0  0  0  0  0  0
    0.0253   -0.6390   -1.6110 H   0  0  0  0  0  0  0  0  0  0  0  0
    1.4507    0.7684    0.1375 N   0  0  0  0  0  0  0  0  0  0  0  0
    2.5577    0.7203    0.2409 N   0  0  0  0  0  0  0  0  0  0  0  0
   -2.6461    2.3386    1.2856 H   0  0  0  0  0  0  0  0  0  0  0  0
   -0.1471    2.3070    1.6036 H   0  0  0  0  0  0  0  0  0  0  0  0
   -2.6439    0.9461   -0.2450 N   0  0  0  0  0  0  0  0  0  0  0  0
  1  2  2  0  0  0  0
  1 12  1  0  0  0  0
  2  3  1  0  0  0  0
  3  8  1  0  0  0  0
  3  4  2  0  0  0  0
  4 11  1  0  0  0  0
  5  4  1  0  0  0  0
  5 10  1  0  0  0  0
  6  1  1  0  0  0  0
  7  2  1  0  0  0  0
  8  9  1  0  0  0  0
 12  5  2  0  0  0  0
M  RAD  2   8   2   9   3
M  END
