Coordinates from ORCA-job Pyridine-4-N2+-scan-d09-160-n800
 OpenBabel09191813523D

 12 12  0  0  0  0  0  0  0  0999 V2000
   -1.8973    0.1343   -1.0322 C   0  0  0  0  0  0  0  0  0  0  0  0
   -0.5164    0.0231   -0.9595 C   0  0  0  0  0  0  0  0  0  0  0  0
    0.1749    0.8239    0.0182 C   0  0  0  0  0  0  0  0  0  0  0  0
   -0.6138    1.6886    0.8578 C   0  0  0  0  0  0  0  0  0  0  0  0
   -1.9888    1.6971    0.6731 C   0  0  0  0  0  0  0  0  0  0  0  0
   -2.4507   -0.4557   -1.7587 H   0  0  0  0  0  0  0  0  0  0  0  0
    0.0509   -0.6386   -1.6069 H   0  0  0  0  0  0  0  0  0  0  0  0
    1.2693    0.7763    0.1205 N   0  0  0  0  0  0  0  0  0  0  0  0
    2.3940    0.7274    0.2256 N   0  0  0  0  0  0  0  0  0  0  0  0
   -2.6142    2.3380    1.2896 H   0  0  0  0  0  0  0  0  0  0  0  0
   -0.1214    2.3043    1.6043 H   0  0  0  0  0  0  0  0  0  0  0  0
   -2.6171    0.9449   -0.2425 N   0  0  0  0  0  0  0  0  0  0  0  0
  1  2  2  0  0  0  0
  1 12  1  0  0  0  0
  2  3  1  0  0  0  0
  3  8  1  0  0  0  0
  3  4  2  0  0  0  0
  4 11  1  0  0  0  0
  5  4  1  0  0  0  0
  5 10  1  0  0  0  0
  6  1  1  0  0  0  0
  7  2  1  0  0  0  0
  8  9  1  0  0  0  0
 12  5  2  0  0  0  0
M  RAD  2   8   2   9   3
M  END
