Coordinates from ORCA-job Pyridine-4-N2+-scan-d09-160-n800
 OpenBabel09191813523D

 12 11  0  0  0  0  0  0  0  0999 V2000
   -2.7706    0.1820   -1.1027 C   0  0  0  0  0  0  0  0  0  0  0  0
   -1.3136    0.0553   -1.0370 C   0  0  0  0  0  0  0  0  0  0  0  0
   -0.9163    0.8770   -0.0777 C   0  0  0  0  0  0  0  0  0  0  0  0
   -1.4232    1.7349    0.7941 C   0  0  0  0  0  0  0  0  0  0  0  0
   -2.8713    1.7247    0.5791 C   0  0  0  0  0  0  0  0  0  0  0  0
   -3.2631   -0.4368   -1.8523 H   0  0  0  0  0  0  0  0  0  0  0  0
   -0.7849   -0.6173   -1.7021 H   0  0  0  0  0  0  0  0  0  0  0  0
    5.5970    0.5798    0.5156 N   0  0  0  0  0  0  0  0  0  0  0  0
    6.6967    0.5304    0.6167 N   0  0  0  0  0  0  0  0  0  0  0  0
   -3.4473    2.3864    1.2255 H   0  0  0  0  0  0  0  0  0  0  0  0
   -0.9797    2.3685    1.5531 H   0  0  0  0  0  0  0  0  0  0  0  0
   -3.4541    0.9788   -0.3230 N   0  0  0  0  0  0  0  0  0  0  0  0
  1  2  2  0  0  0  0
  1 12  1  0  0  0  0
  2  3  1  0  0  0  0
  3  4  2  0  0  0  0
  4 11  1  0  0  0  0
  5  4  1  0  0  0  0
  5 10  1  0  0  0  0
  6  1  1  0  0  0  0
  7  2  1  0  0  0  0
  8  9  3  0  0  0  0
 12  5  2  0  0  0  0
M  RAD  1   3   2
M  END
