Coordinates from ORCA-job Pyridine-4-N2+-scan-d09-160-n800
 OpenBabel09191813533D

 12 11  0  0  0  0  0  0  0  0999 V2000
   -3.3527    0.2062   -1.1583 C   0  0  0  0  0  0  0  0  0  0  0  0
   -1.8952    0.0901   -1.0810 C   0  0  0  0  0  0  0  0  0  0  0  0
   -1.5112    0.9155   -0.1196 C   0  0  0  0  0  0  0  0  0  0  0  0
   -2.0312    1.7705    0.7473 C   0  0  0  0  0  0  0  0  0  0  0  0
   -3.4776    1.7497    0.5211 C   0  0  0  0  0  0  0  0  0  0  0  0
   -3.8348   -0.4170   -1.9111 H   0  0  0  0  0  0  0  0  0  0  0  0
   -1.3568   -0.5795   -1.7414 H   0  0  0  0  0  0  0  0  0  0  0  0
    8.5694    0.4323    0.7733 N   0  0  0  0  0  0  0  0  0  0  0  0
    9.6692    0.3810    0.8723 N   0  0  0  0  0  0  0  0  0  0  0  0
   -4.0633    2.4079    1.1623 H   0  0  0  0  0  0  0  0  0  0  0  0
   -1.5986    2.4083    1.5092 H   0  0  0  0  0  0  0  0  0  0  0  0
   -4.0478    0.9987   -0.3847 N   0  0  0  0  0  0  0  0  0  0  0  0
  1  2  2  0  0  0  0
  1 12  1  0  0  0  0
  2  3  1  0  0  0  0
  3  4  2  0  0  0  0
  4 11  1  0  0  0  0
  5  4  1  0  0  0  0
  5 10  1  0  0  0  0
  6  1  1  0  0  0  0
  7  2  1  0  0  0  0
  8  9  3  0  0  0  0
 12  5  2  0  0  0  0
M  RAD  1   3   2
M  END
