Coordinates from ORCA-job Pyridine-4-N2+-scan-d09-160-n800
 OpenBabel09191813523D

 12 11  0  0  0  0  0  0  0  0999 V2000
   -3.0440    0.1934   -1.1288 C   0  0  0  0  0  0  0  0  0  0  0  0
   -1.5867    0.0715   -1.0578 C   0  0  0  0  0  0  0  0  0  0  0  0
   -1.1954    0.8949   -0.0976 C   0  0  0  0  0  0  0  0  0  0  0  0
   -1.7082    1.7515    0.7720 C   0  0  0  0  0  0  0  0  0  0  0  0
   -3.1556    1.7365    0.5520 C   0  0  0  0  0  0  0  0  0  0  0  0
   -3.5318   -0.4274   -1.8798 H   0  0  0  0  0  0  0  0  0  0  0  0
   -1.0538   -0.5998   -1.7209 H   0  0  0  0  0  0  0  0  0  0  0  0
    6.9919    0.5109    0.6368 N   0  0  0  0  0  0  0  0  0  0  0  0
    8.0917    0.4605    0.7369 N   0  0  0  0  0  0  0  0  0  0  0  0
   -3.7360    2.3966    1.1960 H   0  0  0  0  0  0  0  0  0  0  0  0
   -1.2698    2.3870    1.5324 H   0  0  0  0  0  0  0  0  0  0  0  0
   -3.7327    0.9882   -0.3518 N   0  0  0  0  0  0  0  0  0  0  0  0
  1  2  2  0  0  0  0
  1 12  1  0  0  0  0
  2  3  1  0  0  0  0
  3  4  2  0  0  0  0
  4 11  1  0  0  0  0
  5  4  1  0  0  0  0
  5 10  1  0  0  0  0
  6  1  1  0  0  0  0
  7  2  1  0  0  0  0
  8  9  3  0  0  0  0
 12  5  2  0  0  0  0
M  RAD  1   3   2
M  END
