Coordinates from ORCA-job Pyridine-4-N2+-scan-d09-160-n800
 OpenBabel09191813533D

 12 11  0  0  0  0  0  0  0  0999 V2000
   -4.0663    0.2357   -1.2267 C   0  0  0  0  0  0  0  0  0  0  0  0
   -2.6087    0.1336   -1.1337 C   0  0  0  0  0  0  0  0  0  0  0  0
   -2.2428    0.9639   -0.1695 C   0  0  0  0  0  0  0  0  0  0  0  0
   -2.7802    1.8151    0.6907 C   0  0  0  0  0  0  0  0  0  0  0  0
   -4.2238    1.7802    0.4491 C   0  0  0  0  0  0  0  0  0  0  0  0
   -4.5344   -0.3930   -1.9837 H   0  0  0  0  0  0  0  0  0  0  0  0
   -2.0570   -0.5316   -1.7875 H   0  0  0  0  0  0  0  0  0  0  0  0
   12.2222    0.2482    1.0866 N   0  0  0  0  0  0  0  0  0  0  0  0
   13.3220    0.1977    1.1865 N   0  0  0  0  0  0  0  0  0  0  0  0
   -4.8226    2.4335    1.0831 H   0  0  0  0  0  0  0  0  0  0  0  0
   -2.3619    2.4579    1.4563 H   0  0  0  0  0  0  0  0  0  0  0  0
   -4.7771    1.0225   -0.4617 N   0  0  0  0  0  0  0  0  0  0  0  0
  1  2  2  0  0  0  0
  1 12  1  0  0  0  0
  2  3  1  0  0  0  0
  3  4  2  0  0  0  0
  4 11  1  0  0  0  0
  5  4  1  0  0  0  0
  5 10  1  0  0  0  0
  6  1  1  0  0  0  0
  7  2  1  0  0  0  0
  8  9  3  0  0  0  0
 12  5  2  0  0  0  0
M  RAD  1   3   2
M  END
