Coordinates from ORCA-job Pyridine-4-N2+-scan-d09-160-n800
 OpenBabel09191813523D

 12 11  0  0  0  0  0  0  0  0999 V2000
   -3.0148    0.1922   -1.1260 C   0  0  0  0  0  0  0  0  0  0  0  0
   -1.5575    0.0698   -1.0556 C   0  0  0  0  0  0  0  0  0  0  0  0
   -1.1655    0.8929   -0.0955 C   0  0  0  0  0  0  0  0  0  0  0  0
   -1.6776    1.7497    0.7743 C   0  0  0  0  0  0  0  0  0  0  0  0
   -3.1251    1.7352    0.5549 C   0  0  0  0  0  0  0  0  0  0  0  0
   -3.5031   -0.4284   -1.8769 H   0  0  0  0  0  0  0  0  0  0  0  0
   -1.0250   -0.6017   -1.7189 H   0  0  0  0  0  0  0  0  0  0  0  0
    6.8425    0.5183    0.6239 N   0  0  0  0  0  0  0  0  0  0  0  0
    7.9422    0.4680    0.7241 N   0  0  0  0  0  0  0  0  0  0  0  0
   -3.7050    2.3955    1.1992 H   0  0  0  0  0  0  0  0  0  0  0  0
   -1.2386    2.3850    1.5346 H   0  0  0  0  0  0  0  0  0  0  0  0
   -3.7029    0.9872   -0.3487 N   0  0  0  0  0  0  0  0  0  0  0  0
  1  2  2  0  0  0  0
  1 12  1  0  0  0  0
  2  3  1  0  0  0  0
  3  4  2  0  0  0  0
  4 11  1  0  0  0  0
  5  4  1  0  0  0  0
  5 10  1  0  0  0  0
  6  1  1  0  0  0  0
  7  2  1  0  0  0  0
  8  9  3  0  0  0  0
 12  5  2  0  0  0  0
M  RAD  1   3   2
M  END
