Coordinates from ORCA-job Pyridine-4-N2+-scan-d09-160-n800
 OpenBabel09191813533D

 12 11  0  0  0  0  0  0  0  0999 V2000
   -4.4021    0.2492   -1.2593 C   0  0  0  0  0  0  0  0  0  0  0  0
   -2.9446    0.1551   -1.1575 C   0  0  0  0  0  0  0  0  0  0  0  0
   -2.5888    0.9880   -0.1917 C   0  0  0  0  0  0  0  0  0  0  0  0
   -3.1358    1.8369    0.6645 C   0  0  0  0  0  0  0  0  0  0  0  0
   -4.5778    1.7941    0.4144 C   0  0  0  0  0  0  0  0  0  0  0  0
   -4.8623   -0.3825   -2.0186 H   0  0  0  0  0  0  0  0  0  0  0  0
   -2.3855   -0.5077   -1.8074 H   0  0  0  0  0  0  0  0  0  0  0  0
   13.9489    0.1595    1.2329 N   0  0  0  0  0  0  0  0  0  0  0  0
   15.0486    0.1108    1.3347 N   0  0  0  0  0  0  0  0  0  0  0  0
   -5.1838    2.4448    1.0443 H   0  0  0  0  0  0  0  0  0  0  0  0
   -2.7256    2.4826    1.4321 H   0  0  0  0  0  0  0  0  0  0  0  0
   -5.1217    1.0329   -0.4991 N   0  0  0  0  0  0  0  0  0  0  0  0
  1  2  2  0  0  0  0
  1 12  1  0  0  0  0
  2  3  1  0  0  0  0
  3  4  2  0  0  0  0
  4 11  1  0  0  0  0
  5  4  1  0  0  0  0
  5 10  1  0  0  0  0
  6  1  1  0  0  0  0
  7  2  1  0  0  0  0
  8  9  3  0  0  0  0
 12  5  2  0  0  0  0
M  RAD  1   3   2
M  END
