Coordinates from ORCA-job Pyridine-4-N2+-scan-d09-160-n800
 OpenBabel09191813523D

 12 11  0  0  0  0  0  0  0  0999 V2000
   -2.0267    0.1485   -1.0348 C   0  0  0  0  0  0  0  0  0  0  0  0
   -0.5997    0.0204   -0.9743 C   0  0  0  0  0  0  0  0  0  0  0  0
   -0.1395    0.8374   -0.0111 C   0  0  0  0  0  0  0  0  0  0  0  0
   -0.6979    1.6986    0.8570 C   0  0  0  0  0  0  0  0  0  0  0  0
   -2.1172    1.6940    0.6516 C   0  0  0  0  0  0  0  0  0  0  0  0
   -2.5488   -0.4568   -1.7739 H   0  0  0  0  0  0  0  0  0  0  0  0
   -0.0521   -0.6450   -1.6285 H   0  0  0  0  0  0  0  0  0  0  0  0
    1.9111    0.7484    0.1805 N   0  0  0  0  0  0  0  0  0  0  0  0
    3.0095    0.7007    0.2831 N   0  0  0  0  0  0  0  0  0  0  0  0
   -2.7129    2.3478    1.2863 H   0  0  0  0  0  0  0  0  0  0  0  0
   -0.2257    2.3198    1.6065 H   0  0  0  0  0  0  0  0  0  0  0  0
   -2.7309    0.9498   -0.2531 N   0  0  0  0  0  0  0  0  0  0  0  0
  1  2  2  0  0  0  0
  1 12  1  0  0  0  0
  2  3  1  0  0  0  0
  3  4  2  0  0  0  0
  4 11  1  0  0  0  0
  5  4  1  0  0  0  0
  5 10  1  0  0  0  0
  6  1  1  0  0  0  0
  7  2  1  0  0  0  0
  8  9  3  0  0  0  0
 12  5  2  0  0  0  0
M  RAD  1   3   2
M  END
