Coordinates from ORCA-job Pyridine-4-N2+-scan-d09-160-n800
 OpenBabel09191813523D

 12 11  0  0  0  0  0  0  0  0999 V2000
   -2.9205    0.1883   -1.1170 C   0  0  0  0  0  0  0  0  0  0  0  0
   -1.4633    0.0641   -1.0485 C   0  0  0  0  0  0  0  0  0  0  0  0
   -1.0691    0.8867   -0.0887 C   0  0  0  0  0  0  0  0  0  0  0  0
   -1.5792    1.7439    0.7819 C   0  0  0  0  0  0  0  0  0  0  0  0
   -3.0269    1.7312    0.5643 C   0  0  0  0  0  0  0  0  0  0  0  0
   -3.4104   -0.4316   -1.8674 H   0  0  0  0  0  0  0  0  0  0  0  0
   -0.9323   -0.6078   -1.7125 H   0  0  0  0  0  0  0  0  0  0  0  0
    6.3609    0.5421    0.5821 N   0  0  0  0  0  0  0  0  0  0  0  0
    7.4606    0.4922    0.6827 N   0  0  0  0  0  0  0  0  0  0  0  0
   -3.6053    2.3920    1.2094 H   0  0  0  0  0  0  0  0  0  0  0  0
   -1.1384    2.3786    1.5417 H   0  0  0  0  0  0  0  0  0  0  0  0
   -3.6067    0.9840   -0.3387 N   0  0  0  0  0  0  0  0  0  0  0  0
  1  2  2  0  0  0  0
  1 12  1  0  0  0  0
  2  3  1  0  0  0  0
  3  4  2  0  0  0  0
  4 11  1  0  0  0  0
  5  4  1  0  0  0  0
  5 10  1  0  0  0  0
  6  1  1  0  0  0  0
  7  2  1  0  0  0  0
  8  9  3  0  0  0  0
 12  5  2  0  0  0  0
M  RAD  1   3   2
M  END
