Coordinates from ORCA-job Pyridine-4-N2+-scan-d09-160-n800
 OpenBabel09191813523D

 12 11  0  0  0  0  0  0  0  0999 V2000
   -3.0570    0.1939   -1.1300 C   0  0  0  0  0  0  0  0  0  0  0  0
   -1.5997    0.0723   -1.0588 C   0  0  0  0  0  0  0  0  0  0  0  0
   -1.2087    0.8957   -0.0986 C   0  0  0  0  0  0  0  0  0  0  0  0
   -1.7218    1.7523    0.7710 C   0  0  0  0  0  0  0  0  0  0  0  0
   -3.1692    1.7370    0.5507 C   0  0  0  0  0  0  0  0  0  0  0  0
   -3.5446   -0.4269   -1.8812 H   0  0  0  0  0  0  0  0  0  0  0  0
   -1.0665   -0.5989   -1.7218 H   0  0  0  0  0  0  0  0  0  0  0  0
    7.0583    0.5076    0.6426 N   0  0  0  0  0  0  0  0  0  0  0  0
    8.1581    0.4571    0.7426 N   0  0  0  0  0  0  0  0  0  0  0  0
   -3.7498    2.3970    1.1946 H   0  0  0  0  0  0  0  0  0  0  0  0
   -1.2836    2.3879    1.5314 H   0  0  0  0  0  0  0  0  0  0  0  0
   -3.7460    0.9887   -0.3532 N   0  0  0  0  0  0  0  0  0  0  0  0
  1  2  2  0  0  0  0
  1 12  1  0  0  0  0
  2  3  1  0  0  0  0
  3  4  2  0  0  0  0
  4 11  1  0  0  0  0
  5  4  1  0  0  0  0
  5 10  1  0  0  0  0
  6  1  1  0  0  0  0
  7  2  1  0  0  0  0
  8  9  3  0  0  0  0
 12  5  2  0  0  0  0
M  RAD  1   3   2
M  END
