Coordinates from ORCA-job Pyridine-4-N2+-scan-d09-160-n800
 OpenBabel09191813533D

 12 11  0  0  0  0  0  0  0  0999 V2000
   -3.7486    0.2225   -1.1962 C   0  0  0  0  0  0  0  0  0  0  0  0
   -2.2911    0.1141   -1.1104 C   0  0  0  0  0  0  0  0  0  0  0  0
   -1.9168    0.9422   -0.1474 C   0  0  0  0  0  0  0  0  0  0  0  0
   -2.4463    1.7952    0.7158 C   0  0  0  0  0  0  0  0  0  0  0  0
   -3.8912    1.7667    0.4812 C   0  0  0  0  0  0  0  0  0  0  0  0
   -4.2231   -0.4036   -1.9514 H   0  0  0  0  0  0  0  0  0  0  0  0
   -1.7454   -0.5531   -1.7672 H   0  0  0  0  0  0  0  0  0  0  0  0
   10.5950    0.3311    0.9480 N   0  0  0  0  0  0  0  0  0  0  0  0
   11.6949    0.2787    1.0459 N   0  0  0  0  0  0  0  0  0  0  0  0
   -4.4841    2.4222    1.1186 H   0  0  0  0  0  0  0  0  0  0  0  0
   -2.0215    2.4357    1.4797 H   0  0  0  0  0  0  0  0  0  0  0  0
   -4.4523    1.0120   -0.4273 N   0  0  0  0  0  0  0  0  0  0  0  0
  1  2  2  0  0  0  0
  1 12  1  0  0  0  0
  2  3  1  0  0  0  0
  3  4  2  0  0  0  0
  4 11  1  0  0  0  0
  5  4  1  0  0  0  0
  5 10  1  0  0  0  0
  6  1  1  0  0  0  0
  7  2  1  0  0  0  0
  8  9  3  0  0  0  0
 12  5  2  0  0  0  0
M  RAD  1   3   2
M  END
