Coordinates from ORCA-job Pyridine-4-N2+-scan-d09-160-n800
 OpenBabel09191813523D

 12 11  0  0  0  0  0  0  0  0999 V2000
   -2.1528    0.1557   -1.0446 C   0  0  0  0  0  0  0  0  0  0  0  0
   -0.7020    0.0243   -0.9844 C   0  0  0  0  0  0  0  0  0  0  0  0
   -0.2927    0.8441   -0.0254 C   0  0  0  0  0  0  0  0  0  0  0  0
   -0.8004    1.7037    0.8480 C   0  0  0  0  0  0  0  0  0  0  0  0
   -2.2431    1.6977    0.6379 C   0  0  0  0  0  0  0  0  0  0  0  0
   -2.6544   -0.4589   -1.7912 H   0  0  0  0  0  0  0  0  0  0  0  0
   -0.1710   -0.6471   -1.6476 H   0  0  0  0  0  0  0  0  0  0  0  0
    2.4949    0.7231    0.2350 N   0  0  0  0  0  0  0  0  0  0  0  0
    3.5940    0.6752    0.3376 N   0  0  0  0  0  0  0  0  0  0  0  0
   -2.8195    2.3591    1.2838 H   0  0  0  0  0  0  0  0  0  0  0  0
   -0.3455    2.3323    1.6033 H   0  0  0  0  0  0  0  0  0  0  0  0
   -2.8382    0.9545   -0.2632 N   0  0  0  0  0  0  0  0  0  0  0  0
  1  2  2  0  0  0  0
  1 12  1  0  0  0  0
  2  3  1  0  0  0  0
  3  4  2  0  0  0  0
  4 11  1  0  0  0  0
  5  4  1  0  0  0  0
  5 10  1  0  0  0  0
  6  1  1  0  0  0  0
  7  2  1  0  0  0  0
  8  9  3  0  0  0  0
 12  5  2  0  0  0  0
M  RAD  1   3   2
M  END
