Coordinates from ORCA-job Pyridine-4-N2+-scan-d09-160-n800
 OpenBabel09191813533D

 12 11  0  0  0  0  0  0  0  0999 V2000
   -3.9432    0.2306   -1.2149 C   0  0  0  0  0  0  0  0  0  0  0  0
   -2.4856    0.1260   -1.1247 C   0  0  0  0  0  0  0  0  0  0  0  0
   -2.1164    0.9555   -0.1609 C   0  0  0  0  0  0  0  0  0  0  0  0
   -2.6507    1.8074    0.7004 C   0  0  0  0  0  0  0  0  0  0  0  0
   -4.0948    1.7749    0.4615 C   0  0  0  0  0  0  0  0  0  0  0  0
   -4.4137   -0.3971   -1.9712 H   0  0  0  0  0  0  0  0  0  0  0  0
   -1.9362   -0.5400   -1.7797 H   0  0  0  0  0  0  0  0  0  0  0  0
   11.5912    0.2810    1.0336 N   0  0  0  0  0  0  0  0  0  0  0  0
   12.6911    0.2285    1.1313 N   0  0  0  0  0  0  0  0  0  0  0  0
   -4.6913    2.4292    1.0969 H   0  0  0  0  0  0  0  0  0  0  0  0
   -2.2299    2.4493    1.4653 H   0  0  0  0  0  0  0  0  0  0  0  0
   -4.6512    1.0185   -0.4484 N   0  0  0  0  0  0  0  0  0  0  0  0
  1  2  2  0  0  0  0
  1 12  1  0  0  0  0
  2  3  1  0  0  0  0
  3  4  2  0  0  0  0
  4 11  1  0  0  0  0
  5  4  1  0  0  0  0
  5 10  1  0  0  0  0
  6  1  1  0  0  0  0
  7  2  1  0  0  0  0
  8  9  3  0  0  0  0
 12  5  2  0  0  0  0
M  RAD  1   3   2
M  END
