Coordinates from ORCA-job Pyridine-4-N2+-scan-d09-160-n800
 OpenBabel09191813533D

 12 11  0  0  0  0  0  0  0  0999 V2000
   -3.8913    0.2284   -1.2099 C   0  0  0  0  0  0  0  0  0  0  0  0
   -2.4337    0.1229   -1.1209 C   0  0  0  0  0  0  0  0  0  0  0  0
   -2.0632    0.9519   -0.1574 C   0  0  0  0  0  0  0  0  0  0  0  0
   -2.5962    1.8041    0.7045 C   0  0  0  0  0  0  0  0  0  0  0  0
   -4.0405    1.7727    0.4668 C   0  0  0  0  0  0  0  0  0  0  0  0
   -4.3629   -0.3988   -1.9659 H   0  0  0  0  0  0  0  0  0  0  0  0
   -1.8854   -0.5435   -1.7764 H   0  0  0  0  0  0  0  0  0  0  0  0
   11.3256    0.2945    1.0109 N   0  0  0  0  0  0  0  0  0  0  0  0
   12.4255    0.2418    1.1084 N   0  0  0  0  0  0  0  0  0  0  0  0
   -4.6360    2.4273    1.1027 H   0  0  0  0  0  0  0  0  0  0  0  0
   -2.1743    2.4457    1.4692 H   0  0  0  0  0  0  0  0  0  0  0  0
   -4.5982    1.0168   -0.4427 N   0  0  0  0  0  0  0  0  0  0  0  0
  1  2  2  0  0  0  0
  1 12  1  0  0  0  0
  2  3  1  0  0  0  0
  3  4  2  0  0  0  0
  4 11  1  0  0  0  0
  5  4  1  0  0  0  0
  5 10  1  0  0  0  0
  6  1  1  0  0  0  0
  7  2  1  0  0  0  0
  8  9  3  0  0  0  0
 12  5  2  0  0  0  0
M  RAD  1   3   2
M  END
