Coordinates from ORCA-job Pyridine-4-N2+-scan-d09-160-n800
 OpenBabel09191813533D

 12 11  0  0  0  0  0  0  0  0999 V2000
   -3.5345    0.2137   -1.1757 C   0  0  0  0  0  0  0  0  0  0  0  0
   -2.0770    0.1011   -1.0946 C   0  0  0  0  0  0  0  0  0  0  0  0
   -1.6974    0.9277   -0.1324 C   0  0  0  0  0  0  0  0  0  0  0  0
   -2.2217    1.7818    0.7328 C   0  0  0  0  0  0  0  0  0  0  0  0
   -3.6674    1.7575    0.5028 C   0  0  0  0  0  0  0  0  0  0  0  0
   -4.0131   -0.4108   -1.9296 H   0  0  0  0  0  0  0  0  0  0  0  0
   -1.5353   -0.5674   -1.7533 H   0  0  0  0  0  0  0  0  0  0  0  0
    9.4992    0.3859    0.8536 N   0  0  0  0  0  0  0  0  0  0  0  0
   10.5990    0.3341    0.9520 N   0  0  0  0  0  0  0  0  0  0  0  0
   -4.2564    2.4145    1.1423 H   0  0  0  0  0  0  0  0  0  0  0  0
   -1.7926    2.4208    1.4957 H   0  0  0  0  0  0  0  0  0  0  0  0
   -4.2335    1.0048   -0.4042 N   0  0  0  0  0  0  0  0  0  0  0  0
  1  2  2  0  0  0  0
  1 12  1  0  0  0  0
  2  3  1  0  0  0  0
  3  4  2  0  0  0  0
  4 11  1  0  0  0  0
  5  4  1  0  0  0  0
  5 10  1  0  0  0  0
  6  1  1  0  0  0  0
  7  2  1  0  0  0  0
  8  9  3  0  0  0  0
 12  5  2  0  0  0  0
M  RAD  1   3   2
M  END
