Coordinates from ORCA-job Pyridine-4-N2+-scan-d09-160-n800
 OpenBabel09191813533D

 12 11  0  0  0  0  0  0  0  0999 V2000
   -4.3183    0.2459   -1.2511 C   0  0  0  0  0  0  0  0  0  0  0  0
   -2.8608    0.1496   -1.1517 C   0  0  0  0  0  0  0  0  0  0  0  0
   -2.5023    0.9818   -0.1863 C   0  0  0  0  0  0  0  0  0  0  0  0
   -3.0468    1.8314    0.6710 C   0  0  0  0  0  0  0  0  0  0  0  0
   -4.4892    1.7907    0.4231 C   0  0  0  0  0  0  0  0  0  0  0  0
   -4.7806   -0.3850   -2.0098 H   0  0  0  0  0  0  0  0  0  0  0  0
   -2.3036   -0.5138   -1.8026 H   0  0  0  0  0  0  0  0  0  0  0  0
   13.5173    0.1816    1.1962 N   0  0  0  0  0  0  0  0  0  0  0  0
   14.6170    0.1327    1.2979 N   0  0  0  0  0  0  0  0  0  0  0  0
   -5.0933    2.4420    1.0541 H   0  0  0  0  0  0  0  0  0  0  0  0
   -2.6344    2.4763    1.4380 H   0  0  0  0  0  0  0  0  0  0  0  0
   -5.0356    1.0304   -0.4896 N   0  0  0  0  0  0  0  0  0  0  0  0
  1  2  2  0  0  0  0
  1 12  1  0  0  0  0
  2  3  1  0  0  0  0
  3  4  2  0  0  0  0
  4 11  1  0  0  0  0
  5  4  1  0  0  0  0
  5 10  1  0  0  0  0
  6  1  1  0  0  0  0
  7  2  1  0  0  0  0
  8  9  3  0  0  0  0
 12  5  2  0  0  0  0
M  RAD  1   3   2
M  END
