Coordinates from ORCA-job Pyridine-4-N2+-scan-d09-160-n800
 OpenBabel09191813523D

 12 11  0  0  0  0  0  0  0  0999 V2000
   -3.1740    0.1988   -1.1412 C   0  0  0  0  0  0  0  0  0  0  0  0
   -1.7167    0.0793   -1.0676 C   0  0  0  0  0  0  0  0  0  0  0  0
   -1.3284    0.9035   -0.1069 C   0  0  0  0  0  0  0  0  0  0  0  0
   -1.8442    1.7595    0.7616 C   0  0  0  0  0  0  0  0  0  0  0  0
   -3.2912    1.7421    0.5390 C   0  0  0  0  0  0  0  0  0  0  0  0
   -3.6594   -0.4230   -1.8930 H   0  0  0  0  0  0  0  0  0  0  0  0
   -1.1814   -0.5913   -1.7296 H   0  0  0  0  0  0  0  0  0  0  0  0
    7.6561    0.4778    0.6943 N   0  0  0  0  0  0  0  0  0  0  0  0
    8.7559    0.4270    0.7939 N   0  0  0  0  0  0  0  0  0  0  0  0
   -3.8738    2.4013    1.1818 H   0  0  0  0  0  0  0  0  0  0  0  0
   -1.4082    2.3959    1.5226 H   0  0  0  0  0  0  0  0  0  0  0  0
   -3.8654    0.9926   -0.3657 N   0  0  0  0  0  0  0  0  0  0  0  0
  1  2  2  0  0  0  0
  1 12  1  0  0  0  0
  2  3  1  0  0  0  0
  3  4  2  0  0  0  0
  4 11  1  0  0  0  0
  5  4  1  0  0  0  0
  5 10  1  0  0  0  0
  6  1  1  0  0  0  0
  7  2  1  0  0  0  0
  8  9  3  0  0  0  0
 12  5  2  0  0  0  0
M  RAD  1   3   2
M  END
