Coordinates from ORCA-job Pyridine-4-N2+-scan-d09-160-n800
 OpenBabel09191813523D

 12 11  0  0  0  0  0  0  0  0999 V2000
   -2.9985    0.1915   -1.1244 C   0  0  0  0  0  0  0  0  0  0  0  0
   -1.5413    0.0688   -1.0544 C   0  0  0  0  0  0  0  0  0  0  0  0
   -1.1489    0.8918   -0.0944 C   0  0  0  0  0  0  0  0  0  0  0  0
   -1.6607    1.7487    0.7757 C   0  0  0  0  0  0  0  0  0  0  0  0
   -3.1082    1.7345    0.5565 C   0  0  0  0  0  0  0  0  0  0  0  0
   -3.4871   -0.4289   -1.8752 H   0  0  0  0  0  0  0  0  0  0  0  0
   -1.0091   -0.6027   -1.7178 H   0  0  0  0  0  0  0  0  0  0  0  0
    6.7594    0.5224    0.6167 N   0  0  0  0  0  0  0  0  0  0  0  0
    7.8592    0.4722    0.7170 N   0  0  0  0  0  0  0  0  0  0  0  0
   -3.6878    2.3949    1.2010 H   0  0  0  0  0  0  0  0  0  0  0  0
   -1.2213    2.3839    1.5358 H   0  0  0  0  0  0  0  0  0  0  0  0
   -3.6863    0.9867   -0.3470 N   0  0  0  0  0  0  0  0  0  0  0  0
  1  2  2  0  0  0  0
  1 12  1  0  0  0  0
  2  3  1  0  0  0  0
  3  4  2  0  0  0  0
  4 11  1  0  0  0  0
  5  4  1  0  0  0  0
  5 10  1  0  0  0  0
  6  1  1  0  0  0  0
  7  2  1  0  0  0  0
  8  9  3  0  0  0  0
 12  5  2  0  0  0  0
M  RAD  1   3   2
M  END
