Coordinates from ORCA-job Pyridine-4-N2+-scan-d09-160-n800
 OpenBabel09191813523D

 12 11  0  0  0  0  0  0  0  0999 V2000
   -2.4460    0.1683   -1.0721 C   0  0  0  0  0  0  0  0  0  0  0  0
   -0.9895    0.0376   -1.0105 C   0  0  0  0  0  0  0  0  0  0  0  0
   -0.5879    0.8580   -0.0519 C   0  0  0  0  0  0  0  0  0  0  0  0
   -1.0897    1.7171    0.8218 C   0  0  0  0  0  0  0  0  0  0  0  0
   -2.5381    1.7105    0.6105 C   0  0  0  0  0  0  0  0  0  0  0  0
   -2.9424   -0.4488   -1.8205 H   0  0  0  0  0  0  0  0  0  0  0  0
   -0.4634   -0.6359   -1.6768 H   0  0  0  0  0  0  0  0  0  0  0  0
    3.9528    0.6581    0.3695 N   0  0  0  0  0  0  0  0  0  0  0  0
    5.0523    0.6098    0.4717 N   0  0  0  0  0  0  0  0  0  0  0  0
   -3.1110    2.3734    1.2584 H   0  0  0  0  0  0  0  0  0  0  0  0
   -0.6416    2.3489    1.5795 H   0  0  0  0  0  0  0  0  0  0  0  0
   -3.1259    0.9665   -0.2903 N   0  0  0  0  0  0  0  0  0  0  0  0
  1  2  2  0  0  0  0
  1 12  1  0  0  0  0
  2  3  1  0  0  0  0
  3  4  2  0  0  0  0
  4 11  1  0  0  0  0
  5  4  1  0  0  0  0
  5 10  1  0  0  0  0
  6  1  1  0  0  0  0
  7  2  1  0  0  0  0
  8  9  3  0  0  0  0
 12  5  2  0  0  0  0
M  RAD  1   3   2
M  END
