Coordinates from ORCA-job Pyridine-4-N2+-scan-d09-160-n800
 OpenBabel09191813523D

 12 11  0  0  0  0  0  0  0  0999 V2000
   -2.8065    0.1835   -1.1061 C   0  0  0  0  0  0  0  0  0  0  0  0
   -1.3494    0.0574   -1.0397 C   0  0  0  0  0  0  0  0  0  0  0  0
   -0.9529    0.8793   -0.0804 C   0  0  0  0  0  0  0  0  0  0  0  0
   -1.4604    1.7370    0.7912 C   0  0  0  0  0  0  0  0  0  0  0  0
   -2.9085    1.7263    0.5756 C   0  0  0  0  0  0  0  0  0  0  0  0
   -3.2984   -0.4355   -1.8559 H   0  0  0  0  0  0  0  0  0  0  0  0
   -0.8202   -0.6151   -1.7046 H   0  0  0  0  0  0  0  0  0  0  0  0
    5.7797    0.5708    0.5315 N   0  0  0  0  0  0  0  0  0  0  0  0
    6.8793    0.5213    0.6325 N   0  0  0  0  0  0  0  0  0  0  0  0
   -3.4850    2.3877    1.2216 H   0  0  0  0  0  0  0  0  0  0  0  0
   -1.0176    2.3709    1.5504 H   0  0  0  0  0  0  0  0  0  0  0  0
   -3.4906    0.9800   -0.3267 N   0  0  0  0  0  0  0  0  0  0  0  0
  1  2  2  0  0  0  0
  1 12  1  0  0  0  0
  2  3  1  0  0  0  0
  3  4  2  0  0  0  0
  4 11  1  0  0  0  0
  5  4  1  0  0  0  0
  5 10  1  0  0  0  0
  6  1  1  0  0  0  0
  7  2  1  0  0  0  0
  8  9  3  0  0  0  0
 12  5  2  0  0  0  0
M  RAD  1   3   2
M  END
