Coordinates from ORCA-job Pyridine-4-N2+-scan-d09-160-n800
 OpenBabel09191813533D

 12 11  0  0  0  0  0  0  0  0999 V2000
   -3.7584    0.2229   -1.1972 C   0  0  0  0  0  0  0  0  0  0  0  0
   -2.3008    0.1147   -1.1111 C   0  0  0  0  0  0  0  0  0  0  0  0
   -1.9268    0.9428   -0.1481 C   0  0  0  0  0  0  0  0  0  0  0  0
   -2.4565    1.7958    0.7150 C   0  0  0  0  0  0  0  0  0  0  0  0
   -3.9014    1.7671    0.4803 C   0  0  0  0  0  0  0  0  0  0  0  0
   -4.2327   -0.4033   -1.9523 H   0  0  0  0  0  0  0  0  0  0  0  0
   -1.7550   -0.5525   -1.7679 H   0  0  0  0  0  0  0  0  0  0  0  0
   10.6448    0.3286    0.9523 N   0  0  0  0  0  0  0  0  0  0  0  0
   11.7447    0.2762    1.0501 N   0  0  0  0  0  0  0  0  0  0  0  0
   -4.4944    2.4226    1.1175 H   0  0  0  0  0  0  0  0  0  0  0  0
   -2.0319    2.4364    1.4790 H   0  0  0  0  0  0  0  0  0  0  0  0
   -4.4623    1.0123   -0.4283 N   0  0  0  0  0  0  0  0  0  0  0  0
  1  2  2  0  0  0  0
  1 12  1  0  0  0  0
  2  3  1  0  0  0  0
  3  4  2  0  0  0  0
  4 11  1  0  0  0  0
  5  4  1  0  0  0  0
  5 10  1  0  0  0  0
  6  1  1  0  0  0  0
  7  2  1  0  0  0  0
  8  9  3  0  0  0  0
 12  5  2  0  0  0  0
M  RAD  1   3   2
M  END
