Coordinates from ORCA-job Pyridine-4-N2+-scan-d09-160-n800
 OpenBabel09191813523D

 12 11  0  0  0  0  0  0  0  0999 V2000
   -3.3072    0.2043   -1.1540 C   0  0  0  0  0  0  0  0  0  0  0  0
   -1.8498    0.0873   -1.0776 C   0  0  0  0  0  0  0  0  0  0  0  0
   -1.4646    0.9124   -0.1164 C   0  0  0  0  0  0  0  0  0  0  0  0
   -1.9836    1.7677    0.7510 C   0  0  0  0  0  0  0  0  0  0  0  0
   -3.4301    1.7478    0.5256 C   0  0  0  0  0  0  0  0  0  0  0  0
   -3.7901   -0.4185   -1.9065 H   0  0  0  0  0  0  0  0  0  0  0  0
   -1.3122   -0.5825   -1.7384 H   0  0  0  0  0  0  0  0  0  0  0  0
    8.3369    0.4439    0.7532 N   0  0  0  0  0  0  0  0  0  0  0  0
    9.4367    0.3927    0.8524 N   0  0  0  0  0  0  0  0  0  0  0  0
   -4.0151    2.4062    1.1673 H   0  0  0  0  0  0  0  0  0  0  0  0
   -1.5501    2.4051    1.5126 H   0  0  0  0  0  0  0  0  0  0  0  0
   -4.0014    0.9972   -0.3799 N   0  0  0  0  0  0  0  0  0  0  0  0
  1  2  2  0  0  0  0
  1 12  1  0  0  0  0
  2  3  1  0  0  0  0
  3  4  2  0  0  0  0
  4 11  1  0  0  0  0
  5  4  1  0  0  0  0
  5 10  1  0  0  0  0
  6  1  1  0  0  0  0
  7  2  1  0  0  0  0
  8  9  3  0  0  0  0
 12  5  2  0  0  0  0
M  RAD  1   3   2
M  END
