Coordinates from ORCA-job Pyridine-4-N2+-scan-d09-160-n800
 OpenBabel09191813533D

 12 11  0  0  0  0  0  0  0  0999 V2000
   -4.4215    0.2500   -1.2611 C   0  0  0  0  0  0  0  0  0  0  0  0
   -2.9639    0.1563   -1.1588 C   0  0  0  0  0  0  0  0  0  0  0  0
   -2.6088    0.9894   -0.1930 C   0  0  0  0  0  0  0  0  0  0  0  0
   -3.1564    1.8382    0.6630 C   0  0  0  0  0  0  0  0  0  0  0  0
   -4.5983    1.7949    0.4123 C   0  0  0  0  0  0  0  0  0  0  0  0
   -4.8812   -0.3819   -2.0206 H   0  0  0  0  0  0  0  0  0  0  0  0
   -2.4043   -0.5063   -1.8085 H   0  0  0  0  0  0  0  0  0  0  0  0
   14.0485    0.1544    1.2413 N   0  0  0  0  0  0  0  0  0  0  0  0
   15.1482    0.1057    1.3432 N   0  0  0  0  0  0  0  0  0  0  0  0
   -5.2047    2.4454    1.0420 H   0  0  0  0  0  0  0  0  0  0  0  0
   -2.7467    2.4840    1.4307 H   0  0  0  0  0  0  0  0  0  0  0  0
   -5.1416    1.0335   -0.5013 N   0  0  0  0  0  0  0  0  0  0  0  0
  1  2  2  0  0  0  0
  1 12  1  0  0  0  0
  2  3  1  0  0  0  0
  3  4  2  0  0  0  0
  4 11  1  0  0  0  0
  5  4  1  0  0  0  0
  5 10  1  0  0  0  0
  6  1  1  0  0  0  0
  7  2  1  0  0  0  0
  8  9  3  0  0  0  0
 12  5  2  0  0  0  0
M  RAD  1   3   2
M  END
