Coordinates from ORCA-job Pyridine-4-N2+-scan-d09-160-n800
 OpenBabel09191813533D

 12 11  0  0  0  0  0  0  0  0999 V2000
   -3.6286    0.2176   -1.1847 C   0  0  0  0  0  0  0  0  0  0  0  0
   -2.1711    0.1068   -1.1015 C   0  0  0  0  0  0  0  0  0  0  0  0
   -1.7938    0.9340   -0.1390 C   0  0  0  0  0  0  0  0  0  0  0  0
   -2.3203    1.7877    0.7253 C   0  0  0  0  0  0  0  0  0  0  0  0
   -3.7657    1.7615    0.4933 C   0  0  0  0  0  0  0  0  0  0  0  0
   -4.1054   -0.4076   -1.9391 H   0  0  0  0  0  0  0  0  0  0  0  0
   -1.6277   -0.5612   -1.7595 H   0  0  0  0  0  0  0  0  0  0  0  0
    9.9807    0.3619    0.8951 N   0  0  0  0  0  0  0  0  0  0  0  0
   11.0806    0.3098    0.9933 N   0  0  0  0  0  0  0  0  0  0  0  0
   -4.3564    2.4179    1.1319 H   0  0  0  0  0  0  0  0  0  0  0  0
   -1.8932    2.4273    1.4887 H   0  0  0  0  0  0  0  0  0  0  0  0
   -4.3296    1.0080   -0.4144 N   0  0  0  0  0  0  0  0  0  0  0  0
  1  2  2  0  0  0  0
  1 12  1  0  0  0  0
  2  3  1  0  0  0  0
  3  4  2  0  0  0  0
  4 11  1  0  0  0  0
  5  4  1  0  0  0  0
  5 10  1  0  0  0  0
  6  1  1  0  0  0  0
  7  2  1  0  0  0  0
  8  9  3  0  0  0  0
 12  5  2  0  0  0  0
M  RAD  1   3   2
M  END
