Coordinates from ORCA-job Pyridine-4-N2+-scan-d09-160-n800
 OpenBabel09191813523D

 12 11  0  0  0  0  0  0  0  0999 V2000
   -3.2650    0.2025   -1.1499 C   0  0  0  0  0  0  0  0  0  0  0  0
   -1.8076    0.0848   -1.0744 C   0  0  0  0  0  0  0  0  0  0  0  0
   -1.4214    0.9096   -0.1134 C   0  0  0  0  0  0  0  0  0  0  0  0
   -1.9394    1.7651    0.7543 C   0  0  0  0  0  0  0  0  0  0  0  0
   -3.3861    1.7460    0.5299 C   0  0  0  0  0  0  0  0  0  0  0  0
   -3.7487   -0.4199   -1.9022 H   0  0  0  0  0  0  0  0  0  0  0  0
   -1.2707   -0.5853   -1.7356 H   0  0  0  0  0  0  0  0  0  0  0  0
    8.1210    0.4547    0.7345 N   0  0  0  0  0  0  0  0  0  0  0  0
    9.2208    0.4036    0.8338 N   0  0  0  0  0  0  0  0  0  0  0  0
   -3.9703    2.4047    1.1719 H   0  0  0  0  0  0  0  0  0  0  0  0
   -1.5051    2.4022    1.5158 H   0  0  0  0  0  0  0  0  0  0  0  0
   -3.9583    0.9957   -0.3754 N   0  0  0  0  0  0  0  0  0  0  0  0
  1  2  2  0  0  0  0
  1 12  1  0  0  0  0
  2  3  1  0  0  0  0
  3  4  2  0  0  0  0
  4 11  1  0  0  0  0
  5  4  1  0  0  0  0
  5 10  1  0  0  0  0
  6  1  1  0  0  0  0
  7  2  1  0  0  0  0
  8  9  3  0  0  0  0
 12  5  2  0  0  0  0
M  RAD  1   3   2
M  END
