Coordinates from ORCA-job Pyridine-4-N2+-scan-d09-160-n800
 OpenBabel09191813523D

 12 11  0  0  0  0  0  0  0  0999 V2000
   -2.1966    0.1576   -1.0487 C   0  0  0  0  0  0  0  0  0  0  0  0
   -0.7433    0.0260   -0.9884 C   0  0  0  0  0  0  0  0  0  0  0  0
   -0.3382    0.8461   -0.0296 C   0  0  0  0  0  0  0  0  0  0  0  0
   -0.8417    1.7056    0.8443 C   0  0  0  0  0  0  0  0  0  0  0  0
   -2.2869    1.6996    0.6338 C   0  0  0  0  0  0  0  0  0  0  0  0
   -2.6963   -0.4580   -1.7960 H   0  0  0  0  0  0  0  0  0  0  0  0
   -0.2139   -0.6461   -1.6526 H   0  0  0  0  0  0  0  0  0  0  0  0
    2.7083    0.7138    0.2549 N   0  0  0  0  0  0  0  0  0  0  0  0
    3.8076    0.6659    0.3575 N   0  0  0  0  0  0  0  0  0  0  0  0
   -2.8615    2.3618    1.2807 H   0  0  0  0  0  0  0  0  0  0  0  0
   -0.3886    2.3351    1.6003 H   0  0  0  0  0  0  0  0  0  0  0  0
   -2.8795    0.9563   -0.2670 N   0  0  0  0  0  0  0  0  0  0  0  0
  1  2  2  0  0  0  0
  1 12  1  0  0  0  0
  2  3  1  0  0  0  0
  3  4  2  0  0  0  0
  4 11  1  0  0  0  0
  5  4  1  0  0  0  0
  5 10  1  0  0  0  0
  6  1  1  0  0  0  0
  7  2  1  0  0  0  0
  8  9  3  0  0  0  0
 12  5  2  0  0  0  0
M  RAD  1   3   2
M  END
