Coordinates from ORCA-job Pyridine-4-N2+-scan-d09-160-n800
 OpenBabel09191813523D

 12 11  0  0  0  0  0  0  0  0999 V2000
   -2.5711    0.1736   -1.0839 C   0  0  0  0  0  0  0  0  0  0  0  0
   -1.1143    0.0442   -1.0210 C   0  0  0  0  0  0  0  0  0  0  0  0
   -0.7139    0.8649   -0.0623 C   0  0  0  0  0  0  0  0  0  0  0  0
   -1.2172    1.7235    0.8108 C   0  0  0  0  0  0  0  0  0  0  0  0
   -2.6656    1.7161    0.5986 C   0  0  0  0  0  0  0  0  0  0  0  0
   -3.0663   -0.4440   -1.8326 H   0  0  0  0  0  0  0  0  0  0  0  0
   -0.5878   -0.6292   -1.6871 H   0  0  0  0  0  0  0  0  0  0  0  0
    4.5839    0.6287    0.4262 N   0  0  0  0  0  0  0  0  0  0  0  0
    5.6835    0.5800    0.5282 N   0  0  0  0  0  0  0  0  0  0  0  0
   -3.2393    2.3786    1.2461 H   0  0  0  0  0  0  0  0  0  0  0  0
   -0.7706    2.3559    1.5690 H   0  0  0  0  0  0  0  0  0  0  0  0
   -3.2518    0.9715   -0.3026 N   0  0  0  0  0  0  0  0  0  0  0  0
  1  2  2  0  0  0  0
  1 12  1  0  0  0  0
  2  3  1  0  0  0  0
  3  4  2  0  0  0  0
  4 11  1  0  0  0  0
  5  4  1  0  0  0  0
  5 10  1  0  0  0  0
  6  1  1  0  0  0  0
  7  2  1  0  0  0  0
  8  9  3  0  0  0  0
 12  5  2  0  0  0  0
M  RAD  1   3   2
M  END
