Coordinates from ORCA-job Pyridine-4-N2+-scan-d09-160-n800
 OpenBabel09191813533D

 12 11  0  0  0  0  0  0  0  0999 V2000
   -3.9205    0.2296   -1.2127 C   0  0  0  0  0  0  0  0  0  0  0  0
   -2.4629    0.1246   -1.1230 C   0  0  0  0  0  0  0  0  0  0  0  0
   -2.0931    0.9539   -0.1594 C   0  0  0  0  0  0  0  0  0  0  0  0
   -2.6268    1.8059    0.7022 C   0  0  0  0  0  0  0  0  0  0  0  0
   -4.0711    1.7740    0.4638 C   0  0  0  0  0  0  0  0  0  0  0  0
   -4.3915   -0.3979   -1.9689 H   0  0  0  0  0  0  0  0  0  0  0  0
   -1.9140   -0.5415   -1.7782 H   0  0  0  0  0  0  0  0  0  0  0  0
   11.4750    0.2870    1.0238 N   0  0  0  0  0  0  0  0  0  0  0  0
   12.5749    0.2342    1.1212 N   0  0  0  0  0  0  0  0  0  0  0  0
   -4.6671    2.4283    1.0994 H   0  0  0  0  0  0  0  0  0  0  0  0
   -2.2056    2.4477    1.4670 H   0  0  0  0  0  0  0  0  0  0  0  0
   -4.6280    1.0177   -0.4459 N   0  0  0  0  0  0  0  0  0  0  0  0
  1  2  2  0  0  0  0
  1 12  1  0  0  0  0
  2  3  1  0  0  0  0
  3  4  2  0  0  0  0
  4 11  1  0  0  0  0
  5  4  1  0  0  0  0
  5 10  1  0  0  0  0
  6  1  1  0  0  0  0
  7  2  1  0  0  0  0
  8  9  3  0  0  0  0
 12  5  2  0  0  0  0
M  RAD  1   3   2
M  END
