Coordinates from ORCA-job Pyridine-4-N2+-scan-d09-160-n800
 OpenBabel09191813533D

 12 11  0  0  0  0  0  0  0  0999 V2000
   -3.6124    0.2169   -1.1832 C   0  0  0  0  0  0  0  0  0  0  0  0
   -2.1548    0.1058   -1.1003 C   0  0  0  0  0  0  0  0  0  0  0  0
   -1.7772    0.9329   -0.1379 C   0  0  0  0  0  0  0  0  0  0  0  0
   -2.3033    1.7867    0.7266 C   0  0  0  0  0  0  0  0  0  0  0  0
   -3.7488    1.7608    0.4950 C   0  0  0  0  0  0  0  0  0  0  0  0
   -4.0895   -0.4082   -1.9375 H   0  0  0  0  0  0  0  0  0  0  0  0
   -1.6118   -0.5623   -1.7584 H   0  0  0  0  0  0  0  0  0  0  0  0
    9.8977    0.3660    0.8879 N   0  0  0  0  0  0  0  0  0  0  0  0
   10.9975    0.3140    0.9862 N   0  0  0  0  0  0  0  0  0  0  0  0
   -4.3391    2.4173    1.1337 H   0  0  0  0  0  0  0  0  0  0  0  0
   -1.8758    2.4262    1.4899 H   0  0  0  0  0  0  0  0  0  0  0  0
   -4.3131    1.0075   -0.4126 N   0  0  0  0  0  0  0  0  0  0  0  0
  1  2  2  0  0  0  0
  1 12  1  0  0  0  0
  2  3  1  0  0  0  0
  3  4  2  0  0  0  0
  4 11  1  0  0  0  0
  5  4  1  0  0  0  0
  5 10  1  0  0  0  0
  6  1  1  0  0  0  0
  7  2  1  0  0  0  0
  8  9  3  0  0  0  0
 12  5  2  0  0  0  0
M  RAD  1   3   2
M  END
