Coordinates from ORCA-job Pyridine-4-N2+-scan-d09-160-n800
 OpenBabel09191813523D

 12 11  0  0  0  0  0  0  0  0999 V2000
   -2.8814    0.1866   -1.1133 C   0  0  0  0  0  0  0  0  0  0  0  0
   -1.4242    0.0618   -1.0455 C   0  0  0  0  0  0  0  0  0  0  0  0
   -1.0293    0.8841   -0.0859 C   0  0  0  0  0  0  0  0  0  0  0  0
   -1.5384    1.7415    0.7851 C   0  0  0  0  0  0  0  0  0  0  0  0
   -2.9863    1.7295    0.5682 C   0  0  0  0  0  0  0  0  0  0  0  0
   -3.3721   -0.4329   -1.8634 H   0  0  0  0  0  0  0  0  0  0  0  0
   -0.8939   -0.6103   -1.7098 H   0  0  0  0  0  0  0  0  0  0  0  0
    6.1616    0.5520    0.5648 N   0  0  0  0  0  0  0  0  0  0  0  0
    7.2613    0.5022    0.6655 N   0  0  0  0  0  0  0  0  0  0  0  0
   -3.5640    2.3905    1.2136 H   0  0  0  0  0  0  0  0  0  0  0  0
   -1.0970    2.3759    1.5446 H   0  0  0  0  0  0  0  0  0  0  0  0
   -3.5669    0.9826   -0.3346 N   0  0  0  0  0  0  0  0  0  0  0  0
  1  2  2  0  0  0  0
  1 12  1  0  0  0  0
  2  3  1  0  0  0  0
  3  4  2  0  0  0  0
  4 11  1  0  0  0  0
  5  4  1  0  0  0  0
  5 10  1  0  0  0  0
  6  1  1  0  0  0  0
  7  2  1  0  0  0  0
  8  9  3  0  0  0  0
 12  5  2  0  0  0  0
M  RAD  1   3   2
M  END
