Coordinates from ORCA-job Pyridine-4-N2+-scan-d09-160-n800
 OpenBabel09191813533D

 12 11  0  0  0  0  0  0  0  0999 V2000
   -3.4598    0.2106   -1.1686 C   0  0  0  0  0  0  0  0  0  0  0  0
   -2.0023    0.0966   -1.0890 C   0  0  0  0  0  0  0  0  0  0  0  0
   -1.6209    0.9227   -0.1272 C   0  0  0  0  0  0  0  0  0  0  0  0
   -2.1434    1.7772    0.7388 C   0  0  0  0  0  0  0  0  0  0  0  0
   -3.5894    1.7543    0.5103 C   0  0  0  0  0  0  0  0  0  0  0  0
   -3.9399   -0.4133   -1.9220 H   0  0  0  0  0  0  0  0  0  0  0  0
   -1.4620   -0.5724   -1.7485 H   0  0  0  0  0  0  0  0  0  0  0  0
    9.1173    0.4050    0.8206 N   0  0  0  0  0  0  0  0  0  0  0  0
   10.2171    0.3533    0.9193 N   0  0  0  0  0  0  0  0  0  0  0  0
   -4.1771    2.4118    1.1505 H   0  0  0  0  0  0  0  0  0  0  0  0
   -1.7129    2.4156    1.5012 H   0  0  0  0  0  0  0  0  0  0  0  0
   -4.1572    1.0023   -0.3962 N   0  0  0  0  0  0  0  0  0  0  0  0
  1  2  2  0  0  0  0
  1 12  1  0  0  0  0
  2  3  1  0  0  0  0
  3  4  2  0  0  0  0
  4 11  1  0  0  0  0
  5  4  1  0  0  0  0
  5 10  1  0  0  0  0
  6  1  1  0  0  0  0
  7  2  1  0  0  0  0
  8  9  3  0  0  0  0
 12  5  2  0  0  0  0
M  RAD  1   3   2
M  END
