Coordinates from ORCA-job Pyridine-4-N2+-scan-d09-160-n800
 OpenBabel09191813523D

 12 11  0  0  0  0  0  0  0  0999 V2000
   -2.1932    0.1575   -1.0484 C   0  0  0  0  0  0  0  0  0  0  0  0
   -0.7401    0.0259   -0.9881 C   0  0  0  0  0  0  0  0  0  0  0  0
   -0.3348    0.8460   -0.0293 C   0  0  0  0  0  0  0  0  0  0  0  0
   -0.8385    1.7054    0.8446 C   0  0  0  0  0  0  0  0  0  0  0  0
   -2.2836    1.6995    0.6342 C   0  0  0  0  0  0  0  0  0  0  0  0
   -2.6931   -0.4580   -1.7956 H   0  0  0  0  0  0  0  0  0  0  0  0
   -0.2106   -0.6462   -1.6522 H   0  0  0  0  0  0  0  0  0  0  0  0
    2.6919    0.7145    0.2534 N   0  0  0  0  0  0  0  0  0  0  0  0
    3.7911    0.6666    0.3560 N   0  0  0  0  0  0  0  0  0  0  0  0
   -2.8583    2.3616    1.2810 H   0  0  0  0  0  0  0  0  0  0  0  0
   -0.3852    2.3349    1.6005 H   0  0  0  0  0  0  0  0  0  0  0  0
   -2.8763    0.9561   -0.2667 N   0  0  0  0  0  0  0  0  0  0  0  0
  1  2  2  0  0  0  0
  1 12  1  0  0  0  0
  2  3  1  0  0  0  0
  3  4  2  0  0  0  0
  4 11  1  0  0  0  0
  5  4  1  0  0  0  0
  5 10  1  0  0  0  0
  6  1  1  0  0  0  0
  7  2  1  0  0  0  0
  8  9  3  0  0  0  0
 12  5  2  0  0  0  0
M  RAD  1   3   2
M  END
