Coordinates from ORCA-job Pyridine-4-N2+-scan-d09-160-n800
 OpenBabel09191813523D

 12 11  0  0  0  0  0  0  0  0999 V2000
   -2.2603    0.1603   -1.0547 C   0  0  0  0  0  0  0  0  0  0  0  0
   -0.8051    0.0288   -0.9941 C   0  0  0  0  0  0  0  0  0  0  0  0
   -0.4023    0.8490   -0.0355 C   0  0  0  0  0  0  0  0  0  0  0  0
   -0.9037    1.7083    0.8385 C   0  0  0  0  0  0  0  0  0  0  0  0
   -2.3508    1.7024    0.6279 C   0  0  0  0  0  0  0  0  0  0  0  0
   -2.7585   -0.4559   -1.8025 H   0  0  0  0  0  0  0  0  0  0  0  0
   -0.2773   -0.6440   -1.6593 H   0  0  0  0  0  0  0  0  0  0  0  0
    3.0228    0.7000    0.2841 N   0  0  0  0  0  0  0  0  0  0  0  0
    4.1221    0.6521    0.3867 N   0  0  0  0  0  0  0  0  0  0  0  0
   -2.9240    2.3651    1.2756 H   0  0  0  0  0  0  0  0  0  0  0  0
   -0.4523    2.3387    1.5952 H   0  0  0  0  0  0  0  0  0  0  0  0
   -2.9411    0.9589   -0.2728 N   0  0  0  0  0  0  0  0  0  0  0  0
  1  2  2  0  0  0  0
  1 12  1  0  0  0  0
  2  3  1  0  0  0  0
  3  4  2  0  0  0  0
  4 11  1  0  0  0  0
  5  4  1  0  0  0  0
  5 10  1  0  0  0  0
  6  1  1  0  0  0  0
  7  2  1  0  0  0  0
  8  9  3  0  0  0  0
 12  5  2  0  0  0  0
M  RAD  1   3   2
M  END
