Coordinates from ORCA-job Pyridine-4-N2+-scan-d09-160-n800
 OpenBabel09191813533D

 12 11  0  0  0  0  0  0  0  0999 V2000
   -3.9918    0.2326   -1.2196 C   0  0  0  0  0  0  0  0  0  0  0  0
   -2.5342    0.1290   -1.1283 C   0  0  0  0  0  0  0  0  0  0  0  0
   -2.1663    0.9588   -0.1643 C   0  0  0  0  0  0  0  0  0  0  0  0
   -2.7018    1.8104    0.6965 C   0  0  0  0  0  0  0  0  0  0  0  0
   -4.1457    1.7770    0.4566 C   0  0  0  0  0  0  0  0  0  0  0  0
   -4.4614   -0.3955   -1.9761 H   0  0  0  0  0  0  0  0  0  0  0  0
   -1.9839   -0.5367   -1.7828 H   0  0  0  0  0  0  0  0  0  0  0  0
   11.8403    0.2680    1.0544 N   0  0  0  0  0  0  0  0  0  0  0  0
   12.9402    0.2165    1.1532 N   0  0  0  0  0  0  0  0  0  0  0  0
   -4.7431    2.4309    1.0914 H   0  0  0  0  0  0  0  0  0  0  0  0
   -2.2820    2.4527    1.4617 H   0  0  0  0  0  0  0  0  0  0  0  0
   -4.7009    1.0201   -0.4536 N   0  0  0  0  0  0  0  0  0  0  0  0
  1  2  2  0  0  0  0
  1 12  1  0  0  0  0
  2  3  1  0  0  0  0
  3  4  2  0  0  0  0
  4 11  1  0  0  0  0
  5  4  1  0  0  0  0
  5 10  1  0  0  0  0
  6  1  1  0  0  0  0
  7  2  1  0  0  0  0
  8  9  3  0  0  0  0
 12  5  2  0  0  0  0
M  RAD  1   3   2
M  END
