Coordinates from ORCA-job Pyridine-4-N2+-scan-d09-160-n800
 OpenBabel09191813523D

 12 11  0  0  0  0  0  0  0  0999 V2000
   -2.1426    0.1553   -1.0437 C   0  0  0  0  0  0  0  0  0  0  0  0
   -0.6927    0.0239   -0.9835 C   0  0  0  0  0  0  0  0  0  0  0  0
   -0.2818    0.8436   -0.0244 C   0  0  0  0  0  0  0  0  0  0  0  0
   -0.7911    1.7033    0.8489 C   0  0  0  0  0  0  0  0  0  0  0  0
   -2.2329    1.6973    0.6389 C   0  0  0  0  0  0  0  0  0  0  0  0
   -2.6449   -0.4591   -1.7900 H   0  0  0  0  0  0  0  0  0  0  0  0
   -0.1612   -0.6472   -1.6464 H   0  0  0  0  0  0  0  0  0  0  0  0
    2.4460    0.7252    0.2304 N   0  0  0  0  0  0  0  0  0  0  0  0
    3.5451    0.6774    0.3330 N   0  0  0  0  0  0  0  0  0  0  0  0
   -2.8099    2.3585    1.2844 H   0  0  0  0  0  0  0  0  0  0  0  0
   -0.3356    2.3316    1.6039 H   0  0  0  0  0  0  0  0  0  0  0  0
   -2.8289    0.9541   -0.2623 N   0  0  0  0  0  0  0  0  0  0  0  0
  1  2  2  0  0  0  0
  1 12  1  0  0  0  0
  2  3  1  0  0  0  0
  3  4  2  0  0  0  0
  4 11  1  0  0  0  0
  5  4  1  0  0  0  0
  5 10  1  0  0  0  0
  6  1  1  0  0  0  0
  7  2  1  0  0  0  0
  8  9  3  0  0  0  0
 12  5  2  0  0  0  0
M  RAD  1   3   2
M  END
