Coordinates from ORCA-job Pyridine-4-N2+-scan-d09-160-n800
 OpenBabel09191813523D

 12 12  0  0  0  0  0  0  0  0999 V2000
   -1.9779    0.1421   -1.0349 C   0  0  0  0  0  0  0  0  0  0  0  0
   -0.5695    0.0195   -0.9710 C   0  0  0  0  0  0  0  0  0  0  0  0
   -0.0554    0.8338   -0.0032 C   0  0  0  0  0  0  0  0  0  0  0  0
   -0.6677    1.6969    0.8594 C   0  0  0  0  0  0  0  0  0  0  0  0
   -2.0689    1.6962    0.6608 C   0  0  0  0  0  0  0  0  0  0  0  0
   -2.5189   -0.4539   -1.7665 H   0  0  0  0  0  0  0  0  0  0  0  0
   -0.0090   -0.6420   -1.6191 H   0  0  0  0  0  0  0  0  0  0  0  0
    1.6964    0.7577    0.1604 N   0  0  0  0  0  0  0  0  0  0  0  0
    2.7949    0.7100    0.2630 N   0  0  0  0  0  0  0  0  0  0  0  0
   -2.6825    2.3423    1.2845 H   0  0  0  0  0  0  0  0  0  0  0  0
   -0.1819    2.3129    1.6052 H   0  0  0  0  0  0  0  0  0  0  0  0
   -2.6902    0.9481   -0.2493 N   0  0  0  0  0  0  0  0  0  0  0  0
  1  2  2  0  0  0  0
  1 12  1  0  0  0  0
  2  3  1  0  0  0  0
  3  8  1  0  0  0  0
  3  4  2  0  0  0  0
  4 11  1  0  0  0  0
  5  4  1  0  0  0  0
  5 10  1  0  0  0  0
  6  1  1  0  0  0  0
  7  2  1  0  0  0  0
  8  9  1  0  0  0  0
 12  5  2  0  0  0  0
M  RAD  2   8   2   9   3
M  END
