Coordinates from ORCA-job Pyridine-4-N2+-scan-d09-160-n800
 OpenBabel09191813523D

 12 11  0  0  0  0  0  0  0  0999 V2000
   -3.2455    0.2017   -1.1481 C   0  0  0  0  0  0  0  0  0  0  0  0
   -1.7881    0.0836   -1.0730 C   0  0  0  0  0  0  0  0  0  0  0  0
   -1.4015    0.9083   -0.1120 C   0  0  0  0  0  0  0  0  0  0  0  0
   -1.9190    1.7639    0.7559 C   0  0  0  0  0  0  0  0  0  0  0  0
   -3.3657    1.7451    0.5318 C   0  0  0  0  0  0  0  0  0  0  0  0
   -3.7296   -0.4206   -1.9003 H   0  0  0  0  0  0  0  0  0  0  0  0
   -1.2516   -0.5866   -1.7343 H   0  0  0  0  0  0  0  0  0  0  0  0
    8.0214    0.4596    0.7259 N   0  0  0  0  0  0  0  0  0  0  0  0
    9.1212    0.4086    0.8253 N   0  0  0  0  0  0  0  0  0  0  0  0
   -3.9496    2.4040    1.1740 H   0  0  0  0  0  0  0  0  0  0  0  0
   -1.4843    2.4009    1.5172 H   0  0  0  0  0  0  0  0  0  0  0  0
   -3.9384    0.9951   -0.3733 N   0  0  0  0  0  0  0  0  0  0  0  0
  1  2  2  0  0  0  0
  1 12  1  0  0  0  0
  2  3  1  0  0  0  0
  3  4  2  0  0  0  0
  4 11  1  0  0  0  0
  5  4  1  0  0  0  0
  5 10  1  0  0  0  0
  6  1  1  0  0  0  0
  7  2  1  0  0  0  0
  8  9  3  0  0  0  0
 12  5  2  0  0  0  0
M  RAD  1   3   2
M  END
