Coordinates from ORCA-job Pyridine-4-N2+-scan-d09-160-n800
 OpenBabel09191813533D

 12 11  0  0  0  0  0  0  0  0999 V2000
   -3.8297    0.2259   -1.2040 C   0  0  0  0  0  0  0  0  0  0  0  0
   -2.3721    0.1191   -1.1164 C   0  0  0  0  0  0  0  0  0  0  0  0
   -2.0000    0.9477   -0.1531 C   0  0  0  0  0  0  0  0  0  0  0  0
   -2.5314    1.8002    0.7094 C   0  0  0  0  0  0  0  0  0  0  0  0
   -3.9761    1.7701    0.4730 C   0  0  0  0  0  0  0  0  0  0  0  0
   -4.3026   -0.4009   -1.9596 H   0  0  0  0  0  0  0  0  0  0  0  0
   -1.8250   -0.5477   -1.7724 H   0  0  0  0  0  0  0  0  0  0  0  0
   11.0101    0.3103    0.9838 N   0  0  0  0  0  0  0  0  0  0  0  0
   12.1100    0.2578    1.0814 N   0  0  0  0  0  0  0  0  0  0  0  0
   -4.5704    2.4251    1.1095 H   0  0  0  0  0  0  0  0  0  0  0  0
   -2.1083    2.4413    1.4737 H   0  0  0  0  0  0  0  0  0  0  0  0
   -4.5352    1.0147   -0.4361 N   0  0  0  0  0  0  0  0  0  0  0  0
  1  2  2  0  0  0  0
  1 12  1  0  0  0  0
  2  3  1  0  0  0  0
  3  4  2  0  0  0  0
  4 11  1  0  0  0  0
  5  4  1  0  0  0  0
  5 10  1  0  0  0  0
  6  1  1  0  0  0  0
  7  2  1  0  0  0  0
  8  9  3  0  0  0  0
 12  5  2  0  0  0  0
M  RAD  1   3   2
M  END
