Coordinates from ORCA-job Pyridine-4-N2+-scan-d09-160-n800
 OpenBabel09191813523D

 12 11  0  0  0  0  0  0  0  0999 V2000
   -2.6629    0.1775   -1.0925 C   0  0  0  0  0  0  0  0  0  0  0  0
   -1.2059    0.0492   -1.0285 C   0  0  0  0  0  0  0  0  0  0  0  0
   -0.8068    0.8703   -0.0696 C   0  0  0  0  0  0  0  0  0  0  0  0
   -1.3115    1.7286    0.8030 C   0  0  0  0  0  0  0  0  0  0  0  0
   -2.7599    1.7200    0.5897 C   0  0  0  0  0  0  0  0  0  0  0  0
   -3.1570   -0.4406   -1.8416 H   0  0  0  0  0  0  0  0  0  0  0  0
   -0.6786   -0.6239   -1.6942 H   0  0  0  0  0  0  0  0  0  0  0  0
    5.0489    0.6064    0.4675 N   0  0  0  0  0  0  0  0  0  0  0  0
    6.1486    0.5575    0.5691 N   0  0  0  0  0  0  0  0  0  0  0  0
   -3.3345    2.3822    1.2368 H   0  0  0  0  0  0  0  0  0  0  0  0
   -0.8663    2.3616    1.5616 H   0  0  0  0  0  0  0  0  0  0  0  0
   -3.3447    0.9749   -0.3119 N   0  0  0  0  0  0  0  0  0  0  0  0
  1  2  2  0  0  0  0
  1 12  1  0  0  0  0
  2  3  1  0  0  0  0
  3  4  2  0  0  0  0
  4 11  1  0  0  0  0
  5  4  1  0  0  0  0
  5 10  1  0  0  0  0
  6  1  1  0  0  0  0
  7  2  1  0  0  0  0
  8  9  3  0  0  0  0
 12  5  2  0  0  0  0
M  RAD  1   3   2
M  END
