Coordinates from ORCA-job Pyridine-4-N2+-scan-d09-160-n800
 OpenBabel09191813533D

 12 11  0  0  0  0  0  0  0  0999 V2000
   -3.8654    0.2274   -1.2074 C   0  0  0  0  0  0  0  0  0  0  0  0
   -2.4078    0.1213   -1.1190 C   0  0  0  0  0  0  0  0  0  0  0  0
   -2.0366    0.9501   -0.1556 C   0  0  0  0  0  0  0  0  0  0  0  0
   -2.5689    1.8025    0.7066 C   0  0  0  0  0  0  0  0  0  0  0  0
   -4.0134    1.7716    0.4694 C   0  0  0  0  0  0  0  0  0  0  0  0
   -4.3375   -0.3997   -1.9632 H   0  0  0  0  0  0  0  0  0  0  0  0
   -1.8599   -0.5453   -1.7747 H   0  0  0  0  0  0  0  0  0  0  0  0
   11.1928    0.3012    0.9995 N   0  0  0  0  0  0  0  0  0  0  0  0
   12.2926    0.2485    1.0970 N   0  0  0  0  0  0  0  0  0  0  0  0
   -4.6084    2.4264    1.1056 H   0  0  0  0  0  0  0  0  0  0  0  0
   -2.1465    2.4438    1.4711 H   0  0  0  0  0  0  0  0  0  0  0  0
   -4.5716    1.0159   -0.4399 N   0  0  0  0  0  0  0  0  0  0  0  0
  1  2  2  0  0  0  0
  1 12  1  0  0  0  0
  2  3  1  0  0  0  0
  3  4  2  0  0  0  0
  4 11  1  0  0  0  0
  5  4  1  0  0  0  0
  5 10  1  0  0  0  0
  6  1  1  0  0  0  0
  7  2  1  0  0  0  0
  8  9  3  0  0  0  0
 12  5  2  0  0  0  0
M  RAD  1   3   2
M  END
