Coordinates from ORCA-job Pyridine-4-N2+-scan-d09-160-n800
 OpenBabel09191813523D

 12 12  0  0  0  0  0  0  0  0999 V2000
   -1.9451    0.1373   -1.0356 C   0  0  0  0  0  0  0  0  0  0  0  0
   -0.5500    0.0214   -0.9661 C   0  0  0  0  0  0  0  0  0  0  0  0
    0.0277    0.8302    0.0046 C   0  0  0  0  0  0  0  0  0  0  0  0
   -0.6479    1.6932    0.8581 C   0  0  0  0  0  0  0  0  0  0  0  0
   -2.0364    1.6982    0.6676 C   0  0  0  0  0  0  0  0  0  0  0  0
   -2.4975   -0.4529   -1.7624 H   0  0  0  0  0  0  0  0  0  0  0  0
    0.0143   -0.6397   -1.6133 H   0  0  0  0  0  0  0  0  0  0  0  0
    1.5405    0.7645    0.1459 N   0  0  0  0  0  0  0  0  0  0  0  0
    2.6426    0.7167    0.2488 N   0  0  0  0  0  0  0  0  0  0  0  0
   -2.6610    2.3394    1.2844 H   0  0  0  0  0  0  0  0  0  0  0  0
   -0.1582    2.3086    1.6037 H   0  0  0  0  0  0  0  0  0  0  0  0
   -2.6597    0.9468   -0.2465 N   0  0  0  0  0  0  0  0  0  0  0  0
  1  2  2  0  0  0  0
  1 12  1  0  0  0  0
  2  3  1  0  0  0  0
  3  8  1  0  0  0  0
  3  4  2  0  0  0  0
  4 11  1  0  0  0  0
  5  4  1  0  0  0  0
  5 10  1  0  0  0  0
  6  1  1  0  0  0  0
  7  2  1  0  0  0  0
  8  9  1  0  0  0  0
 12  5  2  0  0  0  0
M  RAD  2   8   2   9   3
M  END
