Coordinates from ORCA-job Pyridine-4-N2+-scan-d09-160-n800
 OpenBabel09191813533D

 12 11  0  0  0  0  0  0  0  0999 V2000
   -4.0404    0.2346   -1.2242 C   0  0  0  0  0  0  0  0  0  0  0  0
   -2.5828    0.1320   -1.1318 C   0  0  0  0  0  0  0  0  0  0  0  0
   -2.2162    0.9621   -0.1677 C   0  0  0  0  0  0  0  0  0  0  0  0
   -2.7529    1.8135    0.6927 C   0  0  0  0  0  0  0  0  0  0  0  0
   -4.1966    1.7791    0.4517 C   0  0  0  0  0  0  0  0  0  0  0  0
   -4.5090   -0.3939   -1.9811 H   0  0  0  0  0  0  0  0  0  0  0  0
   -2.0316   -0.5334   -1.7858 H   0  0  0  0  0  0  0  0  0  0  0  0
   12.0894    0.2550    1.0754 N   0  0  0  0  0  0  0  0  0  0  0  0
   13.1892    0.2043    1.1749 N   0  0  0  0  0  0  0  0  0  0  0  0
   -4.7949    2.4326    1.0860 H   0  0  0  0  0  0  0  0  0  0  0  0
   -2.3341    2.4561    1.4582 H   0  0  0  0  0  0  0  0  0  0  0  0
   -4.7506    1.0217   -0.4589 N   0  0  0  0  0  0  0  0  0  0  0  0
  1  2  2  0  0  0  0
  1 12  1  0  0  0  0
  2  3  1  0  0  0  0
  3  4  2  0  0  0  0
  4 11  1  0  0  0  0
  5  4  1  0  0  0  0
  5 10  1  0  0  0  0
  6  1  1  0  0  0  0
  7  2  1  0  0  0  0
  8  9  3  0  0  0  0
 12  5  2  0  0  0  0
M  RAD  1   3   2
M  END
