Coordinates from ORCA-job Pyridine-4-N2+-scan-d09-160-n800
 OpenBabel09191813523D

 12 11  0  0  0  0  0  0  0  0999 V2000
   -3.1708    0.1986   -1.1409 C   0  0  0  0  0  0  0  0  0  0  0  0
   -1.7134    0.0791   -1.0674 C   0  0  0  0  0  0  0  0  0  0  0  0
   -1.3250    0.9033   -0.1067 C   0  0  0  0  0  0  0  0  0  0  0  0
   -1.8408    1.7593    0.7619 C   0  0  0  0  0  0  0  0  0  0  0  0
   -3.2878    1.7419    0.5393 C   0  0  0  0  0  0  0  0  0  0  0  0
   -3.6562   -0.4231   -1.8927 H   0  0  0  0  0  0  0  0  0  0  0  0
   -1.1782   -0.5915   -1.7294 H   0  0  0  0  0  0  0  0  0  0  0  0
    7.6395    0.4787    0.6929 N   0  0  0  0  0  0  0  0  0  0  0  0
    8.7393    0.4279    0.7925 N   0  0  0  0  0  0  0  0  0  0  0  0
   -3.8703    2.4012    1.1822 H   0  0  0  0  0  0  0  0  0  0  0  0
   -1.4047    2.3957    1.5228 H   0  0  0  0  0  0  0  0  0  0  0  0
   -3.8621    0.9925   -0.3653 N   0  0  0  0  0  0  0  0  0  0  0  0
  1  2  2  0  0  0  0
  1 12  1  0  0  0  0
  2  3  1  0  0  0  0
  3  4  2  0  0  0  0
  4 11  1  0  0  0  0
  5  4  1  0  0  0  0
  5 10  1  0  0  0  0
  6  1  1  0  0  0  0
  7  2  1  0  0  0  0
  8  9  3  0  0  0  0
 12  5  2  0  0  0  0
M  RAD  1   3   2
M  END
