Coordinates from ORCA-job Pyridine-4-N2+-scan-d09-160-n800
 OpenBabel09191813523D

 12 11  0  0  0  0  0  0  0  0999 V2000
   -3.0180    0.1923   -1.1263 C   0  0  0  0  0  0  0  0  0  0  0  0
   -1.5608    0.0699   -1.0559 C   0  0  0  0  0  0  0  0  0  0  0  0
   -1.1688    0.8931   -0.0958 C   0  0  0  0  0  0  0  0  0  0  0  0
   -1.6810    1.7499    0.7741 C   0  0  0  0  0  0  0  0  0  0  0  0
   -3.1285    1.7354    0.5546 C   0  0  0  0  0  0  0  0  0  0  0  0
   -3.5063   -0.4283   -1.8772 H   0  0  0  0  0  0  0  0  0  0  0  0
   -1.0282   -0.6015   -1.7191 H   0  0  0  0  0  0  0  0  0  0  0  0
    6.8591    0.5175    0.6253 N   0  0  0  0  0  0  0  0  0  0  0  0
    7.9588    0.4672    0.7255 N   0  0  0  0  0  0  0  0  0  0  0  0
   -3.7085    2.3956    1.1989 H   0  0  0  0  0  0  0  0  0  0  0  0
   -1.2421    2.3852    1.5343 H   0  0  0  0  0  0  0  0  0  0  0  0
   -3.7062    0.9873   -0.3490 N   0  0  0  0  0  0  0  0  0  0  0  0
  1  2  2  0  0  0  0
  1 12  1  0  0  0  0
  2  3  1  0  0  0  0
  3  4  2  0  0  0  0
  4 11  1  0  0  0  0
  5  4  1  0  0  0  0
  5 10  1  0  0  0  0
  6  1  1  0  0  0  0
  7  2  1  0  0  0  0
  8  9  3  0  0  0  0
 12  5  2  0  0  0  0
M  RAD  1   3   2
M  END
