Coordinates from ORCA-job Pyridine-4-N2+-scan-d09-160-n800
 OpenBabel09191813533D

 12 11  0  0  0  0  0  0  0  0999 V2000
   -3.4306    0.2094   -1.1658 C   0  0  0  0  0  0  0  0  0  0  0  0
   -1.9731    0.0948   -1.0868 C   0  0  0  0  0  0  0  0  0  0  0  0
   -1.5910    0.9207   -0.1251 C   0  0  0  0  0  0  0  0  0  0  0  0
   -2.1128    1.7754    0.7411 C   0  0  0  0  0  0  0  0  0  0  0  0
   -3.5589    1.7531    0.5133 C   0  0  0  0  0  0  0  0  0  0  0  0
   -3.9112   -0.4143   -1.9190 H   0  0  0  0  0  0  0  0  0  0  0  0
   -1.4333   -0.5743   -1.7465 H   0  0  0  0  0  0  0  0  0  0  0  0
    8.9679    0.4125    0.8077 N   0  0  0  0  0  0  0  0  0  0  0  0
   10.0677    0.3609    0.9065 N   0  0  0  0  0  0  0  0  0  0  0  0
   -4.1460    2.4107    1.1537 H   0  0  0  0  0  0  0  0  0  0  0  0
   -1.6817    2.4136    1.5034 H   0  0  0  0  0  0  0  0  0  0  0  0
   -4.1274    1.0013   -0.3931 N   0  0  0  0  0  0  0  0  0  0  0  0
  1  2  2  0  0  0  0
  1 12  1  0  0  0  0
  2  3  1  0  0  0  0
  3  4  2  0  0  0  0
  4 11  1  0  0  0  0
  5  4  1  0  0  0  0
  5 10  1  0  0  0  0
  6  1  1  0  0  0  0
  7  2  1  0  0  0  0
  8  9  3  0  0  0  0
 12  5  2  0  0  0  0
M  RAD  1   3   2
M  END
