Coordinates from ORCA-job Pyridine-4-N2+-scan-d09-160-n800
 OpenBabel09191813523D

 12 11  0  0  0  0  0  0  0  0999 V2000
   -2.9888    0.1911   -1.1235 C   0  0  0  0  0  0  0  0  0  0  0  0
   -1.5315    0.0682   -1.0537 C   0  0  0  0  0  0  0  0  0  0  0  0
   -1.1389    0.8912   -0.0937 C   0  0  0  0  0  0  0  0  0  0  0  0
   -1.6505    1.7481    0.7764 C   0  0  0  0  0  0  0  0  0  0  0  0
   -3.0980    1.7341    0.5575 C   0  0  0  0  0  0  0  0  0  0  0  0
   -3.4775   -0.4293   -1.8743 H   0  0  0  0  0  0  0  0  0  0  0  0
   -0.9995   -0.6034   -1.7172 H   0  0  0  0  0  0  0  0  0  0  0  0
    6.7096    0.5249    0.6124 N   0  0  0  0  0  0  0  0  0  0  0  0
    7.8093    0.4747    0.7127 N   0  0  0  0  0  0  0  0  0  0  0  0
   -3.6775    2.3945    1.2020 H   0  0  0  0  0  0  0  0  0  0  0  0
   -1.2110    2.3832    1.5365 H   0  0  0  0  0  0  0  0  0  0  0  0
   -3.6764    0.9863   -0.3459 N   0  0  0  0  0  0  0  0  0  0  0  0
  1  2  2  0  0  0  0
  1 12  1  0  0  0  0
  2  3  1  0  0  0  0
  3  4  2  0  0  0  0
  4 11  1  0  0  0  0
  5  4  1  0  0  0  0
  5 10  1  0  0  0  0
  6  1  1  0  0  0  0
  7  2  1  0  0  0  0
  8  9  3  0  0  0  0
 12  5  2  0  0  0  0
M  RAD  1   3   2
M  END
