Coordinates from ORCA-job Pyridine-4-N2+-scan-d09-160-n800
 OpenBabel09191813523D

 12 11  0  0  0  0  0  0  0  0999 V2000
   -3.0343    0.1930   -1.1279 C   0  0  0  0  0  0  0  0  0  0  0  0
   -1.5770    0.0709   -1.0571 C   0  0  0  0  0  0  0  0  0  0  0  0
   -1.1854    0.8942   -0.0969 C   0  0  0  0  0  0  0  0  0  0  0  0
   -1.6980    1.7509    0.7728 C   0  0  0  0  0  0  0  0  0  0  0  0
   -3.1455    1.7361    0.5529 C   0  0  0  0  0  0  0  0  0  0  0  0
   -3.5222   -0.4277   -1.8789 H   0  0  0  0  0  0  0  0  0  0  0  0
   -1.0442   -0.6004   -1.7202 H   0  0  0  0  0  0  0  0  0  0  0  0
    6.9421    0.5133    0.6325 N   0  0  0  0  0  0  0  0  0  0  0  0
    8.0418    0.4630    0.7327 N   0  0  0  0  0  0  0  0  0  0  0  0
   -3.7257    2.3962    1.1971 H   0  0  0  0  0  0  0  0  0  0  0  0
   -1.2594    2.3864    1.5331 H   0  0  0  0  0  0  0  0  0  0  0  0
   -3.7228    0.9879   -0.3508 N   0  0  0  0  0  0  0  0  0  0  0  0
  1  2  2  0  0  0  0
  1 12  1  0  0  0  0
  2  3  1  0  0  0  0
  3  4  2  0  0  0  0
  4 11  1  0  0  0  0
  5  4  1  0  0  0  0
  5 10  1  0  0  0  0
  6  1  1  0  0  0  0
  7  2  1  0  0  0  0
  8  9  3  0  0  0  0
 12  5  2  0  0  0  0
M  RAD  1   3   2
M  END
