Coordinates from ORCA-job Pyridine-4-N2+-scan-d09-160-n800
 OpenBabel09191813523D

 12 11  0  0  0  0  0  0  0  0999 V2000
   -2.4361    0.1679   -1.0711 C   0  0  0  0  0  0  0  0  0  0  0  0
   -0.9796    0.0371   -1.0097 C   0  0  0  0  0  0  0  0  0  0  0  0
   -0.5780    0.8575   -0.0511 C   0  0  0  0  0  0  0  0  0  0  0  0
   -1.0797    1.7166    0.8227 C   0  0  0  0  0  0  0  0  0  0  0  0
   -2.5281    1.7101    0.6114 C   0  0  0  0  0  0  0  0  0  0  0  0
   -2.9326   -0.4491   -1.8195 H   0  0  0  0  0  0  0  0  0  0  0  0
   -0.4535   -0.6363   -1.6759 H   0  0  0  0  0  0  0  0  0  0  0  0
    3.9029    0.6604    0.3649 N   0  0  0  0  0  0  0  0  0  0  0  0
    5.0025    0.6121    0.4672 N   0  0  0  0  0  0  0  0  0  0  0  0
   -3.1009    2.3729    1.2594 H   0  0  0  0  0  0  0  0  0  0  0  0
   -0.6315    2.3483    1.5804 H   0  0  0  0  0  0  0  0  0  0  0  0
   -3.1160    0.9661   -0.2894 N   0  0  0  0  0  0  0  0  0  0  0  0
  1  2  2  0  0  0  0
  1 12  1  0  0  0  0
  2  3  1  0  0  0  0
  3  4  2  0  0  0  0
  4 11  1  0  0  0  0
  5  4  1  0  0  0  0
  5 10  1  0  0  0  0
  6  1  1  0  0  0  0
  7  2  1  0  0  0  0
  8  9  3  0  0  0  0
 12  5  2  0  0  0  0
M  RAD  1   3   2
M  END
