Coordinates from ORCA-job Pyridine-4-N2+-scan-d09-160-n800
 OpenBabel09191813523D

 12 11  0  0  0  0  0  0  0  0999 V2000
   -2.2100    0.1582   -1.0500 C   0  0  0  0  0  0  0  0  0  0  0  0
   -0.7562    0.0266   -0.9896 C   0  0  0  0  0  0  0  0  0  0  0  0
   -0.3519    0.8467   -0.0309 C   0  0  0  0  0  0  0  0  0  0  0  0
   -0.8546    1.7062    0.8431 C   0  0  0  0  0  0  0  0  0  0  0  0
   -2.3004    1.7002    0.6326 C   0  0  0  0  0  0  0  0  0  0  0  0
   -2.7094   -0.4576   -1.7974 H   0  0  0  0  0  0  0  0  0  0  0  0
   -0.2272   -0.6457   -1.6540 H   0  0  0  0  0  0  0  0  0  0  0  0
    2.7744    0.7109    0.2611 N   0  0  0  0  0  0  0  0  0  0  0  0
    3.8736    0.6630    0.3636 N   0  0  0  0  0  0  0  0  0  0  0  0
   -2.8746    2.3625    1.2797 H   0  0  0  0  0  0  0  0  0  0  0  0
   -0.4019    2.3359    1.5993 H   0  0  0  0  0  0  0  0  0  0  0  0
   -2.8923    0.9568   -0.2682 N   0  0  0  0  0  0  0  0  0  0  0  0
  1  2  2  0  0  0  0
  1 12  1  0  0  0  0
  2  3  1  0  0  0  0
  3  4  2  0  0  0  0
  4 11  1  0  0  0  0
  5  4  1  0  0  0  0
  5 10  1  0  0  0  0
  6  1  1  0  0  0  0
  7  2  1  0  0  0  0
  8  9  3  0  0  0  0
 12  5  2  0  0  0  0
M  RAD  1   3   2
M  END
