Coordinates from ORCA-job Pyridine-4-N2+-scan-d09-160-n800
 OpenBabel09191813523D

 12 11  0  0  0  0  0  0  0  0999 V2000
   -2.3568    0.1645   -1.0637 C   0  0  0  0  0  0  0  0  0  0  0  0
   -0.9005    0.0333   -1.0027 C   0  0  0  0  0  0  0  0  0  0  0  0
   -0.4985    0.8535   -0.0442 C   0  0  0  0  0  0  0  0  0  0  0  0
   -0.9997    1.7127    0.8298 C   0  0  0  0  0  0  0  0  0  0  0  0
   -2.4478    1.7066    0.6189 C   0  0  0  0  0  0  0  0  0  0  0  0
   -2.8539   -0.4523   -1.8119 H   0  0  0  0  0  0  0  0  0  0  0  0
   -0.3741   -0.6400   -1.6687 H   0  0  0  0  0  0  0  0  0  0  0  0
    3.5043    0.6785    0.3286 N   0  0  0  0  0  0  0  0  0  0  0  0
    4.6037    0.6304    0.4310 N   0  0  0  0  0  0  0  0  0  0  0  0
   -3.0205    2.3695    1.2669 H   0  0  0  0  0  0  0  0  0  0  0  0
   -0.5503    2.3440    1.5871 H   0  0  0  0  0  0  0  0  0  0  0  0
   -3.0366    0.9629   -0.2818 N   0  0  0  0  0  0  0  0  0  0  0  0
  1  2  2  0  0  0  0
  1 12  1  0  0  0  0
  2  3  1  0  0  0  0
  3  4  2  0  0  0  0
  4 11  1  0  0  0  0
  5  4  1  0  0  0  0
  5 10  1  0  0  0  0
  6  1  1  0  0  0  0
  7  2  1  0  0  0  0
  8  9  3  0  0  0  0
 12  5  2  0  0  0  0
M  RAD  1   3   2
M  END
