Coordinates from ORCA-job Pyridine-4-N2+-scan-d09-160-n800
 OpenBabel09191813533D

 12 11  0  0  0  0  0  0  0  0999 V2000
   -3.5280    0.2134   -1.1751 C   0  0  0  0  0  0  0  0  0  0  0  0
   -2.0705    0.1007   -1.0941 C   0  0  0  0  0  0  0  0  0  0  0  0
   -1.6907    0.9273   -0.1320 C   0  0  0  0  0  0  0  0  0  0  0  0
   -2.2149    1.7814    0.7333 C   0  0  0  0  0  0  0  0  0  0  0  0
   -3.6606    1.7572    0.5035 C   0  0  0  0  0  0  0  0  0  0  0  0
   -4.0068   -0.4110   -1.9289 H   0  0  0  0  0  0  0  0  0  0  0  0
   -1.5289   -0.5679   -1.7529 H   0  0  0  0  0  0  0  0  0  0  0  0
    9.4660    0.3876    0.8507 N   0  0  0  0  0  0  0  0  0  0  0  0
   10.5658    0.3358    0.9492 N   0  0  0  0  0  0  0  0  0  0  0  0
   -4.2495    2.4143    1.1430 H   0  0  0  0  0  0  0  0  0  0  0  0
   -1.7857    2.4204    1.4961 H   0  0  0  0  0  0  0  0  0  0  0  0
   -4.2269    1.0046   -0.4035 N   0  0  0  0  0  0  0  0  0  0  0  0
  1  2  2  0  0  0  0
  1 12  1  0  0  0  0
  2  3  1  0  0  0  0
  3  4  2  0  0  0  0
  4 11  1  0  0  0  0
  5  4  1  0  0  0  0
  5 10  1  0  0  0  0
  6  1  1  0  0  0  0
  7  2  1  0  0  0  0
  8  9  3  0  0  0  0
 12  5  2  0  0  0  0
M  RAD  1   3   2
M  END
