Coordinates from ORCA-job Pyridine-4-N2+-scan-d09-160-n800
 OpenBabel09191813523D

 12 11  0  0  0  0  0  0  0  0999 V2000
   -2.8716    0.1862   -1.1123 C   0  0  0  0  0  0  0  0  0  0  0  0
   -1.4145    0.0612   -1.0448 C   0  0  0  0  0  0  0  0  0  0  0  0
   -1.0193    0.8835   -0.0852 C   0  0  0  0  0  0  0  0  0  0  0  0
   -1.5283    1.7410    0.7859 C   0  0  0  0  0  0  0  0  0  0  0  0
   -2.9761    1.7291    0.5691 C   0  0  0  0  0  0  0  0  0  0  0  0
   -3.3625   -0.4333   -1.8625 H   0  0  0  0  0  0  0  0  0  0  0  0
   -0.8843   -0.6109   -1.7091 H   0  0  0  0  0  0  0  0  0  0  0  0
    6.1118    0.5544    0.5605 N   0  0  0  0  0  0  0  0  0  0  0  0
    7.2115    0.5047    0.6612 N   0  0  0  0  0  0  0  0  0  0  0  0
   -3.5537    2.3902    1.2147 H   0  0  0  0  0  0  0  0  0  0  0  0
   -1.0866    2.3753    1.5454 H   0  0  0  0  0  0  0  0  0  0  0  0
   -3.5570    0.9823   -0.3336 N   0  0  0  0  0  0  0  0  0  0  0  0
  1  2  2  0  0  0  0
  1 12  1  0  0  0  0
  2  3  1  0  0  0  0
  3  4  2  0  0  0  0
  4 11  1  0  0  0  0
  5  4  1  0  0  0  0
  5 10  1  0  0  0  0
  6  1  1  0  0  0  0
  7  2  1  0  0  0  0
  8  9  3  0  0  0  0
 12  5  2  0  0  0  0
M  RAD  1   3   2
M  END
