Coordinates from ORCA-job Pyridine-4-N2+-scan-d09-160-n800
 OpenBabel09191813533D

 12 11  0  0  0  0  0  0  0  0999 V2000
   -3.8232    0.2256   -1.2034 C   0  0  0  0  0  0  0  0  0  0  0  0
   -2.3656    0.1187   -1.1159 C   0  0  0  0  0  0  0  0  0  0  0  0
   -1.9933    0.9473   -0.1526 C   0  0  0  0  0  0  0  0  0  0  0  0
   -2.5246    1.7998    0.7099 C   0  0  0  0  0  0  0  0  0  0  0  0
   -3.9693    1.7698    0.4737 C   0  0  0  0  0  0  0  0  0  0  0  0
   -4.2962   -0.4011   -1.9589 H   0  0  0  0  0  0  0  0  0  0  0  0
   -1.8186   -0.5481   -1.7720 H   0  0  0  0  0  0  0  0  0  0  0  0
   10.9769    0.3120    0.9809 N   0  0  0  0  0  0  0  0  0  0  0  0
   12.0768    0.2594    1.0786 N   0  0  0  0  0  0  0  0  0  0  0  0
   -4.5635    2.4249    1.1103 H   0  0  0  0  0  0  0  0  0  0  0  0
   -2.1014    2.4409    1.4742 H   0  0  0  0  0  0  0  0  0  0  0  0
   -4.5286    1.0145   -0.4354 N   0  0  0  0  0  0  0  0  0  0  0  0
  1  2  2  0  0  0  0
  1 12  1  0  0  0  0
  2  3  1  0  0  0  0
  3  4  2  0  0  0  0
  4 11  1  0  0  0  0
  5  4  1  0  0  0  0
  5 10  1  0  0  0  0
  6  1  1  0  0  0  0
  7  2  1  0  0  0  0
  8  9  3  0  0  0  0
 12  5  2  0  0  0  0
M  RAD  1   3   2
M  END
