Coordinates from ORCA-job Pyridine-4-N2+-scan-d09-160-n800
 OpenBabel09191813533D

 12 11  0  0  0  0  0  0  0  0999 V2000
   -3.4371    0.2096   -1.1664 C   0  0  0  0  0  0  0  0  0  0  0  0
   -1.9796    0.0952   -1.0873 C   0  0  0  0  0  0  0  0  0  0  0  0
   -1.5976    0.9211   -0.1256 C   0  0  0  0  0  0  0  0  0  0  0  0
   -2.1196    1.7758    0.7406 C   0  0  0  0  0  0  0  0  0  0  0  0
   -3.5657    1.7533    0.5126 C   0  0  0  0  0  0  0  0  0  0  0  0
   -3.9176   -0.4141   -1.9197 H   0  0  0  0  0  0  0  0  0  0  0  0
   -1.4397   -0.5739   -1.7470 H   0  0  0  0  0  0  0  0  0  0  0  0
    9.0011    0.4108    0.8106 N   0  0  0  0  0  0  0  0  0  0  0  0
   10.1009    0.3592    0.9093 N   0  0  0  0  0  0  0  0  0  0  0  0
   -4.1529    2.4110    1.1530 H   0  0  0  0  0  0  0  0  0  0  0  0
   -1.6887    2.4141    1.5029 H   0  0  0  0  0  0  0  0  0  0  0  0
   -4.1340    1.0016   -0.3938 N   0  0  0  0  0  0  0  0  0  0  0  0
  1  2  2  0  0  0  0
  1 12  1  0  0  0  0
  2  3  1  0  0  0  0
  3  4  2  0  0  0  0
  4 11  1  0  0  0  0
  5  4  1  0  0  0  0
  5 10  1  0  0  0  0
  6  1  1  0  0  0  0
  7  2  1  0  0  0  0
  8  9  3  0  0  0  0
 12  5  2  0  0  0  0
M  RAD  1   3   2
M  END
