Coordinates from ORCA-job Pyridine-4-N2+-scan-d09-160-n800
 OpenBabel09191813523D

 12 12  0  0  0  0  0  0  0  0999 V2000
   -1.9999    0.1454   -1.0344 C   0  0  0  0  0  0  0  0  0  0  0  0
   -0.5822    0.0195   -0.9727 C   0  0  0  0  0  0  0  0  0  0  0  0
   -0.0980    0.8356   -0.0072 C   0  0  0  0  0  0  0  0  0  0  0  0
   -0.6804    1.6980    0.8587 C   0  0  0  0  0  0  0  0  0  0  0  0
   -2.0906    1.6948    0.6562 C   0  0  0  0  0  0  0  0  0  0  0  0
   -2.5312   -0.4553   -1.7698 H   0  0  0  0  0  0  0  0  0  0  0  0
   -0.0278   -0.6437   -1.6236 H   0  0  0  0  0  0  0  0  0  0  0  0
    1.7932    0.7535    0.1695 N   0  0  0  0  0  0  0  0  0  0  0  0
    2.8915    0.7058    0.2720 N   0  0  0  0  0  0  0  0  0  0  0  0
   -2.6951    2.3448    1.2856 H   0  0  0  0  0  0  0  0  0  0  0  0
   -0.2011    2.3163    1.6062 H   0  0  0  0  0  0  0  0  0  0  0  0
   -2.7090    0.9489   -0.2511 N   0  0  0  0  0  0  0  0  0  0  0  0
  1  2  2  0  0  0  0
  1 12  1  0  0  0  0
  2  3  1  0  0  0  0
  3  8  1  0  0  0  0
  3  4  2  0  0  0  0
  4 11  1  0  0  0  0
  5  4  1  0  0  0  0
  5 10  1  0  0  0  0
  6  1  1  0  0  0  0
  7  2  1  0  0  0  0
  8  9  1  0  0  0  0
 12  5  2  0  0  0  0
M  RAD  2   8   2   9   3
M  END
