Coordinates from ORCA-job Pyridine-4-N2+-scan-d09-160-n800
 OpenBabel09191813523D

 12 11  0  0  0  0  0  0  0  0999 V2000
   -2.5284    0.1719   -1.0798 C   0  0  0  0  0  0  0  0  0  0  0  0
   -1.0716    0.0418   -1.0176 C   0  0  0  0  0  0  0  0  0  0  0  0
   -0.6709    0.8624   -0.0589 C   0  0  0  0  0  0  0  0  0  0  0  0
   -1.1735    1.7213    0.8146 C   0  0  0  0  0  0  0  0  0  0  0  0
   -2.6219    1.7141    0.6026 C   0  0  0  0  0  0  0  0  0  0  0  0
   -3.0241   -0.4456   -1.8284 H   0  0  0  0  0  0  0  0  0  0  0  0
   -0.5453   -0.6316   -1.6837 H   0  0  0  0  0  0  0  0  0  0  0  0
    4.3679    0.6389    0.4069 N   0  0  0  0  0  0  0  0  0  0  0  0
    5.4675    0.5903    0.5090 N   0  0  0  0  0  0  0  0  0  0  0  0
   -3.1952    2.3768    1.2504 H   0  0  0  0  0  0  0  0  0  0  0  0
   -0.7264    2.3535    1.5726 H   0  0  0  0  0  0  0  0  0  0  0  0
   -3.2088    0.9698   -0.2984 N   0  0  0  0  0  0  0  0  0  0  0  0
  1  2  2  0  0  0  0
  1 12  1  0  0  0  0
  2  3  1  0  0  0  0
  3  4  2  0  0  0  0
  4 11  1  0  0  0  0
  5  4  1  0  0  0  0
  5 10  1  0  0  0  0
  6  1  1  0  0  0  0
  7  2  1  0  0  0  0
  8  9  3  0  0  0  0
 12  5  2  0  0  0  0
M  RAD  1   3   2
M  END
