Coordinates from ORCA-job Pyridine-4-N2+-scan-d09-160-n800
 OpenBabel09191813523D

 12 12  0  0  0  0  0  0  0  0999 V2000
   -1.8900    0.1342   -1.0313 C   0  0  0  0  0  0  0  0  0  0  0  0
   -0.5117    0.0222   -0.9598 C   0  0  0  0  0  0  0  0  0  0  0  0
    0.2045    0.8225    0.0210 C   0  0  0  0  0  0  0  0  0  0  0  0
   -0.6092    1.6891    0.8590 C   0  0  0  0  0  0  0  0  0  0  0  0
   -1.9814    1.6966    0.6735 C   0  0  0  0  0  0  0  0  0  0  0  0
   -2.4424   -0.4563   -1.7584 H   0  0  0  0  0  0  0  0  0  0  0  0
    0.0589   -0.6386   -1.6057 H   0  0  0  0  0  0  0  0  0  0  0  0
    1.2192    0.7784    0.1159 N   0  0  0  0  0  0  0  0  0  0  0  0
    2.3523    0.7293    0.2216 N   0  0  0  0  0  0  0  0  0  0  0  0
   -2.6060    2.3381    1.2907 H   0  0  0  0  0  0  0  0  0  0  0  0
   -0.1133    2.3036    1.6047 H   0  0  0  0  0  0  0  0  0  0  0  0
   -2.6114    0.9447   -0.2420 N   0  0  0  0  0  0  0  0  0  0  0  0
  1  2  2  0  0  0  0
  1 12  1  0  0  0  0
  2  3  1  0  0  0  0
  3  8  1  0  0  0  0
  3  4  2  0  0  0  0
  4 11  1  0  0  0  0
  5  4  1  0  0  0  0
  5 10  1  0  0  0  0
  6  1  1  0  0  0  0
  7  2  1  0  0  0  0
  8  9  1  0  0  0  0
 12  5  2  0  0  0  0
M  RAD  2   8   2   9   3
M  END
