Coordinates from ORCA-job Pyridine-4-N2+-scan-d09-160-n800
 OpenBabel09191813523D

 12 11  0  0  0  0  0  0  0  0999 V2000
   -2.3269    0.1632   -1.0609 C   0  0  0  0  0  0  0  0  0  0  0  0
   -0.8709    0.0319   -1.0000 C   0  0  0  0  0  0  0  0  0  0  0  0
   -0.4687    0.8521   -0.0415 C   0  0  0  0  0  0  0  0  0  0  0  0
   -0.9698    1.7113    0.8325 C   0  0  0  0  0  0  0  0  0  0  0  0
   -2.4177    1.7053    0.6217 C   0  0  0  0  0  0  0  0  0  0  0  0
   -2.8243   -0.4534   -1.8090 H   0  0  0  0  0  0  0  0  0  0  0  0
   -0.3441   -0.6413   -1.6658 H   0  0  0  0  0  0  0  0  0  0  0  0
    3.3548    0.6852    0.3148 N   0  0  0  0  0  0  0  0  0  0  0  0
    4.4542    0.6372    0.4173 N   0  0  0  0  0  0  0  0  0  0  0  0
   -2.9905    2.3682    1.2697 H   0  0  0  0  0  0  0  0  0  0  0  0
   -0.5199    2.3423    1.5896 H   0  0  0  0  0  0  0  0  0  0  0  0
   -3.0069    0.9617   -0.2790 N   0  0  0  0  0  0  0  0  0  0  0  0
  1  2  2  0  0  0  0
  1 12  1  0  0  0  0
  2  3  1  0  0  0  0
  3  4  2  0  0  0  0
  4 11  1  0  0  0  0
  5  4  1  0  0  0  0
  5 10  1  0  0  0  0
  6  1  1  0  0  0  0
  7  2  1  0  0  0  0
  8  9  3  0  0  0  0
 12  5  2  0  0  0  0
M  RAD  1   3   2
M  END
