Coordinates from ORCA-job Pyridine-4-N2+-scan-d09-160-n800
 OpenBabel09191813523D

 12 11  0  0  0  0  0  0  0  0999 V2000
   -2.3832    0.1656   -1.0662 C   0  0  0  0  0  0  0  0  0  0  0  0
   -0.9269    0.0345   -1.0050 C   0  0  0  0  0  0  0  0  0  0  0  0
   -0.5250    0.8548   -0.0465 C   0  0  0  0  0  0  0  0  0  0  0  0
   -1.0263    1.7140    0.8274 C   0  0  0  0  0  0  0  0  0  0  0  0
   -2.4746    1.7078    0.6164 C   0  0  0  0  0  0  0  0  0  0  0  0
   -2.8801   -0.4512   -1.8144 H   0  0  0  0  0  0  0  0  0  0  0  0
   -0.4006   -0.6388   -1.6711 H   0  0  0  0  0  0  0  0  0  0  0  0
    3.6372    0.6725    0.3407 N   0  0  0  0  0  0  0  0  0  0  0  0
    4.7366    0.6244    0.4431 N   0  0  0  0  0  0  0  0  0  0  0  0
   -3.0472    2.3707    1.2644 H   0  0  0  0  0  0  0  0  0  0  0  0
   -0.5773    2.3454    1.5849 H   0  0  0  0  0  0  0  0  0  0  0  0
   -3.0630    0.9640   -0.2843 N   0  0  0  0  0  0  0  0  0  0  0  0
  1  2  2  0  0  0  0
  1 12  1  0  0  0  0
  2  3  1  0  0  0  0
  3  4  2  0  0  0  0
  4 11  1  0  0  0  0
  5  4  1  0  0  0  0
  5 10  1  0  0  0  0
  6  1  1  0  0  0  0
  7  2  1  0  0  0  0
  8  9  3  0  0  0  0
 12  5  2  0  0  0  0
M  RAD  1   3   2
M  END
