Coordinates from ORCA-job Pyridine-4-N2+-scan-d09-160-n800
 OpenBabel09191813523D

 12 11  0  0  0  0  0  0  0  0999 V2000
   -2.6367    0.1764   -1.0900 C   0  0  0  0  0  0  0  0  0  0  0  0
   -1.1798    0.0477   -1.0264 C   0  0  0  0  0  0  0  0  0  0  0  0
   -0.7802    0.8687   -0.0676 C   0  0  0  0  0  0  0  0  0  0  0  0
   -1.2845    1.7271    0.8052 C   0  0  0  0  0  0  0  0  0  0  0  0
   -2.7329    1.7189    0.5922 C   0  0  0  0  0  0  0  0  0  0  0  0
   -3.1312   -0.4415   -1.8390 H   0  0  0  0  0  0  0  0  0  0  0  0
   -0.6527   -0.6254   -1.6922 H   0  0  0  0  0  0  0  0  0  0  0  0
    4.9161    0.6129    0.4558 N   0  0  0  0  0  0  0  0  0  0  0  0
    6.0157    0.5640    0.5575 N   0  0  0  0  0  0  0  0  0  0  0  0
   -3.3072    2.3812    1.2395 H   0  0  0  0  0  0  0  0  0  0  0  0
   -0.8389    2.3599    1.5636 H   0  0  0  0  0  0  0  0  0  0  0  0
   -3.3182    0.9739   -0.3092 N   0  0  0  0  0  0  0  0  0  0  0  0
  1  2  2  0  0  0  0
  1 12  1  0  0  0  0
  2  3  1  0  0  0  0
  3  4  2  0  0  0  0
  4 11  1  0  0  0  0
  5  4  1  0  0  0  0
  5 10  1  0  0  0  0
  6  1  1  0  0  0  0
  7  2  1  0  0  0  0
  8  9  3  0  0  0  0
 12  5  2  0  0  0  0
M  RAD  1   3   2
M  END
