Coordinates from ORCA-job Pyridine-4-N2+-scan-d09-160-n800
 OpenBabel09191813523D

 12 11  0  0  0  0  0  0  0  0999 V2000
   -3.1675    0.1985   -1.1406 C   0  0  0  0  0  0  0  0  0  0  0  0
   -1.7102    0.0789   -1.0671 C   0  0  0  0  0  0  0  0  0  0  0  0
   -1.3217    0.9031   -0.1065 C   0  0  0  0  0  0  0  0  0  0  0  0
   -1.8374    1.7591    0.7621 C   0  0  0  0  0  0  0  0  0  0  0  0
   -3.2844    1.7418    0.5396 C   0  0  0  0  0  0  0  0  0  0  0  0
   -3.6531   -0.4232   -1.8923 H   0  0  0  0  0  0  0  0  0  0  0  0
   -1.1751   -0.5917   -1.7291 H   0  0  0  0  0  0  0  0  0  0  0  0
    7.6229    0.4795    0.6915 N   0  0  0  0  0  0  0  0  0  0  0  0
    8.7227    0.4287    0.7911 N   0  0  0  0  0  0  0  0  0  0  0  0
   -3.8669    2.4011    1.1826 H   0  0  0  0  0  0  0  0  0  0  0  0
   -1.4013    2.3955    1.5231 H   0  0  0  0  0  0  0  0  0  0  0  0
   -3.8588    0.9924   -0.3650 N   0  0  0  0  0  0  0  0  0  0  0  0
  1  2  2  0  0  0  0
  1 12  1  0  0  0  0
  2  3  1  0  0  0  0
  3  4  2  0  0  0  0
  4 11  1  0  0  0  0
  5  4  1  0  0  0  0
  5 10  1  0  0  0  0
  6  1  1  0  0  0  0
  7  2  1  0  0  0  0
  8  9  3  0  0  0  0
 12  5  2  0  0  0  0
M  RAD  1   3   2
M  END
