Coordinates from ORCA-job Pyridine-4-N2+-scan-d09-160-n800
 OpenBabel09191813523D

 12 11  0  0  0  0  0  0  0  0999 V2000
   -2.4691    0.1693   -1.0742 C   0  0  0  0  0  0  0  0  0  0  0  0
   -1.0125    0.0387   -1.0125 C   0  0  0  0  0  0  0  0  0  0  0  0
   -0.6111    0.8592   -0.0539 C   0  0  0  0  0  0  0  0  0  0  0  0
   -1.1131    1.7182    0.8197 C   0  0  0  0  0  0  0  0  0  0  0  0
   -2.5616    1.7116    0.6083 C   0  0  0  0  0  0  0  0  0  0  0  0
   -2.9654   -0.4478   -1.8227 H   0  0  0  0  0  0  0  0  0  0  0  0
   -0.4864   -0.6347   -1.6788 H   0  0  0  0  0  0  0  0  0  0  0  0
    4.0690    0.6528    0.3800 N   0  0  0  0  0  0  0  0  0  0  0  0
    5.1686    0.6044    0.4822 N   0  0  0  0  0  0  0  0  0  0  0  0
   -3.1345    2.3743    1.2562 H   0  0  0  0  0  0  0  0  0  0  0  0
   -0.6653    2.3501    1.5776 H   0  0  0  0  0  0  0  0  0  0  0  0
   -3.1491    0.9675   -0.2926 N   0  0  0  0  0  0  0  0  0  0  0  0
  1  2  2  0  0  0  0
  1 12  1  0  0  0  0
  2  3  1  0  0  0  0
  3  4  2  0  0  0  0
  4 11  1  0  0  0  0
  5  4  1  0  0  0  0
  5 10  1  0  0  0  0
  6  1  1  0  0  0  0
  7  2  1  0  0  0  0
  8  9  3  0  0  0  0
 12  5  2  0  0  0  0
M  RAD  1   3   2
M  END
