Coordinates from ORCA-job Pyridine-4-N2+-scan-d09-160-n800
 OpenBabel09191813533D

 12 11  0  0  0  0  0  0  0  0999 V2000
   -4.1537    0.2392   -1.2351 C   0  0  0  0  0  0  0  0  0  0  0  0
   -2.6961    0.1391   -1.1400 C   0  0  0  0  0  0  0  0  0  0  0  0
   -2.3326    0.9700   -0.1754 C   0  0  0  0  0  0  0  0  0  0  0  0
   -2.8723    1.8207    0.6838 C   0  0  0  0  0  0  0  0  0  0  0  0
   -4.3156    1.7838    0.4401 C   0  0  0  0  0  0  0  0  0  0  0  0
   -4.6198   -0.3902   -1.9927 H   0  0  0  0  0  0  0  0  0  0  0  0
   -2.1426   -0.5256   -1.7928 H   0  0  0  0  0  0  0  0  0  0  0  0
   12.6705    0.2251    1.1245 N   0  0  0  0  0  0  0  0  0  0  0  0
   13.7702    0.1754    1.2253 N   0  0  0  0  0  0  0  0  0  0  0  0
   -4.9161    2.4365    1.0732 H   0  0  0  0  0  0  0  0  0  0  0  0
   -2.4560    2.4642    1.4499 H   0  0  0  0  0  0  0  0  0  0  0  0
   -4.8666    1.0253   -0.4713 N   0  0  0  0  0  0  0  0  0  0  0  0
  1  2  2  0  0  0  0
  1 12  1  0  0  0  0
  2  3  1  0  0  0  0
  3  4  2  0  0  0  0
  4 11  1  0  0  0  0
  5  4  1  0  0  0  0
  5 10  1  0  0  0  0
  6  1  1  0  0  0  0
  7  2  1  0  0  0  0
  8  9  3  0  0  0  0
 12  5  2  0  0  0  0
M  RAD  1   3   2
M  END
