Coordinates from ORCA-job Pyridine-4-N2+-scan-d09-160-n800
 OpenBabel09191813533D

 12 11  0  0  0  0  0  0  0  0999 V2000
   -4.0501    0.2350   -1.2252 C   0  0  0  0  0  0  0  0  0  0  0  0
   -2.5925    0.1326   -1.1325 C   0  0  0  0  0  0  0  0  0  0  0  0
   -2.2262    0.9628   -0.1683 C   0  0  0  0  0  0  0  0  0  0  0  0
   -2.7631    1.8141    0.6919 C   0  0  0  0  0  0  0  0  0  0  0  0
   -4.2068    1.7795    0.4507 C   0  0  0  0  0  0  0  0  0  0  0  0
   -4.5185   -0.3935   -1.9821 H   0  0  0  0  0  0  0  0  0  0  0  0
   -2.0411   -0.5327   -1.7864 H   0  0  0  0  0  0  0  0  0  0  0  0
   12.1392    0.2525    1.0796 N   0  0  0  0  0  0  0  0  0  0  0  0
   13.2390    0.2018    1.1793 N   0  0  0  0  0  0  0  0  0  0  0  0
   -4.8053    2.4330    1.0849 H   0  0  0  0  0  0  0  0  0  0  0  0
   -2.3445    2.4568    1.4574 H   0  0  0  0  0  0  0  0  0  0  0  0
   -4.7606    1.0220   -0.4599 N   0  0  0  0  0  0  0  0  0  0  0  0
  1  2  2  0  0  0  0
  1 12  1  0  0  0  0
  2  3  1  0  0  0  0
  3  4  2  0  0  0  0
  4 11  1  0  0  0  0
  5  4  1  0  0  0  0
  5 10  1  0  0  0  0
  6  1  1  0  0  0  0
  7  2  1  0  0  0  0
  8  9  3  0  0  0  0
 12  5  2  0  0  0  0
M  RAD  1   3   2
M  END
