Coordinates from ORCA-job Pyridine-4-N2+-scan-d09-160-n800
 OpenBabel09191813533D

 12 11  0  0  0  0  0  0  0  0999 V2000
   -3.6319    0.2177   -1.1850 C   0  0  0  0  0  0  0  0  0  0  0  0
   -2.1743    0.1070   -1.1018 C   0  0  0  0  0  0  0  0  0  0  0  0
   -1.7971    0.9343   -0.1393 C   0  0  0  0  0  0  0  0  0  0  0  0
   -2.3237    1.7879    0.7251 C   0  0  0  0  0  0  0  0  0  0  0  0
   -3.7691    1.7617    0.4930 C   0  0  0  0  0  0  0  0  0  0  0  0
   -4.1086   -0.4075   -1.9395 H   0  0  0  0  0  0  0  0  0  0  0  0
   -1.6309   -0.5610   -1.7597 H   0  0  0  0  0  0  0  0  0  0  0  0
    9.9973    0.3610    0.8965 N   0  0  0  0  0  0  0  0  0  0  0  0
   11.0972    0.3089    0.9947 N   0  0  0  0  0  0  0  0  0  0  0  0
   -4.3598    2.4180    1.1315 H   0  0  0  0  0  0  0  0  0  0  0  0
   -1.8966    2.4276    1.4884 H   0  0  0  0  0  0  0  0  0  0  0  0
   -4.3330    1.0081   -0.4147 N   0  0  0  0  0  0  0  0  0  0  0  0
  1  2  2  0  0  0  0
  1 12  1  0  0  0  0
  2  3  1  0  0  0  0
  3  4  2  0  0  0  0
  4 11  1  0  0  0  0
  5  4  1  0  0  0  0
  5 10  1  0  0  0  0
  6  1  1  0  0  0  0
  7  2  1  0  0  0  0
  8  9  3  0  0  0  0
 12  5  2  0  0  0  0
M  RAD  1   3   2
M  END
