Coordinates from ORCA-job Pyridine-4-N2+-scan-d09-160-n800
 OpenBabel09191813523D

 12 11  0  0  0  0  0  0  0  0999 V2000
   -2.1017    0.1534   -1.0399 C   0  0  0  0  0  0  0  0  0  0  0  0
   -0.6562    0.0222   -0.9803 C   0  0  0  0  0  0  0  0  0  0  0  0
   -0.2371    0.8417   -0.0202 C   0  0  0  0  0  0  0  0  0  0  0  0
   -0.7545    1.7018    0.8524 C   0  0  0  0  0  0  0  0  0  0  0  0
   -2.1920    1.6956    0.6428 C   0  0  0  0  0  0  0  0  0  0  0  0
   -2.6080   -0.4592   -1.7849 H   0  0  0  0  0  0  0  0  0  0  0  0
   -0.1221   -0.6479   -1.6416 H   0  0  0  0  0  0  0  0  0  0  0  0
    2.2518    0.7336    0.2123 N   0  0  0  0  0  0  0  0  0  0  0  0
    3.3507    0.6859    0.3149 N   0  0  0  0  0  0  0  0  0  0  0  0
   -2.7727    2.3553    1.2862 H   0  0  0  0  0  0  0  0  0  0  0  0
   -0.2964    2.3288    1.6064 H   0  0  0  0  0  0  0  0  0  0  0  0
   -2.7923    0.9525   -0.2589 N   0  0  0  0  0  0  0  0  0  0  0  0
  1  2  2  0  0  0  0
  1 12  1  0  0  0  0
  2  3  1  0  0  0  0
  3  4  2  0  0  0  0
  4 11  1  0  0  0  0
  5  4  1  0  0  0  0
  5 10  1  0  0  0  0
  6  1  1  0  0  0  0
  7  2  1  0  0  0  0
  8  9  3  0  0  0  0
 12  5  2  0  0  0  0
M  RAD  1   3   2
M  END
