Coordinates from ORCA-job Pyridine-4-N2+-scan-d09-160-n800
 OpenBabel09191813523D

 12 11  0  0  0  0  0  0  0  0999 V2000
   -2.3700    0.1651   -1.0650 C   0  0  0  0  0  0  0  0  0  0  0  0
   -0.9137    0.0339   -1.0038 C   0  0  0  0  0  0  0  0  0  0  0  0
   -0.5117    0.8542   -0.0453 C   0  0  0  0  0  0  0  0  0  0  0  0
   -1.0130    1.7134    0.8286 C   0  0  0  0  0  0  0  0  0  0  0  0
   -2.4612    1.7072    0.6176 C   0  0  0  0  0  0  0  0  0  0  0  0
   -2.8670   -0.4518   -1.8132 H   0  0  0  0  0  0  0  0  0  0  0  0
   -0.3873   -0.6394   -1.6699 H   0  0  0  0  0  0  0  0  0  0  0  0
    3.5707    0.6755    0.3346 N   0  0  0  0  0  0  0  0  0  0  0  0
    4.6702    0.6274    0.4371 N   0  0  0  0  0  0  0  0  0  0  0  0
   -3.0339    2.3701    1.2657 H   0  0  0  0  0  0  0  0  0  0  0  0
   -0.5638    2.3447    1.5860 H   0  0  0  0  0  0  0  0  0  0  0  0
   -3.0498    0.9635   -0.2831 N   0  0  0  0  0  0  0  0  0  0  0  0
  1  2  2  0  0  0  0
  1 12  1  0  0  0  0
  2  3  1  0  0  0  0
  3  4  2  0  0  0  0
  4 11  1  0  0  0  0
  5  4  1  0  0  0  0
  5 10  1  0  0  0  0
  6  1  1  0  0  0  0
  7  2  1  0  0  0  0
  8  9  3  0  0  0  0
 12  5  2  0  0  0  0
M  RAD  1   3   2
M  END
