Coordinates from ORCA-job Pyridine-4-N2+-scan-d09-160-n800
 OpenBabel09191813533D

 12 11  0  0  0  0  0  0  0  0999 V2000
   -3.4079    0.2084   -1.1636 C   0  0  0  0  0  0  0  0  0  0  0  0
   -1.9504    0.0934   -1.0851 C   0  0  0  0  0  0  0  0  0  0  0  0
   -1.5677    0.9192   -0.1235 C   0  0  0  0  0  0  0  0  0  0  0  0
   -2.0890    1.7740    0.7429 C   0  0  0  0  0  0  0  0  0  0  0  0
   -3.5352    1.7521    0.5155 C   0  0  0  0  0  0  0  0  0  0  0  0
   -3.8889   -0.4151   -1.9167 H   0  0  0  0  0  0  0  0  0  0  0  0
   -1.4110   -0.5758   -1.7450 H   0  0  0  0  0  0  0  0  0  0  0  0
    8.8516    0.4183    0.7977 N   0  0  0  0  0  0  0  0  0  0  0  0
    9.9515    0.3667    0.8965 N   0  0  0  0  0  0  0  0  0  0  0  0
   -4.1219    2.4099    1.1562 H   0  0  0  0  0  0  0  0  0  0  0  0
   -1.6575    2.4121    1.5051 H   0  0  0  0  0  0  0  0  0  0  0  0
   -4.1042    1.0006   -0.3907 N   0  0  0  0  0  0  0  0  0  0  0  0
  1  2  2  0  0  0  0
  1 12  1  0  0  0  0
  2  3  1  0  0  0  0
  3  4  2  0  0  0  0
  4 11  1  0  0  0  0
  5  4  1  0  0  0  0
  5 10  1  0  0  0  0
  6  1  1  0  0  0  0
  7  2  1  0  0  0  0
  8  9  3  0  0  0  0
 12  5  2  0  0  0  0
M  RAD  1   3   2
M  END
