Coordinates from ORCA-job Pyridine-4-N2+-scan-d09-160-n800
 OpenBabel09191813533D

 12 11  0  0  0  0  0  0  0  0999 V2000
   -3.7681    0.2233   -1.1981 C   0  0  0  0  0  0  0  0  0  0  0  0
   -2.3105    0.1153   -1.1119 C   0  0  0  0  0  0  0  0  0  0  0  0
   -1.9368    0.9435   -0.1488 C   0  0  0  0  0  0  0  0  0  0  0  0
   -2.4667    1.7964    0.7143 C   0  0  0  0  0  0  0  0  0  0  0  0
   -3.9116    1.7675    0.4793 C   0  0  0  0  0  0  0  0  0  0  0  0
   -4.2422   -0.4030   -1.9533 H   0  0  0  0  0  0  0  0  0  0  0  0
   -1.7645   -0.5518   -1.7685 H   0  0  0  0  0  0  0  0  0  0  0  0
   10.6947    0.3262    0.9566 N   0  0  0  0  0  0  0  0  0  0  0  0
   11.7945    0.2737    1.0544 N   0  0  0  0  0  0  0  0  0  0  0  0
   -4.5048    2.4229    1.1164 H   0  0  0  0  0  0  0  0  0  0  0  0
   -2.0423    2.4370    1.4783 H   0  0  0  0  0  0  0  0  0  0  0  0
   -4.4722    1.0127   -0.4294 N   0  0  0  0  0  0  0  0  0  0  0  0
  1  2  2  0  0  0  0
  1 12  1  0  0  0  0
  2  3  1  0  0  0  0
  3  4  2  0  0  0  0
  4 11  1  0  0  0  0
  5  4  1  0  0  0  0
  5 10  1  0  0  0  0
  6  1  1  0  0  0  0
  7  2  1  0  0  0  0
  8  9  3  0  0  0  0
 12  5  2  0  0  0  0
M  RAD  1   3   2
M  END
