Coordinates from ORCA-job Pyridine-4-N2+-scan-d09-160-n800
 OpenBabel09191813523D

 12 11  0  0  0  0  0  0  0  0999 V2000
   -2.4130    0.1669   -1.0690 C   0  0  0  0  0  0  0  0  0  0  0  0
   -0.9565    0.0359   -1.0077 C   0  0  0  0  0  0  0  0  0  0  0  0
   -0.5548    0.8563   -0.0491 C   0  0  0  0  0  0  0  0  0  0  0  0
   -1.0563    1.7154    0.8247 C   0  0  0  0  0  0  0  0  0  0  0  0
   -2.5046    1.7091    0.6136 C   0  0  0  0  0  0  0  0  0  0  0  0
   -2.9097   -0.4501   -1.8173 H   0  0  0  0  0  0  0  0  0  0  0  0
   -0.4304   -0.6375   -1.6738 H   0  0  0  0  0  0  0  0  0  0  0  0
    3.7866    0.6658    0.3544 N   0  0  0  0  0  0  0  0  0  0  0  0
    4.8861    0.6175    0.4567 N   0  0  0  0  0  0  0  0  0  0  0  0
   -3.0774    2.3720    1.2616 H   0  0  0  0  0  0  0  0  0  0  0  0
   -0.6077    2.3470    1.5823 H   0  0  0  0  0  0  0  0  0  0  0  0
   -3.0928    0.9652   -0.2872 N   0  0  0  0  0  0  0  0  0  0  0  0
  1  2  2  0  0  0  0
  1 12  1  0  0  0  0
  2  3  1  0  0  0  0
  3  4  2  0  0  0  0
  4 11  1  0  0  0  0
  5  4  1  0  0  0  0
  5 10  1  0  0  0  0
  6  1  1  0  0  0  0
  7  2  1  0  0  0  0
  8  9  3  0  0  0  0
 12  5  2  0  0  0  0
M  RAD  1   3   2
M  END
