Coordinates from ORCA-job Pyridine-4-N2+-scan-d09-160-n800
 OpenBabel09191813523D

 12 11  0  0  0  0  0  0  0  0999 V2000
   -2.3766    0.1654   -1.0656 C   0  0  0  0  0  0  0  0  0  0  0  0
   -0.9203    0.0342   -1.0044 C   0  0  0  0  0  0  0  0  0  0  0  0
   -0.5184    0.8545   -0.0459 C   0  0  0  0  0  0  0  0  0  0  0  0
   -1.0197    1.7137    0.8280 C   0  0  0  0  0  0  0  0  0  0  0  0
   -2.4679    1.7075    0.6170 C   0  0  0  0  0  0  0  0  0  0  0  0
   -2.8736   -0.4515   -1.8138 H   0  0  0  0  0  0  0  0  0  0  0  0
   -0.3940   -0.6391   -1.6705 H   0  0  0  0  0  0  0  0  0  0  0  0
    3.6039    0.6740    0.3377 N   0  0  0  0  0  0  0  0  0  0  0  0
    4.7034    0.6259    0.4401 N   0  0  0  0  0  0  0  0  0  0  0  0
   -3.0406    2.3704    1.2651 H   0  0  0  0  0  0  0  0  0  0  0  0
   -0.5706    2.3450    1.5854 H   0  0  0  0  0  0  0  0  0  0  0  0
   -3.0564    0.9637   -0.2837 N   0  0  0  0  0  0  0  0  0  0  0  0
  1  2  2  0  0  0  0
  1 12  1  0  0  0  0
  2  3  1  0  0  0  0
  3  4  2  0  0  0  0
  4 11  1  0  0  0  0
  5  4  1  0  0  0  0
  5 10  1  0  0  0  0
  6  1  1  0  0  0  0
  7  2  1  0  0  0  0
  8  9  3  0  0  0  0
 12  5  2  0  0  0  0
M  RAD  1   3   2
M  END
