Coordinates from ORCA-job Pyridine-4-N2+-scan-d09-160-n800
 OpenBabel09191813523D

 12 11  0  0  0  0  0  0  0  0999 V2000
   -2.7674    0.1819   -1.1024 C   0  0  0  0  0  0  0  0  0  0  0  0
   -1.3103    0.0551   -1.0367 C   0  0  0  0  0  0  0  0  0  0  0  0
   -0.9130    0.8768   -0.0775 C   0  0  0  0  0  0  0  0  0  0  0  0
   -1.4198    1.7347    0.7944 C   0  0  0  0  0  0  0  0  0  0  0  0
   -2.8679    1.7246    0.5794 C   0  0  0  0  0  0  0  0  0  0  0  0
   -3.2599   -0.4369   -1.8520 H   0  0  0  0  0  0  0  0  0  0  0  0
   -0.7817   -0.6175   -1.7018 H   0  0  0  0  0  0  0  0  0  0  0  0
    5.5804    0.5806    0.5141 N   0  0  0  0  0  0  0  0  0  0  0  0
    6.6801    0.5312    0.6153 N   0  0  0  0  0  0  0  0  0  0  0  0
   -3.4439    2.3862    1.2258 H   0  0  0  0  0  0  0  0  0  0  0  0
   -0.9763    2.3683    1.5534 H   0  0  0  0  0  0  0  0  0  0  0  0
   -3.4508    0.9786   -0.3227 N   0  0  0  0  0  0  0  0  0  0  0  0
  1  2  2  0  0  0  0
  1 12  1  0  0  0  0
  2  3  1  0  0  0  0
  3  4  2  0  0  0  0
  4 11  1  0  0  0  0
  5  4  1  0  0  0  0
  5 10  1  0  0  0  0
  6  1  1  0  0  0  0
  7  2  1  0  0  0  0
  8  9  3  0  0  0  0
 12  5  2  0  0  0  0
M  RAD  1   3   2
M  END
