Coordinates from ORCA-job Pyridine-4-N2+-scan-d09-160-n800
 OpenBabel09191813523D

 12 11  0  0  0  0  0  0  0  0999 V2000
   -2.4064    0.1666   -1.0684 C   0  0  0  0  0  0  0  0  0  0  0  0
   -0.9499    0.0356   -1.0071 C   0  0  0  0  0  0  0  0  0  0  0  0
   -0.5482    0.8560   -0.0486 C   0  0  0  0  0  0  0  0  0  0  0  0
   -1.0496    1.7151    0.8253 C   0  0  0  0  0  0  0  0  0  0  0  0
   -2.4980    1.7088    0.6142 C   0  0  0  0  0  0  0  0  0  0  0  0
   -2.9031   -0.4503   -1.8167 H   0  0  0  0  0  0  0  0  0  0  0  0
   -0.4238   -0.6378   -1.6732 H   0  0  0  0  0  0  0  0  0  0  0  0
    3.7534    0.6673    0.3514 N   0  0  0  0  0  0  0  0  0  0  0  0
    4.8529    0.6191    0.4537 N   0  0  0  0  0  0  0  0  0  0  0  0
   -3.0707    2.3717    1.2622 H   0  0  0  0  0  0  0  0  0  0  0  0
   -0.6010    2.3467    1.5829 H   0  0  0  0  0  0  0  0  0  0  0  0
   -3.0862    0.9649   -0.2865 N   0  0  0  0  0  0  0  0  0  0  0  0
  1  2  2  0  0  0  0
  1 12  1  0  0  0  0
  2  3  1  0  0  0  0
  3  4  2  0  0  0  0
  4 11  1  0  0  0  0
  5  4  1  0  0  0  0
  5 10  1  0  0  0  0
  6  1  1  0  0  0  0
  7  2  1  0  0  0  0
  8  9  3  0  0  0  0
 12  5  2  0  0  0  0
M  RAD  1   3   2
M  END
