Coordinates from ORCA-job Pyridine-4-N2+-scan-d09-160-n800
 OpenBabel09191813523D

 12 12  0  0  0  0  0  0  0  0999 V2000
   -1.9328    0.1360   -1.0352 C   0  0  0  0  0  0  0  0  0  0  0  0
   -0.5417    0.0225   -0.9637 C   0  0  0  0  0  0  0  0  0  0  0  0
    0.0633    0.8286    0.0079 C   0  0  0  0  0  0  0  0  0  0  0  0
   -0.6394    1.6915    0.8573 C   0  0  0  0  0  0  0  0  0  0  0  0
   -2.0242    1.6984    0.6695 C   0  0  0  0  0  0  0  0  0  0  0  0
   -2.4871   -0.4532   -1.7612 H   0  0  0  0  0  0  0  0  0  0  0  0
    0.0222   -0.6392   -1.6116 H   0  0  0  0  0  0  0  0  0  0  0  0
    1.4765    0.7673    0.1399 N   0  0  0  0  0  0  0  0  0  0  0  0
    2.5818    0.7193    0.2431 N   0  0  0  0  0  0  0  0  0  0  0  0
   -2.6505    2.3388    1.2852 H   0  0  0  0  0  0  0  0  0  0  0  0
   -0.1503    2.3074    1.6036 H   0  0  0  0  0  0  0  0  0  0  0  0
   -2.6482    0.9463   -0.2454 N   0  0  0  0  0  0  0  0  0  0  0  0
  1  2  2  0  0  0  0
  1 12  1  0  0  0  0
  2  3  1  0  0  0  0
  3  8  1  0  0  0  0
  3  4  2  0  0  0  0
  4 11  1  0  0  0  0
  5  4  1  0  0  0  0
  5 10  1  0  0  0  0
  6  1  1  0  0  0  0
  7  2  1  0  0  0  0
  8  9  1  0  0  0  0
 12  5  2  0  0  0  0
M  RAD  2   8   2   9   3
M  END
