Coordinates from ORCA-job Pyridine-4-N2+-scan-d09-160-n800
 OpenBabel09191813523D

 12 12  0  0  0  0  0  0  0  0999 V2000
   -1.9210    0.1352   -1.0345 C   0  0  0  0  0  0  0  0  0  0  0  0
   -0.5334    0.0233   -0.9617 C   0  0  0  0  0  0  0  0  0  0  0  0
    0.0983    0.8271    0.0111 C   0  0  0  0  0  0  0  0  0  0  0  0
   -0.6309    1.6900    0.8569 C   0  0  0  0  0  0  0  0  0  0  0  0
   -2.0125    1.6982    0.6710 C   0  0  0  0  0  0  0  0  0  0  0  0
   -2.4759   -0.4537   -1.7603 H   0  0  0  0  0  0  0  0  0  0  0  0
    0.0303   -0.6389   -1.6102 H   0  0  0  0  0  0  0  0  0  0  0  0
    1.4119    0.7701    0.1339 N   0  0  0  0  0  0  0  0  0  0  0  0
    2.5216    0.7219    0.2375 N   0  0  0  0  0  0  0  0  0  0  0  0
   -2.6393    2.3384    1.2864 H   0  0  0  0  0  0  0  0  0  0  0  0
   -0.1422    2.3064    1.6037 H   0  0  0  0  0  0  0  0  0  0  0  0
   -2.6375    0.9458   -0.2444 N   0  0  0  0  0  0  0  0  0  0  0  0
  1  2  2  0  0  0  0
  1 12  1  0  0  0  0
  2  3  1  0  0  0  0
  3  8  1  0  0  0  0
  3  4  2  0  0  0  0
  4 11  1  0  0  0  0
  5  4  1  0  0  0  0
  5 10  1  0  0  0  0
  6  1  1  0  0  0  0
  7  2  1  0  0  0  0
  8  9  1  0  0  0  0
 12  5  2  0  0  0  0
M  RAD  2   8   2   9   3
M  END
