Coordinates from ORCA-job Pyridine-4-N2+-scan-d09-160-n800
 OpenBabel09191813533D

 12 11  0  0  0  0  0  0  0  0999 V2000
   -3.4533    0.2103   -1.1679 C   0  0  0  0  0  0  0  0  0  0  0  0
   -1.9958    0.0962   -1.0885 C   0  0  0  0  0  0  0  0  0  0  0  0
   -1.6143    0.9222   -0.1267 C   0  0  0  0  0  0  0  0  0  0  0  0
   -2.1366    1.7768    0.7393 C   0  0  0  0  0  0  0  0  0  0  0  0
   -3.5827    1.7540    0.5110 C   0  0  0  0  0  0  0  0  0  0  0  0
   -3.9335   -0.4135   -1.9213 H   0  0  0  0  0  0  0  0  0  0  0  0
   -1.4557   -0.5728   -1.7480 H   0  0  0  0  0  0  0  0  0  0  0  0
    9.0841    0.4067    0.8177 N   0  0  0  0  0  0  0  0  0  0  0  0
   10.1839    0.3550    0.9164 N   0  0  0  0  0  0  0  0  0  0  0  0
   -4.1702    2.4115    1.1512 H   0  0  0  0  0  0  0  0  0  0  0  0
   -1.7060    2.4152    1.5017 H   0  0  0  0  0  0  0  0  0  0  0  0
   -4.1506    1.0021   -0.3955 N   0  0  0  0  0  0  0  0  0  0  0  0
  1  2  2  0  0  0  0
  1 12  1  0  0  0  0
  2  3  1  0  0  0  0
  3  4  2  0  0  0  0
  4 11  1  0  0  0  0
  5  4  1  0  0  0  0
  5 10  1  0  0  0  0
  6  1  1  0  0  0  0
  7  2  1  0  0  0  0
  8  9  3  0  0  0  0
 12  5  2  0  0  0  0
M  RAD  1   3   2
M  END
