Coordinates from ORCA-job Pyridine-4-N2+-scan-d09-160-n800
 OpenBabel09191813523D

 12 11  0  0  0  0  0  0  0  0999 V2000
   -2.9628    0.1900   -1.1210 C   0  0  0  0  0  0  0  0  0  0  0  0
   -1.5055    0.0667   -1.0517 C   0  0  0  0  0  0  0  0  0  0  0  0
   -1.1123    0.8895   -0.0918 C   0  0  0  0  0  0  0  0  0  0  0  0
   -1.6233    1.7465    0.7785 C   0  0  0  0  0  0  0  0  0  0  0  0
   -3.0709    1.7330    0.5601 C   0  0  0  0  0  0  0  0  0  0  0  0
   -3.4520   -0.4301   -1.8716 H   0  0  0  0  0  0  0  0  0  0  0  0
   -0.9739   -0.6051   -1.7154 H   0  0  0  0  0  0  0  0  0  0  0  0
    6.5768    0.5314    0.6008 N   0  0  0  0  0  0  0  0  0  0  0  0
    7.6765    0.4814    0.7013 N   0  0  0  0  0  0  0  0  0  0  0  0
   -3.6500    2.3936    1.2048 H   0  0  0  0  0  0  0  0  0  0  0  0
   -1.1833    2.3815    1.5385 H   0  0  0  0  0  0  0  0  0  0  0  0
   -3.6498    0.9854   -0.3432 N   0  0  0  0  0  0  0  0  0  0  0  0
  1  2  2  0  0  0  0
  1 12  1  0  0  0  0
  2  3  1  0  0  0  0
  3  4  2  0  0  0  0
  4 11  1  0  0  0  0
  5  4  1  0  0  0  0
  5 10  1  0  0  0  0
  6  1  1  0  0  0  0
  7  2  1  0  0  0  0
  8  9  3  0  0  0  0
 12  5  2  0  0  0  0
M  RAD  1   3   2
M  END
