Coordinates from ORCA-job Pyridine-4-N2+-scan-d09-160-n800
 OpenBabel09191813523D

 12 11  0  0  0  0  0  0  0  0999 V2000
   -2.9465    0.1893   -1.1195 C   0  0  0  0  0  0  0  0  0  0  0  0
   -1.4893    0.0657   -1.0505 C   0  0  0  0  0  0  0  0  0  0  0  0
   -1.0957    0.8884   -0.0906 C   0  0  0  0  0  0  0  0  0  0  0  0
   -1.6063    1.7455    0.7798 C   0  0  0  0  0  0  0  0  0  0  0  0
   -3.0540    1.7323    0.5617 C   0  0  0  0  0  0  0  0  0  0  0  0
   -3.4360   -0.4307   -1.8700 H   0  0  0  0  0  0  0  0  0  0  0  0
   -0.9579   -0.6061   -1.7143 H   0  0  0  0  0  0  0  0  0  0  0  0
    6.4937    0.5356    0.5936 N   0  0  0  0  0  0  0  0  0  0  0  0
    7.5935    0.4855    0.6941 N   0  0  0  0  0  0  0  0  0  0  0  0
   -3.6328    2.3930    1.2066 H   0  0  0  0  0  0  0  0  0  0  0  0
   -1.1660    2.3804    1.5397 H   0  0  0  0  0  0  0  0  0  0  0  0
   -3.6332    0.9849   -0.3415 N   0  0  0  0  0  0  0  0  0  0  0  0
  1  2  2  0  0  0  0
  1 12  1  0  0  0  0
  2  3  1  0  0  0  0
  3  4  2  0  0  0  0
  4 11  1  0  0  0  0
  5  4  1  0  0  0  0
  5 10  1  0  0  0  0
  6  1  1  0  0  0  0
  7  2  1  0  0  0  0
  8  9  3  0  0  0  0
 12  5  2  0  0  0  0
M  RAD  1   3   2
M  END
