Coordinates from ORCA-job Pyridine-4-N2+-scan-d09-160-n800
 OpenBabel09191813533D

 12 11  0  0  0  0  0  0  0  0999 V2000
   -3.8848    0.2282   -1.2093 C   0  0  0  0  0  0  0  0  0  0  0  0
   -2.4272    0.1225   -1.1204 C   0  0  0  0  0  0  0  0  0  0  0  0
   -2.0565    0.9515   -0.1569 C   0  0  0  0  0  0  0  0  0  0  0  0
   -2.5894    1.8037    0.7050 C   0  0  0  0  0  0  0  0  0  0  0  0
   -4.0338    1.7725    0.4675 C   0  0  0  0  0  0  0  0  0  0  0  0
   -4.3566   -0.3991   -1.9652 H   0  0  0  0  0  0  0  0  0  0  0  0
   -1.8790   -0.5439   -1.7759 H   0  0  0  0  0  0  0  0  0  0  0  0
   11.2924    0.2962    1.0081 N   0  0  0  0  0  0  0  0  0  0  0  0
   12.3923    0.2435    1.1056 N   0  0  0  0  0  0  0  0  0  0  0  0
   -4.6291    2.4271    1.1034 H   0  0  0  0  0  0  0  0  0  0  0  0
   -2.1673    2.4452    1.4697 H   0  0  0  0  0  0  0  0  0  0  0  0
   -4.5915    1.0165   -0.4420 N   0  0  0  0  0  0  0  0  0  0  0  0
  1  2  2  0  0  0  0
  1 12  1  0  0  0  0
  2  3  1  0  0  0  0
  3  4  2  0  0  0  0
  4 11  1  0  0  0  0
  5  4  1  0  0  0  0
  5 10  1  0  0  0  0
  6  1  1  0  0  0  0
  7  2  1  0  0  0  0
  8  9  3  0  0  0  0
 12  5  2  0  0  0  0
M  RAD  1   3   2
M  END
