Coordinates from ORCA-job Pyridine-4-N2+-scan-d09-160-n800
 OpenBabel09191813533D

 12 11  0  0  0  0  0  0  0  0999 V2000
   -3.3494    0.2060   -1.1580 C   0  0  0  0  0  0  0  0  0  0  0  0
   -1.8920    0.0899   -1.0808 C   0  0  0  0  0  0  0  0  0  0  0  0
   -1.5079    0.9153   -0.1194 C   0  0  0  0  0  0  0  0  0  0  0  0
   -2.0278    1.7703    0.7476 C   0  0  0  0  0  0  0  0  0  0  0  0
   -3.4742    1.7496    0.5214 C   0  0  0  0  0  0  0  0  0  0  0  0
   -3.8316   -0.4171   -1.9108 H   0  0  0  0  0  0  0  0  0  0  0  0
   -1.3536   -0.5797   -1.7412 H   0  0  0  0  0  0  0  0  0  0  0  0
    8.5528    0.4332    0.7718 N   0  0  0  0  0  0  0  0  0  0  0  0
    9.6526    0.3818    0.8709 N   0  0  0  0  0  0  0  0  0  0  0  0
   -4.0599    2.4078    1.1626 H   0  0  0  0  0  0  0  0  0  0  0  0
   -1.5952    2.4080    1.5095 H   0  0  0  0  0  0  0  0  0  0  0  0
   -4.0445    0.9986   -0.3844 N   0  0  0  0  0  0  0  0  0  0  0  0
  1  2  2  0  0  0  0
  1 12  1  0  0  0  0
  2  3  1  0  0  0  0
  3  4  2  0  0  0  0
  4 11  1  0  0  0  0
  5  4  1  0  0  0  0
  5 10  1  0  0  0  0
  6  1  1  0  0  0  0
  7  2  1  0  0  0  0
  8  9  3  0  0  0  0
 12  5  2  0  0  0  0
M  RAD  1   3   2
M  END
