Coordinates from ORCA-job Pyridine-4-N2+-scan-d09-160-n800
 OpenBabel09191813523D

 12 11  0  0  0  0  0  0  0  0999 V2000
   -2.6203    0.1758   -1.0884 C   0  0  0  0  0  0  0  0  0  0  0  0
   -1.1634    0.0467   -1.0252 C   0  0  0  0  0  0  0  0  0  0  0  0
   -0.7637    0.8677   -0.0663 C   0  0  0  0  0  0  0  0  0  0  0  0
   -1.2676    1.7263    0.8067 C   0  0  0  0  0  0  0  0  0  0  0  0
   -2.7160    1.7181    0.5938 C   0  0  0  0  0  0  0  0  0  0  0  0
   -3.1150   -0.4421   -1.8374 H   0  0  0  0  0  0  0  0  0  0  0  0
   -0.6365   -0.6265   -1.6911 H   0  0  0  0  0  0  0  0  0  0  0  0
    4.8330    0.6168    0.4484 N   0  0  0  0  0  0  0  0  0  0  0  0
    5.9326    0.5680    0.5502 N   0  0  0  0  0  0  0  0  0  0  0  0
   -3.2902    2.3805    1.2411 H   0  0  0  0  0  0  0  0  0  0  0  0
   -0.8218    2.3590    1.5651 H   0  0  0  0  0  0  0  0  0  0  0  0
   -3.3016    0.9733   -0.3076 N   0  0  0  0  0  0  0  0  0  0  0  0
  1  2  2  0  0  0  0
  1 12  1  0  0  0  0
  2  3  1  0  0  0  0
  3  4  2  0  0  0  0
  4 11  1  0  0  0  0
  5  4  1  0  0  0  0
  5 10  1  0  0  0  0
  6  1  1  0  0  0  0
  7  2  1  0  0  0  0
  8  9  3  0  0  0  0
 12  5  2  0  0  0  0
M  RAD  1   3   2
M  END
