Coordinates from ORCA-job Pyridine-4-N2+-scan-d09-160-n800
 OpenBabel09191813533D

 12 11  0  0  0  0  0  0  0  0999 V2000
   -3.5929    0.2161   -1.1813 C   0  0  0  0  0  0  0  0  0  0  0  0
   -2.1354    0.1046   -1.0989 C   0  0  0  0  0  0  0  0  0  0  0  0
   -1.7572    0.9316   -0.1365 C   0  0  0  0  0  0  0  0  0  0  0  0
   -2.2829    1.7854    0.7282 C   0  0  0  0  0  0  0  0  0  0  0  0
   -3.7284    1.7600    0.4969 C   0  0  0  0  0  0  0  0  0  0  0  0
   -4.0704   -0.4088   -1.9355 H   0  0  0  0  0  0  0  0  0  0  0  0
   -1.5927   -0.5636   -1.7572 H   0  0  0  0  0  0  0  0  0  0  0  0
    9.7981    0.3710    0.8794 N   0  0  0  0  0  0  0  0  0  0  0  0
   10.8979    0.3190    0.9776 N   0  0  0  0  0  0  0  0  0  0  0  0
   -4.3184    2.4166    1.1358 H   0  0  0  0  0  0  0  0  0  0  0  0
   -1.8550    2.4248    1.4913 H   0  0  0  0  0  0  0  0  0  0  0  0
   -4.2932    1.0068   -0.4105 N   0  0  0  0  0  0  0  0  0  0  0  0
  1  2  2  0  0  0  0
  1 12  1  0  0  0  0
  2  3  1  0  0  0  0
  3  4  2  0  0  0  0
  4 11  1  0  0  0  0
  5  4  1  0  0  0  0
  5 10  1  0  0  0  0
  6  1  1  0  0  0  0
  7  2  1  0  0  0  0
  8  9  3  0  0  0  0
 12  5  2  0  0  0  0
M  RAD  1   3   2
M  END
