Coordinates from ORCA-job Pyridine-4-N2+-scan-d09-160-n800
 OpenBabel09191813523D

 12 11  0  0  0  0  0  0  0  0999 V2000
   -2.9660    0.1901   -1.1213 C   0  0  0  0  0  0  0  0  0  0  0  0
   -1.5088    0.0668   -1.0519 C   0  0  0  0  0  0  0  0  0  0  0  0
   -1.1157    0.8897   -0.0920 C   0  0  0  0  0  0  0  0  0  0  0  0
   -1.6267    1.7467    0.7783 C   0  0  0  0  0  0  0  0  0  0  0  0
   -3.0743    1.7331    0.5597 C   0  0  0  0  0  0  0  0  0  0  0  0
   -3.4552   -0.4300   -1.8720 H   0  0  0  0  0  0  0  0  0  0  0  0
   -0.9771   -0.6048   -1.7156 H   0  0  0  0  0  0  0  0  0  0  0  0
    6.5934    0.5306    0.6023 N   0  0  0  0  0  0  0  0  0  0  0  0
    7.6931    0.4805    0.7027 N   0  0  0  0  0  0  0  0  0  0  0  0
   -3.6534    2.3937    1.2045 H   0  0  0  0  0  0  0  0  0  0  0  0
   -1.1868    2.3817    1.5382 H   0  0  0  0  0  0  0  0  0  0  0  0
   -3.6531    0.9856   -0.3435 N   0  0  0  0  0  0  0  0  0  0  0  0
  1  2  2  0  0  0  0
  1 12  1  0  0  0  0
  2  3  1  0  0  0  0
  3  4  2  0  0  0  0
  4 11  1  0  0  0  0
  5  4  1  0  0  0  0
  5 10  1  0  0  0  0
  6  1  1  0  0  0  0
  7  2  1  0  0  0  0
  8  9  3  0  0  0  0
 12  5  2  0  0  0  0
M  RAD  1   3   2
M  END
