Coordinates from ORCA-job Pyridine-4-N2+-scan-d09-160-n800
 OpenBabel09191813523D

 12 11  0  0  0  0  0  0  0  0999 V2000
   -2.9367    0.1889   -1.1185 C   0  0  0  0  0  0  0  0  0  0  0  0
   -1.4795    0.0651   -1.0497 C   0  0  0  0  0  0  0  0  0  0  0  0
   -1.0858    0.8878   -0.0899 C   0  0  0  0  0  0  0  0  0  0  0  0
   -1.5961    1.7449    0.7806 C   0  0  0  0  0  0  0  0  0  0  0  0
   -3.0439    1.7319    0.5627 C   0  0  0  0  0  0  0  0  0  0  0  0
   -3.4264   -0.4310   -1.8690 H   0  0  0  0  0  0  0  0  0  0  0  0
   -0.9483   -0.6067   -1.7136 H   0  0  0  0  0  0  0  0  0  0  0  0
    6.4439    0.5380    0.5893 N   0  0  0  0  0  0  0  0  0  0  0  0
    7.5436    0.4880    0.6898 N   0  0  0  0  0  0  0  0  0  0  0  0
   -3.6225    2.3926    1.2077 H   0  0  0  0  0  0  0  0  0  0  0  0
   -1.1557    2.3797    1.5404 H   0  0  0  0  0  0  0  0  0  0  0  0
   -3.6233    0.9845   -0.3404 N   0  0  0  0  0  0  0  0  0  0  0  0
  1  2  2  0  0  0  0
  1 12  1  0  0  0  0
  2  3  1  0  0  0  0
  3  4  2  0  0  0  0
  4 11  1  0  0  0  0
  5  4  1  0  0  0  0
  5 10  1  0  0  0  0
  6  1  1  0  0  0  0
  7  2  1  0  0  0  0
  8  9  3  0  0  0  0
 12  5  2  0  0  0  0
M  RAD  1   3   2
M  END
