Coordinates from ORCA-job Pyridine-4-N2+-scan-d09-160-n800
 OpenBabel09191813533D

 12 11  0  0  0  0  0  0  0  0999 V2000
   -4.2474    0.2430   -1.2442 C   0  0  0  0  0  0  0  0  0  0  0  0
   -2.7898    0.1451   -1.1467 C   0  0  0  0  0  0  0  0  0  0  0  0
   -2.4291    0.9767   -0.1816 C   0  0  0  0  0  0  0  0  0  0  0  0
   -2.9715    1.8267    0.6765 C   0  0  0  0  0  0  0  0  0  0  0  0
   -4.4143    1.7877    0.4305 C   0  0  0  0  0  0  0  0  0  0  0  0
   -4.7113   -0.3872   -2.0024 H   0  0  0  0  0  0  0  0  0  0  0  0
   -2.2342   -0.5189   -1.7984 H   0  0  0  0  0  0  0  0  0  0  0  0
   13.1520    0.2004    1.1653 N   0  0  0  0  0  0  0  0  0  0  0  0
   14.2517    0.1512    1.2666 N   0  0  0  0  0  0  0  0  0  0  0  0
   -5.0168    2.4397    1.0624 H   0  0  0  0  0  0  0  0  0  0  0  0
   -2.5574    2.4710    1.4431 H   0  0  0  0  0  0  0  0  0  0  0  0
   -4.9627    1.0282   -0.4817 N   0  0  0  0  0  0  0  0  0  0  0  0
  1  2  2  0  0  0  0
  1 12  1  0  0  0  0
  2  3  1  0  0  0  0
  3  4  2  0  0  0  0
  4 11  1  0  0  0  0
  5  4  1  0  0  0  0
  5 10  1  0  0  0  0
  6  1  1  0  0  0  0
  7  2  1  0  0  0  0
  8  9  3  0  0  0  0
 12  5  2  0  0  0  0
M  RAD  1   3   2
M  END
