Coordinates from ORCA-job Pyridine-4-N2+-scan-d09-160-n800
 OpenBabel09191813533D

 12 11  0  0  0  0  0  0  0  0999 V2000
   -4.1892    0.2407   -1.2386 C   0  0  0  0  0  0  0  0  0  0  0  0
   -2.7316    0.1414   -1.1426 C   0  0  0  0  0  0  0  0  0  0  0  0
   -2.3692    0.9726   -0.1778 C   0  0  0  0  0  0  0  0  0  0  0  0
   -2.9099    1.8230    0.6810 C   0  0  0  0  0  0  0  0  0  0  0  0
   -4.3530    1.7853    0.4365 C   0  0  0  0  0  0  0  0  0  0  0  0
   -4.6546   -0.3890   -1.9964 H   0  0  0  0  0  0  0  0  0  0  0  0
   -2.1773   -0.5231   -1.7950 H   0  0  0  0  0  0  0  0  0  0  0  0
   12.8531    0.2157    1.1399 N   0  0  0  0  0  0  0  0  0  0  0  0
   13.9529    0.1663    1.2410 N   0  0  0  0  0  0  0  0  0  0  0  0
   -4.9543    2.4377    1.0691 H   0  0  0  0  0  0  0  0  0  0  0  0
   -2.4944    2.4668    1.4473 H   0  0  0  0  0  0  0  0  0  0  0  0
   -4.9031    1.0264   -0.4752 N   0  0  0  0  0  0  0  0  0  0  0  0
  1  2  2  0  0  0  0
  1 12  1  0  0  0  0
  2  3  1  0  0  0  0
  3  4  2  0  0  0  0
  4 11  1  0  0  0  0
  5  4  1  0  0  0  0
  5 10  1  0  0  0  0
  6  1  1  0  0  0  0
  7  2  1  0  0  0  0
  8  9  3  0  0  0  0
 12  5  2  0  0  0  0
M  RAD  1   3   2
M  END
