Coordinates from ORCA-job Pyridine-4-N2+-scan-d09-160-n800
 OpenBabel09191813523D

 12 11  0  0  0  0  0  0  0  0999 V2000
   -2.2436    0.1596   -1.0531 C   0  0  0  0  0  0  0  0  0  0  0  0
   -0.7888    0.0280   -0.9926 C   0  0  0  0  0  0  0  0  0  0  0  0
   -0.3856    0.8482   -0.0340 C   0  0  0  0  0  0  0  0  0  0  0  0
   -0.8872    1.7076    0.8401 C   0  0  0  0  0  0  0  0  0  0  0  0
   -2.3340    1.7017    0.6295 C   0  0  0  0  0  0  0  0  0  0  0  0
   -2.7421   -0.4565   -1.8008 H   0  0  0  0  0  0  0  0  0  0  0  0
   -0.2606   -0.6446   -1.6576 H   0  0  0  0  0  0  0  0  0  0  0  0
    2.9399    0.7036    0.2764 N   0  0  0  0  0  0  0  0  0  0  0  0
    4.0392    0.6557    0.3790 N   0  0  0  0  0  0  0  0  0  0  0  0
   -2.9075    2.3643    1.2770 H   0  0  0  0  0  0  0  0  0  0  0  0
   -0.4355    2.3378    1.5966 H   0  0  0  0  0  0  0  0  0  0  0  0
   -2.9248    0.9582   -0.2713 N   0  0  0  0  0  0  0  0  0  0  0  0
  1  2  2  0  0  0  0
  1 12  1  0  0  0  0
  2  3  1  0  0  0  0
  3  4  2  0  0  0  0
  4 11  1  0  0  0  0
  5  4  1  0  0  0  0
  5 10  1  0  0  0  0
  6  1  1  0  0  0  0
  7  2  1  0  0  0  0
  8  9  3  0  0  0  0
 12  5  2  0  0  0  0
M  RAD  1   3   2
M  END
