Coordinates from ORCA-job Pyridine-4-N2+-scan-d09-160-n800
 OpenBabel09191813523D

 12 11  0  0  0  0  0  0  0  0999 V2000
   -2.4658    0.1692   -1.0739 C   0  0  0  0  0  0  0  0  0  0  0  0
   -1.0092    0.0386   -1.0122 C   0  0  0  0  0  0  0  0  0  0  0  0
   -0.6078    0.8590   -0.0536 C   0  0  0  0  0  0  0  0  0  0  0  0
   -1.1098    1.7181    0.8200 C   0  0  0  0  0  0  0  0  0  0  0  0
   -2.5582    1.7114    0.6086 C   0  0  0  0  0  0  0  0  0  0  0  0
   -2.9621   -0.4480   -1.8224 H   0  0  0  0  0  0  0  0  0  0  0  0
   -0.4831   -0.6349   -1.6785 H   0  0  0  0  0  0  0  0  0  0  0  0
    4.0524    0.6536    0.3785 N   0  0  0  0  0  0  0  0  0  0  0  0
    5.1520    0.6052    0.4807 N   0  0  0  0  0  0  0  0  0  0  0  0
   -3.1311    2.3742    1.2565 H   0  0  0  0  0  0  0  0  0  0  0  0
   -0.6619    2.3500    1.5778 H   0  0  0  0  0  0  0  0  0  0  0  0
   -3.1458    0.9673   -0.2923 N   0  0  0  0  0  0  0  0  0  0  0  0
  1  2  2  0  0  0  0
  1 12  1  0  0  0  0
  2  3  1  0  0  0  0
  3  4  2  0  0  0  0
  4 11  1  0  0  0  0
  5  4  1  0  0  0  0
  5 10  1  0  0  0  0
  6  1  1  0  0  0  0
  7  2  1  0  0  0  0
  8  9  3  0  0  0  0
 12  5  2  0  0  0  0
M  RAD  1   3   2
M  END
