Coordinates from ORCA-job Pyridine-4-N2+-scan-d09-160-n800
 OpenBabel09191813533D

 12 11  0  0  0  0  0  0  0  0999 V2000
   -4.0048    0.2331   -1.2208 C   0  0  0  0  0  0  0  0  0  0  0  0
   -2.5472    0.1298   -1.1292 C   0  0  0  0  0  0  0  0  0  0  0  0
   -2.1796    0.9597   -0.1652 C   0  0  0  0  0  0  0  0  0  0  0  0
   -2.7154    1.8112    0.6955 C   0  0  0  0  0  0  0  0  0  0  0  0
   -4.1593    1.7776    0.4553 C   0  0  0  0  0  0  0  0  0  0  0  0
   -4.4741   -0.3951   -1.9775 H   0  0  0  0  0  0  0  0  0  0  0  0
   -1.9967   -0.5358   -1.7836 H   0  0  0  0  0  0  0  0  0  0  0  0
   11.9067    0.2645    1.0600 N   0  0  0  0  0  0  0  0  0  0  0  0
   13.0066    0.2132    1.1590 N   0  0  0  0  0  0  0  0  0  0  0  0
   -4.7569    2.4314    1.0900 H   0  0  0  0  0  0  0  0  0  0  0  0
   -2.2959    2.4536    1.4608 H   0  0  0  0  0  0  0  0  0  0  0  0
   -4.7142    1.0205   -0.4550 N   0  0  0  0  0  0  0  0  0  0  0  0
  1  2  2  0  0  0  0
  1 12  1  0  0  0  0
  2  3  1  0  0  0  0
  3  4  2  0  0  0  0
  4 11  1  0  0  0  0
  5  4  1  0  0  0  0
  5 10  1  0  0  0  0
  6  1  1  0  0  0  0
  7  2  1  0  0  0  0
  8  9  3  0  0  0  0
 12  5  2  0  0  0  0
M  RAD  1   3   2
M  END
