Coordinates from ORCA-job Pyridine-4-N2+-scan-d09-160-n800
 OpenBabel09191813523D

 12 11  0  0  0  0  0  0  0  0999 V2000
   -3.0245    0.1926   -1.1269 C   0  0  0  0  0  0  0  0  0  0  0  0
   -1.5673    0.0703   -1.0564 C   0  0  0  0  0  0  0  0  0  0  0  0
   -1.1755    0.8936   -0.0962 C   0  0  0  0  0  0  0  0  0  0  0  0
   -1.6878    1.7503    0.7736 C   0  0  0  0  0  0  0  0  0  0  0  0
   -3.1353    1.7356    0.5539 C   0  0  0  0  0  0  0  0  0  0  0  0
   -3.5127   -0.4280   -1.8779 H   0  0  0  0  0  0  0  0  0  0  0  0
   -1.0346   -0.6010   -1.7196 H   0  0  0  0  0  0  0  0  0  0  0  0
    6.8923    0.5158    0.6282 N   0  0  0  0  0  0  0  0  0  0  0  0
    7.9920    0.4655    0.7284 N   0  0  0  0  0  0  0  0  0  0  0  0
   -3.7154    2.3958    1.1981 H   0  0  0  0  0  0  0  0  0  0  0  0
   -1.2490    2.3857    1.5338 H   0  0  0  0  0  0  0  0  0  0  0  0
   -3.7128    0.9876   -0.3497 N   0  0  0  0  0  0  0  0  0  0  0  0
  1  2  2  0  0  0  0
  1 12  1  0  0  0  0
  2  3  1  0  0  0  0
  3  4  2  0  0  0  0
  4 11  1  0  0  0  0
  5  4  1  0  0  0  0
  5 10  1  0  0  0  0
  6  1  1  0  0  0  0
  7  2  1  0  0  0  0
  8  9  3  0  0  0  0
 12  5  2  0  0  0  0
M  RAD  1   3   2
M  END
