Coordinates from ORCA-job Pyridine-4-N2+-scan-d09-160-n800
 OpenBabel09191813523D

 12 11  0  0  0  0  0  0  0  0999 V2000
   -2.7739    0.1822   -1.1030 C   0  0  0  0  0  0  0  0  0  0  0  0
   -1.3168    0.0555   -1.0372 C   0  0  0  0  0  0  0  0  0  0  0  0
   -0.9197    0.8772   -0.0780 C   0  0  0  0  0  0  0  0  0  0  0  0
   -1.4266    1.7351    0.7938 C   0  0  0  0  0  0  0  0  0  0  0  0
   -2.8747    1.7248    0.5788 C   0  0  0  0  0  0  0  0  0  0  0  0
   -3.2663   -0.4367   -1.8527 H   0  0  0  0  0  0  0  0  0  0  0  0
   -0.7881   -0.6171   -1.7023 H   0  0  0  0  0  0  0  0  0  0  0  0
    5.6136    0.5789    0.5170 N   0  0  0  0  0  0  0  0  0  0  0  0
    6.7133    0.5296    0.6182 N   0  0  0  0  0  0  0  0  0  0  0  0
   -3.4508    2.3865    1.2251 H   0  0  0  0  0  0  0  0  0  0  0  0
   -0.9832    2.3688    1.5529 H   0  0  0  0  0  0  0  0  0  0  0  0
   -3.4575    0.9789   -0.3233 N   0  0  0  0  0  0  0  0  0  0  0  0
  1  2  2  0  0  0  0
  1 12  1  0  0  0  0
  2  3  1  0  0  0  0
  3  4  2  0  0  0  0
  4 11  1  0  0  0  0
  5  4  1  0  0  0  0
  5 10  1  0  0  0  0
  6  1  1  0  0  0  0
  7  2  1  0  0  0  0
  8  9  3  0  0  0  0
 12  5  2  0  0  0  0
M  RAD  1   3   2
M  END
