Coordinates from ORCA-job Pyridine-4-N2+-scan-d09-160-n800
 OpenBabel09191813523D

 12 11  0  0  0  0  0  0  0  0999 V2000
   -2.6825    0.1783   -1.0944 C   0  0  0  0  0  0  0  0  0  0  0  0
   -1.2255    0.0503   -1.0300 C   0  0  0  0  0  0  0  0  0  0  0  0
   -0.8267    0.8715   -0.0711 C   0  0  0  0  0  0  0  0  0  0  0  0
   -1.3318    1.7297    0.8014 C   0  0  0  0  0  0  0  0  0  0  0  0
   -2.7801    1.7209    0.5878 C   0  0  0  0  0  0  0  0  0  0  0  0
   -3.1763   -0.4399   -1.8436 H   0  0  0  0  0  0  0  0  0  0  0  0
   -0.6980   -0.6227   -1.6957 H   0  0  0  0  0  0  0  0  0  0  0  0
    5.1486    0.6016    0.4763 N   0  0  0  0  0  0  0  0  0  0  0  0
    6.2482    0.5526    0.5778 N   0  0  0  0  0  0  0  0  0  0  0  0
   -3.3550    2.3830    1.2347 H   0  0  0  0  0  0  0  0  0  0  0  0
   -0.8869    2.3628    1.5600 H   0  0  0  0  0  0  0  0  0  0  0  0
   -3.3646    0.9756   -0.3139 N   0  0  0  0  0  0  0  0  0  0  0  0
  1  2  2  0  0  0  0
  1 12  1  0  0  0  0
  2  3  1  0  0  0  0
  3  4  2  0  0  0  0
  4 11  1  0  0  0  0
  5  4  1  0  0  0  0
  5 10  1  0  0  0  0
  6  1  1  0  0  0  0
  7  2  1  0  0  0  0
  8  9  3  0  0  0  0
 12  5  2  0  0  0  0
M  RAD  1   3   2
M  END
