Coordinates from ORCA-job Pyridine-4-N2+-scan-d09-160-n800
 OpenBabel09191813523D

 12 11  0  0  0  0  0  0  0  0999 V2000
   -2.3634    0.1648   -1.0643 C   0  0  0  0  0  0  0  0  0  0  0  0
   -0.9071    0.0336   -1.0033 C   0  0  0  0  0  0  0  0  0  0  0  0
   -0.5051    0.8539   -0.0448 C   0  0  0  0  0  0  0  0  0  0  0  0
   -1.0064    1.7130    0.8292 C   0  0  0  0  0  0  0  0  0  0  0  0
   -2.4545    1.7069    0.6183 C   0  0  0  0  0  0  0  0  0  0  0  0
   -2.8604   -0.4520   -1.8125 H   0  0  0  0  0  0  0  0  0  0  0  0
   -0.3807   -0.6397   -1.6693 H   0  0  0  0  0  0  0  0  0  0  0  0
    3.5375    0.6770    0.3316 N   0  0  0  0  0  0  0  0  0  0  0  0
    4.6370    0.6289    0.4340 N   0  0  0  0  0  0  0  0  0  0  0  0
   -3.0272    2.3698    1.2663 H   0  0  0  0  0  0  0  0  0  0  0  0
   -0.5571    2.3443    1.5865 H   0  0  0  0  0  0  0  0  0  0  0  0
   -3.0432    0.9632   -0.2824 N   0  0  0  0  0  0  0  0  0  0  0  0
  1  2  2  0  0  0  0
  1 12  1  0  0  0  0
  2  3  1  0  0  0  0
  3  4  2  0  0  0  0
  4 11  1  0  0  0  0
  5  4  1  0  0  0  0
  5 10  1  0  0  0  0
  6  1  1  0  0  0  0
  7  2  1  0  0  0  0
  8  9  3  0  0  0  0
 12  5  2  0  0  0  0
M  RAD  1   3   2
M  END
