Coordinates from ORCA-job Pyridine-4-N2+-scan-d09-160-n800
 OpenBabel09191813533D

 12 11  0  0  0  0  0  0  0  0999 V2000
   -4.2247    0.2421   -1.2420 C   0  0  0  0  0  0  0  0  0  0  0  0
   -2.7672    0.1436   -1.1451 C   0  0  0  0  0  0  0  0  0  0  0  0
   -2.4058    0.9751   -0.1801 C   0  0  0  0  0  0  0  0  0  0  0  0
   -2.9475    1.8253    0.6783 C   0  0  0  0  0  0  0  0  0  0  0  0
   -4.3904    1.7868    0.4328 C   0  0  0  0  0  0  0  0  0  0  0  0
   -4.6893   -0.3879   -2.0001 H   0  0  0  0  0  0  0  0  0  0  0  0
   -2.2121   -0.5205   -1.7971 H   0  0  0  0  0  0  0  0  0  0  0  0
   13.0358    0.2063    1.1554 N   0  0  0  0  0  0  0  0  0  0  0  0
   14.1355    0.1571    1.2567 N   0  0  0  0  0  0  0  0  0  0  0  0
   -4.9925    2.4389    1.0650 H   0  0  0  0  0  0  0  0  0  0  0  0
   -2.5329    2.4694    1.4447 H   0  0  0  0  0  0  0  0  0  0  0  0
   -4.9395    1.0276   -0.4792 N   0  0  0  0  0  0  0  0  0  0  0  0
  1  2  2  0  0  0  0
  1 12  1  0  0  0  0
  2  3  1  0  0  0  0
  3  4  2  0  0  0  0
  4 11  1  0  0  0  0
  5  4  1  0  0  0  0
  5 10  1  0  0  0  0
  6  1  1  0  0  0  0
  7  2  1  0  0  0  0
  8  9  3  0  0  0  0
 12  5  2  0  0  0  0
M  RAD  1   3   2
M  END
