Coordinates from ORCA-job Pyridine-4-N2+-scan-d09-160-n800
 OpenBabel09191813523D

 12 11  0  0  0  0  0  0  0  0999 V2000
   -2.0233    0.1482   -1.0347 C   0  0  0  0  0  0  0  0  0  0  0  0
   -0.5967    0.0201   -0.9741 C   0  0  0  0  0  0  0  0  0  0  0  0
   -0.1355    0.8372   -0.0107 C   0  0  0  0  0  0  0  0  0  0  0  0
   -0.6950    1.6986    0.8574 C   0  0  0  0  0  0  0  0  0  0  0  0
   -2.1138    1.6940    0.6521 C   0  0  0  0  0  0  0  0  0  0  0  0
   -2.5457   -0.4569   -1.7736 H   0  0  0  0  0  0  0  0  0  0  0  0
   -0.0490   -0.6452   -1.6283 H   0  0  0  0  0  0  0  0  0  0  0  0
    1.8952    0.7491    0.1790 N   0  0  0  0  0  0  0  0  0  0  0  0
    2.9936    0.7014    0.2816 N   0  0  0  0  0  0  0  0  0  0  0  0
   -2.7099    2.3476    1.2865 H   0  0  0  0  0  0  0  0  0  0  0  0
   -0.2226    2.3197    1.6069 H   0  0  0  0  0  0  0  0  0  0  0  0
   -2.7277    0.9497   -0.2528 N   0  0  0  0  0  0  0  0  0  0  0  0
  1  2  2  0  0  0  0
  1 12  1  0  0  0  0
  2  3  1  0  0  0  0
  3  4  2  0  0  0  0
  4 11  1  0  0  0  0
  5  4  1  0  0  0  0
  5 10  1  0  0  0  0
  6  1  1  0  0  0  0
  7  2  1  0  0  0  0
  8  9  3  0  0  0  0
 12  5  2  0  0  0  0
M  RAD  1   3   2
M  END
