Coordinates from ORCA-job Pyridine-4-N2+-scan-d09-160-n800
 OpenBabel09191813523D

 12 11  0  0  0  0  0  0  0  0999 V2000
   -3.0050    0.1918   -1.1251 C   0  0  0  0  0  0  0  0  0  0  0  0
   -1.5478    0.0692   -1.0549 C   0  0  0  0  0  0  0  0  0  0  0  0
   -1.1555    0.8923   -0.0948 C   0  0  0  0  0  0  0  0  0  0  0  0
   -1.6675    1.7491    0.7751 C   0  0  0  0  0  0  0  0  0  0  0  0
   -3.1150    1.7348    0.5559 C   0  0  0  0  0  0  0  0  0  0  0  0
   -3.4935   -0.4287   -1.8759 H   0  0  0  0  0  0  0  0  0  0  0  0
   -1.0154   -0.6023   -1.7183 H   0  0  0  0  0  0  0  0  0  0  0  0
    6.7926    0.5207    0.6196 N   0  0  0  0  0  0  0  0  0  0  0  0
    7.8924    0.4705    0.7198 N   0  0  0  0  0  0  0  0  0  0  0  0
   -3.6947    2.3951    1.2003 H   0  0  0  0  0  0  0  0  0  0  0  0
   -1.2283    2.3843    1.5353 H   0  0  0  0  0  0  0  0  0  0  0  0
   -3.6929    0.9869   -0.3477 N   0  0  0  0  0  0  0  0  0  0  0  0
  1  2  2  0  0  0  0
  1 12  1  0  0  0  0
  2  3  1  0  0  0  0
  3  4  2  0  0  0  0
  4 11  1  0  0  0  0
  5  4  1  0  0  0  0
  5 10  1  0  0  0  0
  6  1  1  0  0  0  0
  7  2  1  0  0  0  0
  8  9  3  0  0  0  0
 12  5  2  0  0  0  0
M  RAD  1   3   2
M  END
