Coordinates from ORCA-job Pyridine-4-N2+-scan-d09-160-n800
 OpenBabel09191813523D

 12 11  0  0  0  0  0  0  0  0999 V2000
   -2.2536    0.1600   -1.0541 C   0  0  0  0  0  0  0  0  0  0  0  0
   -0.7986    0.0285   -0.9935 C   0  0  0  0  0  0  0  0  0  0  0  0
   -0.3956    0.8487   -0.0349 C   0  0  0  0  0  0  0  0  0  0  0  0
   -0.8971    1.7081    0.8392 C   0  0  0  0  0  0  0  0  0  0  0  0
   -2.3441    1.7021    0.6286 C   0  0  0  0  0  0  0  0  0  0  0  0
   -2.7519   -0.4562   -1.8018 H   0  0  0  0  0  0  0  0  0  0  0  0
   -0.2706   -0.6442   -1.6586 H   0  0  0  0  0  0  0  0  0  0  0  0
    2.9896    0.7014    0.2811 N   0  0  0  0  0  0  0  0  0  0  0  0
    4.0889    0.6535    0.3836 N   0  0  0  0  0  0  0  0  0  0  0  0
   -2.9174    2.3648    1.2762 H   0  0  0  0  0  0  0  0  0  0  0  0
   -0.4456    2.3383    1.5958 H   0  0  0  0  0  0  0  0  0  0  0  0
   -2.9346    0.9586   -0.2722 N   0  0  0  0  0  0  0  0  0  0  0  0
  1  2  2  0  0  0  0
  1 12  1  0  0  0  0
  2  3  1  0  0  0  0
  3  4  2  0  0  0  0
  4 11  1  0  0  0  0
  5  4  1  0  0  0  0
  5 10  1  0  0  0  0
  6  1  1  0  0  0  0
  7  2  1  0  0  0  0
  8  9  3  0  0  0  0
 12  5  2  0  0  0  0
M  RAD  1   3   2
M  END
