Coordinates from ORCA-job Pyridine-4-N2+-scan-d09-160-n800
 OpenBabel09191813533D

 12 11  0  0  0  0  0  0  0  0999 V2000
   -3.5053    0.2125   -1.1729 C   0  0  0  0  0  0  0  0  0  0  0  0
   -2.0478    0.0993   -1.0924 C   0  0  0  0  0  0  0  0  0  0  0  0
   -1.6674    0.9257   -0.1304 C   0  0  0  0  0  0  0  0  0  0  0  0
   -2.1910    1.7800    0.7352 C   0  0  0  0  0  0  0  0  0  0  0  0
   -3.6369    1.7563    0.5058 C   0  0  0  0  0  0  0  0  0  0  0  0
   -3.9845   -0.4118   -1.9266 H   0  0  0  0  0  0  0  0  0  0  0  0
   -1.5066   -0.5694   -1.7514 H   0  0  0  0  0  0  0  0  0  0  0  0
    9.3498    0.3934    0.8407 N   0  0  0  0  0  0  0  0  0  0  0  0
   10.4496    0.3416    0.9392 N   0  0  0  0  0  0  0  0  0  0  0  0
   -4.2253    2.4134    1.1455 H   0  0  0  0  0  0  0  0  0  0  0  0
   -1.7614    2.4188    1.4978 H   0  0  0  0  0  0  0  0  0  0  0  0
   -4.2036    1.0039   -0.4011 N   0  0  0  0  0  0  0  0  0  0  0  0
  1  2  2  0  0  0  0
  1 12  1  0  0  0  0
  2  3  1  0  0  0  0
  3  4  2  0  0  0  0
  4 11  1  0  0  0  0
  5  4  1  0  0  0  0
  5 10  1  0  0  0  0
  6  1  1  0  0  0  0
  7  2  1  0  0  0  0
  8  9  3  0  0  0  0
 12  5  2  0  0  0  0
M  RAD  1   3   2
M  END
