Coordinates from ORCA-job Pyridine-4-N2+-scan-d09-160-n800
 OpenBabel09191813523D

 12 11  0  0  0  0  0  0  0  0999 V2000
   -2.4163    0.1671   -1.0693 C   0  0  0  0  0  0  0  0  0  0  0  0
   -0.9598    0.0361   -1.0079 C   0  0  0  0  0  0  0  0  0  0  0  0
   -0.5581    0.8565   -0.0494 C   0  0  0  0  0  0  0  0  0  0  0  0
   -1.0596    1.7156    0.8244 C   0  0  0  0  0  0  0  0  0  0  0  0
   -2.5080    1.7092    0.6133 C   0  0  0  0  0  0  0  0  0  0  0  0
   -2.9130   -0.4499   -1.8176 H   0  0  0  0  0  0  0  0  0  0  0  0
   -0.4337   -0.6373   -1.6741 H   0  0  0  0  0  0  0  0  0  0  0  0
    3.8032    0.6650    0.3559 N   0  0  0  0  0  0  0  0  0  0  0  0
    4.9027    0.6168    0.4582 N   0  0  0  0  0  0  0  0  0  0  0  0
   -3.0807    2.3721    1.2613 H   0  0  0  0  0  0  0  0  0  0  0  0
   -0.6111    2.3472    1.5820 H   0  0  0  0  0  0  0  0  0  0  0  0
   -3.0961    0.9654   -0.2875 N   0  0  0  0  0  0  0  0  0  0  0  0
  1  2  2  0  0  0  0
  1 12  1  0  0  0  0
  2  3  1  0  0  0  0
  3  4  2  0  0  0  0
  4 11  1  0  0  0  0
  5  4  1  0  0  0  0
  5 10  1  0  0  0  0
  6  1  1  0  0  0  0
  7  2  1  0  0  0  0
  8  9  3  0  0  0  0
 12  5  2  0  0  0  0
M  RAD  1   3   2
M  END
