Coordinates from ORCA-job Pyridine-4-N2+-scan-d09-160-n800
 OpenBabel09191813523D

 12 11  0  0  0  0  0  0  0  0999 V2000
   -2.3036    0.1622   -1.0588 C   0  0  0  0  0  0  0  0  0  0  0  0
   -0.8478    0.0308   -0.9979 C   0  0  0  0  0  0  0  0  0  0  0  0
   -0.4455    0.8510   -0.0394 C   0  0  0  0  0  0  0  0  0  0  0  0
   -0.9466    1.7103    0.8346 C   0  0  0  0  0  0  0  0  0  0  0  0
   -2.3943    1.7043    0.6239 C   0  0  0  0  0  0  0  0  0  0  0  0
   -2.8012   -0.4543   -1.8068 H   0  0  0  0  0  0  0  0  0  0  0  0
   -0.3208   -0.6423   -1.6636 H   0  0  0  0  0  0  0  0  0  0  0  0
    3.2385    0.6904    0.3041 N   0  0  0  0  0  0  0  0  0  0  0  0
    4.3380    0.6424    0.4066 N   0  0  0  0  0  0  0  0  0  0  0  0
   -2.9672    2.3671    1.2718 H   0  0  0  0  0  0  0  0  0  0  0  0
   -0.4962    2.3411    1.5916 H   0  0  0  0  0  0  0  0  0  0  0  0
   -2.9838    0.9607   -0.2768 N   0  0  0  0  0  0  0  0  0  0  0  0
  1  2  2  0  0  0  0
  1 12  1  0  0  0  0
  2  3  1  0  0  0  0
  3  4  2  0  0  0  0
  4 11  1  0  0  0  0
  5  4  1  0  0  0  0
  5 10  1  0  0  0  0
  6  1  1  0  0  0  0
  7  2  1  0  0  0  0
  8  9  3  0  0  0  0
 12  5  2  0  0  0  0
M  RAD  1   3   2
M  END
