Coordinates from ORCA-job Pyridine-4-N2+-scan-d09-160-n800
 OpenBabel09191813533D

 12 11  0  0  0  0  0  0  0  0999 V2000
   -3.3689    0.2068   -1.1599 C   0  0  0  0  0  0  0  0  0  0  0  0
   -1.9114    0.0911   -1.0822 C   0  0  0  0  0  0  0  0  0  0  0  0
   -1.5278    0.9166   -0.1207 C   0  0  0  0  0  0  0  0  0  0  0  0
   -2.0482    1.7715    0.7460 C   0  0  0  0  0  0  0  0  0  0  0  0
   -3.4945    1.7504    0.5194 C   0  0  0  0  0  0  0  0  0  0  0  0
   -3.8507   -0.4164   -1.9128 H   0  0  0  0  0  0  0  0  0  0  0  0
   -1.3728   -0.5784   -1.7425 H   0  0  0  0  0  0  0  0  0  0  0  0
    8.6524    0.4282    0.7805 N   0  0  0  0  0  0  0  0  0  0  0  0
    9.7522    0.3768    0.8794 N   0  0  0  0  0  0  0  0  0  0  0  0
   -4.0805    2.4085    1.1605 H   0  0  0  0  0  0  0  0  0  0  0  0
   -1.6159    2.4094    1.5080 H   0  0  0  0  0  0  0  0  0  0  0  0
   -4.0644    0.9993   -0.3865 N   0  0  0  0  0  0  0  0  0  0  0  0
  1  2  2  0  0  0  0
  1 12  1  0  0  0  0
  2  3  1  0  0  0  0
  3  4  2  0  0  0  0
  4 11  1  0  0  0  0
  5  4  1  0  0  0  0
  5 10  1  0  0  0  0
  6  1  1  0  0  0  0
  7  2  1  0  0  0  0
  8  9  3  0  0  0  0
 12  5  2  0  0  0  0
M  RAD  1   3   2
M  END
