Coordinates from ORCA-job Pyridine-4-N2+-scan-d09-160-n800
 OpenBabel09191813533D

 12 11  0  0  0  0  0  0  0  0999 V2000
   -3.7097    0.2209   -1.1925 C   0  0  0  0  0  0  0  0  0  0  0  0
   -2.2521    0.1117   -1.1075 C   0  0  0  0  0  0  0  0  0  0  0  0
   -1.8769    0.9395   -0.1447 C   0  0  0  0  0  0  0  0  0  0  0  0
   -2.4054    1.7927    0.7189 C   0  0  0  0  0  0  0  0  0  0  0  0
   -3.8505    1.7650    0.4852 C   0  0  0  0  0  0  0  0  0  0  0  0
   -4.1850   -0.4049   -1.9474 H   0  0  0  0  0  0  0  0  0  0  0  0
   -1.7073   -0.5557   -1.7647 H   0  0  0  0  0  0  0  0  0  0  0  0
   10.3958    0.3411    0.9309 N   0  0  0  0  0  0  0  0  0  0  0  0
   11.4957    0.2888    1.0288 N   0  0  0  0  0  0  0  0  0  0  0  0
   -4.4427    2.4208    1.1229 H   0  0  0  0  0  0  0  0  0  0  0  0
   -1.9799    2.4330    1.4826 H   0  0  0  0  0  0  0  0  0  0  0  0
   -4.4125    1.0107   -0.4231 N   0  0  0  0  0  0  0  0  0  0  0  0
  1  2  2  0  0  0  0
  1 12  1  0  0  0  0
  2  3  1  0  0  0  0
  3  4  2  0  0  0  0
  4 11  1  0  0  0  0
  5  4  1  0  0  0  0
  5 10  1  0  0  0  0
  6  1  1  0  0  0  0
  7  2  1  0  0  0  0
  8  9  3  0  0  0  0
 12  5  2  0  0  0  0
M  RAD  1   3   2
M  END
