Coordinates from ORCA-job Pyridine-4-N2+-scan-d09-160-n800
 OpenBabel09191813533D

 12 11  0  0  0  0  0  0  0  0999 V2000
   -3.6805    0.2197   -1.1897 C   0  0  0  0  0  0  0  0  0  0  0  0
   -2.2229    0.1100   -1.1054 C   0  0  0  0  0  0  0  0  0  0  0  0
   -1.8470    0.9376   -0.1427 C   0  0  0  0  0  0  0  0  0  0  0  0
   -2.3748    1.7909    0.7212 C   0  0  0  0  0  0  0  0  0  0  0  0
   -3.8200    1.7638    0.4881 C   0  0  0  0  0  0  0  0  0  0  0  0
   -4.1563   -0.4059   -1.9444 H   0  0  0  0  0  0  0  0  0  0  0  0
   -1.6786   -0.5577   -1.7628 H   0  0  0  0  0  0  0  0  0  0  0  0
   10.2464    0.3486    0.9180 N   0  0  0  0  0  0  0  0  0  0  0  0
   11.3462    0.2964    1.0160 N   0  0  0  0  0  0  0  0  0  0  0  0
   -4.4116    2.4198    1.1261 H   0  0  0  0  0  0  0  0  0  0  0  0
   -1.9487    2.4309    1.4848 H   0  0  0  0  0  0  0  0  0  0  0  0
   -4.3827    1.0097   -0.4199 N   0  0  0  0  0  0  0  0  0  0  0  0
  1  2  2  0  0  0  0
  1 12  1  0  0  0  0
  2  3  1  0  0  0  0
  3  4  2  0  0  0  0
  4 11  1  0  0  0  0
  5  4  1  0  0  0  0
  5 10  1  0  0  0  0
  6  1  1  0  0  0  0
  7  2  1  0  0  0  0
  8  9  3  0  0  0  0
 12  5  2  0  0  0  0
M  RAD  1   3   2
M  END
