Coordinates from ORCA-job Pyridine-4-N2+-scan-d09-160-n800
 OpenBabel09191813523D

 12 11  0  0  0  0  0  0  0  0999 V2000
   -2.8489    0.1853   -1.1102 C   0  0  0  0  0  0  0  0  0  0  0  0
   -1.3917    0.0599   -1.0430 C   0  0  0  0  0  0  0  0  0  0  0  0
   -0.9961    0.8820   -0.0835 C   0  0  0  0  0  0  0  0  0  0  0  0
   -1.5045    1.7396    0.7877 C   0  0  0  0  0  0  0  0  0  0  0  0
   -2.9525    1.7281    0.5714 C   0  0  0  0  0  0  0  0  0  0  0  0
   -3.3401   -0.4341   -1.8602 H   0  0  0  0  0  0  0  0  0  0  0  0
   -0.8619   -0.6124   -1.7076 H   0  0  0  0  0  0  0  0  0  0  0  0
    5.9956    0.5602    0.5503 N   0  0  0  0  0  0  0  0  0  0  0  0
    7.0952    0.5105    0.6512 N   0  0  0  0  0  0  0  0  0  0  0  0
   -3.5297    2.3893    1.2171 H   0  0  0  0  0  0  0  0  0  0  0  0
   -1.0624    2.3738    1.5471 H   0  0  0  0  0  0  0  0  0  0  0  0
   -3.5337    0.9815   -0.3312 N   0  0  0  0  0  0  0  0  0  0  0  0
  1  2  2  0  0  0  0
  1 12  1  0  0  0  0
  2  3  1  0  0  0  0
  3  4  2  0  0  0  0
  4 11  1  0  0  0  0
  5  4  1  0  0  0  0
  5 10  1  0  0  0  0
  6  1  1  0  0  0  0
  7  2  1  0  0  0  0
  8  9  3  0  0  0  0
 12  5  2  0  0  0  0
M  RAD  1   3   2
M  END
