Coordinates from ORCA-job Pyridine-4-N2+-scan-d09-160-n800
 OpenBabel09191813533D

 12 11  0  0  0  0  0  0  0  0999 V2000
   -4.3087    0.2455   -1.2502 C   0  0  0  0  0  0  0  0  0  0  0  0
   -2.8511    0.1490   -1.1510 C   0  0  0  0  0  0  0  0  0  0  0  0
   -2.4923    0.9811   -0.1857 C   0  0  0  0  0  0  0  0  0  0  0  0
   -3.0365    1.8308    0.6717 C   0  0  0  0  0  0  0  0  0  0  0  0
   -4.4790    1.7903    0.4241 C   0  0  0  0  0  0  0  0  0  0  0  0
   -4.7712   -0.3853   -2.0088 H   0  0  0  0  0  0  0  0  0  0  0  0
   -2.2942   -0.5145   -1.8021 H   0  0  0  0  0  0  0  0  0  0  0  0
   13.4674    0.1842    1.1920 N   0  0  0  0  0  0  0  0  0  0  0  0
   14.5672    0.1353    1.2936 N   0  0  0  0  0  0  0  0  0  0  0  0
   -5.0828    2.4417    1.0553 H   0  0  0  0  0  0  0  0  0  0  0  0
   -2.6239    2.4756    1.4387 H   0  0  0  0  0  0  0  0  0  0  0  0
   -5.0256    1.0301   -0.4886 N   0  0  0  0  0  0  0  0  0  0  0  0
  1  2  2  0  0  0  0
  1 12  1  0  0  0  0
  2  3  1  0  0  0  0
  3  4  2  0  0  0  0
  4 11  1  0  0  0  0
  5  4  1  0  0  0  0
  5 10  1  0  0  0  0
  6  1  1  0  0  0  0
  7  2  1  0  0  0  0
  8  9  3  0  0  0  0
 12  5  2  0  0  0  0
M  RAD  1   3   2
M  END
