Coordinates from ORCA-job Pyridine-4-N2+-scan-d09-160-n800
 OpenBabel09191813523D

 12 11  0  0  0  0  0  0  0  0999 V2000
   -2.0032    0.1459   -1.0344 C   0  0  0  0  0  0  0  0  0  0  0  0
   -0.5841    0.0196   -0.9729 C   0  0  0  0  0  0  0  0  0  0  0  0
   -0.1037    0.8359   -0.0077 C   0  0  0  0  0  0  0  0  0  0  0  0
   -0.6824    1.6981    0.8585 C   0  0  0  0  0  0  0  0  0  0  0  0
   -2.0939    1.6946    0.6556 C   0  0  0  0  0  0  0  0  0  0  0  0
   -2.5331   -0.4556   -1.7704 H   0  0  0  0  0  0  0  0  0  0  0  0
   -0.0307   -0.6439   -1.6243 H   0  0  0  0  0  0  0  0  0  0  0  0
    1.8075    0.7529    0.1708 N   0  0  0  0  0  0  0  0  0  0  0  0
    2.9058    0.7052    0.2734 N   0  0  0  0  0  0  0  0  0  0  0  0
   -2.6971    2.3452    1.2857 H   0  0  0  0  0  0  0  0  0  0  0  0
   -0.2041    2.3168    1.6063 H   0  0  0  0  0  0  0  0  0  0  0  0
   -2.7117    0.9490   -0.2513 N   0  0  0  0  0  0  0  0  0  0  0  0
  1  2  2  0  0  0  0
  1 12  1  0  0  0  0
  2  3  1  0  0  0  0
  3  4  2  0  0  0  0
  4 11  1  0  0  0  0
  5  4  1  0  0  0  0
  5 10  1  0  0  0  0
  6  1  1  0  0  0  0
  7  2  1  0  0  0  0
  8  9  3  0  0  0  0
 12  5  2  0  0  0  0
M  RAD  1   3   2
M  END
