Coordinates from ORCA-job Pyridine-4-N2+-scan-d09-160-n800
 OpenBabel09191813523D

 12 11  0  0  0  0  0  0  0  0999 V2000
   -2.6498    0.1770   -1.0913 C   0  0  0  0  0  0  0  0  0  0  0  0
   -1.1929    0.0484   -1.0274 C   0  0  0  0  0  0  0  0  0  0  0  0
   -0.7935    0.8695   -0.0686 C   0  0  0  0  0  0  0  0  0  0  0  0
   -1.2980    1.7279    0.8041 C   0  0  0  0  0  0  0  0  0  0  0  0
   -2.7464    1.7195    0.5909 C   0  0  0  0  0  0  0  0  0  0  0  0
   -3.1441   -0.4411   -1.8403 H   0  0  0  0  0  0  0  0  0  0  0  0
   -0.6657   -0.6247   -1.6932 H   0  0  0  0  0  0  0  0  0  0  0  0
    4.9825    0.6097    0.4616 N   0  0  0  0  0  0  0  0  0  0  0  0
    6.0821    0.5607    0.5633 N   0  0  0  0  0  0  0  0  0  0  0  0
   -3.3208    2.3817    1.2381 H   0  0  0  0  0  0  0  0  0  0  0  0
   -0.8526    2.3607    1.5626 H   0  0  0  0  0  0  0  0  0  0  0  0
   -3.3314    0.9744   -0.3105 N   0  0  0  0  0  0  0  0  0  0  0  0
  1  2  2  0  0  0  0
  1 12  1  0  0  0  0
  2  3  1  0  0  0  0
  3  4  2  0  0  0  0
  4 11  1  0  0  0  0
  5  4  1  0  0  0  0
  5 10  1  0  0  0  0
  6  1  1  0  0  0  0
  7  2  1  0  0  0  0
  8  9  3  0  0  0  0
 12  5  2  0  0  0  0
M  RAD  1   3   2
M  END
