Coordinates from ORCA-job Pyridine-4-N2+-scan-d09-160-n800
 OpenBabel09191813523D

 12 11  0  0  0  0  0  0  0  0999 V2000
   -2.4955    0.1705   -1.0767 C   0  0  0  0  0  0  0  0  0  0  0  0
   -1.0388    0.0401   -1.0148 C   0  0  0  0  0  0  0  0  0  0  0  0
   -0.6377    0.8606   -0.0561 C   0  0  0  0  0  0  0  0  0  0  0  0
   -1.1399    1.7196    0.8174 C   0  0  0  0  0  0  0  0  0  0  0  0
   -2.5884    1.7127    0.6058 C   0  0  0  0  0  0  0  0  0  0  0  0
   -2.9915   -0.4468   -1.8252 H   0  0  0  0  0  0  0  0  0  0  0  0
   -0.5126   -0.6333   -1.6810 H   0  0  0  0  0  0  0  0  0  0  0  0
    4.2018    0.6466    0.3920 N   0  0  0  0  0  0  0  0  0  0  0  0
    5.3014    0.5982    0.4941 N   0  0  0  0  0  0  0  0  0  0  0  0
   -3.1615    2.3754    1.2536 H   0  0  0  0  0  0  0  0  0  0  0  0
   -0.6924    2.3516    1.5754 H   0  0  0  0  0  0  0  0  0  0  0  0
   -3.1756    0.9685   -0.2952 N   0  0  0  0  0  0  0  0  0  0  0  0
  1  2  2  0  0  0  0
  1 12  1  0  0  0  0
  2  3  1  0  0  0  0
  3  4  2  0  0  0  0
  4 11  1  0  0  0  0
  5  4  1  0  0  0  0
  5 10  1  0  0  0  0
  6  1  1  0  0  0  0
  7  2  1  0  0  0  0
  8  9  3  0  0  0  0
 12  5  2  0  0  0  0
M  RAD  1   3   2
M  END
