Coordinates from ORCA-job Pyridine-4-N2+-scan-d09-160-n800
 OpenBabel09191813523D

 12 11  0  0  0  0  0  0  0  0999 V2000
   -2.8358    0.1847   -1.1089 C   0  0  0  0  0  0  0  0  0  0  0  0
   -1.3787    0.0591   -1.0420 C   0  0  0  0  0  0  0  0  0  0  0  0
   -0.9828    0.8812   -0.0826 C   0  0  0  0  0  0  0  0  0  0  0  0
   -1.4909    1.7388    0.7888 C   0  0  0  0  0  0  0  0  0  0  0  0
   -2.9389    1.7275    0.5727 C   0  0  0  0  0  0  0  0  0  0  0  0
   -3.3273   -0.4345   -1.8589 H   0  0  0  0  0  0  0  0  0  0  0  0
   -0.8491   -0.6132   -1.7066 H   0  0  0  0  0  0  0  0  0  0  0  0
    5.9291    0.5635    0.5446 N   0  0  0  0  0  0  0  0  0  0  0  0
    7.0288    0.5138    0.6455 N   0  0  0  0  0  0  0  0  0  0  0  0
   -3.5159    2.3888    1.2185 H   0  0  0  0  0  0  0  0  0  0  0  0
   -1.0486    2.3729    1.5481 H   0  0  0  0  0  0  0  0  0  0  0  0
   -3.5205    0.9811   -0.3298 N   0  0  0  0  0  0  0  0  0  0  0  0
  1  2  2  0  0  0  0
  1 12  1  0  0  0  0
  2  3  1  0  0  0  0
  3  4  2  0  0  0  0
  4 11  1  0  0  0  0
  5  4  1  0  0  0  0
  5 10  1  0  0  0  0
  6  1  1  0  0  0  0
  7  2  1  0  0  0  0
  8  9  3  0  0  0  0
 12  5  2  0  0  0  0
M  RAD  1   3   2
M  END
