Coordinates from ORCA-job Pyridine-4-N2+-scan-d09-160-n800
 OpenBabel09191813533D

 12 11  0  0  0  0  0  0  0  0999 V2000
   -3.8589    0.2271   -1.2068 C   0  0  0  0  0  0  0  0  0  0  0  0
   -2.4013    0.1209   -1.1185 C   0  0  0  0  0  0  0  0  0  0  0  0
   -2.0299    0.9497   -0.1551 C   0  0  0  0  0  0  0  0  0  0  0  0
   -2.5621    1.8021    0.7071 C   0  0  0  0  0  0  0  0  0  0  0  0
   -4.0066    1.7714    0.4701 C   0  0  0  0  0  0  0  0  0  0  0  0
   -4.3312   -0.3999   -1.9626 H   0  0  0  0  0  0  0  0  0  0  0  0
   -1.8536   -0.5457   -1.7743 H   0  0  0  0  0  0  0  0  0  0  0  0
   11.1595    0.3029    0.9967 N   0  0  0  0  0  0  0  0  0  0  0  0
   12.2594    0.2502    1.0942 N   0  0  0  0  0  0  0  0  0  0  0  0
   -4.6015    2.4262    1.1063 H   0  0  0  0  0  0  0  0  0  0  0  0
   -2.1396    2.4434    1.4716 H   0  0  0  0  0  0  0  0  0  0  0  0
   -4.5650    1.0157   -0.4392 N   0  0  0  0  0  0  0  0  0  0  0  0
  1  2  2  0  0  0  0
  1 12  1  0  0  0  0
  2  3  1  0  0  0  0
  3  4  2  0  0  0  0
  4 11  1  0  0  0  0
  5  4  1  0  0  0  0
  5 10  1  0  0  0  0
  6  1  1  0  0  0  0
  7  2  1  0  0  0  0
  8  9  3  0  0  0  0
 12  5  2  0  0  0  0
M  RAD  1   3   2
M  END
