Coordinates from ORCA-job Pyridine-4-N2+-scan-d09-160-n800
 OpenBabel09191813523D

 12 11  0  0  0  0  0  0  0  0999 V2000
   -2.9075    0.1877   -1.1158 C   0  0  0  0  0  0  0  0  0  0  0  0
   -1.4503    0.0634   -1.0475 C   0  0  0  0  0  0  0  0  0  0  0  0
   -1.0559    0.8858   -0.0878 C   0  0  0  0  0  0  0  0  0  0  0  0
   -1.5656    1.7431    0.7830 C   0  0  0  0  0  0  0  0  0  0  0  0
   -3.0134    1.7306    0.5656 C   0  0  0  0  0  0  0  0  0  0  0  0
   -3.3977   -0.4320   -1.8661 H   0  0  0  0  0  0  0  0  0  0  0  0
   -0.9195   -0.6086   -1.7116 H   0  0  0  0  0  0  0  0  0  0  0  0
    6.2945    0.5454    0.5763 N   0  0  0  0  0  0  0  0  0  0  0  0
    7.3942    0.4955    0.6770 N   0  0  0  0  0  0  0  0  0  0  0  0
   -3.5915    2.3915    1.2108 H   0  0  0  0  0  0  0  0  0  0  0  0
   -1.1246    2.3777    1.5427 H   0  0  0  0  0  0  0  0  0  0  0  0
   -3.5934    0.9835   -0.3373 N   0  0  0  0  0  0  0  0  0  0  0  0
  1  2  2  0  0  0  0
  1 12  1  0  0  0  0
  2  3  1  0  0  0  0
  3  4  2  0  0  0  0
  4 11  1  0  0  0  0
  5  4  1  0  0  0  0
  5 10  1  0  0  0  0
  6  1  1  0  0  0  0
  7  2  1  0  0  0  0
  8  9  3  0  0  0  0
 12  5  2  0  0  0  0
M  RAD  1   3   2
M  END
