Coordinates from ORCA-job Pyridine-4-N2+-scan-d09-160-n800
 OpenBabel09191813523D

 12 11  0  0  0  0  0  0  0  0999 V2000
   -2.2903    0.1616   -1.0575 C   0  0  0  0  0  0  0  0  0  0  0  0
   -0.8347    0.0301   -0.9968 C   0  0  0  0  0  0  0  0  0  0  0  0
   -0.4322    0.8504   -0.0382 C   0  0  0  0  0  0  0  0  0  0  0  0
   -0.9334    1.7097    0.8358 C   0  0  0  0  0  0  0  0  0  0  0  0
   -2.3809    1.7037    0.6251 C   0  0  0  0  0  0  0  0  0  0  0  0
   -2.7881   -0.4548   -1.8055 H   0  0  0  0  0  0  0  0  0  0  0  0
   -0.3074   -0.6428   -1.6623 H   0  0  0  0  0  0  0  0  0  0  0  0
    3.1721    0.6934    0.2980 N   0  0  0  0  0  0  0  0  0  0  0  0
    4.2715    0.6454    0.4005 N   0  0  0  0  0  0  0  0  0  0  0  0
   -2.9539    2.3665    1.2730 H   0  0  0  0  0  0  0  0  0  0  0  0
   -0.4827    2.3403    1.5927 H   0  0  0  0  0  0  0  0  0  0  0  0
   -2.9707    0.9602   -0.2756 N   0  0  0  0  0  0  0  0  0  0  0  0
  1  2  2  0  0  0  0
  1 12  1  0  0  0  0
  2  3  1  0  0  0  0
  3  4  2  0  0  0  0
  4 11  1  0  0  0  0
  5  4  1  0  0  0  0
  5 10  1  0  0  0  0
  6  1  1  0  0  0  0
  7  2  1  0  0  0  0
  8  9  3  0  0  0  0
 12  5  2  0  0  0  0
M  RAD  1   3   2
M  END
