Coordinates from ORCA-job Pyridine-4-N2+-scan-d09-160-n800
 OpenBabel09191813533D

 12 11  0  0  0  0  0  0  0  0999 V2000
   -4.3345    0.2465   -1.2527 C   0  0  0  0  0  0  0  0  0  0  0  0
   -2.8769    0.1507   -1.1528 C   0  0  0  0  0  0  0  0  0  0  0  0
   -2.5189    0.9830   -0.1873 C   0  0  0  0  0  0  0  0  0  0  0  0
   -3.0639    1.8325    0.6697 C   0  0  0  0  0  0  0  0  0  0  0  0
   -4.5062    1.7914    0.4214 C   0  0  0  0  0  0  0  0  0  0  0  0
   -4.7963   -0.3845   -2.0115 H   0  0  0  0  0  0  0  0  0  0  0  0
   -2.3194   -0.5127   -1.8035 H   0  0  0  0  0  0  0  0  0  0  0  0
   13.6003    0.1774    1.2033 N   0  0  0  0  0  0  0  0  0  0  0  0
   14.7000    0.1285    1.3050 N   0  0  0  0  0  0  0  0  0  0  0  0
   -5.1107    2.4426    1.0523 H   0  0  0  0  0  0  0  0  0  0  0  0
   -2.6519    2.4775    1.4369 H   0  0  0  0  0  0  0  0  0  0  0  0
   -5.0521    1.0309   -0.4915 N   0  0  0  0  0  0  0  0  0  0  0  0
  1  2  2  0  0  0  0
  1 12  1  0  0  0  0
  2  3  1  0  0  0  0
  3  4  2  0  0  0  0
  4 11  1  0  0  0  0
  5  4  1  0  0  0  0
  5 10  1  0  0  0  0
  6  1  1  0  0  0  0
  7  2  1  0  0  0  0
  8  9  3  0  0  0  0
 12  5  2  0  0  0  0
M  RAD  1   3   2
M  END
