Coordinates from ORCA-job Pyridine-4-N2+-scan-d09-160-n800
 OpenBabel09191813523D

 12 12  0  0  0  0  0  0  0  0999 V2000
   -1.9871    0.1436   -1.0346 C   0  0  0  0  0  0  0  0  0  0  0  0
   -0.5748    0.0194   -0.9718 C   0  0  0  0  0  0  0  0  0  0  0  0
   -0.0743    0.8346   -0.0050 C   0  0  0  0  0  0  0  0  0  0  0  0
   -0.6730    1.6975    0.8592 C   0  0  0  0  0  0  0  0  0  0  0  0
   -2.0780    1.6955    0.6588 C   0  0  0  0  0  0  0  0  0  0  0  0
   -2.5240   -0.4545   -1.7679 H   0  0  0  0  0  0  0  0  0  0  0  0
   -0.0166   -0.6427   -1.6210 H   0  0  0  0  0  0  0  0  0  0  0  0
    1.7372    0.7560    0.1642 N   0  0  0  0  0  0  0  0  0  0  0  0
    2.8356    0.7083    0.2668 N   0  0  0  0  0  0  0  0  0  0  0  0
   -2.6877    2.3433    1.2849 H   0  0  0  0  0  0  0  0  0  0  0  0
   -0.1897    2.3143    1.6056 H   0  0  0  0  0  0  0  0  0  0  0  0
   -2.6982    0.9484   -0.2501 N   0  0  0  0  0  0  0  0  0  0  0  0
  1  2  2  0  0  0  0
  1 12  1  0  0  0  0
  2  3  1  0  0  0  0
  3  8  1  0  0  0  0
  3  4  2  0  0  0  0
  4 11  1  0  0  0  0
  5  4  1  0  0  0  0
  5 10  1  0  0  0  0
  6  1  1  0  0  0  0
  7  2  1  0  0  0  0
  8  9  1  0  0  0  0
 12  5  2  0  0  0  0
M  RAD  2   8   2   9   3
M  END
