Coordinates from ORCA-job Pyridine-4-N2+-scan-d09-160-n800
 OpenBabel09191813533D

 12 11  0  0  0  0  0  0  0  0999 V2000
   -4.2861    0.2446   -1.2480 C   0  0  0  0  0  0  0  0  0  0  0  0
   -2.8285    0.1475   -1.1494 C   0  0  0  0  0  0  0  0  0  0  0  0
   -2.4690    0.9795   -0.1842 C   0  0  0  0  0  0  0  0  0  0  0  0
   -3.0125    1.8293    0.6735 C   0  0  0  0  0  0  0  0  0  0  0  0
   -4.4551    1.7894    0.4265 C   0  0  0  0  0  0  0  0  0  0  0  0
   -4.7492   -0.3860   -2.0064 H   0  0  0  0  0  0  0  0  0  0  0  0
   -2.2721   -0.5162   -1.8007 H   0  0  0  0  0  0  0  0  0  0  0  0
   13.3512    0.1901    1.1822 N   0  0  0  0  0  0  0  0  0  0  0  0
   14.4509    0.1412    1.2837 N   0  0  0  0  0  0  0  0  0  0  0  0
   -5.0585    2.4410    1.0579 H   0  0  0  0  0  0  0  0  0  0  0  0
   -2.5994    2.4739    1.4403 H   0  0  0  0  0  0  0  0  0  0  0  0
   -5.0024    1.0294   -0.4860 N   0  0  0  0  0  0  0  0  0  0  0  0
  1  2  2  0  0  0  0
  1 12  1  0  0  0  0
  2  3  1  0  0  0  0
  3  4  2  0  0  0  0
  4 11  1  0  0  0  0
  5  4  1  0  0  0  0
  5 10  1  0  0  0  0
  6  1  1  0  0  0  0
  7  2  1  0  0  0  0
  8  9  3  0  0  0  0
 12  5  2  0  0  0  0
M  RAD  1   3   2
M  END
