Coordinates from ORCA-job Pyridine-4-N2+-scan-d09-160-n800
 OpenBabel09191813523D

 12 11  0  0  0  0  0  0  0  0999 V2000
   -3.1090    0.1961   -1.1350 C   0  0  0  0  0  0  0  0  0  0  0  0
   -1.6517    0.0754   -1.0627 C   0  0  0  0  0  0  0  0  0  0  0  0
   -1.2619    0.8992   -0.1023 C   0  0  0  0  0  0  0  0  0  0  0  0
   -1.7762    1.7555    0.7668 C   0  0  0  0  0  0  0  0  0  0  0  0
   -3.2234    1.7393    0.5455 C   0  0  0  0  0  0  0  0  0  0  0  0
   -3.5956   -0.4252   -1.8864 H   0  0  0  0  0  0  0  0  0  0  0  0
   -1.1176   -0.5955   -1.7252 H   0  0  0  0  0  0  0  0  0  0  0  0
    7.3240    0.4944    0.6656 N   0  0  0  0  0  0  0  0  0  0  0  0
    8.4238    0.4438    0.7654 N   0  0  0  0  0  0  0  0  0  0  0  0
   -3.8049    2.3990    1.1889 H   0  0  0  0  0  0  0  0  0  0  0  0
   -1.3390    2.3915    1.5275 H   0  0  0  0  0  0  0  0  0  0  0  0
   -3.7991    0.9904   -0.3587 N   0  0  0  0  0  0  0  0  0  0  0  0
  1  2  2  0  0  0  0
  1 12  1  0  0  0  0
  2  3  1  0  0  0  0
  3  4  2  0  0  0  0
  4 11  1  0  0  0  0
  5  4  1  0  0  0  0
  5 10  1  0  0  0  0
  6  1  1  0  0  0  0
  7  2  1  0  0  0  0
  8  9  3  0  0  0  0
 12  5  2  0  0  0  0
M  RAD  1   3   2
M  END
