Coordinates from ORCA-job Pyridine-4-N2+-scan-d09-160-n800
 OpenBabel09191813523D

 12 11  0  0  0  0  0  0  0  0999 V2000
   -2.9855    0.1910   -1.1232 C   0  0  0  0  0  0  0  0  0  0  0  0
   -1.5283    0.0680   -1.0534 C   0  0  0  0  0  0  0  0  0  0  0  0
   -1.1356    0.8910   -0.0934 C   0  0  0  0  0  0  0  0  0  0  0  0
   -1.6471    1.7479    0.7767 C   0  0  0  0  0  0  0  0  0  0  0  0
   -3.0946    1.7340    0.5578 C   0  0  0  0  0  0  0  0  0  0  0  0
   -3.4744   -0.4294   -1.8739 H   0  0  0  0  0  0  0  0  0  0  0  0
   -0.9963   -0.6036   -1.7169 H   0  0  0  0  0  0  0  0  0  0  0  0
    6.6930    0.5257    0.6109 N   0  0  0  0  0  0  0  0  0  0  0  0
    7.7927    0.4755    0.7112 N   0  0  0  0  0  0  0  0  0  0  0  0
   -3.6741    2.3944    1.2024 H   0  0  0  0  0  0  0  0  0  0  0  0
   -1.2075    2.3830    1.5368 H   0  0  0  0  0  0  0  0  0  0  0  0
   -3.6730    0.9862   -0.3456 N   0  0  0  0  0  0  0  0  0  0  0  0
  1  2  2  0  0  0  0
  1 12  1  0  0  0  0
  2  3  1  0  0  0  0
  3  4  2  0  0  0  0
  4 11  1  0  0  0  0
  5  4  1  0  0  0  0
  5 10  1  0  0  0  0
  6  1  1  0  0  0  0
  7  2  1  0  0  0  0
  8  9  3  0  0  0  0
 12  5  2  0  0  0  0
M  RAD  1   3   2
M  END
