Coordinates from ORCA-job Pyridine-4-N2+-scan-d09-160-n800
 OpenBabel09191813523D

 12 11  0  0  0  0  0  0  0  0999 V2000
   -2.8293    0.1845   -1.1083 C   0  0  0  0  0  0  0  0  0  0  0  0
   -1.3722    0.0588   -1.0415 C   0  0  0  0  0  0  0  0  0  0  0  0
   -0.9761    0.8808   -0.0821 C   0  0  0  0  0  0  0  0  0  0  0  0
   -1.4842    1.7384    0.7893 C   0  0  0  0  0  0  0  0  0  0  0  0
   -2.9322    1.7272    0.5733 C   0  0  0  0  0  0  0  0  0  0  0  0
   -3.3208   -0.4347   -1.8582 H   0  0  0  0  0  0  0  0  0  0  0  0
   -0.8427   -0.6136   -1.7062 H   0  0  0  0  0  0  0  0  0  0  0  0
    5.8959    0.5651    0.5417 N   0  0  0  0  0  0  0  0  0  0  0  0
    6.9956    0.5155    0.6426 N   0  0  0  0  0  0  0  0  0  0  0  0
   -3.5091    2.3886    1.2192 H   0  0  0  0  0  0  0  0  0  0  0  0
   -1.0417    2.3724    1.5486 H   0  0  0  0  0  0  0  0  0  0  0  0
   -3.5138    0.9808   -0.3291 N   0  0  0  0  0  0  0  0  0  0  0  0
  1  2  2  0  0  0  0
  1 12  1  0  0  0  0
  2  3  1  0  0  0  0
  3  4  2  0  0  0  0
  4 11  1  0  0  0  0
  5  4  1  0  0  0  0
  5 10  1  0  0  0  0
  6  1  1  0  0  0  0
  7  2  1  0  0  0  0
  8  9  3  0  0  0  0
 12  5  2  0  0  0  0
M  RAD  1   3   2
M  END
