Coordinates from ORCA-job Pyridine-4-N2+-scan-d09-160-n800
 OpenBabel09191813533D

 12 11  0  0  0  0  0  0  0  0999 V2000
   -3.7940    0.2244   -1.2006 C   0  0  0  0  0  0  0  0  0  0  0  0
   -2.3365    0.1169   -1.1138 C   0  0  0  0  0  0  0  0  0  0  0  0
   -1.9634    0.9453   -0.1506 C   0  0  0  0  0  0  0  0  0  0  0  0
   -2.4940    1.7980    0.7122 C   0  0  0  0  0  0  0  0  0  0  0  0
   -3.9387    1.7686    0.4766 C   0  0  0  0  0  0  0  0  0  0  0  0
   -4.2676   -0.4021   -1.9560 H   0  0  0  0  0  0  0  0  0  0  0  0
   -1.7900   -0.5501   -1.7701 H   0  0  0  0  0  0  0  0  0  0  0  0
   10.8275    0.3195    0.9681 N   0  0  0  0  0  0  0  0  0  0  0  0
   11.9274    0.2670    1.0658 N   0  0  0  0  0  0  0  0  0  0  0  0
   -4.5324    2.4238    1.1135 H   0  0  0  0  0  0  0  0  0  0  0  0
   -2.0701    2.4388    1.4764 H   0  0  0  0  0  0  0  0  0  0  0  0
   -4.4987    1.0135   -0.4322 N   0  0  0  0  0  0  0  0  0  0  0  0
  1  2  2  0  0  0  0
  1 12  1  0  0  0  0
  2  3  1  0  0  0  0
  3  4  2  0  0  0  0
  4 11  1  0  0  0  0
  5  4  1  0  0  0  0
  5 10  1  0  0  0  0
  6  1  1  0  0  0  0
  7  2  1  0  0  0  0
  8  9  3  0  0  0  0
 12  5  2  0  0  0  0
M  RAD  1   3   2
M  END
