Coordinates from ORCA-job Pyridine-4-N2+-scan-d09-160-n800
 OpenBabel09191813523D

 12 12  0  0  0  0  0  0  0  0999 V2000
   -1.8918    0.1342   -1.0315 C   0  0  0  0  0  0  0  0  0  0  0  0
   -0.5128    0.0226   -0.9596 C   0  0  0  0  0  0  0  0  0  0  0  0
    0.1969    0.8227    0.0205 C   0  0  0  0  0  0  0  0  0  0  0  0
   -0.6103    1.6888    0.8586 C   0  0  0  0  0  0  0  0  0  0  0  0
   -1.9832    1.6967    0.6734 C   0  0  0  0  0  0  0  0  0  0  0  0
   -2.4443   -0.4561   -1.7586 H   0  0  0  0  0  0  0  0  0  0  0  0
    0.0570   -0.6384   -1.6059 H   0  0  0  0  0  0  0  0  0  0  0  0
    1.2316    0.7779    0.1171 N   0  0  0  0  0  0  0  0  0  0  0  0
    2.3623    0.7290    0.2225 N   0  0  0  0  0  0  0  0  0  0  0  0
   -2.6079    2.3382    1.2904 H   0  0  0  0  0  0  0  0  0  0  0  0
   -0.1152    2.3036    1.6044 H   0  0  0  0  0  0  0  0  0  0  0  0
   -2.6129    0.9447   -0.2421 N   0  0  0  0  0  0  0  0  0  0  0  0
  1  2  2  0  0  0  0
  1 12  1  0  0  0  0
  2  3  1  0  0  0  0
  3  8  1  0  0  0  0
  3  4  2  0  0  0  0
  4 11  1  0  0  0  0
  5  4  1  0  0  0  0
  5 10  1  0  0  0  0
  6  1  1  0  0  0  0
  7  2  1  0  0  0  0
  8  9  1  0  0  0  0
 12  5  2  0  0  0  0
M  RAD  2   8   2   9   3
M  END
