Coordinates from ORCA-job 2-NO2-C6H3-N2-B3LYPG-aug-cc-pVDZ-scan-d09-49-n400
 OpenBabel11091809053D

 14 13  0  0  0  0  0  0  0  0999 V2000
   -2.1360   -0.0041   -0.9981 C   0  0  0  0  0  0  0  0  0  0  0  0
   -0.8119   -0.0382   -0.6123 C   0  0  0  0  0  0  0  0  0  0  0  0
   -0.1749    0.6154    0.2464 C   0  0  0  0  0  0  0  0  0  0  0  0
   -0.8055    1.5889    1.0017 C   0  0  0  0  0  0  0  0  0  0  0  0
   -2.1774    1.7641    0.7286 C   0  0  0  0  0  0  0  0  0  0  0  0
   -2.8209    0.9855   -0.2476 C   0  0  0  0  0  0  0  0  0  0  0  0
   -2.6248   -0.6142   -1.7540 H   0  0  0  0  0  0  0  0  0  0  0  0
    2.6723    1.3966   -0.5398 N   0  0  0  0  0  0  0  0  0  0  0  0
    3.5390    0.7411   -0.3414 N   0  0  0  0  0  0  0  0  0  0  0  0
   -3.8837    1.1423   -0.4385 H   0  0  0  0  0  0  0  0  0  0  0  0
   -2.7308    2.5139    1.2914 H   0  0  0  0  0  0  0  0  0  0  0  0
   -0.1249    2.3912    2.0323 N   0  0  0  0  0  0  0  0  0  0  0  0
    1.0600    2.1543    2.2346 O   0  0  0  0  0  0  0  0  0  0  0  0
   -0.7916    3.2415    2.6192 O   0  0  0  0  0  0  0  0  0  0  0  0
  1  2  2  0  0  0  0
  1  6  1  0  0  0  0
  2  3  1  0  0  0  0
  3  4  2  0  0  0  0
  4 12  1  0  0  0  0
  5  4  1  0  0  0  0
  5 11  1  0  0  0  0
  6  5  2  0  0  0  0
  7  1  1  0  0  0  0
  8  9  3  0  0  0  0
 10  6  1  0  0  0  0
 12 13  2  0  0  0  0
 12 14  2  0  0  0  0
M  RAD  2   2   2   3   2
M  END
