Coordinates from ORCA-job 2-NO2-C6H3-N2-B3LYPG-aug-cc-pVDZ-scan-d09-49-n400
 OpenBabel11091809053D

 14 13  0  0  0  0  0  0  0  0999 V2000
   -1.9589    0.0819   -1.0738 C   0  0  0  0  0  0  0  0  0  0  0  0
   -0.5755    0.2150   -0.9461 C   0  0  0  0  0  0  0  0  0  0  0  0
   -0.0200    0.9162   -0.0456 C   0  0  0  0  0  0  0  0  0  0  0  0
   -0.6673    1.7193    0.8794 C   0  0  0  0  0  0  0  0  0  0  0  0
   -2.0695    1.6905    0.7767 C   0  0  0  0  0  0  0  0  0  0  0  0
   -2.7004    0.8882   -0.1870 C   0  0  0  0  0  0  0  0  0  0  0  0
   -2.4555   -0.5607   -1.8012 H   0  0  0  0  0  0  0  0  0  0  0  0
    1.8937    1.1679   -0.1404 N   0  0  0  0  0  0  0  0  0  0  0  0
    2.7652    0.4802   -0.1334 N   0  0  0  0  0  0  0  0  0  0  0  0
   -3.7902    0.8905   -0.2450 H   0  0  0  0  0  0  0  0  0  0  0  0
   -2.6511    2.2874    1.4768 H   0  0  0  0  0  0  0  0  0  0  0  0
   -0.0269    2.5002    1.9460 N   0  0  0  0  0  0  0  0  0  0  0  0
    1.1536    2.2602    2.1914 O   0  0  0  0  0  0  0  0  0  0  0  0
   -0.7083    3.3416    2.5247 O   0  0  0  0  0  0  0  0  0  0  0  0
  1  2  2  0  0  0  0
  1  6  1  0  0  0  0
  2  3  1  0  0  0  0
  3  4  2  0  0  0  0
  4 12  1  0  0  0  0
  5  4  1  0  0  0  0
  5 11  1  0  0  0  0
  6  5  2  0  0  0  0
  7  1  1  0  0  0  0
  8  9  3  0  0  0  0
 10  6  1  0  0  0  0
 12 13  2  0  0  0  0
 12 14  2  0  0  0  0
M  RAD  2   2   2   3   2
M  END
