Coordinates from ORCA-job 2-NO2-C6H3-N2-B3LYPG-aug-cc-pVDZ-scan-d09-49-n400
 OpenBabel11091809053D

 14 13  0  0  0  0  0  0  0  0999 V2000
   -1.9888    0.0687   -1.0708 C   0  0  0  0  0  0  0  0  0  0  0  0
   -0.6160    0.1951   -0.8956 C   0  0  0  0  0  0  0  0  0  0  0  0
   -0.0321    0.8855   -0.0173 C   0  0  0  0  0  0  0  0  0  0  0  0
   -0.6816    1.7043    0.8902 C   0  0  0  0  0  0  0  0  0  0  0  0
   -2.0848    1.6974    0.7700 C   0  0  0  0  0  0  0  0  0  0  0  0
   -2.7211    0.8979   -0.1927 C   0  0  0  0  0  0  0  0  0  0  0  0
   -2.4819   -0.5698   -1.8027 H   0  0  0  0  0  0  0  0  0  0  0  0
    2.0172    1.2097   -0.2020 N   0  0  0  0  0  0  0  0  0  0  0  0
    2.8666    0.5006   -0.1391 N   0  0  0  0  0  0  0  0  0  0  0  0
   -3.8100    0.9170   -0.2611 H   0  0  0  0  0  0  0  0  0  0  0  0
   -2.6654    2.3125    1.4554 H   0  0  0  0  0  0  0  0  0  0  0  0
   -0.0369    2.4866    1.9553 N   0  0  0  0  0  0  0  0  0  0  0  0
    1.1407    2.2410    2.2015 O   0  0  0  0  0  0  0  0  0  0  0  0
   -0.7170    3.3319    2.5311 O   0  0  0  0  0  0  0  0  0  0  0  0
  1  2  2  0  0  0  0
  1  6  1  0  0  0  0
  2  3  1  0  0  0  0
  3  4  2  0  0  0  0
  4 12  1  0  0  0  0
  5  4  1  0  0  0  0
  5 11  1  0  0  0  0
  6  5  2  0  0  0  0
  7  1  1  0  0  0  0
  8  9  3  0  0  0  0
 10  6  1  0  0  0  0
 12 13  2  0  0  0  0
 12 14  2  0  0  0  0
M  RAD  2   2   2   3   2
M  END
