Coordinates from ORCA-job 2-NO2-C6H3-N2-B3LYPG-aug-cc-pVDZ-scan-d09-49-n400
 OpenBabel11091809053D

 14 14  0  0  0  0  0  0  0  0999 V2000
   -1.9177    0.1163   -1.0767 C   0  0  0  0  0  0  0  0  0  0  0  0
   -0.5101    0.1408   -0.9590 C   0  0  0  0  0  0  0  0  0  0  0  0
   -0.0304    0.8982   -0.0266 C   0  0  0  0  0  0  0  0  0  0  0  0
   -0.6681    1.7122    0.9027 C   0  0  0  0  0  0  0  0  0  0  0  0
   -2.0647    1.6921    0.7905 C   0  0  0  0  0  0  0  0  0  0  0  0
   -2.6773    0.8984   -0.1934 C   0  0  0  0  0  0  0  0  0  0  0  0
   -2.4241   -0.4903   -1.8309 H   0  0  0  0  0  0  0  0  0  0  0  0
    1.7483    0.8982    0.0849 N   0  0  0  0  0  0  0  0  0  0  0  0
    2.7356    0.5432   -0.2741 N   0  0  0  0  0  0  0  0  0  0  0  0
   -3.7666    0.8978   -0.2628 H   0  0  0  0  0  0  0  0  0  0  0  0
   -2.6502    2.2995    1.4770 H   0  0  0  0  0  0  0  0  0  0  0  0
   -0.0312    2.5415    1.9309 N   0  0  0  0  0  0  0  0  0  0  0  0
    1.2000    2.5287    1.9920 O   0  0  0  0  0  0  0  0  0  0  0  0
   -0.7546    3.2018    2.6680 O   0  0  0  0  0  0  0  0  0  0  0  0
  1  2  2  0  0  0  0
  1  6  1  0  0  0  0
  2  3  1  0  0  0  0
  3  8  1  0  0  0  0
  3  4  2  0  0  0  0
  4 12  1  0  0  0  0
  5  4  1  0  0  0  0
  5 11  1  0  0  0  0
  6  5  2  0  0  0  0
  7  1  1  0  0  0  0
  9  8  2  0  0  0  0
 10  6  1  0  0  0  0
 12 13  2  0  0  0  0
 12 14  2  0  0  0  0
M  RAD  2   2   2   9   2
M  END
