Coordinates from ORCA-job 2-NO2-C6H3-N2-B3LYPG-aug-cc-pVDZ-scan-d09-49-n400
 OpenBabel11091809053D

 14 13  0  0  0  0  0  0  0  0999 V2000
   -2.1765   -0.0164   -0.9827 C   0  0  0  0  0  0  0  0  0  0  0  0
   -0.8595   -0.0787   -0.5771 C   0  0  0  0  0  0  0  0  0  0  0  0
   -0.2169    0.5703    0.2810 C   0  0  0  0  0  0  0  0  0  0  0  0
   -0.8329    1.5696    1.0143 C   0  0  0  0  0  0  0  0  0  0  0  0
   -2.1966    1.7741    0.7218 C   0  0  0  0  0  0  0  0  0  0  0  0
   -2.8465    0.9988   -0.2529 C   0  0  0  0  0  0  0  0  0  0  0  0
   -2.6698   -0.6229   -1.7384 H   0  0  0  0  0  0  0  0  0  0  0  0
    2.8325    1.4407   -0.5799 N   0  0  0  0  0  0  0  0  0  0  0  0
    3.6997    0.7895   -0.3703 N   0  0  0  0  0  0  0  0  0  0  0  0
   -3.9026    1.1789   -0.4599 H   0  0  0  0  0  0  0  0  0  0  0  0
   -2.7386    2.5448    1.2672 H   0  0  0  0  0  0  0  0  0  0  0  0
   -0.1429    2.3720    2.0386 N   0  0  0  0  0  0  0  0  0  0  0  0
    1.0400    2.1251    2.2402 O   0  0  0  0  0  0  0  0  0  0  0  0
   -0.8005    3.2327    2.6205 O   0  0  0  0  0  0  0  0  0  0  0  0
  1  2  2  0  0  0  0
  1  6  1  0  0  0  0
  2  3  1  0  0  0  0
  3  4  2  0  0  0  0
  4 12  1  0  0  0  0
  5  4  1  0  0  0  0
  5 11  1  0  0  0  0
  6  5  2  0  0  0  0
  7  1  1  0  0  0  0
  8  9  3  0  0  0  0
 10  6  1  0  0  0  0
 12 13  2  0  0  0  0
 12 14  2  0  0  0  0
M  RAD  2   2   2   3   2
M  END
