Coordinates from ORCA-job 2-NO2-C6H3-N2-B3LYPG-aug-cc-pVDZ-scan-d09-49-n400
 OpenBabel11091809053D

 14 13  0  0  0  0  0  0  0  0999 V2000
   -2.1586   -0.0111   -0.9893 C   0  0  0  0  0  0  0  0  0  0  0  0
   -0.8387   -0.0615   -0.5917 C   0  0  0  0  0  0  0  0  0  0  0  0
   -0.1987    0.5894    0.2668 C   0  0  0  0  0  0  0  0  0  0  0  0
   -0.8211    1.5778    1.0093 C   0  0  0  0  0  0  0  0  0  0  0  0
   -2.1884    1.7699    0.7247 C   0  0  0  0  0  0  0  0  0  0  0  0
   -2.8353    0.9932   -0.2508 C   0  0  0  0  0  0  0  0  0  0  0  0
   -2.6498   -0.6190   -1.7453 H   0  0  0  0  0  0  0  0  0  0  0  0
    2.7626    1.4208   -0.5629 N   0  0  0  0  0  0  0  0  0  0  0  0
    3.6304    0.7687   -0.3590 N   0  0  0  0  0  0  0  0  0  0  0  0
   -3.8943    1.1635   -0.4512 H   0  0  0  0  0  0  0  0  0  0  0  0
   -2.7355    2.5318    1.2774 H   0  0  0  0  0  0  0  0  0  0  0  0
   -0.1354    2.3804    2.0363 N   0  0  0  0  0  0  0  0  0  0  0  0
    1.0487    2.1386    2.2375 O   0  0  0  0  0  0  0  0  0  0  0  0
   -0.7972    3.2360    2.6209 O   0  0  0  0  0  0  0  0  0  0  0  0
  1  2  2  0  0  0  0
  1  6  1  0  0  0  0
  2  3  1  0  0  0  0
  3  4  2  0  0  0  0
  4 12  1  0  0  0  0
  5  4  1  0  0  0  0
  5 11  1  0  0  0  0
  6  5  2  0  0  0  0
  7  1  1  0  0  0  0
  8  9  3  0  0  0  0
 10  6  1  0  0  0  0
 12 13  2  0  0  0  0
 12 14  2  0  0  0  0
M  RAD  2   2   2   3   2
M  END
