Coordinates from ORCA-job 2-NO2-C6H3-N2-B3LYPG-aug-cc-pVDZ-scan-d09-49-n400
 OpenBabel11091809053D

 14 14  0  0  0  0  0  0  0  0999 V2000
   -1.8653    0.2337   -1.1466 C   0  0  0  0  0  0  0  0  0  0  0  0
   -0.4566    0.0999   -1.0925 C   0  0  0  0  0  0  0  0  0  0  0  0
    0.1564    0.8728   -0.0201 C   0  0  0  0  0  0  0  0  0  0  0  0
   -0.6279    1.6846    0.8896 C   0  0  0  0  0  0  0  0  0  0  0  0
   -1.9989    1.6072    0.8596 C   0  0  0  0  0  0  0  0  0  0  0  0
   -2.6238    0.8321   -0.1432 C   0  0  0  0  0  0  0  0  0  0  0  0
   -2.3870   -0.2173   -1.9954 H   0  0  0  0  0  0  0  0  0  0  0  0
    1.3091    0.7147    0.1091 N   0  0  0  0  0  0  0  0  0  0  0  0
    2.4159    0.5049    0.1748 N   0  0  0  0  0  0  0  0  0  0  0  0
   -3.7130    0.7535   -0.1428 H   0  0  0  0  0  0  0  0  0  0  0  0
   -2.5777    2.1879    1.5739 H   0  0  0  0  0  0  0  0  0  0  0  0
    0.0136    2.6281    1.8141 N   0  0  0  0  0  0  0  0  0  0  0  0
    1.2125    2.8547    1.6356 O   0  0  0  0  0  0  0  0  0  0  0  0
   -0.6684    3.1217    2.7061 O   0  0  0  0  0  0  0  0  0  0  0  0
  1  2  2  0  0  0  0
  1  6  1  0  0  0  0
  2  3  1  0  0  0  0
  3  8  1  0  0  0  0
  3  4  2  0  0  0  0
  4 12  1  0  0  0  0
  5  4  1  0  0  0  0
  5 11  1  0  0  0  0
  6 10  1  0  0  0  0
  6  5  2  0  0  0  0
  7  1  1  0  0  0  0
  8  9  1  0  0  0  0
 12 14  2  0  0  0  0
 13 12  2  0  0  0  0
M  RAD  3   2   2   8   2   9   3
M  END
