Coordinates from ORCA-job 2-NO2-C6H3-N2-B3LYPG-aug-cc-pVDZ-scan-d09-49-n400
 OpenBabel11091809053D

 14 13  0  0  0  0  0  0  0  0999 V2000
   -2.4456   -0.0808   -0.9062 C   0  0  0  0  0  0  0  0  0  0  0  0
   -1.1474   -0.2613   -0.4794 C   0  0  0  0  0  0  0  0  0  0  0  0
   -0.4329    0.3636    0.3390 C   0  0  0  0  0  0  0  0  0  0  0  0
   -0.9407    1.4684    1.0015 C   0  0  0  0  0  0  0  0  0  0  0  0
   -2.2726    1.8034    0.6844 C   0  0  0  0  0  0  0  0  0  0  0  0
   -3.0016    1.0456   -0.2469 C   0  0  0  0  0  0  0  0  0  0  0  0
   -2.9992   -0.6756   -1.6286 H   0  0  0  0  0  0  0  0  0  0  0  0
    3.6763    1.7918   -0.6392 N   0  0  0  0  0  0  0  0  0  0  0  0
    4.4259    1.0632   -0.2828 N   0  0  0  0  0  0  0  0  0  0  0  0
   -4.0308    1.3276   -0.4749 H   0  0  0  0  0  0  0  0  0  0  0  0
   -2.7274    2.6620    1.1756 H   0  0  0  0  0  0  0  0  0  0  0  0
   -0.1677    2.2560    1.9778 N   0  0  0  0  0  0  0  0  0  0  0  0
    0.9916    1.9157    2.1795 O   0  0  0  0  0  0  0  0  0  0  0  0
   -0.7390    3.1988    2.5225 O   0  0  0  0  0  0  0  0  0  0  0  0
  1  2  2  0  0  0  0
  1  6  1  0  0  0  0
  2  3  1  0  0  0  0
  3  4  2  0  0  0  0
  4 12  1  0  0  0  0
  5  4  1  0  0  0  0
  5 11  1  0  0  0  0
  6  5  2  0  0  0  0
  7  1  1  0  0  0  0
  8  9  3  0  0  0  0
 10  6  1  0  0  0  0
 12 13  2  0  0  0  0
 12 14  2  0  0  0  0
M  RAD  2   2   2   3   2
M  END
