Coordinates from ORCA-job 2-NO2-C6H3-N2-B3LYPG-aug-cc-pVDZ-scan-d09-49-n400
 OpenBabel11091809053D

 14 13  0  0  0  0  0  0  0  0999 V2000
   -1.9996    0.0604   -1.0656 C   0  0  0  0  0  0  0  0  0  0  0  0
   -0.6322    0.1768   -0.8641 C   0  0  0  0  0  0  0  0  0  0  0  0
   -0.0352    0.8619    0.0065 C   0  0  0  0  0  0  0  0  0  0  0  0
   -0.6893    1.6929    0.8998 C   0  0  0  0  0  0  0  0  0  0  0  0
   -2.0916    1.7035    0.7651 C   0  0  0  0  0  0  0  0  0  0  0  0
   -2.7288    0.9061   -0.1987 C   0  0  0  0  0  0  0  0  0  0  0  0
   -2.4906   -0.5765   -1.7997 H   0  0  0  0  0  0  0  0  0  0  0  0
    2.0625    1.2310   -0.2309 N   0  0  0  0  0  0  0  0  0  0  0  0
    2.9095    0.5209   -0.1584 N   0  0  0  0  0  0  0  0  0  0  0  0
   -3.8166    0.9384   -0.2787 H   0  0  0  0  0  0  0  0  0  0  0  0
   -2.6718    2.3311    1.4393 H   0  0  0  0  0  0  0  0  0  0  0  0
   -0.0430    2.4748    1.9653 N   0  0  0  0  0  0  0  0  0  0  0  0
    1.1363    2.2330    2.2046 O   0  0  0  0  0  0  0  0  0  0  0  0
   -0.7208    3.3243    2.5380 O   0  0  0  0  0  0  0  0  0  0  0  0
  1  2  2  0  0  0  0
  1  6  1  0  0  0  0
  2  3  1  0  0  0  0
  3  4  2  0  0  0  0
  4 12  1  0  0  0  0
  5  4  1  0  0  0  0
  5 11  1  0  0  0  0
  6  5  2  0  0  0  0
  7  1  1  0  0  0  0
  8  9  3  0  0  0  0
 10  6  1  0  0  0  0
 12 13  2  0  0  0  0
 12 14  2  0  0  0  0
M  RAD  2   2   2   3   2
M  END
