Coordinates from ORCA-job 2-NO2-C6H3-N2-B3LYPG-aug-cc-pVDZ-scan-d09-49-n400
 OpenBabel11091809053D

 14 13  0  0  0  0  0  0  0  0999 V2000
   -2.3164   -0.0530   -0.9390 C   0  0  0  0  0  0  0  0  0  0  0  0
   -1.0145   -0.1878   -0.5040 C   0  0  0  0  0  0  0  0  0  0  0  0
   -0.3430    0.4483    0.3415 C   0  0  0  0  0  0  0  0  0  0  0  0
   -0.9036    1.5132    1.0256 C   0  0  0  0  0  0  0  0  0  0  0  0
   -2.2458    1.7959    0.7008 C   0  0  0  0  0  0  0  0  0  0  0  0
   -2.9295    1.0299   -0.2580 C   0  0  0  0  0  0  0  0  0  0  0  0
   -2.8356   -0.6520   -1.6833 H   0  0  0  0  0  0  0  0  0  0  0  0
    3.3164    1.6150   -0.6536 N   0  0  0  0  0  0  0  0  0  0  0  0
    4.1456    0.9401   -0.3764 N   0  0  0  0  0  0  0  0  0  0  0  0
   -3.9677    1.2716   -0.4914 H   0  0  0  0  0  0  0  0  0  0  0  0
   -2.7441    2.6204    1.2078 H   0  0  0  0  0  0  0  0  0  0  0  0
   -0.1757    2.3092    2.0287 N   0  0  0  0  0  0  0  0  0  0  0  0
    0.9941    2.0115    2.2376 O   0  0  0  0  0  0  0  0  0  0  0  0
   -0.7912    3.2161    2.5860 O   0  0  0  0  0  0  0  0  0  0  0  0
  1  2  2  0  0  0  0
  1  6  1  0  0  0  0
  2  3  1  0  0  0  0
  3  4  2  0  0  0  0
  4 12  1  0  0  0  0
  5  4  1  0  0  0  0
  5 11  1  0  0  0  0
  6  5  2  0  0  0  0
  7  1  1  0  0  0  0
  8  9  3  0  0  0  0
 10  6  1  0  0  0  0
 12 13  2  0  0  0  0
 12 14  2  0  0  0  0
M  RAD  2   2   2   3   2
M  END
