Coordinates from ORCA-job 2-NO2-C6H3-N2-B3LYPG-aug-cc-pVDZ-scan-d09-49-n400
 OpenBabel11091809053D

 14 13  0  0  0  0  0  0  0  0999 V2000
   -2.4399   -0.0797   -0.9076 C   0  0  0  0  0  0  0  0  0  0  0  0
   -1.1418   -0.2584   -0.4798 C   0  0  0  0  0  0  0  0  0  0  0  0
   -0.4291    0.3670    0.3398 C   0  0  0  0  0  0  0  0  0  0  0  0
   -0.9395    1.4703    1.0030 C   0  0  0  0  0  0  0  0  0  0  0  0
   -2.2717    1.8033    0.6851 C   0  0  0  0  0  0  0  0  0  0  0  0
   -2.9985    1.0451   -0.2476 C   0  0  0  0  0  0  0  0  0  0  0  0
   -2.9919   -0.6747   -1.6310 H   0  0  0  0  0  0  0  0  0  0  0  0
    3.6616    1.7838   -0.6412 N   0  0  0  0  0  0  0  0  0  0  0  0
    4.4156    1.0580   -0.2883 N   0  0  0  0  0  0  0  0  0  0  0  0
   -4.0280    1.3256   -0.4763 H   0  0  0  0  0  0  0  0  0  0  0  0
   -2.7284    2.6606    1.1766 H   0  0  0  0  0  0  0  0  0  0  0  0
   -0.1686    2.2582    1.9808 N   0  0  0  0  0  0  0  0  0  0  0  0
    0.9910    1.9197    2.1832 O   0  0  0  0  0  0  0  0  0  0  0  0
   -0.7420    3.1997    2.5258 O   0  0  0  0  0  0  0  0  0  0  0  0
  1  2  2  0  0  0  0
  1  6  1  0  0  0  0
  2  3  1  0  0  0  0
  3  4  2  0  0  0  0
  4 12  1  0  0  0  0
  5  4  1  0  0  0  0
  5 11  1  0  0  0  0
  6  5  2  0  0  0  0
  7  1  1  0  0  0  0
  8  9  3  0  0  0  0
 10  6  1  0  0  0  0
 12 13  2  0  0  0  0
 12 14  2  0  0  0  0
M  RAD  2   2   2   3   2
M  END
