Coordinates from ORCA-job 2-NO2-C6H3-N2-B3LYPG-aug-cc-pVDZ-scan-d09-49-n400
 OpenBabel11091809053D

 14 13  0  0  0  0  0  0  0  0999 V2000
   -2.3997   -0.0715   -0.9172 C   0  0  0  0  0  0  0  0  0  0  0  0
   -1.1020   -0.2367   -0.4829 C   0  0  0  0  0  0  0  0  0  0  0  0
   -0.4023    0.3917    0.3455 C   0  0  0  0  0  0  0  0  0  0  0  0
   -0.9304    1.4838    1.0132 C   0  0  0  0  0  0  0  0  0  0  0  0
   -2.2648    1.8022    0.6896 C   0  0  0  0  0  0  0  0  0  0  0  0
   -2.9765    1.0415   -0.2527 C   0  0  0  0  0  0  0  0  0  0  0  0
   -2.9399   -0.6683   -1.6481 H   0  0  0  0  0  0  0  0  0  0  0  0
    3.5589    1.7273   -0.6554 N   0  0  0  0  0  0  0  0  0  0  0  0
    4.3414    1.0203   -0.3274 N   0  0  0  0  0  0  0  0  0  0  0  0
   -4.0080    1.3105   -0.4857 H   0  0  0  0  0  0  0  0  0  0  0  0
   -2.7353    2.6501    1.1844 H   0  0  0  0  0  0  0  0  0  0  0  0
   -0.1755    2.2743    2.0012 N   0  0  0  0  0  0  0  0  0  0  0  0
    0.9867    1.9479    2.2095 O   0  0  0  0  0  0  0  0  0  0  0  0
   -0.7635    3.2054    2.5484 O   0  0  0  0  0  0  0  0  0  0  0  0
  1  2  2  0  0  0  0
  1  6  1  0  0  0  0
  2  3  1  0  0  0  0
  3  4  2  0  0  0  0
  4 12  1  0  0  0  0
  5  4  1  0  0  0  0
  5 11  1  0  0  0  0
  6  5  2  0  0  0  0
  7  1  1  0  0  0  0
  8  9  3  0  0  0  0
 10  6  1  0  0  0  0
 12 13  2  0  0  0  0
 12 14  2  0  0  0  0
M  RAD  2   2   2   3   2
M  END
