Coordinates from ORCA-job 2-NO2-C6H3-N2-B3LYPG-aug-cc-pVDZ-scan-d09-49-n400
 OpenBabel11091809053D

 14 13  0  0  0  0  0  0  0  0999 V2000
   -2.0663    0.0180   -1.0266 C   0  0  0  0  0  0  0  0  0  0  0  0
   -0.7266    0.0473   -0.6970 C   0  0  0  0  0  0  0  0  0  0  0  0
   -0.0921    0.7121    0.1560 C   0  0  0  0  0  0  0  0  0  0  0  0
   -0.7466    1.6295    0.9611 C   0  0  0  0  0  0  0  0  0  0  0  0
   -2.1335    1.7444    0.7373 C   0  0  0  0  0  0  0  0  0  0  0  0
   -2.7729    0.9573   -0.2343 C   0  0  0  0  0  0  0  0  0  0  0  0
   -2.5522   -0.6059   -1.7733 H   0  0  0  0  0  0  0  0  0  0  0  0
    2.3457    1.3183   -0.4061 N   0  0  0  0  0  0  0  0  0  0  0  0
    3.2288    0.6656   -0.2827 N   0  0  0  0  0  0  0  0  0  0  0  0
   -3.8481    1.0662   -0.3856 H   0  0  0  0  0  0  0  0  0  0  0  0
   -2.7024    2.4502    1.3400 H   0  0  0  0  0  0  0  0  0  0  0  0
   -0.0838    2.4233    2.0096 N   0  0  0  0  0  0  0  0  0  0  0  0
    1.0985    2.1856    2.2283 O   0  0  0  0  0  0  0  0  0  0  0  0
   -0.7595    3.2666    2.5957 O   0  0  0  0  0  0  0  0  0  0  0  0
  1  2  2  0  0  0  0
  1  6  1  0  0  0  0
  2  3  1  0  0  0  0
  3  4  2  0  0  0  0
  4 12  1  0  0  0  0
  5  4  1  0  0  0  0
  5 11  1  0  0  0  0
  6  5  2  0  0  0  0
  7  1  1  0  0  0  0
  8  9  3  0  0  0  0
 10  6  1  0  0  0  0
 12 13  2  0  0  0  0
 12 14  2  0  0  0  0
M  RAD  2   2   2   3   2
M  END
