Coordinates from ORCA-job 2-NO2-C6H3-N2-B3LYPG-aug-cc-pVDZ-scan-d09-49-n400
 OpenBabel11091809053D

 14 13  0  0  0  0  0  0  0  0999 V2000
   -2.1801   -0.0174   -0.9814 C   0  0  0  0  0  0  0  0  0  0  0  0
   -0.8637   -0.0821   -0.5743 C   0  0  0  0  0  0  0  0  0  0  0  0
   -0.2206    0.5665    0.2836 C   0  0  0  0  0  0  0  0  0  0  0  0
   -0.8352    1.5679    1.0152 C   0  0  0  0  0  0  0  0  0  0  0  0
   -2.1982    1.7749    0.7212 C   0  0  0  0  0  0  0  0  0  0  0  0
   -2.8487    0.9999   -0.2533 C   0  0  0  0  0  0  0  0  0  0  0  0
   -2.6739   -0.6237   -1.7370 H   0  0  0  0  0  0  0  0  0  0  0  0
    2.8465    1.4449   -0.5831 N   0  0  0  0  0  0  0  0  0  0  0  0
    3.7134    0.7937   -0.3722 N   0  0  0  0  0  0  0  0  0  0  0  0
   -3.9043    1.1819   -0.4614 H   0  0  0  0  0  0  0  0  0  0  0  0
   -2.7391    2.5473    1.2652 H   0  0  0  0  0  0  0  0  0  0  0  0
   -0.1444    2.3703    2.0390 N   0  0  0  0  0  0  0  0  0  0  0  0
    1.0383    2.1223    2.2407 O   0  0  0  0  0  0  0  0  0  0  0  0
   -0.8010    3.2321    2.6203 O   0  0  0  0  0  0  0  0  0  0  0  0
  1  2  2  0  0  0  0
  1  6  1  0  0  0  0
  2  3  1  0  0  0  0
  3  4  2  0  0  0  0
  4 12  1  0  0  0  0
  5  4  1  0  0  0  0
  5 11  1  0  0  0  0
  6  5  2  0  0  0  0
  7  1  1  0  0  0  0
  8  9  3  0  0  0  0
 10  6  1  0  0  0  0
 12 13  2  0  0  0  0
 12 14  2  0  0  0  0
M  RAD  2   2   2   3   2
M  END
