Coordinates from ORCA-job 2-NO2-C6H3-N2-B3LYPG-aug-cc-pVDZ-scan-d09-49-n400
 OpenBabel11091809053D

 14 14  0  0  0  0  0  0  0  0999 V2000
   -1.9131    0.1178   -1.0743 C   0  0  0  0  0  0  0  0  0  0  0  0
   -0.5020    0.1331   -0.9672 C   0  0  0  0  0  0  0  0  0  0  0  0
   -0.0288    0.8968   -0.0283 C   0  0  0  0  0  0  0  0  0  0  0  0
   -0.6687    1.7115    0.9011 C   0  0  0  0  0  0  0  0  0  0  0  0
   -2.0640    1.6933    0.7915 C   0  0  0  0  0  0  0  0  0  0  0  0
   -2.6749    0.8985   -0.1931 C   0  0  0  0  0  0  0  0  0  0  0  0
   -2.4218   -0.4883   -1.8278 H   0  0  0  0  0  0  0  0  0  0  0  0
    1.7198    0.8972    0.0821 N   0  0  0  0  0  0  0  0  0  0  0  0
    2.7217    0.5614   -0.2540 N   0  0  0  0  0  0  0  0  0  0  0  0
   -3.7641    0.8969   -0.2637 H   0  0  0  0  0  0  0  0  0  0  0  0
   -2.6489    2.3011    1.4781 H   0  0  0  0  0  0  0  0  0  0  0  0
   -0.0270    2.5387    1.9265 N   0  0  0  0  0  0  0  0  0  0  0  0
    1.2051    2.5205    1.9832 O   0  0  0  0  0  0  0  0  0  0  0  0
   -0.7444    3.1999    2.6682 O   0  0  0  0  0  0  0  0  0  0  0  0
  1  2  2  0  0  0  0
  1  6  1  0  0  0  0
  2  3  1  0  0  0  0
  3  8  1  0  0  0  0
  3  4  2  0  0  0  0
  4 12  1  0  0  0  0
  5  4  1  0  0  0  0
  5 11  1  0  0  0  0
  6  5  2  0  0  0  0
  7  1  1  0  0  0  0
  9  8  2  0  0  0  0
 10  6  1  0  0  0  0
 12 13  2  0  0  0  0
 12 14  2  0  0  0  0
M  RAD  2   2   2   9   2
M  END
