Coordinates from ORCA-job 2-NO2-C6H3-N2-B3LYPG-aug-cc-pVDZ-scan-d09-49-n400
 OpenBabel11091809053D

 14 13  0  0  0  0  0  0  0  0999 V2000
   -2.0186    0.0532   -1.0611 C   0  0  0  0  0  0  0  0  0  0  0  0
   -0.6554    0.1564   -0.8370 C   0  0  0  0  0  0  0  0  0  0  0  0
   -0.0490    0.8375    0.0268 C   0  0  0  0  0  0  0  0  0  0  0  0
   -0.7009    1.6829    0.9073 C   0  0  0  0  0  0  0  0  0  0  0  0
   -2.1025    1.7099    0.7611 C   0  0  0  0  0  0  0  0  0  0  0  0
   -2.7421    0.9140   -0.2027 C   0  0  0  0  0  0  0  0  0  0  0  0
   -2.5097   -0.5806   -1.7973 H   0  0  0  0  0  0  0  0  0  0  0  0
    2.1378    1.2473   -0.2604 N   0  0  0  0  0  0  0  0  0  0  0  0
    2.9887    0.5455   -0.1697 N   0  0  0  0  0  0  0  0  0  0  0  0
   -3.8289    0.9581   -0.2910 H   0  0  0  0  0  0  0  0  0  0  0  0
   -2.6808    2.3508    1.4244 H   0  0  0  0  0  0  0  0  0  0  0  0
   -0.0496    2.4678    1.9679 N   0  0  0  0  0  0  0  0  0  0  0  0
    1.1288    2.2234    2.2069 O   0  0  0  0  0  0  0  0  0  0  0  0
   -0.7287    3.3122    2.5472 O   0  0  0  0  0  0  0  0  0  0  0  0
  1  2  2  0  0  0  0
  1  6  1  0  0  0  0
  2  3  1  0  0  0  0
  3  4  2  0  0  0  0
  4 12  1  0  0  0  0
  5  4  1  0  0  0  0
  5 11  1  0  0  0  0
  6  5  2  0  0  0  0
  7  1  1  0  0  0  0
  8  9  3  0  0  0  0
 10  6  1  0  0  0  0
 12 13  2  0  0  0  0
 12 14  2  0  0  0  0
M  RAD  2   2   2   3   2
M  END
