Coordinates from ORCA-job 2-NO2-C6H3-N2-B3LYPG-aug-cc-pVDZ-scan-d09-49-n400
 OpenBabel11091809053D

 14 14  0  0  0  0  0  0  0  0999 V2000
   -1.8574    0.2612   -1.1640 C   0  0  0  0  0  0  0  0  0  0  0  0
   -0.4602    0.1001   -1.1036 C   0  0  0  0  0  0  0  0  0  0  0  0
    0.2061    0.8594   -0.0012 C   0  0  0  0  0  0  0  0  0  0  0  0
   -0.6173    1.6787    0.8861 C   0  0  0  0  0  0  0  0  0  0  0  0
   -1.9857    1.5881    0.8684 C   0  0  0  0  0  0  0  0  0  0  0  0
   -2.6154    0.8241   -0.1377 C   0  0  0  0  0  0  0  0  0  0  0  0
   -2.3743   -0.1658   -2.0278 H   0  0  0  0  0  0  0  0  0  0  0  0
    1.2352    0.6987    0.1344 N   0  0  0  0  0  0  0  0  0  0  0  0
    2.3504    0.4757    0.2348 N   0  0  0  0  0  0  0  0  0  0  0  0
   -3.7027    0.7251   -0.1238 H   0  0  0  0  0  0  0  0  0  0  0  0
   -2.5615    2.1599    1.5923 H   0  0  0  0  0  0  0  0  0  0  0  0
    0.0214    2.6449    1.7903 N   0  0  0  0  0  0  0  0  0  0  0  0
    1.1946    2.9363    1.5550 O   0  0  0  0  0  0  0  0  0  0  0  0
   -0.6443    3.0921    2.7192 O   0  0  0  0  0  0  0  0  0  0  0  0
  1  2  2  0  0  0  0
  1  6  1  0  0  0  0
  2  3  1  0  0  0  0
  3  8  1  0  0  0  0
  3  4  2  0  0  0  0
  4 12  1  0  0  0  0
  5  4  1  0  0  0  0
  5 11  1  0  0  0  0
  6 10  1  0  0  0  0
  6  5  2  0  0  0  0
  7  1  1  0  0  0  0
  8  9  1  0  0  0  0
 12 14  2  0  0  0  0
 13 12  2  0  0  0  0
M  RAD  3   2   2   8   2   9   3
M  END
