Coordinates from ORCA-job 2-NO2-C6H3-N2-B3LYPG-aug-cc-pVDZ-scan-d09-49-n400
 OpenBabel11091809053D

 14 13  0  0  0  0  0  0  0  0999 V2000
   -2.3764   -0.0666   -0.9227 C   0  0  0  0  0  0  0  0  0  0  0  0
   -1.0787   -0.2240   -0.4851 C   0  0  0  0  0  0  0  0  0  0  0  0
   -0.3870    0.4065    0.3485 C   0  0  0  0  0  0  0  0  0  0  0  0
   -0.9252    1.4918    1.0191 C   0  0  0  0  0  0  0  0  0  0  0  0
   -2.2609    1.8014    0.6923 C   0  0  0  0  0  0  0  0  0  0  0  0
   -2.9637    1.0392   -0.2555 C   0  0  0  0  0  0  0  0  0  0  0  0
   -2.9096   -0.6644   -1.6578 H   0  0  0  0  0  0  0  0  0  0  0  0
    3.5002    1.6950   -0.6631 N   0  0  0  0  0  0  0  0  0  0  0  0
    4.2973    0.9977   -0.3498 N   0  0  0  0  0  0  0  0  0  0  0  0
   -3.9965    1.3014   -0.4907 H   0  0  0  0  0  0  0  0  0  0  0  0
   -2.7394    2.6437    1.1891 H   0  0  0  0  0  0  0  0  0  0  0  0
   -0.1794    2.2836    2.0128 N   0  0  0  0  0  0  0  0  0  0  0  0
    0.9841    1.9643    2.2242 O   0  0  0  0  0  0  0  0  0  0  0  0
   -0.7758    3.2087    2.5612 O   0  0  0  0  0  0  0  0  0  0  0  0
  1  2  2  0  0  0  0
  1  6  1  0  0  0  0
  2  3  1  0  0  0  0
  3  4  2  0  0  0  0
  4 12  1  0  0  0  0
  5  4  1  0  0  0  0
  5 11  1  0  0  0  0
  6  5  2  0  0  0  0
  7  1  1  0  0  0  0
  8  9  3  0  0  0  0
 10  6  1  0  0  0  0
 12 13  2  0  0  0  0
 12 14  2  0  0  0  0
M  RAD  2   2   2   3   2
M  END
