Coordinates from ORCA-job 2-NO2-C6H3-N2-B3LYPG-aug-cc-pVDZ-scan-d09-49-n400
 OpenBabel11091809053D

 14 13  0  0  0  0  0  0  0  0999 V2000
   -2.0532    0.0225   -1.0316 C   0  0  0  0  0  0  0  0  0  0  0  0
   -0.7113    0.0645   -0.7129 C   0  0  0  0  0  0  0  0  0  0  0  0
   -0.0775    0.7309    0.1396 C   0  0  0  0  0  0  0  0  0  0  0  0
   -0.7364    1.6377    0.9533 C   0  0  0  0  0  0  0  0  0  0  0  0
   -2.1259    1.7402    0.7396 C   0  0  0  0  0  0  0  0  0  0  0  0
   -2.7643    0.9516   -0.2312 C   0  0  0  0  0  0  0  0  0  0  0  0
   -2.5378   -0.6036   -1.7774 H   0  0  0  0  0  0  0  0  0  0  0  0
    2.2921    1.3058   -0.3841 N   0  0  0  0  0  0  0  0  0  0  0  0
    3.1698    0.6436   -0.2713 N   0  0  0  0  0  0  0  0  0  0  0  0
   -3.8412    1.0517   -0.3755 H   0  0  0  0  0  0  0  0  0  0  0  0
   -2.6974    2.4369    1.3503 H   0  0  0  0  0  0  0  0  0  0  0  0
   -0.0773    2.4305    2.0052 N   0  0  0  0  0  0  0  0  0  0  0  0
    1.1063    2.1978    2.2240 O   0  0  0  0  0  0  0  0  0  0  0  0
   -0.7569    3.2683    2.5945 O   0  0  0  0  0  0  0  0  0  0  0  0
  1  2  2  0  0  0  0
  1  6  1  0  0  0  0
  2  3  1  0  0  0  0
  3  4  2  0  0  0  0
  4 12  1  0  0  0  0
  5  4  1  0  0  0  0
  5 11  1  0  0  0  0
  6  5  2  0  0  0  0
  7  1  1  0  0  0  0
  8  9  3  0  0  0  0
 10  6  1  0  0  0  0
 12 13  2  0  0  0  0
 12 14  2  0  0  0  0
M  RAD  2   2   2   3   2
M  END
