Coordinates from ORCA-job 2-NO2-C6H3-N2-B3LYPG-aug-cc-pVDZ-scan-d09-49-n400
 OpenBabel11091809053D

 14 13  0  0  0  0  0  0  0  0999 V2000
   -2.4427   -0.0803   -0.9069 C   0  0  0  0  0  0  0  0  0  0  0  0
   -1.1446   -0.2599   -0.4795 C   0  0  0  0  0  0  0  0  0  0  0  0
   -0.4310    0.3653    0.3394 C   0  0  0  0  0  0  0  0  0  0  0  0
   -0.9401    1.4693    1.0023 C   0  0  0  0  0  0  0  0  0  0  0  0
   -2.2721    1.8034    0.6848 C   0  0  0  0  0  0  0  0  0  0  0  0
   -3.0001    1.0454   -0.2472 C   0  0  0  0  0  0  0  0  0  0  0  0
   -2.9956   -0.6752   -1.6298 H   0  0  0  0  0  0  0  0  0  0  0  0
    3.6689    1.7878   -0.6402 N   0  0  0  0  0  0  0  0  0  0  0  0
    4.4208    1.0606   -0.2855 N   0  0  0  0  0  0  0  0  0  0  0  0
   -4.0294    1.3266   -0.4756 H   0  0  0  0  0  0  0  0  0  0  0  0
   -2.7279    2.6613    1.1761 H   0  0  0  0  0  0  0  0  0  0  0  0
   -0.1681    2.2571    1.9793 N   0  0  0  0  0  0  0  0  0  0  0  0
    0.9913    1.9177    2.1813 O   0  0  0  0  0  0  0  0  0  0  0  0
   -0.7405    3.1992    2.5241 O   0  0  0  0  0  0  0  0  0  0  0  0
  1  2  2  0  0  0  0
  1  6  1  0  0  0  0
  2  3  1  0  0  0  0
  3  4  2  0  0  0  0
  4 12  1  0  0  0  0
  5  4  1  0  0  0  0
  5 11  1  0  0  0  0
  6  5  2  0  0  0  0
  7  1  1  0  0  0  0
  8  9  3  0  0  0  0
 10  6  1  0  0  0  0
 12 13  2  0  0  0  0
 12 14  2  0  0  0  0
M  RAD  2   2   2   3   2
M  END
