Coordinates from ORCA-job 2-NO2-C6H3-N2-B3LYPG-aug-cc-pVDZ-scan-d09-49-n400
 OpenBabel11091809053D

 14 14  0  0  0  0  0  0  0  0999 V2000
   -1.8791    0.1356   -1.0713 C   0  0  0  0  0  0  0  0  0  0  0  0
   -0.4501    0.0754   -1.0431 C   0  0  0  0  0  0  0  0  0  0  0  0
    0.0631    0.8921   -0.0305 C   0  0  0  0  0  0  0  0  0  0  0  0
   -0.6585    1.7039    0.8934 C   0  0  0  0  0  0  0  0  0  0  0  0
   -2.0345    1.6906    0.8068 C   0  0  0  0  0  0  0  0  0  0  0  0
   -2.6434    0.8907   -0.1868 C   0  0  0  0  0  0  0  0  0  0  0  0
   -2.4072   -0.4490   -1.8302 H   0  0  0  0  0  0  0  0  0  0  0  0
    1.4622    0.8344    0.0204 N   0  0  0  0  0  0  0  0  0  0  0  0
    2.5594    0.6698   -0.0747 N   0  0  0  0  0  0  0  0  0  0  0  0
   -3.7338    0.8821   -0.2502 H   0  0  0  0  0  0  0  0  0  0  0  0
   -2.6180    2.2962    1.4958 H   0  0  0  0  0  0  0  0  0  0  0  0
   -0.0032    2.5387    1.9046 N   0  0  0  0  0  0  0  0  0  0  0  0
    1.2318    2.5338    1.9108 O   0  0  0  0  0  0  0  0  0  0  0  0
   -0.6999    3.1841    2.6774 O   0  0  0  0  0  0  0  0  0  0  0  0
  1  2  2  0  0  0  0
  1  6  1  0  0  0  0
  2  3  1  0  0  0  0
  3  8  1  0  0  0  0
  3  4  2  0  0  0  0
  4 12  1  0  0  0  0
  5  4  1  0  0  0  0
  5 11  1  0  0  0  0
  6  5  2  0  0  0  0
  7  1  1  0  0  0  0
  9  8  1  0  0  0  0
 10  6  1  0  0  0  0
 12 13  2  0  0  0  0
 12 14  2  0  0  0  0
M  RAD  3   2   2   8   2   9   3
M  END
