Coordinates from ORCA-job 2-NO2-C6H3-N2-B3LYPG-aug-cc-pVDZ-scan-d09-49-n400
 OpenBabel11091809053D

 14 13  0  0  0  0  0  0  0  0999 V2000
   -2.5197   -0.0924   -0.8900 C   0  0  0  0  0  0  0  0  0  0  0  0
   -1.2189   -0.2897   -0.4789 C   0  0  0  0  0  0  0  0  0  0  0  0
   -0.4835    0.3323    0.3231 C   0  0  0  0  0  0  0  0  0  0  0  0
   -0.9655    1.4499    0.9829 C   0  0  0  0  0  0  0  0  0  0  0  0
   -2.2963    1.8031    0.6811 C   0  0  0  0  0  0  0  0  0  0  0  0
   -3.0493    1.0483   -0.2335 C   0  0  0  0  0  0  0  0  0  0  0  0
   -3.0924   -0.6851   -1.5992 H   0  0  0  0  0  0  0  0  0  0  0  0
    3.9010    1.8740   -0.6060 N   0  0  0  0  0  0  0  0  0  0  0  0
    4.6191    1.1189   -0.2404 N   0  0  0  0  0  0  0  0  0  0  0  0
   -4.0771    1.3439   -0.4503 H   0  0  0  0  0  0  0  0  0  0  0  0
   -2.7310    2.6728    1.1706 H   0  0  0  0  0  0  0  0  0  0  0  0
   -0.1677    2.2340    1.9427 N   0  0  0  0  0  0  0  0  0  0  0  0
    0.9893    1.8797    2.1328 O   0  0  0  0  0  0  0  0  0  0  0  0
   -0.7192    3.1886    2.4875 O   0  0  0  0  0  0  0  0  0  0  0  0
  1  2  2  0  0  0  0
  1  6  1  0  0  0  0
  2  3  1  0  0  0  0
  3  4  2  0  0  0  0
  4 12  1  0  0  0  0
  5  4  1  0  0  0  0
  5 11  1  0  0  0  0
  6  5  2  0  0  0  0
  7  1  1  0  0  0  0
  8  9  3  0  0  0  0
 10  6  1  0  0  0  0
 12 13  2  0  0  0  0
 12 14  2  0  0  0  0
M  RAD  2   2   2   3   2
M  END
