Coordinates from ORCA-job 2-NO2-C6H3-N2-B3LYPG-aug-cc-pVDZ-scan-d09-49-n400
 OpenBabel11091809053D

 14 13  0  0  0  0  0  0  0  0999 V2000
   -2.5548   -0.0966   -0.8833 C   0  0  0  0  0  0  0  0  0  0  0  0
   -1.2516   -0.2983   -0.4822 C   0  0  0  0  0  0  0  0  0  0  0  0
   -0.5069    0.3222    0.3123 C   0  0  0  0  0  0  0  0  0  0  0  0
   -0.9791    1.4432    0.9737 C   0  0  0  0  0  0  0  0  0  0  0  0
   -2.3108    1.8013    0.6818 C   0  0  0  0  0  0  0  0  0  0  0  0
   -3.0743    1.0477   -0.2250 C   0  0  0  0  0  0  0  0  0  0  0  0
   -3.1357   -0.6884   -1.5865 H   0  0  0  0  0  0  0  0  0  0  0  0
    4.0189    1.9080   -0.5912 N   0  0  0  0  0  0  0  0  0  0  0  0
    4.7207    1.1404   -0.2203 N   0  0  0  0  0  0  0  0  0  0  0  0
   -4.1027    1.3471   -0.4340 H   0  0  0  0  0  0  0  0  0  0  0  0
   -2.7378    2.6740    1.1729 H   0  0  0  0  0  0  0  0  0  0  0  0
   -0.1703    2.2261    1.9252 N   0  0  0  0  0  0  0  0  0  0  0  0
    0.9859    1.8658    2.1086 O   0  0  0  0  0  0  0  0  0  0  0  0
   -0.7126    3.1858    2.4704 O   0  0  0  0  0  0  0  0  0  0  0  0
  1  2  2  0  0  0  0
  1  6  1  0  0  0  0
  2  3  1  0  0  0  0
  3  4  2  0  0  0  0
  4 12  1  0  0  0  0
  5  4  1  0  0  0  0
  5 11  1  0  0  0  0
  6  5  2  0  0  0  0
  7  1  1  0  0  0  0
  8  9  3  0  0  0  0
 10  6  1  0  0  0  0
 12 13  2  0  0  0  0
 12 14  2  0  0  0  0
M  RAD  2   2   2   3   2
M  END
