Coordinates from ORCA-job 2-NO2-C6H3-N2-B3LYPG-aug-cc-pVDZ-scan-d09-49-n400
 OpenBabel11091809053D

 14 13  0  0  0  0  0  0  0  0999 V2000
   -2.4707   -0.0869   -0.8999 C   0  0  0  0  0  0  0  0  0  0  0  0
   -1.1729   -0.2768   -0.4760 C   0  0  0  0  0  0  0  0  0  0  0  0
   -0.4530    0.3479    0.3374 C   0  0  0  0  0  0  0  0  0  0  0  0
   -0.9457    1.4610    0.9965 C   0  0  0  0  0  0  0  0  0  0  0  0
   -2.2763    1.8045    0.6801 C   0  0  0  0  0  0  0  0  0  0  0  0
   -3.0144    1.0485   -0.2451 C   0  0  0  0  0  0  0  0  0  0  0  0
   -3.0320   -0.6804   -1.6174 H   0  0  0  0  0  0  0  0  0  0  0  0
    3.7402    1.8245   -0.6276 N   0  0  0  0  0  0  0  0  0  0  0  0
    4.4802    1.0874   -0.2691 N   0  0  0  0  0  0  0  0  0  0  0  0
   -4.0416    1.3391   -0.4715 H   0  0  0  0  0  0  0  0  0  0  0  0
   -2.7232    2.6693    1.1679 H   0  0  0  0  0  0  0  0  0  0  0  0
   -0.1649    2.2463    1.9677 N   0  0  0  0  0  0  0  0  0  0  0  0
    0.9937    1.9016    2.1666 O   0  0  0  0  0  0  0  0  0  0  0  0
   -0.7305    3.1925    2.5127 O   0  0  0  0  0  0  0  0  0  0  0  0
  1  2  2  0  0  0  0
  1  6  1  0  0  0  0
  2  3  1  0  0  0  0
  3  4  2  0  0  0  0
  4 12  1  0  0  0  0
  5  4  1  0  0  0  0
  5 11  1  0  0  0  0
  6  5  2  0  0  0  0
  7  1  1  0  0  0  0
  8  9  3  0  0  0  0
 10  6  1  0  0  0  0
 12 13  2  0  0  0  0
 12 14  2  0  0  0  0
M  RAD  2   2   2   3   2
M  END
