Coordinates from ORCA-job 2-NO2-C6H3-N2-B3LYPG-aug-cc-pVDZ-scan-d09-49-n400
 OpenBabel11091809053D

 14 13  0  0  0  0  0  0  0  0999 V2000
   -2.3461   -0.0600   -0.9302 C   0  0  0  0  0  0  0  0  0  0  0  0
   -1.0468   -0.2082   -0.4916 C   0  0  0  0  0  0  0  0  0  0  0  0
   -0.3687    0.4254    0.3506 C   0  0  0  0  0  0  0  0  0  0  0  0
   -0.9172    1.5021    1.0259 C   0  0  0  0  0  0  0  0  0  0  0  0
   -2.2550    1.7993    0.6967 C   0  0  0  0  0  0  0  0  0  0  0  0
   -2.9467    1.0352   -0.2580 C   0  0  0  0  0  0  0  0  0  0  0  0
   -2.8713   -0.6577   -1.6713 H   0  0  0  0  0  0  0  0  0  0  0  0
    3.4169    1.6547   -0.6662 N   0  0  0  0  0  0  0  0  0  0  0  0
    4.2310    0.9691   -0.3712 N   0  0  0  0  0  0  0  0  0  0  0  0
   -3.9813    1.2883   -0.4951 H   0  0  0  0  0  0  0  0  0  0  0  0
   -2.7439    2.6337    1.1968 H   0  0  0  0  0  0  0  0  0  0  0  0
   -0.1809    2.2962    2.0244 N   0  0  0  0  0  0  0  0  0  0  0  0
    0.9853    1.9867    2.2360 O   0  0  0  0  0  0  0  0  0  0  0  0
   -0.7864    3.2136    2.5755 O   0  0  0  0  0  0  0  0  0  0  0  0
  1  2  2  0  0  0  0
  1  6  1  0  0  0  0
  2  3  1  0  0  0  0
  3  4  2  0  0  0  0
  4 12  1  0  0  0  0
  5  4  1  0  0  0  0
  5 11  1  0  0  0  0
  6  5  2  0  0  0  0
  7  1  1  0  0  0  0
  8  9  3  0  0  0  0
 10  6  1  0  0  0  0
 12 13  2  0  0  0  0
 12 14  2  0  0  0  0
M  RAD  2   2   2   3   2
M  END
