Coordinates from ORCA-job 2-NO2-C6H3-N2-B3LYPG-aug-cc-pVDZ-scan-d09-49-n400
 OpenBabel11091809053D

 14 13  0  0  0  0  0  0  0  0999 V2000
   -2.0699    0.0169   -1.0245 C   0  0  0  0  0  0  0  0  0  0  0  0
   -0.7310    0.0408   -0.6899 C   0  0  0  0  0  0  0  0  0  0  0  0
   -0.0997    0.7051    0.1652 C   0  0  0  0  0  0  0  0  0  0  0  0
   -0.7522    1.6269    0.9662 C   0  0  0  0  0  0  0  0  0  0  0  0
   -2.1379    1.7458    0.7376 C   0  0  0  0  0  0  0  0  0  0  0  0
   -2.7761    0.9591   -0.2354 C   0  0  0  0  0  0  0  0  0  0  0  0
   -2.5553   -0.6054   -1.7729 H   0  0  0  0  0  0  0  0  0  0  0  0
    2.3718    1.3239   -0.4206 N   0  0  0  0  0  0  0  0  0  0  0  0
    3.2512    0.6675   -0.2903 N   0  0  0  0  0  0  0  0  0  0  0  0
   -3.8504    1.0710   -0.3906 H   0  0  0  0  0  0  0  0  0  0  0  0
   -2.7067    2.4548    1.3366 H   0  0  0  0  0  0  0  0  0  0  0  0
   -0.0876    2.4219    2.0126 N   0  0  0  0  0  0  0  0  0  0  0  0
    1.0948    2.1835    2.2305 O   0  0  0  0  0  0  0  0  0  0  0  0
   -0.7623    3.2667    2.5978 O   0  0  0  0  0  0  0  0  0  0  0  0
  1  2  2  0  0  0  0
  1  6  1  0  0  0  0
  2  3  1  0  0  0  0
  3  4  2  0  0  0  0
  4 12  1  0  0  0  0
  5  4  1  0  0  0  0
  5 11  1  0  0  0  0
  6  5  2  0  0  0  0
  7  1  1  0  0  0  0
  8  9  3  0  0  0  0
 10  6  1  0  0  0  0
 12 13  2  0  0  0  0
 12 14  2  0  0  0  0
M  RAD  2   2   2   3   2
M  END
