Coordinates from ORCA-job 2-NO2-C6H3-N2-B3LYPG-aug-cc-pVDZ-scan-d09-49-n400
 OpenBabel11091809053D

 14 13  0  0  0  0  0  0  0  0999 V2000
   -2.1343   -0.0035   -0.9988 C   0  0  0  0  0  0  0  0  0  0  0  0
   -0.8099   -0.0363   -0.6140 C   0  0  0  0  0  0  0  0  0  0  0  0
   -0.1731    0.6175    0.2447 C   0  0  0  0  0  0  0  0  0  0  0  0
   -0.8043    1.5898    1.0010 C   0  0  0  0  0  0  0  0  0  0  0  0
   -2.1765    1.7636    0.7289 C   0  0  0  0  0  0  0  0  0  0  0  0
   -2.8198    0.9849   -0.2473 C   0  0  0  0  0  0  0  0  0  0  0  0
   -2.6229   -0.6138   -1.7546 H   0  0  0  0  0  0  0  0  0  0  0  0
    2.6654    1.3948   -0.5381 N   0  0  0  0  0  0  0  0  0  0  0  0
    3.5319    0.7390   -0.3399 N   0  0  0  0  0  0  0  0  0  0  0  0
   -3.8829    1.1406   -0.4375 H   0  0  0  0  0  0  0  0  0  0  0  0
   -2.7305    2.5124    1.2925 H   0  0  0  0  0  0  0  0  0  0  0  0
   -0.1241    2.3920    2.0320 N   0  0  0  0  0  0  0  0  0  0  0  0
    1.0609    2.1554    2.2344 O   0  0  0  0  0  0  0  0  0  0  0  0
   -0.7911    3.2420    2.6189 O   0  0  0  0  0  0  0  0  0  0  0  0
  1  2  2  0  0  0  0
  1  6  1  0  0  0  0
  2  3  1  0  0  0  0
  3  4  2  0  0  0  0
  4 12  1  0  0  0  0
  5  4  1  0  0  0  0
  5 11  1  0  0  0  0
  6  5  2  0  0  0  0
  7  1  1  0  0  0  0
  8  9  3  0  0  0  0
 10  6  1  0  0  0  0
 12 13  2  0  0  0  0
 12 14  2  0  0  0  0
M  RAD  2   2   2   3   2
M  END
