Coordinates from ORCA-job 2-NO2-C6H3-N2-B3LYPG-aug-cc-pVDZ-scan-d09-49-n400
 OpenBabel11091809053D

 14 14  0  0  0  0  0  0  0  0999 V2000
   -1.8719    0.1995   -1.1227 C   0  0  0  0  0  0  0  0  0  0  0  0
   -0.4534    0.0920   -1.0770 C   0  0  0  0  0  0  0  0  0  0  0  0
    0.1160    0.8842   -0.0292 C   0  0  0  0  0  0  0  0  0  0  0  0
   -0.6406    1.6920    0.8917 C   0  0  0  0  0  0  0  0  0  0  0  0
   -2.0137    1.6350    0.8441 C   0  0  0  0  0  0  0  0  0  0  0  0
   -2.6327    0.8496   -0.1556 C   0  0  0  0  0  0  0  0  0  0  0  0
   -2.3967   -0.2922   -1.9467 H   0  0  0  0  0  0  0  0  0  0  0  0
    1.3748    0.7464    0.0792 N   0  0  0  0  0  0  0  0  0  0  0  0
    2.4781    0.5516    0.0962 N   0  0  0  0  0  0  0  0  0  0  0  0
   -3.7234    0.7959   -0.1754 H   0  0  0  0  0  0  0  0  0  0  0  0
   -2.5945    2.2255    1.5484 H   0  0  0  0  0  0  0  0  0  0  0  0
    0.0070    2.6009    1.8450 N   0  0  0  0  0  0  0  0  0  0  0  0
    1.2248    2.7583    1.7228 O   0  0  0  0  0  0  0  0  0  0  0  0
   -0.6847    3.1396    2.7016 O   0  0  0  0  0  0  0  0  0  0  0  0
  1  2  2  0  0  0  0
  1  6  1  0  0  0  0
  2  3  1  0  0  0  0
  3  8  1  0  0  0  0
  3  4  2  0  0  0  0
  4 12  1  0  0  0  0
  5  4  1  0  0  0  0
  5 11  1  0  0  0  0
  6  5  2  0  0  0  0
  7  1  1  0  0  0  0
  8  9  1  0  0  0  0
 10  6  1  0  0  0  0
 12 14  2  0  0  0  0
 13 12  2  0  0  0  0
M  RAD  3   2   2   8   2   9   3
M  END
