Coordinates from ORCA-job 2-NO2-C6H3-N2-B3LYPG-aug-cc-pVDZ-scan-d09-49-n400
 OpenBabel11091809053D

 14 13  0  0  0  0  0  0  0  0999 V2000
   -2.2460   -0.0354   -0.9599 C   0  0  0  0  0  0  0  0  0  0  0  0
   -0.9376   -0.1369   -0.5353 C   0  0  0  0  0  0  0  0  0  0  0  0
   -0.2819    0.5055    0.3179 C   0  0  0  0  0  0  0  0  0  0  0  0
   -0.8708    1.5403    1.0237 C   0  0  0  0  0  0  0  0  0  0  0  0
   -2.2230    1.7866    0.7110 C   0  0  0  0  0  0  0  0  0  0  0  0
   -2.8884    1.0161   -0.2572 C   0  0  0  0  0  0  0  0  0  0  0  0
   -2.7510   -0.6377   -1.7113 H   0  0  0  0  0  0  0  0  0  0  0  0
    3.0800    1.5243   -0.6237 N   0  0  0  0  0  0  0  0  0  0  0  0
    3.9348    0.8673   -0.3842 N   0  0  0  0  0  0  0  0  0  0  0  0
   -3.9349    1.2292   -0.4806 H   0  0  0  0  0  0  0  0  0  0  0  0
   -2.7438    2.5863    1.2349 H   0  0  0  0  0  0  0  0  0  0  0  0
   -0.1626    2.3402    2.0375 N   0  0  0  0  0  0  0  0  0  0  0  0
    1.0147    2.0696    2.2416 O   0  0  0  0  0  0  0  0  0  0  0  0
   -0.8005    3.2231    2.6081 O   0  0  0  0  0  0  0  0  0  0  0  0
  1  2  2  0  0  0  0
  1  6  1  0  0  0  0
  2  3  1  0  0  0  0
  3  4  2  0  0  0  0
  4 12  1  0  0  0  0
  5  4  1  0  0  0  0
  5 11  1  0  0  0  0
  6  5  2  0  0  0  0
  7  1  1  0  0  0  0
  8  9  3  0  0  0  0
 10  6  1  0  0  0  0
 12 13  2  0  0  0  0
 12 14  2  0  0  0  0
M  RAD  2   2   2   3   2
M  END
