Coordinates from ORCA-job 2-NO2-C6H3-N2-B3LYPG-aug-cc-pVDZ-scan-d09-49-n400
 OpenBabel11091809053D

 14 14  0  0  0  0  0  0  0  0999 V2000
   -1.8819    0.1262   -1.0634 C   0  0  0  0  0  0  0  0  0  0  0  0
   -0.4531    0.0805   -1.0273 C   0  0  0  0  0  0  0  0  0  0  0  0
    0.0362    0.8925   -0.0294 C   0  0  0  0  0  0  0  0  0  0  0  0
   -0.6650    1.7068    0.8958 C   0  0  0  0  0  0  0  0  0  0  0  0
   -2.0446    1.6990    0.8003 C   0  0  0  0  0  0  0  0  0  0  0  0
   -2.6492    0.8976   -0.1919 C   0  0  0  0  0  0  0  0  0  0  0  0
   -2.4078   -0.4736   -1.8119 H   0  0  0  0  0  0  0  0  0  0  0  0
    1.5062    0.8594    0.0255 N   0  0  0  0  0  0  0  0  0  0  0  0
    2.5928    0.6775   -0.1209 N   0  0  0  0  0  0  0  0  0  0  0  0
   -3.7388    0.8938   -0.2645 H   0  0  0  0  0  0  0  0  0  0  0  0
   -2.6295    2.3064    1.4867 H   0  0  0  0  0  0  0  0  0  0  0  0
   -0.0066    2.5270    1.9126 N   0  0  0  0  0  0  0  0  0  0  0  0
    1.2284    2.4888    1.9414 O   0  0  0  0  0  0  0  0  0  0  0  0
   -0.6980    3.1966    2.6693 O   0  0  0  0  0  0  0  0  0  0  0  0
  1  2  2  0  0  0  0
  1  6  1  0  0  0  0
  2  3  1  0  0  0  0
  3  8  1  0  0  0  0
  3  4  2  0  0  0  0
  4 12  1  0  0  0  0
  5  4  1  0  0  0  0
  5 11  1  0  0  0  0
  6  5  2  0  0  0  0
  7  1  1  0  0  0  0
  9  8  1  0  0  0  0
 10  6  1  0  0  0  0
 12 13  2  0  0  0  0
 12 14  2  0  0  0  0
M  RAD  3   2   2   8   2   9   3
M  END
