Coordinates from ORCA-job 2-NO2-C6H3-N2-B3LYPG-aug-cc-pVDZ-scan-d09-49-n400
 OpenBabel11091809053D

 14 13  0  0  0  0  0  0  0  0999 V2000
   -1.9907    0.0682   -1.0705 C   0  0  0  0  0  0  0  0  0  0  0  0
   -0.6183    0.1937   -0.8933 C   0  0  0  0  0  0  0  0  0  0  0  0
   -0.0332    0.8838   -0.0159 C   0  0  0  0  0  0  0  0  0  0  0  0
   -0.6827    1.7037    0.8905 C   0  0  0  0  0  0  0  0  0  0  0  0
   -2.0859    1.6981    0.7696 C   0  0  0  0  0  0  0  0  0  0  0  0
   -2.7225    0.8985   -0.1928 C   0  0  0  0  0  0  0  0  0  0  0  0
   -2.4839   -0.5703   -1.8023 H   0  0  0  0  0  0  0  0  0  0  0  0
    2.0253    1.2113   -0.2054 N   0  0  0  0  0  0  0  0  0  0  0  0
    2.8743    0.5023   -0.1391 N   0  0  0  0  0  0  0  0  0  0  0  0
   -3.8114    0.9184   -0.2616 H   0  0  0  0  0  0  0  0  0  0  0  0
   -2.6663    2.3141    1.4541 H   0  0  0  0  0  0  0  0  0  0  0  0
   -0.0375    2.4863    1.9552 N   0  0  0  0  0  0  0  0  0  0  0  0
    1.1396    2.2395    2.2021 O   0  0  0  0  0  0  0  0  0  0  0  0
   -0.7179    3.3308    2.5320 O   0  0  0  0  0  0  0  0  0  0  0  0
  1  2  2  0  0  0  0
  1  6  1  0  0  0  0
  2  3  1  0  0  0  0
  3  4  2  0  0  0  0
  4 12  1  0  0  0  0
  5  4  1  0  0  0  0
  5 11  1  0  0  0  0
  6  5  2  0  0  0  0
  7  1  1  0  0  0  0
  8  9  3  0  0  0  0
 10  6  1  0  0  0  0
 12 13  2  0  0  0  0
 12 14  2  0  0  0  0
M  RAD  2   2   2   3   2
M  END
