Coordinates from ORCA-job 2-NO2-C6H3-N2-B3LYPG-aug-cc-pVDZ-scan-d09-49-n400
 OpenBabel11091809053D

 14 13  0  0  0  0  0  0  0  0999 V2000
   -2.2418   -0.0343   -0.9612 C   0  0  0  0  0  0  0  0  0  0  0  0
   -0.9330   -0.1336   -0.5373 C   0  0  0  0  0  0  0  0  0  0  0  0
   -0.2781    0.5091    0.3162 C   0  0  0  0  0  0  0  0  0  0  0  0
   -0.8688    1.5420    1.0234 C   0  0  0  0  0  0  0  0  0  0  0  0
   -2.2216    1.7859    0.7116 C   0  0  0  0  0  0  0  0  0  0  0  0
   -2.8859    1.0151   -0.2570 C   0  0  0  0  0  0  0  0  0  0  0  0
   -2.7459   -0.6368   -1.7130 H   0  0  0  0  0  0  0  0  0  0  0  0
    3.0657    1.5190   -0.6218 N   0  0  0  0  0  0  0  0  0  0  0  0
    3.9217    0.8627   -0.3843 N   0  0  0  0  0  0  0  0  0  0  0  0
   -3.9330    1.2264   -0.4798 H   0  0  0  0  0  0  0  0  0  0  0  0
   -2.7437    2.5841    1.2366 H   0  0  0  0  0  0  0  0  0  0  0  0
   -0.1617    2.3421    2.0379 N   0  0  0  0  0  0  0  0  0  0  0  0
    1.0159    2.0731    2.2419 O   0  0  0  0  0  0  0  0  0  0  0  0
   -0.8009    3.2236    2.6092 O   0  0  0  0  0  0  0  0  0  0  0  0
  1  2  2  0  0  0  0
  1  6  1  0  0  0  0
  2  3  1  0  0  0  0
  3  4  2  0  0  0  0
  4 12  1  0  0  0  0
  5  4  1  0  0  0  0
  5 11  1  0  0  0  0
  6  5  2  0  0  0  0
  7  1  1  0  0  0  0
  8  9  3  0  0  0  0
 10  6  1  0  0  0  0
 12 13  2  0  0  0  0
 12 14  2  0  0  0  0
M  RAD  2   2   2   3   2
M  END
