Coordinates from ORCA-job 2-NO2-C6H3-N2-B3LYPG-aug-cc-pVDZ-scan-d09-49-n400
 OpenBabel11091809053D

 14 13  0  0  0  0  0  0  0  0999 V2000
   -2.1325   -0.0029   -0.9995 C   0  0  0  0  0  0  0  0  0  0  0  0
   -0.8078   -0.0344   -0.6156 C   0  0  0  0  0  0  0  0  0  0  0  0
   -0.1713    0.6196    0.2431 C   0  0  0  0  0  0  0  0  0  0  0  0
   -0.8030    1.5907    1.0004 C   0  0  0  0  0  0  0  0  0  0  0  0
   -2.1757    1.7631    0.7293 C   0  0  0  0  0  0  0  0  0  0  0  0
   -2.8187    0.9843   -0.2470 C   0  0  0  0  0  0  0  0  0  0  0  0
   -2.6209   -0.6134   -1.7553 H   0  0  0  0  0  0  0  0  0  0  0  0
    2.6585    1.3930   -0.5363 N   0  0  0  0  0  0  0  0  0  0  0  0
    3.5248    0.7367   -0.3385 N   0  0  0  0  0  0  0  0  0  0  0  0
   -3.8821    1.1389   -0.4364 H   0  0  0  0  0  0  0  0  0  0  0  0
   -2.7301    2.5110    1.2937 H   0  0  0  0  0  0  0  0  0  0  0  0
   -0.1233    2.3929    2.0317 N   0  0  0  0  0  0  0  0  0  0  0  0
    1.0617    2.1565    2.2343 O   0  0  0  0  0  0  0  0  0  0  0  0
   -0.7906    3.2425    2.6187 O   0  0  0  0  0  0  0  0  0  0  0  0
  1  2  2  0  0  0  0
  1  6  1  0  0  0  0
  2  3  1  0  0  0  0
  3  4  2  0  0  0  0
  4 12  1  0  0  0  0
  5  4  1  0  0  0  0
  5 11  1  0  0  0  0
  6  5  2  0  0  0  0
  7  1  1  0  0  0  0
  8  9  3  0  0  0  0
 10  6  1  0  0  0  0
 12 13  2  0  0  0  0
 12 14  2  0  0  0  0
M  RAD  2   2   2   3   2
M  END
