Coordinates from ORCA-job 2-NO2-C6H3-N2-B3LYPG-aug-cc-pVDZ-scan-d09-49-n400
 OpenBabel11091809053D

 14 14  0  0  0  0  0  0  0  0999 V2000
   -1.9191    0.1155   -1.0775 C   0  0  0  0  0  0  0  0  0  0  0  0
   -0.5130    0.1441   -0.9554 C   0  0  0  0  0  0  0  0  0  0  0  0
   -0.0312    0.8991   -0.0259 C   0  0  0  0  0  0  0  0  0  0  0  0
   -0.6675    1.7129    0.9031 C   0  0  0  0  0  0  0  0  0  0  0  0
   -2.0647    1.6918    0.7899 C   0  0  0  0  0  0  0  0  0  0  0  0
   -2.6781    0.8982   -0.1936 C   0  0  0  0  0  0  0  0  0  0  0  0
   -2.4243   -0.4917   -1.8319 H   0  0  0  0  0  0  0  0  0  0  0  0
    1.7576    0.8987    0.0850 N   0  0  0  0  0  0  0  0  0  0  0  0
    2.7392    0.5363   -0.2819 N   0  0  0  0  0  0  0  0  0  0  0  0
   -3.7673    0.8978   -0.2627 H   0  0  0  0  0  0  0  0  0  0  0  0
   -2.6504    2.2992    1.4763 H   0  0  0  0  0  0  0  0  0  0  0  0
   -0.0324    2.5432    1.9323 N   0  0  0  0  0  0  0  0  0  0  0  0
    1.1983    2.5311    1.9964 O   0  0  0  0  0  0  0  0  0  0  0  0
   -0.7584    3.2022    2.6683 O   0  0  0  0  0  0  0  0  0  0  0  0
  1  2  2  0  0  0  0
  1  6  1  0  0  0  0
  2  3  1  0  0  0  0
  3  8  1  0  0  0  0
  3  4  2  0  0  0  0
  4 12  1  0  0  0  0
  5  4  1  0  0  0  0
  5 11  1  0  0  0  0
  6  5  2  0  0  0  0
  7  1  1  0  0  0  0
  9  8  2  0  0  0  0
 10  6  1  0  0  0  0
 12 13  2  0  0  0  0
 12 14  2  0  0  0  0
M  RAD  2   2   2   9   2
M  END
