Coordinates from ORCA-job 2-NO2-C6H3-N2-B3LYPG-aug-cc-pVDZ-scan-d09-49-n400
 OpenBabel11091809053D

 14 13  0  0  0  0  0  0  0  0999 V2000
   -2.0623    0.0198   -1.0289 C   0  0  0  0  0  0  0  0  0  0  0  0
   -0.7219    0.0539   -0.7037 C   0  0  0  0  0  0  0  0  0  0  0  0
   -0.0867    0.7189    0.1486 C   0  0  0  0  0  0  0  0  0  0  0  0
   -0.7425    1.6322    0.9571 C   0  0  0  0  0  0  0  0  0  0  0  0
   -2.1307    1.7422    0.7385 C   0  0  0  0  0  0  0  0  0  0  0  0
   -2.7704    0.9548   -0.2326 C   0  0  0  0  0  0  0  0  0  0  0  0
   -2.5478   -0.6044   -1.7756 H   0  0  0  0  0  0  0  0  0  0  0  0
    2.3263    1.3143   -0.3949 N   0  0  0  0  0  0  0  0  0  0  0  0
    3.2074    0.6581   -0.2759 N   0  0  0  0  0  0  0  0  0  0  0  0
   -3.8463    1.0605   -0.3805 H   0  0  0  0  0  0  0  0  0  0  0  0
   -2.7002    2.4445    1.3447 H   0  0  0  0  0  0  0  0  0  0  0  0
   -0.0806    2.4259    2.0065 N   0  0  0  0  0  0  0  0  0  0  0  0
    1.1024    2.1904    2.2253 O   0  0  0  0  0  0  0  0  0  0  0  0
   -0.7577    3.2672    2.5938 O   0  0  0  0  0  0  0  0  0  0  0  0
  1  2  2  0  0  0  0
  1  6  1  0  0  0  0
  2  3  1  0  0  0  0
  3  4  2  0  0  0  0
  4 12  1  0  0  0  0
  5  4  1  0  0  0  0
  5 11  1  0  0  0  0
  6  5  2  0  0  0  0
  7  1  1  0  0  0  0
  8  9  3  0  0  0  0
 10  6  1  0  0  0  0
 12 13  2  0  0  0  0
 12 14  2  0  0  0  0
M  RAD  2   2   2   3   2
M  END
