Coordinates from ORCA-job 2-NO2-C6H3-N2-B3LYPG-aug-cc-pVDZ-scan-d09-49-n400
 OpenBabel11091809053D

 14 14  0  0  0  0  0  0  0  0999 V2000
   -1.8906    0.1249   -1.0647 C   0  0  0  0  0  0  0  0  0  0  0  0
   -0.4654    0.0972   -1.0078 C   0  0  0  0  0  0  0  0  0  0  0  0
    0.0018    0.8934   -0.0303 C   0  0  0  0  0  0  0  0  0  0  0  0
   -0.6714    1.7083    0.8975 C   0  0  0  0  0  0  0  0  0  0  0  0
   -2.0570    1.6984    0.7983 C   0  0  0  0  0  0  0  0  0  0  0  0
   -2.6601    0.8987   -0.1919 C   0  0  0  0  0  0  0  0  0  0  0  0
   -2.4108   -0.4775   -1.8148 H   0  0  0  0  0  0  0  0  0  0  0  0
    1.5813    0.8791    0.0525 N   0  0  0  0  0  0  0  0  0  0  0  0
    2.6444    0.6435   -0.1607 N   0  0  0  0  0  0  0  0  0  0  0  0
   -3.7493    0.8936   -0.2668 H   0  0  0  0  0  0  0  0  0  0  0  0
   -2.6420    2.3058    1.4846 H   0  0  0  0  0  0  0  0  0  0  0  0
   -0.0120    2.5264    1.9132 N   0  0  0  0  0  0  0  0  0  0  0  0
    1.2233    2.4888    1.9451 O   0  0  0  0  0  0  0  0  0  0  0  0
   -0.7035    3.1980    2.6682 O   0  0  0  0  0  0  0  0  0  0  0  0
  1  2  2  0  0  0  0
  1  6  1  0  0  0  0
  2  3  1  0  0  0  0
  3  8  1  0  0  0  0
  3  4  2  0  0  0  0
  4 12  1  0  0  0  0
  5  4  1  0  0  0  0
  5 11  1  0  0  0  0
  6  5  2  0  0  0  0
  7  1  1  0  0  0  0
  9  8  1  0  0  0  0
 10  6  1  0  0  0  0
 12 13  2  0  0  0  0
 12 14  2  0  0  0  0
M  RAD  3   2   2   8   2   9   3
M  END
