Coordinates from ORCA-job 2-NO2-C6H3-N2-B3LYPG-aug-cc-pVDZ-scan-d09-49-n400
 OpenBabel11091809053D

 14 13  0  0  0  0  0  0  0  0999 V2000
   -2.3375   -0.0580   -0.9327 C   0  0  0  0  0  0  0  0  0  0  0  0
   -1.0375   -0.2024   -0.4951 C   0  0  0  0  0  0  0  0  0  0  0  0
   -0.3614    0.4319    0.3481 C   0  0  0  0  0  0  0  0  0  0  0  0
   -0.9133    1.5053    1.0259 C   0  0  0  0  0  0  0  0  0  0  0  0
   -2.2524    1.7984    0.6979 C   0  0  0  0  0  0  0  0  0  0  0  0
   -2.9418    1.0337   -0.2581 C   0  0  0  0  0  0  0  0  0  0  0  0
   -2.8609   -0.6560   -1.6747 H   0  0  0  0  0  0  0  0  0  0  0  0
    3.3882    1.6431   -0.6628 N   0  0  0  0  0  0  0  0  0  0  0  0
    4.2069    0.9608   -0.3731 N   0  0  0  0  0  0  0  0  0  0  0  0
   -3.9774    1.2836   -0.4941 H   0  0  0  0  0  0  0  0  0  0  0  0
   -2.7441    2.6300    1.1999 H   0  0  0  0  0  0  0  0  0  0  0  0
   -0.1795    2.2999    2.0258 N   0  0  0  0  0  0  0  0  0  0  0  0
    0.9877    1.9938    2.2367 O   0  0  0  0  0  0  0  0  0  0  0  0
   -0.7880    3.2143    2.5786 O   0  0  0  0  0  0  0  0  0  0  0  0
  1  2  2  0  0  0  0
  1  6  1  0  0  0  0
  2  3  1  0  0  0  0
  3  4  2  0  0  0  0
  4 12  1  0  0  0  0
  5  4  1  0  0  0  0
  5 11  1  0  0  0  0
  6  5  2  0  0  0  0
  7  1  1  0  0  0  0
  8  9  3  0  0  0  0
 10  6  1  0  0  0  0
 12 13  2  0  0  0  0
 12 14  2  0  0  0  0
M  RAD  2   2   2   3   2
M  END
