Coordinates from ORCA-job 2-NO2-C6H3-N2-B3LYPG-aug-cc-pVDZ-scan-d09-49-n400
 OpenBabel11091809053D

 14 13  0  0  0  0  0  0  0  0999 V2000
   -2.1080    0.0049   -1.0093 C   0  0  0  0  0  0  0  0  0  0  0  0
   -0.7780   -0.0063   -0.6421 C   0  0  0  0  0  0  0  0  0  0  0  0
   -0.1446    0.6518    0.2158 C   0  0  0  0  0  0  0  0  0  0  0  0
   -0.7848    1.6044    0.9893 C   0  0  0  0  0  0  0  0  0  0  0  0
   -2.1627    1.7565    0.7332 C   0  0  0  0  0  0  0  0  0  0  0  0
   -2.8029    0.9748   -0.2426 C   0  0  0  0  0  0  0  0  0  0  0  0
   -2.5947   -0.6093   -1.7633 H   0  0  0  0  0  0  0  0  0  0  0  0
    2.5556    1.3686   -0.5039 N   0  0  0  0  0  0  0  0  0  0  0  0
    3.4200    0.7070   -0.3152 N   0  0  0  0  0  0  0  0  0  0  0  0
   -3.8707    1.1129   -0.4195 H   0  0  0  0  0  0  0  0  0  0  0  0
   -2.7237    2.4897    1.3103 H   0  0  0  0  0  0  0  0  0  0  0  0
   -0.1105    2.4043    2.0254 N   0  0  0  0  0  0  0  0  0  0  0  0
    1.0738    2.1671    2.2322 O   0  0  0  0  0  0  0  0  0  0  0  0
   -0.7801    3.2520    2.6122 O   0  0  0  0  0  0  0  0  0  0  0  0
  1  2  2  0  0  0  0
  1  6  1  0  0  0  0
  2  3  1  0  0  0  0
  3  4  2  0  0  0  0
  4 12  1  0  0  0  0
  5  4  1  0  0  0  0
  5 11  1  0  0  0  0
  6  5  2  0  0  0  0
  7  1  1  0  0  0  0
  8  9  3  0  0  0  0
 10  6  1  0  0  0  0
 12 13  2  0  0  0  0
 12 14  2  0  0  0  0
M  RAD  2   2   2   3   2
M  END
