Coordinates from ORCA-job 2-NO2-C6H3-N2-B3LYPG-aug-cc-pVDZ-scan-d09-49-n400
 OpenBabel11091809053D

 14 13  0  0  0  0  0  0  0  0999 V2000
   -1.9945    0.0622   -1.0675 C   0  0  0  0  0  0  0  0  0  0  0  0
   -0.6262    0.1814   -0.8708 C   0  0  0  0  0  0  0  0  0  0  0  0
   -0.0313    0.8675    0.0016 C   0  0  0  0  0  0  0  0  0  0  0  0
   -0.6858    1.6945    0.8987 C   0  0  0  0  0  0  0  0  0  0  0  0
   -2.0882    1.7012    0.7665 C   0  0  0  0  0  0  0  0  0  0  0  0
   -2.7247    0.9042   -0.1980 C   0  0  0  0  0  0  0  0  0  0  0  0
   -2.4856   -0.5749   -1.8013 H   0  0  0  0  0  0  0  0  0  0  0  0
    2.0388    1.2265   -0.2232 N   0  0  0  0  0  0  0  0  0  0  0  0
    2.8863    0.5161   -0.1524 N   0  0  0  0  0  0  0  0  0  0  0  0
   -3.8128    0.9342   -0.2763 H   0  0  0  0  0  0  0  0  0  0  0  0
   -2.6691    2.3253    1.4433 H   0  0  0  0  0  0  0  0  0  0  0  0
   -0.0407    2.4752    1.9654 N   0  0  0  0  0  0  0  0  0  0  0  0
    1.1406    2.2384    2.2006 O   0  0  0  0  0  0  0  0  0  0  0  0
   -0.7178    3.3267    2.5359 O   0  0  0  0  0  0  0  0  0  0  0  0
  1  2  2  0  0  0  0
  1  6  1  0  0  0  0
  2  3  1  0  0  0  0
  3  4  2  0  0  0  0
  4 12  1  0  0  0  0
  5  4  1  0  0  0  0
  5 11  1  0  0  0  0
  6  5  2  0  0  0  0
  7  1  1  0  0  0  0
  8  9  3  0  0  0  0
 10  6  1  0  0  0  0
 12 13  2  0  0  0  0
 12 14  2  0  0  0  0
M  RAD  2   2   2   3   2
M  END
