Coordinates from ORCA-job 2-NO2-C6H3-N2-B3LYPG-aug-cc-pVDZ-scan-d09-49-n400
 OpenBabel11091809053D

 14 13  0  0  0  0  0  0  0  0999 V2000
   -2.3227   -0.0545   -0.9371 C   0  0  0  0  0  0  0  0  0  0  0  0
   -1.0214   -0.1922   -0.5013 C   0  0  0  0  0  0  0  0  0  0  0  0
   -0.3485    0.4434    0.3435 C   0  0  0  0  0  0  0  0  0  0  0  0
   -0.9066    1.5108    1.0257 C   0  0  0  0  0  0  0  0  0  0  0  0
   -2.2478    1.7967    0.7000 C   0  0  0  0  0  0  0  0  0  0  0  0
   -2.9332    1.0310   -0.2580 C   0  0  0  0  0  0  0  0  0  0  0  0
   -2.8431   -0.6532   -1.6807 H   0  0  0  0  0  0  0  0  0  0  0  0
    3.3379    1.6233   -0.6564 N   0  0  0  0  0  0  0  0  0  0  0  0
    4.1641    0.9463   -0.3756 N   0  0  0  0  0  0  0  0  0  0  0  0
   -3.9706    1.2752   -0.4922 H   0  0  0  0  0  0  0  0  0  0  0  0
   -2.7442    2.6233    1.2054 H   0  0  0  0  0  0  0  0  0  0  0  0
   -0.1769    2.3064    2.0279 N   0  0  0  0  0  0  0  0  0  0  0  0
    0.9921    2.0062    2.2375 O   0  0  0  0  0  0  0  0  0  0  0  0
   -0.7903    3.2156    2.5838 O   0  0  0  0  0  0  0  0  0  0  0  0
  1  2  2  0  0  0  0
  1  6  1  0  0  0  0
  2  3  1  0  0  0  0
  3  4  2  0  0  0  0
  4 12  1  0  0  0  0
  5  4  1  0  0  0  0
  5 11  1  0  0  0  0
  6  5  2  0  0  0  0
  7  1  1  0  0  0  0
  8  9  3  0  0  0  0
 10  6  1  0  0  0  0
 12 13  2  0  0  0  0
 12 14  2  0  0  0  0
M  RAD  2   2   2   3   2
M  END
