Coordinates from ORCA-job 2-NO2-C6H3-N2-B3LYPG-aug-cc-pVDZ-scan-d09-49-n400
 OpenBabel11091809053D

 14 14  0  0  0  0  0  0  0  0999 V2000
   -1.8652    0.2382   -1.1494 C   0  0  0  0  0  0  0  0  0  0  0  0
   -0.4582    0.1004   -1.0938 C   0  0  0  0  0  0  0  0  0  0  0  0
    0.1616    0.8718   -0.0187 C   0  0  0  0  0  0  0  0  0  0  0  0
   -0.6273    1.6840    0.8886 C   0  0  0  0  0  0  0  0  0  0  0  0
   -1.9978    1.6039    0.8612 C   0  0  0  0  0  0  0  0  0  0  0  0
   -2.6235    0.8302   -0.1419 C   0  0  0  0  0  0  0  0  0  0  0  0
   -2.3859   -0.2077   -2.0014 H   0  0  0  0  0  0  0  0  0  0  0  0
    1.3035    0.7114    0.1137 N   0  0  0  0  0  0  0  0  0  0  0  0
    2.4106    0.4995    0.1860 N   0  0  0  0  0  0  0  0  0  0  0  0
   -3.7125    0.7480   -0.1388 H   0  0  0  0  0  0  0  0  0  0  0  0
   -2.5761    2.1833    1.5769 H   0  0  0  0  0  0  0  0  0  0  0  0
    0.0142    2.6318    1.8091 N   0  0  0  0  0  0  0  0  0  0  0  0
    1.2103    2.8658    1.6232 O   0  0  0  0  0  0  0  0  0  0  0  0
   -0.6648    3.1177    2.7077 O   0  0  0  0  0  0  0  0  0  0  0  0
  1  2  2  0  0  0  0
  1  6  1  0  0  0  0
  2  3  1  0  0  0  0
  3  8  1  0  0  0  0
  3  4  2  0  0  0  0
  4 12  1  0  0  0  0
  5  4  1  0  0  0  0
  5 11  1  0  0  0  0
  6 10  1  0  0  0  0
  6  5  2  0  0  0  0
  7  1  1  0  0  0  0
  8  9  1  0  0  0  0
 12 14  2  0  0  0  0
 13 12  2  0  0  0  0
M  RAD  3   2   2   8   2   9   3
M  END
