Coordinates from ORCA-job 2-NO2-C6H3-N2-B3LYPG-aug-cc-pVDZ-scan-d09-49-n400
 OpenBabel11091809053D

 14 13  0  0  0  0  0  0  0  0999 V2000
   -2.2148   -0.0272   -0.9696 C   0  0  0  0  0  0  0  0  0  0  0  0
   -0.9031   -0.1122   -0.5515 C   0  0  0  0  0  0  0  0  0  0  0  0
   -0.2538    0.5330    0.3044 C   0  0  0  0  0  0  0  0  0  0  0  0
   -0.8552    1.5530    1.0212 C   0  0  0  0  0  0  0  0  0  0  0  0
   -2.2122    1.7816    0.7157 C   0  0  0  0  0  0  0  0  0  0  0  0
   -2.8698    1.0090   -0.2560 C   0  0  0  0  0  0  0  0  0  0  0  0
   -2.7139   -0.6312   -1.7235 H   0  0  0  0  0  0  0  0  0  0  0  0
    2.9734    1.4858   -0.6081 N   0  0  0  0  0  0  0  0  0  0  0  0
    3.8354    0.8330   -0.3831 N   0  0  0  0  0  0  0  0  0  0  0  0
   -3.9204    1.2083   -0.4735 H   0  0  0  0  0  0  0  0  0  0  0  0
   -2.7427    2.5692    1.2481 H   0  0  0  0  0  0  0  0  0  0  0  0
   -0.1556    2.3543    2.0399 N   0  0  0  0  0  0  0  0  0  0  0  0
    1.0244    2.0948    2.2429 O   0  0  0  0  0  0  0  0  0  0  0  0
   -0.8028    3.2270    2.6155 O   0  0  0  0  0  0  0  0  0  0  0  0
  1  2  2  0  0  0  0
  1  6  1  0  0  0  0
  2  3  1  0  0  0  0
  3  4  2  0  0  0  0
  4 12  1  0  0  0  0
  5  4  1  0  0  0  0
  5 11  1  0  0  0  0
  6  5  2  0  0  0  0
  7  1  1  0  0  0  0
  8  9  3  0  0  0  0
 10  6  1  0  0  0  0
 12 13  2  0  0  0  0
 12 14  2  0  0  0  0
M  RAD  2   2   2   3   2
M  END
