Coordinates from ORCA-job 2-NO2-C6H3-N2-B3LYPG-aug-cc-pVDZ-scan-d09-49-n400
 OpenBabel11091809053D

 14 13  0  0  0  0  0  0  0  0999 V2000
   -2.4572   -0.0836   -0.9036 C   0  0  0  0  0  0  0  0  0  0  0  0
   -1.1593   -0.2680   -0.4783 C   0  0  0  0  0  0  0  0  0  0  0  0
   -0.4418    0.3566    0.3376 C   0  0  0  0  0  0  0  0  0  0  0  0
   -0.9425    1.4650    0.9989 C   0  0  0  0  0  0  0  0  0  0  0  0
   -2.2741    1.8036    0.6826 C   0  0  0  0  0  0  0  0  0  0  0  0
   -3.0076    1.0467   -0.2458 C   0  0  0  0  0  0  0  0  0  0  0  0
   -3.0144   -0.6778   -1.6238 H   0  0  0  0  0  0  0  0  0  0  0  0
    3.7047    1.8069   -0.6339 N   0  0  0  0  0  0  0  0  0  0  0  0
    4.4485    1.0744   -0.2741 N   0  0  0  0  0  0  0  0  0  0  0  0
   -4.0359    1.3326   -0.4727 H   0  0  0  0  0  0  0  0  0  0  0  0
   -2.7253    2.6648    1.1726 H   0  0  0  0  0  0  0  0  0  0  0  0
   -0.1655    2.2517    1.9726 N   0  0  0  0  0  0  0  0  0  0  0  0
    0.9934    1.9092    2.1733 O   0  0  0  0  0  0  0  0  0  0  0  0
   -0.7340    3.1963    2.5171 O   0  0  0  0  0  0  0  0  0  0  0  0
  1  2  2  0  0  0  0
  1  6  1  0  0  0  0
  2  3  1  0  0  0  0
  3  4  2  0  0  0  0
  4 12  1  0  0  0  0
  5  4  1  0  0  0  0
  5 11  1  0  0  0  0
  6  5  2  0  0  0  0
  7  1  1  0  0  0  0
  8  9  3  0  0  0  0
 10  6  1  0  0  0  0
 12 13  2  0  0  0  0
 12 14  2  0  0  0  0
M  RAD  2   2   2   3   2
M  END
