Coordinates from ORCA-job 2-NO2-C6H3-N2-B3LYPG-aug-cc-pVDZ-scan-d09-49-n400
 OpenBabel11091809053D

 14 14  0  0  0  0  0  0  0  0999 V2000
   -1.8958    0.1228   -1.0673 C   0  0  0  0  0  0  0  0  0  0  0  0
   -0.4743    0.1082   -0.9951 C   0  0  0  0  0  0  0  0  0  0  0  0
   -0.0105    0.8941   -0.0303 C   0  0  0  0  0  0  0  0  0  0  0  0
   -0.6704    1.7093    0.8984 C   0  0  0  0  0  0  0  0  0  0  0  0
   -2.0595    1.6969    0.7961 C   0  0  0  0  0  0  0  0  0  0  0  0
   -2.6640    0.8986   -0.1923 C   0  0  0  0  0  0  0  0  0  0  0  0
   -2.4124   -0.4809   -1.8185 H   0  0  0  0  0  0  0  0  0  0  0  0
    1.6185    0.8885    0.0658 N   0  0  0  0  0  0  0  0  0  0  0  0
    2.6638    0.6185   -0.1896 N   0  0  0  0  0  0  0  0  0  0  0  0
   -3.7532    0.8939   -0.2666 H   0  0  0  0  0  0  0  0  0  0  0  0
   -2.6444    2.3045    1.4825 H   0  0  0  0  0  0  0  0  0  0  0  0
   -0.0153    2.5294    1.9160 N   0  0  0  0  0  0  0  0  0  0  0  0
    1.2195    2.4964    1.9549 O   0  0  0  0  0  0  0  0  0  0  0  0
   -0.7132    3.1980    2.6682 O   0  0  0  0  0  0  0  0  0  0  0  0
  1  2  2  0  0  0  0
  1  6  1  0  0  0  0
  2  3  1  0  0  0  0
  3  8  1  0  0  0  0
  3  4  2  0  0  0  0
  4 12  1  0  0  0  0
  5  4  1  0  0  0  0
  5 11  1  0  0  0  0
  6  5  2  0  0  0  0
  7  1  1  0  0  0  0
  9  8  1  0  0  0  0
 10  6  1  0  0  0  0
 12 13  2  0  0  0  0
 12 14  2  0  0  0  0
M  RAD  3   2   2   8   2   9   3
M  END
