Coordinates from ORCA-job 2-NO2-C6H3-N2-B3LYPG-aug-cc-pVDZ-scan-d09-49-n400
 OpenBabel11091809053D

 14 14  0  0  0  0  0  0  0  0999 V2000
   -1.8665    0.2321   -1.1454 C   0  0  0  0  0  0  0  0  0  0  0  0
   -0.4575    0.0994   -1.0914 C   0  0  0  0  0  0  0  0  0  0  0  0
    0.1534    0.8745   -0.0214 C   0  0  0  0  0  0  0  0  0  0  0  0
   -0.6294    1.6855    0.8889 C   0  0  0  0  0  0  0  0  0  0  0  0
   -2.0004    1.6087    0.8587 C   0  0  0  0  0  0  0  0  0  0  0  0
   -2.6252    0.8327   -0.1436 C   0  0  0  0  0  0  0  0  0  0  0  0
   -2.3880   -0.2203   -1.9935 H   0  0  0  0  0  0  0  0  0  0  0  0
    1.3162    0.7160    0.1084 N   0  0  0  0  0  0  0  0  0  0  0  0
    2.4224    0.5068    0.1729 N   0  0  0  0  0  0  0  0  0  0  0  0
   -3.7144    0.7548   -0.1437 H   0  0  0  0  0  0  0  0  0  0  0  0
   -2.5792    2.1899    1.5725 H   0  0  0  0  0  0  0  0  0  0  0  0
    0.0128    2.6280    1.8141 N   0  0  0  0  0  0  0  0  0  0  0  0
    1.2133    2.8491    1.6392 O   0  0  0  0  0  0  0  0  0  0  0  0
   -0.6684    3.1212    2.7069 O   0  0  0  0  0  0  0  0  0  0  0  0
  1  2  2  0  0  0  0
  1  6  1  0  0  0  0
  2  3  1  0  0  0  0
  3  8  1  0  0  0  0
  3  4  2  0  0  0  0
  4 12  1  0  0  0  0
  5  4  1  0  0  0  0
  5 11  1  0  0  0  0
  6  5  2  0  0  0  0
  7  1  1  0  0  0  0
  8  9  1  0  0  0  0
 10  6  1  0  0  0  0
 12 14  2  0  0  0  0
 13 12  2  0  0  0  0
M  RAD  3   2   2   8   2   9   3
M  END
