Coordinates from ORCA-job 2-NO2-C6H3-N2-B3LYPG-aug-cc-pVDZ-scan-d09-49-n400
 OpenBabel11091809053D

 14 13  0  0  0  0  0  0  0  0999 V2000
   -2.2048   -0.0244   -0.9728 C   0  0  0  0  0  0  0  0  0  0  0  0
   -0.8919   -0.1039   -0.5574 C   0  0  0  0  0  0  0  0  0  0  0  0
   -0.2445    0.5422    0.2992 C   0  0  0  0  0  0  0  0  0  0  0  0
   -0.8498    1.5572    1.0199 C   0  0  0  0  0  0  0  0  0  0  0  0
   -2.2084    1.7798    0.7172 C   0  0  0  0  0  0  0  0  0  0  0  0
   -2.8638    1.0066   -0.2554 C   0  0  0  0  0  0  0  0  0  0  0  0
   -2.7023   -0.6290   -1.7274 H   0  0  0  0  0  0  0  0  0  0  0  0
    2.9380    1.4738   -0.6019 N   0  0  0  0  0  0  0  0  0  0  0  0
    3.8018    0.8218   -0.3813 N   0  0  0  0  0  0  0  0  0  0  0  0
   -3.9158    1.2011   -0.4706 H   0  0  0  0  0  0  0  0  0  0  0  0
   -2.7419    2.5633    1.2527 H   0  0  0  0  0  0  0  0  0  0  0  0
   -0.1528    2.3588    2.0401 N   0  0  0  0  0  0  0  0  0  0  0  0
    1.0280    2.1027    2.2427 O   0  0  0  0  0  0  0  0  0  0  0  0
   -0.8028    3.2284    2.6174 O   0  0  0  0  0  0  0  0  0  0  0  0
  1  2  2  0  0  0  0
  1  6  1  0  0  0  0
  2  3  1  0  0  0  0
  3  4  2  0  0  0  0
  4 12  1  0  0  0  0
  5  4  1  0  0  0  0
  5 11  1  0  0  0  0
  6  5  2  0  0  0  0
  7  1  1  0  0  0  0
  8  9  3  0  0  0  0
 10  6  1  0  0  0  0
 12 13  2  0  0  0  0
 12 14  2  0  0  0  0
M  RAD  2   2   2   3   2
M  END
