Coordinates from ORCA-job 2-NO2-C6H3-N2-B3LYPG-aug-cc-pVDZ-scan-d09-49-n400
 OpenBabel11091809053D

 14 13  0  0  0  0  0  0  0  0999 V2000
   -2.3968   -0.0709   -0.9179 C   0  0  0  0  0  0  0  0  0  0  0  0
   -1.0991   -0.2351   -0.4832 C   0  0  0  0  0  0  0  0  0  0  0  0
   -0.4004    0.3935    0.3458 C   0  0  0  0  0  0  0  0  0  0  0  0
   -0.9298    1.4847    1.0140 C   0  0  0  0  0  0  0  0  0  0  0  0
   -2.2644    1.8021    0.6899 C   0  0  0  0  0  0  0  0  0  0  0  0
   -2.9749    1.0412   -0.2531 C   0  0  0  0  0  0  0  0  0  0  0  0
   -2.9361   -0.6679   -1.6493 H   0  0  0  0  0  0  0  0  0  0  0  0
    3.5516    1.7233   -0.6564 N   0  0  0  0  0  0  0  0  0  0  0  0
    4.3359    1.0175   -0.3302 N   0  0  0  0  0  0  0  0  0  0  0  0
   -4.0066    1.3094   -0.4863 H   0  0  0  0  0  0  0  0  0  0  0  0
   -2.7358    2.6494    1.1850 H   0  0  0  0  0  0  0  0  0  0  0  0
   -0.1760    2.2754    2.0027 N   0  0  0  0  0  0  0  0  0  0  0  0
    0.9863    1.9500    2.2113 O   0  0  0  0  0  0  0  0  0  0  0  0
   -0.7651    3.2058    2.5500 O   0  0  0  0  0  0  0  0  0  0  0  0
  1  2  2  0  0  0  0
  1  6  1  0  0  0  0
  2  3  1  0  0  0  0
  3  4  2  0  0  0  0
  4 12  1  0  0  0  0
  5  4  1  0  0  0  0
  5 11  1  0  0  0  0
  6  5  2  0  0  0  0
  7  1  1  0  0  0  0
  8  9  3  0  0  0  0
 10  6  1  0  0  0  0
 12 13  2  0  0  0  0
 12 14  2  0  0  0  0
M  RAD  2   2   2   3   2
M  END
