Coordinates from ORCA-job 2-NO2-C6H3-N2-B3LYPG-aug-cc-pVDZ-scan-d09-49-n400
 OpenBabel11091809053D

 14 13  0  0  0  0  0  0  0  0999 V2000
   -2.1675   -0.0137   -0.9860 C   0  0  0  0  0  0  0  0  0  0  0  0
   -0.8490   -0.0702   -0.5842 C   0  0  0  0  0  0  0  0  0  0  0  0
   -0.2078    0.5798    0.2741 C   0  0  0  0  0  0  0  0  0  0  0  0
   -0.8271    1.5737    1.0119 C   0  0  0  0  0  0  0  0  0  0  0  0
   -2.1925    1.7720    0.7232 C   0  0  0  0  0  0  0  0  0  0  0  0
   -2.8408    0.9961   -0.2519 C   0  0  0  0  0  0  0  0  0  0  0  0
   -2.6596   -0.6210   -1.7419 H   0  0  0  0  0  0  0  0  0  0  0  0
    2.7975    1.4306   -0.5716 N   0  0  0  0  0  0  0  0  0  0  0  0
    3.6652    0.7791   -0.3650 N   0  0  0  0  0  0  0  0  0  0  0  0
   -3.8984    1.1713   -0.4557 H   0  0  0  0  0  0  0  0  0  0  0  0
   -2.7371    2.5384    1.2722 H   0  0  0  0  0  0  0  0  0  0  0  0
   -0.1392    2.3762    2.0376 N   0  0  0  0  0  0  0  0  0  0  0  0
    1.0443    2.1320    2.2389 O   0  0  0  0  0  0  0  0  0  0  0  0
   -0.7990    3.2343    2.6209 O   0  0  0  0  0  0  0  0  0  0  0  0
  1  2  2  0  0  0  0
  1  6  1  0  0  0  0
  2  3  1  0  0  0  0
  3  4  2  0  0  0  0
  4 12  1  0  0  0  0
  5  4  1  0  0  0  0
  5 11  1  0  0  0  0
  6  5  2  0  0  0  0
  7  1  1  0  0  0  0
  8  9  3  0  0  0  0
 10  6  1  0  0  0  0
 12 13  2  0  0  0  0
 12 14  2  0  0  0  0
M  RAD  2   2   2   3   2
M  END
