Coordinates from ORCA-job 2-NO2-C6H3-N2-B3LYPG-aug-cc-pVDZ-scan-d09-49-n400
 OpenBabel11091809053D

 14 13  0  0  0  0  0  0  0  0999 V2000
   -1.9834    0.0710   -1.0718 C   0  0  0  0  0  0  0  0  0  0  0  0
   -0.6088    0.1998   -0.9053 C   0  0  0  0  0  0  0  0  0  0  0  0
   -0.0289    0.8919   -0.0238 C   0  0  0  0  0  0  0  0  0  0  0  0
   -0.6782    1.7071    0.8874 C   0  0  0  0  0  0  0  0  0  0  0  0
   -2.0813    1.6958    0.7711 C   0  0  0  0  0  0  0  0  0  0  0  0
   -2.7171    0.8957   -0.1914 C   0  0  0  0  0  0  0  0  0  0  0  0
   -2.4771   -0.5684   -1.8026 H   0  0  0  0  0  0  0  0  0  0  0  0
    1.9931    1.2042   -0.1919 N   0  0  0  0  0  0  0  0  0  0  0  0
    2.8443    0.4962   -0.1341 N   0  0  0  0  0  0  0  0  0  0  0  0
   -3.8062    0.9116   -0.2573 H   0  0  0  0  0  0  0  0  0  0  0  0
   -2.6620    2.3071    1.4597 H   0  0  0  0  0  0  0  0  0  0  0  0
   -0.0344    2.4889    1.9532 N   0  0  0  0  0  0  0  0  0  0  0  0
    1.1434    2.2436    2.2000 O   0  0  0  0  0  0  0  0  0  0  0  0
   -0.7146    3.3340    2.5291 O   0  0  0  0  0  0  0  0  0  0  0  0
  1  2  2  0  0  0  0
  1  6  1  0  0  0  0
  2  3  1  0  0  0  0
  3  4  2  0  0  0  0
  4 12  1  0  0  0  0
  5  4  1  0  0  0  0
  5 11  1  0  0  0  0
  6  5  2  0  0  0  0
  7  1  1  0  0  0  0
  8  9  3  0  0  0  0
 10  6  1  0  0  0  0
 12 13  2  0  0  0  0
 12 14  2  0  0  0  0
M  RAD  2   2   2   3   2
M  END
