Coordinates from ORCA-job 2-NO2-C6H3-N2-B3LYPG-aug-cc-pVDZ-scan-d09-49-n400
 OpenBabel11091809053D

 14 14  0  0  0  0  0  0  0  0999 V2000
   -1.9381    0.0884   -1.0699 C   0  0  0  0  0  0  0  0  0  0  0  0
   -0.5467    0.2154   -0.9737 C   0  0  0  0  0  0  0  0  0  0  0  0
   -0.0116    0.9256   -0.0533 C   0  0  0  0  0  0  0  0  0  0  0  0
   -0.6623    1.7257    0.8761 C   0  0  0  0  0  0  0  0  0  0  0  0
   -2.0622    1.6921    0.7786 C   0  0  0  0  0  0  0  0  0  0  0  0
   -2.6876    0.8879   -0.1872 C   0  0  0  0  0  0  0  0  0  0  0  0
   -2.4380   -0.5591   -1.7919 H   0  0  0  0  0  0  0  0  0  0  0  0
    1.8085    1.1318   -0.1018 N   0  0  0  0  0  0  0  0  0  0  0  0
    2.7131    0.4875   -0.1441 N   0  0  0  0  0  0  0  0  0  0  0  0
   -3.7773    0.8855   -0.2461 H   0  0  0  0  0  0  0  0  0  0  0  0
   -2.6447    2.2820    1.4834 H   0  0  0  0  0  0  0  0  0  0  0  0
   -0.0232    2.5038    1.9431 N   0  0  0  0  0  0  0  0  0  0  0  0
    1.1642    2.2762    2.1752 O   0  0  0  0  0  0  0  0  0  0  0  0
   -0.7051    3.3356    2.5337 O   0  0  0  0  0  0  0  0  0  0  0  0
  1  2  2  0  0  0  0
  1  6  1  0  0  0  0
  2  3  1  0  0  0  0
  3  4  2  0  0  0  0
  4 12  1  0  0  0  0
  5  4  1  0  0  0  0
  5 11  1  0  0  0  0
  6  5  2  0  0  0  0
  7  1  1  0  0  0  0
  8  3  1  0  0  0  0
  9  8  2  0  0  0  0
 10  6  1  0  0  0  0
 12 13  2  0  0  0  0
 12 14  2  0  0  0  0
M  RAD  2   2   2   9   2
M  END
