Coordinates from ORCA-job 2-NO2-C6H3-N2-B3LYPG-aug-cc-pVDZ-scan-d09-49-n400
 OpenBabel11091809053D

 14 13  0  0  0  0  0  0  0  0999 V2000
   -2.0398    0.0259   -1.0340 C   0  0  0  0  0  0  0  0  0  0  0  0
   -0.6976    0.0777   -0.7186 C   0  0  0  0  0  0  0  0  0  0  0  0
   -0.0648    0.7456    0.1341 C   0  0  0  0  0  0  0  0  0  0  0  0
   -0.7308    1.6440    0.9519 C   0  0  0  0  0  0  0  0  0  0  0  0
   -2.1210    1.7381    0.7413 C   0  0  0  0  0  0  0  0  0  0  0  0
   -2.7562    0.9483   -0.2307 C   0  0  0  0  0  0  0  0  0  0  0  0
   -2.5211   -0.6024   -1.7800 H   0  0  0  0  0  0  0  0  0  0  0  0
    2.2506    1.2919   -0.3797 N   0  0  0  0  0  0  0  0  0  0  0  0
    3.1245    0.6231   -0.2743 N   0  0  0  0  0  0  0  0  0  0  0  0
   -3.8339    1.0423   -0.3734 H   0  0  0  0  0  0  0  0  0  0  0  0
   -2.6959    2.4288    1.3556 H   0  0  0  0  0  0  0  0  0  0  0  0
   -0.0756    2.4368    2.0068 N   0  0  0  0  0  0  0  0  0  0  0  0
    1.1091    2.2080    2.2250 O   0  0  0  0  0  0  0  0  0  0  0  0
   -0.7584    3.2702    2.5984 O   0  0  0  0  0  0  0  0  0  0  0  0
  1  2  2  0  0  0  0
  1  6  1  0  0  0  0
  2  3  1  0  0  0  0
  3  4  2  0  0  0  0
  4 12  1  0  0  0  0
  5  4  1  0  0  0  0
  5 11  1  0  0  0  0
  6  5  2  0  0  0  0
  7  1  1  0  0  0  0
  8  9  3  0  0  0  0
 10  6  1  0  0  0  0
 12 13  2  0  0  0  0
 12 14  2  0  0  0  0
M  RAD  2   2   2   3   2
M  END
