Coordinates from ORCA-job 2-NO2-C6H3-N2-B3LYPG-aug-cc-pVDZ-scan-d09-49-n400
 OpenBabel11091809053D

 14 13  0  0  0  0  0  0  0  0999 V2000
   -2.2108   -0.0261   -0.9709 C   0  0  0  0  0  0  0  0  0  0  0  0
   -0.8986   -0.1089   -0.5538 C   0  0  0  0  0  0  0  0  0  0  0  0
   -0.2501    0.5367    0.3024 C   0  0  0  0  0  0  0  0  0  0  0  0
   -0.8531    1.5546    1.0207 C   0  0  0  0  0  0  0  0  0  0  0  0
   -2.2107    1.7809    0.7163 C   0  0  0  0  0  0  0  0  0  0  0  0
   -2.8674    1.0081   -0.2557 C   0  0  0  0  0  0  0  0  0  0  0  0
   -2.7092   -0.6303   -1.7250 H   0  0  0  0  0  0  0  0  0  0  0  0
    2.9592    1.4809   -0.6057 N   0  0  0  0  0  0  0  0  0  0  0  0
    3.8220    0.8285   -0.3825 N   0  0  0  0  0  0  0  0  0  0  0  0
   -3.9185    1.2054   -0.4724 H   0  0  0  0  0  0  0  0  0  0  0  0
   -2.7424    2.5669    1.2500 H   0  0  0  0  0  0  0  0  0  0  0  0
   -0.1545    2.3561    2.0400 N   0  0  0  0  0  0  0  0  0  0  0  0
    1.0258    2.0980    2.2429 O   0  0  0  0  0  0  0  0  0  0  0  0
   -0.8028    3.2276    2.6163 O   0  0  0  0  0  0  0  0  0  0  0  0
  1  2  2  0  0  0  0
  1  6  1  0  0  0  0
  2  3  1  0  0  0  0
  3  4  2  0  0  0  0
  4 12  1  0  0  0  0
  5  4  1  0  0  0  0
  5 11  1  0  0  0  0
  6  5  2  0  0  0  0
  7  1  1  0  0  0  0
  8  9  3  0  0  0  0
 10  6  1  0  0  0  0
 12 13  2  0  0  0  0
 12 14  2  0  0  0  0
M  RAD  2   2   2   3   2
M  END
