Coordinates from ORCA-job 2-NO2-C6H3-N2-B3LYPG-aug-cc-pVDZ-scan-d09-49-n400
 OpenBabel11091809053D

 14 14  0  0  0  0  0  0  0  0999 V2000
   -1.8567    0.2621   -1.1645 C   0  0  0  0  0  0  0  0  0  0  0  0
   -0.4603    0.0988   -1.1040 C   0  0  0  0  0  0  0  0  0  0  0  0
    0.2099    0.8573    0.0017 C   0  0  0  0  0  0  0  0  0  0  0  0
   -0.6168    1.6778    0.8864 C   0  0  0  0  0  0  0  0  0  0  0  0
   -1.9850    1.5875    0.8686 C   0  0  0  0  0  0  0  0  0  0  0  0
   -2.6149    0.8243   -0.1379 C   0  0  0  0  0  0  0  0  0  0  0  0
   -2.3733   -0.1644   -2.0288 H   0  0  0  0  0  0  0  0  0  0  0  0
    1.2294    0.6989    0.1355 N   0  0  0  0  0  0  0  0  0  0  0  0
    2.3461    0.4770    0.2358 N   0  0  0  0  0  0  0  0  0  0  0  0
   -3.7021    0.7252   -0.1240 H   0  0  0  0  0  0  0  0  0  0  0  0
   -2.5606    2.1594    1.5926 H   0  0  0  0  0  0  0  0  0  0  0  0
    0.0221    2.6448    1.7897 N   0  0  0  0  0  0  0  0  0  0  0  0
    1.1936    2.9399    1.5508 O   0  0  0  0  0  0  0  0  0  0  0  0
   -0.6426    3.0898    2.7205 O   0  0  0  0  0  0  0  0  0  0  0  0
  1  2  2  0  0  0  0
  1  6  1  0  0  0  0
  2  3  1  0  0  0  0
  3  8  1  0  0  0  0
  3  4  2  0  0  0  0
  4 12  1  0  0  0  0
  5  4  1  0  0  0  0
  5 11  1  0  0  0  0
  6 10  1  0  0  0  0
  6  5  2  0  0  0  0
  7  1  1  0  0  0  0
  8  9  1  0  0  0  0
 12 14  2  0  0  0  0
 13 12  2  0  0  0  0
M  RAD  3   2   2   8   2   9   3
M  END
