Coordinates from ORCA-job 2-NO2-C6H3-N2-B3LYPG-aug-cc-pVDZ-scan-d09-49-n400
 OpenBabel11091809053D

 14 13  0  0  0  0  0  0  0  0999 V2000
   -2.3612   -0.0635   -0.9260 C   0  0  0  0  0  0  0  0  0  0  0  0
   -1.0631   -0.2165   -0.4870 C   0  0  0  0  0  0  0  0  0  0  0  0
   -0.3785    0.4157    0.3508 C   0  0  0  0  0  0  0  0  0  0  0  0
   -0.9220    1.4970    1.0232 C   0  0  0  0  0  0  0  0  0  0  0  0
   -2.2585    1.8009    0.6941 C   0  0  0  0  0  0  0  0  0  0  0  0
   -2.9553    1.0377   -0.2573 C   0  0  0  0  0  0  0  0  0  0  0  0
   -2.8902   -0.6615   -1.6640 H   0  0  0  0  0  0  0  0  0  0  0  0
    3.4622    1.6749   -0.6676 N   0  0  0  0  0  0  0  0  0  0  0  0
    4.2680    0.9834   -0.3637 N   0  0  0  0  0  0  0  0  0  0  0  0
   -3.9888    1.2956   -0.4941 H   0  0  0  0  0  0  0  0  0  0  0  0
   -2.7422    2.6396    1.1920 H   0  0  0  0  0  0  0  0  0  0  0  0
   -0.1816    2.2896    2.0200 N   0  0  0  0  0  0  0  0  0  0  0  0
    0.9829    1.9746    2.2326 O   0  0  0  0  0  0  0  0  0  0  0  0
   -0.7828    3.2110    2.5694 O   0  0  0  0  0  0  0  0  0  0  0  0
  1  2  2  0  0  0  0
  1  6  1  0  0  0  0
  2  3  1  0  0  0  0
  3  4  2  0  0  0  0
  4 12  1  0  0  0  0
  5  4  1  0  0  0  0
  5 11  1  0  0  0  0
  6  5  2  0  0  0  0
  7  1  1  0  0  0  0
  8  9  3  0  0  0  0
 10  6  1  0  0  0  0
 12 13  2  0  0  0  0
 12 14  2  0  0  0  0
M  RAD  2   2   2   3   2
M  END
