Coordinates from ORCA-job 2-NO2-C6H3-N2-B3LYPG-aug-cc-pVDZ-scan-d09-49-n400
 OpenBabel11091809053D

 14 13  0  0  0  0  0  0  0  0999 V2000
   -2.2782   -0.0436   -0.9503 C   0  0  0  0  0  0  0  0  0  0  0  0
   -0.9728   -0.1608   -0.5206 C   0  0  0  0  0  0  0  0  0  0  0  0
   -0.3099    0.4787    0.3291 C   0  0  0  0  0  0  0  0  0  0  0  0
   -0.8859    1.5277    1.0247 C   0  0  0  0  0  0  0  0  0  0  0  0
   -2.2335    1.7910    0.7063 C   0  0  0  0  0  0  0  0  0  0  0  0
   -2.9072    1.0226   -0.2577 C   0  0  0  0  0  0  0  0  0  0  0  0
   -2.7896   -0.6443   -1.6986 H   0  0  0  0  0  0  0  0  0  0  0  0
    3.1871    1.5652   -0.6370 N   0  0  0  0  0  0  0  0  0  0  0  0
    4.0320    0.9015   -0.3811 N   0  0  0  0  0  0  0  0  0  0  0  0
   -3.9499    1.2491   -0.4859 H   0  0  0  0  0  0  0  0  0  0  0  0
   -2.7440    2.6025    1.2222 H   0  0  0  0  0  0  0  0  0  0  0  0
   -0.1685    2.3259    2.0335 N   0  0  0  0  0  0  0  0  0  0  0  0
    1.0056    2.0434    2.2393 O   0  0  0  0  0  0  0  0  0  0  0  0
   -0.7964    3.2195    2.5986 O   0  0  0  0  0  0  0  0  0  0  0  0
  1  2  2  0  0  0  0
  1  6  1  0  0  0  0
  2  3  1  0  0  0  0
  3  4  2  0  0  0  0
  4 12  1  0  0  0  0
  5  4  1  0  0  0  0
  5 11  1  0  0  0  0
  6  5  2  0  0  0  0
  7  1  1  0  0  0  0
  8  9  3  0  0  0  0
 10  6  1  0  0  0  0
 12 13  2  0  0  0  0
 12 14  2  0  0  0  0
M  RAD  2   2   2   3   2
M  END
