Coordinates from ORCA-job 2-NO2-C6H3-N2-B3LYPG-aug-cc-pVDZ-scan-d09-49-n400
 OpenBabel11091809053D

 14 13  0  0  0  0  0  0  0  0999 V2000
   -2.0679    0.0174   -1.0254 C   0  0  0  0  0  0  0  0  0  0  0  0
   -0.7286    0.0437   -0.6930 C   0  0  0  0  0  0  0  0  0  0  0  0
   -0.0962    0.7082    0.1612 C   0  0  0  0  0  0  0  0  0  0  0  0
   -0.7496    1.6281    0.9639 C   0  0  0  0  0  0  0  0  0  0  0  0
   -2.1358    1.7452    0.7374 C   0  0  0  0  0  0  0  0  0  0  0  0
   -2.7744    0.9583   -0.2350 C   0  0  0  0  0  0  0  0  0  0  0  0
   -2.5534   -0.6057   -1.7730 H   0  0  0  0  0  0  0  0  0  0  0  0
    2.3581    1.3207   -0.4142 N   0  0  0  0  0  0  0  0  0  0  0  0
    3.2403    0.6674   -0.2869 N   0  0  0  0  0  0  0  0  0  0  0  0
   -3.8491    1.0689   -0.3886 H   0  0  0  0  0  0  0  0  0  0  0  0
   -2.7047    2.4528    1.3380 H   0  0  0  0  0  0  0  0  0  0  0  0
   -0.0857    2.4224    2.0113 N   0  0  0  0  0  0  0  0  0  0  0  0
    1.0966    2.1841    2.2298 O   0  0  0  0  0  0  0  0  0  0  0  0
   -0.7607    3.2668    2.5967 O   0  0  0  0  0  0  0  0  0  0  0  0
  1  2  2  0  0  0  0
  1  6  1  0  0  0  0
  2  3  1  0  0  0  0
  3  4  2  0  0  0  0
  4 12  1  0  0  0  0
  5  4  1  0  0  0  0
  5 11  1  0  0  0  0
  6  5  2  0  0  0  0
  7  1  1  0  0  0  0
  8  9  3  0  0  0  0
 10  6  1  0  0  0  0
 12 13  2  0  0  0  0
 12 14  2  0  0  0  0
M  RAD  2   2   2   3   2
M  END
