Coordinates from ORCA-job 2-NO2-C6H3-N2-B3LYPG-aug-cc-pVDZ-scan-d09-49-n400
 OpenBabel11091809053D

 14 14  0  0  0  0  0  0  0  0999 V2000
   -1.8628    0.2418   -1.1520 C   0  0  0  0  0  0  0  0  0  0  0  0
   -0.4570    0.1026   -1.0960 C   0  0  0  0  0  0  0  0  0  0  0  0
    0.1681    0.8732   -0.0195 C   0  0  0  0  0  0  0  0  0  0  0  0
   -0.6244    1.6846    0.8872 C   0  0  0  0  0  0  0  0  0  0  0  0
   -1.9947    1.6011    0.8624 C   0  0  0  0  0  0  0  0  0  0  0  0
   -2.6210    0.8283   -0.1407 C   0  0  0  0  0  0  0  0  0  0  0  0
   -2.3831   -0.2011   -2.0058 H   0  0  0  0  0  0  0  0  0  0  0  0
    1.2886    0.7088    0.1163 N   0  0  0  0  0  0  0  0  0  0  0  0
    2.3952    0.4911    0.1963 N   0  0  0  0  0  0  0  0  0  0  0  0
   -3.7096    0.7420   -0.1348 H   0  0  0  0  0  0  0  0  0  0  0  0
   -2.5728    2.1782    1.5801 H   0  0  0  0  0  0  0  0  0  0  0  0
    0.0157    2.6353    1.8057 N   0  0  0  0  0  0  0  0  0  0  0  0
    1.2088    2.8788    1.6135 O   0  0  0  0  0  0  0  0  0  0  0  0
   -0.6619    3.1137    2.7097 O   0  0  0  0  0  0  0  0  0  0  0  0
  1  2  2  0  0  0  0
  1  6  1  0  0  0  0
  2  3  1  0  0  0  0
  3  8  1  0  0  0  0
  3  4  2  0  0  0  0
  4 12  1  0  0  0  0
  5  4  1  0  0  0  0
  5 11  1  0  0  0  0
  6 10  1  0  0  0  0
  6  5  2  0  0  0  0
  7  1  1  0  0  0  0
  8  9  1  0  0  0  0
 12 14  2  0  0  0  0
 13 12  2  0  0  0  0
M  RAD  3   2   2   8   2   9   3
M  END
