Coordinates from ORCA-job 2-NO2-C6H3-N2-B3LYPG-aug-cc-pVDZ-scan-d09-49-n400
 OpenBabel11091809053D

 14 14  0  0  0  0  0  0  0  0999 V2000
   -1.8587    0.2585   -1.1624 C   0  0  0  0  0  0  0  0  0  0  0  0
   -0.4598    0.1016   -1.1022 C   0  0  0  0  0  0  0  0  0  0  0  0
    0.1978    0.8616   -0.0052 C   0  0  0  0  0  0  0  0  0  0  0  0
   -0.6186    1.6795    0.8867 C   0  0  0  0  0  0  0  0  0  0  0  0
   -1.9874    1.5896    0.8680 C   0  0  0  0  0  0  0  0  0  0  0  0
   -2.6166    0.8240   -0.1377 C   0  0  0  0  0  0  0  0  0  0  0  0
   -2.3763   -0.1698   -2.0252 H   0  0  0  0  0  0  0  0  0  0  0  0
    1.2469    0.6992    0.1316 N   0  0  0  0  0  0  0  0  0  0  0  0
    2.3600    0.4772    0.2290 N   0  0  0  0  0  0  0  0  0  0  0  0
   -3.7040    0.7268   -0.1247 H   0  0  0  0  0  0  0  0  0  0  0  0
   -2.5638    2.1622    1.5908 H   0  0  0  0  0  0  0  0  0  0  0  0
    0.0202    2.6437    1.7926 N   0  0  0  0  0  0  0  0  0  0  0  0
    1.1975    2.9260    1.5653 O   0  0  0  0  0  0  0  0  0  0  0  0
   -0.6483    3.0983    2.7158 O   0  0  0  0  0  0  0  0  0  0  0  0
  1  2  2  0  0  0  0
  1  6  1  0  0  0  0
  2  3  1  0  0  0  0
  3  8  1  0  0  0  0
  3  4  2  0  0  0  0
  4 12  1  0  0  0  0
  5  4  1  0  0  0  0
  5 11  1  0  0  0  0
  6 10  1  0  0  0  0
  6  5  2  0  0  0  0
  7  1  1  0  0  0  0
  8  9  1  0  0  0  0
 12 14  2  0  0  0  0
 13 12  2  0  0  0  0
M  RAD  3   2   2   8   2   9   3
M  END
