Coordinates from ORCA-job 2-NO2-C6H3-N2-B3LYPG-aug-cc-pVDZ-scan-d09-49-n400
 OpenBabel11091809053D

 14 14  0  0  0  0  0  0  0  0999 V2000
   -1.8690    0.2179   -1.1358 C   0  0  0  0  0  0  0  0  0  0  0  0
   -0.4555    0.0959   -1.0854 C   0  0  0  0  0  0  0  0  0  0  0  0
    0.1366    0.8782   -0.0249 C   0  0  0  0  0  0  0  0  0  0  0  0
   -0.6342    1.6881    0.8905 C   0  0  0  0  0  0  0  0  0  0  0  0
   -2.0062    1.6198    0.8527 C   0  0  0  0  0  0  0  0  0  0  0  0
   -2.6284    0.8395   -0.1484 C   0  0  0  0  0  0  0  0  0  0  0  0
   -2.3922   -0.2507   -1.9741 H   0  0  0  0  0  0  0  0  0  0  0  0
    1.3421    0.7282    0.0957 N   0  0  0  0  0  0  0  0  0  0  0  0
    2.4472    0.5266    0.1395 N   0  0  0  0  0  0  0  0  0  0  0  0
   -3.7185    0.7725   -0.1570 H   0  0  0  0  0  0  0  0  0  0  0  0
   -2.5859    2.2055    1.5620 H   0  0  0  0  0  0  0  0  0  0  0  0
    0.0102    2.6168    1.8274 N   0  0  0  0  0  0  0  0  0  0  0  0
    1.2191    2.8100    1.6760 O   0  0  0  0  0  0  0  0  0  0  0  0
   -0.6764    3.1299    2.7042 O   0  0  0  0  0  0  0  0  0  0  0  0
  1  2  2  0  0  0  0
  1  6  1  0  0  0  0
  2  3  1  0  0  0  0
  3  8  1  0  0  0  0
  3  4  2  0  0  0  0
  4 12  1  0  0  0  0
  5  4  1  0  0  0  0
  5 11  1  0  0  0  0
  6  5  2  0  0  0  0
  7  1  1  0  0  0  0
  8  9  1  0  0  0  0
 10  6  1  0  0  0  0
 12 14  2  0  0  0  0
 13 12  2  0  0  0  0
M  RAD  3   2   2   8   2   9   3
M  END
