Coordinates from ORCA-job 2-NO2-C6H3-N2-B3LYPG-aug-cc-pVDZ-scan-d09-49-n400
 OpenBabel11091809053D

 14 14  0  0  0  0  0  0  0  0999 V2000
   -1.8810    0.1283   -1.0650 C   0  0  0  0  0  0  0  0  0  0  0  0
   -0.4518    0.0769   -1.0339 C   0  0  0  0  0  0  0  0  0  0  0  0
    0.0479    0.8923   -0.0297 C   0  0  0  0  0  0  0  0  0  0  0  0
   -0.6627    1.7057    0.8947 C   0  0  0  0  0  0  0  0  0  0  0  0
   -2.0405    1.6972    0.8019 C   0  0  0  0  0  0  0  0  0  0  0  0
   -2.6468    0.8960   -0.1909 C   0  0  0  0  0  0  0  0  0  0  0  0
   -2.4082   -0.4679   -1.8154 H   0  0  0  0  0  0  0  0  0  0  0  0
    1.4878    0.8507    0.0199 N   0  0  0  0  0  0  0  0  0  0  0  0
    2.5799    0.6809   -0.1043 N   0  0  0  0  0  0  0  0  0  0  0  0
   -3.7367    0.8918   -0.2608 H   0  0  0  0  0  0  0  0  0  0  0  0
   -2.6248    2.3042    1.4890 H   0  0  0  0  0  0  0  0  0  0  0  0
   -0.0054    2.5295    1.9111 N   0  0  0  0  0  0  0  0  0  0  0  0
    1.2296    2.4994    1.9346 O   0  0  0  0  0  0  0  0  0  0  0  0
   -0.6985    3.1935    2.6712 O   0  0  0  0  0  0  0  0  0  0  0  0
  1  2  2  0  0  0  0
  1  6  1  0  0  0  0
  2  3  1  0  0  0  0
  3  8  1  0  0  0  0
  3  4  2  0  0  0  0
  4 12  1  0  0  0  0
  5  4  1  0  0  0  0
  5 11  1  0  0  0  0
  6  5  2  0  0  0  0
  7  1  1  0  0  0  0
  9  8  1  0  0  0  0
 10  6  1  0  0  0  0
 12 13  2  0  0  0  0
 12 14  2  0  0  0  0
M  RAD  3   2   2   8   2   9   3
M  END
