Coordinates from ORCA-job 2-NO2-C6H3-N2-B3LYPG-aug-cc-pVDZ-scan-d09-49-n400
 OpenBabel11091809053D

 14 13  0  0  0  0  0  0  0  0999 V2000
   -2.1482   -0.0079   -0.9934 C   0  0  0  0  0  0  0  0  0  0  0  0
   -0.8263   -0.0509   -0.6010 C   0  0  0  0  0  0  0  0  0  0  0  0
   -0.1877    0.6012    0.2576 C   0  0  0  0  0  0  0  0  0  0  0  0
   -0.8139    1.5829    1.0059 C   0  0  0  0  0  0  0  0  0  0  0  0
   -2.1833    1.7673    0.7265 C   0  0  0  0  0  0  0  0  0  0  0  0
   -2.8286    0.9898   -0.2494 C   0  0  0  0  0  0  0  0  0  0  0  0
   -2.6382   -0.6168   -1.7494 H   0  0  0  0  0  0  0  0  0  0  0  0
    2.7209    1.4095   -0.5523 N   0  0  0  0  0  0  0  0  0  0  0  0
    3.5885    0.7561   -0.3511 N   0  0  0  0  0  0  0  0  0  0  0  0
   -3.8894    1.1539   -0.4455 H   0  0  0  0  0  0  0  0  0  0  0  0
   -2.7334    2.5237    1.2837 H   0  0  0  0  0  0  0  0  0  0  0  0
   -0.1306    2.3853    2.0345 N   0  0  0  0  0  0  0  0  0  0  0  0
    1.0540    2.1461    2.2360 O   0  0  0  0  0  0  0  0  0  0  0  0
   -0.7948    3.2382    2.6204 O   0  0  0  0  0  0  0  0  0  0  0  0
  1  2  2  0  0  0  0
  1  6  1  0  0  0  0
  2  3  1  0  0  0  0
  3  4  2  0  0  0  0
  4 12  1  0  0  0  0
  5  4  1  0  0  0  0
  5 11  1  0  0  0  0
  6  5  2  0  0  0  0
  7  1  1  0  0  0  0
  8  9  3  0  0  0  0
 10  6  1  0  0  0  0
 12 13  2  0  0  0  0
 12 14  2  0  0  0  0
M  RAD  2   2   2   3   2
M  END
