Coordinates from ORCA-job 2-NO2-C6H3-N2-B3LYPG-aug-cc-pVDZ-scan-d09-49-n400
 OpenBabel11091809053D

 14 14  0  0  0  0  0  0  0  0999 V2000
   -1.9449    0.0868   -1.0725 C   0  0  0  0  0  0  0  0  0  0  0  0
   -0.5560    0.2160   -0.9661 C   0  0  0  0  0  0  0  0  0  0  0  0
   -0.0146    0.9238   -0.0527 C   0  0  0  0  0  0  0  0  0  0  0  0
   -0.6630    1.7236    0.8769 C   0  0  0  0  0  0  0  0  0  0  0  0
   -2.0639    1.6903    0.7786 C   0  0  0  0  0  0  0  0  0  0  0  0
   -2.6912    0.8870   -0.1864 C   0  0  0  0  0  0  0  0  0  0  0  0
   -2.4440   -0.5584   -1.7967 H   0  0  0  0  0  0  0  0  0  0  0  0
    1.8336    1.1453   -0.1133 N   0  0  0  0  0  0  0  0  0  0  0  0
    2.7266    0.4845   -0.1364 N   0  0  0  0  0  0  0  0  0  0  0  0
   -3.7811    0.8852   -0.2438 H   0  0  0  0  0  0  0  0  0  0  0  0
   -2.6461    2.2818    1.4826 H   0  0  0  0  0  0  0  0  0  0  0  0
   -0.0233    2.5030    1.9432 N   0  0  0  0  0  0  0  0  0  0  0  0
    1.1610    2.2689    2.1817 O   0  0  0  0  0  0  0  0  0  0  0  0
   -0.7041    3.3406    2.5272 O   0  0  0  0  0  0  0  0  0  0  0  0
  1  2  2  0  0  0  0
  1  6  1  0  0  0  0
  2  3  1  0  0  0  0
  3  4  2  0  0  0  0
  4 12  1  0  0  0  0
  5  4  1  0  0  0  0
  5 11  1  0  0  0  0
  6  5  2  0  0  0  0
  7  1  1  0  0  0  0
  8  3  1  0  0  0  0
  9  8  2  0  0  0  0
 10  6  1  0  0  0  0
 12 13  2  0  0  0  0
 12 14  2  0  0  0  0
M  RAD  2   2   2   9   2
M  END
