Coordinates from ORCA-job 2-NO2-C6H3-N2-B3LYPG-aug-cc-pVDZ-scan-d09-49-n400
 OpenBabel11091809053D

 14 13  0  0  0  0  0  0  0  0999 V2000
   -2.2128   -0.0266   -0.9702 C   0  0  0  0  0  0  0  0  0  0  0  0
   -0.9008   -0.1105   -0.5527 C   0  0  0  0  0  0  0  0  0  0  0  0
   -0.2520    0.5348    0.3034 C   0  0  0  0  0  0  0  0  0  0  0  0
   -0.8541    1.5538    1.0209 C   0  0  0  0  0  0  0  0  0  0  0  0
   -2.2114    1.7813    0.7160 C   0  0  0  0  0  0  0  0  0  0  0  0
   -2.8686    1.0086   -0.2559 C   0  0  0  0  0  0  0  0  0  0  0  0
   -2.7116   -0.6307   -1.7243 H   0  0  0  0  0  0  0  0  0  0  0  0
    2.9663    1.4834   -0.6069 N   0  0  0  0  0  0  0  0  0  0  0  0
    3.8287    0.8307   -0.3828 N   0  0  0  0  0  0  0  0  0  0  0  0
   -3.9195    1.2068   -0.4730 H   0  0  0  0  0  0  0  0  0  0  0  0
   -2.7425    2.5681    1.2491 H   0  0  0  0  0  0  0  0  0  0  0  0
   -0.1550    2.3552    2.0399 N   0  0  0  0  0  0  0  0  0  0  0  0
    1.0251    2.0964    2.2429 O   0  0  0  0  0  0  0  0  0  0  0  0
   -0.8028    3.2273    2.6159 O   0  0  0  0  0  0  0  0  0  0  0  0
  1  2  2  0  0  0  0
  1  6  1  0  0  0  0
  2  3  1  0  0  0  0
  3  4  2  0  0  0  0
  4 12  1  0  0  0  0
  5  4  1  0  0  0  0
  5 11  1  0  0  0  0
  6  5  2  0  0  0  0
  7  1  1  0  0  0  0
  8  9  3  0  0  0  0
 10  6  1  0  0  0  0
 12 13  2  0  0  0  0
 12 14  2  0  0  0  0
M  RAD  2   2   2   3   2
M  END
