Coordinates from ORCA-job 2-NO2-C6H3-N2-B3LYPG-aug-cc-pVDZ-scan-d09-49-n400
 OpenBabel11091809053D

 14 13  0  0  0  0  0  0  0  0999 V2000
   -2.4733   -0.0875   -0.8991 C   0  0  0  0  0  0  0  0  0  0  0  0
   -1.1756   -0.2784   -0.4755 C   0  0  0  0  0  0  0  0  0  0  0  0
   -0.4551    0.3462    0.3375 C   0  0  0  0  0  0  0  0  0  0  0  0
   -0.9465    1.4602    0.9961 C   0  0  0  0  0  0  0  0  0  0  0  0
   -2.2768    1.8047    0.6797 C   0  0  0  0  0  0  0  0  0  0  0  0
   -3.0158    1.0488   -0.2449 C   0  0  0  0  0  0  0  0  0  0  0  0
   -3.0353   -0.6809   -1.6161 H   0  0  0  0  0  0  0  0  0  0  0  0
    3.7474    1.8279   -0.6265 N   0  0  0  0  0  0  0  0  0  0  0  0
    4.4865    1.0898   -0.2682 N   0  0  0  0  0  0  0  0  0  0  0  0
   -4.0427    1.3402   -0.4713 H   0  0  0  0  0  0  0  0  0  0  0  0
   -2.7229    2.6701    1.1671 H   0  0  0  0  0  0  0  0  0  0  0  0
   -0.1649    2.2453    1.9667 N   0  0  0  0  0  0  0  0  0  0  0  0
    0.9936    1.9001    2.1652 O   0  0  0  0  0  0  0  0  0  0  0  0
   -0.7298    3.1918    2.5119 O   0  0  0  0  0  0  0  0  0  0  0  0
  1  2  2  0  0  0  0
  1  6  1  0  0  0  0
  2  3  1  0  0  0  0
  3  4  2  0  0  0  0
  4 12  1  0  0  0  0
  5  4  1  0  0  0  0
  5 11  1  0  0  0  0
  6  5  2  0  0  0  0
  7  1  1  0  0  0  0
  8  9  3  0  0  0  0
 10  6  1  0  0  0  0
 12 13  2  0  0  0  0
 12 14  2  0  0  0  0
M  RAD  2   2   2   3   2
M  END
