Coordinates from ORCA-job 2-NO2-C6H3-N2-B3LYPG-aug-cc-pVDZ-scan-d09-49-n400
 OpenBabel11091809053D

 14 13  0  0  0  0  0  0  0  0999 V2000
   -2.1838   -0.0185   -0.9801 C   0  0  0  0  0  0  0  0  0  0  0  0
   -0.8680   -0.0854   -0.5716 C   0  0  0  0  0  0  0  0  0  0  0  0
   -0.2242    0.5628    0.2862 C   0  0  0  0  0  0  0  0  0  0  0  0
   -0.8375    1.5663    1.0160 C   0  0  0  0  0  0  0  0  0  0  0  0
   -2.1998    1.7757    0.7206 C   0  0  0  0  0  0  0  0  0  0  0  0
   -2.8510    1.0009   -0.2537 C   0  0  0  0  0  0  0  0  0  0  0  0
   -2.6781   -0.6245   -1.7356 H   0  0  0  0  0  0  0  0  0  0  0  0
    2.8606    1.4491   -0.5862 N   0  0  0  0  0  0  0  0  0  0  0  0
    3.7271    0.7979   -0.3740 N   0  0  0  0  0  0  0  0  0  0  0  0
   -3.9060    1.1849   -0.4630 H   0  0  0  0  0  0  0  0  0  0  0  0
   -2.7397    2.5498    1.2633 H   0  0  0  0  0  0  0  0  0  0  0  0
   -0.1458    2.3685    2.0393 N   0  0  0  0  0  0  0  0  0  0  0  0
    1.0366    2.1194    2.2412 O   0  0  0  0  0  0  0  0  0  0  0  0
   -0.8015    3.2315    2.6200 O   0  0  0  0  0  0  0  0  0  0  0  0
  1  2  2  0  0  0  0
  1  6  1  0  0  0  0
  2  3  1  0  0  0  0
  3  4  2  0  0  0  0
  4 12  1  0  0  0  0
  5  4  1  0  0  0  0
  5 11  1  0  0  0  0
  6  5  2  0  0  0  0
  7  1  1  0  0  0  0
  8  9  3  0  0  0  0
 10  6  1  0  0  0  0
 12 13  2  0  0  0  0
 12 14  2  0  0  0  0
M  RAD  2   2   2   3   2
M  END
