Coordinates from ORCA-job 2-NO2-C6H3-N2-B3LYPG-aug-cc-pVDZ-scan-d09-49-n400
 OpenBabel11091809053D

 14 14  0  0  0  0  0  0  0  0999 V2000
   -1.9010    0.1211   -1.0697 C   0  0  0  0  0  0  0  0  0  0  0  0
   -0.4830    0.1169   -0.9853 C   0  0  0  0  0  0  0  0  0  0  0  0
   -0.0177    0.8949   -0.0299 C   0  0  0  0  0  0  0  0  0  0  0  0
   -0.6695    1.7100    0.8993 C   0  0  0  0  0  0  0  0  0  0  0  0
   -2.0610    1.6956    0.7945 C   0  0  0  0  0  0  0  0  0  0  0  0
   -2.6674    0.8985   -0.1926 C   0  0  0  0  0  0  0  0  0  0  0  0
   -2.4149   -0.4834   -1.8217 H   0  0  0  0  0  0  0  0  0  0  0  0
    1.6510    0.8933    0.0735 N   0  0  0  0  0  0  0  0  0  0  0  0
    2.6815    0.5984   -0.2123 N   0  0  0  0  0  0  0  0  0  0  0  0
   -3.7566    0.8947   -0.2658 H   0  0  0  0  0  0  0  0  0  0  0  0
   -2.6459    2.3033    1.4809 H   0  0  0  0  0  0  0  0  0  0  0  0
   -0.0187    2.5323    1.9193 N   0  0  0  0  0  0  0  0  0  0  0  0
    1.2153    2.5043    1.9641 O   0  0  0  0  0  0  0  0  0  0  0  0
   -0.7230    3.1985    2.6681 O   0  0  0  0  0  0  0  0  0  0  0  0
  1  2  2  0  0  0  0
  1  6  1  0  0  0  0
  2  3  1  0  0  0  0
  3  8  1  0  0  0  0
  3  4  2  0  0  0  0
  4 12  1  0  0  0  0
  5  4  1  0  0  0  0
  5 11  1  0  0  0  0
  6  5  2  0  0  0  0
  7  1  1  0  0  0  0
  9  8  1  0  0  0  0
 10  6  1  0  0  0  0
 12 13  2  0  0  0  0
 12 14  2  0  0  0  0
M  RAD  3   2   2   8   2   9   3
M  END
