Coordinates from ORCA-job 2-NO2-C6H3-N2-B3LYPG-aug-cc-pVDZ-scan-d09-49-n400
 OpenBabel11091809053D

 14 13  0  0  0  0  0  0  0  0999 V2000
   -2.3059   -0.0504   -0.9421 C   0  0  0  0  0  0  0  0  0  0  0  0
   -1.0030   -0.1805   -0.5086 C   0  0  0  0  0  0  0  0  0  0  0  0
   -0.3339    0.4566    0.3381 C   0  0  0  0  0  0  0  0  0  0  0  0
   -0.8987    1.5172    1.0254 C   0  0  0  0  0  0  0  0  0  0  0  0
   -2.2424    1.7946    0.7023 C   0  0  0  0  0  0  0  0  0  0  0  0
   -2.9234    1.0279   -0.2579 C   0  0  0  0  0  0  0  0  0  0  0  0
   -2.8229   -0.6499   -1.6875 H   0  0  0  0  0  0  0  0  0  0  0  0
    3.2804    1.6011   -0.6488 N   0  0  0  0  0  0  0  0  0  0  0  0
    4.1144    0.9297   -0.3778 N   0  0  0  0  0  0  0  0  0  0  0  0
   -3.9628    1.2655   -0.4899 H   0  0  0  0  0  0  0  0  0  0  0  0
   -2.7441    2.6156    1.2117 H   0  0  0  0  0  0  0  0  0  0  0  0
   -0.1736    2.3138    2.0300 N   0  0  0  0  0  0  0  0  0  0  0  0
    0.9974    2.0204    2.2379 O   0  0  0  0  0  0  0  0  0  0  0  0
   -0.7926    3.2170    2.5896 O   0  0  0  0  0  0  0  0  0  0  0  0
  1  2  2  0  0  0  0
  1  6  1  0  0  0  0
  2  3  1  0  0  0  0
  3  4  2  0  0  0  0
  4 12  1  0  0  0  0
  5  4  1  0  0  0  0
  5 11  1  0  0  0  0
  6  5  2  0  0  0  0
  7  1  1  0  0  0  0
  8  9  3  0  0  0  0
 10  6  1  0  0  0  0
 12 13  2  0  0  0  0
 12 14  2  0  0  0  0
M  RAD  2   2   2   3   2
M  END
