Coordinates from ORCA-job 2-NO2-C6H3-N2-B3LYPG-aug-cc-pVDZ-scan-d09-49-n400
 OpenBabel11091809053D

 14 13  0  0  0  0  0  0  0  0999 V2000
   -2.1273   -0.0012   -1.0016 C   0  0  0  0  0  0  0  0  0  0  0  0
   -0.8016   -0.0287   -0.6206 C   0  0  0  0  0  0  0  0  0  0  0  0
   -0.1658    0.6261    0.2380 C   0  0  0  0  0  0  0  0  0  0  0  0
   -0.7995    1.5934    0.9985 C   0  0  0  0  0  0  0  0  0  0  0  0
   -2.1732    1.7617    0.7302 C   0  0  0  0  0  0  0  0  0  0  0  0
   -2.8154    0.9824   -0.2462 C   0  0  0  0  0  0  0  0  0  0  0  0
   -2.6151   -0.6123   -1.7572 H   0  0  0  0  0  0  0  0  0  0  0  0
    2.6379    1.3876   -0.5310 N   0  0  0  0  0  0  0  0  0  0  0  0
    3.5034    0.7301   -0.3341 N   0  0  0  0  0  0  0  0  0  0  0  0
   -3.8797    1.1337   -0.4333 H   0  0  0  0  0  0  0  0  0  0  0  0
   -2.7291    2.5066    1.2971 H   0  0  0  0  0  0  0  0  0  0  0  0
   -0.1209    2.3954    2.0307 N   0  0  0  0  0  0  0  0  0  0  0  0
    1.0641    2.1595    2.2339 O   0  0  0  0  0  0  0  0  0  0  0  0
   -0.7890    3.2443    2.6179 O   0  0  0  0  0  0  0  0  0  0  0  0
  1  2  2  0  0  0  0
  1  6  1  0  0  0  0
  2  3  1  0  0  0  0
  3  4  2  0  0  0  0
  4 12  1  0  0  0  0
  5  4  1  0  0  0  0
  5 11  1  0  0  0  0
  6  5  2  0  0  0  0
  7  1  1  0  0  0  0
  8  9  3  0  0  0  0
 10  6  1  0  0  0  0
 12 13  2  0  0  0  0
 12 14  2  0  0  0  0
M  RAD  2   2   2   3   2
M  END
