Coordinates from ORCA-job 2-NO2-C6H3-N2-B3LYPG-aug-cc-pVDZ-scan-d09-49-n400
 OpenBabel11091809053D

 14 13  0  0  0  0  0  0  0  0999 V2000
   -2.0787    0.0144   -1.0203 C   0  0  0  0  0  0  0  0  0  0  0  0
   -0.7425    0.0295   -0.6750 C   0  0  0  0  0  0  0  0  0  0  0  0
   -0.1117    0.6922    0.1815 C   0  0  0  0  0  0  0  0  0  0  0  0
   -0.7627    1.6216    0.9746 C   0  0  0  0  0  0  0  0  0  0  0  0
   -2.1462    1.7488    0.7372 C   0  0  0  0  0  0  0  0  0  0  0  0
   -2.7834    0.9632   -0.2374 C   0  0  0  0  0  0  0  0  0  0  0  0
   -2.5632   -0.6056   -1.7710 H   0  0  0  0  0  0  0  0  0  0  0  0
    2.4280    1.3352   -0.4484 N   0  0  0  0  0  0  0  0  0  0  0  0
    3.2986    0.6705   -0.3035 N   0  0  0  0  0  0  0  0  0  0  0  0
   -3.8560    1.0812   -0.3994 H   0  0  0  0  0  0  0  0  0  0  0  0
   -2.7140    2.4640    1.3298 H   0  0  0  0  0  0  0  0  0  0  0  0
   -0.0961    2.4186    2.0181 N   0  0  0  0  0  0  0  0  0  0  0  0
    1.0872    2.1820    2.2323 O   0  0  0  0  0  0  0  0  0  0  0  0
   -0.7703    3.2631    2.6042 O   0  0  0  0  0  0  0  0  0  0  0  0
  1  2  2  0  0  0  0
  1  6  1  0  0  0  0
  2  3  1  0  0  0  0
  3  4  2  0  0  0  0
  4 12  1  0  0  0  0
  5  4  1  0  0  0  0
  5 11  1  0  0  0  0
  6  5  2  0  0  0  0
  7  1  1  0  0  0  0
  8  9  3  0  0  0  0
 10  6  1  0  0  0  0
 12 13  2  0  0  0  0
 12 14  2  0  0  0  0
M  RAD  2   2   2   3   2
M  END
