Coordinates from ORCA-job 2-NO2-C6H3-N2-B3LYPG-aug-cc-pVDZ-scan-d09-49-n400
 OpenBabel11091809053D

 14 13  0  0  0  0  0  0  0  0999 V2000
   -2.3418   -0.0590   -0.9314 C   0  0  0  0  0  0  0  0  0  0  0  0
   -1.0422   -0.2053   -0.4934 C   0  0  0  0  0  0  0  0  0  0  0  0
   -0.3650    0.4287    0.3494 C   0  0  0  0  0  0  0  0  0  0  0  0
   -0.9153    1.5037    1.0260 C   0  0  0  0  0  0  0  0  0  0  0  0
   -2.2537    1.7989    0.6973 C   0  0  0  0  0  0  0  0  0  0  0  0
   -2.9442    1.0345   -0.2581 C   0  0  0  0  0  0  0  0  0  0  0  0
   -2.8661   -0.6569   -1.6730 H   0  0  0  0  0  0  0  0  0  0  0  0
    3.4025    1.6489   -0.6645 N   0  0  0  0  0  0  0  0  0  0  0  0
    4.2189    0.9649   -0.3722 N   0  0  0  0  0  0  0  0  0  0  0  0
   -3.9793    1.2860   -0.4946 H   0  0  0  0  0  0  0  0  0  0  0  0
   -2.7440    2.6318    1.1984 H   0  0  0  0  0  0  0  0  0  0  0  0
   -0.1802    2.2981    2.0251 N   0  0  0  0  0  0  0  0  0  0  0  0
    0.9865    1.9902    2.2364 O   0  0  0  0  0  0  0  0  0  0  0  0
   -0.7872    3.2140    2.5771 O   0  0  0  0  0  0  0  0  0  0  0  0
  1  2  2  0  0  0  0
  1  6  1  0  0  0  0
  2  3  1  0  0  0  0
  3  4  2  0  0  0  0
  4 12  1  0  0  0  0
  5  4  1  0  0  0  0
  5 11  1  0  0  0  0
  6  5  2  0  0  0  0
  7  1  1  0  0  0  0
  8  9  3  0  0  0  0
 10  6  1  0  0  0  0
 12 13  2  0  0  0  0
 12 14  2  0  0  0  0
M  RAD  2   2   2   3   2
M  END
