Coordinates from ORCA-job 2-NO2-C6H3-N2-B3LYPG-aug-cc-pVDZ-scan-d09-49-n400
 OpenBabel11091809053D

 14 14  0  0  0  0  0  0  0  0999 V2000
   -1.8746    0.1678   -1.0983 C   0  0  0  0  0  0  0  0  0  0  0  0
   -0.4495    0.0814   -1.0634 C   0  0  0  0  0  0  0  0  0  0  0  0
    0.0946    0.8894   -0.0309 C   0  0  0  0  0  0  0  0  0  0  0  0
   -0.6482    1.6984    0.8919 C   0  0  0  0  0  0  0  0  0  0  0  0
   -2.0221    1.6623    0.8266 C   0  0  0  0  0  0  0  0  0  0  0  0
   -2.6367    0.8689   -0.1701 C   0  0  0  0  0  0  0  0  0  0  0  0
   -2.4019   -0.3682   -1.8927 H   0  0  0  0  0  0  0  0  0  0  0  0
    1.4091    0.7855    0.0486 N   0  0  0  0  0  0  0  0  0  0  0  0
    2.5114    0.6058    0.0170 N   0  0  0  0  0  0  0  0  0  0  0  0
   -3.7277    0.8380   -0.2101 H   0  0  0  0  0  0  0  0  0  0  0  0
   -2.6042    2.2607    1.5230 H   0  0  0  0  0  0  0  0  0  0  0  0
    0.0025    2.5735    1.8742 N   0  0  0  0  0  0  0  0  0  0  0  0
    1.2322    2.6596    1.8113 O   0  0  0  0  0  0  0  0  0  0  0  0
   -0.6959    3.1553    2.6954 O   0  0  0  0  0  0  0  0  0  0  0  0
  1  2  2  0  0  0  0
  1  6  1  0  0  0  0
  2  3  1  0  0  0  0
  3  8  1  0  0  0  0
  3  4  2  0  0  0  0
  4 12  1  0  0  0  0
  5  4  1  0  0  0  0
  5 11  1  0  0  0  0
  6  5  2  0  0  0  0
  7  1  1  0  0  0  0
  9  8  1  0  0  0  0
 10  6  1  0  0  0  0
 12 14  2  0  0  0  0
 13 12  2  0  0  0  0
M  RAD  3   2   2   8   2   9   3
M  END
