Coordinates from ORCA-job 2-NO2-C6H3-N2-B3LYPG-aug-cc-pVDZ-scan-d09-49-n400
 OpenBabel11091809053D

 14 13  0  0  0  0  0  0  0  0999 V2000
   -2.3526   -0.0616   -0.9283 C   0  0  0  0  0  0  0  0  0  0  0  0
   -1.0539   -0.2126   -0.4891 C   0  0  0  0  0  0  0  0  0  0  0  0
   -0.3742    0.4204    0.3524 C   0  0  0  0  0  0  0  0  0  0  0  0
   -0.9200    1.4997    1.0259 C   0  0  0  0  0  0  0  0  0  0  0  0
   -2.2570    1.8000    0.6958 C   0  0  0  0  0  0  0  0  0  0  0  0
   -2.9504    1.0363   -0.2580 C   0  0  0  0  0  0  0  0  0  0  0  0
   -2.8792   -0.6589   -1.6686 H   0  0  0  0  0  0  0  0  0  0  0  0
    3.4384    1.6636   -0.6685 N   0  0  0  0  0  0  0  0  0  0  0  0
    4.2489    0.9754   -0.3696 N   0  0  0  0  0  0  0  0  0  0  0  0
   -3.9843    1.2919   -0.4957 H   0  0  0  0  0  0  0  0  0  0  0  0
   -2.7437    2.6365    1.1945 H   0  0  0  0  0  0  0  0  0  0  0  0
   -0.1818    2.2934    2.0233 N   0  0  0  0  0  0  0  0  0  0  0  0
    0.9837    1.9813    2.2352 O   0  0  0  0  0  0  0  0  0  0  0  0
   -0.7851    3.2130    2.5731 O   0  0  0  0  0  0  0  0  0  0  0  0
  1  2  2  0  0  0  0
  1  6  1  0  0  0  0
  2  3  1  0  0  0  0
  3  4  2  0  0  0  0
  4 12  1  0  0  0  0
  5  4  1  0  0  0  0
  5 11  1  0  0  0  0
  6  5  2  0  0  0  0
  7  1  1  0  0  0  0
  8  9  3  0  0  0  0
 10  6  1  0  0  0  0
 12 13  2  0  0  0  0
 12 14  2  0  0  0  0
M  RAD  2   2   2   3   2
M  END
