Coordinates from ORCA-job 2-NO2-C6H3-N2-B3LYPG-aug-cc-pVDZ-scan-d09-49-n400
 OpenBabel11091809053D

 14 13  0  0  0  0  0  0  0  0999 V2000
   -2.2954   -0.0479   -0.9453 C   0  0  0  0  0  0  0  0  0  0  0  0
   -0.9915   -0.1730   -0.5132 C   0  0  0  0  0  0  0  0  0  0  0  0
   -0.3247    0.4650    0.3347 C   0  0  0  0  0  0  0  0  0  0  0  0
   -0.8938    1.5212    1.0251 C   0  0  0  0  0  0  0  0  0  0  0  0
   -2.2389    1.7932    0.7038 C   0  0  0  0  0  0  0  0  0  0  0  0
   -2.9172    1.0259   -0.2579 C   0  0  0  0  0  0  0  0  0  0  0  0
   -2.8102   -0.6478   -1.6918 H   0  0  0  0  0  0  0  0  0  0  0  0
    3.2445    1.5873   -0.6441 N   0  0  0  0  0  0  0  0  0  0  0  0
    4.0830    0.9191   -0.3790 N   0  0  0  0  0  0  0  0  0  0  0  0
   -3.9579    1.2593   -0.4884 H   0  0  0  0  0  0  0  0  0  0  0  0
   -2.7440    2.6106    1.2157 H   0  0  0  0  0  0  0  0  0  0  0  0
   -0.1716    2.3184    2.0313 N   0  0  0  0  0  0  0  0  0  0  0  0
    1.0006    2.0292    2.2383 O   0  0  0  0  0  0  0  0  0  0  0  0
   -0.7940    3.2179    2.5931 O   0  0  0  0  0  0  0  0  0  0  0  0
  1  2  2  0  0  0  0
  1  6  1  0  0  0  0
  2  3  1  0  0  0  0
  3  4  2  0  0  0  0
  4 12  1  0  0  0  0
  5  4  1  0  0  0  0
  5 11  1  0  0  0  0
  6  5  2  0  0  0  0
  7  1  1  0  0  0  0
  8  9  3  0  0  0  0
 10  6  1  0  0  0  0
 12 13  2  0  0  0  0
 12 14  2  0  0  0  0
M  RAD  2   2   2   3   2
M  END
