Coordinates from ORCA-job 2-NO2-C6H3-N2-B3LYPG-aug-cc-pVDZ-scan-d09-49-n400
 OpenBabel11091809053D

 14 13  0  0  0  0  0  0  0  0999 V2000
   -2.4484   -0.0814   -0.9056 C   0  0  0  0  0  0  0  0  0  0  0  0
   -1.1502   -0.2628   -0.4792 C   0  0  0  0  0  0  0  0  0  0  0  0
   -0.4348    0.3619    0.3385 C   0  0  0  0  0  0  0  0  0  0  0  0
   -0.9414    1.4674    1.0008 C   0  0  0  0  0  0  0  0  0  0  0  0
   -2.2731    1.8035    0.6841 C   0  0  0  0  0  0  0  0  0  0  0  0
   -3.0032    1.0459   -0.2465 C   0  0  0  0  0  0  0  0  0  0  0  0
   -3.0029   -0.6760   -1.6274 H   0  0  0  0  0  0  0  0  0  0  0  0
    3.6836    1.7958   -0.6381 N   0  0  0  0  0  0  0  0  0  0  0  0
    4.4311    1.0658   -0.2800 N   0  0  0  0  0  0  0  0  0  0  0  0
   -4.0322    1.3287   -0.4742 H   0  0  0  0  0  0  0  0  0  0  0  0
   -2.7269    2.6627    1.1750 H   0  0  0  0  0  0  0  0  0  0  0  0
   -0.1672    2.2549    1.9763 N   0  0  0  0  0  0  0  0  0  0  0  0
    0.9919    1.9137    2.1776 O   0  0  0  0  0  0  0  0  0  0  0  0
   -0.7375    3.1984    2.5209 O   0  0  0  0  0  0  0  0  0  0  0  0
  1  2  2  0  0  0  0
  1  6  1  0  0  0  0
  2  3  1  0  0  0  0
  3  4  2  0  0  0  0
  4 12  1  0  0  0  0
  5  4  1  0  0  0  0
  5 11  1  0  0  0  0
  6  5  2  0  0  0  0
  7  1  1  0  0  0  0
  8  9  3  0  0  0  0
 10  6  1  0  0  0  0
 12 13  2  0  0  0  0
 12 14  2  0  0  0  0
M  RAD  2   2   2   3   2
M  END
