Coordinates from ORCA-job 2-NO2-C6H3-N2-B3LYPG-aug-cc-pVDZ-scan-d09-49-n400
 OpenBabel11091809053D

 14 14  0  0  0  0  0  0  0  0999 V2000
   -1.8800    0.1309   -1.0674 C   0  0  0  0  0  0  0  0  0  0  0  0
   -0.4507    0.0758   -1.0380 C   0  0  0  0  0  0  0  0  0  0  0  0
    0.0553    0.8922   -0.0300 C   0  0  0  0  0  0  0  0  0  0  0  0
   -0.6606    1.7049    0.8943 C   0  0  0  0  0  0  0  0  0  0  0  0
   -2.0375    1.6947    0.8038 C   0  0  0  0  0  0  0  0  0  0  0  0
   -2.6449    0.8941   -0.1894 C   0  0  0  0  0  0  0  0  0  0  0  0
   -2.4077   -0.4609   -1.8209 H   0  0  0  0  0  0  0  0  0  0  0  0
    1.4749    0.8439    0.0190 N   0  0  0  0  0  0  0  0  0  0  0  0
    2.5696    0.6776   -0.0922 N   0  0  0  0  0  0  0  0  0  0  0  0
   -3.7350    0.8884   -0.2568 H   0  0  0  0  0  0  0  0  0  0  0  0
   -2.6215    2.3011    1.4916 H   0  0  0  0  0  0  0  0  0  0  0  0
   -0.0044    2.5328    1.9091 N   0  0  0  0  0  0  0  0  0  0  0  0
    1.2307    2.5130    1.9258 O   0  0  0  0  0  0  0  0  0  0  0  0
   -0.6992    3.1900    2.6735 O   0  0  0  0  0  0  0  0  0  0  0  0
  1  2  2  0  0  0  0
  1  6  1  0  0  0  0
  2  3  1  0  0  0  0
  3  8  1  0  0  0  0
  3  4  2  0  0  0  0
  4 12  1  0  0  0  0
  5  4  1  0  0  0  0
  5 11  1  0  0  0  0
  6  5  2  0  0  0  0
  7  1  1  0  0  0  0
  9  8  1  0  0  0  0
 10  6  1  0  0  0  0
 12 13  2  0  0  0  0
 12 14  2  0  0  0  0
M  RAD  3   2   2   8   2   9   3
M  END
