Coordinates from ORCA-job 2-NO2-C6H3-N2-B3LYPG-aug-cc-pVDZ-scan-d09-49-n400
 OpenBabel11091809053D

 14 13  0  0  0  0  0  0  0  0999 V2000
   -2.0606    0.0204   -1.0295 C   0  0  0  0  0  0  0  0  0  0  0  0
   -0.7198    0.0561   -0.7057 C   0  0  0  0  0  0  0  0  0  0  0  0
   -0.0849    0.7213    0.1466 C   0  0  0  0  0  0  0  0  0  0  0  0
   -0.7413    1.6333    0.9563 C   0  0  0  0  0  0  0  0  0  0  0  0
   -2.1298    1.7418    0.7387 C   0  0  0  0  0  0  0  0  0  0  0  0
   -2.7692    0.9541   -0.2323 C   0  0  0  0  0  0  0  0  0  0  0  0
   -2.5459   -0.6042   -1.7760 H   0  0  0  0  0  0  0  0  0  0  0  0
    2.3195    1.3127   -0.3925 N   0  0  0  0  0  0  0  0  0  0  0  0
    3.1999    0.6552   -0.2748 N   0  0  0  0  0  0  0  0  0  0  0  0
   -3.8453    1.0586   -0.3794 H   0  0  0  0  0  0  0  0  0  0  0  0
   -2.6997    2.4429    1.3459 H   0  0  0  0  0  0  0  0  0  0  0  0
   -0.0799    2.4268    2.0061 N   0  0  0  0  0  0  0  0  0  0  0  0
    1.1032    2.1918    2.2250 O   0  0  0  0  0  0  0  0  0  0  0  0
   -0.7574    3.2675    2.5938 O   0  0  0  0  0  0  0  0  0  0  0  0
  1  2  2  0  0  0  0
  1  6  1  0  0  0  0
  2  3  1  0  0  0  0
  3  4  2  0  0  0  0
  4 12  1  0  0  0  0
  5  4  1  0  0  0  0
  5 11  1  0  0  0  0
  6  5  2  0  0  0  0
  7  1  1  0  0  0  0
  8  9  3  0  0  0  0
 10  6  1  0  0  0  0
 12 13  2  0  0  0  0
 12 14  2  0  0  0  0
M  RAD  2   2   2   3   2
M  END
