Coordinates from ORCA-job 2-NO2-C6H3-N2-B3LYPG-aug-cc-pVDZ-scan-d09-49-n400
 OpenBabel11091809053D

 14 14  0  0  0  0  0  0  0  0999 V2000
   -1.9487    0.0848   -1.0727 C   0  0  0  0  0  0  0  0  0  0  0  0
   -0.5616    0.2162   -0.9595 C   0  0  0  0  0  0  0  0  0  0  0  0
   -0.0157    0.9220   -0.0504 C   0  0  0  0  0  0  0  0  0  0  0  0
   -0.6639    1.7227    0.8777 C   0  0  0  0  0  0  0  0  0  0  0  0
   -2.0653    1.6903    0.7780 C   0  0  0  0  0  0  0  0  0  0  0  0
   -2.6936    0.8873   -0.1867 C   0  0  0  0  0  0  0  0  0  0  0  0
   -2.4467   -0.5596   -1.7980 H   0  0  0  0  0  0  0  0  0  0  0  0
    1.8512    1.1527   -0.1211 N   0  0  0  0  0  0  0  0  0  0  0  0
    2.7362    0.4813   -0.1379 N   0  0  0  0  0  0  0  0  0  0  0  0
   -3.7835    0.8868   -0.2445 H   0  0  0  0  0  0  0  0  0  0  0  0
   -2.6473    2.2836    1.4807 H   0  0  0  0  0  0  0  0  0  0  0  0
   -0.0244    2.5029    1.9441 N   0  0  0  0  0  0  0  0  0  0  0  0
    1.1583    2.2665    2.1858 O   0  0  0  0  0  0  0  0  0  0  0  0
   -0.7061    3.3408    2.5270 O   0  0  0  0  0  0  0  0  0  0  0  0
  1  2  2  0  0  0  0
  1  6  1  0  0  0  0
  2  3  1  0  0  0  0
  3  4  2  0  0  0  0
  4 12  1  0  0  0  0
  5  4  1  0  0  0  0
  5 11  1  0  0  0  0
  6  5  2  0  0  0  0
  7  1  1  0  0  0  0
  8  3  1  0  0  0  0
  9  8  2  0  0  0  0
 10  6  1  0  0  0  0
 12 13  2  0  0  0  0
 12 14  2  0  0  0  0
M  RAD  2   2   2   9   2
M  END
