Coordinates from ORCA-job 2-NO2-C6H3-N2-B3LYPG-aug-cc-pVDZ-scan-d09-49-n400
 OpenBabel11091809053D

 14 13  0  0  0  0  0  0  0  0999 V2000
   -2.3674   -0.0647   -0.9247 C   0  0  0  0  0  0  0  0  0  0  0  0
   -1.0695   -0.2193   -0.4862 C   0  0  0  0  0  0  0  0  0  0  0  0
   -0.3817    0.4121    0.3497 C   0  0  0  0  0  0  0  0  0  0  0  0
   -0.9233    1.4949    1.0214 C   0  0  0  0  0  0  0  0  0  0  0  0
   -2.2595    1.8011    0.6933 C   0  0  0  0  0  0  0  0  0  0  0  0
   -2.9587    1.0383   -0.2565 C   0  0  0  0  0  0  0  0  0  0  0  0
   -2.8981   -0.6628   -1.6615 H   0  0  0  0  0  0  0  0  0  0  0  0
    3.4777    1.6829   -0.6659 N   0  0  0  0  0  0  0  0  0  0  0  0
    4.2800    0.9891   -0.3582 N   0  0  0  0  0  0  0  0  0  0  0  0
   -3.9920    1.2979   -0.4927 H   0  0  0  0  0  0  0  0  0  0  0  0
   -2.7411    2.6412    1.1908 H   0  0  0  0  0  0  0  0  0  0  0  0
   -0.1808    2.2872    2.0172 N   0  0  0  0  0  0  0  0  0  0  0  0
    0.9833    1.9705    2.2295 O   0  0  0  0  0  0  0  0  0  0  0  0
   -0.7801    3.2100    2.5661 O   0  0  0  0  0  0  0  0  0  0  0  0
  1  2  2  0  0  0  0
  1  6  1  0  0  0  0
  2  3  1  0  0  0  0
  3  4  2  0  0  0  0
  4 12  1  0  0  0  0
  5  4  1  0  0  0  0
  5 11  1  0  0  0  0
  6  5  2  0  0  0  0
  7  1  1  0  0  0  0
  8  9  3  0  0  0  0
 10  6  1  0  0  0  0
 12 13  2  0  0  0  0
 12 14  2  0  0  0  0
M  RAD  2   2   2   3   2
M  END
