Coordinates from ORCA-job 2-NO2-C6H3-N2-B3LYPG-aug-cc-pVDZ-scan-d09-49-n400
 OpenBabel11091809053D

 14 14  0  0  0  0  0  0  0  0999 V2000
   -1.8948    0.1238   -1.0664 C   0  0  0  0  0  0  0  0  0  0  0  0
   -0.4722    0.1049   -0.9990 C   0  0  0  0  0  0  0  0  0  0  0  0
   -0.0081    0.8938   -0.0304 C   0  0  0  0  0  0  0  0  0  0  0  0
   -0.6716    1.7088    0.8982 C   0  0  0  0  0  0  0  0  0  0  0  0
   -2.0597    1.6974    0.7970 C   0  0  0  0  0  0  0  0  0  0  0  0
   -2.6636    0.8988   -0.1921 C   0  0  0  0  0  0  0  0  0  0  0  0
   -2.4125   -0.4795   -1.8173 H   0  0  0  0  0  0  0  0  0  0  0  0
    1.6111    0.8858    0.0623 N   0  0  0  0  0  0  0  0  0  0  0  0
    2.6619    0.6260   -0.1805 N   0  0  0  0  0  0  0  0  0  0  0  0
   -3.7528    0.8939   -0.2666 H   0  0  0  0  0  0  0  0  0  0  0  0
   -2.6445    2.3049    1.4834 H   0  0  0  0  0  0  0  0  0  0  0  0
   -0.0146    2.5279    1.9151 N   0  0  0  0  0  0  0  0  0  0  0  0
    1.2204    2.4938    1.9508 O   0  0  0  0  0  0  0  0  0  0  0  0
   -0.7100    3.1982    2.6679 O   0  0  0  0  0  0  0  0  0  0  0  0
  1  2  2  0  0  0  0
  1  6  1  0  0  0  0
  2  3  1  0  0  0  0
  3  8  1  0  0  0  0
  3  4  2  0  0  0  0
  4 12  1  0  0  0  0
  5  4  1  0  0  0  0
  5 11  1  0  0  0  0
  6  5  2  0  0  0  0
  7  1  1  0  0  0  0
  9  8  1  0  0  0  0
 10  6  1  0  0  0  0
 12 13  2  0  0  0  0
 12 14  2  0  0  0  0
M  RAD  3   2   2   8   2   9   3
M  END
