Coordinates from ORCA-job 2-NO2-C6H3-N2-B3LYPG-aug-cc-pVDZ-scan-d09-49-n400
 OpenBabel11091809053D

 14 13  0  0  0  0  0  0  0  0999 V2000
   -2.4171   -0.0751   -0.9131 C   0  0  0  0  0  0  0  0  0  0  0  0
   -1.1192   -0.2462   -0.4815 C   0  0  0  0  0  0  0  0  0  0  0  0
   -0.4139    0.3809    0.3431 C   0  0  0  0  0  0  0  0  0  0  0  0
   -0.9343    1.4779    1.0089 C   0  0  0  0  0  0  0  0  0  0  0  0
   -2.2678    1.8027    0.6876 C   0  0  0  0  0  0  0  0  0  0  0  0
   -2.9860    1.0431   -0.2506 C   0  0  0  0  0  0  0  0  0  0  0  0
   -2.9623   -0.6712   -1.6408 H   0  0  0  0  0  0  0  0  0  0  0  0
    3.6029    1.7515   -0.6494 N   0  0  0  0  0  0  0  0  0  0  0  0
    4.3736    1.0367   -0.3106 N   0  0  0  0  0  0  0  0  0  0  0  0
   -4.0166    1.3171   -0.4817 H   0  0  0  0  0  0  0  0  0  0  0  0
   -2.7323    2.6548    1.1810 H   0  0  0  0  0  0  0  0  0  0  0  0
   -0.1725    2.2674    1.9925 N   0  0  0  0  0  0  0  0  0  0  0  0
    0.9886    1.9357    2.1982 O   0  0  0  0  0  0  0  0  0  0  0  0
   -0.7543    3.2029    2.5388 O   0  0  0  0  0  0  0  0  0  0  0  0
  1  2  2  0  0  0  0
  1  6  1  0  0  0  0
  2  3  1  0  0  0  0
  3  4  2  0  0  0  0
  4 12  1  0  0  0  0
  5  4  1  0  0  0  0
  5 11  1  0  0  0  0
  6  5  2  0  0  0  0
  7  1  1  0  0  0  0
  8  9  3  0  0  0  0
 10  6  1  0  0  0  0
 12 13  2  0  0  0  0
 12 14  2  0  0  0  0
M  RAD  2   2   2   3   2
M  END
