Coordinates from ORCA-job 2-NO2-C6H3-N2-B3LYPG-aug-cc-pVDZ-scan-d09-49-n400
 OpenBabel11091809053D

 14 13  0  0  0  0  0  0  0  0999 V2000
   -2.5041   -0.0906   -0.8929 C   0  0  0  0  0  0  0  0  0  0  0  0
   -1.2044   -0.2860   -0.4773 C   0  0  0  0  0  0  0  0  0  0  0  0
   -0.4735    0.3368    0.3282 C   0  0  0  0  0  0  0  0  0  0  0  0
   -0.9598    1.4530    0.9873 C   0  0  0  0  0  0  0  0  0  0  0  0
   -2.2901    1.8039    0.6808 C   0  0  0  0  0  0  0  0  0  0  0  0
   -3.0382    1.0486   -0.2374 C   0  0  0  0  0  0  0  0  0  0  0  0
   -3.0731   -0.6835   -1.6048 H   0  0  0  0  0  0  0  0  0  0  0  0
    3.8502    1.8588   -0.6131 N   0  0  0  0  0  0  0  0  0  0  0  0
    4.5753    1.1092   -0.2502 N   0  0  0  0  0  0  0  0  0  0  0  0
   -4.0657    1.3425   -0.4577 H   0  0  0  0  0  0  0  0  0  0  0  0
   -2.7283    2.6724    1.1695 H   0  0  0  0  0  0  0  0  0  0  0  0
   -0.1670    2.2376    1.9507 N   0  0  0  0  0  0  0  0  0  0  0  0
    0.9904    1.8860    2.1437 O   0  0  0  0  0  0  0  0  0  0  0  0
   -0.7227    3.1897    2.4955 O   0  0  0  0  0  0  0  0  0  0  0  0
  1  2  2  0  0  0  0
  1  6  1  0  0  0  0
  2  3  1  0  0  0  0
  3  4  2  0  0  0  0
  4 12  1  0  0  0  0
  5  4  1  0  0  0  0
  5 11  1  0  0  0  0
  6  5  2  0  0  0  0
  7  1  1  0  0  0  0
  8  9  3  0  0  0  0
 10  6  1  0  0  0  0
 12 13  2  0  0  0  0
 12 14  2  0  0  0  0
M  RAD  2   2   2   3   2
M  END
