Coordinates from ORCA-job 2-NO2-C6H3-N2-B3LYPG-aug-cc-pVDZ-scan-d09-49-n400
 OpenBabel11091809053D

 14 14  0  0  0  0  0  0  0  0999 V2000
   -1.8871    0.1257   -1.0637 C   0  0  0  0  0  0  0  0  0  0  0  0
   -0.4601    0.0901   -1.0158 C   0  0  0  0  0  0  0  0  0  0  0  0
    0.0135    0.8930   -0.0300 C   0  0  0  0  0  0  0  0  0  0  0  0
   -0.6701    1.7077    0.8969 C   0  0  0  0  0  0  0  0  0  0  0  0
   -2.0534    1.6990    0.7993 C   0  0  0  0  0  0  0  0  0  0  0  0
   -2.6564    0.8985   -0.1919 C   0  0  0  0  0  0  0  0  0  0  0  0
   -2.4097   -0.4759   -1.8130 H   0  0  0  0  0  0  0  0  0  0  0  0
    1.5532    0.8716    0.0420 N   0  0  0  0  0  0  0  0  0  0  0  0
    2.6268    0.6589   -0.1434 N   0  0  0  0  0  0  0  0  0  0  0  0
   -3.7457    0.8936   -0.2664 H   0  0  0  0  0  0  0  0  0  0  0  0
   -2.6383    2.3064    1.4856 H   0  0  0  0  0  0  0  0  0  0  0  0
   -0.0098    2.5256    1.9125 N   0  0  0  0  0  0  0  0  0  0  0  0
    1.2255    2.4863    1.9419 O   0  0  0  0  0  0  0  0  0  0  0  0
   -0.6995    3.1979    2.6684 O   0  0  0  0  0  0  0  0  0  0  0  0
  1  2  2  0  0  0  0
  1  6  1  0  0  0  0
  2  3  1  0  0  0  0
  3  8  1  0  0  0  0
  3  4  2  0  0  0  0
  4 12  1  0  0  0  0
  5  4  1  0  0  0  0
  5 11  1  0  0  0  0
  6  5  2  0  0  0  0
  7  1  1  0  0  0  0
  9  8  1  0  0  0  0
 10  6  1  0  0  0  0
 12 13  2  0  0  0  0
 12 14  2  0  0  0  0
M  RAD  3   2   2   8   2   9   3
M  END
