Coordinates from ORCA-job 2-NO2-C6H3-N2-B3LYPG-aug-cc-pVDZ-scan-d09-49-n400
 OpenBabel11091809053D

 14 13  0  0  0  0  0  0  0  0999 V2000
   -2.2632   -0.0398   -0.9548 C   0  0  0  0  0  0  0  0  0  0  0  0
   -0.9564   -0.1497   -0.5273 C   0  0  0  0  0  0  0  0  0  0  0  0
   -0.2968    0.4911    0.3241 C   0  0  0  0  0  0  0  0  0  0  0  0
   -0.8789    1.5335    1.0243 C   0  0  0  0  0  0  0  0  0  0  0  0
   -2.2286    1.7890    0.7085 C   0  0  0  0  0  0  0  0  0  0  0  0
   -2.8984    1.0196   -0.2575 C   0  0  0  0  0  0  0  0  0  0  0  0
   -2.7715   -0.6413   -1.7046 H   0  0  0  0  0  0  0  0  0  0  0  0
    3.1370    1.5460   -0.6309 N   0  0  0  0  0  0  0  0  0  0  0  0
    3.9869    0.8857   -0.3828 N   0  0  0  0  0  0  0  0  0  0  0  0
   -3.9429    1.2400   -0.4836 H   0  0  0  0  0  0  0  0  0  0  0  0
   -2.7439    2.5951    1.2280 H   0  0  0  0  0  0  0  0  0  0  0  0
   -0.1658    2.3326    2.0355 N   0  0  0  0  0  0  0  0  0  0  0  0
    1.0098    2.0557    2.2403 O   0  0  0  0  0  0  0  0  0  0  0  0
   -0.7984    3.2211    2.6032 O   0  0  0  0  0  0  0  0  0  0  0  0
  1  2  2  0  0  0  0
  1  6  1  0  0  0  0
  2  3  1  0  0  0  0
  3  4  2  0  0  0  0
  4 12  1  0  0  0  0
  5  4  1  0  0  0  0
  5 11  1  0  0  0  0
  6  5  2  0  0  0  0
  7  1  1  0  0  0  0
  8  9  3  0  0  0  0
 10  6  1  0  0  0  0
 12 13  2  0  0  0  0
 12 14  2  0  0  0  0
M  RAD  2   2   2   3   2
M  END
