Coordinates from ORCA-job 2-NO2-C6H3-N2-B3LYPG-aug-cc-pVDZ-scan-d09-49-n400
 OpenBabel11091809053D

 14 13  0  0  0  0  0  0  0  0999 V2000
   -2.5171   -0.0921   -0.8905 C   0  0  0  0  0  0  0  0  0  0  0  0
   -1.2165   -0.2890   -0.4786 C   0  0  0  0  0  0  0  0  0  0  0  0
   -0.4818    0.3331    0.3239 C   0  0  0  0  0  0  0  0  0  0  0  0
   -0.9646    1.4504    0.9836 C   0  0  0  0  0  0  0  0  0  0  0  0
   -2.2953    1.8032    0.6811 C   0  0  0  0  0  0  0  0  0  0  0  0
   -3.0475    1.0484   -0.2342 C   0  0  0  0  0  0  0  0  0  0  0  0
   -3.0892   -0.6848   -1.6001 H   0  0  0  0  0  0  0  0  0  0  0  0
    3.8926    1.8714   -0.6071 N   0  0  0  0  0  0  0  0  0  0  0  0
    4.6119    1.1173   -0.2420 N   0  0  0  0  0  0  0  0  0  0  0  0
   -4.0752    1.3436   -0.4515 H   0  0  0  0  0  0  0  0  0  0  0  0
   -2.7305    2.6728    1.1704 H   0  0  0  0  0  0  0  0  0  0  0  0
   -0.1676    2.2346    1.9440 N   0  0  0  0  0  0  0  0  0  0  0  0
    0.9895    1.8807    2.1346 O   0  0  0  0  0  0  0  0  0  0  0  0
   -0.7198    3.1888    2.4888 O   0  0  0  0  0  0  0  0  0  0  0  0
  1  2  2  0  0  0  0
  1  6  1  0  0  0  0
  2  3  1  0  0  0  0
  3  4  2  0  0  0  0
  4 12  1  0  0  0  0
  5  4  1  0  0  0  0
  5 11  1  0  0  0  0
  6  5  2  0  0  0  0
  7  1  1  0  0  0  0
  8  9  3  0  0  0  0
 10  6  1  0  0  0  0
 12 13  2  0  0  0  0
 12 14  2  0  0  0  0
M  RAD  2   2   2   3   2
M  END
