Coordinates from ORCA-job 2-NO2-C6H3-N2-B3LYPG-aug-cc-pVDZ-scan-d09-49-n400
 OpenBabel11091809053D

 14 14  0  0  0  0  0  0  0  0999 V2000
   -1.8678    0.2193   -1.1370 C   0  0  0  0  0  0  0  0  0  0  0  0
   -0.4546    0.0968   -1.0867 C   0  0  0  0  0  0  0  0  0  0  0  0
    0.1397    0.8789   -0.0255 C   0  0  0  0  0  0  0  0  0  0  0  0
   -0.6325    1.6883    0.8902 C   0  0  0  0  0  0  0  0  0  0  0  0
   -2.0044    1.6185    0.8534 C   0  0  0  0  0  0  0  0  0  0  0  0
   -2.6270    0.8387   -0.1479 C   0  0  0  0  0  0  0  0  0  0  0  0
   -2.3911   -0.2480   -1.9759 H   0  0  0  0  0  0  0  0  0  0  0  0
    1.3347    0.7268    0.0964 N   0  0  0  0  0  0  0  0  0  0  0  0
    2.4398    0.5224    0.1432 N   0  0  0  0  0  0  0  0  0  0  0  0
   -3.7169    0.7703   -0.1552 H   0  0  0  0  0  0  0  0  0  0  0  0
   -2.5842    2.2032    1.5635 H   0  0  0  0  0  0  0  0  0  0  0  0
    0.0108    2.6181    1.8267 N   0  0  0  0  0  0  0  0  0  0  0  0
    1.2185    2.8164    1.6726 O   0  0  0  0  0  0  0  0  0  0  0  0
   -0.6761    3.1287    2.7047 O   0  0  0  0  0  0  0  0  0  0  0  0
  1  2  2  0  0  0  0
  1  6  1  0  0  0  0
  2  3  1  0  0  0  0
  3  8  1  0  0  0  0
  3  4  2  0  0  0  0
  4 12  1  0  0  0  0
  5  4  1  0  0  0  0
  5 11  1  0  0  0  0
  6  5  2  0  0  0  0
  7  1  1  0  0  0  0
  8  9  1  0  0  0  0
 10  6  1  0  0  0  0
 12 14  2  0  0  0  0
 13 12  2  0  0  0  0
M  RAD  3   2   2   8   2   9   3
M  END
