Coordinates from ORCA-job 2-NO2-C6H3-N2-B3LYPG-aug-cc-pVDZ-scan-d09-49-n400
 OpenBabel11091809053D

 14 13  0  0  0  0  0  0  0  0999 V2000
   -2.0894    0.0109   -1.0167 C   0  0  0  0  0  0  0  0  0  0  0  0
   -0.7553    0.0159   -0.6635 C   0  0  0  0  0  0  0  0  0  0  0  0
   -0.1245    0.6771    0.1940 C   0  0  0  0  0  0  0  0  0  0  0  0
   -0.7703    1.6155    0.9801 C   0  0  0  0  0  0  0  0  0  0  0  0
   -2.1522    1.7512    0.7360 C   0  0  0  0  0  0  0  0  0  0  0  0
   -2.7904    0.9673   -0.2391 C   0  0  0  0  0  0  0  0  0  0  0  0
   -2.5749   -0.6063   -1.7691 H   0  0  0  0  0  0  0  0  0  0  0  0
    2.4747    1.3476   -0.4678 N   0  0  0  0  0  0  0  0  0  0  0  0
    3.3426    0.6830   -0.3074 N   0  0  0  0  0  0  0  0  0  0  0  0
   -3.8614    1.0927   -0.4063 H   0  0  0  0  0  0  0  0  0  0  0  0
   -2.7178    2.4727    1.3231 H   0  0  0  0  0  0  0  0  0  0  0  0
   -0.1011    2.4138    2.0205 N   0  0  0  0  0  0  0  0  0  0  0  0
    1.0829    2.1781    2.2315 O   0  0  0  0  0  0  0  0  0  0  0  0
   -0.7741    3.2589    2.6073 O   0  0  0  0  0  0  0  0  0  0  0  0
  1  2  2  0  0  0  0
  1  6  1  0  0  0  0
  2  3  1  0  0  0  0
  3  4  2  0  0  0  0
  4 12  1  0  0  0  0
  5  4  1  0  0  0  0
  5 11  1  0  0  0  0
  6  5  2  0  0  0  0
  7  1  1  0  0  0  0
  8  9  3  0  0  0  0
 10  6  1  0  0  0  0
 12 13  2  0  0  0  0
 12 14  2  0  0  0  0
M  RAD  2   2   2   3   2
M  END
