Coordinates from ORCA-job 2-NO2-C6H3-N2-B3LYPG-aug-cc-pVDZ-scan-d09-49-n400
 OpenBabel11091809053D

 14 13  0  0  0  0  0  0  0  0999 V2000
   -2.0269    0.0493   -1.0579 C   0  0  0  0  0  0  0  0  0  0  0  0
   -0.6664    0.1448   -0.8200 C   0  0  0  0  0  0  0  0  0  0  0  0
   -0.0551    0.8235    0.0411 C   0  0  0  0  0  0  0  0  0  0  0  0
   -0.7078    1.6767    0.9135 C   0  0  0  0  0  0  0  0  0  0  0  0
   -2.1084    1.7136    0.7589 C   0  0  0  0  0  0  0  0  0  0  0  0
   -2.7484    0.9189   -0.2057 C   0  0  0  0  0  0  0  0  0  0  0  0
   -2.5172   -0.5827   -1.7958 H   0  0  0  0  0  0  0  0  0  0  0  0
    2.1749    1.2551   -0.2767 N   0  0  0  0  0  0  0  0  0  0  0  0
    3.0283    0.5573   -0.1828 N   0  0  0  0  0  0  0  0  0  0  0  0
   -3.8342    0.9701   -0.3004 H   0  0  0  0  0  0  0  0  0  0  0  0
   -2.6861    2.3619    1.4155 H   0  0  0  0  0  0  0  0  0  0  0  0
   -0.0546    2.4630    1.9721 N   0  0  0  0  0  0  0  0  0  0  0  0
    1.1246    2.2202    2.2076 O   0  0  0  0  0  0  0  0  0  0  0  0
   -0.7336    3.3067    2.5528 O   0  0  0  0  0  0  0  0  0  0  0  0
  1  2  2  0  0  0  0
  1  6  1  0  0  0  0
  2  3  1  0  0  0  0
  3  4  2  0  0  0  0
  4 12  1  0  0  0  0
  5  4  1  0  0  0  0
  5 11  1  0  0  0  0
  6  5  2  0  0  0  0
  7  1  1  0  0  0  0
  8  9  3  0  0  0  0
 10  6  1  0  0  0  0
 12 13  2  0  0  0  0
 12 14  2  0  0  0  0
M  RAD  2   2   2   3   2
M  END
