Coordinates from ORCA-job 2-NO2-C6H3-N2-B3LYPG-aug-cc-pVDZ-scan-d09-49-n400
 OpenBabel11091809053D

 14 13  0  0  0  0  0  0  0  0999 V2000
   -2.2271   -0.0305   -0.9657 C   0  0  0  0  0  0  0  0  0  0  0  0
   -0.9167   -0.1221   -0.5448 C   0  0  0  0  0  0  0  0  0  0  0  0
   -0.2650    0.5219    0.3102 C   0  0  0  0  0  0  0  0  0  0  0  0
   -0.8616    1.5479    1.0224 C   0  0  0  0  0  0  0  0  0  0  0  0
   -2.2166    1.7837    0.7138 C   0  0  0  0  0  0  0  0  0  0  0  0
   -2.8772    1.0119   -0.2565 C   0  0  0  0  0  0  0  0  0  0  0  0
   -2.7284   -0.6338   -1.7187 H   0  0  0  0  0  0  0  0  0  0  0  0
    3.0159    1.5008   -0.6148 N   0  0  0  0  0  0  0  0  0  0  0  0
    3.8754    0.8466   -0.3843 N   0  0  0  0  0  0  0  0  0  0  0  0
   -3.9261    1.2167   -0.4766 H   0  0  0  0  0  0  0  0  0  0  0  0
   -2.7433    2.5762    1.2427 H   0  0  0  0  0  0  0  0  0  0  0  0
   -0.1586    2.3487    2.0392 N   0  0  0  0  0  0  0  0  0  0  0  0
    1.0203    2.0849    2.2426 O   0  0  0  0  0  0  0  0  0  0  0  0
   -0.8022    3.2254    2.6129 O   0  0  0  0  0  0  0  0  0  0  0  0
  1  2  2  0  0  0  0
  1  6  1  0  0  0  0
  2  3  1  0  0  0  0
  3  4  2  0  0  0  0
  4 12  1  0  0  0  0
  5  4  1  0  0  0  0
  5 11  1  0  0  0  0
  6  5  2  0  0  0  0
  7  1  1  0  0  0  0
  8  9  3  0  0  0  0
 10  6  1  0  0  0  0
 12 13  2  0  0  0  0
 12 14  2  0  0  0  0
M  RAD  2   2   2   3   2
M  END
