Coordinates from ORCA-job 2-NO2-C6H3-N2-B3LYPG-aug-cc-pVDZ-scan-d09-49-n400
 OpenBabel11091809053D

 14 13  0  0  0  0  0  0  0  0999 V2000
   -2.1096    0.0045   -1.0087 C   0  0  0  0  0  0  0  0  0  0  0  0
   -0.7799   -0.0081   -0.6403 C   0  0  0  0  0  0  0  0  0  0  0  0
   -0.1462    0.6498    0.2176 C   0  0  0  0  0  0  0  0  0  0  0  0
   -0.7860    1.6035    0.9900 C   0  0  0  0  0  0  0  0  0  0  0  0
   -2.1636    1.7569    0.7330 C   0  0  0  0  0  0  0  0  0  0  0  0
   -2.8039    0.9754   -0.2428 C   0  0  0  0  0  0  0  0  0  0  0  0
   -2.5963   -0.6095   -1.7628 H   0  0  0  0  0  0  0  0  0  0  0  0
    2.5624    1.3704   -0.5070 N   0  0  0  0  0  0  0  0  0  0  0  0
    3.4264    0.7090   -0.3159 N   0  0  0  0  0  0  0  0  0  0  0  0
   -3.8715    1.1145   -0.4206 H   0  0  0  0  0  0  0  0  0  0  0  0
   -2.7241    2.4910    1.3092 H   0  0  0  0  0  0  0  0  0  0  0  0
   -0.1113    2.4035    2.0258 N   0  0  0  0  0  0  0  0  0  0  0  0
    1.0730    2.1661    2.2324 O   0  0  0  0  0  0  0  0  0  0  0  0
   -0.7806    3.2515    2.6126 O   0  0  0  0  0  0  0  0  0  0  0  0
  1  2  2  0  0  0  0
  1  6  1  0  0  0  0
  2  3  1  0  0  0  0
  3  4  2  0  0  0  0
  4 12  1  0  0  0  0
  5  4  1  0  0  0  0
  5 11  1  0  0  0  0
  6  5  2  0  0  0  0
  7  1  1  0  0  0  0
  8  9  3  0  0  0  0
 10  6  1  0  0  0  0
 12 13  2  0  0  0  0
 12 14  2  0  0  0  0
M  RAD  2   2   2   3   2
M  END
