Coordinates from ORCA-job 2-NO2-C6H3-N2-B3LYPG-aug-cc-pVDZ-scan-d09-49-n400
 OpenBabel11091809053D

 14 13  0  0  0  0  0  0  0  0999 V2000
   -2.2847   -0.0452   -0.9484 C   0  0  0  0  0  0  0  0  0  0  0  0
   -0.9798   -0.1654   -0.5178 C   0  0  0  0  0  0  0  0  0  0  0  0
   -0.3155    0.4735    0.3312 C   0  0  0  0  0  0  0  0  0  0  0  0
   -0.8888    1.5252    1.0249 C   0  0  0  0  0  0  0  0  0  0  0  0
   -2.2355    1.7919    0.7053 C   0  0  0  0  0  0  0  0  0  0  0  0
   -2.9110    1.0238   -0.2578 C   0  0  0  0  0  0  0  0  0  0  0  0
   -2.7974   -0.6456   -1.6960 H   0  0  0  0  0  0  0  0  0  0  0  0
    3.2086    1.5735   -0.6396 N   0  0  0  0  0  0  0  0  0  0  0  0
    4.0512    0.9082   -0.3804 N   0  0  0  0  0  0  0  0  0  0  0  0
   -3.9529    1.2530   -0.4869 H   0  0  0  0  0  0  0  0  0  0  0  0
   -2.7440    2.6055    1.2198 H   0  0  0  0  0  0  0  0  0  0  0  0
   -0.1697    2.3231    2.0327 N   0  0  0  0  0  0  0  0  0  0  0  0
    1.0038    2.0381    2.2388 O   0  0  0  0  0  0  0  0  0  0  0  0
   -0.7955    3.2188    2.5965 O   0  0  0  0  0  0  0  0  0  0  0  0
  1  2  2  0  0  0  0
  1  6  1  0  0  0  0
  2  3  1  0  0  0  0
  3  4  2  0  0  0  0
  4 12  1  0  0  0  0
  5  4  1  0  0  0  0
  5 11  1  0  0  0  0
  6  5  2  0  0  0  0
  7  1  1  0  0  0  0
  8  9  3  0  0  0  0
 10  6  1  0  0  0  0
 12 13  2  0  0  0  0
 12 14  2  0  0  0  0
M  RAD  2   2   2   3   2
M  END
