Coordinates from ORCA-job 2-NO2-C6H3-N2-B3LYPG-aug-cc-pVDZ-scan-d09-49-n400
 OpenBabel11091809053D

 14 13  0  0  0  0  0  0  0  0999 V2000
   -2.0447    0.0247   -1.0332 C   0  0  0  0  0  0  0  0  0  0  0  0
   -0.7024    0.0731   -0.7177 C   0  0  0  0  0  0  0  0  0  0  0  0
   -0.0694    0.7406    0.1349 C   0  0  0  0  0  0  0  0  0  0  0  0
   -0.7323    1.6420    0.9517 C   0  0  0  0  0  0  0  0  0  0  0  0
   -2.1225    1.7388    0.7406 C   0  0  0  0  0  0  0  0  0  0  0  0
   -2.7590    0.9494   -0.2307 C   0  0  0  0  0  0  0  0  0  0  0  0
   -2.5276   -0.6029   -1.7788 H   0  0  0  0  0  0  0  0  0  0  0  0
    2.2645    1.2973   -0.3796 N   0  0  0  0  0  0  0  0  0  0  0  0
    3.1396    0.6305   -0.2718 N   0  0  0  0  0  0  0  0  0  0  0  0
   -3.8365    1.0453   -0.3734 H   0  0  0  0  0  0  0  0  0  0  0  0
   -2.6960    2.4314    1.3540 H   0  0  0  0  0  0  0  0  0  0  0  0
   -0.0758    2.4345    2.0057 N   0  0  0  0  0  0  0  0  0  0  0  0
    1.1085    2.2044    2.2243 O   0  0  0  0  0  0  0  0  0  0  0  0
   -0.7575    3.2692    2.5967 O   0  0  0  0  0  0  0  0  0  0  0  0
  1  2  2  0  0  0  0
  1  6  1  0  0  0  0
  2  3  1  0  0  0  0
  3  4  2  0  0  0  0
  4 12  1  0  0  0  0
  5  4  1  0  0  0  0
  5 11  1  0  0  0  0
  6  5  2  0  0  0  0
  7  1  1  0  0  0  0
  8  9  3  0  0  0  0
 10  6  1  0  0  0  0
 12 13  2  0  0  0  0
 12 14  2  0  0  0  0
M  RAD  2   2   2   3   2
M  END
