Coordinates from ORCA-job 2-NO2-C6H3-N2-B3LYPG-aug-cc-pVDZ-scan-d09-49-n400
 OpenBabel11091809053D

 14 13  0  0  0  0  0  0  0  0999 V2000
   -2.2975   -0.0484   -0.9446 C   0  0  0  0  0  0  0  0  0  0  0  0
   -0.9938   -0.1745   -0.5123 C   0  0  0  0  0  0  0  0  0  0  0  0
   -0.3265    0.4633    0.3353 C   0  0  0  0  0  0  0  0  0  0  0  0
   -0.8947    1.5204    1.0252 C   0  0  0  0  0  0  0  0  0  0  0  0
   -2.2396    1.7935    0.7035 C   0  0  0  0  0  0  0  0  0  0  0  0
   -2.9184    1.0263   -0.2579 C   0  0  0  0  0  0  0  0  0  0  0  0
   -2.8128   -0.6482   -1.6909 H   0  0  0  0  0  0  0  0  0  0  0  0
    3.2517    1.5901   -0.6450 N   0  0  0  0  0  0  0  0  0  0  0  0
    4.0893    0.9212   -0.3788 N   0  0  0  0  0  0  0  0  0  0  0  0
   -3.9589    1.2605   -0.4887 H   0  0  0  0  0  0  0  0  0  0  0  0
   -2.7440    2.6116    1.2149 H   0  0  0  0  0  0  0  0  0  0  0  0
   -0.1720    2.3175    2.0311 N   0  0  0  0  0  0  0  0  0  0  0  0
    1.0000    2.0274    2.2382 O   0  0  0  0  0  0  0  0  0  0  0  0
   -0.7938    3.2177    2.5924 O   0  0  0  0  0  0  0  0  0  0  0  0
  1  2  2  0  0  0  0
  1  6  1  0  0  0  0
  2  3  1  0  0  0  0
  3  4  2  0  0  0  0
  4 12  1  0  0  0  0
  5  4  1  0  0  0  0
  5 11  1  0  0  0  0
  6  5  2  0  0  0  0
  7  1  1  0  0  0  0
  8  9  3  0  0  0  0
 10  6  1  0  0  0  0
 12 13  2  0  0  0  0
 12 14  2  0  0  0  0
M  RAD  2   2   2   3   2
M  END
