Coordinates from ORCA-job 2-NO2-C6H3-N2-B3LYPG-aug-cc-pVDZ-scan-d09-49-n400
 OpenBabel11091809053D

 14 14  0  0  0  0  0  0  0  0999 V2000
   -1.8535    0.2608   -1.1638 C   0  0  0  0  0  0  0  0  0  0  0  0
   -0.4606    0.0866   -1.1082 C   0  0  0  0  0  0  0  0  0  0  0  0
    0.2362    0.8550    0.0145 C   0  0  0  0  0  0  0  0  0  0  0  0
   -0.6143    1.6771    0.8840 C   0  0  0  0  0  0  0  0  0  0  0  0
   -1.9813    1.5906    0.8652 C   0  0  0  0  0  0  0  0  0  0  0  0
   -2.6126    0.8303   -0.1418 C   0  0  0  0  0  0  0  0  0  0  0  0
   -2.3693   -0.1737   -2.0248 H   0  0  0  0  0  0  0  0  0  0  0  0
    1.1970    0.7056    0.1379 N   0  0  0  0  0  0  0  0  0  0  0  0
    2.3231    0.4835    0.2371 N   0  0  0  0  0  0  0  0  0  0  0  0
   -3.7000    0.7339   -0.1302 H   0  0  0  0  0  0  0  0  0  0  0  0
   -2.5551    2.1628    1.5904 H   0  0  0  0  0  0  0  0  0  0  0  0
    0.0253    2.6426    1.7904 N   0  0  0  0  0  0  0  0  0  0  0  0
    1.1859    2.9608    1.5338 O   0  0  0  0  0  0  0  0  0  0  0  0
   -0.6318    3.0625    2.7380 O   0  0  0  0  0  0  0  0  0  0  0  0
  1  2  2  0  0  0  0
  1  6  1  0  0  0  0
  2  3  1  0  0  0  0
  3  8  1  0  0  0  0
  3  4  2  0  0  0  0
  4 12  1  0  0  0  0
  5  4  1  0  0  0  0
  5 11  1  0  0  0  0
  6 10  1  0  0  0  0
  6  5  2  0  0  0  0
  7  1  1  0  0  0  0
  8  9  1  0  0  0  0
 12 14  2  0  0  0  0
 13 12  2  0  0  0  0
M  RAD  3   2   2   8   2   9   3
M  END
