Coordinates from ORCA-job 2-NO2-C6H3-N2-B3LYPG-aug-cc-pVDZ-scan-d09-49-n400
 OpenBabel11091809053D

 14 13  0  0  0  0  0  0  0  0999 V2000
   -2.1430   -0.0063   -0.9954 C   0  0  0  0  0  0  0  0  0  0  0  0
   -0.8202   -0.0455   -0.6058 C   0  0  0  0  0  0  0  0  0  0  0  0
   -0.1823    0.6072    0.2529 C   0  0  0  0  0  0  0  0  0  0  0  0
   -0.8103    1.5854    1.0041 C   0  0  0  0  0  0  0  0  0  0  0  0
   -2.1808    1.7659    0.7274 C   0  0  0  0  0  0  0  0  0  0  0  0
   -2.8253    0.9880   -0.2486 C   0  0  0  0  0  0  0  0  0  0  0  0
   -2.6324   -0.6157   -1.7513 H   0  0  0  0  0  0  0  0  0  0  0  0
    2.7000    1.4039   -0.5470 N   0  0  0  0  0  0  0  0  0  0  0  0
    3.5674    0.7498   -0.3470 N   0  0  0  0  0  0  0  0  0  0  0  0
   -3.8870    1.1490   -0.4426 H   0  0  0  0  0  0  0  0  0  0  0  0
   -2.7323    2.5195    1.2870 H   0  0  0  0  0  0  0  0  0  0  0  0
   -0.1282    2.3878    2.0336 N   0  0  0  0  0  0  0  0  0  0  0  0
    1.0566    2.1497    2.2353 O   0  0  0  0  0  0  0  0  0  0  0  0
   -0.7935    3.2395    2.6199 O   0  0  0  0  0  0  0  0  0  0  0  0
  1  2  2  0  0  0  0
  1  6  1  0  0  0  0
  2  3  1  0  0  0  0
  3  4  2  0  0  0  0
  4 12  1  0  0  0  0
  5  4  1  0  0  0  0
  5 11  1  0  0  0  0
  6  5  2  0  0  0  0
  7  1  1  0  0  0  0
  8  9  3  0  0  0  0
 10  6  1  0  0  0  0
 12 13  2  0  0  0  0
 12 14  2  0  0  0  0
M  RAD  2   2   2   3   2
M  END
