Coordinates from ORCA-job 2-NO2-C6H3-N2-B3LYPG-aug-cc-pVDZ-scan-d09-49-n400
 OpenBabel11091809053D

 14 13  0  0  0  0  0  0  0  0999 V2000
   -2.1551   -0.0100   -0.9907 C   0  0  0  0  0  0  0  0  0  0  0  0
   -0.8345   -0.0580   -0.5948 C   0  0  0  0  0  0  0  0  0  0  0  0
   -0.1950    0.5933    0.2638 C   0  0  0  0  0  0  0  0  0  0  0  0
   -0.8188    1.5795    1.0082 C   0  0  0  0  0  0  0  0  0  0  0  0
   -2.1867    1.7690    0.7253 C   0  0  0  0  0  0  0  0  0  0  0  0
   -2.8331    0.9921   -0.2504 C   0  0  0  0  0  0  0  0  0  0  0  0
   -2.6459   -0.6183   -1.7467 H   0  0  0  0  0  0  0  0  0  0  0  0
    2.7487    1.4170   -0.5594 N   0  0  0  0  0  0  0  0  0  0  0  0
    3.6165    0.7645   -0.3565 N   0  0  0  0  0  0  0  0  0  0  0  0
   -3.8927    1.1603   -0.4494 H   0  0  0  0  0  0  0  0  0  0  0  0
   -2.7348    2.5291    1.2795 H   0  0  0  0  0  0  0  0  0  0  0  0
   -0.1338    2.3820    2.0357 N   0  0  0  0  0  0  0  0  0  0  0  0
    1.0505    2.1412    2.2370 O   0  0  0  0  0  0  0  0  0  0  0  0
   -0.7964    3.2367    2.6208 O   0  0  0  0  0  0  0  0  0  0  0  0
  1  2  2  0  0  0  0
  1  6  1  0  0  0  0
  2  3  1  0  0  0  0
  3  4  2  0  0  0  0
  4 12  1  0  0  0  0
  5  4  1  0  0  0  0
  5 11  1  0  0  0  0
  6  5  2  0  0  0  0
  7  1  1  0  0  0  0
  8  9  3  0  0  0  0
 10  6  1  0  0  0  0
 12 13  2  0  0  0  0
 12 14  2  0  0  0  0
M  RAD  2   2   2   3   2
M  END
