Coordinates from ORCA-job 2-NO2-C6H3-N2-B3LYPG-aug-cc-pVDZ-scan-d09-49-n400
 OpenBabel11091809053D

 14 13  0  0  0  0  0  0  0  0999 V2000
   -2.0846    0.0125   -1.0185 C   0  0  0  0  0  0  0  0  0  0  0  0
   -0.7497    0.0217   -0.6686 C   0  0  0  0  0  0  0  0  0  0  0  0
   -0.1192    0.6836    0.1886 C   0  0  0  0  0  0  0  0  0  0  0  0
   -0.7668    1.6183    0.9778 C   0  0  0  0  0  0  0  0  0  0  0  0
   -2.1496    1.7499    0.7367 C   0  0  0  0  0  0  0  0  0  0  0  0
   -2.7873    0.9654   -0.2383 C   0  0  0  0  0  0  0  0  0  0  0  0
   -2.5696   -0.6056   -1.7705 H   0  0  0  0  0  0  0  0  0  0  0  0
    2.4546    1.3420   -0.4596 N   0  0  0  0  0  0  0  0  0  0  0  0
    3.3233    0.6768   -0.3058 N   0  0  0  0  0  0  0  0  0  0  0  0
   -3.8590    1.0876   -0.4031 H   0  0  0  0  0  0  0  0  0  0  0  0
   -2.7164    2.4684    1.3264 H   0  0  0  0  0  0  0  0  0  0  0  0
   -0.0989    2.4163    2.0195 N   0  0  0  0  0  0  0  0  0  0  0  0
    1.0848    2.1805    2.2319 O   0  0  0  0  0  0  0  0  0  0  0  0
   -0.7727    3.2609    2.6059 O   0  0  0  0  0  0  0  0  0  0  0  0
  1  2  2  0  0  0  0
  1  6  1  0  0  0  0
  2  3  1  0  0  0  0
  3  4  2  0  0  0  0
  4 12  1  0  0  0  0
  5  4  1  0  0  0  0
  5 11  1  0  0  0  0
  6  5  2  0  0  0  0
  7  1  1  0  0  0  0
  8  9  3  0  0  0  0
 10  6  1  0  0  0  0
 12 13  2  0  0  0  0
 12 14  2  0  0  0  0
M  RAD  2   2   2   3   2
M  END
