Coordinates from ORCA-job 2-NO2-C6H3-N2-B3LYPG-aug-cc-pVDZ-scan-d09-49-n400
 OpenBabel11091809053D

 14 14  0  0  0  0  0  0  0  0999 V2000
   -1.8677    0.2267   -1.1417 C   0  0  0  0  0  0  0  0  0  0  0  0
   -0.4569    0.0985   -1.0887 C   0  0  0  0  0  0  0  0  0  0  0  0
    0.1452    0.8757   -0.0228 C   0  0  0  0  0  0  0  0  0  0  0  0
   -0.6317    1.6859    0.8901 C   0  0  0  0  0  0  0  0  0  0  0  0
   -2.0032    1.6128    0.8567 C   0  0  0  0  0  0  0  0  0  0  0  0
   -2.6269    0.8353   -0.1453 C   0  0  0  0  0  0  0  0  0  0  0  0
   -2.3898   -0.2315   -1.9864 H   0  0  0  0  0  0  0  0  0  0  0  0
    1.3291    0.7203    0.1035 N   0  0  0  0  0  0  0  0  0  0  0  0
    2.4346    0.5145    0.1594 N   0  0  0  0  0  0  0  0  0  0  0  0
   -3.7165    0.7619   -0.1490 H   0  0  0  0  0  0  0  0  0  0  0  0
   -2.5823    2.1958    1.5687 H   0  0  0  0  0  0  0  0  0  0  0  0
    0.0118    2.6226    1.8199 N   0  0  0  0  0  0  0  0  0  0  0  0
    1.2154    2.8337    1.6532 O   0  0  0  0  0  0  0  0  0  0  0  0
   -0.6721    3.1263    2.7047 O   0  0  0  0  0  0  0  0  0  0  0  0
  1  2  2  0  0  0  0
  1  6  1  0  0  0  0
  2  3  1  0  0  0  0
  3  8  1  0  0  0  0
  3  4  2  0  0  0  0
  4 12  1  0  0  0  0
  5  4  1  0  0  0  0
  5 11  1  0  0  0  0
  6  5  2  0  0  0  0
  7  1  1  0  0  0  0
  8  9  1  0  0  0  0
 10  6  1  0  0  0  0
 12 14  2  0  0  0  0
 13 12  2  0  0  0  0
M  RAD  3   2   2   8   2   9   3
M  END
