Coordinates from ORCA-job 2-NO2-C6H3-N2-B3LYPG-aug-cc-pVDZ-scan-d09-49-n400
 OpenBabel11091809053D

 14 14  0  0  0  0  0  0  0  0999 V2000
   -1.8820    0.1269   -1.0638 C   0  0  0  0  0  0  0  0  0  0  0  0
   -0.4530    0.0788   -1.0301 C   0  0  0  0  0  0  0  0  0  0  0  0
    0.0406    0.8924   -0.0295 C   0  0  0  0  0  0  0  0  0  0  0  0
   -0.6646    1.7061    0.8954 C   0  0  0  0  0  0  0  0  0  0  0  0
   -2.0434    1.6984    0.8009 C   0  0  0  0  0  0  0  0  0  0  0  0
   -2.6487    0.8972   -0.1916 C   0  0  0  0  0  0  0  0  0  0  0  0
   -2.4085   -0.4717   -1.8128 H   0  0  0  0  0  0  0  0  0  0  0  0
    1.5006    0.8558    0.0227 N   0  0  0  0  0  0  0  0  0  0  0  0
    2.5898    0.6802   -0.1138 N   0  0  0  0  0  0  0  0  0  0  0  0
   -3.7384    0.8934   -0.2633 H   0  0  0  0  0  0  0  0  0  0  0  0
   -2.6279    2.3057    1.4876 H   0  0  0  0  0  0  0  0  0  0  0  0
   -0.0063    2.5273    1.9123 N   0  0  0  0  0  0  0  0  0  0  0  0
    1.2287    2.4918    1.9388 O   0  0  0  0  0  0  0  0  0  0  0  0
   -0.6979    3.1959    2.6696 O   0  0  0  0  0  0  0  0  0  0  0  0
  1  2  2  0  0  0  0
  1  6  1  0  0  0  0
  2  3  1  0  0  0  0
  3  8  1  0  0  0  0
  3  4  2  0  0  0  0
  4 12  1  0  0  0  0
  5  4  1  0  0  0  0
  5 11  1  0  0  0  0
  6  5  2  0  0  0  0
  7  1  1  0  0  0  0
  9  8  1  0  0  0  0
 10  6  1  0  0  0  0
 12 13  2  0  0  0  0
 12 14  2  0  0  0  0
M  RAD  3   2   2   8   2   9   3
M  END
