Coordinates from ORCA-job 2-NO2-C6H3-N2-B3LYPG-aug-cc-pVDZ-scan-d09-49-n400
 OpenBabel11091809053D

 14 14  0  0  0  0  0  0  0  0999 V2000
   -1.9116    0.1178   -1.0732 C   0  0  0  0  0  0  0  0  0  0  0  0
   -0.4994    0.1305   -0.9696 C   0  0  0  0  0  0  0  0  0  0  0  0
   -0.0276    0.8968   -0.0289 C   0  0  0  0  0  0  0  0  0  0  0  0
   -0.6689    1.7121    0.9000 C   0  0  0  0  0  0  0  0  0  0  0  0
   -2.0637    1.6944    0.7914 C   0  0  0  0  0  0  0  0  0  0  0  0
   -2.6740    0.8986   -0.1930 C   0  0  0  0  0  0  0  0  0  0  0  0
   -2.4211   -0.4886   -1.8260 H   0  0  0  0  0  0  0  0  0  0  0  0
    1.7111    0.8976    0.0808 N   0  0  0  0  0  0  0  0  0  0  0  0
    2.7169    0.5669   -0.2487 N   0  0  0  0  0  0  0  0  0  0  0  0
   -3.7632    0.8966   -0.2639 H   0  0  0  0  0  0  0  0  0  0  0  0
   -2.6486    2.3025    1.4776 H   0  0  0  0  0  0  0  0  0  0  0  0
   -0.0258    2.5394    1.9239 N   0  0  0  0  0  0  0  0  0  0  0  0
    1.2064    2.5160    1.9822 O   0  0  0  0  0  0  0  0  0  0  0  0
   -0.7415    3.1978    2.6696 O   0  0  0  0  0  0  0  0  0  0  0  0
  1  2  2  0  0  0  0
  1  6  1  0  0  0  0
  2  3  1  0  0  0  0
  3  8  1  0  0  0  0
  3  4  2  0  0  0  0
  4 12  1  0  0  0  0
  5  4  1  0  0  0  0
  5 11  1  0  0  0  0
  6  5  2  0  0  0  0
  7  1  1  0  0  0  0
  9  8  2  0  0  0  0
 10  6  1  0  0  0  0
 12 13  2  0  0  0  0
 12 14  2  0  0  0  0
M  RAD  2   2   2   9   2
M  END
