Coordinates from ORCA-job 2-NO2-C6H3-N2-B3LYPG-aug-cc-pVDZ-scan-d09-49-n400
 OpenBabel11091809053D

 14 13  0  0  0  0  0  0  0  0999 V2000
   -2.3206   -0.0540   -0.9377 C   0  0  0  0  0  0  0  0  0  0  0  0
   -1.0191   -0.1907   -0.5022 C   0  0  0  0  0  0  0  0  0  0  0  0
   -0.3467    0.4451    0.3429 C   0  0  0  0  0  0  0  0  0  0  0  0
   -0.9056    1.5116    1.0257 C   0  0  0  0  0  0  0  0  0  0  0  0
   -2.2471    1.7964    0.7003 C   0  0  0  0  0  0  0  0  0  0  0  0
   -2.9320    1.0306   -0.2580 C   0  0  0  0  0  0  0  0  0  0  0  0
   -2.8406   -0.6528   -1.6816 H   0  0  0  0  0  0  0  0  0  0  0  0
    3.3307    1.6205   -0.6555 N   0  0  0  0  0  0  0  0  0  0  0  0
    4.1580    0.9443   -0.3759 N   0  0  0  0  0  0  0  0  0  0  0  0
   -3.9696    1.2740   -0.4920 H   0  0  0  0  0  0  0  0  0  0  0  0
   -2.7441    2.6224    1.2062 H   0  0  0  0  0  0  0  0  0  0  0  0
   -0.1765    2.3073    2.0282 N   0  0  0  0  0  0  0  0  0  0  0  0
    0.9928    2.0080    2.2375 O   0  0  0  0  0  0  0  0  0  0  0  0
   -0.7906    3.2157    2.5846 O   0  0  0  0  0  0  0  0  0  0  0  0
  1  2  2  0  0  0  0
  1  6  1  0  0  0  0
  2  3  1  0  0  0  0
  3  4  2  0  0  0  0
  4 12  1  0  0  0  0
  5  4  1  0  0  0  0
  5 11  1  0  0  0  0
  6  5  2  0  0  0  0
  7  1  1  0  0  0  0
  8  9  3  0  0  0  0
 10  6  1  0  0  0  0
 12 13  2  0  0  0  0
 12 14  2  0  0  0  0
M  RAD  2   2   2   3   2
M  END
