Coordinates from ORCA-job 2-NO2-C6H3-N2-B3LYPG-aug-cc-pVDZ-scan-d09-49-n400
 OpenBabel11091809053D

 14 13  0  0  0  0  0  0  0  0999 V2000
   -2.0552    0.0220   -1.0311 C   0  0  0  0  0  0  0  0  0  0  0  0
   -0.7135    0.0624   -0.7113 C   0  0  0  0  0  0  0  0  0  0  0  0
   -0.0795    0.7285    0.1411 C   0  0  0  0  0  0  0  0  0  0  0  0
   -0.7376    1.6366    0.9539 C   0  0  0  0  0  0  0  0  0  0  0  0
   -2.1269    1.7405    0.7394 C   0  0  0  0  0  0  0  0  0  0  0  0
   -2.7655    0.9522   -0.2315 C   0  0  0  0  0  0  0  0  0  0  0  0
   -2.5400   -0.6037   -1.7770 H   0  0  0  0  0  0  0  0  0  0  0  0
    2.2990    1.3077   -0.3859 N   0  0  0  0  0  0  0  0  0  0  0  0
    3.1773    0.6466   -0.2719 N   0  0  0  0  0  0  0  0  0  0  0  0
   -3.8423    1.0534   -0.3764 H   0  0  0  0  0  0  0  0  0  0  0  0
   -2.6979    2.4383    1.3492 H   0  0  0  0  0  0  0  0  0  0  0  0
   -0.0778    2.4295    2.0053 N   0  0  0  0  0  0  0  0  0  0  0  0
    1.1056    2.1962    2.2242 O   0  0  0  0  0  0  0  0  0  0  0  0
   -0.7569    3.2682    2.5942 O   0  0  0  0  0  0  0  0  0  0  0  0
  1  2  2  0  0  0  0
  1  6  1  0  0  0  0
  2  3  1  0  0  0  0
  3  4  2  0  0  0  0
  4 12  1  0  0  0  0
  5  4  1  0  0  0  0
  5 11  1  0  0  0  0
  6  5  2  0  0  0  0
  7  1  1  0  0  0  0
  8  9  3  0  0  0  0
 10  6  1  0  0  0  0
 12 13  2  0  0  0  0
 12 14  2  0  0  0  0
M  RAD  2   2   2   3   2
M  END
