Coordinates from ORCA-job 2-NO2-C6H3-N2-B3LYPG-aug-cc-pVDZ-scan-d09-49-n400
 OpenBabel11091809053D

 14 14  0  0  0  0  0  0  0  0999 V2000
   -1.8538    0.2225   -1.1413 C   0  0  0  0  0  0  0  0  0  0  0  0
   -0.4625    0.0400   -1.1165 C   0  0  0  0  0  0  0  0  0  0  0  0
    0.2776    0.8648    0.0394 C   0  0  0  0  0  0  0  0  0  0  0  0
   -0.6126    1.6772    0.8809 C   0  0  0  0  0  0  0  0  0  0  0  0
   -1.9790    1.6203    0.8426 C   0  0  0  0  0  0  0  0  0  0  0  0
   -2.6119    0.8583   -0.1597 C   0  0  0  0  0  0  0  0  0  0  0  0
   -2.3745   -0.2600   -1.9744 H   0  0  0  0  0  0  0  0  0  0  0  0
    1.1659    0.7431    0.1183 N   0  0  0  0  0  0  0  0  0  0  0  0
    2.3149    0.5391    0.1713 N   0  0  0  0  0  0  0  0  0  0  0  0
   -3.7018    0.7985   -0.1713 H   0  0  0  0  0  0  0  0  0  0  0  0
   -2.5488    2.2055    1.5601 H   0  0  0  0  0  0  0  0  0  0  0  0
    0.0266    2.6167    1.8216 N   0  0  0  0  0  0  0  0  0  0  0  0
    1.1822    2.9505    1.5703 O   0  0  0  0  0  0  0  0  0  0  0  0
   -0.6335    3.0020    2.7811 O   0  0  0  0  0  0  0  0  0  0  0  0
  1  2  2  0  0  0  0
  1  6  1  0  0  0  0
  2  3  1  0  0  0  0
  3  8  1  0  0  0  0
  3  4  2  0  0  0  0
  4 12  1  0  0  0  0
  5  4  1  0  0  0  0
  5 11  1  0  0  0  0
  6  5  2  0  0  0  0
  7  1  1  0  0  0  0
  8  9  1  0  0  0  0
 10  6  1  0  0  0  0
 12 14  2  0  0  0  0
 13 12  2  0  0  0  0
M  RAD  3   2   2   8   2   9   3
M  END
