Coordinates from ORCA-job 2-NO2-C6H3-N2-B3LYPG-aug-cc-pVDZ-scan-d09-49-n400
 OpenBabel11091809053D

 14 13  0  0  0  0  0  0  0  0999 V2000
   -2.0570    0.0215   -1.0306 C   0  0  0  0  0  0  0  0  0  0  0  0
   -0.7156    0.0603   -0.7095 C   0  0  0  0  0  0  0  0  0  0  0  0
   -0.0813    0.7262    0.1429 C   0  0  0  0  0  0  0  0  0  0  0  0
   -0.7388    1.6355    0.9547 C   0  0  0  0  0  0  0  0  0  0  0  0
   -2.1278    1.7409    0.7392 C   0  0  0  0  0  0  0  0  0  0  0  0
   -2.7668    0.9528   -0.2317 C   0  0  0  0  0  0  0  0  0  0  0  0
   -2.5420   -0.6039   -1.7767 H   0  0  0  0  0  0  0  0  0  0  0  0
    2.3058    1.3094   -0.3880 N   0  0  0  0  0  0  0  0  0  0  0  0
    3.1848    0.6495   -0.2727 N   0  0  0  0  0  0  0  0  0  0  0  0
   -3.8433    1.0551   -0.3773 H   0  0  0  0  0  0  0  0  0  0  0  0
   -2.6985    2.4398    1.3482 H   0  0  0  0  0  0  0  0  0  0  0  0
   -0.0785    2.4286    2.0055 N   0  0  0  0  0  0  0  0  0  0  0  0
    1.1049    2.1947    2.2244 O   0  0  0  0  0  0  0  0  0  0  0  0
   -0.7570    3.2680    2.5940 O   0  0  0  0  0  0  0  0  0  0  0  0
  1  2  2  0  0  0  0
  1  6  1  0  0  0  0
  2  3  1  0  0  0  0
  3  4  2  0  0  0  0
  4 12  1  0  0  0  0
  5  4  1  0  0  0  0
  5 11  1  0  0  0  0
  6  5  2  0  0  0  0
  7  1  1  0  0  0  0
  8  9  3  0  0  0  0
 10  6  1  0  0  0  0
 12 13  2  0  0  0  0
 12 14  2  0  0  0  0
M  RAD  2   2   2   3   2
M  END
