Coordinates from ORCA-job 2-NO2-C6H3-N2-B3LYPG-aug-cc-pVDZ-scan-d09-49-n400
 OpenBabel11091809053D

 14 13  0  0  0  0  0  0  0  0999 V2000
   -2.1621   -0.0121   -0.9880 C   0  0  0  0  0  0  0  0  0  0  0  0
   -0.8428   -0.0650   -0.5887 C   0  0  0  0  0  0  0  0  0  0  0  0
   -0.2023    0.5855    0.2698 C   0  0  0  0  0  0  0  0  0  0  0  0
   -0.8235    1.5762    1.0103 C   0  0  0  0  0  0  0  0  0  0  0  0
   -2.1901    1.7708    0.7241 C   0  0  0  0  0  0  0  0  0  0  0  0
   -2.8375    0.9944   -0.2513 C   0  0  0  0  0  0  0  0  0  0  0  0
   -2.6537   -0.6198   -1.7440 H   0  0  0  0  0  0  0  0  0  0  0  0
    2.7765    1.4247   -0.5664 N   0  0  0  0  0  0  0  0  0  0  0  0
    3.6444    0.7728   -0.3615 N   0  0  0  0  0  0  0  0  0  0  0  0
   -3.8959    1.1666   -0.4530 H   0  0  0  0  0  0  0  0  0  0  0  0
   -2.7362    2.5344    1.2753 H   0  0  0  0  0  0  0  0  0  0  0  0
   -0.1369    2.3787    2.0368 N   0  0  0  0  0  0  0  0  0  0  0  0
    1.0470    2.1360    2.2381 O   0  0  0  0  0  0  0  0  0  0  0  0
   -0.7980    3.2353    2.6209 O   0  0  0  0  0  0  0  0  0  0  0  0
  1  2  2  0  0  0  0
  1  6  1  0  0  0  0
  2  3  1  0  0  0  0
  3  4  2  0  0  0  0
  4 12  1  0  0  0  0
  5  4  1  0  0  0  0
  5 11  1  0  0  0  0
  6  5  2  0  0  0  0
  7  1  1  0  0  0  0
  8  9  3  0  0  0  0
 10  6  1  0  0  0  0
 12 13  2  0  0  0  0
 12 14  2  0  0  0  0
M  RAD  2   2   2   3   2
M  END
