Coordinates from ORCA-job 2-NO2-C6H3-N2-B3LYPG-aug-cc-pVDZ-scan-d09-49-n400
 OpenBabel11091809053D

 14 14  0  0  0  0  0  0  0  0999 V2000
   -1.8831    0.1258   -1.0632 C   0  0  0  0  0  0  0  0  0  0  0  0
   -0.4546    0.0832   -1.0237 C   0  0  0  0  0  0  0  0  0  0  0  0
    0.0291    0.8927   -0.0295 C   0  0  0  0  0  0  0  0  0  0  0  0
   -0.6665    1.7072    0.8962 C   0  0  0  0  0  0  0  0  0  0  0  0
   -2.0473    1.6992    0.7999 C   0  0  0  0  0  0  0  0  0  0  0  0
   -2.6511    0.8980   -0.1920 C   0  0  0  0  0  0  0  0  0  0  0  0
   -2.4080   -0.4747   -1.8118 H   0  0  0  0  0  0  0  0  0  0  0  0
    1.5191    0.8634    0.0303 N   0  0  0  0  0  0  0  0  0  0  0  0
    2.6020    0.6726   -0.1281 N   0  0  0  0  0  0  0  0  0  0  0  0
   -3.7407    0.8938   -0.2655 H   0  0  0  0  0  0  0  0  0  0  0  0
   -2.6323    2.3067    1.4862 H   0  0  0  0  0  0  0  0  0  0  0  0
   -0.0075    2.5264    1.9126 N   0  0  0  0  0  0  0  0  0  0  0  0
    1.2277    2.4868    1.9420 O   0  0  0  0  0  0  0  0  0  0  0  0
   -0.6980    3.1972    2.6689 O   0  0  0  0  0  0  0  0  0  0  0  0
  1  2  2  0  0  0  0
  1  6  1  0  0  0  0
  2  3  1  0  0  0  0
  3  8  1  0  0  0  0
  3  4  2  0  0  0  0
  4 12  1  0  0  0  0
  5  4  1  0  0  0  0
  5 11  1  0  0  0  0
  6  5  2  0  0  0  0
  7  1  1  0  0  0  0
  9  8  1  0  0  0  0
 10  6  1  0  0  0  0
 12 13  2  0  0  0  0
 12 14  2  0  0  0  0
M  RAD  3   2   2   8   2   9   3
M  END
