Coordinates from ORCA-job 2-NO2-C6H3-N2-B3LYPG-aug-cc-pVDZ-scan-d09-49-n400
 OpenBabel11091809053D

 14 14  0  0  0  0  0  0  0  0999 V2000
   -1.8718    0.1916   -1.1170 C   0  0  0  0  0  0  0  0  0  0  0  0
   -0.4513    0.0902   -1.0740 C   0  0  0  0  0  0  0  0  0  0  0  0
    0.1105    0.8861   -0.0302 C   0  0  0  0  0  0  0  0  0  0  0  0
   -0.6419    1.6943    0.8917 C   0  0  0  0  0  0  0  0  0  0  0  0
   -2.0153    1.6418    0.8399 C   0  0  0  0  0  0  0  0  0  0  0  0
   -2.6330    0.8540   -0.1589 C   0  0  0  0  0  0  0  0  0  0  0  0
   -2.3973   -0.3111   -1.9339 H   0  0  0  0  0  0  0  0  0  0  0  0
    1.3806    0.7552    0.0715 N   0  0  0  0  0  0  0  0  0  0  0  0
    2.4835    0.5628    0.0769 N   0  0  0  0  0  0  0  0  0  0  0  0
   -3.7238    0.8055   -0.1834 H   0  0  0  0  0  0  0  0  0  0  0  0
   -2.5967    2.2342    1.5421 H   0  0  0  0  0  0  0  0  0  0  0  0
    0.0060    2.5954    1.8519 N   0  0  0  0  0  0  0  0  0  0  0  0
    1.2273    2.7364    1.7444 O   0  0  0  0  0  0  0  0  0  0  0  0
   -0.6878    3.1422    2.7013 O   0  0  0  0  0  0  0  0  0  0  0  0
  1  2  2  0  0  0  0
  1  6  1  0  0  0  0
  2  3  1  0  0  0  0
  3  8  1  0  0  0  0
  3  4  2  0  0  0  0
  4 12  1  0  0  0  0
  5  4  1  0  0  0  0
  5 11  1  0  0  0  0
  6  5  2  0  0  0  0
  7  1  1  0  0  0  0
  8  9  1  0  0  0  0
 10  6  1  0  0  0  0
 12 14  2  0  0  0  0
 13 12  2  0  0  0  0
M  RAD  3   2   2   8   2   9   3
M  END
