Coordinates from ORCA-job 2-NO2-C6H3-N2-B3LYPG-aug-cc-pVDZ-scan-d09-49-n400
 OpenBabel11091809053D

 14 13  0  0  0  0  0  0  0  0999 V2000
   -2.2932   -0.0473   -0.9459 C   0  0  0  0  0  0  0  0  0  0  0  0
   -0.9892   -0.1715   -0.5141 C   0  0  0  0  0  0  0  0  0  0  0  0
   -0.3229    0.4667    0.3340 C   0  0  0  0  0  0  0  0  0  0  0  0
   -0.8928    1.5220    1.0251 C   0  0  0  0  0  0  0  0  0  0  0  0
   -2.2383    1.7930    0.7041 C   0  0  0  0  0  0  0  0  0  0  0  0
   -2.9160    1.0255   -0.2578 C   0  0  0  0  0  0  0  0  0  0  0  0
   -2.8077   -0.6474   -1.6926 H   0  0  0  0  0  0  0  0  0  0  0  0
    3.2373    1.5846   -0.6432 N   0  0  0  0  0  0  0  0  0  0  0  0
    4.0766    0.9169   -0.3793 N   0  0  0  0  0  0  0  0  0  0  0  0
   -3.9569    1.2580   -0.4881 H   0  0  0  0  0  0  0  0  0  0  0  0
   -2.7440    2.6096    1.2165 H   0  0  0  0  0  0  0  0  0  0  0  0
   -0.1712    2.3193    2.0316 N   0  0  0  0  0  0  0  0  0  0  0  0
    1.0013    2.0310    2.2384 O   0  0  0  0  0  0  0  0  0  0  0  0
   -0.7943    3.2181    2.5938 O   0  0  0  0  0  0  0  0  0  0  0  0
  1  2  2  0  0  0  0
  1  6  1  0  0  0  0
  2  3  1  0  0  0  0
  3  4  2  0  0  0  0
  4 12  1  0  0  0  0
  5  4  1  0  0  0  0
  5 11  1  0  0  0  0
  6  5  2  0  0  0  0
  7  1  1  0  0  0  0
  8  9  3  0  0  0  0
 10  6  1  0  0  0  0
 12 13  2  0  0  0  0
 12 14  2  0  0  0  0
M  RAD  2   2   2   3   2
M  END
