Coordinates from ORCA-job 2-NO2-C6H3-N2-B3LYPG-aug-cc-pVDZ-scan-d09-49-n400
 OpenBabel11091809053D

 14 13  0  0  0  0  0  0  0  0999 V2000
   -2.0220    0.0517   -1.0599 C   0  0  0  0  0  0  0  0  0  0  0  0
   -0.6598    0.1519   -0.8304 C   0  0  0  0  0  0  0  0  0  0  0  0
   -0.0515    0.8320    0.0323 C   0  0  0  0  0  0  0  0  0  0  0  0
   -0.7036    1.6805    0.9097 C   0  0  0  0  0  0  0  0  0  0  0  0
   -2.1049    1.7113    0.7602 C   0  0  0  0  0  0  0  0  0  0  0  0
   -2.7447    0.9159   -0.2038 C   0  0  0  0  0  0  0  0  0  0  0  0
   -2.5128   -0.5814   -1.7968 H   0  0  0  0  0  0  0  0  0  0  0  0
    2.1527    1.2504   -0.2667 N   0  0  0  0  0  0  0  0  0  0  0  0
    3.0045    0.5501   -0.1748 N   0  0  0  0  0  0  0  0  0  0  0  0
   -3.8311    0.9628   -0.2945 H   0  0  0  0  0  0  0  0  0  0  0  0
   -2.6830    2.3551    1.4210 H   0  0  0  0  0  0  0  0  0  0  0  0
   -0.0516    2.4659    1.9695 N   0  0  0  0  0  0  0  0  0  0  0  0
    1.1271    2.2221    2.2072 O   0  0  0  0  0  0  0  0  0  0  0  0
   -0.7307    3.3101    2.5493 O   0  0  0  0  0  0  0  0  0  0  0  0
  1  2  2  0  0  0  0
  1  6  1  0  0  0  0
  2  3  1  0  0  0  0
  3  4  2  0  0  0  0
  4 12  1  0  0  0  0
  5  4  1  0  0  0  0
  5 11  1  0  0  0  0
  6  5  2  0  0  0  0
  7  1  1  0  0  0  0
  8  9  3  0  0  0  0
 10  6  1  0  0  0  0
 12 13  2  0  0  0  0
 12 14  2  0  0  0  0
M  RAD  2   2   2   3   2
M  END
