Coordinates from ORCA-job 2-NO2-C6H3-N2-B3LYPG-aug-cc-pVDZ-scan-d09-49-n400
 OpenBabel11091809053D

 14 14  0  0  0  0  0  0  0  0999 V2000
   -1.8580    0.2600   -1.1632 C   0  0  0  0  0  0  0  0  0  0  0  0
   -0.4600    0.1008   -1.1027 C   0  0  0  0  0  0  0  0  0  0  0  0
    0.2016    0.8593   -0.0024 C   0  0  0  0  0  0  0  0  0  0  0  0
   -0.6180    1.6786    0.8869 C   0  0  0  0  0  0  0  0  0  0  0  0
   -1.9866    1.5886    0.8684 C   0  0  0  0  0  0  0  0  0  0  0  0
   -2.6160    0.8239   -0.1376 C   0  0  0  0  0  0  0  0  0  0  0  0
   -2.3752   -0.1672   -2.0268 H   0  0  0  0  0  0  0  0  0  0  0  0
    1.2410    0.6989    0.1331 N   0  0  0  0  0  0  0  0  0  0  0  0
    2.3554    0.4777    0.2312 N   0  0  0  0  0  0  0  0  0  0  0  0
   -3.7034    0.7260   -0.1243 H   0  0  0  0  0  0  0  0  0  0  0  0
   -2.5628    2.1611    1.5915 H   0  0  0  0  0  0  0  0  0  0  0  0
    0.0209    2.6441    1.7915 N   0  0  0  0  0  0  0  0  0  0  0  0
    1.1963    2.9304    1.5602 O   0  0  0  0  0  0  0  0  0  0  0  0
   -0.6464    3.0962    2.7168 O   0  0  0  0  0  0  0  0  0  0  0  0
  1  2  2  0  0  0  0
  1  6  1  0  0  0  0
  2  3  1  0  0  0  0
  3  8  1  0  0  0  0
  3  4  2  0  0  0  0
  4 12  1  0  0  0  0
  5  4  1  0  0  0  0
  5 11  1  0  0  0  0
  6 10  1  0  0  0  0
  6  5  2  0  0  0  0
  7  1  1  0  0  0  0
  8  9  1  0  0  0  0
 12 14  2  0  0  0  0
 13 12  2  0  0  0  0
M  RAD  3   2   2   8   2   9   3
M  END
