Coordinates from ORCA-job 2-NO2-C6H3-N2-B3LYPG-aug-cc-pVDZ-scan-d09-49-n400
 OpenBabel11091809053D

 14 13  0  0  0  0  0  0  0  0999 V2000
   -2.2292   -0.0310   -0.9651 C   0  0  0  0  0  0  0  0  0  0  0  0
   -0.9190   -0.1238   -0.5437 C   0  0  0  0  0  0  0  0  0  0  0  0
   -0.2669    0.5201    0.3111 C   0  0  0  0  0  0  0  0  0  0  0  0
   -0.8626    1.5471    1.0226 C   0  0  0  0  0  0  0  0  0  0  0  0
   -2.2173    1.7840    0.7135 C   0  0  0  0  0  0  0  0  0  0  0  0
   -2.8784    1.0124   -0.2566 C   0  0  0  0  0  0  0  0  0  0  0  0
   -2.7309   -0.6342   -1.7179 H   0  0  0  0  0  0  0  0  0  0  0  0
    3.0230    1.5033   -0.6159 N   0  0  0  0  0  0  0  0  0  0  0  0
    3.8821    0.8489   -0.3843 N   0  0  0  0  0  0  0  0  0  0  0  0
   -3.9271    1.2181   -0.4771 H   0  0  0  0  0  0  0  0  0  0  0  0
   -2.7434    2.5773    1.2419 H   0  0  0  0  0  0  0  0  0  0  0  0
   -0.1591    2.3478    2.0390 N   0  0  0  0  0  0  0  0  0  0  0  0
    1.0197    2.0832    2.2426 O   0  0  0  0  0  0  0  0  0  0  0  0
   -0.8021    3.2251    2.6124 O   0  0  0  0  0  0  0  0  0  0  0  0
  1  2  2  0  0  0  0
  1  6  1  0  0  0  0
  2  3  1  0  0  0  0
  3  4  2  0  0  0  0
  4 12  1  0  0  0  0
  5  4  1  0  0  0  0
  5 11  1  0  0  0  0
  6  5  2  0  0  0  0
  7  1  1  0  0  0  0
  8  9  3  0  0  0  0
 10  6  1  0  0  0  0
 12 13  2  0  0  0  0
 12 14  2  0  0  0  0
M  RAD  2   2   2   3   2
M  END
