Coordinates from ORCA-job 2-NO2-C6H3-N2-B3LYPG-aug-cc-pVDZ-scan-d09-49-n400
 OpenBabel11091809053D

 14 13  0  0  0  0  0  0  0  0999 V2000
   -2.0301    0.0477   -1.0564 C   0  0  0  0  0  0  0  0  0  0  0  0
   -0.6708    0.1399   -0.8128 C   0  0  0  0  0  0  0  0  0  0  0  0
   -0.0575    0.8175    0.0473 C   0  0  0  0  0  0  0  0  0  0  0  0
   -0.7106    1.6741    0.9161 C   0  0  0  0  0  0  0  0  0  0  0  0
   -2.1108    1.7152    0.7580 C   0  0  0  0  0  0  0  0  0  0  0  0
   -2.7508    0.9210   -0.2070 C   0  0  0  0  0  0  0  0  0  0  0  0
   -2.5200   -0.5836   -1.7951 H   0  0  0  0  0  0  0  0  0  0  0  0
    2.1894    1.2583   -0.2837 N   0  0  0  0  0  0  0  0  0  0  0  0
    3.0440    0.5625   -0.1883 N   0  0  0  0  0  0  0  0  0  0  0  0
   -3.8363    0.9752   -0.3045 H   0  0  0  0  0  0  0  0  0  0  0  0
   -2.6882    2.3666    1.4118 H   0  0  0  0  0  0  0  0  0  0  0  0
   -0.0567    2.4610    1.9739 N   0  0  0  0  0  0  0  0  0  0  0  0
    1.1228    2.2189    2.2079 O   0  0  0  0  0  0  0  0  0  0  0  0
   -0.7356    3.3043    2.5554 O   0  0  0  0  0  0  0  0  0  0  0  0
  1  2  2  0  0  0  0
  1  6  1  0  0  0  0
  2  3  1  0  0  0  0
  3  4  2  0  0  0  0
  4 12  1  0  0  0  0
  5  4  1  0  0  0  0
  5 11  1  0  0  0  0
  6  5  2  0  0  0  0
  7  1  1  0  0  0  0
  8  9  3  0  0  0  0
 10  6  1  0  0  0  0
 12 13  2  0  0  0  0
 12 14  2  0  0  0  0
M  RAD  2   2   2   3   2
M  END
