Coordinates from ORCA-job 2-NO2-C6H3-N2-B3LYPG-aug-cc-pVDZ-scan-d09-49-n400
 OpenBabel11091809053D

 14 14  0  0  0  0  0  0  0  0999 V2000
   -1.8697    0.2168   -1.1347 C   0  0  0  0  0  0  0  0  0  0  0  0
   -0.4558    0.0964   -1.0849 C   0  0  0  0  0  0  0  0  0  0  0  0
    0.1334    0.8797   -0.0263 C   0  0  0  0  0  0  0  0  0  0  0  0
   -0.6352    1.6877    0.8910 C   0  0  0  0  0  0  0  0  0  0  0  0
   -2.0073    1.6207    0.8525 C   0  0  0  0  0  0  0  0  0  0  0  0
   -2.6294    0.8406   -0.1489 C   0  0  0  0  0  0  0  0  0  0  0  0
   -2.3930   -0.2533   -1.9722 H   0  0  0  0  0  0  0  0  0  0  0  0
    1.3489    0.7286    0.0946 N   0  0  0  0  0  0  0  0  0  0  0  0
    2.4533    0.5263    0.1365 N   0  0  0  0  0  0  0  0  0  0  0  0
   -3.7195    0.7748   -0.1584 H   0  0  0  0  0  0  0  0  0  0  0  0
   -2.5870    2.2061    1.5620 H   0  0  0  0  0  0  0  0  0  0  0  0
    0.0099    2.6133    1.8306 N   0  0  0  0  0  0  0  0  0  0  0  0
    1.2185    2.8080    1.6782 O   0  0  0  0  0  0  0  0  0  0  0  0
   -0.6782    3.1326    2.7025 O   0  0  0  0  0  0  0  0  0  0  0  0
  1  2  2  0  0  0  0
  1  6  1  0  0  0  0
  2  3  1  0  0  0  0
  3  8  1  0  0  0  0
  3  4  2  0  0  0  0
  4 12  1  0  0  0  0
  5  4  1  0  0  0  0
  5 11  1  0  0  0  0
  6  5  2  0  0  0  0
  7  1  1  0  0  0  0
  8  9  1  0  0  0  0
 10  6  1  0  0  0  0
 12 14  2  0  0  0  0
 13 12  2  0  0  0  0
M  RAD  3   2   2   8   2   9   3
M  END
