Coordinates from ORCA-job 2-NO2-C6H3-N2-B3LYPG-aug-cc-pVDZ-scan-d09-49-n400
 OpenBabel11091809053D

 14 13  0  0  0  0  0  0  0  0999 V2000
   -2.5474   -0.0957   -0.8847 C   0  0  0  0  0  0  0  0  0  0  0  0
   -1.2447   -0.2965   -0.4816 C   0  0  0  0  0  0  0  0  0  0  0  0
   -0.5019    0.3243    0.3145 C   0  0  0  0  0  0  0  0  0  0  0  0
   -0.9761    1.4446    0.9755 C   0  0  0  0  0  0  0  0  0  0  0  0
   -2.3076    1.8017    0.6816 C   0  0  0  0  0  0  0  0  0  0  0  0
   -3.0690    1.0479   -0.2268 C   0  0  0  0  0  0  0  0  0  0  0  0
   -3.1267   -0.6877   -1.5891 H   0  0  0  0  0  0  0  0  0  0  0  0
    3.9936    1.9010   -0.5940 N   0  0  0  0  0  0  0  0  0  0  0  0
    4.6989    1.1360   -0.2243 N   0  0  0  0  0  0  0  0  0  0  0  0
   -4.0973    1.3465   -0.4373 H   0  0  0  0  0  0  0  0  0  0  0  0
   -2.7362    2.6738    1.1724 H   0  0  0  0  0  0  0  0  0  0  0  0
   -0.1696    2.2277    1.9288 N   0  0  0  0  0  0  0  0  0  0  0  0
    0.9868    1.8686    2.1136 O   0  0  0  0  0  0  0  0  0  0  0  0
   -0.7138    3.1864    2.4739 O   0  0  0  0  0  0  0  0  0  0  0  0
  1  2  2  0  0  0  0
  1  6  1  0  0  0  0
  2  3  1  0  0  0  0
  3  4  2  0  0  0  0
  4 12  1  0  0  0  0
  5  4  1  0  0  0  0
  5 11  1  0  0  0  0
  6  5  2  0  0  0  0
  7  1  1  0  0  0  0
  8  9  3  0  0  0  0
 10  6  1  0  0  0  0
 12 13  2  0  0  0  0
 12 14  2  0  0  0  0
M  RAD  2   2   2   3   2
M  END
