Coordinates from ORCA-job 2-NO2-C6H3-N2-B3LYPG-aug-cc-pVDZ-scan-d09-49-n400
 OpenBabel11091809053D

 14 13  0  0  0  0  0  0  0  0999 V2000
   -2.0753    0.0154   -1.0219 C   0  0  0  0  0  0  0  0  0  0  0  0
   -0.7380    0.0338   -0.6808 C   0  0  0  0  0  0  0  0  0  0  0  0
   -0.1073    0.6971    0.1753 C   0  0  0  0  0  0  0  0  0  0  0  0
   -0.7587    1.6237    0.9715 C   0  0  0  0  0  0  0  0  0  0  0  0
   -2.1431    1.7476    0.7374 C   0  0  0  0  0  0  0  0  0  0  0  0
   -2.7806    0.9616   -0.2366 C   0  0  0  0  0  0  0  0  0  0  0  0
   -2.5602   -0.6055   -1.7717 H   0  0  0  0  0  0  0  0  0  0  0  0
    2.4069    1.3312   -0.4377 N   0  0  0  0  0  0  0  0  0  0  0  0
    3.2805    0.6690   -0.2987 N   0  0  0  0  0  0  0  0  0  0  0  0
   -3.8538    1.0772   -0.3960 H   0  0  0  0  0  0  0  0  0  0  0  0
   -2.7114    2.4604    1.3324 H   0  0  0  0  0  0  0  0  0  0  0  0
   -0.0929    2.4199    2.0160 N   0  0  0  0  0  0  0  0  0  0  0  0
    1.0899    2.1823    2.2318 O   0  0  0  0  0  0  0  0  0  0  0  0
   -0.7672    3.2647    2.6016 O   0  0  0  0  0  0  0  0  0  0  0  0
  1  2  2  0  0  0  0
  1  6  1  0  0  0  0
  2  3  1  0  0  0  0
  3  4  2  0  0  0  0
  4 12  1  0  0  0  0
  5  4  1  0  0  0  0
  5 11  1  0  0  0  0
  6  5  2  0  0  0  0
  7  1  1  0  0  0  0
  8  9  3  0  0  0  0
 10  6  1  0  0  0  0
 12 13  2  0  0  0  0
 12 14  2  0  0  0  0
M  RAD  2   2   2   3   2
M  END
