Coordinates from ORCA-job 2-NO2-C6H3-N2-B3LYPG-aug-cc-pVDZ-scan-d09-49-n400
 OpenBabel11091809053D

 14 14  0  0  0  0  0  0  0  0999 V2000
   -1.8529    0.2285   -1.1445 C   0  0  0  0  0  0  0  0  0  0  0  0
   -0.4612    0.0469   -1.1148 C   0  0  0  0  0  0  0  0  0  0  0  0
    0.2713    0.8635    0.0351 C   0  0  0  0  0  0  0  0  0  0  0  0
   -0.6130    1.6774    0.8807 C   0  0  0  0  0  0  0  0  0  0  0  0
   -1.9794    1.6160    0.8461 C   0  0  0  0  0  0  0  0  0  0  0  0
   -2.6119    0.8541   -0.1571 C   0  0  0  0  0  0  0  0  0  0  0  0
   -2.3727   -0.2473   -1.9819 H   0  0  0  0  0  0  0  0  0  0  0  0
    1.1685    0.7378    0.1210 N   0  0  0  0  0  0  0  0  0  0  0  0
    2.3138    0.5303    0.1825 N   0  0  0  0  0  0  0  0  0  0  0  0
   -3.7015    0.7886   -0.1654 H   0  0  0  0  0  0  0  0  0  0  0  0
   -2.5498    2.1991    1.5650 H   0  0  0  0  0  0  0  0  0  0  0  0
    0.0266    2.6213    1.8162 N   0  0  0  0  0  0  0  0  0  0  0  0
    1.1827    2.9531    1.5634 O   0  0  0  0  0  0  0  0  0  0  0  0
   -0.6317    3.0091    2.7759 O   0  0  0  0  0  0  0  0  0  0  0  0
  1  2  2  0  0  0  0
  1  6  1  0  0  0  0
  2  3  1  0  0  0  0
  3  8  1  0  0  0  0
  3  4  2  0  0  0  0
  4 12  1  0  0  0  0
  5  4  1  0  0  0  0
  5 11  1  0  0  0  0
  6  5  2  0  0  0  0
  7  1  1  0  0  0  0
  8  9  1  0  0  0  0
 10  6  1  0  0  0  0
 12 14  2  0  0  0  0
 13 12  2  0  0  0  0
M  RAD  3   2   2   8   2   9   3
M  END
