Coordinates from ORCA-job 2-NO2-C6H3-N2-B3LYPG-aug-cc-pVDZ-scan-d09-49-n400
 OpenBabel11091809053D

 14 13  0  0  0  0  0  0  0  0999 V2000
   -2.2524   -0.0371   -0.9580 C   0  0  0  0  0  0  0  0  0  0  0  0
   -0.9446   -0.1417   -0.5322 C   0  0  0  0  0  0  0  0  0  0  0  0
   -0.2875    0.5000    0.3203 C   0  0  0  0  0  0  0  0  0  0  0  0
   -0.8739    1.5377    1.0239 C   0  0  0  0  0  0  0  0  0  0  0  0
   -2.2252    1.7875    0.7100 C   0  0  0  0  0  0  0  0  0  0  0  0
   -2.8921    1.0174   -0.2573 C   0  0  0  0  0  0  0  0  0  0  0  0
   -2.7586   -0.6390   -1.7088 H   0  0  0  0  0  0  0  0  0  0  0  0
    3.1013    1.5324   -0.6265 N   0  0  0  0  0  0  0  0  0  0  0  0
    3.9544    0.8742   -0.3838 N   0  0  0  0  0  0  0  0  0  0  0  0
   -3.9379    1.2333   -0.4818 H   0  0  0  0  0  0  0  0  0  0  0  0
   -2.7439    2.5896    1.2323 H   0  0  0  0  0  0  0  0  0  0  0  0
   -0.1638    2.3374    2.0368 N   0  0  0  0  0  0  0  0  0  0  0  0
    1.0128    2.0645    2.2411 O   0  0  0  0  0  0  0  0  0  0  0  0
   -0.7998    3.2223    2.6063 O   0  0  0  0  0  0  0  0  0  0  0  0
  1  2  2  0  0  0  0
  1  6  1  0  0  0  0
  2  3  1  0  0  0  0
  3  4  2  0  0  0  0
  4 12  1  0  0  0  0
  5  4  1  0  0  0  0
  5 11  1  0  0  0  0
  6  5  2  0  0  0  0
  7  1  1  0  0  0  0
  8  9  3  0  0  0  0
 10  6  1  0  0  0  0
 12 13  2  0  0  0  0
 12 14  2  0  0  0  0
M  RAD  2   2   2   3   2
M  END
