Coordinates from ORCA-job 2-NO2-C6H3-N2-B3LYPG-aug-cc-pVDZ-scan-d09-49-n400
 OpenBabel11091809053D

 14 13  0  0  0  0  0  0  0  0999 V2000
   -2.4783   -0.0881   -0.8977 C   0  0  0  0  0  0  0  0  0  0  0  0
   -1.1803   -0.2807   -0.4750 C   0  0  0  0  0  0  0  0  0  0  0  0
   -0.4584    0.3439    0.3368 C   0  0  0  0  0  0  0  0  0  0  0  0
   -0.9490    1.4585    0.9948 C   0  0  0  0  0  0  0  0  0  0  0  0
   -2.2787    1.8052    0.6795 C   0  0  0  0  0  0  0  0  0  0  0  0
   -3.0192    1.0492   -0.2441 C   0  0  0  0  0  0  0  0  0  0  0  0
   -3.0417   -0.6815   -1.6137 H   0  0  0  0  0  0  0  0  0  0  0  0
    3.7636    1.8339   -0.6244 N   0  0  0  0  0  0  0  0  0  0  0  0
    4.5007    1.0938   -0.2661 N   0  0  0  0  0  0  0  0  0  0  0  0
   -4.0459    1.3414   -0.4701 H   0  0  0  0  0  0  0  0  0  0  0  0
   -2.7230    2.6717    1.1664 H   0  0  0  0  0  0  0  0  0  0  0  0
   -0.1653    2.2434    1.9644 N   0  0  0  0  0  0  0  0  0  0  0  0
    0.9930    1.8971    2.1619 O   0  0  0  0  0  0  0  0  0  0  0  0
   -0.7287    3.1907    2.5096 O   0  0  0  0  0  0  0  0  0  0  0  0
  1  2  2  0  0  0  0
  1  6  1  0  0  0  0
  2  3  1  0  0  0  0
  3  4  2  0  0  0  0
  4 12  1  0  0  0  0
  5  4  1  0  0  0  0
  5 11  1  0  0  0  0
  6  5  2  0  0  0  0
  7  1  1  0  0  0  0
  8  9  3  0  0  0  0
 10  6  1  0  0  0  0
 12 13  2  0  0  0  0
 12 14  2  0  0  0  0
M  RAD  2   2   2   3   2
M  END
