Coordinates from ORCA-job 2-NO2-C6H3-N2-B3LYPG-aug-cc-pVDZ-scan-d09-49-n400
 OpenBabel11091809053D

 14 13  0  0  0  0  0  0  0  0999 V2000
   -2.2675   -0.0409   -0.9535 C   0  0  0  0  0  0  0  0  0  0  0  0
   -0.9611   -0.1529   -0.5254 C   0  0  0  0  0  0  0  0  0  0  0  0
   -0.3006    0.4875    0.3255 C   0  0  0  0  0  0  0  0  0  0  0  0
   -0.8809    1.5319    1.0245 C   0  0  0  0  0  0  0  0  0  0  0  0
   -2.2300    1.7896    0.7078 C   0  0  0  0  0  0  0  0  0  0  0  0
   -2.9009    1.0205   -0.2576 C   0  0  0  0  0  0  0  0  0  0  0  0
   -2.7767   -0.6421   -1.7029 H   0  0  0  0  0  0  0  0  0  0  0  0
    3.1513    1.5515   -0.6326 N   0  0  0  0  0  0  0  0  0  0  0  0
    3.9999    0.8902   -0.3824 N   0  0  0  0  0  0  0  0  0  0  0  0
   -3.9449    1.2426   -0.4843 H   0  0  0  0  0  0  0  0  0  0  0  0
   -2.7440    2.5972    1.2264 H   0  0  0  0  0  0  0  0  0  0  0  0
   -0.1666    2.3307    2.0349 N   0  0  0  0  0  0  0  0  0  0  0  0
    1.0086    2.0522    2.2400 O   0  0  0  0  0  0  0  0  0  0  0  0
   -0.7979    3.2206    2.6019 O   0  0  0  0  0  0  0  0  0  0  0  0
  1  2  2  0  0  0  0
  1  6  1  0  0  0  0
  2  3  1  0  0  0  0
  3  4  2  0  0  0  0
  4 12  1  0  0  0  0
  5  4  1  0  0  0  0
  5 11  1  0  0  0  0
  6  5  2  0  0  0  0
  7  1  1  0  0  0  0
  8  9  3  0  0  0  0
 10  6  1  0  0  0  0
 12 13  2  0  0  0  0
 12 14  2  0  0  0  0
M  RAD  2   2   2   3   2
M  END
