Coordinates from ORCA-job 2-NO2-C6H3-N2-B3LYPG-aug-cc-pVDZ-scan-d09-49-n400
 OpenBabel11091809053D

 14 13  0  0  0  0  0  0  0  0999 V2000
   -2.2439   -0.0349   -0.9606 C   0  0  0  0  0  0  0  0  0  0  0  0
   -0.9353   -0.1352   -0.5363 C   0  0  0  0  0  0  0  0  0  0  0  0
   -0.2800    0.5073    0.3171 C   0  0  0  0  0  0  0  0  0  0  0  0
   -0.8698    1.5411    1.0235 C   0  0  0  0  0  0  0  0  0  0  0  0
   -2.2223    1.7863    0.7113 C   0  0  0  0  0  0  0  0  0  0  0  0
   -2.8871    1.0156   -0.2571 C   0  0  0  0  0  0  0  0  0  0  0  0
   -2.7484   -0.6373   -1.7121 H   0  0  0  0  0  0  0  0  0  0  0  0
    3.0728    1.5217   -0.6228 N   0  0  0  0  0  0  0  0  0  0  0  0
    3.9283    0.8650   -0.3843 N   0  0  0  0  0  0  0  0  0  0  0  0
   -3.9339    1.2278   -0.4802 H   0  0  0  0  0  0  0  0  0  0  0  0
   -2.7437    2.5852    1.2357 H   0  0  0  0  0  0  0  0  0  0  0  0
   -0.1622    2.3412    2.0377 N   0  0  0  0  0  0  0  0  0  0  0  0
    1.0153    2.0714    2.2417 O   0  0  0  0  0  0  0  0  0  0  0  0
   -0.8007    3.2233    2.6087 O   0  0  0  0  0  0  0  0  0  0  0  0
  1  2  2  0  0  0  0
  1  6  1  0  0  0  0
  2  3  1  0  0  0  0
  3  4  2  0  0  0  0
  4 12  1  0  0  0  0
  5  4  1  0  0  0  0
  5 11  1  0  0  0  0
  6  5  2  0  0  0  0
  7  1  1  0  0  0  0
  8  9  3  0  0  0  0
 10  6  1  0  0  0  0
 12 13  2  0  0  0  0
 12 14  2  0  0  0  0
M  RAD  2   2   2   3   2
M  END
