Coordinates from ORCA-job 2-NO2-C6H3-N2-B3LYPG-aug-cc-pVDZ-scan-d09-49-n400
 OpenBabel11091809053D

 14 13  0  0  0  0  0  0  0  0999 V2000
   -2.2653   -0.0404   -0.9542 C   0  0  0  0  0  0  0  0  0  0  0  0
   -0.9587   -0.1513   -0.5264 C   0  0  0  0  0  0  0  0  0  0  0  0
   -0.2987    0.4893    0.3248 C   0  0  0  0  0  0  0  0  0  0  0  0
   -0.8799    1.5327    1.0244 C   0  0  0  0  0  0  0  0  0  0  0  0
   -2.2293    1.7893    0.7081 C   0  0  0  0  0  0  0  0  0  0  0  0
   -2.8997    1.0200   -0.2575 C   0  0  0  0  0  0  0  0  0  0  0  0
   -2.7741   -0.6417   -1.7037 H   0  0  0  0  0  0  0  0  0  0  0  0
    3.1442    1.5487   -0.6318 N   0  0  0  0  0  0  0  0  0  0  0  0
    3.9934    0.8880   -0.3826 N   0  0  0  0  0  0  0  0  0  0  0  0
   -3.9439    1.2413   -0.4840 H   0  0  0  0  0  0  0  0  0  0  0  0
   -2.7440    2.5961    1.2272 H   0  0  0  0  0  0  0  0  0  0  0  0
   -0.1662    2.3316    2.0352 N   0  0  0  0  0  0  0  0  0  0  0  0
    1.0092    2.0540    2.2402 O   0  0  0  0  0  0  0  0  0  0  0  0
   -0.7981    3.2208    2.6026 O   0  0  0  0  0  0  0  0  0  0  0  0
  1  2  2  0  0  0  0
  1  6  1  0  0  0  0
  2  3  1  0  0  0  0
  3  4  2  0  0  0  0
  4 12  1  0  0  0  0
  5  4  1  0  0  0  0
  5 11  1  0  0  0  0
  6  5  2  0  0  0  0
  7  1  1  0  0  0  0
  8  9  3  0  0  0  0
 10  6  1  0  0  0  0
 12 13  2  0  0  0  0
 12 14  2  0  0  0  0
M  RAD  2   2   2   3   2
M  END
