Coordinates from ORCA-job 2-NO2-C6H3-N2-B3LYPG-aug-cc-pVDZ-scan-d09-49-n400
 OpenBabel11091809053D

 14 13  0  0  0  0  0  0  0  0999 V2000
   -2.5324   -0.0939   -0.8876 C   0  0  0  0  0  0  0  0  0  0  0  0
   -1.2308   -0.2928   -0.4802 C   0  0  0  0  0  0  0  0  0  0  0  0
   -0.4919    0.3286    0.3191 C   0  0  0  0  0  0  0  0  0  0  0  0
   -0.9703    1.4474    0.9795 C   0  0  0  0  0  0  0  0  0  0  0  0
   -2.3014    1.8024    0.6813 C   0  0  0  0  0  0  0  0  0  0  0  0
   -3.0583    1.0481   -0.2304 C   0  0  0  0  0  0  0  0  0  0  0  0
   -3.1082   -0.6863   -1.5945 H   0  0  0  0  0  0  0  0  0  0  0  0
    3.9432    1.8864   -0.6004 N   0  0  0  0  0  0  0  0  0  0  0  0
    4.6554    1.1268   -0.2328 N   0  0  0  0  0  0  0  0  0  0  0  0
   -4.0863    1.3451   -0.4443 H   0  0  0  0  0  0  0  0  0  0  0  0
   -2.7333    2.6733    1.1714 H   0  0  0  0  0  0  0  0  0  0  0  0
   -0.1684    2.2311    1.9362 N   0  0  0  0  0  0  0  0  0  0  0  0
    0.9882    1.8746    2.1239 O   0  0  0  0  0  0  0  0  0  0  0  0
   -0.7166    3.1876    2.4811 O   0  0  0  0  0  0  0  0  0  0  0  0
  1  2  2  0  0  0  0
  1  6  1  0  0  0  0
  2  3  1  0  0  0  0
  3  4  2  0  0  0  0
  4 12  1  0  0  0  0
  5  4  1  0  0  0  0
  5 11  1  0  0  0  0
  6  5  2  0  0  0  0
  7  1  1  0  0  0  0
  8  9  3  0  0  0  0
 10  6  1  0  0  0  0
 12 13  2  0  0  0  0
 12 14  2  0  0  0  0
M  RAD  2   2   2   3   2
M  END
