Coordinates from ORCA-job 2-NO2-C6H3-N2-B3LYPG-aug-cc-pVDZ-scan-d09-49-n400
 OpenBabel11091809053D

 14 13  0  0  0  0  0  0  0  0999 V2000
   -2.3704   -0.0654   -0.9240 C   0  0  0  0  0  0  0  0  0  0  0  0
   -1.0726   -0.2208   -0.4858 C   0  0  0  0  0  0  0  0  0  0  0  0
   -0.3834    0.4102    0.3493 C   0  0  0  0  0  0  0  0  0  0  0  0
   -0.9239    1.4938    1.0206 C   0  0  0  0  0  0  0  0  0  0  0  0
   -2.2600    1.8012    0.6930 C   0  0  0  0  0  0  0  0  0  0  0  0
   -2.9604    1.0386   -0.2562 C   0  0  0  0  0  0  0  0  0  0  0  0
   -2.9020   -0.6633   -1.6602 H   0  0  0  0  0  0  0  0  0  0  0  0
    3.4853    1.6869   -0.6650 N   0  0  0  0  0  0  0  0  0  0  0  0
    4.2859    0.9920   -0.3554 N   0  0  0  0  0  0  0  0  0  0  0  0
   -3.9935    1.2991   -0.4920 H   0  0  0  0  0  0  0  0  0  0  0  0
   -2.7405    2.6420    1.1902 H   0  0  0  0  0  0  0  0  0  0  0  0
   -0.1804    2.2860    2.0157 N   0  0  0  0  0  0  0  0  0  0  0  0
    0.9835    1.9684    2.2278 O   0  0  0  0  0  0  0  0  0  0  0  0
   -0.7787    3.2096    2.5644 O   0  0  0  0  0  0  0  0  0  0  0  0
  1  2  2  0  0  0  0
  1  6  1  0  0  0  0
  2  3  1  0  0  0  0
  3  4  2  0  0  0  0
  4 12  1  0  0  0  0
  5  4  1  0  0  0  0
  5 11  1  0  0  0  0
  6  5  2  0  0  0  0
  7  1  1  0  0  0  0
  8  9  3  0  0  0  0
 10  6  1  0  0  0  0
 12 13  2  0  0  0  0
 12 14  2  0  0  0  0
M  RAD  2   2   2   3   2
M  END
