Coordinates from ORCA-job 2-NO2-C6H3-N2-B3LYPG-aug-cc-pVDZ-scan-d09-49-n400
 OpenBabel11091809053D

 14 13  0  0  0  0  0  0  0  0999 V2000
   -2.2696   -0.0415   -0.9529 C   0  0  0  0  0  0  0  0  0  0  0  0
   -0.9634   -0.1545   -0.5244 C   0  0  0  0  0  0  0  0  0  0  0  0
   -0.3024    0.4857    0.3263 C   0  0  0  0  0  0  0  0  0  0  0  0
   -0.8819    1.5310    1.0245 C   0  0  0  0  0  0  0  0  0  0  0  0
   -2.2307    1.7899    0.7075 C   0  0  0  0  0  0  0  0  0  0  0  0
   -2.9022    1.0209   -0.2576 C   0  0  0  0  0  0  0  0  0  0  0  0
   -2.7793   -0.6426   -1.7020 H   0  0  0  0  0  0  0  0  0  0  0  0
    3.1585    1.5542   -0.6335 N   0  0  0  0  0  0  0  0  0  0  0  0
    4.0063    0.8925   -0.3821 N   0  0  0  0  0  0  0  0  0  0  0  0
   -3.9459    1.2439   -0.4846 H   0  0  0  0  0  0  0  0  0  0  0  0
   -2.7440    2.5983    1.2255 H   0  0  0  0  0  0  0  0  0  0  0  0
   -0.1670    2.3297    2.0347 N   0  0  0  0  0  0  0  0  0  0  0  0
    1.0080    2.0504    2.2399 O   0  0  0  0  0  0  0  0  0  0  0  0
   -0.7976    3.2204    2.6013 O   0  0  0  0  0  0  0  0  0  0  0  0
  1  2  2  0  0  0  0
  1  6  1  0  0  0  0
  2  3  1  0  0  0  0
  3  4  2  0  0  0  0
  4 12  1  0  0  0  0
  5  4  1  0  0  0  0
  5 11  1  0  0  0  0
  6  5  2  0  0  0  0
  7  1  1  0  0  0  0
  8  9  3  0  0  0  0
 10  6  1  0  0  0  0
 12 13  2  0  0  0  0
 12 14  2  0  0  0  0
M  RAD  2   2   2   3   2
M  END
