Coordinates from ORCA-job 2-NO2-C6H3-N2-B3LYPG-aug-cc-pVDZ-scan-d09-49-n400
 OpenBabel11091809053D

 14 13  0  0  0  0  0  0  0  0999 V2000
   -2.1857   -0.0190   -0.9794 C   0  0  0  0  0  0  0  0  0  0  0  0
   -0.8701   -0.0871   -0.5702 C   0  0  0  0  0  0  0  0  0  0  0  0
   -0.2261    0.5609    0.2875 C   0  0  0  0  0  0  0  0  0  0  0  0
   -0.8386    1.5654    1.0164 C   0  0  0  0  0  0  0  0  0  0  0  0
   -2.2006    1.7761    0.7203 C   0  0  0  0  0  0  0  0  0  0  0  0
   -2.8522    1.0015   -0.2539 C   0  0  0  0  0  0  0  0  0  0  0  0
   -2.6802   -0.6249   -1.7348 H   0  0  0  0  0  0  0  0  0  0  0  0
    2.8676    1.4513   -0.5878 N   0  0  0  0  0  0  0  0  0  0  0  0
    3.7339    0.8001   -0.3749 N   0  0  0  0  0  0  0  0  0  0  0  0
   -3.9069    1.1864   -0.4637 H   0  0  0  0  0  0  0  0  0  0  0  0
   -2.7399    2.5511    1.2623 H   0  0  0  0  0  0  0  0  0  0  0  0
   -0.1465    2.3677    2.0394 N   0  0  0  0  0  0  0  0  0  0  0  0
    1.0358    2.1179    2.2414 O   0  0  0  0  0  0  0  0  0  0  0  0
   -0.8017    3.2312    2.6198 O   0  0  0  0  0  0  0  0  0  0  0  0
  1  2  2  0  0  0  0
  1  6  1  0  0  0  0
  2  3  1  0  0  0  0
  3  4  2  0  0  0  0
  4 12  1  0  0  0  0
  5  4  1  0  0  0  0
  5 11  1  0  0  0  0
  6  5  2  0  0  0  0
  7  1  1  0  0  0  0
  8  9  3  0  0  0  0
 10  6  1  0  0  0  0
 12 13  2  0  0  0  0
 12 14  2  0  0  0  0
M  RAD  2   2   2   3   2
M  END
