Coordinates from ORCA-job 2-NO2-C6H3-N2-B3LYPG-aug-cc-pVDZ-scan-d09-49-n400
 OpenBabel11091809053D

 14 13  0  0  0  0  0  0  0  0999 V2000
   -2.5248   -0.0930   -0.8891 C   0  0  0  0  0  0  0  0  0  0  0  0
   -1.2237   -0.2909   -0.4794 C   0  0  0  0  0  0  0  0  0  0  0  0
   -0.4868    0.3308    0.3215 C   0  0  0  0  0  0  0  0  0  0  0  0
   -0.9674    1.4489    0.9815 C   0  0  0  0  0  0  0  0  0  0  0  0
   -2.2983    1.8028    0.6812 C   0  0  0  0  0  0  0  0  0  0  0  0
   -3.0529    1.0482   -0.2323 C   0  0  0  0  0  0  0  0  0  0  0  0
   -3.0988   -0.6856   -1.5973 H   0  0  0  0  0  0  0  0  0  0  0  0
    3.9179    1.8790   -0.6037 N   0  0  0  0  0  0  0  0  0  0  0  0
    4.6337    1.1221   -0.2373 N   0  0  0  0  0  0  0  0  0  0  0  0
   -4.0808    1.3444   -0.4478 H   0  0  0  0  0  0  0  0  0  0  0  0
   -2.7319    2.6730    1.1709 H   0  0  0  0  0  0  0  0  0  0  0  0
   -0.1680    2.2329    1.9401 N   0  0  0  0  0  0  0  0  0  0  0  0
    0.9889    1.8776    2.1292 O   0  0  0  0  0  0  0  0  0  0  0  0
   -0.7181    3.1882    2.4849 O   0  0  0  0  0  0  0  0  0  0  0  0
  1  2  2  0  0  0  0
  1  6  1  0  0  0  0
  2  3  1  0  0  0  0
  3  4  2  0  0  0  0
  4 12  1  0  0  0  0
  5  4  1  0  0  0  0
  5 11  1  0  0  0  0
  6  5  2  0  0  0  0
  7  1  1  0  0  0  0
  8  9  3  0  0  0  0
 10  6  1  0  0  0  0
 12 13  2  0  0  0  0
 12 14  2  0  0  0  0
M  RAD  2   2   2   3   2
M  END
