Coordinates from ORCA-job 2-NO2-C6H3-N2-B3LYPG-aug-cc-pVDZ-scan-d09-49-n400
 OpenBabel11091809053D

 14 13  0  0  0  0  0  0  0  0999 V2000
   -2.1208    0.0009   -1.0042 C   0  0  0  0  0  0  0  0  0  0  0  0
   -0.7937   -0.0213   -0.6276 C   0  0  0  0  0  0  0  0  0  0  0  0
   -0.1586    0.6344    0.2309 C   0  0  0  0  0  0  0  0  0  0  0  0
   -0.7945    1.5969    0.9956 C   0  0  0  0  0  0  0  0  0  0  0  0
   -2.1697    1.7599    0.7313 C   0  0  0  0  0  0  0  0  0  0  0  0
   -2.8112    0.9799   -0.2450 C   0  0  0  0  0  0  0  0  0  0  0  0
   -2.6082   -0.6111   -1.7594 H   0  0  0  0  0  0  0  0  0  0  0  0
    2.6104    1.3810   -0.5225 N   0  0  0  0  0  0  0  0  0  0  0  0
    3.4755    0.7223   -0.3277 N   0  0  0  0  0  0  0  0  0  0  0  0
   -3.8767    1.1269   -0.4288 H   0  0  0  0  0  0  0  0  0  0  0  0
   -2.7272    2.5010    1.3015 H   0  0  0  0  0  0  0  0  0  0  0  0
   -0.1176    2.3984    2.0290 N   0  0  0  0  0  0  0  0  0  0  0  0
    1.0674    2.1626    2.2331 O   0  0  0  0  0  0  0  0  0  0  0  0
   -0.7863    3.2466    2.6162 O   0  0  0  0  0  0  0  0  0  0  0  0
  1  2  2  0  0  0  0
  1  6  1  0  0  0  0
  2  3  1  0  0  0  0
  3  4  2  0  0  0  0
  4 12  1  0  0  0  0
  5  4  1  0  0  0  0
  5 11  1  0  0  0  0
  6  5  2  0  0  0  0
  7  1  1  0  0  0  0
  8  9  3  0  0  0  0
 10  6  1  0  0  0  0
 12 13  2  0  0  0  0
 12 14  2  0  0  0  0
M  RAD  2   2   2   3   2
M  END
