Coordinates from ORCA-job 2-NO2-C6H3-N2-B3LYPG-aug-cc-pVDZ-scan-d09-49-n400
 OpenBabel11091809053D

 14 13  0  0  0  0  0  0  0  0999 V2000
   -2.3939   -0.0703   -0.9186 C   0  0  0  0  0  0  0  0  0  0  0  0
   -1.0962   -0.2336   -0.4834 C   0  0  0  0  0  0  0  0  0  0  0  0
   -0.3985    0.3953    0.3462 C   0  0  0  0  0  0  0  0  0  0  0  0
   -0.9291    1.4857    1.0147 C   0  0  0  0  0  0  0  0  0  0  0  0
   -2.2639    1.8020    0.6903 C   0  0  0  0  0  0  0  0  0  0  0  0
   -2.9733    1.0409   -0.2534 C   0  0  0  0  0  0  0  0  0  0  0  0
   -2.9324   -0.6674   -1.6505 H   0  0  0  0  0  0  0  0  0  0  0  0
    3.5443    1.7192   -0.6574 N   0  0  0  0  0  0  0  0  0  0  0  0
    4.3305    1.0147   -0.3330 N   0  0  0  0  0  0  0  0  0  0  0  0
   -4.0051    1.3083   -0.4869 H   0  0  0  0  0  0  0  0  0  0  0  0
   -2.7363    2.6486    1.1855 H   0  0  0  0  0  0  0  0  0  0  0  0
   -0.1765    2.2766    2.0041 N   0  0  0  0  0  0  0  0  0  0  0  0
    0.9860    1.9520    2.2132 O   0  0  0  0  0  0  0  0  0  0  0  0
   -0.7666    3.2062    2.5516 O   0  0  0  0  0  0  0  0  0  0  0  0
  1  2  2  0  0  0  0
  1  6  1  0  0  0  0
  2  3  1  0  0  0  0
  3  4  2  0  0  0  0
  4 12  1  0  0  0  0
  5  4  1  0  0  0  0
  5 11  1  0  0  0  0
  6  5  2  0  0  0  0
  7  1  1  0  0  0  0
  8  9  3  0  0  0  0
 10  6  1  0  0  0  0
 12 13  2  0  0  0  0
 12 14  2  0  0  0  0
M  RAD  2   2   2   3   2
M  END
