Coordinates from ORCA-job 2-NO2-C6H3-N2-B3LYPG-aug-cc-pVDZ-scan-d09-49-n400
 OpenBabel11091809053D

 14 14  0  0  0  0  0  0  0  0999 V2000
   -1.9163    0.1159   -1.0767 C   0  0  0  0  0  0  0  0  0  0  0  0
   -0.5084    0.1398   -0.9598 C   0  0  0  0  0  0  0  0  0  0  0  0
   -0.0290    0.8983   -0.0267 C   0  0  0  0  0  0  0  0  0  0  0  0
   -0.6671    1.7126    0.9025 C   0  0  0  0  0  0  0  0  0  0  0  0
   -2.0636    1.6923    0.7903 C   0  0  0  0  0  0  0  0  0  0  0  0
   -2.6760    0.8982   -0.1935 C   0  0  0  0  0  0  0  0  0  0  0  0
   -2.4230   -0.4908   -1.8307 H   0  0  0  0  0  0  0  0  0  0  0  0
    1.7397    0.8990    0.0850 N   0  0  0  0  0  0  0  0  0  0  0  0
    2.7286    0.5458   -0.2719 N   0  0  0  0  0  0  0  0  0  0  0  0
   -3.7653    0.8975   -0.2630 H   0  0  0  0  0  0  0  0  0  0  0  0
   -2.6492    2.2998    1.4766 H   0  0  0  0  0  0  0  0  0  0  0  0
   -0.0299    2.5419    1.9301 N   0  0  0  0  0  0  0  0  0  0  0  0
    1.2013    2.5271    1.9916 O   0  0  0  0  0  0  0  0  0  0  0  0
   -0.7529    3.2011    2.6687 O   0  0  0  0  0  0  0  0  0  0  0  0
  1  2  2  0  0  0  0
  1  6  1  0  0  0  0
  2  3  1  0  0  0  0
  3  8  1  0  0  0  0
  3  4  2  0  0  0  0
  4 12  1  0  0  0  0
  5  4  1  0  0  0  0
  5 11  1  0  0  0  0
  6  5  2  0  0  0  0
  7  1  1  0  0  0  0
  9  8  2  0  0  0  0
 10  6  1  0  0  0  0
 12 13  2  0  0  0  0
 12 14  2  0  0  0  0
M  RAD  2   2   2   9   2
M  END
