Coordinates from ORCA-job 2-NO2-C6H3-N2-B3LYPG-aug-cc-pVDZ-scan-d09-49-n400
 OpenBabel11091809053D

 14 13  0  0  0  0  0  0  0  0999 V2000
   -2.5375   -0.0945   -0.8867 C   0  0  0  0  0  0  0  0  0  0  0  0
   -1.2354   -0.2940   -0.4806 C   0  0  0  0  0  0  0  0  0  0  0  0
   -0.4952    0.3271    0.3175 C   0  0  0  0  0  0  0  0  0  0  0  0
   -0.9722    1.4465    0.9781 C   0  0  0  0  0  0  0  0  0  0  0  0
   -2.3035    1.8022    0.6814 C   0  0  0  0  0  0  0  0  0  0  0  0
   -3.0619    1.0480   -0.2292 C   0  0  0  0  0  0  0  0  0  0  0  0
   -3.1144   -0.6868   -1.5927 H   0  0  0  0  0  0  0  0  0  0  0  0
    3.9600    1.8913   -0.5982 N   0  0  0  0  0  0  0  0  0  0  0  0
    4.6699    1.1299   -0.2299 N   0  0  0  0  0  0  0  0  0  0  0  0
   -4.0900    1.3455   -0.4419 H   0  0  0  0  0  0  0  0  0  0  0  0
   -2.7342    2.6734    1.1717 H   0  0  0  0  0  0  0  0  0  0  0  0
   -0.1688    2.2300    1.9337 N   0  0  0  0  0  0  0  0  0  0  0  0
    0.9878    1.8726    2.1204 O   0  0  0  0  0  0  0  0  0  0  0  0
   -0.7156    3.1872    2.4787 O   0  0  0  0  0  0  0  0  0  0  0  0
  1  2  2  0  0  0  0
  1  6  1  0  0  0  0
  2  3  1  0  0  0  0
  3  4  2  0  0  0  0
  4 12  1  0  0  0  0
  5  4  1  0  0  0  0
  5 11  1  0  0  0  0
  6  5  2  0  0  0  0
  7  1  1  0  0  0  0
  8  9  3  0  0  0  0
 10  6  1  0  0  0  0
 12 13  2  0  0  0  0
 12 14  2  0  0  0  0
M  RAD  2   2   2   3   2
M  END
