Coordinates from ORCA-job 2-NO2-C6H3-N2-B3LYPG-aug-cc-pVDZ-scan-d09-49-n400
 OpenBabel11091809053D

 14 13  0  0  0  0  0  0  0  0999 V2000
   -2.3852   -0.0685   -0.9206 C   0  0  0  0  0  0  0  0  0  0  0  0
   -1.0875   -0.2287   -0.4842 C   0  0  0  0  0  0  0  0  0  0  0  0
   -0.3927    0.4009    0.3473 C   0  0  0  0  0  0  0  0  0  0  0  0
   -0.9272    1.4887    1.0169 C   0  0  0  0  0  0  0  0  0  0  0  0
   -2.2624    1.8017    0.6913 C   0  0  0  0  0  0  0  0  0  0  0  0
   -2.9685    1.0401   -0.2545 C   0  0  0  0  0  0  0  0  0  0  0  0
   -2.9210   -0.6659   -1.6542 H   0  0  0  0  0  0  0  0  0  0  0  0
    3.5223    1.7071   -0.6603 N   0  0  0  0  0  0  0  0  0  0  0  0
    4.3140    1.0063   -0.3414 N   0  0  0  0  0  0  0  0  0  0  0  0
   -4.0008    1.3049   -0.4888 H   0  0  0  0  0  0  0  0  0  0  0  0
   -2.7379    2.6461    1.1873 H   0  0  0  0  0  0  0  0  0  0  0  0
   -0.1779    2.2801    2.0085 N   0  0  0  0  0  0  0  0  0  0  0  0
    0.9850    1.9582    2.2188 O   0  0  0  0  0  0  0  0  0  0  0  0
   -0.7712    3.2074    2.5564 O   0  0  0  0  0  0  0  0  0  0  0  0
  1  2  2  0  0  0  0
  1  6  1  0  0  0  0
  2  3  1  0  0  0  0
  3  4  2  0  0  0  0
  4 12  1  0  0  0  0
  5  4  1  0  0  0  0
  5 11  1  0  0  0  0
  6  5  2  0  0  0  0
  7  1  1  0  0  0  0
  8  9  3  0  0  0  0
 10  6  1  0  0  0  0
 12 13  2  0  0  0  0
 12 14  2  0  0  0  0
M  RAD  2   2   2   3   2
M  END
