Coordinates from ORCA-job 2-NO2-C6H3-N2-B3LYPG-aug-cc-pVDZ-scan-d09-49-n400
 OpenBabel11091809053D

 14 13  0  0  0  0  0  0  0  0999 V2000
   -2.2397   -0.0338   -0.9619 C   0  0  0  0  0  0  0  0  0  0  0  0
   -0.9306   -0.1320   -0.5384 C   0  0  0  0  0  0  0  0  0  0  0  0
   -0.2763    0.5109    0.3154 C   0  0  0  0  0  0  0  0  0  0  0  0
   -0.8678    1.5428    1.0233 C   0  0  0  0  0  0  0  0  0  0  0  0
   -2.2209    1.7856    0.7119 C   0  0  0  0  0  0  0  0  0  0  0  0
   -2.8846    1.0147   -0.2570 C   0  0  0  0  0  0  0  0  0  0  0  0
   -2.7434   -0.6364   -1.7138 H   0  0  0  0  0  0  0  0  0  0  0  0
    3.0586    1.5164   -0.6209 N   0  0  0  0  0  0  0  0  0  0  0  0
    3.9151    0.8604   -0.3844 N   0  0  0  0  0  0  0  0  0  0  0  0
   -3.9320    1.2251   -0.4794 H   0  0  0  0  0  0  0  0  0  0  0  0
   -2.7437    2.5830    1.2375 H   0  0  0  0  0  0  0  0  0  0  0  0
   -0.1613    2.3431    2.0381 N   0  0  0  0  0  0  0  0  0  0  0  0
    1.0165    2.0748    2.2420 O   0  0  0  0  0  0  0  0  0  0  0  0
   -0.8012    3.2238    2.6098 O   0  0  0  0  0  0  0  0  0  0  0  0
  1  2  2  0  0  0  0
  1  6  1  0  0  0  0
  2  3  1  0  0  0  0
  3  4  2  0  0  0  0
  4 12  1  0  0  0  0
  5  4  1  0  0  0  0
  5 11  1  0  0  0  0
  6  5  2  0  0  0  0
  7  1  1  0  0  0  0
  8  9  3  0  0  0  0
 10  6  1  0  0  0  0
 12 13  2  0  0  0  0
 12 14  2  0  0  0  0
M  RAD  2   2   2   3   2
M  END
