Coordinates from ORCA-job 2-NO2-C6H3-N2-B3LYPG-aug-cc-pVDZ-scan-d09-49-n400
 OpenBabel11091809053D

 14 13  0  0  0  0  0  0  0  0999 V2000
   -1.9673    0.0785   -1.0736 C   0  0  0  0  0  0  0  0  0  0  0  0
   -0.5871    0.2117   -0.9337 C   0  0  0  0  0  0  0  0  0  0  0  0
   -0.0221    0.9095   -0.0402 C   0  0  0  0  0  0  0  0  0  0  0  0
   -0.6705    1.7158    0.8808 C   0  0  0  0  0  0  0  0  0  0  0  0
   -2.0731    1.6919    0.7748 C   0  0  0  0  0  0  0  0  0  0  0  0
   -2.7061    0.8901   -0.1879 C   0  0  0  0  0  0  0  0  0  0  0  0
   -2.4631   -0.5634   -1.8017 H   0  0  0  0  0  0  0  0  0  0  0  0
    1.9281    1.1820   -0.1582 N   0  0  0  0  0  0  0  0  0  0  0  0
    2.7895    0.4829   -0.1299 N   0  0  0  0  0  0  0  0  0  0  0  0
   -3.7957    0.8963   -0.2474 H   0  0  0  0  0  0  0  0  0  0  0  0
   -2.6542    2.2929    1.4719 H   0  0  0  0  0  0  0  0  0  0  0  0
   -0.0291    2.4969    1.9475 N   0  0  0  0  0  0  0  0  0  0  0  0
    1.1500    2.2540    2.1946 O   0  0  0  0  0  0  0  0  0  0  0  0
   -0.7104    3.3391    2.5255 O   0  0  0  0  0  0  0  0  0  0  0  0
  1  2  2  0  0  0  0
  1  6  1  0  0  0  0
  2  3  1  0  0  0  0
  3  4  2  0  0  0  0
  4 12  1  0  0  0  0
  5  4  1  0  0  0  0
  5 11  1  0  0  0  0
  6  5  2  0  0  0  0
  7  1  1  0  0  0  0
  8  9  3  0  0  0  0
 10  6  1  0  0  0  0
 12 13  2  0  0  0  0
 12 14  2  0  0  0  0
M  RAD  2   2   2   3   2
M  END
