Coordinates from ORCA-job 2-NO2-C6H3-N2-B3LYPG-aug-cc-pVDZ-scan-d09-49-n400
 OpenBabel11091809053D

 14 13  0  0  0  0  0  0  0  0999 V2000
   -2.2354   -0.0327   -0.9631 C   0  0  0  0  0  0  0  0  0  0  0  0
   -0.9260   -0.1287   -0.5405 C   0  0  0  0  0  0  0  0  0  0  0  0
   -0.2725    0.5146    0.3137 C   0  0  0  0  0  0  0  0  0  0  0  0
   -0.8657    1.5445    1.0230 C   0  0  0  0  0  0  0  0  0  0  0  0
   -2.2195    1.7850    0.7126 C   0  0  0  0  0  0  0  0  0  0  0  0
   -2.8821    1.0138   -0.2568 C   0  0  0  0  0  0  0  0  0  0  0  0
   -2.7383   -0.6355   -1.7154 H   0  0  0  0  0  0  0  0  0  0  0  0
    3.0444    1.5111   -0.6189 N   0  0  0  0  0  0  0  0  0  0  0  0
    3.9019    0.8558   -0.3844 N   0  0  0  0  0  0  0  0  0  0  0  0
   -3.9300    1.2223   -0.4785 H   0  0  0  0  0  0  0  0  0  0  0  0
   -2.7436    2.5807    1.2392 H   0  0  0  0  0  0  0  0  0  0  0  0
   -0.1604    2.3450    2.0385 N   0  0  0  0  0  0  0  0  0  0  0  0
    1.0178    2.0782    2.2422 O   0  0  0  0  0  0  0  0  0  0  0  0
   -0.8015    3.2243    2.6109 O   0  0  0  0  0  0  0  0  0  0  0  0
  1  2  2  0  0  0  0
  1  6  1  0  0  0  0
  2  3  1  0  0  0  0
  3  4  2  0  0  0  0
  4 12  1  0  0  0  0
  5  4  1  0  0  0  0
  5 11  1  0  0  0  0
  6  5  2  0  0  0  0
  7  1  1  0  0  0  0
  8  9  3  0  0  0  0
 10  6  1  0  0  0  0
 12 13  2  0  0  0  0
 12 14  2  0  0  0  0
M  RAD  2   2   2   3   2
M  END
