Coordinates from ORCA-job 2-NO2-C6H3-N2-B3LYPG-aug-cc-pVDZ-scan-d09-49-n400
 OpenBabel11091809053D

 14 13  0  0  0  0  0  0  0  0999 V2000
   -2.1049    0.0059   -1.0106 C   0  0  0  0  0  0  0  0  0  0  0  0
   -0.7742   -0.0027   -0.6456 C   0  0  0  0  0  0  0  0  0  0  0  0
   -0.1412    0.6560    0.2122 C   0  0  0  0  0  0  0  0  0  0  0  0
   -0.7824    1.6063    0.9878 C   0  0  0  0  0  0  0  0  0  0  0  0
   -2.1610    1.7556    0.7337 C   0  0  0  0  0  0  0  0  0  0  0  0
   -2.8008    0.9735   -0.2420 C   0  0  0  0  0  0  0  0  0  0  0  0
   -2.5914   -0.6088   -1.7643 H   0  0  0  0  0  0  0  0  0  0  0  0
    2.5422    1.3652   -0.4978 N   0  0  0  0  0  0  0  0  0  0  0  0
    3.4072    0.7030   -0.3140 N   0  0  0  0  0  0  0  0  0  0  0  0
   -3.8692    1.1095   -0.4174 H   0  0  0  0  0  0  0  0  0  0  0  0
   -2.7227    2.4869    1.3124 H   0  0  0  0  0  0  0  0  0  0  0  0
   -0.1089    2.4058    2.0245 N   0  0  0  0  0  0  0  0  0  0  0  0
    1.0754    2.1690    2.2319 O   0  0  0  0  0  0  0  0  0  0  0  0
   -0.7791    3.2531    2.6115 O   0  0  0  0  0  0  0  0  0  0  0  0
  1  2  2  0  0  0  0
  1  6  1  0  0  0  0
  2  3  1  0  0  0  0
  3  4  2  0  0  0  0
  4 12  1  0  0  0  0
  5  4  1  0  0  0  0
  5 11  1  0  0  0  0
  6  5  2  0  0  0  0
  7  1  1  0  0  0  0
  8  9  3  0  0  0  0
 10  6  1  0  0  0  0
 12 13  2  0  0  0  0
 12 14  2  0  0  0  0
M  RAD  2   2   2   3   2
M  END
