Coordinates from ORCA-job 2-NO2-C6H3-N2-B3LYPG-aug-cc-pVDZ-scan-d09-49-n400
 OpenBabel11091809053D

 14 13  0  0  0  0  0  0  0  0999 V2000
   -2.0040    0.0584   -1.0644 C   0  0  0  0  0  0  0  0  0  0  0  0
   -0.6375    0.1725   -0.8587 C   0  0  0  0  0  0  0  0  0  0  0  0
   -0.0377    0.8573    0.0095 C   0  0  0  0  0  0  0  0  0  0  0  0
   -0.6911    1.6918    0.8999 C   0  0  0  0  0  0  0  0  0  0  0  0
   -2.0933    1.7055    0.7636 C   0  0  0  0  0  0  0  0  0  0  0  0
   -2.7316    0.9077   -0.1993 C   0  0  0  0  0  0  0  0  0  0  0  0
   -2.4953   -0.5785   -1.7982 H   0  0  0  0  0  0  0  0  0  0  0  0
    2.0773    1.2348   -0.2421 N   0  0  0  0  0  0  0  0  0  0  0  0
    2.9258    0.5284   -0.1550 N   0  0  0  0  0  0  0  0  0  0  0  0
   -3.8193    0.9423   -0.2804 H   0  0  0  0  0  0  0  0  0  0  0  0
   -2.6728    2.3363    1.4355 H   0  0  0  0  0  0  0  0  0  0  0  0
   -0.0432    2.4748    1.9635 N   0  0  0  0  0  0  0  0  0  0  0  0
    1.1340    2.2273    2.2071 O   0  0  0  0  0  0  0  0  0  0  0  0
   -0.7224    3.3198    2.5415 O   0  0  0  0  0  0  0  0  0  0  0  0
  1  2  2  0  0  0  0
  1  6  1  0  0  0  0
  2  3  1  0  0  0  0
  3  4  2  0  0  0  0
  4 12  1  0  0  0  0
  5  4  1  0  0  0  0
  5 11  1  0  0  0  0
  6  5  2  0  0  0  0
  7  1  1  0  0  0  0
  8  9  3  0  0  0  0
 10  6  1  0  0  0  0
 12 13  2  0  0  0  0
 12 14  2  0  0  0  0
M  RAD  2   2   2   3   2
M  END
