Coordinates from ORCA-job 2-NO2-C6H3-N2-B3LYPG-aug-cc-pVDZ-scan-d09-49-n400
 OpenBabel11091809053D

 14 13  0  0  0  0  0  0  0  0999 V2000
   -1.9816    0.0728   -1.0729 C   0  0  0  0  0  0  0  0  0  0  0  0
   -0.6063    0.2021   -0.9099 C   0  0  0  0  0  0  0  0  0  0  0  0
   -0.0283    0.8941   -0.0261 C   0  0  0  0  0  0  0  0  0  0  0  0
   -0.6776    1.7070    0.8873 C   0  0  0  0  0  0  0  0  0  0  0  0
   -2.0807    1.6941    0.7724 C   0  0  0  0  0  0  0  0  0  0  0  0
   -2.7161    0.8947   -0.1909 C   0  0  0  0  0  0  0  0  0  0  0  0
   -2.4756   -0.5663   -1.8040 H   0  0  0  0  0  0  0  0  0  0  0  0
    1.9849    1.2015   -0.1865 N   0  0  0  0  0  0  0  0  0  0  0  0
    2.8371    0.4943   -0.1301 N   0  0  0  0  0  0  0  0  0  0  0  0
   -3.8053    0.9092   -0.2557 H   0  0  0  0  0  0  0  0  0  0  0  0
   -2.6614    2.3031    1.4629 H   0  0  0  0  0  0  0  0  0  0  0  0
   -0.0342    2.4873    1.9543 N   0  0  0  0  0  0  0  0  0  0  0  0
    1.1460    2.2473    2.1957 O   0  0  0  0  0  0  0  0  0  0  0  0
   -0.7121    3.3371    2.5257 O   0  0  0  0  0  0  0  0  0  0  0  0
  1  2  2  0  0  0  0
  1  6  1  0  0  0  0
  2  3  1  0  0  0  0
  3  4  2  0  0  0  0
  4 12  1  0  0  0  0
  5  4  1  0  0  0  0
  5 11  1  0  0  0  0
  6  5  2  0  0  0  0
  7  1  1  0  0  0  0
  8  9  3  0  0  0  0
 10  6  1  0  0  0  0
 12 13  2  0  0  0  0
 12 14  2  0  0  0  0
M  RAD  2   2   2   3   2
M  END
