Coordinates from ORCA-job 2-NO2-C6H3-N2-B3LYPG-aug-cc-pVDZ-scan-d09-49-n400
 OpenBabel11091809053D

 14 14  0  0  0  0  0  0  0  0999 V2000
   -1.8934    0.1235   -1.0663 C   0  0  0  0  0  0  0  0  0  0  0  0
   -0.4705    0.1041   -0.9997 C   0  0  0  0  0  0  0  0  0  0  0  0
   -0.0059    0.8939   -0.0303 C   0  0  0  0  0  0  0  0  0  0  0  0
   -0.6706    1.7091    0.8982 C   0  0  0  0  0  0  0  0  0  0  0  0
   -2.0585    1.6975    0.7969 C   0  0  0  0  0  0  0  0  0  0  0  0
   -2.6622    0.8986   -0.1922 C   0  0  0  0  0  0  0  0  0  0  0  0
   -2.4114   -0.4797   -1.8171 H   0  0  0  0  0  0  0  0  0  0  0  0
    1.6032    0.8856    0.0614 N   0  0  0  0  0  0  0  0  0  0  0  0
    2.6551    0.6276   -0.1793 N   0  0  0  0  0  0  0  0  0  0  0  0
   -3.7514    0.8937   -0.2668 H   0  0  0  0  0  0  0  0  0  0  0  0
   -2.6435    2.3051    1.4832 H   0  0  0  0  0  0  0  0  0  0  0  0
   -0.0139    2.5284    1.9149 N   0  0  0  0  0  0  0  0  0  0  0  0
    1.2211    2.4932    1.9512 O   0  0  0  0  0  0  0  0  0  0  0  0
   -0.7093    3.1979    2.6684 O   0  0  0  0  0  0  0  0  0  0  0  0
  1  2  2  0  0  0  0
  1  6  1  0  0  0  0
  2  3  1  0  0  0  0
  3  8  1  0  0  0  0
  3  4  2  0  0  0  0
  4 12  1  0  0  0  0
  5  4  1  0  0  0  0
  5 11  1  0  0  0  0
  6  5  2  0  0  0  0
  7  1  1  0  0  0  0
  9  8  1  0  0  0  0
 10  6  1  0  0  0  0
 12 13  2  0  0  0  0
 12 14  2  0  0  0  0
M  RAD  3   2   2   8   2   9   3
M  END
