Coordinates from ORCA-job 2-NO2-C6H3-N2-B3LYPG-aug-cc-pVDZ-scan-d09-49-n400
 OpenBabel11091809053D

 14 14  0  0  0  0  0  0  0  0999 V2000
   -1.8530    0.2538   -1.1598 C   0  0  0  0  0  0  0  0  0  0  0  0
   -0.4614    0.0744   -1.1111 C   0  0  0  0  0  0  0  0  0  0  0  0
    0.2514    0.8571    0.0215 C   0  0  0  0  0  0  0  0  0  0  0  0
   -0.6136    1.6772    0.8826 C   0  0  0  0  0  0  0  0  0  0  0  0
   -1.9801    1.5967    0.8604 C   0  0  0  0  0  0  0  0  0  0  0  0
   -2.6121    0.8373   -0.1462 C   0  0  0  0  0  0  0  0  0  0  0  0
   -2.3697   -0.1917   -2.0149 H   0  0  0  0  0  0  0  0  0  0  0  0
    1.1839    0.7143    0.1351 N   0  0  0  0  0  0  0  0  0  0  0  0
    2.3166    0.4936    0.2276 N   0  0  0  0  0  0  0  0  0  0  0  0
   -3.7002    0.7482   -0.1392 H   0  0  0  0  0  0  0  0  0  0  0  0
   -2.5527    2.1708    1.5849 H   0  0  0  0  0  0  0  0  0  0  0  0
    0.0264    2.6369    1.7965 N   0  0  0  0  0  0  0  0  0  0  0  0
    1.1820    2.9667    1.5340 O   0  0  0  0  0  0  0  0  0  0  0  0
   -0.6286    3.0433    2.7511 O   0  0  0  0  0  0  0  0  0  0  0  0
  1  2  2  0  0  0  0
  1  6  1  0  0  0  0
  2  3  1  0  0  0  0
  3  8  1  0  0  0  0
  3  4  2  0  0  0  0
  4 12  1  0  0  0  0
  5  4  1  0  0  0  0
  5 11  1  0  0  0  0
  6 10  1  0  0  0  0
  6  5  2  0  0  0  0
  7  1  1  0  0  0  0
  8  9  1  0  0  0  0
 12 14  2  0  0  0  0
 13 12  2  0  0  0  0
M  RAD  3   2   2   8   2   9   3
M  END
