Coordinates from ORCA-job 2-NO2-C6H3-N2-B3LYPG-aug-cc-pVDZ-scan-d09-49-n400
 OpenBabel11091809053D

 14 14  0  0  0  0  0  0  0  0999 V2000
   -1.8640    0.2395   -1.1504 C   0  0  0  0  0  0  0  0  0  0  0  0
   -0.4573    0.1008   -1.0949 C   0  0  0  0  0  0  0  0  0  0  0  0
    0.1646    0.8705   -0.0177 C   0  0  0  0  0  0  0  0  0  0  0  0
   -0.6258    1.6834    0.8890 C   0  0  0  0  0  0  0  0  0  0  0  0
   -1.9963    1.6028    0.8619 C   0  0  0  0  0  0  0  0  0  0  0  0
   -2.6222    0.8297   -0.1416 C   0  0  0  0  0  0  0  0  0  0  0  0
   -2.3849   -0.2055   -2.0027 H   0  0  0  0  0  0  0  0  0  0  0  0
    1.2964    0.7105    0.1143 N   0  0  0  0  0  0  0  0  0  0  0  0
    2.4041    0.4979    0.1877 N   0  0  0  0  0  0  0  0  0  0  0  0
   -3.7110    0.7468   -0.1380 H   0  0  0  0  0  0  0  0  0  0  0  0
   -2.5746    2.1816    1.5780 H   0  0  0  0  0  0  0  0  0  0  0  0
    0.0150    2.6320    1.8091 N   0  0  0  0  0  0  0  0  0  0  0  0
    1.2097    2.8705    1.6204 O   0  0  0  0  0  0  0  0  0  0  0  0
   -0.6647    3.1178    2.7073 O   0  0  0  0  0  0  0  0  0  0  0  0
  1  2  2  0  0  0  0
  1  6  1  0  0  0  0
  2  3  1  0  0  0  0
  3  8  1  0  0  0  0
  3  4  2  0  0  0  0
  4 12  1  0  0  0  0
  5  4  1  0  0  0  0
  5 11  1  0  0  0  0
  6 10  1  0  0  0  0
  6  5  2  0  0  0  0
  7  1  1  0  0  0  0
  8  9  1  0  0  0  0
 12 14  2  0  0  0  0
 13 12  2  0  0  0  0
M  RAD  3   2   2   8   2   9   3
M  END
