Coordinates from ORCA-job 2-NO2-C6H3-N2-B3LYPG-aug-cc-pVDZ-scan-d09-49-n400
 OpenBabel11091809053D

 14 13  0  0  0  0  0  0  0  0999 V2000
   -1.9745    0.0756   -1.0737 C   0  0  0  0  0  0  0  0  0  0  0  0
   -0.5966    0.2077   -0.9236 C   0  0  0  0  0  0  0  0  0  0  0  0
   -0.0247    0.9030   -0.0356 C   0  0  0  0  0  0  0  0  0  0  0  0
   -0.6728    1.7120    0.8826 C   0  0  0  0  0  0  0  0  0  0  0  0
   -2.0758    1.6927    0.7735 C   0  0  0  0  0  0  0  0  0  0  0  0
   -2.7106    0.8920   -0.1890 C   0  0  0  0  0  0  0  0  0  0  0  0
   -2.4698   -0.5651   -1.8029 H   0  0  0  0  0  0  0  0  0  0  0  0
    1.9522    1.1923   -0.1750 N   0  0  0  0  0  0  0  0  0  0  0  0
    2.8093    0.4901   -0.1216 N   0  0  0  0  0  0  0  0  0  0  0  0
   -3.8001    0.9018   -0.2501 H   0  0  0  0  0  0  0  0  0  0  0  0
   -2.6564    2.2973    1.4679 H   0  0  0  0  0  0  0  0  0  0  0  0
   -0.0299    2.4929    1.9490 N   0  0  0  0  0  0  0  0  0  0  0  0
    1.1488    2.2491    2.1951 O   0  0  0  0  0  0  0  0  0  0  0  0
   -0.7101    3.3370    2.5258 O   0  0  0  0  0  0  0  0  0  0  0  0
  1  2  2  0  0  0  0
  1  6  1  0  0  0  0
  2  3  1  0  0  0  0
  3  4  2  0  0  0  0
  4 12  1  0  0  0  0
  5  4  1  0  0  0  0
  5 11  1  0  0  0  0
  6  5  2  0  0  0  0
  7  1  1  0  0  0  0
  8  9  3  0  0  0  0
 10  6  1  0  0  0  0
 12 13  2  0  0  0  0
 12 14  2  0  0  0  0
M  RAD  2   2   2   3   2
M  END
