Coordinates from ORCA-job 2-NO2-C6H3-N2-B3LYPG-aug-cc-pVDZ-scan-d09-49-n400
 OpenBabel11091809053D

 14 13  0  0  0  0  0  0  0  0999 V2000
   -2.1377   -0.0046   -0.9975 C   0  0  0  0  0  0  0  0  0  0  0  0
   -0.8140   -0.0400   -0.6107 C   0  0  0  0  0  0  0  0  0  0  0  0
   -0.1768    0.6133    0.2480 C   0  0  0  0  0  0  0  0  0  0  0  0
   -0.8067    1.5880    1.0023 C   0  0  0  0  0  0  0  0  0  0  0  0
   -2.1782    1.7646    0.7283 C   0  0  0  0  0  0  0  0  0  0  0  0
   -2.8220    0.9861   -0.2478 C   0  0  0  0  0  0  0  0  0  0  0  0
   -2.6267   -0.6145   -1.7533 H   0  0  0  0  0  0  0  0  0  0  0  0
    2.6792    1.3984   -0.5416 N   0  0  0  0  0  0  0  0  0  0  0  0
    3.5461    0.7433   -0.3428 N   0  0  0  0  0  0  0  0  0  0  0  0
   -3.8845    1.1440   -0.4396 H   0  0  0  0  0  0  0  0  0  0  0  0
   -2.7312    2.5153    1.2903 H   0  0  0  0  0  0  0  0  0  0  0  0
   -0.1257    2.3903    2.0326 N   0  0  0  0  0  0  0  0  0  0  0  0
    1.0592    2.1532    2.2347 O   0  0  0  0  0  0  0  0  0  0  0  0
   -0.7921    3.2409    2.6194 O   0  0  0  0  0  0  0  0  0  0  0  0
  1  2  2  0  0  0  0
  1  6  1  0  0  0  0
  2  3  1  0  0  0  0
  3  4  2  0  0  0  0
  4 12  1  0  0  0  0
  5  4  1  0  0  0  0
  5 11  1  0  0  0  0
  6  5  2  0  0  0  0
  7  1  1  0  0  0  0
  8  9  3  0  0  0  0
 10  6  1  0  0  0  0
 12 13  2  0  0  0  0
 12 14  2  0  0  0  0
M  RAD  2   2   2   3   2
M  END
