Coordinates from ORCA-job 2-NO2-C6H3-N2-B3LYPG-aug-cc-pVDZ-scan-d09-49-n400
 OpenBabel11091809053D

 14 13  0  0  0  0  0  0  0  0999 V2000
   -2.4962   -0.0896   -0.8944 C   0  0  0  0  0  0  0  0  0  0  0  0
   -1.1971   -0.2843   -0.4764 C   0  0  0  0  0  0  0  0  0  0  0  0
   -0.4687    0.3391    0.3308 C   0  0  0  0  0  0  0  0  0  0  0  0
   -0.9569    1.4545    0.9895 C   0  0  0  0  0  0  0  0  0  0  0  0
   -2.2869    1.8043    0.6806 C   0  0  0  0  0  0  0  0  0  0  0  0
   -3.0326    1.0488   -0.2394 C   0  0  0  0  0  0  0  0  0  0  0  0
   -3.0635   -0.6828   -1.6075 H   0  0  0  0  0  0  0  0  0  0  0  0
    3.8246    1.8512   -0.6166 N   0  0  0  0  0  0  0  0  0  0  0  0
    4.5532    1.1044   -0.2551 N   0  0  0  0  0  0  0  0  0  0  0  0
   -4.0599    1.3419   -0.4615 H   0  0  0  0  0  0  0  0  0  0  0  0
   -2.7269    2.6722    1.1688 H   0  0  0  0  0  0  0  0  0  0  0  0
   -0.1666    2.2393    1.9548 N   0  0  0  0  0  0  0  0  0  0  0  0
    0.9909    1.8893    2.1492 O   0  0  0  0  0  0  0  0  0  0  0  0
   -0.7246    3.1902    2.4997 O   0  0  0  0  0  0  0  0  0  0  0  0
  1  2  2  0  0  0  0
  1  6  1  0  0  0  0
  2  3  1  0  0  0  0
  3  4  2  0  0  0  0
  4 12  1  0  0  0  0
  5  4  1  0  0  0  0
  5 11  1  0  0  0  0
  6  5  2  0  0  0  0
  7  1  1  0  0  0  0
  8  9  3  0  0  0  0
 10  6  1  0  0  0  0
 12 13  2  0  0  0  0
 12 14  2  0  0  0  0
M  RAD  2   2   2   3   2
M  END
