Coordinates from ORCA-job 2-NO2-C6H3-N2-B3LYPG-aug-cc-pVDZ-scan-d09-49-n400
 OpenBabel11091809053D

 14 13  0  0  0  0  0  0  0  0999 V2000
   -2.1604   -0.0116   -0.9887 C   0  0  0  0  0  0  0  0  0  0  0  0
   -0.8407   -0.0633   -0.5902 C   0  0  0  0  0  0  0  0  0  0  0  0
   -0.2005    0.5875    0.2683 C   0  0  0  0  0  0  0  0  0  0  0  0
   -0.8223    1.5770    1.0098 C   0  0  0  0  0  0  0  0  0  0  0  0
   -2.1892    1.7703    0.7244 C   0  0  0  0  0  0  0  0  0  0  0  0
   -2.8364    0.9938   -0.2511 C   0  0  0  0  0  0  0  0  0  0  0  0
   -2.6517   -0.6194   -1.7446 H   0  0  0  0  0  0  0  0  0  0  0  0
    2.7696    1.4228   -0.5647 N   0  0  0  0  0  0  0  0  0  0  0  0
    3.6374    0.7708   -0.3603 N   0  0  0  0  0  0  0  0  0  0  0  0
   -3.8951    1.1650   -0.4521 H   0  0  0  0  0  0  0  0  0  0  0  0
   -2.7358    2.5331    1.2763 H   0  0  0  0  0  0  0  0  0  0  0  0
   -0.1361    2.3795    2.0366 N   0  0  0  0  0  0  0  0  0  0  0  0
    1.0479    2.1373    2.2378 O   0  0  0  0  0  0  0  0  0  0  0  0
   -0.7976    3.2356    2.6209 O   0  0  0  0  0  0  0  0  0  0  0  0
  1  2  2  0  0  0  0
  1  6  1  0  0  0  0
  2  3  1  0  0  0  0
  3  4  2  0  0  0  0
  4 12  1  0  0  0  0
  5  4  1  0  0  0  0
  5 11  1  0  0  0  0
  6  5  2  0  0  0  0
  7  1  1  0  0  0  0
  8  9  3  0  0  0  0
 10  6  1  0  0  0  0
 12 13  2  0  0  0  0
 12 14  2  0  0  0  0
M  RAD  2   2   2   3   2
M  END
