Coordinates from ORCA-job 2-NO2-C6H3-N2-B3LYPG-aug-cc-pVDZ-scan-d09-49-n400
 OpenBabel11091809053D

 14 14  0  0  0  0  0  0  0  0999 V2000
   -1.8539    0.2626   -1.1649 C   0  0  0  0  0  0  0  0  0  0  0  0
   -0.4607    0.0901   -1.1076 C   0  0  0  0  0  0  0  0  0  0  0  0
    0.2314    0.8539    0.0127 C   0  0  0  0  0  0  0  0  0  0  0  0
   -0.6146    1.6769    0.8848 C   0  0  0  0  0  0  0  0  0  0  0  0
   -1.9817    1.5888    0.8666 C   0  0  0  0  0  0  0  0  0  0  0  0
   -2.6127    0.8282   -0.1405 C   0  0  0  0  0  0  0  0  0  0  0  0
   -2.3697   -0.1684   -2.0276 H   0  0  0  0  0  0  0  0  0  0  0  0
    1.2020    0.7031    0.1386 N   0  0  0  0  0  0  0  0  0  0  0  0
    2.3263    0.4813    0.2390 N   0  0  0  0  0  0  0  0  0  0  0  0
   -3.7000    0.7300   -0.1276 H   0  0  0  0  0  0  0  0  0  0  0  0
   -2.5560    2.1606    1.5917 H   0  0  0  0  0  0  0  0  0  0  0  0
    0.0248    2.6440    1.7890 N   0  0  0  0  0  0  0  0  0  0  0  0
    1.1873    2.9580    1.5348 O   0  0  0  0  0  0  0  0  0  0  0  0
   -0.6335    3.0693    2.7334 O   0  0  0  0  0  0  0  0  0  0  0  0
  1  2  2  0  0  0  0
  1  6  1  0  0  0  0
  2  3  1  0  0  0  0
  3  8  1  0  0  0  0
  3  4  2  0  0  0  0
  4 12  1  0  0  0  0
  5  4  1  0  0  0  0
  5 11  1  0  0  0  0
  6 10  1  0  0  0  0
  6  5  2  0  0  0  0
  7  1  1  0  0  0  0
  8  9  1  0  0  0  0
 12 14  2  0  0  0  0
 13 12  2  0  0  0  0
M  RAD  3   2   2   8   2   9   3
M  END
