Coordinates from ORCA-job 2-NO2-C6H3-N2-B3LYPG-aug-cc-pVDZ-scan-d09-49-n400
 OpenBabel11091809053D

 14 13  0  0  0  0  0  0  0  0999 V2000
   -2.0470    0.0242   -1.0329 C   0  0  0  0  0  0  0  0  0  0  0  0
   -0.7047    0.0709   -0.7168 C   0  0  0  0  0  0  0  0  0  0  0  0
   -0.0715    0.7382    0.1357 C   0  0  0  0  0  0  0  0  0  0  0  0
   -0.7333    1.6409    0.9519 C   0  0  0  0  0  0  0  0  0  0  0  0
   -2.1233    1.7391    0.7403 C   0  0  0  0  0  0  0  0  0  0  0  0
   -2.7604    0.9499   -0.2308 C   0  0  0  0  0  0  0  0  0  0  0  0
   -2.5304   -0.6031   -1.7784 H   0  0  0  0  0  0  0  0  0  0  0  0
    2.2714    1.2997   -0.3803 N   0  0  0  0  0  0  0  0  0  0  0  0
    3.1471    0.6340   -0.2711 N   0  0  0  0  0  0  0  0  0  0  0  0
   -3.8378    1.0469   -0.3738 H   0  0  0  0  0  0  0  0  0  0  0  0
   -2.6962    2.4327    1.3532 H   0  0  0  0  0  0  0  0  0  0  0  0
   -0.0760    2.4334    2.0054 N   0  0  0  0  0  0  0  0  0  0  0  0
    1.1081    2.2027    2.2240 O   0  0  0  0  0  0  0  0  0  0  0  0
   -0.7572    3.2690    2.5959 O   0  0  0  0  0  0  0  0  0  0  0  0
  1  2  2  0  0  0  0
  1  6  1  0  0  0  0
  2  3  1  0  0  0  0
  3  4  2  0  0  0  0
  4 12  1  0  0  0  0
  5  4  1  0  0  0  0
  5 11  1  0  0  0  0
  6  5  2  0  0  0  0
  7  1  1  0  0  0  0
  8  9  3  0  0  0  0
 10  6  1  0  0  0  0
 12 13  2  0  0  0  0
 12 14  2  0  0  0  0
M  RAD  2   2   2   3   2
M  END
