Coordinates from ORCA-job 2-NO2-C6H3-N2-B3LYPG-aug-cc-pVDZ-scan-d09-49-n400
 OpenBabel11091809053D

 14 14  0  0  0  0  0  0  0  0999 V2000
   -1.9553    0.0837   -1.0739 C   0  0  0  0  0  0  0  0  0  0  0  0
   -0.5704    0.2163   -0.9531 C   0  0  0  0  0  0  0  0  0  0  0  0
   -0.0181    0.9190   -0.0490 C   0  0  0  0  0  0  0  0  0  0  0  0
   -0.6659    1.7206    0.8778 C   0  0  0  0  0  0  0  0  0  0  0  0
   -2.0678    1.6901    0.7774 C   0  0  0  0  0  0  0  0  0  0  0  0
   -2.6980    0.8875   -0.1865 C   0  0  0  0  0  0  0  0  0  0  0  0
   -2.4528   -0.5598   -1.8001 H   0  0  0  0  0  0  0  0  0  0  0  0
    1.8769    1.1627   -0.1342 N   0  0  0  0  0  0  0  0  0  0  0  0
    2.7533    0.4806   -0.1286 N   0  0  0  0  0  0  0  0  0  0  0  0
   -3.7879    0.8883   -0.2435 H   0  0  0  0  0  0  0  0  0  0  0  0
   -2.6492    2.2848    1.4793 H   0  0  0  0  0  0  0  0  0  0  0  0
   -0.0255    2.5008    1.9445 N   0  0  0  0  0  0  0  0  0  0  0  0
    1.1563    2.2629    2.1872 O   0  0  0  0  0  0  0  0  0  0  0  0
   -0.7066    3.3409    2.5251 O   0  0  0  0  0  0  0  0  0  0  0  0
  1  2  2  0  0  0  0
  1  6  1  0  0  0  0
  2  3  1  0  0  0  0
  3  4  2  0  0  0  0
  4 12  1  0  0  0  0
  5  4  1  0  0  0  0
  5 11  1  0  0  0  0
  6  5  2  0  0  0  0
  7  1  1  0  0  0  0
  8  9  2  0  0  0  0
  8  3  1  0  0  0  0
 10  6  1  0  0  0  0
 12 13  2  0  0  0  0
 12 14  2  0  0  0  0
M  RAD  2   2   2   9   2
M  END
