Coordinates from ORCA-job 2-NO2-C6H3-N2-B3LYPG-aug-cc-pVDZ-scan-d09-49-n400
 OpenBabel11091809053D

 14 14  0  0  0  0  0  0  0  0999 V2000
   -1.8620    0.2495   -1.1566 C   0  0  0  0  0  0  0  0  0  0  0  0
   -0.4590    0.1028   -1.0980 C   0  0  0  0  0  0  0  0  0  0  0  0
    0.1772    0.8658   -0.0122 C   0  0  0  0  0  0  0  0  0  0  0  0
   -0.6230    1.6809    0.8883 C   0  0  0  0  0  0  0  0  0  0  0  0
   -1.9928    1.5955    0.8656 C   0  0  0  0  0  0  0  0  0  0  0  0
   -2.6202    0.8260   -0.1389 C   0  0  0  0  0  0  0  0  0  0  0  0
   -2.3811   -0.1853   -2.0153 H   0  0  0  0  0  0  0  0  0  0  0  0
    1.2776    0.7033    0.1234 N   0  0  0  0  0  0  0  0  0  0  0  0
    2.3870    0.4870    0.2087 N   0  0  0  0  0  0  0  0  0  0  0  0
   -3.7084    0.7356   -0.1304 H   0  0  0  0  0  0  0  0  0  0  0  0
   -2.5702    2.1715    1.5848 H   0  0  0  0  0  0  0  0  0  0  0  0
    0.0171    2.6381    1.8003 N   0  0  0  0  0  0  0  0  0  0  0  0
    1.2043    2.8964    1.5934 O   0  0  0  0  0  0  0  0  0  0  0  0
   -0.6575    3.1112    2.7094 O   0  0  0  0  0  0  0  0  0  0  0  0
  1  2  2  0  0  0  0
  1  6  1  0  0  0  0
  2  3  1  0  0  0  0
  3  8  1  0  0  0  0
  3  4  2  0  0  0  0
  4 12  1  0  0  0  0
  5  4  1  0  0  0  0
  5 11  1  0  0  0  0
  6 10  1  0  0  0  0
  6  5  2  0  0  0  0
  7  1  1  0  0  0  0
  8  9  1  0  0  0  0
 12 14  2  0  0  0  0
 13 12  2  0  0  0  0
M  RAD  3   2   2   8   2   9   3
M  END
