Coordinates from ORCA-job 2-NO2-C6H3-N2-B3LYPG-aug-cc-pVDZ-scan-d09-49-n400
 OpenBabel11091809053D

 14 13  0  0  0  0  0  0  0  0999 V2000
   -2.1657   -0.0132   -0.9867 C   0  0  0  0  0  0  0  0  0  0  0  0
   -0.8469   -0.0684   -0.5857 C   0  0  0  0  0  0  0  0  0  0  0  0
   -0.2060    0.5817    0.2726 C   0  0  0  0  0  0  0  0  0  0  0  0
   -0.8259    1.5745    1.0114 C   0  0  0  0  0  0  0  0  0  0  0  0
   -2.1917    1.7716    0.7235 C   0  0  0  0  0  0  0  0  0  0  0  0
   -2.8397    0.9955   -0.2517 C   0  0  0  0  0  0  0  0  0  0  0  0
   -2.6576   -0.6206   -1.7426 H   0  0  0  0  0  0  0  0  0  0  0  0
    2.7905    1.4286   -0.5699 N   0  0  0  0  0  0  0  0  0  0  0  0
    3.6582    0.7770   -0.3639 N   0  0  0  0  0  0  0  0  0  0  0  0
   -3.8976    1.1697   -0.4548 H   0  0  0  0  0  0  0  0  0  0  0  0
   -2.7368    2.5371    1.2732 H   0  0  0  0  0  0  0  0  0  0  0  0
   -0.1385    2.3770    2.0373 N   0  0  0  0  0  0  0  0  0  0  0  0
    1.0452    2.1333    2.2386 O   0  0  0  0  0  0  0  0  0  0  0  0
   -0.7987    3.2346    2.6209 O   0  0  0  0  0  0  0  0  0  0  0  0
  1  2  2  0  0  0  0
  1  6  1  0  0  0  0
  2  3  1  0  0  0  0
  3  4  2  0  0  0  0
  4 12  1  0  0  0  0
  5  4  1  0  0  0  0
  5 11  1  0  0  0  0
  6  5  2  0  0  0  0
  7  1  1  0  0  0  0
  8  9  3  0  0  0  0
 10  6  1  0  0  0  0
 12 13  2  0  0  0  0
 12 14  2  0  0  0  0
M  RAD  2   2   2   3   2
M  END
