Coordinates from ORCA-job 2-NO2-C6H3-N2-B3LYPG-aug-cc-pVDZ-scan-d09-49-n400
 OpenBabel11091809053D

 14 13  0  0  0  0  0  0  0  0999 V2000
   -2.0941    0.0094   -1.0149 C   0  0  0  0  0  0  0  0  0  0  0  0
   -0.7610    0.0102   -0.6582 C   0  0  0  0  0  0  0  0  0  0  0  0
   -0.1296    0.6707    0.1994 C   0  0  0  0  0  0  0  0  0  0  0  0
   -0.7739    1.6127    0.9823 C   0  0  0  0  0  0  0  0  0  0  0  0
   -2.1548    1.7525    0.7353 C   0  0  0  0  0  0  0  0  0  0  0  0
   -2.7936    0.9692   -0.2400 C   0  0  0  0  0  0  0  0  0  0  0  0
   -2.5799   -0.6071   -1.7676 H   0  0  0  0  0  0  0  0  0  0  0  0
    2.4949    1.3530   -0.4766 N   0  0  0  0  0  0  0  0  0  0  0  0
    3.3620    0.6891   -0.3093 N   0  0  0  0  0  0  0  0  0  0  0  0
   -3.8638    1.0978   -0.4096 H   0  0  0  0  0  0  0  0  0  0  0  0
   -2.7193    2.4770    1.3199 H   0  0  0  0  0  0  0  0  0  0  0  0
   -0.1033    2.4114    2.0216 N   0  0  0  0  0  0  0  0  0  0  0  0
    1.0808    2.1754    2.2314 O   0  0  0  0  0  0  0  0  0  0  0  0
   -0.7755    3.2570    2.6086 O   0  0  0  0  0  0  0  0  0  0  0  0
  1  2  2  0  0  0  0
  1  6  1  0  0  0  0
  2  3  1  0  0  0  0
  3  4  2  0  0  0  0
  4 12  1  0  0  0  0
  5  4  1  0  0  0  0
  5 11  1  0  0  0  0
  6  5  2  0  0  0  0
  7  1  1  0  0  0  0
  8  9  3  0  0  0  0
 10  6  1  0  0  0  0
 12 13  2  0  0  0  0
 12 14  2  0  0  0  0
M  RAD  2   2   2   3   2
M  END
