14
Coordinates from ORCA-job Ph-N2-Cl-B3LYPG-aug-cc-pVDZ-scan-d09-49-n400
  C   -1.62127126071171     -1.49717982127108     -1.33312537402209
  C   -0.20882357592974     -1.55502099196650     -1.36015630148191
  C   0.28651644021496     -0.39171151574147     -0.85679257533830
  C   -0.16873526063392      0.73561280163571     -0.36763413409601
  C   -1.58998811467805      0.74900451020458     -0.35981920776003
  C   -2.28908860882581     -0.36420055163568     -0.84122576897773
  H   -2.18067588787029     -2.35669995860015     -1.70482676329382
  H   0.35889174930821     -2.40462131659334     -1.72911181698261
  H   0.48035455525900      1.65608671025927      0.03012669762958
  H   -2.10765571043474      1.62968889211922      0.02251320260926
  N   2.42784599442280     -0.31047177593765     -0.82487460201882
  N   3.15021717152301      0.45868567716326     -0.48530198190390
  Cl  1.55031094190521      2.94402714873917      0.58634013606317
  H   -3.37919843354891     -0.35319980837533     -0.83491151042679
