14
Coordinates from ORCA-job Ph-N2-Cl-B3LYPG-aug-cc-pVDZ-scan-d09-49-n400
  C   -1.50515922313119     -1.49183724401709     -1.33105254710223
  C   -0.11713640784538     -1.38868395964501     -1.28756684773628
  C   0.46384262762631     -0.21588637722261     -0.77990049166689
  C   -0.31369974031540      0.85761283022137     -0.31404281469668
  C   -1.70192503420747      0.73193733461903     -0.36726490942955
  C   -2.29591183739199     -0.43157869660049     -0.87092388587547
  H   -1.97027464752878     -2.39589855837869     -1.72239182537236
  H   0.52570383794544     -2.19506256343920     -1.63754273472056
  H   0.17582990738705      1.74856423442710      0.07157093182834
  H   -2.32469129924291      1.55226339847801     -0.01124434282448
  N   1.87481878378863     -0.18866432412188     -0.76934614446961
  N   2.80430777911631      0.45788848526007     -0.49019971371852
  Cl  2.47568211158528      2.41243518479477      0.35639109986715
  H   -3.38268685778591     -0.51308974437535     -0.90528577408286
