Coordinates from ORCA-job CH3-N2+-scan-d09-169-n800
 OpenBabel09191814093D

  6  4  0  0  0  0  0  0  0  0999 V2000
   -0.2346    0.2388    0.0560 C   0  0  0  0  0  0  0  0  0  0  0  0
    0.2609    0.4706    0.9991 H   0  0  0  0  0  0  0  0  0  0  0  0
    0.2609    0.4706   -0.8870 H   0  0  0  0  0  0  0  0  0  0  0  0
   -1.2790   -0.0738    0.0560 H   0  0  0  0  0  0  0  0  0  0  0  0
    0.5327   -1.9313    0.0560 N   0  0  0  0  0  0  0  0  0  0  0  0
    0.9007   -2.9725    0.0560 N   0  0  0  0  0  0  0  0  0  0  0  0
  1  2  1  0  0  0  0
  3  1  1  0  0  0  0
  4  1  1  0  0  0  0
  6  5  3  0  0  0  0
M  RAD  1   1   2
M  END
