Coordinates from ORCA-job CH3-N2+-scan-d09-169-n800
 OpenBabel09191814093D

  6  4  0  0  0  0  0  0  0  0999 V2000
   -1.7211    4.4428    0.0561 C   0  0  0  0  0  0  0  0  0  0  0  0
   -1.2055    4.6252    1.0034 H   0  0  0  0  0  0  0  0  0  0  0  0
   -1.2055    4.6252   -0.8913 H   0  0  0  0  0  0  0  0  0  0  0  0
   -2.7525    4.0783    0.0560 H   0  0  0  0  0  0  0  0  0  0  0  0
    3.4822  -10.2621    0.0559 N   0  0  0  0  0  0  0  0  0  0  0  0
    3.8439  -11.3071    0.0559 N   0  0  0  0  0  0  0  0  0  0  0  0
  1  2  1  0  0  0  0
  3  1  1  0  0  0  0
  4  1  1  0  0  0  0
  6  5  3  0  0  0  0
M  RAD  1   1   2
M  END
