Coordinates from ORCA-job CH3-N2+-scan-d09-169-n800
 OpenBabel09191814093D

  6  4  0  0  0  0  0  0  0  0999 V2000
   -1.0913    2.6619    0.0560 C   0  0  0  0  0  0  0  0  0  0  0  0
   -0.5754    2.8443    1.0039 H   0  0  0  0  0  0  0  0  0  0  0  0
   -0.5754    2.8443   -0.8918 H   0  0  0  0  0  0  0  0  0  0  0  0
   -2.1233    2.2972    0.0560 H   0  0  0  0  0  0  0  0  0  0  0  0
    2.2201   -6.7011    0.0560 N   0  0  0  0  0  0  0  0  0  0  0  0
    2.5869   -7.7441    0.0560 N   0  0  0  0  0  0  0  0  0  0  0  0
  1  2  1  0  0  0  0
  3  1  1  0  0  0  0
  4  1  1  0  0  0  0
  6  5  3  0  0  0  0
M  RAD  1   1   2
M  END
