Coordinates from ORCA-job CH3-N2+-scan-d09-169-n800
 OpenBabel09191814093D

  6  5  0  0  0  0  0  0  0  0999 V2000
   -0.0244   -0.3558    0.0560 C   0  0  0  0  0  0  0  0  0  0  0  0
    0.2927    0.2644    0.9320 H   0  0  0  0  0  0  0  0  0  0  0  0
    0.2927    0.2645   -0.8199 H   0  0  0  0  0  0  0  0  0  0  0  0
   -1.1377   -0.2413    0.0560 H   0  0  0  0  0  0  0  0  0  0  0  0
    0.3223   -1.3365    0.0560 N   0  0  0  0  0  0  0  0  0  0  0  0
    0.6959   -2.3930    0.0560 N   0  0  0  0  0  0  0  0  0  0  0  0
  1  2  1  0  0  0  0
  3  1  1  0  0  0  0
  4  1  1  0  0  0  0
  5  1  1  0  0  0  0
  6  5  1  0  0  0  0
M  RAD  2   5   2   6   3
M  END
