Coordinates from ORCA-job CH3-N2+-scan-d09-169-n800
 OpenBabel09191814093D

  6  4  0  0  0  0  0  0  0  0999 V2000
   -0.2530    0.2907    0.0560 C   0  0  0  0  0  0  0  0  0  0  0  0
    0.2487    0.5071    1.0003 H   0  0  0  0  0  0  0  0  0  0  0  0
    0.2488    0.5071   -0.8882 H   0  0  0  0  0  0  0  0  0  0  0  0
   -1.2931   -0.0381    0.0560 H   0  0  0  0  0  0  0  0  0  0  0  0
    0.5610   -2.0115    0.0560 N   0  0  0  0  0  0  0  0  0  0  0  0
    0.9292   -3.0529    0.0560 N   0  0  0  0  0  0  0  0  0  0  0  0
  1  2  1  0  0  0  0
  3  1  1  0  0  0  0
  4  1  1  0  0  0  0
  6  5  3  0  0  0  0
M  RAD  1   1   2
M  END
