Coordinates from ORCA-job CH3-N2+-scan-d09-169-n800
 OpenBabel09191814093D

  6  4  0  0  0  0  0  0  0  0999 V2000
   -1.3851    3.4926    0.0561 C   0  0  0  0  0  0  0  0  0  0  0  0
   -0.8693    3.6749    1.0036 H   0  0  0  0  0  0  0  0  0  0  0  0
   -0.8693    3.6750   -0.8915 H   0  0  0  0  0  0  0  0  0  0  0  0
   -2.4167    3.1280    0.0560 H   0  0  0  0  0  0  0  0  0  0  0  0
    2.8084   -8.3622    0.0559 N   0  0  0  0  0  0  0  0  0  0  0  0
    3.1736   -9.4059    0.0559 N   0  0  0  0  0  0  0  0  0  0  0  0
  1  2  1  0  0  0  0
  3  1  1  0  0  0  0
  4  1  1  0  0  0  0
  6  5  3  0  0  0  0
M  RAD  1   1   2
M  END
