Coordinates from ORCA-job CH3-N2+-scan-d09-169-n800
 OpenBabel09191814093D

  6  5  0  0  0  0  0  0  0  0999 V2000
   -0.0386   -0.3156    0.0560 C   0  0  0  0  0  0  0  0  0  0  0  0
    0.2932    0.2741    0.9383 H   0  0  0  0  0  0  0  0  0  0  0  0
    0.2932    0.2741   -0.8262 H   0  0  0  0  0  0  0  0  0  0  0  0
   -1.1475   -0.2353    0.0560 H   0  0  0  0  0  0  0  0  0  0  0  0
    0.3348   -1.3718    0.0560 N   0  0  0  0  0  0  0  0  0  0  0  0
    0.7065   -2.4231    0.0560 N   0  0  0  0  0  0  0  0  0  0  0  0
  1  2  1  0  0  0  0
  3  1  1  0  0  0  0
  4  1  1  0  0  0  0
  5  1  1  0  0  0  0
  6  5  1  0  0  0  0
M  RAD  2   5   2   6   3
M  END
