Coordinates from ORCA-job CH3-N2+-scan-d09-169-n800
 OpenBabel09191814093D

  6  4  0  0  0  0  0  0  0  0999 V2000
   -1.5920    4.0778    0.0561 C   0  0  0  0  0  0  0  0  0  0  0  0
   -1.0764    4.2602    1.0035 H   0  0  0  0  0  0  0  0  0  0  0  0
   -1.0763    4.2602   -0.8913 H   0  0  0  0  0  0  0  0  0  0  0  0
   -2.6235    3.7133    0.0560 H   0  0  0  0  0  0  0  0  0  0  0  0
    3.2233   -9.5324    0.0559 N   0  0  0  0  0  0  0  0  0  0  0  0
    3.5866  -10.5768    0.0559 N   0  0  0  0  0  0  0  0  0  0  0  0
  1  2  1  0  0  0  0
  3  1  1  0  0  0  0
  4  1  1  0  0  0  0
  6  5  3  0  0  0  0
M  RAD  1   1   2
M  END
