Coordinates from ORCA-job CH3-N2+-scan-d09-169-n800
 OpenBabel09191814093D

  6  4  0  0  0  0  0  0  0  0999 V2000
   -1.8324    4.7575    0.0561 C   0  0  0  0  0  0  0  0  0  0  0  0
   -1.3168    4.9398    1.0034 H   0  0  0  0  0  0  0  0  0  0  0  0
   -1.3168    4.9399   -0.8912 H   0  0  0  0  0  0  0  0  0  0  0  0
   -2.8637    4.3930    0.0560 H   0  0  0  0  0  0  0  0  0  0  0  0
    3.7055  -10.8911    0.0559 N   0  0  0  0  0  0  0  0  0  0  0  0
    4.0657  -11.9367    0.0559 N   0  0  0  0  0  0  0  0  0  0  0  0
  1  2  1  0  0  0  0
  3  1  1  0  0  0  0
  4  1  1  0  0  0  0
  6  5  3  0  0  0  0
M  RAD  1   1   2
M  END
