Coordinates from ORCA-job CH3-N2+-scan-d09-169-n800
 OpenBabel09191814093D

  6  4  0  0  0  0  0  0  0  0999 V2000
   -1.1737    2.8947    0.0560 C   0  0  0  0  0  0  0  0  0  0  0  0
   -0.6578    3.0771    1.0038 H   0  0  0  0  0  0  0  0  0  0  0  0
   -0.6578    3.0771   -0.8917 H   0  0  0  0  0  0  0  0  0  0  0  0
   -2.2055    2.5301    0.0560 H   0  0  0  0  0  0  0  0  0  0  0  0
    2.3850   -7.1667    0.0560 N   0  0  0  0  0  0  0  0  0  0  0  0
    2.7514   -8.2099    0.0559 N   0  0  0  0  0  0  0  0  0  0  0  0
  1  2  1  0  0  0  0
  3  1  1  0  0  0  0
  4  1  1  0  0  0  0
  6  5  3  0  0  0  0
M  RAD  1   1   2
M  END
