Coordinates from ORCA-job CH3-N2+-scan-d09-169-n800
 OpenBabel09191814093D

  6  4  0  0  0  0  0  0  0  0999 V2000
   -1.0713    2.6052    0.0560 C   0  0  0  0  0  0  0  0  0  0  0  0
   -0.5554    2.7876    1.0039 H   0  0  0  0  0  0  0  0  0  0  0  0
   -0.5554    2.7877   -0.8918 H   0  0  0  0  0  0  0  0  0  0  0  0
   -2.1033    2.2406    0.0560 H   0  0  0  0  0  0  0  0  0  0  0  0
    2.1800   -6.5878    0.0560 N   0  0  0  0  0  0  0  0  0  0  0  0
    2.5469   -7.6308    0.0560 N   0  0  0  0  0  0  0  0  0  0  0  0
  1  2  1  0  0  0  0
  3  1  1  0  0  0  0
  4  1  1  0  0  0  0
  6  5  3  0  0  0  0
M  RAD  1   1   2
M  END
