Coordinates from ORCA-job CH3-N2+-scan-d09-169-n800
 OpenBabel09191814093D

  6  4  0  0  0  0  0  0  0  0999 V2000
   -1.3406    3.3667    0.0561 C   0  0  0  0  0  0  0  0  0  0  0  0
   -0.8248    3.5491    1.0036 H   0  0  0  0  0  0  0  0  0  0  0  0
   -0.8248    3.5491   -0.8915 H   0  0  0  0  0  0  0  0  0  0  0  0
   -2.3722    3.0022    0.0560 H   0  0  0  0  0  0  0  0  0  0  0  0
    2.7193   -8.1105    0.0559 N   0  0  0  0  0  0  0  0  0  0  0  0
    3.0847   -9.1541    0.0559 N   0  0  0  0  0  0  0  0  0  0  0  0
  1  2  1  0  0  0  0
  3  1  1  0  0  0  0
  4  1  1  0  0  0  0
  6  5  3  0  0  0  0
M  RAD  1   1   2
M  END
