Coordinates from ORCA-job CH3-N2+-scan-d09-169-n800
 OpenBabel09191814093D

  6  4  0  0  0  0  0  0  0  0999 V2000
   -1.6722    4.3044    0.0561 C   0  0  0  0  0  0  0  0  0  0  0  0
   -1.1565    4.4867    1.0034 H   0  0  0  0  0  0  0  0  0  0  0  0
   -1.1565    4.4868   -0.8913 H   0  0  0  0  0  0  0  0  0  0  0  0
   -2.7036    3.9399    0.0560 H   0  0  0  0  0  0  0  0  0  0  0  0
    3.3840   -9.9853    0.0559 N   0  0  0  0  0  0  0  0  0  0  0  0
    3.7463  -11.0301    0.0559 N   0  0  0  0  0  0  0  0  0  0  0  0
  1  2  1  0  0  0  0
  3  1  1  0  0  0  0
  4  1  1  0  0  0  0
  6  5  3  0  0  0  0
M  RAD  1   1   2
M  END
