Coordinates from ORCA-job CH3-N2+-scan-d09-169-n800
 OpenBabel09191814093D

  6  4  0  0  0  0  0  0  0  0999 V2000
   -1.6254    4.1722    0.0561 C   0  0  0  0  0  0  0  0  0  0  0  0
   -1.1098    4.3546    1.0035 H   0  0  0  0  0  0  0  0  0  0  0  0
   -1.1097    4.3546   -0.8913 H   0  0  0  0  0  0  0  0  0  0  0  0
   -2.6569    3.8077    0.0560 H   0  0  0  0  0  0  0  0  0  0  0  0
    3.2902   -9.7211    0.0559 N   0  0  0  0  0  0  0  0  0  0  0  0
    3.6531  -10.7657    0.0559 N   0  0  0  0  0  0  0  0  0  0  0  0
  1  2  1  0  0  0  0
  3  1  1  0  0  0  0
  4  1  1  0  0  0  0
  6  5  3  0  0  0  0
M  RAD  1   1   2
M  END
