Coordinates from ORCA-job CH3-N2+-scan-d09-169-n800
 OpenBabel09191814093D

  6  4  0  0  0  0  0  0  0  0999 V2000
   -1.5831    4.0527    0.0561 C   0  0  0  0  0  0  0  0  0  0  0  0
   -1.0675    4.2350    1.0035 H   0  0  0  0  0  0  0  0  0  0  0  0
   -1.0674    4.2350   -0.8913 H   0  0  0  0  0  0  0  0  0  0  0  0
   -2.6146    3.6882    0.0560 H   0  0  0  0  0  0  0  0  0  0  0  0
    3.2054   -9.4820    0.0559 N   0  0  0  0  0  0  0  0  0  0  0  0
    3.5688  -10.5264    0.0559 N   0  0  0  0  0  0  0  0  0  0  0  0
  1  2  1  0  0  0  0
  3  1  1  0  0  0  0
  4  1  1  0  0  0  0
  6  5  3  0  0  0  0
M  RAD  1   1   2
M  END
