Coordinates from ORCA-job CH3-N2+-scan-d09-169-n800
 OpenBabel09191814093D

  6  5  0  0  0  0  0  0  0  0999 V2000
   -0.1620    0.0335    0.0560 C   0  0  0  0  0  0  0  0  0  0  0  0
    0.2892    0.3713    0.9879 H   0  0  0  0  0  0  0  0  0  0  0  0
    0.2892    0.3713   -0.8758 H   0  0  0  0  0  0  0  0  0  0  0  0
   -1.2326   -0.1667    0.0560 H   0  0  0  0  0  0  0  0  0  0  0  0
    0.4451   -1.6835    0.0560 N   0  0  0  0  0  0  0  0  0  0  0  0
    0.8127   -2.7235    0.0560 N   0  0  0  0  0  0  0  0  0  0  0  0
  1  2  1  0  0  0  0
  3  1  1  0  0  0  0
  4  1  1  0  0  0  0
  5  1  1  0  0  0  0
  6  5  1  0  0  0  0
M  RAD  2   5   2   6   3
M  END
