Coordinates from ORCA-job CH3-N2+-scan-d09-169-n800
 OpenBabel09191814093D

  6  4  0  0  0  0  0  0  0  0999 V2000
   -0.4906    0.9628    0.0560 C   0  0  0  0  0  0  0  0  0  0  0  0
    0.0257    1.1451    1.0044 H   0  0  0  0  0  0  0  0  0  0  0  0
    0.0257    1.1451   -0.8923 H   0  0  0  0  0  0  0  0  0  0  0  0
   -1.5229    0.5975    0.0560 H   0  0  0  0  0  0  0  0  0  0  0  0
    1.0177   -3.3029    0.0560 N   0  0  0  0  0  0  0  0  0  0  0  0
    1.3860   -4.3451    0.0560 N   0  0  0  0  0  0  0  0  0  0  0  0
  1  2  1  0  0  0  0
  3  1  1  0  0  0  0
  4  1  1  0  0  0  0
  6  5  3  0  0  0  0
M  RAD  1   1   2
M  END
