Coordinates from ORCA-job CH3-N2+-scan-d09-169-n800
 OpenBabel09191814093D

  6  4  0  0  0  0  0  0  0  0999 V2000
   -0.6152    1.3152    0.0560 C   0  0  0  0  0  0  0  0  0  0  0  0
   -0.0988    1.4975    1.0046 H   0  0  0  0  0  0  0  0  0  0  0  0
   -0.0988    1.4976   -0.8925 H   0  0  0  0  0  0  0  0  0  0  0  0
   -1.6477    0.9499    0.0560 H   0  0  0  0  0  0  0  0  0  0  0  0
    1.2670   -4.0078    0.0560 N   0  0  0  0  0  0  0  0  0  0  0  0
    1.6351   -5.0500    0.0560 N   0  0  0  0  0  0  0  0  0  0  0  0
  1  2  1  0  0  0  0
  3  1  1  0  0  0  0
  4  1  1  0  0  0  0
  6  5  3  0  0  0  0
M  RAD  1   1   2
M  END
