Coordinates from ORCA-job CH3-N2+-scan-d09-169-n800
 OpenBabel09191814093D

  6  4  0  0  0  0  0  0  0  0999 V2000
   -1.4429    3.6562    0.0561 C   0  0  0  0  0  0  0  0  0  0  0  0
   -0.9272    3.8385    1.0036 H   0  0  0  0  0  0  0  0  0  0  0  0
   -0.9272    3.8386   -0.8914 H   0  0  0  0  0  0  0  0  0  0  0  0
   -2.4745    3.2917    0.0560 H   0  0  0  0  0  0  0  0  0  0  0  0
    2.9244   -8.6893    0.0559 N   0  0  0  0  0  0  0  0  0  0  0  0
    3.2891   -9.7332    0.0559 N   0  0  0  0  0  0  0  0  0  0  0  0
  1  2  1  0  0  0  0
  3  1  1  0  0  0  0
  4  1  1  0  0  0  0
  6  5  3  0  0  0  0
M  RAD  1   1   2
M  END
