Coordinates from ORCA-job CH3-N2+-scan-d09-169-n800
 OpenBabel09191814093D

  6  4  0  0  0  0  0  0  0  0999 V2000
   -1.0557    2.5612    0.0560 C   0  0  0  0  0  0  0  0  0  0  0  0
   -0.5398    2.7436    1.0039 H   0  0  0  0  0  0  0  0  0  0  0  0
   -0.5398    2.7436   -0.8918 H   0  0  0  0  0  0  0  0  0  0  0  0
   -2.0877    2.1965    0.0560 H   0  0  0  0  0  0  0  0  0  0  0  0
    2.1488   -6.4997    0.0560 N   0  0  0  0  0  0  0  0  0  0  0  0
    2.5158   -7.5427    0.0560 N   0  0  0  0  0  0  0  0  0  0  0  0
  1  2  1  0  0  0  0
  3  1  1  0  0  0  0
  4  1  1  0  0  0  0
  6  5  3  0  0  0  0
M  RAD  1   1   2
M  END
