Coordinates from ORCA-job CH3-N2+-scan-d09-169-n800
 OpenBabel09191814093D

  6  4  0  0  0  0  0  0  0  0999 V2000
   -0.8911    2.0955    0.0560 C   0  0  0  0  0  0  0  0  0  0  0  0
   -0.3750    2.2779    1.0042 H   0  0  0  0  0  0  0  0  0  0  0  0
   -0.3750    2.2780   -0.8921 H   0  0  0  0  0  0  0  0  0  0  0  0
   -1.9233    1.7306    0.0560 H   0  0  0  0  0  0  0  0  0  0  0  0
    1.8192   -5.5684    0.0560 N   0  0  0  0  0  0  0  0  0  0  0  0
    2.1867   -6.6111    0.0560 N   0  0  0  0  0  0  0  0  0  0  0  0
  1  2  1  0  0  0  0
  3  1  1  0  0  0  0
  4  1  1  0  0  0  0
  6  5  3  0  0  0  0
M  RAD  1   1   2
M  END
