Coordinates from ORCA-job CH3-N2+-scan-d09-169-n800
 OpenBabel09191814093D

  6  4  0  0  0  0  0  0  0  0999 V2000
   -0.9934    2.3850    0.0560 C   0  0  0  0  0  0  0  0  0  0  0  0
   -0.4774    2.5674    1.0040 H   0  0  0  0  0  0  0  0  0  0  0  0
   -0.4774    2.5674   -0.8919 H   0  0  0  0  0  0  0  0  0  0  0  0
   -2.0255    2.0202    0.0560 H   0  0  0  0  0  0  0  0  0  0  0  0
    2.0241   -6.1474    0.0560 N   0  0  0  0  0  0  0  0  0  0  0  0
    2.3913   -7.1902    0.0560 N   0  0  0  0  0  0  0  0  0  0  0  0
  1  2  1  0  0  0  0
  3  1  1  0  0  0  0
  4  1  1  0  0  0  0
  6  5  3  0  0  0  0
M  RAD  1   1   2
M  END
