Coordinates from ORCA-job CH3-N2+-scan-d09-169-n800
 OpenBabel09191814093D

  6  4  0  0  0  0  0  0  0  0999 V2000
   -1.0112    2.4353    0.0560 C   0  0  0  0  0  0  0  0  0  0  0  0
   -0.4953    2.6177    1.0040 H   0  0  0  0  0  0  0  0  0  0  0  0
   -0.4952    2.6178   -0.8919 H   0  0  0  0  0  0  0  0  0  0  0  0
   -2.0433    2.0706    0.0560 H   0  0  0  0  0  0  0  0  0  0  0  0
    2.0597   -6.2480    0.0560 N   0  0  0  0  0  0  0  0  0  0  0  0
    2.4269   -7.2909    0.0560 N   0  0  0  0  0  0  0  0  0  0  0  0
  1  2  1  0  0  0  0
  3  1  1  0  0  0  0
  4  1  1  0  0  0  0
  6  5  3  0  0  0  0
M  RAD  1   1   2
M  END
