Coordinates from ORCA-job CH3-N2+-scan-d09-169-n800
 OpenBabel09191814093D

  6  4  0  0  0  0  0  0  0  0999 V2000
   -1.1091    2.7122    0.0560 C   0  0  0  0  0  0  0  0  0  0  0  0
   -0.5933    2.8946    1.0039 H   0  0  0  0  0  0  0  0  0  0  0  0
   -0.5932    2.8946   -0.8917 H   0  0  0  0  0  0  0  0  0  0  0  0
   -2.1410    2.3476    0.0560 H   0  0  0  0  0  0  0  0  0  0  0  0
    2.2558   -6.8018    0.0560 N   0  0  0  0  0  0  0  0  0  0  0  0
    2.6225   -7.8449    0.0560 N   0  0  0  0  0  0  0  0  0  0  0  0
  1  2  1  0  0  0  0
  3  1  1  0  0  0  0
  4  1  1  0  0  0  0
  6  5  3  0  0  0  0
M  RAD  1   1   2
M  END
