Coordinates from ORCA-job CH3-N2+-scan-d09-169-n800
 OpenBabel09191814093D

  6  4  0  0  0  0  0  0  0  0999 V2000
   -1.0357    2.5045    0.0560 C   0  0  0  0  0  0  0  0  0  0  0  0
   -0.5198    2.6870    1.0039 H   0  0  0  0  0  0  0  0  0  0  0  0
   -0.5197    2.6870   -0.8918 H   0  0  0  0  0  0  0  0  0  0  0  0
   -2.0677    2.1398    0.0560 H   0  0  0  0  0  0  0  0  0  0  0  0
    2.1087   -6.3865    0.0560 N   0  0  0  0  0  0  0  0  0  0  0  0
    2.4758   -7.4294    0.0560 N   0  0  0  0  0  0  0  0  0  0  0  0
  1  2  1  0  0  0  0
  3  1  1  0  0  0  0
  4  1  1  0  0  0  0
  6  5  3  0  0  0  0
M  RAD  1   1   2
M  END
