Coordinates from ORCA-job CH3-N2+-scan-d09-169-n800
 OpenBabel09191814093D

  6  4  0  0  0  0  0  0  0  0999 V2000
   -0.2151    0.1837    0.0560 C   0  0  0  0  0  0  0  0  0  0  0  0
    0.2716    0.4372    0.9973 H   0  0  0  0  0  0  0  0  0  0  0  0
    0.2717    0.4372   -0.8852 H   0  0  0  0  0  0  0  0  0  0  0  0
   -1.2654   -0.1063    0.0560 H   0  0  0  0  0  0  0  0  0  0  0  0
    0.5054   -1.8542    0.0560 N   0  0  0  0  0  0  0  0  0  0  0  0
    0.8734   -2.8951    0.0560 N   0  0  0  0  0  0  0  0  0  0  0  0
  1  2  1  0  0  0  0
  3  1  1  0  0  0  0
  4  1  1  0  0  0  0
  6  5  3  0  0  0  0
M  RAD  1   1   2
M  END
