Coordinates from ORCA-job CH3-N2+-scan-d09-169-n800
 OpenBabel09191814093D

  6  4  0  0  0  0  0  0  0  0999 V2000
   -0.7531    1.7053    0.0560 C   0  0  0  0  0  0  0  0  0  0  0  0
   -0.2368    1.8877    1.0045 H   0  0  0  0  0  0  0  0  0  0  0  0
   -0.2368    1.8878   -0.8924 H   0  0  0  0  0  0  0  0  0  0  0  0
   -1.7857    1.3402    0.0560 H   0  0  0  0  0  0  0  0  0  0  0  0
    1.5431   -4.7881    0.0560 N   0  0  0  0  0  0  0  0  0  0  0  0
    1.9109   -5.8305    0.0560 N   0  0  0  0  0  0  0  0  0  0  0  0
  1  2  1  0  0  0  0
  3  1  1  0  0  0  0
  4  1  1  0  0  0  0
  6  5  3  0  0  0  0
M  RAD  1   1   2
M  END
