Coordinates from ORCA-job CH3-N2+-scan-d09-169-n800
 OpenBabel09191814093D

  6  4  0  0  0  0  0  0  0  0999 V2000
   -0.2969    0.4149    0.0560 C   0  0  0  0  0  0  0  0  0  0  0  0
    0.2135    0.6099    1.0020 H   0  0  0  0  0  0  0  0  0  0  0  0
    0.2135    0.6099   -0.8900 H   0  0  0  0  0  0  0  0  0  0  0  0
   -1.3313    0.0637    0.0560 H   0  0  0  0  0  0  0  0  0  0  0  0
    0.6373   -2.2271    0.0560 N   0  0  0  0  0  0  0  0  0  0  0  0
    1.0055   -3.2689    0.0560 N   0  0  0  0  0  0  0  0  0  0  0  0
  1  2  1  0  0  0  0
  3  1  1  0  0  0  0
  4  1  1  0  0  0  0
  6  5  3  0  0  0  0
M  RAD  1   1   2
M  END
