Coordinates from ORCA-job CH3-N2+-scan-d09-169-n800
 OpenBabel09191814093D

  6  4  0  0  0  0  0  0  0  0999 V2000
   -0.2922    0.4016    0.0560 C   0  0  0  0  0  0  0  0  0  0  0  0
    0.2176    0.5980    1.0019 H   0  0  0  0  0  0  0  0  0  0  0  0
    0.2176    0.5980   -0.8898 H   0  0  0  0  0  0  0  0  0  0  0  0
   -1.3270    0.0519    0.0560 H   0  0  0  0  0  0  0  0  0  0  0  0
    0.6286   -2.2027    0.0560 N   0  0  0  0  0  0  0  0  0  0  0  0
    0.9969   -3.2445    0.0560 N   0  0  0  0  0  0  0  0  0  0  0  0
  1  2  1  0  0  0  0
  3  1  1  0  0  0  0
  4  1  1  0  0  0  0
  6  5  3  0  0  0  0
M  RAD  1   1   2
M  END
