Coordinates from ORCA-job CH3-N2+-scan-d09-169-n800
 OpenBabel09191814093D

  6  4  0  0  0  0  0  0  0  0999 V2000
   -0.4995    0.9880    0.0560 C   0  0  0  0  0  0  0  0  0  0  0  0
    0.0168    1.1702    1.0044 H   0  0  0  0  0  0  0  0  0  0  0  0
    0.0169    1.1702   -0.8924 H   0  0  0  0  0  0  0  0  0  0  0  0
   -1.5319    0.6227    0.0560 H   0  0  0  0  0  0  0  0  0  0  0  0
    1.0355   -3.3533    0.0560 N   0  0  0  0  0  0  0  0  0  0  0  0
    1.4038   -4.3954    0.0560 N   0  0  0  0  0  0  0  0  0  0  0  0
  1  2  1  0  0  0  0
  3  1  1  0  0  0  0
  4  1  1  0  0  0  0
  6  5  3  0  0  0  0
M  RAD  1   1   2
M  END
