Coordinates from ORCA-job CH3-N2+-scan-d09-169-n800
 OpenBabel09191814093D

  6  4  0  0  0  0  0  0  0  0999 V2000
   -0.5751    1.2019    0.0560 C   0  0  0  0  0  0  0  0  0  0  0  0
   -0.0588    1.3842    1.0046 H   0  0  0  0  0  0  0  0  0  0  0  0
   -0.0587    1.3843   -0.8925 H   0  0  0  0  0  0  0  0  0  0  0  0
   -1.6077    0.8366    0.0560 H   0  0  0  0  0  0  0  0  0  0  0  0
    1.1869   -3.7812    0.0560 N   0  0  0  0  0  0  0  0  0  0  0  0
    1.5550   -4.8234    0.0560 N   0  0  0  0  0  0  0  0  0  0  0  0
  1  2  1  0  0  0  0
  3  1  1  0  0  0  0
  4  1  1  0  0  0  0
  6  5  3  0  0  0  0
M  RAD  1   1   2
M  END
