Coordinates from ORCA-job CH3-N2+-scan-d09-169-n800
 OpenBabel09191814093D

  6  4  0  0  0  0  0  0  0  0999 V2000
   -0.3768    0.6409    0.0560 C   0  0  0  0  0  0  0  0  0  0  0  0
    0.1385    0.8248    1.0036 H   0  0  0  0  0  0  0  0  0  0  0  0
    0.1385    0.8248   -0.8915 H   0  0  0  0  0  0  0  0  0  0  0  0
   -1.4089    0.2777    0.0560 H   0  0  0  0  0  0  0  0  0  0  0  0
    0.7910   -2.6619    0.0560 N   0  0  0  0  0  0  0  0  0  0  0  0
    1.1593   -3.7040    0.0560 N   0  0  0  0  0  0  0  0  0  0  0  0
  1  2  1  0  0  0  0
  3  1  1  0  0  0  0
  4  1  1  0  0  0  0
  6  5  3  0  0  0  0
M  RAD  1   1   2
M  END
