Coordinates from ORCA-job CH3-N2+-scan-d09-169-n800
 OpenBabel09191814093D

  6  4  0  0  0  0  0  0  0  0999 V2000
   -1.0224    2.4668    0.0560 C   0  0  0  0  0  0  0  0  0  0  0  0
   -0.5064    2.6492    1.0040 H   0  0  0  0  0  0  0  0  0  0  0  0
   -0.5064    2.6492   -0.8919 H   0  0  0  0  0  0  0  0  0  0  0  0
   -2.0544    2.1021    0.0560 H   0  0  0  0  0  0  0  0  0  0  0  0
    2.0820   -6.3110    0.0560 N   0  0  0  0  0  0  0  0  0  0  0  0
    2.4491   -7.3539    0.0560 N   0  0  0  0  0  0  0  0  0  0  0  0
  1  2  1  0  0  0  0
  3  1  1  0  0  0  0
  4  1  1  0  0  0  0
  6  5  3  0  0  0  0
M  RAD  1   1   2
M  END
