Coordinates from ORCA-job CH3-N2+-scan-d09-169-n800
 OpenBabel09191814093D

  6  4  0  0  0  0  0  0  0  0999 V2000
   -0.9489    2.2591    0.0560 C   0  0  0  0  0  0  0  0  0  0  0  0
   -0.4329    2.4415    1.0041 H   0  0  0  0  0  0  0  0  0  0  0  0
   -0.4329    2.4416   -0.8920 H   0  0  0  0  0  0  0  0  0  0  0  0
   -1.9811    1.8943    0.0560 H   0  0  0  0  0  0  0  0  0  0  0  0
    1.9350   -5.8957    0.0560 N   0  0  0  0  0  0  0  0  0  0  0  0
    2.3024   -6.9384    0.0560 N   0  0  0  0  0  0  0  0  0  0  0  0
  1  2  1  0  0  0  0
  3  1  1  0  0  0  0
  4  1  1  0  0  0  0
  6  5  3  0  0  0  0
M  RAD  1   1   2
M  END
