Coordinates from ORCA-job CH3-N2+-scan-d09-169-n800
 OpenBabel09191814093D

  6  4  0  0  0  0  0  0  0  0999 V2000
   -0.2264    0.2156    0.0560 C   0  0  0  0  0  0  0  0  0  0  0  0
    0.2657    0.4559    0.9984 H   0  0  0  0  0  0  0  0  0  0  0  0
    0.2657    0.4559   -0.8863 H   0  0  0  0  0  0  0  0  0  0  0  0
   -1.2731   -0.0882    0.0560 H   0  0  0  0  0  0  0  0  0  0  0  0
    0.5208   -1.8979    0.0560 N   0  0  0  0  0  0  0  0  0  0  0  0
    0.8889   -2.9389    0.0560 N   0  0  0  0  0  0  0  0  0  0  0  0
  1  2  1  0  0  0  0
  3  1  1  0  0  0  0
  4  1  1  0  0  0  0
  6  5  3  0  0  0  0
M  RAD  1   1   2
M  END
