Coordinates from ORCA-job CH3-N2+-scan-d09-169-n800
 OpenBabel09191814093D

  6  4  0  0  0  0  0  0  0  0999 V2000
   -1.3762    3.4674    0.0561 C   0  0  0  0  0  0  0  0  0  0  0  0
   -0.8604    3.6498    1.0036 H   0  0  0  0  0  0  0  0  0  0  0  0
   -0.8604    3.6498   -0.8915 H   0  0  0  0  0  0  0  0  0  0  0  0
   -2.4078    3.1029    0.0560 H   0  0  0  0  0  0  0  0  0  0  0  0
    2.7906   -8.3118    0.0559 N   0  0  0  0  0  0  0  0  0  0  0  0
    3.1558   -9.3556    0.0559 N   0  0  0  0  0  0  0  0  0  0  0  0
  1  2  1  0  0  0  0
  3  1  1  0  0  0  0
  4  1  1  0  0  0  0
  6  5  3  0  0  0  0
M  RAD  1   1   2
M  END
