Coordinates from ORCA-job CH3-N2+-scan-d09-169-n800
 OpenBabel09191814093D

  6  4  0  0  0  0  0  0  0  0999 V2000
   -1.3829    3.4863    0.0561 C   0  0  0  0  0  0  0  0  0  0  0  0
   -0.8671    3.6686    1.0036 H   0  0  0  0  0  0  0  0  0  0  0  0
   -0.8671    3.6687   -0.8915 H   0  0  0  0  0  0  0  0  0  0  0  0
   -2.4145    3.1217    0.0560 H   0  0  0  0  0  0  0  0  0  0  0  0
    2.8040   -8.3496    0.0559 N   0  0  0  0  0  0  0  0  0  0  0  0
    3.1691   -9.3933    0.0559 N   0  0  0  0  0  0  0  0  0  0  0  0
  1  2  1  0  0  0  0
  3  1  1  0  0  0  0
  4  1  1  0  0  0  0
  6  5  3  0  0  0  0
M  RAD  1   1   2
M  END
