Coordinates from ORCA-job CH3-N2+-scan-d09-169-n800
 OpenBabel09191814093D

  6  4  0  0  0  0  0  0  0  0999 V2000
   -1.4274    3.6121    0.0561 C   0  0  0  0  0  0  0  0  0  0  0  0
   -0.9116    3.7945    1.0036 H   0  0  0  0  0  0  0  0  0  0  0  0
   -0.9116    3.7945   -0.8914 H   0  0  0  0  0  0  0  0  0  0  0  0
   -2.4589    3.2476    0.0560 H   0  0  0  0  0  0  0  0  0  0  0  0
    2.8932   -8.6013    0.0559 N   0  0  0  0  0  0  0  0  0  0  0  0
    3.2580   -9.6451    0.0559 N   0  0  0  0  0  0  0  0  0  0  0  0
  1  2  1  0  0  0  0
  3  1  1  0  0  0  0
  4  1  1  0  0  0  0
  6  5  3  0  0  0  0
M  RAD  1   1   2
M  END
