Coordinates from ORCA-job CH3-N2+-scan-d09-169-n800
 OpenBabel09191814093D

  6  4  0  0  0  0  0  0  0  0999 V2000
   -1.4852    3.7758    0.0561 C   0  0  0  0  0  0  0  0  0  0  0  0
   -0.9695    3.9581    1.0035 H   0  0  0  0  0  0  0  0  0  0  0  0
   -0.9695    3.9581   -0.8914 H   0  0  0  0  0  0  0  0  0  0  0  0
   -2.5168    3.4113    0.0560 H   0  0  0  0  0  0  0  0  0  0  0  0
    3.0091   -8.9284    0.0559 N   0  0  0  0  0  0  0  0  0  0  0  0
    3.3734   -9.9725    0.0559 N   0  0  0  0  0  0  0  0  0  0  0  0
  1  2  1  0  0  0  0
  3  1  1  0  0  0  0
  4  1  1  0  0  0  0
  6  5  3  0  0  0  0
M  RAD  1   1   2
M  END
