Coordinates from ORCA-job CH3-N2+-scan-d09-169-n800
 OpenBabel09191814093D

  6  4  0  0  0  0  0  0  0  0999 V2000
   -1.5542    3.9708    0.0561 C   0  0  0  0  0  0  0  0  0  0  0  0
   -1.0385    4.1532    1.0035 H   0  0  0  0  0  0  0  0  0  0  0  0
   -1.0385    4.1532   -0.8914 H   0  0  0  0  0  0  0  0  0  0  0  0
   -2.5857    3.6064    0.0560 H   0  0  0  0  0  0  0  0  0  0  0  0
    3.1474   -9.3185    0.0559 N   0  0  0  0  0  0  0  0  0  0  0  0
    3.5111  -10.3628    0.0559 N   0  0  0  0  0  0  0  0  0  0  0  0
  1  2  1  0  0  0  0
  3  1  1  0  0  0  0
  4  1  1  0  0  0  0
  6  5  3  0  0  0  0
M  RAD  1   1   2
M  END
