Coordinates from ORCA-job CH3-N2+-scan-d09-169-n800
 OpenBabel09191814093D

  6  5  0  0  0  0  0  0  0  0999 V2000
   -0.1237   -0.0749    0.0560 C   0  0  0  0  0  0  0  0  0  0  0  0
    0.2933    0.3388    0.9758 H   0  0  0  0  0  0  0  0  0  0  0  0
    0.2933    0.3389   -0.8637 H   0  0  0  0  0  0  0  0  0  0  0  0
   -1.2087   -0.1922    0.0560 H   0  0  0  0  0  0  0  0  0  0  0  0
    0.4099   -1.5842    0.0560 N   0  0  0  0  0  0  0  0  0  0  0  0
    0.7776   -2.6241    0.0560 N   0  0  0  0  0  0  0  0  0  0  0  0
  1  2  1  0  0  0  0
  3  1  1  0  0  0  0
  4  1  1  0  0  0  0
  5  1  1  0  0  0  0
  6  5  1  0  0  0  0
M  RAD  2   5   2   6   3
M  END
