Coordinates from ORCA-job CH3-N2+-scan-d09-169-n800
 OpenBabel09191814093D

  6  4  0  0  0  0  0  0  0  0999 V2000
   -0.9534    2.2717    0.0560 C   0  0  0  0  0  0  0  0  0  0  0  0
   -0.4374    2.4541    1.0041 H   0  0  0  0  0  0  0  0  0  0  0  0
   -0.4373    2.4542   -0.8920 H   0  0  0  0  0  0  0  0  0  0  0  0
   -1.9855    1.9069    0.0560 H   0  0  0  0  0  0  0  0  0  0  0  0
    1.9439   -5.9208    0.0560 N   0  0  0  0  0  0  0  0  0  0  0  0
    2.3113   -6.9636    0.0560 N   0  0  0  0  0  0  0  0  0  0  0  0
  1  2  1  0  0  0  0
  3  1  1  0  0  0  0
  4  1  1  0  0  0  0
  6  5  3  0  0  0  0
M  RAD  1   1   2
M  END
