Coordinates from ORCA-job CH3-N2+-scan-d09-169-n800
 OpenBabel09191814093D

  6  4  0  0  0  0  0  0  0  0999 V2000
   -1.0179    2.4542    0.0560 C   0  0  0  0  0  0  0  0  0  0  0  0
   -0.5019    2.6366    1.0040 H   0  0  0  0  0  0  0  0  0  0  0  0
   -0.5019    2.6366   -0.8919 H   0  0  0  0  0  0  0  0  0  0  0  0
   -2.0499    2.0895    0.0560 H   0  0  0  0  0  0  0  0  0  0  0  0
    2.0731   -6.2858    0.0560 N   0  0  0  0  0  0  0  0  0  0  0  0
    2.4402   -7.3287    0.0560 N   0  0  0  0  0  0  0  0  0  0  0  0
  1  2  1  0  0  0  0
  3  1  1  0  0  0  0
  4  1  1  0  0  0  0
  6  5  3  0  0  0  0
M  RAD  1   1   2
M  END
