Coordinates from ORCA-job CH3-N2+-scan-d09-169-n800
 OpenBabel09191814093D

  6  4  0  0  0  0  0  0  0  0999 V2000
   -0.7820    1.7871    0.0560 C   0  0  0  0  0  0  0  0  0  0  0  0
   -0.2658    1.9696    1.0044 H   0  0  0  0  0  0  0  0  0  0  0  0
   -0.2658    1.9696   -0.8923 H   0  0  0  0  0  0  0  0  0  0  0  0
   -1.8145    1.4221    0.0560 H   0  0  0  0  0  0  0  0  0  0  0  0
    1.6010   -4.9517    0.0560 N   0  0  0  0  0  0  0  0  0  0  0  0
    1.9688   -5.9942    0.0560 N   0  0  0  0  0  0  0  0  0  0  0  0
  1  2  1  0  0  0  0
  3  1  1  0  0  0  0
  4  1  1  0  0  0  0
  6  5  3  0  0  0  0
M  RAD  1   1   2
M  END
