Coordinates from ORCA-job CH3-N2+-scan-d09-169-n800
 OpenBabel09191814093D

  6  4  0  0  0  0  0  0  0  0999 V2000
   -1.0402    2.5171    0.0560 C   0  0  0  0  0  0  0  0  0  0  0  0
   -0.5242    2.6995    1.0039 H   0  0  0  0  0  0  0  0  0  0  0  0
   -0.5242    2.6996   -0.8918 H   0  0  0  0  0  0  0  0  0  0  0  0
   -2.0721    2.1524    0.0560 H   0  0  0  0  0  0  0  0  0  0  0  0
    2.1176   -6.4117    0.0560 N   0  0  0  0  0  0  0  0  0  0  0  0
    2.4847   -7.4546    0.0560 N   0  0  0  0  0  0  0  0  0  0  0  0
  1  2  1  0  0  0  0
  3  1  1  0  0  0  0
  4  1  1  0  0  0  0
  6  5  3  0  0  0  0
M  RAD  1   1   2
M  END
