Coordinates from ORCA-job CH3-N2+-scan-d09-169-n800
 OpenBabel09191814093D

  6  4  0  0  0  0  0  0  0  0999 V2000
   -0.4616    0.8809    0.0560 C   0  0  0  0  0  0  0  0  0  0  0  0
    0.0546    1.0633    1.0043 H   0  0  0  0  0  0  0  0  0  0  0  0
    0.0546    1.0633   -0.8922 H   0  0  0  0  0  0  0  0  0  0  0  0
   -1.4939    0.5158    0.0560 H   0  0  0  0  0  0  0  0  0  0  0  0
    0.9599   -3.1394    0.0560 N   0  0  0  0  0  0  0  0  0  0  0  0
    1.3281   -4.1815    0.0560 N   0  0  0  0  0  0  0  0  0  0  0  0
  1  2  1  0  0  0  0
  3  1  1  0  0  0  0
  4  1  1  0  0  0  0
  6  5  3  0  0  0  0
M  RAD  1   1   2
M  END
