Coordinates from ORCA-job CH3-N2+-scan-d09-169-n800
 OpenBabel09191814093D

  6  4  0  0  0  0  0  0  0  0999 V2000
   -1.5765    4.0338    0.0561 C   0  0  0  0  0  0  0  0  0  0  0  0
   -1.0608    4.2161    1.0035 H   0  0  0  0  0  0  0  0  0  0  0  0
   -1.0608    4.2162   -0.8913 H   0  0  0  0  0  0  0  0  0  0  0  0
   -2.6079    3.6693    0.0560 H   0  0  0  0  0  0  0  0  0  0  0  0
    3.1921   -9.4443    0.0559 N   0  0  0  0  0  0  0  0  0  0  0  0
    3.5555  -10.4887    0.0559 N   0  0  0  0  0  0  0  0  0  0  0  0
  1  2  1  0  0  0  0
  3  1  1  0  0  0  0
  4  1  1  0  0  0  0
  6  5  3  0  0  0  0
M  RAD  1   1   2
M  END
