Coordinates from ORCA-job CH3-N2+-scan-d09-169-n800
 OpenBabel09191814093D

  6  4  0  0  0  0  0  0  0  0999 V2000
   -0.3339    0.5195    0.0560 C   0  0  0  0  0  0  0  0  0  0  0  0
    0.1797    0.7069    1.0029 H   0  0  0  0  0  0  0  0  0  0  0  0
    0.1798    0.7069   -0.8909 H   0  0  0  0  0  0  0  0  0  0  0  0
   -1.3665    0.1602    0.0560 H   0  0  0  0  0  0  0  0  0  0  0  0
    0.7071   -2.4246    0.0560 N   0  0  0  0  0  0  0  0  0  0  0  0
    1.0754   -3.4665    0.0560 N   0  0  0  0  0  0  0  0  0  0  0  0
  1  2  1  0  0  0  0
  3  1  1  0  0  0  0
  4  1  1  0  0  0  0
  6  5  3  0  0  0  0
M  RAD  1   1   2
M  END
