Coordinates from ORCA-job CH3-N2+-scan-d09-169-n800
 OpenBabel09191814093D

  6  4  0  0  0  0  0  0  0  0999 V2000
   -1.8257    4.7386    0.0561 C   0  0  0  0  0  0  0  0  0  0  0  0
   -1.3101    4.9209    1.0034 H   0  0  0  0  0  0  0  0  0  0  0  0
   -1.3101    4.9210   -0.8912 H   0  0  0  0  0  0  0  0  0  0  0  0
   -2.8570    4.3741    0.0560 H   0  0  0  0  0  0  0  0  0  0  0  0
    3.6921  -10.8534    0.0559 N   0  0  0  0  0  0  0  0  0  0  0  0
    4.0524  -11.8989    0.0559 N   0  0  0  0  0  0  0  0  0  0  0  0
  1  2  1  0  0  0  0
  3  1  1  0  0  0  0
  4  1  1  0  0  0  0
  6  5  3  0  0  0  0
M  RAD  1   1   2
M  END
