Coordinates from ORCA-job CH3-N2+-scan-d09-169-n800
 OpenBabel09191814093D

  6  4  0  0  0  0  0  0  0  0999 V2000
   -0.5640    1.1705    0.0560 C   0  0  0  0  0  0  0  0  0  0  0  0
   -0.0476    1.3528    1.0045 H   0  0  0  0  0  0  0  0  0  0  0  0
   -0.0476    1.3528   -0.8925 H   0  0  0  0  0  0  0  0  0  0  0  0
   -1.5965    0.8051    0.0560 H   0  0  0  0  0  0  0  0  0  0  0  0
    1.1646   -3.7183    0.0560 N   0  0  0  0  0  0  0  0  0  0  0  0
    1.5328   -4.7605    0.0560 N   0  0  0  0  0  0  0  0  0  0  0  0
  1  2  1  0  0  0  0
  3  1  1  0  0  0  0
  4  1  1  0  0  0  0
  6  5  3  0  0  0  0
M  RAD  1   1   2
M  END
