Coordinates from ORCA-job CH3-N2+-scan-d09-169-n800
 OpenBabel09191814093D

  6  4  0  0  0  0  0  0  0  0999 V2000
   -1.5097    3.8450    0.0561 C   0  0  0  0  0  0  0  0  0  0  0  0
   -0.9940    4.0273    1.0035 H   0  0  0  0  0  0  0  0  0  0  0  0
   -0.9940    4.0274   -0.8914 H   0  0  0  0  0  0  0  0  0  0  0  0
   -2.5412    3.4805    0.0560 H   0  0  0  0  0  0  0  0  0  0  0  0
    3.0582   -9.0668    0.0559 N   0  0  0  0  0  0  0  0  0  0  0  0
    3.4223  -10.1109    0.0559 N   0  0  0  0  0  0  0  0  0  0  0  0
  1  2  1  0  0  0  0
  3  1  1  0  0  0  0
  4  1  1  0  0  0  0
  6  5  3  0  0  0  0
M  RAD  1   1   2
M  END
