Coordinates from ORCA-job CH3-N2+-scan-d09-169-n800
 OpenBabel09191814093D

  6  4  0  0  0  0  0  0  0  0999 V2000
   -0.7376    1.6613    0.0560 C   0  0  0  0  0  0  0  0  0  0  0  0
   -0.2212    1.8437    1.0046 H   0  0  0  0  0  0  0  0  0  0  0  0
   -0.2212    1.8437   -0.8925 H   0  0  0  0  0  0  0  0  0  0  0  0
   -1.7701    1.2961    0.0560 H   0  0  0  0  0  0  0  0  0  0  0  0
    1.5119   -4.7000    0.0560 N   0  0  0  0  0  0  0  0  0  0  0  0
    1.8798   -5.7424    0.0560 N   0  0  0  0  0  0  0  0  0  0  0  0
  1  2  1  0  0  0  0
  3  1  1  0  0  0  0
  4  1  1  0  0  0  0
  6  5  3  0  0  0  0
M  RAD  1   1   2
M  END
