Coordinates from ORCA-job CH3-N2+-scan-d09-169-n800
 OpenBabel09191814093D

  6  4  0  0  0  0  0  0  0  0999 V2000
   -1.2071    2.9891    0.0561 C   0  0  0  0  0  0  0  0  0  0  0  0
   -0.6912    3.1715    1.0037 H   0  0  0  0  0  0  0  0  0  0  0  0
   -0.6912    3.1715   -0.8916 H   0  0  0  0  0  0  0  0  0  0  0  0
   -2.2388    2.6245    0.0560 H   0  0  0  0  0  0  0  0  0  0  0  0
    2.4518   -7.3555    0.0560 N   0  0  0  0  0  0  0  0  0  0  0  0
    2.8181   -8.3988    0.0559 N   0  0  0  0  0  0  0  0  0  0  0  0
  1  2  1  0  0  0  0
  3  1  1  0  0  0  0
  4  1  1  0  0  0  0
  6  5  3  0  0  0  0
M  RAD  1   1   2
M  END
