Coordinates from ORCA-job CH3-N2+-scan-d09-169-n800
 OpenBabel09191814093D

  6  4  0  0  0  0  0  0  0  0999 V2000
   -0.3745    0.6346    0.0560 C   0  0  0  0  0  0  0  0  0  0  0  0
    0.1406    0.8186    1.0036 H   0  0  0  0  0  0  0  0  0  0  0  0
    0.1407    0.8186   -0.8915 H   0  0  0  0  0  0  0  0  0  0  0  0
   -1.4067    0.2715    0.0560 H   0  0  0  0  0  0  0  0  0  0  0  0
    0.7866   -2.6494    0.0560 N   0  0  0  0  0  0  0  0  0  0  0  0
    1.1549   -3.6914    0.0560 N   0  0  0  0  0  0  0  0  0  0  0  0
  1  2  1  0  0  0  0
  3  1  1  0  0  0  0
  4  1  1  0  0  0  0
  6  5  3  0  0  0  0
M  RAD  1   1   2
M  END
