Coordinates from ORCA-job CH3-N2+-scan-d09-169-n800
 OpenBabel09191814093D

  6  4  0  0  0  0  0  0  0  0999 V2000
   -0.7109    1.5858    0.0560 C   0  0  0  0  0  0  0  0  0  0  0  0
   -0.1945    1.7682    1.0046 H   0  0  0  0  0  0  0  0  0  0  0  0
   -0.1945    1.7682   -0.8925 H   0  0  0  0  0  0  0  0  0  0  0  0
   -1.7435    1.2206    0.0560 H   0  0  0  0  0  0  0  0  0  0  0  0
    1.4585   -4.5490    0.0560 N   0  0  0  0  0  0  0  0  0  0  0  0
    1.8264   -5.5913    0.0560 N   0  0  0  0  0  0  0  0  0  0  0  0
  1  2  1  0  0  0  0
  3  1  1  0  0  0  0
  4  1  1  0  0  0  0
  6  5  3  0  0  0  0
M  RAD  1   1   2
M  END
