Coordinates from ORCA-job CH3-N2+-scan-d09-169-n800
 OpenBabel09191814093D

  6  4  0  0  0  0  0  0  0  0999 V2000
   -0.9890    2.3724    0.0560 C   0  0  0  0  0  0  0  0  0  0  0  0
   -0.4730    2.5548    1.0040 H   0  0  0  0  0  0  0  0  0  0  0  0
   -0.4730    2.5548   -0.8919 H   0  0  0  0  0  0  0  0  0  0  0  0
   -2.0210    2.0076    0.0560 H   0  0  0  0  0  0  0  0  0  0  0  0
    2.0152   -6.1222    0.0560 N   0  0  0  0  0  0  0  0  0  0  0  0
    2.3824   -7.1650    0.0560 N   0  0  0  0  0  0  0  0  0  0  0  0
  1  2  1  0  0  0  0
  3  1  1  0  0  0  0
  4  1  1  0  0  0  0
  6  5  3  0  0  0  0
M  RAD  1   1   2
M  END
