Coordinates from ORCA-job CH3-N2+-scan-d09-169-n800
 OpenBabel09191814093D

  6  4  0  0  0  0  0  0  0  0999 V2000
   -0.3201    0.4807    0.0560 C   0  0  0  0  0  0  0  0  0  0  0  0
    0.1925    0.6702    1.0026 H   0  0  0  0  0  0  0  0  0  0  0  0
    0.1926    0.6702   -0.8906 H   0  0  0  0  0  0  0  0  0  0  0  0
   -1.3532    0.1236    0.0560 H   0  0  0  0  0  0  0  0  0  0  0  0
    0.6808   -2.3502    0.0560 N   0  0  0  0  0  0  0  0  0  0  0  0
    1.0491   -3.3921    0.0560 N   0  0  0  0  0  0  0  0  0  0  0  0
  1  2  1  0  0  0  0
  3  1  1  0  0  0  0
  4  1  1  0  0  0  0
  6  5  3  0  0  0  0
M  RAD  1   1   2
M  END
