Coordinates from ORCA-job CH3-N2+-scan-d09-169-n800
 OpenBabel09191814093D

  6  4  0  0  0  0  0  0  0  0999 V2000
   -0.4683    0.8998    0.0560 C   0  0  0  0  0  0  0  0  0  0  0  0
    0.0479    1.0822    1.0043 H   0  0  0  0  0  0  0  0  0  0  0  0
    0.0479    1.0822   -0.8923 H   0  0  0  0  0  0  0  0  0  0  0  0
   -1.5006    0.5346    0.0560 H   0  0  0  0  0  0  0  0  0  0  0  0
    0.9732   -3.1771    0.0560 N   0  0  0  0  0  0  0  0  0  0  0  0
    1.3415   -4.2193    0.0560 N   0  0  0  0  0  0  0  0  0  0  0  0
  1  2  1  0  0  0  0
  3  1  1  0  0  0  0
  4  1  1  0  0  0  0
  6  5  3  0  0  0  0
M  RAD  1   1   2
M  END
