Coordinates from ORCA-job CH3-N2+-scan-d09-169-n800
 OpenBabel09191814093D

  6  5  0  0  0  0  0  0  0  0999 V2000
   -0.0172   -0.3762    0.0560 C   0  0  0  0  0  0  0  0  0  0  0  0
    0.2922    0.2602    0.9287 H   0  0  0  0  0  0  0  0  0  0  0  0
    0.2922    0.2602   -0.8167 H   0  0  0  0  0  0  0  0  0  0  0  0
   -1.1329   -0.2436    0.0560 H   0  0  0  0  0  0  0  0  0  0  0  0
    0.3162   -1.3192    0.0560 N   0  0  0  0  0  0  0  0  0  0  0  0
    0.6909   -2.3790    0.0560 N   0  0  0  0  0  0  0  0  0  0  0  0
  1  2  1  0  0  0  0
  3  1  1  0  0  0  0
  4  1  1  0  0  0  0
  5  1  1  0  0  0  0
  6  5  1  0  0  0  0
M  RAD  2   5   2   6   3
M  END
