Coordinates from ORCA-job CH3-N2+-scan-d09-169-n800
 OpenBabel09191814093D

  6  4  0  0  0  0  0  0  0  0999 V2000
   -1.8057    4.6820    0.0561 C   0  0  0  0  0  0  0  0  0  0  0  0
   -1.2901    4.8643    1.0034 H   0  0  0  0  0  0  0  0  0  0  0  0
   -1.2900    4.8643   -0.8912 H   0  0  0  0  0  0  0  0  0  0  0  0
   -2.8370    4.3175    0.0560 H   0  0  0  0  0  0  0  0  0  0  0  0
    3.6519  -10.7402    0.0559 N   0  0  0  0  0  0  0  0  0  0  0  0
    4.0125  -11.7856    0.0559 N   0  0  0  0  0  0  0  0  0  0  0  0
  1  2  1  0  0  0  0
  3  1  1  0  0  0  0
  4  1  1  0  0  0  0
  6  5  3  0  0  0  0
M  RAD  1   1   2
M  END
