Coordinates from ORCA-job CH3-N2+-scan-d09-169-n800
 OpenBabel09191814093D

  6  4  0  0  0  0  0  0  0  0999 V2000
   -0.3610    0.5964    0.0560 C   0  0  0  0  0  0  0  0  0  0  0  0
    0.1538    0.7812    1.0034 H   0  0  0  0  0  0  0  0  0  0  0  0
    0.1538    0.7812   -0.8913 H   0  0  0  0  0  0  0  0  0  0  0  0
   -1.3933    0.2342    0.0560 H   0  0  0  0  0  0  0  0  0  0  0  0
    0.7600   -2.5743    0.0560 N   0  0  0  0  0  0  0  0  0  0  0  0
    1.1283   -3.6163    0.0560 N   0  0  0  0  0  0  0  0  0  0  0  0
  1  2  1  0  0  0  0
  3  1  1  0  0  0  0
  4  1  1  0  0  0  0
  6  5  3  0  0  0  0
M  RAD  1   1   2
M  END
