Coordinates from ORCA-job CH3-N2+-scan-d09-169-n800
 OpenBabel09191814093D

  6  4  0  0  0  0  0  0  0  0999 V2000
   -0.3565    0.5837    0.0560 C   0  0  0  0  0  0  0  0  0  0  0  0
    0.1581    0.7687    1.0033 H   0  0  0  0  0  0  0  0  0  0  0  0
    0.1581    0.7688   -0.8912 H   0  0  0  0  0  0  0  0  0  0  0  0
   -1.3888    0.2218    0.0560 H   0  0  0  0  0  0  0  0  0  0  0  0
    0.7512   -2.5493    0.0560 N   0  0  0  0  0  0  0  0  0  0  0  0
    1.1195   -3.5913    0.0560 N   0  0  0  0  0  0  0  0  0  0  0  0
  1  2  1  0  0  0  0
  3  1  1  0  0  0  0
  4  1  1  0  0  0  0
  6  5  3  0  0  0  0
M  RAD  1   1   2
M  END
