Coordinates from ORCA-job CH3-N2+-scan-d09-169-n800
 OpenBabel09191814093D

  6  4  0  0  0  0  0  0  0  0999 V2000
   -0.6374    1.3781    0.0560 C   0  0  0  0  0  0  0  0  0  0  0  0
   -0.1211    1.5605    1.0046 H   0  0  0  0  0  0  0  0  0  0  0  0
   -0.1210    1.5605   -0.8925 H   0  0  0  0  0  0  0  0  0  0  0  0
   -1.6700    1.0129    0.0560 H   0  0  0  0  0  0  0  0  0  0  0  0
    1.3115   -4.1336    0.0560 N   0  0  0  0  0  0  0  0  0  0  0  0
    1.6796   -5.1759    0.0560 N   0  0  0  0  0  0  0  0  0  0  0  0
  1  2  1  0  0  0  0
  3  1  1  0  0  0  0
  4  1  1  0  0  0  0
  6  5  3  0  0  0  0
M  RAD  1   1   2
M  END
