Coordinates from ORCA-job CH3-N2+-scan-d09-169-n800
 OpenBabel09191814093D

  6  4  0  0  0  0  0  0  0  0999 V2000
   -0.2034    0.1505    0.0560 C   0  0  0  0  0  0  0  0  0  0  0  0
    0.2770    0.4196    0.9958 H   0  0  0  0  0  0  0  0  0  0  0  0
    0.2770    0.4197   -0.8838 H   0  0  0  0  0  0  0  0  0  0  0  0
   -1.2577   -0.1230    0.0560 H   0  0  0  0  0  0  0  0  0  0  0  0
    0.4904   -1.8119    0.0560 N   0  0  0  0  0  0  0  0  0  0  0  0
    0.8583   -2.8526    0.0560 N   0  0  0  0  0  0  0  0  0  0  0  0
  1  2  1  0  0  0  0
  3  1  1  0  0  0  0
  4  1  1  0  0  0  0
  6  5  3  0  0  0  0
M  RAD  1   1   2
M  END
