Coordinates from ORCA-job CH3-N2+-scan-d09-169-n800
 OpenBabel09191814093D

  6  4  0  0  0  0  0  0  0  0999 V2000
   -0.4750    0.9187    0.0560 C   0  0  0  0  0  0  0  0  0  0  0  0
    0.0413    1.1010    1.0044 H   0  0  0  0  0  0  0  0  0  0  0  0
    0.0413    1.1010   -0.8923 H   0  0  0  0  0  0  0  0  0  0  0  0
   -1.5073    0.5535    0.0560 H   0  0  0  0  0  0  0  0  0  0  0  0
    0.9866   -3.2149    0.0560 N   0  0  0  0  0  0  0  0  0  0  0  0
    1.3548   -4.2570    0.0560 N   0  0  0  0  0  0  0  0  0  0  0  0
  1  2  1  0  0  0  0
  3  1  1  0  0  0  0
  4  1  1  0  0  0  0
  6  5  3  0  0  0  0
M  RAD  1   1   2
M  END
