Coordinates from ORCA-job CH3-N2+-scan-d09-169-n800
 OpenBabel09191814093D

  6  4  0  0  0  0  0  0  0  0999 V2000
   -0.7576    1.7179    0.0560 C   0  0  0  0  0  0  0  0  0  0  0  0
   -0.2413    1.9003    1.0045 H   0  0  0  0  0  0  0  0  0  0  0  0
   -0.2413    1.9004   -0.8924 H   0  0  0  0  0  0  0  0  0  0  0  0
   -1.7901    1.3528    0.0560 H   0  0  0  0  0  0  0  0  0  0  0  0
    1.5520   -4.8133    0.0560 N   0  0  0  0  0  0  0  0  0  0  0  0
    1.9198   -5.8557    0.0560 N   0  0  0  0  0  0  0  0  0  0  0  0
  1  2  1  0  0  0  0
  3  1  1  0  0  0  0
  4  1  1  0  0  0  0
  6  5  3  0  0  0  0
M  RAD  1   1   2
M  END
