Coordinates from ORCA-job CH3-N2+-scan-d09-169-n800
 OpenBabel09191814093D

  6  4  0  0  0  0  0  0  0  0999 V2000
   -0.2292    0.2234    0.0560 C   0  0  0  0  0  0  0  0  0  0  0  0
    0.2641    0.4607    0.9986 H   0  0  0  0  0  0  0  0  0  0  0  0
    0.2642    0.4607   -0.8866 H   0  0  0  0  0  0  0  0  0  0  0  0
   -1.2751   -0.0835    0.0560 H   0  0  0  0  0  0  0  0  0  0  0  0
    0.5248   -1.9089    0.0560 N   0  0  0  0  0  0  0  0  0  0  0  0
    0.8928   -2.9500    0.0560 N   0  0  0  0  0  0  0  0  0  0  0  0
  1  2  1  0  0  0  0
  3  1  1  0  0  0  0
  4  1  1  0  0  0  0
  6  5  3  0  0  0  0
M  RAD  1   1   2
M  END
