Coordinates from ORCA-job CH3-N2+-scan-d09-169-n800
 OpenBabel09191814093D

  6  4  0  0  0  0  0  0  0  0999 V2000
   -1.1959    2.9576    0.0560 C   0  0  0  0  0  0  0  0  0  0  0  0
   -0.6801    3.1400    1.0038 H   0  0  0  0  0  0  0  0  0  0  0  0
   -0.6801    3.1401   -0.8916 H   0  0  0  0  0  0  0  0  0  0  0  0
   -2.2277    2.5930    0.0560 H   0  0  0  0  0  0  0  0  0  0  0  0
    2.4295   -7.2926    0.0560 N   0  0  0  0  0  0  0  0  0  0  0  0
    2.7959   -8.3358    0.0559 N   0  0  0  0  0  0  0  0  0  0  0  0
  1  2  1  0  0  0  0
  3  1  1  0  0  0  0
  4  1  1  0  0  0  0
  6  5  3  0  0  0  0
M  RAD  1   1   2
M  END
