Coordinates from ORCA-job CH3-N2+-scan-d09-169-n800
 OpenBabel09191814093D

  6  4  0  0  0  0  0  0  0  0999 V2000
   -0.6552    1.4285    0.0560 C   0  0  0  0  0  0  0  0  0  0  0  0
   -0.1389    1.6108    1.0046 H   0  0  0  0  0  0  0  0  0  0  0  0
   -0.1388    1.6108   -0.8925 H   0  0  0  0  0  0  0  0  0  0  0  0
   -1.6878    1.0632    0.0560 H   0  0  0  0  0  0  0  0  0  0  0  0
    1.3471   -4.2343    0.0560 N   0  0  0  0  0  0  0  0  0  0  0  0
    1.7152   -5.2766    0.0560 N   0  0  0  0  0  0  0  0  0  0  0  0
  1  2  1  0  0  0  0
  3  1  1  0  0  0  0
  4  1  1  0  0  0  0
  6  5  3  0  0  0  0
M  RAD  1   1   2
M  END
