Coordinates from ORCA-job CH3-N2+-scan-d09-169-n800
 OpenBabel09191814093D

  6  5  0  0  0  0  0  0  0  0999 V2000
   -0.0023   -0.4182    0.0560 C   0  0  0  0  0  0  0  0  0  0  0  0
    0.2906    0.2534    0.9221 H   0  0  0  0  0  0  0  0  0  0  0  0
    0.2906    0.2534   -0.8100 H   0  0  0  0  0  0  0  0  0  0  0  0
   -1.1237   -0.2467    0.0560 H   0  0  0  0  0  0  0  0  0  0  0  0
    0.3044   -1.2857    0.0560 N   0  0  0  0  0  0  0  0  0  0  0  0
    0.6820   -2.3538    0.0560 N   0  0  0  0  0  0  0  0  0  0  0  0
  1  2  1  0  0  0  0
  3  1  1  0  0  0  0
  4  1  1  0  0  0  0
  5  1  1  0  0  0  0
  6  5  1  0  0  0  0
M  RAD  2   5   2   6   3
M  END
