Coordinates from ORCA-job CH3-N2+-scan-d09-169-n800
 OpenBabel09191814093D

  6  4  0  0  0  0  0  0  0  0999 V2000
   -1.5809    4.0464    0.0561 C   0  0  0  0  0  0  0  0  0  0  0  0
   -1.0652    4.2287    1.0035 H   0  0  0  0  0  0  0  0  0  0  0  0
   -1.0652    4.2287   -0.8913 H   0  0  0  0  0  0  0  0  0  0  0  0
   -2.6124    3.6819    0.0560 H   0  0  0  0  0  0  0  0  0  0  0  0
    3.2010   -9.4695    0.0559 N   0  0  0  0  0  0  0  0  0  0  0  0
    3.5644  -10.5138    0.0559 N   0  0  0  0  0  0  0  0  0  0  0  0
  1  2  1  0  0  0  0
  3  1  1  0  0  0  0
  4  1  1  0  0  0  0
  6  5  3  0  0  0  0
M  RAD  1   1   2
M  END
