Coordinates from ORCA-job CH3-N2+-scan-d09-169-n800
 OpenBabel09191814093D

  6  4  0  0  0  0  0  0  0  0999 V2000
   -1.1581    2.8506    0.0560 C   0  0  0  0  0  0  0  0  0  0  0  0
   -0.6422    3.0331    1.0038 H   0  0  0  0  0  0  0  0  0  0  0  0
   -0.6422    3.0331   -0.8917 H   0  0  0  0  0  0  0  0  0  0  0  0
   -2.1899    2.4860    0.0560 H   0  0  0  0  0  0  0  0  0  0  0  0
    2.3538   -7.0786    0.0560 N   0  0  0  0  0  0  0  0  0  0  0  0
    2.7203   -8.1218    0.0559 N   0  0  0  0  0  0  0  0  0  0  0  0
  1  2  1  0  0  0  0
  3  1  1  0  0  0  0
  4  1  1  0  0  0  0
  6  5  3  0  0  0  0
M  RAD  1   1   2
M  END
