Coordinates from ORCA-job CH3-N2+-scan-d09-169-n800
 OpenBabel09191814093D

  6  4  0  0  0  0  0  0  0  0999 V2000
   -0.7665    1.7431    0.0560 C   0  0  0  0  0  0  0  0  0  0  0  0
   -0.2502    1.9255    1.0045 H   0  0  0  0  0  0  0  0  0  0  0  0
   -0.2502    1.9255   -0.8924 H   0  0  0  0  0  0  0  0  0  0  0  0
   -1.7990    1.3780    0.0560 H   0  0  0  0  0  0  0  0  0  0  0  0
    1.5698   -4.8636    0.0560 N   0  0  0  0  0  0  0  0  0  0  0  0
    1.9376   -5.9061    0.0560 N   0  0  0  0  0  0  0  0  0  0  0  0
  1  2  1  0  0  0  0
  3  1  1  0  0  0  0
  4  1  1  0  0  0  0
  6  5  3  0  0  0  0
M  RAD  1   1   2
M  END
