Coordinates from ORCA-job CH3-N2+-scan-d09-169-n800
 OpenBabel09191814093D

  6  4  0  0  0  0  0  0  0  0999 V2000
   -0.9690    2.3157    0.0560 C   0  0  0  0  0  0  0  0  0  0  0  0
   -0.4529    2.4982    1.0040 H   0  0  0  0  0  0  0  0  0  0  0  0
   -0.4529    2.4982   -0.8919 H   0  0  0  0  0  0  0  0  0  0  0  0
   -2.0010    1.9510    0.0560 H   0  0  0  0  0  0  0  0  0  0  0  0
    1.9751   -6.0089    0.0560 N   0  0  0  0  0  0  0  0  0  0  0  0
    2.3424   -7.0517    0.0560 N   0  0  0  0  0  0  0  0  0  0  0  0
  1  2  1  0  0  0  0
  3  1  1  0  0  0  0
  4  1  1  0  0  0  0
  6  5  3  0  0  0  0
M  RAD  1   1   2
M  END
