Coordinates from ORCA-job CH3-N2+-scan-d09-169-n800
 OpenBabel09191814093D

  6  4  0  0  0  0  0  0  0  0999 V2000
   -1.6788    4.3233    0.0561 C   0  0  0  0  0  0  0  0  0  0  0  0
   -1.1632    4.5056    1.0034 H   0  0  0  0  0  0  0  0  0  0  0  0
   -1.1632    4.5056   -0.8913 H   0  0  0  0  0  0  0  0  0  0  0  0
   -2.7102    3.9588    0.0560 H   0  0  0  0  0  0  0  0  0  0  0  0
    3.3974  -10.0230    0.0559 N   0  0  0  0  0  0  0  0  0  0  0  0
    3.7596  -11.0678    0.0559 N   0  0  0  0  0  0  0  0  0  0  0  0
  1  2  1  0  0  0  0
  3  1  1  0  0  0  0
  4  1  1  0  0  0  0
  6  5  3  0  0  0  0
M  RAD  1   1   2
M  END
