Coordinates from ORCA-job CH3-N2+-scan-d09-169-n800
 OpenBabel09191814093D

  6  4  0  0  0  0  0  0  0  0999 V2000
   -1.7946    4.6505    0.0561 C   0  0  0  0  0  0  0  0  0  0  0  0
   -1.2789    4.8328    1.0034 H   0  0  0  0  0  0  0  0  0  0  0  0
   -1.2789    4.8329   -0.8912 H   0  0  0  0  0  0  0  0  0  0  0  0
   -2.8259    4.2860    0.0560 H   0  0  0  0  0  0  0  0  0  0  0  0
    3.6296  -10.6772    0.0559 N   0  0  0  0  0  0  0  0  0  0  0  0
    3.9903  -11.7226    0.0559 N   0  0  0  0  0  0  0  0  0  0  0  0
  1  2  1  0  0  0  0
  3  1  1  0  0  0  0
  4  1  1  0  0  0  0
  6  5  3  0  0  0  0
M  RAD  1   1   2
M  END
