Coordinates from ORCA-job CH3-N2+-scan-d09-169-n800
 OpenBabel09191814093D

  6  4  0  0  0  0  0  0  0  0999 V2000
   -1.5431    3.9394    0.0561 C   0  0  0  0  0  0  0  0  0  0  0  0
   -1.0274    4.1217    1.0035 H   0  0  0  0  0  0  0  0  0  0  0  0
   -1.0274    4.1218   -0.8914 H   0  0  0  0  0  0  0  0  0  0  0  0
   -2.5746    3.5749    0.0560 H   0  0  0  0  0  0  0  0  0  0  0  0
    3.1251   -9.2556    0.0559 N   0  0  0  0  0  0  0  0  0  0  0  0
    3.4889  -10.2998    0.0559 N   0  0  0  0  0  0  0  0  0  0  0  0
  1  2  1  0  0  0  0
  3  1  1  0  0  0  0
  4  1  1  0  0  0  0
  6  5  3  0  0  0  0
M  RAD  1   1   2
M  END
