Coordinates from ORCA-job CH3-N2+-scan-d09-169-n800
 OpenBabel09191814093D

  6  4  0  0  0  0  0  0  0  0999 V2000
   -0.8555    1.9948    0.0560 C   0  0  0  0  0  0  0  0  0  0  0  0
   -0.3393    2.1772    1.0043 H   0  0  0  0  0  0  0  0  0  0  0  0
   -0.3393    2.1773   -0.8922 H   0  0  0  0  0  0  0  0  0  0  0  0
   -1.8878    1.6299    0.0560 H   0  0  0  0  0  0  0  0  0  0  0  0
    1.7479   -5.3671    0.0560 N   0  0  0  0  0  0  0  0  0  0  0  0
    2.1156   -6.4097    0.0560 N   0  0  0  0  0  0  0  0  0  0  0  0
  1  2  1  0  0  0  0
  3  1  1  0  0  0  0
  4  1  1  0  0  0  0
  6  5  3  0  0  0  0
M  RAD  1   1   2
M  END
