Coordinates from ORCA-job CH3-N2+-scan-d09-169-n800
 OpenBabel09191814093D

  6  4  0  0  0  0  0  0  0  0999 V2000
   -1.0869    2.6493    0.0560 C   0  0  0  0  0  0  0  0  0  0  0  0
   -0.5710    2.8317    1.0039 H   0  0  0  0  0  0  0  0  0  0  0  0
   -0.5710    2.8317   -0.8918 H   0  0  0  0  0  0  0  0  0  0  0  0
   -2.1188    2.2846    0.0560 H   0  0  0  0  0  0  0  0  0  0  0  0
    2.2112   -6.6759    0.0560 N   0  0  0  0  0  0  0  0  0  0  0  0
    2.5780   -7.7190    0.0560 N   0  0  0  0  0  0  0  0  0  0  0  0
  1  2  1  0  0  0  0
  3  1  1  0  0  0  0
  4  1  1  0  0  0  0
  6  5  3  0  0  0  0
M  RAD  1   1   2
M  END
