Coordinates from ORCA-job CH3-N2+-scan-d09-169-n800
 OpenBabel09191814093D

  6  4  0  0  0  0  0  0  0  0999 V2000
   -1.3116    3.2849    0.0561 C   0  0  0  0  0  0  0  0  0  0  0  0
   -0.7959    3.4673    1.0037 H   0  0  0  0  0  0  0  0  0  0  0  0
   -0.7958    3.4673   -0.8915 H   0  0  0  0  0  0  0  0  0  0  0  0
   -2.3433    2.9203    0.0560 H   0  0  0  0  0  0  0  0  0  0  0  0
    2.6613   -7.9469    0.0559 N   0  0  0  0  0  0  0  0  0  0  0  0
    3.0270   -8.9905    0.0559 N   0  0  0  0  0  0  0  0  0  0  0  0
  1  2  1  0  0  0  0
  3  1  1  0  0  0  0
  4  1  1  0  0  0  0
  6  5  3  0  0  0  0
M  RAD  1   1   2
M  END
