Coordinates from ORCA-job CH3-N2+-scan-d09-169-n800
 OpenBabel09191814093D

  6  4  0  0  0  0  0  0  0  0999 V2000
   -1.0313    2.4919    0.0560 C   0  0  0  0  0  0  0  0  0  0  0  0
   -0.5153    2.6744    1.0040 H   0  0  0  0  0  0  0  0  0  0  0  0
   -0.5153    2.6744   -0.8918 H   0  0  0  0  0  0  0  0  0  0  0  0
   -2.0633    2.1272    0.0560 H   0  0  0  0  0  0  0  0  0  0  0  0
    2.0998   -6.3613    0.0560 N   0  0  0  0  0  0  0  0  0  0  0  0
    2.4669   -7.4042    0.0560 N   0  0  0  0  0  0  0  0  0  0  0  0
  1  2  1  0  0  0  0
  3  1  1  0  0  0  0
  4  1  1  0  0  0  0
  6  5  3  0  0  0  0
M  RAD  1   1   2
M  END
