Coordinates from ORCA-job CH3-N2+-scan-d09-169-n800
 OpenBabel09191814093D

  6  4  0  0  0  0  0  0  0  0999 V2000
   -1.4518    3.6814    0.0561 C   0  0  0  0  0  0  0  0  0  0  0  0
   -0.9361    3.8637    1.0036 H   0  0  0  0  0  0  0  0  0  0  0  0
   -0.9361    3.8637   -0.8914 H   0  0  0  0  0  0  0  0  0  0  0  0
   -2.4834    3.3169    0.0560 H   0  0  0  0  0  0  0  0  0  0  0  0
    2.9422   -8.7397    0.0559 N   0  0  0  0  0  0  0  0  0  0  0  0
    3.3068   -9.7836    0.0559 N   0  0  0  0  0  0  0  0  0  0  0  0
  1  2  1  0  0  0  0
  3  1  1  0  0  0  0
  4  1  1  0  0  0  0
  6  5  3  0  0  0  0
M  RAD  1   1   2
M  END
