Coordinates from ORCA-job CH3-N2+-scan-d09-169-n800
 OpenBabel09191814093D

  6  4  0  0  0  0  0  0  0  0999 V2000
   -1.4096    3.5618    0.0561 C   0  0  0  0  0  0  0  0  0  0  0  0
   -0.8938    3.7442    1.0036 H   0  0  0  0  0  0  0  0  0  0  0  0
   -0.8938    3.7442   -0.8915 H   0  0  0  0  0  0  0  0  0  0  0  0
   -2.4412    3.1973    0.0560 H   0  0  0  0  0  0  0  0  0  0  0  0
    2.8575   -8.5006    0.0559 N   0  0  0  0  0  0  0  0  0  0  0  0
    3.2224   -9.5444    0.0559 N   0  0  0  0  0  0  0  0  0  0  0  0
  1  2  1  0  0  0  0
  3  1  1  0  0  0  0
  4  1  1  0  0  0  0
  6  5  3  0  0  0  0
M  RAD  1   1   2
M  END
