Coordinates from ORCA-job CH3-N2+-scan-d09-169-n800
 OpenBabel09191814093D

  6  5  0  0  0  0  0  0  0  0999 V2000
   -0.1058   -0.1254    0.0560 C   0  0  0  0  0  0  0  0  0  0  0  0
    0.2937    0.3253    0.9687 H   0  0  0  0  0  0  0  0  0  0  0  0
    0.2937    0.3253   -0.8567 H   0  0  0  0  0  0  0  0  0  0  0  0
   -1.1967   -0.2016    0.0560 H   0  0  0  0  0  0  0  0  0  0  0  0
    0.3944   -1.5403    0.0560 N   0  0  0  0  0  0  0  0  0  0  0  0
    0.7623   -2.5808    0.0560 N   0  0  0  0  0  0  0  0  0  0  0  0
  1  2  1  0  0  0  0
  3  1  1  0  0  0  0
  4  1  1  0  0  0  0
  5  1  1  0  0  0  0
  6  5  1  0  0  0  0
M  RAD  2   5   2   6   3
M  END
