Coordinates from ORCA-job CH3-N2+-scan-d09-169-n800
 OpenBabel09191814093D

  6  4  0  0  0  0  0  0  0  0999 V2000
   -0.5217    1.0509    0.0560 C   0  0  0  0  0  0  0  0  0  0  0  0
   -0.0054    1.2332    1.0045 H   0  0  0  0  0  0  0  0  0  0  0  0
   -0.0054    1.2332   -0.8924 H   0  0  0  0  0  0  0  0  0  0  0  0
   -1.5542    0.6856    0.0560 H   0  0  0  0  0  0  0  0  0  0  0  0
    1.0800   -3.4791    0.0560 N   0  0  0  0  0  0  0  0  0  0  0  0
    1.4482   -4.5213    0.0560 N   0  0  0  0  0  0  0  0  0  0  0  0
  1  2  1  0  0  0  0
  3  1  1  0  0  0  0
  4  1  1  0  0  0  0
  6  5  3  0  0  0  0
M  RAD  1   1   2
M  END
