Coordinates from ORCA-job CH3-N2+-scan-d09-169-n800
 OpenBabel09191814093D

  6  4  0  0  0  0  0  0  0  0999 V2000
   -0.7242    1.6235    0.0560 C   0  0  0  0  0  0  0  0  0  0  0  0
   -0.2078    1.8059    1.0046 H   0  0  0  0  0  0  0  0  0  0  0  0
   -0.2078    1.8060   -0.8925 H   0  0  0  0  0  0  0  0  0  0  0  0
   -1.7568    1.2583    0.0560 H   0  0  0  0  0  0  0  0  0  0  0  0
    1.4852   -4.6245    0.0560 N   0  0  0  0  0  0  0  0  0  0  0  0
    1.8531   -5.6669    0.0560 N   0  0  0  0  0  0  0  0  0  0  0  0
  1  2  1  0  0  0  0
  3  1  1  0  0  0  0
  4  1  1  0  0  0  0
  6  5  3  0  0  0  0
M  RAD  1   1   2
M  END
