Coordinates from ORCA-job CH3-N2+-scan-d09-169-n800
 OpenBabel09191814093D

  6  4  0  0  0  0  0  0  0  0999 V2000
   -1.7545    4.5372    0.0561 C   0  0  0  0  0  0  0  0  0  0  0  0
   -1.2389    4.7196    1.0034 H   0  0  0  0  0  0  0  0  0  0  0  0
   -1.2388    4.7196   -0.8912 H   0  0  0  0  0  0  0  0  0  0  0  0
   -2.7859    4.1727    0.0560 H   0  0  0  0  0  0  0  0  0  0  0  0
    3.5492  -10.4508    0.0559 N   0  0  0  0  0  0  0  0  0  0  0  0
    3.9105  -11.4959    0.0559 N   0  0  0  0  0  0  0  0  0  0  0  0
  1  2  1  0  0  0  0
  3  1  1  0  0  0  0
  4  1  1  0  0  0  0
  6  5  3  0  0  0  0
M  RAD  1   1   2
M  END
