Coordinates from ORCA-job CH3-N2+-scan-d09-169-n800
 OpenBabel09191814093D

  6  4  0  0  0  0  0  0  0  0999 V2000
   -0.2093    0.1673    0.0560 C   0  0  0  0  0  0  0  0  0  0  0  0
    0.2744    0.4282    0.9966 H   0  0  0  0  0  0  0  0  0  0  0  0
    0.2744    0.4283   -0.8845 H   0  0  0  0  0  0  0  0  0  0  0  0
   -1.2615   -0.1148    0.0560 H   0  0  0  0  0  0  0  0  0  0  0  0
    0.4979   -1.8329    0.0560 N   0  0  0  0  0  0  0  0  0  0  0  0
    0.8658   -2.8737    0.0560 N   0  0  0  0  0  0  0  0  0  0  0  0
  1  2  1  0  0  0  0
  3  1  1  0  0  0  0
  4  1  1  0  0  0  0
  6  5  3  0  0  0  0
M  RAD  1   1   2
M  END
