Coordinates from ORCA-job CH3-N2+-scan-d09-169-n800
 OpenBabel09191814093D

  6  4  0  0  0  0  0  0  0  0999 V2000
   -1.8613    4.8393    0.0561 C   0  0  0  0  0  0  0  0  0  0  0  0
   -1.3457    5.0216    1.0034 H   0  0  0  0  0  0  0  0  0  0  0  0
   -1.3457    5.0217   -0.8912 H   0  0  0  0  0  0  0  0  0  0  0  0
   -2.8926    4.4748    0.0560 H   0  0  0  0  0  0  0  0  0  0  0  0
    3.7636  -11.0546    0.0559 N   0  0  0  0  0  0  0  0  0  0  0  0
    4.1233  -12.1004    0.0559 N   0  0  0  0  0  0  0  0  0  0  0  0
  1  2  1  0  0  0  0
  3  1  1  0  0  0  0
  4  1  1  0  0  0  0
  6  5  3  0  0  0  0
M  RAD  1   1   2
M  END
