Coordinates from ORCA-job CH3-N2+-scan-d09-169-n800
 OpenBabel09191814093D

  6  4  0  0  0  0  0  0  0  0999 V2000
   -0.5484    1.1264    0.0560 C   0  0  0  0  0  0  0  0  0  0  0  0
   -0.0321    1.3087    1.0045 H   0  0  0  0  0  0  0  0  0  0  0  0
   -0.0320    1.3087   -0.8924 H   0  0  0  0  0  0  0  0  0  0  0  0
   -1.5809    0.7611    0.0560 H   0  0  0  0  0  0  0  0  0  0  0  0
    1.1334   -3.6302    0.0560 N   0  0  0  0  0  0  0  0  0  0  0  0
    1.5016   -4.6724    0.0560 N   0  0  0  0  0  0  0  0  0  0  0  0
  1  2  1  0  0  0  0
  3  1  1  0  0  0  0
  4  1  1  0  0  0  0
  6  5  3  0  0  0  0
M  RAD  1   1   2
M  END
