Coordinates from ORCA-job CH3-N2+-scan-d09-169-n800
 OpenBabel09191814093D

  6  4  0  0  0  0  0  0  0  0999 V2000
   -1.5698    4.0149    0.0561 C   0  0  0  0  0  0  0  0  0  0  0  0
   -1.0541    4.1972    1.0035 H   0  0  0  0  0  0  0  0  0  0  0  0
   -1.0541    4.1973   -0.8913 H   0  0  0  0  0  0  0  0  0  0  0  0
   -2.6013    3.6504    0.0560 H   0  0  0  0  0  0  0  0  0  0  0  0
    3.1787   -9.4065    0.0559 N   0  0  0  0  0  0  0  0  0  0  0  0
    3.5422  -10.4509    0.0559 N   0  0  0  0  0  0  0  0  0  0  0  0
  1  2  1  0  0  0  0
  3  1  1  0  0  0  0
  4  1  1  0  0  0  0
  6  5  3  0  0  0  0
M  RAD  1   1   2
M  END
