Coordinates from ORCA-job CH3-N2+-scan-d09-169-n800
 OpenBabel09191814093D

  6  4  0  0  0  0  0  0  0  0999 V2000
   -0.9089    2.1458    0.0560 C   0  0  0  0  0  0  0  0  0  0  0  0
   -0.3928    2.3283    1.0042 H   0  0  0  0  0  0  0  0  0  0  0  0
   -0.3928    2.3283   -0.8920 H   0  0  0  0  0  0  0  0  0  0  0  0
   -1.9411    1.7810    0.0560 H   0  0  0  0  0  0  0  0  0  0  0  0
    1.8548   -5.6691    0.0560 N   0  0  0  0  0  0  0  0  0  0  0  0
    2.2223   -6.7118    0.0560 N   0  0  0  0  0  0  0  0  0  0  0  0
  1  2  1  0  0  0  0
  3  1  1  0  0  0  0
  4  1  1  0  0  0  0
  6  5  3  0  0  0  0
M  RAD  1   1   2
M  END
