Coordinates from ORCA-job CH3-N2+-scan-d09-169-n800
 OpenBabel09191814093D

  6  4  0  0  0  0  0  0  0  0999 V2000
   -1.0046    2.4164    0.0560 C   0  0  0  0  0  0  0  0  0  0  0  0
   -0.4886    2.5989    1.0040 H   0  0  0  0  0  0  0  0  0  0  0  0
   -0.4886    2.5989   -0.8919 H   0  0  0  0  0  0  0  0  0  0  0  0
   -2.0366    2.0517    0.0560 H   0  0  0  0  0  0  0  0  0  0  0  0
    2.0464   -6.2103    0.0560 N   0  0  0  0  0  0  0  0  0  0  0  0
    2.4135   -7.2532    0.0560 N   0  0  0  0  0  0  0  0  0  0  0  0
  1  2  1  0  0  0  0
  3  1  1  0  0  0  0
  4  1  1  0  0  0  0
  6  5  3  0  0  0  0
M  RAD  1   1   2
M  END
