Coordinates from ORCA-job CH3-N2+-scan-d09-169-n800
 OpenBabel09191814093D

  6  4  0  0  0  0  0  0  0  0999 V2000
   -1.4630    3.7128    0.0561 C   0  0  0  0  0  0  0  0  0  0  0  0
   -0.9472    3.8952    1.0035 H   0  0  0  0  0  0  0  0  0  0  0  0
   -0.9472    3.8952   -0.8914 H   0  0  0  0  0  0  0  0  0  0  0  0
   -2.4945    3.3483    0.0560 H   0  0  0  0  0  0  0  0  0  0  0  0
    2.9645   -8.8026    0.0559 N   0  0  0  0  0  0  0  0  0  0  0  0
    3.3290   -9.8466    0.0559 N   0  0  0  0  0  0  0  0  0  0  0  0
  1  2  1  0  0  0  0
  3  1  1  0  0  0  0
  4  1  1  0  0  0  0
  6  5  3  0  0  0  0
M  RAD  1   1   2
M  END
