Coordinates from ORCA-job CH3-N2+-scan-d09-169-n800
 OpenBabel09191814093D

  6  5  0  0  0  0  0  0  0  0999 V2000
   -0.0808   -0.1961    0.0560 C   0  0  0  0  0  0  0  0  0  0  0  0
    0.2937    0.3064    0.9578 H   0  0  0  0  0  0  0  0  0  0  0  0
    0.2937    0.3065   -0.8457 H   0  0  0  0  0  0  0  0  0  0  0  0
   -1.1789   -0.2142    0.0560 H   0  0  0  0  0  0  0  0  0  0  0  0
    0.3727   -1.4788    0.0560 N   0  0  0  0  0  0  0  0  0  0  0  0
    0.7413   -2.5214    0.0560 N   0  0  0  0  0  0  0  0  0  0  0  0
  1  2  1  0  0  0  0
  3  1  1  0  0  0  0
  4  1  1  0  0  0  0
  5  1  1  0  0  0  0
  6  5  1  0  0  0  0
M  RAD  2   5   2   6   3
M  END
