Coordinates from ORCA-job CH3-N2+-scan-d09-169-n800
 OpenBabel09191814093D

  6  4  0  0  0  0  0  0  0  0999 V2000
   -1.3918    3.5114    0.0561 C   0  0  0  0  0  0  0  0  0  0  0  0
   -0.8760    3.6938    1.0036 H   0  0  0  0  0  0  0  0  0  0  0  0
   -0.8760    3.6938   -0.8915 H   0  0  0  0  0  0  0  0  0  0  0  0
   -2.4234    3.1469    0.0560 H   0  0  0  0  0  0  0  0  0  0  0  0
    2.8218   -8.3999    0.0559 N   0  0  0  0  0  0  0  0  0  0  0  0
    3.1869   -9.4437    0.0559 N   0  0  0  0  0  0  0  0  0  0  0  0
  1  2  1  0  0  0  0
  3  1  1  0  0  0  0
  4  1  1  0  0  0  0
  6  5  3  0  0  0  0
M  RAD  1   1   2
M  END
