Coordinates from ORCA-job CH3-N2+-scan-d09-169-n800
 OpenBabel09191814093D

  6  4  0  0  0  0  0  0  0  0999 V2000
   -0.2705    0.3403    0.0560 C   0  0  0  0  0  0  0  0  0  0  0  0
    0.2356    0.5458    1.0011 H   0  0  0  0  0  0  0  0  0  0  0  0
    0.2356    0.5459   -0.8890 H   0  0  0  0  0  0  0  0  0  0  0  0
   -1.3077    0.0002    0.0560 H   0  0  0  0  0  0  0  0  0  0  0  0
    0.5902   -2.0941    0.0560 N   0  0  0  0  0  0  0  0  0  0  0  0
    0.9584   -3.1357    0.0560 N   0  0  0  0  0  0  0  0  0  0  0  0
  1  2  1  0  0  0  0
  3  1  1  0  0  0  0
  4  1  1  0  0  0  0
  6  5  3  0  0  0  0
M  RAD  1   1   2
M  END
