Coordinates from ORCA-job CH3-N2+-scan-d09-169-n800
 OpenBabel09191814093D

  6  4  0  0  0  0  0  0  0  0999 V2000
   -1.1893    2.9388    0.0560 C   0  0  0  0  0  0  0  0  0  0  0  0
   -0.6734    3.1212    1.0038 H   0  0  0  0  0  0  0  0  0  0  0  0
   -0.6734    3.1212   -0.8916 H   0  0  0  0  0  0  0  0  0  0  0  0
   -2.2211    2.5742    0.0560 H   0  0  0  0  0  0  0  0  0  0  0  0
    2.4162   -7.2548    0.0560 N   0  0  0  0  0  0  0  0  0  0  0  0
    2.7825   -8.2981    0.0559 N   0  0  0  0  0  0  0  0  0  0  0  0
  1  2  1  0  0  0  0
  3  1  1  0  0  0  0
  4  1  1  0  0  0  0
  6  5  3  0  0  0  0
M  RAD  1   1   2
M  END
