Coordinates from ORCA-job CH3-N2+-scan-d09-169-n800
 OpenBabel09191814093D

  6  4  0  0  0  0  0  0  0  0999 V2000
   -1.2961    3.2408    0.0561 C   0  0  0  0  0  0  0  0  0  0  0  0
   -0.7803    3.4232    1.0037 H   0  0  0  0  0  0  0  0  0  0  0  0
   -0.7803    3.4232   -0.8915 H   0  0  0  0  0  0  0  0  0  0  0  0
   -2.3278    2.8763    0.0560 H   0  0  0  0  0  0  0  0  0  0  0  0
    2.6301   -7.8588    0.0560 N   0  0  0  0  0  0  0  0  0  0  0  0
    2.9959   -8.9023    0.0559 N   0  0  0  0  0  0  0  0  0  0  0  0
  1  2  1  0  0  0  0
  3  1  1  0  0  0  0
  4  1  1  0  0  0  0
  6  5  3  0  0  0  0
M  RAD  1   1   2
M  END
