Coordinates from ORCA-job CH3-N2+-scan-d09-169-n800
 OpenBabel09191814093D

  6  4  0  0  0  0  0  0  0  0999 V2000
   -0.5551    1.1453    0.0560 C   0  0  0  0  0  0  0  0  0  0  0  0
   -0.0387    1.3276    1.0045 H   0  0  0  0  0  0  0  0  0  0  0  0
   -0.0387    1.3276   -0.8925 H   0  0  0  0  0  0  0  0  0  0  0  0
   -1.5876    0.7800    0.0560 H   0  0  0  0  0  0  0  0  0  0  0  0
    1.1468   -3.6679    0.0560 N   0  0  0  0  0  0  0  0  0  0  0  0
    1.5150   -4.7101    0.0560 N   0  0  0  0  0  0  0  0  0  0  0  0
  1  2  1  0  0  0  0
  3  1  1  0  0  0  0
  4  1  1  0  0  0  0
  6  5  3  0  0  0  0
M  RAD  1   1   2
M  END
