Coordinates from ORCA-job CH3-N2+-scan-d09-169-n800
 OpenBabel09191814093D

  6  4  0  0  0  0  0  0  0  0999 V2000
   -1.1158    2.7311    0.0560 C   0  0  0  0  0  0  0  0  0  0  0  0
   -0.5999    2.9135    1.0038 H   0  0  0  0  0  0  0  0  0  0  0  0
   -0.5999    2.9135   -0.8917 H   0  0  0  0  0  0  0  0  0  0  0  0
   -2.1477    2.3664    0.0560 H   0  0  0  0  0  0  0  0  0  0  0  0
    2.2691   -6.8395    0.0560 N   0  0  0  0  0  0  0  0  0  0  0  0
    2.6358   -7.8826    0.0559 N   0  0  0  0  0  0  0  0  0  0  0  0
  1  2  1  0  0  0  0
  3  1  1  0  0  0  0
  4  1  1  0  0  0  0
  6  5  3  0  0  0  0
M  RAD  1   1   2
M  END
