Coordinates from ORCA-job CH3-N2+-scan-d09-169-n800
 OpenBabel09191814093D

  6  5  0  0  0  0  0  0  0  0999 V2000
   -0.0844   -0.1860    0.0560 C   0  0  0  0  0  0  0  0  0  0  0  0
    0.2937    0.3092    0.9594 H   0  0  0  0  0  0  0  0  0  0  0  0
    0.2937    0.3092   -0.8473 H   0  0  0  0  0  0  0  0  0  0  0  0
   -1.1815   -0.2124    0.0560 H   0  0  0  0  0  0  0  0  0  0  0  0
    0.3758   -1.4877    0.0560 N   0  0  0  0  0  0  0  0  0  0  0  0
    0.7442   -2.5298    0.0560 N   0  0  0  0  0  0  0  0  0  0  0  0
  1  2  1  0  0  0  0
  3  1  1  0  0  0  0
  4  1  1  0  0  0  0
  5  1  1  0  0  0  0
  6  5  1  0  0  0  0
M  RAD  2   5   2   6   3
M  END
