Coordinates from ORCA-job CH3-N2+-scan-d09-169-n800
 OpenBabel09191814093D

  6  4  0  0  0  0  0  0  0  0999 V2000
   -0.5974    1.2649    0.0560 C   0  0  0  0  0  0  0  0  0  0  0  0
   -0.0810    1.4472    1.0046 H   0  0  0  0  0  0  0  0  0  0  0  0
   -0.0810    1.4472   -0.8925 H   0  0  0  0  0  0  0  0  0  0  0  0
   -1.6299    0.8996    0.0560 H   0  0  0  0  0  0  0  0  0  0  0  0
    1.2314   -3.9071    0.0560 N   0  0  0  0  0  0  0  0  0  0  0  0
    1.5995   -4.9493    0.0560 N   0  0  0  0  0  0  0  0  0  0  0  0
  1  2  1  0  0  0  0
  3  1  1  0  0  0  0
  4  1  1  0  0  0  0
  6  5  3  0  0  0  0
M  RAD  1   1   2
M  END
