Coordinates from ORCA-job CH3-N2+-scan-d09-169-n800
 OpenBabel09191814093D

  6  4  0  0  0  0  0  0  0  0999 V2000
   -0.4639    0.8872    0.0560 C   0  0  0  0  0  0  0  0  0  0  0  0
    0.0523    1.0696    1.0043 H   0  0  0  0  0  0  0  0  0  0  0  0
    0.0524    1.0696   -0.8922 H   0  0  0  0  0  0  0  0  0  0  0  0
   -1.4962    0.5221    0.0560 H   0  0  0  0  0  0  0  0  0  0  0  0
    0.9643   -3.1520    0.0560 N   0  0  0  0  0  0  0  0  0  0  0  0
    1.3326   -4.1941    0.0560 N   0  0  0  0  0  0  0  0  0  0  0  0
  1  2  1  0  0  0  0
  3  1  1  0  0  0  0
  4  1  1  0  0  0  0
  6  5  3  0  0  0  0
M  RAD  1   1   2
M  END
