Coordinates from ORCA-job CH3-N2+-scan-d09-169-n800
 OpenBabel09191814093D

  6  4  0  0  0  0  0  0  0  0999 V2000
   -1.4340    3.6310    0.0561 C   0  0  0  0  0  0  0  0  0  0  0  0
   -0.9183    3.8134    1.0036 H   0  0  0  0  0  0  0  0  0  0  0  0
   -0.9183    3.8134   -0.8914 H   0  0  0  0  0  0  0  0  0  0  0  0
   -2.4656    3.2665    0.0560 H   0  0  0  0  0  0  0  0  0  0  0  0
    2.9065   -8.6390    0.0559 N   0  0  0  0  0  0  0  0  0  0  0  0
    3.2713   -9.6829    0.0559 N   0  0  0  0  0  0  0  0  0  0  0  0
  1  2  1  0  0  0  0
  3  1  1  0  0  0  0
  4  1  1  0  0  0  0
  6  5  3  0  0  0  0
M  RAD  1   1   2
M  END
