Coordinates from ORCA-job CH3-N2+-scan-d09-169-n800
 OpenBabel09191814093D

  6  5  0  0  0  0  0  0  0  0999 V2000
   -0.0421   -0.3056    0.0560 C   0  0  0  0  0  0  0  0  0  0  0  0
    0.2933    0.2767    0.9399 H   0  0  0  0  0  0  0  0  0  0  0  0
    0.2933    0.2767   -0.8279 H   0  0  0  0  0  0  0  0  0  0  0  0
   -1.1501   -0.2337    0.0560 H   0  0  0  0  0  0  0  0  0  0  0  0
    0.3380   -1.3807    0.0560 N   0  0  0  0  0  0  0  0  0  0  0  0
    0.7093   -2.4309    0.0560 N   0  0  0  0  0  0  0  0  0  0  0  0
  1  2  1  0  0  0  0
  3  1  1  0  0  0  0
  4  1  1  0  0  0  0
  5  1  1  0  0  0  0
  6  5  1  0  0  0  0
M  RAD  2   5   2   6   3
M  END
