Coordinates from ORCA-job CH3-N2+-scan-d09-169-n800
 OpenBabel09191814093D

  6  4  0  0  0  0  0  0  0  0999 V2000
   -1.6410    4.2163    0.0561 C   0  0  0  0  0  0  0  0  0  0  0  0
   -1.1253    4.3986    1.0034 H   0  0  0  0  0  0  0  0  0  0  0  0
   -1.1253    4.3986   -0.8913 H   0  0  0  0  0  0  0  0  0  0  0  0
   -2.6724    3.8518    0.0560 H   0  0  0  0  0  0  0  0  0  0  0  0
    3.3215   -9.8092    0.0559 N   0  0  0  0  0  0  0  0  0  0  0  0
    3.6842  -10.8538    0.0559 N   0  0  0  0  0  0  0  0  0  0  0  0
  1  2  1  0  0  0  0
  3  1  1  0  0  0  0
  4  1  1  0  0  0  0
  6  5  3  0  0  0  0
M  RAD  1   1   2
M  END
