Coordinates from ORCA-job CH3-N2+-scan-d09-169-n800
 OpenBabel09191814093D

  6  4  0  0  0  0  0  0  0  0999 V2000
   -0.8666    2.0263    0.0560 C   0  0  0  0  0  0  0  0  0  0  0  0
   -0.3505    2.2087    1.0042 H   0  0  0  0  0  0  0  0  0  0  0  0
   -0.3505    2.2087   -0.8921 H   0  0  0  0  0  0  0  0  0  0  0  0
   -1.8989    1.6614    0.0560 H   0  0  0  0  0  0  0  0  0  0  0  0
    1.7702   -5.4300    0.0560 N   0  0  0  0  0  0  0  0  0  0  0  0
    2.1378   -6.4726    0.0560 N   0  0  0  0  0  0  0  0  0  0  0  0
  1  2  1  0  0  0  0
  3  1  1  0  0  0  0
  4  1  1  0  0  0  0
  6  5  3  0  0  0  0
M  RAD  1   1   2
M  END
