Coordinates from ORCA-job CH3-N2+-scan-d09-169-n800
 OpenBabel09191814093D

  6  5  0  0  0  0  0  0  0  0999 V2000
   -0.0562   -0.2659    0.0560 C   0  0  0  0  0  0  0  0  0  0  0  0
    0.2935    0.2873    0.9464 H   0  0  0  0  0  0  0  0  0  0  0  0
    0.2935    0.2874   -0.8344 H   0  0  0  0  0  0  0  0  0  0  0  0
   -1.1605   -0.2267    0.0560 H   0  0  0  0  0  0  0  0  0  0  0  0
    0.3506   -1.4165    0.0560 N   0  0  0  0  0  0  0  0  0  0  0  0
    0.7207   -2.4631    0.0560 N   0  0  0  0  0  0  0  0  0  0  0  0
  1  2  1  0  0  0  0
  3  1  1  0  0  0  0
  4  1  1  0  0  0  0
  5  1  1  0  0  0  0
  6  5  1  0  0  0  0
M  RAD  2   5   2   6   3
M  END
