Coordinates from ORCA-job CH3-N2+-scan-d09-169-n800
 OpenBabel09191814093D

  6  4  0  0  0  0  0  0  0  0999 V2000
   -0.3813    0.6536    0.0560 C   0  0  0  0  0  0  0  0  0  0  0  0
    0.1341    0.8373    1.0037 H   0  0  0  0  0  0  0  0  0  0  0  0
    0.1341    0.8373   -0.8916 H   0  0  0  0  0  0  0  0  0  0  0  0
   -1.4134    0.2902    0.0560 H   0  0  0  0  0  0  0  0  0  0  0  0
    0.7999   -2.6870    0.0560 N   0  0  0  0  0  0  0  0  0  0  0  0
    1.1682   -3.7290    0.0560 N   0  0  0  0  0  0  0  0  0  0  0  0
  1  2  1  0  0  0  0
  3  1  1  0  0  0  0
  4  1  1  0  0  0  0
  6  5  3  0  0  0  0
M  RAD  1   1   2
M  END
