Coordinates from ORCA-job CH3-N2+-scan-d09-169-n800
 OpenBabel09191814093D

  6  4  0  0  0  0  0  0  0  0999 V2000
   -0.8755    2.0514    0.0560 C   0  0  0  0  0  0  0  0  0  0  0  0
   -0.3594    2.2339    1.0042 H   0  0  0  0  0  0  0  0  0  0  0  0
   -0.3594    2.2339   -0.8921 H   0  0  0  0  0  0  0  0  0  0  0  0
   -1.9078    1.6866    0.0560 H   0  0  0  0  0  0  0  0  0  0  0  0
    1.7880   -5.4804    0.0560 N   0  0  0  0  0  0  0  0  0  0  0  0
    2.1556   -6.5230    0.0560 N   0  0  0  0  0  0  0  0  0  0  0  0
  1  2  1  0  0  0  0
  3  1  1  0  0  0  0
  4  1  1  0  0  0  0
  6  5  3  0  0  0  0
M  RAD  1   1   2
M  END
