Coordinates from ORCA-job CH3-N2+-scan-d09-169-n800
 OpenBabel09191814093D

  6  5  0  0  0  0  0  0  0  0999 V2000
   -0.1518    0.0045    0.0560 C   0  0  0  0  0  0  0  0  0  0  0  0
    0.2908    0.3619    0.9851 H   0  0  0  0  0  0  0  0  0  0  0  0
    0.2908    0.3619   -0.8731 H   0  0  0  0  0  0  0  0  0  0  0  0
   -1.2264   -0.1745    0.0560 H   0  0  0  0  0  0  0  0  0  0  0  0
    0.4352   -1.6558    0.0560 N   0  0  0  0  0  0  0  0  0  0  0  0
    0.8029   -2.6956    0.0560 N   0  0  0  0  0  0  0  0  0  0  0  0
  1  2  1  0  0  0  0
  3  1  1  0  0  0  0
  4  1  1  0  0  0  0
  5  1  1  0  0  0  0
  6  5  1  0  0  0  0
M  RAD  2   5   2   6   3
M  END
