Coordinates from ORCA-job CH3-N2+-scan-d09-169-n800
 OpenBabel09191814093D

  6  4  0  0  0  0  0  0  0  0999 V2000
   -0.5395    1.1013    0.0560 C   0  0  0  0  0  0  0  0  0  0  0  0
   -0.0232    1.2835    1.0045 H   0  0  0  0  0  0  0  0  0  0  0  0
   -0.0231    1.2835   -0.8924 H   0  0  0  0  0  0  0  0  0  0  0  0
   -1.5720    0.7359    0.0560 H   0  0  0  0  0  0  0  0  0  0  0  0
    1.1156   -3.5798    0.0560 N   0  0  0  0  0  0  0  0  0  0  0  0
    1.4838   -4.6220    0.0560 N   0  0  0  0  0  0  0  0  0  0  0  0
  1  2  1  0  0  0  0
  3  1  1  0  0  0  0
  4  1  1  0  0  0  0
  6  5  3  0  0  0  0
M  RAD  1   1   2
M  END
