Coordinates from ORCA-job CH3-N2+-scan-d09-169-n800
 OpenBabel09191814093D

  6  4  0  0  0  0  0  0  0  0999 V2000
   -1.6610    4.2729    0.0561 C   0  0  0  0  0  0  0  0  0  0  0  0
   -1.1454    4.4553    1.0034 H   0  0  0  0  0  0  0  0  0  0  0  0
   -1.1453    4.4553   -0.8913 H   0  0  0  0  0  0  0  0  0  0  0  0
   -2.6924    3.9084    0.0560 H   0  0  0  0  0  0  0  0  0  0  0  0
    3.3617   -9.9224    0.0559 N   0  0  0  0  0  0  0  0  0  0  0  0
    3.7241  -10.9671    0.0559 N   0  0  0  0  0  0  0  0  0  0  0  0
  1  2  1  0  0  0  0
  3  1  1  0  0  0  0
  4  1  1  0  0  0  0
  6  5  3  0  0  0  0
M  RAD  1   1   2
M  END
