Coordinates from ORCA-job CH3-N2+-scan-d09-169-n800
 OpenBabel09191814093D

  6  4  0  0  0  0  0  0  0  0999 V2000
   -1.6432    4.2226    0.0561 C   0  0  0  0  0  0  0  0  0  0  0  0
   -1.1276    4.4049    1.0034 H   0  0  0  0  0  0  0  0  0  0  0  0
   -1.1275    4.4049   -0.8913 H   0  0  0  0  0  0  0  0  0  0  0  0
   -2.6747    3.8581    0.0560 H   0  0  0  0  0  0  0  0  0  0  0  0
    3.3259   -9.8217    0.0559 N   0  0  0  0  0  0  0  0  0  0  0  0
    3.6886  -10.8664    0.0559 N   0  0  0  0  0  0  0  0  0  0  0  0
  1  2  1  0  0  0  0
  3  1  1  0  0  0  0
  4  1  1  0  0  0  0
  6  5  3  0  0  0  0
M  RAD  1   1   2
M  END
