Coordinates from ORCA-job CH3-N2+-scan-d09-169-n800
 OpenBabel09191814093D

  6  4  0  0  0  0  0  0  0  0999 V2000
   -0.6908    1.5291    0.0560 C   0  0  0  0  0  0  0  0  0  0  0  0
   -0.1745    1.7115    1.0046 H   0  0  0  0  0  0  0  0  0  0  0  0
   -0.1744    1.7116   -0.8925 H   0  0  0  0  0  0  0  0  0  0  0  0
   -1.7234    1.1639    0.0560 H   0  0  0  0  0  0  0  0  0  0  0  0
    1.4184   -4.4357    0.0560 N   0  0  0  0  0  0  0  0  0  0  0  0
    1.7864   -5.4780    0.0560 N   0  0  0  0  0  0  0  0  0  0  0  0
  1  2  1  0  0  0  0
  3  1  1  0  0  0  0
  4  1  1  0  0  0  0
  6  5  3  0  0  0  0
M  RAD  1   1   2
M  END
