Coordinates from ORCA-job CH3-N2+-scan-d09-169-n800
 OpenBabel09191814093D

  6  4  0  0  0  0  0  0  0  0999 V2000
   -0.7642    1.7368    0.0560 C   0  0  0  0  0  0  0  0  0  0  0  0
   -0.2480    1.9192    1.0045 H   0  0  0  0  0  0  0  0  0  0  0  0
   -0.2479    1.9192   -0.8924 H   0  0  0  0  0  0  0  0  0  0  0  0
   -1.7968    1.3717    0.0560 H   0  0  0  0  0  0  0  0  0  0  0  0
    1.5653   -4.8511    0.0560 N   0  0  0  0  0  0  0  0  0  0  0  0
    1.9332   -5.8935    0.0560 N   0  0  0  0  0  0  0  0  0  0  0  0
  1  2  1  0  0  0  0
  3  1  1  0  0  0  0
  4  1  1  0  0  0  0
  6  5  3  0  0  0  0
M  RAD  1   1   2
M  END
