Coordinates from ORCA-job CH3-N2+-scan-d09-169-n800
 OpenBabel09191814093D

  6  4  0  0  0  0  0  0  0  0999 V2000
   -1.6165    4.1471    0.0561 C   0  0  0  0  0  0  0  0  0  0  0  0
   -1.1009    4.3294    1.0035 H   0  0  0  0  0  0  0  0  0  0  0  0
   -1.1008    4.3294   -0.8913 H   0  0  0  0  0  0  0  0  0  0  0  0
   -2.6480    3.7826    0.0560 H   0  0  0  0  0  0  0  0  0  0  0  0
    3.2724   -9.6708    0.0559 N   0  0  0  0  0  0  0  0  0  0  0  0
    3.6354  -10.7153    0.0559 N   0  0  0  0  0  0  0  0  0  0  0  0
  1  2  1  0  0  0  0
  3  1  1  0  0  0  0
  4  1  1  0  0  0  0
  6  5  3  0  0  0  0
M  RAD  1   1   2
M  END
