Coordinates from ORCA-job CH3-N2+-scan-d09-169-n800
 OpenBabel09191814093D

  6  4  0  0  0  0  0  0  0  0999 V2000
   -0.3384    0.5324    0.0560 C   0  0  0  0  0  0  0  0  0  0  0  0
    0.1754    0.7192    1.0030 H   0  0  0  0  0  0  0  0  0  0  0  0
    0.1755    0.7192   -0.8909 H   0  0  0  0  0  0  0  0  0  0  0  0
   -1.3710    0.1725    0.0560 H   0  0  0  0  0  0  0  0  0  0  0  0
    0.7159   -2.4495    0.0560 N   0  0  0  0  0  0  0  0  0  0  0  0
    1.0842   -3.4914    0.0560 N   0  0  0  0  0  0  0  0  0  0  0  0
  1  2  1  0  0  0  0
  3  1  1  0  0  0  0
  4  1  1  0  0  0  0
  6  5  3  0  0  0  0
M  RAD  1   1   2
M  END
