Coordinates from ORCA-job CH3-N2+-scan-d09-169-n800
 OpenBabel09191814093D

  6  4  0  0  0  0  0  0  0  0999 V2000
   -0.3475    0.5581    0.0560 C   0  0  0  0  0  0  0  0  0  0  0  0
    0.1668    0.7439    1.0032 H   0  0  0  0  0  0  0  0  0  0  0  0
    0.1668    0.7440   -0.8911 H   0  0  0  0  0  0  0  0  0  0  0  0
   -1.3799    0.1971    0.0560 H   0  0  0  0  0  0  0  0  0  0  0  0
    0.7335   -2.4994    0.0560 N   0  0  0  0  0  0  0  0  0  0  0  0
    1.1018   -3.5413    0.0560 N   0  0  0  0  0  0  0  0  0  0  0  0
  1  2  1  0  0  0  0
  3  1  1  0  0  0  0
  4  1  1  0  0  0  0
  6  5  3  0  0  0  0
M  RAD  1   1   2
M  END
