Coordinates from ORCA-job CH3-N2+-scan-d09-169-n800
 OpenBabel09191814093D

  6  5  0  0  0  0  0  0  0  0999 V2000
   -0.1414   -0.0249    0.0560 C   0  0  0  0  0  0  0  0  0  0  0  0
    0.2920    0.3529    0.9820 H   0  0  0  0  0  0  0  0  0  0  0  0
    0.2921    0.3530   -0.8699 H   0  0  0  0  0  0  0  0  0  0  0  0
   -1.2200   -0.1816    0.0560 H   0  0  0  0  0  0  0  0  0  0  0  0
    0.4256   -1.6286    0.0560 N   0  0  0  0  0  0  0  0  0  0  0  0
    0.7932   -2.6684    0.0560 N   0  0  0  0  0  0  0  0  0  0  0  0
  1  2  1  0  0  0  0
  3  1  1  0  0  0  0
  4  1  1  0  0  0  0
  5  1  1  0  0  0  0
  6  5  1  0  0  0  0
M  RAD  2   5   2   6   3
M  END
