Coordinates from ORCA-job CH3-N2+-scan-d09-169-n800
 OpenBabel09191814093D

  6  4  0  0  0  0  0  0  0  0999 V2000
   -1.4763    3.7506    0.0561 C   0  0  0  0  0  0  0  0  0  0  0  0
   -0.9606    3.9329    1.0035 H   0  0  0  0  0  0  0  0  0  0  0  0
   -0.9606    3.9330   -0.8914 H   0  0  0  0  0  0  0  0  0  0  0  0
   -2.5079    3.3861    0.0560 H   0  0  0  0  0  0  0  0  0  0  0  0
    2.9913   -8.8781    0.0559 N   0  0  0  0  0  0  0  0  0  0  0  0
    3.3557   -9.9221    0.0559 N   0  0  0  0  0  0  0  0  0  0  0  0
  1  2  1  0  0  0  0
  3  1  1  0  0  0  0
  4  1  1  0  0  0  0
  6  5  3  0  0  0  0
M  RAD  1   1   2
M  END
