Coordinates from ORCA-job CH3-N2+-scan-d09-169-n800
 OpenBabel09191814093D

  6  4  0  0  0  0  0  0  0  0999 V2000
   -0.4861    0.9502    0.0560 C   0  0  0  0  0  0  0  0  0  0  0  0
    0.0302    1.1325    1.0044 H   0  0  0  0  0  0  0  0  0  0  0  0
    0.0302    1.1325   -0.8923 H   0  0  0  0  0  0  0  0  0  0  0  0
   -1.5185    0.5849    0.0560 H   0  0  0  0  0  0  0  0  0  0  0  0
    1.0088   -3.2778    0.0560 N   0  0  0  0  0  0  0  0  0  0  0  0
    1.3771   -4.3199    0.0560 N   0  0  0  0  0  0  0  0  0  0  0  0
  1  2  1  0  0  0  0
  3  1  1  0  0  0  0
  4  1  1  0  0  0  0
  6  5  3  0  0  0  0
M  RAD  1   1   2
M  END
