Coordinates from ORCA-job CH3-N2+-scan-d09-169-n800
 OpenBabel09191814093D

  6  4  0  0  0  0  0  0  0  0999 V2000
   -0.4549    0.8620    0.0560 C   0  0  0  0  0  0  0  0  0  0  0  0
    0.0612    1.0444    1.0043 H   0  0  0  0  0  0  0  0  0  0  0  0
    0.0612    1.0444   -0.8922 H   0  0  0  0  0  0  0  0  0  0  0  0
   -1.4872    0.4969    0.0560 H   0  0  0  0  0  0  0  0  0  0  0  0
    0.9465   -3.1016    0.0560 N   0  0  0  0  0  0  0  0  0  0  0  0
    1.3148   -4.1438    0.0560 N   0  0  0  0  0  0  0  0  0  0  0  0
  1  2  1  0  0  0  0
  3  1  1  0  0  0  0
  4  1  1  0  0  0  0
  6  5  3  0  0  0  0
M  RAD  1   1   2
M  END
