Coordinates from ORCA-job CH3-N2+-scan-d09-169-n800
 OpenBabel09191814093D

  6  4  0  0  0  0  0  0  0  0999 V2000
   -1.7456    4.5121    0.0561 C   0  0  0  0  0  0  0  0  0  0  0  0
   -1.2300    4.6944    1.0034 H   0  0  0  0  0  0  0  0  0  0  0  0
   -1.2299    4.6944   -0.8913 H   0  0  0  0  0  0  0  0  0  0  0  0
   -2.7770    4.1476    0.0560 H   0  0  0  0  0  0  0  0  0  0  0  0
    3.5313  -10.4005    0.0559 N   0  0  0  0  0  0  0  0  0  0  0  0
    3.8927  -11.4456    0.0559 N   0  0  0  0  0  0  0  0  0  0  0  0
  1  2  1  0  0  0  0
  3  1  1  0  0  0  0
  4  1  1  0  0  0  0
  6  5  3  0  0  0  0
M  RAD  1   1   2
M  END
