Coordinates from ORCA-job CH3-N2+-scan-d09-169-n800
 OpenBabel09191814093D

  6  4  0  0  0  0  0  0  0  0999 V2000
   -1.1870    2.9325    0.0560 C   0  0  0  0  0  0  0  0  0  0  0  0
   -0.6712    3.1149    1.0038 H   0  0  0  0  0  0  0  0  0  0  0  0
   -0.6712    3.1149   -0.8917 H   0  0  0  0  0  0  0  0  0  0  0  0
   -2.2188    2.5679    0.0560 H   0  0  0  0  0  0  0  0  0  0  0  0
    2.4117   -7.2422    0.0560 N   0  0  0  0  0  0  0  0  0  0  0  0
    2.7781   -8.2855    0.0559 N   0  0  0  0  0  0  0  0  0  0  0  0
  1  2  1  0  0  0  0
  3  1  1  0  0  0  0
  4  1  1  0  0  0  0
  6  5  3  0  0  0  0
M  RAD  1   1   2
M  END
