Coordinates from ORCA-job CH3-N2+-scan-d09-169-n800
 OpenBabel09191814093D

  6  5  0  0  0  0  0  0  0  0999 V2000
   -0.0208   -0.3660    0.0560 C   0  0  0  0  0  0  0  0  0  0  0  0
    0.2925    0.2623    0.9303 H   0  0  0  0  0  0  0  0  0  0  0  0
    0.2925    0.2623   -0.8183 H   0  0  0  0  0  0  0  0  0  0  0  0
   -1.1352   -0.2425    0.0560 H   0  0  0  0  0  0  0  0  0  0  0  0
    0.3193   -1.3278    0.0560 N   0  0  0  0  0  0  0  0  0  0  0  0
    0.6934   -2.3859    0.0560 N   0  0  0  0  0  0  0  0  0  0  0  0
  1  2  1  0  0  0  0
  3  1  1  0  0  0  0
  4  1  1  0  0  0  0
  5  1  1  0  0  0  0
  6  5  1  0  0  0  0
M  RAD  2   5   2   6   3
M  END
