Coordinates from ORCA-job CH3-N2+-scan-d09-169-n800
 OpenBabel09191814093D

  6  4  0  0  0  0  0  0  0  0999 V2000
   -0.6063    1.2900    0.0560 C   0  0  0  0  0  0  0  0  0  0  0  0
   -0.0899    1.4723    1.0046 H   0  0  0  0  0  0  0  0  0  0  0  0
   -0.0899    1.4724   -0.8925 H   0  0  0  0  0  0  0  0  0  0  0  0
   -1.6388    0.9247    0.0560 H   0  0  0  0  0  0  0  0  0  0  0  0
    1.2492   -3.9574    0.0560 N   0  0  0  0  0  0  0  0  0  0  0  0
    1.6173   -4.9997    0.0560 N   0  0  0  0  0  0  0  0  0  0  0  0
  1  2  1  0  0  0  0
  3  1  1  0  0  0  0
  4  1  1  0  0  0  0
  6  5  3  0  0  0  0
M  RAD  1   1   2
M  END
