Coordinates from ORCA-job CH3-N2+-scan-d09-169-n800
 OpenBabel09191814093D

  6  4  0  0  0  0  0  0  0  0999 V2000
   -1.6922    4.3610    0.0561 C   0  0  0  0  0  0  0  0  0  0  0  0
   -1.1765    4.5434    1.0034 H   0  0  0  0  0  0  0  0  0  0  0  0
   -1.1765    4.5434   -0.8913 H   0  0  0  0  0  0  0  0  0  0  0  0
   -2.7236    3.9965    0.0560 H   0  0  0  0  0  0  0  0  0  0  0  0
    3.4242  -10.0985    0.0559 N   0  0  0  0  0  0  0  0  0  0  0  0
    3.7863  -11.1434    0.0559 N   0  0  0  0  0  0  0  0  0  0  0  0
  1  2  1  0  0  0  0
  3  1  1  0  0  0  0
  4  1  1  0  0  0  0
  6  5  3  0  0  0  0
M  RAD  1   1   2
M  END
