Coordinates from ORCA-job CH3-N2+-scan-d09-169-n800
 OpenBabel09191814093D

  6  4  0  0  0  0  0  0  0  0999 V2000
   -0.9734    2.3283    0.0560 C   0  0  0  0  0  0  0  0  0  0  0  0
   -0.4574    2.5108    1.0040 H   0  0  0  0  0  0  0  0  0  0  0  0
   -0.4574    2.5108   -0.8919 H   0  0  0  0  0  0  0  0  0  0  0  0
   -2.0055    1.9636    0.0560 H   0  0  0  0  0  0  0  0  0  0  0  0
    1.9840   -6.0341    0.0560 N   0  0  0  0  0  0  0  0  0  0  0  0
    2.3513   -7.0769    0.0560 N   0  0  0  0  0  0  0  0  0  0  0  0
  1  2  1  0  0  0  0
  3  1  1  0  0  0  0
  4  1  1  0  0  0  0
  6  5  3  0  0  0  0
M  RAD  1   1   2
M  END
