Coordinates from ORCA-job CH3-N2+-scan-d09-169-n800
 OpenBabel09191814093D

  6  5  0  0  0  0  0  0  0  0999 V2000
   -0.0098   -0.3970    0.0560 C   0  0  0  0  0  0  0  0  0  0  0  0
    0.2915    0.2565    0.9254 H   0  0  0  0  0  0  0  0  0  0  0  0
    0.2916    0.2565   -0.8134 H   0  0  0  0  0  0  0  0  0  0  0  0
   -1.1282   -0.2455    0.0560 H   0  0  0  0  0  0  0  0  0  0  0  0
    0.3102   -1.3022    0.0560 N   0  0  0  0  0  0  0  0  0  0  0  0
    0.6863   -2.3659    0.0560 N   0  0  0  0  0  0  0  0  0  0  0  0
  1  2  1  0  0  0  0
  3  1  1  0  0  0  0
  4  1  1  0  0  0  0
  5  1  1  0  0  0  0
  6  5  1  0  0  0  0
M  RAD  2   5   2   6   3
M  END
