Coordinates from ORCA-job CH3-N2+-scan-d09-169-n800
 OpenBabel09191814093D

  6  4  0  0  0  0  0  0  0  0999 V2000
   -0.5351    1.0887    0.0560 C   0  0  0  0  0  0  0  0  0  0  0  0
   -0.0187    1.2709    1.0045 H   0  0  0  0  0  0  0  0  0  0  0  0
   -0.0187    1.2710   -0.8924 H   0  0  0  0  0  0  0  0  0  0  0  0
   -1.5676    0.7233    0.0560 H   0  0  0  0  0  0  0  0  0  0  0  0
    1.1067   -3.5547    0.0560 N   0  0  0  0  0  0  0  0  0  0  0  0
    1.4749   -4.5968    0.0560 N   0  0  0  0  0  0  0  0  0  0  0  0
  1  2  1  0  0  0  0
  3  1  1  0  0  0  0
  4  1  1  0  0  0  0
  6  5  3  0  0  0  0
M  RAD  1   1   2
M  END
