Coordinates from ORCA-job CH3-N2+-scan-d09-169-n800
 OpenBabel09191814093D

  6  4  0  0  0  0  0  0  0  0999 V2000
   -1.5320    3.9079    0.0561 C   0  0  0  0  0  0  0  0  0  0  0  0
   -1.0163    4.0903    1.0035 H   0  0  0  0  0  0  0  0  0  0  0  0
   -1.0162    4.0903   -0.8914 H   0  0  0  0  0  0  0  0  0  0  0  0
   -2.5635    3.5434    0.0560 H   0  0  0  0  0  0  0  0  0  0  0  0
    3.1028   -9.1926    0.0559 N   0  0  0  0  0  0  0  0  0  0  0  0
    3.4667  -10.2368    0.0559 N   0  0  0  0  0  0  0  0  0  0  0  0
  1  2  1  0  0  0  0
  3  1  1  0  0  0  0
  4  1  1  0  0  0  0
  6  5  3  0  0  0  0
M  RAD  1   1   2
M  END
