Coordinates from ORCA-job CH3-N2+-scan-d09-169-n800
 OpenBabel09191814093D

  6  4  0  0  0  0  0  0  0  0999 V2000
   -1.2916    3.2282    0.0561 C   0  0  0  0  0  0  0  0  0  0  0  0
   -0.7758    3.4106    1.0037 H   0  0  0  0  0  0  0  0  0  0  0  0
   -0.7758    3.4107   -0.8915 H   0  0  0  0  0  0  0  0  0  0  0  0
   -2.3233    2.8637    0.0560 H   0  0  0  0  0  0  0  0  0  0  0  0
    2.6212   -7.8337    0.0560 N   0  0  0  0  0  0  0  0  0  0  0  0
    2.9870   -8.8772    0.0559 N   0  0  0  0  0  0  0  0  0  0  0  0
  1  2  1  0  0  0  0
  3  1  1  0  0  0  0
  4  1  1  0  0  0  0
  6  5  3  0  0  0  0
M  RAD  1   1   2
M  END
