Coordinates from ORCA-job CH3-N2+-scan-d09-169-n800
 OpenBabel09191814093D

  6  4  0  0  0  0  0  0  0  0999 V2000
   -1.5609    3.9897    0.0561 C   0  0  0  0  0  0  0  0  0  0  0  0
   -1.0452    4.1721    1.0035 H   0  0  0  0  0  0  0  0  0  0  0  0
   -1.0452    4.1721   -0.8914 H   0  0  0  0  0  0  0  0  0  0  0  0
   -2.5924    3.6252    0.0560 H   0  0  0  0  0  0  0  0  0  0  0  0
    3.1608   -9.3562    0.0559 N   0  0  0  0  0  0  0  0  0  0  0  0
    3.5244  -10.4005    0.0559 N   0  0  0  0  0  0  0  0  0  0  0  0
  1  2  1  0  0  0  0
  3  1  1  0  0  0  0
  4  1  1  0  0  0  0
  6  5  3  0  0  0  0
M  RAD  1   1   2
M  END
