Coordinates from ORCA-job CH3-N2+-scan-d09-169-n800
 OpenBabel09191814093D

  6  4  0  0  0  0  0  0  0  0999 V2000
   -1.7078    4.4051    0.0561 C   0  0  0  0  0  0  0  0  0  0  0  0
   -1.1921    4.5874    1.0034 H   0  0  0  0  0  0  0  0  0  0  0  0
   -1.1921    4.5874   -0.8913 H   0  0  0  0  0  0  0  0  0  0  0  0
   -2.7392    4.0406    0.0560 H   0  0  0  0  0  0  0  0  0  0  0  0
    3.4554  -10.1866    0.0559 N   0  0  0  0  0  0  0  0  0  0  0  0
    3.8173  -11.2315    0.0559 N   0  0  0  0  0  0  0  0  0  0  0  0
  1  2  1  0  0  0  0
  3  1  1  0  0  0  0
  4  1  1  0  0  0  0
  6  5  3  0  0  0  0
M  RAD  1   1   2
M  END
