Coordinates from ORCA-job CH3-N2+-scan-d09-169-n800
 OpenBabel09191814093D

  6  5  0  0  0  0  0  0  0  0999 V2000
   -0.0632   -0.2460    0.0560 C   0  0  0  0  0  0  0  0  0  0  0  0
    0.2935    0.2928    0.9497 H   0  0  0  0  0  0  0  0  0  0  0  0
    0.2936    0.2928   -0.8376 H   0  0  0  0  0  0  0  0  0  0  0  0
   -1.1658   -0.2232    0.0560 H   0  0  0  0  0  0  0  0  0  0  0  0
    0.3570   -1.4344    0.0560 N   0  0  0  0  0  0  0  0  0  0  0  0
    0.7265   -2.4796    0.0560 N   0  0  0  0  0  0  0  0  0  0  0  0
  1  2  1  0  0  0  0
  3  1  1  0  0  0  0
  4  1  1  0  0  0  0
  5  1  1  0  0  0  0
  6  5  1  0  0  0  0
M  RAD  2   5   2   6   3
M  END
