Coordinates from ORCA-job CH3-N2+-scan-d09-169-n800
 OpenBabel09191814093D

  6  4  0  0  0  0  0  0  0  0999 V2000
   -1.3695    3.4485    0.0561 C   0  0  0  0  0  0  0  0  0  0  0  0
   -0.8537    3.6309    1.0036 H   0  0  0  0  0  0  0  0  0  0  0  0
   -0.8537    3.6309   -0.8915 H   0  0  0  0  0  0  0  0  0  0  0  0
   -2.4011    3.0840    0.0560 H   0  0  0  0  0  0  0  0  0  0  0  0
    2.7772   -8.2741    0.0559 N   0  0  0  0  0  0  0  0  0  0  0  0
    3.1425   -9.3178    0.0559 N   0  0  0  0  0  0  0  0  0  0  0  0
  1  2  1  0  0  0  0
  3  1  1  0  0  0  0
  4  1  1  0  0  0  0
  6  5  3  0  0  0  0
M  RAD  1   1   2
M  END
