Coordinates from ORCA-job CH3-N2+-scan-d09-169-n800
 OpenBabel09191814093D

  6  5  0  0  0  0  0  0  0  0999 V2000
    0.0015   -0.4291    0.0560 C   0  0  0  0  0  0  0  0  0  0  0  0
    0.2900    0.2521    0.9204 H   0  0  0  0  0  0  0  0  0  0  0  0
    0.2900    0.2522   -0.8083 H   0  0  0  0  0  0  0  0  0  0  0  0
   -1.1215   -0.2469    0.0560 H   0  0  0  0  0  0  0  0  0  0  0  0
    0.3015   -1.2776    0.0560 N   0  0  0  0  0  0  0  0  0  0  0  0
    0.6801   -2.3483    0.0560 N   0  0  0  0  0  0  0  0  0  0  0  0
  1  2  1  0  0  0  0
  3  1  1  0  0  0  0
  4  1  1  0  0  0  0
  5  1  1  0  0  0  0
  6  5  1  0  0  0  0
M  RAD  2   5   2   6   3
M  END
