Coordinates from ORCA-job CH3-N2+-scan-d09-169-n800
 OpenBabel09191814093D

  6  4  0  0  0  0  0  0  0  0999 V2000
   -0.6797    1.4977    0.0560 C   0  0  0  0  0  0  0  0  0  0  0  0
   -0.1633    1.6801    1.0046 H   0  0  0  0  0  0  0  0  0  0  0  0
   -0.1633    1.6801   -0.8925 H   0  0  0  0  0  0  0  0  0  0  0  0
   -1.7123    1.1325    0.0560 H   0  0  0  0  0  0  0  0  0  0  0  0
    1.3961   -4.3728    0.0560 N   0  0  0  0  0  0  0  0  0  0  0  0
    1.7641   -5.4151    0.0560 N   0  0  0  0  0  0  0  0  0  0  0  0
  1  2  1  0  0  0  0
  3  1  1  0  0  0  0
  4  1  1  0  0  0  0
  6  5  3  0  0  0  0
M  RAD  1   1   2
M  END
