Coordinates from ORCA-job CH3-N2+-scan-d09-169-n800
 OpenBabel09191814093D

  6  4  0  0  0  0  0  0  0  0999 V2000
   -0.7909    1.8123    0.0560 C   0  0  0  0  0  0  0  0  0  0  0  0
   -0.2747    1.9947    1.0044 H   0  0  0  0  0  0  0  0  0  0  0  0
   -0.2747    1.9948   -0.8923 H   0  0  0  0  0  0  0  0  0  0  0  0
   -1.8234    1.4473    0.0560 H   0  0  0  0  0  0  0  0  0  0  0  0
    1.6188   -5.0021    0.0560 N   0  0  0  0  0  0  0  0  0  0  0  0
    1.9866   -6.0446    0.0560 N   0  0  0  0  0  0  0  0  0  0  0  0
  1  2  1  0  0  0  0
  3  1  1  0  0  0  0
  4  1  1  0  0  0  0
  6  5  3  0  0  0  0
M  RAD  1   1   2
M  END
