Coordinates from ORCA-job CH3-N2+-scan-d09-169-n800
 OpenBabel09191814093D

  6  4  0  0  0  0  0  0  0  0999 V2000
   -0.8799    2.0640    0.0560 C   0  0  0  0  0  0  0  0  0  0  0  0
   -0.3638    2.2465    1.0042 H   0  0  0  0  0  0  0  0  0  0  0  0
   -0.3638    2.2465   -0.8921 H   0  0  0  0  0  0  0  0  0  0  0  0
   -1.9122    1.6991    0.0560 H   0  0  0  0  0  0  0  0  0  0  0  0
    1.7969   -5.5055    0.0560 N   0  0  0  0  0  0  0  0  0  0  0  0
    2.1645   -6.5482    0.0560 N   0  0  0  0  0  0  0  0  0  0  0  0
  1  2  1  0  0  0  0
  3  1  1  0  0  0  0
  4  1  1  0  0  0  0
  6  5  3  0  0  0  0
M  RAD  1   1   2
M  END
