Coordinates from ORCA-job CH3-N2+-scan-d09-169-n800
 OpenBabel09191814093D

  6  4  0  0  0  0  0  0  0  0999 V2000
   -0.5952    1.2586    0.0560 C   0  0  0  0  0  0  0  0  0  0  0  0
   -0.0788    1.4409    1.0046 H   0  0  0  0  0  0  0  0  0  0  0  0
   -0.0788    1.4409   -0.8925 H   0  0  0  0  0  0  0  0  0  0  0  0
   -1.6277    0.8933    0.0560 H   0  0  0  0  0  0  0  0  0  0  0  0
    1.2269   -3.8945    0.0560 N   0  0  0  0  0  0  0  0  0  0  0  0
    1.5951   -4.9367    0.0560 N   0  0  0  0  0  0  0  0  0  0  0  0
  1  2  1  0  0  0  0
  3  1  1  0  0  0  0
  4  1  1  0  0  0  0
  6  5  3  0  0  0  0
M  RAD  1   1   2
M  END
