Coordinates from ORCA-job CH3-N2+-scan-d09-169-n800
 OpenBabel09191814093D

  6  4  0  0  0  0  0  0  0  0999 V2000
   -0.5284    1.0698    0.0560 C   0  0  0  0  0  0  0  0  0  0  0  0
   -0.0121    1.2521    1.0045 H   0  0  0  0  0  0  0  0  0  0  0  0
   -0.0120    1.2521   -0.8924 H   0  0  0  0  0  0  0  0  0  0  0  0
   -1.5609    0.7044    0.0560 H   0  0  0  0  0  0  0  0  0  0  0  0
    1.0934   -3.5169    0.0560 N   0  0  0  0  0  0  0  0  0  0  0  0
    1.4616   -4.5591    0.0560 N   0  0  0  0  0  0  0  0  0  0  0  0
  1  2  1  0  0  0  0
  3  1  1  0  0  0  0
  4  1  1  0  0  0  0
  6  5  3  0  0  0  0
M  RAD  1   1   2
M  END
