Coordinates from ORCA-job CH3-N2+-scan-d09-169-n800
 OpenBabel09191814093D

  6  4  0  0  0  0  0  0  0  0999 V2000
   -1.2649    3.1527    0.0561 C   0  0  0  0  0  0  0  0  0  0  0  0
   -0.7491    3.3351    1.0037 H   0  0  0  0  0  0  0  0  0  0  0  0
   -0.7491    3.3351   -0.8916 H   0  0  0  0  0  0  0  0  0  0  0  0
   -2.2966    2.7882    0.0560 H   0  0  0  0  0  0  0  0  0  0  0  0
    2.5677   -7.6827    0.0560 N   0  0  0  0  0  0  0  0  0  0  0  0
    2.9336   -8.7261    0.0559 N   0  0  0  0  0  0  0  0  0  0  0  0
  1  2  1  0  0  0  0
  3  1  1  0  0  0  0
  4  1  1  0  0  0  0
  6  5  3  0  0  0  0
M  RAD  1   1   2
M  END
