Coordinates from ORCA-job CH3-N2+-scan-d09-169-n800
 OpenBabel09191814093D

  6  4  0  0  0  0  0  0  0  0999 V2000
   -1.6499    4.2415    0.0561 C   0  0  0  0  0  0  0  0  0  0  0  0
   -1.1342    4.4238    1.0034 H   0  0  0  0  0  0  0  0  0  0  0  0
   -1.1342    4.4238   -0.8913 H   0  0  0  0  0  0  0  0  0  0  0  0
   -2.6813    3.8770    0.0560 H   0  0  0  0  0  0  0  0  0  0  0  0
    3.3393   -9.8595    0.0559 N   0  0  0  0  0  0  0  0  0  0  0  0
    3.7020  -10.9042    0.0559 N   0  0  0  0  0  0  0  0  0  0  0  0
  1  2  1  0  0  0  0
  3  1  1  0  0  0  0
  4  1  1  0  0  0  0
  6  5  3  0  0  0  0
M  RAD  1   1   2
M  END
