Coordinates from ORCA-job CH3-N2+-scan-d09-169-n800
 OpenBabel09191814093D

  6  4  0  0  0  0  0  0  0  0999 V2000
   -1.4585    3.7002    0.0561 C   0  0  0  0  0  0  0  0  0  0  0  0
   -0.9428    3.8826    1.0035 H   0  0  0  0  0  0  0  0  0  0  0  0
   -0.9428    3.8826   -0.8914 H   0  0  0  0  0  0  0  0  0  0  0  0
   -2.4901    3.3357    0.0560 H   0  0  0  0  0  0  0  0  0  0  0  0
    2.9556   -8.7774    0.0559 N   0  0  0  0  0  0  0  0  0  0  0  0
    3.3201   -9.8214    0.0559 N   0  0  0  0  0  0  0  0  0  0  0  0
  1  2  1  0  0  0  0
  3  1  1  0  0  0  0
  4  1  1  0  0  0  0
  6  5  3  0  0  0  0
M  RAD  1   1   2
M  END
