Coordinates from ORCA-job CH3-N2+-scan-d09-169-n800
 OpenBabel09191814093D

  6  4  0  0  0  0  0  0  0  0999 V2000
   -0.5418    1.1075    0.0560 C   0  0  0  0  0  0  0  0  0  0  0  0
   -0.0254    1.2898    1.0045 H   0  0  0  0  0  0  0  0  0  0  0  0
   -0.0254    1.2898   -0.8924 H   0  0  0  0  0  0  0  0  0  0  0  0
   -1.5742    0.7422    0.0560 H   0  0  0  0  0  0  0  0  0  0  0  0
    1.1201   -3.5924    0.0560 N   0  0  0  0  0  0  0  0  0  0  0  0
    1.4883   -4.6346    0.0560 N   0  0  0  0  0  0  0  0  0  0  0  0
  1  2  1  0  0  0  0
  3  1  1  0  0  0  0
  4  1  1  0  0  0  0
  6  5  3  0  0  0  0
M  RAD  1   1   2
M  END
