Coordinates from ORCA-job CH3-N2+-scan-d09-169-n800
 OpenBabel09191814093D

  6  4  0  0  0  0  0  0  0  0999 V2000
   -0.7865    1.7997    0.0560 C   0  0  0  0  0  0  0  0  0  0  0  0
   -0.2703    1.9821    1.0044 H   0  0  0  0  0  0  0  0  0  0  0  0
   -0.2702    1.9822   -0.8923 H   0  0  0  0  0  0  0  0  0  0  0  0
   -1.8190    1.4347    0.0560 H   0  0  0  0  0  0  0  0  0  0  0  0
    1.6099   -4.9769    0.0560 N   0  0  0  0  0  0  0  0  0  0  0  0
    1.9777   -6.0194    0.0560 N   0  0  0  0  0  0  0  0  0  0  0  0
  1  2  1  0  0  0  0
  3  1  1  0  0  0  0
  4  1  1  0  0  0  0
  6  5  3  0  0  0  0
M  RAD  1   1   2
M  END
