Coordinates from ORCA-job CH3-N2+-scan-d09-169-n800
 OpenBabel09191814093D

  6  4  0  0  0  0  0  0  0  0999 V2000
   -1.8391    4.7764    0.0561 C   0  0  0  0  0  0  0  0  0  0  0  0
   -1.3235    4.9587    1.0034 H   0  0  0  0  0  0  0  0  0  0  0  0
   -1.3234    4.9587   -0.8912 H   0  0  0  0  0  0  0  0  0  0  0  0
   -2.8704    4.4119    0.0560 H   0  0  0  0  0  0  0  0  0  0  0  0
    3.7189  -10.9289    0.0559 N   0  0  0  0  0  0  0  0  0  0  0  0
    4.0790  -11.9744    0.0559 N   0  0  0  0  0  0  0  0  0  0  0  0
  1  2  1  0  0  0  0
  3  1  1  0  0  0  0
  4  1  1  0  0  0  0
  6  5  3  0  0  0  0
M  RAD  1   1   2
M  END
