Coordinates from ORCA-job CH3-N2+-scan-d09-169-n800
 OpenBabel09191814093D

  6  4  0  0  0  0  0  0  0  0999 V2000
   -1.2938    3.2345    0.0561 C   0  0  0  0  0  0  0  0  0  0  0  0
   -0.7781    3.4169    1.0037 H   0  0  0  0  0  0  0  0  0  0  0  0
   -0.7780    3.4170   -0.8915 H   0  0  0  0  0  0  0  0  0  0  0  0
   -2.3255    2.8700    0.0560 H   0  0  0  0  0  0  0  0  0  0  0  0
    2.6257   -7.8463    0.0560 N   0  0  0  0  0  0  0  0  0  0  0  0
    2.9914   -8.8897    0.0559 N   0  0  0  0  0  0  0  0  0  0  0  0
  1  2  1  0  0  0  0
  3  1  1  0  0  0  0
  4  1  1  0  0  0  0
  6  5  3  0  0  0  0
M  RAD  1   1   2
M  END
