Coordinates from ORCA-job CH3-N2+-scan-d09-169-n800
 OpenBabel09191814093D

  6  4  0  0  0  0  0  0  0  0999 V2000
   -0.2555    0.2979    0.0560 C   0  0  0  0  0  0  0  0  0  0  0  0
    0.2469    0.5125    1.0004 H   0  0  0  0  0  0  0  0  0  0  0  0
    0.2469    0.5125   -0.8883 H   0  0  0  0  0  0  0  0  0  0  0  0
   -1.2952   -0.0327    0.0560 H   0  0  0  0  0  0  0  0  0  0  0  0
    0.5652   -2.0232    0.0560 N   0  0  0  0  0  0  0  0  0  0  0  0
    0.9333   -3.0646    0.0560 N   0  0  0  0  0  0  0  0  0  0  0  0
  1  2  1  0  0  0  0
  3  1  1  0  0  0  0
  4  1  1  0  0  0  0
  6  5  3  0  0  0  0
M  RAD  1   1   2
M  END
