Coordinates from ORCA-job CH3-N2+-scan-d09-169-n800
 OpenBabel09191814093D

  6  4  0  0  0  0  0  0  0  0999 V2000
   -0.5840    1.2271    0.0560 C   0  0  0  0  0  0  0  0  0  0  0  0
   -0.0677    1.4094    1.0046 H   0  0  0  0  0  0  0  0  0  0  0  0
   -0.0676    1.4094   -0.8925 H   0  0  0  0  0  0  0  0  0  0  0  0
   -1.6166    0.8618    0.0560 H   0  0  0  0  0  0  0  0  0  0  0  0
    1.2047   -3.8316    0.0560 N   0  0  0  0  0  0  0  0  0  0  0  0
    1.5728   -4.8738    0.0560 N   0  0  0  0  0  0  0  0  0  0  0  0
  1  2  1  0  0  0  0
  3  1  1  0  0  0  0
  4  1  1  0  0  0  0
  6  5  3  0  0  0  0
M  RAD  1   1   2
M  END
