Coordinates from ORCA-job CH3-N2+-scan-d09-169-n800
 OpenBabel09191814093D

  6  4  0  0  0  0  0  0  0  0999 V2000
   -1.5475    3.9520    0.0561 C   0  0  0  0  0  0  0  0  0  0  0  0
   -1.0318    4.1343    1.0035 H   0  0  0  0  0  0  0  0  0  0  0  0
   -1.0318    4.1343   -0.8914 H   0  0  0  0  0  0  0  0  0  0  0  0
   -2.5790    3.5875    0.0560 H   0  0  0  0  0  0  0  0  0  0  0  0
    3.1340   -9.2807    0.0559 N   0  0  0  0  0  0  0  0  0  0  0  0
    3.4978  -10.3250    0.0559 N   0  0  0  0  0  0  0  0  0  0  0  0
  1  2  1  0  0  0  0
  3  1  1  0  0  0  0
  4  1  1  0  0  0  0
  6  5  3  0  0  0  0
M  RAD  1   1   2
M  END
