Coordinates from ORCA-job CH3-N2+-scan-d09-169-n800
 OpenBabel09191814093D

  6  4  0  0  0  0  0  0  0  0999 V2000
   -1.4474    3.6688    0.0561 C   0  0  0  0  0  0  0  0  0  0  0  0
   -0.9317    3.8511    1.0036 H   0  0  0  0  0  0  0  0  0  0  0  0
   -0.9316    3.8512   -0.8914 H   0  0  0  0  0  0  0  0  0  0  0  0
   -2.4790    3.3043    0.0560 H   0  0  0  0  0  0  0  0  0  0  0  0
    2.9333   -8.7145    0.0559 N   0  0  0  0  0  0  0  0  0  0  0  0
    3.2979   -9.7584    0.0559 N   0  0  0  0  0  0  0  0  0  0  0  0
  1  2  1  0  0  0  0
  3  1  1  0  0  0  0
  4  1  1  0  0  0  0
  6  5  3  0  0  0  0
M  RAD  1   1   2
M  END
