Coordinates from ORCA-job CH3-N2+-scan-d09-169-n800
 OpenBabel09191814093D

  6  4  0  0  0  0  0  0  0  0999 V2000
   -1.2560    3.1276    0.0561 C   0  0  0  0  0  0  0  0  0  0  0  0
   -0.7402    3.3099    1.0037 H   0  0  0  0  0  0  0  0  0  0  0  0
   -0.7402    3.3100   -0.8916 H   0  0  0  0  0  0  0  0  0  0  0  0
   -2.2877    2.7630    0.0560 H   0  0  0  0  0  0  0  0  0  0  0  0
    2.5499   -7.6323    0.0560 N   0  0  0  0  0  0  0  0  0  0  0  0
    2.9159   -8.6757    0.0559 N   0  0  0  0  0  0  0  0  0  0  0  0
  1  2  1  0  0  0  0
  3  1  1  0  0  0  0
  4  1  1  0  0  0  0
  6  5  3  0  0  0  0
M  RAD  1   1   2
M  END
