Coordinates from ORCA-job CH3-N2+-scan-d09-169-n800
 OpenBabel09191814093D

  6  4  0  0  0  0  0  0  0  0999 V2000
   -0.4371    0.8116    0.0560 C   0  0  0  0  0  0  0  0  0  0  0  0
    0.0789    0.9941    1.0042 H   0  0  0  0  0  0  0  0  0  0  0  0
    0.0790    0.9941   -0.8921 H   0  0  0  0  0  0  0  0  0  0  0  0
   -1.4693    0.4467    0.0560 H   0  0  0  0  0  0  0  0  0  0  0  0
    0.9109   -3.0010    0.0560 N   0  0  0  0  0  0  0  0  0  0  0  0
    1.2792   -4.0431    0.0560 N   0  0  0  0  0  0  0  0  0  0  0  0
  1  2  1  0  0  0  0
  3  1  1  0  0  0  0
  4  1  1  0  0  0  0
  6  5  3  0  0  0  0
M  RAD  1   1   2
M  END
