Coordinates from ORCA-job CH3-N2+-scan-d09-169-n800
 OpenBabel09191814093D

  6  4  0  0  0  0  0  0  0  0999 V2000
   -0.7198    1.6109    0.0560 C   0  0  0  0  0  0  0  0  0  0  0  0
   -0.2034    1.7933    1.0046 H   0  0  0  0  0  0  0  0  0  0  0  0
   -0.2034    1.7934   -0.8925 H   0  0  0  0  0  0  0  0  0  0  0  0
   -1.7524    1.2458    0.0560 H   0  0  0  0  0  0  0  0  0  0  0  0
    1.4763   -4.5993    0.0560 N   0  0  0  0  0  0  0  0  0  0  0  0
    1.8442   -5.6417    0.0560 N   0  0  0  0  0  0  0  0  0  0  0  0
  1  2  1  0  0  0  0
  3  1  1  0  0  0  0
  4  1  1  0  0  0  0
  6  5  3  0  0  0  0
M  RAD  1   1   2
M  END
