Coordinates from ORCA-job CH3-N2+-scan-d09-169-n800
 OpenBabel09191814093D

  6  4  0  0  0  0  0  0  0  0999 V2000
   -1.4140    3.5744    0.0561 C   0  0  0  0  0  0  0  0  0  0  0  0
   -0.8983    3.7567    1.0036 H   0  0  0  0  0  0  0  0  0  0  0  0
   -0.8982    3.7568   -0.8914 H   0  0  0  0  0  0  0  0  0  0  0  0
   -2.4456    3.2099    0.0560 H   0  0  0  0  0  0  0  0  0  0  0  0
    2.8664   -8.5258    0.0559 N   0  0  0  0  0  0  0  0  0  0  0  0
    3.2313   -9.5696    0.0559 N   0  0  0  0  0  0  0  0  0  0  0  0
  1  2  1  0  0  0  0
  3  1  1  0  0  0  0
  4  1  1  0  0  0  0
  6  5  3  0  0  0  0
M  RAD  1   1   2
M  END
