Coordinates from ORCA-job CH3-N2+-scan-d09-169-n800
 OpenBabel09191814093D

  6  4  0  0  0  0  0  0  0  0999 V2000
   -0.9066    2.1395    0.0560 C   0  0  0  0  0  0  0  0  0  0  0  0
   -0.3906    2.3220    1.0042 H   0  0  0  0  0  0  0  0  0  0  0  0
   -0.3906    2.3220   -0.8921 H   0  0  0  0  0  0  0  0  0  0  0  0
   -1.9389    1.7747    0.0560 H   0  0  0  0  0  0  0  0  0  0  0  0
    1.8504   -5.6565    0.0560 N   0  0  0  0  0  0  0  0  0  0  0  0
    2.2179   -6.6992    0.0560 N   0  0  0  0  0  0  0  0  0  0  0  0
  1  2  1  0  0  0  0
  3  1  1  0  0  0  0
  4  1  1  0  0  0  0
  6  5  3  0  0  0  0
M  RAD  1   1   2
M  END
