Coordinates from ORCA-job CH3-N2+-scan-d09-169-n800
 OpenBabel09191814093D

  6  4  0  0  0  0  0  0  0  0999 V2000
   -0.3247    0.4937    0.0560 C   0  0  0  0  0  0  0  0  0  0  0  0
    0.1883    0.6824    1.0027 H   0  0  0  0  0  0  0  0  0  0  0  0
    0.1883    0.6824   -0.8907 H   0  0  0  0  0  0  0  0  0  0  0  0
   -1.3576    0.1358    0.0560 H   0  0  0  0  0  0  0  0  0  0  0  0
    0.6895   -2.3750    0.0560 N   0  0  0  0  0  0  0  0  0  0  0  0
    1.0578   -3.4169    0.0560 N   0  0  0  0  0  0  0  0  0  0  0  0
  1  2  1  0  0  0  0
  3  1  1  0  0  0  0
  4  1  1  0  0  0  0
  6  5  3  0  0  0  0
M  RAD  1   1   2
M  END
