Coordinates from ORCA-job CH3-N2+-scan-d09-169-n800
 OpenBabel09191814093D

  6  4  0  0  0  0  0  0  0  0999 V2000
   -1.5498    3.9583    0.0561 C   0  0  0  0  0  0  0  0  0  0  0  0
   -1.0341    4.1406    1.0035 H   0  0  0  0  0  0  0  0  0  0  0  0
   -1.0340    4.1406   -0.8914 H   0  0  0  0  0  0  0  0  0  0  0  0
   -2.5812    3.5938    0.0560 H   0  0  0  0  0  0  0  0  0  0  0  0
    3.1385   -9.2933    0.0559 N   0  0  0  0  0  0  0  0  0  0  0  0
    3.5022  -10.3376    0.0559 N   0  0  0  0  0  0  0  0  0  0  0  0
  1  2  1  0  0  0  0
  3  1  1  0  0  0  0
  4  1  1  0  0  0  0
  6  5  3  0  0  0  0
M  RAD  1   1   2
M  END
