Coordinates from ORCA-job CH3-N2+-scan-d09-169-n800
 OpenBabel09191814093D

  6  4  0  0  0  0  0  0  0  0999 V2000
   -0.6018    1.2774    0.0560 C   0  0  0  0  0  0  0  0  0  0  0  0
   -0.0855    1.4598    1.0046 H   0  0  0  0  0  0  0  0  0  0  0  0
   -0.0854    1.4598   -0.8925 H   0  0  0  0  0  0  0  0  0  0  0  0
   -1.6344    0.9121    0.0560 H   0  0  0  0  0  0  0  0  0  0  0  0
    1.2403   -3.9322    0.0560 N   0  0  0  0  0  0  0  0  0  0  0  0
    1.6084   -4.9745    0.0560 N   0  0  0  0  0  0  0  0  0  0  0  0
  1  2  1  0  0  0  0
  3  1  1  0  0  0  0
  4  1  1  0  0  0  0
  6  5  3  0  0  0  0
M  RAD  1   1   2
M  END
