Coordinates from ORCA-job CH3-N2+-scan-d09-169-n800
 OpenBabel09191814093D

  6  4  0  0  0  0  0  0  0  0999 V2000
   -1.8146    4.7071    0.0561 C   0  0  0  0  0  0  0  0  0  0  0  0
   -1.2990    4.8895    1.0034 H   0  0  0  0  0  0  0  0  0  0  0  0
   -1.2989    4.8895   -0.8912 H   0  0  0  0  0  0  0  0  0  0  0  0
   -2.8459    4.3427    0.0560 H   0  0  0  0  0  0  0  0  0  0  0  0
    3.6698  -10.7905    0.0559 N   0  0  0  0  0  0  0  0  0  0  0  0
    4.0302  -11.8359    0.0559 N   0  0  0  0  0  0  0  0  0  0  0  0
  1  2  1  0  0  0  0
  3  1  1  0  0  0  0
  4  1  1  0  0  0  0
  6  5  3  0  0  0  0
M  RAD  1   1   2
M  END
