Coordinates from ORCA-job CH3-N2+-scan-d09-169-n800
 OpenBabel09191814093D

  6  4  0  0  0  0  0  0  0  0999 V2000
   -0.2122    0.1755    0.0560 C   0  0  0  0  0  0  0  0  0  0  0  0
    0.2730    0.4327    0.9970 H   0  0  0  0  0  0  0  0  0  0  0  0
    0.2731    0.4327   -0.8849 H   0  0  0  0  0  0  0  0  0  0  0  0
   -1.2635   -0.1106    0.0560 H   0  0  0  0  0  0  0  0  0  0  0  0
    0.5016   -1.8435    0.0560 N   0  0  0  0  0  0  0  0  0  0  0  0
    0.8696   -2.8844    0.0560 N   0  0  0  0  0  0  0  0  0  0  0  0
  1  2  1  0  0  0  0
  3  1  1  0  0  0  0
  4  1  1  0  0  0  0
  6  5  3  0  0  0  0
M  RAD  1   1   2
M  END
