Coordinates from ORCA-job CH3-N2+-scan-d09-169-n800
 OpenBabel09191814093D

  6  5  0  0  0  0  0  0  0  0999 V2000
   -0.0456   -0.2957    0.0560 C   0  0  0  0  0  0  0  0  0  0  0  0
    0.2933    0.2793    0.9415 H   0  0  0  0  0  0  0  0  0  0  0  0
    0.2934    0.2793   -0.8295 H   0  0  0  0  0  0  0  0  0  0  0  0
   -1.1527   -0.2320    0.0560 H   0  0  0  0  0  0  0  0  0  0  0  0
    0.3411   -1.3897    0.0560 N   0  0  0  0  0  0  0  0  0  0  0  0
    0.7121   -2.4389    0.0560 N   0  0  0  0  0  0  0  0  0  0  0  0
  1  2  1  0  0  0  0
  3  1  1  0  0  0  0
  4  1  1  0  0  0  0
  5  1  1  0  0  0  0
  6  5  1  0  0  0  0
M  RAD  2   5   2   6   3
M  END
