Coordinates from ORCA-job CH3-N2+-scan-d09-169-n800
 OpenBabel09191814093D

  6  4  0  0  0  0  0  0  0  0999 V2000
   -1.2894    3.2219    0.0561 C   0  0  0  0  0  0  0  0  0  0  0  0
   -0.7736    3.4043    1.0037 H   0  0  0  0  0  0  0  0  0  0  0  0
   -0.7736    3.4044   -0.8916 H   0  0  0  0  0  0  0  0  0  0  0  0
   -2.3211    2.8574    0.0560 H   0  0  0  0  0  0  0  0  0  0  0  0
    2.6167   -7.8211    0.0560 N   0  0  0  0  0  0  0  0  0  0  0  0
    2.9825   -8.8646    0.0559 N   0  0  0  0  0  0  0  0  0  0  0  0
  1  2  1  0  0  0  0
  3  1  1  0  0  0  0
  4  1  1  0  0  0  0
  6  5  3  0  0  0  0
M  RAD  1   1   2
M  END
