Coordinates from ORCA-job CH3-N2+-scan-d09-169-n800
 OpenBabel09191814093D

  6  4  0  0  0  0  0  0  0  0999 V2000
   -1.3962    3.5240    0.0561 C   0  0  0  0  0  0  0  0  0  0  0  0
   -0.8805    3.7064    1.0036 H   0  0  0  0  0  0  0  0  0  0  0  0
   -0.8804    3.7064   -0.8915 H   0  0  0  0  0  0  0  0  0  0  0  0
   -2.4278    3.1595    0.0560 H   0  0  0  0  0  0  0  0  0  0  0  0
    2.8307   -8.4251    0.0559 N   0  0  0  0  0  0  0  0  0  0  0  0
    3.1958   -9.4689    0.0559 N   0  0  0  0  0  0  0  0  0  0  0  0
  1  2  1  0  0  0  0
  3  1  1  0  0  0  0
  4  1  1  0  0  0  0
  6  5  3  0  0  0  0
M  RAD  1   1   2
M  END
