Coordinates from ORCA-job CH3-N2+-scan-d09-169-n800
 OpenBabel09191814093D

  6  4  0  0  0  0  0  0  0  0999 V2000
   -1.8079    4.6883    0.0561 C   0  0  0  0  0  0  0  0  0  0  0  0
   -1.2923    4.8706    1.0034 H   0  0  0  0  0  0  0  0  0  0  0  0
   -1.2923    4.8706   -0.8912 H   0  0  0  0  0  0  0  0  0  0  0  0
   -2.8392    4.3238    0.0560 H   0  0  0  0  0  0  0  0  0  0  0  0
    3.6564  -10.7527    0.0559 N   0  0  0  0  0  0  0  0  0  0  0  0
    4.0169  -11.7981    0.0559 N   0  0  0  0  0  0  0  0  0  0  0  0
  1  2  1  0  0  0  0
  3  1  1  0  0  0  0
  4  1  1  0  0  0  0
  6  5  3  0  0  0  0
M  RAD  1   1   2
M  END
