Coordinates from ORCA-job CH3-N2+-scan-d09-169-n800
 OpenBabel09191814093D

  6  4  0  0  0  0  0  0  0  0999 V2000
   -0.5618    1.1642    0.0560 C   0  0  0  0  0  0  0  0  0  0  0  0
   -0.0454    1.3465    1.0045 H   0  0  0  0  0  0  0  0  0  0  0  0
   -0.0454    1.3465   -0.8925 H   0  0  0  0  0  0  0  0  0  0  0  0
   -1.5943    0.7988    0.0560 H   0  0  0  0  0  0  0  0  0  0  0  0
    1.1602   -3.7057    0.0560 N   0  0  0  0  0  0  0  0  0  0  0  0
    1.5283   -4.7479    0.0560 N   0  0  0  0  0  0  0  0  0  0  0  0
  1  2  1  0  0  0  0
  3  1  1  0  0  0  0
  4  1  1  0  0  0  0
  6  5  3  0  0  0  0
M  RAD  1   1   2
M  END
