Coordinates from ORCA-job CH3-N2+-scan-d09-169-n800
 OpenBabel09191814093D

  6  4  0  0  0  0  0  0  0  0999 V2000
   -0.1785    0.0802    0.0560 C   0  0  0  0  0  0  0  0  0  0  0  0
    0.2855    0.3884    0.9917 H   0  0  0  0  0  0  0  0  0  0  0  0
    0.2855    0.3884   -0.8796 H   0  0  0  0  0  0  0  0  0  0  0  0
   -1.2424   -0.1518    0.0560 H   0  0  0  0  0  0  0  0  0  0  0  0
    0.4619   -1.7312    0.0560 N   0  0  0  0  0  0  0  0  0  0  0  0
    0.8297   -2.7714    0.0560 N   0  0  0  0  0  0  0  0  0  0  0  0
  1  2  1  0  0  0  0
  3  1  1  0  0  0  0
  4  1  1  0  0  0  0
  6  5  3  0  0  0  0
M  RAD  1   1   2
M  END
