Coordinates from ORCA-job CH3-N2+-scan-d09-169-n800
 OpenBabel09191814093D

  6  4  0  0  0  0  0  0  0  0999 V2000
   -1.8502    4.8078    0.0561 C   0  0  0  0  0  0  0  0  0  0  0  0
   -1.3346    4.9902    1.0034 H   0  0  0  0  0  0  0  0  0  0  0  0
   -1.3346    4.9902   -0.8912 H   0  0  0  0  0  0  0  0  0  0  0  0
   -2.8815    4.4433    0.0560 H   0  0  0  0  0  0  0  0  0  0  0  0
    3.7413  -10.9918    0.0559 N   0  0  0  0  0  0  0  0  0  0  0  0
    4.1011  -12.0374    0.0559 N   0  0  0  0  0  0  0  0  0  0  0  0
  1  2  1  0  0  0  0
  3  1  1  0  0  0  0
  4  1  1  0  0  0  0
  6  5  3  0  0  0  0
M  RAD  1   1   2
M  END
