Coordinates from ORCA-job CH3-N2+-scan-d09-169-n800
 OpenBabel09191814093D

  6  4  0  0  0  0  0  0  0  0999 V2000
   -0.2850    0.3814    0.0560 C   0  0  0  0  0  0  0  0  0  0  0  0
    0.2237    0.5804    1.0017 H   0  0  0  0  0  0  0  0  0  0  0  0
    0.2237    0.5804   -0.8896 H   0  0  0  0  0  0  0  0  0  0  0  0
   -1.3205    0.0344    0.0560 H   0  0  0  0  0  0  0  0  0  0  0  0
    0.6157   -2.1663    0.0560 N   0  0  0  0  0  0  0  0  0  0  0  0
    0.9840   -3.2080    0.0560 N   0  0  0  0  0  0  0  0  0  0  0  0
  1  2  1  0  0  0  0
  3  1  1  0  0  0  0
  4  1  1  0  0  0  0
  6  5  3  0  0  0  0
M  RAD  1   1   2
M  END
