Coordinates from ORCA-job CH3-N2+-scan-d09-169-n800
 OpenBabel09191814093D

  6  4  0  0  0  0  0  0  0  0999 V2000
   -1.8101    4.6946    0.0561 C   0  0  0  0  0  0  0  0  0  0  0  0
   -1.2945    4.8769    1.0034 H   0  0  0  0  0  0  0  0  0  0  0  0
   -1.2945    4.8769   -0.8912 H   0  0  0  0  0  0  0  0  0  0  0  0
   -2.8415    4.3301    0.0560 H   0  0  0  0  0  0  0  0  0  0  0  0
    3.6609  -10.7653    0.0559 N   0  0  0  0  0  0  0  0  0  0  0  0
    4.0213  -11.8107    0.0559 N   0  0  0  0  0  0  0  0  0  0  0  0
  1  2  1  0  0  0  0
  3  1  1  0  0  0  0
  4  1  1  0  0  0  0
  6  5  3  0  0  0  0
M  RAD  1   1   2
M  END
