Coordinates from ORCA-job CH3-N2+-scan-d09-169-n800
 OpenBabel09191814093D

  6  4  0  0  0  0  0  0  0  0999 V2000
   -1.1180    2.7374    0.0560 C   0  0  0  0  0  0  0  0  0  0  0  0
   -0.6022    2.9198    1.0038 H   0  0  0  0  0  0  0  0  0  0  0  0
   -0.6021    2.9198   -0.8917 H   0  0  0  0  0  0  0  0  0  0  0  0
   -2.1499    2.3727    0.0560 H   0  0  0  0  0  0  0  0  0  0  0  0
    2.2736   -6.8521    0.0560 N   0  0  0  0  0  0  0  0  0  0  0  0
    2.6403   -7.8952    0.0559 N   0  0  0  0  0  0  0  0  0  0  0  0
  1  2  1  0  0  0  0
  3  1  1  0  0  0  0
  4  1  1  0  0  0  0
  6  5  3  0  0  0  0
M  RAD  1   1   2
M  END
