Coordinates from ORCA-job CH3-N2+-scan-d09-169-n800
 OpenBabel09191814093D

  6  5  0  0  0  0  0  0  0  0999 V2000
   -0.0527   -0.2758    0.0560 C   0  0  0  0  0  0  0  0  0  0  0  0
    0.2934    0.2846    0.9448 H   0  0  0  0  0  0  0  0  0  0  0  0
    0.2935    0.2847   -0.8327 H   0  0  0  0  0  0  0  0  0  0  0  0
   -1.1579   -0.2285    0.0560 H   0  0  0  0  0  0  0  0  0  0  0  0
    0.3475   -1.4076    0.0560 N   0  0  0  0  0  0  0  0  0  0  0  0
    0.7178   -2.4550    0.0560 N   0  0  0  0  0  0  0  0  0  0  0  0
  1  2  1  0  0  0  0
  3  1  1  0  0  0  0
  4  1  1  0  0  0  0
  5  1  1  0  0  0  0
  6  5  1  0  0  0  0
M  RAD  2   5   2   6   3
M  END
