Coordinates from ORCA-job CH3-N2+-scan-d09-169-n800
 OpenBabel09191814093D

  6  4  0  0  0  0  0  0  0  0999 V2000
   -0.6819    1.5040    0.0560 C   0  0  0  0  0  0  0  0  0  0  0  0
   -0.1656    1.6864    1.0046 H   0  0  0  0  0  0  0  0  0  0  0  0
   -0.1655    1.6864   -0.8925 H   0  0  0  0  0  0  0  0  0  0  0  0
   -1.7145    1.1387    0.0560 H   0  0  0  0  0  0  0  0  0  0  0  0
    1.4006   -4.3854    0.0560 N   0  0  0  0  0  0  0  0  0  0  0  0
    1.7686   -5.4277    0.0560 N   0  0  0  0  0  0  0  0  0  0  0  0
  1  2  1  0  0  0  0
  3  1  1  0  0  0  0
  4  1  1  0  0  0  0
  6  5  3  0  0  0  0
M  RAD  1   1   2
M  END
