Coordinates from ORCA-job CH3-N2+-scan-d09-169-n800
 OpenBabel09191814093D

  6  4  0  0  0  0  0  0  0  0999 V2000
   -0.3633    0.6028    0.0560 C   0  0  0  0  0  0  0  0  0  0  0  0
    0.1516    0.7874    1.0034 H   0  0  0  0  0  0  0  0  0  0  0  0
    0.1516    0.7874   -0.8914 H   0  0  0  0  0  0  0  0  0  0  0  0
   -1.3955    0.2404    0.0560 H   0  0  0  0  0  0  0  0  0  0  0  0
    0.7644   -2.5868    0.0560 N   0  0  0  0  0  0  0  0  0  0  0  0
    1.1328   -3.6288    0.0560 N   0  0  0  0  0  0  0  0  0  0  0  0
  1  2  1  0  0  0  0
  3  1  1  0  0  0  0
  4  1  1  0  0  0  0
  6  5  3  0  0  0  0
M  RAD  1   1   2
M  END
