Coordinates from ORCA-job CH3-N2+-scan-d09-169-n800
 OpenBabel09191814093D

  6  4  0  0  0  0  0  0  0  0999 V2000
   -0.6196    1.3278    0.0560 C   0  0  0  0  0  0  0  0  0  0  0  0
   -0.1033    1.5101    1.0046 H   0  0  0  0  0  0  0  0  0  0  0  0
   -0.1032    1.5101   -0.8925 H   0  0  0  0  0  0  0  0  0  0  0  0
   -1.6522    0.9625    0.0560 H   0  0  0  0  0  0  0  0  0  0  0  0
    1.2759   -4.0329    0.0560 N   0  0  0  0  0  0  0  0  0  0  0  0
    1.6440   -5.0752    0.0560 N   0  0  0  0  0  0  0  0  0  0  0  0
  1  2  1  0  0  0  0
  3  1  1  0  0  0  0
  4  1  1  0  0  0  0
  6  5  3  0  0  0  0
M  RAD  1   1   2
M  END
