Coordinates from ORCA-job CH3-N2+-scan-d09-169-n800
 OpenBabel09191814093D

  6  4  0  0  0  0  0  0  0  0999 V2000
   -0.6619    1.4473    0.0560 C   0  0  0  0  0  0  0  0  0  0  0  0
   -0.1455    1.6297    1.0046 H   0  0  0  0  0  0  0  0  0  0  0  0
   -0.1455    1.6297   -0.8925 H   0  0  0  0  0  0  0  0  0  0  0  0
   -1.6945    1.0821    0.0560 H   0  0  0  0  0  0  0  0  0  0  0  0
    1.3605   -4.2721    0.0560 N   0  0  0  0  0  0  0  0  0  0  0  0
    1.7285   -5.3144    0.0560 N   0  0  0  0  0  0  0  0  0  0  0  0
  1  2  1  0  0  0  0
  3  1  1  0  0  0  0
  4  1  1  0  0  0  0
  6  5  3  0  0  0  0
M  RAD  1   1   2
M  END
