Coordinates from ORCA-job CH3-N2+-scan-d09-169-n800
 OpenBabel09191814093D

  6  4  0  0  0  0  0  0  0  0999 V2000
   -1.8413    4.7827    0.0561 C   0  0  0  0  0  0  0  0  0  0  0  0
   -1.3257    4.9650    1.0034 H   0  0  0  0  0  0  0  0  0  0  0  0
   -1.3257    4.9650   -0.8912 H   0  0  0  0  0  0  0  0  0  0  0  0
   -2.8726    4.4182    0.0560 H   0  0  0  0  0  0  0  0  0  0  0  0
    3.7234  -10.9414    0.0559 N   0  0  0  0  0  0  0  0  0  0  0  0
    4.0834  -11.9870    0.0559 N   0  0  0  0  0  0  0  0  0  0  0  0
  1  2  1  0  0  0  0
  3  1  1  0  0  0  0
  4  1  1  0  0  0  0
  6  5  3  0  0  0  0
M  RAD  1   1   2
M  END
