Coordinates from ORCA-job CH3-N2+-scan-d09-169-n800
 OpenBabel09191814093D

  6  4  0  0  0  0  0  0  0  0999 V2000
   -1.2694    3.1653    0.0561 C   0  0  0  0  0  0  0  0  0  0  0  0
   -0.7536    3.3477    1.0037 H   0  0  0  0  0  0  0  0  0  0  0  0
   -0.7535    3.3477   -0.8916 H   0  0  0  0  0  0  0  0  0  0  0  0
   -2.3011    2.8008    0.0560 H   0  0  0  0  0  0  0  0  0  0  0  0
    2.5766   -7.7078    0.0560 N   0  0  0  0  0  0  0  0  0  0  0  0
    2.9425   -8.7513    0.0559 N   0  0  0  0  0  0  0  0  0  0  0  0
  1  2  1  0  0  0  0
  3  1  1  0  0  0  0
  4  1  1  0  0  0  0
  6  5  3  0  0  0  0
M  RAD  1   1   2
M  END
