Coordinates from ORCA-job CH3-N2+-scan-d09-169-n800
 OpenBabel09191814093D

  6  4  0  0  0  0  0  0  0  0999 V2000
   -0.7220    1.6172    0.0560 C   0  0  0  0  0  0  0  0  0  0  0  0
   -0.2056    1.7996    1.0046 H   0  0  0  0  0  0  0  0  0  0  0  0
   -0.2056    1.7997   -0.8925 H   0  0  0  0  0  0  0  0  0  0  0  0
   -1.7546    1.2520    0.0560 H   0  0  0  0  0  0  0  0  0  0  0  0
    1.4807   -4.6119    0.0560 N   0  0  0  0  0  0  0  0  0  0  0  0
    1.8487   -5.6543    0.0560 N   0  0  0  0  0  0  0  0  0  0  0  0
  1  2  1  0  0  0  0
  3  1  1  0  0  0  0
  4  1  1  0  0  0  0
  6  5  3  0  0  0  0
M  RAD  1   1   2
M  END
