Coordinates from ORCA-job CH3-N2+-scan-d09-169-n800
 OpenBabel09191814093D

  6  4  0  0  0  0  0  0  0  0999 V2000
   -0.5151    1.0320    0.0560 C   0  0  0  0  0  0  0  0  0  0  0  0
    0.0013    1.2143    1.0045 H   0  0  0  0  0  0  0  0  0  0  0  0
    0.0013    1.2143   -0.8924 H   0  0  0  0  0  0  0  0  0  0  0  0
   -1.5475    0.6667    0.0560 H   0  0  0  0  0  0  0  0  0  0  0  0
    1.0667   -3.4414    0.0560 N   0  0  0  0  0  0  0  0  0  0  0  0
    1.4349   -4.4835    0.0560 N   0  0  0  0  0  0  0  0  0  0  0  0
  1  2  1  0  0  0  0
  3  1  1  0  0  0  0
  4  1  1  0  0  0  0
  6  5  3  0  0  0  0
M  RAD  1   1   2
M  END
