Coordinates from ORCA-job CH3-N2+-scan-d09-169-n800
 OpenBabel09191814093D

  6  4  0  0  0  0  0  0  0  0999 V2000
   -0.3588    0.5900    0.0560 C   0  0  0  0  0  0  0  0  0  0  0  0
    0.1559    0.7750    1.0034 H   0  0  0  0  0  0  0  0  0  0  0  0
    0.1560    0.7750   -0.8913 H   0  0  0  0  0  0  0  0  0  0  0  0
   -1.3910    0.2280    0.0560 H   0  0  0  0  0  0  0  0  0  0  0  0
    0.7556   -2.5618    0.0560 N   0  0  0  0  0  0  0  0  0  0  0  0
    1.1239   -3.6038    0.0560 N   0  0  0  0  0  0  0  0  0  0  0  0
  1  2  1  0  0  0  0
  3  1  1  0  0  0  0
  4  1  1  0  0  0  0
  6  5  3  0  0  0  0
M  RAD  1   1   2
M  END
