Coordinates from ORCA-job CH3-N2+-scan-d09-169-n800
 OpenBabel09191814093D

  6  4  0  0  0  0  0  0  0  0999 V2000
   -0.8977    2.1144    0.0560 C   0  0  0  0  0  0  0  0  0  0  0  0
   -0.3817    2.2968    1.0042 H   0  0  0  0  0  0  0  0  0  0  0  0
   -0.3816    2.2968   -0.8921 H   0  0  0  0  0  0  0  0  0  0  0  0
   -1.9300    1.7495    0.0560 H   0  0  0  0  0  0  0  0  0  0  0  0
    1.8326   -5.6062    0.0560 N   0  0  0  0  0  0  0  0  0  0  0  0
    2.2001   -6.6489    0.0560 N   0  0  0  0  0  0  0  0  0  0  0  0
  1  2  1  0  0  0  0
  3  1  1  0  0  0  0
  4  1  1  0  0  0  0
  6  5  3  0  0  0  0
M  RAD  1   1   2
M  END
