Coordinates from ORCA-job CH3-N2+-scan-d09-169-n800
 OpenBabel09191814093D

  6  4  0  0  0  0  0  0  0  0999 V2000
   -0.2778    0.3610    0.0560 C   0  0  0  0  0  0  0  0  0  0  0  0
    0.2297    0.5630    1.0014 H   0  0  0  0  0  0  0  0  0  0  0  0
    0.2297    0.5630   -0.8893 H   0  0  0  0  0  0  0  0  0  0  0  0
   -1.3141    0.0172    0.0560 H   0  0  0  0  0  0  0  0  0  0  0  0
    0.6029   -2.1301    0.0560 N   0  0  0  0  0  0  0  0  0  0  0  0
    0.9712   -3.1717    0.0560 N   0  0  0  0  0  0  0  0  0  0  0  0
  1  2  1  0  0  0  0
  3  1  1  0  0  0  0
  4  1  1  0  0  0  0
  6  5  3  0  0  0  0
M  RAD  1   1   2
M  END
