Coordinates from ORCA-job CH3-N2+-scan-d09-169-n800
 OpenBabel09191814093D

  6  4  0  0  0  0  0  0  0  0999 V2000
   -1.5854    4.0590    0.0561 C   0  0  0  0  0  0  0  0  0  0  0  0
   -1.0697    4.2413    1.0035 H   0  0  0  0  0  0  0  0  0  0  0  0
   -1.0697    4.2413   -0.8913 H   0  0  0  0  0  0  0  0  0  0  0  0
   -2.6168    3.6945    0.0560 H   0  0  0  0  0  0  0  0  0  0  0  0
    3.2099   -9.4946    0.0559 N   0  0  0  0  0  0  0  0  0  0  0  0
    3.5732  -10.5390    0.0559 N   0  0  0  0  0  0  0  0  0  0  0  0
  1  2  1  0  0  0  0
  3  1  1  0  0  0  0
  4  1  1  0  0  0  0
  6  5  3  0  0  0  0
M  RAD  1   1   2
M  END
