Coordinates from ORCA-job CH3-N2+-scan-d09-169-n800
 OpenBabel09191814093D

  6  4  0  0  0  0  0  0  0  0999 V2000
   -0.1849    0.0983    0.0560 C   0  0  0  0  0  0  0  0  0  0  0  0
    0.2836    0.3957    0.9929 H   0  0  0  0  0  0  0  0  0  0  0  0
    0.2837    0.3957   -0.8809 H   0  0  0  0  0  0  0  0  0  0  0  0
   -1.2463   -0.1452    0.0560 H   0  0  0  0  0  0  0  0  0  0  0  0
    0.4689   -1.7509    0.0560 N   0  0  0  0  0  0  0  0  0  0  0  0
    0.8367   -2.7912    0.0560 N   0  0  0  0  0  0  0  0  0  0  0  0
  1  2  1  0  0  0  0
  3  1  1  0  0  0  0
  4  1  1  0  0  0  0
  6  5  3  0  0  0  0
M  RAD  1   1   2
M  END
