Coordinates from ORCA-job CH3-N2+-scan-d09-169-n800
 OpenBabel09191814093D

  6  4  0  0  0  0  0  0  0  0999 V2000
   -1.6966    4.3736    0.0561 C   0  0  0  0  0  0  0  0  0  0  0  0
   -1.1810    4.5559    1.0034 H   0  0  0  0  0  0  0  0  0  0  0  0
   -1.1810    4.5560   -0.8913 H   0  0  0  0  0  0  0  0  0  0  0  0
   -2.7280    4.0091    0.0560 H   0  0  0  0  0  0  0  0  0  0  0  0
    3.4331  -10.1237    0.0559 N   0  0  0  0  0  0  0  0  0  0  0  0
    3.7951  -11.1686    0.0559 N   0  0  0  0  0  0  0  0  0  0  0  0
  1  2  1  0  0  0  0
  3  1  1  0  0  0  0
  4  1  1  0  0  0  0
  6  5  3  0  0  0  0
M  RAD  1   1   2
M  END
