Coordinates from ORCA-job CH3-N2+-scan-d09-169-n800
 OpenBabel09191814093D

  6  4  0  0  0  0  0  0  0  0999 V2000
   -1.0936    2.6681    0.0560 C   0  0  0  0  0  0  0  0  0  0  0  0
   -0.5777    2.8506    1.0039 H   0  0  0  0  0  0  0  0  0  0  0  0
   -0.5776    2.8506   -0.8918 H   0  0  0  0  0  0  0  0  0  0  0  0
   -2.1255    2.3035    0.0560 H   0  0  0  0  0  0  0  0  0  0  0  0
    2.2246   -6.7137    0.0560 N   0  0  0  0  0  0  0  0  0  0  0  0
    2.5914   -7.7567    0.0560 N   0  0  0  0  0  0  0  0  0  0  0  0
  1  2  1  0  0  0  0
  3  1  1  0  0  0  0
  4  1  1  0  0  0  0
  6  5  3  0  0  0  0
M  RAD  1   1   2
M  END
