Coordinates from ORCA-job CH3-N2+-scan-d09-169-n800
 OpenBabel09191814093D

  6  4  0  0  0  0  0  0  0  0999 V2000
   -0.8644    2.0200    0.0560 C   0  0  0  0  0  0  0  0  0  0  0  0
   -0.3482    2.2024    1.0042 H   0  0  0  0  0  0  0  0  0  0  0  0
   -0.3482    2.2024   -0.8921 H   0  0  0  0  0  0  0  0  0  0  0  0
   -1.8967    1.6551    0.0560 H   0  0  0  0  0  0  0  0  0  0  0  0
    1.7657   -5.4174    0.0560 N   0  0  0  0  0  0  0  0  0  0  0  0
    2.1334   -6.4600    0.0560 N   0  0  0  0  0  0  0  0  0  0  0  0
  1  2  1  0  0  0  0
  3  1  1  0  0  0  0
  4  1  1  0  0  0  0
  6  5  3  0  0  0  0
M  RAD  1   1   2
M  END
