Coordinates from ORCA-job CH3-N2+-scan-d09-169-n800
 OpenBabel09191814093D

  6  4  0  0  0  0  0  0  0  0999 V2000
   -1.1269    2.7625    0.0560 C   0  0  0  0  0  0  0  0  0  0  0  0
   -0.6111    2.9450    1.0038 H   0  0  0  0  0  0  0  0  0  0  0  0
   -0.6110    2.9450   -0.8917 H   0  0  0  0  0  0  0  0  0  0  0  0
   -2.1588    2.3979    0.0560 H   0  0  0  0  0  0  0  0  0  0  0  0
    2.2914   -6.9024    0.0560 N   0  0  0  0  0  0  0  0  0  0  0  0
    2.6581   -7.9456    0.0559 N   0  0  0  0  0  0  0  0  0  0  0  0
  1  2  1  0  0  0  0
  3  1  1  0  0  0  0
  4  1  1  0  0  0  0
  6  5  3  0  0  0  0
M  RAD  1   1   2
M  END
