Coordinates from ORCA-job CH3-N2+-scan-d09-169-n800
 OpenBabel09191814093D

  6  4  0  0  0  0  0  0  0  0999 V2000
   -1.7901    4.6379    0.0561 C   0  0  0  0  0  0  0  0  0  0  0  0
   -1.2745    4.8203    1.0034 H   0  0  0  0  0  0  0  0  0  0  0  0
   -1.2745    4.8203   -0.8912 H   0  0  0  0  0  0  0  0  0  0  0  0
   -2.8214    4.2734    0.0560 H   0  0  0  0  0  0  0  0  0  0  0  0
    3.6207  -10.6521    0.0559 N   0  0  0  0  0  0  0  0  0  0  0  0
    3.9814  -11.6974    0.0559 N   0  0  0  0  0  0  0  0  0  0  0  0
  1  2  1  0  0  0  0
  3  1  1  0  0  0  0
  4  1  1  0  0  0  0
  6  5  3  0  0  0  0
M  RAD  1   1   2
M  END
