Coordinates from ORCA-job CH3-N2+-scan-d09-169-n800
 OpenBabel09191814093D

  6  4  0  0  0  0  0  0  0  0999 V2000
   -0.3224    0.4872    0.0560 C   0  0  0  0  0  0  0  0  0  0  0  0
    0.1904    0.6763    1.0027 H   0  0  0  0  0  0  0  0  0  0  0  0
    0.1904    0.6763   -0.8906 H   0  0  0  0  0  0  0  0  0  0  0  0
   -1.3554    0.1297    0.0560 H   0  0  0  0  0  0  0  0  0  0  0  0
    0.6852   -2.3626    0.0560 N   0  0  0  0  0  0  0  0  0  0  0  0
    1.0534   -3.4045    0.0560 N   0  0  0  0  0  0  0  0  0  0  0  0
  1  2  1  0  0  0  0
  3  1  1  0  0  0  0
  4  1  1  0  0  0  0
  6  5  3  0  0  0  0
M  RAD  1   1   2
M  END
