Coordinates from ORCA-job CH3-N2+-scan-d09-169-n800
 OpenBabel09191814093D

  6  4  0  0  0  0  0  0  0  0999 V2000
   -0.2802    0.3678    0.0560 C   0  0  0  0  0  0  0  0  0  0  0  0
    0.2277    0.5688    1.0015 H   0  0  0  0  0  0  0  0  0  0  0  0
    0.2277    0.5688   -0.8894 H   0  0  0  0  0  0  0  0  0  0  0  0
   -1.3162    0.0229    0.0560 H   0  0  0  0  0  0  0  0  0  0  0  0
    0.6072   -2.1421    0.0560 N   0  0  0  0  0  0  0  0  0  0  0  0
    0.9754   -3.1837    0.0560 N   0  0  0  0  0  0  0  0  0  0  0  0
  1  2  1  0  0  0  0
  3  1  1  0  0  0  0
  4  1  1  0  0  0  0
  6  5  3  0  0  0  0
M  RAD  1   1   2
M  END
