Coordinates from ORCA-job CH3-N2+-scan-d09-169-n800
 OpenBabel09191814093D

  6  4  0  0  0  0  0  0  0  0999 V2000
   -1.1826    2.9199    0.0560 C   0  0  0  0  0  0  0  0  0  0  0  0
   -0.6667    3.1023    1.0038 H   0  0  0  0  0  0  0  0  0  0  0  0
   -0.6667    3.1023   -0.8917 H   0  0  0  0  0  0  0  0  0  0  0  0
   -2.2144    2.5553    0.0560 H   0  0  0  0  0  0  0  0  0  0  0  0
    2.4028   -7.2171    0.0560 N   0  0  0  0  0  0  0  0  0  0  0  0
    2.7692   -8.2603    0.0559 N   0  0  0  0  0  0  0  0  0  0  0  0
  1  2  1  0  0  0  0
  3  1  1  0  0  0  0
  4  1  1  0  0  0  0
  6  5  3  0  0  0  0
M  RAD  1   1   2
M  END
