Coordinates from ORCA-job CH3-N2+-scan-d09-169-n800
 OpenBabel09191814093D

  6  4  0  0  0  0  0  0  0  0999 V2000
   -1.6811    4.3296    0.0561 C   0  0  0  0  0  0  0  0  0  0  0  0
   -1.1654    4.5119    1.0034 H   0  0  0  0  0  0  0  0  0  0  0  0
   -1.1654    4.5119   -0.8913 H   0  0  0  0  0  0  0  0  0  0  0  0
   -2.7125    3.9651    0.0560 H   0  0  0  0  0  0  0  0  0  0  0  0
    3.4018  -10.0356    0.0559 N   0  0  0  0  0  0  0  0  0  0  0  0
    3.7641  -11.0804    0.0559 N   0  0  0  0  0  0  0  0  0  0  0  0
  1  2  1  0  0  0  0
  3  1  1  0  0  0  0
  4  1  1  0  0  0  0
  6  5  3  0  0  0  0
M  RAD  1   1   2
M  END
