Coordinates from ORCA-job CH3-N2+-scan-d09-169-n800
 OpenBabel09191814093D

  6  4  0  0  0  0  0  0  0  0999 V2000
   -1.4897    3.7883    0.0561 C   0  0  0  0  0  0  0  0  0  0  0  0
   -0.9740    3.9707    1.0035 H   0  0  0  0  0  0  0  0  0  0  0  0
   -0.9739    3.9707   -0.8914 H   0  0  0  0  0  0  0  0  0  0  0  0
   -2.5212    3.4238    0.0560 H   0  0  0  0  0  0  0  0  0  0  0  0
    3.0181   -8.9536    0.0559 N   0  0  0  0  0  0  0  0  0  0  0  0
    3.3823   -9.9976    0.0559 N   0  0  0  0  0  0  0  0  0  0  0  0
  1  2  1  0  0  0  0
  3  1  1  0  0  0  0
  4  1  1  0  0  0  0
  6  5  3  0  0  0  0
M  RAD  1   1   2
M  END
