Coordinates from ORCA-job CH3-N2+-scan-d09-169-n800
 OpenBabel09191814093D

  6  4  0  0  0  0  0  0  0  0999 V2000
   -1.8279    4.7449    0.0561 C   0  0  0  0  0  0  0  0  0  0  0  0
   -1.3123    4.9272    1.0034 H   0  0  0  0  0  0  0  0  0  0  0  0
   -1.3123    4.9273   -0.8912 H   0  0  0  0  0  0  0  0  0  0  0  0
   -2.8593    4.3804    0.0560 H   0  0  0  0  0  0  0  0  0  0  0  0
    3.6966  -10.8660    0.0559 N   0  0  0  0  0  0  0  0  0  0  0  0
    4.0568  -11.9115    0.0559 N   0  0  0  0  0  0  0  0  0  0  0  0
  1  2  1  0  0  0  0
  3  1  1  0  0  0  0
  4  1  1  0  0  0  0
  6  5  3  0  0  0  0
M  RAD  1   1   2
M  END
