Coordinates from ORCA-job CH3-N2+-scan-d09-169-n800
 OpenBabel09191814093D

  6  4  0  0  0  0  0  0  0  0999 V2000
   -1.7923    4.6442    0.0561 C   0  0  0  0  0  0  0  0  0  0  0  0
   -1.2767    4.8266    1.0034 H   0  0  0  0  0  0  0  0  0  0  0  0
   -1.2767    4.8266   -0.8912 H   0  0  0  0  0  0  0  0  0  0  0  0
   -2.8237    4.2797    0.0560 H   0  0  0  0  0  0  0  0  0  0  0  0
    3.6251  -10.6647    0.0559 N   0  0  0  0  0  0  0  0  0  0  0  0
    3.9859  -11.7100    0.0559 N   0  0  0  0  0  0  0  0  0  0  0  0
  1  2  1  0  0  0  0
  3  1  1  0  0  0  0
  4  1  1  0  0  0  0
  6  5  3  0  0  0  0
M  RAD  1   1   2
M  END
