Coordinates from ORCA-job CH3-N2+-scan-d09-169-n800
 OpenBabel09191814093D

  6  4  0  0  0  0  0  0  0  0999 V2000
   -0.6664    1.4599    0.0560 C   0  0  0  0  0  0  0  0  0  0  0  0
   -0.1500    1.6423    1.0046 H   0  0  0  0  0  0  0  0  0  0  0  0
   -0.1500    1.6423   -0.8925 H   0  0  0  0  0  0  0  0  0  0  0  0
   -1.6990    1.0947    0.0560 H   0  0  0  0  0  0  0  0  0  0  0  0
    1.3694   -4.2973    0.0560 N   0  0  0  0  0  0  0  0  0  0  0  0
    1.7374   -5.3396    0.0560 N   0  0  0  0  0  0  0  0  0  0  0  0
  1  2  1  0  0  0  0
  3  1  1  0  0  0  0
  4  1  1  0  0  0  0
  6  5  3  0  0  0  0
M  RAD  1   1   2
M  END
