Coordinates from ORCA-job CH3-N2+-scan-d09-169-n800
 OpenBabel09191814093D

  6  4  0  0  0  0  0  0  0  0999 V2000
   -1.1603    2.8569    0.0560 C   0  0  0  0  0  0  0  0  0  0  0  0
   -0.6445    3.0394    1.0038 H   0  0  0  0  0  0  0  0  0  0  0  0
   -0.6444    3.0394   -0.8917 H   0  0  0  0  0  0  0  0  0  0  0  0
   -2.1922    2.4923    0.0560 H   0  0  0  0  0  0  0  0  0  0  0  0
    2.3582   -7.0912    0.0560 N   0  0  0  0  0  0  0  0  0  0  0  0
    2.7247   -8.1344    0.0559 N   0  0  0  0  0  0  0  0  0  0  0  0
  1  2  1  0  0  0  0
  3  1  1  0  0  0  0
  4  1  1  0  0  0  0
  6  5  3  0  0  0  0
M  RAD  1   1   2
M  END
