Coordinates from ORCA-job CH3-N2+-scan-d09-169-n800
 OpenBabel09191814093D

  6  4  0  0  0  0  0  0  0  0999 V2000
   -1.7345    4.4806    0.0561 C   0  0  0  0  0  0  0  0  0  0  0  0
   -1.2188    4.6629    1.0034 H   0  0  0  0  0  0  0  0  0  0  0  0
   -1.2188    4.6630   -0.8913 H   0  0  0  0  0  0  0  0  0  0  0  0
   -2.7658    4.1161    0.0560 H   0  0  0  0  0  0  0  0  0  0  0  0
    3.5090  -10.3376    0.0559 N   0  0  0  0  0  0  0  0  0  0  0  0
    3.8706  -11.3826    0.0559 N   0  0  0  0  0  0  0  0  0  0  0  0
  1  2  1  0  0  0  0
  3  1  1  0  0  0  0
  4  1  1  0  0  0  0
  6  5  3  0  0  0  0
M  RAD  1   1   2
M  END
