Coordinates from ORCA-job CH3-N2+-scan-d09-169-n800
 OpenBabel09191814093D

  6  4  0  0  0  0  0  0  0  0999 V2000
   -1.4496    3.6751    0.0561 C   0  0  0  0  0  0  0  0  0  0  0  0
   -0.9339    3.8574    1.0036 H   0  0  0  0  0  0  0  0  0  0  0  0
   -0.9339    3.8575   -0.8914 H   0  0  0  0  0  0  0  0  0  0  0  0
   -2.4812    3.3106    0.0560 H   0  0  0  0  0  0  0  0  0  0  0  0
    2.9378   -8.7271    0.0559 N   0  0  0  0  0  0  0  0  0  0  0  0
    3.3024   -9.7710    0.0559 N   0  0  0  0  0  0  0  0  0  0  0  0
  1  2  1  0  0  0  0
  3  1  1  0  0  0  0
  4  1  1  0  0  0  0
  6  5  3  0  0  0  0
M  RAD  1   1   2
M  END
