Coordinates from ORCA-job CH3-N2+-scan-d09-169-n800
 OpenBabel09191814093D

  6  5  0  0  0  0  0  0  0  0999 V2000
   -0.0315   -0.3356    0.0560 C   0  0  0  0  0  0  0  0  0  0  0  0
    0.2930    0.2691    0.9352 H   0  0  0  0  0  0  0  0  0  0  0  0
    0.2930    0.2691   -0.8231 H   0  0  0  0  0  0  0  0  0  0  0  0
   -1.1426   -0.2384    0.0560 H   0  0  0  0  0  0  0  0  0  0  0  0
    0.3285   -1.3540    0.0560 N   0  0  0  0  0  0  0  0  0  0  0  0
    0.7011   -2.4078    0.0560 N   0  0  0  0  0  0  0  0  0  0  0  0
  1  2  1  0  0  0  0
  3  1  1  0  0  0  0
  4  1  1  0  0  0  0
  5  1  1  0  0  0  0
  6  5  1  0  0  0  0
M  RAD  2   5   2   6   3
M  END
