Coordinates from ORCA-job CH3-N2+-scan-d09-169-n800
 OpenBabel09191814093D

  6  4  0  0  0  0  0  0  0  0999 V2000
   -0.9801    2.3472    0.0560 C   0  0  0  0  0  0  0  0  0  0  0  0
   -0.4641    2.5296    1.0040 H   0  0  0  0  0  0  0  0  0  0  0  0
   -0.4641    2.5297   -0.8919 H   0  0  0  0  0  0  0  0  0  0  0  0
   -2.0122    1.9825    0.0560 H   0  0  0  0  0  0  0  0  0  0  0  0
    1.9974   -6.0719    0.0560 N   0  0  0  0  0  0  0  0  0  0  0  0
    2.3646   -7.1147    0.0560 N   0  0  0  0  0  0  0  0  0  0  0  0
  1  2  1  0  0  0  0
  3  1  1  0  0  0  0
  4  1  1  0  0  0  0
  6  5  3  0  0  0  0
M  RAD  1   1   2
M  END
