Coordinates from ORCA-job CH3-N2+-scan-d09-169-n800
 OpenBabel09191814093D

  6  4  0  0  0  0  0  0  0  0999 V2000
   -1.2627    3.1464    0.0561 C   0  0  0  0  0  0  0  0  0  0  0  0
   -0.7469    3.3288    1.0037 H   0  0  0  0  0  0  0  0  0  0  0  0
   -0.7469    3.3289   -0.8916 H   0  0  0  0  0  0  0  0  0  0  0  0
   -2.2944    2.7819    0.0560 H   0  0  0  0  0  0  0  0  0  0  0  0
    2.5632   -7.6701    0.0560 N   0  0  0  0  0  0  0  0  0  0  0  0
    2.9292   -8.7135    0.0559 N   0  0  0  0  0  0  0  0  0  0  0  0
  1  2  1  0  0  0  0
  3  1  1  0  0  0  0
  4  1  1  0  0  0  0
  6  5  3  0  0  0  0
M  RAD  1   1   2
M  END
