Coordinates from ORCA-job CH3-N2+-scan-d09-169-n800
 OpenBabel09191814093D

  6  4  0  0  0  0  0  0  0  0999 V2000
   -1.7745    4.5939    0.0561 C   0  0  0  0  0  0  0  0  0  0  0  0
   -1.2589    4.7762    1.0034 H   0  0  0  0  0  0  0  0  0  0  0  0
   -1.2589    4.7762   -0.8912 H   0  0  0  0  0  0  0  0  0  0  0  0
   -2.8059    4.2294    0.0560 H   0  0  0  0  0  0  0  0  0  0  0  0
    3.5894  -10.5640    0.0559 N   0  0  0  0  0  0  0  0  0  0  0  0
    3.9504  -11.6093    0.0559 N   0  0  0  0  0  0  0  0  0  0  0  0
  1  2  1  0  0  0  0
  3  1  1  0  0  0  0
  4  1  1  0  0  0  0
  6  5  3  0  0  0  0
M  RAD  1   1   2
M  END
