Coordinates from ORCA-job CH3-N2+-scan-d09-169-n800
 OpenBabel09191814093D

  6  5  0  0  0  0  0  0  0  0999 V2000
   -0.0280   -0.3457    0.0560 C   0  0  0  0  0  0  0  0  0  0  0  0
    0.2929    0.2667    0.9336 H   0  0  0  0  0  0  0  0  0  0  0  0
    0.2929    0.2668   -0.8215 H   0  0  0  0  0  0  0  0  0  0  0  0
   -1.1401   -0.2399    0.0560 H   0  0  0  0  0  0  0  0  0  0  0  0
    0.3254   -1.3452    0.0560 N   0  0  0  0  0  0  0  0  0  0  0  0
    0.6985   -2.4003    0.0560 N   0  0  0  0  0  0  0  0  0  0  0  0
  1  2  1  0  0  0  0
  3  1  1  0  0  0  0
  4  1  1  0  0  0  0
  5  1  1  0  0  0  0
  6  5  1  0  0  0  0
M  RAD  2   5   2   6   3
M  END
