Coordinates from ORCA-job CH3-N2+-scan-d09-169-n800
 OpenBabel09191814093D

  6  4  0  0  0  0  0  0  0  0999 V2000
   -0.6085    1.2963    0.0560 C   0  0  0  0  0  0  0  0  0  0  0  0
   -0.0921    1.4786    1.0046 H   0  0  0  0  0  0  0  0  0  0  0  0
   -0.0921    1.4787   -0.8925 H   0  0  0  0  0  0  0  0  0  0  0  0
   -1.6411    0.9310    0.0560 H   0  0  0  0  0  0  0  0  0  0  0  0
    1.2536   -3.9700    0.0560 N   0  0  0  0  0  0  0  0  0  0  0  0
    1.6218   -5.0123    0.0560 N   0  0  0  0  0  0  0  0  0  0  0  0
  1  2  1  0  0  0  0
  3  1  1  0  0  0  0
  4  1  1  0  0  0  0
  6  5  3  0  0  0  0
M  RAD  1   1   2
M  END
