Coordinates from ORCA-job CH3-N2+-scan-d09-169-n800
 OpenBabel09191814093D

  6  4  0  0  0  0  0  0  0  0999 V2000
   -1.4541    3.6876    0.0561 C   0  0  0  0  0  0  0  0  0  0  0  0
   -0.9383    3.8700    1.0036 H   0  0  0  0  0  0  0  0  0  0  0  0
   -0.9383    3.8700   -0.8914 H   0  0  0  0  0  0  0  0  0  0  0  0
   -2.4856    3.3231    0.0560 H   0  0  0  0  0  0  0  0  0  0  0  0
    2.9467   -8.7523    0.0559 N   0  0  0  0  0  0  0  0  0  0  0  0
    3.3113   -9.7962    0.0559 N   0  0  0  0  0  0  0  0  0  0  0  0
  1  2  1  0  0  0  0
  3  1  1  0  0  0  0
  4  1  1  0  0  0  0
  6  5  3  0  0  0  0
M  RAD  1   1   2
M  END
