Coordinates from ORCA-job CH3-N2+-scan-d09-169-n800
 OpenBabel09191814093D

  6  4  0  0  0  0  0  0  0  0999 V2000
   -0.1974    0.1335    0.0560 C   0  0  0  0  0  0  0  0  0  0  0  0
    0.2794    0.4113    0.9950 H   0  0  0  0  0  0  0  0  0  0  0  0
    0.2794    0.4114   -0.8829 H   0  0  0  0  0  0  0  0  0  0  0  0
   -1.2539   -0.1308    0.0560 H   0  0  0  0  0  0  0  0  0  0  0  0
    0.4831   -1.7912    0.0560 N   0  0  0  0  0  0  0  0  0  0  0  0
    0.8510   -2.8318    0.0560 N   0  0  0  0  0  0  0  0  0  0  0  0
  1  2  1  0  0  0  0
  3  1  1  0  0  0  0
  4  1  1  0  0  0  0
  6  5  3  0  0  0  0
M  RAD  1   1   2
M  END
