Coordinates from ORCA-job CH3-N2+-scan-d09-169-n800
 OpenBabel09191814093D

  6  4  0  0  0  0  0  0  0  0999 V2000
   -1.8480    4.8015    0.0561 C   0  0  0  0  0  0  0  0  0  0  0  0
   -1.3324    4.9839    1.0034 H   0  0  0  0  0  0  0  0  0  0  0  0
   -1.3323    4.9839   -0.8912 H   0  0  0  0  0  0  0  0  0  0  0  0
   -2.8793    4.4370    0.0560 H   0  0  0  0  0  0  0  0  0  0  0  0
    3.7368  -10.9792    0.0559 N   0  0  0  0  0  0  0  0  0  0  0  0
    4.0967  -12.0248    0.0559 N   0  0  0  0  0  0  0  0  0  0  0  0
  1  2  1  0  0  0  0
  3  1  1  0  0  0  0
  4  1  1  0  0  0  0
  6  5  3  0  0  0  0
M  RAD  1   1   2
M  END
