Coordinates from ORCA-job CH3-N2+-scan-d09-169-n800
 OpenBabel09191814093D

  6  4  0  0  0  0  0  0  0  0999 V2000
   -0.8132    1.8752    0.0560 C   0  0  0  0  0  0  0  0  0  0  0  0
   -0.2970    2.0577    1.0044 H   0  0  0  0  0  0  0  0  0  0  0  0
   -0.2970    2.0577   -0.8923 H   0  0  0  0  0  0  0  0  0  0  0  0
   -1.8456    1.5102    0.0560 H   0  0  0  0  0  0  0  0  0  0  0  0
    1.6633   -5.1279    0.0560 N   0  0  0  0  0  0  0  0  0  0  0  0
    2.0311   -6.1705    0.0560 N   0  0  0  0  0  0  0  0  0  0  0  0
  1  2  1  0  0  0  0
  3  1  1  0  0  0  0
  4  1  1  0  0  0  0
  6  5  3  0  0  0  0
M  RAD  1   1   2
M  END
