Coordinates from ORCA-job CH3-N2+-scan-d09-169-n800
 OpenBabel09191814093D

  6  5  0  0  0  0  0  0  0  0999 V2000
   -0.1720    0.0617    0.0560 C   0  0  0  0  0  0  0  0  0  0  0  0
    0.2871    0.3813    0.9903 H   0  0  0  0  0  0  0  0  0  0  0  0
    0.2871    0.3814   -0.8782 H   0  0  0  0  0  0  0  0  0  0  0  0
   -1.2385   -0.1581    0.0560 H   0  0  0  0  0  0  0  0  0  0  0  0
    0.4551   -1.7119    0.0560 N   0  0  0  0  0  0  0  0  0  0  0  0
    0.8228   -2.7520    0.0560 N   0  0  0  0  0  0  0  0  0  0  0  0
  1  2  1  0  0  0  0
  3  1  1  0  0  0  0
  4  1  1  0  0  0  0
  5  1  1  0  0  0  0
  6  5  1  0  0  0  0
M  RAD  2   5   2   6   3
M  END
