Coordinates from ORCA-job CH3-N2+-scan-d09-169-n800
 OpenBabel09191814093D

  6  4  0  0  0  0  0  0  0  0999 V2000
   -1.0535    2.5549    0.0560 C   0  0  0  0  0  0  0  0  0  0  0  0
   -0.5376    2.7373    1.0039 H   0  0  0  0  0  0  0  0  0  0  0  0
   -0.5376    2.7373   -0.8918 H   0  0  0  0  0  0  0  0  0  0  0  0
   -2.0855    2.1902    0.0560 H   0  0  0  0  0  0  0  0  0  0  0  0
    2.1444   -6.4872    0.0560 N   0  0  0  0  0  0  0  0  0  0  0  0
    2.5114   -7.5301    0.0560 N   0  0  0  0  0  0  0  0  0  0  0  0
  1  2  1  0  0  0  0
  3  1  1  0  0  0  0
  4  1  1  0  0  0  0
  6  5  3  0  0  0  0
M  RAD  1   1   2
M  END
