Coordinates from ORCA-job CH3-N2+-scan-d09-169-n800
 OpenBabel09191814093D

  6  4  0  0  0  0  0  0  0  0999 V2000
   -0.8466    1.9696    0.0560 C   0  0  0  0  0  0  0  0  0  0  0  0
   -0.3304    2.1521    1.0043 H   0  0  0  0  0  0  0  0  0  0  0  0
   -0.3304    2.1521   -0.8922 H   0  0  0  0  0  0  0  0  0  0  0  0
   -1.8789    1.6047    0.0560 H   0  0  0  0  0  0  0  0  0  0  0  0
    1.7301   -5.3167    0.0560 N   0  0  0  0  0  0  0  0  0  0  0  0
    2.0978   -6.3593    0.0560 N   0  0  0  0  0  0  0  0  0  0  0  0
  1  2  1  0  0  0  0
  3  1  1  0  0  0  0
  4  1  1  0  0  0  0
  6  5  3  0  0  0  0
M  RAD  1   1   2
M  END
