Coordinates from ORCA-job CH3-N2+-scan-d09-169-n800
 OpenBabel09191814093D

  6  4  0  0  0  0  0  0  0  0999 V2000
   -1.0802    2.6304    0.0560 C   0  0  0  0  0  0  0  0  0  0  0  0
   -0.5643    2.8128    1.0039 H   0  0  0  0  0  0  0  0  0  0  0  0
   -0.5643    2.8128   -0.8918 H   0  0  0  0  0  0  0  0  0  0  0  0
   -2.1121    2.2657    0.0560 H   0  0  0  0  0  0  0  0  0  0  0  0
    2.1978   -6.6382    0.0560 N   0  0  0  0  0  0  0  0  0  0  0  0
    2.5647   -7.6812    0.0560 N   0  0  0  0  0  0  0  0  0  0  0  0
  1  2  1  0  0  0  0
  3  1  1  0  0  0  0
  4  1  1  0  0  0  0
  6  5  3  0  0  0  0
M  RAD  1   1   2
M  END
