Coordinates from ORCA-job CH3-N2+-scan-d09-169-n800
 OpenBabel09191814093D

  6  5  0  0  0  0  0  0  0  0999 V2000
   -0.0667   -0.2361    0.0560 C   0  0  0  0  0  0  0  0  0  0  0  0
    0.2936    0.2955    0.9513 H   0  0  0  0  0  0  0  0  0  0  0  0
    0.2936    0.2956   -0.8393 H   0  0  0  0  0  0  0  0  0  0  0  0
   -1.1684   -0.2214    0.0560 H   0  0  0  0  0  0  0  0  0  0  0  0
    0.3601   -1.4433    0.0560 N   0  0  0  0  0  0  0  0  0  0  0  0
    0.7294   -2.4879    0.0560 N   0  0  0  0  0  0  0  0  0  0  0  0
  1  2  1  0  0  0  0
  3  1  1  0  0  0  0
  4  1  1  0  0  0  0
  5  1  1  0  0  0  0
  6  5  1  0  0  0  0
M  RAD  2   5   2   6   3
M  END
