Coordinates from ORCA-job CH3-N2+-scan-d09-169-n800
 OpenBabel09191814093D

  6  4  0  0  0  0  0  0  0  0999 V2000
   -0.6730    1.4788    0.0560 C   0  0  0  0  0  0  0  0  0  0  0  0
   -0.1567    1.6612    1.0046 H   0  0  0  0  0  0  0  0  0  0  0  0
   -0.1566    1.6612   -0.8925 H   0  0  0  0  0  0  0  0  0  0  0  0
   -1.7056    1.1136    0.0560 H   0  0  0  0  0  0  0  0  0  0  0  0
    1.3828   -4.3350    0.0560 N   0  0  0  0  0  0  0  0  0  0  0  0
    1.7508   -5.3773    0.0560 N   0  0  0  0  0  0  0  0  0  0  0  0
  1  2  1  0  0  0  0
  3  1  1  0  0  0  0
  4  1  1  0  0  0  0
  6  5  3  0  0  0  0
M  RAD  1   1   2
M  END
