Coordinates from ORCA-job CH3-N2+-scan-d09-169-n800
 OpenBabel09191814093D

  6  4  0  0  0  0  0  0  0  0999 V2000
   -0.5907    1.2460    0.0560 C   0  0  0  0  0  0  0  0  0  0  0  0
   -0.0743    1.4283    1.0046 H   0  0  0  0  0  0  0  0  0  0  0  0
   -0.0743    1.4283   -0.8925 H   0  0  0  0  0  0  0  0  0  0  0  0
   -1.6232    0.8807    0.0560 H   0  0  0  0  0  0  0  0  0  0  0  0
    1.2180   -3.8693    0.0560 N   0  0  0  0  0  0  0  0  0  0  0  0
    1.5862   -4.9115    0.0560 N   0  0  0  0  0  0  0  0  0  0  0  0
  1  2  1  0  0  0  0
  3  1  1  0  0  0  0
  4  1  1  0  0  0  0
  6  5  3  0  0  0  0
M  RAD  1   1   2
M  END
