Coordinates from ORCA-job CH3-N2+-scan-d09-169-n800
 OpenBabel09191814093D

  6  4  0  0  0  0  0  0  0  0999 V2000
   -0.4817    0.9376    0.0560 C   0  0  0  0  0  0  0  0  0  0  0  0
    0.0346    1.1199    1.0044 H   0  0  0  0  0  0  0  0  0  0  0  0
    0.0346    1.1199   -0.8923 H   0  0  0  0  0  0  0  0  0  0  0  0
   -1.5140    0.5723    0.0560 H   0  0  0  0  0  0  0  0  0  0  0  0
    0.9999   -3.2526    0.0560 N   0  0  0  0  0  0  0  0  0  0  0  0
    1.3682   -4.2947    0.0560 N   0  0  0  0  0  0  0  0  0  0  0  0
  1  2  1  0  0  0  0
  3  1  1  0  0  0  0
  4  1  1  0  0  0  0
  6  5  3  0  0  0  0
M  RAD  1   1   2
M  END
