Coordinates from ORCA-job CH3-N2+-scan-d09-169-n800
 OpenBabel09191814093D

  6  4  0  0  0  0  0  0  0  0999 V2000
   -0.4193    0.7611    0.0560 C   0  0  0  0  0  0  0  0  0  0  0  0
    0.0966    0.9439    1.0040 H   0  0  0  0  0  0  0  0  0  0  0  0
    0.0967    0.9439   -0.8920 H   0  0  0  0  0  0  0  0  0  0  0  0
   -1.4514    0.3965    0.0560 H   0  0  0  0  0  0  0  0  0  0  0  0
    0.8754   -2.9005    0.0560 N   0  0  0  0  0  0  0  0  0  0  0  0
    1.2437   -3.9425    0.0560 N   0  0  0  0  0  0  0  0  0  0  0  0
  1  2  1  0  0  0  0
  3  1  1  0  0  0  0
  4  1  1  0  0  0  0
  6  5  3  0  0  0  0
M  RAD  1   1   2
M  END
