Coordinates from ORCA-job CH3-N2+-scan-d09-169-n800
 OpenBabel09191814093D

  6  4  0  0  0  0  0  0  0  0999 V2000
   -0.8176    1.8878    0.0560 C   0  0  0  0  0  0  0  0  0  0  0  0
   -0.3015    2.0703    1.0043 H   0  0  0  0  0  0  0  0  0  0  0  0
   -0.3014    2.0703   -0.8922 H   0  0  0  0  0  0  0  0  0  0  0  0
   -1.8500    1.5228    0.0560 H   0  0  0  0  0  0  0  0  0  0  0  0
    1.6722   -5.1531    0.0560 N   0  0  0  0  0  0  0  0  0  0  0  0
    2.0399   -6.1957    0.0560 N   0  0  0  0  0  0  0  0  0  0  0  0
  1  2  1  0  0  0  0
  3  1  1  0  0  0  0
  4  1  1  0  0  0  0
  6  5  3  0  0  0  0
M  RAD  1   1   2
M  END
