Coordinates from ORCA-job CH3-N2+-scan-d09-169-n800
 OpenBabel09191814093D

  6  4  0  0  0  0  0  0  0  0999 V2000
   -1.1804    2.9136    0.0560 C   0  0  0  0  0  0  0  0  0  0  0  0
   -0.6645    3.0960    1.0038 H   0  0  0  0  0  0  0  0  0  0  0  0
   -0.6645    3.0960   -0.8917 H   0  0  0  0  0  0  0  0  0  0  0  0
   -2.2122    2.5490    0.0560 H   0  0  0  0  0  0  0  0  0  0  0  0
    2.3983   -7.2045    0.0560 N   0  0  0  0  0  0  0  0  0  0  0  0
    2.7648   -8.2477    0.0559 N   0  0  0  0  0  0  0  0  0  0  0  0
  1  2  1  0  0  0  0
  3  1  1  0  0  0  0
  4  1  1  0  0  0  0
  6  5  3  0  0  0  0
M  RAD  1   1   2
M  END
