Coordinates from ORCA-job CH3-N2+-scan-d09-169-n800
 OpenBabel09191814093D

  6  4  0  0  0  0  0  0  0  0999 V2000
   -0.4527    0.8557    0.0560 C   0  0  0  0  0  0  0  0  0  0  0  0
    0.0634    1.0381    1.0043 H   0  0  0  0  0  0  0  0  0  0  0  0
    0.0635    1.0381   -0.8922 H   0  0  0  0  0  0  0  0  0  0  0  0
   -1.4850    0.4907    0.0560 H   0  0  0  0  0  0  0  0  0  0  0  0
    0.9421   -3.0891    0.0560 N   0  0  0  0  0  0  0  0  0  0  0  0
    1.3103   -4.1312    0.0560 N   0  0  0  0  0  0  0  0  0  0  0  0
  1  2  1  0  0  0  0
  3  1  1  0  0  0  0
  4  1  1  0  0  0  0
  6  5  3  0  0  0  0
M  RAD  1   1   2
M  END
