Coordinates from ORCA-job CH3-N2+-scan-d09-169-n800
 OpenBabel09191814093D

  6  4  0  0  0  0  0  0  0  0999 V2000
   -1.7278    4.4617    0.0561 C   0  0  0  0  0  0  0  0  0  0  0  0
   -1.2122    4.6441    1.0034 H   0  0  0  0  0  0  0  0  0  0  0  0
   -1.2121    4.6441   -0.8913 H   0  0  0  0  0  0  0  0  0  0  0  0
   -2.7592    4.0972    0.0560 H   0  0  0  0  0  0  0  0  0  0  0  0
    3.4956  -10.2998    0.0559 N   0  0  0  0  0  0  0  0  0  0  0  0
    3.8572  -11.3448    0.0559 N   0  0  0  0  0  0  0  0  0  0  0  0
  1  2  1  0  0  0  0
  3  1  1  0  0  0  0
  4  1  1  0  0  0  0
  6  5  3  0  0  0  0
M  RAD  1   1   2
M  END
