Coordinates from ORCA-job CH3-N2+-scan-d09-169-n800
 OpenBabel09191814093D

  6  4  0  0  0  0  0  0  0  0999 V2000
   -1.2582    3.1338    0.0561 C   0  0  0  0  0  0  0  0  0  0  0  0
   -0.7424    3.3162    1.0037 H   0  0  0  0  0  0  0  0  0  0  0  0
   -0.7424    3.3163   -0.8916 H   0  0  0  0  0  0  0  0  0  0  0  0
   -2.2900    2.7693    0.0560 H   0  0  0  0  0  0  0  0  0  0  0  0
    2.5543   -7.6449    0.0560 N   0  0  0  0  0  0  0  0  0  0  0  0
    2.9203   -8.6883    0.0559 N   0  0  0  0  0  0  0  0  0  0  0  0
  1  2  1  0  0  0  0
  3  1  1  0  0  0  0
  4  1  1  0  0  0  0
  6  5  3  0  0  0  0
M  RAD  1   1   2
M  END
