Coordinates from ORCA-job CH3-N2+-scan-d09-169-n800
 OpenBabel09191814093D

  6  4  0  0  0  0  0  0  0  0999 V2000
   -0.5462    1.1201    0.0560 C   0  0  0  0  0  0  0  0  0  0  0  0
   -0.0298    1.3024    1.0045 H   0  0  0  0  0  0  0  0  0  0  0  0
   -0.0298    1.3024   -0.8924 H   0  0  0  0  0  0  0  0  0  0  0  0
   -1.5787    0.7548    0.0560 H   0  0  0  0  0  0  0  0  0  0  0  0
    1.1290   -3.6176    0.0560 N   0  0  0  0  0  0  0  0  0  0  0  0
    1.4972   -4.6598    0.0560 N   0  0  0  0  0  0  0  0  0  0  0  0
  1  2  1  0  0  0  0
  3  1  1  0  0  0  0
  4  1  1  0  0  0  0
  6  5  3  0  0  0  0
M  RAD  1   1   2
M  END
