Coordinates from ORCA-job CH3-N2+-scan-d09-169-n800
 OpenBabel09191814093D

  6  4  0  0  0  0  0  0  0  0999 V2000
   -0.8866    2.0829    0.0560 C   0  0  0  0  0  0  0  0  0  0  0  0
   -0.3705    2.2653    1.0042 H   0  0  0  0  0  0  0  0  0  0  0  0
   -0.3705    2.2654   -0.8921 H   0  0  0  0  0  0  0  0  0  0  0  0
   -1.9189    1.7180    0.0560 H   0  0  0  0  0  0  0  0  0  0  0  0
    1.8103   -5.5433    0.0560 N   0  0  0  0  0  0  0  0  0  0  0  0
    2.1778   -6.5859    0.0560 N   0  0  0  0  0  0  0  0  0  0  0  0
  1  2  1  0  0  0  0
  3  1  1  0  0  0  0
  4  1  1  0  0  0  0
  6  5  3  0  0  0  0
M  RAD  1   1   2
M  END
