Coordinates from ORCA-job CH3-N2+-scan-d09-169-n800
 OpenBabel09191814093D

  6  4  0  0  0  0  0  0  0  0999 V2000
   -1.1358    2.7877    0.0560 C   0  0  0  0  0  0  0  0  0  0  0  0
   -0.6200    2.9701    1.0038 H   0  0  0  0  0  0  0  0  0  0  0  0
   -0.6199    2.9702   -0.8917 H   0  0  0  0  0  0  0  0  0  0  0  0
   -2.1677    2.4231    0.0560 H   0  0  0  0  0  0  0  0  0  0  0  0
    2.3092   -6.9528    0.0560 N   0  0  0  0  0  0  0  0  0  0  0  0
    2.6758   -7.9959    0.0559 N   0  0  0  0  0  0  0  0  0  0  0  0
  1  2  1  0  0  0  0
  3  1  1  0  0  0  0
  4  1  1  0  0  0  0
  6  5  3  0  0  0  0
M  RAD  1   1   2
M  END
