Coordinates from ORCA-job CH3-N2+-scan-d09-169-n800
 OpenBabel09191814093D

  6  4  0  0  0  0  0  0  0  0999 V2000
   -1.4073    3.5555    0.0561 C   0  0  0  0  0  0  0  0  0  0  0  0
   -0.8916    3.7379    1.0036 H   0  0  0  0  0  0  0  0  0  0  0  0
   -0.8916    3.7379   -0.8915 H   0  0  0  0  0  0  0  0  0  0  0  0
   -2.4389    3.1910    0.0560 H   0  0  0  0  0  0  0  0  0  0  0  0
    2.8530   -8.4880    0.0559 N   0  0  0  0  0  0  0  0  0  0  0  0
    3.2180   -9.5318    0.0559 N   0  0  0  0  0  0  0  0  0  0  0  0
  1  2  1  0  0  0  0
  3  1  1  0  0  0  0
  4  1  1  0  0  0  0
  6  5  3  0  0  0  0
M  RAD  1   1   2
M  END
