Coordinates from ORCA-job 4-Br-C6H3-N2-B3LYPG-aug-cc-pVDZ-scan-d09-49-n400
 OpenBabel11091809103D

 12 11  0  0  0  0  0  0  0  0999 V2000
   -1.6622   -1.6509   -1.0800 C   0  0  0  0  0  0  0  0  0  0  0  0
   -0.3228   -1.2804   -1.0907 C   0  0  0  0  0  0  0  0  0  0  0  0
    0.1057   -0.1175   -0.9066 C   0  0  0  0  0  0  0  0  0  0  0  0
   -0.5883    1.0509   -0.6566 C   0  0  0  0  0  0  0  0  0  0  0  0
   -1.9748    0.7809   -0.6251 C   0  0  0  0  0  0  0  0  0  0  0  0
   -2.4753   -0.5224   -0.8304 C   0  0  0  0  0  0  0  0  0  0  0  0
   -2.0765   -2.6446   -1.2346 H   0  0  0  0  0  0  0  0  0  0  0  0
   -0.1804    2.0471   -0.5012 H   0  0  0  0  0  0  0  0  0  0  0  0
   -2.6750    1.5945   -0.4385 H   0  0  0  0  0  0  0  0  0  0  0  0
    2.6798    0.9952   -0.8556 N   0  0  0  0  0  0  0  0  0  0  0  0
    3.6859    0.5612   -0.9930 N   0  0  0  0  0  0  0  0  0  0  0  0
   -4.3789   -0.7846   -0.7676 Br  0  0  0  0  0  0  0  0  0  0  0  0
  1  6  1  0  0  0  0
  2  1  2  0  0  0  0
  2  3  1  0  0  0  0
  3  4  2  0  0  0  0
  4  5  1  0  0  0  0
  4  8  1  0  0  0  0
  5  9  1  0  0  0  0
  6 12  1  0  0  0  0
  6  5  2  0  0  0  0
  7  1  1  0  0  0  0
 11 10  3  0  0  0  0
M  RAD  2   2   2   3   2
M  END
