Coordinates from ORCA-job 4-Br-C6H3-N2-B3LYPG-aug-cc-pVDZ-scan-d09-49-n400
 OpenBabel11091809103D

 12 11  0  0  0  0  0  0  0  0999 V2000
   -1.8121   -1.7078   -1.0815 C   0  0  0  0  0  0  0  0  0  0  0  0
   -0.4582   -1.4066   -1.1054 C   0  0  0  0  0  0  0  0  0  0  0  0
    0.0595   -0.2792   -0.9328 C   0  0  0  0  0  0  0  0  0  0  0  0
   -0.5742    0.9270   -0.6796 C   0  0  0  0  0  0  0  0  0  0  0  0
   -1.9730    0.7402   -0.6325 C   0  0  0  0  0  0  0  0  0  0  0  0
   -2.5532   -0.5313   -0.8275 C   0  0  0  0  0  0  0  0  0  0  0  0
   -2.2834   -2.6765   -1.2284 H   0  0  0  0  0  0  0  0  0  0  0  0
   -0.1069    1.8980   -0.5321 H   0  0  0  0  0  0  0  0  0  0  0  0
   -2.6216    1.5945   -0.4417 H   0  0  0  0  0  0  0  0  0  0  0  0
    2.9853    1.3399   -0.8112 N   0  0  0  0  0  0  0  0  0  0  0  0
    3.9429    0.8116   -0.9633 N   0  0  0  0  0  0  0  0  0  0  0  0
   -4.4678   -0.6803   -0.7439 Br  0  0  0  0  0  0  0  0  0  0  0  0
  1  6  1  0  0  0  0
  2  1  2  0  0  0  0
  2  3  1  0  0  0  0
  3  4  2  0  0  0  0
  4  5  1  0  0  0  0
  4  8  1  0  0  0  0
  5  9  1  0  0  0  0
  6 12  1  0  0  0  0
  6  5  2  0  0  0  0
  7  1  1  0  0  0  0
 11 10  3  0  0  0  0
M  RAD  2   2   2   3   2
M  END
