Coordinates from ORCA-job 4-Br-C6H3-N2-B3LYPG-aug-cc-pVDZ-scan-d09-49-n400
 OpenBabel11091809103D

 12 12  0  0  0  0  0  0  0  0999 V2000
   -1.3549   -1.5078   -1.0723 C   0  0  0  0  0  0  0  0  0  0  0  0
    0.0508   -1.3507   -1.1257 C   0  0  0  0  0  0  0  0  0  0  0  0
    0.4684    0.0801   -0.8934 C   0  0  0  0  0  0  0  0  0  0  0  0
   -0.5002    1.1428   -0.6456 C   0  0  0  0  0  0  0  0  0  0  0  0
   -1.8357    0.8652   -0.6180 C   0  0  0  0  0  0  0  0  0  0  0  0
   -2.2510   -0.4749   -0.8348 C   0  0  0  0  0  0  0  0  0  0  0  0
   -1.7538   -2.5131   -1.2297 H   0  0  0  0  0  0  0  0  0  0  0  0
   -0.1263    2.1564   -0.4849 H   0  0  0  0  0  0  0  0  0  0  0  0
   -2.5657    1.6500   -0.4343 H   0  0  0  0  0  0  0  0  0  0  0  0
    1.5057    0.2994   -0.9132 N   0  0  0  0  0  0  0  0  0  0  0  0
    2.6314    0.5064   -0.9398 N   0  0  0  0  0  0  0  0  0  0  0  0
   -4.1315   -0.8244   -0.7883 Br  0  0  0  0  0  0  0  0  0  0  0  0
  1  6  1  0  0  0  0
  2  1  2  0  0  0  0
  2  3  1  0  0  0  0
  3  4  2  0  0  0  0
  4  5  1  0  0  0  0
  4  8  1  0  0  0  0
  5  9  1  0  0  0  0
  6 12  1  0  0  0  0
  6  5  2  0  0  0  0
  7  1  1  0  0  0  0
 10  3  1  0  0  0  0
 11 10  1  0  0  0  0
M  RAD  3   2   2  10   2  11   3
M  END
