Coordinates from ORCA-job 4-Br-C6H3-N2-B3LYPG-aug-cc-pVDZ-scan-d09-49-n400
 OpenBabel11091809103D

 12 11  0  0  0  0  0  0  0  0999 V2000
   -1.6897   -1.6616   -1.0803 C   0  0  0  0  0  0  0  0  0  0  0  0
   -0.3495   -1.2988   -1.0925 C   0  0  0  0  0  0  0  0  0  0  0  0
    0.1009   -0.1440   -0.9111 C   0  0  0  0  0  0  0  0  0  0  0  0
   -0.5887    1.0294   -0.6604 C   0  0  0  0  0  0  0  0  0  0  0  0
   -1.9770    0.7737   -0.6263 C   0  0  0  0  0  0  0  0  0  0  0  0
   -2.4911   -0.5247   -0.8299 C   0  0  0  0  0  0  0  0  0  0  0  0
   -2.1125   -2.6516   -1.2338 H   0  0  0  0  0  0  0  0  0  0  0  0
   -0.1685    2.0207   -0.5066 H   0  0  0  0  0  0  0  0  0  0  0  0
   -2.6688    1.5942   -0.4389 H   0  0  0  0  0  0  0  0  0  0  0  0
    2.7432    1.0615   -0.8473 N   0  0  0  0  0  0  0  0  0  0  0  0
    3.7360    0.5991   -0.9892 N   0  0  0  0  0  0  0  0  0  0  0  0
   -4.3968   -0.7686   -0.7637 Br  0  0  0  0  0  0  0  0  0  0  0  0
  1  6  1  0  0  0  0
  2  1  2  0  0  0  0
  2  3  1  0  0  0  0
  3  4  2  0  0  0  0
  4  5  1  0  0  0  0
  4  8  1  0  0  0  0
  5  9  1  0  0  0  0
  6 12  1  0  0  0  0
  6  5  2  0  0  0  0
  7  1  1  0  0  0  0
 11 10  3  0  0  0  0
M  RAD  2   2   2   3   2
M  END
