Coordinates from ORCA-job 4-Br-C6H3-N2-B3LYPG-aug-cc-pVDZ-scan-d09-49-n400
 OpenBabel11091809103D

 12 11  0  0  0  0  0  0  0  0999 V2000
   -1.6338   -1.6399   -1.0797 C   0  0  0  0  0  0  0  0  0  0  0  0
   -0.2967   -1.2583   -1.0882 C   0  0  0  0  0  0  0  0  0  0  0  0
    0.1148   -0.0894   -0.9020 C   0  0  0  0  0  0  0  0  0  0  0  0
   -0.5896    1.0721   -0.6527 C   0  0  0  0  0  0  0  0  0  0  0  0
   -1.9733    0.7880   -0.6239 C   0  0  0  0  0  0  0  0  0  0  0  0
   -2.4594   -0.5205   -0.8310 C   0  0  0  0  0  0  0  0  0  0  0  0
   -2.0380   -2.6376   -1.2356 H   0  0  0  0  0  0  0  0  0  0  0  0
   -0.1911    2.0719   -0.4960 H   0  0  0  0  0  0  0  0  0  0  0  0
   -2.6823    1.5941   -0.4382 H   0  0  0  0  0  0  0  0  0  0  0  0
    2.6229    0.9480   -0.8607 N   0  0  0  0  0  0  0  0  0  0  0  0
    3.6244    0.5037   -1.0000 N   0  0  0  0  0  0  0  0  0  0  0  0
   -4.3604   -0.8026   -0.7720 Br  0  0  0  0  0  0  0  0  0  0  0  0
  1  6  1  0  0  0  0
  2  1  2  0  0  0  0
  2  3  1  0  0  0  0
  3  4  2  0  0  0  0
  4  5  1  0  0  0  0
  4  8  1  0  0  0  0
  5  9  1  0  0  0  0
  6 12  1  0  0  0  0
  6  5  2  0  0  0  0
  7  1  1  0  0  0  0
 11 10  3  0  0  0  0
M  RAD  2   2   2   3   2
M  END
