Coordinates from ORCA-job 4-Br-C6H3-N2-B3LYPG-aug-cc-pVDZ-scan-d09-49-n400
 OpenBabel11091809103D

 12 11  0  0  0  0  0  0  0  0999 V2000
   -2.2257   -1.8261   -1.0786 C   0  0  0  0  0  0  0  0  0  0  0  0
   -0.8414   -1.8053   -1.1545 C   0  0  0  0  0  0  0  0  0  0  0  0
   -0.0951   -0.8087   -1.0186 C   0  0  0  0  0  0  0  0  0  0  0  0
   -0.4608    0.5048   -0.7619 C   0  0  0  0  0  0  0  0  0  0  0  0
   -1.8659    0.6060   -0.6629 C   0  0  0  0  0  0  0  0  0  0  0  0
   -2.7010   -0.5210   -0.8171 C   0  0  0  0  0  0  0  0  0  0  0  0
   -2.8891   -2.6798   -1.1937 H   0  0  0  0  0  0  0  0  0  0  0  0
    0.1922    1.3671   -0.6447 H   0  0  0  0  0  0  0  0  0  0  0  0
   -2.3193    1.5764   -0.4627 H   0  0  0  0  0  0  0  0  0  0  0  0
    3.4348    2.0601   -0.7091 N   0  0  0  0  0  0  0  0  0  0  0  0
    4.5097    1.8299   -0.8126 N   0  0  0  0  0  0  0  0  0  0  0  0
   -4.6010   -0.2738   -0.6635 Br  0  0  0  0  0  0  0  0  0  0  0  0
  1  6  1  0  0  0  0
  2  1  2  0  0  0  0
  2  3  1  0  0  0  0
  3  4  2  0  0  0  0
  4  5  1  0  0  0  0
  4  8  1  0  0  0  0
  5  9  1  0  0  0  0
  6 12  1  0  0  0  0
  6  5  2  0  0  0  0
  7  1  1  0  0  0  0
 11 10  3  0  0  0  0
M  RAD  2   2   2   3   2
M  END
