Coordinates from ORCA-job 4-Br-C6H3-N2-B3LYPG-aug-cc-pVDZ-scan-d09-49-n400
 OpenBabel11091809103D

 12 11  0  0  0  0  0  0  0  0999 V2000
   -2.1513   -1.8102   -1.0801 C   0  0  0  0  0  0  0  0  0  0  0  0
   -0.7682   -1.7337   -1.1461 C   0  0  0  0  0  0  0  0  0  0  0  0
   -0.0658   -0.7067   -1.0022 C   0  0  0  0  0  0  0  0  0  0  0  0
   -0.4854    0.5900   -0.7453 C   0  0  0  0  0  0  0  0  0  0  0  0
   -1.8943    0.6336   -0.6563 C   0  0  0  0  0  0  0  0  0  0  0  0
   -2.6813   -0.5263   -0.8191 C   0  0  0  0  0  0  0  0  0  0  0  0
   -2.7786   -2.6898   -1.2018 H   0  0  0  0  0  0  0  0  0  0  0  0
    0.1315    1.4775   -0.6216 H   0  0  0  0  0  0  0  0  0  0  0  0
   -2.3884    1.5841   -0.4572 H   0  0  0  0  0  0  0  0  0  0  0  0
    3.3772    1.9356   -0.7287 N   0  0  0  0  0  0  0  0  0  0  0  0
    4.4328    1.6327   -0.8428 N   0  0  0  0  0  0  0  0  0  0  0  0
   -4.5909   -0.3573   -0.6788 Br  0  0  0  0  0  0  0  0  0  0  0  0
  1  6  1  0  0  0  0
  2  1  2  0  0  0  0
  2  3  1  0  0  0  0
  3  4  2  0  0  0  0
  4  5  1  0  0  0  0
  4  8  1  0  0  0  0
  5  9  1  0  0  0  0
  6 12  1  0  0  0  0
  6  5  2  0  0  0  0
  7  1  1  0  0  0  0
 11 10  3  0  0  0  0
M  RAD  2   2   2   3   2
M  END
