Coordinates from ORCA-job 4-Br-C6H3-N2-B3LYPG-aug-cc-pVDZ-scan-d09-49-n400
 OpenBabel11091809103D

 12 11  0  0  0  0  0  0  0  0999 V2000
   -1.9053   -1.7404   -1.0819 C   0  0  0  0  0  0  0  0  0  0  0  0
   -0.5398   -1.4976   -1.1169 C   0  0  0  0  0  0  0  0  0  0  0  0
    0.0249   -0.3921   -0.9509 C   0  0  0  0  0  0  0  0  0  0  0  0
   -0.5524    0.8415   -0.6961 C   0  0  0  0  0  0  0  0  0  0  0  0
   -1.9580    0.7133   -0.6383 C   0  0  0  0  0  0  0  0  0  0  0  0
   -2.5935   -0.5327   -0.8255 C   0  0  0  0  0  0  0  0  0  0  0  0
   -2.4187   -2.6884   -1.2226 H   0  0  0  0  0  0  0  0  0  0  0  0
   -0.0484    1.7948   -0.5539 H   0  0  0  0  0  0  0  0  0  0  0  0
   -2.5684    1.5947   -0.4448 H   0  0  0  0  0  0  0  0  0  0  0  0
    3.1169    1.5158   -0.7872 N   0  0  0  0  0  0  0  0  0  0  0  0
    4.0923    1.0200   -0.9348 N   0  0  0  0  0  0  0  0  0  0  0  0
   -4.5120   -0.5993   -0.7270 Br  0  0  0  0  0  0  0  0  0  0  0  0
  1  6  1  0  0  0  0
  2  1  2  0  0  0  0
  2  3  1  0  0  0  0
  3  4  2  0  0  0  0
  4  5  1  0  0  0  0
  4  8  1  0  0  0  0
  5  9  1  0  0  0  0
  6 12  1  0  0  0  0
  6  5  2  0  0  0  0
  7  1  1  0  0  0  0
 11 10  3  0  0  0  0
M  RAD  2   2   2   3   2
M  END
