Coordinates from ORCA-job 4-Br-C6H3-N2-B3LYPG-aug-cc-pVDZ-scan-d09-49-n400
 OpenBabel11091809103D

 12 11  0  0  0  0  0  0  0  0999 V2000
   -1.6150   -1.6325   -1.0794 C   0  0  0  0  0  0  0  0  0  0  0  0
   -0.2793   -1.2445   -1.0867 C   0  0  0  0  0  0  0  0  0  0  0  0
    0.1207   -0.0715   -0.8991 C   0  0  0  0  0  0  0  0  0  0  0  0
   -0.5900    1.0855   -0.6502 C   0  0  0  0  0  0  0  0  0  0  0  0
   -1.9719    0.7926   -0.6232 C   0  0  0  0  0  0  0  0  0  0  0  0
   -2.4487   -0.5191   -0.8314 C   0  0  0  0  0  0  0  0  0  0  0  0
   -2.0130   -2.6327   -1.2362 H   0  0  0  0  0  0  0  0  0  0  0  0
   -0.1972    2.0875   -0.4928 H   0  0  0  0  0  0  0  0  0  0  0  0
   -2.6863    1.5940   -0.4380 H   0  0  0  0  0  0  0  0  0  0  0  0
    2.5838    0.9173   -0.8639 N   0  0  0  0  0  0  0  0  0  0  0  0
    3.5824    0.4669   -1.0043 N   0  0  0  0  0  0  0  0  0  0  0  0
   -4.3480   -0.8140   -0.7748 Br  0  0  0  0  0  0  0  0  0  0  0  0
  1  6  1  0  0  0  0
  2  1  2  0  0  0  0
  2  3  1  0  0  0  0
  3  4  2  0  0  0  0
  4  5  1  0  0  0  0
  4  8  1  0  0  0  0
  5  9  1  0  0  0  0
  6 12  1  0  0  0  0
  6  5  2  0  0  0  0
  7  1  1  0  0  0  0
 11 10  3  0  0  0  0
M  RAD  2   2   2   3   2
M  END
