Coordinates from ORCA-job 4-Br-C6H3-N2-B3LYPG-aug-cc-pVDZ-scan-d09-49-n400
 OpenBabel11091809103D

 12 11  0  0  0  0  0  0  0  0999 V2000
   -1.4919   -1.5800   -1.0771 C   0  0  0  0  0  0  0  0  0  0  0  0
   -0.1598   -1.1634   -1.0790 C   0  0  0  0  0  0  0  0  0  0  0  0
    0.1652    0.0367   -0.8821 C   0  0  0  0  0  0  0  0  0  0  0  0
   -0.5889    1.1637   -0.6361 C   0  0  0  0  0  0  0  0  0  0  0  0
   -1.9570    0.8223   -0.6187 C   0  0  0  0  0  0  0  0  0  0  0  0
   -2.3757   -0.5081   -0.8336 C   0  0  0  0  0  0  0  0  0  0  0  0
   -1.8523   -2.5945   -1.2386 H   0  0  0  0  0  0  0  0  0  0  0  0
   -0.2242    2.1765   -0.4751 H   0  0  0  0  0  0  0  0  0  0  0  0
   -2.7025    1.5953   -0.4369 H   0  0  0  0  0  0  0  0  0  0  0  0
    2.3011    0.7228   -0.8823 N   0  0  0  0  0  0  0  0  0  0  0  0
    3.2856    0.2397   -1.0283 N   0  0  0  0  0  0  0  0  0  0  0  0
   -4.2623   -0.8815   -0.7921 Br  0  0  0  0  0  0  0  0  0  0  0  0
  1  6  1  0  0  0  0
  2  1  2  0  0  0  0
  2  3  1  0  0  0  0
  3  4  2  0  0  0  0
  4  5  1  0  0  0  0
  4  8  1  0  0  0  0
  5  9  1  0  0  0  0
  6 12  1  0  0  0  0
  6  5  2  0  0  0  0
  7  1  1  0  0  0  0
 11 10  3  0  0  0  0
M  RAD  2   2   2   3   2
M  END
