Coordinates from ORCA-job 4-Br-C6H3-N2-B3LYPG-aug-cc-pVDZ-scan-d09-49-n400
 OpenBabel11091809103D

 12 11  0  0  0  0  0  0  0  0999 V2000
   -1.6119   -1.6313   -1.0794 C   0  0  0  0  0  0  0  0  0  0  0  0
   -0.2764   -1.2422   -1.0865 C   0  0  0  0  0  0  0  0  0  0  0  0
    0.1216   -0.0685   -0.8986 C   0  0  0  0  0  0  0  0  0  0  0  0
   -0.5900    1.0877   -0.6498 C   0  0  0  0  0  0  0  0  0  0  0  0
   -1.9716    0.7934   -0.6231 C   0  0  0  0  0  0  0  0  0  0  0  0
   -2.4469   -0.5189   -0.8314 C   0  0  0  0  0  0  0  0  0  0  0  0
   -2.0089   -2.6318   -1.2363 H   0  0  0  0  0  0  0  0  0  0  0  0
   -0.1982    2.0901   -0.4923 H   0  0  0  0  0  0  0  0  0  0  0  0
   -2.6869    1.5940   -0.4380 H   0  0  0  0  0  0  0  0  0  0  0  0
    2.5772    0.9122   -0.8644 N   0  0  0  0  0  0  0  0  0  0  0  0
    3.5754    0.4608   -1.0050 N   0  0  0  0  0  0  0  0  0  0  0  0
   -4.3459   -0.8159   -0.7753 Br  0  0  0  0  0  0  0  0  0  0  0  0
  1  6  1  0  0  0  0
  2  1  2  0  0  0  0
  2  3  1  0  0  0  0
  3  4  2  0  0  0  0
  4  5  1  0  0  0  0
  4  8  1  0  0  0  0
  5  9  1  0  0  0  0
  6 12  1  0  0  0  0
  6  5  2  0  0  0  0
  7  1  1  0  0  0  0
 11 10  3  0  0  0  0
M  RAD  2   2   2   3   2
M  END
