Coordinates from ORCA-job 4-Br-C6H3-N2-B3LYPG-aug-cc-pVDZ-scan-d09-49-n400
 OpenBabel11091809103D

 12 11  0  0  0  0  0  0  0  0999 V2000
   -1.8007   -1.7036   -1.0814 C   0  0  0  0  0  0  0  0  0  0  0  0
   -0.4482   -1.3959   -1.1041 C   0  0  0  0  0  0  0  0  0  0  0  0
    0.0635   -0.2659   -0.9306 C   0  0  0  0  0  0  0  0  0  0  0  0
   -0.5762    0.9371   -0.6777 C   0  0  0  0  0  0  0  0  0  0  0  0
   -1.9742    0.7434   -0.6319 C   0  0  0  0  0  0  0  0  0  0  0  0
   -2.5479   -0.5309   -0.8277 C   0  0  0  0  0  0  0  0  0  0  0  0
   -2.2671   -2.6746   -1.2290 H   0  0  0  0  0  0  0  0  0  0  0  0
   -0.1137    1.9103   -0.5295 H   0  0  0  0  0  0  0  0  0  0  0  0
   -2.6271    1.5945   -0.4414 H   0  0  0  0  0  0  0  0  0  0  0  0
    2.9653    1.3141   -0.8147 N   0  0  0  0  0  0  0  0  0  0  0  0
    3.9255    0.7904   -0.9661 N   0  0  0  0  0  0  0  0  0  0  0  0
   -4.4618   -0.6894   -0.7459 Br  0  0  0  0  0  0  0  0  0  0  0  0
  1  6  1  0  0  0  0
  2  1  2  0  0  0  0
  2  3  1  0  0  0  0
  3  4  2  0  0  0  0
  4  5  1  0  0  0  0
  4  8  1  0  0  0  0
  5  9  1  0  0  0  0
  6 12  1  0  0  0  0
  6  5  2  0  0  0  0
  7  1  1  0  0  0  0
 11 10  3  0  0  0  0
M  RAD  2   2   2   3   2
M  END
