Coordinates from ORCA-job 4-Br-C6H3-N2-B3LYPG-aug-cc-pVDZ-scan-d09-49-n400
 OpenBabel11091809103D

 12 11  0  0  0  0  0  0  0  0999 V2000
   -1.9287   -1.7481   -1.0819 C   0  0  0  0  0  0  0  0  0  0  0  0
   -0.5607   -1.5199   -1.1196 C   0  0  0  0  0  0  0  0  0  0  0  0
    0.0155   -0.4201   -0.9552 C   0  0  0  0  0  0  0  0  0  0  0  0
   -0.5477    0.8201   -0.7001 C   0  0  0  0  0  0  0  0  0  0  0  0
   -1.9545    0.7063   -0.6397 C   0  0  0  0  0  0  0  0  0  0  0  0
   -2.6035   -0.5329   -0.8250 C   0  0  0  0  0  0  0  0  0  0  0  0
   -2.4524   -2.6906   -1.2211 H   0  0  0  0  0  0  0  0  0  0  0  0
   -0.0329    1.7678   -0.5595 H   0  0  0  0  0  0  0  0  0  0  0  0
   -2.5554    1.5942   -0.4458 H   0  0  0  0  0  0  0  0  0  0  0  0
    3.1478    1.5548   -0.7818 N   0  0  0  0  0  0  0  0  0  0  0  0
    4.1324    1.0767   -0.9274 N   0  0  0  0  0  0  0  0  0  0  0  0
   -4.5225   -0.5788   -0.7230 Br  0  0  0  0  0  0  0  0  0  0  0  0
  1  6  1  0  0  0  0
  2  1  2  0  0  0  0
  2  3  1  0  0  0  0
  3  4  2  0  0  0  0
  4  5  1  0  0  0  0
  4  8  1  0  0  0  0
  5  9  1  0  0  0  0
  6 12  1  0  0  0  0
  6  5  2  0  0  0  0
  7  1  1  0  0  0  0
 11 10  3  0  0  0  0
M  RAD  2   2   2   3   2
M  END
