Coordinates from ORCA-job 4-Br-C6H3-N2-B3LYPG-aug-cc-pVDZ-scan-d09-49-n400
 OpenBabel11091809103D

 12 12  0  0  0  0  0  0  0  0999 V2000
   -1.3679   -1.5148   -1.0729 C   0  0  0  0  0  0  0  0  0  0  0  0
    0.0399   -1.3219   -1.1195 C   0  0  0  0  0  0  0  0  0  0  0  0
    0.3740    0.0548   -0.8909 C   0  0  0  0  0  0  0  0  0  0  0  0
   -0.5148    1.1524   -0.6426 C   0  0  0  0  0  0  0  0  0  0  0  0
   -1.8574    0.8659   -0.6165 C   0  0  0  0  0  0  0  0  0  0  0  0
   -2.2614   -0.4774   -0.8347 C   0  0  0  0  0  0  0  0  0  0  0  0
   -1.7702   -2.5184   -1.2299 H   0  0  0  0  0  0  0  0  0  0  0  0
   -0.1448    2.1666   -0.4819 H   0  0  0  0  0  0  0  0  0  0  0  0
   -2.5953    1.6434   -0.4342 H   0  0  0  0  0  0  0  0  0  0  0  0
    1.6394    0.3090   -0.9190 N   0  0  0  0  0  0  0  0  0  0  0  0
    2.7456    0.5027   -0.9486 N   0  0  0  0  0  0  0  0  0  0  0  0
   -4.1498   -0.8329   -0.7893 Br  0  0  0  0  0  0  0  0  0  0  0  0
  1  6  1  0  0  0  0
  2  1  2  0  0  0  0
  2  3  1  0  0  0  0
  3  4  2  0  0  0  0
  4  5  1  0  0  0  0
  4  8  1  0  0  0  0
  5  9  1  0  0  0  0
  6 12  1  0  0  0  0
  6  5  2  0  0  0  0
  7  1  1  0  0  0  0
 10  3  1  0  0  0  0
 11 10  1  0  0  0  0
M  RAD  3   2   2  10   2  11   3
M  END
