Coordinates from ORCA-job 4-Br-C6H3-N2-B3LYPG-aug-cc-pVDZ-scan-d09-49-n400
 OpenBabel11091809103D

 12 11  0  0  0  0  0  0  0  0999 V2000
   -1.6527   -1.6473   -1.0799 C   0  0  0  0  0  0  0  0  0  0  0  0
   -0.3141   -1.2729   -1.0899 C   0  0  0  0  0  0  0  0  0  0  0  0
    0.1088   -0.1080   -0.9050 C   0  0  0  0  0  0  0  0  0  0  0  0
   -0.5888    1.0581   -0.6553 C   0  0  0  0  0  0  0  0  0  0  0  0
   -1.9744    0.7833   -0.6247 C   0  0  0  0  0  0  0  0  0  0  0  0
   -2.4700   -0.5218   -0.8306 C   0  0  0  0  0  0  0  0  0  0  0  0
   -2.0636   -2.6423   -1.2350 H   0  0  0  0  0  0  0  0  0  0  0  0
   -0.1841    2.0555   -0.4994 H   0  0  0  0  0  0  0  0  0  0  0  0
   -2.6776    1.5944   -0.4384 H   0  0  0  0  0  0  0  0  0  0  0  0
    2.6611    0.9794   -0.8573 N   0  0  0  0  0  0  0  0  0  0  0  0
    3.6656    0.5418   -0.9954 N   0  0  0  0  0  0  0  0  0  0  0  0
   -4.3728   -0.7907   -0.7691 Br  0  0  0  0  0  0  0  0  0  0  0  0
  1  6  1  0  0  0  0
  2  1  2  0  0  0  0
  2  3  1  0  0  0  0
  3  4  2  0  0  0  0
  4  5  1  0  0  0  0
  4  8  1  0  0  0  0
  5  9  1  0  0  0  0
  6 12  1  0  0  0  0
  6  5  2  0  0  0  0
  7  1  1  0  0  0  0
 11 10  3  0  0  0  0
M  RAD  2   2   2   3   2
M  END
