Coordinates from ORCA-job 4-Br-C6H3-N2-B3LYPG-aug-cc-pVDZ-scan-d09-49-n400
 OpenBabel11091809103D

 12 11  0  0  0  0  0  0  0  0999 V2000
   -1.8092   -1.7068   -1.0815 C   0  0  0  0  0  0  0  0  0  0  0  0
   -0.4557   -1.4039   -1.1051 C   0  0  0  0  0  0  0  0  0  0  0  0
    0.0605   -0.2759   -0.9322 C   0  0  0  0  0  0  0  0  0  0  0  0
   -0.5747    0.9296   -0.6791 C   0  0  0  0  0  0  0  0  0  0  0  0
   -1.9733    0.7410   -0.6324 C   0  0  0  0  0  0  0  0  0  0  0  0
   -2.5519   -0.5312   -0.8276 C   0  0  0  0  0  0  0  0  0  0  0  0
   -2.2793   -2.6761   -1.2285 H   0  0  0  0  0  0  0  0  0  0  0  0
   -0.1086    1.9011   -0.5315 H   0  0  0  0  0  0  0  0  0  0  0  0
   -2.6230    1.5945   -0.4416 H   0  0  0  0  0  0  0  0  0  0  0  0
    2.9803    1.3334   -0.8121 N   0  0  0  0  0  0  0  0  0  0  0  0
    3.9386    0.8063   -0.9640 N   0  0  0  0  0  0  0  0  0  0  0  0
   -4.4663   -0.6826   -0.7444 Br  0  0  0  0  0  0  0  0  0  0  0  0
  1  6  1  0  0  0  0
  2  1  2  0  0  0  0
  2  3  1  0  0  0  0
  3  4  2  0  0  0  0
  4  5  1  0  0  0  0
  4  8  1  0  0  0  0
  5  9  1  0  0  0  0
  6 12  1  0  0  0  0
  6  5  2  0  0  0  0
  7  1  1  0  0  0  0
 11 10  3  0  0  0  0
M  RAD  2   2   2   3   2
M  END
