Coordinates from ORCA-job 4-Br-C6H3-N2-B3LYPG-aug-cc-pVDZ-scan-d09-49-n400
 OpenBabel11091809103D

 12 11  0  0  0  0  0  0  0  0999 V2000
   -1.5903   -1.6227   -1.0791 C   0  0  0  0  0  0  0  0  0  0  0  0
   -0.2560   -1.2270   -1.0849 C   0  0  0  0  0  0  0  0  0  0  0  0
    0.1285   -0.0486   -0.8954 C   0  0  0  0  0  0  0  0  0  0  0  0
   -0.5900    1.1027   -0.6471 C   0  0  0  0  0  0  0  0  0  0  0  0
   -1.9695    0.7986   -0.6222 C   0  0  0  0  0  0  0  0  0  0  0  0
   -2.4343   -0.5172   -0.8318 C   0  0  0  0  0  0  0  0  0  0  0  0
   -1.9803   -2.6259   -1.2368 H   0  0  0  0  0  0  0  0  0  0  0  0
   -0.2044    2.1074   -0.4888 H   0  0  0  0  0  0  0  0  0  0  0  0
   -2.6908    1.5940   -0.4378 H   0  0  0  0  0  0  0  0  0  0  0  0
    2.5302    0.8774   -0.8679 N   0  0  0  0  0  0  0  0  0  0  0  0
    3.5254    0.4192   -1.0096 N   0  0  0  0  0  0  0  0  0  0  0  0
   -4.3312   -0.8284   -0.7784 Br  0  0  0  0  0  0  0  0  0  0  0  0
  1  6  1  0  0  0  0
  2  1  2  0  0  0  0
  2  3  1  0  0  0  0
  3  4  2  0  0  0  0
  4  5  1  0  0  0  0
  4  8  1  0  0  0  0
  5  9  1  0  0  0  0
  6 12  1  0  0  0  0
  6  5  2  0  0  0  0
  7  1  1  0  0  0  0
 11 10  3  0  0  0  0
M  RAD  2   2   2   3   2
M  END
