Coordinates from ORCA-job 4-Br-C6H3-N2-B3LYPG-aug-cc-pVDZ-scan-d09-49-n400
 OpenBabel11091809103D

 12 11  0  0  0  0  0  0  0  0999 V2000
   -1.8881   -1.7347   -1.0819 C   0  0  0  0  0  0  0  0  0  0  0  0
   -0.5246   -1.4810   -1.1149 C   0  0  0  0  0  0  0  0  0  0  0  0
    0.0316   -0.3713   -0.9476 C   0  0  0  0  0  0  0  0  0  0  0  0
   -0.5564    0.8573   -0.6931 C   0  0  0  0  0  0  0  0  0  0  0  0
   -1.9609    0.7183   -0.6372 C   0  0  0  0  0  0  0  0  0  0  0  0
   -2.5862   -0.5326   -0.8258 C   0  0  0  0  0  0  0  0  0  0  0  0
   -2.3938   -2.6867   -1.2238 H   0  0  0  0  0  0  0  0  0  0  0  0
   -0.0601    1.8146   -0.5497 H   0  0  0  0  0  0  0  0  0  0  0  0
   -2.5785    1.5949   -0.4442 H   0  0  0  0  0  0  0  0  0  0  0  0
    3.0952    1.4872   -0.7912 N   0  0  0  0  0  0  0  0  0  0  0  0
    4.0634    0.9780   -0.9405 N   0  0  0  0  0  0  0  0  0  0  0  0
   -4.5043   -0.6146   -0.7301 Br  0  0  0  0  0  0  0  0  0  0  0  0
  1  6  1  0  0  0  0
  2  1  2  0  0  0  0
  2  3  1  0  0  0  0
  3  4  2  0  0  0  0
  4  5  1  0  0  0  0
  4  8  1  0  0  0  0
  5  9  1  0  0  0  0
  6 12  1  0  0  0  0
  6  5  2  0  0  0  0
  7  1  1  0  0  0  0
 11 10  3  0  0  0  0
M  RAD  2   2   2   3   2
M  END
