Coordinates from ORCA-job 4-Br-C6H3-N2-B3LYPG-aug-cc-pVDZ-scan-d09-49-n400
 OpenBabel11091809103D

 12 11  0  0  0  0  0  0  0  0999 V2000
   -2.2888   -1.8372   -1.0770 C   0  0  0  0  0  0  0  0  0  0  0  0
   -0.9051   -1.8664   -1.1616 C   0  0  0  0  0  0  0  0  0  0  0  0
   -0.1222   -0.8973   -1.0326 C   0  0  0  0  0  0  0  0  0  0  0  0
   -0.4390    0.4291   -0.7765 C   0  0  0  0  0  0  0  0  0  0  0  0
   -1.8388    0.5811   -0.6689 C   0  0  0  0  0  0  0  0  0  0  0  0
   -2.7150   -0.5153   -0.8154 C   0  0  0  0  0  0  0  0  0  0  0  0
   -2.9831   -2.6667   -1.1860 H   0  0  0  0  0  0  0  0  0  0  0  0
    0.2451    1.2678   -0.6653 H   0  0  0  0  0  0  0  0  0  0  0  0
   -2.2555    1.5676   -0.4680 H   0  0  0  0  0  0  0  0  0  0  0  0
    3.4780    2.1663   -0.6920 N   0  0  0  0  0  0  0  0  0  0  0  0
    4.5656    2.0000   -0.7862 N   0  0  0  0  0  0  0  0  0  0  0  0
   -4.6038   -0.1994   -0.6503 Br  0  0  0  0  0  0  0  0  0  0  0  0
  1  6  1  0  0  0  0
  2  1  2  0  0  0  0
  2  3  1  0  0  0  0
  3  4  2  0  0  0  0
  4  5  1  0  0  0  0
  4  8  1  0  0  0  0
  5  9  1  0  0  0  0
  6  5  2  0  0  0  0
  6 12  1  0  0  0  0
  7  1  1  0  0  0  0
 11 10  3  0  0  0  0
M  RAD  2   2   2   3   2
M  END
