Coordinates from ORCA-job 4-Br-C6H3-N2-B3LYPG-aug-cc-pVDZ-scan-d09-49-n400
 OpenBabel11091809103D

 12 11  0  0  0  0  0  0  0  0999 V2000
   -1.8708   -1.7289   -1.0819 C   0  0  0  0  0  0  0  0  0  0  0  0
   -0.5095   -1.4641   -1.1127 C   0  0  0  0  0  0  0  0  0  0  0  0
    0.0382   -0.3503   -0.9442 C   0  0  0  0  0  0  0  0  0  0  0  0
   -0.5603    0.8733   -0.6900 C   0  0  0  0  0  0  0  0  0  0  0  0
   -1.9638    0.7232   -0.6361 C   0  0  0  0  0  0  0  0  0  0  0  0
   -2.5789   -0.5325   -0.8262 C   0  0  0  0  0  0  0  0  0  0  0  0
   -2.3687   -2.6849   -1.2249 H   0  0  0  0  0  0  0  0  0  0  0  0
   -0.0713    1.8341   -0.5456 H   0  0  0  0  0  0  0  0  0  0  0  0
   -2.5885    1.5948   -0.4436 H   0  0  0  0  0  0  0  0  0  0  0  0
    3.0733    1.4588   -0.7952 N   0  0  0  0  0  0  0  0  0  0  0  0
    4.0339    0.9358   -0.9462 N   0  0  0  0  0  0  0  0  0  0  0  0
   -4.4963   -0.6298   -0.7333 Br  0  0  0  0  0  0  0  0  0  0  0  0
  1  6  1  0  0  0  0
  2  1  2  0  0  0  0
  2  3  1  0  0  0  0
  3  4  2  0  0  0  0
  4  5  1  0  0  0  0
  4  8  1  0  0  0  0
  5  9  1  0  0  0  0
  6 12  1  0  0  0  0
  6  5  2  0  0  0  0
  7  1  1  0  0  0  0
 11 10  3  0  0  0  0
M  RAD  2   2   2   3   2
M  END
