Coordinates from ORCA-job 4-Br-C6H3-N2-B3LYPG-aug-cc-pVDZ-scan-d09-49-n400
 OpenBabel11091809103D

 12 11  0  0  0  0  0  0  0  0999 V2000
   -2.1006   -1.7979   -1.0809 C   0  0  0  0  0  0  0  0  0  0  0  0
   -0.7190   -1.6864   -1.1403 C   0  0  0  0  0  0  0  0  0  0  0  0
   -0.0490   -0.6388   -0.9909 C   0  0  0  0  0  0  0  0  0  0  0  0
   -0.5017    0.6461   -0.7342 C   0  0  0  0  0  0  0  0  0  0  0  0
   -1.9119    0.6516   -0.6520 C   0  0  0  0  0  0  0  0  0  0  0  0
   -2.6662   -0.5291   -0.8206 C   0  0  0  0  0  0  0  0  0  0  0  0
   -2.7042   -2.6934   -1.2068 H   0  0  0  0  0  0  0  0  0  0  0  0
    0.0924    1.5484   -0.6064 H   0  0  0  0  0  0  0  0  0  0  0  0
   -2.4325    1.5879   -0.4540 H   0  0  0  0  0  0  0  0  0  0  0  0
    3.3349    1.8505   -0.7412 N   0  0  0  0  0  0  0  0  0  0  0  0
    4.3756    1.5025   -0.8633 N   0  0  0  0  0  0  0  0  0  0  0  0
   -4.5804   -0.4118   -0.6893 Br  0  0  0  0  0  0  0  0  0  0  0  0
  1  6  1  0  0  0  0
  2  1  2  0  0  0  0
  2  3  1  0  0  0  0
  3  4  2  0  0  0  0
  4  5  1  0  0  0  0
  4  8  1  0  0  0  0
  5  9  1  0  0  0  0
  6 12  1  0  0  0  0
  6  5  2  0  0  0  0
  7  1  1  0  0  0  0
 11 10  3  0  0  0  0
M  RAD  2   2   2   3   2
M  END
