Coordinates from ORCA-job 4-Br-C6H3-N2-B3LYPG-aug-cc-pVDZ-scan-d09-49-n400
 OpenBabel11091809103D

 12 11  0  0  0  0  0  0  0  0999 V2000
   -1.6925   -1.6626   -1.0804 C   0  0  0  0  0  0  0  0  0  0  0  0
   -0.3520   -1.3010   -1.0928 C   0  0  0  0  0  0  0  0  0  0  0  0
    0.1001   -0.1469   -0.9115 C   0  0  0  0  0  0  0  0  0  0  0  0
   -0.5885    1.0272   -0.6608 C   0  0  0  0  0  0  0  0  0  0  0  0
   -1.9770    0.7730   -0.6264 C   0  0  0  0  0  0  0  0  0  0  0  0
   -2.4925   -0.5249   -0.8298 C   0  0  0  0  0  0  0  0  0  0  0  0
   -2.1163   -2.6523   -1.2337 H   0  0  0  0  0  0  0  0  0  0  0  0
   -0.1673    2.0182   -0.5071 H   0  0  0  0  0  0  0  0  0  0  0  0
   -2.6680    1.5942   -0.4390 H   0  0  0  0  0  0  0  0  0  0  0  0
    2.7491    1.0680   -0.8465 N   0  0  0  0  0  0  0  0  0  0  0  0
    3.7408    0.6034   -0.9887 N   0  0  0  0  0  0  0  0  0  0  0  0
   -4.3985   -0.7668   -0.7633 Br  0  0  0  0  0  0  0  0  0  0  0  0
  1  6  1  0  0  0  0
  2  1  2  0  0  0  0
  2  3  1  0  0  0  0
  3  4  2  0  0  0  0
  4  5  1  0  0  0  0
  4  8  1  0  0  0  0
  5  9  1  0  0  0  0
  6 12  1  0  0  0  0
  6  5  2  0  0  0  0
  7  1  1  0  0  0  0
 11 10  3  0  0  0  0
M  RAD  2   2   2   3   2
M  END
