Coordinates from ORCA-job 4-Br-C6H3-N2-B3LYPG-aug-cc-pVDZ-scan-d09-49-n400
 OpenBabel11091809103D

 12 11  0  0  0  0  0  0  0  0999 V2000
   -2.1691   -1.8143   -1.0798 C   0  0  0  0  0  0  0  0  0  0  0  0
   -0.7855   -1.7506   -1.1481 C   0  0  0  0  0  0  0  0  0  0  0  0
   -0.0724   -0.7307   -1.0061 C   0  0  0  0  0  0  0  0  0  0  0  0
   -0.4798    0.5701   -0.7492 C   0  0  0  0  0  0  0  0  0  0  0  0
   -1.8880    0.6272   -0.6578 C   0  0  0  0  0  0  0  0  0  0  0  0
   -2.6864   -0.5252   -0.8186 C   0  0  0  0  0  0  0  0  0  0  0  0
   -2.8049   -2.6880   -1.2000 H   0  0  0  0  0  0  0  0  0  0  0  0
    0.1457    1.4518   -0.6270 H   0  0  0  0  0  0  0  0  0  0  0  0
   -2.3726    1.5824   -0.4585 H   0  0  0  0  0  0  0  0  0  0  0  0
    3.3919    1.9652   -0.7241 N   0  0  0  0  0  0  0  0  0  0  0  0
    4.4525    1.6793   -0.8357 N   0  0  0  0  0  0  0  0  0  0  0  0
   -4.5940   -0.3379   -0.6751 Br  0  0  0  0  0  0  0  0  0  0  0  0
  1  6  1  0  0  0  0
  2  1  2  0  0  0  0
  2  3  1  0  0  0  0
  3  4  2  0  0  0  0
  4  5  1  0  0  0  0
  4  8  1  0  0  0  0
  5  9  1  0  0  0  0
  6 12  1  0  0  0  0
  6  5  2  0  0  0  0
  7  1  1  0  0  0  0
 11 10  3  0  0  0  0
M  RAD  2   2   2   3   2
M  END
