Coordinates from ORCA-job 4-Br-C6H3-N2-B3LYPG-aug-cc-pVDZ-scan-d09-49-n400
 OpenBabel11091809103D

 12 11  0  0  0  0  0  0  0  0999 V2000
   -2.0695   -1.7897   -1.0812 C   0  0  0  0  0  0  0  0  0  0  0  0
   -0.6897   -1.6561   -1.1365 C   0  0  0  0  0  0  0  0  0  0  0  0
   -0.0371   -0.5980   -0.9841 C   0  0  0  0  0  0  0  0  0  0  0  0
   -0.5110    0.6792   -0.7276 C   0  0  0  0  0  0  0  0  0  0  0  0
   -1.9213    0.6621   -0.6496 C   0  0  0  0  0  0  0  0  0  0  0  0
   -2.6561   -0.5304   -0.8214 C   0  0  0  0  0  0  0  0  0  0  0  0
   -2.6583   -2.6947   -1.2098 H   0  0  0  0  0  0  0  0  0  0  0  0
    0.0684    1.5906   -0.5973 H   0  0  0  0  0  0  0  0  0  0  0  0
   -2.4575    1.5898   -0.4523 H   0  0  0  0  0  0  0  0  0  0  0  0
    3.3051    1.7963   -0.7487 N   0  0  0  0  0  0  0  0  0  0  0  0
    4.3369    1.4244   -0.8758 N   0  0  0  0  0  0  0  0  0  0  0  0
   -4.5723   -0.4439   -0.6958 Br  0  0  0  0  0  0  0  0  0  0  0  0
  1  6  1  0  0  0  0
  2  1  2  0  0  0  0
  2  3  1  0  0  0  0
  3  4  2  0  0  0  0
  4  5  1  0  0  0  0
  4  8  1  0  0  0  0
  5  9  1  0  0  0  0
  6 12  1  0  0  0  0
  6  5  2  0  0  0  0
  7  1  1  0  0  0  0
 11 10  3  0  0  0  0
M  RAD  2   2   2   3   2
M  END
