Coordinates from ORCA-job 4-Br-C6H3-N2-B3LYPG-aug-cc-pVDZ-scan-d09-49-n400
 OpenBabel11091809103D

 12 11  0  0  0  0  0  0  0  0999 V2000
   -1.4392   -1.5544   -1.0757 C   0  0  0  0  0  0  0  0  0  0  0  0
   -0.0960   -1.1563   -1.0819 C   0  0  0  0  0  0  0  0  0  0  0  0
    0.1914    0.0634   -0.8793 C   0  0  0  0  0  0  0  0  0  0  0  0
   -0.5751    1.1812   -0.6341 C   0  0  0  0  0  0  0  0  0  0  0  0
   -1.9389    0.8356   -0.6173 C   0  0  0  0  0  0  0  0  0  0  0  0
   -2.3395   -0.4995   -0.8341 C   0  0  0  0  0  0  0  0  0  0  0  0
   -1.7942   -2.5716   -1.2380 H   0  0  0  0  0  0  0  0  0  0  0  0
   -0.2120    2.1953   -0.4728 H   0  0  0  0  0  0  0  0  0  0  0  0
   -2.6902    1.6024   -0.4360 H   0  0  0  0  0  0  0  0  0  0  0  0
    2.1220    0.6326   -0.8887 N   0  0  0  0  0  0  0  0  0  0  0  0
    3.1317    0.1962   -1.0258 N   0  0  0  0  0  0  0  0  0  0  0  0
   -4.2225   -0.8954   -0.7963 Br  0  0  0  0  0  0  0  0  0  0  0  0
  1  6  1  0  0  0  0
  2  1  2  0  0  0  0
  2  3  1  0  0  0  0
  3  4  2  0  0  0  0
  4  5  1  0  0  0  0
  4  8  1  0  0  0  0
  5  9  1  0  0  0  0
  6 12  1  0  0  0  0
  6  5  2  0  0  0  0
  7  1  1  0  0  0  0
 11 10  3  0  0  0  0
M  RAD  2   2   2   3   2
M  END
