Coordinates from ORCA-job 4-Br-C6H3-N2-B3LYPG-aug-cc-pVDZ-scan-d09-49-n400
 OpenBabel11091809103D

 12 11  0  0  0  0  0  0  0  0999 V2000
   -1.7838   -1.6974   -1.0813 C   0  0  0  0  0  0  0  0  0  0  0  0
   -0.4333   -1.3803   -1.1022 C   0  0  0  0  0  0  0  0  0  0  0  0
    0.0695   -0.2465   -0.9275 C   0  0  0  0  0  0  0  0  0  0  0  0
   -0.5788    0.9518   -0.6749 C   0  0  0  0  0  0  0  0  0  0  0  0
   -1.9754    0.7482   -0.6310 C   0  0  0  0  0  0  0  0  0  0  0  0
   -2.5397   -0.5302   -0.8281 C   0  0  0  0  0  0  0  0  0  0  0  0
   -2.2432   -2.6716   -1.2298 H   0  0  0  0  0  0  0  0  0  0  0  0
   -0.1232    1.9281   -0.5258 H   0  0  0  0  0  0  0  0  0  0  0  0
   -2.6347    1.5945   -0.4409 H   0  0  0  0  0  0  0  0  0  0  0  0
    2.9342    1.2760   -0.8197 N   0  0  0  0  0  0  0  0  0  0  0  0
    3.8984    0.7593   -0.9701 N   0  0  0  0  0  0  0  0  0  0  0  0
   -4.4525   -0.7024   -0.7487 Br  0  0  0  0  0  0  0  0  0  0  0  0
  1  6  1  0  0  0  0
  2  1  2  0  0  0  0
  2  3  1  0  0  0  0
  3  4  2  0  0  0  0
  4  5  1  0  0  0  0
  4  8  1  0  0  0  0
  5  9  1  0  0  0  0
  6 12  1  0  0  0  0
  6  5  2  0  0  0  0
  7  1  1  0  0  0  0
 11 10  3  0  0  0  0
M  RAD  2   2   2   3   2
M  END
