Coordinates from ORCA-job 4-Br-C6H3-N2-B3LYPG-aug-cc-pVDZ-scan-d09-49-n400
 OpenBabel11091809103D

 12 12  0  0  0  0  0  0  0  0999 V2000
   -1.3616   -1.5122   -1.0727 C   0  0  0  0  0  0  0  0  0  0  0  0
    0.0463   -1.3367   -1.1228 C   0  0  0  0  0  0  0  0  0  0  0  0
    0.4178    0.0628   -0.8937 C   0  0  0  0  0  0  0  0  0  0  0  0
   -0.5060    1.1472   -0.6445 C   0  0  0  0  0  0  0  0  0  0  0  0
   -1.8450    0.8658   -0.6173 C   0  0  0  0  0  0  0  0  0  0  0  0
   -2.2549   -0.4764   -0.8348 C   0  0  0  0  0  0  0  0  0  0  0  0
   -1.7637   -2.5161   -1.2297 H   0  0  0  0  0  0  0  0  0  0  0  0
   -0.1354    2.1615   -0.4834 H   0  0  0  0  0  0  0  0  0  0  0  0
   -2.5792    1.6468   -0.4341 H   0  0  0  0  0  0  0  0  0  0  0  0
    1.5734    0.3038   -0.9162 N   0  0  0  0  0  0  0  0  0  0  0  0
    2.6859    0.5099   -0.9424 N   0  0  0  0  0  0  0  0  0  0  0  0
   -4.1403   -0.8269   -0.7883 Br  0  0  0  0  0  0  0  0  0  0  0  0
  1  6  1  0  0  0  0
  2  1  2  0  0  0  0
  2  3  1  0  0  0  0
  3  4  2  0  0  0  0
  4  5  1  0  0  0  0
  4  8  1  0  0  0  0
  5  9  1  0  0  0  0
  6 12  1  0  0  0  0
  6  5  2  0  0  0  0
  7  1  1  0  0  0  0
 10  3  1  0  0  0  0
 11 10  1  0  0  0  0
M  RAD  3   2   2  10   2  11   3
M  END
