Coordinates from ORCA-job 4-Br-C6H3-N2-B3LYPG-aug-cc-pVDZ-scan-d09-49-n400
 OpenBabel11091809103D

 12 11  0  0  0  0  0  0  0  0999 V2000
   -1.7531   -1.6860   -1.0811 C   0  0  0  0  0  0  0  0  0  0  0  0
   -0.4062   -1.3529   -1.0989 C   0  0  0  0  0  0  0  0  0  0  0  0
    0.0802   -0.2123   -0.9221 C   0  0  0  0  0  0  0  0  0  0  0  0
   -0.5825    0.9779   -0.6701 C   0  0  0  0  0  0  0  0  0  0  0  0
   -1.9765    0.7566   -0.6294 C   0  0  0  0  0  0  0  0  0  0  0  0
   -2.5243   -0.5287   -0.8287 C   0  0  0  0  0  0  0  0  0  0  0  0
   -2.2001   -2.6657   -1.2312 H   0  0  0  0  0  0  0  0  0  0  0  0
   -0.1387    1.9593   -0.5194 H   0  0  0  0  0  0  0  0  0  0  0  0
   -2.6469    1.5943   -0.4402 H   0  0  0  0  0  0  0  0  0  0  0  0
    2.8744    1.2075   -0.8285 N   0  0  0  0  0  0  0  0  0  0  0  0
    3.8460    0.7043   -0.9769 N   0  0  0  0  0  0  0  0  0  0  0  0
   -4.4350   -0.7248   -0.7537 Br  0  0  0  0  0  0  0  0  0  0  0  0
  1  6  1  0  0  0  0
  2  1  2  0  0  0  0
  2  3  1  0  0  0  0
  3  4  2  0  0  0  0
  4  5  1  0  0  0  0
  4  8  1  0  0  0  0
  5  9  1  0  0  0  0
  6 12  1  0  0  0  0
  6  5  2  0  0  0  0
  7  1  1  0  0  0  0
 11 10  3  0  0  0  0
M  RAD  2   2   2   3   2
M  END
