Coordinates from ORCA-job 4-Br-C6H3-N2-B3LYPG-aug-cc-pVDZ-scan-d09-49-n400
 OpenBabel11091809103D

 12 11  0  0  0  0  0  0  0  0999 V2000
   -1.4590   -1.5648   -1.0764 C   0  0  0  0  0  0  0  0  0  0  0  0
   -0.1212   -1.1567   -1.0802 C   0  0  0  0  0  0  0  0  0  0  0  0
    0.1807    0.0543   -0.8800 C   0  0  0  0  0  0  0  0  0  0  0  0
   -0.5803    1.1757   -0.6345 C   0  0  0  0  0  0  0  0  0  0  0  0
   -1.9457    0.8303   -0.6179 C   0  0  0  0  0  0  0  0  0  0  0  0
   -2.3531   -0.5031   -0.8340 C   0  0  0  0  0  0  0  0  0  0  0  0
   -1.8154   -2.5811   -1.2384 H   0  0  0  0  0  0  0  0  0  0  0  0
   -0.2173    2.1896   -0.4733 H   0  0  0  0  0  0  0  0  0  0  0  0
   -2.6953    1.5991   -0.4365 H   0  0  0  0  0  0  0  0  0  0  0  0
    2.1920    0.6685   -0.8859 N   0  0  0  0  0  0  0  0  0  0  0  0
    3.1894    0.2085   -1.0279 N   0  0  0  0  0  0  0  0  0  0  0  0
   -4.2373   -0.8908   -0.7950 Br  0  0  0  0  0  0  0  0  0  0  0  0
  1  6  1  0  0  0  0
  2  1  2  0  0  0  0
  2  3  1  0  0  0  0
  3  4  2  0  0  0  0
  4  5  1  0  0  0  0
  4  8  1  0  0  0  0
  5  9  1  0  0  0  0
  6 12  1  0  0  0  0
  6  5  2  0  0  0  0
  7  1  1  0  0  0  0
 11 10  3  0  0  0  0
M  RAD  2   2   2   3   2
M  END
