Coordinates from ORCA-job 4-Br-C6H3-N2-B3LYPG-aug-cc-pVDZ-scan-d09-49-n400
 OpenBabel11091809103D

 12 11  0  0  0  0  0  0  0  0999 V2000
   -2.2748   -1.8350   -1.0774 C   0  0  0  0  0  0  0  0  0  0  0  0
   -0.8908   -1.8529   -1.1600 C   0  0  0  0  0  0  0  0  0  0  0  0
   -0.1161   -0.8775   -1.0295 C   0  0  0  0  0  0  0  0  0  0  0  0
   -0.4439    0.4461   -0.7732 C   0  0  0  0  0  0  0  0  0  0  0  0
   -1.8450    0.5868   -0.6676 C   0  0  0  0  0  0  0  0  0  0  0  0
   -2.7121   -0.5167   -0.8158 C   0  0  0  0  0  0  0  0  0  0  0  0
   -2.9623   -2.6699   -1.1878 H   0  0  0  0  0  0  0  0  0  0  0  0
    0.2333    1.2902   -0.6607 H   0  0  0  0  0  0  0  0  0  0  0  0
   -2.2700    1.5697   -0.4668 H   0  0  0  0  0  0  0  0  0  0  0  0
    3.4689    2.1428   -0.6959 N   0  0  0  0  0  0  0  0  0  0  0  0
    4.5539    1.9621   -0.7922 N   0  0  0  0  0  0  0  0  0  0  0  0
   -4.6036   -0.2162   -0.6533 Br  0  0  0  0  0  0  0  0  0  0  0  0
  1  6  1  0  0  0  0
  2  1  2  0  0  0  0
  2  3  1  0  0  0  0
  3  4  2  0  0  0  0
  4  5  1  0  0  0  0
  4  8  1  0  0  0  0
  5  9  1  0  0  0  0
  6  5  2  0  0  0  0
  6 12  1  0  0  0  0
  7  1  1  0  0  0  0
 11 10  3  0  0  0  0
M  RAD  2   2   2   3   2
M  END
