Coordinates from ORCA-job 4-Br-C6H3-N2-B3LYPG-aug-cc-pVDZ-scan-d09-49-n400
 OpenBabel11091809103D

 12 12  0  0  0  0  0  0  0  0999 V2000
   -1.3591   -1.5105   -1.0725 C   0  0  0  0  0  0  0  0  0  0  0  0
    0.0481   -1.3430   -1.1243 C   0  0  0  0  0  0  0  0  0  0  0  0
    0.4392    0.0690   -0.8944 C   0  0  0  0  0  0  0  0  0  0  0  0
   -0.5034    1.1449   -0.6453 C   0  0  0  0  0  0  0  0  0  0  0  0
   -1.8408    0.8655   -0.6176 C   0  0  0  0  0  0  0  0  0  0  0  0
   -2.2532   -0.4759   -0.8348 C   0  0  0  0  0  0  0  0  0  0  0  0
   -1.7600   -2.5148   -1.2296 H   0  0  0  0  0  0  0  0  0  0  0  0
   -0.1316    2.1590   -0.4842 H   0  0  0  0  0  0  0  0  0  0  0  0
   -2.5731    1.6482   -0.4341 H   0  0  0  0  0  0  0  0  0  0  0  0
    1.5452    0.3024   -0.9148 N   0  0  0  0  0  0  0  0  0  0  0  0
    2.6627    0.5100   -0.9404 N   0  0  0  0  0  0  0  0  0  0  0  0
   -4.1367   -0.8253   -0.7880 Br  0  0  0  0  0  0  0  0  0  0  0  0
  1  6  1  0  0  0  0
  2  1  2  0  0  0  0
  2  3  1  0  0  0  0
  3  4  2  0  0  0  0
  4  5  1  0  0  0  0
  4  8  1  0  0  0  0
  5  9  1  0  0  0  0
  6 12  1  0  0  0  0
  6  5  2  0  0  0  0
  7  1  1  0  0  0  0
 10  3  1  0  0  0  0
 11 10  1  0  0  0  0
M  RAD  3   2   2  10   2  11   3
M  END
