Coordinates from ORCA-job 4-Br-C6H3-N2-B3LYPG-aug-cc-pVDZ-scan-d09-49-n400
 OpenBabel11091809103D

 12 11  0  0  0  0  0  0  0  0999 V2000
   -2.1655   -1.8135   -1.0799 C   0  0  0  0  0  0  0  0  0  0  0  0
   -0.7820   -1.7471   -1.1477 C   0  0  0  0  0  0  0  0  0  0  0  0
   -0.0711   -0.7259   -1.0054 C   0  0  0  0  0  0  0  0  0  0  0  0
   -0.4810    0.5741   -0.7484 C   0  0  0  0  0  0  0  0  0  0  0  0
   -1.8893    0.6285   -0.6575 C   0  0  0  0  0  0  0  0  0  0  0  0
   -2.6854   -0.5254   -0.8187 C   0  0  0  0  0  0  0  0  0  0  0  0
   -2.7996   -2.6884   -1.2003 H   0  0  0  0  0  0  0  0  0  0  0  0
    0.1428    1.4570   -0.6259 H   0  0  0  0  0  0  0  0  0  0  0  0
   -2.3758    1.5828   -0.4582 H   0  0  0  0  0  0  0  0  0  0  0  0
    3.3890    1.9593   -0.7251 N   0  0  0  0  0  0  0  0  0  0  0  0
    4.4487    1.6699   -0.8371 N   0  0  0  0  0  0  0  0  0  0  0  0
   -4.5934   -0.3418   -0.6759 Br  0  0  0  0  0  0  0  0  0  0  0  0
  1  6  1  0  0  0  0
  2  1  2  0  0  0  0
  2  3  1  0  0  0  0
  3  4  2  0  0  0  0
  4  5  1  0  0  0  0
  4  8  1  0  0  0  0
  5  9  1  0  0  0  0
  6 12  1  0  0  0  0
  6  5  2  0  0  0  0
  7  1  1  0  0  0  0
 11 10  3  0  0  0  0
M  RAD  2   2   2   3   2
M  END
