Coordinates from ORCA-job 4-Br-C6H3-N2-B3LYPG-aug-cc-pVDZ-scan-d09-49-n400
 OpenBabel11091809103D

 12 11  0  0  0  0  0  0  0  0999 V2000
   -1.4659   -1.5682   -1.0765 C   0  0  0  0  0  0  0  0  0  0  0  0
   -0.1296   -1.1576   -1.0798 C   0  0  0  0  0  0  0  0  0  0  0  0
    0.1773    0.0508   -0.8803 C   0  0  0  0  0  0  0  0  0  0  0  0
   -0.5821    1.1735   -0.6348 C   0  0  0  0  0  0  0  0  0  0  0  0
   -1.9481    0.8286   -0.6181 C   0  0  0  0  0  0  0  0  0  0  0  0
   -2.3578   -0.5042   -0.8340 C   0  0  0  0  0  0  0  0  0  0  0  0
   -1.8229   -2.5841   -1.2385 H   0  0  0  0  0  0  0  0  0  0  0  0
   -0.2190    2.1872   -0.4736 H   0  0  0  0  0  0  0  0  0  0  0  0
   -2.6969    1.5982   -0.4367 H   0  0  0  0  0  0  0  0  0  0  0  0
    2.2154    0.6803   -0.8850 N   0  0  0  0  0  0  0  0  0  0  0  0
    3.2094    0.2141   -1.0282 N   0  0  0  0  0  0  0  0  0  0  0  0
   -4.2425   -0.8890   -0.7945 Br  0  0  0  0  0  0  0  0  0  0  0  0
  1  6  1  0  0  0  0
  2  1  2  0  0  0  0
  2  3  1  0  0  0  0
  3  4  2  0  0  0  0
  4  5  1  0  0  0  0
  4  8  1  0  0  0  0
  5  9  1  0  0  0  0
  6 12  1  0  0  0  0
  6  5  2  0  0  0  0
  7  1  1  0  0  0  0
 11 10  3  0  0  0  0
M  RAD  2   2   2   3   2
M  END
