Coordinates from ORCA-job 4-Br-C6H3-N2-B3LYPG-aug-cc-pVDZ-scan-d09-49-n400
 OpenBabel11091809103D

 12 12  0  0  0  0  0  0  0  0999 V2000
   -1.4032   -1.5346   -1.0744 C   0  0  0  0  0  0  0  0  0  0  0  0
   -0.0480   -1.1634   -1.0864 C   0  0  0  0  0  0  0  0  0  0  0  0
    0.2186    0.0773   -0.8787 C   0  0  0  0  0  0  0  0  0  0  0  0
   -0.5649    1.1872   -0.6338 C   0  0  0  0  0  0  0  0  0  0  0  0
   -1.9251    0.8459   -0.6162 C   0  0  0  0  0  0  0  0  0  0  0  0
   -2.3141   -0.4920   -0.8341 C   0  0  0  0  0  0  0  0  0  0  0  0
   -1.7592   -2.5523   -1.2367 H   0  0  0  0  0  0  0  0  0  0  0  0
   -0.2012    2.2019   -0.4725 H   0  0  0  0  0  0  0  0  0  0  0  0
   -2.6787    1.6099   -0.4351 H   0  0  0  0  0  0  0  0  0  0  0  0
    1.9853    0.5632   -0.8937 N   0  0  0  0  0  0  0  0  0  0  0  0
    3.0234    0.1869   -1.0201 N   0  0  0  0  0  0  0  0  0  0  0  0
   -4.1955   -0.9003   -0.7983 Br  0  0  0  0  0  0  0  0  0  0  0  0
  1  6  1  0  0  0  0
  2  1  2  0  0  0  0
  2  3  1  0  0  0  0
  3  4  2  0  0  0  0
  4  5  1  0  0  0  0
  4  8  1  0  0  0  0
  5  9  1  0  0  0  0
  6 12  1  0  0  0  0
  6  5  2  0  0  0  0
  7  1  1  0  0  0  0
 10  3  1  0  0  0  0
 11 10  2  0  0  0  0
M  RAD  2   2   2  11   2
M  END
