Coordinates from ORCA-job 4-Br-C6H3-N2-B3LYPG-aug-cc-pVDZ-scan-d09-49-n400
 OpenBabel11091809103D

 12 11  0  0  0  0  0  0  0  0999 V2000
   -1.8500   -1.7217   -1.0818 C   0  0  0  0  0  0  0  0  0  0  0  0
   -0.4915   -1.4432   -1.1100 C   0  0  0  0  0  0  0  0  0  0  0  0
    0.0464   -0.3249   -0.9401 C   0  0  0  0  0  0  0  0  0  0  0  0
   -0.5658    0.8924   -0.6862 C   0  0  0  0  0  0  0  0  0  0  0  0
   -1.9676    0.7292   -0.6348 C   0  0  0  0  0  0  0  0  0  0  0  0
   -2.5701   -0.5324   -0.8267 C   0  0  0  0  0  0  0  0  0  0  0  0
   -2.3382   -2.6824   -1.2263 H   0  0  0  0  0  0  0  0  0  0  0  0
   -0.0831    1.8563   -0.5409 H   0  0  0  0  0  0  0  0  0  0  0  0
   -2.6009    1.5947   -0.4429 H   0  0  0  0  0  0  0  0  0  0  0  0
    3.0471    1.4248   -0.7997 N   0  0  0  0  0  0  0  0  0  0  0  0
    3.9979    0.8850   -0.9533 N   0  0  0  0  0  0  0  0  0  0  0  0
   -4.4867   -0.6484   -0.7372 Br  0  0  0  0  0  0  0  0  0  0  0  0
  1  6  1  0  0  0  0
  2  1  2  0  0  0  0
  2  3  1  0  0  0  0
  3  4  2  0  0  0  0
  4  5  1  0  0  0  0
  4  8  1  0  0  0  0
  5  9  1  0  0  0  0
  6 12  1  0  0  0  0
  6  5  2  0  0  0  0
  7  1  1  0  0  0  0
 11 10  3  0  0  0  0
M  RAD  2   2   2   3   2
M  END
