Coordinates from ORCA-job 4-Br-C6H3-N2-B3LYPG-aug-cc-pVDZ-scan-d09-49-n400
 OpenBabel11091809103D

 12 11  0  0  0  0  0  0  0  0999 V2000
   -2.0453   -1.7831   -1.0814 C   0  0  0  0  0  0  0  0  0  0  0  0
   -0.6671   -1.6326   -1.1335 C   0  0  0  0  0  0  0  0  0  0  0  0
   -0.0281   -0.5666   -0.9788 C   0  0  0  0  0  0  0  0  0  0  0  0
   -0.5180    0.7045   -0.7225 C   0  0  0  0  0  0  0  0  0  0  0  0
   -1.9282    0.6700   -0.6478 C   0  0  0  0  0  0  0  0  0  0  0  0
   -2.6479   -0.5312   -0.8221 C   0  0  0  0  0  0  0  0  0  0  0  0
   -2.6228   -2.6951   -1.2120 H   0  0  0  0  0  0  0  0  0  0  0  0
    0.0501    1.6226   -0.5903 H   0  0  0  0  0  0  0  0  0  0  0  0
   -2.4761    1.5910   -0.4510 H   0  0  0  0  0  0  0  0  0  0  0  0
    3.2808    1.7542   -0.7545 N   0  0  0  0  0  0  0  0  0  0  0  0
    4.3054    1.3641   -0.8854 N   0  0  0  0  0  0  0  0  0  0  0  0
   -4.5653   -0.4683   -0.7008 Br  0  0  0  0  0  0  0  0  0  0  0  0
  1  6  1  0  0  0  0
  2  1  2  0  0  0  0
  2  3  1  0  0  0  0
  3  4  2  0  0  0  0
  4  5  1  0  0  0  0
  4  8  1  0  0  0  0
  5  9  1  0  0  0  0
  6 12  1  0  0  0  0
  6  5  2  0  0  0  0
  7  1  1  0  0  0  0
 11 10  3  0  0  0  0
M  RAD  2   2   2   3   2
M  END
