Coordinates from ORCA-job 4-Br-C6H3-N2-B3LYPG-aug-cc-pVDZ-scan-d09-49-n400
 OpenBabel11091809103D

 12 11  0  0  0  0  0  0  0  0999 V2000
   -2.3269   -1.8429   -1.0758 C   0  0  0  0  0  0  0  0  0  0  0  0
   -0.9446   -1.9031   -1.1658 C   0  0  0  0  0  0  0  0  0  0  0  0
   -0.1395   -0.9519   -1.0413 C   0  0  0  0  0  0  0  0  0  0  0  0
   -0.4255    0.3817   -0.7857 C   0  0  0  0  0  0  0  0  0  0  0  0
   -1.8211    0.5653   -0.6728 C   0  0  0  0  0  0  0  0  0  0  0  0
   -2.7223   -0.5114   -0.8143 C   0  0  0  0  0  0  0  0  0  0  0  0
   -3.0401   -2.6566   -1.1809 H   0  0  0  0  0  0  0  0  0  0  0  0
    0.2775    1.2051   -0.6783 H   0  0  0  0  0  0  0  0  0  0  0  0
   -2.2147    1.5611   -0.4716 H   0  0  0  0  0  0  0  0  0  0  0  0
    3.5021    2.2310   -0.6816 N   0  0  0  0  0  0  0  0  0  0  0  0
    4.5954    2.1042   -0.7696 N   0  0  0  0  0  0  0  0  0  0  0  0
   -4.6029   -0.1529   -0.6422 Br  0  0  0  0  0  0  0  0  0  0  0  0
  1  6  1  0  0  0  0
  2  1  2  0  0  0  0
  2  3  1  0  0  0  0
  3  4  2  0  0  0  0
  4  8  1  0  0  0  0
  4  5  1  0  0  0  0
  5  9  1  0  0  0  0
  6  5  2  0  0  0  0
  6 12  1  0  0  0  0
  7  1  1  0  0  0  0
 11 10  3  0  0  0  0
M  RAD  2   2   2   3   2
M  END
