Coordinates from ORCA-job 4-Br-C6H3-N2-B3LYPG-aug-cc-pVDZ-scan-d09-49-n400
 OpenBabel11091809103D

 12 11  0  0  0  0  0  0  0  0999 V2000
   -2.0730   -1.7907   -1.0812 C   0  0  0  0  0  0  0  0  0  0  0  0
   -0.6930   -1.6595   -1.1369 C   0  0  0  0  0  0  0  0  0  0  0  0
   -0.0385   -0.6025   -0.9848 C   0  0  0  0  0  0  0  0  0  0  0  0
   -0.5100    0.6756   -0.7283 C   0  0  0  0  0  0  0  0  0  0  0  0
   -1.9203    0.6609   -0.6499 C   0  0  0  0  0  0  0  0  0  0  0  0
   -2.6573   -0.5303   -0.8213 C   0  0  0  0  0  0  0  0  0  0  0  0
   -2.6634   -2.6946   -1.2095 H   0  0  0  0  0  0  0  0  0  0  0  0
    0.0711    1.5859   -0.5983 H   0  0  0  0  0  0  0  0  0  0  0  0
   -2.4548    1.5896   -0.4524 H   0  0  0  0  0  0  0  0  0  0  0  0
    3.3085    1.8023   -0.7479 N   0  0  0  0  0  0  0  0  0  0  0  0
    4.3413    1.4330   -0.8744 N   0  0  0  0  0  0  0  0  0  0  0  0
   -4.5733   -0.4404   -0.6951 Br  0  0  0  0  0  0  0  0  0  0  0  0
  1  6  1  0  0  0  0
  2  1  2  0  0  0  0
  2  3  1  0  0  0  0
  3  4  2  0  0  0  0
  4  5  1  0  0  0  0
  4  8  1  0  0  0  0
  5  9  1  0  0  0  0
  6 12  1  0  0  0  0
  6  5  2  0  0  0  0
  7  1  1  0  0  0  0
 11 10  3  0  0  0  0
M  RAD  2   2   2   3   2
M  END
