Coordinates from ORCA-job 4-Br-C6H3-N2-B3LYPG-aug-cc-pVDZ-scan-d09-49-n400
 OpenBabel11091809103D

 12 11  0  0  0  0  0  0  0  0999 V2000
   -1.6733   -1.6549   -1.0801 C   0  0  0  0  0  0  0  0  0  0  0  0
   -0.3339   -1.2865   -1.0912 C   0  0  0  0  0  0  0  0  0  0  0  0
    0.1048   -0.1274   -0.9083 C   0  0  0  0  0  0  0  0  0  0  0  0
   -0.5897    1.0424   -0.6580 C   0  0  0  0  0  0  0  0  0  0  0  0
   -1.9766    0.7782   -0.6255 C   0  0  0  0  0  0  0  0  0  0  0  0
   -2.4821   -0.5234   -0.8302 C   0  0  0  0  0  0  0  0  0  0  0  0
   -2.0905   -2.6473   -1.2343 H   0  0  0  0  0  0  0  0  0  0  0  0
   -0.1751    2.0359   -0.5035 H   0  0  0  0  0  0  0  0  0  0  0  0
   -2.6736    1.5944   -0.4386 H   0  0  0  0  0  0  0  0  0  0  0  0
    2.7066    1.0220   -0.8523 N   0  0  0  0  0  0  0  0  0  0  0  0
    3.7070    0.5752   -0.9918 N   0  0  0  0  0  0  0  0  0  0  0  0
   -4.3864   -0.7791   -0.7662 Br  0  0  0  0  0  0  0  0  0  0  0  0
  1  6  1  0  0  0  0
  2  1  2  0  0  0  0
  2  3  1  0  0  0  0
  3  4  2  0  0  0  0
  4  5  1  0  0  0  0
  4  8  1  0  0  0  0
  5  9  1  0  0  0  0
  6 12  1  0  0  0  0
  6  5  2  0  0  0  0
  7  1  1  0  0  0  0
 11 10  3  0  0  0  0
M  RAD  2   2   2   3   2
M  END
