Coordinates from ORCA-job 4-Br-C6H3-N2-B3LYPG-aug-cc-pVDZ-scan-d09-49-n400
 OpenBabel11091809103D

 12 11  0  0  0  0  0  0  0  0999 V2000
   -1.5208   -1.5938   -1.0779 C   0  0  0  0  0  0  0  0  0  0  0  0
   -0.1889   -1.1814   -1.0805 C   0  0  0  0  0  0  0  0  0  0  0  0
    0.1527    0.0121   -0.8858 C   0  0  0  0  0  0  0  0  0  0  0  0
   -0.5881    1.1472   -0.6392 C   0  0  0  0  0  0  0  0  0  0  0  0
   -1.9602    0.8151   -0.6198 C   0  0  0  0  0  0  0  0  0  0  0  0
   -2.3927   -0.5110   -0.8332 C   0  0  0  0  0  0  0  0  0  0  0  0
   -1.8898   -2.6050   -1.2383 H   0  0  0  0  0  0  0  0  0  0  0  0
   -0.2203    2.1586   -0.4786 H   0  0  0  0  0  0  0  0  0  0  0  0
   -2.6992    1.5943   -0.4373 H   0  0  0  0  0  0  0  0  0  0  0  0
    2.3707    0.7689   -0.8781 N   0  0  0  0  0  0  0  0  0  0  0  0
    3.3567    0.2902   -1.0233 N   0  0  0  0  0  0  0  0  0  0  0  0
   -4.2826   -0.8657   -0.7881 Br  0  0  0  0  0  0  0  0  0  0  0  0
  1  6  1  0  0  0  0
  2  1  2  0  0  0  0
  2  3  1  0  0  0  0
  3  4  2  0  0  0  0
  4  5  1  0  0  0  0
  4  8  1  0  0  0  0
  5  9  1  0  0  0  0
  6 12  1  0  0  0  0
  6  5  2  0  0  0  0
  7  1  1  0  0  0  0
 11 10  3  0  0  0  0
M  RAD  2   2   2   3   2
M  END
