Coordinates from ORCA-job 4-Br-C6H3-N2-B3LYPG-aug-cc-pVDZ-scan-d09-49-n400
 OpenBabel11091809103D

 12 11  0  0  0  0  0  0  0  0999 V2000
   -1.6558   -1.6485   -1.0800 C   0  0  0  0  0  0  0  0  0  0  0  0
   -0.3170   -1.2754   -1.0902 C   0  0  0  0  0  0  0  0  0  0  0  0
    0.1078   -0.1112   -0.9055 C   0  0  0  0  0  0  0  0  0  0  0  0
   -0.5886    1.0557   -0.6557 C   0  0  0  0  0  0  0  0  0  0  0  0
   -1.9745    0.7825   -0.6248 C   0  0  0  0  0  0  0  0  0  0  0  0
   -2.4718   -0.5220   -0.8305 C   0  0  0  0  0  0  0  0  0  0  0  0
   -2.0679   -2.6430   -1.2349 H   0  0  0  0  0  0  0  0  0  0  0  0
   -0.1829    2.0527   -0.5000 H   0  0  0  0  0  0  0  0  0  0  0  0
   -2.6767    1.5944   -0.4385 H   0  0  0  0  0  0  0  0  0  0  0  0
    2.6673    0.9847   -0.8568 N   0  0  0  0  0  0  0  0  0  0  0  0
    3.6724    0.5483   -0.9946 N   0  0  0  0  0  0  0  0  0  0  0  0
   -4.3749   -0.7886   -0.7686 Br  0  0  0  0  0  0  0  0  0  0  0  0
  1  6  1  0  0  0  0
  2  1  2  0  0  0  0
  2  3  1  0  0  0  0
  3  4  2  0  0  0  0
  4  5  1  0  0  0  0
  4  8  1  0  0  0  0
  5  9  1  0  0  0  0
  6 12  1  0  0  0  0
  6  5  2  0  0  0  0
  7  1  1  0  0  0  0
 11 10  3  0  0  0  0
M  RAD  2   2   2   3   2
M  END
