Coordinates from ORCA-job 4-Br-C6H3-N2-B3LYPG-aug-cc-pVDZ-scan-d09-49-n400
 OpenBabel11091809103D

 12 11  0  0  0  0  0  0  0  0999 V2000
   -2.0350   -1.7802   -1.0815 C   0  0  0  0  0  0  0  0  0  0  0  0
   -0.6575   -1.6225   -1.1322 C   0  0  0  0  0  0  0  0  0  0  0  0
   -0.0242   -0.5532   -0.9766 C   0  0  0  0  0  0  0  0  0  0  0  0
   -0.5210    0.7152   -0.7204 C   0  0  0  0  0  0  0  0  0  0  0  0
   -1.9310    0.6734   -0.6470 C   0  0  0  0  0  0  0  0  0  0  0  0
   -2.6443   -0.5315   -0.8224 C   0  0  0  0  0  0  0  0  0  0  0  0
   -2.6075   -2.6951   -1.2129 H   0  0  0  0  0  0  0  0  0  0  0  0
    0.0423    1.6362   -0.5874 H   0  0  0  0  0  0  0  0  0  0  0  0
   -2.4840    1.5914   -0.4505 H   0  0  0  0  0  0  0  0  0  0  0  0
    3.2702    1.7362   -0.7569 N   0  0  0  0  0  0  0  0  0  0  0  0
    4.2916    1.3382   -0.8895 N   0  0  0  0  0  0  0  0  0  0  0  0
   -4.5621   -0.4787   -0.7029 Br  0  0  0  0  0  0  0  0  0  0  0  0
  1  6  1  0  0  0  0
  2  1  2  0  0  0  0
  2  3  1  0  0  0  0
  3  4  2  0  0  0  0
  4  5  1  0  0  0  0
  4  8  1  0  0  0  0
  5  9  1  0  0  0  0
  6 12  1  0  0  0  0
  6  5  2  0  0  0  0
  7  1  1  0  0  0  0
 11 10  3  0  0  0  0
M  RAD  2   2   2   3   2
M  END
