Coordinates from ORCA-job 4-Br-C6H3-N2-B3LYPG-aug-cc-pVDZ-scan-d09-49-n400
 OpenBabel11091809103D

 12 11  0  0  0  0  0  0  0  0999 V2000
   -1.6815   -1.6583   -1.0802 C   0  0  0  0  0  0  0  0  0  0  0  0
   -0.3418   -1.2924   -1.0918 C   0  0  0  0  0  0  0  0  0  0  0  0
    0.1030   -0.1355   -0.9097 C   0  0  0  0  0  0  0  0  0  0  0  0
   -0.5893    1.0359   -0.6592 C   0  0  0  0  0  0  0  0  0  0  0  0
   -1.9769    0.7760   -0.6259 C   0  0  0  0  0  0  0  0  0  0  0  0
   -2.4866   -0.5241   -0.8300 C   0  0  0  0  0  0  0  0  0  0  0  0
   -2.1014   -2.6495   -1.2341 H   0  0  0  0  0  0  0  0  0  0  0  0
   -0.1719    2.0284   -0.5050 H   0  0  0  0  0  0  0  0  0  0  0  0
   -2.6713    1.5943   -0.4388 H   0  0  0  0  0  0  0  0  0  0  0  0
    2.7251    1.0418   -0.8498 N   0  0  0  0  0  0  0  0  0  0  0  0
    3.7216    0.5868   -0.9905 N   0  0  0  0  0  0  0  0  0  0  0  0
   -4.3916   -0.7740   -0.7650 Br  0  0  0  0  0  0  0  0  0  0  0  0
  1  6  1  0  0  0  0
  2  1  2  0  0  0  0
  2  3  1  0  0  0  0
  3  4  2  0  0  0  0
  4  5  1  0  0  0  0
  4  8  1  0  0  0  0
  5  9  1  0  0  0  0
  6 12  1  0  0  0  0
  6  5  2  0  0  0  0
  7  1  1  0  0  0  0
 11 10  3  0  0  0  0
M  RAD  2   2   2   3   2
M  END
