Coordinates from ORCA-job 4-Br-C6H3-N2-B3LYPG-aug-cc-pVDZ-scan-d09-49-n400
 OpenBabel11091809103D

 12 12  0  0  0  0  0  0  0  0999 V2000
   -1.3479   -1.5044   -1.0727 C   0  0  0  0  0  0  0  0  0  0  0  0
    0.0519   -1.3732   -1.1325 C   0  0  0  0  0  0  0  0  0  0  0  0
    0.5350    0.1203   -0.8926 C   0  0  0  0  0  0  0  0  0  0  0  0
   -0.4957    1.1423   -0.6478 C   0  0  0  0  0  0  0  0  0  0  0  0
   -1.8278    0.8635   -0.6187 C   0  0  0  0  0  0  0  0  0  0  0  0
   -2.2486   -0.4725   -0.8339 C   0  0  0  0  0  0  0  0  0  0  0  0
   -1.7429   -2.5119   -1.2299 H   0  0  0  0  0  0  0  0  0  0  0  0
   -0.1186    2.1553   -0.4875 H   0  0  0  0  0  0  0  0  0  0  0  0
   -2.5546    1.6513   -0.4335 H   0  0  0  0  0  0  0  0  0  0  0  0
    1.4279    0.2946   -0.9145 N   0  0  0  0  0  0  0  0  0  0  0  0
    2.5803    0.4889   -0.9304 N   0  0  0  0  0  0  0  0  0  0  0  0
   -4.1215   -0.8247   -0.7858 Br  0  0  0  0  0  0  0  0  0  0  0  0
  1  6  1  0  0  0  0
  2  1  2  0  0  0  0
  2  3  1  0  0  0  0
  3  4  2  0  0  0  0
  4  5  1  0  0  0  0
  4  8  1  0  0  0  0
  5  9  1  0  0  0  0
  6 12  1  0  0  0  0
  6  5  2  0  0  0  0
  7  1  1  0  0  0  0
 10  3  1  0  0  0  0
 11 10  1  0  0  0  0
M  RAD  3   2   2  10   2  11   3
M  END
