Coordinates from ORCA-job 4-Br-C6H3-N2-B3LYPG-aug-cc-pVDZ-scan-d09-49-n400
 OpenBabel11091809103D

 12 11  0  0  0  0  0  0  0  0999 V2000
   -1.8535   -1.7230   -1.0818 C   0  0  0  0  0  0  0  0  0  0  0  0
   -0.4945   -1.4468   -1.1105 C   0  0  0  0  0  0  0  0  0  0  0  0
    0.0450   -0.3292   -0.9408 C   0  0  0  0  0  0  0  0  0  0  0  0
   -0.5648    0.8892   -0.6869 C   0  0  0  0  0  0  0  0  0  0  0  0
   -1.9668    0.7282   -0.6351 C   0  0  0  0  0  0  0  0  0  0  0  0
   -2.5715   -0.5324   -0.8266 C   0  0  0  0  0  0  0  0  0  0  0  0
   -2.3434   -2.6828   -1.2260 H   0  0  0  0  0  0  0  0  0  0  0  0
   -0.0813    1.8527   -0.5417 H   0  0  0  0  0  0  0  0  0  0  0  0
   -2.5987    1.5947   -0.4430 H   0  0  0  0  0  0  0  0  0  0  0  0
    3.0514    1.4305   -0.7990 N   0  0  0  0  0  0  0  0  0  0  0  0
    4.0039    0.8936   -0.9521 N   0  0  0  0  0  0  0  0  0  0  0  0
   -4.4883   -0.6452   -0.7365 Br  0  0  0  0  0  0  0  0  0  0  0  0
  1  6  1  0  0  0  0
  2  1  2  0  0  0  0
  2  3  1  0  0  0  0
  3  4  2  0  0  0  0
  4  5  1  0  0  0  0
  4  8  1  0  0  0  0
  5  9  1  0  0  0  0
  6 12  1  0  0  0  0
  6  5  2  0  0  0  0
  7  1  1  0  0  0  0
 11 10  3  0  0  0  0
M  RAD  2   2   2   3   2
M  END
