Coordinates from ORCA-job 4-Br-C6H3-N2-B3LYPG-aug-cc-pVDZ-scan-d09-49-n400
 OpenBabel11091809103D

 12 11  0  0  0  0  0  0  0  0999 V2000
   -1.4705   -1.5704   -1.0767 C   0  0  0  0  0  0  0  0  0  0  0  0
   -0.1351   -1.1584   -1.0795 C   0  0  0  0  0  0  0  0  0  0  0  0
    0.1751    0.0484   -0.8806 C   0  0  0  0  0  0  0  0  0  0  0  0
   -0.5833    1.1719   -0.6350 C   0  0  0  0  0  0  0  0  0  0  0  0
   -1.9497    0.8274   -0.6182 C   0  0  0  0  0  0  0  0  0  0  0  0
   -2.3610   -0.5050   -0.8339 C   0  0  0  0  0  0  0  0  0  0  0  0
   -1.8281   -2.5861   -1.2385 H   0  0  0  0  0  0  0  0  0  0  0  0
   -0.2200    2.1854   -0.4738 H   0  0  0  0  0  0  0  0  0  0  0  0
   -2.6980    1.5976   -0.4367 H   0  0  0  0  0  0  0  0  0  0  0  0
    2.2310    0.6881   -0.8845 N   0  0  0  0  0  0  0  0  0  0  0  0
    3.2230    0.2182   -1.0284 N   0  0  0  0  0  0  0  0  0  0  0  0
   -4.2460   -0.8877   -0.7941 Br  0  0  0  0  0  0  0  0  0  0  0  0
  1  6  1  0  0  0  0
  2  1  2  0  0  0  0
  2  3  1  0  0  0  0
  3  4  2  0  0  0  0
  4  5  1  0  0  0  0
  4  8  1  0  0  0  0
  5  9  1  0  0  0  0
  6 12  1  0  0  0  0
  6  5  2  0  0  0  0
  7  1  1  0  0  0  0
 11 10  3  0  0  0  0
M  RAD  2   2   2   3   2
M  END
