Coordinates from ORCA-job 4-Br-C6H3-N2-B3LYPG-aug-cc-pVDZ-scan-d09-49-n400
 OpenBabel11091809103D

 12 12  0  0  0  0  0  0  0  0999 V2000
   -1.3466   -1.5029   -1.0731 C   0  0  0  0  0  0  0  0  0  0  0  0
    0.0523   -1.3725   -1.1340 C   0  0  0  0  0  0  0  0  0  0  0  0
    0.5390    0.1259   -0.8947 C   0  0  0  0  0  0  0  0  0  0  0  0
   -0.4964    1.1450   -0.6485 C   0  0  0  0  0  0  0  0  0  0  0  0
   -1.8283    0.8642   -0.6182 C   0  0  0  0  0  0  0  0  0  0  0  0
   -2.2473   -0.4717   -0.8336 C   0  0  0  0  0  0  0  0  0  0  0  0
   -1.7406   -2.5108   -1.2298 H   0  0  0  0  0  0  0  0  0  0  0  0
   -0.1172    2.1572   -0.4896 H   0  0  0  0  0  0  0  0  0  0  0  0
   -2.5586    1.6486   -0.4320 H   0  0  0  0  0  0  0  0  0  0  0  0
    1.4227    0.2947   -0.9169 N   0  0  0  0  0  0  0  0  0  0  0  0
    2.5793    0.4787   -0.9252 N   0  0  0  0  0  0  0  0  0  0  0  0
   -4.1209   -0.8269   -0.7842 Br  0  0  0  0  0  0  0  0  0  0  0  0
  1  6  1  0  0  0  0
  2  1  2  0  0  0  0
  2  3  1  0  0  0  0
  3  4  2  0  0  0  0
  4  5  1  0  0  0  0
  4  8  1  0  0  0  0
  5  9  1  0  0  0  0
  6 12  1  0  0  0  0
  6  5  2  0  0  0  0
  7  1  1  0  0  0  0
 10  3  1  0  0  0  0
 11 10  1  0  0  0  0
M  RAD  3   2   2  10   2  11   3
M  END
