Coordinates from ORCA-job 4-Br-C6H3-N2-B3LYPG-aug-cc-pVDZ-scan-d09-49-n400
 OpenBabel11091809103D

 12 11  0  0  0  0  0  0  0  0999 V2000
   -1.9220   -1.7459   -1.0819 C   0  0  0  0  0  0  0  0  0  0  0  0
   -0.5547   -1.5135   -1.1188 C   0  0  0  0  0  0  0  0  0  0  0  0
    0.0181   -0.4120   -0.9539 C   0  0  0  0  0  0  0  0  0  0  0  0
   -0.5491    0.8264   -0.6989 C   0  0  0  0  0  0  0  0  0  0  0  0
   -1.9556    0.7083   -0.6393 C   0  0  0  0  0  0  0  0  0  0  0  0
   -2.6007   -0.5329   -0.8251 C   0  0  0  0  0  0  0  0  0  0  0  0
   -2.4427   -2.6901   -1.2215 H   0  0  0  0  0  0  0  0  0  0  0  0
   -0.0373    1.7757   -0.5579 H   0  0  0  0  0  0  0  0  0  0  0  0
   -2.5593    1.5943   -0.4455 H   0  0  0  0  0  0  0  0  0  0  0  0
    3.1391    1.5435   -0.7834 N   0  0  0  0  0  0  0  0  0  0  0  0
    4.1211    1.0604   -0.9295 N   0  0  0  0  0  0  0  0  0  0  0  0
   -4.5196   -0.5847   -0.7241 Br  0  0  0  0  0  0  0  0  0  0  0  0
  1  6  1  0  0  0  0
  2  1  2  0  0  0  0
  2  3  1  0  0  0  0
  3  4  2  0  0  0  0
  4  5  1  0  0  0  0
  4  8  1  0  0  0  0
  5  9  1  0  0  0  0
  6 12  1  0  0  0  0
  6  5  2  0  0  0  0
  7  1  1  0  0  0  0
 11 10  3  0  0  0  0
M  RAD  2   2   2   3   2
M  END
