Coordinates from ORCA-job 4-Br-C6H3-N2-B3LYPG-aug-cc-pVDZ-scan-d09-49-n400
 OpenBabel11091809103D

 12 12  0  0  0  0  0  0  0  0999 V2000
   -1.3757   -1.5115   -1.0717 C   0  0  0  0  0  0  0  0  0  0  0  0
    0.0149   -1.2345   -1.1024 C   0  0  0  0  0  0  0  0  0  0  0  0
    0.2582    0.0680   -0.8824 C   0  0  0  0  0  0  0  0  0  0  0  0
   -0.5530    1.1771   -0.6361 C   0  0  0  0  0  0  0  0  0  0  0  0
   -1.9069    0.8621   -0.6144 C   0  0  0  0  0  0  0  0  0  0  0  0
   -2.2890   -0.4800   -0.8335 C   0  0  0  0  0  0  0  0  0  0  0  0
   -1.7534   -2.5234   -1.2317 H   0  0  0  0  0  0  0  0  0  0  0  0
   -0.1813    2.1898   -0.4756 H   0  0  0  0  0  0  0  0  0  0  0  0
   -2.6559    1.6294   -0.4331 H   0  0  0  0  0  0  0  0  0  0  0  0
    1.8231    0.4080   -0.9119 N   0  0  0  0  0  0  0  0  0  0  0  0
    2.9298    0.3255   -0.9907 N   0  0  0  0  0  0  0  0  0  0  0  0
   -4.1734   -0.8810   -0.7965 Br  0  0  0  0  0  0  0  0  0  0  0  0
  1  6  1  0  0  0  0
  2  1  2  0  0  0  0
  2  3  1  0  0  0  0
  3  4  2  0  0  0  0
  4  5  1  0  0  0  0
  4  8  1  0  0  0  0
  5  9  1  0  0  0  0
  6 12  1  0  0  0  0
  6  5  2  0  0  0  0
  7  1  1  0  0  0  0
 10  3  1  0  0  0  0
 11 10  1  0  0  0  0
M  RAD  3   2   2  10   2  11   3
M  END
