Coordinates from ORCA-job 4-Br-C6H3-N2-B3LYPG-aug-cc-pVDZ-scan-d09-49-n400
 OpenBabel11091809103D

 12 12  0  0  0  0  0  0  0  0999 V2000
   -1.3520   -1.5065   -1.0722 C   0  0  0  0  0  0  0  0  0  0  0  0
    0.0528   -1.3545   -1.1263 C   0  0  0  0  0  0  0  0  0  0  0  0
    0.4840    0.0868   -0.8920 C   0  0  0  0  0  0  0  0  0  0  0  0
   -0.4980    1.1424   -0.6455 C   0  0  0  0  0  0  0  0  0  0  0  0
   -1.8326    0.8651   -0.6181 C   0  0  0  0  0  0  0  0  0  0  0  0
   -2.2491   -0.4743   -0.8347 C   0  0  0  0  0  0  0  0  0  0  0  0
   -1.7499   -2.5122   -1.2300 H   0  0  0  0  0  0  0  0  0  0  0  0
   -0.1229    2.1557   -0.4852 H   0  0  0  0  0  0  0  0  0  0  0  0
   -2.5618    1.6508   -0.4347 H   0  0  0  0  0  0  0  0  0  0  0  0
    1.4823    0.2968   -0.9123 N   0  0  0  0  0  0  0  0  0  0  0  0
    2.6128    0.5033   -0.9403 N   0  0  0  0  0  0  0  0  0  0  0  0
   -4.1281   -0.8240   -0.7888 Br  0  0  0  0  0  0  0  0  0  0  0  0
  1  6  1  0  0  0  0
  2  1  2  0  0  0  0
  2  3  1  0  0  0  0
  3  4  2  0  0  0  0
  4  5  1  0  0  0  0
  4  8  1  0  0  0  0
  5  9  1  0  0  0  0
  6 12  1  0  0  0  0
  6  5  2  0  0  0  0
  7  1  1  0  0  0  0
 10  3  1  0  0  0  0
 11 10  1  0  0  0  0
M  RAD  3   2   2  10   2  11   3
M  END
