Coordinates from ORCA-job 4-Br-C6H3-N2-B3LYPG-aug-cc-pVDZ-scan-d09-49-n400
 OpenBabel11091809103D

 12 11  0  0  0  0  0  0  0  0999 V2000
   -2.3062   -1.8399   -1.0765 C   0  0  0  0  0  0  0  0  0  0  0  0
   -0.9230   -1.8832   -1.1635 C   0  0  0  0  0  0  0  0  0  0  0  0
   -0.1300   -0.9221   -1.0366 C   0  0  0  0  0  0  0  0  0  0  0  0
   -0.4329    0.4076   -0.7807 C   0  0  0  0  0  0  0  0  0  0  0  0
   -1.8308    0.5740   -0.6707 C   0  0  0  0  0  0  0  0  0  0  0  0
   -2.7184   -0.5136   -0.8149 C   0  0  0  0  0  0  0  0  0  0  0  0
   -3.0091   -2.6623   -1.1837 H   0  0  0  0  0  0  0  0  0  0  0  0
    0.2599    1.2394   -0.6712 H   0  0  0  0  0  0  0  0  0  0  0  0
   -2.2371    1.5648   -0.4696 H   0  0  0  0  0  0  0  0  0  0  0  0
    3.4891    2.1958   -0.6873 N   0  0  0  0  0  0  0  0  0  0  0  0
    4.5795    2.0474   -0.7787 N   0  0  0  0  0  0  0  0  0  0  0  0
   -4.6036   -0.1784   -0.6466 Br  0  0  0  0  0  0  0  0  0  0  0  0
  1  6  1  0  0  0  0
  2  1  2  0  0  0  0
  2  3  1  0  0  0  0
  3  4  2  0  0  0  0
  4  8  1  0  0  0  0
  4  5  1  0  0  0  0
  5  9  1  0  0  0  0
  6  5  2  0  0  0  0
  6 12  1  0  0  0  0
  7  1  1  0  0  0  0
 11 10  3  0  0  0  0
M  RAD  2   2   2   3   2
M  END
