Coordinates from ORCA-job 4-Br-C6H3-N2-B3LYPG-aug-cc-pVDZ-scan-d09-49-n400
 OpenBabel11091809103D

 12 11  0  0  0  0  0  0  0  0999 V2000
   -1.6432   -1.6436   -1.0798 C   0  0  0  0  0  0  0  0  0  0  0  0
   -0.3055   -1.2656   -1.0891 C   0  0  0  0  0  0  0  0  0  0  0  0
    0.1118   -0.0986   -0.9035 C   0  0  0  0  0  0  0  0  0  0  0  0
   -0.5892    1.0651   -0.6540 C   0  0  0  0  0  0  0  0  0  0  0  0
   -1.9739    0.7856   -0.6243 C   0  0  0  0  0  0  0  0  0  0  0  0
   -2.4647   -0.5212   -0.8308 C   0  0  0  0  0  0  0  0  0  0  0  0
   -2.0508   -2.6399   -1.2353 H   0  0  0  0  0  0  0  0  0  0  0  0
   -0.1876    2.0637   -0.4977 H   0  0  0  0  0  0  0  0  0  0  0  0
   -2.6800    1.5942   -0.4383 H   0  0  0  0  0  0  0  0  0  0  0  0
    2.6421    0.9637   -0.8590 N   0  0  0  0  0  0  0  0  0  0  0  0
    3.6451    0.5227   -0.9977 N   0  0  0  0  0  0  0  0  0  0  0  0
   -4.3667   -0.7967   -0.7706 Br  0  0  0  0  0  0  0  0  0  0  0  0
  1  6  1  0  0  0  0
  2  1  2  0  0  0  0
  2  3  1  0  0  0  0
  3  4  2  0  0  0  0
  4  5  1  0  0  0  0
  4  8  1  0  0  0  0
  5  9  1  0  0  0  0
  6 12  1  0  0  0  0
  6  5  2  0  0  0  0
  7  1  1  0  0  0  0
 11 10  3  0  0  0  0
M  RAD  2   2   2   3   2
M  END
