Coordinates from ORCA-job 4-Br-C6H3-N2-B3LYPG-aug-cc-pVDZ-scan-d09-49-n400
 OpenBabel11091809103D

 12 12  0  0  0  0  0  0  0  0999 V2000
   -1.3785   -1.5157   -1.0723 C   0  0  0  0  0  0  0  0  0  0  0  0
   -0.0016   -1.1986   -1.0949 C   0  0  0  0  0  0  0  0  0  0  0  0
    0.2432    0.0784   -0.8796 C   0  0  0  0  0  0  0  0  0  0  0  0
   -0.5589    1.1851   -0.6343 C   0  0  0  0  0  0  0  0  0  0  0  0
   -1.9149    0.8576   -0.6147 C   0  0  0  0  0  0  0  0  0  0  0  0
   -2.2952   -0.4834   -0.8337 C   0  0  0  0  0  0  0  0  0  0  0  0
   -1.7447   -2.5311   -1.2336 H   0  0  0  0  0  0  0  0  0  0  0  0
   -0.1912    2.1990   -0.4733 H   0  0  0  0  0  0  0  0  0  0  0  0
   -2.6677    1.6217   -0.4339 H   0  0  0  0  0  0  0  0  0  0  0  0
    1.8692    0.4671   -0.9039 N   0  0  0  0  0  0  0  0  0  0  0  0
    2.9547    0.2442   -1.0070 N   0  0  0  0  0  0  0  0  0  0  0  0
   -4.1771   -0.8947   -0.7989 Br  0  0  0  0  0  0  0  0  0  0  0  0
  1  6  1  0  0  0  0
  2  1  2  0  0  0  0
  2  3  1  0  0  0  0
  3  4  2  0  0  0  0
  4  5  1  0  0  0  0
  4  8  1  0  0  0  0
  5  9  1  0  0  0  0
  6 12  1  0  0  0  0
  6  5  2  0  0  0  0
  7  1  1  0  0  0  0
 10  3  1  0  0  0  0
 11 10  2  0  0  0  0
M  RAD  2   2   2  11   2
M  END
