Coordinates from ORCA-job 4-Br-C6H3-N2-B3LYPG-aug-cc-pVDZ-scan-d09-49-n400
 OpenBabel11091809103D

 12 11  0  0  0  0  0  0  0  0999 V2000
   -1.7256   -1.6756   -1.0808 C   0  0  0  0  0  0  0  0  0  0  0  0
   -0.3818   -1.3290   -1.0960 C   0  0  0  0  0  0  0  0  0  0  0  0
    0.0897   -0.1824   -0.9173 C   0  0  0  0  0  0  0  0  0  0  0  0
   -0.5852    1.0004   -0.6658 C   0  0  0  0  0  0  0  0  0  0  0  0
   -1.9768    0.7640   -0.6280 C   0  0  0  0  0  0  0  0  0  0  0  0
   -2.5099   -0.5270   -0.8292 C   0  0  0  0  0  0  0  0  0  0  0  0
   -2.1619   -2.6599   -1.2324 H   0  0  0  0  0  0  0  0  0  0  0  0
   -0.1519    1.9863   -0.5137 H   0  0  0  0  0  0  0  0  0  0  0  0
   -2.6566    1.5943   -0.4397 H   0  0  0  0  0  0  0  0  0  0  0  0
    2.8181    1.1452   -0.8365 N   0  0  0  0  0  0  0  0  0  0  0  0
    3.7979    0.6572   -0.9825 N   0  0  0  0  0  0  0  0  0  0  0  0
   -4.4186   -0.7441   -0.7581 Br  0  0  0  0  0  0  0  0  0  0  0  0
  1  6  1  0  0  0  0
  2  1  2  0  0  0  0
  2  3  1  0  0  0  0
  3  4  2  0  0  0  0
  4  5  1  0  0  0  0
  4  8  1  0  0  0  0
  5  9  1  0  0  0  0
  6 12  1  0  0  0  0
  6  5  2  0  0  0  0
  7  1  1  0  0  0  0
 11 10  3  0  0  0  0
M  RAD  2   2   2   3   2
M  END
