Coordinates from ORCA-job 4-Br-C6H3-N2-B3LYPG-aug-cc-pVDZ-scan-d09-49-n400
 OpenBabel11091809103D

 12 12  0  0  0  0  0  0  0  0999 V2000
   -1.3602   -1.5112   -1.0725 C   0  0  0  0  0  0  0  0  0  0  0  0
    0.0474   -1.3409   -1.1226 C   0  0  0  0  0  0  0  0  0  0  0  0
    0.4312    0.0655   -0.8890 C   0  0  0  0  0  0  0  0  0  0  0  0
   -0.5043    1.1454   -0.6435 C   0  0  0  0  0  0  0  0  0  0  0  0
   -1.8425    0.8656   -0.6173 C   0  0  0  0  0  0  0  0  0  0  0  0
   -2.2539   -0.4761   -0.8348 C   0  0  0  0  0  0  0  0  0  0  0  0
   -1.7617   -2.5152   -1.2303 H   0  0  0  0  0  0  0  0  0  0  0  0
   -0.1332    2.1598   -0.4834 H   0  0  0  0  0  0  0  0  0  0  0  0
   -2.5755    1.6479   -0.4355 H   0  0  0  0  0  0  0  0  0  0  0  0
    1.5567    0.3031   -0.9152 N   0  0  0  0  0  0  0  0  0  0  0  0
    2.6718    0.5113   -0.9461 N   0  0  0  0  0  0  0  0  0  0  0  0
   -4.1383   -0.8255   -0.7898 Br  0  0  0  0  0  0  0  0  0  0  0  0
  1  6  1  0  0  0  0
  2  1  2  0  0  0  0
  2  3  1  0  0  0  0
  3  4  2  0  0  0  0
  4  5  1  0  0  0  0
  4  8  1  0  0  0  0
  5  9  1  0  0  0  0
  6 12  1  0  0  0  0
  6  5  2  0  0  0  0
  7  1  1  0  0  0  0
 10  3  1  0  0  0  0
 11 10  1  0  0  0  0
M  RAD  3   2   2  10   2  11   3
M  END
