Coordinates from ORCA-job 4-Br-C6H3-N2-B3LYPG-aug-cc-pVDZ-scan-d09-49-n400
 OpenBabel11091809103D

 12 11  0  0  0  0  0  0  0  0999 V2000
   -2.0004   -1.7702   -1.0817 C   0  0  0  0  0  0  0  0  0  0  0  0
   -0.6256   -1.5890   -1.1280 C   0  0  0  0  0  0  0  0  0  0  0  0
   -0.0115   -0.5090   -0.9693 C   0  0  0  0  0  0  0  0  0  0  0  0
   -0.5305    0.7504   -0.7134 C   0  0  0  0  0  0  0  0  0  0  0  0
   -1.9399    0.6844   -0.6445 C   0  0  0  0  0  0  0  0  0  0  0  0
   -2.6319   -0.5323   -0.8233 C   0  0  0  0  0  0  0  0  0  0  0  0
   -2.5568   -2.6946   -1.2157 H   0  0  0  0  0  0  0  0  0  0  0  0
    0.0168    1.6806   -0.5778 H   0  0  0  0  0  0  0  0  0  0  0  0
   -2.5091    1.5927   -0.4489 H   0  0  0  0  0  0  0  0  0  0  0  0
    3.2334    1.6765   -0.7650 N   0  0  0  0  0  0  0  0  0  0  0  0
    4.2435    1.2525   -0.9026 N   0  0  0  0  0  0  0  0  0  0  0  0
   -4.5507   -0.5125   -0.7098 Br  0  0  0  0  0  0  0  0  0  0  0  0
  1  6  1  0  0  0  0
  2  1  2  0  0  0  0
  2  3  1  0  0  0  0
  3  4  2  0  0  0  0
  4  5  1  0  0  0  0
  4  8  1  0  0  0  0
  5  9  1  0  0  0  0
  6 12  1  0  0  0  0
  6  5  2  0  0  0  0
  7  1  1  0  0  0  0
 11 10  3  0  0  0  0
M  RAD  2   2   2   3   2
M  END
