Coordinates from ORCA-job 4-Br-C6H3-N2-B3LYPG-aug-cc-pVDZ-scan-d09-49-n400
 OpenBabel11091809103D

 12 11  0  0  0  0  0  0  0  0999 V2000
   -1.4500   -1.5602   -1.0761 C   0  0  0  0  0  0  0  0  0  0  0  0
   -0.1101   -1.1561   -1.0808 C   0  0  0  0  0  0  0  0  0  0  0  0
    0.1854    0.0586   -0.8796 C   0  0  0  0  0  0  0  0  0  0  0  0
   -0.5779    1.1784   -0.6343 C   0  0  0  0  0  0  0  0  0  0  0  0
   -1.9427    0.8326   -0.6176 C   0  0  0  0  0  0  0  0  0  0  0  0
   -2.3470   -0.5016   -0.8341 C   0  0  0  0  0  0  0  0  0  0  0  0
   -1.8057   -2.5770   -1.2383 H   0  0  0  0  0  0  0  0  0  0  0  0
   -0.2150    2.1924   -0.4730 H   0  0  0  0  0  0  0  0  0  0  0  0
   -2.6931    1.6005   -0.4363 H   0  0  0  0  0  0  0  0  0  0  0  0
    2.1608    0.6527   -0.8871 N   0  0  0  0  0  0  0  0  0  0  0  0
    3.1633    0.2021   -1.0272 N   0  0  0  0  0  0  0  0  0  0  0  0
   -4.2306   -0.8930   -0.7957 Br  0  0  0  0  0  0  0  0  0  0  0  0
  1  6  1  0  0  0  0
  2  1  2  0  0  0  0
  2  3  1  0  0  0  0
  3  4  2  0  0  0  0
  4  5  1  0  0  0  0
  4  8  1  0  0  0  0
  5  9  1  0  0  0  0
  6 12  1  0  0  0  0
  6  5  2  0  0  0  0
  7  1  1  0  0  0  0
 11 10  3  0  0  0  0
M  RAD  2   2   2   3   2
M  END
