Coordinates from ORCA-job 4-Br-C6H3-N2-B3LYPG-aug-cc-pVDZ-scan-d09-49-n400
 OpenBabel11091809103D

 12 11  0  0  0  0  0  0  0  0999 V2000
   -1.5083   -1.5879   -1.0776 C   0  0  0  0  0  0  0  0  0  0  0  0
   -0.1771   -1.1719   -1.0795 C   0  0  0  0  0  0  0  0  0  0  0  0
    0.1578    0.0241   -0.8839 C   0  0  0  0  0  0  0  0  0  0  0  0
   -0.5894    1.1552   -0.6376 C   0  0  0  0  0  0  0  0  0  0  0  0
   -1.9597    0.8182   -0.6193 C   0  0  0  0  0  0  0  0  0  0  0  0
   -2.3857   -0.5100   -0.8334 C   0  0  0  0  0  0  0  0  0  0  0  0
   -1.8728   -2.6008   -1.2386 H   0  0  0  0  0  0  0  0  0  0  0  0
   -0.2235    2.1675   -0.4768 H   0  0  0  0  0  0  0  0  0  0  0  0
   -2.7019    1.5943   -0.4371 H   0  0  0  0  0  0  0  0  0  0  0  0
    2.3442    0.7490   -0.8801 N   0  0  0  0  0  0  0  0  0  0  0  0
    3.3279    0.2652   -1.0261 N   0  0  0  0  0  0  0  0  0  0  0  0
   -4.2741   -0.8734   -0.7899 Br  0  0  0  0  0  0  0  0  0  0  0  0
  1  6  1  0  0  0  0
  2  1  2  0  0  0  0
  2  3  1  0  0  0  0
  3  4  2  0  0  0  0
  4  5  1  0  0  0  0
  4  8  1  0  0  0  0
  5  9  1  0  0  0  0
  6 12  1  0  0  0  0
  6  5  2  0  0  0  0
  7  1  1  0  0  0  0
 11 10  3  0  0  0  0
M  RAD  2   2   2   3   2
M  END
