Coordinates from ORCA-job 4-Br-C6H3-N2-B3LYPG-aug-cc-pVDZ-scan-d09-49-n400
 OpenBabel11091809103D

 12 11  0  0  0  0  0  0  0  0999 V2000
   -2.2573   -1.8320   -1.0779 C   0  0  0  0  0  0  0  0  0  0  0  0
   -0.8731   -1.8360   -1.1581 C   0  0  0  0  0  0  0  0  0  0  0  0
   -0.1085   -0.8529   -1.0256 C   0  0  0  0  0  0  0  0  0  0  0  0
   -0.4500    0.4672   -0.7691 C   0  0  0  0  0  0  0  0  0  0  0  0
   -1.8527    0.5937   -0.6659 C   0  0  0  0  0  0  0  0  0  0  0  0
   -2.7083   -0.5183   -0.8162 C   0  0  0  0  0  0  0  0  0  0  0  0
   -2.9362   -2.6737   -1.1899 H   0  0  0  0  0  0  0  0  0  0  0  0
    0.2186    1.3179   -0.6549 H   0  0  0  0  0  0  0  0  0  0  0  0
   -2.2879    1.5723   -0.4653 H   0  0  0  0  0  0  0  0  0  0  0  0
    3.4570    2.1133   -0.7006 N   0  0  0  0  0  0  0  0  0  0  0  0
    4.5387    1.9148   -0.7995 N   0  0  0  0  0  0  0  0  0  0  0  0
   -4.6031   -0.2369   -0.6569 Br  0  0  0  0  0  0  0  0  0  0  0  0
  1  6  1  0  0  0  0
  2  1  2  0  0  0  0
  2  3  1  0  0  0  0
  3  4  2  0  0  0  0
  4  5  1  0  0  0  0
  4  8  1  0  0  0  0
  5  9  1  0  0  0  0
  6  5  2  0  0  0  0
  6 12  1  0  0  0  0
  7  1  1  0  0  0  0
 11 10  3  0  0  0  0
M  RAD  2   2   2   3   2
M  END
