Coordinates from ORCA-job 4-Br-C6H3-N2-B3LYPG-aug-cc-pVDZ-scan-d09-49-n400
 OpenBabel11091809103D

 12 12  0  0  0  0  0  0  0  0999 V2000
   -1.3849   -1.5211   -1.0729 C   0  0  0  0  0  0  0  0  0  0  0  0
   -0.0155   -1.1838   -1.0914 C   0  0  0  0  0  0  0  0  0  0  0  0
    0.2333    0.0788   -0.8789 C   0  0  0  0  0  0  0  0  0  0  0  0
   -0.5602    1.1866   -0.6339 C   0  0  0  0  0  0  0  0  0  0  0  0
   -1.9181    0.8538   -0.6152 C   0  0  0  0  0  0  0  0  0  0  0  0
   -2.3007   -0.4861   -0.8339 C   0  0  0  0  0  0  0  0  0  0  0  0
   -1.7463   -2.5378   -1.2347 H   0  0  0  0  0  0  0  0  0  0  0  0
   -0.1932    2.2006   -0.4729 H   0  0  0  0  0  0  0  0  0  0  0  0
   -2.6711    1.6178   -0.4344 H   0  0  0  0  0  0  0  0  0  0  0  0
    1.9029    0.5001   -0.8998 N   0  0  0  0  0  0  0  0  0  0  0  0
    2.9732    0.2187   -1.0127 N   0  0  0  0  0  0  0  0  0  0  0  0
   -4.1819   -0.8982   -0.7992 Br  0  0  0  0  0  0  0  0  0  0  0  0
  1  6  1  0  0  0  0
  2  1  2  0  0  0  0
  2  3  1  0  0  0  0
  3  4  2  0  0  0  0
  4  5  1  0  0  0  0
  4  8  1  0  0  0  0
  5  9  1  0  0  0  0
  6 12  1  0  0  0  0
  6  5  2  0  0  0  0
  7  1  1  0  0  0  0
 10  3  1  0  0  0  0
 11 10  2  0  0  0  0
M  RAD  2   2   2  11   2
M  END
