Coordinates from ORCA-job 4-Br-C6H3-N2-B3LYPG-aug-cc-pVDZ-scan-d09-49-n400
 OpenBabel11091809103D

 12 12  0  0  0  0  0  0  0  0999 V2000
   -1.3708   -1.5153   -1.0727 C   0  0  0  0  0  0  0  0  0  0  0  0
    0.0362   -1.3117   -1.1175 C   0  0  0  0  0  0  0  0  0  0  0  0
    0.3501    0.0531   -0.8904 C   0  0  0  0  0  0  0  0  0  0  0  0
   -0.5207    1.1558   -0.6418 C   0  0  0  0  0  0  0  0  0  0  0  0
   -1.8654    0.8658   -0.6161 C   0  0  0  0  0  0  0  0  0  0  0  0
   -2.2658   -0.4777   -0.8344 C   0  0  0  0  0  0  0  0  0  0  0  0
   -1.7718   -2.5193   -1.2299 H   0  0  0  0  0  0  0  0  0  0  0  0
   -0.1502    2.1696   -0.4810 H   0  0  0  0  0  0  0  0  0  0  0  0
   -2.6052    1.6415   -0.4339 H   0  0  0  0  0  0  0  0  0  0  0  0
    1.6754    0.3143   -0.9201 N   0  0  0  0  0  0  0  0  0  0  0  0
    2.7807    0.4916   -0.9522 N   0  0  0  0  0  0  0  0  0  0  0  0
   -4.1551   -0.8382   -0.7898 Br  0  0  0  0  0  0  0  0  0  0  0  0
  1  6  1  0  0  0  0
  2  1  2  0  0  0  0
  2  3  1  0  0  0  0
  3  4  2  0  0  0  0
  4  5  1  0  0  0  0
  4  8  1  0  0  0  0
  5  9  1  0  0  0  0
  6 12  1  0  0  0  0
  6  5  2  0  0  0  0
  7  1  1  0  0  0  0
 10  3  1  0  0  0  0
 11 10  1  0  0  0  0
M  RAD  3   2   2  10   2  11   3
M  END
