Coordinates from ORCA-job 4-Br-C6H3-N2-B3LYPG-aug-cc-pVDZ-scan-d09-49-n400
 OpenBabel11091809103D

 12 11  0  0  0  0  0  0  0  0999 V2000
   -2.0246   -1.7772   -1.0815 C   0  0  0  0  0  0  0  0  0  0  0  0
   -0.6479   -1.6124   -1.1309 C   0  0  0  0  0  0  0  0  0  0  0  0
   -0.0204   -0.5398   -0.9744 C   0  0  0  0  0  0  0  0  0  0  0  0
   -0.5239    0.7259   -0.7183 C   0  0  0  0  0  0  0  0  0  0  0  0
   -1.9338    0.6768   -0.6463 C   0  0  0  0  0  0  0  0  0  0  0  0
   -2.6407   -0.5318   -0.8227 C   0  0  0  0  0  0  0  0  0  0  0  0
   -2.5922   -2.6950   -1.2137 H   0  0  0  0  0  0  0  0  0  0  0  0
    0.0345    1.6497   -0.5845 H   0  0  0  0  0  0  0  0  0  0  0  0
   -2.4917    1.5918   -0.4500 H   0  0  0  0  0  0  0  0  0  0  0  0
    3.2594    1.7182   -0.7593 N   0  0  0  0  0  0  0  0  0  0  0  0
    4.2774    1.3124   -0.8935 N   0  0  0  0  0  0  0  0  0  0  0  0
   -4.5588   -0.4890   -0.7050 Br  0  0  0  0  0  0  0  0  0  0  0  0
  1  6  1  0  0  0  0
  2  1  2  0  0  0  0
  2  3  1  0  0  0  0
  3  4  2  0  0  0  0
  4  5  1  0  0  0  0
  4  8  1  0  0  0  0
  5  9  1  0  0  0  0
  6 12  1  0  0  0  0
  6  5  2  0  0  0  0
  7  1  1  0  0  0  0
 11 10  3  0  0  0  0
M  RAD  2   2   2   3   2
M  END
