Coordinates from ORCA-job 4-Br-C6H3-N2-B3LYPG-aug-cc-pVDZ-scan-d09-49-n400
 OpenBabel11091809103D

 12 11  0  0  0  0  0  0  0  0999 V2000
   -2.1869   -1.8182   -1.0795 C   0  0  0  0  0  0  0  0  0  0  0  0
   -0.8030   -1.7677   -1.1501 C   0  0  0  0  0  0  0  0  0  0  0  0
   -0.0793   -0.7551   -1.0101 C   0  0  0  0  0  0  0  0  0  0  0  0
   -0.4739    0.5498   -0.7531 C   0  0  0  0  0  0  0  0  0  0  0  0
   -1.8813    0.6207   -0.6594 C   0  0  0  0  0  0  0  0  0  0  0  0
   -2.6912   -0.5240   -0.8182 C   0  0  0  0  0  0  0  0  0  0  0  0
   -2.8313   -2.6857   -1.1980 H   0  0  0  0  0  0  0  0  0  0  0  0
    0.1601    1.4257   -0.6325 H   0  0  0  0  0  0  0  0  0  0  0  0
   -2.3562    1.5807   -0.4597 H   0  0  0  0  0  0  0  0  0  0  0  0
    3.4057    1.9950   -0.7195 N   0  0  0  0  0  0  0  0  0  0  0  0
    4.4712    1.7263   -0.8285 N   0  0  0  0  0  0  0  0  0  0  0  0
   -4.5966   -0.3180   -0.6715 Br  0  0  0  0  0  0  0  0  0  0  0  0
  1  6  1  0  0  0  0
  2  1  2  0  0  0  0
  2  3  1  0  0  0  0
  3  4  2  0  0  0  0
  4  5  1  0  0  0  0
  4  8  1  0  0  0  0
  5  9  1  0  0  0  0
  6 12  1  0  0  0  0
  6  5  2  0  0  0  0
  7  1  1  0  0  0  0
 11 10  3  0  0  0  0
M  RAD  2   2   2   3   2
M  END
