Coordinates from ORCA-job 4-Br-C6H3-N2-B3LYPG-aug-cc-pVDZ-scan-d09-49-n400
 OpenBabel11091809103D

 12 11  0  0  0  0  0  0  0  0999 V2000
   -1.5600   -1.6104   -1.0786 C   0  0  0  0  0  0  0  0  0  0  0  0
   -0.2269   -1.2069   -1.0830 C   0  0  0  0  0  0  0  0  0  0  0  0
    0.1385   -0.0219   -0.8911 C   0  0  0  0  0  0  0  0  0  0  0  0
   -0.5891    1.1226   -0.6436 C   0  0  0  0  0  0  0  0  0  0  0  0
   -1.9655    0.8059   -0.6212 C   0  0  0  0  0  0  0  0  0  0  0  0
   -2.4162   -0.5146   -0.8324 C   0  0  0  0  0  0  0  0  0  0  0  0
   -1.9408   -2.6172   -1.2376 H   0  0  0  0  0  0  0  0  0  0  0  0
   -0.2116    2.1303   -0.4842 H   0  0  0  0  0  0  0  0  0  0  0  0
   -2.6947    1.5941   -0.4375 H   0  0  0  0  0  0  0  0  0  0  0  0
    2.4612    0.8297   -0.8725 N   0  0  0  0  0  0  0  0  0  0  0  0
    3.4525    0.3628   -1.0156 N   0  0  0  0  0  0  0  0  0  0  0  0
   -4.3101   -0.8449   -0.7827 Br  0  0  0  0  0  0  0  0  0  0  0  0
  1  6  1  0  0  0  0
  2  1  2  0  0  0  0
  2  3  1  0  0  0  0
  3  4  2  0  0  0  0
  4  5  1  0  0  0  0
  4  8  1  0  0  0  0
  5  9  1  0  0  0  0
  6 12  1  0  0  0  0
  6  5  2  0  0  0  0
  7  1  1  0  0  0  0
 11 10  3  0  0  0  0
M  RAD  2   2   2   3   2
M  END
