Coordinates from ORCA-job 4-Br-C6H3-N2-B3LYPG-aug-cc-pVDZ-scan-d09-49-n400
 OpenBabel11091809103D

 12 11  0  0  0  0  0  0  0  0999 V2000
   -1.7950   -1.7015   -1.0814 C   0  0  0  0  0  0  0  0  0  0  0  0
   -0.4432   -1.3906   -1.1035 C   0  0  0  0  0  0  0  0  0  0  0  0
    0.0655   -0.2593   -0.9296 C   0  0  0  0  0  0  0  0  0  0  0  0
   -0.5772    0.9421   -0.6767 C   0  0  0  0  0  0  0  0  0  0  0  0
   -1.9746    0.7450   -0.6316 C   0  0  0  0  0  0  0  0  0  0  0  0
   -2.5452   -0.5307   -0.8278 C   0  0  0  0  0  0  0  0  0  0  0  0
   -2.2591   -2.6736   -1.2292 H   0  0  0  0  0  0  0  0  0  0  0  0
   -0.1170    1.9163   -0.5283 H   0  0  0  0  0  0  0  0  0  0  0  0
   -2.6297    1.5945   -0.4412 H   0  0  0  0  0  0  0  0  0  0  0  0
    2.9550    1.3013   -0.8163 N   0  0  0  0  0  0  0  0  0  0  0  0
    3.9166    0.7799   -0.9675 N   0  0  0  0  0  0  0  0  0  0  0  0
   -4.4587   -0.6938   -0.7468 Br  0  0  0  0  0  0  0  0  0  0  0  0
  1  6  1  0  0  0  0
  2  1  2  0  0  0  0
  2  3  1  0  0  0  0
  3  4  2  0  0  0  0
  4  5  1  0  0  0  0
  4  8  1  0  0  0  0
  5  9  1  0  0  0  0
  6 12  1  0  0  0  0
  6  5  2  0  0  0  0
  7  1  1  0  0  0  0
 11 10  3  0  0  0  0
M  RAD  2   2   2   3   2
M  END
