Coordinates from ORCA-job 4-Br-C6H3-N2-B3LYPG-aug-cc-pVDZ-scan-d09-49-n400
 OpenBabel11091809103D

 12 11  0  0  0  0  0  0  0  0999 V2000
   -2.0107   -1.7732   -1.0816 C   0  0  0  0  0  0  0  0  0  0  0  0
   -0.6351   -1.5990   -1.1292 C   0  0  0  0  0  0  0  0  0  0  0  0
   -0.0153   -0.5222   -0.9715 C   0  0  0  0  0  0  0  0  0  0  0  0
   -0.5277    0.7400   -0.7155 C   0  0  0  0  0  0  0  0  0  0  0  0
   -1.9374    0.6812   -0.6453 C   0  0  0  0  0  0  0  0  0  0  0  0
   -2.6357   -0.5321   -0.8230 C   0  0  0  0  0  0  0  0  0  0  0  0
   -2.5719   -2.6948   -1.2149 H   0  0  0  0  0  0  0  0  0  0  0  0
    0.0243    1.6675   -0.5807 H   0  0  0  0  0  0  0  0  0  0  0  0
   -2.5017    1.5923   -0.4493 H   0  0  0  0  0  0  0  0  0  0  0  0
    3.2447    1.6943   -0.7626 N   0  0  0  0  0  0  0  0  0  0  0  0
    4.2582    1.2781   -0.8988 N   0  0  0  0  0  0  0  0  0  0  0  0
   -4.5542   -0.5025   -0.7077 Br  0  0  0  0  0  0  0  0  0  0  0  0
  1  6  1  0  0  0  0
  2  1  2  0  0  0  0
  2  3  1  0  0  0  0
  3  4  2  0  0  0  0
  4  5  1  0  0  0  0
  4  8  1  0  0  0  0
  5  9  1  0  0  0  0
  6 12  1  0  0  0  0
  6  5  2  0  0  0  0
  7  1  1  0  0  0  0
 11 10  3  0  0  0  0
M  RAD  2   2   2   3   2
M  END
