Coordinates from ORCA-job 4-Br-C6H3-N2-B3LYPG-aug-cc-pVDZ-scan-d09-49-n400
 OpenBabel11091809103D

 12 11  0  0  0  0  0  0  0  0999 V2000
   -2.2046   -1.8219   -1.0791 C   0  0  0  0  0  0  0  0  0  0  0  0
   -0.8204   -1.7848   -1.1521 C   0  0  0  0  0  0  0  0  0  0  0  0
   -0.0864   -0.7794   -1.0139 C   0  0  0  0  0  0  0  0  0  0  0  0
   -0.4680    0.5294   -0.7571 C   0  0  0  0  0  0  0  0  0  0  0  0
   -1.8744    0.6141   -0.6610 C   0  0  0  0  0  0  0  0  0  0  0  0
   -2.6958   -0.5227   -0.8177 C   0  0  0  0  0  0  0  0  0  0  0  0
   -2.8576   -2.6832   -1.1961 H   0  0  0  0  0  0  0  0  0  0  0  0
    0.1747    1.3992   -0.6380 H   0  0  0  0  0  0  0  0  0  0  0  0
   -2.3396    1.5788   -0.4611 H   0  0  0  0  0  0  0  0  0  0  0  0
    3.4192    2.0246   -0.7148 N   0  0  0  0  0  0  0  0  0  0  0  0
    4.4891    1.7733   -0.8213 N   0  0  0  0  0  0  0  0  0  0  0  0
   -4.5989   -0.2980   -0.6678 Br  0  0  0  0  0  0  0  0  0  0  0  0
  1  6  1  0  0  0  0
  2  1  2  0  0  0  0
  2  3  1  0  0  0  0
  3  4  2  0  0  0  0
  4  5  1  0  0  0  0
  4  8  1  0  0  0  0
  5  9  1  0  0  0  0
  6 12  1  0  0  0  0
  6  5  2  0  0  0  0
  7  1  1  0  0  0  0
 11 10  3  0  0  0  0
M  RAD  2   2   2   3   2
M  END
