Coordinates from ORCA-job 4-Br-C6H3-N2-B3LYPG-aug-cc-pVDZ-scan-d09-49-n400
 OpenBabel11091809103D

 12 11  0  0  0  0  0  0  0  0999 V2000
   -2.2187   -1.8247   -1.0788 C   0  0  0  0  0  0  0  0  0  0  0  0
   -0.8344   -1.7985   -1.1537 C   0  0  0  0  0  0  0  0  0  0  0  0
   -0.0922   -0.7989   -1.0170 C   0  0  0  0  0  0  0  0  0  0  0  0
   -0.4632    0.5130   -0.7603 C   0  0  0  0  0  0  0  0  0  0  0  0
   -1.8688    0.6087   -0.6622 C   0  0  0  0  0  0  0  0  0  0  0  0
   -2.6993   -0.5216   -0.8173 C   0  0  0  0  0  0  0  0  0  0  0  0
   -2.8786   -2.6810   -1.1945 H   0  0  0  0  0  0  0  0  0  0  0  0
    0.1863    1.3778   -0.6425 H   0  0  0  0  0  0  0  0  0  0  0  0
   -2.3261    1.5772   -0.4621 H   0  0  0  0  0  0  0  0  0  0  0  0
    3.4297    2.0483   -0.7110 N   0  0  0  0  0  0  0  0  0  0  0  0
    4.5030    1.8110   -0.8155 N   0  0  0  0  0  0  0  0  0  0  0  0
   -4.6003   -0.2819   -0.6649 Br  0  0  0  0  0  0  0  0  0  0  0  0
  1  6  1  0  0  0  0
  2  1  2  0  0  0  0
  2  3  1  0  0  0  0
  3  4  2  0  0  0  0
  4  5  1  0  0  0  0
  4  8  1  0  0  0  0
  5  9  1  0  0  0  0
  6 12  1  0  0  0  0
  6  5  2  0  0  0  0
  7  1  1  0  0  0  0
 11 10  3  0  0  0  0
M  RAD  2   2   2   3   2
M  END
