Coordinates from ORCA-job 4-Br-C6H3-N2-B3LYPG-aug-cc-pVDZ-scan-d09-49-n400
 OpenBabel11091809103D

 12 12  0  0  0  0  0  0  0  0999 V2000
   -1.4107   -1.5379   -1.0745 C   0  0  0  0  0  0  0  0  0  0  0  0
   -0.0576   -1.1617   -1.0855 C   0  0  0  0  0  0  0  0  0  0  0  0
    0.2117    0.0745   -0.8788 C   0  0  0  0  0  0  0  0  0  0  0  0
   -0.5680    1.1858   -0.6339 C   0  0  0  0  0  0  0  0  0  0  0  0
   -1.9289    0.8439   -0.6163 C   0  0  0  0  0  0  0  0  0  0  0  0
   -2.3200   -0.4935   -0.8340 C   0  0  0  0  0  0  0  0  0  0  0  0
   -1.7661   -2.5557   -1.2369 H   0  0  0  0  0  0  0  0  0  0  0  0
   -0.2037    2.2003   -0.4727 H   0  0  0  0  0  0  0  0  0  0  0  0
   -2.6819    1.6086   -0.4351 H   0  0  0  0  0  0  0  0  0  0  0  0
    2.0155    0.5763   -0.8931 N   0  0  0  0  0  0  0  0  0  0  0  0
    3.0484    0.1888   -1.0212 N   0  0  0  0  0  0  0  0  0  0  0  0
   -4.2014   -0.9000   -0.7979 Br  0  0  0  0  0  0  0  0  0  0  0  0
  1  6  1  0  0  0  0
  2  1  2  0  0  0  0
  2  3  1  0  0  0  0
  3  4  2  0  0  0  0
  4  5  1  0  0  0  0
  4  8  1  0  0  0  0
  5  9  1  0  0  0  0
  6 12  1  0  0  0  0
  6  5  2  0  0  0  0
  7  1  1  0  0  0  0
 10  3  1  0  0  0  0
 11 10  2  0  0  0  0
M  RAD  2   2   2  11   2
M  END
