Coordinates from ORCA-job 4-Br-C6H3-N2-B3LYPG-aug-cc-pVDZ-scan-d09-49-n400
 OpenBabel11091809103D

 12 12  0  0  0  0  0  0  0  0999 V2000
   -1.3530   -1.5071   -1.0724 C   0  0  0  0  0  0  0  0  0  0  0  0
    0.0524   -1.3517   -1.1267 C   0  0  0  0  0  0  0  0  0  0  0  0
    0.4750    0.0834   -0.8959 C   0  0  0  0  0  0  0  0  0  0  0  0
   -0.4987    1.1430   -0.6465 C   0  0  0  0  0  0  0  0  0  0  0  0
   -1.8339    0.8654   -0.6181 C   0  0  0  0  0  0  0  0  0  0  0  0
   -2.2496   -0.4745   -0.8348 C   0  0  0  0  0  0  0  0  0  0  0  0
   -1.7513   -2.5127   -1.2294 H   0  0  0  0  0  0  0  0  0  0  0  0
   -0.1244    2.1564   -0.4853 H   0  0  0  0  0  0  0  0  0  0  0  0
   -2.5636    1.6504   -0.4336 H   0  0  0  0  0  0  0  0  0  0  0  0
    1.4929    0.2976   -0.9129 N   0  0  0  0  0  0  0  0  0  0  0  0
    2.6208    0.5038   -0.9368 N   0  0  0  0  0  0  0  0  0  0  0  0
   -4.1293   -0.8245   -0.7875 Br  0  0  0  0  0  0  0  0  0  0  0  0
  1  6  1  0  0  0  0
  2  1  2  0  0  0  0
  2  3  1  0  0  0  0
  3  4  2  0  0  0  0
  4  5  1  0  0  0  0
  4  8  1  0  0  0  0
  5  9  1  0  0  0  0
  6 12  1  0  0  0  0
  6  5  2  0  0  0  0
  7  1  1  0  0  0  0
 10  3  1  0  0  0  0
 11 10  1  0  0  0  0
M  RAD  3   2   2  10   2  11   3
M  END
