Coordinates from ORCA-job 4-Br-C6H3-N2-B3LYPG-aug-cc-pVDZ-scan-d09-49-n400
 OpenBabel11091809103D

 12 11  0  0  0  0  0  0  0  0999 V2000
   -1.4287   -1.5484   -1.0753 C   0  0  0  0  0  0  0  0  0  0  0  0
   -0.0820   -1.1576   -1.0831 C   0  0  0  0  0  0  0  0  0  0  0  0
    0.1978    0.0676   -0.8791 C   0  0  0  0  0  0  0  0  0  0  0  0
   -0.5725    1.1833   -0.6340 C   0  0  0  0  0  0  0  0  0  0  0  0
   -1.9353    0.8386   -0.6169 C   0  0  0  0  0  0  0  0  0  0  0  0
   -2.3324   -0.4974   -0.8340 C   0  0  0  0  0  0  0  0  0  0  0  0
   -1.7836   -2.5659   -1.2377 H   0  0  0  0  0  0  0  0  0  0  0  0
   -0.2089    2.1975   -0.4727 H   0  0  0  0  0  0  0  0  0  0  0  0
   -2.6873    1.6046   -0.4357 H   0  0  0  0  0  0  0  0  0  0  0  0
    2.0834    0.6122   -0.8904 N   0  0  0  0  0  0  0  0  0  0  0  0
    3.1013    0.1924   -1.0242 N   0  0  0  0  0  0  0  0  0  0  0  0
   -4.2147   -0.8974   -0.7969 Br  0  0  0  0  0  0  0  0  0  0  0  0
  1  6  1  0  0  0  0
  2  1  2  0  0  0  0
  2  3  1  0  0  0  0
  3  4  2  0  0  0  0
  4  5  1  0  0  0  0
  4  8  1  0  0  0  0
  5  9  1  0  0  0  0
  6 12  1  0  0  0  0
  6  5  2  0  0  0  0
  7  1  1  0  0  0  0
 11 10  3  0  0  0  0
M  RAD  2   2   2   3   2
M  END
