Coordinates from ORCA-job 4-Br-C6H3-N2-B3LYPG-aug-cc-pVDZ-scan-d09-49-n400
 OpenBabel11091809103D

 12 11  0  0  0  0  0  0  0  0999 V2000
   -2.1940   -1.8197   -1.0793 C   0  0  0  0  0  0  0  0  0  0  0  0
   -0.8099   -1.7745   -1.1509 C   0  0  0  0  0  0  0  0  0  0  0  0
   -0.0821   -0.7648   -1.0116 C   0  0  0  0  0  0  0  0  0  0  0  0
   -0.4715    0.5417   -0.7547 C   0  0  0  0  0  0  0  0  0  0  0  0
   -1.8786    0.6180   -0.6600 C   0  0  0  0  0  0  0  0  0  0  0  0
   -2.6930   -0.5235   -0.8180 C   0  0  0  0  0  0  0  0  0  0  0  0
   -2.8418   -2.6848   -1.1973 H   0  0  0  0  0  0  0  0  0  0  0  0
    0.1659    1.4151   -0.6347 H   0  0  0  0  0  0  0  0  0  0  0  0
   -2.3496    1.5800   -0.4603 H   0  0  0  0  0  0  0  0  0  0  0  0
    3.4112    2.0068   -0.7176 N   0  0  0  0  0  0  0  0  0  0  0  0
    4.4784    1.7451   -0.8256 N   0  0  0  0  0  0  0  0  0  0  0  0
   -4.5976   -0.3100   -0.6700 Br  0  0  0  0  0  0  0  0  0  0  0  0
  1  6  1  0  0  0  0
  2  1  2  0  0  0  0
  2  3  1  0  0  0  0
  3  4  2  0  0  0  0
  4  5  1  0  0  0  0
  4  8  1  0  0  0  0
  5  9  1  0  0  0  0
  6 12  1  0  0  0  0
  6  5  2  0  0  0  0
  7  1  1  0  0  0  0
 11 10  3  0  0  0  0
M  RAD  2   2   2   3   2
M  END
