Coordinates from ORCA-job 4-Br-C6H3-N2-B3LYPG-aug-cc-pVDZ-scan-d09-49-n400
 OpenBabel11091809103D

 12 11  0  0  0  0  0  0  0  0999 V2000
   -1.7558   -1.6870   -1.0811 C   0  0  0  0  0  0  0  0  0  0  0  0
   -0.4086   -1.3552   -1.0992 C   0  0  0  0  0  0  0  0  0  0  0  0
    0.0792   -0.2152   -0.9226 C   0  0  0  0  0  0  0  0  0  0  0  0
   -0.5823    0.9756   -0.6705 C   0  0  0  0  0  0  0  0  0  0  0  0
   -1.9765    0.7558   -0.6295 C   0  0  0  0  0  0  0  0  0  0  0  0
   -2.5257   -0.5288   -0.8286 C   0  0  0  0  0  0  0  0  0  0  0  0
   -2.2039   -2.6663   -1.2311 H   0  0  0  0  0  0  0  0  0  0  0  0
   -0.1374    1.9566   -0.5199 H   0  0  0  0  0  0  0  0  0  0  0  0
   -2.6459    1.5943   -0.4403 H   0  0  0  0  0  0  0  0  0  0  0  0
    2.8800    1.2136   -0.8277 N   0  0  0  0  0  0  0  0  0  0  0  0
    3.8509    0.7090   -0.9763 N   0  0  0  0  0  0  0  0  0  0  0  0
   -4.4366   -0.7229   -0.7532 Br  0  0  0  0  0  0  0  0  0  0  0  0
  1  6  1  0  0  0  0
  2  1  2  0  0  0  0
  2  3  1  0  0  0  0
  3  4  2  0  0  0  0
  4  5  1  0  0  0  0
  4  8  1  0  0  0  0
  5  9  1  0  0  0  0
  6 12  1  0  0  0  0
  6  5  2  0  0  0  0
  7  1  1  0  0  0  0
 11 10  3  0  0  0  0
M  RAD  2   2   2   3   2
M  END
