Coordinates from ORCA-job 4-Br-C6H3-N2-B3LYPG-aug-cc-pVDZ-scan-d09-49-n400
 OpenBabel11091809103D

 12 11  0  0  0  0  0  0  0  0999 V2000
   -2.2433   -1.8294   -1.0782 C   0  0  0  0  0  0  0  0  0  0  0  0
   -0.8590   -1.8224   -1.1565 C   0  0  0  0  0  0  0  0  0  0  0  0
   -0.1025   -0.8332   -1.0225 C   0  0  0  0  0  0  0  0  0  0  0  0
   -0.4548    0.4840   -0.7659 C   0  0  0  0  0  0  0  0  0  0  0  0
   -1.8586    0.5992   -0.6645 C   0  0  0  0  0  0  0  0  0  0  0  0
   -2.7051   -0.5195   -0.8166 C   0  0  0  0  0  0  0  0  0  0  0  0
   -2.9153   -2.6765   -1.1916 H   0  0  0  0  0  0  0  0  0  0  0  0
    0.2069    1.3399   -0.6504 H   0  0  0  0  0  0  0  0  0  0  0  0
   -2.3020    1.5742   -0.4641 H   0  0  0  0  0  0  0  0  0  0  0  0
    3.4473    2.0897   -0.7044 N   0  0  0  0  0  0  0  0  0  0  0  0
    4.5261    1.8770   -0.8054 N   0  0  0  0  0  0  0  0  0  0  0  0
   -4.6023   -0.2534   -0.6598 Br  0  0  0  0  0  0  0  0  0  0  0  0
  1  6  1  0  0  0  0
  2  1  2  0  0  0  0
  2  3  1  0  0  0  0
  3  4  2  0  0  0  0
  4  5  1  0  0  0  0
  4  8  1  0  0  0  0
  5  9  1  0  0  0  0
  6  5  2  0  0  0  0
  6 12  1  0  0  0  0
  7  1  1  0  0  0  0
 11 10  3  0  0  0  0
M  RAD  2   2   2   3   2
M  END
