Coordinates from ORCA-job 4-Br-C6H3-N2-B3LYPG-aug-cc-pVDZ-scan-d09-49-n400
 OpenBabel11091809103D

 12 12  0  0  0  0  0  0  0  0999 V2000
   -1.4050   -1.5352   -1.0744 C   0  0  0  0  0  0  0  0  0  0  0  0
   -0.0502   -1.1631   -1.0862 C   0  0  0  0  0  0  0  0  0  0  0  0
    0.2170    0.0767   -0.8788 C   0  0  0  0  0  0  0  0  0  0  0  0
   -0.5660    1.1867   -0.6338 C   0  0  0  0  0  0  0  0  0  0  0  0
   -1.9263    0.8455   -0.6162 C   0  0  0  0  0  0  0  0  0  0  0  0
   -2.3156   -0.4923   -0.8340 C   0  0  0  0  0  0  0  0  0  0  0  0
   -1.7608   -2.5529   -1.2367 H   0  0  0  0  0  0  0  0  0  0  0  0
   -0.2020    2.2014   -0.4726 H   0  0  0  0  0  0  0  0  0  0  0  0
   -2.6797    1.6096   -0.4351 H   0  0  0  0  0  0  0  0  0  0  0  0
    1.9931    0.5661   -0.8937 N   0  0  0  0  0  0  0  0  0  0  0  0
    3.0301    0.1874   -1.0204 N   0  0  0  0  0  0  0  0  0  0  0  0
   -4.1971   -0.9003   -0.7982 Br  0  0  0  0  0  0  0  0  0  0  0  0
  1  6  1  0  0  0  0
  2  1  2  0  0  0  0
  2  3  1  0  0  0  0
  3  4  2  0  0  0  0
  4  5  1  0  0  0  0
  4  8  1  0  0  0  0
  5  9  1  0  0  0  0
  6 12  1  0  0  0  0
  6  5  2  0  0  0  0
  7  1  1  0  0  0  0
 10  3  1  0  0  0  0
 11 10  2  0  0  0  0
M  RAD  2   2   2  11   2
M  END
