Coordinates from ORCA-job 4-Br-C6H3-N2-B3LYPG-aug-cc-pVDZ-scan-d09-49-n400
 OpenBabel11091809103D

 12 12  0  0  0  0  0  0  0  0999 V2000
   -1.3866   -1.5215   -1.0729 C   0  0  0  0  0  0  0  0  0  0  0  0
   -0.0175   -1.1837   -1.0913 C   0  0  0  0  0  0  0  0  0  0  0  0
    0.2320    0.0786   -0.8789 C   0  0  0  0  0  0  0  0  0  0  0  0
   -0.5616    1.1862   -0.6339 C   0  0  0  0  0  0  0  0  0  0  0  0
   -1.9195    0.8535   -0.6152 C   0  0  0  0  0  0  0  0  0  0  0  0
   -2.3023   -0.4863   -0.8339 C   0  0  0  0  0  0  0  0  0  0  0  0
   -1.7481   -2.5382   -1.2347 H   0  0  0  0  0  0  0  0  0  0  0  0
   -0.1947    2.2003   -0.4729 H   0  0  0  0  0  0  0  0  0  0  0  0
   -2.6726    1.6175   -0.4343 H   0  0  0  0  0  0  0  0  0  0  0  0
    1.9112    0.5027   -0.8999 N   0  0  0  0  0  0  0  0  0  0  0  0
    2.9808    0.2188   -1.0131 N   0  0  0  0  0  0  0  0  0  0  0  0
   -4.1836   -0.8983   -0.7991 Br  0  0  0  0  0  0  0  0  0  0  0  0
  1  6  1  0  0  0  0
  2  1  2  0  0  0  0
  2  3  1  0  0  0  0
  3  4  2  0  0  0  0
  4  5  1  0  0  0  0
  4  8  1  0  0  0  0
  5  9  1  0  0  0  0
  6 12  1  0  0  0  0
  6  5  2  0  0  0  0
  7  1  1  0  0  0  0
 10  3  1  0  0  0  0
 11 10  2  0  0  0  0
M  RAD  2   2   2  11   2
M  END
