Coordinates from ORCA-job 4-Br-C6H3-N2-B3LYPG-aug-cc-pVDZ-scan-d09-49-n400
 OpenBabel11091809103D

 12 11  0  0  0  0  0  0  0  0999 V2000
   -1.7810   -1.6963   -1.0813 C   0  0  0  0  0  0  0  0  0  0  0  0
   -0.4309   -1.3777   -1.1019 C   0  0  0  0  0  0  0  0  0  0  0  0
    0.0705   -0.2433   -0.9270 C   0  0  0  0  0  0  0  0  0  0  0  0
   -0.5792    0.9542   -0.6745 C   0  0  0  0  0  0  0  0  0  0  0  0
   -1.9756    0.7490   -0.6308 C   0  0  0  0  0  0  0  0  0  0  0  0
   -2.5384   -0.5301   -0.8281 C   0  0  0  0  0  0  0  0  0  0  0  0
   -2.2392   -2.6711   -1.2299 H   0  0  0  0  0  0  0  0  0  0  0  0
   -0.1248    1.9310   -0.5252 H   0  0  0  0  0  0  0  0  0  0  0  0
   -2.6358    1.5945   -0.4409 H   0  0  0  0  0  0  0  0  0  0  0  0
    2.9289    1.2697   -0.8205 N   0  0  0  0  0  0  0  0  0  0  0  0
    3.8938    0.7542   -0.9707 N   0  0  0  0  0  0  0  0  0  0  0  0
   -4.4510   -0.7045   -0.7492 Br  0  0  0  0  0  0  0  0  0  0  0  0
  1  6  1  0  0  0  0
  2  1  2  0  0  0  0
  2  3  1  0  0  0  0
  3  4  2  0  0  0  0
  4  5  1  0  0  0  0
  4  8  1  0  0  0  0
  5  9  1  0  0  0  0
  6 12  1  0  0  0  0
  6  5  2  0  0  0  0
  7  1  1  0  0  0  0
 11 10  3  0  0  0  0
M  RAD  2   2   2   3   2
M  END
