Coordinates from ORCA-job 4-Br-C6H3-N2-B3LYPG-aug-cc-pVDZ-scan-d09-49-n400
 OpenBabel11091809103D

 12 11  0  0  0  0  0  0  0  0999 V2000
   -1.4728   -1.5715   -1.0767 C   0  0  0  0  0  0  0  0  0  0  0  0
   -0.1379   -1.1588   -1.0794 C   0  0  0  0  0  0  0  0  0  0  0  0
    0.1740    0.0472   -0.8808 C   0  0  0  0  0  0  0  0  0  0  0  0
   -0.5839    1.1711   -0.6351 C   0  0  0  0  0  0  0  0  0  0  0  0
   -1.9505    0.8269   -0.6183 C   0  0  0  0  0  0  0  0  0  0  0  0
   -2.3626   -0.5053   -0.8339 C   0  0  0  0  0  0  0  0  0  0  0  0
   -1.8307   -2.5871   -1.2385 H   0  0  0  0  0  0  0  0  0  0  0  0
   -0.2205    2.1846   -0.4739 H   0  0  0  0  0  0  0  0  0  0  0  0
   -2.6985    1.5973   -0.4368 H   0  0  0  0  0  0  0  0  0  0  0  0
    2.2388    0.6919   -0.8843 N   0  0  0  0  0  0  0  0  0  0  0  0
    3.2298    0.2203   -1.0284 N   0  0  0  0  0  0  0  0  0  0  0  0
   -4.2478   -0.8871   -0.7939 Br  0  0  0  0  0  0  0  0  0  0  0  0
  1  6  1  0  0  0  0
  2  1  2  0  0  0  0
  2  3  1  0  0  0  0
  3  4  2  0  0  0  0
  4  5  1  0  0  0  0
  4  8  1  0  0  0  0
  5  9  1  0  0  0  0
  6 12  1  0  0  0  0
  6  5  2  0  0  0  0
  7  1  1  0  0  0  0
 11 10  3  0  0  0  0
M  RAD  2   2   2   3   2
M  END
