Coordinates from ORCA-job 4-Br-C6H3-N2-B3LYPG-aug-cc-pVDZ-scan-d09-49-n400
 OpenBabel11091809103D

 12 11  0  0  0  0  0  0  0  0999 V2000
   -2.3200   -1.8419   -1.0760 C   0  0  0  0  0  0  0  0  0  0  0  0
   -0.9374   -1.8965   -1.1651 C   0  0  0  0  0  0  0  0  0  0  0  0
   -0.1363   -0.9420   -1.0397 C   0  0  0  0  0  0  0  0  0  0  0  0
   -0.4280    0.3903   -0.7840 C   0  0  0  0  0  0  0  0  0  0  0  0
   -1.8244    0.5682   -0.6721 C   0  0  0  0  0  0  0  0  0  0  0  0
   -2.7210   -0.5122   -0.8145 C   0  0  0  0  0  0  0  0  0  0  0  0
   -3.0298   -2.6586   -1.1818 H   0  0  0  0  0  0  0  0  0  0  0  0
    0.2717    1.2166   -0.6759 H   0  0  0  0  0  0  0  0  0  0  0  0
   -2.2222    1.5624   -0.4710 H   0  0  0  0  0  0  0  0  0  0  0  0
    3.4978    2.2193   -0.6835 N   0  0  0  0  0  0  0  0  0  0  0  0
    4.5902    2.0853   -0.7727 N   0  0  0  0  0  0  0  0  0  0  0  0
   -4.6032   -0.1614   -0.6437 Br  0  0  0  0  0  0  0  0  0  0  0  0
  1  6  1  0  0  0  0
  2  1  2  0  0  0  0
  2  3  1  0  0  0  0
  3  4  2  0  0  0  0
  4  8  1  0  0  0  0
  4  5  1  0  0  0  0
  5  9  1  0  0  0  0
  6  5  2  0  0  0  0
  6 12  1  0  0  0  0
  7  1  1  0  0  0  0
 11 10  3  0  0  0  0
M  RAD  2   2   2   3   2
M  END
