Coordinates from ORCA-job 4-Br-C6H3-N2-B3LYPG-aug-cc-pVDZ-scan-d09-49-n400
 OpenBabel11091809103D

 12 11  0  0  0  0  0  0  0  0999 V2000
   -2.0903   -1.7952   -1.0810 C   0  0  0  0  0  0  0  0  0  0  0  0
   -0.7092   -1.6763   -1.1391 C   0  0  0  0  0  0  0  0  0  0  0  0
   -0.0450   -0.6251   -0.9886 C   0  0  0  0  0  0  0  0  0  0  0  0
   -0.5049    0.6572   -0.7320 C   0  0  0  0  0  0  0  0  0  0  0  0
   -1.9151    0.6551   -0.6512 C   0  0  0  0  0  0  0  0  0  0  0  0
   -2.6629   -0.5296   -0.8208 C   0  0  0  0  0  0  0  0  0  0  0  0
   -2.6889   -2.6939   -1.2078 H   0  0  0  0  0  0  0  0  0  0  0  0
    0.0844    1.5625   -0.6034 H   0  0  0  0  0  0  0  0  0  0  0  0
   -2.4410    1.5886   -0.4534 H   0  0  0  0  0  0  0  0  0  0  0  0
    3.3251    1.8324   -0.7438 N   0  0  0  0  0  0  0  0  0  0  0  0
    4.3629    1.4764   -0.8675 N   0  0  0  0  0  0  0  0  0  0  0  0
   -4.5778   -0.4226   -0.6915 Br  0  0  0  0  0  0  0  0  0  0  0  0
  1  6  1  0  0  0  0
  2  1  2  0  0  0  0
  2  3  1  0  0  0  0
  3  4  2  0  0  0  0
  4  5  1  0  0  0  0
  4  8  1  0  0  0  0
  5  9  1  0  0  0  0
  6 12  1  0  0  0  0
  6  5  2  0  0  0  0
  7  1  1  0  0  0  0
 11 10  3  0  0  0  0
M  RAD  2   2   2   3   2
M  END
