Coordinates from ORCA-job 4-Br-C6H3-N2-B3LYPG-aug-cc-pVDZ-scan-d09-49-n400
 OpenBabel11091809103D

 12 11  0  0  0  0  0  0  0  0999 V2000
   -2.0384   -1.7812   -1.0815 C   0  0  0  0  0  0  0  0  0  0  0  0
   -0.6607   -1.6259   -1.1326 C   0  0  0  0  0  0  0  0  0  0  0  0
   -0.0255   -0.5576   -0.9773 C   0  0  0  0  0  0  0  0  0  0  0  0
   -0.5200    0.7117   -0.7211 C   0  0  0  0  0  0  0  0  0  0  0  0
   -1.9301    0.6723   -0.6473 C   0  0  0  0  0  0  0  0  0  0  0  0
   -2.6455   -0.5314   -0.8223 C   0  0  0  0  0  0  0  0  0  0  0  0
   -2.6126   -2.6951   -1.2126 H   0  0  0  0  0  0  0  0  0  0  0  0
    0.0449    1.6317   -0.5884 H   0  0  0  0  0  0  0  0  0  0  0  0
   -2.4814    1.5913   -0.4507 H   0  0  0  0  0  0  0  0  0  0  0  0
    3.2738    1.7422   -0.7561 N   0  0  0  0  0  0  0  0  0  0  0  0
    4.2962    1.3468   -0.8881 N   0  0  0  0  0  0  0  0  0  0  0  0
   -4.5632   -0.4752   -0.7022 Br  0  0  0  0  0  0  0  0  0  0  0  0
  1  6  1  0  0  0  0
  2  1  2  0  0  0  0
  2  3  1  0  0  0  0
  3  4  2  0  0  0  0
  4  5  1  0  0  0  0
  4  8  1  0  0  0  0
  5  9  1  0  0  0  0
  6 12  1  0  0  0  0
  6  5  2  0  0  0  0
  7  1  1  0  0  0  0
 11 10  3  0  0  0  0
M  RAD  2   2   2   3   2
M  END
