Coordinates from ORCA-job 4-Br-C6H3-N2-B3LYPG-aug-cc-pVDZ-scan-d09-49-n400
 OpenBabel11091809103D

 12 11  0  0  0  0  0  0  0  0999 V2000
   -1.8570   -1.7242   -1.0819 C   0  0  0  0  0  0  0  0  0  0  0  0
   -0.4975   -1.4503   -1.1110 C   0  0  0  0  0  0  0  0  0  0  0  0
    0.0436   -0.3335   -0.9415 C   0  0  0  0  0  0  0  0  0  0  0  0
   -0.5638    0.8860   -0.6875 C   0  0  0  0  0  0  0  0  0  0  0  0
   -1.9661    0.7272   -0.6353 C   0  0  0  0  0  0  0  0  0  0  0  0
   -2.5730   -0.5324   -0.8266 C   0  0  0  0  0  0  0  0  0  0  0  0
   -2.3485   -2.6833   -1.2258 H   0  0  0  0  0  0  0  0  0  0  0  0
   -0.0795    1.8491   -0.5424 H   0  0  0  0  0  0  0  0  0  0  0  0
   -2.5966    1.5947   -0.4431 H   0  0  0  0  0  0  0  0  0  0  0  0
    3.0558    1.4362   -0.7982 N   0  0  0  0  0  0  0  0  0  0  0  0
    4.0099    0.9020   -0.9509 N   0  0  0  0  0  0  0  0  0  0  0  0
   -4.4899   -0.6420   -0.7358 Br  0  0  0  0  0  0  0  0  0  0  0  0
  1  6  1  0  0  0  0
  2  1  2  0  0  0  0
  2  3  1  0  0  0  0
  3  4  2  0  0  0  0
  4  5  1  0  0  0  0
  4  8  1  0  0  0  0
  5  9  1  0  0  0  0
  6 12  1  0  0  0  0
  6  5  2  0  0  0  0
  7  1  1  0  0  0  0
 11 10  3  0  0  0  0
M  RAD  2   2   2   3   2
M  END
