Coordinates from ORCA-job 4-Br-C6H3-N2-B3LYPG-aug-cc-pVDZ-scan-d09-49-n400
 OpenBabel11091809103D

 12 11  0  0  0  0  0  0  0  0999 V2000
   -1.9729   -1.7619   -1.0818 C   0  0  0  0  0  0  0  0  0  0  0  0
   -0.6006   -1.5624   -1.1247 C   0  0  0  0  0  0  0  0  0  0  0  0
   -0.0013   -0.4744   -0.9637 C   0  0  0  0  0  0  0  0  0  0  0  0
   -0.5376    0.7777   -0.7081 C   0  0  0  0  0  0  0  0  0  0  0  0
   -1.9462    0.6930   -0.6426 C   0  0  0  0  0  0  0  0  0  0  0  0
   -2.6214   -0.5328   -0.8240 C   0  0  0  0  0  0  0  0  0  0  0  0
   -2.5166   -2.6935   -1.2179 H   0  0  0  0  0  0  0  0  0  0  0  0
   -0.0029    1.7148   -0.5706 H   0  0  0  0  0  0  0  0  0  0  0  0
   -2.5278    1.5934   -0.4476 H   0  0  0  0  0  0  0  0  0  0  0  0
    3.2022    1.6294   -0.7715 N   0  0  0  0  0  0  0  0  0  0  0  0
    4.2029    1.1848   -0.9125 N   0  0  0  0  0  0  0  0  0  0  0  0
   -4.5406   -0.5386   -0.7150 Br  0  0  0  0  0  0  0  0  0  0  0  0
  1  6  1  0  0  0  0
  2  1  2  0  0  0  0
  2  3  1  0  0  0  0
  3  4  2  0  0  0  0
  4  5  1  0  0  0  0
  4  8  1  0  0  0  0
  5  9  1  0  0  0  0
  6 12  1  0  0  0  0
  6  5  2  0  0  0  0
  7  1  1  0  0  0  0
 11 10  3  0  0  0  0
M  RAD  2   2   2   3   2
M  END
