Coordinates from ORCA-job 4-Br-C6H3-N2-B3LYPG-aug-cc-pVDZ-scan-d09-49-n400
 OpenBabel11091809103D

 12 11  0  0  0  0  0  0  0  0999 V2000
   -1.7922   -1.7005   -1.0814 C   0  0  0  0  0  0  0  0  0  0  0  0
   -0.4408   -1.3880   -1.1031 C   0  0  0  0  0  0  0  0  0  0  0  0
    0.0665   -0.2561   -0.9291 C   0  0  0  0  0  0  0  0  0  0  0  0
   -0.5776    0.9445   -0.6763 C   0  0  0  0  0  0  0  0  0  0  0  0
   -1.9749    0.7458   -0.6314 C   0  0  0  0  0  0  0  0  0  0  0  0
   -2.5439   -0.5306   -0.8279 C   0  0  0  0  0  0  0  0  0  0  0  0
   -2.2551   -2.6731   -1.2294 H   0  0  0  0  0  0  0  0  0  0  0  0
   -0.1186    1.9193   -0.5276 H   0  0  0  0  0  0  0  0  0  0  0  0
   -2.6310    1.5945   -0.4412 H   0  0  0  0  0  0  0  0  0  0  0  0
    2.9499    1.2949   -0.8172 N   0  0  0  0  0  0  0  0  0  0  0  0
    3.9121    0.7747   -0.9681 N   0  0  0  0  0  0  0  0  0  0  0  0
   -4.4572   -0.6960   -0.7473 Br  0  0  0  0  0  0  0  0  0  0  0  0
  1  6  1  0  0  0  0
  2  1  2  0  0  0  0
  2  3  1  0  0  0  0
  3  4  2  0  0  0  0
  4  5  1  0  0  0  0
  4  8  1  0  0  0  0
  5  9  1  0  0  0  0
  6 12  1  0  0  0  0
  6  5  2  0  0  0  0
  7  1  1  0  0  0  0
 11 10  3  0  0  0  0
M  RAD  2   2   2   3   2
M  END
