Coordinates from ORCA-job 4-Br-C6H3-N2-B3LYPG-aug-cc-pVDZ-scan-d09-49-n400
 OpenBabel11091809103D

 12 11  0  0  0  0  0  0  0  0999 V2000
   -1.6464   -1.6448   -1.0798 C   0  0  0  0  0  0  0  0  0  0  0  0
   -0.3084   -1.2680   -1.0893 C   0  0  0  0  0  0  0  0  0  0  0  0
    0.1108   -0.1017   -0.9040 C   0  0  0  0  0  0  0  0  0  0  0  0
   -0.5891    1.0628   -0.6544 C   0  0  0  0  0  0  0  0  0  0  0  0
   -1.9740    0.7849   -0.6244 C   0  0  0  0  0  0  0  0  0  0  0  0
   -2.4665   -0.5214   -0.8307 C   0  0  0  0  0  0  0  0  0  0  0  0
   -2.0551   -2.6407   -1.2352 H   0  0  0  0  0  0  0  0  0  0  0  0
   -0.1865    2.0610   -0.4983 H   0  0  0  0  0  0  0  0  0  0  0  0
   -2.6792    1.5943   -0.4383 H   0  0  0  0  0  0  0  0  0  0  0  0
    2.6484    0.9689   -0.8585 N   0  0  0  0  0  0  0  0  0  0  0  0
    3.6519    0.5291   -0.9970 N   0  0  0  0  0  0  0  0  0  0  0  0
   -4.3687   -0.7947   -0.7701 Br  0  0  0  0  0  0  0  0  0  0  0  0
  1  6  1  0  0  0  0
  2  1  2  0  0  0  0
  2  3  1  0  0  0  0
  3  4  2  0  0  0  0
  4  5  1  0  0  0  0
  4  8  1  0  0  0  0
  5  9  1  0  0  0  0
  6 12  1  0  0  0  0
  6  5  2  0  0  0  0
  7  1  1  0  0  0  0
 11 10  3  0  0  0  0
M  RAD  2   2   2   3   2
M  END
