Coordinates from ORCA-job 4-Br-C6H3-N2-B3LYPG-aug-cc-pVDZ-scan-d09-49-n400
 OpenBabel11091809103D

 12 11  0  0  0  0  0  0  0  0999 V2000
   -2.2608   -1.8326   -1.0778 C   0  0  0  0  0  0  0  0  0  0  0  0
   -0.8766   -1.8394   -1.1585 C   0  0  0  0  0  0  0  0  0  0  0  0
   -0.1100   -0.8578   -1.0264 C   0  0  0  0  0  0  0  0  0  0  0  0
   -0.4487    0.4630   -0.7700 C   0  0  0  0  0  0  0  0  0  0  0  0
   -1.8512    0.5924   -0.6662 C   0  0  0  0  0  0  0  0  0  0  0  0
   -2.7091   -0.5180   -0.8161 C   0  0  0  0  0  0  0  0  0  0  0  0
   -2.9414   -2.6730   -1.1895 H   0  0  0  0  0  0  0  0  0  0  0  0
    0.2216    1.3124   -0.6561 H   0  0  0  0  0  0  0  0  0  0  0  0
   -2.2843    1.5718   -0.4656 H   0  0  0  0  0  0  0  0  0  0  0  0
    3.4594    2.1192   -0.6997 N   0  0  0  0  0  0  0  0  0  0  0  0
    4.5418    1.9243   -0.7981 N   0  0  0  0  0  0  0  0  0  0  0  0
   -4.6032   -0.2328   -0.6562 Br  0  0  0  0  0  0  0  0  0  0  0  0
  1  6  1  0  0  0  0
  2  1  2  0  0  0  0
  2  3  1  0  0  0  0
  3  4  2  0  0  0  0
  4  5  1  0  0  0  0
  4  8  1  0  0  0  0
  5  9  1  0  0  0  0
  6  5  2  0  0  0  0
  6 12  1  0  0  0  0
  7  1  1  0  0  0  0
 11 10  3  0  0  0  0
M  RAD  2   2   2   3   2
M  END
