Coordinates from ORCA-job 4-Br-C6H3-N2-B3LYPG-aug-cc-pVDZ-scan-d09-49-n400
 OpenBabel11091809103D

 12 11  0  0  0  0  0  0  0  0999 V2000
   -2.0280   -1.7782   -1.0815 C   0  0  0  0  0  0  0  0  0  0  0  0
   -0.6511   -1.6158   -1.1313 C   0  0  0  0  0  0  0  0  0  0  0  0
   -0.0217   -0.5443   -0.9751 C   0  0  0  0  0  0  0  0  0  0  0  0
   -0.5229    0.7223   -0.7190 C   0  0  0  0  0  0  0  0  0  0  0  0
   -1.9329    0.6756   -0.6465 C   0  0  0  0  0  0  0  0  0  0  0  0
   -2.6419   -0.5317   -0.8226 C   0  0  0  0  0  0  0  0  0  0  0  0
   -2.5973   -2.6951   -1.2134 H   0  0  0  0  0  0  0  0  0  0  0  0
    0.0371    1.6452   -0.5854 H   0  0  0  0  0  0  0  0  0  0  0  0
   -2.4891    1.5917   -0.4502 H   0  0  0  0  0  0  0  0  0  0  0  0
    3.2630    1.7242   -0.7585 N   0  0  0  0  0  0  0  0  0  0  0  0
    4.2822    1.3210   -0.8922 N   0  0  0  0  0  0  0  0  0  0  0  0
   -4.5599   -0.4855   -0.7043 Br  0  0  0  0  0  0  0  0  0  0  0  0
  1  6  1  0  0  0  0
  2  1  2  0  0  0  0
  2  3  1  0  0  0  0
  3  4  2  0  0  0  0
  4  5  1  0  0  0  0
  4  8  1  0  0  0  0
  5  9  1  0  0  0  0
  6 12  1  0  0  0  0
  6  5  2  0  0  0  0
  7  1  1  0  0  0  0
 11 10  3  0  0  0  0
M  RAD  2   2   2   3   2
M  END
