Coordinates from ORCA-job 4-Br-C6H3-N2-B3LYPG-aug-cc-pVDZ-scan-d09-49-n400
 OpenBabel11091809103D

 12 11  0  0  0  0  0  0  0  0999 V2000
   -1.7366   -1.6798   -1.0809 C   0  0  0  0  0  0  0  0  0  0  0  0
   -0.3916   -1.3387   -1.0972 C   0  0  0  0  0  0  0  0  0  0  0  0
    0.0860   -0.1945   -0.9192 C   0  0  0  0  0  0  0  0  0  0  0  0
   -0.5840    0.9913   -0.6676 C   0  0  0  0  0  0  0  0  0  0  0  0
   -1.9765    0.7610   -0.6286 C   0  0  0  0  0  0  0  0  0  0  0  0
   -2.5157   -0.5277   -0.8290 C   0  0  0  0  0  0  0  0  0  0  0  0
   -2.1774   -2.6623   -1.2320 H   0  0  0  0  0  0  0  0  0  0  0  0
   -0.1464    1.9754   -0.5160 H   0  0  0  0  0  0  0  0  0  0  0  0
   -2.6525    1.5943   -0.4399 H   0  0  0  0  0  0  0  0  0  0  0  0
    2.8405    1.1706   -0.8332 N   0  0  0  0  0  0  0  0  0  0  0  0
    3.8168    0.6761   -0.9802 N   0  0  0  0  0  0  0  0  0  0  0  0
   -4.4252   -0.7362   -0.7563 Br  0  0  0  0  0  0  0  0  0  0  0  0
  1  6  1  0  0  0  0
  2  1  2  0  0  0  0
  2  3  1  0  0  0  0
  3  4  2  0  0  0  0
  4  5  1  0  0  0  0
  4  8  1  0  0  0  0
  5  9  1  0  0  0  0
  6 12  1  0  0  0  0
  6  5  2  0  0  0  0
  7  1  1  0  0  0  0
 11 10  3  0  0  0  0
M  RAD  2   2   2   3   2
M  END
