Coordinates from ORCA-job 4-Br-C6H3-N2-B3LYPG-aug-cc-pVDZ-scan-d09-49-n400
 OpenBabel11091809103D

 12 11  0  0  0  0  0  0  0  0999 V2000
   -1.7614   -1.6891   -1.0811 C   0  0  0  0  0  0  0  0  0  0  0  0
   -0.4135   -1.3602   -1.0998 C   0  0  0  0  0  0  0  0  0  0  0  0
    0.0773   -0.2215   -0.9236 C   0  0  0  0  0  0  0  0  0  0  0  0
   -0.5816    0.9708   -0.6714 C   0  0  0  0  0  0  0  0  0  0  0  0
   -1.9763    0.7543   -0.6298 C   0  0  0  0  0  0  0  0  0  0  0  0
   -2.5285   -0.5291   -0.8285 C   0  0  0  0  0  0  0  0  0  0  0  0
   -2.2117   -2.6673   -1.2309 H   0  0  0  0  0  0  0  0  0  0  0  0
   -0.1347    1.9509   -0.5211 H   0  0  0  0  0  0  0  0  0  0  0  0
   -2.6437    1.5944   -0.4404 H   0  0  0  0  0  0  0  0  0  0  0  0
    2.8909    1.2261   -0.8261 N   0  0  0  0  0  0  0  0  0  0  0  0
    3.8605    0.7190   -0.9751 N   0  0  0  0  0  0  0  0  0  0  0  0
   -4.4398   -0.7189   -0.7523 Br  0  0  0  0  0  0  0  0  0  0  0  0
  1  6  1  0  0  0  0
  2  1  2  0  0  0  0
  2  3  1  0  0  0  0
  3  4  2  0  0  0  0
  4  5  1  0  0  0  0
  4  8  1  0  0  0  0
  5  9  1  0  0  0  0
  6 12  1  0  0  0  0
  6  5  2  0  0  0  0
  7  1  1  0  0  0  0
 11 10  3  0  0  0  0
M  RAD  2   2   2   3   2
M  END
