Coordinates from ORCA-job 4-Br-C6H3-N2-B3LYPG-aug-cc-pVDZ-scan-d09-49-n400
 OpenBabel11091809103D

 12 11  0  0  0  0  0  0  0  0999 V2000
   -2.1441   -1.8085   -1.0802 C   0  0  0  0  0  0  0  0  0  0  0  0
   -0.7611   -1.7270   -1.1453 C   0  0  0  0  0  0  0  0  0  0  0  0
   -0.0632   -0.6971   -1.0007 C   0  0  0  0  0  0  0  0  0  0  0  0
   -0.4877    0.5981   -0.7437 C   0  0  0  0  0  0  0  0  0  0  0  0
   -1.8968    0.6362   -0.6557 C   0  0  0  0  0  0  0  0  0  0  0  0
   -2.6793   -0.5267   -0.8193 C   0  0  0  0  0  0  0  0  0  0  0  0
   -2.7680   -2.6904   -1.2026 H   0  0  0  0  0  0  0  0  0  0  0  0
    0.1258    1.4878   -0.6194 H   0  0  0  0  0  0  0  0  0  0  0  0
   -2.3947    1.5847   -0.4568 H   0  0  0  0  0  0  0  0  0  0  0  0
    3.3713    1.9236   -0.7305 N   0  0  0  0  0  0  0  0  0  0  0  0
    4.4248    1.6139   -0.8457 N   0  0  0  0  0  0  0  0  0  0  0  0
   -4.5896   -0.3651   -0.6802 Br  0  0  0  0  0  0  0  0  0  0  0  0
  1  6  1  0  0  0  0
  2  1  2  0  0  0  0
  2  3  1  0  0  0  0
  3  4  2  0  0  0  0
  4  5  1  0  0  0  0
  4  8  1  0  0  0  0
  5  9  1  0  0  0  0
  6 12  1  0  0  0  0
  6  5  2  0  0  0  0
  7  1  1  0  0  0  0
 11 10  3  0  0  0  0
M  RAD  2   2   2   3   2
M  END
