Coordinates from ORCA-job 4-Br-C6H3-N2-B3LYPG-aug-cc-pVDZ-scan-d09-49-n400
 OpenBabel11091809103D

 12 11  0  0  0  0  0  0  0  0999 V2000
   -2.2783   -1.8355   -1.0773 C   0  0  0  0  0  0  0  0  0  0  0  0
   -0.8944   -1.8563   -1.1604 C   0  0  0  0  0  0  0  0  0  0  0  0
   -0.1176   -0.8825   -1.0303 C   0  0  0  0  0  0  0  0  0  0  0  0
   -0.4427    0.4418   -0.7740 C   0  0  0  0  0  0  0  0  0  0  0  0
   -1.8435    0.5854   -0.6679 C   0  0  0  0  0  0  0  0  0  0  0  0
   -2.7128   -0.5164   -0.8157 C   0  0  0  0  0  0  0  0  0  0  0  0
   -2.9675   -2.6691   -1.1873 H   0  0  0  0  0  0  0  0  0  0  0  0
    0.2363    1.2846   -0.6618 H   0  0  0  0  0  0  0  0  0  0  0  0
   -2.2664    1.5692   -0.4671 H   0  0  0  0  0  0  0  0  0  0  0  0
    3.4712    2.1486   -0.6949 N   0  0  0  0  0  0  0  0  0  0  0  0
    4.5569    1.9716   -0.7907 N   0  0  0  0  0  0  0  0  0  0  0  0
   -4.6037   -0.2120   -0.6525 Br  0  0  0  0  0  0  0  0  0  0  0  0
  1  6  1  0  0  0  0
  2  1  2  0  0  0  0
  2  3  1  0  0  0  0
  3  4  2  0  0  0  0
  4  5  1  0  0  0  0
  4  8  1  0  0  0  0
  5  9  1  0  0  0  0
  6  5  2  0  0  0  0
  6 12  1  0  0  0  0
  7  1  1  0  0  0  0
 11 10  3  0  0  0  0
M  RAD  2   2   2   3   2
M  END
