Coordinates from ORCA-job 4-Br-C6H3-N2-B3LYPG-aug-cc-pVDZ-scan-d09-49-n400
 OpenBabel11091809103D

 12 11  0  0  0  0  0  0  0  0999 V2000
   -1.8264   -1.7130   -1.0816 C   0  0  0  0  0  0  0  0  0  0  0  0
   -0.4707   -1.4202   -1.1071 C   0  0  0  0  0  0  0  0  0  0  0  0
    0.0546   -0.2962   -0.9355 C   0  0  0  0  0  0  0  0  0  0  0  0
   -0.5714    0.9141   -0.6820 C   0  0  0  0  0  0  0  0  0  0  0  0
   -1.9713    0.7361   -0.6334 C   0  0  0  0  0  0  0  0  0  0  0  0
   -2.5598   -0.5318   -0.8272 C   0  0  0  0  0  0  0  0  0  0  0  0
   -2.3040   -2.6788   -1.2276 H   0  0  0  0  0  0  0  0  0  0  0  0
   -0.0979    1.8823   -0.5354 H   0  0  0  0  0  0  0  0  0  0  0  0
   -2.6143    1.5946   -0.4421 H   0  0  0  0  0  0  0  0  0  0  0  0
    3.0098    1.3726   -0.8068 N   0  0  0  0  0  0  0  0  0  0  0  0
    3.9640    0.8384   -0.9597 N   0  0  0  0  0  0  0  0  0  0  0  0
   -4.4751   -0.6686   -0.7414 Br  0  0  0  0  0  0  0  0  0  0  0  0
  1  6  1  0  0  0  0
  2  1  2  0  0  0  0
  2  3  1  0  0  0  0
  3  4  2  0  0  0  0
  4  5  1  0  0  0  0
  4  8  1  0  0  0  0
  5  9  1  0  0  0  0
  6 12  1  0  0  0  0
  6  5  2  0  0  0  0
  7  1  1  0  0  0  0
 11 10  3  0  0  0  0
M  RAD  2   2   2   3   2
M  END
