Coordinates from ORCA-job 4-Br-C6H3-N2-B3LYPG-aug-cc-pVDZ-scan-d09-49-n400
 OpenBabel11091809103D

 12 12  0  0  0  0  0  0  0  0999 V2000
   -1.3738   -1.5148   -1.0724 C   0  0  0  0  0  0  0  0  0  0  0  0
    0.0310   -1.2955   -1.1143 C   0  0  0  0  0  0  0  0  0  0  0  0
    0.3181    0.0527   -0.8886 C   0  0  0  0  0  0  0  0  0  0  0  0
   -0.5295    1.1606   -0.6404 C   0  0  0  0  0  0  0  0  0  0  0  0
   -1.8774    0.8653   -0.6155 C   0  0  0  0  0  0  0  0  0  0  0  0
   -2.2728   -0.4779   -0.8340 C   0  0  0  0  0  0  0  0  0  0  0  0
   -1.7712   -2.5201   -1.2301 H   0  0  0  0  0  0  0  0  0  0  0  0
   -0.1573    2.1734   -0.4799 H   0  0  0  0  0  0  0  0  0  0  0  0
   -2.6192    1.6390   -0.4335 H   0  0  0  0  0  0  0  0  0  0  0  0
    1.7223    0.3284   -0.9203 N   0  0  0  0  0  0  0  0  0  0  0  0
    2.8293    0.4661   -0.9596 N   0  0  0  0  0  0  0  0  0  0  0  0
   -4.1621   -0.8475   -0.7911 Br  0  0  0  0  0  0  0  0  0  0  0  0
  1  6  1  0  0  0  0
  2  1  2  0  0  0  0
  2  3  1  0  0  0  0
  3  4  2  0  0  0  0
  4  5  1  0  0  0  0
  4  8  1  0  0  0  0
  5  9  1  0  0  0  0
  6 12  1  0  0  0  0
  6  5  2  0  0  0  0
  7  1  1  0  0  0  0
 10  3  1  0  0  0  0
 11 10  1  0  0  0  0
M  RAD  3   2   2  10   2  11   3
M  END
