Coordinates from ORCA-job 4-Br-C6H3-N2-B3LYPG-aug-cc-pVDZ-scan-d09-49-n400
 OpenBabel11091809103D

 12 11  0  0  0  0  0  0  0  0999 V2000
   -1.5449   -1.6042   -1.0784 C   0  0  0  0  0  0  0  0  0  0  0  0
   -0.2123   -1.1973   -1.0821 C   0  0  0  0  0  0  0  0  0  0  0  0
    0.1437   -0.0090   -0.8891 C   0  0  0  0  0  0  0  0  0  0  0  0
   -0.5885    1.1321   -0.6419 C   0  0  0  0  0  0  0  0  0  0  0  0
   -1.9633    0.8094   -0.6207 C   0  0  0  0  0  0  0  0  0  0  0  0
   -2.4071   -0.5132   -0.8327 C   0  0  0  0  0  0  0  0  0  0  0  0
   -1.9214   -2.6126   -1.2379 H   0  0  0  0  0  0  0  0  0  0  0  0
   -0.2148    2.1413   -0.4821 H   0  0  0  0  0  0  0  0  0  0  0  0
   -2.6963    1.5942   -0.4374 H   0  0  0  0  0  0  0  0  0  0  0  0
    2.4262    0.8063   -0.8746 N   0  0  0  0  0  0  0  0  0  0  0  0
    3.4156    0.3352   -1.0185 N   0  0  0  0  0  0  0  0  0  0  0  0
   -4.2995   -0.8528   -0.7847 Br  0  0  0  0  0  0  0  0  0  0  0  0
  1  6  1  0  0  0  0
  2  1  2  0  0  0  0
  2  3  1  0  0  0  0
  3  4  2  0  0  0  0
  4  5  1  0  0  0  0
  4  8  1  0  0  0  0
  5  9  1  0  0  0  0
  6 12  1  0  0  0  0
  6  5  2  0  0  0  0
  7  1  1  0  0  0  0
 11 10  3  0  0  0  0
M  RAD  2   2   2   3   2
M  END
