Coordinates from ORCA-job 4-Br-C6H3-N2-B3LYPG-aug-cc-pVDZ-scan-d09-49-n400
 OpenBabel11091809103D

 12 12  0  0  0  0  0  0  0  0999 V2000
   -1.3756   -1.5146   -1.0723 C   0  0  0  0  0  0  0  0  0  0  0  0
    0.0283   -1.2900   -1.1132 C   0  0  0  0  0  0  0  0  0  0  0  0
    0.3076    0.0527   -0.8880 C   0  0  0  0  0  0  0  0  0  0  0  0
   -0.5332    1.1618   -0.6400 C   0  0  0  0  0  0  0  0  0  0  0  0
   -1.8821    0.8648   -0.6153 C   0  0  0  0  0  0  0  0  0  0  0  0
   -2.2760   -0.4781   -0.8339 C   0  0  0  0  0  0  0  0  0  0  0  0
   -1.7714   -2.5204   -1.2301 H   0  0  0  0  0  0  0  0  0  0  0  0
   -0.1604    2.1743   -0.4796 H   0  0  0  0  0  0  0  0  0  0  0  0
   -2.6245    1.6381   -0.4334 H   0  0  0  0  0  0  0  0  0  0  0  0
    1.7410    0.3357   -0.9201 N   0  0  0  0  0  0  0  0  0  0  0  0
    2.8488    0.4561   -0.9626 N   0  0  0  0  0  0  0  0  0  0  0  0
   -4.1651   -0.8509   -0.7916 Br  0  0  0  0  0  0  0  0  0  0  0  0
  1  6  1  0  0  0  0
  2  1  2  0  0  0  0
  2  3  1  0  0  0  0
  3  4  2  0  0  0  0
  4  5  1  0  0  0  0
  4  8  1  0  0  0  0
  5  9  1  0  0  0  0
  6 12  1  0  0  0  0
  6  5  2  0  0  0  0
  7  1  1  0  0  0  0
 10  3  1  0  0  0  0
 11 10  1  0  0  0  0
M  RAD  3   2   2  10   2  11   3
M  END
