Coordinates from ORCA-job 4-Br-C6H3-N2-B3LYPG-aug-cc-pVDZ-scan-d09-49-n400
 OpenBabel11091809103D

 12 11  0  0  0  0  0  0  0  0999 V2000
   -2.3027   -1.8394   -1.0766 C   0  0  0  0  0  0  0  0  0  0  0  0
   -0.9194   -1.8798   -1.1631 C   0  0  0  0  0  0  0  0  0  0  0  0
   -0.1284   -0.9172   -1.0358 C   0  0  0  0  0  0  0  0  0  0  0  0
   -0.4341    0.4119   -0.7798 C   0  0  0  0  0  0  0  0  0  0  0  0
   -1.8324    0.5754   -0.6703 C   0  0  0  0  0  0  0  0  0  0  0  0
   -2.7177   -0.5140   -0.8150 C   0  0  0  0  0  0  0  0  0  0  0  0
   -3.0040   -2.6632   -1.1842 H   0  0  0  0  0  0  0  0  0  0  0  0
    0.2569    1.2451   -0.6700 H   0  0  0  0  0  0  0  0  0  0  0  0
   -2.2408    1.5653   -0.4693 H   0  0  0  0  0  0  0  0  0  0  0  0
    3.4870    2.1899   -0.6882 N   0  0  0  0  0  0  0  0  0  0  0  0
    4.5768    2.0379   -0.7802 N   0  0  0  0  0  0  0  0  0  0  0  0
   -4.6037   -0.1826   -0.6474 Br  0  0  0  0  0  0  0  0  0  0  0  0
  1  6  1  0  0  0  0
  2  1  2  0  0  0  0
  2  3  1  0  0  0  0
  3  4  2  0  0  0  0
  4  5  1  0  0  0  0
  4  8  1  0  0  0  0
  5  9  1  0  0  0  0
  6  5  2  0  0  0  0
  6 12  1  0  0  0  0
  7  1  1  0  0  0  0
 11 10  3  0  0  0  0
M  RAD  2   2   2   3   2
M  END
