Coordinates from ORCA-job 4-Br-C6H3-N2-B3LYPG-aug-cc-pVDZ-scan-d09-49-n400
 OpenBabel11091809103D

 12 11  0  0  0  0  0  0  0  0999 V2000
   -2.2081   -1.8226   -1.0790 C   0  0  0  0  0  0  0  0  0  0  0  0
   -0.8239   -1.7882   -1.1525 C   0  0  0  0  0  0  0  0  0  0  0  0
   -0.0878   -0.7843   -1.0147 C   0  0  0  0  0  0  0  0  0  0  0  0
   -0.4668    0.5253   -0.7579 C   0  0  0  0  0  0  0  0  0  0  0  0
   -1.8730    0.6127   -0.6613 C   0  0  0  0  0  0  0  0  0  0  0  0
   -2.6966   -0.5224   -0.8176 C   0  0  0  0  0  0  0  0  0  0  0  0
   -2.8628   -2.6827   -1.1957 H   0  0  0  0  0  0  0  0  0  0  0  0
    0.1776    1.3939   -0.6391 H   0  0  0  0  0  0  0  0  0  0  0  0
   -2.3363    1.5784   -0.4613 H   0  0  0  0  0  0  0  0  0  0  0  0
    3.4219    2.0305   -0.7139 N   0  0  0  0  0  0  0  0  0  0  0  0
    4.4926    1.7828   -0.8199 N   0  0  0  0  0  0  0  0  0  0  0  0
   -4.5992   -0.2940   -0.6671 Br  0  0  0  0  0  0  0  0  0  0  0  0
  1  6  1  0  0  0  0
  2  1  2  0  0  0  0
  2  3  1  0  0  0  0
  3  4  2  0  0  0  0
  4  5  1  0  0  0  0
  4  8  1  0  0  0  0
  5  9  1  0  0  0  0
  6 12  1  0  0  0  0
  6  5  2  0  0  0  0
  7  1  1  0  0  0  0
 11 10  3  0  0  0  0
M  RAD  2   2   2   3   2
M  END
