Coordinates from ORCA-job 4-Br-C6H3-N2-B3LYPG-aug-cc-pVDZ-scan-d09-49-n400
 OpenBabel11091809103D

 12 11  0  0  0  0  0  0  0  0999 V2000
   -1.6650   -1.6517   -1.0800 C   0  0  0  0  0  0  0  0  0  0  0  0
   -0.3255   -1.2817   -1.0908 C   0  0  0  0  0  0  0  0  0  0  0  0
    0.1059   -0.1199   -0.9070 C   0  0  0  0  0  0  0  0  0  0  0  0
   -0.5892    1.0486   -0.6569 C   0  0  0  0  0  0  0  0  0  0  0  0
   -1.9757    0.7804   -0.6251 C   0  0  0  0  0  0  0  0  0  0  0  0
   -2.4772   -0.5226   -0.8303 C   0  0  0  0  0  0  0  0  0  0  0  0
   -2.0799   -2.6451   -1.2345 H   0  0  0  0  0  0  0  0  0  0  0  0
   -0.1787    2.0437   -0.5019 H   0  0  0  0  0  0  0  0  0  0  0  0
   -2.6751    1.5946   -0.4385 H   0  0  0  0  0  0  0  0  0  0  0  0
    2.6869    1.0020   -0.8548 N   0  0  0  0  0  0  0  0  0  0  0  0
    3.6918    0.5645   -0.9928 N   0  0  0  0  0  0  0  0  0  0  0  0
   -4.3809   -0.7836   -0.7673 Br  0  0  0  0  0  0  0  0  0  0  0  0
  1  6  1  0  0  0  0
  2  1  2  0  0  0  0
  2  3  1  0  0  0  0
  3  4  2  0  0  0  0
  4  5  1  0  0  0  0
  4  8  1  0  0  0  0
  5  9  1  0  0  0  0
  6 12  1  0  0  0  0
  6  5  2  0  0  0  0
  7  1  1  0  0  0  0
 11 10  3  0  0  0  0
M  RAD  2   2   2   3   2
M  END
