Coordinates from ORCA-job 4-Br-C6H3-N2-B3LYPG-aug-cc-pVDZ-scan-d09-49-n400
 OpenBabel11091809103D

 12 12  0  0  0  0  0  0  0  0999 V2000
   -1.3742   -1.5151   -1.0725 C   0  0  0  0  0  0  0  0  0  0  0  0
    0.0310   -1.2991   -1.1150 C   0  0  0  0  0  0  0  0  0  0  0  0
    0.3233    0.0524   -0.8890 C   0  0  0  0  0  0  0  0  0  0  0  0
   -0.5286    1.1594   -0.6407 C   0  0  0  0  0  0  0  0  0  0  0  0
   -1.8758    0.8652   -0.6156 C   0  0  0  0  0  0  0  0  0  0  0  0
   -2.2722   -0.4780   -0.8341 C   0  0  0  0  0  0  0  0  0  0  0  0
   -1.7725   -2.5201   -1.2300 H   0  0  0  0  0  0  0  0  0  0  0  0
   -0.1567    2.1724   -0.4801 H   0  0  0  0  0  0  0  0  0  0  0  0
   -2.6172    1.6394   -0.4336 H   0  0  0  0  0  0  0  0  0  0  0  0
    1.7178    0.3256   -0.9206 N   0  0  0  0  0  0  0  0  0  0  0  0
    2.8241    0.4729   -0.9581 N   0  0  0  0  0  0  0  0  0  0  0  0
   -4.1616   -0.8455   -0.7908 Br  0  0  0  0  0  0  0  0  0  0  0  0
  1  6  1  0  0  0  0
  2  1  2  0  0  0  0
  2  3  1  0  0  0  0
  3  4  2  0  0  0  0
  4  5  1  0  0  0  0
  4  8  1  0  0  0  0
  5  9  1  0  0  0  0
  6 12  1  0  0  0  0
  6  5  2  0  0  0  0
  7  1  1  0  0  0  0
 10  3  1  0  0  0  0
 11 10  1  0  0  0  0
M  RAD  3   2   2  10   2  11   3
M  END
