Coordinates from ORCA-job 4-Br-C6H3-N2-B3LYPG-aug-cc-pVDZ-scan-d09-49-n400
 OpenBabel11091809103D

 12 11  0  0  0  0  0  0  0  0999 V2000
   -2.2713   -1.8344   -1.0775 C   0  0  0  0  0  0  0  0  0  0  0  0
   -0.8873   -1.8495   -1.1597 C   0  0  0  0  0  0  0  0  0  0  0  0
   -0.1145   -0.8726   -1.0287 C   0  0  0  0  0  0  0  0  0  0  0  0
   -0.4451    0.4503   -0.7724 C   0  0  0  0  0  0  0  0  0  0  0  0
   -1.8466    0.5882   -0.6672 C   0  0  0  0  0  0  0  0  0  0  0  0
   -2.7113   -0.5170   -0.8159 C   0  0  0  0  0  0  0  0  0  0  0  0
   -2.9571   -2.6707   -1.1882 H   0  0  0  0  0  0  0  0  0  0  0  0
    0.2304    1.2958   -0.6595 H   0  0  0  0  0  0  0  0  0  0  0  0
   -2.2736    1.5703   -0.4665 H   0  0  0  0  0  0  0  0  0  0  0  0
    3.4665    2.1369   -0.6968 N   0  0  0  0  0  0  0  0  0  0  0  0
    4.5509    1.9527   -0.7937 N   0  0  0  0  0  0  0  0  0  0  0  0
   -4.6036   -0.2203   -0.6540 Br  0  0  0  0  0  0  0  0  0  0  0  0
  1  6  1  0  0  0  0
  2  1  2  0  0  0  0
  2  3  1  0  0  0  0
  3  4  2  0  0  0  0
  4  5  1  0  0  0  0
  4  8  1  0  0  0  0
  5  9  1  0  0  0  0
  6  5  2  0  0  0  0
  6 12  1  0  0  0  0
  7  1  1  0  0  0  0
 11 10  3  0  0  0  0
M  RAD  2   2   2   3   2
M  END
