Coordinates from ORCA-job 4-Br-C6H3-N2-B3LYPG-aug-cc-pVDZ-scan-d09-49-n400
 OpenBabel11091809103D

 12 11  0  0  0  0  0  0  0  0999 V2000
   -1.9626   -1.7587   -1.0818 C   0  0  0  0  0  0  0  0  0  0  0  0
   -0.5913   -1.5525   -1.1235 C   0  0  0  0  0  0  0  0  0  0  0  0
    0.0025   -0.4617   -0.9617 C   0  0  0  0  0  0  0  0  0  0  0  0
   -0.5401    0.7877   -0.7062 C   0  0  0  0  0  0  0  0  0  0  0  0
   -1.9483    0.6961   -0.6419 C   0  0  0  0  0  0  0  0  0  0  0  0
   -2.6174   -0.5329   -0.8242 C   0  0  0  0  0  0  0  0  0  0  0  0
   -2.5017   -2.6930   -1.2187 H   0  0  0  0  0  0  0  0  0  0  0  0
   -0.0100    1.7273   -0.5679 H   0  0  0  0  0  0  0  0  0  0  0  0
   -2.5345    1.5936   -0.4472 H   0  0  0  0  0  0  0  0  0  0  0  0
    3.1900    1.6120   -0.7739 N   0  0  0  0  0  0  0  0  0  0  0  0
    4.1871    1.1596   -0.9161 N   0  0  0  0  0  0  0  0  0  0  0  0
   -4.5366   -0.5481   -0.7169 Br  0  0  0  0  0  0  0  0  0  0  0  0
  1  6  1  0  0  0  0
  2  1  2  0  0  0  0
  2  3  1  0  0  0  0
  3  4  2  0  0  0  0
  4  5  1  0  0  0  0
  4  8  1  0  0  0  0
  5  9  1  0  0  0  0
  6 12  1  0  0  0  0
  6  5  2  0  0  0  0
  7  1  1  0  0  0  0
 11 10  3  0  0  0  0
M  RAD  2   2   2   3   2
M  END
