Coordinates from ORCA-job 4-Br-C6H3-N2-B3LYPG-aug-cc-pVDZ-scan-d09-49-n400
 OpenBabel11091809103D

 12 12  0  0  0  0  0  0  0  0999 V2000
   -1.3532   -1.5068   -1.0722 C   0  0  0  0  0  0  0  0  0  0  0  0
    0.0518   -1.3541   -1.1263 C   0  0  0  0  0  0  0  0  0  0  0  0
    0.4811    0.0858   -0.8926 C   0  0  0  0  0  0  0  0  0  0  0  0
   -0.4990    1.1423   -0.6457 C   0  0  0  0  0  0  0  0  0  0  0  0
   -1.8337    0.8650   -0.6181 C   0  0  0  0  0  0  0  0  0  0  0  0
   -2.2501   -0.4745   -0.8347 C   0  0  0  0  0  0  0  0  0  0  0  0
   -1.7511   -2.5125   -1.2298 H   0  0  0  0  0  0  0  0  0  0  0  0
   -0.1240    2.1556   -0.4852 H   0  0  0  0  0  0  0  0  0  0  0  0
   -2.5630    1.6506   -0.4345 H   0  0  0  0  0  0  0  0  0  0  0  0
    1.4891    0.2979   -0.9125 N   0  0  0  0  0  0  0  0  0  0  0  0
    2.6190    0.5043   -0.9399 N   0  0  0  0  0  0  0  0  0  0  0  0
   -4.1293   -0.8241   -0.7886 Br  0  0  0  0  0  0  0  0  0  0  0  0
  1  6  1  0  0  0  0
  2  1  2  0  0  0  0
  2  3  1  0  0  0  0
  3  4  2  0  0  0  0
  4  5  1  0  0  0  0
  4  8  1  0  0  0  0
  5  9  1  0  0  0  0
  6 12  1  0  0  0  0
  6  5  2  0  0  0  0
  7  1  1  0  0  0  0
 10  3  1  0  0  0  0
 11 10  1  0  0  0  0
M  RAD  3   2   2  10   2  11   3
M  END
