Coordinates from ORCA-job 4-Br-C6H3-N2-B3LYPG-aug-cc-pVDZ-scan-d09-49-n400
 OpenBabel11091809103D

 12 11  0  0  0  0  0  0  0  0999 V2000
   -2.1548   -1.8110   -1.0800 C   0  0  0  0  0  0  0  0  0  0  0  0
   -0.7716   -1.7370   -1.1465 C   0  0  0  0  0  0  0  0  0  0  0  0
   -0.0671   -0.7115   -1.0030 C   0  0  0  0  0  0  0  0  0  0  0  0
   -0.4843    0.5861   -0.7461 C   0  0  0  0  0  0  0  0  0  0  0  0
   -1.8931    0.6323   -0.6566 C   0  0  0  0  0  0  0  0  0  0  0  0
   -2.6824   -0.5261   -0.8190 C   0  0  0  0  0  0  0  0  0  0  0  0
   -2.7838   -2.6895   -1.2015 H   0  0  0  0  0  0  0  0  0  0  0  0
    0.1343    1.4724   -0.6226 H   0  0  0  0  0  0  0  0  0  0  0  0
   -2.3853    1.5838   -0.4575 H   0  0  0  0  0  0  0  0  0  0  0  0
    3.3802    1.9415   -0.7278 N   0  0  0  0  0  0  0  0  0  0  0  0
    4.4369    1.6419   -0.8414 N   0  0  0  0  0  0  0  0  0  0  0  0
   -4.5916   -0.3535   -0.6780 Br  0  0  0  0  0  0  0  0  0  0  0  0
  1  6  1  0  0  0  0
  2  1  2  0  0  0  0
  2  3  1  0  0  0  0
  3  4  2  0  0  0  0
  4  5  1  0  0  0  0
  4  8  1  0  0  0  0
  5  9  1  0  0  0  0
  6 12  1  0  0  0  0
  6  5  2  0  0  0  0
  7  1  1  0  0  0  0
 11 10  3  0  0  0  0
M  RAD  2   2   2   3   2
M  END
