Coordinates from ORCA-job 4-Br-C6H3-N2-B3LYPG-aug-cc-pVDZ-scan-d09-49-n400
 OpenBabel11091809103D

 12 12  0  0  0  0  0  0  0  0999 V2000
   -1.3668   -1.5145   -1.0727 C   0  0  0  0  0  0  0  0  0  0  0  0
    0.0412   -1.3249   -1.1205 C   0  0  0  0  0  0  0  0  0  0  0  0
    0.3819    0.0559   -0.8928 C   0  0  0  0  0  0  0  0  0  0  0  0
   -0.5130    1.1513   -0.6434 C   0  0  0  0  0  0  0  0  0  0  0  0
   -1.8549    0.8660   -0.6167 C   0  0  0  0  0  0  0  0  0  0  0  0
   -2.2601   -0.4772   -0.8346 C   0  0  0  0  0  0  0  0  0  0  0  0
   -1.7693   -2.5180   -1.2298 H   0  0  0  0  0  0  0  0  0  0  0  0
   -0.1429    2.1655   -0.4823 H   0  0  0  0  0  0  0  0  0  0  0  0
   -2.5921    1.6441   -0.4339 H   0  0  0  0  0  0  0  0  0  0  0  0
    1.6273    0.3078   -0.9185 N   0  0  0  0  0  0  0  0  0  0  0  0
    2.7342    0.5051   -0.9461 N   0  0  0  0  0  0  0  0  0  0  0  0
   -4.1480   -0.8316   -0.7887 Br  0  0  0  0  0  0  0  0  0  0  0  0
  1  6  1  0  0  0  0
  2  1  2  0  0  0  0
  2  3  1  0  0  0  0
  3  4  2  0  0  0  0
  4  5  1  0  0  0  0
  4  8  1  0  0  0  0
  5  9  1  0  0  0  0
  6 12  1  0  0  0  0
  6  5  2  0  0  0  0
  7  1  1  0  0  0  0
 10  3  1  0  0  0  0
 11 10  1  0  0  0  0
M  RAD  3   2   2  10   2  11   3
M  END
