Coordinates from ORCA-job 4-Br-C6H3-N2-B3LYPG-aug-cc-pVDZ-scan-d09-49-n400
 OpenBabel11091809103D

 12 12  0  0  0  0  0  0  0  0999 V2000
   -1.3731   -1.5151   -1.0725 C   0  0  0  0  0  0  0  0  0  0  0  0
    0.0323   -1.2999   -1.1152 C   0  0  0  0  0  0  0  0  0  0  0  0
    0.3261    0.0526   -0.8891 C   0  0  0  0  0  0  0  0  0  0  0  0
   -0.5272    1.1594   -0.6408 C   0  0  0  0  0  0  0  0  0  0  0  0
   -1.8743    0.8654   -0.6157 C   0  0  0  0  0  0  0  0  0  0  0  0
   -2.2709   -0.4779   -0.8341 C   0  0  0  0  0  0  0  0  0  0  0  0
   -1.7716   -2.5199   -1.2300 H   0  0  0  0  0  0  0  0  0  0  0  0
   -0.1555    2.1725   -0.4802 H   0  0  0  0  0  0  0  0  0  0  0  0
   -2.6157    1.6396   -0.4336 H   0  0  0  0  0  0  0  0  0  0  0  0
    1.7107    0.3239   -0.9205 N   0  0  0  0  0  0  0  0  0  0  0  0
    2.8170    0.4738   -0.9576 N   0  0  0  0  0  0  0  0  0  0  0  0
   -4.1603   -0.8449   -0.7908 Br  0  0  0  0  0  0  0  0  0  0  0  0
  1  6  1  0  0  0  0
  2  1  2  0  0  0  0
  2  3  1  0  0  0  0
  3  4  2  0  0  0  0
  4  5  1  0  0  0  0
  4  8  1  0  0  0  0
  5  9  1  0  0  0  0
  6 12  1  0  0  0  0
  6  5  2  0  0  0  0
  7  1  1  0  0  0  0
 10  3  1  0  0  0  0
 11 10  1  0  0  0  0
M  RAD  3   2   2  10   2  11   3
M  END
