Coordinates from ORCA-job 4-Br-C6H3-N2-B3LYPG-aug-cc-pVDZ-scan-d09-49-n400
 OpenBabel11091809103D

 12 11  0  0  0  0  0  0  0  0999 V2000
   -1.5051   -1.5862   -1.0775 C   0  0  0  0  0  0  0  0  0  0  0  0
   -0.1740   -1.1693   -1.0792 C   0  0  0  0  0  0  0  0  0  0  0  0
    0.1593    0.0274   -0.8834 C   0  0  0  0  0  0  0  0  0  0  0  0
   -0.5902    1.1573   -0.6372 C   0  0  0  0  0  0  0  0  0  0  0  0
   -1.9598    0.8190   -0.6191 C   0  0  0  0  0  0  0  0  0  0  0  0
   -2.3840   -0.5097   -0.8335 C   0  0  0  0  0  0  0  0  0  0  0  0
   -1.8684   -2.5995   -1.2386 H   0  0  0  0  0  0  0  0  0  0  0  0
   -0.2245    2.1697   -0.4764 H   0  0  0  0  0  0  0  0  0  0  0  0
   -2.7029    1.5943   -0.4370 H   0  0  0  0  0  0  0  0  0  0  0  0
    2.3380    0.7438   -0.8807 N   0  0  0  0  0  0  0  0  0  0  0  0
    3.3209    0.2584   -1.0269 N   0  0  0  0  0  0  0  0  0  0  0  0
   -4.2719   -0.8757   -0.7905 Br  0  0  0  0  0  0  0  0  0  0  0  0
  1  6  1  0  0  0  0
  2  1  2  0  0  0  0
  2  3  1  0  0  0  0
  3  4  2  0  0  0  0
  4  5  1  0  0  0  0
  4  8  1  0  0  0  0
  5  9  1  0  0  0  0
  6 12  1  0  0  0  0
  6  5  2  0  0  0  0
  7  1  1  0  0  0  0
 11 10  3  0  0  0  0
M  RAD  2   2   2   3   2
M  END
