Coordinates from ORCA-job 4-Br-C6H3-N2-B3LYPG-aug-cc-pVDZ-scan-d09-49-n400
 OpenBabel11091809103D

 12 11  0  0  0  0  0  0  0  0999 V2000
   -1.8605   -1.7254   -1.0819 C   0  0  0  0  0  0  0  0  0  0  0  0
   -0.5005   -1.4538   -1.1114 C   0  0  0  0  0  0  0  0  0  0  0  0
    0.0422   -0.3378   -0.9422 C   0  0  0  0  0  0  0  0  0  0  0  0
   -0.5628    0.8828   -0.6881 C   0  0  0  0  0  0  0  0  0  0  0  0
   -1.9655    0.7262   -0.6355 C   0  0  0  0  0  0  0  0  0  0  0  0
   -2.5744   -0.5324   -0.8265 C   0  0  0  0  0  0  0  0  0  0  0  0
   -2.3536   -2.6837   -1.2256 H   0  0  0  0  0  0  0  0  0  0  0  0
   -0.0775    1.8454   -0.5432 H   0  0  0  0  0  0  0  0  0  0  0  0
   -2.5945    1.5947   -0.4433 H   0  0  0  0  0  0  0  0  0  0  0  0
    3.0601    1.4418   -0.7974 N   0  0  0  0  0  0  0  0  0  0  0  0
    4.0159    0.9105   -0.9497 N   0  0  0  0  0  0  0  0  0  0  0  0
   -4.4915   -0.6389   -0.7352 Br  0  0  0  0  0  0  0  0  0  0  0  0
  1  6  1  0  0  0  0
  2  1  2  0  0  0  0
  2  3  1  0  0  0  0
  3  4  2  0  0  0  0
  4  5  1  0  0  0  0
  4  8  1  0  0  0  0
  5  9  1  0  0  0  0
  6 12  1  0  0  0  0
  6  5  2  0  0  0  0
  7  1  1  0  0  0  0
 11 10  3  0  0  0  0
M  RAD  2   2   2   3   2
M  END
