Coordinates from ORCA-job 4-Br-C6H3-N2-B3LYPG-aug-cc-pVDZ-scan-d09-49-n400
 OpenBabel11091809103D

 12 12  0  0  0  0  0  0  0  0999 V2000
   -1.3843   -1.5192   -1.0726 C   0  0  0  0  0  0  0  0  0  0  0  0
   -0.0112   -1.1914   -1.0931 C   0  0  0  0  0  0  0  0  0  0  0  0
    0.2342    0.0769   -0.8793 C   0  0  0  0  0  0  0  0  0  0  0  0
   -0.5607    1.1851   -0.6342 C   0  0  0  0  0  0  0  0  0  0  0  0
   -1.9181    0.8551   -0.6150 C   0  0  0  0  0  0  0  0  0  0  0  0
   -2.3003   -0.4851   -0.8338 C   0  0  0  0  0  0  0  0  0  0  0  0
   -1.7481   -2.5352   -1.2341 H   0  0  0  0  0  0  0  0  0  0  0  0
   -0.1924    2.1987   -0.4733 H   0  0  0  0  0  0  0  0  0  0  0  0
   -2.6705    1.6196   -0.4341 H   0  0  0  0  0  0  0  0  0  0  0  0
    1.8963    0.4867   -0.9019 N   0  0  0  0  0  0  0  0  0  0  0  0
    2.9743    0.2345   -1.0099 N   0  0  0  0  0  0  0  0  0  0  0  0
   -4.1818   -0.8963   -0.7989 Br  0  0  0  0  0  0  0  0  0  0  0  0
  1  6  1  0  0  0  0
  2  1  2  0  0  0  0
  2  3  1  0  0  0  0
  3  4  2  0  0  0  0
  4  5  1  0  0  0  0
  4  8  1  0  0  0  0
  5  9  1  0  0  0  0
  6 12  1  0  0  0  0
  6  5  2  0  0  0  0
  7  1  1  0  0  0  0
 10  3  1  0  0  0  0
 11 10  2  0  0  0  0
M  RAD  2   2   2  11   2
M  END
