Coordinates from ORCA-job 4-Br-C6H3-N2-B3LYPG-aug-cc-pVDZ-scan-d09-49-n400
 OpenBabel11091809103D

 12 11  0  0  0  0  0  0  0  0999 V2000
   -1.6590   -1.6497   -1.0800 C   0  0  0  0  0  0  0  0  0  0  0  0
   -0.3199   -1.2779   -1.0905 C   0  0  0  0  0  0  0  0  0  0  0  0
    0.1067   -0.1143   -0.9061 C   0  0  0  0  0  0  0  0  0  0  0  0
   -0.5885    1.0533   -0.6561 C   0  0  0  0  0  0  0  0  0  0  0  0
   -1.9746    0.7817   -0.6250 C   0  0  0  0  0  0  0  0  0  0  0  0
   -2.4735   -0.5222   -0.8304 C   0  0  0  0  0  0  0  0  0  0  0  0
   -2.0722   -2.6438   -1.2347 H   0  0  0  0  0  0  0  0  0  0  0  0
   -0.1816    2.0499   -0.5006 H   0  0  0  0  0  0  0  0  0  0  0  0
   -2.6759    1.5944   -0.4385 H   0  0  0  0  0  0  0  0  0  0  0  0
    2.6736    0.9899   -0.8562 N   0  0  0  0  0  0  0  0  0  0  0  0
    3.6792    0.5547   -0.9938 N   0  0  0  0  0  0  0  0  0  0  0  0
   -4.3769   -0.7866   -0.7681 Br  0  0  0  0  0  0  0  0  0  0  0  0
  1  6  1  0  0  0  0
  2  1  2  0  0  0  0
  2  3  1  0  0  0  0
  3  4  2  0  0  0  0
  4  5  1  0  0  0  0
  4  8  1  0  0  0  0
  5  9  1  0  0  0  0
  6 12  1  0  0  0  0
  6  5  2  0  0  0  0
  7  1  1  0  0  0  0
 11 10  3  0  0  0  0
M  RAD  2   2   2   3   2
M  END
