Coordinates from ORCA-job 4-Br-C6H3-N2-B3LYPG-aug-cc-pVDZ-scan-d09-49-n400
 OpenBabel11091809103D

 12 12  0  0  0  0  0  0  0  0999 V2000
   -1.3679   -1.5147   -1.0728 C   0  0  0  0  0  0  0  0  0  0  0  0
    0.0400   -1.3245   -1.1199 C   0  0  0  0  0  0  0  0  0  0  0  0
    0.3791    0.0552   -0.8910 C   0  0  0  0  0  0  0  0  0  0  0  0
   -0.5142    1.1513   -0.6428 C   0  0  0  0  0  0  0  0  0  0  0  0
   -1.8562    0.8658   -0.6166 C   0  0  0  0  0  0  0  0  0  0  0  0
   -2.2612   -0.4773   -0.8347 C   0  0  0  0  0  0  0  0  0  0  0  0
   -1.7704   -2.5182   -1.2298 H   0  0  0  0  0  0  0  0  0  0  0  0
   -0.1441    2.1655   -0.4821 H   0  0  0  0  0  0  0  0  0  0  0  0
   -2.5936    1.6439   -0.4343 H   0  0  0  0  0  0  0  0  0  0  0  0
    1.6344    0.3089   -0.9187 N   0  0  0  0  0  0  0  0  0  0  0  0
    2.7409    0.5055   -0.9480 N   0  0  0  0  0  0  0  0  0  0  0  0
   -4.1493   -0.8318   -0.7892 Br  0  0  0  0  0  0  0  0  0  0  0  0
  1  6  1  0  0  0  0
  2  1  2  0  0  0  0
  2  3  1  0  0  0  0
  3  4  2  0  0  0  0
  4  5  1  0  0  0  0
  4  8  1  0  0  0  0
  5  9  1  0  0  0  0
  6 12  1  0  0  0  0
  6  5  2  0  0  0  0
  7  1  1  0  0  0  0
 10  3  1  0  0  0  0
 11 10  1  0  0  0  0
M  RAD  3   2   2  10   2  11   3
M  END
