Coordinates from ORCA-job 4-Br-C6H3-N2-B3LYPG-aug-cc-pVDZ-scan-d09-49-n400
 OpenBabel11091809103D

 12 11  0  0  0  0  0  0  0  0999 V2000
   -1.4478   -1.5591   -1.0760 C   0  0  0  0  0  0  0  0  0  0  0  0
   -0.1073   -1.1561   -1.0810 C   0  0  0  0  0  0  0  0  0  0  0  0
    0.1865    0.0596   -0.8795 C   0  0  0  0  0  0  0  0  0  0  0  0
   -0.5774    1.1790   -0.6342 C   0  0  0  0  0  0  0  0  0  0  0  0
   -1.9419    0.8332   -0.6176 C   0  0  0  0  0  0  0  0  0  0  0  0
   -2.3454   -0.5012   -0.8341 C   0  0  0  0  0  0  0  0  0  0  0  0
   -1.8033   -2.5759   -1.2382 H   0  0  0  0  0  0  0  0  0  0  0  0
   -0.2144    2.1930   -0.4729 H   0  0  0  0  0  0  0  0  0  0  0  0
   -2.6925    1.6009   -0.4363 H   0  0  0  0  0  0  0  0  0  0  0  0
    2.1530    0.6487   -0.8874 N   0  0  0  0  0  0  0  0  0  0  0  0
    3.1569    0.2008   -1.0270 N   0  0  0  0  0  0  0  0  0  0  0  0
   -4.2289   -0.8935   -0.7958 Br  0  0  0  0  0  0  0  0  0  0  0  0
  1  6  1  0  0  0  0
  2  1  2  0  0  0  0
  2  3  1  0  0  0  0
  3  4  2  0  0  0  0
  4  5  1  0  0  0  0
  4  8  1  0  0  0  0
  5  9  1  0  0  0  0
  6 12  1  0  0  0  0
  6  5  2  0  0  0  0
  7  1  1  0  0  0  0
 11 10  3  0  0  0  0
M  RAD  2   2   2   3   2
M  END
