Coordinates from ORCA-job 4-Br-C6H3-N2-B3LYPG-aug-cc-pVDZ-scan-d09-49-n400
 OpenBabel11091809103D

 12 11  0  0  0  0  0  0  0  0999 V2000
   -1.8915   -1.7359   -1.0819 C   0  0  0  0  0  0  0  0  0  0  0  0
   -0.5276   -1.4844   -1.1153 C   0  0  0  0  0  0  0  0  0  0  0  0
    0.0303   -0.3755   -0.9483 C   0  0  0  0  0  0  0  0  0  0  0  0
   -0.5556    0.8541   -0.6937 C   0  0  0  0  0  0  0  0  0  0  0  0
   -1.9603    0.7173   -0.6374 C   0  0  0  0  0  0  0  0  0  0  0  0
   -2.5877   -0.5326   -0.8258 C   0  0  0  0  0  0  0  0  0  0  0  0
   -2.3988   -2.6870   -1.2236 H   0  0  0  0  0  0  0  0  0  0  0  0
   -0.0578    1.8106   -0.5506 H   0  0  0  0  0  0  0  0  0  0  0  0
   -2.5764    1.5949   -0.4443 H   0  0  0  0  0  0  0  0  0  0  0  0
    3.0995    1.4930   -0.7904 N   0  0  0  0  0  0  0  0  0  0  0  0
    4.0692    0.9865   -0.9393 N   0  0  0  0  0  0  0  0  0  0  0  0
   -4.5058   -0.6115   -0.7295 Br  0  0  0  0  0  0  0  0  0  0  0  0
  1  6  1  0  0  0  0
  2  1  2  0  0  0  0
  2  3  1  0  0  0  0
  3  4  2  0  0  0  0
  4  5  1  0  0  0  0
  4  8  1  0  0  0  0
  5  9  1  0  0  0  0
  6 12  1  0  0  0  0
  6  5  2  0  0  0  0
  7  1  1  0  0  0  0
 11 10  3  0  0  0  0
M  RAD  2   2   2   3   2
M  END
