Coordinates from ORCA-job 4-Br-C6H3-N2-B3LYPG-aug-cc-pVDZ-scan-d09-49-n400
 OpenBabel11091809103D

 12 11  0  0  0  0  0  0  0  0999 V2000
   -2.0557   -1.7860   -1.0813 C   0  0  0  0  0  0  0  0  0  0  0  0
   -0.6768   -1.6427   -1.1348 C   0  0  0  0  0  0  0  0  0  0  0  0
   -0.0320   -0.5800   -0.9811 C   0  0  0  0  0  0  0  0  0  0  0  0
   -0.5150    0.6937   -0.7247 C   0  0  0  0  0  0  0  0  0  0  0  0
   -1.9253    0.6666   -0.6486 C   0  0  0  0  0  0  0  0  0  0  0  0
   -2.6515   -0.5309   -0.8218 C   0  0  0  0  0  0  0  0  0  0  0  0
   -2.6380   -2.6950   -1.2110 H   0  0  0  0  0  0  0  0  0  0  0  0
    0.0579    1.6090   -0.5933 H   0  0  0  0  0  0  0  0  0  0  0  0
   -2.4682    1.5905   -0.4515 H   0  0  0  0  0  0  0  0  0  0  0  0
    3.2913    1.7722   -0.7520 N   0  0  0  0  0  0  0  0  0  0  0  0
    4.3191    1.3898   -0.8813 N   0  0  0  0  0  0  0  0  0  0  0  0
   -4.5684   -0.4579   -0.6986 Br  0  0  0  0  0  0  0  0  0  0  0  0
  1  6  1  0  0  0  0
  2  1  2  0  0  0  0
  2  3  1  0  0  0  0
  3  4  2  0  0  0  0
  4  5  1  0  0  0  0
  4  8  1  0  0  0  0
  5  9  1  0  0  0  0
  6 12  1  0  0  0  0
  6  5  2  0  0  0  0
  7  1  1  0  0  0  0
 11 10  3  0  0  0  0
M  RAD  2   2   2   3   2
M  END
