Coordinates from ORCA-job 4-Br-C6H3-N2-B3LYPG-aug-cc-pVDZ-scan-d09-49-n400
 OpenBabel11091809103D

 12 11  0  0  0  0  0  0  0  0999 V2000
   -1.6213   -1.6350   -1.0795 C   0  0  0  0  0  0  0  0  0  0  0  0
   -0.2851   -1.2491   -1.0872 C   0  0  0  0  0  0  0  0  0  0  0  0
    0.1187   -0.0774   -0.9000 C   0  0  0  0  0  0  0  0  0  0  0  0
   -0.5899    1.0811   -0.6510 C   0  0  0  0  0  0  0  0  0  0  0  0
   -1.9724    0.7911   -0.6234 C   0  0  0  0  0  0  0  0  0  0  0  0
   -2.4523   -0.5196   -0.8312 C   0  0  0  0  0  0  0  0  0  0  0  0
   -2.0213   -2.6343   -1.2360 H   0  0  0  0  0  0  0  0  0  0  0  0
   -0.1952    2.0824   -0.4939 H   0  0  0  0  0  0  0  0  0  0  0  0
   -2.6850    1.5941   -0.4381 H   0  0  0  0  0  0  0  0  0  0  0  0
    2.5969    0.9275   -0.8629 N   0  0  0  0  0  0  0  0  0  0  0  0
    3.5965    0.4791   -1.0029 N   0  0  0  0  0  0  0  0  0  0  0  0
   -4.3521   -0.8103   -0.7739 Br  0  0  0  0  0  0  0  0  0  0  0  0
  1  6  1  0  0  0  0
  2  1  2  0  0  0  0
  2  3  1  0  0  0  0
  3  4  2  0  0  0  0
  4  5  1  0  0  0  0
  4  8  1  0  0  0  0
  5  9  1  0  0  0  0
  6 12  1  0  0  0  0
  6  5  2  0  0  0  0
  7  1  1  0  0  0  0
 11 10  3  0  0  0  0
M  RAD  2   2   2   3   2
M  END
