Coordinates from ORCA-job 4-Br-C6H3-N2-B3LYPG-aug-cc-pVDZ-scan-d09-49-n400
 OpenBabel11091809103D

 12 11  0  0  0  0  0  0  0  0999 V2000
   -1.5751   -1.6166   -1.0789 C   0  0  0  0  0  0  0  0  0  0  0  0
   -0.2415   -1.2168   -1.0839 C   0  0  0  0  0  0  0  0  0  0  0  0
    0.1335   -0.0350   -0.8932 C   0  0  0  0  0  0  0  0  0  0  0  0
   -0.5896    1.1128   -0.6453 C   0  0  0  0  0  0  0  0  0  0  0  0
   -1.9676    0.8023   -0.6217 C   0  0  0  0  0  0  0  0  0  0  0  0
   -2.4252   -0.5159   -0.8321 C   0  0  0  0  0  0  0  0  0  0  0  0
   -1.9604   -2.6216   -1.2372 H   0  0  0  0  0  0  0  0  0  0  0  0
   -0.2082    2.1191   -0.4865 H   0  0  0  0  0  0  0  0  0  0  0  0
   -2.6929    1.5940   -0.4377 H   0  0  0  0  0  0  0  0  0  0  0  0
    2.4959    0.8533   -0.8703 N   0  0  0  0  0  0  0  0  0  0  0  0
    3.4891    0.3907   -1.0127 N   0  0  0  0  0  0  0  0  0  0  0  0
   -4.3206   -0.8368   -0.7806 Br  0  0  0  0  0  0  0  0  0  0  0  0
  1  6  1  0  0  0  0
  2  1  2  0  0  0  0
  2  3  1  0  0  0  0
  3  4  2  0  0  0  0
  4  5  1  0  0  0  0
  4  8  1  0  0  0  0
  5  9  1  0  0  0  0
  6 12  1  0  0  0  0
  6  5  2  0  0  0  0
  7  1  1  0  0  0  0
 11 10  3  0  0  0  0
M  RAD  2   2   2   3   2
M  END
