Coordinates from ORCA-job 4-Br-C6H3-N2-B3LYPG-aug-cc-pVDZ-scan-d09-49-n400
 OpenBabel11091809103D

 12 12  0  0  0  0  0  0  0  0999 V2000
   -1.3603   -1.5115   -1.0726 C   0  0  0  0  0  0  0  0  0  0  0  0
    0.0473   -1.3391   -1.1230 C   0  0  0  0  0  0  0  0  0  0  0  0
    0.4259    0.0646   -0.8923 C   0  0  0  0  0  0  0  0  0  0  0  0
   -0.5046    1.1461   -0.6443 C   0  0  0  0  0  0  0  0  0  0  0  0
   -1.8431    0.8657   -0.6174 C   0  0  0  0  0  0  0  0  0  0  0  0
   -2.2539   -0.4761   -0.8348 C   0  0  0  0  0  0  0  0  0  0  0  0
   -1.7620   -2.5155   -1.2298 H   0  0  0  0  0  0  0  0  0  0  0  0
   -0.1336    2.1604   -0.4836 H   0  0  0  0  0  0  0  0  0  0  0  0
   -2.5765    1.6475   -0.4346 H   0  0  0  0  0  0  0  0  0  0  0  0
    1.5616    0.3031   -0.9156 N   0  0  0  0  0  0  0  0  0  0  0  0
    2.6755    0.5103   -0.9432 N   0  0  0  0  0  0  0  0  0  0  0  0
   -4.1388   -0.8261   -0.7888 Br  0  0  0  0  0  0  0  0  0  0  0  0
  1  6  1  0  0  0  0
  2  1  2  0  0  0  0
  2  3  1  0  0  0  0
  3  4  2  0  0  0  0
  4  5  1  0  0  0  0
  4  8  1  0  0  0  0
  5  9  1  0  0  0  0
  6 12  1  0  0  0  0
  6  5  2  0  0  0  0
  7  1  1  0  0  0  0
 10  3  1  0  0  0  0
 11 10  1  0  0  0  0
M  RAD  3   2   2  10   2  11   3
M  END
