Coordinates from ORCA-job 4-Br-C6H3-N2-B3LYPG-aug-cc-pVDZ-scan-d09-49-n400
 OpenBabel11091809103D

 12 11  0  0  0  0  0  0  0  0999 V2000
   -1.4568   -1.5637   -1.0763 C   0  0  0  0  0  0  0  0  0  0  0  0
   -0.1184   -1.1565   -1.0803 C   0  0  0  0  0  0  0  0  0  0  0  0
    0.1819    0.0554   -0.8799 C   0  0  0  0  0  0  0  0  0  0  0  0
   -0.5797    1.1764   -0.6345 C   0  0  0  0  0  0  0  0  0  0  0  0
   -1.9450    0.8309   -0.6178 C   0  0  0  0  0  0  0  0  0  0  0  0
   -2.3515   -0.5027   -0.8340 C   0  0  0  0  0  0  0  0  0  0  0  0
   -1.8129   -2.5801   -1.2384 H   0  0  0  0  0  0  0  0  0  0  0  0
   -0.2168    2.1903   -0.4732 H   0  0  0  0  0  0  0  0  0  0  0  0
   -2.6947    1.5995   -0.4365 H   0  0  0  0  0  0  0  0  0  0  0  0
    2.1842    0.6646   -0.8862 N   0  0  0  0  0  0  0  0  0  0  0  0
    3.1828    0.2068   -1.0278 N   0  0  0  0  0  0  0  0  0  0  0  0
   -4.2356   -0.8913   -0.7952 Br  0  0  0  0  0  0  0  0  0  0  0  0
  1  6  1  0  0  0  0
  2  1  2  0  0  0  0
  2  3  1  0  0  0  0
  3  4  2  0  0  0  0
  4  5  1  0  0  0  0
  4  8  1  0  0  0  0
  5  9  1  0  0  0  0
  6 12  1  0  0  0  0
  6  5  2  0  0  0  0
  7  1  1  0  0  0  0
 11 10  3  0  0  0  0
M  RAD  2   2   2   3   2
M  END
