Coordinates from ORCA-job 4-Br-C6H3-N2-B3LYPG-aug-cc-pVDZ-scan-d09-49-n400
 OpenBabel11091809103D

 12 11  0  0  0  0  0  0  0  0999 V2000
   -1.4328   -1.5508   -1.0755 C   0  0  0  0  0  0  0  0  0  0  0  0
   -0.0876   -1.1570   -1.0826 C   0  0  0  0  0  0  0  0  0  0  0  0
    0.1952    0.0660   -0.8792 C   0  0  0  0  0  0  0  0  0  0  0  0
   -0.5735    1.1825   -0.6340 C   0  0  0  0  0  0  0  0  0  0  0  0
   -1.9367    0.8374   -0.6171 C   0  0  0  0  0  0  0  0  0  0  0  0
   -2.3352   -0.4983   -0.8341 C   0  0  0  0  0  0  0  0  0  0  0  0
   -1.7877   -2.5682   -1.2378 H   0  0  0  0  0  0  0  0  0  0  0  0
   -0.2101    2.1967   -0.4728 H   0  0  0  0  0  0  0  0  0  0  0  0
   -2.6884    1.6037   -0.4358 H   0  0  0  0  0  0  0  0  0  0  0  0
    2.0988    0.6204   -0.8897 N   0  0  0  0  0  0  0  0  0  0  0  0
    3.1133    0.1937   -1.0249 N   0  0  0  0  0  0  0  0  0  0  0  0
   -4.2177   -0.8967   -0.7967 Br  0  0  0  0  0  0  0  0  0  0  0  0
  1  6  1  0  0  0  0
  2  1  2  0  0  0  0
  2  3  1  0  0  0  0
  3  4  2  0  0  0  0
  4  5  1  0  0  0  0
  4  8  1  0  0  0  0
  5  9  1  0  0  0  0
  6 12  1  0  0  0  0
  6  5  2  0  0  0  0
  7  1  1  0  0  0  0
 11 10  3  0  0  0  0
M  RAD  2   2   2   3   2
M  END
