Coordinates from ORCA-job 4-Br-C6H3-N2-B3LYPG-aug-cc-pVDZ-scan-d09-49-n400
 OpenBabel11091809103D

 12 11  0  0  0  0  0  0  0  0999 V2000
   -1.7754   -1.6943   -1.0812 C   0  0  0  0  0  0  0  0  0  0  0  0
   -0.4259   -1.3727   -1.1013 C   0  0  0  0  0  0  0  0  0  0  0  0
    0.0725   -0.2370   -0.9260 C   0  0  0  0  0  0  0  0  0  0  0  0
   -0.5800    0.9590   -0.6736 C   0  0  0  0  0  0  0  0  0  0  0  0
   -1.9759    0.7505   -0.6305 C   0  0  0  0  0  0  0  0  0  0  0  0
   -2.5356   -0.5298   -0.8282 C   0  0  0  0  0  0  0  0  0  0  0  0
   -2.2313   -2.6700   -1.2302 H   0  0  0  0  0  0  0  0  0  0  0  0
   -0.1277    1.9368   -0.5240 H   0  0  0  0  0  0  0  0  0  0  0  0
   -2.6382    1.5945   -0.4407 H   0  0  0  0  0  0  0  0  0  0  0  0
    2.9182    1.2572   -0.8221 N   0  0  0  0  0  0  0  0  0  0  0  0
    3.8844    0.7441   -0.9720 N   0  0  0  0  0  0  0  0  0  0  0  0
   -4.4478   -0.7087   -0.7501 Br  0  0  0  0  0  0  0  0  0  0  0  0
  1  6  1  0  0  0  0
  2  1  2  0  0  0  0
  2  3  1  0  0  0  0
  3  4  2  0  0  0  0
  4  5  1  0  0  0  0
  4  8  1  0  0  0  0
  5  9  1  0  0  0  0
  6 12  1  0  0  0  0
  6  5  2  0  0  0  0
  7  1  1  0  0  0  0
 11 10  3  0  0  0  0
M  RAD  2   2   2   3   2
M  END
