Coordinates from ORCA-job 4-Br-C6H3-N2-B3LYPG-aug-cc-pVDZ-scan-d09-49-n400
 OpenBabel11091809103D

 12 11  0  0  0  0  0  0  0  0999 V2000
   -1.8436   -1.7193   -1.0817 C   0  0  0  0  0  0  0  0  0  0  0  0
   -0.4859   -1.4368   -1.1092 C   0  0  0  0  0  0  0  0  0  0  0  0
    0.0488   -0.3169   -0.9389 C   0  0  0  0  0  0  0  0  0  0  0  0
   -0.5677    0.8983   -0.6851 C   0  0  0  0  0  0  0  0  0  0  0  0
   -1.9689    0.7311   -0.6344 C   0  0  0  0  0  0  0  0  0  0  0  0
   -2.5675   -0.5323   -0.8269 C   0  0  0  0  0  0  0  0  0  0  0  0
   -2.3288   -2.6814   -1.2266 H   0  0  0  0  0  0  0  0  0  0  0  0
   -0.0867    1.8630   -0.5395 H   0  0  0  0  0  0  0  0  0  0  0  0
   -2.6049    1.5946   -0.4427 H   0  0  0  0  0  0  0  0  0  0  0  0
    3.0383    1.4124   -0.8014 N   0  0  0  0  0  0  0  0  0  0  0  0
    3.9882    0.8709   -0.9553 N   0  0  0  0  0  0  0  0  0  0  0  0
   -4.4837   -0.6542   -0.7384 Br  0  0  0  0  0  0  0  0  0  0  0  0
  1  6  1  0  0  0  0
  2  1  2  0  0  0  0
  2  3  1  0  0  0  0
  3  4  2  0  0  0  0
  4  5  1  0  0  0  0
  4  8  1  0  0  0  0
  5  9  1  0  0  0  0
  6 12  1  0  0  0  0
  6  5  2  0  0  0  0
  7  1  1  0  0  0  0
 11 10  3  0  0  0  0
M  RAD  2   2   2   3   2
M  END
