Coordinates from ORCA-job 4-Br-C6H3-N2-B3LYPG-aug-cc-pVDZ-scan-d09-49-n400
 OpenBabel11091809103D

 12 11  0  0  0  0  0  0  0  0999 V2000
   -1.5630   -1.6116   -1.0787 C   0  0  0  0  0  0  0  0  0  0  0  0
   -0.2298   -1.2089   -1.0831 C   0  0  0  0  0  0  0  0  0  0  0  0
    0.1375   -0.0245   -0.8915 C   0  0  0  0  0  0  0  0  0  0  0  0
   -0.5892    1.1206   -0.6439 C   0  0  0  0  0  0  0  0  0  0  0  0
   -1.9659    0.8051   -0.6213 C   0  0  0  0  0  0  0  0  0  0  0  0
   -2.4180   -0.5148   -0.8324 C   0  0  0  0  0  0  0  0  0  0  0  0
   -1.9448   -2.6181   -1.2375 H   0  0  0  0  0  0  0  0  0  0  0  0
   -0.2109    2.1281   -0.4847 H   0  0  0  0  0  0  0  0  0  0  0  0
   -2.6944    1.5941   -0.4376 H   0  0  0  0  0  0  0  0  0  0  0  0
    2.4682    0.8343   -0.8720 N   0  0  0  0  0  0  0  0  0  0  0  0
    3.4598    0.3684   -1.0151 N   0  0  0  0  0  0  0  0  0  0  0  0
   -4.3122   -0.8433   -0.7822 Br  0  0  0  0  0  0  0  0  0  0  0  0
  1  6  1  0  0  0  0
  2  1  2  0  0  0  0
  2  3  1  0  0  0  0
  3  4  2  0  0  0  0
  4  5  1  0  0  0  0
  4  8  1  0  0  0  0
  5  9  1  0  0  0  0
  6 12  1  0  0  0  0
  6  5  2  0  0  0  0
  7  1  1  0  0  0  0
 11 10  3  0  0  0  0
M  RAD  2   2   2   3   2
M  END
