Coordinates from ORCA-job 4-Br-C6H3-N2-B3LYPG-aug-cc-pVDZ-scan-d09-49-n400
 OpenBabel11091809103D

 12 11  0  0  0  0  0  0  0  0999 V2000
   -1.6760   -1.6560   -1.0801 C   0  0  0  0  0  0  0  0  0  0  0  0
   -0.3366   -1.2884   -1.0914 C   0  0  0  0  0  0  0  0  0  0  0  0
    0.1043   -0.1300   -0.9087 C   0  0  0  0  0  0  0  0  0  0  0  0
   -0.5896    1.0402   -0.6584 C   0  0  0  0  0  0  0  0  0  0  0  0
   -1.9767    0.7775   -0.6256 C   0  0  0  0  0  0  0  0  0  0  0  0
   -2.4836   -0.5236   -0.8301 C   0  0  0  0  0  0  0  0  0  0  0  0
   -2.0941   -2.6481   -1.2342 H   0  0  0  0  0  0  0  0  0  0  0  0
   -0.1740    2.0334   -0.5040 H   0  0  0  0  0  0  0  0  0  0  0  0
   -2.6729    1.5944   -0.4387 H   0  0  0  0  0  0  0  0  0  0  0  0
    2.7129    1.0286   -0.8515 N   0  0  0  0  0  0  0  0  0  0  0  0
    3.7119    0.5790   -0.9914 N   0  0  0  0  0  0  0  0  0  0  0  0
   -4.3882   -0.7774   -0.7658 Br  0  0  0  0  0  0  0  0  0  0  0  0
  1  6  1  0  0  0  0
  2  1  2  0  0  0  0
  2  3  1  0  0  0  0
  3  4  2  0  0  0  0
  4  5  1  0  0  0  0
  4  8  1  0  0  0  0
  5  9  1  0  0  0  0
  6 12  1  0  0  0  0
  6  5  2  0  0  0  0
  7  1  1  0  0  0  0
 11 10  3  0  0  0  0
M  RAD  2   2   2   3   2
M  END
