Coordinates from ORCA-job 4-Br-C6H3-N2-B3LYPG-aug-cc-pVDZ-scan-d09-49-n400
 OpenBabel11091809103D

 12 11  0  0  0  0  0  0  0  0999 V2000
   -1.8408   -1.7182   -1.0817 C   0  0  0  0  0  0  0  0  0  0  0  0
   -0.4834   -1.4340   -1.1089 C   0  0  0  0  0  0  0  0  0  0  0  0
    0.0497   -0.3135   -0.9383 C   0  0  0  0  0  0  0  0  0  0  0  0
   -0.5684    0.9010   -0.6846 C   0  0  0  0  0  0  0  0  0  0  0  0
   -1.9693    0.7320   -0.6342 C   0  0  0  0  0  0  0  0  0  0  0  0
   -2.5662   -0.5322   -0.8269 C   0  0  0  0  0  0  0  0  0  0  0  0
   -2.3246   -2.6810   -1.2268 H   0  0  0  0  0  0  0  0  0  0  0  0
   -0.0886    1.8662   -0.5388 H   0  0  0  0  0  0  0  0  0  0  0  0
   -2.6065    1.5946   -0.4426 H   0  0  0  0  0  0  0  0  0  0  0  0
    3.0336    1.4057   -0.8023 N   0  0  0  0  0  0  0  0  0  0  0  0
    3.9842    0.8654   -0.9560 N   0  0  0  0  0  0  0  0  0  0  0  0
   -4.4823   -0.6566   -0.7389 Br  0  0  0  0  0  0  0  0  0  0  0  0
  1  6  1  0  0  0  0
  2  1  2  0  0  0  0
  2  3  1  0  0  0  0
  3  4  2  0  0  0  0
  4  5  1  0  0  0  0
  4  8  1  0  0  0  0
  5  9  1  0  0  0  0
  6 12  1  0  0  0  0
  6  5  2  0  0  0  0
  7  1  1  0  0  0  0
 11 10  3  0  0  0  0
M  RAD  2   2   2   3   2
M  END
