Coordinates from ORCA-job 4-Br-C6H3-N2-B3LYPG-aug-cc-pVDZ-scan-d09-49-n400
 OpenBabel11091809103D

 12 11  0  0  0  0  0  0  0  0999 V2000
   -2.1727   -1.8151   -1.0797 C   0  0  0  0  0  0  0  0  0  0  0  0
   -0.7890   -1.7540   -1.1485 C   0  0  0  0  0  0  0  0  0  0  0  0
   -0.0738   -0.7356   -1.0069 C   0  0  0  0  0  0  0  0  0  0  0  0
   -0.4786    0.5661   -0.7500 C   0  0  0  0  0  0  0  0  0  0  0  0
   -1.8866    0.6259   -0.6581 C   0  0  0  0  0  0  0  0  0  0  0  0
   -2.6874   -0.5249   -0.8185 C   0  0  0  0  0  0  0  0  0  0  0  0
   -2.8102   -2.6875   -1.1996 H   0  0  0  0  0  0  0  0  0  0  0  0
    0.1485    1.4466   -0.6281 H   0  0  0  0  0  0  0  0  0  0  0  0
   -2.3693    1.5821   -0.4587 H   0  0  0  0  0  0  0  0  0  0  0  0
    3.3947    1.9712   -0.7232 N   0  0  0  0  0  0  0  0  0  0  0  0
    4.4563    1.6887   -0.8342 N   0  0  0  0  0  0  0  0  0  0  0  0
   -4.5946   -0.3339   -0.6744 Br  0  0  0  0  0  0  0  0  0  0  0  0
  1  6  1  0  0  0  0
  2  1  2  0  0  0  0
  2  3  1  0  0  0  0
  3  4  2  0  0  0  0
  4  5  1  0  0  0  0
  4  8  1  0  0  0  0
  5  9  1  0  0  0  0
  6 12  1  0  0  0  0
  6  5  2  0  0  0  0
  7  1  1  0  0  0  0
 11 10  3  0  0  0  0
M  RAD  2   2   2   3   2
M  END
