Coordinates from ORCA-job 4-Br-C6H3-N2-B3LYPG-aug-cc-pVDZ-scan-d09-49-n400
 OpenBabel11091809103D

 12 12  0  0  0  0  0  0  0  0999 V2000
   -1.3662   -1.5141   -1.0728 C   0  0  0  0  0  0  0  0  0  0  0  0
    0.0418   -1.3288   -1.1207 C   0  0  0  0  0  0  0  0  0  0  0  0
    0.3911    0.0568   -0.8909 C   0  0  0  0  0  0  0  0  0  0  0  0
   -0.5116    1.1497   -0.6431 C   0  0  0  0  0  0  0  0  0  0  0  0
   -1.8527    0.8658   -0.6168 C   0  0  0  0  0  0  0  0  0  0  0  0
   -2.2593   -0.4771   -0.8347 C   0  0  0  0  0  0  0  0  0  0  0  0
   -1.7689   -2.5176   -1.2299 H   0  0  0  0  0  0  0  0  0  0  0  0
   -0.1415    2.1641   -0.4824 H   0  0  0  0  0  0  0  0  0  0  0  0
   -2.5890    1.6448   -0.4345 H   0  0  0  0  0  0  0  0  0  0  0  0
    1.6163    0.3073   -0.9180 N   0  0  0  0  0  0  0  0  0  0  0  0
    2.7241    0.5084   -0.9470 N   0  0  0  0  0  0  0  0  0  0  0  0
   -4.1467   -0.8299   -0.7892 Br  0  0  0  0  0  0  0  0  0  0  0  0
  1  6  1  0  0  0  0
  2  1  2  0  0  0  0
  2  3  1  0  0  0  0
  3  4  2  0  0  0  0
  4  5  1  0  0  0  0
  4  8  1  0  0  0  0
  5  9  1  0  0  0  0
  6 12  1  0  0  0  0
  6  5  2  0  0  0  0
  7  1  1  0  0  0  0
 10  3  1  0  0  0  0
 11 10  1  0  0  0  0
M  RAD  3   2   2  10   2  11   3
M  END
