Coordinates from ORCA-job 4-Br-C6H3-N2-B3LYPG-aug-cc-pVDZ-scan-d09-49-n400
 OpenBabel11091809103D

 12 11  0  0  0  0  0  0  0  0999 V2000
   -2.1041   -1.7988   -1.0808 C   0  0  0  0  0  0  0  0  0  0  0  0
   -0.7223   -1.6897   -1.1408 C   0  0  0  0  0  0  0  0  0  0  0  0
   -0.0503   -0.6433   -0.9917 C   0  0  0  0  0  0  0  0  0  0  0  0
   -0.5007    0.6424   -0.7349 C   0  0  0  0  0  0  0  0  0  0  0  0
   -1.9108    0.6504   -0.6523 C   0  0  0  0  0  0  0  0  0  0  0  0
   -2.6673   -0.5290   -0.8205 C   0  0  0  0  0  0  0  0  0  0  0  0
   -2.7093   -2.6932   -1.2065 H   0  0  0  0  0  0  0  0  0  0  0  0
    0.0951    1.5436   -0.6075 H   0  0  0  0  0  0  0  0  0  0  0  0
   -2.4297    1.5877   -0.4542 H   0  0  0  0  0  0  0  0  0  0  0  0
    3.3381    1.8566   -0.7403 N   0  0  0  0  0  0  0  0  0  0  0  0
    4.3798    1.5112   -0.8619 N   0  0  0  0  0  0  0  0  0  0  0  0
   -4.5812   -0.4082   -0.6886 Br  0  0  0  0  0  0  0  0  0  0  0  0
  1  6  1  0  0  0  0
  2  1  2  0  0  0  0
  2  3  1  0  0  0  0
  3  4  2  0  0  0  0
  4  5  1  0  0  0  0
  4  8  1  0  0  0  0
  5  9  1  0  0  0  0
  6 12  1  0  0  0  0
  6  5  2  0  0  0  0
  7  1  1  0  0  0  0
 11 10  3  0  0  0  0
M  RAD  2   2   2   3   2
M  END
