Coordinates from ORCA-job 4-Br-C6H3-N2-B3LYPG-aug-cc-pVDZ-scan-d09-49-n400
 OpenBabel11091809103D

 12 12  0  0  0  0  0  0  0  0999 V2000
   -1.3724   -1.5152   -1.0726 C   0  0  0  0  0  0  0  0  0  0  0  0
    0.0336   -1.3040   -1.1160 C   0  0  0  0  0  0  0  0  0  0  0  0
    0.3341    0.0527   -0.8895 C   0  0  0  0  0  0  0  0  0  0  0  0
   -0.5250    1.1582   -0.6411 C   0  0  0  0  0  0  0  0  0  0  0  0
   -1.8712    0.8656   -0.6158 C   0  0  0  0  0  0  0  0  0  0  0  0
   -2.2692   -0.4778   -0.8342 C   0  0  0  0  0  0  0  0  0  0  0  0
   -1.7719   -2.5198   -1.2300 H   0  0  0  0  0  0  0  0  0  0  0  0
   -0.1537    2.1715   -0.4805 H   0  0  0  0  0  0  0  0  0  0  0  0
   -2.6121    1.6403   -0.4337 H   0  0  0  0  0  0  0  0  0  0  0  0
    1.6990    0.3201   -0.9205 N   0  0  0  0  0  0  0  0  0  0  0  0
    2.8048    0.4805   -0.9556 N   0  0  0  0  0  0  0  0  0  0  0  0
   -4.1586   -0.8425   -0.7904 Br  0  0  0  0  0  0  0  0  0  0  0  0
  1  6  1  0  0  0  0
  2  1  2  0  0  0  0
  2  3  1  0  0  0  0
  3  4  2  0  0  0  0
  4  5  1  0  0  0  0
  4  8  1  0  0  0  0
  5  9  1  0  0  0  0
  6 12  1  0  0  0  0
  6  5  2  0  0  0  0
  7  1  1  0  0  0  0
 10  3  1  0  0  0  0
 11 10  1  0  0  0  0
M  RAD  3   2   2  10   2  11   3
M  END
