Coordinates from ORCA-job 4-Br-C6H3-N2-B3LYPG-aug-cc-pVDZ-scan-d09-49-n400
 OpenBabel11091809103D

 12 11  0  0  0  0  0  0  0  0999 V2000
   -1.4413   -1.5556   -1.0758 C   0  0  0  0  0  0  0  0  0  0  0  0
   -0.0988   -1.1562   -1.0817 C   0  0  0  0  0  0  0  0  0  0  0  0
    0.1902    0.0624   -0.8793 C   0  0  0  0  0  0  0  0  0  0  0  0
   -0.5757    1.1807   -0.6341 C   0  0  0  0  0  0  0  0  0  0  0  0
   -1.9396    0.8350   -0.6174 C   0  0  0  0  0  0  0  0  0  0  0  0
   -2.3410   -0.4999   -0.8341 C   0  0  0  0  0  0  0  0  0  0  0  0
   -1.7965   -2.5727   -1.2381 H   0  0  0  0  0  0  0  0  0  0  0  0
   -0.2126    2.1948   -0.4728 H   0  0  0  0  0  0  0  0  0  0  0  0
   -2.6908    1.6020   -0.4361 H   0  0  0  0  0  0  0  0  0  0  0  0
    2.1297    0.6367   -0.8883 N   0  0  0  0  0  0  0  0  0  0  0  0
    3.1379    0.1972   -1.0261 N   0  0  0  0  0  0  0  0  0  0  0  0
   -4.2241   -0.8949   -0.7962 Br  0  0  0  0  0  0  0  0  0  0  0  0
  1  6  1  0  0  0  0
  2  1  2  0  0  0  0
  2  3  1  0  0  0  0
  3  4  2  0  0  0  0
  4  5  1  0  0  0  0
  4  8  1  0  0  0  0
  5  9  1  0  0  0  0
  6 12  1  0  0  0  0
  6  5  2  0  0  0  0
  7  1  1  0  0  0  0
 11 10  3  0  0  0  0
M  RAD  2   2   2   3   2
M  END
