Coordinates from ORCA-job 4-Br-C6H3-N2-B3LYPG-aug-cc-pVDZ-scan-d09-49-n400
 OpenBabel11091809103D

 12 11  0  0  0  0  0  0  0  0999 V2000
   -1.6980   -1.6648   -1.0805 C   0  0  0  0  0  0  0  0  0  0  0  0
   -0.3570   -1.3055   -1.0933 C   0  0  0  0  0  0  0  0  0  0  0  0
    0.0985   -0.1527   -0.9125 C   0  0  0  0  0  0  0  0  0  0  0  0
   -0.5880    1.0228   -0.6617 C   0  0  0  0  0  0  0  0  0  0  0  0
   -1.9770    0.7715   -0.6267 C   0  0  0  0  0  0  0  0  0  0  0  0
   -2.4955   -0.5253   -0.8297 C   0  0  0  0  0  0  0  0  0  0  0  0
   -2.1238   -2.6536   -1.2335 H   0  0  0  0  0  0  0  0  0  0  0  0
   -0.1649    2.0130   -0.5082 H   0  0  0  0  0  0  0  0  0  0  0  0
   -2.6662    1.5942   -0.4391 H   0  0  0  0  0  0  0  0  0  0  0  0
    2.7608    1.0810   -0.8448 N   0  0  0  0  0  0  0  0  0  0  0  0
    3.7503    0.6120   -0.9877 N   0  0  0  0  0  0  0  0  0  0  0  0
   -4.4019   -0.7631   -0.7625 Br  0  0  0  0  0  0  0  0  0  0  0  0
  1  6  1  0  0  0  0
  2  1  2  0  0  0  0
  2  3  1  0  0  0  0
  3  4  2  0  0  0  0
  4  5  1  0  0  0  0
  4  8  1  0  0  0  0
  5  9  1  0  0  0  0
  6 12  1  0  0  0  0
  6  5  2  0  0  0  0
  7  1  1  0  0  0  0
 11 10  3  0  0  0  0
M  RAD  2   2   2   3   2
M  END
