Coordinates from ORCA-job 4-Br-C6H3-N2-B3LYPG-aug-cc-pVDZ-scan-d09-49-n400
 OpenBabel11091809103D

 12 11  0  0  0  0  0  0  0  0999 V2000
   -1.5540   -1.6079   -1.0785 C   0  0  0  0  0  0  0  0  0  0  0  0
   -0.2210   -1.2031   -1.0826 C   0  0  0  0  0  0  0  0  0  0  0  0
    0.1406   -0.0167   -0.8903 C   0  0  0  0  0  0  0  0  0  0  0  0
   -0.5888    1.1264   -0.6429 C   0  0  0  0  0  0  0  0  0  0  0  0
   -1.9646    0.8073   -0.6210 C   0  0  0  0  0  0  0  0  0  0  0  0
   -2.4125   -0.5140   -0.8326 C   0  0  0  0  0  0  0  0  0  0  0  0
   -1.9331   -2.6154   -1.2377 H   0  0  0  0  0  0  0  0  0  0  0  0
   -0.2129    2.1348   -0.4834 H   0  0  0  0  0  0  0  0  0  0  0  0
   -2.6953    1.5942   -0.4375 H   0  0  0  0  0  0  0  0  0  0  0  0
    2.4472    0.8203   -0.8733 N   0  0  0  0  0  0  0  0  0  0  0  0
    3.4378    0.3518   -1.0168 N   0  0  0  0  0  0  0  0  0  0  0  0
   -4.3059   -0.8481   -0.7835 Br  0  0  0  0  0  0  0  0  0  0  0  0
  1  6  1  0  0  0  0
  2  1  2  0  0  0  0
  2  3  1  0  0  0  0
  3  4  2  0  0  0  0
  4  5  1  0  0  0  0
  4  8  1  0  0  0  0
  5  9  1  0  0  0  0
  6 12  1  0  0  0  0
  6  5  2  0  0  0  0
  7  1  1  0  0  0  0
 11 10  3  0  0  0  0
M  RAD  2   2   2   3   2
M  END
