Coordinates from ORCA-job 4-Br-C6H3-N2-B3LYPG-aug-cc-pVDZ-scan-d09-49-n400
 OpenBabel11091809103D

 12 12  0  0  0  0  0  0  0  0999 V2000
   -1.3579   -1.5098   -1.0724 C   0  0  0  0  0  0  0  0  0  0  0  0
    0.0490   -1.3453   -1.1243 C   0  0  0  0  0  0  0  0  0  0  0  0
    0.4476    0.0715   -0.8925 C   0  0  0  0  0  0  0  0  0  0  0  0
   -0.5023    1.1441   -0.6449 C   0  0  0  0  0  0  0  0  0  0  0  0
   -1.8392    0.8654   -0.6177 C   0  0  0  0  0  0  0  0  0  0  0  0
   -2.2524   -0.4756   -0.8348 C   0  0  0  0  0  0  0  0  0  0  0  0
   -1.7584   -2.5143   -1.2299 H   0  0  0  0  0  0  0  0  0  0  0  0
   -0.1300    2.1582   -0.4843 H   0  0  0  0  0  0  0  0  0  0  0  0
   -2.5708    1.6488   -0.4346 H   0  0  0  0  0  0  0  0  0  0  0  0
    1.5338    0.3016   -0.9143 N   0  0  0  0  0  0  0  0  0  0  0  0
    2.6532    0.5097   -0.9418 N   0  0  0  0  0  0  0  0  0  0  0  0
   -4.1352   -0.8248   -0.7886 Br  0  0  0  0  0  0  0  0  0  0  0  0
  1  6  1  0  0  0  0
  2  1  2  0  0  0  0
  2  3  1  0  0  0  0
  3  4  2  0  0  0  0
  4  5  1  0  0  0  0
  4  8  1  0  0  0  0
  5  9  1  0  0  0  0
  6 12  1  0  0  0  0
  6  5  2  0  0  0  0
  7  1  1  0  0  0  0
 10  3  1  0  0  0  0
 11 10  1  0  0  0  0
M  RAD  3   2   2  10   2  11   3
M  END
