Coordinates from ORCA-job 4-Br-C6H3-N2-B3LYPG-aug-cc-pVDZ-scan-d09-49-n400
 OpenBabel11091809103D

 12 11  0  0  0  0  0  0  0  0999 V2000
   -1.5389   -1.6017   -1.0783 C   0  0  0  0  0  0  0  0  0  0  0  0
   -0.2064   -1.1935   -1.0817 C   0  0  0  0  0  0  0  0  0  0  0  0
    0.1458   -0.0038   -0.8883 C   0  0  0  0  0  0  0  0  0  0  0  0
   -0.5882    1.1359   -0.6412 C   0  0  0  0  0  0  0  0  0  0  0  0
   -1.9625    0.8108   -0.6205 C   0  0  0  0  0  0  0  0  0  0  0  0
   -2.4034   -0.5126   -0.8328 C   0  0  0  0  0  0  0  0  0  0  0  0
   -1.9136   -2.6108   -1.2380 H   0  0  0  0  0  0  0  0  0  0  0  0
   -0.2161    2.1456   -0.4812 H   0  0  0  0  0  0  0  0  0  0  0  0
   -2.6969    1.5943   -0.4374 H   0  0  0  0  0  0  0  0  0  0  0  0
    2.4122    0.7970   -0.8755 N   0  0  0  0  0  0  0  0  0  0  0  0
    3.4008    0.3241   -1.0197 N   0  0  0  0  0  0  0  0  0  0  0  0
   -4.2953   -0.8560   -0.7855 Br  0  0  0  0  0  0  0  0  0  0  0  0
  1  6  1  0  0  0  0
  2  1  2  0  0  0  0
  2  3  1  0  0  0  0
  3  4  2  0  0  0  0
  4  5  1  0  0  0  0
  4  8  1  0  0  0  0
  5  9  1  0  0  0  0
  6 12  1  0  0  0  0
  6  5  2  0  0  0  0
  7  1  1  0  0  0  0
 11 10  3  0  0  0  0
M  RAD  2   2   2   3   2
M  END
