Coordinates from ORCA-job 4-Br-C6H3-N2-B3LYPG-aug-cc-pVDZ-scan-d09-49-n400
 OpenBabel11091809103D

 12 11  0  0  0  0  0  0  0  0999 V2000
   -2.1833   -1.8174   -1.0795 C   0  0  0  0  0  0  0  0  0  0  0  0
   -0.7995   -1.7643   -1.1497 C   0  0  0  0  0  0  0  0  0  0  0  0
   -0.0779   -0.7502   -1.0093 C   0  0  0  0  0  0  0  0  0  0  0  0
   -0.4751    0.5539   -0.7523 C   0  0  0  0  0  0  0  0  0  0  0  0
   -1.8826    0.6220   -0.6591 C   0  0  0  0  0  0  0  0  0  0  0  0
   -2.6902   -0.5242   -0.8183 C   0  0  0  0  0  0  0  0  0  0  0  0
   -2.8260   -2.6862   -1.1984 H   0  0  0  0  0  0  0  0  0  0  0  0
    0.1572    1.4309   -0.6314 H   0  0  0  0  0  0  0  0  0  0  0  0
   -2.3595    1.5811   -0.4595 H   0  0  0  0  0  0  0  0  0  0  0  0
    3.4030    1.9890   -0.7204 N   0  0  0  0  0  0  0  0  0  0  0  0
    4.4675    1.7169   -0.8299 N   0  0  0  0  0  0  0  0  0  0  0  0
   -4.5961   -0.3220   -0.6722 Br  0  0  0  0  0  0  0  0  0  0  0  0
  1  6  1  0  0  0  0
  2  1  2  0  0  0  0
  2  3  1  0  0  0  0
  3  4  2  0  0  0  0
  4  5  1  0  0  0  0
  4  8  1  0  0  0  0
  5  9  1  0  0  0  0
  6 12  1  0  0  0  0
  6  5  2  0  0  0  0
  7  1  1  0  0  0  0
 11 10  3  0  0  0  0
M  RAD  2   2   2   3   2
M  END
