Coordinates from ORCA-job 4-Br-C6H3-N2-B3LYPG-aug-cc-pVDZ-scan-d09-49-n400
 OpenBabel11091809103D

 12 11  0  0  0  0  0  0  0  0999 V2000
   -1.9320   -1.7491   -1.0819 C   0  0  0  0  0  0  0  0  0  0  0  0
   -0.5637   -1.5232   -1.1199 C   0  0  0  0  0  0  0  0  0  0  0  0
    0.0141   -0.4242   -0.9558 C   0  0  0  0  0  0  0  0  0  0  0  0
   -0.5470    0.8170   -0.7007 C   0  0  0  0  0  0  0  0  0  0  0  0
   -1.9539    0.7053   -0.6399 C   0  0  0  0  0  0  0  0  0  0  0  0
   -2.6049   -0.5330   -0.8249 C   0  0  0  0  0  0  0  0  0  0  0  0
   -2.4573   -2.6909   -1.2209 H   0  0  0  0  0  0  0  0  0  0  0  0
   -0.0306    1.7639   -0.5603 H   0  0  0  0  0  0  0  0  0  0  0  0
   -2.5534    1.5942   -0.4459 H   0  0  0  0  0  0  0  0  0  0  0  0
    3.1522    1.5604   -0.7811 N   0  0  0  0  0  0  0  0  0  0  0  0
    4.1380    1.0850   -0.9263 N   0  0  0  0  0  0  0  0  0  0  0  0
   -4.5240   -0.5758   -0.7224 Br  0  0  0  0  0  0  0  0  0  0  0  0
  1  6  1  0  0  0  0
  2  1  2  0  0  0  0
  2  3  1  0  0  0  0
  3  4  2  0  0  0  0
  4  5  1  0  0  0  0
  4  8  1  0  0  0  0
  5  9  1  0  0  0  0
  6 12  1  0  0  0  0
  6  5  2  0  0  0  0
  7  1  1  0  0  0  0
 11 10  3  0  0  0  0
M  RAD  2   2   2   3   2
M  END
