Coordinates from ORCA-job 4-Br-C6H3-N2-B3LYPG-aug-cc-pVDZ-scan-d09-49-n400
 OpenBabel11091809103D

 12 11  0  0  0  0  0  0  0  0999 V2000
   -2.1405   -1.8076   -1.0803 C   0  0  0  0  0  0  0  0  0  0  0  0
   -0.7576   -1.7236   -1.1449 C   0  0  0  0  0  0  0  0  0  0  0  0
   -0.0620   -0.6922   -0.9998 C   0  0  0  0  0  0  0  0  0  0  0  0
   -0.4889    0.6021   -0.7429 C   0  0  0  0  0  0  0  0  0  0  0  0
   -1.8981    0.6375   -0.6554 C   0  0  0  0  0  0  0  0  0  0  0  0
   -2.6782   -0.5269   -0.8194 C   0  0  0  0  0  0  0  0  0  0  0  0
   -2.7626   -2.6908   -1.2029 H   0  0  0  0  0  0  0  0  0  0  0  0
    0.1230    1.4930   -0.6183 H   0  0  0  0  0  0  0  0  0  0  0  0
   -2.3979    1.5850   -0.4565 H   0  0  0  0  0  0  0  0  0  0  0  0
    3.3683    1.9176   -0.7314 N   0  0  0  0  0  0  0  0  0  0  0  0
    4.4208    1.6045   -0.8472 N   0  0  0  0  0  0  0  0  0  0  0  0
   -4.5889   -0.3690   -0.6810 Br  0  0  0  0  0  0  0  0  0  0  0  0
  1  6  1  0  0  0  0
  2  1  2  0  0  0  0
  2  3  1  0  0  0  0
  3  4  2  0  0  0  0
  4  5  1  0  0  0  0
  4  8  1  0  0  0  0
  5  9  1  0  0  0  0
  6 12  1  0  0  0  0
  6  5  2  0  0  0  0
  7  1  1  0  0  0  0
 11 10  3  0  0  0  0
M  RAD  2   2   2   3   2
M  END
