Coordinates from ORCA-job 4-Br-C6H3-N2-B3LYPG-aug-cc-pVDZ-scan-d09-49-n400
 OpenBabel11091809103D

 12 11  0  0  0  0  0  0  0  0999 V2000
   -2.1762   -1.8159   -1.0797 C   0  0  0  0  0  0  0  0  0  0  0  0
   -0.7925   -1.7574   -1.1489 C   0  0  0  0  0  0  0  0  0  0  0  0
   -0.0751   -0.7405   -1.0077 C   0  0  0  0  0  0  0  0  0  0  0  0
   -0.4774    0.5620   -0.7508 C   0  0  0  0  0  0  0  0  0  0  0  0
   -1.8853    0.6246   -0.6584 C   0  0  0  0  0  0  0  0  0  0  0  0
   -2.6883   -0.5247   -0.8184 C   0  0  0  0  0  0  0  0  0  0  0  0
   -2.8154   -2.6871   -1.1992 H   0  0  0  0  0  0  0  0  0  0  0  0
    0.1514    1.4414   -0.6292 H   0  0  0  0  0  0  0  0  0  0  0  0
   -2.3661    1.5818   -0.4590 H   0  0  0  0  0  0  0  0  0  0  0  0
    3.3975    1.9771   -0.7223 N   0  0  0  0  0  0  0  0  0  0  0  0
    4.4601    1.6981   -0.8328 N   0  0  0  0  0  0  0  0  0  0  0  0
   -4.5951   -0.3299   -0.6736 Br  0  0  0  0  0  0  0  0  0  0  0  0
  1  6  1  0  0  0  0
  2  1  2  0  0  0  0
  2  3  1  0  0  0  0
  3  4  2  0  0  0  0
  4  5  1  0  0  0  0
  4  8  1  0  0  0  0
  5  9  1  0  0  0  0
  6 12  1  0  0  0  0
  6  5  2  0  0  0  0
  7  1  1  0  0  0  0
 11 10  3  0  0  0  0
M  RAD  2   2   2   3   2
M  END
