Coordinates from ORCA-job 4-Br-C6H3-N2-B3LYPG-aug-cc-pVDZ-scan-d09-49-n400
 OpenBabel11091809103D

 12 11  0  0  0  0  0  0  0  0999 V2000
   -1.8207   -1.7110   -1.0816 C   0  0  0  0  0  0  0  0  0  0  0  0
   -0.4657   -1.4147   -1.1064 C   0  0  0  0  0  0  0  0  0  0  0  0
    0.0566   -0.2894   -0.9344 C   0  0  0  0  0  0  0  0  0  0  0  0
   -0.5726    0.9193   -0.6811 C   0  0  0  0  0  0  0  0  0  0  0  0
   -1.9720    0.7378   -0.6330 C   0  0  0  0  0  0  0  0  0  0  0  0
   -2.5572   -0.5316   -0.8273 C   0  0  0  0  0  0  0  0  0  0  0  0
   -2.2957   -2.6779   -1.2279 H   0  0  0  0  0  0  0  0  0  0  0  0
   -0.1015    1.8886   -0.5341 H   0  0  0  0  0  0  0  0  0  0  0  0
   -2.6173    1.5946   -0.4420 H   0  0  0  0  0  0  0  0  0  0  0  0
    3.0001    1.3595   -0.8086 N   0  0  0  0  0  0  0  0  0  0  0  0
    3.9556    0.8276   -0.9612 N   0  0  0  0  0  0  0  0  0  0  0  0
   -4.4722   -0.6734   -0.7424 Br  0  0  0  0  0  0  0  0  0  0  0  0
  1  6  1  0  0  0  0
  2  1  2  0  0  0  0
  2  3  1  0  0  0  0
  3  4  2  0  0  0  0
  4  5  1  0  0  0  0
  4  8  1  0  0  0  0
  5  9  1  0  0  0  0
  6 12  1  0  0  0  0
  6  5  2  0  0  0  0
  7  1  1  0  0  0  0
 11 10  3  0  0  0  0
M  RAD  2   2   2   3   2
M  END
