Coordinates from ORCA-job 4-Br-C6H3-N2-B3LYPG-aug-cc-pVDZ-scan-d09-49-n400
 OpenBabel11091809103D

 12 11  0  0  0  0  0  0  0  0999 V2000
   -1.6678   -1.6527   -1.0800 C   0  0  0  0  0  0  0  0  0  0  0  0
   -0.3284   -1.2832   -1.0909 C   0  0  0  0  0  0  0  0  0  0  0  0
    0.1057   -0.1223   -0.9074 C   0  0  0  0  0  0  0  0  0  0  0  0
   -0.5896    1.0465   -0.6573 C   0  0  0  0  0  0  0  0  0  0  0  0
   -1.9761    0.7797   -0.6252 C   0  0  0  0  0  0  0  0  0  0  0  0
   -2.4789   -0.5229   -0.8302 C   0  0  0  0  0  0  0  0  0  0  0  0
   -2.0834   -2.6458   -1.2344 H   0  0  0  0  0  0  0  0  0  0  0  0
   -0.1773    2.0410   -0.5024 H   0  0  0  0  0  0  0  0  0  0  0  0
   -2.6747    1.5946   -0.4385 H   0  0  0  0  0  0  0  0  0  0  0  0
    2.6937    1.0087   -0.8540 N   0  0  0  0  0  0  0  0  0  0  0  0
    3.6970    0.5680   -0.9925 N   0  0  0  0  0  0  0  0  0  0  0  0
   -4.3828   -0.7823   -0.7670 Br  0  0  0  0  0  0  0  0  0  0  0  0
  1  6  1  0  0  0  0
  2  1  2  0  0  0  0
  2  3  1  0  0  0  0
  3  4  2  0  0  0  0
  4  5  1  0  0  0  0
  4  8  1  0  0  0  0
  5  9  1  0  0  0  0
  6 12  1  0  0  0  0
  6  5  2  0  0  0  0
  7  1  1  0  0  0  0
 11 10  3  0  0  0  0
M  RAD  2   2   2   3   2
M  END
