Coordinates from ORCA-job 4-Br-C6H3-N2-B3LYPG-aug-cc-pVDZ-scan-d09-49-n400
 OpenBabel11091809103D

 12 11  0  0  0  0  0  0  0  0999 V2000
   -2.1904   -1.8189   -1.0794 C   0  0  0  0  0  0  0  0  0  0  0  0
   -0.8064   -1.7711   -1.1505 C   0  0  0  0  0  0  0  0  0  0  0  0
   -0.0807   -0.7599   -1.0108 C   0  0  0  0  0  0  0  0  0  0  0  0
   -0.4727    0.5458   -0.7539 C   0  0  0  0  0  0  0  0  0  0  0  0
   -1.8799    0.6193   -0.6597 C   0  0  0  0  0  0  0  0  0  0  0  0
   -2.6921   -0.5237   -0.8181 C   0  0  0  0  0  0  0  0  0  0  0  0
   -2.8365   -2.6853   -1.1977 H   0  0  0  0  0  0  0  0  0  0  0  0
    0.1630    1.4204   -0.6336 H   0  0  0  0  0  0  0  0  0  0  0  0
   -2.3529    1.5803   -0.4600 H   0  0  0  0  0  0  0  0  0  0  0  0
    3.4085    2.0009   -0.7186 N   0  0  0  0  0  0  0  0  0  0  0  0
    4.4748    1.7357   -0.8270 N   0  0  0  0  0  0  0  0  0  0  0  0
   -4.5971   -0.3140   -0.6707 Br  0  0  0  0  0  0  0  0  0  0  0  0
  1  6  1  0  0  0  0
  2  1  2  0  0  0  0
  2  3  1  0  0  0  0
  3  4  2  0  0  0  0
  4  5  1  0  0  0  0
  4  8  1  0  0  0  0
  5  9  1  0  0  0  0
  6 12  1  0  0  0  0
  6  5  2  0  0  0  0
  7  1  1  0  0  0  0
 11 10  3  0  0  0  0
M  RAD  2   2   2   3   2
M  END
