Coordinates from ORCA-job 4-Br-C6H3-N2-B3LYPG-aug-cc-pVDZ-scan-d09-49-n400
 OpenBabel11091809103D

 12 11  0  0  0  0  0  0  0  0999 V2000
   -1.4523   -1.5614   -1.0762 C   0  0  0  0  0  0  0  0  0  0  0  0
   -0.1129   -1.1562   -1.0806 C   0  0  0  0  0  0  0  0  0  0  0  0
    0.1842    0.0575   -0.8797 C   0  0  0  0  0  0  0  0  0  0  0  0
   -0.5785    1.1778   -0.6343 C   0  0  0  0  0  0  0  0  0  0  0  0
   -1.9434    0.8321   -0.6177 C   0  0  0  0  0  0  0  0  0  0  0  0
   -2.3485   -0.5020   -0.8341 C   0  0  0  0  0  0  0  0  0  0  0  0
   -1.8081   -2.5780   -1.2383 H   0  0  0  0  0  0  0  0  0  0  0  0
   -0.2156    2.1917   -0.4731 H   0  0  0  0  0  0  0  0  0  0  0  0
   -2.6936    1.6001   -0.4364 H   0  0  0  0  0  0  0  0  0  0  0  0
    2.1686    0.6567   -0.8868 N   0  0  0  0  0  0  0  0  0  0  0  0
    3.1697    0.2036   -1.0274 N   0  0  0  0  0  0  0  0  0  0  0  0
   -4.2323   -0.8924   -0.7955 Br  0  0  0  0  0  0  0  0  0  0  0  0
  1  6  1  0  0  0  0
  2  1  2  0  0  0  0
  2  3  1  0  0  0  0
  3  4  2  0  0  0  0
  4  5  1  0  0  0  0
  4  8  1  0  0  0  0
  5  9  1  0  0  0  0
  6 12  1  0  0  0  0
  6  5  2  0  0  0  0
  7  1  1  0  0  0  0
 11 10  3  0  0  0  0
M  RAD  2   2   2   3   2
M  END
