Coordinates from ORCA-job 4-Br-C6H3-N2-B3LYPG-aug-cc-pVDZ-scan-d09-49-n400
 OpenBabel11091809103D

 12 11  0  0  0  0  0  0  0  0999 V2000
   -1.7283   -1.6767   -1.0808 C   0  0  0  0  0  0  0  0  0  0  0  0
   -0.3842   -1.3314   -1.0963 C   0  0  0  0  0  0  0  0  0  0  0  0
    0.0888   -0.1854   -0.9178 C   0  0  0  0  0  0  0  0  0  0  0  0
   -0.5849    0.9981   -0.6663 C   0  0  0  0  0  0  0  0  0  0  0  0
   -1.9767    0.7633   -0.6282 C   0  0  0  0  0  0  0  0  0  0  0  0
   -2.5114   -0.5272   -0.8291 C   0  0  0  0  0  0  0  0  0  0  0  0
   -2.1658   -2.6605   -1.2323 H   0  0  0  0  0  0  0  0  0  0  0  0
   -0.1506    1.9836   -0.5143 H   0  0  0  0  0  0  0  0  0  0  0  0
   -2.6556    1.5943   -0.4397 H   0  0  0  0  0  0  0  0  0  0  0  0
    2.8238    1.1516   -0.8357 N   0  0  0  0  0  0  0  0  0  0  0  0
    3.8026    0.6619   -0.9819 N   0  0  0  0  0  0  0  0  0  0  0  0
   -4.4203   -0.7421   -0.7576 Br  0  0  0  0  0  0  0  0  0  0  0  0
  1  6  1  0  0  0  0
  2  1  2  0  0  0  0
  2  3  1  0  0  0  0
  3  4  2  0  0  0  0
  4  5  1  0  0  0  0
  4  8  1  0  0  0  0
  5  9  1  0  0  0  0
  6 12  1  0  0  0  0
  6  5  2  0  0  0  0
  7  1  1  0  0  0  0
 11 10  3  0  0  0  0
M  RAD  2   2   2   3   2
M  END
