Coordinates from ORCA-job 4-Br-C6H3-N2-B3LYPG-aug-cc-pVDZ-scan-d09-49-n400
 OpenBabel11091809103D

 12 11  0  0  0  0  0  0  0  0999 V2000
   -2.2468   -1.8301   -1.0781 C   0  0  0  0  0  0  0  0  0  0  0  0
   -0.8625   -1.8258   -1.1569 C   0  0  0  0  0  0  0  0  0  0  0  0
   -0.1040   -0.8381   -1.0233 C   0  0  0  0  0  0  0  0  0  0  0  0
   -0.4536    0.4798   -0.7667 C   0  0  0  0  0  0  0  0  0  0  0  0
   -1.8571    0.5979   -0.6649 C   0  0  0  0  0  0  0  0  0  0  0  0
   -2.7059   -0.5192   -0.8165 C   0  0  0  0  0  0  0  0  0  0  0  0
   -2.9205   -2.6758   -1.1912 H   0  0  0  0  0  0  0  0  0  0  0  0
    0.2098    1.3344   -0.6515 H   0  0  0  0  0  0  0  0  0  0  0  0
   -2.2985    1.5737   -0.4644 H   0  0  0  0  0  0  0  0  0  0  0  0
    3.4498    2.0956   -0.7035 N   0  0  0  0  0  0  0  0  0  0  0  0
    4.5293    1.8865   -0.8039 N   0  0  0  0  0  0  0  0  0  0  0  0
   -4.6025   -0.2493   -0.6591 Br  0  0  0  0  0  0  0  0  0  0  0  0
  1  6  1  0  0  0  0
  2  1  2  0  0  0  0
  2  3  1  0  0  0  0
  3  4  2  0  0  0  0
  4  5  1  0  0  0  0
  4  8  1  0  0  0  0
  5  9  1  0  0  0  0
  6  5  2  0  0  0  0
  6 12  1  0  0  0  0
  7  1  1  0  0  0  0
 11 10  3  0  0  0  0
M  RAD  2   2   2   3   2
M  END
