Coordinates from ORCA-job 4-Br-C6H3-N2-B3LYPG-aug-cc-pVDZ-scan-d09-49-n400
 OpenBabel11091809103D

 12 11  0  0  0  0  0  0  0  0999 V2000
   -1.6401   -1.6424   -1.0798 C   0  0  0  0  0  0  0  0  0  0  0  0
   -0.3026   -1.2631   -1.0888 C   0  0  0  0  0  0  0  0  0  0  0  0
    0.1128   -0.0955   -0.9030 C   0  0  0  0  0  0  0  0  0  0  0  0
   -0.5894    1.0674   -0.6535 C   0  0  0  0  0  0  0  0  0  0  0  0
   -1.9737    0.7864   -0.6242 C   0  0  0  0  0  0  0  0  0  0  0  0
   -2.4630   -0.5209   -0.8308 C   0  0  0  0  0  0  0  0  0  0  0  0
   -2.0465   -2.6392   -1.2354 H   0  0  0  0  0  0  0  0  0  0  0  0
   -0.1888    2.0665   -0.4971 H   0  0  0  0  0  0  0  0  0  0  0  0
   -2.6808    1.5942   -0.4383 H   0  0  0  0  0  0  0  0  0  0  0  0
    2.6357    0.9584   -0.8596 N   0  0  0  0  0  0  0  0  0  0  0  0
    3.6382    0.5163   -0.9985 N   0  0  0  0  0  0  0  0  0  0  0  0
   -4.3646   -0.7987   -0.7711 Br  0  0  0  0  0  0  0  0  0  0  0  0
  1  6  1  0  0  0  0
  2  1  2  0  0  0  0
  2  3  1  0  0  0  0
  3  4  2  0  0  0  0
  4  5  1  0  0  0  0
  4  8  1  0  0  0  0
  5  9  1  0  0  0  0
  6 12  1  0  0  0  0
  6  5  2  0  0  0  0
  7  1  1  0  0  0  0
 11 10  3  0  0  0  0
M  RAD  2   2   2   3   2
M  END
