Coordinates from ORCA-job 4-Br-C6H3-N2-B3LYPG-aug-cc-pVDZ-scan-d09-49-n400
 OpenBabel11091809103D

 12 12  0  0  0  0  0  0  0  0999 V2000
   -1.3488   -1.5045   -1.0719 C   0  0  0  0  0  0  0  0  0  0  0  0
    0.0534   -1.3650   -1.1275 C   0  0  0  0  0  0  0  0  0  0  0  0
    0.5157    0.1044   -0.8866 C   0  0  0  0  0  0  0  0  0  0  0  0
   -0.4962    1.1416   -0.6447 C   0  0  0  0  0  0  0  0  0  0  0  0
   -1.8293    0.8643   -0.6183 C   0  0  0  0  0  0  0  0  0  0  0  0
   -2.2484   -0.4731   -0.8344 C   0  0  0  0  0  0  0  0  0  0  0  0
   -1.7445   -2.5111   -1.2307 H   0  0  0  0  0  0  0  0  0  0  0  0
   -0.1190    2.1546   -0.4855 H   0  0  0  0  0  0  0  0  0  0  0  0
   -2.5570    1.6518   -0.4358 H   0  0  0  0  0  0  0  0  0  0  0  0
    1.4464    0.2941   -0.9111 N   0  0  0  0  0  0  0  0  0  0  0  0
    2.5890    0.4964   -0.9433 N   0  0  0  0  0  0  0  0  0  0  0  0
   -4.1239   -0.8241   -0.7902 Br  0  0  0  0  0  0  0  0  0  0  0  0
  1  6  1  0  0  0  0
  2  1  2  0  0  0  0
  2  3  1  0  0  0  0
  3  4  2  0  0  0  0
  4  5  1  0  0  0  0
  4  8  1  0  0  0  0
  5  9  1  0  0  0  0
  6 12  1  0  0  0  0
  6  5  2  0  0  0  0
  7  1  1  0  0  0  0
 10  3  1  0  0  0  0
 11 10  1  0  0  0  0
M  RAD  3   2   2  10   2  11   3
M  END
