Coordinates from ORCA-job 4-Br-C6H3-N2-B3LYPG-aug-cc-pVDZ-scan-d09-49-n400
 OpenBabel11091809103D

 12 11  0  0  0  0  0  0  0  0999 V2000
   -1.6788   -1.6571   -1.0802 C   0  0  0  0  0  0  0  0  0  0  0  0
   -0.3392   -1.2904   -1.0916 C   0  0  0  0  0  0  0  0  0  0  0  0
    0.1037   -0.1328   -0.9092 C   0  0  0  0  0  0  0  0  0  0  0  0
   -0.5895    1.0381   -0.6588 C   0  0  0  0  0  0  0  0  0  0  0  0
   -1.9768    0.7767   -0.6257 C   0  0  0  0  0  0  0  0  0  0  0  0
   -2.4851   -0.5239   -0.8301 C   0  0  0  0  0  0  0  0  0  0  0  0
   -2.0977   -2.6488   -1.2342 H   0  0  0  0  0  0  0  0  0  0  0  0
   -0.1730    2.0309   -0.5045 H   0  0  0  0  0  0  0  0  0  0  0  0
   -2.6721    1.5943   -0.4387 H   0  0  0  0  0  0  0  0  0  0  0  0
    2.7190    1.0352   -0.8507 N   0  0  0  0  0  0  0  0  0  0  0  0
    3.7168    0.5829   -0.9910 N   0  0  0  0  0  0  0  0  0  0  0  0
   -4.3899   -0.7757   -0.7654 Br  0  0  0  0  0  0  0  0  0  0  0  0
  1  6  1  0  0  0  0
  2  1  2  0  0  0  0
  2  3  1  0  0  0  0
  3  4  2  0  0  0  0
  4  5  1  0  0  0  0
  4  8  1  0  0  0  0
  5  9  1  0  0  0  0
  6 12  1  0  0  0  0
  6  5  2  0  0  0  0
  7  1  1  0  0  0  0
 11 10  3  0  0  0  0
M  RAD  2   2   2   3   2
M  END
