Coordinates from ORCA-job 4-Br-C6H3-N2-B3LYPG-aug-cc-pVDZ-scan-d09-49-n400
 OpenBabel11091809103D

 12 11  0  0  0  0  0  0  0  0999 V2000
   -2.0038   -1.7712   -1.0817 C   0  0  0  0  0  0  0  0  0  0  0  0
   -0.6288   -1.5923   -1.1284 C   0  0  0  0  0  0  0  0  0  0  0  0
   -0.0127   -0.5134   -0.9700 C   0  0  0  0  0  0  0  0  0  0  0  0
   -0.5296    0.7469   -0.7141 C   0  0  0  0  0  0  0  0  0  0  0  0
   -1.9391    0.6834   -0.6448 C   0  0  0  0  0  0  0  0  0  0  0  0
   -2.6331   -0.5323   -0.8232 C   0  0  0  0  0  0  0  0  0  0  0  0
   -2.5618   -2.6947   -1.2155 H   0  0  0  0  0  0  0  0  0  0  0  0
    0.0193    1.6762   -0.5788 H   0  0  0  0  0  0  0  0  0  0  0  0
   -2.5067    1.5926   -0.4490 H   0  0  0  0  0  0  0  0  0  0  0  0
    3.2372    1.6824   -0.7642 N   0  0  0  0  0  0  0  0  0  0  0  0
    4.2485    1.2610   -0.9013 N   0  0  0  0  0  0  0  0  0  0  0  0
   -4.5519   -0.5092   -0.7091 Br  0  0  0  0  0  0  0  0  0  0  0  0
  1  6  1  0  0  0  0
  2  1  2  0  0  0  0
  2  3  1  0  0  0  0
  3  4  2  0  0  0  0
  4  5  1  0  0  0  0
  4  8  1  0  0  0  0
  5  9  1  0  0  0  0
  6 12  1  0  0  0  0
  6  5  2  0  0  0  0
  7  1  1  0  0  0  0
 11 10  3  0  0  0  0
M  RAD  2   2   2   3   2
M  END
