Coordinates from ORCA-job 4-Br-C6H3-N2-B3LYPG-aug-cc-pVDZ-scan-d09-49-n400
 OpenBabel11091809103D

 12 11  0  0  0  0  0  0  0  0999 V2000
   -1.8777   -1.7313   -1.0819 C   0  0  0  0  0  0  0  0  0  0  0  0
   -0.5155   -1.4709   -1.1136 C   0  0  0  0  0  0  0  0  0  0  0  0
    0.0355   -0.3587   -0.9456 C   0  0  0  0  0  0  0  0  0  0  0  0
   -0.5587    0.8669   -0.6912 C   0  0  0  0  0  0  0  0  0  0  0  0
   -1.9626    0.7213   -0.6365 C   0  0  0  0  0  0  0  0  0  0  0  0
   -2.5818   -0.5325   -0.8261 C   0  0  0  0  0  0  0  0  0  0  0  0
   -2.3787   -2.6856   -1.2245 H   0  0  0  0  0  0  0  0  0  0  0  0
   -0.0669    1.8263   -0.5472 H   0  0  0  0  0  0  0  0  0  0  0  0
   -2.5845    1.5948   -0.4438 H   0  0  0  0  0  0  0  0  0  0  0  0
    3.0821    1.4701   -0.7936 N   0  0  0  0  0  0  0  0  0  0  0  0
    4.0458    0.9527   -0.9439 N   0  0  0  0  0  0  0  0  0  0  0  0
   -4.4995   -0.6237   -0.7320 Br  0  0  0  0  0  0  0  0  0  0  0  0
  1  6  1  0  0  0  0
  2  1  2  0  0  0  0
  2  3  1  0  0  0  0
  3  4  2  0  0  0  0
  4  5  1  0  0  0  0
  4  8  1  0  0  0  0
  5  9  1  0  0  0  0
  6 12  1  0  0  0  0
  6  5  2  0  0  0  0
  7  1  1  0  0  0  0
 11 10  3  0  0  0  0
M  RAD  2   2   2   3   2
M  END
