Coordinates from ORCA-job 4-Br-C6H3-N2-B3LYPG-aug-cc-pVDZ-scan-d09-49-n400
 OpenBabel11091809103D

 12 11  0  0  0  0  0  0  0  0999 V2000
   -2.0073   -1.7722   -1.0817 C   0  0  0  0  0  0  0  0  0  0  0  0
   -0.6320   -1.5957   -1.1288 C   0  0  0  0  0  0  0  0  0  0  0  0
   -0.0140   -0.5178   -0.9707 C   0  0  0  0  0  0  0  0  0  0  0  0
   -0.5287    0.7435   -0.7148 C   0  0  0  0  0  0  0  0  0  0  0  0
   -1.9382    0.6823   -0.6450 C   0  0  0  0  0  0  0  0  0  0  0  0
   -2.6344   -0.5322   -0.8231 C   0  0  0  0  0  0  0  0  0  0  0  0
   -2.5669   -2.6948   -1.2152 H   0  0  0  0  0  0  0  0  0  0  0  0
    0.0218    1.6718   -0.5797 H   0  0  0  0  0  0  0  0  0  0  0  0
   -2.5042    1.5924   -0.4492 H   0  0  0  0  0  0  0  0  0  0  0  0
    3.2409    1.6884   -0.7634 N   0  0  0  0  0  0  0  0  0  0  0  0
    4.2534    1.2696   -0.9001 N   0  0  0  0  0  0  0  0  0  0  0  0
   -4.5530   -0.5058   -0.7084 Br  0  0  0  0  0  0  0  0  0  0  0  0
  1  6  1  0  0  0  0
  2  1  2  0  0  0  0
  2  3  1  0  0  0  0
  3  4  2  0  0  0  0
  4  5  1  0  0  0  0
  4  8  1  0  0  0  0
  5  9  1  0  0  0  0
  6 12  1  0  0  0  0
  6  5  2  0  0  0  0
  7  1  1  0  0  0  0
 11 10  3  0  0  0  0
M  RAD  2   2   2   3   2
M  END
