Coordinates from ORCA-job 4-Br-C6H3-N2-B3LYPG-aug-cc-pVDZ-scan-d09-49-n400
 OpenBabel11091809103D

 12 11  0  0  0  0  0  0  0  0999 V2000
   -1.7035   -1.6670   -1.0805 C   0  0  0  0  0  0  0  0  0  0  0  0
   -0.3620   -1.3101   -1.0938 C   0  0  0  0  0  0  0  0  0  0  0  0
    0.0968   -0.1585   -0.9134 C   0  0  0  0  0  0  0  0  0  0  0  0
   -0.5875    1.0184   -0.6625 C   0  0  0  0  0  0  0  0  0  0  0  0
   -1.9770    0.7700   -0.6269 C   0  0  0  0  0  0  0  0  0  0  0  0
   -2.4984   -0.5256   -0.8296 C   0  0  0  0  0  0  0  0  0  0  0  0
   -2.1314   -2.6549   -1.2333 H   0  0  0  0  0  0  0  0  0  0  0  0
   -0.1624    2.0077   -0.5093 H   0  0  0  0  0  0  0  0  0  0  0  0
   -2.6643    1.5942   -0.4392 H   0  0  0  0  0  0  0  0  0  0  0  0
    2.7725    1.0940   -0.8431 N   0  0  0  0  0  0  0  0  0  0  0  0
    3.7599    0.6207   -0.9867 N   0  0  0  0  0  0  0  0  0  0  0  0
   -4.4053   -0.7594   -0.7616 Br  0  0  0  0  0  0  0  0  0  0  0  0
  1  6  1  0  0  0  0
  2  1  2  0  0  0  0
  2  3  1  0  0  0  0
  3  4  2  0  0  0  0
  4  5  1  0  0  0  0
  4  8  1  0  0  0  0
  5  9  1  0  0  0  0
  6 12  1  0  0  0  0
  6  5  2  0  0  0  0
  7  1  1  0  0  0  0
 11 10  3  0  0  0  0
M  RAD  2   2   2   3   2
M  END
