Coordinates from ORCA-job 4-Br-C6H3-N2-B3LYPG-aug-cc-pVDZ-scan-d09-49-n400
 OpenBabel11091809103D

 12 11  0  0  0  0  0  0  0  0999 V2000
   -1.6306   -1.6387   -1.0796 C   0  0  0  0  0  0  0  0  0  0  0  0
   -0.2939   -1.2560   -1.0880 C   0  0  0  0  0  0  0  0  0  0  0  0
    0.1157   -0.0863   -0.9015 C   0  0  0  0  0  0  0  0  0  0  0  0
   -0.5897    1.0743   -0.6523 C   0  0  0  0  0  0  0  0  0  0  0  0
   -1.9731    0.7888   -0.6238 C   0  0  0  0  0  0  0  0  0  0  0  0
   -2.4576   -0.5203   -0.8310 C   0  0  0  0  0  0  0  0  0  0  0  0
   -2.0339   -2.6368   -1.2357 H   0  0  0  0  0  0  0  0  0  0  0  0
   -0.1921    2.0745   -0.4955 H   0  0  0  0  0  0  0  0  0  0  0  0
   -2.6830    1.5941   -0.4382 H   0  0  0  0  0  0  0  0  0  0  0  0
    2.6165    0.9429   -0.8612 N   0  0  0  0  0  0  0  0  0  0  0  0
    3.6175    0.4975   -1.0007 N   0  0  0  0  0  0  0  0  0  0  0  0
   -4.3584   -0.8046   -0.7725 Br  0  0  0  0  0  0  0  0  0  0  0  0
  1  6  1  0  0  0  0
  2  1  2  0  0  0  0
  2  3  1  0  0  0  0
  3  4  2  0  0  0  0
  4  5  1  0  0  0  0
  4  8  1  0  0  0  0
  5  9  1  0  0  0  0
  6 12  1  0  0  0  0
  6  5  2  0  0  0  0
  7  1  1  0  0  0  0
 11 10  3  0  0  0  0
M  RAD  2   2   2   3   2
M  END
