Coordinates from ORCA-job C6H6+NH2N2+-aug-scan
 OpenBabel10121810033D

 17 16  0  0  0  0  0  0  0  0999 V2000
    0.0065   -0.0800    0.5648 N   0  0  0  0  0  0  0  0  0  0  0  0
    0.4537   -0.3433   -0.4087 N   0  0  0  0  0  0  0  0  0  0  0  0
    1.6679   -1.1523   -3.1335 N   0  0  0  0  0  0  0  0  0  0  0  0
    2.4613   -1.7618   -2.8702 H   0  0  0  0  0  0  0  0  0  0  0  0
    2.1334   -0.2900   -3.4843 H   0  0  0  0  0  0  0  0  0  0  0  0
    0.0565   -3.6256   -5.0733 C   0  0  0  0  0  0  0  0  0  0  0  0
    0.9872   -3.0223   -4.2253 C   0  0  0  0  0  0  0  0  0  0  0  0
    0.8797   -1.6643   -3.8801 C   0  0  0  0  0  0  0  0  0  0  0  0
   -0.1904   -0.9187   -4.4192 C   0  0  0  0  0  0  0  0  0  0  0  0
   -1.1176   -1.5195   -5.2661 C   0  0  0  0  0  0  0  0  0  0  0  0
   -0.9988   -2.8758   -5.5947 C   0  0  0  0  0  0  0  0  0  0  0  0
    0.1637   -4.6799   -5.3262 H   0  0  0  0  0  0  0  0  0  0  0  0
    1.8168   -3.6118   -3.8212 H   0  0  0  0  0  0  0  0  0  0  0  0
    1.2853   -0.8439   -2.2068 H   0  0  0  0  0  0  0  0  0  0  0  0
   -0.2896    0.1424   -4.1730 H   0  0  0  0  0  0  0  0  0  0  0  0
   -1.9344   -0.9253   -5.6746 H   0  0  0  0  0  0  0  0  0  0  0  0
   -1.7252   -3.3421   -6.2598 H   0  0  0  0  0  0  0  0  0  0  0  0
  2  1  3  0  0  0  0
  3  4  1  0  0  0  0
  3 14  1  0  0  0  0
  5  3  1  0  0  0  0
  6  7  2  0  0  0  0
  7  8  1  0  0  0  0
  7 13  1  0  0  0  0
  8  3  1  0  0  0  0
  9 15  1  0  0  0  0
  9  8  2  0  0  0  0
 10  9  1  0  0  0  0
 11 10  2  0  0  0  0
 11  6  1  0  0  0  0
 12  6  1  0  0  0  0
 16 10  1  0  0  0  0
 17 11  1  0  0  0  0
M  END
