Coordinates from ORCA-job C6H6+NH2N2+-aug-scan
 OpenBabel10121810033D

 17 16  0  0  0  0  0  0  0  0999 V2000
    0.0004   -0.0851    0.5824 N   0  0  0  0  0  0  0  0  0  0  0  0
    0.4548   -0.3407   -0.3899 N   0  0  0  0  0  0  0  0  0  0  0  0
    1.6990   -1.1302   -3.1099 N   0  0  0  0  0  0  0  0  0  0  0  0
    2.4849   -1.7495   -2.8599 H   0  0  0  0  0  0  0  0  0  0  0  0
    2.1510   -0.2755   -3.4809 H   0  0  0  0  0  0  0  0  0  0  0  0
    0.0493   -3.6318   -5.0782 C   0  0  0  0  0  0  0  0  0  0  0  0
    0.9816   -3.0305   -4.2294 C   0  0  0  0  0  0  0  0  0  0  0  0
    0.8633   -1.6741   -3.8972 C   0  0  0  0  0  0  0  0  0  0  0  0
   -0.1970   -0.9197   -4.4291 C   0  0  0  0  0  0  0  0  0  0  0  0
   -1.1244   -1.5230   -5.2767 C   0  0  0  0  0  0  0  0  0  0  0  0
   -1.0043   -2.8797   -5.6016 C   0  0  0  0  0  0  0  0  0  0  0  0
    0.1529   -4.6867   -5.3302 H   0  0  0  0  0  0  0  0  0  0  0  0
    1.8086   -3.6209   -3.8234 H   0  0  0  0  0  0  0  0  0  0  0  0
    1.3025   -0.8304   -2.1922 H   0  0  0  0  0  0  0  0  0  0  0  0
   -0.2950    0.1408   -4.1824 H   0  0  0  0  0  0  0  0  0  0  0  0
   -1.9415   -0.9305   -5.6871 H   0  0  0  0  0  0  0  0  0  0  0  0
   -1.7304   -3.3468   -6.2664 H   0  0  0  0  0  0  0  0  0  0  0  0
  2  1  3  0  0  0  0
  3  4  1  0  0  0  0
  3 14  1  0  0  0  0
  5  3  1  0  0  0  0
  6  7  2  0  0  0  0
  7  8  1  0  0  0  0
  7 13  1  0  0  0  0
  8  3  1  0  0  0  0
  9 15  1  0  0  0  0
  9  8  2  0  0  0  0
 10  9  1  0  0  0  0
 11 10  2  0  0  0  0
 11  6  1  0  0  0  0
 12  6  1  0  0  0  0
 16 10  1  0  0  0  0
 17 11  1  0  0  0  0
M  END
