Coordinates from ORCA-job C6H6+NH2N2+-aug-scan
 OpenBabel10121810033D

 17 16  0  0  0  0  0  0  0  0999 V2000
    0.9921   -1.5415   -1.3550 N   0  0  0  0  0  0  0  0  0  0  0  0
    1.2161   -1.5258   -2.4666 N   0  0  0  0  0  0  0  0  0  0  0  0
    0.3343   -1.5338   -0.2279 N   0  0  0  0  0  0  0  0  0  0  0  0
   -0.5480   -2.0530   -0.2487 H   0  0  0  0  0  0  0  0  0  0  0  0
    0.9265   -1.6008    0.5998 H   0  0  0  0  0  0  0  0  0  0  0  0
   -0.0026   -3.1297   -4.5792 C   0  0  0  0  0  0  0  0  0  0  0  0
    0.9704   -2.9631   -5.5660 C   0  0  0  0  0  0  0  0  0  0  0  0
    1.2095   -1.6909   -6.1093 C   0  0  0  0  0  0  0  0  0  0  0  0
    0.4821   -0.5792   -5.6569 C   0  0  0  0  0  0  0  0  0  0  0  0
   -0.4925   -0.7368   -4.6699 C   0  0  0  0  0  0  0  0  0  0  0  0
   -0.7341   -2.0140   -4.1210 C   0  0  0  0  0  0  0  0  0  0  0  0
   -0.2153   -4.1234   -4.1831 H   0  0  0  0  0  0  0  0  0  0  0  0
    1.5306   -3.8242   -5.9310 H   0  0  0  0  0  0  0  0  0  0  0  0
    1.9599   -1.5670   -6.8906 H   0  0  0  0  0  0  0  0  0  0  0  0
    0.6645    0.4038   -6.0915 H   0  0  0  0  0  0  0  0  0  0  0  0
   -1.0834    0.1192   -4.3420 H   0  0  0  0  0  0  0  0  0  0  0  0
   -1.5543   -2.1540   -3.4134 H   0  0  0  0  0  0  0  0  0  0  0  0
  1  3  1  0  0  0  0
  2  1  1  0  0  0  0
  3  5  1  0  0  0  0
  4  3  1  0  0  0  0
  6 12  1  0  0  0  0
  6 11  1  0  0  0  0
  7  6  2  0  0  0  0
  8  9  2  0  0  0  0
  8  7  1  0  0  0  0
  9 10  1  0  0  0  0
 10 16  1  0  0  0  0
 10 11  2  0  0  0  0
 11 17  1  0  0  0  0
 13  7  1  0  0  0  0
 14  8  1  0  0  0  0
 15  9  1  0  0  0  0
M  RAD  2   1   2   2   3
M  END
