Coordinates from ORCA-job C6H6+NH2N2+-aug-scan
 OpenBabel10121810033D

 17 16  0  0  0  0  0  0  0  0999 V2000
    0.9472   -1.5507   -1.4506 N   0  0  0  0  0  0  0  0  0  0  0  0
    0.0158   -1.5374   -2.1597 N   0  0  0  0  0  0  0  0  0  0  0  0
    2.2420   -1.4355   -1.6965 N   0  0  0  0  0  0  0  0  0  0  0  0
    2.4698   -0.7711   -2.4354 H   0  0  0  0  0  0  0  0  0  0  0  0
    2.7968   -1.3636   -0.8466 H   0  0  0  0  0  0  0  0  0  0  0  0
   -0.0088   -3.3700   -4.8816 C   0  0  0  0  0  0  0  0  0  0  0  0
    0.9975   -2.5853   -4.3416 C   0  0  0  0  0  0  0  0  0  0  0  0
    0.7494   -1.2011   -4.0812 C   0  0  0  0  0  0  0  0  0  0  0  0
   -0.4770   -0.6120   -4.5253 C   0  0  0  0  0  0  0  0  0  0  0  0
   -1.4696   -1.4079   -5.0732 C   0  0  0  0  0  0  0  0  0  0  0  0
   -1.2395   -2.7848   -5.2378 C   0  0  0  0  0  0  0  0  0  0  0  0
    0.1575   -4.4328   -5.0546 H   0  0  0  0  0  0  0  0  0  0  0  0
    1.9649   -3.0226   -4.0951 H   0  0  0  0  0  0  0  0  0  0  0  0
    1.5836   -0.5155   -3.9275 H   0  0  0  0  0  0  0  0  0  0  0  0
   -0.6327    0.4589   -4.3948 H   0  0  0  0  0  0  0  0  0  0  0  0
   -2.4179   -0.9713   -5.3845 H   0  0  0  0  0  0  0  0  0  0  0  0
   -2.0231   -3.4115   -5.6663 H   0  0  0  0  0  0  0  0  0  0  0  0
  2  1  2  0  0  0  0
  3  1  1  0  0  0  0
  3  5  1  0  0  0  0
  4  3  1  0  0  0  0
  6  7  2  0  0  0  0
  7 13  1  0  0  0  0
  7  8  1  0  0  0  0
  8 14  1  0  0  0  0
  9 15  1  0  0  0  0
  9  8  2  0  0  0  0
 10  9  1  0  0  0  0
 11 10  2  0  0  0  0
 11  6  1  0  0  0  0
 12  6  1  0  0  0  0
 16 10  1  0  0  0  0
 17 11  1  0  0  0  0
M  RAD  1   2   2
M  END
