Coordinates from ORCA-job C6H6+NH2N2+-aug-scan
 OpenBabel10121810033D

 17 16  0  0  0  0  0  0  0  0999 V2000
    0.7824   -1.5630   -0.8910 N   0  0  0  0  0  0  0  0  0  0  0  0
    1.1609   -1.4754   -1.9488 N   0  0  0  0  0  0  0  0  0  0  0  0
    0.2123   -1.5818    0.2751 N   0  0  0  0  0  0  0  0  0  0  0  0
   -0.6678   -2.1028    0.3162 H   0  0  0  0  0  0  0  0  0  0  0  0
    0.8616   -1.6274    1.0632 H   0  0  0  0  0  0  0  0  0  0  0  0
    0.1252   -3.0937   -4.7086 C   0  0  0  0  0  0  0  0  0  0  0  0
    0.9541   -2.9727   -5.8270 C   0  0  0  0  0  0  0  0  0  0  0  0
    1.1132   -1.7269   -6.4530 C   0  0  0  0  0  0  0  0  0  0  0  0
    0.4575   -0.5954   -5.9436 C   0  0  0  0  0  0  0  0  0  0  0  0
   -0.3724   -0.7108   -4.8254 C   0  0  0  0  0  0  0  0  0  0  0  0
   -0.5452   -1.9628   -4.2074 C   0  0  0  0  0  0  0  0  0  0  0  0
   -0.0279   -4.0711   -4.2485 H   0  0  0  0  0  0  0  0  0  0  0  0
    1.4609   -3.8511   -6.2274 H   0  0  0  0  0  0  0  0  0  0  0  0
    1.7468   -1.6379   -7.3358 H   0  0  0  0  0  0  0  0  0  0  0  0
    0.5795    0.3705   -6.4342 H   0  0  0  0  0  0  0  0  0  0  0  0
   -0.9105    0.1625   -4.4544 H   0  0  0  0  0  0  0  0  0  0  0  0
   -1.2748   -2.0745   -3.4016 H   0  0  0  0  0  0  0  0  0  0  0  0
  1  3  1  0  0  0  0
  2  1  1  0  0  0  0
  3  4  1  0  0  0  0
  3  5  1  0  0  0  0
  6 12  1  0  0  0  0
  6 11  1  0  0  0  0
  7  6  2  0  0  0  0
  8  9  2  0  0  0  0
  8  7  1  0  0  0  0
  9 10  1  0  0  0  0
 10 16  1  0  0  0  0
 10 11  2  0  0  0  0
 11 17  1  0  0  0  0
 13  7  1  0  0  0  0
 14  8  1  0  0  0  0
 15  9  1  0  0  0  0
M  RAD  2   1   2   2   3
M  END
