Coordinates from ORCA-job C6H6+NH2N2+-aug-scan
 OpenBabel10121810033D

 17 16  0  0  0  0  0  0  0  0999 V2000
    1.0102   -1.5889   -1.4735 N   0  0  0  0  0  0  0  0  0  0  0  0
    0.2815   -1.9432   -2.2796 N   0  0  0  0  0  0  0  0  0  0  0  0
    2.1534   -1.0462   -1.1410 N   0  0  0  0  0  0  0  0  0  0  0  0
    2.5173   -0.3746   -1.8223 H   0  0  0  0  0  0  0  0  0  0  0  0
    2.2465   -0.8406   -0.1484 H   0  0  0  0  0  0  0  0  0  0  0  0
   -0.1265   -3.4507   -5.0558 C   0  0  0  0  0  0  0  0  0  0  0  0
    1.0295   -2.7224   -4.7810 C   0  0  0  0  0  0  0  0  0  0  0  0
    0.9409   -1.3276   -4.5556 C   0  0  0  0  0  0  0  0  0  0  0  0
   -0.3074   -0.6687   -4.6533 C   0  0  0  0  0  0  0  0  0  0  0  0
   -1.4563   -1.4074   -4.9282 C   0  0  0  0  0  0  0  0  0  0  0  0
   -1.3652   -2.7947   -5.1238 C   0  0  0  0  0  0  0  0  0  0  0  0
   -0.0683   -4.5249   -5.2308 H   0  0  0  0  0  0  0  0  0  0  0  0
    1.9999   -3.2187   -4.7502 H   0  0  0  0  0  0  0  0  0  0  0  0
    1.8547   -0.7415   -4.4336 H   0  0  0  0  0  0  0  0  0  0  0  0
   -0.3651    0.4126   -4.5254 H   0  0  0  0  0  0  0  0  0  0  0  0
   -2.4225   -0.9091   -5.0051 H   0  0  0  0  0  0  0  0  0  0  0  0
   -2.2666   -3.3675   -5.3444 H   0  0  0  0  0  0  0  0  0  0  0  0
  1  3  1  0  0  0  0
  2  1  2  0  0  0  0
  3  5  1  0  0  0  0
  4  3  1  0  0  0  0
  6  7  1  0  0  0  0
  7 13  1  0  0  0  0
  7  8  2  0  0  0  0
  8 14  1  0  0  0  0
  9  8  1  0  0  0  0
  9 15  1  0  0  0  0
 10  9  2  0  0  0  0
 11  6  2  0  0  0  0
 11 10  1  0  0  0  0
 12  6  1  0  0  0  0
 16 10  1  0  0  0  0
 17 11  1  0  0  0  0
M  RAD  1   2   2
M  END
