Coordinates from ORCA-job C6H6+NH2N2+-aug-scan
 OpenBabel10121810033D

 17 16  0  0  0  0  0  0  0  0999 V2000
    0.2255   -1.0921   -0.6528 N   0  0  0  0  0  0  0  0  0  0  0  0
    0.1830   -1.3693   -1.7284 N   0  0  0  0  0  0  0  0  0  0  0  0
    2.1095   -0.7625   -3.2832 N   0  0  0  0  0  0  0  0  0  0  0  0
    2.9757   -1.1778   -2.9248 H   0  0  0  0  0  0  0  0  0  0  0  0
    2.1221   -0.9737   -4.2827 H   0  0  0  0  0  0  0  0  0  0  0  0
    0.0327   -3.5323   -4.6401 C   0  0  0  0  0  0  0  0  0  0  0  0
    0.4067   -3.0680   -3.3842 C   0  0  0  0  0  0  0  0  0  0  0  0
    0.1254   -1.7177   -3.0743 C   0  0  0  0  0  0  0  0  0  0  0  0
   -0.6918   -0.9080   -3.8958 C   0  0  0  0  0  0  0  0  0  0  0  0
   -1.0478   -1.4078   -5.1432 C   0  0  0  0  0  0  0  0  0  0  0  0
   -0.6767   -2.7061   -5.5250 C   0  0  0  0  0  0  0  0  0  0  0  0
    0.2774   -4.5559   -4.9225 H   0  0  0  0  0  0  0  0  0  0  0  0
    0.9326   -3.7019   -2.6723 H   0  0  0  0  0  0  0  0  0  0  0  0
    2.2845    0.2467   -3.2349 H   0  0  0  0  0  0  0  0  0  0  0  0
   -0.9933    0.0860   -3.5696 H   0  0  0  0  0  0  0  0  0  0  0  0
   -1.6394   -0.7867   -5.8152 H   0  0  0  0  0  0  0  0  0  0  0  0
   -0.9703   -3.0870   -6.5028 H   0  0  0  0  0  0  0  0  0  0  0  0
  2  1  1  0  0  0  0
  3 14  1  0  0  0  0
  3  4  1  0  0  0  0
  5  3  1  0  0  0  0
  6  7  2  0  0  0  0
  7  8  1  0  0  0  0
  7 13  1  0  0  0  0
  8  2  1  0  0  0  0
  9 15  1  0  0  0  0
  9  8  2  0  0  0  0
 10  9  1  0  0  0  0
 11 10  2  0  0  0  0
 11  6  1  0  0  0  0
 12  6  1  0  0  0  0
 16 10  1  0  0  0  0
 17 11  1  0  0  0  0
M  RAD  2   1   3   2   2
M  END
