Coordinates from ORCA-job C6H6+NH2N2+-aug-scan
 OpenBabel10121810033D

 17 17  0  0  1  0  0  0  0  0999 V2000
    1.0931   -1.3327   -1.4043 N   0  0  0  0  0  0  0  0  0  0  0  0
    0.1154   -1.2970   -2.1242 N   0  0  0  0  0  0  0  0  0  0  0  0
    2.3181   -1.3502   -2.0685 N   0  0  0  0  0  0  0  0  0  0  0  0
    2.5482   -0.3852   -2.3328 H   0  0  0  0  0  0  0  0  0  0  0  0
    3.0228   -1.5967   -1.3664 H   0  0  0  0  0  0  0  0  0  0  0  0
   -0.0452   -3.4198   -4.8482 C   0  0  0  0  0  0  0  0  0  0  0  0
    0.8263   -2.7196   -4.0512 C   0  0  0  0  0  0  0  0  0  0  0  0
    0.5576   -1.3201   -3.6733 C   0  0  1  0  0  0  0  0  0  0  0  0
   -0.5880   -0.6907   -4.3621 C   0  0  0  0  0  0  0  0  0  0  0  0
   -1.4228   -1.3964   -5.1929 C   0  0  0  0  0  0  0  0  0  0  0  0
   -1.1674   -2.7674   -5.4111 C   0  0  0  0  0  0  0  0  0  0  0  0
    0.1424   -4.4672   -5.0831 H   0  0  0  0  0  0  0  0  0  0  0  0
    1.7258   -3.1927   -3.6631 H   0  0  0  0  0  0  0  0  0  0  0  0
    1.4366   -0.6838   -3.8050 H   0  0  0  0  0  0  0  0  0  0  0  0
   -0.7874    0.3600   -4.1434 H   0  0  0  0  0  0  0  0  0  0  0  0
   -2.2764   -0.9170   -5.6705 H   0  0  0  0  0  0  0  0  0  0  0  0
   -1.8431   -3.3379   -6.0521 H   0  0  0  0  0  0  0  0  0  0  0  0
  2  1  1  0  0  0  0
  3  1  1  0  0  0  0
  3  5  1  0  0  0  0
  4  3  1  0  0  0  0
  6  7  2  0  0  0  0
  7  8  1  0  0  0  0
  7 13  1  0  0  0  0
  8 14  1  6  0  0  0
  8  2  1  0  0  0  0
  9 15  1  0  0  0  0
  9  8  1  0  0  0  0
 10  9  2  0  0  0  0
 11 10  1  0  0  0  0
 11  6  1  0  0  0  0
 12  6  1  0  0  0  0
 16 10  1  0  0  0  0
 17 11  1  0  0  0  0
M  RAD  3   1   2   2   2  11   2
M  END
