Coordinates from ORCA-job C6H6+NH2N2+-aug-scan
 OpenBabel10121810033D

 17 16  0  0  0  0  0  0  0  0999 V2000
    1.0955   -1.5277   -1.5372 N   0  0  0  0  0  0  0  0  0  0  0  0
    1.0320   -2.0642   -2.5373 N   0  0  0  0  0  0  0  0  0  0  0  0
    0.9143   -0.5408   -0.6999 N   0  0  0  0  0  0  0  0  0  0  0  0
    0.0434   -0.0222   -0.8441 H   0  0  0  0  0  0  0  0  0  0  0  0
    1.2036   -0.7482    0.2551 H   0  0  0  0  0  0  0  0  0  0  0  0
   -0.2402   -3.4802   -5.1514 C   0  0  0  0  0  0  0  0  0  0  0  0
    0.9573   -2.9883   -5.7004 C   0  0  0  0  0  0  0  0  0  0  0  0
    1.3174   -1.6468   -5.5353 C   0  0  0  0  0  0  0  0  0  0  0  0
    0.4829   -0.7890   -4.8105 C   0  0  0  0  0  0  0  0  0  0  0  0
   -0.7158   -1.2847   -4.2459 C   0  0  0  0  0  0  0  0  0  0  0  0
   -1.0801   -2.6321   -4.4305 C   0  0  0  0  0  0  0  0  0  0  0  0
   -0.5171   -4.5237   -5.3027 H   0  0  0  0  0  0  0  0  0  0  0  0
    1.6029   -3.6562   -6.2716 H   0  0  0  0  0  0  0  0  0  0  0  0
    2.2368   -1.2679   -5.9815 H   0  0  0  0  0  0  0  0  0  0  0  0
    0.7397    0.2660   -4.7051 H   0  0  0  0  0  0  0  0  0  0  0  0
   -1.3975   -0.6035   -3.7325 H   0  0  0  0  0  0  0  0  0  0  0  0
   -2.0193   -3.0046   -4.0211 H   0  0  0  0  0  0  0  0  0  0  0  0
  1  3  1  0  0  0  0
  2  1  1  0  0  0  0
  3  5  1  0  0  0  0
  4  3  1  0  0  0  0
  6 11  2  0  0  0  0
  7  8  2  0  0  0  0
  7  6  1  0  0  0  0
  8  9  1  0  0  0  0
  9 15  1  0  0  0  0
  9 10  2  0  0  0  0
 10 16  1  0  0  0  0
 11 10  1  0  0  0  0
 11 17  1  0  0  0  0
 12  6  1  0  0  0  0
 13  7  1  0  0  0  0
 14  8  1  0  0  0  0
M  RAD  2   1   2   2   3
M  END
