Coordinates from ORCA-job C6H6+NH2N2+-aug-scan
 OpenBabel10121810033D

 17 16  0  0  0  0  0  0  0  0999 V2000
    0.2607   -1.0769   -0.6637 N   0  0  0  0  0  0  0  0  0  0  0  0
    0.1857   -1.3687   -1.7334 N   0  0  0  0  0  0  0  0  0  0  0  0
    2.1430   -0.7428   -3.2649 N   0  0  0  0  0  0  0  0  0  0  0  0
    3.0168   -1.1577   -2.9267 H   0  0  0  0  0  0  0  0  0  0  0  0
    2.1340   -0.9520   -4.2648 H   0  0  0  0  0  0  0  0  0  0  0  0
    0.0214   -3.5409   -4.6438 C   0  0  0  0  0  0  0  0  0  0  0  0
    0.3834   -3.0807   -3.3826 C   0  0  0  0  0  0  0  0  0  0  0  0
    0.0777   -1.7403   -3.0665 C   0  0  0  0  0  0  0  0  0  0  0  0
   -0.7140   -0.9187   -3.8960 C   0  0  0  0  0  0  0  0  0  0  0  0
   -1.0582   -1.4138   -5.1489 C   0  0  0  0  0  0  0  0  0  0  0  0
   -0.6840   -2.7117   -5.5293 C   0  0  0  0  0  0  0  0  0  0  0  0
    0.2751   -4.5607   -4.9315 H   0  0  0  0  0  0  0  0  0  0  0  0
    0.9113   -3.7133   -2.6712 H   0  0  0  0  0  0  0  0  0  0  0  0
    2.3213    0.2654   -3.2188 H   0  0  0  0  0  0  0  0  0  0  0  0
   -1.0124    0.0766   -3.5710 H   0  0  0  0  0  0  0  0  0  0  0  0
   -1.6389   -0.7894   -5.8270 H   0  0  0  0  0  0  0  0  0  0  0  0
   -0.9670   -3.0887   -6.5118 H   0  0  0  0  0  0  0  0  0  0  0  0
  2  1  1  0  0  0  0
  3 14  1  0  0  0  0
  3  4  1  0  0  0  0
  5  3  1  0  0  0  0
  6  7  2  0  0  0  0
  7  8  1  0  0  0  0
  7 13  1  0  0  0  0
  8  2  1  0  0  0  0
  9 15  1  0  0  0  0
  9  8  2  0  0  0  0
 10  9  1  0  0  0  0
 11 10  2  0  0  0  0
 11  6  1  0  0  0  0
 12  6  1  0  0  0  0
 16 10  1  0  0  0  0
 17 11  1  0  0  0  0
M  RAD  2   1   3   2   2
M  END
