Coordinates from ORCA-job C6H6+NH2N2+-aug-scan
 OpenBabel10121810033D

 17 16  0  0  0  0  0  0  0  0999 V2000
    1.0678   -1.5636   -1.5162 N   0  0  0  0  0  0  0  0  0  0  0  0
    0.7035   -2.1506   -2.4204 N   0  0  0  0  0  0  0  0  0  0  0  0
    1.5142   -0.5053   -0.8929 N   0  0  0  0  0  0  0  0  0  0  0  0
    1.1598    0.3820   -1.2607 H   0  0  0  0  0  0  0  0  0  0  0  0
    1.5954   -0.6189    0.1163 H   0  0  0  0  0  0  0  0  0  0  0  0
   -0.2463   -3.4969   -5.3103 C   0  0  0  0  0  0  0  0  0  0  0  0
    1.0340   -2.9391   -5.4399 C   0  0  0  0  0  0  0  0  0  0  0  0
    1.2577   -1.6165   -5.0550 C   0  0  0  0  0  0  0  0  0  0  0  0
    0.1928   -0.8514   -4.5275 C   0  0  0  0  0  0  0  0  0  0  0  0
   -1.0991   -1.4117   -4.4203 C   0  0  0  0  0  0  0  0  0  0  0  0
   -1.3119   -2.7351   -4.8059 C   0  0  0  0  0  0  0  0  0  0  0  0
   -0.4191   -4.5287   -5.6182 H   0  0  0  0  0  0  0  0  0  0  0  0
    1.8485   -3.5342   -5.8527 H   0  0  0  0  0  0  0  0  0  0  0  0
    2.2441   -1.1675   -5.1756 H   0  0  0  0  0  0  0  0  0  0  0  0
    0.3484    0.2035   -4.2916 H   0  0  0  0  0  0  0  0  0  0  0  0
   -1.9275   -0.8059   -4.0517 H   0  0  0  0  0  0  0  0  0  0  0  0
   -2.3066   -3.1743   -4.7293 H   0  0  0  0  0  0  0  0  0  0  0  0
  1  3  1  0  0  0  0
  2  1  2  0  0  0  0
  3  5  1  0  0  0  0
  4  3  1  0  0  0  0
  6 11  1  0  0  0  0
  7  6  2  0  0  0  0
  7  8  1  0  0  0  0
  8  9  2  0  0  0  0
  9 10  1  0  0  0  0
  9 15  1  0  0  0  0
 10 16  1  0  0  0  0
 11 17  1  0  0  0  0
 11 10  2  0  0  0  0
 12  6  1  0  0  0  0
 13  7  1  0  0  0  0
 14  8  1  0  0  0  0
M  RAD  1   2   2
M  END
