Coordinates from ORCA-job C6H6+NH2N2+-aug-scan
 OpenBabel10121810033D

 17 16  0  0  0  0  0  0  0  0999 V2000
    0.0139   -0.0661    0.8061 N   0  0  0  0  0  0  0  0  0  0  0  0
    0.4955   -0.2916   -0.1608 N   0  0  0  0  0  0  0  0  0  0  0  0
    1.9234   -0.9647   -2.9186 N   0  0  0  0  0  0  0  0  0  0  0  0
    2.6900   -1.6169   -2.7484 H   0  0  0  0  0  0  0  0  0  0  0  0
    2.2810   -0.1226   -3.3723 H   0  0  0  0  0  0  0  0  0  0  0  0
   -0.0230   -3.6959   -5.1456 C   0  0  0  0  0  0  0  0  0  0  0  0
    0.9169   -3.1084   -4.2820 C   0  0  0  0  0  0  0  0  0  0  0  0
    0.7215   -1.7663   -4.0442 C   0  0  0  0  0  0  0  0  0  0  0  0
   -0.2638   -0.9410   -4.5394 C   0  0  0  0  0  0  0  0  0  0  0  0
   -1.1809   -1.5688   -5.3982 C   0  0  0  0  0  0  0  0  0  0  0  0
   -1.0575   -2.9309   -5.6949 C   0  0  0  0  0  0  0  0  0  0  0  0
    0.0674   -4.7560   -5.3818 H   0  0  0  0  0  0  0  0  0  0  0  0
    1.7280   -3.6883   -3.8456 H   0  0  0  0  0  0  0  0  0  0  0  0
    1.4516   -0.7320   -2.0373 H   0  0  0  0  0  0  0  0  0  0  0  0
   -0.3423    0.1166   -4.2949 H   0  0  0  0  0  0  0  0  0  0  0  0
   -1.9890   -0.9791   -5.8307 H   0  0  0  0  0  0  0  0  0  0  0  0
   -1.7772   -3.4022   -6.3636 H   0  0  0  0  0  0  0  0  0  0  0  0
  2  1  3  0  0  0  0
  3  4  1  0  0  0  0
  3 14  1  0  0  0  0
  5  3  1  0  0  0  0
  6  7  2  0  0  0  0
  7  8  1  0  0  0  0
  7 13  1  0  0  0  0
  8  3  1  0  0  0  0
  9 15  1  0  0  0  0
  9  8  2  0  0  0  0
 10  9  1  0  0  0  0
 11 10  2  0  0  0  0
 11  6  1  0  0  0  0
 12  6  1  0  0  0  0
 16 10  1  0  0  0  0
 17 11  1  0  0  0  0
M  END
