Coordinates from ORCA-job C6H6+NH2N2+-aug-scan
 OpenBabel10121810033D

 17 16  0  0  0  0  0  0  0  0999 V2000
    0.0135   -0.0713    0.5379 N   0  0  0  0  0  0  0  0  0  0  0  0
    0.4496   -0.3484   -0.4369 N   0  0  0  0  0  0  0  0  0  0  0  0
    1.6205   -1.1874   -3.1709 N   0  0  0  0  0  0  0  0  0  0  0  0
    2.4294   -1.7791   -2.8854 H   0  0  0  0  0  0  0  0  0  0  0  0
    2.1083   -0.3083   -3.4861 H   0  0  0  0  0  0  0  0  0  0  0  0
    0.0660   -3.6169   -5.0666 C   0  0  0  0  0  0  0  0  0  0  0  0
    0.9949   -3.0108   -4.2211 C   0  0  0  0  0  0  0  0  0  0  0  0
    0.9064   -1.6494   -3.8528 C   0  0  0  0  0  0  0  0  0  0  0  0
   -0.1812   -0.9175   -4.4053 C   0  0  0  0  0  0  0  0  0  0  0  0
   -1.1079   -1.5149   -5.2500 C   0  0  0  0  0  0  0  0  0  0  0  0
   -0.9925   -2.8711   -5.5841 C   0  0  0  0  0  0  0  0  0  0  0  0
    0.1789   -4.6703   -5.3207 H   0  0  0  0  0  0  0  0  0  0  0  0
    1.8301   -3.5967   -3.8189 H   0  0  0  0  0  0  0  0  0  0  0  0
    1.2627   -0.8641   -2.2258 H   0  0  0  0  0  0  0  0  0  0  0  0
   -0.2794    0.1450   -4.1603 H   0  0  0  0  0  0  0  0  0  0  0  0
   -1.9239   -0.9173   -5.6556 H   0  0  0  0  0  0  0  0  0  0  0  0
   -1.7196   -3.3357   -6.2492 H   0  0  0  0  0  0  0  0  0  0  0  0
  2  1  3  0  0  0  0
  3  4  1  0  0  0  0
  3 14  1  0  0  0  0
  5  3  1  0  0  0  0
  6  7  2  0  0  0  0
  7  8  1  0  0  0  0
  7 13  1  0  0  0  0
  8  3  1  0  0  0  0
  9 15  1  0  0  0  0
  9  8  2  0  0  0  0
 10  9  1  0  0  0  0
 11 10  2  0  0  0  0
 11  6  1  0  0  0  0
 12  6  1  0  0  0  0
 16 10  1  0  0  0  0
 17 11  1  0  0  0  0
M  END
