Coordinates from ORCA-job C6H6+NH2N2+-aug-scan
 OpenBabel10121810033D

 17 16  0  0  0  0  0  0  0  0999 V2000
    0.9663   -1.6327   -1.4575 N   0  0  0  0  0  0  0  0  0  0  0  0
    0.1728   -1.9867   -2.2238 N   0  0  0  0  0  0  0  0  0  0  0  0
    2.1358   -1.0321   -1.4853 N   0  0  0  0  0  0  0  0  0  0  0  0
    2.2548   -0.3838   -2.2657 H   0  0  0  0  0  0  0  0  0  0  0  0
    2.4694   -0.7421   -0.5694 H   0  0  0  0  0  0  0  0  0  0  0  0
   -0.0932   -3.4353   -5.0553 C   0  0  0  0  0  0  0  0  0  0  0  0
    1.0234   -2.7548   -4.5864 C   0  0  0  0  0  0  0  0  0  0  0  0
    0.9137   -1.3794   -4.2398 C   0  0  0  0  0  0  0  0  0  0  0  0
   -0.3113   -0.6882   -4.4551 C   0  0  0  0  0  0  0  0  0  0  0  0
   -1.4205   -1.3831   -4.9241 C   0  0  0  0  0  0  0  0  0  0  0  0
   -1.3113   -2.7518   -5.2173 C   0  0  0  0  0  0  0  0  0  0  0  0
   -0.0235   -4.4921   -5.3118 H   0  0  0  0  0  0  0  0  0  0  0  0
    1.9794   -3.2671   -4.4762 H   0  0  0  0  0  0  0  0  0  0  0  0
    1.8270   -0.8077   -4.0702 H   0  0  0  0  0  0  0  0  0  0  0  0
   -0.3768    0.3803   -4.2476 H   0  0  0  0  0  0  0  0  0  0  0  0
   -2.3670   -0.8657   -5.0778 H   0  0  0  0  0  0  0  0  0  0  0  0
   -2.1831   -3.2918   -5.5887 H   0  0  0  0  0  0  0  0  0  0  0  0
  2  1  2  0  0  0  0
  3  1  1  0  0  0  0
  3  5  1  0  0  0  0
  4  3  1  0  0  0  0
  6  7  1  0  0  0  0
  7 13  1  0  0  0  0
  7  8  2  0  0  0  0
  8 14  1  0  0  0  0
  9 15  1  0  0  0  0
  9  8  1  0  0  0  0
 10  9  2  0  0  0  0
 11  6  2  0  0  0  0
 11 10  1  0  0  0  0
 12  6  1  0  0  0  0
 16 10  1  0  0  0  0
 17 11  1  0  0  0  0
M  RAD  1   2   2
M  END
