Coordinates from ORCA-job C6H6+NH2N2+-aug-scan
 OpenBabel10121810033D

 17 16  0  0  0  0  0  0  0  0999 V2000
    0.0018   -0.0585    0.6952 N   0  0  0  0  0  0  0  0  0  0  0  0
    0.4724   -0.3025   -0.2724 N   0  0  0  0  0  0  0  0  0  0  0  0
    1.8306   -1.0402   -2.9963 N   0  0  0  0  0  0  0  0  0  0  0  0
    2.5955   -1.6896   -2.7940 H   0  0  0  0  0  0  0  0  0  0  0  0
    2.2291   -0.2017   -3.4295 H   0  0  0  0  0  0  0  0  0  0  0  0
    0.0148   -3.6657   -5.1215 C   0  0  0  0  0  0  0  0  0  0  0  0
    0.9510   -3.0752   -4.2629 C   0  0  0  0  0  0  0  0  0  0  0  0
    0.7834   -1.7283   -3.9767 C   0  0  0  0  0  0  0  0  0  0  0  0
   -0.2373   -0.9332   -4.4798 C   0  0  0  0  0  0  0  0  0  0  0  0
   -1.1590   -1.5473   -5.3355 C   0  0  0  0  0  0  0  0  0  0  0  0
   -1.0315   -2.9048   -5.6526 C   0  0  0  0  0  0  0  0  0  0  0  0
    0.1108   -4.7215   -5.3727 H   0  0  0  0  0  0  0  0  0  0  0  0
    1.7704   -3.6613   -3.8454 H   0  0  0  0  0  0  0  0  0  0  0  0
    1.3808   -0.7757   -2.1068 H   0  0  0  0  0  0  0  0  0  0  0  0
   -0.3277    0.1235   -4.2266 H   0  0  0  0  0  0  0  0  0  0  0  0
   -1.9752   -0.9591   -5.7538 H   0  0  0  0  0  0  0  0  0  0  0  0
   -1.7540   -3.3729   -6.3207 H   0  0  0  0  0  0  0  0  0  0  0  0
  2  1  3  0  0  0  0
  3  4  1  0  0  0  0
  3 14  1  0  0  0  0
  5  3  1  0  0  0  0
  6  7  2  0  0  0  0
  7  8  1  0  0  0  0
  7 13  1  0  0  0  0
  8  3  1  0  0  0  0
  9 15  1  0  0  0  0
  9  8  2  0  0  0  0
 10  9  1  0  0  0  0
 11 10  2  0  0  0  0
 11  6  1  0  0  0  0
 12  6  1  0  0  0  0
 16 10  1  0  0  0  0
 17 11  1  0  0  0  0
M  END
