Coordinates from ORCA-job C6H6+NH2N2+-aug-scan
 OpenBabel10121810033D

 17 16  0  0  0  0  0  0  0  0999 V2000
    0.9776   -1.5434   -1.3287 N   0  0  0  0  0  0  0  0  0  0  0  0
    1.2132   -1.5215   -2.4374 N   0  0  0  0  0  0  0  0  0  0  0  0
    0.3253   -1.5391   -0.1994 N   0  0  0  0  0  0  0  0  0  0  0  0
   -0.5567   -2.0588   -0.2151 H   0  0  0  0  0  0  0  0  0  0  0  0
    0.9207   -1.6038    0.6263 H   0  0  0  0  0  0  0  0  0  0  0  0
    0.0062   -3.1266   -4.5846 C   0  0  0  0  0  0  0  0  0  0  0  0
    0.9698   -2.9638   -5.5813 C   0  0  0  0  0  0  0  0  0  0  0  0
    1.2030   -1.6934   -6.1312 C   0  0  0  0  0  0  0  0  0  0  0  0
    0.4805   -0.5799   -5.6755 C   0  0  0  0  0  0  0  0  0  0  0  0
   -0.4846   -0.7345   -4.6787 C   0  0  0  0  0  0  0  0  0  0  0  0
   -0.7214   -2.0097   -4.1241 C   0  0  0  0  0  0  0  0  0  0  0  0
   -0.2023   -4.1188   -4.1823 H   0  0  0  0  0  0  0  0  0  0  0  0
    1.5270   -3.8259   -5.9483 H   0  0  0  0  0  0  0  0  0  0  0  0
    1.9459   -1.5721   -6.9202 H   0  0  0  0  0  0  0  0  0  0  0  0
    0.6593    0.4017   -6.1148 H   0  0  0  0  0  0  0  0  0  0  0  0
   -1.0717    0.1228   -4.3472 H   0  0  0  0  0  0  0  0  0  0  0  0
   -1.5359   -2.1475   -3.4094 H   0  0  0  0  0  0  0  0  0  0  0  0
  1  3  1  0  0  0  0
  2  1  1  0  0  0  0
  3  5  1  0  0  0  0
  4  3  1  0  0  0  0
  6 12  1  0  0  0  0
  6 11  1  0  0  0  0
  7  6  2  0  0  0  0
  8  9  2  0  0  0  0
  8  7  1  0  0  0  0
  9 10  1  0  0  0  0
 10 16  1  0  0  0  0
 10 11  2  0  0  0  0
 11 17  1  0  0  0  0
 13  7  1  0  0  0  0
 14  8  1  0  0  0  0
 15  9  1  0  0  0  0
M  RAD  2   1   2   2   3
M  END
