Coordinates from ORCA-job C6H6+NH2N2+-aug-scan
 OpenBabel10121810033D

 17 16  0  0  0  0  0  0  0  0999 V2000
    0.9028   -1.5502   -1.1594 N   0  0  0  0  0  0  0  0  0  0  0  0
    1.2062   -1.5004   -2.2478 N   0  0  0  0  0  0  0  0  0  0  0  0
    0.2692   -1.5641   -0.0226 N   0  0  0  0  0  0  0  0  0  0  0  0
   -0.6104   -2.0882   -0.0279 H   0  0  0  0  0  0  0  0  0  0  0  0
    0.8765   -1.6183    0.7960 H   0  0  0  0  0  0  0  0  0  0  0  0
    0.0608   -3.1093   -4.6208 C   0  0  0  0  0  0  0  0  0  0  0  0
    0.9639   -2.9666   -5.6763 C   0  0  0  0  0  0  0  0  0  0  0  0
    1.1624   -1.7084   -6.2663 C   0  0  0  0  0  0  0  0  0  0  0  0
    0.4704   -0.5861   -5.7847 C   0  0  0  0  0  0  0  0  0  0  0  0
   -0.4338   -0.7216   -4.7293 C   0  0  0  0  0  0  0  0  0  0  0  0
   -0.6422   -1.9857   -4.1425 C   0  0  0  0  0  0  0  0  0  0  0  0
   -0.1232   -4.0947   -4.1903 H   0  0  0  0  0  0  0  0  0  0  0  0
    1.4984   -3.8367   -6.0581 H   0  0  0  0  0  0  0  0  0  0  0  0
    1.8547   -1.6030   -7.1020 H   0  0  0  0  0  0  0  0  0  0  0  0
    0.6231    0.3879   -6.2501 H   0  0  0  0  0  0  0  0  0  0  0  0
   -0.9998    0.1433   -4.3809 H   0  0  0  0  0  0  0  0  0  0  0  0
   -1.4230   -2.1119   -3.3889 H   0  0  0  0  0  0  0  0  0  0  0  0
  1  3  1  0  0  0  0
  2  1  1  0  0  0  0
  3  5  1  0  0  0  0
  4  3  1  0  0  0  0
  6 12  1  0  0  0  0
  6 11  1  0  0  0  0
  7  6  2  0  0  0  0
  8  9  2  0  0  0  0
  8  7  1  0  0  0  0
  9 10  1  0  0  0  0
 10 16  1  0  0  0  0
 10 11  2  0  0  0  0
 11 17  1  0  0  0  0
 13  7  1  0  0  0  0
 14  8  1  0  0  0  0
 15  9  1  0  0  0  0
M  RAD  2   1   2   2   3
M  END
