Coordinates from ORCA-job C6H6+NH2N2+-aug-scan
 OpenBabel10121810033D

 17 16  0  0  0  0  0  0  0  0999 V2000
    1.2180   -1.5063   -1.7163 N   0  0  0  0  0  0  0  0  0  0  0  0
    1.3100   -1.5392   -2.8534 N   0  0  0  0  0  0  0  0  0  0  0  0
    0.3895   -1.4915   -0.7061 N   0  0  0  0  0  0  0  0  0  0  0  0
   -0.4930   -1.9767   -0.8908 H   0  0  0  0  0  0  0  0  0  0  0  0
    0.8311   -1.6083    0.2032 H   0  0  0  0  0  0  0  0  0  0  0  0
   -0.0784   -3.1679   -4.4677 C   0  0  0  0  0  0  0  0  0  0  0  0
    0.9602   -2.9678   -5.3739 C   0  0  0  0  0  0  0  0  0  0  0  0
    1.2511   -1.6695   -5.8179 C   0  0  0  0  0  0  0  0  0  0  0  0
    0.4803   -0.5707   -5.4213 C   0  0  0  0  0  0  0  0  0  0  0  0
   -0.5564   -0.7564   -4.5073 C   0  0  0  0  0  0  0  0  0  0  0  0
   -0.8171   -2.0551   -4.0030 C   0  0  0  0  0  0  0  0  0  0  0  0
   -0.3245   -4.1703   -4.1164 H   0  0  0  0  0  0  0  0  0  0  0  0
    1.5471   -3.8120   -5.7349 H   0  0  0  0  0  0  0  0  0  0  0  0
    2.0715   -1.5193   -6.5208 H   0  0  0  0  0  0  0  0  0  0  0  0
    0.6965    0.4216   -5.8157 H   0  0  0  0  0  0  0  0  0  0  0  0
   -1.1689    0.0851   -4.1823 H   0  0  0  0  0  0  0  0  0  0  0  0
   -1.6612   -2.2099   -3.3273 H   0  0  0  0  0  0  0  0  0  0  0  0
  1  3  1  0  0  0  0
  2  1  2  0  0  0  0
  3  5  1  0  0  0  0
  4  3  1  0  0  0  0
  6 12  1  0  0  0  0
  6 11  1  0  0  0  0
  7  6  2  0  0  0  0
  8  9  2  0  0  0  0
  8  7  1  0  0  0  0
  9 10  1  0  0  0  0
 10 16  1  0  0  0  0
 10 11  2  0  0  0  0
 11 17  1  0  0  0  0
 13  7  1  0  0  0  0
 14  8  1  0  0  0  0
 15  9  1  0  0  0  0
M  RAD  1   2   2
M  END
