Coordinates from ORCA-job C6H6+NH2N2+-aug-scan
 OpenBabel10121810033D

 17 16  0  0  0  0  0  0  0  0999 V2000
   -0.0033   -0.0724    0.6538 N   0  0  0  0  0  0  0  0  0  0  0  0
    0.4649   -0.3183   -0.3145 N   0  0  0  0  0  0  0  0  0  0  0  0
    1.7915   -1.0671   -3.0323 N   0  0  0  0  0  0  0  0  0  0  0  0
    2.5613   -1.7094   -2.8177 H   0  0  0  0  0  0  0  0  0  0  0  0
    2.2049   -0.2254   -3.4501 H   0  0  0  0  0  0  0  0  0  0  0  0
    0.0259   -3.6544   -5.1052 C   0  0  0  0  0  0  0  0  0  0  0  0
    0.9614   -3.0604   -4.2506 C   0  0  0  0  0  0  0  0  0  0  0  0
    0.8094   -1.7101   -3.9513 C   0  0  0  0  0  0  0  0  0  0  0  0
   -0.2235   -0.9278   -4.4629 C   0  0  0  0  0  0  0  0  0  0  0  0
   -1.1478   -1.5384   -5.3153 C   0  0  0  0  0  0  0  0  0  0  0  0
   -1.0227   -2.8958   -5.6338 C   0  0  0  0  0  0  0  0  0  0  0  0
    0.1229   -4.7101   -5.3564 H   0  0  0  0  0  0  0  0  0  0  0  0
    1.7826   -3.6487   -3.8370 H   0  0  0  0  0  0  0  0  0  0  0  0
    1.3564   -0.7928   -2.1353 H   0  0  0  0  0  0  0  0  0  0  0  0
   -0.3163    0.1302   -4.2120 H   0  0  0  0  0  0  0  0  0  0  0  0
   -1.9648   -0.9496   -5.7312 H   0  0  0  0  0  0  0  0  0  0  0  0
   -1.7469   -3.3639   -6.3001 H   0  0  0  0  0  0  0  0  0  0  0  0
  2  1  3  0  0  0  0
  3  4  1  0  0  0  0
  3 14  1  0  0  0  0
  5  3  1  0  0  0  0
  6  7  2  0  0  0  0
  7  8  1  0  0  0  0
  7 13  1  0  0  0  0
  8  3  1  0  0  0  0
  9 15  1  0  0  0  0
  9  8  2  0  0  0  0
 10  9  1  0  0  0  0
 11 10  2  0  0  0  0
 11  6  1  0  0  0  0
 12  6  1  0  0  0  0
 16 10  1  0  0  0  0
 17 11  1  0  0  0  0
M  END
