Coordinates from ORCA-job C6H6+NH2N2+-aug-scan
 OpenBabel10121810033D

 17 16  0  0  0  0  0  0  0  0999 V2000
    0.0019   -0.0546    0.8176 N   0  0  0  0  0  0  0  0  0  0  0  0
    0.4934   -0.2803   -0.1442 N   0  0  0  0  0  0  0  0  0  0  0  0
    1.9469   -0.9539   -2.9025 N   0  0  0  0  0  0  0  0  0  0  0  0
    2.7106   -1.6091   -2.7345 H   0  0  0  0  0  0  0  0  0  0  0  0
    2.3023   -0.1139   -3.3605 H   0  0  0  0  0  0  0  0  0  0  0  0
   -0.0287   -3.7010   -5.1564 C   0  0  0  0  0  0  0  0  0  0  0  0
    0.9138   -3.1159   -4.2921 C   0  0  0  0  0  0  0  0  0  0  0  0
    0.7104   -1.7768   -4.0576 C   0  0  0  0  0  0  0  0  0  0  0  0
   -0.2709   -0.9452   -4.5435 C   0  0  0  0  0  0  0  0  0  0  0  0
   -1.1889   -1.5738   -5.4025 C   0  0  0  0  0  0  0  0  0  0  0  0
   -1.0645   -2.9352   -5.7020 C   0  0  0  0  0  0  0  0  0  0  0  0
    0.0627   -4.7606   -5.3945 H   0  0  0  0  0  0  0  0  0  0  0  0
    1.7264   -3.6945   -3.8577 H   0  0  0  0  0  0  0  0  0  0  0  0
    1.4718   -0.7219   -2.0238 H   0  0  0  0  0  0  0  0  0  0  0  0
   -0.3482    0.1114   -4.2957 H   0  0  0  0  0  0  0  0  0  0  0  0
   -1.9981   -0.9832   -5.8318 H   0  0  0  0  0  0  0  0  0  0  0  0
   -1.7850   -3.4057   -6.3704 H   0  0  0  0  0  0  0  0  0  0  0  0
  2  1  3  0  0  0  0
  3  4  1  0  0  0  0
  3 14  1  0  0  0  0
  5  3  1  0  0  0  0
  6  7  2  0  0  0  0
  7  8  1  0  0  0  0
  7 13  1  0  0  0  0
  8  3  1  0  0  0  0
  9 15  1  0  0  0  0
  9  8  2  0  0  0  0
 10  9  1  0  0  0  0
 11 10  2  0  0  0  0
 11  6  1  0  0  0  0
 12  6  1  0  0  0  0
 16 10  1  0  0  0  0
 17 11  1  0  0  0  0
M  END
