Coordinates from ORCA-job C6H6+NH2N2+-aug-scan
 OpenBabel10121810033D

 17 16  0  0  0  0  0  0  0  0999 V2000
    1.1828   -1.5133   -1.6828 N   0  0  0  0  0  0  0  0  0  0  0  0
    1.2827   -1.5422   -2.8179 N   0  0  0  0  0  0  0  0  0  0  0  0
    0.4011   -1.4960   -0.6369 N   0  0  0  0  0  0  0  0  0  0  0  0
   -0.4858   -1.9895   -0.7720 H   0  0  0  0  0  0  0  0  0  0  0  0
    0.8854   -1.5989    0.2524 H   0  0  0  0  0  0  0  0  0  0  0  0
   -0.0802   -3.1636   -4.4897 C   0  0  0  0  0  0  0  0  0  0  0  0
    0.9643   -2.9657   -5.3906 C   0  0  0  0  0  0  0  0  0  0  0  0
    1.2553   -1.6699   -5.8416 C   0  0  0  0  0  0  0  0  0  0  0  0
    0.4827   -0.5710   -5.4463 C   0  0  0  0  0  0  0  0  0  0  0  0
   -0.5610   -0.7557   -4.5397 C   0  0  0  0  0  0  0  0  0  0  0  0
   -0.8263   -2.0522   -4.0359 C   0  0  0  0  0  0  0  0  0  0  0  0
   -0.3258   -4.1656   -4.1367 H   0  0  0  0  0  0  0  0  0  0  0  0
    1.5535   -3.8115   -5.7443 H   0  0  0  0  0  0  0  0  0  0  0  0
    2.0772   -1.5209   -6.5429 H   0  0  0  0  0  0  0  0  0  0  0  0
    0.7000    0.4213   -5.8404 H   0  0  0  0  0  0  0  0  0  0  0  0
   -1.1757    0.0868   -4.2218 H   0  0  0  0  0  0  0  0  0  0  0  0
   -1.6743   -2.2062   -3.3650 H   0  0  0  0  0  0  0  0  0  0  0  0
  1  3  1  0  0  0  0
  2  1  2  0  0  0  0
  3  5  1  0  0  0  0
  4  3  1  0  0  0  0
  6 12  1  0  0  0  0
  6 11  1  0  0  0  0
  7  6  2  0  0  0  0
  8  9  2  0  0  0  0
  8  7  1  0  0  0  0
  9 10  1  0  0  0  0
 10 16  1  0  0  0  0
 10 11  2  0  0  0  0
 11 17  1  0  0  0  0
 13  7  1  0  0  0  0
 14  8  1  0  0  0  0
 15  9  1  0  0  0  0
M  RAD  1   2   2
M  END
