Coordinates from ORCA-job C6H6+NH2N2+-aug-scan
 OpenBabel10121810033D

 17 16  0  0  0  0  0  0  0  0999 V2000
    1.1085   -1.5497   -1.5551 N   0  0  0  0  0  0  0  0  0  0  0  0
    1.0332   -2.0940   -2.5513 N   0  0  0  0  0  0  0  0  0  0  0  0
    0.9362   -0.5334   -0.7505 N   0  0  0  0  0  0  0  0  0  0  0  0
    0.0805    0.0002   -0.9277 H   0  0  0  0  0  0  0  0  0  0  0  0
    1.2026   -0.7181    0.2154 H   0  0  0  0  0  0  0  0  0  0  0  0
   -0.2465   -3.4772   -5.1588 C   0  0  0  0  0  0  0  0  0  0  0  0
    0.9596   -2.9799   -5.6845 C   0  0  0  0  0  0  0  0  0  0  0  0
    1.3209   -1.6429   -5.4938 C   0  0  0  0  0  0  0  0  0  0  0  0
    0.4773   -0.7934   -4.7677 C   0  0  0  0  0  0  0  0  0  0  0  0
   -0.7317   -1.2946   -4.2289 C   0  0  0  0  0  0  0  0  0  0  0  0
   -1.0951   -2.6381   -4.4372 C   0  0  0  0  0  0  0  0  0  0  0  0
   -0.5228   -4.5180   -5.3284 H   0  0  0  0  0  0  0  0  0  0  0  0
    1.6117   -3.6409   -6.2563 H   0  0  0  0  0  0  0  0  0  0  0  0
    2.2472   -1.2594   -5.9213 H   0  0  0  0  0  0  0  0  0  0  0  0
    0.7336    0.2600   -4.6457 H   0  0  0  0  0  0  0  0  0  0  0  0
   -1.4191   -0.6199   -3.7145 H   0  0  0  0  0  0  0  0  0  0  0  0
   -2.0401   -3.0149   -4.0457 H   0  0  0  0  0  0  0  0  0  0  0  0
  1  3  1  0  0  0  0
  2  1  2  0  0  0  0
  3  5  1  0  0  0  0
  4  3  1  0  0  0  0
  6 11  2  0  0  0  0
  7  8  2  0  0  0  0
  7  6  1  0  0  0  0
  8  9  1  0  0  0  0
  9 15  1  0  0  0  0
  9 10  2  0  0  0  0
 10 16  1  0  0  0  0
 11 10  1  0  0  0  0
 11 17  1  0  0  0  0
 12  6  1  0  0  0  0
 13  7  1  0  0  0  0
 14  8  1  0  0  0  0
M  RAD  1   2   2
M  END
