Coordinates from ORCA-job C6H6+NH2N2+-aug-scan
 OpenBabel10121810033D

 17 16  0  0  0  0  0  0  0  0999 V2000
    0.0011   -0.0583    0.6908 N   0  0  0  0  0  0  0  0  0  0  0  0
    0.4715   -0.3031   -0.2768 N   0  0  0  0  0  0  0  0  0  0  0  0
    1.8267   -1.0433   -2.9997 N   0  0  0  0  0  0  0  0  0  0  0  0
    2.5917   -1.6924   -2.7958 H   0  0  0  0  0  0  0  0  0  0  0  0
    2.2270   -0.2048   -3.4316 H   0  0  0  0  0  0  0  0  0  0  0  0
    0.0163   -3.6645   -5.1205 C   0  0  0  0  0  0  0  0  0  0  0  0
    0.9523   -3.0739   -4.2622 C   0  0  0  0  0  0  0  0  0  0  0  0
    0.7860   -1.7267   -3.9740 C   0  0  0  0  0  0  0  0  0  0  0  0
   -0.2362   -0.9329   -4.4775 C   0  0  0  0  0  0  0  0  0  0  0  0
   -1.1581   -1.5465   -5.3331 C   0  0  0  0  0  0  0  0  0  0  0  0
   -1.0306   -2.9038   -5.6508 C   0  0  0  0  0  0  0  0  0  0  0  0
    0.1125   -4.7202   -5.3722 H   0  0  0  0  0  0  0  0  0  0  0  0
    1.7721   -3.6602   -3.8454 H   0  0  0  0  0  0  0  0  0  0  0  0
    1.3782   -0.7775   -2.1096 H   0  0  0  0  0  0  0  0  0  0  0  0
   -0.3270    0.1237   -4.2240 H   0  0  0  0  0  0  0  0  0  0  0  0
   -1.9745   -0.9582   -5.7508 H   0  0  0  0  0  0  0  0  0  0  0  0
   -1.7532   -3.3717   -6.3190 H   0  0  0  0  0  0  0  0  0  0  0  0
  2  1  3  0  0  0  0
  3  4  1  0  0  0  0
  3 14  1  0  0  0  0
  5  3  1  0  0  0  0
  6  7  2  0  0  0  0
  7  8  1  0  0  0  0
  7 13  1  0  0  0  0
  8  3  1  0  0  0  0
  9 15  1  0  0  0  0
  9  8  2  0  0  0  0
 10  9  1  0  0  0  0
 11 10  2  0  0  0  0
 11  6  1  0  0  0  0
 12  6  1  0  0  0  0
 16 10  1  0  0  0  0
 17 11  1  0  0  0  0
M  END
