Coordinates from ORCA-job C6H6+NH2N2+-aug-scan
 OpenBabel10121810033D

 17 16  0  0  0  0  0  0  0  0999 V2000
    1.0955   -1.5408   -1.5399 N   0  0  0  0  0  0  0  0  0  0  0  0
    0.9816   -2.1168   -2.5128 N   0  0  0  0  0  0  0  0  0  0  0  0
    1.0250   -0.4973   -0.7570 N   0  0  0  0  0  0  0  0  0  0  0  0
    0.2277    0.1166   -0.9454 H   0  0  0  0  0  0  0  0  0  0  0  0
    1.2755   -0.6867    0.2126 H   0  0  0  0  0  0  0  0  0  0  0  0
   -0.2549   -3.4857   -5.2050 C   0  0  0  0  0  0  0  0  0  0  0  0
    0.9708   -2.9769   -5.6711 C   0  0  0  0  0  0  0  0  0  0  0  0
    1.3204   -1.6451   -5.4355 C   0  0  0  0  0  0  0  0  0  0  0  0
    0.4449   -0.8140   -4.7225 C   0  0  0  0  0  0  0  0  0  0  0  0
   -0.7861   -1.3266   -4.2490 C   0  0  0  0  0  0  0  0  0  0  0  0
   -1.1353   -2.6641   -4.5001 C   0  0  0  0  0  0  0  0  0  0  0  0
   -0.5220   -4.5230   -5.4079 H   0  0  0  0  0  0  0  0  0  0  0  0
    1.6458   -3.6245   -6.2314 H   0  0  0  0  0  0  0  0  0  0  0  0
    2.2618   -1.2492   -5.8165 H   0  0  0  0  0  0  0  0  0  0  0  0
    0.6923    0.2380   -4.5711 H   0  0  0  0  0  0  0  0  0  0  0  0
   -1.4930   -0.6659   -3.7434 H   0  0  0  0  0  0  0  0  0  0  0  0
   -2.0941   -3.0521   -4.1560 H   0  0  0  0  0  0  0  0  0  0  0  0
  1  3  1  0  0  0  0
  2  1  1  0  0  0  0
  3  5  1  0  0  0  0
  4  3  1  0  0  0  0
  6 11  2  0  0  0  0
  7  8  2  0  0  0  0
  7  6  1  0  0  0  0
  8  9  1  0  0  0  0
  9 15  1  0  0  0  0
  9 10  2  0  0  0  0
 10 16  1  0  0  0  0
 11 10  1  0  0  0  0
 11 17  1  0  0  0  0
 12  6  1  0  0  0  0
 13  7  1  0  0  0  0
 14  8  1  0  0  0  0
M  RAD  2   1   2   2   3
M  END
