Coordinates from ORCA-job C6H6+NH2N2+-aug-scan
 OpenBabel10121810033D

 17 16  0  0  0  0  0  0  0  0999 V2000
    0.8221   -1.5650   -1.0331 N   0  0  0  0  0  0  0  0  0  0  0  0
    1.1590   -1.4917   -2.1071 N   0  0  0  0  0  0  0  0  0  0  0  0
    0.2647   -1.5606    0.1413 N   0  0  0  0  0  0  0  0  0  0  0  0
   -0.6195   -2.0737    0.1971 H   0  0  0  0  0  0  0  0  0  0  0  0
    0.9248   -1.6216    0.9190 H   0  0  0  0  0  0  0  0  0  0  0  0
    0.0766   -3.1068   -4.6783 C   0  0  0  0  0  0  0  0  0  0  0  0
    0.9652   -2.9681   -5.7475 C   0  0  0  0  0  0  0  0  0  0  0  0
    1.1555   -1.7126   -6.3453 C   0  0  0  0  0  0  0  0  0  0  0  0
    0.4710   -0.5893   -5.8565 C   0  0  0  0  0  0  0  0  0  0  0  0
   -0.4188   -0.7219   -4.7875 C   0  0  0  0  0  0  0  0  0  0  0  0
   -0.6212   -1.9833   -4.1964 C   0  0  0  0  0  0  0  0  0  0  0  0
   -0.1009   -4.0910   -4.2423 H   0  0  0  0  0  0  0  0  0  0  0  0
    1.4942   -3.8398   -6.1333 H   0  0  0  0  0  0  0  0  0  0  0  0
    1.8357   -1.6101   -7.1913 H   0  0  0  0  0  0  0  0  0  0  0  0
    0.6173    0.3836   -6.3263 H   0  0  0  0  0  0  0  0  0  0  0  0
   -0.9796    0.1445   -4.4344 H   0  0  0  0  0  0  0  0  0  0  0  0
   -1.3902   -2.1069   -3.4303 H   0  0  0  0  0  0  0  0  0  0  0  0
  1  3  1  0  0  0  0
  2  1  1  0  0  0  0
  3  4  1  0  0  0  0
  3  5  1  0  0  0  0
  6 12  1  0  0  0  0
  6 11  1  0  0  0  0
  7  6  2  0  0  0  0
  8  9  2  0  0  0  0
  8  7  1  0  0  0  0
  9 10  1  0  0  0  0
 10 16  1  0  0  0  0
 10 11  2  0  0  0  0
 11 17  1  0  0  0  0
 13  7  1  0  0  0  0
 14  8  1  0  0  0  0
 15  9  1  0  0  0  0
M  RAD  2   1   2   2   3
M  END
