Coordinates from ORCA-job C6H6+NH2N2+-aug-scan
 OpenBabel10121810033D

 17 16  0  0  0  0  0  0  0  0999 V2000
    1.0581   -1.5827   -1.5141 N   0  0  0  0  0  0  0  0  0  0  0  0
    0.6448   -2.1636   -2.4031 N   0  0  0  0  0  0  0  0  0  0  0  0
    1.5845   -0.5241   -0.9544 N   0  0  0  0  0  0  0  0  0  0  0  0
    1.2894    0.3630   -1.3714 H   0  0  0  0  0  0  0  0  0  0  0  0
    1.6647   -0.5851    0.0591 H   0  0  0  0  0  0  0  0  0  0  0  0
   -0.2389   -3.4898   -5.3187 C   0  0  0  0  0  0  0  0  0  0  0  0
    1.0426   -2.9266   -5.3846 C   0  0  0  0  0  0  0  0  0  0  0  0
    1.2426   -1.6078   -4.9721 C   0  0  0  0  0  0  0  0  0  0  0  0
    0.1502   -0.8527   -4.4835 C   0  0  0  0  0  0  0  0  0  0  0  0
   -1.1422   -1.4192   -4.4414 C   0  0  0  0  0  0  0  0  0  0  0  0
   -1.3301   -2.7378   -4.8517 C   0  0  0  0  0  0  0  0  0  0  0  0
   -0.3941   -4.5182   -5.6463 H   0  0  0  0  0  0  0  0  0  0  0  0
    1.8775   -3.5127   -5.7685 H   0  0  0  0  0  0  0  0  0  0  0  0
    2.2309   -1.1525   -5.0453 H   0  0  0  0  0  0  0  0  0  0  0  0
    0.2887    0.2009   -4.2314 H   0  0  0  0  0  0  0  0  0  0  0  0
   -1.9884   -0.8221   -4.1005 H   0  0  0  0  0  0  0  0  0  0  0  0
   -2.3246   -3.1831   -4.8240 H   0  0  0  0  0  0  0  0  0  0  0  0
  1  3  1  0  0  0  0
  2  1  2  0  0  0  0
  3  5  1  0  0  0  0
  4  3  1  0  0  0  0
  6 11  1  0  0  0  0
  7  6  2  0  0  0  0
  7  8  1  0  0  0  0
  8  9  2  0  0  0  0
  9 10  1  0  0  0  0
  9 15  1  0  0  0  0
 10 16  1  0  0  0  0
 11 17  1  0  0  0  0
 11 10  2  0  0  0  0
 12  6  1  0  0  0  0
 13  7  1  0  0  0  0
 14  8  1  0  0  0  0
M  RAD  1   2   2
M  END
