Coordinates from ORCA-job C6H6+NH2N2+-aug-scan
 OpenBabel10121810033D

 17 16  0  0  0  0  0  0  0  0999 V2000
    1.1040   -1.5434   -1.5511 N   0  0  0  0  0  0  0  0  0  0  0  0
    1.0337   -2.0843   -2.5491 N   0  0  0  0  0  0  0  0  0  0  0  0
    0.9267   -0.5386   -0.7340 N   0  0  0  0  0  0  0  0  0  0  0  0
    0.0643   -0.0117   -0.8983 H   0  0  0  0  0  0  0  0  0  0  0  0
    1.2032   -0.7310    0.2277 H   0  0  0  0  0  0  0  0  0  0  0  0
   -0.2437   -3.4778   -5.1537 C   0  0  0  0  0  0  0  0  0  0  0  0
    0.9591   -2.9827   -5.6884 C   0  0  0  0  0  0  0  0  0  0  0  0
    1.3197   -1.6437   -5.5086 C   0  0  0  0  0  0  0  0  0  0  0  0
    0.4792   -0.7904   -4.7842 C   0  0  0  0  0  0  0  0  0  0  0  0
   -0.7258   -1.2894   -4.2352 C   0  0  0  0  0  0  0  0  0  0  0  0
   -1.0892   -2.6348   -4.4332 C   0  0  0  0  0  0  0  0  0  0  0  0
   -0.5200   -4.5199   -5.3153 H   0  0  0  0  0  0  0  0  0  0  0  0
    1.6091   -3.6467   -6.2591 H   0  0  0  0  0  0  0  0  0  0  0  0
    2.2434   -1.2622   -5.9435 H   0  0  0  0  0  0  0  0  0  0  0  0
    0.7354    0.2638   -4.6696 H   0  0  0  0  0  0  0  0  0  0  0  0
   -1.4113   -0.6119   -3.7219 H   0  0  0  0  0  0  0  0  0  0  0  0
   -2.0320   -3.0097   -4.0345 H   0  0  0  0  0  0  0  0  0  0  0  0
  1  3  1  0  0  0  0
  2  1  2  0  0  0  0
  3  5  1  0  0  0  0
  4  3  1  0  0  0  0
  6 11  2  0  0  0  0
  7  8  2  0  0  0  0
  7  6  1  0  0  0  0
  8  9  1  0  0  0  0
  9 15  1  0  0  0  0
  9 10  2  0  0  0  0
 10 16  1  0  0  0  0
 11 10  1  0  0  0  0
 11 17  1  0  0  0  0
 12  6  1  0  0  0  0
 13  7  1  0  0  0  0
 14  8  1  0  0  0  0
M  RAD  1   2   2
M  END
