Coordinates from ORCA-job C6H6+NH2N2+-aug-scan
 OpenBabel10121810033D

 17 16  0  0  0  0  0  0  0  0999 V2000
    0.1784   -1.1139   -0.6447 N   0  0  0  0  0  0  0  0  0  0  0  0
    0.1799   -1.3701   -1.7270 N   0  0  0  0  0  0  0  0  0  0  0  0
    2.0873   -0.7775   -3.3008 N   0  0  0  0  0  0  0  0  0  0  0  0
    2.9437   -1.1981   -2.9245 H   0  0  0  0  0  0  0  0  0  0  0  0
    2.1209   -0.9781   -4.3021 H   0  0  0  0  0  0  0  0  0  0  0  0
    0.0398   -3.5262   -4.6358 C   0  0  0  0  0  0  0  0  0  0  0  0
    0.4300   -3.0558   -3.3873 C   0  0  0  0  0  0  0  0  0  0  0  0
    0.1750   -1.6947   -3.0851 C   0  0  0  0  0  0  0  0  0  0  0  0
   -0.6687   -0.8974   -3.8986 C   0  0  0  0  0  0  0  0  0  0  0  0
   -1.0404   -1.4043   -5.1383 C   0  0  0  0  0  0  0  0  0  0  0  0
   -0.6750   -2.7042   -5.5202 C   0  0  0  0  0  0  0  0  0  0  0  0
    0.2737   -4.5543   -4.9109 H   0  0  0  0  0  0  0  0  0  0  0  0
    0.9548   -3.6906   -2.6752 H   0  0  0  0  0  0  0  0  0  0  0  0
    2.2543    0.2325   -3.2347 H   0  0  0  0  0  0  0  0  0  0  0  0
   -0.9720    0.0960   -3.5722 H   0  0  0  0  0  0  0  0  0  0  0  0
   -1.6440   -0.7870   -5.8032 H   0  0  0  0  0  0  0  0  0  0  0  0
   -0.9821   -3.0906   -6.4915 H   0  0  0  0  0  0  0  0  0  0  0  0
  2  1  1  0  0  0  0
  3 14  1  0  0  0  0
  3  4  1  0  0  0  0
  5  3  1  0  0  0  0
  6  7  2  0  0  0  0
  7  8  1  0  0  0  0
  7 13  1  0  0  0  0
  8  2  1  0  0  0  0
  9 15  1  0  0  0  0
  9  8  2  0  0  0  0
 10  9  1  0  0  0  0
 11 10  2  0  0  0  0
 11  6  1  0  0  0  0
 12  6  1  0  0  0  0
 16 10  1  0  0  0  0
 17 11  1  0  0  0  0
M  RAD  2   1   3   2   2
M  END
