Coordinates from ORCA-job C6H6+NH2N2+-aug-scan
 OpenBabel10121810033D

 17 16  0  0  0  0  0  0  0  0999 V2000
    0.0148   -0.0693    0.5336 N   0  0  0  0  0  0  0  0  0  0  0  0
    0.4486   -0.3491   -0.4415 N   0  0  0  0  0  0  0  0  0  0  0  0
    1.6120   -1.1939   -3.1777 N   0  0  0  0  0  0  0  0  0  0  0  0
    2.4242   -1.7822   -2.8878 H   0  0  0  0  0  0  0  0  0  0  0  0
    2.1043   -0.3109   -3.4859 H   0  0  0  0  0  0  0  0  0  0  0  0
    0.0674   -3.6155   -5.0657 C   0  0  0  0  0  0  0  0  0  0  0  0
    0.9962   -3.0090   -4.2208 C   0  0  0  0  0  0  0  0  0  0  0  0
    0.9113   -1.6468   -3.8478 C   0  0  0  0  0  0  0  0  0  0  0  0
   -0.1798   -0.9173   -4.4031 C   0  0  0  0  0  0  0  0  0  0  0  0
   -1.1063   -1.5142   -5.2472 C   0  0  0  0  0  0  0  0  0  0  0  0
   -0.9916   -2.8705   -5.5823 C   0  0  0  0  0  0  0  0  0  0  0  0
    0.1815   -4.6688   -5.3201 H   0  0  0  0  0  0  0  0  0  0  0  0
    1.8326   -3.5938   -3.8188 H   0  0  0  0  0  0  0  0  0  0  0  0
    1.2591   -0.8675   -2.2286 H   0  0  0  0  0  0  0  0  0  0  0  0
   -0.2774    0.1454   -4.1583 H   0  0  0  0  0  0  0  0  0  0  0  0
   -1.9221   -0.9159   -5.6524 H   0  0  0  0  0  0  0  0  0  0  0  0
   -1.7190   -3.3347   -6.2475 H   0  0  0  0  0  0  0  0  0  0  0  0
  2  1  3  0  0  0  0
  3  4  1  0  0  0  0
  3 14  1  0  0  0  0
  5  3  1  0  0  0  0
  6  7  2  0  0  0  0
  7  8  1  0  0  0  0
  7 13  1  0  0  0  0
  8  3  1  0  0  0  0
  9 15  1  0  0  0  0
  9  8  2  0  0  0  0
 10  9  1  0  0  0  0
 11 10  2  0  0  0  0
 11  6  1  0  0  0  0
 12  6  1  0  0  0  0
 16 10  1  0  0  0  0
 17 11  1  0  0  0  0
M  END
