Coordinates from ORCA-job C6H6+NH2N2+-aug-scan
 OpenBabel10121810033D

 17 16  0  0  0  0  0  0  0  0999 V2000
    1.1165   -1.5256   -1.5940 N   0  0  0  0  0  0  0  0  0  0  0  0
    1.2567   -1.5445   -2.7228 N   0  0  0  0  0  0  0  0  0  0  0  0
    0.3930   -1.5024   -0.5075 N   0  0  0  0  0  0  0  0  0  0  0  0
   -0.4967   -2.0033   -0.5844 H   0  0  0  0  0  0  0  0  0  0  0  0
    0.9287   -1.5873    0.3548 H   0  0  0  0  0  0  0  0  0  0  0  0
   -0.0658   -3.1556   -4.5238 C   0  0  0  0  0  0  0  0  0  0  0  0
    0.9683   -2.9639   -5.4398 C   0  0  0  0  0  0  0  0  0  0  0  0
    1.2489   -1.6739   -5.9149 C   0  0  0  0  0  0  0  0  0  0  0  0
    0.4859   -0.5730   -5.5026 C   0  0  0  0  0  0  0  0  0  0  0  0
   -0.5488   -0.7533   -4.5837 C   0  0  0  0  0  0  0  0  0  0  0  0
   -0.8141   -2.0453   -4.0748 C   0  0  0  0  0  0  0  0  0  0  0  0
   -0.3046   -4.1564   -4.1626 H   0  0  0  0  0  0  0  0  0  0  0  0
    1.5525   -3.8135   -5.7931 H   0  0  0  0  0  0  0  0  0  0  0  0
    2.0567   -1.5299   -6.6333 H   0  0  0  0  0  0  0  0  0  0  0  0
    0.6973    0.4184   -5.9029 H   0  0  0  0  0  0  0  0  0  0  0  0
   -1.1593    0.0927   -4.2665 H   0  0  0  0  0  0  0  0  0  0  0  0
   -1.6594   -2.1973   -3.4001 H   0  0  0  0  0  0  0  0  0  0  0  0
  1  3  1  0  0  0  0
  2  1  2  0  0  0  0
  3  5  1  0  0  0  0
  4  3  1  0  0  0  0
  6 12  1  0  0  0  0
  6 11  1  0  0  0  0
  7  6  2  0  0  0  0
  8  9  2  0  0  0  0
  8  7  1  0  0  0  0
  9 10  1  0  0  0  0
 10 16  1  0  0  0  0
 10 11  2  0  0  0  0
 11 17  1  0  0  0  0
 13  7  1  0  0  0  0
 14  8  1  0  0  0  0
 15  9  1  0  0  0  0
M  RAD  1   2   2
M  END
