Coordinates from ORCA-job C6H6+NH2N2+-aug-scan
 OpenBabel10121810033D

 17 16  0  0  0  0  0  0  0  0999 V2000
    1.0469   -1.5939   -1.5065 N   0  0  0  0  0  0  0  0  0  0  0  0
    0.5432   -2.1589   -2.3595 N   0  0  0  0  0  0  0  0  0  0  0  0
    1.7252   -0.5780   -1.0374 N   0  0  0  0  0  0  0  0  0  0  0  0
    1.5449    0.3067   -1.5200 H   0  0  0  0  0  0  0  0  0  0  0  0
    1.8159   -0.5707   -0.0230 H   0  0  0  0  0  0  0  0  0  0  0  0
   -0.2204   -3.4820   -5.3190 C   0  0  0  0  0  0  0  0  0  0  0  0
    1.0522   -2.9036   -5.2738 C   0  0  0  0  0  0  0  0  0  0  0  0
    1.1971   -1.5828   -4.8364 C   0  0  0  0  0  0  0  0  0  0  0  0
    0.0555   -0.8427   -4.4423 C   0  0  0  0  0  0  0  0  0  0  0  0
   -1.2252   -1.4269   -4.5088 C   0  0  0  0  0  0  0  0  0  0  0  0
   -1.3574   -2.7452   -4.9393 C   0  0  0  0  0  0  0  0  0  0  0  0
   -0.3356   -4.5099   -5.6642 H   0  0  0  0  0  0  0  0  0  0  0  0
    1.9253   -3.4747   -5.5890 H   0  0  0  0  0  0  0  0  0  0  0  0
    2.1814   -1.1124   -4.8304 H   0  0  0  0  0  0  0  0  0  0  0  0
    0.1563    0.2109   -4.1725 H   0  0  0  0  0  0  0  0  0  0  0  0
   -2.1051   -0.8451   -4.2341 H   0  0  0  0  0  0  0  0  0  0  0  0
   -2.3442   -3.2050   -4.9958 H   0  0  0  0  0  0  0  0  0  0  0  0
  1  3  1  0  0  0  0
  2  1  2  0  0  0  0
  3  5  1  0  0  0  0
  4  3  1  0  0  0  0
  6  7  2  0  0  0  0
  6 11  1  0  0  0  0
  7  8  1  0  0  0  0
  8 14  1  0  0  0  0
  8  9  2  0  0  0  0
  9 15  1  0  0  0  0
 10  9  1  0  0  0  0
 10 16  1  0  0  0  0
 11 10  2  0  0  0  0
 12  6  1  0  0  0  0
 13  7  1  0  0  0  0
 17 11  1  0  0  0  0
M  RAD  1   2   2
M  END
