Coordinates from ORCA-job C6H6+NH2N2+-aug-scan
 OpenBabel10121810033D

 17 16  0  0  0  0  0  0  0  0999 V2000
    0.2543   -1.0799   -0.6615 N   0  0  0  0  0  0  0  0  0  0  0  0
    0.1855   -1.3687   -1.7325 N   0  0  0  0  0  0  0  0  0  0  0  0
    2.1351   -0.7471   -3.2685 N   0  0  0  0  0  0  0  0  0  0  0  0
    3.0070   -1.1615   -2.9244 H   0  0  0  0  0  0  0  0  0  0  0  0
    2.1319   -0.9584   -4.2680 H   0  0  0  0  0  0  0  0  0  0  0  0
    0.0239   -3.5389   -4.6432 C   0  0  0  0  0  0  0  0  0  0  0  0
    0.3886   -3.0778   -3.3832 C   0  0  0  0  0  0  0  0  0  0  0  0
    0.0878   -1.7355   -3.0683 C   0  0  0  0  0  0  0  0  0  0  0  0
   -0.7093   -0.9164   -3.8959 C   0  0  0  0  0  0  0  0  0  0  0  0
   -1.0561   -1.4125   -5.1477 C   0  0  0  0  0  0  0  0  0  0  0  0
   -0.6826   -2.7104   -5.5285 C   0  0  0  0  0  0  0  0  0  0  0  0
    0.2758   -4.5594   -4.9299 H   0  0  0  0  0  0  0  0  0  0  0  0
    0.9163   -3.7107   -2.6717 H   0  0  0  0  0  0  0  0  0  0  0  0
    2.3131    0.2613   -3.2235 H   0  0  0  0  0  0  0  0  0  0  0  0
   -1.0083    0.0786   -3.5707 H   0  0  0  0  0  0  0  0  0  0  0  0
   -1.6393   -0.7887   -5.8244 H   0  0  0  0  0  0  0  0  0  0  0  0
   -0.9679   -3.0882   -6.5100 H   0  0  0  0  0  0  0  0  0  0  0  0
  2  1  1  0  0  0  0
  3 14  1  0  0  0  0
  3  4  1  0  0  0  0
  5  3  1  0  0  0  0
  6  7  2  0  0  0  0
  7  8  1  0  0  0  0
  7 13  1  0  0  0  0
  8  2  1  0  0  0  0
  9 15  1  0  0  0  0
  9  8  2  0  0  0  0
 10  9  1  0  0  0  0
 11 10  2  0  0  0  0
 11  6  1  0  0  0  0
 12  6  1  0  0  0  0
 16 10  1  0  0  0  0
 17 11  1  0  0  0  0
M  RAD  2   1   3   2   2
M  END
