Coordinates from ORCA-job C6H6+NH2N2+-aug-scan
 OpenBabel10121810033D

 17 16  0  0  0  0  0  0  0  0999 V2000
    1.0519   -1.5898   -1.5109 N   0  0  0  0  0  0  0  0  0  0  0  0
    0.5973   -2.1645   -2.3842 N   0  0  0  0  0  0  0  0  0  0  0  0
    1.6470   -0.5451   -0.9948 N   0  0  0  0  0  0  0  0  0  0  0  0
    1.4030    0.3422   -1.4434 H   0  0  0  0  0  0  0  0  0  0  0  0
    1.7310   -0.5725    0.0198 H   0  0  0  0  0  0  0  0  0  0  0  0
   -0.2312   -3.4858   -5.3215 C   0  0  0  0  0  0  0  0  0  0  0  0
    1.0480   -2.9168   -5.3361 C   0  0  0  0  0  0  0  0  0  0  0  0
    1.2245   -1.5982   -4.9088 C   0  0  0  0  0  0  0  0  0  0  0  0
    0.1094   -0.8503   -4.4599 C   0  0  0  0  0  0  0  0  0  0  0  0
   -1.1796   -1.4236   -4.4686 C   0  0  0  0  0  0  0  0  0  0  0  0
   -1.3436   -2.7409   -4.8916 C   0  0  0  0  0  0  0  0  0  0  0  0
   -0.3694   -4.5133   -5.6597 H   0  0  0  0  0  0  0  0  0  0  0  0
    1.9003   -3.4961   -5.6909 H   0  0  0  0  0  0  0  0  0  0  0  0
    2.2122   -1.1368   -4.9446 H   0  0  0  0  0  0  0  0  0  0  0  0
    0.2318    0.2030   -4.1981 H   0  0  0  0  0  0  0  0  0  0  0  0
   -2.0411   -0.8335   -4.1556 H   0  0  0  0  0  0  0  0  0  0  0  0
   -2.3357   -3.1922   -4.9030 H   0  0  0  0  0  0  0  0  0  0  0  0
  1  3  1  0  0  0  0
  2  1  2  0  0  0  0
  3  5  1  0  0  0  0
  4  3  1  0  0  0  0
  6 11  1  0  0  0  0
  7  6  2  0  0  0  0
  7  8  1  0  0  0  0
  8  9  2  0  0  0  0
  9 15  1  0  0  0  0
 10  9  1  0  0  0  0
 10 16  1  0  0  0  0
 11 10  2  0  0  0  0
 12  6  1  0  0  0  0
 13  7  1  0  0  0  0
 14  8  1  0  0  0  0
 17 11  1  0  0  0  0
M  RAD  1   2   2
M  END
