Coordinates from ORCA-job C6H6+NH2N2+-aug-scan
 OpenBabel10121810033D

 17 16  0  0  0  0  0  0  0  0999 V2000
    0.7715   -1.5619   -0.8551 N   0  0  0  0  0  0  0  0  0  0  0  0
    1.1544   -1.4714   -1.9109 N   0  0  0  0  0  0  0  0  0  0  0  0
    0.2022   -1.5875    0.3106 N   0  0  0  0  0  0  0  0  0  0  0  0
   -0.6756   -2.1122    0.3519 H   0  0  0  0  0  0  0  0  0  0  0  0
    0.8507   -1.6234    1.0997 H   0  0  0  0  0  0  0  0  0  0  0  0
    0.1353   -3.0913   -4.7185 C   0  0  0  0  0  0  0  0  0  0  0  0
    0.9513   -2.9741   -5.8469 C   0  0  0  0  0  0  0  0  0  0  0  0
    1.1042   -1.7301   -6.4780 C   0  0  0  0  0  0  0  0  0  0  0  0
    0.4551   -0.5968   -5.9643 C   0  0  0  0  0  0  0  0  0  0  0  0
   -0.3617   -0.7085   -4.8362 C   0  0  0  0  0  0  0  0  0  0  0  0
   -0.5286   -1.9587   -4.2132 C   0  0  0  0  0  0  0  0  0  0  0  0
   -0.0127   -4.0672   -4.2538 H   0  0  0  0  0  0  0  0  0  0  0  0
    1.4529   -3.8539   -6.2505 H   0  0  0  0  0  0  0  0  0  0  0  0
    1.7279   -1.6439   -7.3682 H   0  0  0  0  0  0  0  0  0  0  0  0
    0.5723    0.3677   -6.4588 H   0  0  0  0  0  0  0  0  0  0  0  0
   -0.8943    0.1664   -4.4610 H   0  0  0  0  0  0  0  0  0  0  0  0
   -1.2489   -2.0676   -3.3986 H   0  0  0  0  0  0  0  0  0  0  0  0
  1  3  1  0  0  0  0
  2  1  1  0  0  0  0
  3  4  1  0  0  0  0
  3  5  1  0  0  0  0
  6 12  1  0  0  0  0
  6 11  1  0  0  0  0
  7  6  2  0  0  0  0
  8  9  2  0  0  0  0
  8  7  1  0  0  0  0
  9 10  1  0  0  0  0
 10 16  1  0  0  0  0
 10 11  2  0  0  0  0
 11 17  1  0  0  0  0
 13  7  1  0  0  0  0
 14  8  1  0  0  0  0
 15  9  1  0  0  0  0
M  RAD  2   1   2   2   3
M  END
