Coordinates from ORCA-job C6H6+NH2N2+-aug-scan
 OpenBabel10121810033D

 17 17  0  0  1  0  0  0  0  0999 V2000
    1.0900   -1.3522   -1.3988 N   0  0  0  0  0  0  0  0  0  0  0  0
    0.1154   -1.2585   -2.1275 N   0  0  0  0  0  0  0  0  0  0  0  0
    2.3134   -1.4375   -1.9893 N   0  0  0  0  0  0  0  0  0  0  0  0
    2.5421   -0.6165   -2.5524 H   0  0  0  0  0  0  0  0  0  0  0  0
    3.0173   -1.5247   -1.2551 H   0  0  0  0  0  0  0  0  0  0  0  0
   -0.0212   -3.3973   -4.8456 C   0  0  0  0  0  0  0  0  0  0  0  0
    0.8434   -2.6850   -4.0513 C   0  0  0  0  0  0  0  0  0  0  0  0
    0.5510   -1.2887   -3.6736 C   0  0  1  0  0  0  0  0  0  0  0  0
   -0.6026   -0.6753   -4.3654 C   0  0  0  0  0  0  0  0  0  0  0  0
   -1.4317   -1.3957   -5.1875 C   0  0  0  0  0  0  0  0  0  0  0  0
   -1.1556   -2.7635   -5.4043 C   0  0  0  0  0  0  0  0  0  0  0  0
    0.1789   -4.4433   -5.0760 H   0  0  0  0  0  0  0  0  0  0  0  0
    1.7439   -3.1525   -3.6594 H   0  0  0  0  0  0  0  0  0  0  0  0
    1.4075   -0.6196   -3.8180 H   0  0  0  0  0  0  0  0  0  0  0  0
   -0.8134    0.3734   -4.1483 H   0  0  0  0  0  0  0  0  0  0  0  0
   -2.2958   -0.9309   -5.6607 H   0  0  0  0  0  0  0  0  0  0  0  0
   -1.8268   -3.3464   -6.0389 H   0  0  0  0  0  0  0  0  0  0  0  0
  2  1  1  0  0  0  0
  3  1  1  0  0  0  0
  3  5  1  0  0  0  0
  4  3  1  0  0  0  0
  6  7  2  0  0  0  0
  7  8  1  0  0  0  0
  7 13  1  0  0  0  0
  8 14  1  6  0  0  0
  8  2  1  0  0  0  0
  9 15  1  0  0  0  0
  9  8  1  0  0  0  0
 10  9  2  0  0  0  0
 11 10  1  0  0  0  0
 11  6  1  0  0  0  0
 12  6  1  0  0  0  0
 16 10  1  0  0  0  0
 17 11  1  0  0  0  0
M  RAD  3   1   2   2   2  11   2
M  END
