Coordinates from ORCA-job C6H6+NH2N2+-aug-scan
 OpenBabel10121810033D

 17 16  0  0  0  0  0  0  0  0999 V2000
    0.8841   -1.5497   -1.1083 N   0  0  0  0  0  0  0  0  0  0  0  0
    1.2030   -1.4986   -2.1915 N   0  0  0  0  0  0  0  0  0  0  0  0
    0.2546   -1.5661    0.0302 N   0  0  0  0  0  0  0  0  0  0  0  0
   -0.6247   -2.0903    0.0269 H   0  0  0  0  0  0  0  0  0  0  0  0
    0.8646   -1.6149    0.8474 H   0  0  0  0  0  0  0  0  0  0  0  0
    0.0749   -3.1074   -4.6363 C   0  0  0  0  0  0  0  0  0  0  0  0
    0.9611   -2.9679   -5.7066 C   0  0  0  0  0  0  0  0  0  0  0  0
    1.1515   -1.7118   -6.3039 C   0  0  0  0  0  0  0  0  0  0  0  0
    0.4686   -0.5880   -5.8124 C   0  0  0  0  0  0  0  0  0  0  0  0
   -0.4189   -0.7201   -4.7423 C   0  0  0  0  0  0  0  0  0  0  0  0
   -0.6207   -1.9826   -4.1503 C   0  0  0  0  0  0  0  0  0  0  0  0
   -0.1034   -4.0920   -4.2019 H   0  0  0  0  0  0  0  0  0  0  0  0
    1.4883   -3.8398   -6.0944 H   0  0  0  0  0  0  0  0  0  0  0  0
    1.8297   -1.6092   -7.1513 H   0  0  0  0  0  0  0  0  0  0  0  0
    0.6145    0.3850   -6.2819 H   0  0  0  0  0  0  0  0  0  0  0  0
   -0.9787    0.1464   -4.3881 H   0  0  0  0  0  0  0  0  0  0  0  0
   -1.3926   -2.1073   -3.3873 H   0  0  0  0  0  0  0  0  0  0  0  0
  1  3  1  0  0  0  0
  2  1  1  0  0  0  0
  3  5  1  0  0  0  0
  4  3  1  0  0  0  0
  6 12  1  0  0  0  0
  6 11  1  0  0  0  0
  7  6  2  0  0  0  0
  8  9  2  0  0  0  0
  8  7  1  0  0  0  0
  9 10  1  0  0  0  0
 10 16  1  0  0  0  0
 10 11  2  0  0  0  0
 11 17  1  0  0  0  0
 13  7  1  0  0  0  0
 14  8  1  0  0  0  0
 15  9  1  0  0  0  0
M  RAD  2   1   2   2   3
M  END
