Coordinates from ORCA-job C6H6+NH2N2+-aug-scan
 OpenBabel10121810033D

 17 16  0  0  0  0  0  0  0  0999 V2000
    1.1048   -1.5279   -1.5748 N   0  0  0  0  0  0  0  0  0  0  0  0
    1.2530   -1.5449   -2.7023 N   0  0  0  0  0  0  0  0  0  0  0  0
    0.3887   -1.5040   -0.4834 N   0  0  0  0  0  0  0  0  0  0  0  0
   -0.5009   -2.0061   -0.5528 H   0  0  0  0  0  0  0  0  0  0  0  0
    0.9309   -1.5863    0.3752 H   0  0  0  0  0  0  0  0  0  0  0  0
   -0.0611   -3.1537   -4.5292 C   0  0  0  0  0  0  0  0  0  0  0  0
    0.9687   -2.9637   -5.4505 C   0  0  0  0  0  0  0  0  0  0  0  0
    1.2462   -1.6751   -5.9312 C   0  0  0  0  0  0  0  0  0  0  0  0
    0.4861   -0.5734   -5.5147 C   0  0  0  0  0  0  0  0  0  0  0  0
   -0.5446   -0.7523   -4.5909 C   0  0  0  0  0  0  0  0  0  0  0  0
   -0.8086   -2.0433   -4.0796 C   0  0  0  0  0  0  0  0  0  0  0  0
   -0.2979   -4.1541   -4.1654 H   0  0  0  0  0  0  0  0  0  0  0  0
    1.5512   -3.8142   -5.8047 H   0  0  0  0  0  0  0  0  0  0  0  0
    2.0497   -1.5323   -6.6546 H   0  0  0  0  0  0  0  0  0  0  0  0
    0.6955    0.4175   -5.9173 H   0  0  0  0  0  0  0  0  0  0  0  0
   -1.1536    0.0944   -4.2728 H   0  0  0  0  0  0  0  0  0  0  0  0
   -1.6522   -2.1947   -3.4027 H   0  0  0  0  0  0  0  0  0  0  0  0
  1  3  1  0  0  0  0
  2  1  2  0  0  0  0
  3  5  1  0  0  0  0
  4  3  1  0  0  0  0
  6 12  1  0  0  0  0
  6 11  1  0  0  0  0
  7  6  2  0  0  0  0
  8  9  2  0  0  0  0
  8  7  1  0  0  0  0
  9 10  1  0  0  0  0
 10 16  1  0  0  0  0
 10 11  2  0  0  0  0
 11 17  1  0  0  0  0
 13  7  1  0  0  0  0
 14  8  1  0  0  0  0
 15  9  1  0  0  0  0
M  RAD  1   2   2
M  END
