Coordinates from ORCA-job C6H6+NH2N2+-aug-scan
 OpenBabel10121810033D

 17 16  0  0  0  0  0  0  0  0999 V2000
    0.9985   -1.5997   -1.4620 N   0  0  0  0  0  0  0  0  0  0  0  0
    0.2540   -1.9645   -2.2539 N   0  0  0  0  0  0  0  0  0  0  0  0
    2.1539   -1.0290   -1.2286 N   0  0  0  0  0  0  0  0  0  0  0  0
    2.4601   -0.3793   -1.9574 H   0  0  0  0  0  0  0  0  0  0  0  0
    2.3132   -0.7875   -0.2532 H   0  0  0  0  0  0  0  0  0  0  0  0
   -0.1216   -3.4487   -5.0648 C   0  0  0  0  0  0  0  0  0  0  0  0
    1.0258   -2.7346   -4.7293 C   0  0  0  0  0  0  0  0  0  0  0  0
    0.9335   -1.3451   -4.4659 C   0  0  0  0  0  0  0  0  0  0  0  0
   -0.3088   -0.6766   -4.5944 C   0  0  0  0  0  0  0  0  0  0  0  0
   -1.4489   -1.4023   -4.9299 C   0  0  0  0  0  0  0  0  0  0  0  0
   -1.3548   -2.7843   -5.1594 C   0  0  0  0  0  0  0  0  0  0  0  0
   -0.0619   -4.5180   -5.2668 H   0  0  0  0  0  0  0  0  0  0  0  0
    1.9926   -3.2359   -4.6761 H   0  0  0  0  0  0  0  0  0  0  0  0
    1.8470   -0.7646   -4.3159 H   0  0  0  0  0  0  0  0  0  0  0  0
   -0.3670    0.4011   -4.4396 H   0  0  0  0  0  0  0  0  0  0  0  0
   -2.4100   -0.8981   -5.0281 H   0  0  0  0  0  0  0  0  0  0  0  0
   -2.2498   -3.3471   -5.4270 H   0  0  0  0  0  0  0  0  0  0  0  0
  1  3  1  0  0  0  0
  2  1  2  0  0  0  0
  3  5  1  0  0  0  0
  4  3  1  0  0  0  0
  6  7  1  0  0  0  0
  7 13  1  0  0  0  0
  7  8  2  0  0  0  0
  8 14  1  0  0  0  0
  9  8  1  0  0  0  0
  9 15  1  0  0  0  0
 10  9  2  0  0  0  0
 11  6  2  0  0  0  0
 11 10  1  0  0  0  0
 12  6  1  0  0  0  0
 16 10  1  0  0  0  0
 17 11  1  0  0  0  0
M  RAD  1   2   2
M  END
