Coordinates from ORCA-job C6H6+NH2N2+-aug-scan
 OpenBabel10121810033D

 17 16  0  0  0  0  0  0  0  0999 V2000
    1.1071   -1.5573   -1.5517 N   0  0  0  0  0  0  0  0  0  0  0  0
    0.9839   -2.1333   -2.5249 N   0  0  0  0  0  0  0  0  0  0  0  0
    1.0414   -0.4922   -0.7960 N   0  0  0  0  0  0  0  0  0  0  0  0
    0.2558    0.1275   -1.0127 H   0  0  0  0  0  0  0  0  0  0  0  0
    1.2725   -0.6610    0.1819 H   0  0  0  0  0  0  0  0  0  0  0  0
   -0.2595   -3.4823   -5.2114 C   0  0  0  0  0  0  0  0  0  0  0  0
    0.9725   -2.9704   -5.6588 C   0  0  0  0  0  0  0  0  0  0  0  0
    1.3227   -1.6436   -5.4022 C   0  0  0  0  0  0  0  0  0  0  0  0
    0.4406   -0.8192   -4.6874 C   0  0  0  0  0  0  0  0  0  0  0  0
   -0.7983   -1.3345   -4.2360 C   0  0  0  0  0  0  0  0  0  0  0  0
   -1.1466   -2.6677   -4.5065 C   0  0  0  0  0  0  0  0  0  0  0  0
   -0.5260   -4.5168   -5.4295 H   0  0  0  0  0  0  0  0  0  0  0  0
    1.6518   -3.6126   -6.2200 H   0  0  0  0  0  0  0  0  0  0  0  0
    2.2690   -1.2448   -5.7676 H   0  0  0  0  0  0  0  0  0  0  0  0
    0.6876    0.2309   -4.5224 H   0  0  0  0  0  0  0  0  0  0  0  0
   -1.5092   -0.6787   -3.7294 H   0  0  0  0  0  0  0  0  0  0  0  0
   -2.1095   -3.0583   -4.1773 H   0  0  0  0  0  0  0  0  0  0  0  0
  1  3  1  0  0  0  0
  2  1  2  0  0  0  0
  3  5  1  0  0  0  0
  4  3  1  0  0  0  0
  6 11  2  0  0  0  0
  7  8  2  0  0  0  0
  7  6  1  0  0  0  0
  8  9  1  0  0  0  0
  9 15  1  0  0  0  0
  9 10  2  0  0  0  0
 10 16  1  0  0  0  0
 11 10  1  0  0  0  0
 11 17  1  0  0  0  0
 12  6  1  0  0  0  0
 13  7  1  0  0  0  0
 14  8  1  0  0  0  0
M  RAD  1   2   2
M  END
