Coordinates from ORCA-job C6H6+NH2N2+-aug-scan
 OpenBabel10121810033D

 17 16  0  0  0  0  0  0  0  0999 V2000
    1.0718   -1.5548   -1.5184 N   0  0  0  0  0  0  0  0  0  0  0  0
    0.7343   -2.1432   -2.4309 N   0  0  0  0  0  0  0  0  0  0  0  0
    1.4763   -0.4991   -0.8633 N   0  0  0  0  0  0  0  0  0  0  0  0
    1.0875    0.3841   -1.2051 H   0  0  0  0  0  0  0  0  0  0  0  0
    1.5604   -0.6395    0.1424 H   0  0  0  0  0  0  0  0  0  0  0  0
   -0.2488   -3.4999   -5.3026 C   0  0  0  0  0  0  0  0  0  0  0  0
    1.0294   -2.9449   -5.4663 C   0  0  0  0  0  0  0  0  0  0  0  0
    1.2647   -1.6199   -5.0981 C   0  0  0  0  0  0  0  0  0  0  0  0
    0.2146   -0.8488   -4.5523 C   0  0  0  0  0  0  0  0  0  0  0  0
   -1.0755   -1.4060   -4.4098 C   0  0  0  0  0  0  0  0  0  0  0  0
   -1.3006   -2.7324   -4.7800 C   0  0  0  0  0  0  0  0  0  0  0  0
   -0.4302   -4.5337   -5.5985 H   0  0  0  0  0  0  0  0  0  0  0  0
    1.8330   -3.5452   -5.8931 H   0  0  0  0  0  0  0  0  0  0  0  0
    2.2490   -1.1742   -5.2446 H   0  0  0  0  0  0  0  0  0  0  0  0
    0.3785    0.2070   -4.3263 H   0  0  0  0  0  0  0  0  0  0  0  0
   -1.8943   -0.7953   -4.0280 H   0  0  0  0  0  0  0  0  0  0  0  0
   -2.2943   -3.1683   -4.6771 H   0  0  0  0  0  0  0  0  0  0  0  0
  1  3  1  0  0  0  0
  2  1  1  0  0  0  0
  3  5  1  0  0  0  0
  4  3  1  0  0  0  0
  6 11  1  0  0  0  0
  7  6  2  0  0  0  0
  7  8  1  0  0  0  0
  8  9  2  0  0  0  0
  9 10  1  0  0  0  0
  9 15  1  0  0  0  0
 10 16  1  0  0  0  0
 11 17  1  0  0  0  0
 11 10  2  0  0  0  0
 12  6  1  0  0  0  0
 13  7  1  0  0  0  0
 14  8  1  0  0  0  0
M  RAD  2   1   2   2   3
M  END
