Coordinates from ORCA-job C6H6+NH2N2+-aug-scan
 OpenBabel10121810033D

 17 16  0  0  0  0  0  0  0  0999 V2000
    0.0623   -1.1740   -0.6463 N   0  0  0  0  0  0  0  0  0  0  0  0
    0.1825   -1.3716   -1.7361 N   0  0  0  0  0  0  0  0  0  0  0  0
    2.0644   -0.7947   -3.3238 N   0  0  0  0  0  0  0  0  0  0  0  0
    2.8939   -1.2224   -2.8972 H   0  0  0  0  0  0  0  0  0  0  0  0
    2.1582   -0.9679   -4.3267 H   0  0  0  0  0  0  0  0  0  0  0  0
    0.0414   -3.5199   -4.6287 C   0  0  0  0  0  0  0  0  0  0  0  0
    0.4813   -3.0325   -3.4039 C   0  0  0  0  0  0  0  0  0  0  0  0
    0.2779   -1.6504   -3.1169 C   0  0  0  0  0  0  0  0  0  0  0  0
   -0.6156   -0.8760   -3.9145 C   0  0  0  0  0  0  0  0  0  0  0  0
   -1.0352   -1.4033   -5.1297 C   0  0  0  0  0  0  0  0  0  0  0  0
   -0.6924   -2.7100   -5.5081 C   0  0  0  0  0  0  0  0  0  0  0  0
    0.2495   -4.5585   -4.8858 H   0  0  0  0  0  0  0  0  0  0  0  0
    1.0123   -3.6658   -2.6948 H   0  0  0  0  0  0  0  0  0  0  0  0
    2.1927    0.2174   -3.2116 H   0  0  0  0  0  0  0  0  0  0  0  0
   -0.9128    0.1206   -3.5915 H   0  0  0  0  0  0  0  0  0  0  0  0
   -1.6654   -0.7936   -5.7771 H   0  0  0  0  0  0  0  0  0  0  0  0
   -1.0391   -3.1115   -6.4591 H   0  0  0  0  0  0  0  0  0  0  0  0
  2  1  1  0  0  0  0
  3 14  1  0  0  0  0
  3  4  1  0  0  0  0
  5  3  1  0  0  0  0
  6  7  2  0  0  0  0
  7  8  1  0  0  0  0
  7 13  1  0  0  0  0
  8  2  1  0  0  0  0
  9 15  1  0  0  0  0
  9  8  2  0  0  0  0
 10  9  1  0  0  0  0
 11 10  2  0  0  0  0
 11  6  1  0  0  0  0
 12  6  1  0  0  0  0
 16 10  1  0  0  0  0
 17 11  1  0  0  0  0
M  RAD  2   1   3   2   2
M  END
