Coordinates from ORCA-job C6H6+NH2N2+-aug-scan
 OpenBabel10121810033D

 17 16  0  0  0  0  0  0  0  0999 V2000
    0.0735   -1.1685   -0.6451 N   0  0  0  0  0  0  0  0  0  0  0  0
    0.1818   -1.3714   -1.7349 N   0  0  0  0  0  0  0  0  0  0  0  0
    2.0651   -0.7940   -3.3228 N   0  0  0  0  0  0  0  0  0  0  0  0
    2.8971   -1.2214   -2.9009 H   0  0  0  0  0  0  0  0  0  0  0  0
    2.1534   -0.9695   -4.3257 H   0  0  0  0  0  0  0  0  0  0  0  0
    0.0419   -3.5201   -4.6292 C   0  0  0  0  0  0  0  0  0  0  0  0
    0.4767   -3.0343   -3.4019 C   0  0  0  0  0  0  0  0  0  0  0  0
    0.2695   -1.6537   -3.1138 C   0  0  0  0  0  0  0  0  0  0  0  0
   -0.6205   -0.8777   -3.9126 C   0  0  0  0  0  0  0  0  0  0  0  0
   -1.0351   -1.4031   -5.1304 C   0  0  0  0  0  0  0  0  0  0  0  0
   -0.6897   -2.7090   -5.5093 C   0  0  0  0  0  0  0  0  0  0  0  0
    0.2522   -4.5578   -4.8879 H   0  0  0  0  0  0  0  0  0  0  0  0
    1.0064   -3.6680   -2.6921 H   0  0  0  0  0  0  0  0  0  0  0  0
    2.1976    0.2179   -3.2145 H   0  0  0  0  0  0  0  0  0  0  0  0
   -0.9188    0.1183   -3.5890 H   0  0  0  0  0  0  0  0  0  0  0  0
   -1.6631   -0.7928   -5.7794 H   0  0  0  0  0  0  0  0  0  0  0  0
   -1.0324   -3.1090   -6.4625 H   0  0  0  0  0  0  0  0  0  0  0  0
  2  1  1  0  0  0  0
  3 14  1  0  0  0  0
  3  4  1  0  0  0  0
  5  3  1  0  0  0  0
  6  7  2  0  0  0  0
  7  8  1  0  0  0  0
  7 13  1  0  0  0  0
  8  2  1  0  0  0  0
  9 15  1  0  0  0  0
  9  8  2  0  0  0  0
 10  9  1  0  0  0  0
 11 10  2  0  0  0  0
 11  6  1  0  0  0  0
 12  6  1  0  0  0  0
 16 10  1  0  0  0  0
 17 11  1  0  0  0  0
M  RAD  2   1   3   2   2
M  END
