Coordinates from ORCA-job C6H6+NH2N2+-aug-scan
 OpenBabel10121810033D

 17 16  0  0  0  0  0  0  0  0999 V2000
    1.0705   -1.5588   -1.5184 N   0  0  0  0  0  0  0  0  0  0  0  0
    0.7267   -2.1468   -2.4293 N   0  0  0  0  0  0  0  0  0  0  0  0
    1.4848   -0.5010   -0.8727 N   0  0  0  0  0  0  0  0  0  0  0  0
    1.1035    0.3825   -1.2222 H   0  0  0  0  0  0  0  0  0  0  0  0
    1.5677   -0.6333    0.1342 H   0  0  0  0  0  0  0  0  0  0  0  0
   -0.2481   -3.4987   -5.3040 C   0  0  0  0  0  0  0  0  0  0  0  0
    1.0308   -2.9431   -5.4595 C   0  0  0  0  0  0  0  0  0  0  0  0
    1.2635   -1.6188   -5.0869 C   0  0  0  0  0  0  0  0  0  0  0  0
    0.2099   -0.8493   -4.5450 C   0  0  0  0  0  0  0  0  0  0  0  0
   -1.0808   -1.4072   -4.4112 C   0  0  0  0  0  0  0  0  0  0  0  0
   -1.3031   -2.7327   -4.7855 C   0  0  0  0  0  0  0  0  0  0  0  0
   -0.4276   -4.5320   -5.6030 H   0  0  0  0  0  0  0  0  0  0  0  0
    1.8368   -3.5421   -5.8833 H   0  0  0  0  0  0  0  0  0  0  0  0
    2.2483   -1.1723   -5.2273 H   0  0  0  0  0  0  0  0  0  0  0  0
    0.3719    0.2063   -4.3166 H   0  0  0  0  0  0  0  0  0  0  0  0
   -1.9019   -0.7976   -4.0324 H   0  0  0  0  0  0  0  0  0  0  0  0
   -2.2972   -3.1693   -4.6890 H   0  0  0  0  0  0  0  0  0  0  0  0
  1  3  1  0  0  0  0
  2  1  1  0  0  0  0
  3  5  1  0  0  0  0
  4  3  1  0  0  0  0
  6 11  1  0  0  0  0
  7  6  2  0  0  0  0
  7  8  1  0  0  0  0
  8  9  2  0  0  0  0
  9 10  1  0  0  0  0
  9 15  1  0  0  0  0
 10 16  1  0  0  0  0
 11 17  1  0  0  0  0
 11 10  2  0  0  0  0
 12  6  1  0  0  0  0
 13  7  1  0  0  0  0
 14  8  1  0  0  0  0
M  RAD  2   1   2   2   3
M  END
