Coordinates from ORCA-job C6H6+NH2N2+-aug-scan
 OpenBabel10121810033D

 17 16  0  0  0  0  0  0  0  0999 V2000
    0.9095   -1.5497   -1.1701 N   0  0  0  0  0  0  0  0  0  0  0  0
    1.2079   -1.5012   -2.2601 N   0  0  0  0  0  0  0  0  0  0  0  0
    0.2733   -1.5620   -0.0339 N   0  0  0  0  0  0  0  0  0  0  0  0
   -0.6059   -2.0866   -0.0424 H   0  0  0  0  0  0  0  0  0  0  0  0
    0.8800   -1.6189    0.7849 H   0  0  0  0  0  0  0  0  0  0  0  0
    0.0570   -3.1102   -4.6176 C   0  0  0  0  0  0  0  0  0  0  0  0
    0.9646   -2.9659   -5.6689 C   0  0  0  0  0  0  0  0  0  0  0  0
    1.1658   -1.7074   -6.2574 C   0  0  0  0  0  0  0  0  0  0  0  0
    0.4713   -0.5859   -5.7772 C   0  0  0  0  0  0  0  0  0  0  0  0
   -0.4377   -0.7223   -4.7260 C   0  0  0  0  0  0  0  0  0  0  0  0
   -0.6487   -1.9871   -4.1411 C   0  0  0  0  0  0  0  0  0  0  0  0
   -0.1293   -4.0963   -4.1900 H   0  0  0  0  0  0  0  0  0  0  0  0
    1.5006   -3.8358   -6.0492 H   0  0  0  0  0  0  0  0  0  0  0  0
    1.8614   -1.6011   -7.0902 H   0  0  0  0  0  0  0  0  0  0  0  0
    0.6253    0.3886   -6.2410 H   0  0  0  0  0  0  0  0  0  0  0  0
   -1.0060    0.1421   -4.3803 H   0  0  0  0  0  0  0  0  0  0  0  0
   -1.4332   -2.1144   -3.3915 H   0  0  0  0  0  0  0  0  0  0  0  0
  1  3  1  0  0  0  0
  2  1  1  0  0  0  0
  3  5  1  0  0  0  0
  4  3  1  0  0  0  0
  6 12  1  0  0  0  0
  6 11  1  0  0  0  0
  7  6  2  0  0  0  0
  8  9  2  0  0  0  0
  8  7  1  0  0  0  0
  9 10  1  0  0  0  0
 10 16  1  0  0  0  0
 10 11  2  0  0  0  0
 11 17  1  0  0  0  0
 13  7  1  0  0  0  0
 14  8  1  0  0  0  0
 15  9  1  0  0  0  0
M  RAD  2   1   2   2   3
M  END
