Coordinates from ORCA-job C6H6+NH2N2+-aug-scan
 OpenBabel10121810033D

 17 16  0  0  0  0  0  0  0  0999 V2000
    0.8127   -1.5668   -1.0054 N   0  0  0  0  0  0  0  0  0  0  0  0
    1.1712   -1.4857   -2.0715 N   0  0  0  0  0  0  0  0  0  0  0  0
    0.2440   -1.5693    0.1628 N   0  0  0  0  0  0  0  0  0  0  0  0
   -0.6414   -2.0813    0.2080 H   0  0  0  0  0  0  0  0  0  0  0  0
    0.8955   -1.6295    0.9478 H   0  0  0  0  0  0  0  0  0  0  0  0
    0.0941   -3.1015   -4.6779 C   0  0  0  0  0  0  0  0  0  0  0  0
    0.9615   -2.9692   -5.7651 C   0  0  0  0  0  0  0  0  0  0  0  0
    1.1402   -1.7173   -6.3737 C   0  0  0  0  0  0  0  0  0  0  0  0
    0.4651   -0.5911   -5.8784 C   0  0  0  0  0  0  0  0  0  0  0  0
   -0.4034   -0.7174   -4.7914 C   0  0  0  0  0  0  0  0  0  0  0  0
   -0.5941   -1.9752   -4.1893 C   0  0  0  0  0  0  0  0  0  0  0  0
   -0.0741   -4.0830   -4.2321 H   0  0  0  0  0  0  0  0  0  0  0  0
    1.4833   -3.8431   -6.1559 H   0  0  0  0  0  0  0  0  0  0  0  0
    1.8041   -1.6197   -7.2332 H   0  0  0  0  0  0  0  0  0  0  0  0
    0.6024    0.3790   -6.3566 H   0  0  0  0  0  0  0  0  0  0  0  0
   -0.9566    0.1513   -4.4320 H   0  0  0  0  0  0  0  0  0  0  0  0
   -1.3487   -2.0943   -3.4081 H   0  0  0  0  0  0  0  0  0  0  0  0
  1  3  1  0  0  0  0
  2  1  1  0  0  0  0
  3  4  1  0  0  0  0
  3  5  1  0  0  0  0
  6 12  1  0  0  0  0
  6 11  1  0  0  0  0
  7  6  2  0  0  0  0
  8  9  2  0  0  0  0
  8  7  1  0  0  0  0
  9 10  1  0  0  0  0
 10 16  1  0  0  0  0
 10 11  2  0  0  0  0
 11 17  1  0  0  0  0
 13  7  1  0  0  0  0
 14  8  1  0  0  0  0
 15  9  1  0  0  0  0
M  RAD  2   1   2   2   3
M  END
