Coordinates from ORCA-job C6H6+NH2N2+-aug-scan
 OpenBabel10121810033D

 17 16  0  0  0  0  0  0  0  0999 V2000
    1.0827   -1.5329   -1.5358 N   0  0  0  0  0  0  0  0  0  0  0  0
    1.2466   -1.5449   -2.6606 N   0  0  0  0  0  0  0  0  0  0  0  0
    0.3793   -1.5093   -0.4359 N   0  0  0  0  0  0  0  0  0  0  0  0
   -0.5097   -2.0141   -0.4934 H   0  0  0  0  0  0  0  0  0  0  0  0
    0.9328   -1.5886    0.4160 H   0  0  0  0  0  0  0  0  0  0  0  0
   -0.0507   -3.1488   -4.5379 C   0  0  0  0  0  0  0  0  0  0  0  0
    0.9698   -2.9631   -5.4708 C   0  0  0  0  0  0  0  0  0  0  0  0
    1.2402   -1.6775   -5.9644 C   0  0  0  0  0  0  0  0  0  0  0  0
    0.4855   -0.5742   -5.5409 C   0  0  0  0  0  0  0  0  0  0  0  0
   -0.5361   -0.7493   -4.6062 C   0  0  0  0  0  0  0  0  0  0  0  0
   -0.7964   -2.0376   -4.0879 C   0  0  0  0  0  0  0  0  0  0  0  0
   -0.2830   -4.1479   -4.1677 H   0  0  0  0  0  0  0  0  0  0  0  0
    1.5488   -3.8155   -5.8261 H   0  0  0  0  0  0  0  0  0  0  0  0
    2.0346   -1.5380   -6.6983 H   0  0  0  0  0  0  0  0  0  0  0  0
    0.6900    0.4153   -5.9496 H   0  0  0  0  0  0  0  0  0  0  0  0
   -1.1422    0.0991   -4.2869 H   0  0  0  0  0  0  0  0  0  0  0  0
   -1.6363   -2.1870   -3.4059 H   0  0  0  0  0  0  0  0  0  0  0  0
  1  3  1  0  0  0  0
  2  1  1  0  0  0  0
  3  5  1  0  0  0  0
  4  3  1  0  0  0  0
  6 12  1  0  0  0  0
  6 11  1  0  0  0  0
  7  6  2  0  0  0  0
  8  9  2  0  0  0  0
  8  7  1  0  0  0  0
  9 10  1  0  0  0  0
 10 16  1  0  0  0  0
 10 11  2  0  0  0  0
 11 17  1  0  0  0  0
 13  7  1  0  0  0  0
 14  8  1  0  0  0  0
 15  9  1  0  0  0  0
M  RAD  2   1   2   2   3
M  END
