Coordinates from ORCA-job C6H6+NH2N2+-aug-scan
 OpenBabel10121810033D

 17 16  0  0  0  0  0  0  0  0999 V2000
   -0.0715   -0.1710    0.4767 N   0  0  0  0  0  0  0  0  0  0  0  0
    0.3970   -0.4102   -0.4931 N   0  0  0  0  0  0  0  0  0  0  0  0
    1.6293   -1.1855   -3.2089 N   0  0  0  0  0  0  0  0  0  0  0  0
    2.4442   -1.7712   -2.9109 H   0  0  0  0  0  0  0  0  0  0  0  0
    2.1327   -0.3056   -3.5258 H   0  0  0  0  0  0  0  0  0  0  0  0
    0.0574   -3.6108   -5.0302 C   0  0  0  0  0  0  0  0  0  0  0  0
    1.0006   -2.9989   -4.2063 C   0  0  0  0  0  0  0  0  0  0  0  0
    0.9373   -1.6290   -3.8463 C   0  0  0  0  0  0  0  0  0  0  0  0
   -0.1601   -0.9026   -4.4041 C   0  0  0  0  0  0  0  0  0  0  0  0
   -1.1009   -1.5036   -5.2274 C   0  0  0  0  0  0  0  0  0  0  0  0
   -1.0024   -2.8659   -5.5447 C   0  0  0  0  0  0  0  0  0  0  0  0
    0.1614   -4.6685   -5.2701 H   0  0  0  0  0  0  0  0  0  0  0  0
    1.8388   -3.5827   -3.8053 H   0  0  0  0  0  0  0  0  0  0  0  0
    1.2945   -0.8365   -2.2555 H   0  0  0  0  0  0  0  0  0  0  0  0
   -0.2447    0.1649   -4.1747 H   0  0  0  0  0  0  0  0  0  0  0  0
   -1.9161   -0.9037   -5.6314 H   0  0  0  0  0  0  0  0  0  0  0  0
   -1.7415   -3.3334   -6.1942 H   0  0  0  0  0  0  0  0  0  0  0  0
  2  1  3  0  0  0  0
  3  4  1  0  0  0  0
  3 14  1  0  0  0  0
  5  3  1  0  0  0  0
  6  7  2  0  0  0  0
  7  8  1  0  0  0  0
  7 13  1  0  0  0  0
  8  3  1  0  0  0  0
  9 15  1  0  0  0  0
  9  8  2  0  0  0  0
 10  9  1  0  0  0  0
 11 10  2  0  0  0  0
 11  6  1  0  0  0  0
 12  6  1  0  0  0  0
 16 10  1  0  0  0  0
 17 11  1  0  0  0  0
M  END
