Coordinates from ORCA-job C6H6+NH2N2+-aug-scan
 OpenBabel10121810033D

 17 16  0  0  0  0  0  0  0  0999 V2000
    1.0135   -1.5856   -1.4819 N   0  0  0  0  0  0  0  0  0  0  0  0
    0.2987   -1.9401   -2.2982 N   0  0  0  0  0  0  0  0  0  0  0  0
    2.1449   -1.0490   -1.1029 N   0  0  0  0  0  0  0  0  0  0  0  0
    2.5294   -0.3650   -1.7602 H   0  0  0  0  0  0  0  0  0  0  0  0
    2.2034   -0.8583   -0.1044 H   0  0  0  0  0  0  0  0  0  0  0  0
   -0.1283   -3.4520   -5.0537 C   0  0  0  0  0  0  0  0  0  0  0  0
    1.0328   -2.7200   -4.8098 C   0  0  0  0  0  0  0  0  0  0  0  0
    0.9483   -1.3234   -4.5980 C   0  0  0  0  0  0  0  0  0  0  0  0
   -0.3017   -0.6666   -4.6761 C   0  0  0  0  0  0  0  0  0  0  0  0
   -1.4560   -1.4085   -4.9195 C   0  0  0  0  0  0  0  0  0  0  0  0
   -1.3686   -2.7976   -5.1027 C   0  0  0  0  0  0  0  0  0  0  0  0
   -0.0729   -4.5278   -5.2191 H   0  0  0  0  0  0  0  0  0  0  0  0
    2.0039   -3.2157   -4.7936 H   0  0  0  0  0  0  0  0  0  0  0  0
    1.8636   -0.7367   -4.4924 H   0  0  0  0  0  0  0  0  0  0  0  0
   -0.3574    0.4161   -4.5584 H   0  0  0  0  0  0  0  0  0  0  0  0
   -2.4238   -0.9110   -4.9818 H   0  0  0  0  0  0  0  0  0  0  0  0
   -2.2740   -3.3729   -5.2992 H   0  0  0  0  0  0  0  0  0  0  0  0
  1  3  1  0  0  0  0
  2  1  2  0  0  0  0
  3  5  1  0  0  0  0
  4  3  1  0  0  0  0
  6  7  1  0  0  0  0
  7 13  1  0  0  0  0
  7  8  2  0  0  0  0
  8 14  1  0  0  0  0
  9  8  1  0  0  0  0
  9 15  1  0  0  0  0
 10  9  2  0  0  0  0
 11  6  2  0  0  0  0
 11 10  1  0  0  0  0
 12  6  1  0  0  0  0
 16 10  1  0  0  0  0
 17 11  1  0  0  0  0
M  RAD  1   2   2
M  END
