Coordinates from ORCA-job C6H6+NH2N2+-aug-scan
 OpenBabel10121810033D

 17 16  0  0  0  0  0  0  0  0999 V2000
    0.8106   -1.5658   -0.9928 N   0  0  0  0  0  0  0  0  0  0  0  0
    1.1704   -1.4847   -2.0583 N   0  0  0  0  0  0  0  0  0  0  0  0
    0.2424   -1.5692    0.1758 N   0  0  0  0  0  0  0  0  0  0  0  0
   -0.6419   -2.0830    0.2208 H   0  0  0  0  0  0  0  0  0  0  0  0
    0.8947   -1.6301    0.9602 H   0  0  0  0  0  0  0  0  0  0  0  0
    0.0958   -3.1010   -4.6820 C   0  0  0  0  0  0  0  0  0  0  0  0
    0.9612   -2.9694   -5.7710 C   0  0  0  0  0  0  0  0  0  0  0  0
    1.1387   -1.7180   -6.3809 C   0  0  0  0  0  0  0  0  0  0  0  0
    0.4648   -0.5915   -5.8847 C   0  0  0  0  0  0  0  0  0  0  0  0
   -0.4017   -0.7171   -4.7959 C   0  0  0  0  0  0  0  0  0  0  0  0
   -0.5916   -1.9745   -4.1929 C   0  0  0  0  0  0  0  0  0  0  0  0
   -0.0717   -4.0823   -4.2356 H   0  0  0  0  0  0  0  0  0  0  0  0
    1.4821   -3.8437   -6.1621 H   0  0  0  0  0  0  0  0  0  0  0  0
    1.8007   -1.6210   -7.2419 H   0  0  0  0  0  0  0  0  0  0  0  0
    0.6011    0.3784   -6.3636 H   0  0  0  0  0  0  0  0  0  0  0  0
   -0.9542    0.1519   -4.4362 H   0  0  0  0  0  0  0  0  0  0  0  0
   -1.3455   -2.0933   -3.4110 H   0  0  0  0  0  0  0  0  0  0  0  0
  1  3  1  0  0  0  0
  2  1  1  0  0  0  0
  3  4  1  0  0  0  0
  3  5  1  0  0  0  0
  6 12  1  0  0  0  0
  6 11  1  0  0  0  0
  7  6  2  0  0  0  0
  8  9  2  0  0  0  0
  8  7  1  0  0  0  0
  9 10  1  0  0  0  0
 10 16  1  0  0  0  0
 10 11  2  0  0  0  0
 11 17  1  0  0  0  0
 13  7  1  0  0  0  0
 14  8  1  0  0  0  0
 15  9  1  0  0  0  0
M  RAD  2   1   2   2   3
M  END
