Coordinates from ORCA-job C6H6+NH2N2+-aug-scan
 OpenBabel10121810033D

 17 16  0  0  0  0  0  0  0  0999 V2000
    0.9694   -1.5418   -1.3000 N   0  0  0  0  0  0  0  0  0  0  0  0
    1.2118   -1.5159   -2.4066 N   0  0  0  0  0  0  0  0  0  0  0  0
    0.3187   -1.5399   -0.1693 N   0  0  0  0  0  0  0  0  0  0  0  0
   -0.5608   -2.0643   -0.1851 H   0  0  0  0  0  0  0  0  0  0  0  0
    0.9169   -1.6095    0.6543 H   0  0  0  0  0  0  0  0  0  0  0  0
    0.0131   -3.1241   -4.5908 C   0  0  0  0  0  0  0  0  0  0  0  0
    0.9694   -2.9641   -5.5950 C   0  0  0  0  0  0  0  0  0  0  0  0
    1.1978   -1.6957   -6.1515 C   0  0  0  0  0  0  0  0  0  0  0  0
    0.4797   -0.5809   -5.6919 C   0  0  0  0  0  0  0  0  0  0  0  0
   -0.4780   -0.7329   -4.6875 C   0  0  0  0  0  0  0  0  0  0  0  0
   -0.7126   -2.0066   -4.1290 C   0  0  0  0  0  0  0  0  0  0  0  0
   -0.1929   -4.1157   -4.1858 H   0  0  0  0  0  0  0  0  0  0  0  0
    1.5237   -3.8275   -5.9633 H   0  0  0  0  0  0  0  0  0  0  0  0
    1.9337   -1.5769   -6.9473 H   0  0  0  0  0  0  0  0  0  0  0  0
    0.6551    0.3997   -6.1345 H   0  0  0  0  0  0  0  0  0  0  0  0
   -1.0632    0.1255   -4.3556 H   0  0  0  0  0  0  0  0  0  0  0  0
   -1.5261   -2.1436   -3.4131 H   0  0  0  0  0  0  0  0  0  0  0  0
  1  3  1  0  0  0  0
  2  1  1  0  0  0  0
  3  5  1  0  0  0  0
  4  3  1  0  0  0  0
  6 12  1  0  0  0  0
  6 11  1  0  0  0  0
  7  6  2  0  0  0  0
  8  9  2  0  0  0  0
  8  7  1  0  0  0  0
  9 10  1  0  0  0  0
 10 16  1  0  0  0  0
 10 11  2  0  0  0  0
 11 17  1  0  0  0  0
 13  7  1  0  0  0  0
 14  8  1  0  0  0  0
 15  9  1  0  0  0  0
M  RAD  2   1   2   2   3
M  END
