Coordinates from ORCA-job C6H6+NH2N2+-aug-scan
 OpenBabel10121810033D

 17 17  0  0  1  0  0  0  0  0999 V2000
    1.1052   -1.3132   -1.4006 N   0  0  0  0  0  0  0  0  0  0  0  0
    0.1207   -1.2954   -2.1125 N   0  0  0  0  0  0  0  0  0  0  0  0
    2.3206   -1.3245   -2.0947 N   0  0  0  0  0  0  0  0  0  0  0  0
    2.5577   -0.3467   -2.3043 H   0  0  0  0  0  0  0  0  0  0  0  0
    3.0336   -1.6062   -1.4132 H   0  0  0  0  0  0  0  0  0  0  0  0
   -0.0504   -3.4251   -4.8494 C   0  0  0  0  0  0  0  0  0  0  0  0
    0.8111   -2.7331   -4.0352 C   0  0  0  0  0  0  0  0  0  0  0  0
    0.5478   -1.3323   -3.6559 C   0  0  1  0  0  0  0  0  0  0  0  0
   -0.5940   -0.6991   -4.3487 C   0  0  0  0  0  0  0  0  0  0  0  0
   -1.4174   -1.3955   -5.1988 C   0  0  0  0  0  0  0  0  0  0  0  0
   -1.1619   -2.7648   -5.4250 C   0  0  0  0  0  0  0  0  0  0  0  0
    0.1368   -4.4717   -5.0879 H   0  0  0  0  0  0  0  0  0  0  0  0
    1.7036   -3.2118   -3.6374 H   0  0  0  0  0  0  0  0  0  0  0  0
    1.4320   -0.7055   -3.8020 H   0  0  0  0  0  0  0  0  0  0  0  0
   -0.7965    0.3495   -4.1222 H   0  0  0  0  0  0  0  0  0  0  0  0
   -2.2639   -0.9105   -5.6835 H   0  0  0  0  0  0  0  0  0  0  0  0
   -1.8292   -3.3284   -6.0807 H   0  0  0  0  0  0  0  0  0  0  0  0
  2  1  1  0  0  0  0
  3  5  1  0  0  0  0
  3  1  1  0  0  0  0
  4  3  1  0  0  0  0
  6  7  2  0  0  0  0
  7  8  1  0  0  0  0
  7 13  1  0  0  0  0
  8 14  1  6  0  0  0
  8  2  1  0  0  0  0
  9 15  1  0  0  0  0
  9  8  1  0  0  0  0
 10  9  2  0  0  0  0
 11 10  1  0  0  0  0
 11  6  1  0  0  0  0
 12  6  1  0  0  0  0
 16 10  1  0  0  0  0
 17 11  1  0  0  0  0
M  RAD  3   1   2   2   2  11   2
M  END
