Coordinates from ORCA-job C6H6+NH2N2+-aug-scan
 OpenBabel10121810033D

 17 16  0  0  0  0  0  0  0  0999 V2000
   -0.0682   -0.1726    0.4754 N   0  0  0  0  0  0  0  0  0  0  0  0
    0.3966   -0.4133   -0.4957 N   0  0  0  0  0  0  0  0  0  0  0  0
    1.6203   -1.1910   -3.2161 N   0  0  0  0  0  0  0  0  0  0  0  0
    2.4388   -1.7730   -2.9126 H   0  0  0  0  0  0  0  0  0  0  0  0
    2.1294   -0.3070   -3.5262 H   0  0  0  0  0  0  0  0  0  0  0  0
    0.0582   -3.6097   -5.0284 C   0  0  0  0  0  0  0  0  0  0  0  0
    1.0011   -2.9971   -4.2054 C   0  0  0  0  0  0  0  0  0  0  0  0
    0.9420   -1.6257   -3.8417 C   0  0  0  0  0  0  0  0  0  0  0  0
   -0.1590   -0.9019   -4.4037 C   0  0  0  0  0  0  0  0  0  0  0  0
   -1.0992   -1.5029   -5.2263 C   0  0  0  0  0  0  0  0  0  0  0  0
   -1.0017   -2.8657   -5.5432 C   0  0  0  0  0  0  0  0  0  0  0  0
    0.1631   -4.6676   -5.2675 H   0  0  0  0  0  0  0  0  0  0  0  0
    1.8403   -3.5792   -3.8034 H   0  0  0  0  0  0  0  0  0  0  0  0
    1.2908   -0.8378   -2.2582 H   0  0  0  0  0  0  0  0  0  0  0  0
   -0.2421    0.1661   -4.1756 H   0  0  0  0  0  0  0  0  0  0  0  0
   -1.9138   -0.9025   -5.6308 H   0  0  0  0  0  0  0  0  0  0  0  0
   -1.7409   -3.3333   -6.1926 H   0  0  0  0  0  0  0  0  0  0  0  0
  2  1  3  0  0  0  0
  3  4  1  0  0  0  0
  3 14  1  0  0  0  0
  5  3  1  0  0  0  0
  6  7  2  0  0  0  0
  7  8  1  0  0  0  0
  7 13  1  0  0  0  0
  8  3  1  0  0  0  0
  9 15  1  0  0  0  0
  9  8  2  0  0  0  0
 10  9  1  0  0  0  0
 11 10  2  0  0  0  0
 11  6  1  0  0  0  0
 12  6  1  0  0  0  0
 16 10  1  0  0  0  0
 17 11  1  0  0  0  0
M  END
