Coordinates from ORCA-job C6H6+NH2N2+-aug-scan
 OpenBabel10121810033D

 17 17  0  0  1  0  0  0  0  0999 V2000
    1.1038   -1.3114   -1.4009 N   0  0  0  0  0  0  0  0  0  0  0  0
    0.1186   -1.2927   -2.1120 N   0  0  0  0  0  0  0  0  0  0  0  0
    2.3160   -1.3247   -2.1009 N   0  0  0  0  0  0  0  0  0  0  0  0
    2.5577   -0.3461   -2.3023 H   0  0  0  0  0  0  0  0  0  0  0  0
    3.0306   -1.6144   -1.4242 H   0  0  0  0  0  0  0  0  0  0  0  0
   -0.0492   -3.4247   -4.8474 C   0  0  0  0  0  0  0  0  0  0  0  0
    0.8117   -2.7326   -4.0328 C   0  0  0  0  0  0  0  0  0  0  0  0
    0.5486   -1.3316   -3.6531 C   0  0  1  0  0  0  0  0  0  0  0  0
   -0.5937   -0.6994   -4.3471 C   0  0  0  0  0  0  0  0  0  0  0  0
   -1.4162   -1.3955   -5.1984 C   0  0  0  0  0  0  0  0  0  0  0  0
   -1.1603   -2.7647   -5.4243 C   0  0  0  0  0  0  0  0  0  0  0  0
    0.1386   -4.4712   -5.0857 H   0  0  0  0  0  0  0  0  0  0  0  0
    1.7042   -3.2116   -3.6353 H   0  0  0  0  0  0  0  0  0  0  0  0
    1.4315   -0.7039   -3.8022 H   0  0  0  0  0  0  0  0  0  0  0  0
   -0.7972    0.3491   -4.1206 H   0  0  0  0  0  0  0  0  0  0  0  0
   -2.2622   -0.9105   -5.6838 H   0  0  0  0  0  0  0  0  0  0  0  0
   -1.8267   -3.3284   -6.0809 H   0  0  0  0  0  0  0  0  0  0  0  0
  2  1  1  0  0  0  0
  3  5  1  0  0  0  0
  3  1  1  0  0  0  0
  4  3  1  0  0  0  0
  6  7  2  0  0  0  0
  7  8  1  0  0  0  0
  7 13  1  0  0  0  0
  8 14  1  6  0  0  0
  8  2  1  0  0  0  0
  9 15  1  0  0  0  0
  9  8  1  0  0  0  0
 10  9  2  0  0  0  0
 11 10  1  0  0  0  0
 11  6  1  0  0  0  0
 12  6  1  0  0  0  0
 16 10  1  0  0  0  0
 17 11  1  0  0  0  0
M  RAD  3   1   2   2   2  11   2
M  END
