Coordinates from ORCA-job C6H6+NH2N2+-aug-scan
 OpenBabel10121810033D

 17 16  0  0  0  0  0  0  0  0999 V2000
    1.0026   -1.5960   -1.4657 N   0  0  0  0  0  0  0  0  0  0  0  0
    0.2641   -1.9575   -2.2626 N   0  0  0  0  0  0  0  0  0  0  0  0
    2.1542   -1.0348   -1.1954 N   0  0  0  0  0  0  0  0  0  0  0  0
    2.4823   -0.3778   -1.9082 H   0  0  0  0  0  0  0  0  0  0  0  0
    2.2887   -0.8053   -0.2132 H   0  0  0  0  0  0  0  0  0  0  0  0
   -0.1238   -3.4496   -5.0620 C   0  0  0  0  0  0  0  0  0  0  0  0
    1.0272   -2.7301   -4.7487 C   0  0  0  0  0  0  0  0  0  0  0  0
    0.9364   -1.3386   -4.4992 C   0  0  0  0  0  0  0  0  0  0  0  0
   -0.3082   -0.6737   -4.6161 C   0  0  0  0  0  0  0  0  0  0  0  0
   -1.4518   -1.4043   -4.9293 C   0  0  0  0  0  0  0  0  0  0  0  0
   -1.3591   -2.7884   -5.1467 C   0  0  0  0  0  0  0  0  0  0  0  0
   -0.0647   -4.5207   -5.2543 H   0  0  0  0  0  0  0  0  0  0  0  0
    1.9953   -3.2296   -4.7039 H   0  0  0  0  0  0  0  0  0  0  0  0
    1.8501   -0.7561   -4.3589 H   0  0  0  0  0  0  0  0  0  0  0  0
   -0.3661    0.4054   -4.4711 H   0  0  0  0  0  0  0  0  0  0  0  0
   -2.4149   -0.9023   -5.0196 H   0  0  0  0  0  0  0  0  0  0  0  0
   -2.2566   -3.3549   -5.3972 H   0  0  0  0  0  0  0  0  0  0  0  0
  1  3  1  0  0  0  0
  2  1  2  0  0  0  0
  3  5  1  0  0  0  0
  4  3  1  0  0  0  0
  6  7  1  0  0  0  0
  7 13  1  0  0  0  0
  7  8  2  0  0  0  0
  8 14  1  0  0  0  0
  9  8  1  0  0  0  0
  9 15  1  0  0  0  0
 10  9  2  0  0  0  0
 11  6  2  0  0  0  0
 11 10  1  0  0  0  0
 12  6  1  0  0  0  0
 16 10  1  0  0  0  0
 17 11  1  0  0  0  0
M  RAD  1   2   2
M  END
