Coordinates from ORCA-job C6H6+NH2N2+-aug-scan
 OpenBabel10121810033D

 17 16  0  0  0  0  0  0  0  0999 V2000
    1.0387   -1.5367   -1.4552 N   0  0  0  0  0  0  0  0  0  0  0  0
    1.2328   -1.5293   -2.5740 N   0  0  0  0  0  0  0  0  0  0  0  0
    0.3584   -1.5288   -0.3413 N   0  0  0  0  0  0  0  0  0  0  0  0
   -0.5258   -2.0434   -0.3812 H   0  0  0  0  0  0  0  0  0  0  0  0
    0.9315   -1.6015    0.4987 H   0  0  0  0  0  0  0  0  0  0  0  0
   -0.0281   -3.1368   -4.5517 C   0  0  0  0  0  0  0  0  0  0  0  0
    0.9714   -2.9623   -5.5099 C   0  0  0  0  0  0  0  0  0  0  0  0
    1.2264   -1.6844   -6.0313 C   0  0  0  0  0  0  0  0  0  0  0  0
    0.4830   -0.5763   -5.5980 C   0  0  0  0  0  0  0  0  0  0  0  0
   -0.5176   -0.7411   -4.6388 C   0  0  0  0  0  0  0  0  0  0  0  0
   -0.7685   -2.0226   -4.1022 C   0  0  0  0  0  0  0  0  0  0  0  0
   -0.2506   -4.1322   -4.1656 H   0  0  0  0  0  0  0  0  0  0  0  0
    1.5428   -3.8194   -5.8664 H   0  0  0  0  0  0  0  0  0  0  0  0
    2.0010   -1.5538   -6.7876 H   0  0  0  0  0  0  0  0  0  0  0  0
    0.6770    0.4090   -6.0219 H   0  0  0  0  0  0  0  0  0  0  0  0
   -1.1172    0.1114   -4.3180 H   0  0  0  0  0  0  0  0  0  0  0  0
   -1.5993   -2.1659   -3.4077 H   0  0  0  0  0  0  0  0  0  0  0  0
  1  3  1  0  0  0  0
  2  1  1  0  0  0  0
  3  5  1  0  0  0  0
  4  3  1  0  0  0  0
  6 12  1  0  0  0  0
  6 11  1  0  0  0  0
  7  6  2  0  0  0  0
  8  9  2  0  0  0  0
  8  7  1  0  0  0  0
  9 10  1  0  0  0  0
 10 16  1  0  0  0  0
 10 11  2  0  0  0  0
 11 17  1  0  0  0  0
 13  7  1  0  0  0  0
 14  8  1  0  0  0  0
 15  9  1  0  0  0  0
M  RAD  2   1   2   2   3
M  END
