Coordinates from ORCA-job C6H6+NH2N2+-aug-scan
 OpenBabel10121810033D

 17 16  0  0  0  0  0  0  0  0999 V2000
    0.9995   -1.5407   -1.3709 N   0  0  0  0  0  0  0  0  0  0  0  0
    1.2167   -1.5286   -2.4842 N   0  0  0  0  0  0  0  0  0  0  0  0
    0.3397   -1.5309   -0.2447 N   0  0  0  0  0  0  0  0  0  0  0  0
   -0.5428   -2.0495   -0.2666 H   0  0  0  0  0  0  0  0  0  0  0  0
    0.9305   -1.5982    0.5839 H   0  0  0  0  0  0  0  0  0  0  0  0
   -0.0078   -3.1317   -4.5765 C   0  0  0  0  0  0  0  0  0  0  0  0
    0.9707   -2.9630   -5.5574 C   0  0  0  0  0  0  0  0  0  0  0  0
    1.2132   -1.6894   -6.0960 C   0  0  0  0  0  0  0  0  0  0  0  0
    0.4830   -0.5787   -5.6461 C   0  0  0  0  0  0  0  0  0  0  0  0
   -0.4972   -0.7382   -4.6650 C   0  0  0  0  0  0  0  0  0  0  0  0
   -0.7414   -2.0166   -4.1196 C   0  0  0  0  0  0  0  0  0  0  0  0
   -0.2229   -4.1260   -4.1834 H   0  0  0  0  0  0  0  0  0  0  0  0
    1.5329   -3.8232   -5.9212 H   0  0  0  0  0  0  0  0  0  0  0  0
    1.9684   -1.5638   -6.8724 H   0  0  0  0  0  0  0  0  0  0  0  0
    0.6679    0.4051   -6.0778 H   0  0  0  0  0  0  0  0  0  0  0  0
   -1.0900    0.1170   -4.3384 H   0  0  0  0  0  0  0  0  0  0  0  0
   -1.5644   -2.1578   -3.4156 H   0  0  0  0  0  0  0  0  0  0  0  0
  1  3  1  0  0  0  0
  2  1  1  0  0  0  0
  3  5  1  0  0  0  0
  4  3  1  0  0  0  0
  6 12  1  0  0  0  0
  6 11  1  0  0  0  0
  7  6  2  0  0  0  0
  8  9  2  0  0  0  0
  8  7  1  0  0  0  0
  9 10  1  0  0  0  0
 10 16  1  0  0  0  0
 10 11  2  0  0  0  0
 11 17  1  0  0  0  0
 13  7  1  0  0  0  0
 14  8  1  0  0  0  0
 15  9  1  0  0  0  0
M  RAD  2   1   2   2   3
M  END
