Coordinates from ORCA-job C6H6+NH2N2+-aug-scan
 OpenBabel10121810033D

 17 16  0  0  0  0  0  0  0  0999 V2000
    1.0227   -1.5818   -1.4803 N   0  0  0  0  0  0  0  0  0  0  0  0
    0.3094   -1.9349   -2.2977 N   0  0  0  0  0  0  0  0  0  0  0  0
    2.1492   -1.0504   -1.0805 N   0  0  0  0  0  0  0  0  0  0  0  0
    2.5439   -0.3606   -1.7259 H   0  0  0  0  0  0  0  0  0  0  0  0
    2.1903   -0.8633   -0.0803 H   0  0  0  0  0  0  0  0  0  0  0  0
   -0.1310   -3.4531   -5.0554 C   0  0  0  0  0  0  0  0  0  0  0  0
    1.0313   -2.7193   -4.8218 C   0  0  0  0  0  0  0  0  0  0  0  0
    0.9476   -1.3221   -4.6167 C   0  0  0  0  0  0  0  0  0  0  0  0
   -0.3030   -0.6666   -4.6883 C   0  0  0  0  0  0  0  0  0  0  0  0
   -1.4586   -1.4100   -4.9214 C   0  0  0  0  0  0  0  0  0  0  0  0
   -1.3719   -2.7998   -5.0997 C   0  0  0  0  0  0  0  0  0  0  0  0
   -0.0759   -4.5297   -5.2164 H   0  0  0  0  0  0  0  0  0  0  0  0
    2.0027   -3.2145   -4.8094 H   0  0  0  0  0  0  0  0  0  0  0  0
    1.8631   -0.7348   -4.5161 H   0  0  0  0  0  0  0  0  0  0  0  0
   -0.3586    0.4164   -4.5744 H   0  0  0  0  0  0  0  0  0  0  0  0
   -2.4270   -0.9132   -4.9793 H   0  0  0  0  0  0  0  0  0  0  0  0
   -2.2782   -3.3763   -5.2883 H   0  0  0  0  0  0  0  0  0  0  0  0
  1  3  1  0  0  0  0
  2  1  2  0  0  0  0
  3  5  1  0  0  0  0
  4  3  1  0  0  0  0
  6  7  1  0  0  0  0
  7 13  1  0  0  0  0
  7  8  2  0  0  0  0
  8 14  1  0  0  0  0
  9  8  1  0  0  0  0
  9 15  1  0  0  0  0
 10  9  2  0  0  0  0
 11  6  2  0  0  0  0
 11 10  1  0  0  0  0
 12  6  1  0  0  0  0
 16 10  1  0  0  0  0
 17 11  1  0  0  0  0
M  RAD  1   2   2
M  END
