Coordinates from ORCA-job C6H6+NH2N2+-aug-scan
 OpenBabel10121810033D

 17 16  0  0  0  0  0  0  0  0999 V2000
    1.0513   -1.5916   -1.5110 N   0  0  0  0  0  0  0  0  0  0  0  0
    0.5944   -2.1657   -2.3839 N   0  0  0  0  0  0  0  0  0  0  0  0
    1.6504   -0.5467   -0.9997 N   0  0  0  0  0  0  0  0  0  0  0  0
    1.4088    0.3395   -1.4518 H   0  0  0  0  0  0  0  0  0  0  0  0
    1.7347   -0.5701    0.0150 H   0  0  0  0  0  0  0  0  0  0  0  0
   -0.2306   -3.4851   -5.3216 C   0  0  0  0  0  0  0  0  0  0  0  0
    1.0485   -2.9159   -5.3324 C   0  0  0  0  0  0  0  0  0  0  0  0
    1.2237   -1.5977   -4.9034 C   0  0  0  0  0  0  0  0  0  0  0  0
    0.1071   -0.8502   -4.4568 C   0  0  0  0  0  0  0  0  0  0  0  0
   -1.1817   -1.4237   -4.4694 C   0  0  0  0  0  0  0  0  0  0  0  0
   -1.3442   -2.7407   -4.8938 C   0  0  0  0  0  0  0  0  0  0  0  0
   -0.3678   -4.5123   -5.6610 H   0  0  0  0  0  0  0  0  0  0  0  0
    1.9018   -3.4947   -5.6855 H   0  0  0  0  0  0  0  0  0  0  0  0
    2.2113   -1.1360   -4.9364 H   0  0  0  0  0  0  0  0  0  0  0  0
    0.2285    0.2030   -4.1941 H   0  0  0  0  0  0  0  0  0  0  0  0
   -2.0441   -0.8341   -4.1580 H   0  0  0  0  0  0  0  0  0  0  0  0
   -2.3363   -3.1922   -4.9081 H   0  0  0  0  0  0  0  0  0  0  0  0
  1  3  1  0  0  0  0
  2  1  2  0  0  0  0
  3  5  1  0  0  0  0
  4  3  1  0  0  0  0
  6 11  1  0  0  0  0
  7  6  2  0  0  0  0
  7  8  1  0  0  0  0
  8  9  2  0  0  0  0
  9 15  1  0  0  0  0
 10  9  1  0  0  0  0
 10 16  1  0  0  0  0
 11 10  2  0  0  0  0
 12  6  1  0  0  0  0
 13  7  1  0  0  0  0
 14  8  1  0  0  0  0
 17 11  1  0  0  0  0
M  RAD  1   2   2
M  END
