Coordinates from ORCA-job C6H6+NH2N2+-aug-scan
 OpenBabel10121810033D

 17 16  0  0  0  0  0  0  0  0999 V2000
    1.0112   -1.5880   -1.4782 N   0  0  0  0  0  0  0  0  0  0  0  0
    0.2920   -1.9433   -2.2914 N   0  0  0  0  0  0  0  0  0  0  0  0
    2.1475   -1.0473   -1.1190 N   0  0  0  0  0  0  0  0  0  0  0  0
    2.5217   -0.3685   -1.7875 H   0  0  0  0  0  0  0  0  0  0  0  0
    2.2196   -0.8483   -0.1232 H   0  0  0  0  0  0  0  0  0  0  0  0
   -0.1276   -3.4516   -5.0547 C   0  0  0  0  0  0  0  0  0  0  0  0
    1.0318   -2.7214   -4.7986 C   0  0  0  0  0  0  0  0  0  0  0  0
    0.9461   -1.3256   -4.5803 C   0  0  0  0  0  0  0  0  0  0  0  0
   -0.3031   -0.6675   -4.6655 C   0  0  0  0  0  0  0  0  0  0  0  0
   -1.4555   -1.4078   -4.9219 C   0  0  0  0  0  0  0  0  0  0  0  0
   -1.3671   -2.7962   -5.1108 C   0  0  0  0  0  0  0  0  0  0  0  0
   -0.0714   -4.5266   -5.2247 H   0  0  0  0  0  0  0  0  0  0  0  0
    2.0026   -3.2174   -4.7775 H   0  0  0  0  0  0  0  0  0  0  0  0
    1.8611   -0.7394   -4.4685 H   0  0  0  0  0  0  0  0  0  0  0  0
   -0.3594    0.4146   -4.5433 H   0  0  0  0  0  0  0  0  0  0  0  0
   -2.4226   -0.9097   -4.9897 H   0  0  0  0  0  0  0  0  0  0  0  0
   -2.2712   -3.3701   -5.3171 H   0  0  0  0  0  0  0  0  0  0  0  0
  1  3  1  0  0  0  0
  2  1  2  0  0  0  0
  3  5  1  0  0  0  0
  4  3  1  0  0  0  0
  6  7  1  0  0  0  0
  7 13  1  0  0  0  0
  7  8  2  0  0  0  0
  8 14  1  0  0  0  0
  9  8  1  0  0  0  0
  9 15  1  0  0  0  0
 10  9  2  0  0  0  0
 11  6  2  0  0  0  0
 11 10  1  0  0  0  0
 12  6  1  0  0  0  0
 16 10  1  0  0  0  0
 17 11  1  0  0  0  0
M  RAD  1   2   2
M  END
