Coordinates from ORCA-job C6H6+NH2N2+-aug-scan
 OpenBabel10121810033D

 17 16  0  0  0  0  0  0  0  0999 V2000
    0.2423   -1.0846   -0.6577 N   0  0  0  0  0  0  0  0  0  0  0  0
    0.1846   -1.3690   -1.7306 N   0  0  0  0  0  0  0  0  0  0  0  0
    2.1238   -0.7538   -3.2748 N   0  0  0  0  0  0  0  0  0  0  0  0
    2.9933   -1.1681   -2.9238 H   0  0  0  0  0  0  0  0  0  0  0  0
    2.1277   -0.9662   -4.2741 H   0  0  0  0  0  0  0  0  0  0  0  0
    0.0278   -3.5360   -4.6420 C   0  0  0  0  0  0  0  0  0  0  0  0
    0.3964   -3.0736   -3.3837 C   0  0  0  0  0  0  0  0  0  0  0  0
    0.1036   -1.7281   -3.0708 C   0  0  0  0  0  0  0  0  0  0  0  0
   -0.7019   -0.9128   -3.8957 C   0  0  0  0  0  0  0  0  0  0  0  0
   -1.0526   -1.4104   -5.1457 C   0  0  0  0  0  0  0  0  0  0  0  0
   -0.6800   -2.7085   -5.5271 C   0  0  0  0  0  0  0  0  0  0  0  0
    0.2768   -4.5577   -4.9270 H   0  0  0  0  0  0  0  0  0  0  0  0
    0.9234   -3.7070   -2.6721 H   0  0  0  0  0  0  0  0  0  0  0  0
    2.3008    0.2550   -3.2294 H   0  0  0  0  0  0  0  0  0  0  0  0
   -1.0020    0.0817   -3.5700 H   0  0  0  0  0  0  0  0  0  0  0  0
   -1.6393   -0.7877   -5.8204 H   0  0  0  0  0  0  0  0  0  0  0  0
   -0.9689   -3.0875   -6.5070 H   0  0  0  0  0  0  0  0  0  0  0  0
  2  1  1  0  0  0  0
  3 14  1  0  0  0  0
  3  4  1  0  0  0  0
  5  3  1  0  0  0  0
  6  7  2  0  0  0  0
  7  8  1  0  0  0  0
  7 13  1  0  0  0  0
  8  2  1  0  0  0  0
  9 15  1  0  0  0  0
  9  8  2  0  0  0  0
 10  9  1  0  0  0  0
 11 10  2  0  0  0  0
 11  6  1  0  0  0  0
 12  6  1  0  0  0  0
 16 10  1  0  0  0  0
 17 11  1  0  0  0  0
M  RAD  2   1   3   2   2
M  END
