Coordinates from ORCA-job C6H6+NH2N2+-aug-scan
 OpenBabel10121810033D

 17 16  0  0  0  0  0  0  0  0999 V2000
    1.0902   -1.5283   -1.5307 N   0  0  0  0  0  0  0  0  0  0  0  0
    0.9793   -2.1054   -2.5024 N   0  0  0  0  0  0  0  0  0  0  0  0
    1.0241   -0.4974   -0.7317 N   0  0  0  0  0  0  0  0  0  0  0  0
    0.2252    0.1188   -0.9059 H   0  0  0  0  0  0  0  0  0  0  0  0
    1.2796   -0.7022    0.2336 H   0  0  0  0  0  0  0  0  0  0  0  0
   -0.2529   -3.4885   -5.2047 C   0  0  0  0  0  0  0  0  0  0  0  0
    0.9705   -2.9808   -5.6774 C   0  0  0  0  0  0  0  0  0  0  0  0
    1.3184   -1.6467   -5.4513 C   0  0  0  0  0  0  0  0  0  0  0  0
    0.4440   -0.8130   -4.7404 C   0  0  0  0  0  0  0  0  0  0  0  0
   -0.7842   -1.3244   -4.2599 C   0  0  0  0  0  0  0  0  0  0  0  0
   -1.1322   -2.6639   -4.5020 C   0  0  0  0  0  0  0  0  0  0  0  0
   -0.5193   -4.5274   -5.4007 H   0  0  0  0  0  0  0  0  0  0  0  0
    1.6448   -3.6307   -6.2359 H   0  0  0  0  0  0  0  0  0  0  0  0
    2.2579   -1.2515   -5.8375 H   0  0  0  0  0  0  0  0  0  0  0  0
    0.6908    0.2400   -4.5952 H   0  0  0  0  0  0  0  0  0  0  0  0
   -1.4907   -0.6614   -3.7567 H   0  0  0  0  0  0  0  0  0  0  0  0
   -2.0897   -3.0512   -4.1533 H   0  0  0  0  0  0  0  0  0  0  0  0
  1  3  1  0  0  0  0
  2  1  1  0  0  0  0
  3  5  1  0  0  0  0
  4  3  1  0  0  0  0
  6 11  2  0  0  0  0
  7  8  2  0  0  0  0
  7  6  1  0  0  0  0
  8  9  1  0  0  0  0
  9 15  1  0  0  0  0
  9 10  2  0  0  0  0
 10 16  1  0  0  0  0
 11 10  1  0  0  0  0
 11 17  1  0  0  0  0
 12  6  1  0  0  0  0
 13  7  1  0  0  0  0
 14  8  1  0  0  0  0
M  RAD  2   1   2   2   3
M  END
