Coordinates from ORCA-job C6H6+NH2N2+-aug-scan
 OpenBabel10121810033D

 17 16  0  0  0  0  0  0  0  0999 V2000
    0.8378   -1.5674   -1.0802 N   0  0  0  0  0  0  0  0  0  0  0  0
    1.1742   -1.4951   -2.1549 N   0  0  0  0  0  0  0  0  0  0  0  0
    0.2693   -1.5577    0.0890 N   0  0  0  0  0  0  0  0  0  0  0  0
   -0.6187   -2.0651    0.1372 H   0  0  0  0  0  0  0  0  0  0  0  0
    0.9214   -1.6234    0.8728 H   0  0  0  0  0  0  0  0  0  0  0  0
    0.0695   -3.1092   -4.6623 C   0  0  0  0  0  0  0  0  0  0  0  0
    0.9659   -2.9672   -5.7243 C   0  0  0  0  0  0  0  0  0  0  0  0
    1.1605   -1.7098   -6.3167 C   0  0  0  0  0  0  0  0  0  0  0  0
    0.4715   -0.5880   -5.8311 C   0  0  0  0  0  0  0  0  0  0  0  0
   -0.4263   -0.7237   -4.7693 C   0  0  0  0  0  0  0  0  0  0  0  0
   -0.6314   -1.9867   -4.1820 C   0  0  0  0  0  0  0  0  0  0  0  0
   -0.1106   -4.0942   -4.2294 H   0  0  0  0  0  0  0  0  0  0  0  0
    1.4984   -3.8375   -6.1086 H   0  0  0  0  0  0  0  0  0  0  0  0
    1.8474   -1.6048   -7.1569 H   0  0  0  0  0  0  0  0  0  0  0  0
    0.6209    0.3860   -6.2976 H   0  0  0  0  0  0  0  0  0  0  0  0
   -0.9900    0.1415   -4.4177 H   0  0  0  0  0  0  0  0  0  0  0  0
   -1.4041   -2.1119   -3.4198 H   0  0  0  0  0  0  0  0  0  0  0  0
  1  3  1  0  0  0  0
  2  1  1  0  0  0  0
  3  4  1  0  0  0  0
  3  5  1  0  0  0  0
  6 12  1  0  0  0  0
  6 11  1  0  0  0  0
  7  6  2  0  0  0  0
  8  9  2  0  0  0  0
  8  7  1  0  0  0  0
  9 10  1  0  0  0  0
 10 16  1  0  0  0  0
 10 11  2  0  0  0  0
 11 17  1  0  0  0  0
 13  7  1  0  0  0  0
 14  8  1  0  0  0  0
 15  9  1  0  0  0  0
M  RAD  2   1   2   2   3
M  END
