Coordinates from ORCA-job C6H6+NH2N2+-aug-scan
 OpenBabel10121810033D

 17 16  0  0  0  0  0  0  0  0999 V2000
    1.0914   -1.5332   -1.5292 N   0  0  0  0  0  0  0  0  0  0  0  0
    0.8997   -2.1248   -2.4794 N   0  0  0  0  0  0  0  0  0  0  0  0
    1.2142   -0.4756   -0.7734 N   0  0  0  0  0  0  0  0  0  0  0  0
    0.5760    0.2889   -1.0107 H   0  0  0  0  0  0  0  0  0  0  0  0
    1.3842   -0.6834    0.2099 H   0  0  0  0  0  0  0  0  0  0  0  0
   -0.2588   -3.4982   -5.2572 C   0  0  0  0  0  0  0  0  0  0  0  0
    0.9964   -2.9690   -5.6056 C   0  0  0  0  0  0  0  0  0  0  0  0
    1.3042   -1.6407   -5.3115 C   0  0  0  0  0  0  0  0  0  0  0  0
    0.3555   -0.8363   -4.6538 C   0  0  0  0  0  0  0  0  0  0  0  0
   -0.9102   -1.3677   -4.3137 C   0  0  0  0  0  0  0  0  0  0  0  0
   -1.2127   -2.7003   -4.6179 C   0  0  0  0  0  0  0  0  0  0  0  0
   -0.4940   -4.5346   -5.5012 H   0  0  0  0  0  0  0  0  0  0  0  0
    1.7248   -3.5967   -6.1194 H   0  0  0  0  0  0  0  0  0  0  0  0
    2.2686   -1.2223   -5.5999 H   0  0  0  0  0  0  0  0  0  0  0  0
    0.5719    0.2177   -4.4692 H   0  0  0  0  0  0  0  0  0  0  0  0
   -1.6633   -0.7285   -3.8500 H   0  0  0  0  0  0  0  0  0  0  0  0
   -2.1921   -3.1094   -4.3698 H   0  0  0  0  0  0  0  0  0  0  0  0
  1  3  1  0  0  0  0
  2  1  1  0  0  0  0
  3  5  1  0  0  0  0
  4  3  1  0  0  0  0
  6 11  2  0  0  0  0
  7  8  2  0  0  0  0
  7  6  1  0  0  0  0
  8  9  1  0  0  0  0
  9 15  1  0  0  0  0
  9 10  2  0  0  0  0
 10 16  1  0  0  0  0
 11 17  1  0  0  0  0
 11 10  1  0  0  0  0
 12  6  1  0  0  0  0
 13  7  1  0  0  0  0
 14  8  1  0  0  0  0
M  RAD  2   1   2   2   3
M  END
