Coordinates from ORCA-job C6H6+NH2N2+-aug-scan
 OpenBabel10121810033D

 17 16  0  0  0  0  0  0  0  0999 V2000
   -0.0066   -0.0801    0.6237 N   0  0  0  0  0  0  0  0  0  0  0  0
    0.4591   -0.3286   -0.3451 N   0  0  0  0  0  0  0  0  0  0  0  0
    1.7595   -1.0895   -3.0612 N   0  0  0  0  0  0  0  0  0  0  0  0
    2.5342   -1.7247   -2.8353 H   0  0  0  0  0  0  0  0  0  0  0  0
    2.1860   -0.2443   -3.4645 H   0  0  0  0  0  0  0  0  0  0  0  0
    0.0346   -3.6457   -5.0938 C   0  0  0  0  0  0  0  0  0  0  0  0
    0.9695   -3.0490   -4.2420 C   0  0  0  0  0  0  0  0  0  0  0  0
    0.8298   -1.6964   -3.9315 C   0  0  0  0  0  0  0  0  0  0  0  0
   -0.2129   -0.9242   -4.4496 C   0  0  0  0  0  0  0  0  0  0  0  0
   -1.1392   -1.5320   -5.2995 C   0  0  0  0  0  0  0  0  0  0  0  0
   -1.0160   -2.8891   -5.6200 C   0  0  0  0  0  0  0  0  0  0  0  0
    0.1331   -4.7011   -5.3453 H   0  0  0  0  0  0  0  0  0  0  0  0
    1.7926   -3.6387   -3.8318 H   0  0  0  0  0  0  0  0  0  0  0  0
    1.3379   -0.8063   -2.1574 H   0  0  0  0  0  0  0  0  0  0  0  0
   -0.3076    0.1347   -4.2003 H   0  0  0  0  0  0  0  0  0  0  0  0
   -1.9566   -0.9421   -5.7131 H   0  0  0  0  0  0  0  0  0  0  0  0
   -1.7415   -3.3570   -6.2852 H   0  0  0  0  0  0  0  0  0  0  0  0
  2  1  3  0  0  0  0
  3  4  1  0  0  0  0
  3 14  1  0  0  0  0
  5  3  1  0  0  0  0
  6  7  2  0  0  0  0
  7  8  1  0  0  0  0
  7 13  1  0  0  0  0
  8  3  1  0  0  0  0
  9 15  1  0  0  0  0
  9  8  2  0  0  0  0
 10  9  1  0  0  0  0
 11 10  2  0  0  0  0
 11  6  1  0  0  0  0
 12  6  1  0  0  0  0
 16 10  1  0  0  0  0
 17 11  1  0  0  0  0
M  END
