Coordinates from ORCA-job C6H6+NH2N2+-aug-scan
 OpenBabel10121810033D

 17 16  0  0  0  0  0  0  0  0999 V2000
    0.9850   -1.6141   -1.4538 N   0  0  0  0  0  0  0  0  0  0  0  0
    0.2185   -1.9857   -2.2291 N   0  0  0  0  0  0  0  0  0  0  0  0
    2.1470   -1.0154   -1.3482 N   0  0  0  0  0  0  0  0  0  0  0  0
    2.3666   -0.3802   -2.1191 H   0  0  0  0  0  0  0  0  0  0  0  0
    2.3900   -0.7384   -0.4004 H   0  0  0  0  0  0  0  0  0  0  0  0
   -0.1115   -3.4442   -5.0694 C   0  0  0  0  0  0  0  0  0  0  0  0
    1.0230   -2.7495   -4.6629 C   0  0  0  0  0  0  0  0  0  0  0  0
    0.9247   -1.3677   -4.3539 C   0  0  0  0  0  0  0  0  0  0  0  0
   -0.3087   -0.6859   -4.5210 C   0  0  0  0  0  0  0  0  0  0  0  0
   -1.4356   -1.3937   -4.9275 C   0  0  0  0  0  0  0  0  0  0  0  0
   -1.3367   -2.7684   -5.1956 C   0  0  0  0  0  0  0  0  0  0  0  0
   -0.0489   -4.5068   -5.3028 H   0  0  0  0  0  0  0  0  0  0  0  0
    1.9841   -3.2578   -4.5825 H   0  0  0  0  0  0  0  0  0  0  0  0
    1.8383   -0.7942   -4.1811 H   0  0  0  0  0  0  0  0  0  0  0  0
   -0.3685    0.3868   -4.3349 H   0  0  0  0  0  0  0  0  0  0  0  0
   -2.3894   -0.8814   -5.0514 H   0  0  0  0  0  0  0  0  0  0  0  0
   -2.2219   -3.3177   -5.5183 H   0  0  0  0  0  0  0  0  0  0  0  0
  1  3  1  0  0  0  0
  2  1  2  0  0  0  0
  3  5  1  0  0  0  0
  4  3  1  0  0  0  0
  6  7  1  0  0  0  0
  7 13  1  0  0  0  0
  7  8  2  0  0  0  0
  8 14  1  0  0  0  0
  9  8  1  0  0  0  0
  9 15  1  0  0  0  0
 10  9  2  0  0  0  0
 11  6  2  0  0  0  0
 11 10  1  0  0  0  0
 12  6  1  0  0  0  0
 16 10  1  0  0  0  0
 17 11  1  0  0  0  0
M  RAD  1   2   2
M  END
