Coordinates from ORCA-job C6H6+NH2N2+-aug-scan
 OpenBabel10121810033D

 17 16  0  0  0  0  0  0  0  0999 V2000
    0.9536   -1.5300   -1.4516 N   0  0  0  0  0  0  0  0  0  0  0  0
    0.0164   -1.4831   -2.1603 N   0  0  0  0  0  0  0  0  0  0  0  0
    2.2459   -1.4623   -1.7421 N   0  0  0  0  0  0  0  0  0  0  0  0
    2.4799   -0.7760   -2.4584 H   0  0  0  0  0  0  0  0  0  0  0  0
    2.8236   -1.4221   -0.9050 H   0  0  0  0  0  0  0  0  0  0  0  0
   -0.0029   -3.3677   -4.8676 C   0  0  0  0  0  0  0  0  0  0  0  0
    0.9885   -2.5819   -4.3055 C   0  0  0  0  0  0  0  0  0  0  0  0
    0.7268   -1.1985   -4.0348 C   0  0  0  0  0  0  0  0  0  0  0  0
   -0.4916   -0.6128   -4.5164 C   0  0  0  0  0  0  0  0  0  0  0  0
   -1.4684   -1.4097   -5.0870 C   0  0  0  0  0  0  0  0  0  0  0  0
   -1.2292   -2.7861   -5.2471 C   0  0  0  0  0  0  0  0  0  0  0  0
    0.1714   -4.4289   -5.0425 H   0  0  0  0  0  0  0  0  0  0  0  0
    1.9527   -3.0163   -4.0432 H   0  0  0  0  0  0  0  0  0  0  0  0
    1.5553   -0.5045   -3.8927 H   0  0  0  0  0  0  0  0  0  0  0  0
   -0.6542    0.4572   -4.3854 H   0  0  0  0  0  0  0  0  0  0  0  0
   -2.4109   -0.9764   -5.4198 H   0  0  0  0  0  0  0  0  0  0  0  0
   -2.0013   -3.4154   -5.6926 H   0  0  0  0  0  0  0  0  0  0  0  0
  2  1  2  0  0  0  0
  3  1  1  0  0  0  0
  3  5  1  0  0  0  0
  4  3  1  0  0  0  0
  6  7  2  0  0  0  0
  7 13  1  0  0  0  0
  7  8  1  0  0  0  0
  8 14  1  0  0  0  0
  9 15  1  0  0  0  0
  9  8  2  0  0  0  0
 10  9  1  0  0  0  0
 11 10  2  0  0  0  0
 11  6  1  0  0  0  0
 12  6  1  0  0  0  0
 16 10  1  0  0  0  0
 17 11  1  0  0  0  0
M  RAD  1   2   2
M  END
