Coordinates from ORCA-job C6H6+NH2N2+-aug-scan
 OpenBabel10121810033D

 17 16  0  0  0  0  0  0  0  0999 V2000
    0.9380   -1.5479   -1.2364 N   0  0  0  0  0  0  0  0  0  0  0  0
    1.2111   -1.5078   -2.3343 N   0  0  0  0  0  0  0  0  0  0  0  0
    0.2952   -1.5530   -0.1025 N   0  0  0  0  0  0  0  0  0  0  0  0
   -0.5850   -2.0760   -0.1148 H   0  0  0  0  0  0  0  0  0  0  0  0
    0.8982   -1.6160    0.7184 H   0  0  0  0  0  0  0  0  0  0  0  0
    0.0357   -3.1162   -4.6022 C   0  0  0  0  0  0  0  0  0  0  0  0
    0.9675   -2.9645   -5.6309 C   0  0  0  0  0  0  0  0  0  0  0  0
    1.1820   -1.7016   -6.2053 C   0  0  0  0  0  0  0  0  0  0  0  0
    0.4752   -0.5835   -5.7354 C   0  0  0  0  0  0  0  0  0  0  0  0
   -0.4579   -0.7270   -4.7068 C   0  0  0  0  0  0  0  0  0  0  0  0
   -0.6801   -1.9958   -4.1336 C   0  0  0  0  0  0  0  0  0  0  0  0
   -0.1601   -4.1049   -4.1850 H   0  0  0  0  0  0  0  0  0  0  0  0
    1.5126   -3.8315   -6.0049 H   0  0  0  0  0  0  0  0  0  0  0  0
    1.8974   -1.5895   -7.0203 H   0  0  0  0  0  0  0  0  0  0  0  0
    0.6394    0.3938   -6.1899 H   0  0  0  0  0  0  0  0  0  0  0  0
   -1.0350    0.1345   -4.3685 H   0  0  0  0  0  0  0  0  0  0  0  0
   -1.4783   -2.1274   -3.3995 H   0  0  0  0  0  0  0  0  0  0  0  0
  1  3  1  0  0  0  0
  2  1  1  0  0  0  0
  3  5  1  0  0  0  0
  4  3  1  0  0  0  0
  6 12  1  0  0  0  0
  6 11  1  0  0  0  0
  7  6  2  0  0  0  0
  8  9  2  0  0  0  0
  8  7  1  0  0  0  0
  9 10  1  0  0  0  0
 10 16  1  0  0  0  0
 10 11  2  0  0  0  0
 11 17  1  0  0  0  0
 13  7  1  0  0  0  0
 14  8  1  0  0  0  0
 15  9  1  0  0  0  0
M  RAD  2   1   2   2   3
M  END
