Coordinates from ORCA-job C6H6+NH2N2+-aug-scan
 OpenBabel10121810033D

 17 16  0  0  0  0  0  0  0  0999 V2000
    1.0085   -1.5904   -1.4717 N   0  0  0  0  0  0  0  0  0  0  0  0
    0.2776   -1.9466   -2.2755 N   0  0  0  0  0  0  0  0  0  0  0  0
    2.1536   -1.0437   -1.1518 N   0  0  0  0  0  0  0  0  0  0  0  0
    2.5102   -0.3753   -1.8400 H   0  0  0  0  0  0  0  0  0  0  0  0
    2.2551   -0.8329   -0.1612 H   0  0  0  0  0  0  0  0  0  0  0  0
   -0.1260   -3.4505   -5.0572 C   0  0  0  0  0  0  0  0  0  0  0  0
    1.0291   -2.7239   -4.7745 C   0  0  0  0  0  0  0  0  0  0  0  0
    0.9401   -1.3298   -4.5443 C   0  0  0  0  0  0  0  0  0  0  0  0
   -0.3074   -0.6698   -4.6457 C   0  0  0  0  0  0  0  0  0  0  0  0
   -1.4553   -1.4068   -4.9283 C   0  0  0  0  0  0  0  0  0  0  0  0
   -1.3641   -2.7935   -5.1285 C   0  0  0  0  0  0  0  0  0  0  0  0
   -0.0677   -4.5240   -5.2359 H   0  0  0  0  0  0  0  0  0  0  0  0
    1.9990   -3.2209   -4.7410 H   0  0  0  0  0  0  0  0  0  0  0  0
    1.8540   -0.7444   -4.4188 H   0  0  0  0  0  0  0  0  0  0  0  0
   -0.3652    0.4112   -4.5146 H   0  0  0  0  0  0  0  0  0  0  0  0
   -2.4209   -0.9077   -5.0078 H   0  0  0  0  0  0  0  0  0  0  0  0
   -2.2648   -3.3650   -5.3553 H   0  0  0  0  0  0  0  0  0  0  0  0
  1  3  1  0  0  0  0
  2  1  2  0  0  0  0
  3  5  1  0  0  0  0
  4  3  1  0  0  0  0
  6  7  1  0  0  0  0
  7 13  1  0  0  0  0
  7  8  2  0  0  0  0
  8 14  1  0  0  0  0
  9  8  1  0  0  0  0
  9 15  1  0  0  0  0
 10  9  2  0  0  0  0
 11  6  2  0  0  0  0
 11 10  1  0  0  0  0
 12  6  1  0  0  0  0
 16 10  1  0  0  0  0
 17 11  1  0  0  0  0
M  RAD  1   2   2
M  END
