Coordinates from ORCA-job C6H6+NH2N2+-aug-scan
 OpenBabel10121810033D

 17 16  0  0  0  0  0  0  0  0999 V2000
    0.9569   -1.6398   -1.4637 N   0  0  0  0  0  0  0  0  0  0  0  0
    0.1440   -1.9636   -2.2253 N   0  0  0  0  0  0  0  0  0  0  0  0
    2.1411   -1.0649   -1.5343 N   0  0  0  0  0  0  0  0  0  0  0  0
    2.2262   -0.3839   -2.2904 H   0  0  0  0  0  0  0  0  0  0  0  0
    2.5121   -0.7974   -0.6255 H   0  0  0  0  0  0  0  0  0  0  0  0
   -0.0832   -3.4301   -5.0367 C   0  0  0  0  0  0  0  0  0  0  0  0
    1.0246   -2.7452   -4.5551 C   0  0  0  0  0  0  0  0  0  0  0  0
    0.9056   -1.3690   -4.2105 C   0  0  0  0  0  0  0  0  0  0  0  0
   -0.3188   -0.6817   -4.4490 C   0  0  0  0  0  0  0  0  0  0  0  0
   -1.4192   -1.3811   -4.9312 C   0  0  0  0  0  0  0  0  0  0  0  0
   -1.3014   -2.7503   -5.2177 C   0  0  0  0  0  0  0  0  0  0  0  0
   -0.0070   -4.4872   -5.2898 H   0  0  0  0  0  0  0  0  0  0  0  0
    1.9807   -3.2539   -4.4304 H   0  0  0  0  0  0  0  0  0  0  0  0
    1.8154   -0.7918   -4.0472 H   0  0  0  0  0  0  0  0  0  0  0  0
   -0.3902    0.3872   -4.2455 H   0  0  0  0  0  0  0  0  0  0  0  0
   -2.3648   -0.8670   -5.1005 H   0  0  0  0  0  0  0  0  0  0  0  0
   -2.1662   -3.2945   -5.5995 H   0  0  0  0  0  0  0  0  0  0  0  0
  2  1  2  0  0  0  0
  3  1  1  0  0  0  0
  3  5  1  0  0  0  0
  4  3  1  0  0  0  0
  6  7  1  0  0  0  0
  7 13  1  0  0  0  0
  7  8  2  0  0  0  0
  8 14  1  0  0  0  0
  9 15  1  0  0  0  0
  9  8  1  0  0  0  0
 10  9  2  0  0  0  0
 11  6  2  0  0  0  0
 11 10  1  0  0  0  0
 12  6  1  0  0  0  0
 16 10  1  0  0  0  0
 17 11  1  0  0  0  0
M  RAD  1   2   2
M  END
