Coordinates from ORCA-job C6H6+NH2N2+-aug-scan
 OpenBabel10121810033D

 17 16  0  0  0  0  0  0  0  0999 V2000
    0.9744   -1.6268   -1.4537 N   0  0  0  0  0  0  0  0  0  0  0  0
    0.1941   -1.9972   -2.2226 N   0  0  0  0  0  0  0  0  0  0  0  0
    2.1359   -1.0128   -1.4416 N   0  0  0  0  0  0  0  0  0  0  0  0
    2.2811   -0.3738   -2.2258 H   0  0  0  0  0  0  0  0  0  0  0  0
    2.4380   -0.7180   -0.5164 H   0  0  0  0  0  0  0  0  0  0  0  0
   -0.1014   -3.4398   -5.0672 C   0  0  0  0  0  0  0  0  0  0  0  0
    1.0227   -2.7596   -4.6146 C   0  0  0  0  0  0  0  0  0  0  0  0
    0.9200   -1.3836   -4.2728 C   0  0  0  0  0  0  0  0  0  0  0  0
   -0.3064   -0.6916   -4.4687 C   0  0  0  0  0  0  0  0  0  0  0  0
   -1.4232   -1.3858   -4.9212 C   0  0  0  0  0  0  0  0  0  0  0  0
   -1.3205   -2.7552   -5.2139 C   0  0  0  0  0  0  0  0  0  0  0  0
   -0.0366   -4.4973   -5.3219 H   0  0  0  0  0  0  0  0  0  0  0  0
    1.9793   -3.2733   -4.5162 H   0  0  0  0  0  0  0  0  0  0  0  0
    1.8352   -0.8150   -4.0983 H   0  0  0  0  0  0  0  0  0  0  0  0
   -0.3676    0.3773   -4.2623 H   0  0  0  0  0  0  0  0  0  0  0  0
   -2.3711   -0.8672   -5.0624 H   0  0  0  0  0  0  0  0  0  0  0  0
   -2.1981   -3.2944   -5.5725 H   0  0  0  0  0  0  0  0  0  0  0  0
  1  3  1  0  0  0  0
  2  1  2  0  0  0  0
  3  5  1  0  0  0  0
  4  3  1  0  0  0  0
  6  7  1  0  0  0  0
  7 13  1  0  0  0  0
  7  8  2  0  0  0  0
  8 14  1  0  0  0  0
  9  8  1  0  0  0  0
  9 15  1  0  0  0  0
 10  9  2  0  0  0  0
 11  6  2  0  0  0  0
 11 10  1  0  0  0  0
 12  6  1  0  0  0  0
 16 10  1  0  0  0  0
 17 11  1  0  0  0  0
M  RAD  1   2   2
M  END
