Coordinates from ORCA-job C6H6+NH2N2+-aug-scan
 OpenBabel10121810033D

 17 16  0  0  0  0  0  0  0  0999 V2000
    1.0631   -1.5689   -1.5128 N   0  0  0  0  0  0  0  0  0  0  0  0
    0.6681   -2.1538   -2.4060 N   0  0  0  0  0  0  0  0  0  0  0  0
    1.5591   -0.5147   -0.9204 N   0  0  0  0  0  0  0  0  0  0  0  0
    1.2443    0.3772   -1.3123 H   0  0  0  0  0  0  0  0  0  0  0  0
    1.6395   -0.6037    0.0912 H   0  0  0  0  0  0  0  0  0  0  0  0
   -0.2425   -3.4946   -5.3169 C   0  0  0  0  0  0  0  0  0  0  0  0
    1.0385   -2.9329   -5.4091 C   0  0  0  0  0  0  0  0  0  0  0  0
    1.2474   -1.6117   -5.0097 C   0  0  0  0  0  0  0  0  0  0  0  0
    0.1658   -0.8526   -4.5063 C   0  0  0  0  0  0  0  0  0  0  0  0
   -1.1264   -1.4172   -4.4370 C   0  0  0  0  0  0  0  0  0  0  0  0
   -1.3239   -2.7385   -4.8358 C   0  0  0  0  0  0  0  0  0  0  0  0
   -0.4045   -4.5249   -5.6353 H   0  0  0  0  0  0  0  0  0  0  0  0
    1.8657   -3.5227   -5.8039 H   0  0  0  0  0  0  0  0  0  0  0  0
    2.2350   -1.1586   -5.1026 H   0  0  0  0  0  0  0  0  0  0  0  0
    0.3109    0.2018   -4.2615 H   0  0  0  0  0  0  0  0  0  0  0  0
   -1.9658   -0.8167   -4.0855 H   0  0  0  0  0  0  0  0  0  0  0  0
   -2.3186   -3.1817   -4.7880 H   0  0  0  0  0  0  0  0  0  0  0  0
  1  3  1  0  0  0  0
  2  1  2  0  0  0  0
  3  5  1  0  0  0  0
  4  3  1  0  0  0  0
  6 11  1  0  0  0  0
  7  6  2  0  0  0  0
  7  8  1  0  0  0  0
  8  9  2  0  0  0  0
  9 10  1  0  0  0  0
  9 15  1  0  0  0  0
 10 16  1  0  0  0  0
 11 17  1  0  0  0  0
 11 10  2  0  0  0  0
 12  6  1  0  0  0  0
 13  7  1  0  0  0  0
 14  8  1  0  0  0  0
M  RAD  1   2   2
M  END
