Coordinates from ORCA-job C6H6+NH2N2+-aug-scan
 OpenBabel10121810033D

 17 16  0  0  0  0  0  0  0  0999 V2000
    1.0748   -1.5380   -1.5171 N   0  0  0  0  0  0  0  0  0  0  0  0
    0.7659   -2.1279   -2.4374 N   0  0  0  0  0  0  0  0  0  0  0  0
    1.4367   -0.4922   -0.8232 N   0  0  0  0  0  0  0  0  0  0  0  0
    1.0089    0.3855   -1.1314 H   0  0  0  0  0  0  0  0  0  0  0  0
    1.5261   -0.6676    0.1769 H   0  0  0  0  0  0  0  0  0  0  0  0
   -0.2511   -3.5044   -5.2944 C   0  0  0  0  0  0  0  0  0  0  0  0
    1.0235   -2.9525   -5.4973 C   0  0  0  0  0  0  0  0  0  0  0  0
    1.2705   -1.6241   -5.1503 C   0  0  0  0  0  0  0  0  0  0  0  0
    0.2373   -0.8461   -4.5852 C   0  0  0  0  0  0  0  0  0  0  0  0
   -1.0490   -1.4000   -4.4019 C   0  0  0  0  0  0  0  0  0  0  0  0
   -1.2869   -2.7302   -4.7529 C   0  0  0  0  0  0  0  0  0  0  0  0
   -0.4414   -4.5409   -5.5751 H   0  0  0  0  0  0  0  0  0  0  0  0
    1.8147   -3.5587   -5.9387 H   0  0  0  0  0  0  0  0  0  0  0  0
    2.2515   -1.1821   -5.3268 H   0  0  0  0  0  0  0  0  0  0  0  0
    0.4101    0.2106   -4.3708 H   0  0  0  0  0  0  0  0  0  0  0  0
   -1.8569   -0.7833   -4.0062 H   0  0  0  0  0  0  0  0  0  0  0  0
   -2.2788   -3.1624   -4.6202 H   0  0  0  0  0  0  0  0  0  0  0  0
  1  3  1  0  0  0  0
  2  1  1  0  0  0  0
  3  5  1  0  0  0  0
  4  3  1  0  0  0  0
  6 11  1  0  0  0  0
  7  6  2  0  0  0  0
  7  8  1  0  0  0  0
  8  9  2  0  0  0  0
  9 10  1  0  0  0  0
  9 15  1  0  0  0  0
 10 16  1  0  0  0  0
 11 17  1  0  0  0  0
 11 10  2  0  0  0  0
 12  6  1  0  0  0  0
 13  7  1  0  0  0  0
 14  8  1  0  0  0  0
M  RAD  2   1   2   2   3
M  END
