Coordinates from ORCA-job C6H6+NH2N2+-aug-scan
 OpenBabel10121810033D

 17 17  0  0  1  0  0  0  0  0999 V2000
    1.1081   -1.3427   -1.3895 N   0  0  0  0  0  0  0  0  0  0  0  0
    0.1275   -1.2610   -2.1193 N   0  0  0  0  0  0  0  0  0  0  0  0
    2.3376   -1.4469   -1.8770 N   0  0  0  0  0  0  0  0  0  0  0  0
    2.5718   -0.9577   -2.7383 H   0  0  0  0  0  0  0  0  0  0  0  0
    3.0396   -1.3611   -1.1473 H   0  0  0  0  0  0  0  0  0  0  0  0
   -0.0075   -3.3781   -4.8629 C   0  0  0  0  0  0  0  0  0  0  0  0
    0.8438   -2.6550   -4.0620 C   0  0  0  0  0  0  0  0  0  0  0  0
    0.5316   -1.2677   -3.6862 C   0  0  1  0  0  0  0  0  0  0  0  0
   -0.6279   -0.6652   -4.3666 C   0  0  0  0  0  0  0  0  0  0  0  0
   -1.4464   -1.3954   -5.1908 C   0  0  0  0  0  0  0  0  0  0  0  0
   -1.1488   -2.7573   -5.4191 C   0  0  0  0  0  0  0  0  0  0  0  0
    0.2020   -4.4234   -5.0877 H   0  0  0  0  0  0  0  0  0  0  0  0
    1.7341   -3.1278   -3.6500 H   0  0  0  0  0  0  0  0  0  0  0  0
    1.3735   -0.5667   -3.7977 H   0  0  0  0  0  0  0  0  0  0  0  0
   -0.8504    0.3799   -4.1449 H   0  0  0  0  0  0  0  0  0  0  0  0
   -2.3193   -0.9415   -5.6584 H   0  0  0  0  0  0  0  0  0  0  0  0
   -1.8137   -3.3468   -6.0542 H   0  0  0  0  0  0  0  0  0  0  0  0
  2  1  1  0  0  0  0
  3  1  1  0  0  0  0
  3  5  1  0  0  0  0
  4  3  1  0  0  0  0
  6  7  2  0  0  0  0
  7  8  1  0  0  0  0
  7 13  1  0  0  0  0
  8 14  1  6  0  0  0
  8  2  1  0  0  0  0
  9 15  1  0  0  0  0
  9  8  1  0  0  0  0
 10  9  2  0  0  0  0
 11 10  1  0  0  0  0
 11  6  1  0  0  0  0
 12  6  1  0  0  0  0
 16 10  1  0  0  0  0
 17 11  1  0  0  0  0
M  RAD  3   1   2   2   2  11   2
M  END
