Coordinates from ORCA-job C6H6+NH2N2+-aug-scan
 OpenBabel10121810033D

 17 16  0  0  0  0  0  0  0  0999 V2000
    1.0457   -1.5985   -1.5075 N   0  0  0  0  0  0  0  0  0  0  0  0
    0.5391   -2.1619   -2.3602 N   0  0  0  0  0  0  0  0  0  0  0  0
    1.7299   -0.5818   -1.0477 N   0  0  0  0  0  0  0  0  0  0  0  0
    1.5521    0.2996   -1.5371 H   0  0  0  0  0  0  0  0  0  0  0  0
    1.8216   -0.5665   -0.0336 H   0  0  0  0  0  0  0  0  0  0  0  0
   -0.2190   -3.4803   -5.3180 C   0  0  0  0  0  0  0  0  0  0  0  0
    1.0531   -2.9018   -5.2665 C   0  0  0  0  0  0  0  0  0  0  0  0
    1.1956   -1.5814   -4.8263 C   0  0  0  0  0  0  0  0  0  0  0  0
    0.0518   -0.8419   -4.4369 C   0  0  0  0  0  0  0  0  0  0  0  0
   -1.2283   -1.4264   -4.5097 C   0  0  0  0  0  0  0  0  0  0  0  0
   -1.3580   -2.7442   -4.9423 C   0  0  0  0  0  0  0  0  0  0  0  0
   -0.3324   -4.5078   -5.6651 H   0  0  0  0  0  0  0  0  0  0  0  0
    1.9278   -3.4721   -5.5784 H   0  0  0  0  0  0  0  0  0  0  0  0
    2.1797   -1.1106   -4.8157 H   0  0  0  0  0  0  0  0  0  0  0  0
    0.1510    0.2114   -4.1656 H   0  0  0  0  0  0  0  0  0  0  0  0
   -2.1096   -0.8454   -4.2381 H   0  0  0  0  0  0  0  0  0  0  0  0
   -2.3443   -3.2045   -5.0035 H   0  0  0  0  0  0  0  0  0  0  0  0
  1  3  1  0  0  0  0
  2  1  2  0  0  0  0
  3  5  1  0  0  0  0
  4  3  1  0  0  0  0
  6  7  2  0  0  0  0
  6 11  1  0  0  0  0
  7  8  1  0  0  0  0
  8 14  1  0  0  0  0
  8  9  2  0  0  0  0
  9 15  1  0  0  0  0
 10  9  1  0  0  0  0
 10 16  1  0  0  0  0
 11 10  2  0  0  0  0
 12  6  1  0  0  0  0
 13  7  1  0  0  0  0
 17 11  1  0  0  0  0
M  RAD  1   2   2
M  END
