Coordinates from ORCA-job C6H6+NH2N2+-aug-scan
 OpenBabel10121810033D

 17 16  0  0  0  0  0  0  0  0999 V2000
    1.0856   -1.5603   -1.5375 N   0  0  0  0  0  0  0  0  0  0  0  0
    0.8190   -2.1345   -2.4821 N   0  0  0  0  0  0  0  0  0  0  0  0
    1.3736   -0.4987   -0.8307 N   0  0  0  0  0  0  0  0  0  0  0  0
    0.8895    0.3514   -1.1325 H   0  0  0  0  0  0  0  0  0  0  0  0
    1.4656   -0.6776    0.1682 H   0  0  0  0  0  0  0  0  0  0  0  0
   -0.2512   -3.4992   -5.2715 C   0  0  0  0  0  0  0  0  0  0  0  0
    1.0197   -2.9530   -5.5140 C   0  0  0  0  0  0  0  0  0  0  0  0
    1.2823   -1.6239   -5.1825 C   0  0  0  0  0  0  0  0  0  0  0  0
    0.2686   -0.8378   -4.5941 C   0  0  0  0  0  0  0  0  0  0  0  0
   -1.0155   -1.3855   -4.3726 C   0  0  0  0  0  0  0  0  0  0  0  0
   -1.2688   -2.7172   -4.7078 C   0  0  0  0  0  0  0  0  0  0  0  0
   -0.4524   -4.5370   -5.5390 H   0  0  0  0  0  0  0  0  0  0  0  0
    1.7959   -3.5657   -5.9725 H   0  0  0  0  0  0  0  0  0  0  0  0
    2.2602   -1.1878   -5.3877 H   0  0  0  0  0  0  0  0  0  0  0  0
    0.4523    0.2190   -4.3905 H   0  0  0  0  0  0  0  0  0  0  0  0
   -1.8104   -0.7623   -3.9608 H   0  0  0  0  0  0  0  0  0  0  0  0
   -2.2583   -3.1441   -4.5444 H   0  0  0  0  0  0  0  0  0  0  0  0
  1  3  1  0  0  0  0
  2  1  1  0  0  0  0
  3  5  1  0  0  0  0
  4  3  1  0  0  0  0
  6 11  1  0  0  0  0
  7  6  2  0  0  0  0
  7  8  1  0  0  0  0
  8  9  2  0  0  0  0
  9 15  1  0  0  0  0
  9 10  1  0  0  0  0
 10 16  1  0  0  0  0
 11 17  1  0  0  0  0
 11 10  2  0  0  0  0
 12  6  1  0  0  0  0
 13  7  1  0  0  0  0
 14  8  1  0  0  0  0
M  RAD  2   1   2   2   3
M  END
