Coordinates from ORCA-job C6H6+NH2N2+-aug-scan
 OpenBabel10121810033D

 17 16  0  0  0  0  0  0  0  0999 V2000
    1.1486   -1.5190   -1.6396 N   0  0  0  0  0  0  0  0  0  0  0  0
    1.2665   -1.5433   -2.7717 N   0  0  0  0  0  0  0  0  0  0  0  0
    0.4004   -1.4981   -0.5698 N   0  0  0  0  0  0  0  0  0  0  0  0
   -0.4880   -1.9970   -0.6710 H   0  0  0  0  0  0  0  0  0  0  0  0
    0.9151   -1.5924    0.3039 H   0  0  0  0  0  0  0  0  0  0  0  0
   -0.0750   -3.1597   -4.5085 C   0  0  0  0  0  0  0  0  0  0  0  0
    0.9667   -2.9645   -5.4140 C   0  0  0  0  0  0  0  0  0  0  0  0
    1.2536   -1.6716   -5.8761 C   0  0  0  0  0  0  0  0  0  0  0  0
    0.4849   -0.5721   -5.4734 C   0  0  0  0  0  0  0  0  0  0  0  0
   -0.5569   -0.7551   -4.5638 C   0  0  0  0  0  0  0  0  0  0  0  0
   -0.8239   -2.0494   -4.0591 C   0  0  0  0  0  0  0  0  0  0  0  0
   -0.3181   -4.1614   -4.1526 H   0  0  0  0  0  0  0  0  0  0  0  0
    1.5544   -3.8122   -5.7661 H   0  0  0  0  0  0  0  0  0  0  0  0
    2.0702   -1.5248   -6.5840 H   0  0  0  0  0  0  0  0  0  0  0  0
    0.7001    0.4200   -5.8695 H   0  0  0  0  0  0  0  0  0  0  0  0
   -1.1705    0.0891   -4.2478 H   0  0  0  0  0  0  0  0  0  0  0  0
   -1.6724   -2.2028   -3.3887 H   0  0  0  0  0  0  0  0  0  0  0  0
  1  3  1  0  0  0  0
  2  1  2  0  0  0  0
  3  5  1  0  0  0  0
  4  3  1  0  0  0  0
  6 12  1  0  0  0  0
  6 11  1  0  0  0  0
  7  6  2  0  0  0  0
  8  9  2  0  0  0  0
  8  7  1  0  0  0  0
  9 10  1  0  0  0  0
 10 16  1  0  0  0  0
 10 11  2  0  0  0  0
 11 17  1  0  0  0  0
 13  7  1  0  0  0  0
 14  8  1  0  0  0  0
 15  9  1  0  0  0  0
M  RAD  1   2   2
M  END
