Coordinates from ORCA-job C6H6+NH2N2+-aug-scan
 OpenBabel10121810033D

 17 16  0  0  0  0  0  0  0  0999 V2000
   -0.0733   -0.1706    0.4776 N   0  0  0  0  0  0  0  0  0  0  0  0
    0.3971   -0.4089   -0.4914 N   0  0  0  0  0  0  0  0  0  0  0  0
    1.6339   -1.1829   -3.2056 N   0  0  0  0  0  0  0  0  0  0  0  0
    2.4470   -1.7705   -2.9104 H   0  0  0  0  0  0  0  0  0  0  0  0
    2.1343   -0.3048   -3.5260 H   0  0  0  0  0  0  0  0  0  0  0  0
    0.0568   -3.6114   -5.0308 C   0  0  0  0  0  0  0  0  0  0  0  0
    1.0003   -2.9999   -4.2067 C   0  0  0  0  0  0  0  0  0  0  0  0
    0.9347   -1.6305   -3.8486 C   0  0  0  0  0  0  0  0  0  0  0  0
   -0.1610   -0.9028   -4.4040 C   0  0  0  0  0  0  0  0  0  0  0  0
   -1.1018   -1.5039   -5.2281 C   0  0  0  0  0  0  0  0  0  0  0  0
   -1.0026   -2.8659   -5.5454 C   0  0  0  0  0  0  0  0  0  0  0  0
    0.1603   -4.6691   -5.2709 H   0  0  0  0  0  0  0  0  0  0  0  0
    1.8379   -3.5842   -3.8058 H   0  0  0  0  0  0  0  0  0  0  0  0
    1.2970   -0.8355   -2.2542 H   0  0  0  0  0  0  0  0  0  0  0  0
   -0.2462    0.1645   -4.1741 H   0  0  0  0  0  0  0  0  0  0  0  0
   -1.9171   -0.9043   -5.6322 H   0  0  0  0  0  0  0  0  0  0  0  0
   -1.7416   -3.3334   -6.1953 H   0  0  0  0  0  0  0  0  0  0  0  0
  2  1  3  0  0  0  0
  3  4  1  0  0  0  0
  3 14  1  0  0  0  0
  5  3  1  0  0  0  0
  6  7  2  0  0  0  0
  7  8  1  0  0  0  0
  7 13  1  0  0  0  0
  8  3  1  0  0  0  0
  9 15  1  0  0  0  0
  9  8  2  0  0  0  0
 10  9  1  0  0  0  0
 11 10  2  0  0  0  0
 11  6  1  0  0  0  0
 12  6  1  0  0  0  0
 16 10  1  0  0  0  0
 17 11  1  0  0  0  0
M  END
