Coordinates from ORCA-job C6H6+NH2N2+-aug-scan
 OpenBabel10121810033D

 17 16  0  0  0  0  0  0  0  0999 V2000
    1.0742   -1.5409   -1.5187 N   0  0  0  0  0  0  0  0  0  0  0  0
    0.7638   -2.1307   -2.4388 N   0  0  0  0  0  0  0  0  0  0  0  0
    1.4380   -0.4936   -0.8284 N   0  0  0  0  0  0  0  0  0  0  0  0
    1.0127    0.3845   -1.1383 H   0  0  0  0  0  0  0  0  0  0  0  0
    1.5289   -0.6655    0.1722 H   0  0  0  0  0  0  0  0  0  0  0  0
   -0.2507   -3.5037   -5.2942 C   0  0  0  0  0  0  0  0  0  0  0  0
    1.0242   -2.9517   -5.4942 C   0  0  0  0  0  0  0  0  0  0  0  0
    1.2704   -1.6234   -5.1456 C   0  0  0  0  0  0  0  0  0  0  0  0
    0.2360   -0.8457   -4.5823 C   0  0  0  0  0  0  0  0  0  0  0  0
   -1.0507   -1.3999   -4.4018 C   0  0  0  0  0  0  0  0  0  0  0  0
   -1.2877   -2.7298   -4.7540 C   0  0  0  0  0  0  0  0  0  0  0  0
   -0.4404   -4.5400   -5.5758 H   0  0  0  0  0  0  0  0  0  0  0  0
    1.8162   -3.5575   -5.9345 H   0  0  0  0  0  0  0  0  0  0  0  0
    2.2518   -1.1813   -5.3200 H   0  0  0  0  0  0  0  0  0  0  0  0
    0.4081    0.2110   -4.3676 H   0  0  0  0  0  0  0  0  0  0  0  0
   -1.8594   -0.7837   -4.0071 H   0  0  0  0  0  0  0  0  0  0  0  0
   -2.2796   -3.1624   -4.6229 H   0  0  0  0  0  0  0  0  0  0  0  0
  1  3  1  0  0  0  0
  2  1  1  0  0  0  0
  3  5  1  0  0  0  0
  4  3  1  0  0  0  0
  6 11  1  0  0  0  0
  7  6  2  0  0  0  0
  7  8  1  0  0  0  0
  8  9  2  0  0  0  0
  9 10  1  0  0  0  0
  9 15  1  0  0  0  0
 10 16  1  0  0  0  0
 11 17  1  0  0  0  0
 11 10  2  0  0  0  0
 12  6  1  0  0  0  0
 13  7  1  0  0  0  0
 14  8  1  0  0  0  0
M  RAD  2   1   2   2   3
M  END
