Coordinates from ORCA-job C6H6+NH2N2+-aug-scan
 OpenBabel10121810033D

 17 16  0  0  0  0  0  0  0  0999 V2000
   -0.0047   -0.0861    0.5885 N   0  0  0  0  0  0  0  0  0  0  0  0
    0.4539   -0.3392   -0.3824 N   0  0  0  0  0  0  0  0  0  0  0  0
    1.7131   -1.1212   -3.1000 N   0  0  0  0  0  0  0  0  0  0  0  0
    2.4962   -1.7444   -2.8557 H   0  0  0  0  0  0  0  0  0  0  0  0
    2.1595   -0.2692   -3.4790 H   0  0  0  0  0  0  0  0  0  0  0  0
    0.0461   -3.6346   -5.0807 C   0  0  0  0  0  0  0  0  0  0  0  0
    0.9795   -3.0342   -4.2318 C   0  0  0  0  0  0  0  0  0  0  0  0
    0.8568   -1.6786   -3.9046 C   0  0  0  0  0  0  0  0  0  0  0  0
   -0.1998   -0.9203   -4.4328 C   0  0  0  0  0  0  0  0  0  0  0  0
   -1.1276   -1.5245   -5.2804 C   0  0  0  0  0  0  0  0  0  0  0  0
   -1.0070   -2.8813   -5.6043 C   0  0  0  0  0  0  0  0  0  0  0  0
    0.1482   -4.6895   -5.3325 H   0  0  0  0  0  0  0  0  0  0  0  0
    1.8056   -3.6247   -3.8253 H   0  0  0  0  0  0  0  0  0  0  0  0
    1.3113   -0.8248   -2.1856 H   0  0  0  0  0  0  0  0  0  0  0  0
   -0.2970    0.1398   -4.1856 H   0  0  0  0  0  0  0  0  0  0  0  0
   -1.9450   -0.9327   -5.6911 H   0  0  0  0  0  0  0  0  0  0  0  0
   -1.7334   -3.3486   -6.2687 H   0  0  0  0  0  0  0  0  0  0  0  0
  2  1  3  0  0  0  0
  3  4  1  0  0  0  0
  3 14  1  0  0  0  0
  5  3  1  0  0  0  0
  6  7  2  0  0  0  0
  7  8  1  0  0  0  0
  7 13  1  0  0  0  0
  8  3  1  0  0  0  0
  9 15  1  0  0  0  0
  9  8  2  0  0  0  0
 10  9  1  0  0  0  0
 11 10  2  0  0  0  0
 11  6  1  0  0  0  0
 12  6  1  0  0  0  0
 16 10  1  0  0  0  0
 17 11  1  0  0  0  0
M  END
