Coordinates from ORCA-job C6H6+NH2N2+-aug-scan
 OpenBabel10121810033D

 17 16  0  0  0  0  0  0  0  0999 V2000
    0.0084   -0.0483    0.7650 N   0  0  0  0  0  0  0  0  0  0  0  0
    0.4852   -0.2853   -0.2013 N   0  0  0  0  0  0  0  0  0  0  0  0
    1.8930   -0.9942   -2.9420 N   0  0  0  0  0  0  0  0  0  0  0  0
    2.6550   -1.6493   -2.7582 H   0  0  0  0  0  0  0  0  0  0  0  0
    2.2677   -0.1566   -3.3921 H   0  0  0  0  0  0  0  0  0  0  0  0
   -0.0069   -3.6849   -5.1436 C   0  0  0  0  0  0  0  0  0  0  0  0
    0.9315   -3.0984   -4.2803 C   0  0  0  0  0  0  0  0  0  0  0  0
    0.7423   -1.7560   -4.0202 C   0  0  0  0  0  0  0  0  0  0  0  0
   -0.2574   -0.9406   -4.5129 C   0  0  0  0  0  0  0  0  0  0  0  0
   -1.1758   -1.5621   -5.3720 C   0  0  0  0  0  0  0  0  0  0  0  0
   -1.0480   -2.9210   -5.6818 C   0  0  0  0  0  0  0  0  0  0  0  0
    0.0871   -4.7422   -5.3900 H   0  0  0  0  0  0  0  0  0  0  0  0
    1.7473   -3.6803   -3.8541 H   0  0  0  0  0  0  0  0  0  0  0  0
    1.4254   -0.7471   -2.0606 H   0  0  0  0  0  0  0  0  0  0  0  0
   -0.3418    0.1153   -4.2605 H   0  0  0  0  0  0  0  0  0  0  0  0
   -1.9888   -0.9733   -5.7961 H   0  0  0  0  0  0  0  0  0  0  0  0
   -1.7685   -3.3900   -6.3514 H   0  0  0  0  0  0  0  0  0  0  0  0
  2  1  3  0  0  0  0
  3  4  1  0  0  0  0
  3 14  1  0  0  0  0
  5  3  1  0  0  0  0
  6  7  2  0  0  0  0
  7  8  1  0  0  0  0
  7 13  1  0  0  0  0
  8  3  1  0  0  0  0
  9 15  1  0  0  0  0
  9  8  2  0  0  0  0
 10  9  1  0  0  0  0
 11 10  2  0  0  0  0
 11  6  1  0  0  0  0
 12  6  1  0  0  0  0
 16 10  1  0  0  0  0
 17 11  1  0  0  0  0
M  END
