Coordinates from ORCA-job C6H6+NH2N2+-aug-scan
 OpenBabel10121810033D

 17 16  0  0  0  0  0  0  0  0999 V2000
    0.9859   -1.6132   -1.4533 N   0  0  0  0  0  0  0  0  0  0  0  0
    0.2203   -1.9843   -2.2292 N   0  0  0  0  0  0  0  0  0  0  0  0
    2.1481   -1.0160   -1.3423 N   0  0  0  0  0  0  0  0  0  0  0  0
    2.3720   -0.3818   -2.1128 H   0  0  0  0  0  0  0  0  0  0  0  0
    2.3874   -0.7393   -0.3934 H   0  0  0  0  0  0  0  0  0  0  0  0
   -0.1121   -3.4445   -5.0695 C   0  0  0  0  0  0  0  0  0  0  0  0
    1.0228   -2.7488   -4.6656 C   0  0  0  0  0  0  0  0  0  0  0  0
    0.9247   -1.3666   -4.3585 C   0  0  0  0  0  0  0  0  0  0  0  0
   -0.3092   -0.6856   -4.5242 C   0  0  0  0  0  0  0  0  0  0  0  0
   -1.4365   -1.3942   -4.9282 C   0  0  0  0  0  0  0  0  0  0  0  0
   -1.3376   -2.7692   -5.1948 C   0  0  0  0  0  0  0  0  0  0  0  0
   -0.0495   -4.5073   -5.3018 H   0  0  0  0  0  0  0  0  0  0  0  0
    1.9842   -3.2567   -4.5861 H   0  0  0  0  0  0  0  0  0  0  0  0
    1.8381   -0.7928   -4.1863 H   0  0  0  0  0  0  0  0  0  0  0  0
   -0.3690    0.3873   -4.3393 H   0  0  0  0  0  0  0  0  0  0  0  0
   -2.3906   -0.8823   -5.0512 H   0  0  0  0  0  0  0  0  0  0  0  0
   -2.2232   -3.3191   -5.5154 H   0  0  0  0  0  0  0  0  0  0  0  0
  1  3  1  0  0  0  0
  2  1  2  0  0  0  0
  3  5  1  0  0  0  0
  4  3  1  0  0  0  0
  6  7  1  0  0  0  0
  7 13  1  0  0  0  0
  7  8  2  0  0  0  0
  8 14  1  0  0  0  0
  9  8  1  0  0  0  0
  9 15  1  0  0  0  0
 10  9  2  0  0  0  0
 11  6  2  0  0  0  0
 11 10  1  0  0  0  0
 12  6  1  0  0  0  0
 16 10  1  0  0  0  0
 17 11  1  0  0  0  0
M  RAD  1   2   2
M  END
