Coordinates from ORCA-job C6H6+NH2N2+-aug-scan
 OpenBabel10121810033D

 17 17  0  0  1  0  0  0  0  0999 V2000
    1.0838   -1.3729   -1.3999 N   0  0  0  0  0  0  0  0  0  0  0  0
    0.1172   -1.3004   -2.1385 N   0  0  0  0  0  0  0  0  0  0  0  0
    2.3340   -1.4465   -1.8277 N   0  0  0  0  0  0  0  0  0  0  0  0
    2.5886   -0.9774   -2.6944 H   0  0  0  0  0  0  0  0  0  0  0  0
    3.0058   -1.3492   -1.0720 H   0  0  0  0  0  0  0  0  0  0  0  0
   -0.0092   -3.3754   -4.8693 C   0  0  0  0  0  0  0  0  0  0  0  0
    0.8706   -2.6342   -4.1140 C   0  0  0  0  0  0  0  0  0  0  0  0
    0.5586   -1.2515   -3.7482 C   0  0  1  0  0  0  0  0  0  0  0  0
   -0.6087   -0.6520   -4.4020 C   0  0  0  0  0  0  0  0  0  0  0  0
   -1.4597   -1.4003   -5.1774 C   0  0  0  0  0  0  0  0  0  0  0  0
   -1.1722   -2.7669   -5.3902 C   0  0  0  0  0  0  0  0  0  0  0  0
    0.1963   -4.4231   -5.0860 H   0  0  0  0  0  0  0  0  0  0  0  0
    1.7790   -3.0963   -3.7296 H   0  0  0  0  0  0  0  0  0  0  0  0
    1.3988   -0.5455   -3.7915 H   0  0  0  0  0  0  0  0  0  0  0  0
   -0.8189    0.3992   -4.1997 H   0  0  0  0  0  0  0  0  0  0  0  0
   -2.3476   -0.9541   -5.6235 H   0  0  0  0  0  0  0  0  0  0  0  0
   -1.8607   -3.3677   -5.9880 H   0  0  0  0  0  0  0  0  0  0  0  0
  2  1  1  0  0  0  0
  3  1  1  0  0  0  0
  3  5  1  0  0  0  0
  4  3  1  0  0  0  0
  6  7  2  0  0  0  0
  7  8  1  0  0  0  0
  7 13  1  0  0  0  0
  8 14  1  6  0  0  0
  8  2  1  0  0  0  0
  9 15  1  0  0  0  0
  9  8  1  0  0  0  0
 10  9  2  0  0  0  0
 11 10  1  0  0  0  0
 11  6  1  0  0  0  0
 12  6  1  0  0  0  0
 16 10  1  0  0  0  0
 17 11  1  0  0  0  0
M  RAD  3   1   2   2   2  11   2
M  END
