Coordinates from ORCA-job C6H6+NH2N2+-aug-scan
 OpenBabel10121810033D

 17 16  0  0  0  0  0  0  0  0999 V2000
    1.0207   -1.5778   -1.4941 N   0  0  0  0  0  0  0  0  0  0  0  0
    0.3180   -1.9231   -2.3217 N   0  0  0  0  0  0  0  0  0  0  0  0
    2.1364   -1.0641   -1.0456 N   0  0  0  0  0  0  0  0  0  0  0  0
    2.5541   -0.3609   -1.6613 H   0  0  0  0  0  0  0  0  0  0  0  0
    2.1467   -0.9030   -0.0399 H   0  0  0  0  0  0  0  0  0  0  0  0
   -0.1289   -3.4522   -5.0439 C   0  0  0  0  0  0  0  0  0  0  0  0
    1.0371   -2.7120   -4.8483 C   0  0  0  0  0  0  0  0  0  0  0  0
    0.9551   -1.3124   -4.6642 C   0  0  0  0  0  0  0  0  0  0  0  0
   -0.2979   -0.6611   -4.7172 C   0  0  0  0  0  0  0  0  0  0  0  0
   -1.4574   -1.4104   -4.9125 C   0  0  0  0  0  0  0  0  0  0  0  0
   -1.3721   -2.8026   -5.0703 C   0  0  0  0  0  0  0  0  0  0  0  0
   -0.0745   -4.5310   -5.1894 H   0  0  0  0  0  0  0  0  0  0  0  0
    2.0097   -3.2051   -4.8508 H   0  0  0  0  0  0  0  0  0  0  0  0
    1.8708   -0.7223   -4.5864 H   0  0  0  0  0  0  0  0  0  0  0  0
   -0.3534    0.4236   -4.6198 H   0  0  0  0  0  0  0  0  0  0  0  0
   -2.4278   -0.9161   -4.9568 H   0  0  0  0  0  0  0  0  0  0  0  0
   -2.2810   -3.3838   -5.2297 H   0  0  0  0  0  0  0  0  0  0  0  0
  1  3  1  0  0  0  0
  2  1  2  0  0  0  0
  3  5  1  0  0  0  0
  4  3  1  0  0  0  0
  6  7  1  0  0  0  0
  7  8  2  0  0  0  0
  8 14  1  0  0  0  0
  9  8  1  0  0  0  0
  9 15  1  0  0  0  0
 10  9  2  0  0  0  0
 11  6  2  0  0  0  0
 11 10  1  0  0  0  0
 12  6  1  0  0  0  0
 13  7  1  0  0  0  0
 16 10  1  0  0  0  0
 17 11  1  0  0  0  0
M  RAD  1   2   2
M  END
