Coordinates from ORCA-job C6H6+NH2N2+-aug-scan
 OpenBabel10121810033D

 17 16  0  0  0  0  0  0  0  0999 V2000
    1.0944   -1.5423   -1.5328 N   0  0  0  0  0  0  0  0  0  0  0  0
    0.8991   -2.1321   -2.4843 N   0  0  0  0  0  0  0  0  0  0  0  0
    1.2192   -0.4742   -0.7908 N   0  0  0  0  0  0  0  0  0  0  0  0
    0.5845    0.2890   -1.0412 H   0  0  0  0  0  0  0  0  0  0  0  0
    1.3819   -0.6698    0.1961 H   0  0  0  0  0  0  0  0  0  0  0  0
   -0.2600   -3.4960   -5.2598 C   0  0  0  0  0  0  0  0  0  0  0  0
    0.9972   -2.9663   -5.6006 C   0  0  0  0  0  0  0  0  0  0  0  0
    1.3054   -1.6403   -5.2977 C   0  0  0  0  0  0  0  0  0  0  0  0
    0.3547   -0.8385   -4.6386 C   0  0  0  0  0  0  0  0  0  0  0  0
   -0.9137   -1.3702   -4.3075 C   0  0  0  0  0  0  0  0  0  0  0  0
   -1.2160   -2.7007   -4.6201 C   0  0  0  0  0  0  0  0  0  0  0  0
   -0.4952   -4.5309   -5.5101 H   0  0  0  0  0  0  0  0  0  0  0  0
    1.7267   -3.5919   -6.1152 H   0  0  0  0  0  0  0  0  0  0  0  0
    2.2713   -1.2212   -5.5799 H   0  0  0  0  0  0  0  0  0  0  0  0
    0.5710    0.2145   -4.4485 H   0  0  0  0  0  0  0  0  0  0  0  0
   -1.6678   -0.7329   -3.8430 H   0  0  0  0  0  0  0  0  0  0  0  0
   -2.1966   -3.1103   -4.3780 H   0  0  0  0  0  0  0  0  0  0  0  0
  1  3  1  0  0  0  0
  2  1  1  0  0  0  0
  3  5  1  0  0  0  0
  4  3  1  0  0  0  0
  6 11  2  0  0  0  0
  7  8  2  0  0  0  0
  7  6  1  0  0  0  0
  8  9  1  0  0  0  0
  9 15  1  0  0  0  0
  9 10  2  0  0  0  0
 10 16  1  0  0  0  0
 11 17  1  0  0  0  0
 11 10  1  0  0  0  0
 12  6  1  0  0  0  0
 13  7  1  0  0  0  0
 14  8  1  0  0  0  0
M  RAD  2   1   2   2   3
M  END
