Coordinates from ORCA-job C6H6+NH2N2+-aug-scan
 OpenBabel10121810033D

 17 16  0  0  0  0  0  0  0  0999 V2000
    1.0453   -1.6007   -1.5078 N   0  0  0  0  0  0  0  0  0  0  0  0
    0.5370   -2.1633   -2.3603 N   0  0  0  0  0  0  0  0  0  0  0  0
    1.7325   -0.5837   -1.0528 N   0  0  0  0  0  0  0  0  0  0  0  0
    1.5562    0.2961   -1.5456 H   0  0  0  0  0  0  0  0  0  0  0  0
    1.8247   -0.5644   -0.0388 H   0  0  0  0  0  0  0  0  0  0  0  0
   -0.2183   -3.4795   -5.3177 C   0  0  0  0  0  0  0  0  0  0  0  0
    1.0535   -2.9009   -5.2627 C   0  0  0  0  0  0  0  0  0  0  0  0
    1.1948   -1.5807   -4.8211 C   0  0  0  0  0  0  0  0  0  0  0  0
    0.0497   -0.8415   -4.4341 C   0  0  0  0  0  0  0  0  0  0  0  0
   -1.2300   -1.4263   -4.5103 C   0  0  0  0  0  0  0  0  0  0  0  0
   -1.3583   -2.7438   -4.9440 C   0  0  0  0  0  0  0  0  0  0  0  0
   -0.3308   -4.5068   -5.6657 H   0  0  0  0  0  0  0  0  0  0  0  0
    1.9291   -3.4708   -5.5730 H   0  0  0  0  0  0  0  0  0  0  0  0
    2.1787   -1.1098   -4.8081 H   0  0  0  0  0  0  0  0  0  0  0  0
    0.1481    0.2117   -4.1620 H   0  0  0  0  0  0  0  0  0  0  0  0
   -2.1121   -0.8456   -4.2404 H   0  0  0  0  0  0  0  0  0  0  0  0
   -2.3443   -3.2043   -5.0077 H   0  0  0  0  0  0  0  0  0  0  0  0
  1  3  1  0  0  0  0
  2  1  2  0  0  0  0
  3  5  1  0  0  0  0
  4  3  1  0  0  0  0
  6  7  2  0  0  0  0
  6 11  1  0  0  0  0
  7  8  1  0  0  0  0
  8 14  1  0  0  0  0
  8  9  2  0  0  0  0
  9 15  1  0  0  0  0
 10  9  1  0  0  0  0
 10 16  1  0  0  0  0
 11 10  2  0  0  0  0
 12  6  1  0  0  0  0
 13  7  1  0  0  0  0
 17 11  1  0  0  0  0
M  RAD  1   2   2
M  END
