Coordinates from ORCA-job C6H6+NH2N2+-aug-scan
 OpenBabel10121810033D

 17 16  0  0  0  0  0  0  0  0999 V2000
    1.0713   -1.5567   -1.5133 N   0  0  0  0  0  0  0  0  0  0  0  0
    0.7138   -2.1445   -2.4191 N   0  0  0  0  0  0  0  0  0  0  0  0
    1.5068   -0.5014   -0.8778 N   0  0  0  0  0  0  0  0  0  0  0  0
    1.1446    0.3871   -1.2352 H   0  0  0  0  0  0  0  0  0  0  0  0
    1.5840   -0.6250    0.1307 H   0  0  0  0  0  0  0  0  0  0  0  0
   -0.2479   -3.4990   -5.3107 C   0  0  0  0  0  0  0  0  0  0  0  0
    1.0318   -2.9419   -5.4501 C   0  0  0  0  0  0  0  0  0  0  0  0
    1.2586   -1.6185   -5.0700 C   0  0  0  0  0  0  0  0  0  0  0  0
    0.1981   -0.8520   -4.5372 C   0  0  0  0  0  0  0  0  0  0  0  0
   -1.0932   -1.4115   -4.4198 C   0  0  0  0  0  0  0  0  0  0  0  0
   -1.3096   -2.7356   -4.8011 C   0  0  0  0  0  0  0  0  0  0  0  0
   -0.4231   -4.5315   -5.6150 H   0  0  0  0  0  0  0  0  0  0  0  0
    1.8433   -3.5384   -5.8669 H   0  0  0  0  0  0  0  0  0  0  0  0
    2.2443   -1.1702   -5.1981 H   0  0  0  0  0  0  0  0  0  0  0  0
    0.3561    0.2032   -4.3042 H   0  0  0  0  0  0  0  0  0  0  0  0
   -1.9189   -0.8044   -4.0471 H   0  0  0  0  0  0  0  0  0  0  0  0
   -2.3041   -3.1739   -4.7171 H   0  0  0  0  0  0  0  0  0  0  0  0
  1  3  1  0  0  0  0
  2  1  1  0  0  0  0
  3  5  1  0  0  0  0
  4  3  1  0  0  0  0
  6 11  1  0  0  0  0
  7  6  2  0  0  0  0
  7  8  1  0  0  0  0
  8  9  2  0  0  0  0
  9 10  1  0  0  0  0
  9 15  1  0  0  0  0
 10 16  1  0  0  0  0
 11 17  1  0  0  0  0
 11 10  2  0  0  0  0
 12  6  1  0  0  0  0
 13  7  1  0  0  0  0
 14  8  1  0  0  0  0
M  RAD  2   1   2   2   3
M  END
