Coordinates from ORCA-job C6H6+NH2N2+-aug-scan
 OpenBabel10121810033D

 17 16  0  0  0  0  0  0  0  0999 V2000
    1.0247   -1.5751   -1.4961 N   0  0  0  0  0  0  0  0  0  0  0  0
    0.3238   -1.9187   -2.3248 N   0  0  0  0  0  0  0  0  0  0  0  0
    2.1350   -1.0665   -1.0298 N   0  0  0  0  0  0  0  0  0  0  0  0
    2.5607   -0.3591   -1.6352 H   0  0  0  0  0  0  0  0  0  0  0  0
    2.1323   -0.9133   -0.0227 H   0  0  0  0  0  0  0  0  0  0  0  0
   -0.1294   -3.4524   -5.0425 C   0  0  0  0  0  0  0  0  0  0  0  0
    1.0377   -2.7105   -4.8586 C   0  0  0  0  0  0  0  0  0  0  0  0
    0.9562   -1.3104   -4.6813 C   0  0  0  0  0  0  0  0  0  0  0  0
   -0.2972   -0.6602   -4.7275 C   0  0  0  0  0  0  0  0  0  0  0  0
   -1.4579   -1.4111   -4.9111 C   0  0  0  0  0  0  0  0  0  0  0  0
   -1.3731   -2.8038   -5.0631 C   0  0  0  0  0  0  0  0  0  0  0  0
   -0.0753   -4.5318   -5.1836 H   0  0  0  0  0  0  0  0  0  0  0  0
    2.0105   -3.2031   -4.8660 H   0  0  0  0  0  0  0  0  0  0  0  0
    1.8720   -0.7196   -4.6103 H   0  0  0  0  0  0  0  0  0  0  0  0
   -0.3526    0.4249   -4.6349 H   0  0  0  0  0  0  0  0  0  0  0  0
   -2.4288   -0.9173   -4.9509 H   0  0  0  0  0  0  0  0  0  0  0  0
   -2.2828   -3.3862   -5.2136 H   0  0  0  0  0  0  0  0  0  0  0  0
  1  3  1  0  0  0  0
  2  1  2  0  0  0  0
  3  5  1  0  0  0  0
  4  3  1  0  0  0  0
  6  7  1  0  0  0  0
  7  8  2  0  0  0  0
  8 14  1  0  0  0  0
  9  8  1  0  0  0  0
  9 15  1  0  0  0  0
 10  9  2  0  0  0  0
 11  6  2  0  0  0  0
 11 10  1  0  0  0  0
 12  6  1  0  0  0  0
 13  7  1  0  0  0  0
 16 10  1  0  0  0  0
 17 11  1  0  0  0  0
M  RAD  1   2   2
M  END
