Coordinates from ORCA-job C6H6+NH2N2+-aug-scan
 OpenBabel10121810033D

 17 16  0  0  0  0  0  0  0  0999 V2000
    0.0001   -0.0608    0.6750 N   0  0  0  0  0  0  0  0  0  0  0  0
    0.4688   -0.3074   -0.2929 N   0  0  0  0  0  0  0  0  0  0  0  0
    1.8106   -1.0548   -3.0135 N   0  0  0  0  0  0  0  0  0  0  0  0
    2.5771   -1.7015   -2.8045 H   0  0  0  0  0  0  0  0  0  0  0  0
    2.2174   -0.2154   -3.4396 H   0  0  0  0  0  0  0  0  0  0  0  0
    0.0213   -3.6599   -5.1151 C   0  0  0  0  0  0  0  0  0  0  0  0
    0.9568   -3.0681   -4.2579 C   0  0  0  0  0  0  0  0  0  0  0  0
    0.7961   -1.7199   -3.9637 C   0  0  0  0  0  0  0  0  0  0  0  0
   -0.2312   -0.9312   -4.4700 C   0  0  0  0  0  0  0  0  0  0  0  0
   -1.1539   -1.5431   -5.3247 C   0  0  0  0  0  0  0  0  0  0  0  0
   -1.0267   -2.9001   -5.6440 C   0  0  0  0  0  0  0  0  0  0  0  0
    0.1183   -4.7153   -5.3676 H   0  0  0  0  0  0  0  0  0  0  0  0
    1.7775   -3.6553   -3.8432 H   0  0  0  0  0  0  0  0  0  0  0  0
    1.3676   -0.7846   -2.1209 H   0  0  0  0  0  0  0  0  0  0  0  0
   -0.3234    0.1257   -4.2167 H   0  0  0  0  0  0  0  0  0  0  0  0
   -1.9709   -0.9547   -5.7410 H   0  0  0  0  0  0  0  0  0  0  0  0
   -1.7498   -3.3679   -6.3117 H   0  0  0  0  0  0  0  0  0  0  0  0
  2  1  3  0  0  0  0
  3  4  1  0  0  0  0
  3 14  1  0  0  0  0
  5  3  1  0  0  0  0
  6  7  2  0  0  0  0
  7  8  1  0  0  0  0
  7 13  1  0  0  0  0
  8  3  1  0  0  0  0
  9 15  1  0  0  0  0
  9  8  2  0  0  0  0
 10  9  1  0  0  0  0
 11 10  2  0  0  0  0
 11  6  1  0  0  0  0
 12  6  1  0  0  0  0
 16 10  1  0  0  0  0
 17 11  1  0  0  0  0
M  END
