Coordinates from ORCA-job C6H6+NH2N2+-aug-scan
 OpenBabel10121810033D

 17 16  0  0  0  0  0  0  0  0999 V2000
    0.9935   -1.5421   -1.3666 N   0  0  0  0  0  0  0  0  0  0  0  0
    1.2148   -1.5275   -2.4789 N   0  0  0  0  0  0  0  0  0  0  0  0
    0.3372   -1.5338   -0.2395 N   0  0  0  0  0  0  0  0  0  0  0  0
   -0.5461   -2.0514   -0.2571 H   0  0  0  0  0  0  0  0  0  0  0  0
    0.9289   -1.5988    0.5887 H   0  0  0  0  0  0  0  0  0  0  0  0
   -0.0055   -3.1307   -4.5775 C   0  0  0  0  0  0  0  0  0  0  0  0
    0.9705   -2.9634   -5.5612 C   0  0  0  0  0  0  0  0  0  0  0  0
    1.2112   -1.6901   -6.1008 C   0  0  0  0  0  0  0  0  0  0  0  0
    0.4822   -0.5785   -5.6513 C   0  0  0  0  0  0  0  0  0  0  0  0
   -0.4953   -0.7374   -4.6674 C   0  0  0  0  0  0  0  0  0  0  0  0
   -0.7373   -2.0151   -4.1200 C   0  0  0  0  0  0  0  0  0  0  0  0
   -0.2187   -4.1242   -4.1809 H   0  0  0  0  0  0  0  0  0  0  0  0
    1.5324   -3.8236   -5.9254 H   0  0  0  0  0  0  0  0  0  0  0  0
    1.9649   -1.5652   -6.8789 H   0  0  0  0  0  0  0  0  0  0  0  0
    0.6666    0.4047   -6.0845 H   0  0  0  0  0  0  0  0  0  0  0  0
   -1.0862    0.1182   -4.3384 H   0  0  0  0  0  0  0  0  0  0  0  0
   -1.5574   -2.1551   -3.4122 H   0  0  0  0  0  0  0  0  0  0  0  0
  1  3  1  0  0  0  0
  2  1  1  0  0  0  0
  3  5  1  0  0  0  0
  4  3  1  0  0  0  0
  6 12  1  0  0  0  0
  6 11  1  0  0  0  0
  7  6  2  0  0  0  0
  8  9  2  0  0  0  0
  8  7  1  0  0  0  0
  9 10  1  0  0  0  0
 10 16  1  0  0  0  0
 10 11  2  0  0  0  0
 11 17  1  0  0  0  0
 13  7  1  0  0  0  0
 14  8  1  0  0  0  0
 15  9  1  0  0  0  0
M  RAD  2   1   2   2   3
M  END
