Coordinates from ORCA-job C6H6+NH2N2+-aug-scan
 OpenBabel10121810033D

 17 16  0  0  0  0  0  0  0  0999 V2000
    0.9529   -1.5468   -1.2749 N   0  0  0  0  0  0  0  0  0  0  0  0
    1.2116   -1.5126   -2.3771 N   0  0  0  0  0  0  0  0  0  0  0  0
    0.3077   -1.5480   -0.1424 N   0  0  0  0  0  0  0  0  0  0  0  0
   -0.5737   -2.0690   -0.1543 H   0  0  0  0  0  0  0  0  0  0  0  0
    0.9082   -1.6123    0.6800 H   0  0  0  0  0  0  0  0  0  0  0  0
    0.0236   -3.1203   -4.5947 C   0  0  0  0  0  0  0  0  0  0  0  0
    0.9686   -2.9643   -5.6104 C   0  0  0  0  0  0  0  0  0  0  0  0
    1.1906   -1.6983   -6.1748 C   0  0  0  0  0  0  0  0  0  0  0  0
    0.4772   -0.5818   -5.7115 C   0  0  0  0  0  0  0  0  0  0  0  0
   -0.4691   -0.7299   -4.6958 C   0  0  0  0  0  0  0  0  0  0  0  0
   -0.6970   -2.0012   -4.1298 C   0  0  0  0  0  0  0  0  0  0  0  0
   -0.1771   -4.1101   -4.1826 H   0  0  0  0  0  0  0  0  0  0  0  0
    1.5190   -3.8291   -5.9813 H   0  0  0  0  0  0  0  0  0  0  0  0
    1.9176   -1.5825   -6.9792 H   0  0  0  0  0  0  0  0  0  0  0  0
    0.6476    0.3970   -6.1601 H   0  0  0  0  0  0  0  0  0  0  0  0
   -1.0502    0.1299   -4.3600 H   0  0  0  0  0  0  0  0  0  0  0  0
   -1.5016   -2.1350   -3.4031 H   0  0  0  0  0  0  0  0  0  0  0  0
  1  3  1  0  0  0  0
  2  1  1  0  0  0  0
  3  5  1  0  0  0  0
  4  3  1  0  0  0  0
  6 12  1  0  0  0  0
  6 11  1  0  0  0  0
  7  6  2  0  0  0  0
  8  9  2  0  0  0  0
  8  7  1  0  0  0  0
  9 10  1  0  0  0  0
 10 16  1  0  0  0  0
 10 11  2  0  0  0  0
 11 17  1  0  0  0  0
 13  7  1  0  0  0  0
 14  8  1  0  0  0  0
 15  9  1  0  0  0  0
M  RAD  2   1   2   2   3
M  END
