Coordinates from ORCA-job C6H6+NH2N2+-aug-scan
 OpenBabel10121810033D

 17 16  0  0  0  0  0  0  0  0999 V2000
    0.9914   -1.6058   -1.4576 N   0  0  0  0  0  0  0  0  0  0  0  0
    0.2378   -1.9742   -2.2424 N   0  0  0  0  0  0  0  0  0  0  0  0
    2.1513   -1.0232   -1.2790 N   0  0  0  0  0  0  0  0  0  0  0  0
    2.4247   -0.3852   -2.0307 H   0  0  0  0  0  0  0  0  0  0  0  0
    2.3473   -0.7640   -0.3152 H   0  0  0  0  0  0  0  0  0  0  0  0
   -0.1173   -3.4467   -5.0667 C   0  0  0  0  0  0  0  0  0  0  0  0
    1.0246   -2.7402   -4.7001 C   0  0  0  0  0  0  0  0  0  0  0  0
    0.9294   -1.3538   -4.4173 C   0  0  0  0  0  0  0  0  0  0  0  0
   -0.3095   -0.6801   -4.5629 C   0  0  0  0  0  0  0  0  0  0  0  0
   -1.4438   -1.3988   -4.9296 C   0  0  0  0  0  0  0  0  0  0  0  0
   -1.3473   -2.7779   -5.1757 C   0  0  0  0  0  0  0  0  0  0  0  0
   -0.0560   -4.5132   -5.2822 H   0  0  0  0  0  0  0  0  0  0  0  0
    1.9892   -3.2441   -4.6348 H   0  0  0  0  0  0  0  0  0  0  0  0
    1.8426   -0.7758   -4.2561 H   0  0  0  0  0  0  0  0  0  0  0  0
   -0.3686    0.3955   -4.3947 H   0  0  0  0  0  0  0  0  0  0  0  0
   -2.4020   -0.8915   -5.0395 H   0  0  0  0  0  0  0  0  0  0  0  0
   -2.2381   -3.3353   -5.4675 H   0  0  0  0  0  0  0  0  0  0  0  0
  1  3  1  0  0  0  0
  2  1  2  0  0  0  0
  3  5  1  0  0  0  0
  4  3  1  0  0  0  0
  6  7  1  0  0  0  0
  7 13  1  0  0  0  0
  7  8  2  0  0  0  0
  8 14  1  0  0  0  0
  9  8  1  0  0  0  0
  9 15  1  0  0  0  0
 10  9  2  0  0  0  0
 11  6  2  0  0  0  0
 11 10  1  0  0  0  0
 12  6  1  0  0  0  0
 16 10  1  0  0  0  0
 17 11  1  0  0  0  0
M  RAD  1   2   2
M  END
