Coordinates from ORCA-job C6H6+NH2N2+-aug-scan
 OpenBabel10121810033D

 17 16  0  0  0  0  0  0  0  0999 V2000
    1.1024   -1.5411   -1.5494 N   0  0  0  0  0  0  0  0  0  0  0  0
    1.0335   -2.0810   -2.5478 N   0  0  0  0  0  0  0  0  0  0  0  0
    0.9240   -0.5399   -0.7284 N   0  0  0  0  0  0  0  0  0  0  0  0
    0.0599   -0.0147   -0.8888 H   0  0  0  0  0  0  0  0  0  0  0  0
    1.2036   -0.7347    0.2320 H   0  0  0  0  0  0  0  0  0  0  0  0
   -0.2429   -3.4781   -5.1525 C   0  0  0  0  0  0  0  0  0  0  0  0
    0.9589   -2.9836   -5.6900 C   0  0  0  0  0  0  0  0  0  0  0  0
    1.3193   -1.6440   -5.5133 C   0  0  0  0  0  0  0  0  0  0  0  0
    0.4798   -0.7897   -4.7893 C   0  0  0  0  0  0  0  0  0  0  0  0
   -0.7240   -1.2881   -4.2372 C   0  0  0  0  0  0  0  0  0  0  0  0
   -1.0875   -2.6339   -4.4323 C   0  0  0  0  0  0  0  0  0  0  0  0
   -0.5192   -4.5205   -5.3119 H   0  0  0  0  0  0  0  0  0  0  0  0
    1.6082   -3.6485   -6.2605 H   0  0  0  0  0  0  0  0  0  0  0  0
    2.2422   -1.2631   -5.9504 H   0  0  0  0  0  0  0  0  0  0  0  0
    0.7360    0.2647   -4.6768 H   0  0  0  0  0  0  0  0  0  0  0  0
   -1.4089   -0.6098   -3.7241 H   0  0  0  0  0  0  0  0  0  0  0  0
   -2.0296   -3.0084   -4.0315 H   0  0  0  0  0  0  0  0  0  0  0  0
  1  3  1  0  0  0  0
  2  1  1  0  0  0  0
  3  5  1  0  0  0  0
  4  3  1  0  0  0  0
  6 11  2  0  0  0  0
  7  8  2  0  0  0  0
  7  6  1  0  0  0  0
  8  9  1  0  0  0  0
  9 15  1  0  0  0  0
  9 10  2  0  0  0  0
 10 16  1  0  0  0  0
 11 10  1  0  0  0  0
 11 17  1  0  0  0  0
 12  6  1  0  0  0  0
 13  7  1  0  0  0  0
 14  8  1  0  0  0  0
M  RAD  2   1   2   2   3
M  END
