Coordinates from ORCA-job C6H6+NH2N2+-aug-scan
 OpenBabel10121810033D

 17 16  0  0  0  0  0  0  0  0999 V2000
    0.9925   -1.5418   -1.3607 N   0  0  0  0  0  0  0  0  0  0  0  0
    1.2152   -1.5266   -2.4726 N   0  0  0  0  0  0  0  0  0  0  0  0
    0.3358   -1.5339   -0.2336 N   0  0  0  0  0  0  0  0  0  0  0  0
   -0.5470   -2.0523   -0.2522 H   0  0  0  0  0  0  0  0  0  0  0  0
    0.9278   -1.5998    0.5943 H   0  0  0  0  0  0  0  0  0  0  0  0
   -0.0040   -3.1302   -4.5785 C   0  0  0  0  0  0  0  0  0  0  0  0
    0.9704   -2.9634   -5.5638 C   0  0  0  0  0  0  0  0  0  0  0  0
    1.2102   -1.6905   -6.1050 C   0  0  0  0  0  0  0  0  0  0  0  0
    0.4821   -0.5788   -5.6543 C   0  0  0  0  0  0  0  0  0  0  0  0
   -0.4939   -0.7371   -4.6688 C   0  0  0  0  0  0  0  0  0  0  0  0
   -0.7356   -2.0145   -4.1207 C   0  0  0  0  0  0  0  0  0  0  0  0
   -0.2169   -4.1237   -4.1818 H   0  0  0  0  0  0  0  0  0  0  0  0
    1.5316   -3.8239   -5.9283 H   0  0  0  0  0  0  0  0  0  0  0  0
    1.9623   -1.5662   -6.8847 H   0  0  0  0  0  0  0  0  0  0  0  0
    0.6656    0.4042   -6.0882 H   0  0  0  0  0  0  0  0  0  0  0  0
   -1.0846    0.1187   -4.3401 H   0  0  0  0  0  0  0  0  0  0  0  0
   -1.5556   -2.1545   -3.4129 H   0  0  0  0  0  0  0  0  0  0  0  0
  1  3  1  0  0  0  0
  2  1  1  0  0  0  0
  3  5  1  0  0  0  0
  4  3  1  0  0  0  0
  6 12  1  0  0  0  0
  6 11  1  0  0  0  0
  7  6  2  0  0  0  0
  8  9  2  0  0  0  0
  8  7  1  0  0  0  0
  9 10  1  0  0  0  0
 10 16  1  0  0  0  0
 10 11  2  0  0  0  0
 11 17  1  0  0  0  0
 13  7  1  0  0  0  0
 14  8  1  0  0  0  0
 15  9  1  0  0  0  0
M  RAD  2   1   2   2   3
M  END
