Coordinates from ORCA-job C6H6+NH2N2+-aug-scan
 OpenBabel10121810033D

 17 16  0  0  0  0  0  0  0  0999 V2000
    1.0524   -1.5351   -1.4806 N   0  0  0  0  0  0  0  0  0  0  0  0
    1.2374   -1.5320   -2.6014 N   0  0  0  0  0  0  0  0  0  0  0  0
    0.3647   -1.5247   -0.3711 N   0  0  0  0  0  0  0  0  0  0  0  0
   -0.5205   -2.0372   -0.4173 H   0  0  0  0  0  0  0  0  0  0  0  0
    0.9317   -1.6001    0.4725 H   0  0  0  0  0  0  0  0  0  0  0  0
   -0.0348   -3.1397   -4.5458 C   0  0  0  0  0  0  0  0  0  0  0  0
    0.9712   -2.9623   -5.4964 C   0  0  0  0  0  0  0  0  0  0  0  0
    1.2306   -1.6825   -6.0107 C   0  0  0  0  0  0  0  0  0  0  0  0
    0.4835   -0.5757   -5.5812 C   0  0  0  0  0  0  0  0  0  0  0  0
   -0.5236   -0.7430   -4.6294 C   0  0  0  0  0  0  0  0  0  0  0  0
   -0.7772   -2.0262   -4.0972 C   0  0  0  0  0  0  0  0  0  0  0  0
   -0.2602   -4.1360   -4.1638 H   0  0  0  0  0  0  0  0  0  0  0  0
    1.5451   -3.8182   -5.8518 H   0  0  0  0  0  0  0  0  0  0  0  0
    2.0114   -1.5496   -6.7603 H   0  0  0  0  0  0  0  0  0  0  0  0
    0.6805    0.4106   -6.0013 H   0  0  0  0  0  0  0  0  0  0  0  0
   -1.1253    0.1084   -4.3098 H   0  0  0  0  0  0  0  0  0  0  0  0
   -1.6108   -2.1709   -3.4065 H   0  0  0  0  0  0  0  0  0  0  0  0
  1  3  1  0  0  0  0
  2  1  1  0  0  0  0
  3  5  1  0  0  0  0
  4  3  1  0  0  0  0
  6 12  1  0  0  0  0
  6 11  1  0  0  0  0
  7  6  2  0  0  0  0
  8  9  2  0  0  0  0
  8  7  1  0  0  0  0
  9 10  1  0  0  0  0
 10 16  1  0  0  0  0
 10 11  2  0  0  0  0
 11 17  1  0  0  0  0
 13  7  1  0  0  0  0
 14  8  1  0  0  0  0
 15  9  1  0  0  0  0
M  RAD  2   1   2   2   3
M  END
