Coordinates from ORCA-job C6H6+NH2N2+-aug-scan
 OpenBabel10121810033D

 17 16  0  0  0  0  0  0  0  0999 V2000
    1.0198   -1.5824   -1.4819 N   0  0  0  0  0  0  0  0  0  0  0  0
    0.3063   -1.9358   -2.2991 N   0  0  0  0  0  0  0  0  0  0  0  0
    2.1472   -1.0501   -1.0863 N   0  0  0  0  0  0  0  0  0  0  0  0
    2.5403   -0.3614   -1.7336 H   0  0  0  0  0  0  0  0  0  0  0  0
    2.1935   -0.8649   -0.0860 H   0  0  0  0  0  0  0  0  0  0  0  0
   -0.1302   -3.4528   -5.0543 C   0  0  0  0  0  0  0  0  0  0  0  0
    1.0319   -2.7192   -4.8189 C   0  0  0  0  0  0  0  0  0  0  0  0
    0.9480   -1.3221   -4.6126 C   0  0  0  0  0  0  0  0  0  0  0  0
   -0.3025   -0.6664   -4.6857 C   0  0  0  0  0  0  0  0  0  0  0  0
   -1.4579   -1.4096   -4.9207 C   0  0  0  0  0  0  0  0  0  0  0  0
   -1.3710   -2.7993   -5.0996 C   0  0  0  0  0  0  0  0  0  0  0  0
   -0.0749   -4.5292   -5.2158 H   0  0  0  0  0  0  0  0  0  0  0  0
    2.0033   -3.2145   -4.8055 H   0  0  0  0  0  0  0  0  0  0  0  0
    1.8634   -0.7348   -4.5114 H   0  0  0  0  0  0  0  0  0  0  0  0
   -0.3582    0.4166   -4.5713 H   0  0  0  0  0  0  0  0  0  0  0  0
   -2.4262   -0.9127   -4.9796 H   0  0  0  0  0  0  0  0  0  0  0  0
   -2.2771   -3.3757   -5.2897 H   0  0  0  0  0  0  0  0  0  0  0  0
  1  3  1  0  0  0  0
  2  1  2  0  0  0  0
  3  5  1  0  0  0  0
  4  3  1  0  0  0  0
  6  7  1  0  0  0  0
  7 13  1  0  0  0  0
  7  8  2  0  0  0  0
  8 14  1  0  0  0  0
  9  8  1  0  0  0  0
  9 15  1  0  0  0  0
 10  9  2  0  0  0  0
 11  6  2  0  0  0  0
 11 10  1  0  0  0  0
 12  6  1  0  0  0  0
 16 10  1  0  0  0  0
 17 11  1  0  0  0  0
M  RAD  1   2   2
M  END
