Coordinates from ORCA-job C6H6+NH2N2+-aug-scan
 OpenBabel10121810033D

 17 16  0  0  0  0  0  0  0  0999 V2000
    1.0064   -1.5406   -1.3932 N   0  0  0  0  0  0  0  0  0  0  0  0
    1.2178   -1.5289   -2.5080 N   0  0  0  0  0  0  0  0  0  0  0  0
    0.3454   -1.5324   -0.2683 N   0  0  0  0  0  0  0  0  0  0  0  0
   -0.5379   -2.0497   -0.2905 H   0  0  0  0  0  0  0  0  0  0  0  0
    0.9336   -1.5983    0.5620 H   0  0  0  0  0  0  0  0  0  0  0  0
   -0.0134   -3.1326   -4.5706 C   0  0  0  0  0  0  0  0  0  0  0  0
    0.9713   -2.9629   -5.5451 C   0  0  0  0  0  0  0  0  0  0  0  0
    1.2170   -1.6882   -6.0793 C   0  0  0  0  0  0  0  0  0  0  0  0
    0.4828   -0.5778   -5.6351 C   0  0  0  0  0  0  0  0  0  0  0  0
   -0.5031   -0.7385   -4.6600 C   0  0  0  0  0  0  0  0  0  0  0  0
   -0.7487   -2.0175   -4.1163 C   0  0  0  0  0  0  0  0  0  0  0  0
   -0.2302   -4.1268   -4.1780 H   0  0  0  0  0  0  0  0  0  0  0  0
    1.5366   -3.8221   -5.9064 H   0  0  0  0  0  0  0  0  0  0  0  0
    1.9780   -1.5614   -6.8500 H   0  0  0  0  0  0  0  0  0  0  0  0
    0.6704    0.4061   -6.0653 H   0  0  0  0  0  0  0  0  0  0  0  0
   -1.0972    0.1161   -4.3343 H   0  0  0  0  0  0  0  0  0  0  0  0
   -1.5730   -2.1587   -3.4137 H   0  0  0  0  0  0  0  0  0  0  0  0
  1  3  1  0  0  0  0
  2  1  1  0  0  0  0
  3  5  1  0  0  0  0
  4  3  1  0  0  0  0
  6 12  1  0  0  0  0
  6 11  1  0  0  0  0
  7  6  2  0  0  0  0
  8  9  2  0  0  0  0
  8  7  1  0  0  0  0
  9 10  1  0  0  0  0
 10 16  1  0  0  0  0
 10 11  2  0  0  0  0
 11 17  1  0  0  0  0
 13  7  1  0  0  0  0
 14  8  1  0  0  0  0
 15  9  1  0  0  0  0
M  RAD  2   1   2   2   3
M  END
