Coordinates from ORCA-job C6H6+NH2N2+-aug-scan
 OpenBabel10121810033D

 17 16  0  0  0  0  0  0  0  0999 V2000
    1.0939   -1.5378   -1.5378 N   0  0  0  0  0  0  0  0  0  0  0  0
    0.9809   -2.1140   -2.5105 N   0  0  0  0  0  0  0  0  0  0  0  0
    1.0243   -0.4977   -0.7507 N   0  0  0  0  0  0  0  0  0  0  0  0
    0.2264    0.1168   -0.9353 H   0  0  0  0  0  0  0  0  0  0  0  0
    1.2769   -0.6907    0.2176 H   0  0  0  0  0  0  0  0  0  0  0  0
   -0.2544   -3.4863   -5.2047 C   0  0  0  0  0  0  0  0  0  0  0  0
    0.9708   -2.9779   -5.6726 C   0  0  0  0  0  0  0  0  0  0  0  0
    1.3199   -1.6455   -5.4396 C   0  0  0  0  0  0  0  0  0  0  0  0
    0.4448   -0.8136   -4.7272 C   0  0  0  0  0  0  0  0  0  0  0  0
   -0.7855   -1.3259   -4.2517 C   0  0  0  0  0  0  0  0  0  0  0  0
   -1.1344   -2.6640   -4.5003 C   0  0  0  0  0  0  0  0  0  0  0  0
   -0.5213   -4.5241   -5.4058 H   0  0  0  0  0  0  0  0  0  0  0  0
    1.6455   -3.6261   -6.2324 H   0  0  0  0  0  0  0  0  0  0  0  0
    2.2608   -1.2498   -5.8220 H   0  0  0  0  0  0  0  0  0  0  0  0
    0.6920    0.2386   -4.5776 H   0  0  0  0  0  0  0  0  0  0  0  0
   -1.4921   -0.6646   -3.7466 H   0  0  0  0  0  0  0  0  0  0  0  0
   -2.0928   -3.0518   -4.1549 H   0  0  0  0  0  0  0  0  0  0  0  0
  1  3  1  0  0  0  0
  2  1  1  0  0  0  0
  3  5  1  0  0  0  0
  4  3  1  0  0  0  0
  6 11  2  0  0  0  0
  7  8  2  0  0  0  0
  7  6  1  0  0  0  0
  8  9  1  0  0  0  0
  9 15  1  0  0  0  0
  9 10  2  0  0  0  0
 10 16  1  0  0  0  0
 11 10  1  0  0  0  0
 11 17  1  0  0  0  0
 12  6  1  0  0  0  0
 13  7  1  0  0  0  0
 14  8  1  0  0  0  0
M  RAD  2   1   2   2   3
M  END
