Coordinates from ORCA-job C6H6+NH2N2+-aug-scan
 OpenBabel10121810033D

 17 16  0  0  0  0  0  0  0  0999 V2000
   -0.0056   -0.0779    0.6349 N   0  0  0  0  0  0  0  0  0  0  0  0
    0.4612   -0.3251   -0.3337 N   0  0  0  0  0  0  0  0  0  0  0  0
    1.7716   -1.0809   -3.0505 N   0  0  0  0  0  0  0  0  0  0  0  0
    2.5444   -1.7189   -2.8291 H   0  0  0  0  0  0  0  0  0  0  0  0
    2.1929   -0.2371   -3.4595 H   0  0  0  0  0  0  0  0  0  0  0  0
    0.0313   -3.6490   -5.0978 C   0  0  0  0  0  0  0  0  0  0  0  0
    0.9664   -3.0532   -4.2450 C   0  0  0  0  0  0  0  0  0  0  0  0
    0.8222   -1.7014   -3.9389 C   0  0  0  0  0  0  0  0  0  0  0  0
   -0.2168   -0.9254   -4.4547 C   0  0  0  0  0  0  0  0  0  0  0  0
   -1.1424   -1.5343   -5.3055 C   0  0  0  0  0  0  0  0  0  0  0  0
   -1.0185   -2.8916   -5.6250 C   0  0  0  0  0  0  0  0  0  0  0  0
    0.1291   -4.7045   -5.3490 H   0  0  0  0  0  0  0  0  0  0  0  0
    1.7887   -3.6425   -3.8335 H   0  0  0  0  0  0  0  0  0  0  0  0
    1.3448   -0.8012   -2.1493 H   0  0  0  0  0  0  0  0  0  0  0  0
   -0.3107    0.1332   -4.2049 H   0  0  0  0  0  0  0  0  0  0  0  0
   -1.9595   -0.9449   -5.7200 H   0  0  0  0  0  0  0  0  0  0  0  0
   -1.7435   -3.3596   -6.2906 H   0  0  0  0  0  0  0  0  0  0  0  0
  2  1  3  0  0  0  0
  3  4  1  0  0  0  0
  3 14  1  0  0  0  0
  5  3  1  0  0  0  0
  6  7  2  0  0  0  0
  7  8  1  0  0  0  0
  7 13  1  0  0  0  0
  8  3  1  0  0  0  0
  9 15  1  0  0  0  0
  9  8  2  0  0  0  0
 10  9  1  0  0  0  0
 11 10  2  0  0  0  0
 11  6  1  0  0  0  0
 12  6  1  0  0  0  0
 16 10  1  0  0  0  0
 17 11  1  0  0  0  0
M  END
