Coordinates from ORCA-job C6H6+NH2N2+-aug-scan
 OpenBabel10121810033D

 17 16  0  0  0  0  0  0  0  0999 V2000
    0.9754   -1.6260   -1.4535 N   0  0  0  0  0  0  0  0  0  0  0  0
    0.1965   -1.9979   -2.2227 N   0  0  0  0  0  0  0  0  0  0  0  0
    2.1361   -1.0110   -1.4356 N   0  0  0  0  0  0  0  0  0  0  0  0
    2.2847   -0.3719   -2.2192 H   0  0  0  0  0  0  0  0  0  0  0  0
    2.4340   -0.7167   -0.5090 H   0  0  0  0  0  0  0  0  0  0  0  0
   -0.1024   -3.4404   -5.0683 C   0  0  0  0  0  0  0  0  0  0  0  0
    1.0227   -2.7599   -4.6184 C   0  0  0  0  0  0  0  0  0  0  0  0
    0.9209   -1.3837   -4.2778 C   0  0  0  0  0  0  0  0  0  0  0  0
   -0.3058   -0.6918   -4.4711 C   0  0  0  0  0  0  0  0  0  0  0  0
   -1.4237   -1.3863   -4.9209 C   0  0  0  0  0  0  0  0  0  0  0  0
   -1.3217   -2.7558   -5.2130 C   0  0  0  0  0  0  0  0  0  0  0  0
   -0.0382   -4.4980   -5.3225 H   0  0  0  0  0  0  0  0  0  0  0  0
    1.9794   -3.2736   -4.5217 H   0  0  0  0  0  0  0  0  0  0  0  0
    1.8362   -0.8154   -4.1029 H   0  0  0  0  0  0  0  0  0  0  0  0
   -0.3665    0.3772   -4.2653 H   0  0  0  0  0  0  0  0  0  0  0  0
   -2.3717   -0.8677   -5.0605 H   0  0  0  0  0  0  0  0  0  0  0  0
   -2.2001   -3.2952   -5.5696 H   0  0  0  0  0  0  0  0  0  0  0  0
  1  3  1  0  0  0  0
  2  1  2  0  0  0  0
  3  5  1  0  0  0  0
  4  3  1  0  0  0  0
  6  7  1  0  0  0  0
  7 13  1  0  0  0  0
  7  8  2  0  0  0  0
  8 14  1  0  0  0  0
  9  8  1  0  0  0  0
  9 15  1  0  0  0  0
 10  9  2  0  0  0  0
 11  6  2  0  0  0  0
 11 10  1  0  0  0  0
 12  6  1  0  0  0  0
 16 10  1  0  0  0  0
 17 11  1  0  0  0  0
M  RAD  1   2   2
M  END
