Coordinates from ORCA-job C6H6+NH2N2+-aug-scan
 OpenBabel10121810033D

 17 16  0  0  0  0  0  0  0  0999 V2000
   -0.0072   -0.0845    0.5996 N   0  0  0  0  0  0  0  0  0  0  0  0
    0.4549   -0.3362   -0.3701 N   0  0  0  0  0  0  0  0  0  0  0  0
    1.7306   -1.1096   -3.0862 N   0  0  0  0  0  0  0  0  0  0  0  0
    2.5104   -1.7375   -2.8491 H   0  0  0  0  0  0  0  0  0  0  0  0
    2.1695   -0.2605   -3.4748 H   0  0  0  0  0  0  0  0  0  0  0  0
    0.0420   -3.6384   -5.0851 C   0  0  0  0  0  0  0  0  0  0  0  0
    0.9761   -3.0394   -4.2353 C   0  0  0  0  0  0  0  0  0  0  0  0
    0.8473   -1.6850   -3.9143 C   0  0  0  0  0  0  0  0  0  0  0  0
   -0.2043   -0.9216   -4.4384 C   0  0  0  0  0  0  0  0  0  0  0  0
   -1.1319   -1.5270   -5.2866 C   0  0  0  0  0  0  0  0  0  0  0  0
   -1.0104   -2.8839   -5.6093 C   0  0  0  0  0  0  0  0  0  0  0  0
    0.1426   -4.6936   -5.3369 H   0  0  0  0  0  0  0  0  0  0  0  0
    1.8012   -3.6298   -3.8279 H   0  0  0  0  0  0  0  0  0  0  0  0
    1.3217   -0.8180   -2.1757 H   0  0  0  0  0  0  0  0  0  0  0  0
   -0.3007    0.1381   -4.1903 H   0  0  0  0  0  0  0  0  0  0  0  0
   -1.9494   -0.9359   -5.6981 H   0  0  0  0  0  0  0  0  0  0  0  0
   -1.7366   -3.3514   -6.2738 H   0  0  0  0  0  0  0  0  0  0  0  0
  2  1  3  0  0  0  0
  3  4  1  0  0  0  0
  3 14  1  0  0  0  0
  5  3  1  0  0  0  0
  6  7  2  0  0  0  0
  7  8  1  0  0  0  0
  7 13  1  0  0  0  0
  8  3  1  0  0  0  0
  9 15  1  0  0  0  0
  9  8  2  0  0  0  0
 10  9  1  0  0  0  0
 11 10  2  0  0  0  0
 11  6  1  0  0  0  0
 12  6  1  0  0  0  0
 16 10  1  0  0  0  0
 17 11  1  0  0  0  0
M  END
