Coordinates from ORCA-job C6H6+NH2N2+-aug-scan
 OpenBabel10121810033D

 17 16  0  0  0  0  0  0  0  0999 V2000
    0.9526   -1.5465   -1.2691 N   0  0  0  0  0  0  0  0  0  0  0  0
    1.2125   -1.5119   -2.3710 N   0  0  0  0  0  0  0  0  0  0  0  0
    0.3063   -1.5478   -0.1366 N   0  0  0  0  0  0  0  0  0  0  0  0
   -0.5747   -2.0695   -0.1508 H   0  0  0  0  0  0  0  0  0  0  0  0
    0.9069   -1.6130    0.6856 H   0  0  0  0  0  0  0  0  0  0  0  0
    0.0250   -3.1198   -4.5956 C   0  0  0  0  0  0  0  0  0  0  0  0
    0.9685   -2.9640   -5.6127 C   0  0  0  0  0  0  0  0  0  0  0  0
    1.1899   -1.6986   -6.1790 C   0  0  0  0  0  0  0  0  0  0  0  0
    0.4773   -0.5823   -5.7140 C   0  0  0  0  0  0  0  0  0  0  0  0
   -0.4678   -0.7296   -4.6969 C   0  0  0  0  0  0  0  0  0  0  0  0
   -0.6956   -2.0008   -4.1302 C   0  0  0  0  0  0  0  0  0  0  0  0
   -0.1756   -4.1099   -4.1841 H   0  0  0  0  0  0  0  0  0  0  0  0
    1.5180   -3.8294   -5.9840 H   0  0  0  0  0  0  0  0  0  0  0  0
    1.9152   -1.5833   -6.9849 H   0  0  0  0  0  0  0  0  0  0  0  0
    0.6465    0.3966   -6.1632 H   0  0  0  0  0  0  0  0  0  0  0  0
   -1.0489    0.1303   -4.3618 H   0  0  0  0  0  0  0  0  0  0  0  0
   -1.5002   -2.1347   -3.4037 H   0  0  0  0  0  0  0  0  0  0  0  0
  1  3  1  0  0  0  0
  2  1  1  0  0  0  0
  3  5  1  0  0  0  0
  4  3  1  0  0  0  0
  6 12  1  0  0  0  0
  6 11  1  0  0  0  0
  7  6  2  0  0  0  0
  8  9  2  0  0  0  0
  8  7  1  0  0  0  0
  9 10  1  0  0  0  0
 10 16  1  0  0  0  0
 10 11  2  0  0  0  0
 11 17  1  0  0  0  0
 13  7  1  0  0  0  0
 14  8  1  0  0  0  0
 15  9  1  0  0  0  0
M  RAD  2   1   2   2   3
M  END
