Coordinates from ORCA-job C6H6+NH2N2+-aug-scan
 OpenBabel10121810033D

 17 16  0  0  0  0  0  0  0  0999 V2000
    0.9465   -1.6439   -1.4710 N   0  0  0  0  0  0  0  0  0  0  0  0
    0.0998   -1.9040   -2.2219 N   0  0  0  0  0  0  0  0  0  0  0  0
    2.1618   -1.1305   -1.5959 N   0  0  0  0  0  0  0  0  0  0  0  0
    2.2072   -0.3793   -2.2861 H   0  0  0  0  0  0  0  0  0  0  0  0
    2.5895   -0.9254   -0.6946 H   0  0  0  0  0  0  0  0  0  0  0  0
   -0.0688   -3.4217   -5.0032 C   0  0  0  0  0  0  0  0  0  0  0  0
    1.0245   -2.7220   -4.5118 C   0  0  0  0  0  0  0  0  0  0  0  0
    0.8881   -1.3421   -4.1849 C   0  0  0  0  0  0  0  0  0  0  0  0
   -0.3380   -0.6681   -4.4590 C   0  0  0  0  0  0  0  0  0  0  0  0
   -1.4236   -1.3823   -4.9526 C   0  0  0  0  0  0  0  0  0  0  0  0
   -1.2894   -2.7540   -5.2168 C   0  0  0  0  0  0  0  0  0  0  0  0
    0.0202   -4.4814   -5.2411 H   0  0  0  0  0  0  0  0  0  0  0  0
    1.9825   -3.2208   -4.3637 H   0  0  0  0  0  0  0  0  0  0  0  0
    1.7891   -0.7523   -4.0251 H   0  0  0  0  0  0  0  0  0  0  0  0
   -0.4214    0.4026   -4.2705 H   0  0  0  0  0  0  0  0  0  0  0  0
   -2.3697   -0.8780   -5.1470 H   0  0  0  0  0  0  0  0  0  0  0  0
   -2.1423   -3.3110   -5.6070 H   0  0  0  0  0  0  0  0  0  0  0  0
  2  1  2  0  0  0  0
  3  1  1  0  0  0  0
  3  5  1  0  0  0  0
  4  3  1  0  0  0  0
  6  7  1  0  0  0  0
  7 13  1  0  0  0  0
  7  8  2  0  0  0  0
  8 14  1  0  0  0  0
  9 15  1  0  0  0  0
  9  8  1  0  0  0  0
 10  9  2  0  0  0  0
 11  6  2  0  0  0  0
 11 10  1  0  0  0  0
 12  6  1  0  0  0  0
 16 10  1  0  0  0  0
 17 11  1  0  0  0  0
M  RAD  1   2   2
M  END
