Coordinates from ORCA-job C6H6+NH2N2+-aug-scan
 OpenBabel10121810033D

 17 16  0  0  0  0  0  0  0  0999 V2000
    0.0040   -0.0820    0.5723 N   0  0  0  0  0  0  0  0  0  0  0  0
    0.4543   -0.3420   -0.4007 N   0  0  0  0  0  0  0  0  0  0  0  0
    1.6811   -1.1429   -3.1233 N   0  0  0  0  0  0  0  0  0  0  0  0
    2.4711   -1.7567   -2.8658 H   0  0  0  0  0  0  0  0  0  0  0  0
    2.1409   -0.2841   -3.4830 H   0  0  0  0  0  0  0  0  0  0  0  0
    0.0536   -3.6282   -5.0754 C   0  0  0  0  0  0  0  0  0  0  0  0
    0.9849   -3.0257   -4.2270 C   0  0  0  0  0  0  0  0  0  0  0  0
    0.8726   -1.6685   -3.8874 C   0  0  0  0  0  0  0  0  0  0  0  0
   -0.1932   -0.9192   -4.4233 C   0  0  0  0  0  0  0  0  0  0  0  0
   -1.1205   -1.5210   -5.2706 C   0  0  0  0  0  0  0  0  0  0  0  0
   -1.0010   -2.8774   -5.5977 C   0  0  0  0  0  0  0  0  0  0  0  0
    0.1592   -4.6827   -5.3280 H   0  0  0  0  0  0  0  0  0  0  0  0
    1.8133   -3.6157   -3.8221 H   0  0  0  0  0  0  0  0  0  0  0  0
    1.2924   -0.8382   -2.2007 H   0  0  0  0  0  0  0  0  0  0  0  0
   -0.2920    0.1416   -4.1768 H   0  0  0  0  0  0  0  0  0  0  0  0
   -1.9375   -0.9275   -5.6798 H   0  0  0  0  0  0  0  0  0  0  0  0
   -1.7273   -3.3440   -6.2627 H   0  0  0  0  0  0  0  0  0  0  0  0
  2  1  3  0  0  0  0
  3  4  1  0  0  0  0
  3 14  1  0  0  0  0
  5  3  1  0  0  0  0
  6  7  2  0  0  0  0
  7  8  1  0  0  0  0
  7 13  1  0  0  0  0
  8  3  1  0  0  0  0
  9 15  1  0  0  0  0
  9  8  2  0  0  0  0
 10  9  1  0  0  0  0
 11 10  2  0  0  0  0
 11  6  1  0  0  0  0
 12  6  1  0  0  0  0
 16 10  1  0  0  0  0
 17 11  1  0  0  0  0
M  END
