Coordinates from ORCA-job C6H6+NH2N2+-aug-scan
 OpenBabel10121810033D

 17 16  0  0  0  0  0  0  0  0999 V2000
    1.1088   -1.5594   -1.5528 N   0  0  0  0  0  0  0  0  0  0  0  0
    0.9839   -2.1355   -2.5259 N   0  0  0  0  0  0  0  0  0  0  0  0
    1.0448   -0.4910   -0.8013 N   0  0  0  0  0  0  0  0  0  0  0  0
    0.2618    0.1305   -1.0227 H   0  0  0  0  0  0  0  0  0  0  0  0
    1.2721   -0.6569    0.1779 H   0  0  0  0  0  0  0  0  0  0  0  0
   -0.2602   -3.4820   -5.2130 C   0  0  0  0  0  0  0  0  0  0  0  0
    0.9727   -2.9695   -5.6571 C   0  0  0  0  0  0  0  0  0  0  0  0
    1.3230   -1.6435   -5.3971 C   0  0  0  0  0  0  0  0  0  0  0  0
    0.4397   -0.8203   -4.6819 C   0  0  0  0  0  0  0  0  0  0  0  0
   -0.8006   -1.3361   -4.2344 C   0  0  0  0  0  0  0  0  0  0  0  0
   -1.1486   -2.6685   -4.5081 C   0  0  0  0  0  0  0  0  0  0  0  0
   -0.5266   -4.5159   -5.4336 H   0  0  0  0  0  0  0  0  0  0  0  0
    1.6528   -3.6108   -6.2184 H   0  0  0  0  0  0  0  0  0  0  0  0
    2.2700   -1.2441   -5.7598 H   0  0  0  0  0  0  0  0  0  0  0  0
    0.6865    0.2295   -4.5146 H   0  0  0  0  0  0  0  0  0  0  0  0
   -1.5121   -0.6812   -3.7276 H   0  0  0  0  0  0  0  0  0  0  0  0
   -2.1122   -3.0596   -4.1816 H   0  0  0  0  0  0  0  0  0  0  0  0
  1  3  1  0  0  0  0
  2  1  2  0  0  0  0
  3  5  1  0  0  0  0
  4  3  1  0  0  0  0
  6 11  2  0  0  0  0
  7  8  2  0  0  0  0
  7  6  1  0  0  0  0
  8  9  1  0  0  0  0
  9 15  1  0  0  0  0
  9 10  2  0  0  0  0
 10 16  1  0  0  0  0
 11 10  1  0  0  0  0
 11 17  1  0  0  0  0
 12  6  1  0  0  0  0
 13  7  1  0  0  0  0
 14  8  1  0  0  0  0
M  RAD  1   2   2
M  END
