Coordinates from ORCA-job C6H6+NH2N2+-aug-scan
 OpenBabel10121810033D

 17 16  0  0  0  0  0  0  0  0999 V2000
    0.8207   -1.5642   -1.0269 N   0  0  0  0  0  0  0  0  0  0  0  0
    1.1571   -1.4910   -2.1010 N   0  0  0  0  0  0  0  0  0  0  0  0
    0.2648   -1.5603    0.1484 N   0  0  0  0  0  0  0  0  0  0  0  0
   -0.6185   -2.0748    0.2048 H   0  0  0  0  0  0  0  0  0  0  0  0
    0.9265   -1.6218    0.9248 H   0  0  0  0  0  0  0  0  0  0  0  0
    0.0768   -3.1066   -4.6806 C   0  0  0  0  0  0  0  0  0  0  0  0
    0.9652   -2.9681   -5.7500 C   0  0  0  0  0  0  0  0  0  0  0  0
    1.1555   -1.7128   -6.3483 C   0  0  0  0  0  0  0  0  0  0  0  0
    0.4711   -0.5895   -5.8593 C   0  0  0  0  0  0  0  0  0  0  0  0
   -0.4184   -0.7219   -4.7901 C   0  0  0  0  0  0  0  0  0  0  0  0
   -0.6211   -1.9832   -4.1989 C   0  0  0  0  0  0  0  0  0  0  0  0
   -0.1008   -4.0909   -4.2448 H   0  0  0  0  0  0  0  0  0  0  0  0
    1.4940   -3.8400   -6.1357 H   0  0  0  0  0  0  0  0  0  0  0  0
    1.8353   -1.6106   -7.1946 H   0  0  0  0  0  0  0  0  0  0  0  0
    0.6172    0.3834   -6.3293 H   0  0  0  0  0  0  0  0  0  0  0  0
   -0.9793    0.1447   -4.4375 H   0  0  0  0  0  0  0  0  0  0  0  0
   -1.3905   -2.1067   -3.4331 H   0  0  0  0  0  0  0  0  0  0  0  0
  1  3  1  0  0  0  0
  2  1  1  0  0  0  0
  3  4  1  0  0  0  0
  3  5  1  0  0  0  0
  6 12  1  0  0  0  0
  6 11  1  0  0  0  0
  7  6  2  0  0  0  0
  8  9  2  0  0  0  0
  8  7  1  0  0  0  0
  9 10  1  0  0  0  0
 10 16  1  0  0  0  0
 10 11  2  0  0  0  0
 11 17  1  0  0  0  0
 13  7  1  0  0  0  0
 14  8  1  0  0  0  0
 15  9  1  0  0  0  0
M  RAD  2   1   2   2   3
M  END
