Coordinates from ORCA-job C6H6+NH2N2+-aug-scan
 OpenBabel10121810033D

 17 16  0  0  0  0  0  0  0  0999 V2000
    0.0058   -0.0506    0.8069 N   0  0  0  0  0  0  0  0  0  0  0  0
    0.4923   -0.2799   -0.1566 N   0  0  0  0  0  0  0  0  0  0  0  0
    1.9337   -0.9637   -2.9108 N   0  0  0  0  0  0  0  0  0  0  0  0
    2.6968   -1.6190   -2.7387 H   0  0  0  0  0  0  0  0  0  0  0  0
    2.2936   -0.1245   -3.3673 H   0  0  0  0  0  0  0  0  0  0  0  0
   -0.0231   -3.6973   -5.1545 C   0  0  0  0  0  0  0  0  0  0  0  0
    0.9181   -3.1121   -4.2900 C   0  0  0  0  0  0  0  0  0  0  0  0
    0.7176   -1.7723   -4.0489 C   0  0  0  0  0  0  0  0  0  0  0  0
   -0.2682   -0.9445   -4.5362 C   0  0  0  0  0  0  0  0  0  0  0  0
   -1.1859   -1.5713   -5.3957 C   0  0  0  0  0  0  0  0  0  0  0  0
   -1.0603   -2.9319   -5.6982 C   0  0  0  0  0  0  0  0  0  0  0  0
    0.0691   -4.7563   -5.3950 H   0  0  0  0  0  0  0  0  0  0  0  0
    1.7314   -3.6916   -3.8575 H   0  0  0  0  0  0  0  0  0  0  0  0
    1.4594   -0.7280   -2.0319 H   0  0  0  0  0  0  0  0  0  0  0  0
   -0.3476    0.1118   -4.2868 H   0  0  0  0  0  0  0  0  0  0  0  0
   -1.9962   -0.9813   -5.8237 H   0  0  0  0  0  0  0  0  0  0  0  0
   -1.7805   -3.4019   -6.3672 H   0  0  0  0  0  0  0  0  0  0  0  0
  2  1  3  0  0  0  0
  3  4  1  0  0  0  0
  3 14  1  0  0  0  0
  5  3  1  0  0  0  0
  6  7  2  0  0  0  0
  7  8  1  0  0  0  0
  7 13  1  0  0  0  0
  8  3  1  0  0  0  0
  9 15  1  0  0  0  0
  9  8  2  0  0  0  0
 10  9  1  0  0  0  0
 11 10  2  0  0  0  0
 11  6  1  0  0  0  0
 12  6  1  0  0  0  0
 16 10  1  0  0  0  0
 17 11  1  0  0  0  0
M  END
