Coordinates from ORCA-job C6H6+NH2N2+-aug-scan
 OpenBabel10121810033D

 17 16  0  0  0  0  0  0  0  0999 V2000
    0.9684   -1.5105   -1.4475 N   0  0  0  0  0  0  0  0  0  0  0  0
    0.0299   -1.4459   -2.1616 N   0  0  0  0  0  0  0  0  0  0  0  0
    2.2587   -1.4742   -1.7654 N   0  0  0  0  0  0  0  0  0  0  0  0
    2.5009   -0.7802   -2.4714 H   0  0  0  0  0  0  0  0  0  0  0  0
    2.8484   -1.4484   -0.9360 H   0  0  0  0  0  0  0  0  0  0  0  0
   -0.0028   -3.3681   -4.8629 C   0  0  0  0  0  0  0  0  0  0  0  0
    0.9753   -2.5837   -4.2791 C   0  0  0  0  0  0  0  0  0  0  0  0
    0.7028   -1.2011   -3.9954 C   0  0  0  0  0  0  0  0  0  0  0  0
   -0.5075   -0.6155   -4.5085 C   0  0  0  0  0  0  0  0  0  0  0  0
   -1.4697   -1.4105   -5.1017 C   0  0  0  0  0  0  0  0  0  0  0  0
   -1.2237   -2.7869   -5.2614 C   0  0  0  0  0  0  0  0  0  0  0  0
    0.1772   -4.4277   -5.0417 H   0  0  0  0  0  0  0  0  0  0  0  0
    1.9356   -3.0171   -4.0020 H   0  0  0  0  0  0  0  0  0  0  0  0
    1.5300   -0.5029   -3.8677 H   0  0  0  0  0  0  0  0  0  0  0  0
   -0.6755    0.4532   -4.3734 H   0  0  0  0  0  0  0  0  0  0  0  0
   -2.4061   -0.9787   -5.4527 H   0  0  0  0  0  0  0  0  0  0  0  0
   -1.9861   -3.4161   -5.7237 H   0  0  0  0  0  0  0  0  0  0  0  0
  2  1  2  0  0  0  0
  3  1  1  0  0  0  0
  3  5  1  0  0  0  0
  4  3  1  0  0  0  0
  6  7  2  0  0  0  0
  7 13  1  0  0  0  0
  7  8  1  0  0  0  0
  8 14  1  0  0  0  0
  9 15  1  0  0  0  0
  9  8  2  0  0  0  0
 10  9  1  0  0  0  0
 11 10  2  0  0  0  0
 11  6  1  0  0  0  0
 12  6  1  0  0  0  0
 16 10  1  0  0  0  0
 17 11  1  0  0  0  0
M  RAD  1   2   2
M  END
