Coordinates from ORCA-job C6H6+NH2N2+-aug-scan
 OpenBabel10121810033D

 17 16  0  0  0  0  0  0  0  0999 V2000
    1.0907   -1.5313   -1.5505 N   0  0  0  0  0  0  0  0  0  0  0  0
    1.2488   -1.5460   -2.6762 N   0  0  0  0  0  0  0  0  0  0  0  0
    0.3829   -1.5063   -0.4536 N   0  0  0  0  0  0  0  0  0  0  0  0
   -0.5066   -2.0097   -0.5146 H   0  0  0  0  0  0  0  0  0  0  0  0
    0.9324   -1.5860    0.4008 H   0  0  0  0  0  0  0  0  0  0  0  0
   -0.0548   -3.1511   -4.5355 C   0  0  0  0  0  0  0  0  0  0  0  0
    0.9693   -2.9634   -5.4639 C   0  0  0  0  0  0  0  0  0  0  0  0
    1.2425   -1.6765   -5.9518 C   0  0  0  0  0  0  0  0  0  0  0  0
    0.4860   -0.5739   -5.5304 C   0  0  0  0  0  0  0  0  0  0  0  0
   -0.5391   -0.7508   -4.6000 C   0  0  0  0  0  0  0  0  0  0  0  0
   -0.8011   -2.0404   -4.0851 C   0  0  0  0  0  0  0  0  0  0  0  0
   -0.2889   -4.1508   -4.1681 H   0  0  0  0  0  0  0  0  0  0  0  0
    1.5495   -3.8150   -5.8191 H   0  0  0  0  0  0  0  0  0  0  0  0
    2.0404   -1.5355   -6.6818 H   0  0  0  0  0  0  0  0  0  0  0  0
    0.6925    0.4164   -5.9363 H   0  0  0  0  0  0  0  0  0  0  0  0
   -1.1463    0.0969   -4.2808 H   0  0  0  0  0  0  0  0  0  0  0  0
   -1.6425   -2.1908   -3.4052 H   0  0  0  0  0  0  0  0  0  0  0  0
  1  3  1  0  0  0  0
  2  1  1  0  0  0  0
  3  5  1  0  0  0  0
  4  3  1  0  0  0  0
  6 12  1  0  0  0  0
  6 11  1  0  0  0  0
  7  6  2  0  0  0  0
  8  9  2  0  0  0  0
  8  7  1  0  0  0  0
  9 10  1  0  0  0  0
 10 16  1  0  0  0  0
 10 11  2  0  0  0  0
 11 17  1  0  0  0  0
 13  7  1  0  0  0  0
 14  8  1  0  0  0  0
 15  9  1  0  0  0  0
M  RAD  2   1   2   2   3
M  END
