Coordinates from ORCA-job C6H6+NH2N2+-aug-scan
 OpenBabel10121810033D

 17 16  0  0  0  0  0  0  0  0999 V2000
    1.0593   -1.5794   -1.5142 N   0  0  0  0  0  0  0  0  0  0  0  0
    0.6517   -2.1614   -2.4046 N   0  0  0  0  0  0  0  0  0  0  0  0
    1.5763   -0.5215   -0.9450 N   0  0  0  0  0  0  0  0  0  0  0  0
    1.2750    0.3669   -1.3548 H   0  0  0  0  0  0  0  0  0  0  0  0
    1.6565   -0.5905    0.0681 H   0  0  0  0  0  0  0  0  0  0  0  0
   -0.2399   -3.4910   -5.3178 C   0  0  0  0  0  0  0  0  0  0  0  0
    1.0415   -2.9284   -5.3919 C   0  0  0  0  0  0  0  0  0  0  0  0
    1.2443   -1.6088   -4.9833 C   0  0  0  0  0  0  0  0  0  0  0  0
    0.1552   -0.8525   -4.4901 C   0  0  0  0  0  0  0  0  0  0  0  0
   -1.1372   -1.4184   -4.4396 C   0  0  0  0  0  0  0  0  0  0  0  0
   -1.3281   -2.7379   -4.8464 C   0  0  0  0  0  0  0  0  0  0  0  0
   -0.3972   -4.5201   -5.6426 H   0  0  0  0  0  0  0  0  0  0  0  0
    1.8740   -3.5156   -5.7792 H   0  0  0  0  0  0  0  0  0  0  0  0
    2.2324   -1.1542   -5.0626 H   0  0  0  0  0  0  0  0  0  0  0  0
    0.2958    0.2014   -4.2403 H   0  0  0  0  0  0  0  0  0  0  0  0
   -1.9813   -0.8203   -4.0954 H   0  0  0  0  0  0  0  0  0  0  0  0
   -2.3227   -3.1825   -4.8125 H   0  0  0  0  0  0  0  0  0  0  0  0
  1  3  1  0  0  0  0
  2  1  2  0  0  0  0
  3  5  1  0  0  0  0
  4  3  1  0  0  0  0
  6 11  1  0  0  0  0
  7  6  2  0  0  0  0
  7  8  1  0  0  0  0
  8  9  2  0  0  0  0
  9 10  1  0  0  0  0
  9 15  1  0  0  0  0
 10 16  1  0  0  0  0
 11 17  1  0  0  0  0
 11 10  2  0  0  0  0
 12  6  1  0  0  0  0
 13  7  1  0  0  0  0
 14  8  1  0  0  0  0
M  RAD  1   2   2
M  END
