Coordinates from ORCA-job C6H6+NH2N2+-aug-scan
 OpenBabel10121810033D

 17 16  0  0  0  0  0  0  0  0999 V2000
    1.0653   -1.5635   -1.5112 N   0  0  0  0  0  0  0  0  0  0  0  0
    0.6744   -2.1495   -2.4051 N   0  0  0  0  0  0  0  0  0  0  0  0
    1.5544   -0.5114   -0.9100 N   0  0  0  0  0  0  0  0  0  0  0  0
    1.2355    0.3819   -1.2952 H   0  0  0  0  0  0  0  0  0  0  0  0
    1.6342   -0.6079    0.1011 H   0  0  0  0  0  0  0  0  0  0  0  0
   -0.2438   -3.4962   -5.3177 C   0  0  0  0  0  0  0  0  0  0  0  0
    1.0372   -2.9349   -5.4158 C   0  0  0  0  0  0  0  0  0  0  0  0
    1.2480   -1.6133   -5.0192 C   0  0  0  0  0  0  0  0  0  0  0  0
    0.1689   -0.8533   -4.5123 C   0  0  0  0  0  0  0  0  0  0  0  0
   -1.1231   -1.4174   -4.4370 C   0  0  0  0  0  0  0  0  0  0  0  0
   -1.3228   -2.7391   -4.8334 C   0  0  0  0  0  0  0  0  0  0  0  0
   -0.4073   -4.5269   -5.6342 H   0  0  0  0  0  0  0  0  0  0  0  0
    1.8626   -3.5256   -5.8130 H   0  0  0  0  0  0  0  0  0  0  0  0
    2.2354   -1.1607   -5.1163 H   0  0  0  0  0  0  0  0  0  0  0  0
    0.3155    0.2012   -4.2688 H   0  0  0  0  0  0  0  0  0  0  0  0
   -1.9610   -0.8161   -4.0828 H   0  0  0  0  0  0  0  0  0  0  0  0
   -2.3176   -3.1817   -4.7812 H   0  0  0  0  0  0  0  0  0  0  0  0
  1  3  1  0  0  0  0
  2  1  2  0  0  0  0
  3  5  1  0  0  0  0
  4  3  1  0  0  0  0
  6 11  1  0  0  0  0
  7  6  2  0  0  0  0
  7  8  1  0  0  0  0
  8  9  2  0  0  0  0
  9 10  1  0  0  0  0
  9 15  1  0  0  0  0
 10 16  1  0  0  0  0
 11 17  1  0  0  0  0
 11 10  2  0  0  0  0
 12  6  1  0  0  0  0
 13  7  1  0  0  0  0
 14  8  1  0  0  0  0
M  RAD  1   2   2
M  END
