Coordinates from ORCA-job C6H6+NH2N2+-aug-scan
 OpenBabel10121810033D

 17 16  0  0  0  0  0  0  0  0999 V2000
    1.0173   -1.5820   -1.4879 N   0  0  0  0  0  0  0  0  0  0  0  0
    0.3098   -1.9313   -2.3110 N   0  0  0  0  0  0  0  0  0  0  0  0
    2.1412   -1.0577   -1.0714 N   0  0  0  0  0  0  0  0  0  0  0  0
    2.5431   -0.3640   -1.7078 H   0  0  0  0  0  0  0  0  0  0  0  0
    2.1720   -0.8808   -0.0690 H   0  0  0  0  0  0  0  0  0  0  0  0
   -0.1287   -3.4521   -5.0484 C   0  0  0  0  0  0  0  0  0  0  0  0
    1.0352   -2.7155   -4.8306 C   0  0  0  0  0  0  0  0  0  0  0  0
    0.9520   -1.3172   -4.6338 C   0  0  0  0  0  0  0  0  0  0  0  0
   -0.2997   -0.6634   -4.6984 C   0  0  0  0  0  0  0  0  0  0  0  0
   -1.4569   -1.4095   -4.9158 C   0  0  0  0  0  0  0  0  0  0  0  0
   -1.3707   -2.8004   -5.0852 C   0  0  0  0  0  0  0  0  0  0  0  0
   -0.0739   -4.5296   -5.2033 H   0  0  0  0  0  0  0  0  0  0  0  0
    2.0072   -3.2096   -4.8246 H   0  0  0  0  0  0  0  0  0  0  0  0
    1.8675   -0.7286   -4.5427 H   0  0  0  0  0  0  0  0  0  0  0  0
   -0.3552    0.4204   -4.5918 H   0  0  0  0  0  0  0  0  0  0  0  0
   -2.4262   -0.9139   -4.9686 H   0  0  0  0  0  0  0  0  0  0  0  0
   -2.2781   -3.3790   -5.2616 H   0  0  0  0  0  0  0  0  0  0  0  0
  1  3  1  0  0  0  0
  2  1  2  0  0  0  0
  3  5  1  0  0  0  0
  4  3  1  0  0  0  0
  6  7  1  0  0  0  0
  7 13  1  0  0  0  0
  7  8  2  0  0  0  0
  8 14  1  0  0  0  0
  9  8  1  0  0  0  0
  9 15  1  0  0  0  0
 10  9  2  0  0  0  0
 11  6  2  0  0  0  0
 11 10  1  0  0  0  0
 12  6  1  0  0  0  0
 16 10  1  0  0  0  0
 17 11  1  0  0  0  0
M  RAD  1   2   2
M  END
