Coordinates from ORCA-job C6H6+NH2N2+-aug-scan
 OpenBabel10121810033D

 17 16  0  0  0  0  0  0  0  0999 V2000
    0.1727   -1.1169   -0.6439 N   0  0  0  0  0  0  0  0  0  0  0  0
    0.1794   -1.3702   -1.7269 N   0  0  0  0  0  0  0  0  0  0  0  0
    2.0845   -0.7793   -3.3027 N   0  0  0  0  0  0  0  0  0  0  0  0
    2.9396   -1.2006   -2.9240 H   0  0  0  0  0  0  0  0  0  0  0  0
    2.1214   -0.9783   -4.3043 H   0  0  0  0  0  0  0  0  0  0  0  0
    0.0405   -3.5255   -4.6352 C   0  0  0  0  0  0  0  0  0  0  0  0
    0.4332   -3.0542   -3.3879 C   0  0  0  0  0  0  0  0  0  0  0  0
    0.1811   -1.6919   -3.0866 C   0  0  0  0  0  0  0  0  0  0  0  0
   -0.6656   -0.8960   -3.8992 C   0  0  0  0  0  0  0  0  0  0  0  0
   -1.0395   -1.4039   -5.1377 C   0  0  0  0  0  0  0  0  0  0  0  0
   -0.6752   -2.7041   -5.5195 C   0  0  0  0  0  0  0  0  0  0  0  0
    0.2731   -4.5542   -4.9094 H   0  0  0  0  0  0  0  0  0  0  0  0
    0.9581   -3.6889   -2.6758 H   0  0  0  0  0  0  0  0  0  0  0  0
    2.2500    0.2308   -3.2342 H   0  0  0  0  0  0  0  0  0  0  0  0
   -0.9686    0.0976   -3.5730 H   0  0  0  0  0  0  0  0  0  0  0  0
   -1.6446   -0.7871   -5.8018 H   0  0  0  0  0  0  0  0  0  0  0  0
   -0.9842   -3.0913   -6.4898 H   0  0  0  0  0  0  0  0  0  0  0  0
  2  1  1  0  0  0  0
  3 14  1  0  0  0  0
  3  4  1  0  0  0  0
  5  3  1  0  0  0  0
  6  7  2  0  0  0  0
  7  8  1  0  0  0  0
  7 13  1  0  0  0  0
  8  2  1  0  0  0  0
  9 15  1  0  0  0  0
  9  8  2  0  0  0  0
 10  9  1  0  0  0  0
 11 10  2  0  0  0  0
 11  6  1  0  0  0  0
 12  6  1  0  0  0  0
 16 10  1  0  0  0  0
 17 11  1  0  0  0  0
M  RAD  2   1   3   2   2
M  END
