Coordinates from ORCA-job C6H6+NH2N2+-aug-scan
 OpenBabel10121810033D

 17 16  0  0  0  0  0  0  0  0999 V2000
    0.9599   -1.6371   -1.4611 N   0  0  0  0  0  0  0  0  0  0  0  0
    0.1513   -1.9678   -2.2239 N   0  0  0  0  0  0  0  0  0  0  0  0
    2.1417   -1.0573   -1.5209 N   0  0  0  0  0  0  0  0  0  0  0  0
    2.2331   -0.3833   -2.2827 H   0  0  0  0  0  0  0  0  0  0  0  0
    2.5037   -0.7844   -0.6102 H   0  0  0  0  0  0  0  0  0  0  0  0
   -0.0860   -3.4315   -5.0417 C   0  0  0  0  0  0  0  0  0  0  0  0
    1.0239   -2.7476   -4.5632 C   0  0  0  0  0  0  0  0  0  0  0  0
    0.9072   -1.3715   -4.2186 C   0  0  0  0  0  0  0  0  0  0  0  0
   -0.3175   -0.6835   -4.4513 C   0  0  0  0  0  0  0  0  0  0  0  0
   -1.4200   -1.3819   -4.9303 C   0  0  0  0  0  0  0  0  0  0  0  0
   -1.3042   -2.7510   -5.2183 C   0  0  0  0  0  0  0  0  0  0  0  0
   -0.0112   -4.4886   -5.2953 H   0  0  0  0  0  0  0  0  0  0  0  0
    1.9801   -3.2572   -4.4419 H   0  0  0  0  0  0  0  0  0  0  0  0
    1.8178   -0.7957   -4.0525 H   0  0  0  0  0  0  0  0  0  0  0  0
   -0.3876    0.3853   -4.2468 H   0  0  0  0  0  0  0  0  0  0  0  0
   -2.3658   -0.8670   -5.0958 H   0  0  0  0  0  0  0  0  0  0  0  0
   -2.1707   -3.2943   -5.5976 H   0  0  0  0  0  0  0  0  0  0  0  0
  2  1  2  0  0  0  0
  3  1  1  0  0  0  0
  3  5  1  0  0  0  0
  4  3  1  0  0  0  0
  6  7  1  0  0  0  0
  7 13  1  0  0  0  0
  7  8  2  0  0  0  0
  8 14  1  0  0  0  0
  9 15  1  0  0  0  0
  9  8  1  0  0  0  0
 10  9  2  0  0  0  0
 11  6  2  0  0  0  0
 11 10  1  0  0  0  0
 12  6  1  0  0  0  0
 16 10  1  0  0  0  0
 17 11  1  0  0  0  0
M  RAD  1   2   2
M  END
