Coordinates from ORCA-job C6H6+NH2N2+-aug-scan
 OpenBabel10121810033D

 17 16  0  0  0  0  0  0  0  0999 V2000
    0.9992   -1.5991   -1.4625 N   0  0  0  0  0  0  0  0  0  0  0  0
    0.2557   -1.9634   -2.2553 N   0  0  0  0  0  0  0  0  0  0  0  0
    2.1540   -1.0299   -1.2230 N   0  0  0  0  0  0  0  0  0  0  0  0
    2.4640   -0.3791   -1.9493 H   0  0  0  0  0  0  0  0  0  0  0  0
    2.3092   -0.7902   -0.2465 H   0  0  0  0  0  0  0  0  0  0  0  0
   -0.1220   -3.4489   -5.0644 C   0  0  0  0  0  0  0  0  0  0  0  0
    1.0260   -2.7339   -4.7325 C   0  0  0  0  0  0  0  0  0  0  0  0
    0.9340   -1.3441   -4.4714 C   0  0  0  0  0  0  0  0  0  0  0  0
   -0.3087   -0.6762   -4.5979 C   0  0  0  0  0  0  0  0  0  0  0  0
   -1.4494   -1.4026   -4.9298 C   0  0  0  0  0  0  0  0  0  0  0  0
   -1.3555   -2.7850   -5.1573 C   0  0  0  0  0  0  0  0  0  0  0  0
   -0.0624   -4.5184   -5.2648 H   0  0  0  0  0  0  0  0  0  0  0  0
    1.9930   -3.2348   -4.6807 H   0  0  0  0  0  0  0  0  0  0  0  0
    1.8475   -0.7632   -4.3230 H   0  0  0  0  0  0  0  0  0  0  0  0
   -0.3669    0.4018   -4.4448 H   0  0  0  0  0  0  0  0  0  0  0  0
   -2.4108   -0.8988   -5.0267 H   0  0  0  0  0  0  0  0  0  0  0  0
   -2.2510   -3.3484   -5.4222 H   0  0  0  0  0  0  0  0  0  0  0  0
  1  3  1  0  0  0  0
  2  1  2  0  0  0  0
  3  5  1  0  0  0  0
  4  3  1  0  0  0  0
  6  7  1  0  0  0  0
  7 13  1  0  0  0  0
  7  8  2  0  0  0  0
  8 14  1  0  0  0  0
  9  8  1  0  0  0  0
  9 15  1  0  0  0  0
 10  9  2  0  0  0  0
 11  6  2  0  0  0  0
 11 10  1  0  0  0  0
 12  6  1  0  0  0  0
 16 10  1  0  0  0  0
 17 11  1  0  0  0  0
M  RAD  1   2   2
M  END
