Coordinates from ORCA-job C6H6+NH2N2+-aug-scan
 OpenBabel10121810033D

 17 16  0  0  0  0  0  0  0  0999 V2000
    0.9677   -1.6320   -1.4554 N   0  0  0  0  0  0  0  0  0  0  0  0
    0.1765   -1.9877   -2.2228 N   0  0  0  0  0  0  0  0  0  0  0  0
    2.1364   -1.0292   -1.4789 N   0  0  0  0  0  0  0  0  0  0  0  0
    2.2577   -0.3831   -2.2606 H   0  0  0  0  0  0  0  0  0  0  0  0
    2.4666   -0.7383   -0.5622 H   0  0  0  0  0  0  0  0  0  0  0  0
   -0.0943   -3.4360   -5.0573 C   0  0  0  0  0  0  0  0  0  0  0  0
    1.0231   -2.7556   -4.5903 C   0  0  0  0  0  0  0  0  0  0  0  0
    0.9140   -1.3802   -4.2439 C   0  0  0  0  0  0  0  0  0  0  0  0
   -0.3110   -0.6886   -4.4572 C   0  0  0  0  0  0  0  0  0  0  0  0
   -1.4210   -1.3834   -4.9242 C   0  0  0  0  0  0  0  0  0  0  0  0
   -1.3126   -2.7523   -5.2173 C   0  0  0  0  0  0  0  0  0  0  0  0
   -0.0253   -4.4928   -5.3137 H   0  0  0  0  0  0  0  0  0  0  0  0
    1.9792   -3.2680   -4.4812 H   0  0  0  0  0  0  0  0  0  0  0  0
    1.8276   -0.8089   -4.0737 H   0  0  0  0  0  0  0  0  0  0  0  0
   -0.3759    0.3798   -4.2494 H   0  0  0  0  0  0  0  0  0  0  0  0
   -2.3677   -0.8658   -5.0767 H   0  0  0  0  0  0  0  0  0  0  0  0
   -2.1851   -3.2922   -5.5872 H   0  0  0  0  0  0  0  0  0  0  0  0
  2  1  2  0  0  0  0
  3  1  1  0  0  0  0
  3  5  1  0  0  0  0
  4  3  1  0  0  0  0
  6  7  1  0  0  0  0
  7 13  1  0  0  0  0
  7  8  2  0  0  0  0
  8 14  1  0  0  0  0
  9 15  1  0  0  0  0
  9  8  1  0  0  0  0
 10  9  2  0  0  0  0
 11  6  2  0  0  0  0
 11 10  1  0  0  0  0
 12  6  1  0  0  0  0
 16 10  1  0  0  0  0
 17 11  1  0  0  0  0
M  RAD  1   2   2
M  END
