Coordinates from ORCA-job C6H6+NH2N2+-aug-scan
 OpenBabel10121810033D

 17 16  0  0  0  0  0  0  0  0999 V2000
    1.0798   -1.5305   -1.5286 N   0  0  0  0  0  0  0  0  0  0  0  0
    0.8161   -2.1090   -2.4686 N   0  0  0  0  0  0  0  0  0  0  0  0
    1.3693   -0.5027   -0.7773 N   0  0  0  0  0  0  0  0  0  0  0  0
    0.8829    0.3597   -1.0378 H   0  0  0  0  0  0  0  0  0  0  0  0
    1.4712   -0.7260    0.2121 H   0  0  0  0  0  0  0  0  0  0  0  0
   -0.2483   -3.5071   -5.2632 C   0  0  0  0  0  0  0  0  0  0  0  0
    1.0179   -2.9599   -5.5272 C   0  0  0  0  0  0  0  0  0  0  0  0
    1.2778   -1.6233   -5.2234 C   0  0  0  0  0  0  0  0  0  0  0  0
    0.2677   -0.8310   -4.6405 C   0  0  0  0  0  0  0  0  0  0  0  0
   -1.0101   -1.3802   -4.3934 C   0  0  0  0  0  0  0  0  0  0  0  0
   -1.2623   -2.7193   -4.7030 C   0  0  0  0  0  0  0  0  0  0  0  0
   -0.4481   -4.5500   -5.5112 H   0  0  0  0  0  0  0  0  0  0  0  0
    1.7924   -3.5775   -5.9822 H   0  0  0  0  0  0  0  0  0  0  0  0
    2.2518   -1.1873   -5.4467 H   0  0  0  0  0  0  0  0  0  0  0  0
    0.4502    0.2291   -4.4539 H   0  0  0  0  0  0  0  0  0  0  0  0
   -1.8036   -0.7529   -3.9851 H   0  0  0  0  0  0  0  0  0  0  0  0
   -2.2488   -3.1464   -4.5222 H   0  0  0  0  0  0  0  0  0  0  0  0
  1  3  1  0  0  0  0
  2  1  1  0  0  0  0
  3  5  1  0  0  0  0
  4  3  1  0  0  0  0
  6 11  1  0  0  0  0
  7  6  2  0  0  0  0
  7  8  1  0  0  0  0
  8  9  2  0  0  0  0
  9 15  1  0  0  0  0
  9 10  1  0  0  0  0
 10 16  1  0  0  0  0
 11 17  1  0  0  0  0
 11 10  2  0  0  0  0
 12  6  1  0  0  0  0
 13  7  1  0  0  0  0
 14  8  1  0  0  0  0
M  RAD  2   1   2   2   3
M  END
