Coordinates from ORCA-job C6H6+NH2N2+-aug-scan
 OpenBabel10121810033D

 17 16  0  0  0  0  0  0  0  0999 V2000
    1.0813   -1.5064   -1.5486 N   0  0  0  0  0  0  0  0  0  0  0  0
    1.0478   -1.9842   -2.5773 N   0  0  0  0  0  0  0  0  0  0  0  0
    0.8580   -0.6241   -0.6116 N   0  0  0  0  0  0  0  0  0  0  0  0
   -0.0702   -0.1939   -0.6535 H   0  0  0  0  0  0  0  0  0  0  0  0
    1.2301   -0.8858    0.3008 H   0  0  0  0  0  0  0  0  0  0  0  0
   -0.2100   -3.4712   -5.0704 C   0  0  0  0  0  0  0  0  0  0  0  0
    0.9677   -3.0029   -5.6752 C   0  0  0  0  0  0  0  0  0  0  0  0
    1.3083   -1.6453   -5.6156 C   0  0  0  0  0  0  0  0  0  0  0  0
    0.4754   -0.7488   -4.9405 C   0  0  0  0  0  0  0  0  0  0  0  0
   -0.7008   -1.2193   -4.3154 C   0  0  0  0  0  0  0  0  0  0  0  0
   -1.0483   -2.5829   -4.3956 C   0  0  0  0  0  0  0  0  0  0  0  0
   -0.4747   -4.5263   -5.1408 H   0  0  0  0  0  0  0  0  0  0  0  0
    1.6145   -3.7000   -6.2089 H   0  0  0  0  0  0  0  0  0  0  0  0
    2.2132   -1.2876   -6.1069 H   0  0  0  0  0  0  0  0  0  0  0  0
    0.7195    0.3138   -4.9130 H   0  0  0  0  0  0  0  0  0  0  0  0
   -1.3807   -0.5125   -3.8356 H   0  0  0  0  0  0  0  0  0  0  0  0
   -1.9753   -2.9369   -3.9438 H   0  0  0  0  0  0  0  0  0  0  0  0
  1  3  1  0  0  0  0
  2  1  1  0  0  0  0
  3  5  1  0  0  0  0
  4  3  1  0  0  0  0
  6 11  2  0  0  0  0
  7  8  2  0  0  0  0
  7  6  1  0  0  0  0
  8  9  1  0  0  0  0
  9 15  1  0  0  0  0
  9 10  2  0  0  0  0
 10 16  1  0  0  0  0
 11 10  1  0  0  0  0
 11 17  1  0  0  0  0
 12  6  1  0  0  0  0
 13  7  1  0  0  0  0
 14  8  1  0  0  0  0
M  RAD  2   1   2   2   3
M  END
