Coordinates from ORCA-job C6H6+NH2N2+-aug-scan
 OpenBabel10121810033D

 17 16  0  0  0  0  0  0  0  0999 V2000
    1.0641   -1.5663   -1.5121 N   0  0  0  0  0  0  0  0  0  0  0  0
    0.6713   -2.1517   -2.4057 N   0  0  0  0  0  0  0  0  0  0  0  0
    1.5565   -0.5131   -0.9152 N   0  0  0  0  0  0  0  0  0  0  0  0
    1.2396    0.3795   -1.3037 H   0  0  0  0  0  0  0  0  0  0  0  0
    1.6368   -0.6059    0.0961 H   0  0  0  0  0  0  0  0  0  0  0  0
   -0.2431   -3.4953   -5.3172 C   0  0  0  0  0  0  0  0  0  0  0  0
    1.0379   -2.9339   -5.4125 C   0  0  0  0  0  0  0  0  0  0  0  0
    1.2478   -1.6125   -5.0146 C   0  0  0  0  0  0  0  0  0  0  0  0
    0.1674   -0.8529   -4.5094 C   0  0  0  0  0  0  0  0  0  0  0  0
   -1.1246   -1.4172   -4.4369 C   0  0  0  0  0  0  0  0  0  0  0  0
   -1.3233   -2.7387   -4.8345 C   0  0  0  0  0  0  0  0  0  0  0  0
   -0.4059   -4.5259   -5.6345 H   0  0  0  0  0  0  0  0  0  0  0  0
    1.8641   -3.5242   -5.8085 H   0  0  0  0  0  0  0  0  0  0  0  0
    2.2353   -1.1596   -5.1097 H   0  0  0  0  0  0  0  0  0  0  0  0
    0.3133    0.2015   -4.2652 H   0  0  0  0  0  0  0  0  0  0  0  0
   -1.9633   -0.8163   -4.0841 H   0  0  0  0  0  0  0  0  0  0  0  0
   -2.3180   -3.1817   -4.7843 H   0  0  0  0  0  0  0  0  0  0  0  0
  1  3  1  0  0  0  0
  2  1  2  0  0  0  0
  3  5  1  0  0  0  0
  4  3  1  0  0  0  0
  6 11  1  0  0  0  0
  7  6  2  0  0  0  0
  7  8  1  0  0  0  0
  8  9  2  0  0  0  0
  9 10  1  0  0  0  0
  9 15  1  0  0  0  0
 10 16  1  0  0  0  0
 11 17  1  0  0  0  0
 11 10  2  0  0  0  0
 12  6  1  0  0  0  0
 13  7  1  0  0  0  0
 14  8  1  0  0  0  0
M  RAD  1   2   2
M  END
