Coordinates from ORCA-job C6H6+NH2N2+-aug-scan
 OpenBabel10121810033D

 17 16  0  0  0  0  0  0  0  0999 V2000
    0.7636   -1.5600   -0.8173 N   0  0  0  0  0  0  0  0  0  0  0  0
    1.1465   -1.4691   -1.8727 N   0  0  0  0  0  0  0  0  0  0  0  0
    0.1981   -1.5887    0.3500 N   0  0  0  0  0  0  0  0  0  0  0  0
   -0.6770   -2.1178    0.3938 H   0  0  0  0  0  0  0  0  0  0  0  0
    0.8491   -1.6205    1.1374 H   0  0  0  0  0  0  0  0  0  0  0  0
    0.1402   -3.0902   -4.7323 C   0  0  0  0  0  0  0  0  0  0  0  0
    0.9498   -2.9750   -5.8654 C   0  0  0  0  0  0  0  0  0  0  0  0
    1.0999   -1.7320   -6.4992 C   0  0  0  0  0  0  0  0  0  0  0  0
    0.4542   -0.5979   -5.9831 C   0  0  0  0  0  0  0  0  0  0  0  0
   -0.3563   -0.7077   -4.8502 C   0  0  0  0  0  0  0  0  0  0  0  0
   -0.5208   -1.9569   -4.2251 C   0  0  0  0  0  0  0  0  0  0  0  0
   -0.0056   -4.0655   -4.2654 H   0  0  0  0  0  0  0  0  0  0  0  0
    1.4488   -3.8556   -6.2706 H   0  0  0  0  0  0  0  0  0  0  0  0
    1.7187   -1.6473   -7.3929 H   0  0  0  0  0  0  0  0  0  0  0  0
    0.5692    0.3661   -6.4794 H   0  0  0  0  0  0  0  0  0  0  0  0
   -0.8862    0.1682   -4.4732 H   0  0  0  0  0  0  0  0  0  0  0  0
   -1.2365   -2.0643   -3.4063 H   0  0  0  0  0  0  0  0  0  0  0  0
  1  3  1  0  0  0  0
  2  1  1  0  0  0  0
  3  4  1  0  0  0  0
  3  5  1  0  0  0  0
  6 12  1  0  0  0  0
  6 11  1  0  0  0  0
  7  6  2  0  0  0  0
  8  9  2  0  0  0  0
  8  7  1  0  0  0  0
  9 10  1  0  0  0  0
 10 16  1  0  0  0  0
 10 11  2  0  0  0  0
 11 17  1  0  0  0  0
 13  7  1  0  0  0  0
 14  8  1  0  0  0  0
 15  9  1  0  0  0  0
M  RAD  2   1   2   2   3
M  END
