Coordinates from ORCA-job C6H6+NH2N2+-aug-scan
 OpenBabel10121810033D

 17 16  0  0  0  0  0  0  0  0999 V2000
    1.2132   -1.5074   -1.7133 N   0  0  0  0  0  0  0  0  0  0  0  0
    1.3055   -1.5398   -2.8502 N   0  0  0  0  0  0  0  0  0  0  0  0
    0.3919   -1.4926   -0.6976 N   0  0  0  0  0  0  0  0  0  0  0  0
   -0.4916   -1.9791   -0.8742 H   0  0  0  0  0  0  0  0  0  0  0  0
    0.8396   -1.6066    0.2090 H   0  0  0  0  0  0  0  0  0  0  0  0
   -0.0792   -3.1673   -4.4707 C   0  0  0  0  0  0  0  0  0  0  0  0
    0.9609   -2.9676   -5.3756 C   0  0  0  0  0  0  0  0  0  0  0  0
    1.2521   -1.6694   -5.8199 C   0  0  0  0  0  0  0  0  0  0  0  0
    0.4806   -0.5706   -5.4245 C   0  0  0  0  0  0  0  0  0  0  0  0
   -0.5577   -0.7562   -4.5121 C   0  0  0  0  0  0  0  0  0  0  0  0
   -0.8190   -2.0546   -4.0078 C   0  0  0  0  0  0  0  0  0  0  0  0
   -0.3252   -4.1696   -4.1189 H   0  0  0  0  0  0  0  0  0  0  0  0
    1.5484   -3.8119   -5.7351 H   0  0  0  0  0  0  0  0  0  0  0  0
    2.0732   -1.5194   -6.5220 H   0  0  0  0  0  0  0  0  0  0  0  0
    0.6972    0.4217   -5.8187 H   0  0  0  0  0  0  0  0  0  0  0  0
   -1.1705    0.0854   -4.1881 H   0  0  0  0  0  0  0  0  0  0  0  0
   -1.6635   -2.2092   -3.3325 H   0  0  0  0  0  0  0  0  0  0  0  0
  1  3  1  0  0  0  0
  2  1  2  0  0  0  0
  3  5  1  0  0  0  0
  4  3  1  0  0  0  0
  6 12  1  0  0  0  0
  6 11  1  0  0  0  0
  7  6  2  0  0  0  0
  8  9  2  0  0  0  0
  8  7  1  0  0  0  0
  9 10  1  0  0  0  0
 10 16  1  0  0  0  0
 10 11  2  0  0  0  0
 11 17  1  0  0  0  0
 13  7  1  0  0  0  0
 14  8  1  0  0  0  0
 15  9  1  0  0  0  0
M  RAD  1   2   2
M  END
