Coordinates from ORCA-job C6H6+NH2N2+-aug-scan
 OpenBabel10121810033D

 17 16  0  0  0  0  0  0  0  0999 V2000
    1.0833   -1.5097   -1.5511 N   0  0  0  0  0  0  0  0  0  0  0  0
    1.0490   -1.9882   -2.5797 N   0  0  0  0  0  0  0  0  0  0  0  0
    0.8581   -0.6230   -0.6185 N   0  0  0  0  0  0  0  0  0  0  0  0
   -0.0691   -0.1913   -0.6657 H   0  0  0  0  0  0  0  0  0  0  0  0
    1.2262   -0.8818    0.2964 H   0  0  0  0  0  0  0  0  0  0  0  0
   -0.2109   -3.4709   -5.0709 C   0  0  0  0  0  0  0  0  0  0  0  0
    0.9673   -3.0020   -5.6746 C   0  0  0  0  0  0  0  0  0  0  0  0
    1.3087   -1.6447   -5.6120 C   0  0  0  0  0  0  0  0  0  0  0  0
    0.4761   -0.7491   -4.9354 C   0  0  0  0  0  0  0  0  0  0  0  0
   -0.7005   -1.2204   -4.3113 C   0  0  0  0  0  0  0  0  0  0  0  0
   -1.0487   -2.5836   -4.3944 C   0  0  0  0  0  0  0  0  0  0  0  0
   -0.4760   -4.5258   -5.1435 H   0  0  0  0  0  0  0  0  0  0  0  0
    1.6139   -3.6983   -6.2096 H   0  0  0  0  0  0  0  0  0  0  0  0
    2.2139   -1.2865   -6.1025 H   0  0  0  0  0  0  0  0  0  0  0  0
    0.7206    0.3134   -4.9059 H   0  0  0  0  0  0  0  0  0  0  0  0
   -1.3802   -0.5143   -3.8303 H   0  0  0  0  0  0  0  0  0  0  0  0
   -1.9759   -2.9382   -3.9431 H   0  0  0  0  0  0  0  0  0  0  0  0
  1  3  1  0  0  0  0
  2  1  1  0  0  0  0
  3  5  1  0  0  0  0
  4  3  1  0  0  0  0
  6 11  2  0  0  0  0
  7  8  2  0  0  0  0
  7  6  1  0  0  0  0
  8  9  1  0  0  0  0
  9 15  1  0  0  0  0
  9 10  2  0  0  0  0
 10 16  1  0  0  0  0
 11 10  1  0  0  0  0
 11 17  1  0  0  0  0
 12  6  1  0  0  0  0
 13  7  1  0  0  0  0
 14  8  1  0  0  0  0
M  RAD  2   1   2   2   3
M  END
