Coordinates from ORCA-job C6H6+NH2N2+-aug-scan
 OpenBabel10121810033D

 17 16  0  0  0  0  0  0  0  0999 V2000
    0.7624   -1.5597   -0.8109 N   0  0  0  0  0  0  0  0  0  0  0  0
    1.1453   -1.4687   -1.8663 N   0  0  0  0  0  0  0  0  0  0  0  0
    0.1976   -1.5887    0.3568 N   0  0  0  0  0  0  0  0  0  0  0  0
   -0.6770   -2.1186    0.4009 H   0  0  0  0  0  0  0  0  0  0  0  0
    0.8492   -1.6201    1.1437 H   0  0  0  0  0  0  0  0  0  0  0  0
    0.1407   -3.0901   -4.7347 C   0  0  0  0  0  0  0  0  0  0  0  0
    0.9496   -2.9751   -5.8685 C   0  0  0  0  0  0  0  0  0  0  0  0
    1.0993   -1.7323   -6.5026 C   0  0  0  0  0  0  0  0  0  0  0  0
    0.4541   -0.5980   -5.9862 C   0  0  0  0  0  0  0  0  0  0  0  0
   -0.3555   -0.7076   -4.8527 C   0  0  0  0  0  0  0  0  0  0  0  0
   -0.5198   -1.9566   -4.2273 C   0  0  0  0  0  0  0  0  0  0  0  0
   -0.0048   -4.0652   -4.2676 H   0  0  0  0  0  0  0  0  0  0  0  0
    1.4483   -3.8559   -6.2738 H   0  0  0  0  0  0  0  0  0  0  0  0
    1.7176   -1.6478   -7.3967 H   0  0  0  0  0  0  0  0  0  0  0  0
    0.5688    0.3658   -6.4827 H   0  0  0  0  0  0  0  0  0  0  0  0
   -0.8851    0.1684   -4.4755 H   0  0  0  0  0  0  0  0  0  0  0  0
   -1.2349   -2.0639   -3.4079 H   0  0  0  0  0  0  0  0  0  0  0  0
  1  3  1  0  0  0  0
  2  1  1  0  0  0  0
  3  4  1  0  0  0  0
  3  5  1  0  0  0  0
  6 12  1  0  0  0  0
  6 11  1  0  0  0  0
  7  6  2  0  0  0  0
  8  9  2  0  0  0  0
  8  7  1  0  0  0  0
  9 10  1  0  0  0  0
 10 16  1  0  0  0  0
 10 11  2  0  0  0  0
 11 17  1  0  0  0  0
 13  7  1  0  0  0  0
 14  8  1  0  0  0  0
 15  9  1  0  0  0  0
M  RAD  2   1   2   2   3
M  END
