Coordinates from ORCA-job C6H6+NH2N2+-aug-scan
 OpenBabel10121810033D

 17 17  0  0  1  0  0  0  0  0999 V2000
    1.1008   -1.3501   -1.3926 N   0  0  0  0  0  0  0  0  0  0  0  0
    0.1231   -1.2700   -2.1243 N   0  0  0  0  0  0  0  0  0  0  0  0
    2.3343   -1.4468   -1.8668 N   0  0  0  0  0  0  0  0  0  0  0  0
    2.5737   -0.9673   -2.7319 H   0  0  0  0  0  0  0  0  0  0  0  0
    3.0306   -1.3601   -1.1320 H   0  0  0  0  0  0  0  0  0  0  0  0
   -0.0068   -3.3769   -4.8636 C   0  0  0  0  0  0  0  0  0  0  0  0
    0.8515   -2.6490   -4.0739 C   0  0  0  0  0  0  0  0  0  0  0  0
    0.5389   -1.2630   -3.7002 C   0  0  1  0  0  0  0  0  0  0  0  0
   -0.6223   -0.6616   -4.3749 C   0  0  0  0  0  0  0  0  0  0  0  0
   -1.4491   -1.3967   -5.1870 C   0  0  0  0  0  0  0  0  0  0  0  0
   -1.1539   -2.7597   -5.4113 C   0  0  0  0  0  0  0  0  0  0  0  0
    0.2020   -4.4228   -5.0862 H   0  0  0  0  0  0  0  0  0  0  0  0
    1.7463   -3.1194   -3.6688 H   0  0  0  0  0  0  0  0  0  0  0  0
    1.3793   -0.5589   -3.7934 H   0  0  0  0  0  0  0  0  0  0  0  0
   -0.8421    0.3851   -4.1585 H   0  0  0  0  0  0  0  0  0  0  0  0
   -2.3259   -0.9449   -5.6494 H   0  0  0  0  0  0  0  0  0  0  0  0
   -1.8246   -3.3521   -6.0373 H   0  0  0  0  0  0  0  0  0  0  0  0
  2  1  1  0  0  0  0
  3  1  1  0  0  0  0
  3  5  1  0  0  0  0
  4  3  1  0  0  0  0
  6  7  2  0  0  0  0
  7  8  1  0  0  0  0
  7 13  1  0  0  0  0
  8 14  1  6  0  0  0
  8  2  1  0  0  0  0
  9 15  1  0  0  0  0
  9  8  1  0  0  0  0
 10  9  2  0  0  0  0
 11 10  1  0  0  0  0
 11  6  1  0  0  0  0
 12  6  1  0  0  0  0
 16 10  1  0  0  0  0
 17 11  1  0  0  0  0
M  RAD  3   1   2   2   2  11   2
M  END
