Coordinates from ORCA-job C6H6+NH2N2+-aug-scan
 OpenBabel10121810033D

 17 16  0  0  0  0  0  0  0  0999 V2000
    0.9037   -1.5506   -1.1656 N   0  0  0  0  0  0  0  0  0  0  0  0
    1.2058   -1.5010   -2.2544 N   0  0  0  0  0  0  0  0  0  0  0  0
    0.2704   -1.5644   -0.0288 N   0  0  0  0  0  0  0  0  0  0  0  0
   -0.6095   -2.0878   -0.0332 H   0  0  0  0  0  0  0  0  0  0  0  0
    0.8775   -1.6179    0.7900 H   0  0  0  0  0  0  0  0  0  0  0  0
    0.0596   -3.1097   -4.6191 C   0  0  0  0  0  0  0  0  0  0  0  0
    0.9641   -2.9666   -5.6734 C   0  0  0  0  0  0  0  0  0  0  0  0
    1.1633   -1.7081   -6.2624 C   0  0  0  0  0  0  0  0  0  0  0  0
    0.4705   -0.5858   -5.7818 C   0  0  0  0  0  0  0  0  0  0  0  0
   -0.4351   -0.7217   -4.7277 C   0  0  0  0  0  0  0  0  0  0  0  0
   -0.6438   -1.9860   -4.1413 C   0  0  0  0  0  0  0  0  0  0  0  0
   -0.1248   -4.0949   -4.1886 H   0  0  0  0  0  0  0  0  0  0  0  0
    1.4993   -3.8364   -6.0549 H   0  0  0  0  0  0  0  0  0  0  0  0
    1.8570   -1.6023   -7.0970 H   0  0  0  0  0  0  0  0  0  0  0  0
    0.6240    0.3882   -6.2468 H   0  0  0  0  0  0  0  0  0  0  0  0
   -1.0014    0.1429   -4.3792 H   0  0  0  0  0  0  0  0  0  0  0  0
   -1.4248   -2.1123   -3.3879 H   0  0  0  0  0  0  0  0  0  0  0  0
  1  3  1  0  0  0  0
  2  1  1  0  0  0  0
  3  5  1  0  0  0  0
  4  3  1  0  0  0  0
  6 12  1  0  0  0  0
  6 11  1  0  0  0  0
  7  6  2  0  0  0  0
  8  9  2  0  0  0  0
  8  7  1  0  0  0  0
  9 10  1  0  0  0  0
 10 16  1  0  0  0  0
 10 11  2  0  0  0  0
 11 17  1  0  0  0  0
 13  7  1  0  0  0  0
 14  8  1  0  0  0  0
 15  9  1  0  0  0  0
M  RAD  2   1   2   2   3
M  END
