Coordinates from ORCA-job C6H6+NH2N2+-aug-scan
 OpenBabel10121810033D

 17 16  0  0  0  0  0  0  0  0999 V2000
    0.7648   -1.5604   -0.8237 N   0  0  0  0  0  0  0  0  0  0  0  0
    1.1478   -1.4694   -1.8791 N   0  0  0  0  0  0  0  0  0  0  0  0
    0.1986   -1.5886    0.3434 N   0  0  0  0  0  0  0  0  0  0  0  0
   -0.6769   -2.1170    0.3867 H   0  0  0  0  0  0  0  0  0  0  0  0
    0.8492   -1.6209    1.1311 H   0  0  0  0  0  0  0  0  0  0  0  0
    0.1395   -3.0904   -4.7299 C   0  0  0  0  0  0  0  0  0  0  0  0
    0.9500   -2.9748   -5.8624 C   0  0  0  0  0  0  0  0  0  0  0  0
    1.1005   -1.7317   -6.4958 C   0  0  0  0  0  0  0  0  0  0  0  0
    0.4543   -0.5977   -5.9800 C   0  0  0  0  0  0  0  0  0  0  0  0
   -0.3570   -0.7078   -4.8478 C   0  0  0  0  0  0  0  0  0  0  0  0
   -0.5219   -1.9571   -4.2229 C   0  0  0  0  0  0  0  0  0  0  0  0
   -0.0066   -4.0657   -4.2633 H   0  0  0  0  0  0  0  0  0  0  0  0
    1.4494   -3.8554   -6.2673 H   0  0  0  0  0  0  0  0  0  0  0  0
    1.7200   -1.6468   -7.3890 H   0  0  0  0  0  0  0  0  0  0  0  0
    0.5696    0.3663   -6.4761 H   0  0  0  0  0  0  0  0  0  0  0  0
   -0.8873    0.1679   -4.4710 H   0  0  0  0  0  0  0  0  0  0  0  0
   -1.2382   -2.0648   -3.4047 H   0  0  0  0  0  0  0  0  0  0  0  0
  1  3  1  0  0  0  0
  2  1  1  0  0  0  0
  3  4  1  0  0  0  0
  3  5  1  0  0  0  0
  6 12  1  0  0  0  0
  6 11  1  0  0  0  0
  7  6  2  0  0  0  0
  8  9  2  0  0  0  0
  8  7  1  0  0  0  0
  9 10  1  0  0  0  0
 10 16  1  0  0  0  0
 10 11  2  0  0  0  0
 11 17  1  0  0  0  0
 13  7  1  0  0  0  0
 14  8  1  0  0  0  0
 15  9  1  0  0  0  0
M  RAD  2   1   2   2   3
M  END
