Coordinates from ORCA-job C6H6+NH2N2+-aug-scan
 OpenBabel10121810033D

 17 16  0  0  0  0  0  0  0  0999 V2000
    1.0547   -1.5812   -1.5095 N   0  0  0  0  0  0  0  0  0  0  0  0
    0.6085   -2.1589   -2.3843 N   0  0  0  0  0  0  0  0  0  0  0  0
    1.6351   -0.5385   -0.9746 N   0  0  0  0  0  0  0  0  0  0  0  0
    1.3831    0.3534   -1.4093 H   0  0  0  0  0  0  0  0  0  0  0  0
    1.7183   -0.5821    0.0396 H   0  0  0  0  0  0  0  0  0  0  0  0
   -0.2337   -3.4889   -5.3220 C   0  0  0  0  0  0  0  0  0  0  0  0
    1.0459   -2.9204   -5.3503 C   0  0  0  0  0  0  0  0  0  0  0  0
    1.2272   -1.6007   -4.9294 C   0  0  0  0  0  0  0  0  0  0  0  0
    0.1174   -0.8510   -4.4720 C   0  0  0  0  0  0  0  0  0  0  0  0
   -1.1721   -1.4235   -4.4667 C   0  0  0  0  0  0  0  0  0  0  0  0
   -1.3413   -2.7421   -4.8843 C   0  0  0  0  0  0  0  0  0  0  0  0
   -0.3754   -4.5174   -5.6557 H   0  0  0  0  0  0  0  0  0  0  0  0
    1.8944   -3.5015   -5.7111 H   0  0  0  0  0  0  0  0  0  0  0  0
    2.2149   -1.1402   -4.9754 H   0  0  0  0  0  0  0  0  0  0  0  0
    0.2432    0.2028   -4.2138 H   0  0  0  0  0  0  0  0  0  0  0  0
   -2.0303   -0.8317   -4.1478 H   0  0  0  0  0  0  0  0  0  0  0  0
   -2.3340   -3.1924   -4.8854 H   0  0  0  0  0  0  0  0  0  0  0  0
  1  3  1  0  0  0  0
  2  1  2  0  0  0  0
  3  5  1  0  0  0  0
  4  3  1  0  0  0  0
  6 11  1  0  0  0  0
  7  6  2  0  0  0  0
  7  8  1  0  0  0  0
  8  9  2  0  0  0  0
  9 10  1  0  0  0  0
  9 15  1  0  0  0  0
 10 16  1  0  0  0  0
 11 10  2  0  0  0  0
 12  6  1  0  0  0  0
 13  7  1  0  0  0  0
 14  8  1  0  0  0  0
 17 11  1  0  0  0  0
M  RAD  1   2   2
M  END
