Coordinates from ORCA-job C6H6+NH2N2+-aug-scan
 OpenBabel10121810033D

 17 16  0  0  0  0  0  0  0  0999 V2000
   -0.0067   -0.0856    0.5934 N   0  0  0  0  0  0  0  0  0  0  0  0
    0.4541   -0.3378   -0.3767 N   0  0  0  0  0  0  0  0  0  0  0  0
    1.7221   -1.1154   -3.0932 N   0  0  0  0  0  0  0  0  0  0  0  0
    2.5035   -1.7411   -2.8526 H   0  0  0  0  0  0  0  0  0  0  0  0
    2.1648   -0.2650   -3.4771 H   0  0  0  0  0  0  0  0  0  0  0  0
    0.0440   -3.6364   -5.0828 C   0  0  0  0  0  0  0  0  0  0  0  0
    0.9779   -3.0368   -4.2335 C   0  0  0  0  0  0  0  0  0  0  0  0
    0.8521   -1.6818   -3.9094 C   0  0  0  0  0  0  0  0  0  0  0  0
   -0.2020   -0.9209   -4.4354 C   0  0  0  0  0  0  0  0  0  0  0  0
   -1.1298   -1.5257   -5.2832 C   0  0  0  0  0  0  0  0  0  0  0  0
   -1.0087   -2.8825   -5.6065 C   0  0  0  0  0  0  0  0  0  0  0  0
    0.1454   -4.6915   -5.3347 H   0  0  0  0  0  0  0  0  0  0  0  0
    1.8035   -3.6273   -3.8267 H   0  0  0  0  0  0  0  0  0  0  0  0
    1.3168   -0.8213   -2.1807 H   0  0  0  0  0  0  0  0  0  0  0  0
   -0.2988    0.1390   -4.1877 H   0  0  0  0  0  0  0  0  0  0  0  0
   -1.9473   -0.9343   -5.6942 H   0  0  0  0  0  0  0  0  0  0  0  0
   -1.7351   -3.3499   -6.2710 H   0  0  0  0  0  0  0  0  0  0  0  0
  2  1  3  0  0  0  0
  3  4  1  0  0  0  0
  3 14  1  0  0  0  0
  5  3  1  0  0  0  0
  6  7  2  0  0  0  0
  7  8  1  0  0  0  0
  7 13  1  0  0  0  0
  8  3  1  0  0  0  0
  9 15  1  0  0  0  0
  9  8  2  0  0  0  0
 10  9  1  0  0  0  0
 11 10  2  0  0  0  0
 11  6  1  0  0  0  0
 12  6  1  0  0  0  0
 16 10  1  0  0  0  0
 17 11  1  0  0  0  0
M  END
