Coordinates from ORCA-job C6H6+NH2N2+-aug-scan
 OpenBabel10121810033D

 17 16  0  0  0  0  0  0  0  0999 V2000
    0.9628   -1.6365   -1.4614 N   0  0  0  0  0  0  0  0  0  0  0  0
    0.1591   -1.9733   -2.2248 N   0  0  0  0  0  0  0  0  0  0  0  0
    2.1420   -1.0510   -1.5026 N   0  0  0  0  0  0  0  0  0  0  0  0
    2.2451   -0.3776   -2.2639 H   0  0  0  0  0  0  0  0  0  0  0  0
    2.4898   -0.7781   -0.5864 H   0  0  0  0  0  0  0  0  0  0  0  0
   -0.0892   -3.4332   -5.0452 C   0  0  0  0  0  0  0  0  0  0  0  0
    1.0241   -2.7485   -4.5749 C   0  0  0  0  0  0  0  0  0  0  0  0
    0.9102   -1.3718   -4.2340 C   0  0  0  0  0  0  0  0  0  0  0  0
   -0.3154   -0.6840   -4.4585 C   0  0  0  0  0  0  0  0  0  0  0  0
   -1.4213   -1.3829   -4.9291 C   0  0  0  0  0  0  0  0  0  0  0  0
   -1.3081   -2.7526   -5.2155 C   0  0  0  0  0  0  0  0  0  0  0  0
   -0.0165   -4.4908   -5.2970 H   0  0  0  0  0  0  0  0  0  0  0  0
    1.9808   -3.2582   -4.4586 H   0  0  0  0  0  0  0  0  0  0  0  0
    1.8214   -0.7967   -4.0662 H   0  0  0  0  0  0  0  0  0  0  0  0
   -0.3836    0.3853   -4.2559 H   0  0  0  0  0  0  0  0  0  0  0  0
   -2.3681   -0.8681   -5.0895 H   0  0  0  0  0  0  0  0  0  0  0  0
   -2.1772   -3.2962   -5.5883 H   0  0  0  0  0  0  0  0  0  0  0  0
  2  1  2  0  0  0  0
  3  1  1  0  0  0  0
  3  5  1  0  0  0  0
  4  3  1  0  0  0  0
  6  7  1  0  0  0  0
  7 13  1  0  0  0  0
  7  8  2  0  0  0  0
  8 14  1  0  0  0  0
  9 15  1  0  0  0  0
  9  8  1  0  0  0  0
 10  9  2  0  0  0  0
 11  6  2  0  0  0  0
 11 10  1  0  0  0  0
 12  6  1  0  0  0  0
 16 10  1  0  0  0  0
 17 11  1  0  0  0  0
M  RAD  1   2   2
M  END
