Coordinates from ORCA-job C6H6+NH2N2+-aug-scan
 OpenBabel10121810033D

 17 17  0  0  1  0  0  0  0  0999 V2000
    1.0872   -1.3432   -1.4055 N   0  0  0  0  0  0  0  0  0  0  0  0
    0.1120   -1.2933   -2.1291 N   0  0  0  0  0  0  0  0  0  0  0  0
    2.3143   -1.3699   -2.0520 N   0  0  0  0  0  0  0  0  0  0  0  0
    2.5425   -0.4210   -2.3674 H   0  0  0  0  0  0  0  0  0  0  0  0
    3.0163   -1.5883   -1.3391 H   0  0  0  0  0  0  0  0  0  0  0  0
   -0.0403   -3.4154   -4.8467 C   0  0  0  0  0  0  0  0  0  0  0  0
    0.8345   -2.7108   -4.0570 C   0  0  0  0  0  0  0  0  0  0  0  0
    0.5617   -1.3120   -3.6793 C   0  0  1  0  0  0  0  0  0  0  0  0
   -0.5863   -0.6859   -4.3672 C   0  0  0  0  0  0  0  0  0  0  0  0
   -1.4251   -1.3966   -5.1893 C   0  0  0  0  0  0  0  0  0  0  0  0
   -1.1679   -2.7678   -5.4042 C   0  0  0  0  0  0  0  0  0  0  0  0
    0.1488   -4.4629   -5.0799 H   0  0  0  0  0  0  0  0  0  0  0  0
    1.7372   -3.1811   -3.6729 H   0  0  0  0  0  0  0  0  0  0  0  0
    1.4357   -0.6685   -3.8081 H   0  0  0  0  0  0  0  0  0  0  0  0
   -0.7856    0.3656   -4.1520 H   0  0  0  0  0  0  0  0  0  0  0  0
   -2.2827   -0.9209   -5.6636 H   0  0  0  0  0  0  0  0  0  0  0  0
   -1.8464   -3.3422   -6.0387 H   0  0  0  0  0  0  0  0  0  0  0  0
  2  1  1  0  0  0  0
  3  1  1  0  0  0  0
  3  5  1  0  0  0  0
  4  3  1  0  0  0  0
  6  7  2  0  0  0  0
  7  8  1  0  0  0  0
  7 13  1  0  0  0  0
  8 14  1  6  0  0  0
  8  2  1  0  0  0  0
  9 15  1  0  0  0  0
  9  8  1  0  0  0  0
 10  9  2  0  0  0  0
 11 10  1  0  0  0  0
 11  6  1  0  0  0  0
 12  6  1  0  0  0  0
 16 10  1  0  0  0  0
 17 11  1  0  0  0  0
M  RAD  3   1   2   2   2  11   2
M  END
