Coordinates from ORCA-job C6H6+NH2N2+-aug-scan
 OpenBabel10121810033D

 17 16  0  0  0  0  0  0  0  0999 V2000
    1.1536   -1.5176   -1.6440 N   0  0  0  0  0  0  0  0  0  0  0  0
    1.2681   -1.5428   -2.7767 N   0  0  0  0  0  0  0  0  0  0  0  0
    0.4001   -1.4971   -0.5768 N   0  0  0  0  0  0  0  0  0  0  0  0
   -0.4871   -1.9967   -0.6850 H   0  0  0  0  0  0  0  0  0  0  0  0
    0.9117   -1.5942    0.2982 H   0  0  0  0  0  0  0  0  0  0  0  0
   -0.0756   -3.1602   -4.5059 C   0  0  0  0  0  0  0  0  0  0  0  0
    0.9666   -2.9646   -5.4109 C   0  0  0  0  0  0  0  0  0  0  0  0
    1.2538   -1.6715   -5.8729 C   0  0  0  0  0  0  0  0  0  0  0  0
    0.4847   -0.5721   -5.4701 C   0  0  0  0  0  0  0  0  0  0  0  0
   -0.5574   -0.7550   -4.5607 C   0  0  0  0  0  0  0  0  0  0  0  0
   -0.8243   -2.0497   -4.0557 C   0  0  0  0  0  0  0  0  0  0  0  0
   -0.3195   -4.1620   -4.1511 H   0  0  0  0  0  0  0  0  0  0  0  0
    1.5544   -3.8120   -5.7632 H   0  0  0  0  0  0  0  0  0  0  0  0
    2.0712   -1.5244   -6.5797 H   0  0  0  0  0  0  0  0  0  0  0  0
    0.7002    0.4200   -5.8662 H   0  0  0  0  0  0  0  0  0  0  0  0
   -1.1716    0.0889   -4.2454 H   0  0  0  0  0  0  0  0  0  0  0  0
   -1.6732   -2.2032   -3.3859 H   0  0  0  0  0  0  0  0  0  0  0  0
  1  3  1  0  0  0  0
  2  1  2  0  0  0  0
  3  5  1  0  0  0  0
  4  3  1  0  0  0  0
  6 12  1  0  0  0  0
  6 11  1  0  0  0  0
  7  6  2  0  0  0  0
  8  9  2  0  0  0  0
  8  7  1  0  0  0  0
  9 10  1  0  0  0  0
 10 16  1  0  0  0  0
 10 11  2  0  0  0  0
 11 17  1  0  0  0  0
 13  7  1  0  0  0  0
 14  8  1  0  0  0  0
 15  9  1  0  0  0  0
M  RAD  1   2   2
M  END
