Coordinates from ORCA-job C6H6+NH2N2+-aug-scan
 OpenBabel10121810033D

 17 16  0  0  0  0  0  0  0  0999 V2000
    0.0059   -0.0468    0.7463 N   0  0  0  0  0  0  0  0  0  0  0  0
    0.4810   -0.2870   -0.2201 N   0  0  0  0  0  0  0  0  0  0  0  0
    1.8776   -1.0069   -2.9550 N   0  0  0  0  0  0  0  0  0  0  0  0
    2.6392   -1.6617   -2.7660 H   0  0  0  0  0  0  0  0  0  0  0  0
    2.2592   -0.1700   -3.4020 H   0  0  0  0  0  0  0  0  0  0  0  0
   -0.0005   -3.6798   -5.1396 C   0  0  0  0  0  0  0  0  0  0  0  0
    0.9374   -3.0928   -4.2773 C   0  0  0  0  0  0  0  0  0  0  0  0
    0.7527   -1.7497   -4.0090 C   0  0  0  0  0  0  0  0  0  0  0  0
   -0.2529   -0.9393   -4.5028 C   0  0  0  0  0  0  0  0  0  0  0  0
   -1.1721   -1.5585   -5.3613 C   0  0  0  0  0  0  0  0  0  0  0  0
   -1.0436   -2.9165   -5.6746 C   0  0  0  0  0  0  0  0  0  0  0  0
    0.0943   -4.7364   -5.3886 H   0  0  0  0  0  0  0  0  0  0  0  0
    1.7546   -3.6759   -3.8543 H   0  0  0  0  0  0  0  0  0  0  0  0
    1.4136   -0.7545   -2.0724 H   0  0  0  0  0  0  0  0  0  0  0  0
   -0.3393    0.1165   -4.2487 H   0  0  0  0  0  0  0  0  0  0  0  0
   -1.9866   -0.9699   -5.7829 H   0  0  0  0  0  0  0  0  0  0  0  0
   -1.7647   -3.3850   -6.3440 H   0  0  0  0  0  0  0  0  0  0  0  0
  2  1  3  0  0  0  0
  3  4  1  0  0  0  0
  3 14  1  0  0  0  0
  5  3  1  0  0  0  0
  6  7  2  0  0  0  0
  7  8  1  0  0  0  0
  7 13  1  0  0  0  0
  8  3  1  0  0  0  0
  9 15  1  0  0  0  0
  9  8  2  0  0  0  0
 10  9  1  0  0  0  0
 11 10  2  0  0  0  0
 11  6  1  0  0  0  0
 12  6  1  0  0  0  0
 16 10  1  0  0  0  0
 17 11  1  0  0  0  0
M  END
