Coordinates from ORCA-job C6H6+NH2N2+-aug-scan
 OpenBabel10121810033D

 17 16  0  0  0  0  0  0  0  0999 V2000
    0.0076   -0.0472    0.7600 N   0  0  0  0  0  0  0  0  0  0  0  0
    0.4841   -0.2853   -0.2063 N   0  0  0  0  0  0  0  0  0  0  0  0
    1.8892   -0.9976   -2.9451 N   0  0  0  0  0  0  0  0  0  0  0  0
    2.6509   -1.6527   -2.7599 H   0  0  0  0  0  0  0  0  0  0  0  0
    2.2659   -0.1603   -3.3945 H   0  0  0  0  0  0  0  0  0  0  0  0
   -0.0052   -3.6836   -5.1429 C   0  0  0  0  0  0  0  0  0  0  0  0
    0.9331   -3.0970   -4.2798 C   0  0  0  0  0  0  0  0  0  0  0  0
    0.7449   -1.7545   -4.0173 C   0  0  0  0  0  0  0  0  0  0  0  0
   -0.2564   -0.9404   -4.5100 C   0  0  0  0  0  0  0  0  0  0  0  0
   -1.1750   -1.5612   -5.3691 C   0  0  0  0  0  0  0  0  0  0  0  0
   -1.0469   -2.9198   -5.6800 C   0  0  0  0  0  0  0  0  0  0  0  0
    0.0891   -4.7406   -5.3902 H   0  0  0  0  0  0  0  0  0  0  0  0
    1.7494   -3.6793   -3.8545 H   0  0  0  0  0  0  0  0  0  0  0  0
    1.4224   -0.7489   -2.0635 H   0  0  0  0  0  0  0  0  0  0  0  0
   -0.3414    0.1154   -4.2569 H   0  0  0  0  0  0  0  0  0  0  0  0
   -1.9885   -0.9725   -5.7923 H   0  0  0  0  0  0  0  0  0  0  0  0
   -1.7675   -3.3886   -6.3496 H   0  0  0  0  0  0  0  0  0  0  0  0
  2  1  3  0  0  0  0
  3  4  1  0  0  0  0
  3 14  1  0  0  0  0
  5  3  1  0  0  0  0
  6  7  2  0  0  0  0
  7  8  1  0  0  0  0
  7 13  1  0  0  0  0
  8  3  1  0  0  0  0
  9 15  1  0  0  0  0
  9  8  2  0  0  0  0
 10  9  1  0  0  0  0
 11 10  2  0  0  0  0
 11  6  1  0  0  0  0
 12  6  1  0  0  0  0
 16 10  1  0  0  0  0
 17 11  1  0  0  0  0
M  END
