Coordinates from ORCA-job C6H6+NH2N2+-aug-scan
 OpenBabel10121810033D

 17 16  0  0  0  0  0  0  0  0999 V2000
    0.0025   -0.0834    0.5776 N   0  0  0  0  0  0  0  0  0  0  0  0
    0.4547   -0.3412   -0.3951 N   0  0  0  0  0  0  0  0  0  0  0  0
    1.6899   -1.1366   -3.1166 N   0  0  0  0  0  0  0  0  0  0  0  0
    2.4778   -1.7532   -2.8628 H   0  0  0  0  0  0  0  0  0  0  0  0
    2.1459   -0.2799   -3.4820 H   0  0  0  0  0  0  0  0  0  0  0  0
    0.0515   -3.6300   -5.0769 C   0  0  0  0  0  0  0  0  0  0  0  0
    0.9832   -3.0281   -4.2282 C   0  0  0  0  0  0  0  0  0  0  0  0
    0.8679   -1.6714   -3.8924 C   0  0  0  0  0  0  0  0  0  0  0  0
   -0.1951   -0.9195   -4.4262 C   0  0  0  0  0  0  0  0  0  0  0  0
   -1.1224   -1.5220   -5.2737 C   0  0  0  0  0  0  0  0  0  0  0  0
   -1.0026   -2.8785   -5.5997 C   0  0  0  0  0  0  0  0  0  0  0  0
    0.1561   -4.6847   -5.3291 H   0  0  0  0  0  0  0  0  0  0  0  0
    1.8109   -3.6183   -3.8227 H   0  0  0  0  0  0  0  0  0  0  0  0
    1.2973   -0.8343   -2.1965 H   0  0  0  0  0  0  0  0  0  0  0  0
   -0.2936    0.1412   -4.1796 H   0  0  0  0  0  0  0  0  0  0  0  0
   -1.9395   -0.9290   -5.6835 H   0  0  0  0  0  0  0  0  0  0  0  0
   -1.7288   -3.3454   -6.2647 H   0  0  0  0  0  0  0  0  0  0  0  0
  2  1  3  0  0  0  0
  3  4  1  0  0  0  0
  3 14  1  0  0  0  0
  5  3  1  0  0  0  0
  6  7  2  0  0  0  0
  7  8  1  0  0  0  0
  7 13  1  0  0  0  0
  8  3  1  0  0  0  0
  9 15  1  0  0  0  0
  9  8  2  0  0  0  0
 10  9  1  0  0  0  0
 11 10  2  0  0  0  0
 11  6  1  0  0  0  0
 12  6  1  0  0  0  0
 16 10  1  0  0  0  0
 17 11  1  0  0  0  0
M  END
