Coordinates from ORCA-job C6H6+NH2N2+-aug-scan
 OpenBabel10121810033D

 17 16  0  0  0  0  0  0  0  0999 V2000
    0.0086   -0.0779    0.5572 N   0  0  0  0  0  0  0  0  0  0  0  0
    0.4529   -0.3448   -0.4167 N   0  0  0  0  0  0  0  0  0  0  0  0
    1.6548   -1.1617   -3.1437 N   0  0  0  0  0  0  0  0  0  0  0  0
    2.4519   -1.7666   -2.8745 H   0  0  0  0  0  0  0  0  0  0  0  0
    2.1262   -0.2955   -3.4853 H   0  0  0  0  0  0  0  0  0  0  0  0
    0.0593   -3.6231   -5.0712 C   0  0  0  0  0  0  0  0  0  0  0  0
    0.9894   -3.0189   -4.2238 C   0  0  0  0  0  0  0  0  0  0  0  0
    0.8868   -1.6601   -3.8727 C   0  0  0  0  0  0  0  0  0  0  0  0
   -0.1877   -0.9183   -4.4152 C   0  0  0  0  0  0  0  0  0  0  0  0
   -1.1148   -1.5181   -5.2617 C   0  0  0  0  0  0  0  0  0  0  0  0
   -0.9968   -2.8744   -5.5917 C   0  0  0  0  0  0  0  0  0  0  0  0
    0.1680   -4.6771   -5.3244 H   0  0  0  0  0  0  0  0  0  0  0  0
    1.8204   -3.6078   -3.8203 H   0  0  0  0  0  0  0  0  0  0  0  0
    1.2785   -0.8496   -2.2125 H   0  0  0  0  0  0  0  0  0  0  0  0
   -0.2870    0.1431   -4.1693 H   0  0  0  0  0  0  0  0  0  0  0  0
   -1.9314   -0.9230   -5.6693 H   0  0  0  0  0  0  0  0  0  0  0  0
   -1.7234   -3.3402   -6.2568 H   0  0  0  0  0  0  0  0  0  0  0  0
  2  1  3  0  0  0  0
  3  4  1  0  0  0  0
  3 14  1  0  0  0  0
  5  3  1  0  0  0  0
  6  7  2  0  0  0  0
  7  8  1  0  0  0  0
  7 13  1  0  0  0  0
  8  3  1  0  0  0  0
  9 15  1  0  0  0  0
  9  8  2  0  0  0  0
 10  9  1  0  0  0  0
 11 10  2  0  0  0  0
 11  6  1  0  0  0  0
 12  6  1  0  0  0  0
 16 10  1  0  0  0  0
 17 11  1  0  0  0  0
M  END
