Coordinates from ORCA-job C6H6+NH2N2+-aug-scan
 OpenBabel10121810033D

 17 16  0  0  0  0  0  0  0  0999 V2000
    1.0121   -1.5867   -1.4813 N   0  0  0  0  0  0  0  0  0  0  0  0
    0.2967   -1.9417   -2.2973 N   0  0  0  0  0  0  0  0  0  0  0  0
    2.1448   -1.0483   -1.1083 N   0  0  0  0  0  0  0  0  0  0  0  0
    2.5260   -0.3659   -1.7691 H   0  0  0  0  0  0  0  0  0  0  0  0
    2.2072   -0.8549   -0.1107 H   0  0  0  0  0  0  0  0  0  0  0  0
   -0.1280   -3.4518   -5.0540 C   0  0  0  0  0  0  0  0  0  0  0  0
    1.0328   -2.7205   -4.8067 C   0  0  0  0  0  0  0  0  0  0  0  0
    0.9481   -1.3242   -4.5927 C   0  0  0  0  0  0  0  0  0  0  0  0
   -0.3016   -0.6668   -4.6725 C   0  0  0  0  0  0  0  0  0  0  0  0
   -1.4556   -1.4081   -4.9195 C   0  0  0  0  0  0  0  0  0  0  0  0
   -1.3680   -2.7970   -5.1045 C   0  0  0  0  0  0  0  0  0  0  0  0
   -0.0724   -4.5274   -5.2209 H   0  0  0  0  0  0  0  0  0  0  0  0
    2.0038   -3.2164   -4.7893 H   0  0  0  0  0  0  0  0  0  0  0  0
    1.8634   -0.7377   -4.4853 H   0  0  0  0  0  0  0  0  0  0  0  0
   -0.3573    0.4156   -4.5534 H   0  0  0  0  0  0  0  0  0  0  0  0
   -2.4231   -0.9104   -4.9829 H   0  0  0  0  0  0  0  0  0  0  0  0
   -2.2731   -3.3719   -5.3037 H   0  0  0  0  0  0  0  0  0  0  0  0
  1  3  1  0  0  0  0
  2  1  2  0  0  0  0
  3  5  1  0  0  0  0
  4  3  1  0  0  0  0
  6  7  1  0  0  0  0
  7 13  1  0  0  0  0
  7  8  2  0  0  0  0
  8 14  1  0  0  0  0
  9  8  1  0  0  0  0
  9 15  1  0  0  0  0
 10  9  2  0  0  0  0
 11  6  2  0  0  0  0
 11 10  1  0  0  0  0
 12  6  1  0  0  0  0
 16 10  1  0  0  0  0
 17 11  1  0  0  0  0
M  RAD  1   2   2
M  END
