Coordinates from ORCA-job C6H6+NH2N2+-aug-scan
 OpenBabel10121810033D

 17 16  0  0  0  0  0  0  0  0999 V2000
    0.9427   -1.6443   -1.4737 N   0  0  0  0  0  0  0  0  0  0  0  0
    0.0820   -1.8734   -2.2186 N   0  0  0  0  0  0  0  0  0  0  0  0
    2.1723   -1.1628   -1.6184 N   0  0  0  0  0  0  0  0  0  0  0  0
    2.2123   -0.3829   -2.2764 H   0  0  0  0  0  0  0  0  0  0  0  0
    2.6218   -0.9904   -0.7205 H   0  0  0  0  0  0  0  0  0  0  0  0
   -0.0626   -3.4174   -4.9870 C   0  0  0  0  0  0  0  0  0  0  0  0
    1.0239   -2.7086   -4.4939 C   0  0  0  0  0  0  0  0  0  0  0  0
    0.8783   -1.3268   -4.1784 C   0  0  0  0  0  0  0  0  0  0  0  0
   -0.3489   -0.6608   -4.4685 C   0  0  0  0  0  0  0  0  0  0  0  0
   -1.4273   -1.3838   -4.9644 C   0  0  0  0  0  0  0  0  0  0  0  0
   -1.2848   -2.7571   -5.2155 C   0  0  0  0  0  0  0  0  0  0  0  0
    0.0330   -4.4785   -5.2157 H   0  0  0  0  0  0  0  0  0  0  0  0
    1.9833   -3.2015   -4.3352 H   0  0  0  0  0  0  0  0  0  0  0  0
    1.7743   -0.7297   -4.0193 H   0  0  0  0  0  0  0  0  0  0  0  0
   -0.4385    0.4109   -4.2888 H   0  0  0  0  0  0  0  0  0  0  0  0
   -2.3741   -0.8856   -5.1705 H   0  0  0  0  0  0  0  0  0  0  0  0
   -2.1320   -3.3215   -5.6073 H   0  0  0  0  0  0  0  0  0  0  0  0
  2  1  2  0  0  0  0
  3  1  1  0  0  0  0
  3  5  1  0  0  0  0
  4  3  1  0  0  0  0
  6  7  1  0  0  0  0
  7 13  1  0  0  0  0
  7  8  2  0  0  0  0
  8 14  1  0  0  0  0
  9 15  1  0  0  0  0
  9  8  1  0  0  0  0
 10  9  2  0  0  0  0
 11  6  2  0  0  0  0
 11 10  1  0  0  0  0
 12  6  1  0  0  0  0
 16 10  1  0  0  0  0
 17 11  1  0  0  0  0
M  RAD  1   2   2
M  END
