Coordinates from ORCA-job C6H6+NH2N2+-aug-scan
 OpenBabel10121810033D

 17 16  0  0  0  0  0  0  0  0999 V2000
    1.0539   -1.5835   -1.5100 N   0  0  0  0  0  0  0  0  0  0  0  0
    0.6057   -2.1605   -2.3845 N   0  0  0  0  0  0  0  0  0  0  0  0
    1.6377   -0.5402   -0.9798 N   0  0  0  0  0  0  0  0  0  0  0  0
    1.3875    0.3506   -1.4179 H   0  0  0  0  0  0  0  0  0  0  0  0
    1.7211   -0.5798    0.0346 H   0  0  0  0  0  0  0  0  0  0  0  0
   -0.2331   -3.4881   -5.3217 C   0  0  0  0  0  0  0  0  0  0  0  0
    1.0464   -2.9195   -5.3468 C   0  0  0  0  0  0  0  0  0  0  0  0
    1.2267   -1.6000   -4.9244 C   0  0  0  0  0  0  0  0  0  0  0  0
    0.1156   -0.8507   -4.4690 C   0  0  0  0  0  0  0  0  0  0  0  0
   -1.1738   -1.4234   -4.4670 C   0  0  0  0  0  0  0  0  0  0  0  0
   -1.3418   -2.7417   -4.8859 C   0  0  0  0  0  0  0  0  0  0  0  0
   -0.3740   -4.5164   -5.6565 H   0  0  0  0  0  0  0  0  0  0  0  0
    1.8958   -3.5001   -5.7063 H   0  0  0  0  0  0  0  0  0  0  0  0
    2.2144   -1.1394   -4.9681 H   0  0  0  0  0  0  0  0  0  0  0  0
    0.2406    0.2030   -4.2100 H   0  0  0  0  0  0  0  0  0  0  0  0
   -2.0328   -0.8320   -4.1494 H   0  0  0  0  0  0  0  0  0  0  0  0
   -2.3343   -3.1923   -4.8893 H   0  0  0  0  0  0  0  0  0  0  0  0
  1  3  1  0  0  0  0
  2  1  2  0  0  0  0
  3  5  1  0  0  0  0
  4  3  1  0  0  0  0
  6 11  1  0  0  0  0
  7  6  2  0  0  0  0
  7  8  1  0  0  0  0
  8  9  2  0  0  0  0
  9 10  1  0  0  0  0
  9 15  1  0  0  0  0
 10 16  1  0  0  0  0
 11 10  2  0  0  0  0
 12  6  1  0  0  0  0
 13  7  1  0  0  0  0
 14  8  1  0  0  0  0
 17 11  1  0  0  0  0
M  RAD  1   2   2
M  END
