Coordinates from ORCA-job C6H6+NH2N2+-aug-scan
 OpenBabel10121810033D

 17 16  0  0  0  0  0  0  0  0999 V2000
    1.0577   -1.5730   -1.5070 N   0  0  0  0  0  0  0  0  0  0  0  0
    0.6165   -2.1529   -2.3823 N   0  0  0  0  0  0  0  0  0  0  0  0
    1.6291   -0.5330   -0.9587 N   0  0  0  0  0  0  0  0  0  0  0  0
    1.3727    0.3626   -1.3833 H   0  0  0  0  0  0  0  0  0  0  0  0
    1.7115   -0.5882    0.0550 H   0  0  0  0  0  0  0  0  0  0  0  0
   -0.2358   -3.4915   -5.3237 C   0  0  0  0  0  0  0  0  0  0  0  0
    1.0440   -2.9234   -5.3603 C   0  0  0  0  0  0  0  0  0  0  0  0
    1.2282   -1.6030   -4.9434 C   0  0  0  0  0  0  0  0  0  0  0  0
    0.1217   -0.8523   -4.4805 C   0  0  0  0  0  0  0  0  0  0  0  0
   -1.1679   -1.4242   -4.4668 C   0  0  0  0  0  0  0  0  0  0  0  0
   -1.3404   -2.7434   -4.8814 C   0  0  0  0  0  0  0  0  0  0  0  0
   -0.3798   -4.5205   -5.6549 H   0  0  0  0  0  0  0  0  0  0  0  0
    1.8902   -3.5055   -5.7249 H   0  0  0  0  0  0  0  0  0  0  0  0
    2.2159   -1.1432   -4.9954 H   0  0  0  0  0  0  0  0  0  0  0  0
    0.2498    0.2016   -4.2241 H   0  0  0  0  0  0  0  0  0  0  0  0
   -2.0241   -0.8314   -4.1440 H   0  0  0  0  0  0  0  0  0  0  0  0
   -2.3334   -3.1930   -4.8763 H   0  0  0  0  0  0  0  0  0  0  0  0
  1  3  1  0  0  0  0
  2  1  2  0  0  0  0
  3  5  1  0  0  0  0
  4  3  1  0  0  0  0
  6 11  1  0  0  0  0
  7  6  2  0  0  0  0
  7  8  1  0  0  0  0
  8  9  2  0  0  0  0
  9 10  1  0  0  0  0
  9 15  1  0  0  0  0
 10 16  1  0  0  0  0
 11 17  1  0  0  0  0
 11 10  2  0  0  0  0
 12  6  1  0  0  0  0
 13  7  1  0  0  0  0
 14  8  1  0  0  0  0
M  RAD  1   2   2
M  END
