Coordinates from ORCA-job C6H6+NH2N2+-aug-scan
 OpenBabel10121810033D

 17 16  0  0  0  0  0  0  0  0999 V2000
    1.0203   -1.5788   -1.4923 N   0  0  0  0  0  0  0  0  0  0  0  0
    0.3167   -1.9248   -2.3188 N   0  0  0  0  0  0  0  0  0  0  0  0
    2.1381   -1.0628   -1.0507 N   0  0  0  0  0  0  0  0  0  0  0  0
    2.5518   -0.3618   -1.6715 H   0  0  0  0  0  0  0  0  0  0  0  0
    2.1518   -0.8974   -0.0457 H   0  0  0  0  0  0  0  0  0  0  0  0
   -0.1289   -3.4522   -5.0451 C   0  0  0  0  0  0  0  0  0  0  0  0
    1.0366   -2.7128   -4.8446 C   0  0  0  0  0  0  0  0  0  0  0  0
    0.9543   -1.3135   -4.6578 C   0  0  0  0  0  0  0  0  0  0  0  0
   -0.2983   -0.6616   -4.7132 C   0  0  0  0  0  0  0  0  0  0  0  0
   -1.4574   -1.4103   -4.9133 C   0  0  0  0  0  0  0  0  0  0  0  0
   -1.3719   -2.8022   -5.0737 C   0  0  0  0  0  0  0  0  0  0  0  0
   -0.0745   -4.5307   -5.1928 H   0  0  0  0  0  0  0  0  0  0  0  0
    2.0091   -3.2061   -4.8454 H   0  0  0  0  0  0  0  0  0  0  0  0
    1.8700   -0.7237   -4.5768 H   0  0  0  0  0  0  0  0  0  0  0  0
   -0.3538    0.4229   -4.6139 H   0  0  0  0  0  0  0  0  0  0  0  0
   -2.4276   -0.9157   -4.9596 H   0  0  0  0  0  0  0  0  0  0  0  0
   -2.2805   -3.3828   -5.2368 H   0  0  0  0  0  0  0  0  0  0  0  0
  1  3  1  0  0  0  0
  2  1  2  0  0  0  0
  3  5  1  0  0  0  0
  4  3  1  0  0  0  0
  6  7  1  0  0  0  0
  7  8  2  0  0  0  0
  8 14  1  0  0  0  0
  9  8  1  0  0  0  0
  9 15  1  0  0  0  0
 10  9  2  0  0  0  0
 11  6  2  0  0  0  0
 11 10  1  0  0  0  0
 12  6  1  0  0  0  0
 13  7  1  0  0  0  0
 16 10  1  0  0  0  0
 17 11  1  0  0  0  0
M  RAD  1   2   2
M  END
