Coordinates from ORCA-job C6H6+NH2N2+-aug-scan
 OpenBabel10121810033D

 17 16  0  0  0  0  0  0  0  0999 V2000
    1.0667   -1.5605   -1.5099 N   0  0  0  0  0  0  0  0  0  0  0  0
    0.6774   -2.1470   -2.4041 N   0  0  0  0  0  0  0  0  0  0  0  0
    1.5530   -0.5095   -0.9046 N   0  0  0  0  0  0  0  0  0  0  0  0
    1.2322    0.3844   -1.2867 H   0  0  0  0  0  0  0  0  0  0  0  0
    1.6315   -0.6094    0.1063 H   0  0  0  0  0  0  0  0  0  0  0  0
   -0.2445   -3.4970   -5.3185 C   0  0  0  0  0  0  0  0  0  0  0  0
    1.0364   -2.9359   -5.4191 C   0  0  0  0  0  0  0  0  0  0  0  0
    1.2481   -1.6142   -5.0236 C   0  0  0  0  0  0  0  0  0  0  0  0
    0.1701   -0.8539   -4.5151 C   0  0  0  0  0  0  0  0  0  0  0  0
   -1.1218   -1.4177   -4.4371 C   0  0  0  0  0  0  0  0  0  0  0  0
   -1.3225   -2.7395   -4.8328 C   0  0  0  0  0  0  0  0  0  0  0  0
   -0.4087   -4.5278   -5.6343 H   0  0  0  0  0  0  0  0  0  0  0  0
    1.8610   -3.5270   -5.8175 H   0  0  0  0  0  0  0  0  0  0  0  0
    2.2355   -1.1618   -5.1225 H   0  0  0  0  0  0  0  0  0  0  0  0
    0.3175    0.2006   -4.2720 H   0  0  0  0  0  0  0  0  0  0  0  0
   -1.9589   -0.8161   -4.0818 H   0  0  0  0  0  0  0  0  0  0  0  0
   -2.3173   -3.1819   -4.7787 H   0  0  0  0  0  0  0  0  0  0  0  0
  1  3  1  0  0  0  0
  2  1  2  0  0  0  0
  3  5  1  0  0  0  0
  4  3  1  0  0  0  0
  6 11  1  0  0  0  0
  7  6  2  0  0  0  0
  7  8  1  0  0  0  0
  8  9  2  0  0  0  0
  9 10  1  0  0  0  0
  9 15  1  0  0  0  0
 10 16  1  0  0  0  0
 11 17  1  0  0  0  0
 11 10  2  0  0  0  0
 12  6  1  0  0  0  0
 13  7  1  0  0  0  0
 14  8  1  0  0  0  0
M  RAD  1   2   2
M  END
