Coordinates from ORCA-job C6H6+NH2N2+-aug-scan
 OpenBabel10121810033D

 17 16  0  0  0  0  0  0  0  0999 V2000
    0.9464   -1.5479   -1.2647 N   0  0  0  0  0  0  0  0  0  0  0  0
    1.2105   -1.5112   -2.3654 N   0  0  0  0  0  0  0  0  0  0  0  0
    0.3035   -1.5507   -0.1314 N   0  0  0  0  0  0  0  0  0  0  0  0
   -0.5780   -2.0716   -0.1413 H   0  0  0  0  0  0  0  0  0  0  0  0
    0.9049   -1.6131    0.6905 H   0  0  0  0  0  0  0  0  0  0  0  0
    0.0276   -3.1189   -4.5966 C   0  0  0  0  0  0  0  0  0  0  0  0
    0.9682   -2.9646   -5.6168 C   0  0  0  0  0  0  0  0  0  0  0  0
    1.1876   -1.6994   -6.1839 C   0  0  0  0  0  0  0  0  0  0  0  0
    0.4764   -0.5821   -5.7193 C   0  0  0  0  0  0  0  0  0  0  0  0
   -0.4655   -0.7287   -4.6991 C   0  0  0  0  0  0  0  0  0  0  0  0
   -0.6910   -1.9991   -4.1304 C   0  0  0  0  0  0  0  0  0  0  0  0
   -0.1710   -4.1079   -4.1816 H   0  0  0  0  0  0  0  0  0  0  0  0
    1.5172   -3.8299   -5.9887 H   0  0  0  0  0  0  0  0  0  0  0  0
    1.9111   -1.5848   -6.9916 H   0  0  0  0  0  0  0  0  0  0  0  0
    0.6450    0.3960   -6.1700 H   0  0  0  0  0  0  0  0  0  0  0  0
   -1.0447    0.1315   -4.3615 H   0  0  0  0  0  0  0  0  0  0  0  0
   -1.4923   -2.1319   -3.4000 H   0  0  0  0  0  0  0  0  0  0  0  0
  1  3  1  0  0  0  0
  2  1  1  0  0  0  0
  3  5  1  0  0  0  0
  4  3  1  0  0  0  0
  6 12  1  0  0  0  0
  6 11  1  0  0  0  0
  7  6  2  0  0  0  0
  8  9  2  0  0  0  0
  8  7  1  0  0  0  0
  9 10  1  0  0  0  0
 10 16  1  0  0  0  0
 10 11  2  0  0  0  0
 11 17  1  0  0  0  0
 13  7  1  0  0  0  0
 14  8  1  0  0  0  0
 15  9  1  0  0  0  0
M  RAD  2   1   2   2   3
M  END
