Coordinates from ORCA-job C6H6+NH2N2+-aug-scan
 OpenBabel10121810033D

 17 16  0  0  0  0  0  0  0  0999 V2000
    0.7793   -1.5601   -0.8581 N   0  0  0  0  0  0  0  0  0  0  0  0
    1.1597   -1.4734   -1.9148 N   0  0  0  0  0  0  0  0  0  0  0  0
    0.2097   -1.5796    0.3088 N   0  0  0  0  0  0  0  0  0  0  0  0
   -0.6677   -2.1055    0.3488 H   0  0  0  0  0  0  0  0  0  0  0  0
    0.8611   -1.6285    1.0951 H   0  0  0  0  0  0  0  0  0  0  0  0
    0.1279   -3.0930   -4.7204 C   0  0  0  0  0  0  0  0  0  0  0  0
    0.9533   -2.9730   -5.8415 C   0  0  0  0  0  0  0  0  0  0  0  0
    1.1107   -1.7281   -6.4697 C   0  0  0  0  0  0  0  0  0  0  0  0
    0.4570   -0.5965   -5.9584 C   0  0  0  0  0  0  0  0  0  0  0  0
   -0.3693   -0.7107   -4.8375 C   0  0  0  0  0  0  0  0  0  0  0  0
   -0.5413   -1.9620   -4.2181 C   0  0  0  0  0  0  0  0  0  0  0  0
   -0.0243   -4.0706   -4.2604 H   0  0  0  0  0  0  0  0  0  0  0  0
    1.4583   -3.8523   -6.2424 H   0  0  0  0  0  0  0  0  0  0  0  0
    1.7411   -1.6401   -7.3549 H   0  0  0  0  0  0  0  0  0  0  0  0
    0.5772    0.3693   -6.4498 H   0  0  0  0  0  0  0  0  0  0  0  0
   -0.9066    0.1634   -4.4668 H   0  0  0  0  0  0  0  0  0  0  0  0
   -1.2704   -2.0735   -3.4118 H   0  0  0  0  0  0  0  0  0  0  0  0
  1  3  1  0  0  0  0
  2  1  1  0  0  0  0
  3  4  1  0  0  0  0
  3  5  1  0  0  0  0
  6 12  1  0  0  0  0
  6 11  1  0  0  0  0
  7  6  2  0  0  0  0
  8  9  2  0  0  0  0
  8  7  1  0  0  0  0
  9 10  1  0  0  0  0
 10 16  1  0  0  0  0
 10 11  2  0  0  0  0
 11 17  1  0  0  0  0
 13  7  1  0  0  0  0
 14  8  1  0  0  0  0
 15  9  1  0  0  0  0
M  RAD  2   1   2   2   3
M  END
