Coordinates from ORCA-job C6H6+NH2N2+-aug-scan
 OpenBabel10121810033D

 17 16  0  0  0  0  0  0  0  0999 V2000
    1.0941   -1.5239   -1.5454 N   0  0  0  0  0  0  0  0  0  0  0  0
    1.0449   -2.0376   -2.5578 N   0  0  0  0  0  0  0  0  0  0  0  0
    0.8851   -0.5734   -0.6739 N   0  0  0  0  0  0  0  0  0  0  0  0
   -0.0077   -0.0857   -0.7892 H   0  0  0  0  0  0  0  0  0  0  0  0
    1.1993   -0.7974    0.2694 H   0  0  0  0  0  0  0  0  0  0  0  0
   -0.2295   -3.4768   -5.1194 C   0  0  0  0  0  0  0  0  0  0  0  0
    0.9590   -2.9931   -5.6931 C   0  0  0  0  0  0  0  0  0  0  0  0
    1.3142   -1.6453   -5.5662 C   0  0  0  0  0  0  0  0  0  0  0  0
    0.4840   -0.7729   -4.8553 C   0  0  0  0  0  0  0  0  0  0  0  0
   -0.7045   -1.2600   -4.2636 C   0  0  0  0  0  0  0  0  0  0  0  0
   -1.0649   -2.6138   -4.4106 C   0  0  0  0  0  0  0  0  0  0  0  0
   -0.5034   -4.5249   -5.2414 H   0  0  0  0  0  0  0  0  0  0  0  0
    1.6023   -3.6719   -6.2540 H   0  0  0  0  0  0  0  0  0  0  0  0
    2.2269   -1.2742   -6.0324 H   0  0  0  0  0  0  0  0  0  0  0  0
    0.7376    0.2852   -4.7778 H   0  0  0  0  0  0  0  0  0  0  0  0
   -1.3832   -0.5690   -3.7594 H   0  0  0  0  0  0  0  0  0  0  0  0
   -1.9983   -2.9795   -3.9820 H   0  0  0  0  0  0  0  0  0  0  0  0
  1  3  1  0  0  0  0
  2  1  1  0  0  0  0
  3  5  1  0  0  0  0
  4  3  1  0  0  0  0
  6 11  2  0  0  0  0
  7  8  2  0  0  0  0
  7  6  1  0  0  0  0
  8  9  1  0  0  0  0
  9 15  1  0  0  0  0
  9 10  2  0  0  0  0
 10 16  1  0  0  0  0
 11 10  1  0  0  0  0
 11 17  1  0  0  0  0
 12  6  1  0  0  0  0
 13  7  1  0  0  0  0
 14  8  1  0  0  0  0
M  RAD  2   1   2   2   3
M  END
