Coordinates from ORCA-job C6H6+NH2N2+-aug-scan
 OpenBabel10121810033D

 17 16  0  0  0  0  0  0  0  0999 V2000
    1.0876   -1.5158   -1.5554 N   0  0  0  0  0  0  0  0  0  0  0  0
    1.0515   -1.9960   -2.5835 N   0  0  0  0  0  0  0  0  0  0  0  0
    0.8590   -0.6198   -0.6320 N   0  0  0  0  0  0  0  0  0  0  0  0
   -0.0659   -0.1847   -0.6905 H   0  0  0  0  0  0  0  0  0  0  0  0
    1.2182   -0.8725    0.2880 H   0  0  0  0  0  0  0  0  0  0  0  0
   -0.2128   -3.4706   -5.0729 C   0  0  0  0  0  0  0  0  0  0  0  0
    0.9663   -3.0001   -5.6739 C   0  0  0  0  0  0  0  0  0  0  0  0
    1.3096   -1.6437   -5.6046 C   0  0  0  0  0  0  0  0  0  0  0  0
    0.4776   -0.7502   -4.9243 C   0  0  0  0  0  0  0  0  0  0  0  0
   -0.7001   -1.2232   -4.3028 C   0  0  0  0  0  0  0  0  0  0  0  0
   -1.0499   -2.5857   -4.3926 C   0  0  0  0  0  0  0  0  0  0  0  0
   -0.4789   -4.5248   -5.1505 H   0  0  0  0  0  0  0  0  0  0  0  0
    1.6123   -3.6947   -6.2118 H   0  0  0  0  0  0  0  0  0  0  0  0
    2.2154   -1.2844   -6.0929 H   0  0  0  0  0  0  0  0  0  0  0  0
    0.7231    0.3119   -4.8900 H   0  0  0  0  0  0  0  0  0  0  0  0
   -1.3795   -0.5186   -3.8192 H   0  0  0  0  0  0  0  0  0  0  0  0
   -1.9775   -2.9413   -3.9431 H   0  0  0  0  0  0  0  0  0  0  0  0
  1  3  1  0  0  0  0
  2  1  1  0  0  0  0
  3  5  1  0  0  0  0
  4  3  1  0  0  0  0
  6 11  2  0  0  0  0
  7  8  2  0  0  0  0
  7  6  1  0  0  0  0
  8  9  1  0  0  0  0
  9 15  1  0  0  0  0
  9 10  2  0  0  0  0
 10 16  1  0  0  0  0
 11 10  1  0  0  0  0
 11 17  1  0  0  0  0
 12  6  1  0  0  0  0
 13  7  1  0  0  0  0
 14  8  1  0  0  0  0
M  RAD  2   1   2   2   3
M  END
