Coordinates from ORCA-job C6H6+NH2N2+-aug-scan
 OpenBabel10121810033D

 17 16  0  0  0  0  0  0  0  0999 V2000
    1.0305   -1.5377   -1.4398 N   0  0  0  0  0  0  0  0  0  0  0  0
    1.2296   -1.5284   -2.5575 N   0  0  0  0  0  0  0  0  0  0  0  0
    0.3550   -1.5307   -0.3232 N   0  0  0  0  0  0  0  0  0  0  0  0
   -0.5289   -2.0462   -0.3588 H   0  0  0  0  0  0  0  0  0  0  0  0
    0.9318   -1.6014    0.5145 H   0  0  0  0  0  0  0  0  0  0  0  0
   -0.0242   -3.1354   -4.5558 C   0  0  0  0  0  0  0  0  0  0  0  0
    0.9714   -2.9624   -5.5183 C   0  0  0  0  0  0  0  0  0  0  0  0
    1.2239   -1.6854   -6.0435 C   0  0  0  0  0  0  0  0  0  0  0  0
    0.4828   -0.5767   -5.6077 C   0  0  0  0  0  0  0  0  0  0  0  0
   -0.5141   -0.7402   -4.6444 C   0  0  0  0  0  0  0  0  0  0  0  0
   -0.7635   -2.0209   -4.1055 C   0  0  0  0  0  0  0  0  0  0  0  0
   -0.2452   -4.1304   -4.1677 H   0  0  0  0  0  0  0  0  0  0  0  0
    1.5413   -3.8201   -5.8757 H   0  0  0  0  0  0  0  0  0  0  0  0
    1.9951   -1.5560   -6.8035 H   0  0  0  0  0  0  0  0  0  0  0  0
    0.6751    0.4081   -6.0336 H   0  0  0  0  0  0  0  0  0  0  0  0
   -1.1123    0.1129   -4.3227 H   0  0  0  0  0  0  0  0  0  0  0  0
   -1.5926   -2.1635   -3.4089 H   0  0  0  0  0  0  0  0  0  0  0  0
  1  3  1  0  0  0  0
  2  1  1  0  0  0  0
  3  5  1  0  0  0  0
  4  3  1  0  0  0  0
  6 12  1  0  0  0  0
  6 11  1  0  0  0  0
  7  6  2  0  0  0  0
  8  9  2  0  0  0  0
  8  7  1  0  0  0  0
  9 10  1  0  0  0  0
 10 16  1  0  0  0  0
 10 11  2  0  0  0  0
 11 17  1  0  0  0  0
 13  7  1  0  0  0  0
 14  8  1  0  0  0  0
 15  9  1  0  0  0  0
M  RAD  2   1   2   2   3
M  END
