Coordinates from ORCA-job C6H6+NH2N2+-aug-scan
 OpenBabel10121810033D

 17 16  0  0  0  0  0  0  0  0999 V2000
    0.9307   -1.5485   -1.2200 N   0  0  0  0  0  0  0  0  0  0  0  0
    1.2103   -1.5060   -2.3159 N   0  0  0  0  0  0  0  0  0  0  0  0
    0.2897   -1.5555   -0.0854 N   0  0  0  0  0  0  0  0  0  0  0  0
   -0.5902   -2.0790   -0.0966 H   0  0  0  0  0  0  0  0  0  0  0  0
    0.8937   -1.6171    0.7348 H   0  0  0  0  0  0  0  0  0  0  0  0
    0.0411   -3.1146   -4.6058 C   0  0  0  0  0  0  0  0  0  0  0  0
    0.9668   -2.9648   -5.6402 C   0  0  0  0  0  0  0  0  0  0  0  0
    1.1780   -1.7031   -6.2184 C   0  0  0  0  0  0  0  0  0  0  0  0
    0.4742   -0.5841   -5.7461 C   0  0  0  0  0  0  0  0  0  0  0  0
   -0.4530   -0.7257   -4.7117 C   0  0  0  0  0  0  0  0  0  0  0  0
   -0.6723   -1.9934   -4.1354 C   0  0  0  0  0  0  0  0  0  0  0  0
   -0.1523   -4.1025   -4.1858 H   0  0  0  0  0  0  0  0  0  0  0  0
    1.5097   -3.8325   -6.0156 H   0  0  0  0  0  0  0  0  0  0  0  0
    1.8885   -1.5925   -7.0379 H   0  0  0  0  0  0  0  0  0  0  0  0
    0.6358    0.3925   -6.2030 H   0  0  0  0  0  0  0  0  0  0  0  0
   -1.0278    0.1365   -4.3717 H   0  0  0  0  0  0  0  0  0  0  0  0
   -1.4671   -2.1238   -3.3974 H   0  0  0  0  0  0  0  0  0  0  0  0
  1  3  1  0  0  0  0
  2  1  1  0  0  0  0
  3  5  1  0  0  0  0
  4  3  1  0  0  0  0
  6 12  1  0  0  0  0
  6 11  1  0  0  0  0
  7  6  2  0  0  0  0
  8  9  2  0  0  0  0
  8  7  1  0  0  0  0
  9 10  1  0  0  0  0
 10 16  1  0  0  0  0
 10 11  2  0  0  0  0
 11 17  1  0  0  0  0
 13  7  1  0  0  0  0
 14  8  1  0  0  0  0
 15  9  1  0  0  0  0
M  RAD  2   1   2   2   3
M  END
