Coordinates from ORCA-job C6H6+NH2N2+-aug-scan
 OpenBabel10121810033D

 17 16  0  0  0  0  0  0  0  0999 V2000
    1.0497   -1.5966   -1.5112 N   0  0  0  0  0  0  0  0  0  0  0  0
    0.5854   -2.1686   -2.3821 N   0  0  0  0  0  0  0  0  0  0  0  0
    1.6616   -0.5516   -1.0142 N   0  0  0  0  0  0  0  0  0  0  0  0
    1.4277    0.3311   -1.4768 H   0  0  0  0  0  0  0  0  0  0  0  0
    1.7470   -0.5630    0.0006 H   0  0  0  0  0  0  0  0  0  0  0  0
   -0.2287   -3.4830   -5.3219 C   0  0  0  0  0  0  0  0  0  0  0  0
    1.0498   -2.9133   -5.3210 C   0  0  0  0  0  0  0  0  0  0  0  0
    1.2206   -1.5959   -4.8867 C   0  0  0  0  0  0  0  0  0  0  0  0
    0.0996   -0.8499   -4.4479 C   0  0  0  0  0  0  0  0  0  0  0  0
   -1.1886   -1.4243   -4.4723 C   0  0  0  0  0  0  0  0  0  0  0  0
   -1.3464   -2.7403   -4.9011 C   0  0  0  0  0  0  0  0  0  0  0  0
   -0.3626   -4.5094   -5.6650 H   0  0  0  0  0  0  0  0  0  0  0  0
    1.9065   -3.4905   -5.6685 H   0  0  0  0  0  0  0  0  0  0  0  0
    2.2081   -1.1334   -4.9110 H   0  0  0  0  0  0  0  0  0  0  0  0
    0.2179    0.2029   -4.1820 H   0  0  0  0  0  0  0  0  0  0  0  0
   -2.0538   -0.8360   -4.1663 H   0  0  0  0  0  0  0  0  0  0  0  0
   -2.3379   -3.1926   -4.9244 H   0  0  0  0  0  0  0  0  0  0  0  0
  1  3  1  0  0  0  0
  2  1  2  0  0  0  0
  3  5  1  0  0  0  0
  4  3  1  0  0  0  0
  6  7  2  0  0  0  0
  6 11  1  0  0  0  0
  7  8  1  0  0  0  0
  8  9  2  0  0  0  0
  9 15  1  0  0  0  0
 10  9  1  0  0  0  0
 10 16  1  0  0  0  0
 11 10  2  0  0  0  0
 12  6  1  0  0  0  0
 13  7  1  0  0  0  0
 14  8  1  0  0  0  0
 17 11  1  0  0  0  0
M  RAD  1   2   2
M  END
