Coordinates from ORCA-job C6H6+NH2N2+-aug-scan
 OpenBabel10121810033D

 17 16  0  0  0  0  0  0  0  0999 V2000
    0.8764   -1.5505   -1.0984 N   0  0  0  0  0  0  0  0  0  0  0  0
    1.1992   -1.5007   -2.1805 N   0  0  0  0  0  0  0  0  0  0  0  0
    0.2511   -1.5661    0.0418 N   0  0  0  0  0  0  0  0  0  0  0  0
   -0.6292   -2.0886    0.0436 H   0  0  0  0  0  0  0  0  0  0  0  0
    0.8626   -1.6107    0.8580 H   0  0  0  0  0  0  0  0  0  0  0  0
    0.0781   -3.1078   -4.6411 C   0  0  0  0  0  0  0  0  0  0  0  0
    0.9602   -2.9687   -5.7151 C   0  0  0  0  0  0  0  0  0  0  0  0
    1.1487   -1.7123   -6.3125 C   0  0  0  0  0  0  0  0  0  0  0  0
    0.4684   -0.5881   -5.8183 C   0  0  0  0  0  0  0  0  0  0  0  0
   -0.4149   -0.7202   -4.7445 C   0  0  0  0  0  0  0  0  0  0  0  0
   -0.6146   -1.9827   -4.1522 C   0  0  0  0  0  0  0  0  0  0  0  0
   -0.0983   -4.0920   -4.2051 H   0  0  0  0  0  0  0  0  0  0  0  0
    1.4858   -3.8405   -6.1053 H   0  0  0  0  0  0  0  0  0  0  0  0
    1.8239   -1.6097   -7.1624 H   0  0  0  0  0  0  0  0  0  0  0  0
    0.6133    0.3849   -6.2882 H   0  0  0  0  0  0  0  0  0  0  0  0
   -0.9723    0.1465   -4.3868 H   0  0  0  0  0  0  0  0  0  0  0  0
   -1.3825   -2.1070   -3.3851 H   0  0  0  0  0  0  0  0  0  0  0  0
  1  3  1  0  0  0  0
  2  1  1  0  0  0  0
  3  4  1  0  0  0  0
  3  5  1  0  0  0  0
  6 12  1  0  0  0  0
  6 11  1  0  0  0  0
  7  6  2  0  0  0  0
  8  9  2  0  0  0  0
  8  7  1  0  0  0  0
  9 10  1  0  0  0  0
 10 16  1  0  0  0  0
 10 11  2  0  0  0  0
 11 17  1  0  0  0  0
 13  7  1  0  0  0  0
 14  8  1  0  0  0  0
 15  9  1  0  0  0  0
M  RAD  2   1   2   2   3
M  END
