Coordinates from ORCA-job C6H6+NH2N2+-aug-scan
 OpenBabel10121810033D

 17 16  0  0  0  0  0  0  0  0999 V2000
    0.9861   -1.5429   -1.3506 N   0  0  0  0  0  0  0  0  0  0  0  0
    1.2141   -1.5248   -2.4613 N   0  0  0  0  0  0  0  0  0  0  0  0
    0.3318   -1.5366   -0.2225 N   0  0  0  0  0  0  0  0  0  0  0  0
   -0.5511   -2.0548   -0.2389 H   0  0  0  0  0  0  0  0  0  0  0  0
    0.9252   -1.6011    0.6046 H   0  0  0  0  0  0  0  0  0  0  0  0
   -0.0003   -3.1288   -4.5803 C   0  0  0  0  0  0  0  0  0  0  0  0
    0.9702   -2.9636   -5.5699 C   0  0  0  0  0  0  0  0  0  0  0  0
    1.2076   -1.6916   -6.1140 C   0  0  0  0  0  0  0  0  0  0  0  0
    0.4813   -0.5791   -5.6620 C   0  0  0  0  0  0  0  0  0  0  0  0
   -0.4906   -0.7360   -4.6723 C   0  0  0  0  0  0  0  0  0  0  0  0
   -0.7301   -2.0125   -4.1215 C   0  0  0  0  0  0  0  0  0  0  0  0
   -0.2112   -4.1216   -4.1808 H   0  0  0  0  0  0  0  0  0  0  0  0
    1.5301   -3.8246   -5.9353 H   0  0  0  0  0  0  0  0  0  0  0  0
    1.9565   -1.5683   -6.8970 H   0  0  0  0  0  0  0  0  0  0  0  0
    0.6633    0.4033   -6.0980 H   0  0  0  0  0  0  0  0  0  0  0  0
   -1.0797    0.1203   -4.3419 H   0  0  0  0  0  0  0  0  0  0  0  0
   -1.5474   -2.1515   -3.4102 H   0  0  0  0  0  0  0  0  0  0  0  0
  1  3  1  0  0  0  0
  2  1  1  0  0  0  0
  3  5  1  0  0  0  0
  4  3  1  0  0  0  0
  6 12  1  0  0  0  0
  6 11  1  0  0  0  0
  7  6  2  0  0  0  0
  8  9  2  0  0  0  0
  8  7  1  0  0  0  0
  9 10  1  0  0  0  0
 10 16  1  0  0  0  0
 10 11  2  0  0  0  0
 11 17  1  0  0  0  0
 13  7  1  0  0  0  0
 14  8  1  0  0  0  0
 15  9  1  0  0  0  0
M  RAD  2   1   2   2   3
M  END
