Coordinates from ORCA-job C6H6+NH2N2+-aug-scan
 OpenBabel10121810033D

 17 16  0  0  0  0  0  0  0  0999 V2000
    1.1616   -1.5169   -1.6573 N   0  0  0  0  0  0  0  0  0  0  0  0
    1.2716   -1.5431   -2.7907 N   0  0  0  0  0  0  0  0  0  0  0  0
    0.4018   -1.4973   -0.5958 N   0  0  0  0  0  0  0  0  0  0  0  0
   -0.4862   -1.9944   -0.7085 H   0  0  0  0  0  0  0  0  0  0  0  0
    0.9059   -1.5943    0.2835 H   0  0  0  0  0  0  0  0  0  0  0  0
   -0.0777   -3.1613   -4.5016 C   0  0  0  0  0  0  0  0  0  0  0  0
    0.9659   -2.9649   -5.4043 C   0  0  0  0  0  0  0  0  0  0  0  0
    1.2548   -1.6708   -5.8616 C   0  0  0  0  0  0  0  0  0  0  0  0
    0.4841   -0.5717   -5.4625 C   0  0  0  0  0  0  0  0  0  0  0  0
   -0.5592   -0.7554   -4.5551 C   0  0  0  0  0  0  0  0  0  0  0  0
   -0.8259   -2.0506   -4.0510 C   0  0  0  0  0  0  0  0  0  0  0  0
   -0.3220   -4.1631   -4.1470 H   0  0  0  0  0  0  0  0  0  0  0  0
    1.5545   -3.8118   -5.7566 H   0  0  0  0  0  0  0  0  0  0  0  0
    2.0741   -1.5231   -6.5662 H   0  0  0  0  0  0  0  0  0  0  0  0
    0.7005    0.4206   -5.8575 H   0  0  0  0  0  0  0  0  0  0  0  0
   -1.1735    0.0881   -4.2387 H   0  0  0  0  0  0  0  0  0  0  0  0
   -1.6745   -2.2043   -3.3809 H   0  0  0  0  0  0  0  0  0  0  0  0
  1  3  1  0  0  0  0
  2  1  2  0  0  0  0
  3  5  1  0  0  0  0
  4  3  1  0  0  0  0
  6 12  1  0  0  0  0
  6 11  1  0  0  0  0
  7  6  2  0  0  0  0
  8  9  2  0  0  0  0
  8  7  1  0  0  0  0
  9 10  1  0  0  0  0
 10 16  1  0  0  0  0
 10 11  2  0  0  0  0
 11 17  1  0  0  0  0
 13  7  1  0  0  0  0
 14  8  1  0  0  0  0
 15  9  1  0  0  0  0
M  RAD  1   2   2
M  END
