Coordinates from ORCA-job C6H6+NH2N2+-aug-scan
 OpenBabel10121810033D

 17 16  0  0  0  0  0  0  0  0999 V2000
    0.0128   -0.0625    0.8009 N   0  0  0  0  0  0  0  0  0  0  0  0
    0.4937   -0.2900   -0.1659 N   0  0  0  0  0  0  0  0  0  0  0  0
    1.9197   -0.9689   -2.9215 N   0  0  0  0  0  0  0  0  0  0  0  0
    2.6855   -1.6216   -2.7495 H   0  0  0  0  0  0  0  0  0  0  0  0
    2.2796   -0.1276   -3.3749 H   0  0  0  0  0  0  0  0  0  0  0  0
   -0.0207   -3.6944   -5.1458 C   0  0  0  0  0  0  0  0  0  0  0  0
    0.9191   -3.1073   -4.2821 C   0  0  0  0  0  0  0  0  0  0  0  0
    0.7242   -1.7652   -4.0413 C   0  0  0  0  0  0  0  0  0  0  0  0
   -0.2631   -0.9411   -4.5356 C   0  0  0  0  0  0  0  0  0  0  0  0
   -1.1804   -1.5679   -5.3944 C   0  0  0  0  0  0  0  0  0  0  0  0
   -1.0562   -2.9295   -5.6933 C   0  0  0  0  0  0  0  0  0  0  0  0
    0.0704   -4.7541   -5.3837 H   0  0  0  0  0  0  0  0  0  0  0  0
    1.7309   -3.6874   -3.8473 H   0  0  0  0  0  0  0  0  0  0  0  0
    1.4481   -0.7340   -2.0404 H   0  0  0  0  0  0  0  0  0  0  0  0
   -0.3424    0.1162   -4.2896 H   0  0  0  0  0  0  0  0  0  0  0  0
   -1.9894   -0.9784   -5.8254 H   0  0  0  0  0  0  0  0  0  0  0  0
   -1.7761   -3.4005   -6.3621 H   0  0  0  0  0  0  0  0  0  0  0  0
  2  1  3  0  0  0  0
  3  4  1  0  0  0  0
  3 14  1  0  0  0  0
  5  3  1  0  0  0  0
  6  7  2  0  0  0  0
  7  8  1  0  0  0  0
  7 13  1  0  0  0  0
  8  3  1  0  0  0  0
  9 15  1  0  0  0  0
  9  8  2  0  0  0  0
 10  9  1  0  0  0  0
 11 10  2  0  0  0  0
 11  6  1  0  0  0  0
 12  6  1  0  0  0  0
 16 10  1  0  0  0  0
 17 11  1  0  0  0  0
M  END
