Coordinates from ORCA-job C6H6+NH2N2+-aug-scan
 OpenBabel10121810033D

 17 16  0  0  0  0  0  0  0  0999 V2000
    0.9689   -1.5427   -1.3071 N   0  0  0  0  0  0  0  0  0  0  0  0
    1.2105   -1.5173   -2.4141 N   0  0  0  0  0  0  0  0  0  0  0  0
    0.3194   -1.5407   -0.1759 N   0  0  0  0  0  0  0  0  0  0  0  0
   -0.5608   -2.0638   -0.1904 H   0  0  0  0  0  0  0  0  0  0  0  0
    0.9176   -1.6077    0.6478 H   0  0  0  0  0  0  0  0  0  0  0  0
    0.0121   -3.1245   -4.5891 C   0  0  0  0  0  0  0  0  0  0  0  0
    0.9695   -2.9640   -5.5924 C   0  0  0  0  0  0  0  0  0  0  0  0
    1.1988   -1.6953   -6.1479 C   0  0  0  0  0  0  0  0  0  0  0  0
    0.4799   -0.5807   -5.6889 C   0  0  0  0  0  0  0  0  0  0  0  0
   -0.4790   -0.7330   -4.6855 C   0  0  0  0  0  0  0  0  0  0  0  0
   -0.7134   -2.0069   -4.1273 C   0  0  0  0  0  0  0  0  0  0  0  0
   -0.1939   -4.1160   -4.1838 H   0  0  0  0  0  0  0  0  0  0  0  0
    1.5243   -3.8272   -5.9607 H   0  0  0  0  0  0  0  0  0  0  0  0
    1.9359   -1.5761   -6.9426 H   0  0  0  0  0  0  0  0  0  0  0  0
    0.6558    0.4000   -6.1312 H   0  0  0  0  0  0  0  0  0  0  0  0
   -1.0640    0.1252   -4.3528 H   0  0  0  0  0  0  0  0  0  0  0  0
   -1.5258   -2.1436   -3.4100 H   0  0  0  0  0  0  0  0  0  0  0  0
  1  3  1  0  0  0  0
  2  1  1  0  0  0  0
  3  5  1  0  0  0  0
  4  3  1  0  0  0  0
  6 12  1  0  0  0  0
  6 11  1  0  0  0  0
  7  6  2  0  0  0  0
  8  9  2  0  0  0  0
  8  7  1  0  0  0  0
  9 10  1  0  0  0  0
 10 16  1  0  0  0  0
 10 11  2  0  0  0  0
 11 17  1  0  0  0  0
 13  7  1  0  0  0  0
 14  8  1  0  0  0  0
 15  9  1  0  0  0  0
M  RAD  2   1   2   2   3
M  END
