Coordinates from ORCA-job C6H6+NH2N2+-aug-scan
 OpenBabel10121810033D

 17 16  0  0  0  0  0  0  0  0999 V2000
    0.9921   -1.6052   -1.4580 N   0  0  0  0  0  0  0  0  0  0  0  0
    0.2395   -1.9732   -2.2436 N   0  0  0  0  0  0  0  0  0  0  0  0
    2.1515   -1.0238   -1.2734 N   0  0  0  0  0  0  0  0  0  0  0  0
    2.4288   -0.3848   -2.0228 H   0  0  0  0  0  0  0  0  0  0  0  0
    2.3435   -0.7664   -0.3082 H   0  0  0  0  0  0  0  0  0  0  0  0
   -0.1178   -3.4469   -5.0665 C   0  0  0  0  0  0  0  0  0  0  0  0
    1.0248   -2.7395   -4.7033 C   0  0  0  0  0  0  0  0  0  0  0  0
    0.9299   -1.3528   -4.4227 C   0  0  0  0  0  0  0  0  0  0  0  0
   -0.3094   -0.6797   -4.5664 C   0  0  0  0  0  0  0  0  0  0  0  0
   -1.4444   -1.3992   -4.9297 C   0  0  0  0  0  0  0  0  0  0  0  0
   -1.3481   -2.7786   -5.1739 C   0  0  0  0  0  0  0  0  0  0  0  0
   -0.0567   -4.5137   -5.2805 H   0  0  0  0  0  0  0  0  0  0  0  0
    1.9896   -3.2431   -4.6394 H   0  0  0  0  0  0  0  0  0  0  0  0
    1.8431   -0.7746   -4.2627 H   0  0  0  0  0  0  0  0  0  0  0  0
   -0.3684    0.3962   -4.3997 H   0  0  0  0  0  0  0  0  0  0  0  0
   -2.4029   -0.8923   -5.0382 H   0  0  0  0  0  0  0  0  0  0  0  0
   -2.2394   -3.3366   -5.4630 H   0  0  0  0  0  0  0  0  0  0  0  0
  1  3  1  0  0  0  0
  2  1  2  0  0  0  0
  3  5  1  0  0  0  0
  4  3  1  0  0  0  0
  6  7  1  0  0  0  0
  7 13  1  0  0  0  0
  7  8  2  0  0  0  0
  8 14  1  0  0  0  0
  9  8  1  0  0  0  0
  9 15  1  0  0  0  0
 10  9  2  0  0  0  0
 11  6  2  0  0  0  0
 11 10  1  0  0  0  0
 12  6  1  0  0  0  0
 16 10  1  0  0  0  0
 17 11  1  0  0  0  0
M  RAD  1   2   2
M  END
