Coordinates from ORCA-job C6H6+NH2N2+-aug-scan
 OpenBabel10121810033D

 17 16  0  0  0  0  0  0  0  0999 V2000
    0.8332   -1.5657   -1.0561 N   0  0  0  0  0  0  0  0  0  0  0  0
    1.1719   -1.4938   -2.1297 N   0  0  0  0  0  0  0  0  0  0  0  0
    0.2662   -1.5569    0.1147 N   0  0  0  0  0  0  0  0  0  0  0  0
   -0.6198   -2.0677    0.1625 H   0  0  0  0  0  0  0  0  0  0  0  0
    0.9217   -1.6242    0.8958 H   0  0  0  0  0  0  0  0  0  0  0  0
    0.0732   -3.1080   -4.6696 C   0  0  0  0  0  0  0  0  0  0  0  0
    0.9656   -2.9671   -5.7352 C   0  0  0  0  0  0  0  0  0  0  0  0
    1.1583   -1.7110   -6.3312 C   0  0  0  0  0  0  0  0  0  0  0  0
    0.4714   -0.5890   -5.8426 C   0  0  0  0  0  0  0  0  0  0  0  0
   -0.4225   -0.7231   -4.7772 C   0  0  0  0  0  0  0  0  0  0  0  0
   -0.6269   -1.9855   -4.1881 C   0  0  0  0  0  0  0  0  0  0  0  0
   -0.1062   -4.0934   -4.2371 H   0  0  0  0  0  0  0  0  0  0  0  0
    1.4957   -3.8386   -6.1202 H   0  0  0  0  0  0  0  0  0  0  0  0
    1.8411   -1.6072   -7.1748 H   0  0  0  0  0  0  0  0  0  0  0  0
    0.6183    0.3848   -6.3104 H   0  0  0  0  0  0  0  0  0  0  0  0
   -0.9856    0.1428   -4.4266 H   0  0  0  0  0  0  0  0  0  0  0  0
   -1.3998   -2.1107   -3.4262 H   0  0  0  0  0  0  0  0  0  0  0  0
  1  3  1  0  0  0  0
  2  1  1  0  0  0  0
  3  4  1  0  0  0  0
  3  5  1  0  0  0  0
  6 12  1  0  0  0  0
  6 11  1  0  0  0  0
  7  6  2  0  0  0  0
  8  9  2  0  0  0  0
  8  7  1  0  0  0  0
  9 10  1  0  0  0  0
 10 16  1  0  0  0  0
 10 11  2  0  0  0  0
 11 17  1  0  0  0  0
 13  7  1  0  0  0  0
 14  8  1  0  0  0  0
 15  9  1  0  0  0  0
M  RAD  2   1   2   2   3
M  END
