Coordinates from ORCA-job C6H6+NH2N2+-aug-scan
 OpenBabel10121810033D

 17 16  0  0  0  0  0  0  0  0999 V2000
    0.7579   -1.5571   -0.7713 N   0  0  0  0  0  0  0  0  0  0  0  0
    1.1395   -1.4668   -1.8268 N   0  0  0  0  0  0  0  0  0  0  0  0
    0.1960   -1.5866    0.3982 N   0  0  0  0  0  0  0  0  0  0  0  0
   -0.6752   -2.1221    0.4436 H   0  0  0  0  0  0  0  0  0  0  0  0
    0.8510   -1.6194    1.1824 H   0  0  0  0  0  0  0  0  0  0  0  0
    0.1427   -3.0896   -4.7502 C   0  0  0  0  0  0  0  0  0  0  0  0
    0.9488   -2.9757   -5.8861 C   0  0  0  0  0  0  0  0  0  0  0  0
    1.0974   -1.7336   -6.5218 C   0  0  0  0  0  0  0  0  0  0  0  0
    0.4539   -0.5990   -6.0041 C   0  0  0  0  0  0  0  0  0  0  0  0
   -0.3530   -0.7076   -4.8684 C   0  0  0  0  0  0  0  0  0  0  0  0
   -0.5166   -1.9561   -4.2420 C   0  0  0  0  0  0  0  0  0  0  0  0
   -0.0019   -4.0648   -4.2827 H   0  0  0  0  0  0  0  0  0  0  0  0
    1.4460   -3.8571   -6.2919 H   0  0  0  0  0  0  0  0  0  0  0  0
    1.7133   -1.6498   -7.4176 H   0  0  0  0  0  0  0  0  0  0  0  0
    0.5674    0.3647   -6.5013 H   0  0  0  0  0  0  0  0  0  0  0  0
   -0.8815    0.1689   -4.4910 H   0  0  0  0  0  0  0  0  0  0  0  0
   -1.2299   -2.0625   -3.4209 H   0  0  0  0  0  0  0  0  0  0  0  0
  1  3  1  0  0  0  0
  2  1  1  0  0  0  0
  3  4  1  0  0  0  0
  3  5  1  0  0  0  0
  6 12  1  0  0  0  0
  6 11  1  0  0  0  0
  7  6  2  0  0  0  0
  8  9  2  0  0  0  0
  8  7  1  0  0  0  0
  9 10  1  0  0  0  0
 10 16  1  0  0  0  0
 10 11  2  0  0  0  0
 11 17  1  0  0  0  0
 13  7  1  0  0  0  0
 14  8  1  0  0  0  0
 15  9  1  0  0  0  0
M  RAD  2   1   2   2   3
M  END
