Coordinates from ORCA-job C6H6+NH2N2+-aug-scan
 OpenBabel10121810033D

 17 16  0  0  0  0  0  0  0  0999 V2000
    0.9835   -1.6159   -1.4536 N   0  0  0  0  0  0  0  0  0  0  0  0
    0.2154   -1.9879   -2.2279 N   0  0  0  0  0  0  0  0  0  0  0  0
    2.1453   -1.0142   -1.3598 N   0  0  0  0  0  0  0  0  0  0  0  0
    2.3552   -0.3787   -2.1331 H   0  0  0  0  0  0  0  0  0  0  0  0
    2.3957   -0.7346   -0.4147 H   0  0  0  0  0  0  0  0  0  0  0  0
   -0.1104   -3.4438   -5.0695 C   0  0  0  0  0  0  0  0  0  0  0  0
    1.0230   -2.7510   -4.6573 C   0  0  0  0  0  0  0  0  0  0  0  0
    0.9245   -1.3700   -4.3439 C   0  0  0  0  0  0  0  0  0  0  0  0
   -0.3080   -0.6868   -4.5141 C   0  0  0  0  0  0  0  0  0  0  0  0
   -1.4339   -1.3927   -4.9264 C   0  0  0  0  0  0  0  0  0  0  0  0
   -1.3347   -2.7667   -5.1980 C   0  0  0  0  0  0  0  0  0  0  0  0
   -0.0477   -4.5057   -5.3059 H   0  0  0  0  0  0  0  0  0  0  0  0
    1.9835   -3.2601   -4.5748 H   0  0  0  0  0  0  0  0  0  0  0  0
    1.8384   -0.7974   -4.1703 H   0  0  0  0  0  0  0  0  0  0  0  0
   -0.3677    0.3854   -4.3252 H   0  0  0  0  0  0  0  0  0  0  0  0
   -2.3869   -0.8794   -5.0523 H   0  0  0  0  0  0  0  0  0  0  0  0
   -2.2192   -3.3145   -5.5252 H   0  0  0  0  0  0  0  0  0  0  0  0
  1  3  1  0  0  0  0
  2  1  2  0  0  0  0
  3  5  1  0  0  0  0
  4  3  1  0  0  0  0
  6  7  1  0  0  0  0
  7 13  1  0  0  0  0
  7  8  2  0  0  0  0
  8 14  1  0  0  0  0
  9  8  1  0  0  0  0
  9 15  1  0  0  0  0
 10  9  2  0  0  0  0
 11  6  2  0  0  0  0
 11 10  1  0  0  0  0
 12  6  1  0  0  0  0
 16 10  1  0  0  0  0
 17 11  1  0  0  0  0
M  RAD  1   2   2
M  END
