Coordinates from ORCA-job C6H6+NH2N2+-aug-scan
 OpenBabel10121810033D

 17 16  0  0  0  0  0  0  0  0999 V2000
    0.9392   -1.5486   -1.2484 N   0  0  0  0  0  0  0  0  0  0  0  0
    1.2099   -1.5091   -2.3471 N   0  0  0  0  0  0  0  0  0  0  0  0
    0.2979   -1.5533   -0.1144 N   0  0  0  0  0  0  0  0  0  0  0  0
   -0.5832   -2.0748   -0.1233 H   0  0  0  0  0  0  0  0  0  0  0  0
    0.9005   -1.6146    0.7069 H   0  0  0  0  0  0  0  0  0  0  0  0
    0.0330   -3.1171   -4.5999 C   0  0  0  0  0  0  0  0  0  0  0  0
    0.9677   -2.9648   -5.6258 C   0  0  0  0  0  0  0  0  0  0  0  0
    1.1836   -1.7008   -6.1971 C   0  0  0  0  0  0  0  0  0  0  0  0
    0.4754   -0.5827   -5.7300 C   0  0  0  0  0  0  0  0  0  0  0  0
   -0.4606   -0.7274   -4.7040 C   0  0  0  0  0  0  0  0  0  0  0  0
   -0.6833   -1.9966   -4.1321 C   0  0  0  0  0  0  0  0  0  0  0  0
   -0.1633   -4.1054   -4.1821 H   0  0  0  0  0  0  0  0  0  0  0  0
    1.5145   -3.8309   -5.9991 H   0  0  0  0  0  0  0  0  0  0  0  0
    1.9022   -1.5879   -7.0094 H   0  0  0  0  0  0  0  0  0  0  0  0
    0.6415    0.3947   -6.1833 H   0  0  0  0  0  0  0  0  0  0  0  0
   -1.0378    0.1336   -4.3649 H   0  0  0  0  0  0  0  0  0  0  0  0
   -1.4814   -2.1282   -3.3979 H   0  0  0  0  0  0  0  0  0  0  0  0
  1  3  1  0  0  0  0
  2  1  1  0  0  0  0
  3  5  1  0  0  0  0
  4  3  1  0  0  0  0
  6 12  1  0  0  0  0
  6 11  1  0  0  0  0
  7  6  2  0  0  0  0
  8  9  2  0  0  0  0
  8  7  1  0  0  0  0
  9 10  1  0  0  0  0
 10 16  1  0  0  0  0
 10 11  2  0  0  0  0
 11 17  1  0  0  0  0
 13  7  1  0  0  0  0
 14  8  1  0  0  0  0
 15  9  1  0  0  0  0
M  RAD  2   1   2   2   3
M  END
