Coordinates from ORCA-job C6H6+NH2N2+-aug-scan
 OpenBabel10121810033D

 17 16  0  0  0  0  0  0  0  0999 V2000
    1.0196   -1.5391   -1.4192 N   0  0  0  0  0  0  0  0  0  0  0  0
    1.2246   -1.5280   -2.5355 N   0  0  0  0  0  0  0  0  0  0  0  0
    0.3507   -1.5323   -0.2988 N   0  0  0  0  0  0  0  0  0  0  0  0
   -0.5328   -2.0489   -0.3284 H   0  0  0  0  0  0  0  0  0  0  0  0
    0.9327   -1.6006    0.5356 H   0  0  0  0  0  0  0  0  0  0  0  0
   -0.0193   -3.1338   -4.5619 C   0  0  0  0  0  0  0  0  0  0  0  0
    0.9714   -2.9625   -5.5299 C   0  0  0  0  0  0  0  0  0  0  0  0
    1.2208   -1.6867   -6.0595 C   0  0  0  0  0  0  0  0  0  0  0  0
    0.4827   -0.5772   -5.6203 C   0  0  0  0  0  0  0  0  0  0  0  0
   -0.5093   -0.7392   -4.6517 C   0  0  0  0  0  0  0  0  0  0  0  0
   -0.7570   -2.0190   -4.1103 C   0  0  0  0  0  0  0  0  0  0  0  0
   -0.2383   -4.1283   -4.1715 H   0  0  0  0  0  0  0  0  0  0  0  0
    1.5393   -3.8210   -5.8887 H   0  0  0  0  0  0  0  0  0  0  0  0
    1.9875   -1.5587   -6.8242 H   0  0  0  0  0  0  0  0  0  0  0  0
    0.6729    0.4071   -6.0483 H   0  0  0  0  0  0  0  0  0  0  0  0
   -1.1058    0.1146   -4.3285 H   0  0  0  0  0  0  0  0  0  0  0  0
   -1.5839   -2.1608   -3.4110 H   0  0  0  0  0  0  0  0  0  0  0  0
  1  3  1  0  0  0  0
  2  1  1  0  0  0  0
  3  5  1  0  0  0  0
  4  3  1  0  0  0  0
  6 12  1  0  0  0  0
  6 11  1  0  0  0  0
  7  6  2  0  0  0  0
  8  9  2  0  0  0  0
  8  7  1  0  0  0  0
  9 10  1  0  0  0  0
 10 16  1  0  0  0  0
 10 11  2  0  0  0  0
 11 17  1  0  0  0  0
 13  7  1  0  0  0  0
 14  8  1  0  0  0  0
 15  9  1  0  0  0  0
M  RAD  2   1   2   2   3
M  END
