Coordinates from ORCA-job C6H6+NH2N2+-aug-scan
 OpenBabel10121810033D

 17 16  0  0  0  0  0  0  0  0999 V2000
    1.0414   -1.5364   -1.4603 N   0  0  0  0  0  0  0  0  0  0  0  0
    1.2338   -1.5297   -2.5795 N   0  0  0  0  0  0  0  0  0  0  0  0
    0.3597   -1.5281   -0.3473 N   0  0  0  0  0  0  0  0  0  0  0  0
   -0.5248   -2.0423   -0.3885 H   0  0  0  0  0  0  0  0  0  0  0  0
    0.9315   -1.6014    0.4934 H   0  0  0  0  0  0  0  0  0  0  0  0
   -0.0294   -3.1373   -4.5504 C   0  0  0  0  0  0  0  0  0  0  0  0
    0.9713   -2.9623   -5.5071 C   0  0  0  0  0  0  0  0  0  0  0  0
    1.2272   -1.6840   -6.0272 C   0  0  0  0  0  0  0  0  0  0  0  0
    0.4831   -0.5762   -5.5947 C   0  0  0  0  0  0  0  0  0  0  0  0
   -0.5188   -0.7414   -4.6370 C   0  0  0  0  0  0  0  0  0  0  0  0
   -0.7702   -2.0233   -4.1011 C   0  0  0  0  0  0  0  0  0  0  0  0
   -0.2525   -4.1329   -4.1651 H   0  0  0  0  0  0  0  0  0  0  0  0
    1.5433   -3.8192   -5.8634 H   0  0  0  0  0  0  0  0  0  0  0  0
    2.0031   -1.5530   -6.7822 H   0  0  0  0  0  0  0  0  0  0  0  0
    0.6777    0.4093   -6.0179 H   0  0  0  0  0  0  0  0  0  0  0  0
   -1.1188    0.1109   -4.3164 H   0  0  0  0  0  0  0  0  0  0  0  0
   -1.6016   -2.1668   -3.4074 H   0  0  0  0  0  0  0  0  0  0  0  0
  1  3  1  0  0  0  0
  2  1  1  0  0  0  0
  3  5  1  0  0  0  0
  4  3  1  0  0  0  0
  6 12  1  0  0  0  0
  6 11  1  0  0  0  0
  7  6  2  0  0  0  0
  8  9  2  0  0  0  0
  8  7  1  0  0  0  0
  9 10  1  0  0  0  0
 10 16  1  0  0  0  0
 10 11  2  0  0  0  0
 11 17  1  0  0  0  0
 13  7  1  0  0  0  0
 14  8  1  0  0  0  0
 15  9  1  0  0  0  0
M  RAD  2   1   2   2   3
M  END
