Coordinates from ORCA-job C6H6+NH2N2+-aug-scan
 OpenBabel10121810033D

 17 16  0  0  0  0  0  0  0  0999 V2000
    1.1037   -1.5528   -1.5492 N   0  0  0  0  0  0  0  0  0  0  0  0
    0.9836   -2.1287   -2.5225 N   0  0  0  0  0  0  0  0  0  0  0  0
    1.0355   -0.4943   -0.7852 N   0  0  0  0  0  0  0  0  0  0  0  0
    0.2453    0.1227   -0.9929 H   0  0  0  0  0  0  0  0  0  0  0  0
    1.2734   -0.6689    0.1901 H   0  0  0  0  0  0  0  0  0  0  0  0
   -0.2580   -3.4832   -5.2088 C   0  0  0  0  0  0  0  0  0  0  0  0
    0.9720   -2.9723   -5.6621 C   0  0  0  0  0  0  0  0  0  0  0  0
    1.3222   -1.6439   -5.4122 C   0  0  0  0  0  0  0  0  0  0  0  0
    0.4422   -0.8172   -4.6980 C   0  0  0  0  0  0  0  0  0  0  0  0
   -0.7942   -1.3317   -4.2395 C   0  0  0  0  0  0  0  0  0  0  0  0
   -1.1429   -2.6663   -4.5038 C   0  0  0  0  0  0  0  0  0  0  0  0
   -0.5248   -4.5186   -5.4220 H   0  0  0  0  0  0  0  0  0  0  0  0
    1.6499   -3.6162   -6.2230 H   0  0  0  0  0  0  0  0  0  0  0  0
    2.2670   -1.2461   -5.7826 H   0  0  0  0  0  0  0  0  0  0  0  0
    0.6894    0.2335   -4.5374 H   0  0  0  0  0  0  0  0  0  0  0  0
   -1.5038   -0.6743   -3.7333 H   0  0  0  0  0  0  0  0  0  0  0  0
   -2.1045   -3.0560   -4.1697 H   0  0  0  0  0  0  0  0  0  0  0  0
  1  3  1  0  0  0  0
  2  1  2  0  0  0  0
  3  5  1  0  0  0  0
  4  3  1  0  0  0  0
  6 11  2  0  0  0  0
  7  8  2  0  0  0  0
  7  6  1  0  0  0  0
  8  9  1  0  0  0  0
  9 15  1  0  0  0  0
  9 10  2  0  0  0  0
 10 16  1  0  0  0  0
 11 10  1  0  0  0  0
 11 17  1  0  0  0  0
 12  6  1  0  0  0  0
 13  7  1  0  0  0  0
 14  8  1  0  0  0  0
M  RAD  1   2   2
M  END
