Coordinates from ORCA-job C6H6+NH2N2+-aug-scan
 OpenBabel10121810033D

 17 16  0  0  0  0  0  0  0  0999 V2000
    0.9311   -1.5488   -1.2259 N   0  0  0  0  0  0  0  0  0  0  0  0
    1.2095   -1.5065   -2.3222 N   0  0  0  0  0  0  0  0  0  0  0  0
    0.2911   -1.5558   -0.0913 N   0  0  0  0  0  0  0  0  0  0  0  0
   -0.5892   -2.0786   -0.1002 H   0  0  0  0  0  0  0  0  0  0  0  0
    0.8950   -1.6165    0.7292 H   0  0  0  0  0  0  0  0  0  0  0  0
    0.0397   -3.1150   -4.6047 C   0  0  0  0  0  0  0  0  0  0  0  0
    0.9669   -2.9651   -5.6378 C   0  0  0  0  0  0  0  0  0  0  0  0
    1.1787   -1.7027   -6.2142 C   0  0  0  0  0  0  0  0  0  0  0  0
    0.4742   -0.5836   -5.7436 C   0  0  0  0  0  0  0  0  0  0  0  0
   -0.4543   -0.7259   -4.7105 C   0  0  0  0  0  0  0  0  0  0  0  0
   -0.6738   -1.9938   -4.1348 C   0  0  0  0  0  0  0  0  0  0  0  0
   -0.1538   -4.1027   -4.1842 H   0  0  0  0  0  0  0  0  0  0  0  0
    1.5108   -3.8323   -6.0129 H   0  0  0  0  0  0  0  0  0  0  0  0
    1.8908   -1.5918   -7.0324 H   0  0  0  0  0  0  0  0  0  0  0  0
    0.6369    0.3929   -6.2000 H   0  0  0  0  0  0  0  0  0  0  0  0
   -1.0292    0.1361   -4.3699 H   0  0  0  0  0  0  0  0  0  0  0  0
   -1.4685   -2.1242   -3.3967 H   0  0  0  0  0  0  0  0  0  0  0  0
  1  3  1  0  0  0  0
  2  1  1  0  0  0  0
  3  5  1  0  0  0  0
  4  3  1  0  0  0  0
  6 12  1  0  0  0  0
  6 11  1  0  0  0  0
  7  6  2  0  0  0  0
  8  9  2  0  0  0  0
  8  7  1  0  0  0  0
  9 10  1  0  0  0  0
 10 16  1  0  0  0  0
 10 11  2  0  0  0  0
 11 17  1  0  0  0  0
 13  7  1  0  0  0  0
 14  8  1  0  0  0  0
 15  9  1  0  0  0  0
M  RAD  2   1   2   2   3
M  END
