Coordinates from ORCA-job C6H6+NH2N2+-aug-scan
 OpenBabel10121810033D

 17 16  0  0  0  0  0  0  0  0999 V2000
    1.0463   -1.5963   -1.5070 N   0  0  0  0  0  0  0  0  0  0  0  0
    0.5411   -2.1604   -2.3599 N   0  0  0  0  0  0  0  0  0  0  0  0
    1.7275   -0.5799   -1.0426 N   0  0  0  0  0  0  0  0  0  0  0  0
    1.5484    0.3031   -1.5286 H   0  0  0  0  0  0  0  0  0  0  0  0
    1.8186   -0.5686   -0.0283 H   0  0  0  0  0  0  0  0  0  0  0  0
   -0.2197   -3.4811   -5.3185 C   0  0  0  0  0  0  0  0  0  0  0  0
    1.0526   -2.9027   -5.2702 C   0  0  0  0  0  0  0  0  0  0  0  0
    1.1964   -1.5821   -4.8314 C   0  0  0  0  0  0  0  0  0  0  0  0
    0.0537   -0.8422   -4.4396 C   0  0  0  0  0  0  0  0  0  0  0  0
   -1.2267   -1.4266   -4.5092 C   0  0  0  0  0  0  0  0  0  0  0  0
   -1.3577   -2.7447   -4.9407 C   0  0  0  0  0  0  0  0  0  0  0  0
   -0.3340   -4.5089   -5.6646 H   0  0  0  0  0  0  0  0  0  0  0  0
    1.9266   -3.4734   -5.5837 H   0  0  0  0  0  0  0  0  0  0  0  0
    2.1806   -1.1115   -4.8232 H   0  0  0  0  0  0  0  0  0  0  0  0
    0.1537    0.2112   -4.1691 H   0  0  0  0  0  0  0  0  0  0  0  0
   -2.1073   -0.8452   -4.2360 H   0  0  0  0  0  0  0  0  0  0  0  0
   -2.3442   -3.2047   -4.9996 H   0  0  0  0  0  0  0  0  0  0  0  0
  1  3  1  0  0  0  0
  2  1  2  0  0  0  0
  3  5  1  0  0  0  0
  4  3  1  0  0  0  0
  6  7  2  0  0  0  0
  6 11  1  0  0  0  0
  7  8  1  0  0  0  0
  8 14  1  0  0  0  0
  8  9  2  0  0  0  0
  9 15  1  0  0  0  0
 10  9  1  0  0  0  0
 10 16  1  0  0  0  0
 11 10  2  0  0  0  0
 12  6  1  0  0  0  0
 13  7  1  0  0  0  0
 17 11  1  0  0  0  0
M  RAD  1   2   2
M  END
