Coordinates from ORCA-job C6H6+NH2N2+-aug-scan
 OpenBabel10121810033D

 17 16  0  0  0  0  0  0  0  0999 V2000
    0.7979   -1.5652   -0.9517 N   0  0  0  0  0  0  0  0  0  0  0  0
    1.1674   -1.4808   -2.0135 N   0  0  0  0  0  0  0  0  0  0  0  0
    0.2278   -1.5757    0.2151 N   0  0  0  0  0  0  0  0  0  0  0  0
   -0.6554   -2.0915    0.2577 H   0  0  0  0  0  0  0  0  0  0  0  0
    0.8778   -1.6296    1.0019 H   0  0  0  0  0  0  0  0  0  0  0  0
    0.1099   -3.0975   -4.6913 C   0  0  0  0  0  0  0  0  0  0  0  0
    0.9580   -2.9708   -5.7944 C   0  0  0  0  0  0  0  0  0  0  0  0
    1.1267   -1.7220   -6.4121 C   0  0  0  0  0  0  0  0  0  0  0  0
    0.4612   -0.5932   -5.9097 C   0  0  0  0  0  0  0  0  0  0  0  0
   -0.3880   -0.7140   -4.8068 C   0  0  0  0  0  0  0  0  0  0  0  0
   -0.5695   -1.9688   -4.1964 C   0  0  0  0  0  0  0  0  0  0  0  0
   -0.0508   -4.0768   -4.2382 H   0  0  0  0  0  0  0  0  0  0  0  0
    1.4724   -3.8470   -6.1900 H   0  0  0  0  0  0  0  0  0  0  0  0
    1.7753   -1.6288   -7.2835 H   0  0  0  0  0  0  0  0  0  0  0  0
    0.5907    0.3748   -6.3943 H   0  0  0  0  0  0  0  0  0  0  0  0
   -0.9337    0.1570   -4.4416 H   0  0  0  0  0  0  0  0  0  0  0  0
   -1.3119   -2.0843   -3.4030 H   0  0  0  0  0  0  0  0  0  0  0  0
  1  3  1  0  0  0  0
  2  1  1  0  0  0  0
  3  4  1  0  0  0  0
  3  5  1  0  0  0  0
  6 12  1  0  0  0  0
  6 11  1  0  0  0  0
  7  6  2  0  0  0  0
  8  9  2  0  0  0  0
  8  7  1  0  0  0  0
  9 10  1  0  0  0  0
 10 16  1  0  0  0  0
 10 11  2  0  0  0  0
 11 17  1  0  0  0  0
 13  7  1  0  0  0  0
 14  8  1  0  0  0  0
 15  9  1  0  0  0  0
M  RAD  2   1   2   2   3
M  END
