Coordinates from ORCA-job C6H6+NH2N2+-aug-scan
 OpenBabel10121810033D

 17 16  0  0  0  0  0  0  0  0999 V2000
    1.1019   -1.5505   -1.5477 N   0  0  0  0  0  0  0  0  0  0  0  0
    0.9833   -2.1263   -2.5210 N   0  0  0  0  0  0  0  0  0  0  0  0
    1.0329   -0.4952   -0.7796 N   0  0  0  0  0  0  0  0  0  0  0  0
    0.2408    0.1208   -0.9830 H   0  0  0  0  0  0  0  0  0  0  0  0
    1.2739   -0.6727    0.1944 H   0  0  0  0  0  0  0  0  0  0  0  0
   -0.2573   -3.4837   -5.2077 C   0  0  0  0  0  0  0  0  0  0  0  0
    0.9718   -2.9732   -5.6638 C   0  0  0  0  0  0  0  0  0  0  0  0
    1.3219   -1.6441   -5.4170 C   0  0  0  0  0  0  0  0  0  0  0  0
    0.4429   -0.8164   -4.7032 C   0  0  0  0  0  0  0  0  0  0  0  0
   -0.7924   -1.3304   -4.2414 C   0  0  0  0  0  0  0  0  0  0  0  0
   -1.1412   -2.6657   -4.5027 C   0  0  0  0  0  0  0  0  0  0  0  0
   -0.5242   -4.5195   -5.4187 H   0  0  0  0  0  0  0  0  0  0  0  0
    1.6490   -3.6180   -6.2246 H   0  0  0  0  0  0  0  0  0  0  0  0
    2.2659   -1.2468   -5.7897 H   0  0  0  0  0  0  0  0  0  0  0  0
    0.6902    0.2346   -4.5446 H   0  0  0  0  0  0  0  0  0  0  0  0
   -1.5014   -0.6723   -3.7353 H   0  0  0  0  0  0  0  0  0  0  0  0
   -2.1022   -3.0550   -4.1664 H   0  0  0  0  0  0  0  0  0  0  0  0
  1  3  1  0  0  0  0
  2  1  1  0  0  0  0
  3  5  1  0  0  0  0
  4  3  1  0  0  0  0
  6 11  2  0  0  0  0
  7  8  2  0  0  0  0
  7  6  1  0  0  0  0
  8  9  1  0  0  0  0
  9 15  1  0  0  0  0
  9 10  2  0  0  0  0
 10 16  1  0  0  0  0
 11 10  1  0  0  0  0
 11 17  1  0  0  0  0
 12  6  1  0  0  0  0
 13  7  1  0  0  0  0
 14  8  1  0  0  0  0
M  RAD  2   1   2   2   3
M  END
