Coordinates from ORCA-job C6H6+NH2N2+-aug-scan
 OpenBabel10121810033D

 17 16  0  0  0  0  0  0  0  0999 V2000
    0.0070   -0.0461    0.7551 N   0  0  0  0  0  0  0  0  0  0  0  0
    0.4830   -0.2853   -0.2111 N   0  0  0  0  0  0  0  0  0  0  0  0
    1.8853   -1.0009   -2.9482 N   0  0  0  0  0  0  0  0  0  0  0  0
    2.6468   -1.6562   -2.7615 H   0  0  0  0  0  0  0  0  0  0  0  0
    2.2639   -0.1640   -3.3969 H   0  0  0  0  0  0  0  0  0  0  0  0
   -0.0034   -3.6823   -5.1422 C   0  0  0  0  0  0  0  0  0  0  0  0
    0.9347   -3.0957   -4.2793 C   0  0  0  0  0  0  0  0  0  0  0  0
    0.7475   -1.7530   -4.0144 C   0  0  0  0  0  0  0  0  0  0  0  0
   -0.2554   -0.9402   -4.5072 C   0  0  0  0  0  0  0  0  0  0  0  0
   -1.1742   -1.5604   -5.3662 C   0  0  0  0  0  0  0  0  0  0  0  0
   -1.0458   -2.9187   -5.6783 C   0  0  0  0  0  0  0  0  0  0  0  0
    0.0912   -4.7391   -5.3904 H   0  0  0  0  0  0  0  0  0  0  0  0
    1.7514   -3.6782   -3.8550 H   0  0  0  0  0  0  0  0  0  0  0  0
    1.4195   -0.7507   -2.0664 H   0  0  0  0  0  0  0  0  0  0  0  0
   -0.3411    0.1155   -4.2535 H   0  0  0  0  0  0  0  0  0  0  0  0
   -1.9881   -0.9717   -5.7887 H   0  0  0  0  0  0  0  0  0  0  0  0
   -1.7665   -3.3873   -6.3480 H   0  0  0  0  0  0  0  0  0  0  0  0
  2  1  3  0  0  0  0
  3  4  1  0  0  0  0
  3 14  1  0  0  0  0
  5  3  1  0  0  0  0
  6  7  2  0  0  0  0
  7  8  1  0  0  0  0
  7 13  1  0  0  0  0
  8  3  1  0  0  0  0
  9 15  1  0  0  0  0
  9  8  2  0  0  0  0
 10  9  1  0  0  0  0
 11 10  2  0  0  0  0
 11  6  1  0  0  0  0
 12  6  1  0  0  0  0
 16 10  1  0  0  0  0
 17 11  1  0  0  0  0
M  END
