Coordinates from ORCA-job C6H6+NH2N2+-aug-scan
 OpenBabel10121810033D

 17 16  0  0  0  0  0  0  0  0999 V2000
    1.0153   -1.5844   -1.4822 N   0  0  0  0  0  0  0  0  0  0  0  0
    0.3010   -1.9385   -2.2989 N   0  0  0  0  0  0  0  0  0  0  0  0
    2.1453   -1.0495   -1.0974 N   0  0  0  0  0  0  0  0  0  0  0  0
    2.5328   -0.3640   -1.7513 H   0  0  0  0  0  0  0  0  0  0  0  0
    2.1999   -0.8614   -0.0982 H   0  0  0  0  0  0  0  0  0  0  0  0
   -0.1288   -3.4522   -5.0536 C   0  0  0  0  0  0  0  0  0  0  0  0
    1.0327   -2.7196   -4.8129 C   0  0  0  0  0  0  0  0  0  0  0  0
    0.9483   -1.3228   -4.6031 C   0  0  0  0  0  0  0  0  0  0  0  0
   -0.3018   -0.6664   -4.6795 C   0  0  0  0  0  0  0  0  0  0  0  0
   -1.4566   -1.4088   -4.9198 C   0  0  0  0  0  0  0  0  0  0  0  0
   -1.3693   -2.7982   -5.1013 C   0  0  0  0  0  0  0  0  0  0  0  0
   -0.0734   -4.5283   -5.2176 H   0  0  0  0  0  0  0  0  0  0  0  0
    2.0039   -3.2151   -4.7978 H   0  0  0  0  0  0  0  0  0  0  0  0
    1.8637   -0.7358   -4.4992 H   0  0  0  0  0  0  0  0  0  0  0  0
   -0.3576    0.4164   -4.5631 H   0  0  0  0  0  0  0  0  0  0  0  0
   -2.4246   -0.9116   -4.9809 H   0  0  0  0  0  0  0  0  0  0  0  0
   -2.2750   -3.3739   -5.2953 H   0  0  0  0  0  0  0  0  0  0  0  0
  1  3  1  0  0  0  0
  2  1  2  0  0  0  0
  3  5  1  0  0  0  0
  4  3  1  0  0  0  0
  6  7  1  0  0  0  0
  7 13  1  0  0  0  0
  7  8  2  0  0  0  0
  8 14  1  0  0  0  0
  9  8  1  0  0  0  0
  9 15  1  0  0  0  0
 10  9  2  0  0  0  0
 11  6  2  0  0  0  0
 11 10  1  0  0  0  0
 12  6  1  0  0  0  0
 16 10  1  0  0  0  0
 17 11  1  0  0  0  0
M  RAD  1   2   2
M  END
