Coordinates from ORCA-job C6H6+NH2N2+-aug-scan
 OpenBabel10121810033D

 17 16  0  0  0  0  0  0  0  0999 V2000
    1.0587   -1.5811   -1.5142 N   0  0  0  0  0  0  0  0  0  0  0  0
    0.6483   -2.1625   -2.4039 N   0  0  0  0  0  0  0  0  0  0  0  0
    1.5803   -0.5228   -0.9497 N   0  0  0  0  0  0  0  0  0  0  0  0
    1.2820    0.3650   -1.3631 H   0  0  0  0  0  0  0  0  0  0  0  0
    1.6605   -0.5878    0.0636 H   0  0  0  0  0  0  0  0  0  0  0  0
   -0.2394   -3.4904   -5.3182 C   0  0  0  0  0  0  0  0  0  0  0  0
    1.0421   -2.9275   -5.3883 C   0  0  0  0  0  0  0  0  0  0  0  0
    1.2435   -1.6083   -4.9778 C   0  0  0  0  0  0  0  0  0  0  0  0
    0.1528   -0.8526   -4.4868 C   0  0  0  0  0  0  0  0  0  0  0  0
   -1.1396   -1.4188   -4.4405 C   0  0  0  0  0  0  0  0  0  0  0  0
   -1.3290   -2.7378   -4.8489 C   0  0  0  0  0  0  0  0  0  0  0  0
   -0.3957   -4.5192   -5.6444 H   0  0  0  0  0  0  0  0  0  0  0  0
    1.8757   -3.5142   -5.7739 H   0  0  0  0  0  0  0  0  0  0  0  0
    2.2317   -1.1534   -5.0540 H   0  0  0  0  0  0  0  0  0  0  0  0
    0.2923    0.2012   -4.2359 H   0  0  0  0  0  0  0  0  0  0  0  0
   -1.9848   -0.8212   -4.0978 H   0  0  0  0  0  0  0  0  0  0  0  0
   -2.3236   -3.1828   -4.8181 H   0  0  0  0  0  0  0  0  0  0  0  0
  1  3  1  0  0  0  0
  2  1  2  0  0  0  0
  3  5  1  0  0  0  0
  4  3  1  0  0  0  0
  6 11  1  0  0  0  0
  7  6  2  0  0  0  0
  7  8  1  0  0  0  0
  8  9  2  0  0  0  0
  9 10  1  0  0  0  0
  9 15  1  0  0  0  0
 10 16  1  0  0  0  0
 11 17  1  0  0  0  0
 11 10  2  0  0  0  0
 12  6  1  0  0  0  0
 13  7  1  0  0  0  0
 14  8  1  0  0  0  0
M  RAD  1   2   2
M  END
