Coordinates from ORCA-job C6H6+NH2N2+-aug-scan
 OpenBabel10121810033D

 17 16  0  0  0  0  0  0  0  0999 V2000
    0.9928   -1.6045   -1.4585 N   0  0  0  0  0  0  0  0  0  0  0  0
    0.2412   -1.9722   -2.2448 N   0  0  0  0  0  0  0  0  0  0  0  0
    2.1518   -1.0244   -1.2677 N   0  0  0  0  0  0  0  0  0  0  0  0
    2.4329   -0.3843   -2.0148 H   0  0  0  0  0  0  0  0  0  0  0  0
    2.3397   -0.7689   -0.3013 H   0  0  0  0  0  0  0  0  0  0  0  0
   -0.1183   -3.4471   -5.0663 C   0  0  0  0  0  0  0  0  0  0  0  0
    1.0249   -2.7389   -4.7066 C   0  0  0  0  0  0  0  0  0  0  0  0
    0.9304   -1.3518   -4.4281 C   0  0  0  0  0  0  0  0  0  0  0  0
   -0.3093   -0.6793   -4.5699 C   0  0  0  0  0  0  0  0  0  0  0  0
   -1.4449   -1.3996   -4.9297 C   0  0  0  0  0  0  0  0  0  0  0  0
   -1.3490   -2.7793   -5.1721 C   0  0  0  0  0  0  0  0  0  0  0  0
   -0.0573   -4.5143   -5.2788 H   0  0  0  0  0  0  0  0  0  0  0  0
    1.9900   -3.2422   -4.6440 H   0  0  0  0  0  0  0  0  0  0  0  0
    1.8436   -0.7733   -4.2693 H   0  0  0  0  0  0  0  0  0  0  0  0
   -0.3682    0.3968   -4.4046 H   0  0  0  0  0  0  0  0  0  0  0  0
   -2.4038   -0.8930   -5.0369 H   0  0  0  0  0  0  0  0  0  0  0  0
   -2.2408   -3.3380   -5.4586 H   0  0  0  0  0  0  0  0  0  0  0  0
  1  3  1  0  0  0  0
  2  1  2  0  0  0  0
  3  5  1  0  0  0  0
  4  3  1  0  0  0  0
  6  7  1  0  0  0  0
  7 13  1  0  0  0  0
  7  8  2  0  0  0  0
  8 14  1  0  0  0  0
  9  8  1  0  0  0  0
  9 15  1  0  0  0  0
 10  9  2  0  0  0  0
 11  6  2  0  0  0  0
 11 10  1  0  0  0  0
 12  6  1  0  0  0  0
 16 10  1  0  0  0  0
 17 11  1  0  0  0  0
M  RAD  1   2   2
M  END
