Coordinates from ORCA-job C6H6+NH2N2+-aug-scan
 OpenBabel10121810033D

 17 16  0  0  0  0  0  0  0  0999 V2000
    1.0798   -1.5339   -1.5300 N   0  0  0  0  0  0  0  0  0  0  0  0
    0.8159   -2.1120   -2.4706 N   0  0  0  0  0  0  0  0  0  0  0  0
    1.3689   -0.5025   -0.7835 N   0  0  0  0  0  0  0  0  0  0  0  0
    0.8815    0.3584   -1.0472 H   0  0  0  0  0  0  0  0  0  0  0  0
    1.4720   -0.7213    0.2068 H   0  0  0  0  0  0  0  0  0  0  0  0
   -0.2485   -3.5062   -5.2636 C   0  0  0  0  0  0  0  0  0  0  0  0
    1.0182   -2.9591   -5.5256 C   0  0  0  0  0  0  0  0  0  0  0  0
    1.2784   -1.6232   -5.2192 C   0  0  0  0  0  0  0  0  0  0  0  0
    0.2681   -0.8315   -4.6359 C   0  0  0  0  0  0  0  0  0  0  0  0
   -1.0103   -1.3805   -4.3910 C   0  0  0  0  0  0  0  0  0  0  0  0
   -1.2628   -2.7189   -4.7030 C   0  0  0  0  0  0  0  0  0  0  0  0
   -0.4484   -4.5487   -5.5134 H   0  0  0  0  0  0  0  0  0  0  0  0
    1.7927   -3.5763   -5.9810 H   0  0  0  0  0  0  0  0  0  0  0  0
    2.2529   -1.1873   -5.4409 H   0  0  0  0  0  0  0  0  0  0  0  0
    0.4508    0.2283   -4.4476 H   0  0  0  0  0  0  0  0  0  0  0  0
   -1.8039   -0.7535   -3.9824 H   0  0  0  0  0  0  0  0  0  0  0  0
   -2.2495   -3.1459   -4.5238 H   0  0  0  0  0  0  0  0  0  0  0  0
  1  3  1  0  0  0  0
  2  1  1  0  0  0  0
  3  5  1  0  0  0  0
  4  3  1  0  0  0  0
  6 11  1  0  0  0  0
  7  6  2  0  0  0  0
  7  8  1  0  0  0  0
  8  9  2  0  0  0  0
  9 15  1  0  0  0  0
  9 10  1  0  0  0  0
 10 16  1  0  0  0  0
 11 17  1  0  0  0  0
 11 10  2  0  0  0  0
 12  6  1  0  0  0  0
 13  7  1  0  0  0  0
 14  8  1  0  0  0  0
M  RAD  2   1   2   2   3
M  END
