Coordinates from ORCA-job C6H6+NH2N2+-aug-scan
 OpenBabel10121810033D

 17 16  0  0  0  0  0  0  0  0999 V2000
    0.9899   -1.6072   -1.4568 N   0  0  0  0  0  0  0  0  0  0  0  0
    0.2342   -1.9760   -2.2401 N   0  0  0  0  0  0  0  0  0  0  0  0
    2.1506   -1.0223   -1.2904 N   0  0  0  0  0  0  0  0  0  0  0  0
    2.4164   -0.3863   -2.0464 H   0  0  0  0  0  0  0  0  0  0  0  0
    2.3547   -0.7595   -0.3293 H   0  0  0  0  0  0  0  0  0  0  0  0
   -0.1162   -3.4462   -5.0669 C   0  0  0  0  0  0  0  0  0  0  0  0
    1.0244   -2.7414   -4.6935 C   0  0  0  0  0  0  0  0  0  0  0  0
    0.9285   -1.3557   -4.4067 C   0  0  0  0  0  0  0  0  0  0  0  0
   -0.3096   -0.6809   -4.5561 C   0  0  0  0  0  0  0  0  0  0  0  0
   -1.4426   -1.3980   -4.9295 C   0  0  0  0  0  0  0  0  0  0  0  0
   -1.3455   -2.7764   -5.1791 C   0  0  0  0  0  0  0  0  0  0  0  0
   -0.0546   -4.5121   -5.2852 H   0  0  0  0  0  0  0  0  0  0  0  0
    1.9885   -3.2458   -4.6256 H   0  0  0  0  0  0  0  0  0  0  0  0
    1.8416   -0.7783   -4.2433 H   0  0  0  0  0  0  0  0  0  0  0  0
   -0.3690    0.3943   -4.3851 H   0  0  0  0  0  0  0  0  0  0  0  0
   -2.4002   -0.8900   -5.0420 H   0  0  0  0  0  0  0  0  0  0  0  0
   -2.2353   -3.3327   -5.4761 H   0  0  0  0  0  0  0  0  0  0  0  0
  1  3  1  0  0  0  0
  2  1  2  0  0  0  0
  3  5  1  0  0  0  0
  4  3  1  0  0  0  0
  6  7  1  0  0  0  0
  7 13  1  0  0  0  0
  7  8  2  0  0  0  0
  8 14  1  0  0  0  0
  9  8  1  0  0  0  0
  9 15  1  0  0  0  0
 10  9  2  0  0  0  0
 11  6  2  0  0  0  0
 11 10  1  0  0  0  0
 12  6  1  0  0  0  0
 16 10  1  0  0  0  0
 17 11  1  0  0  0  0
M  RAD  1   2   2
M  END
