Coordinates from ORCA-job C6H6+NH2N2+-aug-scan
 OpenBabel10121810033D

 17 16  0  0  0  0  0  0  0  0999 V2000
    1.0496   -1.5354   -1.4756 N   0  0  0  0  0  0  0  0  0  0  0  0
    1.2365   -1.5313   -2.5959 N   0  0  0  0  0  0  0  0  0  0  0  0
    0.3634   -1.5257   -0.3652 N   0  0  0  0  0  0  0  0  0  0  0  0
   -0.5216   -2.0386   -0.4102 H   0  0  0  0  0  0  0  0  0  0  0  0
    0.9316   -1.6006    0.4777 H   0  0  0  0  0  0  0  0  0  0  0  0
   -0.0335   -3.1390   -4.5469 C   0  0  0  0  0  0  0  0  0  0  0  0
    0.9712   -2.9623   -5.4990 C   0  0  0  0  0  0  0  0  0  0  0  0
    1.2297   -1.6829   -6.0148 C   0  0  0  0  0  0  0  0  0  0  0  0
    0.4834   -0.5758   -5.5846 C   0  0  0  0  0  0  0  0  0  0  0  0
   -0.5224   -0.7426   -4.6313 C   0  0  0  0  0  0  0  0  0  0  0  0
   -0.7755   -2.0254   -4.0982 C   0  0  0  0  0  0  0  0  0  0  0  0
   -0.2582   -4.1352   -4.1640 H   0  0  0  0  0  0  0  0  0  0  0  0
    1.5446   -3.8185   -5.8546 H   0  0  0  0  0  0  0  0  0  0  0  0
    2.0093   -1.5505   -6.7658 H   0  0  0  0  0  0  0  0  0  0  0  0
    0.6798    0.4103   -6.0056 H   0  0  0  0  0  0  0  0  0  0  0  0
   -1.1237    0.1091   -4.3115 H   0  0  0  0  0  0  0  0  0  0  0  0
   -1.6085   -2.1698   -3.4067 H   0  0  0  0  0  0  0  0  0  0  0  0
  1  3  1  0  0  0  0
  2  1  1  0  0  0  0
  3  5  1  0  0  0  0
  4  3  1  0  0  0  0
  6 12  1  0  0  0  0
  6 11  1  0  0  0  0
  7  6  2  0  0  0  0
  8  9  2  0  0  0  0
  8  7  1  0  0  0  0
  9 10  1  0  0  0  0
 10 16  1  0  0  0  0
 10 11  2  0  0  0  0
 11 17  1  0  0  0  0
 13  7  1  0  0  0  0
 14  8  1  0  0  0  0
 15  9  1  0  0  0  0
M  RAD  2   1   2   2   3
M  END
