Coordinates from ORCA-job C6H6+NH2N2+-aug-scan
 OpenBabel10121810033D

 17 16  0  0  0  0  0  0  0  0999 V2000
    1.0736   -1.5464   -1.5203 N   0  0  0  0  0  0  0  0  0  0  0  0
    0.7585   -2.1357   -2.4394 N   0  0  0  0  0  0  0  0  0  0  0  0
    1.4441   -0.4958   -0.8382 N   0  0  0  0  0  0  0  0  0  0  0  0
    1.0242    0.3824   -1.1555 H   0  0  0  0  0  0  0  0  0  0  0  0
    1.5342   -0.6600    0.1635 H   0  0  0  0  0  0  0  0  0  0  0  0
   -0.2501   -3.5023   -5.2944 C   0  0  0  0  0  0  0  0  0  0  0  0
    1.0256   -2.9498   -5.4877 C   0  0  0  0  0  0  0  0  0  0  0  0
    1.2699   -1.6222   -5.1354 C   0  0  0  0  0  0  0  0  0  0  0  0
    0.2324   -0.8456   -4.5755 C   0  0  0  0  0  0  0  0  0  0  0  0
   -1.0551   -1.4003   -4.4021 C   0  0  0  0  0  0  0  0  0  0  0  0
   -1.2899   -2.7296   -4.7575 C   0  0  0  0  0  0  0  0  0  0  0  0
   -0.4382   -4.5382   -5.5786 H   0  0  0  0  0  0  0  0  0  0  0  0
    1.8198   -3.5546   -5.9254 H   0  0  0  0  0  0  0  0  0  0  0  0
    2.2518   -1.1794   -5.3047 H   0  0  0  0  0  0  0  0  0  0  0  0
    0.4029    0.2111   -4.3591 H   0  0  0  0  0  0  0  0  0  0  0  0
   -1.8658   -0.7850   -4.0101 H   0  0  0  0  0  0  0  0  0  0  0  0
   -2.2822   -3.1628   -4.6317 H   0  0  0  0  0  0  0  0  0  0  0  0
  1  3  1  0  0  0  0
  2  1  1  0  0  0  0
  3  5  1  0  0  0  0
  4  3  1  0  0  0  0
  6 11  1  0  0  0  0
  7  6  2  0  0  0  0
  7  8  1  0  0  0  0
  8  9  2  0  0  0  0
  9 10  1  0  0  0  0
  9 15  1  0  0  0  0
 10 16  1  0  0  0  0
 11 17  1  0  0  0  0
 11 10  2  0  0  0  0
 12  6  1  0  0  0  0
 13  7  1  0  0  0  0
 14  8  1  0  0  0  0
M  RAD  2   1   2   2   3
M  END
