Coordinates from ORCA-job C6H6+NH2N2+-aug-scan
 OpenBabel10121810033D

 17 16  0  0  0  0  0  0  0  0999 V2000
    0.9843   -1.6149   -1.4532 N   0  0  0  0  0  0  0  0  0  0  0  0
    0.2172   -1.9866   -2.2281 N   0  0  0  0  0  0  0  0  0  0  0  0
    2.1464   -1.0148   -1.3539 N   0  0  0  0  0  0  0  0  0  0  0  0
    2.3607   -0.3802   -2.1268 H   0  0  0  0  0  0  0  0  0  0  0  0
    2.3931   -0.7357   -0.4076 H   0  0  0  0  0  0  0  0  0  0  0  0
   -0.1109   -3.4440   -5.0696 C   0  0  0  0  0  0  0  0  0  0  0  0
    1.0229   -2.7503   -4.6600 C   0  0  0  0  0  0  0  0  0  0  0  0
    0.9245   -1.3689   -4.3486 C   0  0  0  0  0  0  0  0  0  0  0  0
   -0.3085   -0.6864   -4.5174 C   0  0  0  0  0  0  0  0  0  0  0  0
   -1.4348   -1.3932   -4.9271 C   0  0  0  0  0  0  0  0  0  0  0  0
   -1.3357   -2.7675   -5.1971 C   0  0  0  0  0  0  0  0  0  0  0  0
   -0.0483   -4.5062   -5.3047 H   0  0  0  0  0  0  0  0  0  0  0  0
    1.9837   -3.2591   -4.5785 H   0  0  0  0  0  0  0  0  0  0  0  0
    1.8382   -0.7959   -4.1754 H   0  0  0  0  0  0  0  0  0  0  0  0
   -0.3683    0.3860   -4.3297 H   0  0  0  0  0  0  0  0  0  0  0  0
   -2.3882   -0.8804   -5.0521 H   0  0  0  0  0  0  0  0  0  0  0  0
   -2.2205   -3.3160   -5.5223 H   0  0  0  0  0  0  0  0  0  0  0  0
  1  3  1  0  0  0  0
  2  1  2  0  0  0  0
  3  5  1  0  0  0  0
  4  3  1  0  0  0  0
  6  7  1  0  0  0  0
  7 13  1  0  0  0  0
  7  8  2  0  0  0  0
  8 14  1  0  0  0  0
  9  8  1  0  0  0  0
  9 15  1  0  0  0  0
 10  9  2  0  0  0  0
 11  6  2  0  0  0  0
 11 10  1  0  0  0  0
 12  6  1  0  0  0  0
 16 10  1  0  0  0  0
 17 11  1  0  0  0  0
M  RAD  1   2   2
M  END
