Coordinates from ORCA-job C6H6+NH2N2+-aug-scan
 OpenBabel10121810033D

 17 16  0  0  0  0  0  0  0  0999 V2000
    0.7873   -1.5644   -0.9162 N   0  0  0  0  0  0  0  0  0  0  0  0
    1.1642   -1.4771   -1.9749 N   0  0  0  0  0  0  0  0  0  0  0  0
    0.2158   -1.5813    0.2492 N   0  0  0  0  0  0  0  0  0  0  0  0
   -0.6661   -2.0993    0.2899 H   0  0  0  0  0  0  0  0  0  0  0  0
    0.8638   -1.6280    1.0381 H   0  0  0  0  0  0  0  0  0  0  0  0
    0.1215   -3.0947   -4.7000 C   0  0  0  0  0  0  0  0  0  0  0  0
    0.9551   -2.9722   -5.8147 C   0  0  0  0  0  0  0  0  0  0  0  0
    1.1165   -1.7255   -6.4384 C   0  0  0  0  0  0  0  0  0  0  0  0
    0.4582   -0.5947   -5.9309 C   0  0  0  0  0  0  0  0  0  0  0  0
   -0.3763   -0.7114   -4.8165 C   0  0  0  0  0  0  0  0  0  0  0  0
   -0.5510   -1.9642   -4.2002 C   0  0  0  0  0  0  0  0  0  0  0  0
   -0.0333   -4.0724   -4.2415 H   0  0  0  0  0  0  0  0  0  0  0  0
    1.4638   -3.8499   -6.2140 H   0  0  0  0  0  0  0  0  0  0  0  0
    1.7539   -1.6353   -7.3184 H   0  0  0  0  0  0  0  0  0  0  0  0
    0.5821    0.3717   -6.4201 H   0  0  0  0  0  0  0  0  0  0  0  0
   -0.9162    0.1613   -4.4466 H   0  0  0  0  0  0  0  0  0  0  0  0
   -1.2834   -2.0768   -3.3971 H   0  0  0  0  0  0  0  0  0  0  0  0
  1  3  1  0  0  0  0
  2  1  1  0  0  0  0
  3  4  1  0  0  0  0
  3  5  1  0  0  0  0
  6 12  1  0  0  0  0
  6 11  1  0  0  0  0
  7  6  2  0  0  0  0
  8  9  2  0  0  0  0
  8  7  1  0  0  0  0
  9 10  1  0  0  0  0
 10 16  1  0  0  0  0
 10 11  2  0  0  0  0
 11 17  1  0  0  0  0
 13  7  1  0  0  0  0
 14  8  1  0  0  0  0
 15  9  1  0  0  0  0
M  RAD  2   1   2   2   3
M  END
