Coordinates from ORCA-job C6H6+NH2N2+-aug-scan
 OpenBabel10121810033D

 17 16  0  0  0  0  0  0  0  0999 V2000
    0.9778   -1.6237   -1.4543 N   0  0  0  0  0  0  0  0  0  0  0  0
    0.2041   -1.9986   -2.2247 N   0  0  0  0  0  0  0  0  0  0  0  0
    2.1370   -1.0087   -1.4068 N   0  0  0  0  0  0  0  0  0  0  0  0
    2.3038   -0.3671   -2.1851 H   0  0  0  0  0  0  0  0  0  0  0  0
    2.4158   -0.7204   -0.4723 H   0  0  0  0  0  0  0  0  0  0  0  0
   -0.1060   -3.4422   -5.0700 C   0  0  0  0  0  0  0  0  0  0  0  0
    1.0238   -2.7582   -4.6360 C   0  0  0  0  0  0  0  0  0  0  0  0
    0.9252   -1.3802   -4.3054 C   0  0  0  0  0  0  0  0  0  0  0  0
   -0.3036   -0.6907   -4.4865 C   0  0  0  0  0  0  0  0  0  0  0  0
   -1.4262   -1.3884   -4.9204 C   0  0  0  0  0  0  0  0  0  0  0  0
   -1.3270   -2.7595   -5.2060 C   0  0  0  0  0  0  0  0  0  0  0  0
   -0.0438   -4.5014   -5.3181 H   0  0  0  0  0  0  0  0  0  0  0  0
    1.9817   -3.2710   -4.5469 H   0  0  0  0  0  0  0  0  0  0  0  0
    1.8407   -0.8116   -4.1300 H   0  0  0  0  0  0  0  0  0  0  0  0
   -0.3626    0.3796   -4.2868 H   0  0  0  0  0  0  0  0  0  0  0  0
   -2.3760   -0.8709   -5.0526 H   0  0  0  0  0  0  0  0  0  0  0  0
   -2.2089   -3.3011   -5.5502 H   0  0  0  0  0  0  0  0  0  0  0  0
  1  3  1  0  0  0  0
  2  1  2  0  0  0  0
  3  5  1  0  0  0  0
  4  3  1  0  0  0  0
  6  7  1  0  0  0  0
  7 13  1  0  0  0  0
  7  8  2  0  0  0  0
  8 14  1  0  0  0  0
  9  8  1  0  0  0  0
  9 15  1  0  0  0  0
 10  9  2  0  0  0  0
 11  6  2  0  0  0  0
 11 10  1  0  0  0  0
 12  6  1  0  0  0  0
 16 10  1  0  0  0  0
 17 11  1  0  0  0  0
M  RAD  1   2   2
M  END
