Coordinates from ORCA-job C6H6+NH2N2+-aug-scan
 OpenBabel10121810033D

 17 16  0  0  0  0  0  0  0  0999 V2000
    1.0896   -1.5249   -1.5281 N   0  0  0  0  0  0  0  0  0  0  0  0
    0.9792   -2.1024   -2.4994 N   0  0  0  0  0  0  0  0  0  0  0  0
    1.0248   -0.4968   -0.7254 N   0  0  0  0  0  0  0  0  0  0  0  0
    0.2253    0.1195   -0.8970 H   0  0  0  0  0  0  0  0  0  0  0  0
    1.2798   -0.7062    0.2391 H   0  0  0  0  0  0  0  0  0  0  0  0
   -0.2525   -3.4891   -5.2048 C   0  0  0  0  0  0  0  0  0  0  0  0
    0.9704   -2.9818   -5.6790 C   0  0  0  0  0  0  0  0  0  0  0  0
    1.3178   -1.6472   -5.4551 C   0  0  0  0  0  0  0  0  0  0  0  0
    0.4438   -0.8131   -4.7443 C   0  0  0  0  0  0  0  0  0  0  0  0
   -0.7840   -1.3240   -4.2625 C   0  0  0  0  0  0  0  0  0  0  0  0
   -1.1317   -2.6640   -4.5027 C   0  0  0  0  0  0  0  0  0  0  0  0
   -0.5187   -4.5284   -5.3992 H   0  0  0  0  0  0  0  0  0  0  0  0
    1.6446   -3.6320   -6.2372 H   0  0  0  0  0  0  0  0  0  0  0  0
    2.2569   -1.2521   -5.8424 H   0  0  0  0  0  0  0  0  0  0  0  0
    0.6904    0.2401   -4.6004 H   0  0  0  0  0  0  0  0  0  0  0  0
   -1.4908   -0.6605   -3.7603 H   0  0  0  0  0  0  0  0  0  0  0  0
   -2.0890   -3.0512   -4.1533 H   0  0  0  0  0  0  0  0  0  0  0  0
  1  3  1  0  0  0  0
  2  1  1  0  0  0  0
  3  5  1  0  0  0  0
  4  3  1  0  0  0  0
  6 11  2  0  0  0  0
  7  8  2  0  0  0  0
  7  6  1  0  0  0  0
  8  9  1  0  0  0  0
  9 15  1  0  0  0  0
  9 10  2  0  0  0  0
 10 16  1  0  0  0  0
 11 10  1  0  0  0  0
 11 17  1  0  0  0  0
 12  6  1  0  0  0  0
 13  7  1  0  0  0  0
 14  8  1  0  0  0  0
M  RAD  2   1   2   2   3
M  END
