Coordinates from ORCA-job C6H6+NH2N2+-aug-scan
 OpenBabel10121810033D

 17 16  0  0  0  0  0  0  0  0999 V2000
    1.0532   -1.5857   -1.5104 N   0  0  0  0  0  0  0  0  0  0  0  0
    0.6030   -2.1620   -2.3846 N   0  0  0  0  0  0  0  0  0  0  0  0
    1.6406   -0.5419   -0.9849 N   0  0  0  0  0  0  0  0  0  0  0  0
    1.3923    0.3477   -1.4265 H   0  0  0  0  0  0  0  0  0  0  0  0
    1.7242   -0.5774    0.0296 H   0  0  0  0  0  0  0  0  0  0  0  0
   -0.2324   -3.4873   -5.3216 C   0  0  0  0  0  0  0  0  0  0  0  0
    1.0470   -2.9186   -5.3433 C   0  0  0  0  0  0  0  0  0  0  0  0
    1.2261   -1.5994   -4.9193 C   0  0  0  0  0  0  0  0  0  0  0  0
    0.1137   -0.8505   -4.4660 C   0  0  0  0  0  0  0  0  0  0  0  0
   -1.1756   -1.4234   -4.4674 C   0  0  0  0  0  0  0  0  0  0  0  0
   -1.3423   -2.7414   -4.8876 C   0  0  0  0  0  0  0  0  0  0  0  0
   -0.3725   -4.5153   -5.6574 H   0  0  0  0  0  0  0  0  0  0  0  0
    1.8973   -3.4988   -5.7013 H   0  0  0  0  0  0  0  0  0  0  0  0
    2.2137   -1.1385   -4.9605 H   0  0  0  0  0  0  0  0  0  0  0  0
    0.2378    0.2030   -4.2061 H   0  0  0  0  0  0  0  0  0  0  0  0
   -2.0354   -0.8324   -4.1513 H   0  0  0  0  0  0  0  0  0  0  0  0
   -2.3348   -3.1922   -4.8936 H   0  0  0  0  0  0  0  0  0  0  0  0
  1  3  1  0  0  0  0
  2  1  2  0  0  0  0
  3  5  1  0  0  0  0
  4  3  1  0  0  0  0
  6 11  1  0  0  0  0
  7  6  2  0  0  0  0
  7  8  1  0  0  0  0
  8  9  2  0  0  0  0
  9 15  1  0  0  0  0
 10  9  1  0  0  0  0
 10 16  1  0  0  0  0
 11 10  2  0  0  0  0
 12  6  1  0  0  0  0
 13  7  1  0  0  0  0
 14  8  1  0  0  0  0
 17 11  1  0  0  0  0
M  RAD  1   2   2
M  END
