Coordinates from ORCA-job C6H6+NH2N2+-aug-scan
 OpenBabel10121810033D

 17 16  0  0  0  0  0  0  0  0999 V2000
    1.0898   -1.5230   -1.5246 N   0  0  0  0  0  0  0  0  0  0  0  0
    0.9010   -2.1166   -2.4733 N   0  0  0  0  0  0  0  0  0  0  0  0
    1.2123   -0.4765   -0.7547 N   0  0  0  0  0  0  0  0  0  0  0  0
    0.5744    0.2915   -0.9812 H   0  0  0  0  0  0  0  0  0  0  0  0
    1.3857   -0.6970    0.2253 H   0  0  0  0  0  0  0  0  0  0  0  0
   -0.2579   -3.5007   -5.2559 C   0  0  0  0  0  0  0  0  0  0  0  0
    0.9957   -2.9718   -5.6101 C   0  0  0  0  0  0  0  0  0  0  0  0
    1.3025   -1.6413   -5.3239 C   0  0  0  0  0  0  0  0  0  0  0  0
    0.3548   -0.8347   -4.6681 C   0  0  0  0  0  0  0  0  0  0  0  0
   -0.9087   -1.3659   -4.3212 C   0  0  0  0  0  0  0  0  0  0  0  0
   -1.2106   -2.7006   -4.6179 C   0  0  0  0  0  0  0  0  0  0  0  0
   -0.4927   -4.5385   -5.4942 H   0  0  0  0  0  0  0  0  0  0  0  0
    1.7236   -3.6012   -6.1226 H   0  0  0  0  0  0  0  0  0  0  0  0
    2.2657   -1.2234   -5.6168 H   0  0  0  0  0  0  0  0  0  0  0  0
    0.5708    0.2201   -4.4886 H   0  0  0  0  0  0  0  0  0  0  0  0
   -1.6616   -0.7252   -3.8590 H   0  0  0  0  0  0  0  0  0  0  0  0
   -2.1890   -3.1095   -4.3652 H   0  0  0  0  0  0  0  0  0  0  0  0
  1  3  1  0  0  0  0
  2  1  1  0  0  0  0
  3  5  1  0  0  0  0
  4  3  1  0  0  0  0
  6 11  2  0  0  0  0
  7  8  2  0  0  0  0
  7  6  1  0  0  0  0
  8  9  1  0  0  0  0
  9 15  1  0  0  0  0
  9 10  2  0  0  0  0
 10 16  1  0  0  0  0
 11 17  1  0  0  0  0
 11 10  1  0  0  0  0
 12  6  1  0  0  0  0
 13  7  1  0  0  0  0
 14  8  1  0  0  0  0
M  RAD  2   1   2   2   3
M  END
