Coordinates from ORCA-job C6H6+NH2N2+-aug-scan
 OpenBabel10121810033D

 17 16  0  0  0  0  0  0  0  0999 V2000
    0.9447   -1.6463   -1.4739 N   0  0  0  0  0  0  0  0  0  0  0  0
    0.0865   -1.8789   -2.2203 N   0  0  0  0  0  0  0  0  0  0  0  0
    2.1729   -1.1597   -1.6118 N   0  0  0  0  0  0  0  0  0  0  0  0
    2.2141   -0.3795   -2.2698 H   0  0  0  0  0  0  0  0  0  0  0  0
    2.6170   -0.9859   -0.7115 H   0  0  0  0  0  0  0  0  0  0  0  0
   -0.0640   -3.4180   -4.9884 C   0  0  0  0  0  0  0  0  0  0  0  0
    1.0238   -2.7092   -4.4979 C   0  0  0  0  0  0  0  0  0  0  0  0
    0.8794   -1.3271   -4.1831 C   0  0  0  0  0  0  0  0  0  0  0  0
   -0.3480   -0.6608   -4.4708 C   0  0  0  0  0  0  0  0  0  0  0  0
   -1.4278   -1.3837   -4.9639 C   0  0  0  0  0  0  0  0  0  0  0  0
   -1.2864   -2.7573   -5.2145 C   0  0  0  0  0  0  0  0  0  0  0  0
    0.0305   -4.4793   -5.2166 H   0  0  0  0  0  0  0  0  0  0  0  0
    1.9833   -3.2022   -4.3406 H   0  0  0  0  0  0  0  0  0  0  0  0
    1.7759   -0.7303   -4.0243 H   0  0  0  0  0  0  0  0  0  0  0  0
   -0.4365    0.4112   -4.2921 H   0  0  0  0  0  0  0  0  0  0  0  0
   -2.3749   -0.8856   -5.1684 H   0  0  0  0  0  0  0  0  0  0  0  0
   -2.1347   -3.3216   -5.6040 H   0  0  0  0  0  0  0  0  0  0  0  0
  2  1  2  0  0  0  0
  3  1  1  0  0  0  0
  3  5  1  0  0  0  0
  4  3  1  0  0  0  0
  6  7  1  0  0  0  0
  7 13  1  0  0  0  0
  7  8  2  0  0  0  0
  8 14  1  0  0  0  0
  9 15  1  0  0  0  0
  9  8  1  0  0  0  0
 10  9  2  0  0  0  0
 11  6  2  0  0  0  0
 11 10  1  0  0  0  0
 12  6  1  0  0  0  0
 16 10  1  0  0  0  0
 17 11  1  0  0  0  0
M  RAD  1   2   2
M  END
