Coordinates from ORCA-job C6H6+NH2N2+-aug-scan
 OpenBabel10121810033D

 17 16  0  0  0  0  0  0  0  0999 V2000
    0.9974   -1.6004   -1.4615 N   0  0  0  0  0  0  0  0  0  0  0  0
    0.2519   -1.9657   -2.2525 N   0  0  0  0  0  0  0  0  0  0  0  0
    2.1534   -1.0283   -1.2341 N   0  0  0  0  0  0  0  0  0  0  0  0
    2.4564   -0.3804   -1.9659 H   0  0  0  0  0  0  0  0  0  0  0  0
    2.3170   -0.7848   -0.2600 H   0  0  0  0  0  0  0  0  0  0  0  0
   -0.1211   -3.4485   -5.0649 C   0  0  0  0  0  0  0  0  0  0  0  0
    1.0258   -2.7351   -4.7260 C   0  0  0  0  0  0  0  0  0  0  0  0
    0.9331   -1.3460   -4.4606 C   0  0  0  0  0  0  0  0  0  0  0  0
   -0.3088   -0.6770   -4.5909 C   0  0  0  0  0  0  0  0  0  0  0  0
   -1.4483   -1.4019   -4.9298 C   0  0  0  0  0  0  0  0  0  0  0  0
   -1.3539   -2.7836   -5.1611 C   0  0  0  0  0  0  0  0  0  0  0  0
   -0.0612   -4.5174   -5.2684 H   0  0  0  0  0  0  0  0  0  0  0  0
    1.9923   -3.2367   -4.6716 H   0  0  0  0  0  0  0  0  0  0  0  0
    1.8466   -0.7657   -4.3094 H   0  0  0  0  0  0  0  0  0  0  0  0
   -0.3672    0.4006   -4.4347 H   0  0  0  0  0  0  0  0  0  0  0  0
   -2.4091   -0.8974   -5.0293 H   0  0  0  0  0  0  0  0  0  0  0  0
   -2.2485   -3.3459   -5.4313 H   0  0  0  0  0  0  0  0  0  0  0  0
  1  3  1  0  0  0  0
  2  1  2  0  0  0  0
  3  5  1  0  0  0  0
  4  3  1  0  0  0  0
  6  7  1  0  0  0  0
  7 13  1  0  0  0  0
  7  8  2  0  0  0  0
  8 14  1  0  0  0  0
  9  8  1  0  0  0  0
  9 15  1  0  0  0  0
 10  9  2  0  0  0  0
 11  6  2  0  0  0  0
 11 10  1  0  0  0  0
 12  6  1  0  0  0  0
 16 10  1  0  0  0  0
 17 11  1  0  0  0  0
M  RAD  1   2   2
M  END
