Coordinates from ORCA-job C6H6+NH2N2+-aug-scan
 OpenBabel10121810033D

 17 16  0  0  0  0  0  0  0  0999 V2000
    0.8192   -1.5634   -1.0210 N   0  0  0  0  0  0  0  0  0  0  0  0
    1.1552   -1.4903   -2.0950 N   0  0  0  0  0  0  0  0  0  0  0  0
    0.2648   -1.5598    0.1554 N   0  0  0  0  0  0  0  0  0  0  0  0
   -0.6176   -2.0761    0.2120 H   0  0  0  0  0  0  0  0  0  0  0  0
    0.9287   -1.6223    0.9299 H   0  0  0  0  0  0  0  0  0  0  0  0
    0.0773   -3.1064   -4.6826 C   0  0  0  0  0  0  0  0  0  0  0  0
    0.9653   -2.9679   -5.7522 C   0  0  0  0  0  0  0  0  0  0  0  0
    1.1557   -1.7130   -6.3514 C   0  0  0  0  0  0  0  0  0  0  0  0
    0.4713   -0.5899   -5.8619 C   0  0  0  0  0  0  0  0  0  0  0  0
   -0.4180   -0.7218   -4.7925 C   0  0  0  0  0  0  0  0  0  0  0  0
   -0.6210   -1.9830   -4.2011 C   0  0  0  0  0  0  0  0  0  0  0  0
   -0.1007   -4.0908   -4.2474 H   0  0  0  0  0  0  0  0  0  0  0  0
    1.4937   -3.8402   -6.1377 H   0  0  0  0  0  0  0  0  0  0  0  0
    1.8351   -1.6111   -7.1980 H   0  0  0  0  0  0  0  0  0  0  0  0
    0.6170    0.3830   -6.3319 H   0  0  0  0  0  0  0  0  0  0  0  0
   -0.9791    0.1450   -4.4408 H   0  0  0  0  0  0  0  0  0  0  0  0
   -1.3911   -2.1066   -3.4360 H   0  0  0  0  0  0  0  0  0  0  0  0
  1  3  1  0  0  0  0
  2  1  1  0  0  0  0
  3  4  1  0  0  0  0
  3  5  1  0  0  0  0
  6 12  1  0  0  0  0
  6 11  1  0  0  0  0
  7  6  2  0  0  0  0
  8  9  2  0  0  0  0
  8  7  1  0  0  0  0
  9 10  1  0  0  0  0
 10 16  1  0  0  0  0
 10 11  2  0  0  0  0
 11 17  1  0  0  0  0
 13  7  1  0  0  0  0
 14  8  1  0  0  0  0
 15  9  1  0  0  0  0
M  RAD  2   1   2   2   3
M  END
