Coordinates from ORCA-job C6H6+NH2N2+-aug-scan
 OpenBabel10121810033D

 17 16  0  0  0  0  0  0  0  0999 V2000
    1.1982   -1.5103   -1.6985 N   0  0  0  0  0  0  0  0  0  0  0  0
    1.2930   -1.5410   -2.8347 N   0  0  0  0  0  0  0  0  0  0  0  0
    0.3973   -1.4946   -0.6667 N   0  0  0  0  0  0  0  0  0  0  0  0
   -0.4879   -1.9852   -0.8220 H   0  0  0  0  0  0  0  0  0  0  0  0
    0.8646   -1.6030    0.2309 H   0  0  0  0  0  0  0  0  0  0  0  0
   -0.0801   -3.1653   -4.4802 C   0  0  0  0  0  0  0  0  0  0  0  0
    0.9628   -2.9665   -5.3825 C   0  0  0  0  0  0  0  0  0  0  0  0
    1.2541   -1.6696   -5.8302 C   0  0  0  0  0  0  0  0  0  0  0  0
    0.4816   -0.5707   -5.4354 C   0  0  0  0  0  0  0  0  0  0  0  0
   -0.5601   -0.7558   -4.5267 C   0  0  0  0  0  0  0  0  0  0  0  0
   -0.8235   -2.0532   -4.0225 C   0  0  0  0  0  0  0  0  0  0  0  0
   -0.3263   -4.1674   -4.1280 H   0  0  0  0  0  0  0  0  0  0  0  0
    1.5514   -3.8116   -5.7386 H   0  0  0  0  0  0  0  0  0  0  0  0
    2.0762   -1.5201   -6.5312 H   0  0  0  0  0  0  0  0  0  0  0  0
    0.6988    0.4215   -5.8296 H   0  0  0  0  0  0  0  0  0  0  0  0
   -1.1743    0.0862   -4.2065 H   0  0  0  0  0  0  0  0  0  0  0  0
   -1.6701   -2.2075   -3.3497 H   0  0  0  0  0  0  0  0  0  0  0  0
  1  3  1  0  0  0  0
  2  1  2  0  0  0  0
  3  5  1  0  0  0  0
  4  3  1  0  0  0  0
  6 12  1  0  0  0  0
  6 11  1  0  0  0  0
  7  6  2  0  0  0  0
  8  9  2  0  0  0  0
  8  7  1  0  0  0  0
  9 10  1  0  0  0  0
 10 16  1  0  0  0  0
 10 11  2  0  0  0  0
 11 17  1  0  0  0  0
 13  7  1  0  0  0  0
 14  8  1  0  0  0  0
 15  9  1  0  0  0  0
M  RAD  1   2   2
M  END
