Coordinates from ORCA-job C6H6+NH2N2+-aug-scan
 OpenBabel10121810033D

 17 17  0  0  1  0  0  0  0  0999 V2000
   -0.0634   -1.2479   -0.6718 N   0  0  0  0  0  0  0  0  0  0  0  0
    0.1978   -1.3700   -1.7494 N   0  0  0  0  0  0  0  0  0  0  0  0
    2.0716   -0.7915   -3.3202 N   0  0  0  0  0  0  0  0  0  0  0  0
    2.8694   -1.2147   -2.8328 H   0  0  0  0  0  0  0  0  0  0  0  0
    2.2371   -0.9428   -4.3178 H   0  0  0  0  0  0  0  0  0  0  0  0
    0.0259   -3.5229   -4.6262 C   0  0  0  0  0  0  0  0  0  0  0  0
    0.5323   -3.0140   -3.4355 C   0  0  0  0  0  0  0  0  0  0  0  0
    0.3574   -1.6220   -3.1590 C   0  0  1  0  0  0  0  0  0  0  0  0
   -0.5607   -0.8574   -3.9447 C   0  0  0  0  0  0  0  0  0  0  0  0
   -1.0448   -1.4102   -5.1250 C   0  0  0  0  0  0  0  0  0  0  0  0
   -0.7398   -2.7286   -5.4911 C   0  0  0  0  0  0  0  0  0  0  0  0
    0.2120   -4.5702   -4.8651 H   0  0  0  0  0  0  0  0  0  0  0  0
    1.0875   -3.6415   -2.7397 H   0  0  0  0  0  0  0  0  0  0  0  0
    2.1422    0.2214   -3.1713 H   0  0  0  0  0  0  0  0  0  0  0  0
   -0.8340    0.1504   -3.6349 H   0  0  0  0  0  0  0  0  0  0  0  0
   -1.6966   -0.8040   -5.7543 H   0  0  0  0  0  0  0  0  0  0  0  0
   -1.1382   -3.1483   -6.4132 H   0  0  0  0  0  0  0  0  0  0  0  0
  2  1  1  0  0  0  0
  3 14  1  0  0  0  0
  3  4  1  0  0  0  0
  5  3  1  0  0  0  0
  6  7  2  0  0  0  0
  7  8  1  0  0  0  0
  7 13  1  0  0  0  0
  8  3  1  6  0  0  0
  8  2  1  0  0  0  0
  9 15  1  0  0  0  0
  9  8  1  0  0  0  0
 10  9  2  0  0  0  0
 11 10  1  0  0  0  0
 11  6  1  0  0  0  0
 12  6  1  0  0  0  0
 16 10  1  0  0  0  0
 17 11  1  0  0  0  0
M  RAD  3   1   3   2   2  11   2
M  END
