Coordinates from ORCA-job C6H6+NH2N2+-aug-scan
 OpenBabel10121810033D

 17 16  0  0  0  0  0  0  0  0999 V2000
    0.1654   -1.1203   -0.6435 N   0  0  0  0  0  0  0  0  0  0  0  0
    0.1795   -1.3703   -1.7273 N   0  0  0  0  0  0  0  0  0  0  0  0
    2.0826   -0.7807   -3.3047 N   0  0  0  0  0  0  0  0  0  0  0  0
    2.9361   -1.2025   -2.9229 H   0  0  0  0  0  0  0  0  0  0  0  0
    2.1229   -0.9780   -4.3064 H   0  0  0  0  0  0  0  0  0  0  0  0
    0.0410   -3.5249   -4.6347 C   0  0  0  0  0  0  0  0  0  0  0  0
    0.4363   -3.0527   -3.3886 C   0  0  0  0  0  0  0  0  0  0  0  0
    0.1882   -1.6887   -3.0885 C   0  0  0  0  0  0  0  0  0  0  0  0
   -0.6624   -0.8947   -3.8999 C   0  0  0  0  0  0  0  0  0  0  0  0
   -1.0390   -1.4037   -5.1371 C   0  0  0  0  0  0  0  0  0  0  0  0
   -0.6756   -2.7042   -5.5189 C   0  0  0  0  0  0  0  0  0  0  0  0
    0.2717   -4.5543   -4.9078 H   0  0  0  0  0  0  0  0  0  0  0  0
    0.9611   -3.6875   -2.6766 H   0  0  0  0  0  0  0  0  0  0  0  0
    2.2463    0.2295   -3.2332 H   0  0  0  0  0  0  0  0  0  0  0  0
   -0.9657    0.0988   -3.5736 H   0  0  0  0  0  0  0  0  0  0  0  0
   -1.6459   -0.7875   -5.8000 H   0  0  0  0  0  0  0  0  0  0  0  0
   -0.9869   -3.0922   -6.4881 H   0  0  0  0  0  0  0  0  0  0  0  0
  2  1  1  0  0  0  0
  3 14  1  0  0  0  0
  3  4  1  0  0  0  0
  5  3  1  0  0  0  0
  6  7  2  0  0  0  0
  7  8  1  0  0  0  0
  7 13  1  0  0  0  0
  8  2  1  0  0  0  0
  9 15  1  0  0  0  0
  9  8  2  0  0  0  0
 10  9  1  0  0  0  0
 11 10  2  0  0  0  0
 11  6  1  0  0  0  0
 12  6  1  0  0  0  0
 16 10  1  0  0  0  0
 17 11  1  0  0  0  0
M  RAD  2   1   3   2   2
M  END
