Coordinates from ORCA-job C6H6+NH2N2+-aug-scan
 OpenBabel10121810033D

 17 16  0  0  0  0  0  0  0  0999 V2000
    1.0949   -1.5246   -1.5342 N   0  0  0  0  0  0  0  0  0  0  0  0
    1.0319   -2.0606   -2.5344 N   0  0  0  0  0  0  0  0  0  0  0  0
    0.9135   -0.5395   -0.6944 N   0  0  0  0  0  0  0  0  0  0  0  0
    0.0411   -0.0228   -0.8371 H   0  0  0  0  0  0  0  0  0  0  0  0
    1.2022   -0.7503    0.2601 H   0  0  0  0  0  0  0  0  0  0  0  0
   -0.2400   -3.4807   -5.1521 C   0  0  0  0  0  0  0  0  0  0  0  0
    0.9567   -2.9892   -5.7031 C   0  0  0  0  0  0  0  0  0  0  0  0
    1.3170   -1.6476   -5.5396 C   0  0  0  0  0  0  0  0  0  0  0  0
    0.4836   -0.7894   -4.8137 C   0  0  0  0  0  0  0  0  0  0  0  0
   -0.7143   -1.2847   -4.2471 C   0  0  0  0  0  0  0  0  0  0  0  0
   -1.0789   -2.6322   -4.4305 C   0  0  0  0  0  0  0  0  0  0  0  0
   -0.5173   -4.5242   -5.3023 H   0  0  0  0  0  0  0  0  0  0  0  0
    1.6015   -3.6573   -6.2748 H   0  0  0  0  0  0  0  0  0  0  0  0
    2.2358   -1.2689   -5.9872 H   0  0  0  0  0  0  0  0  0  0  0  0
    0.7409    0.2655   -4.7088 H   0  0  0  0  0  0  0  0  0  0  0  0
   -1.3952   -0.6031   -3.7334 H   0  0  0  0  0  0  0  0  0  0  0  0
   -2.0175   -3.0046   -4.0196 H   0  0  0  0  0  0  0  0  0  0  0  0
  1  3  1  0  0  0  0
  2  1  1  0  0  0  0
  3  5  1  0  0  0  0
  4  3  1  0  0  0  0
  6 11  2  0  0  0  0
  7  8  2  0  0  0  0
  7  6  1  0  0  0  0
  8  9  1  0  0  0  0
  9 15  1  0  0  0  0
  9 10  2  0  0  0  0
 10 16  1  0  0  0  0
 11 10  1  0  0  0  0
 11 17  1  0  0  0  0
 12  6  1  0  0  0  0
 13  7  1  0  0  0  0
 14  8  1  0  0  0  0
M  RAD  2   1   2   2   3
M  END
