Coordinates from ORCA-job C6H6+NH2N2+-aug-scan
 OpenBabel10121810033D

 17 16  0  0  0  0  0  0  0  0999 V2000
    0.9613   -1.5215   -1.4491 N   0  0  0  0  0  0  0  0  0  0  0  0
    0.0236   -1.4661   -2.1597 N   0  0  0  0  0  0  0  0  0  0  0  0
    2.2534   -1.4684   -1.7511 N   0  0  0  0  0  0  0  0  0  0  0  0
    2.4914   -0.7771   -2.4613 H   0  0  0  0  0  0  0  0  0  0  0  0
    2.8357   -1.4352   -0.9168 H   0  0  0  0  0  0  0  0  0  0  0  0
   -0.0032   -3.3679   -4.8657 C   0  0  0  0  0  0  0  0  0  0  0  0
    0.9821   -2.5822   -4.2942 C   0  0  0  0  0  0  0  0  0  0  0  0
    0.7153   -1.1992   -4.0183 C   0  0  0  0  0  0  0  0  0  0  0  0
   -0.4995   -0.6137   -4.5141 C   0  0  0  0  0  0  0  0  0  0  0  0
   -1.4696   -1.4102   -5.0945 C   0  0  0  0  0  0  0  0  0  0  0  0
   -1.2272   -2.7867   -5.2539 C   0  0  0  0  0  0  0  0  0  0  0  0
    0.1736   -4.4284   -5.0420 H   0  0  0  0  0  0  0  0  0  0  0  0
    1.9447   -3.0158   -4.0249 H   0  0  0  0  0  0  0  0  0  0  0  0
    1.5433   -0.5032   -3.8826 H   0  0  0  0  0  0  0  0  0  0  0  0
   -0.6645    0.4557   -4.3816 H   0  0  0  0  0  0  0  0  0  0  0  0
   -2.4096   -0.9780   -5.4356 H   0  0  0  0  0  0  0  0  0  0  0  0
   -1.9949   -3.4163   -5.7066 H   0  0  0  0  0  0  0  0  0  0  0  0
  2  1  2  0  0  0  0
  3  1  1  0  0  0  0
  3  5  1  0  0  0  0
  4  3  1  0  0  0  0
  6  7  2  0  0  0  0
  7 13  1  0  0  0  0
  7  8  1  0  0  0  0
  8 14  1  0  0  0  0
  9 15  1  0  0  0  0
  9  8  2  0  0  0  0
 10  9  1  0  0  0  0
 11 10  2  0  0  0  0
 11  6  1  0  0  0  0
 12  6  1  0  0  0  0
 16 10  1  0  0  0  0
 17 11  1  0  0  0  0
M  RAD  1   2   2
M  END
