Coordinates from ORCA-job C6H6+NH2N2+-aug-scan
 OpenBabel10121810033D

 17 16  0  0  0  0  0  0  0  0999 V2000
    1.0441   -1.5360   -1.4654 N   0  0  0  0  0  0  0  0  0  0  0  0
    1.2347   -1.5302   -2.5850 N   0  0  0  0  0  0  0  0  0  0  0  0
    0.3609   -1.5274   -0.3532 N   0  0  0  0  0  0  0  0  0  0  0  0
   -0.5237   -2.0412   -0.3958 H   0  0  0  0  0  0  0  0  0  0  0  0
    0.9315   -1.6012    0.4882 H   0  0  0  0  0  0  0  0  0  0  0  0
   -0.0307   -3.1379   -4.5492 C   0  0  0  0  0  0  0  0  0  0  0  0
    0.9713   -2.9623   -5.5044 C   0  0  0  0  0  0  0  0  0  0  0  0
    1.2280   -1.6836   -6.0231 C   0  0  0  0  0  0  0  0  0  0  0  0
    0.4832   -0.5761   -5.5914 C   0  0  0  0  0  0  0  0  0  0  0  0
   -0.5200   -0.7418   -4.6351 C   0  0  0  0  0  0  0  0  0  0  0  0
   -0.7720   -2.0240   -4.1001 C   0  0  0  0  0  0  0  0  0  0  0  0
   -0.2544   -4.1336   -4.1647 H   0  0  0  0  0  0  0  0  0  0  0  0
    1.5437   -3.8189   -5.8604 H   0  0  0  0  0  0  0  0  0  0  0  0
    2.0051   -1.5522   -6.7767 H   0  0  0  0  0  0  0  0  0  0  0  0
    0.6784    0.4096   -6.0139 H   0  0  0  0  0  0  0  0  0  0  0  0
   -1.1205    0.1103   -4.3148 H   0  0  0  0  0  0  0  0  0  0  0  0
   -1.6039   -2.1678   -3.4071 H   0  0  0  0  0  0  0  0  0  0  0  0
  1  3  1  0  0  0  0
  2  1  1  0  0  0  0
  3  5  1  0  0  0  0
  4  3  1  0  0  0  0
  6 12  1  0  0  0  0
  6 11  1  0  0  0  0
  7  6  2  0  0  0  0
  8  9  2  0  0  0  0
  8  7  1  0  0  0  0
  9 10  1  0  0  0  0
 10 16  1  0  0  0  0
 10 11  2  0  0  0  0
 11 17  1  0  0  0  0
 13  7  1  0  0  0  0
 14  8  1  0  0  0  0
 15  9  1  0  0  0  0
M  RAD  2   1   2   2   3
M  END
