Coordinates from ORCA-job C6H6+NH2N2+-aug-scan
 OpenBabel10121810033D

 17 16  0  0  0  0  0  0  0  0999 V2000
    0.9554   -1.6419   -1.4655 N   0  0  0  0  0  0  0  0  0  0  0  0
    0.1302   -1.9404   -2.2241 N   0  0  0  0  0  0  0  0  0  0  0  0
    2.1537   -1.0910   -1.5489 N   0  0  0  0  0  0  0  0  0  0  0  0
    2.2213   -0.3758   -2.2748 H   0  0  0  0  0  0  0  0  0  0  0  0
    2.5421   -0.8508   -0.6392 H   0  0  0  0  0  0  0  0  0  0  0  0
   -0.0792   -3.4276   -5.0243 C   0  0  0  0  0  0  0  0  0  0  0  0
    1.0242   -2.7356   -4.5433 C   0  0  0  0  0  0  0  0  0  0  0  0
    0.8992   -1.3572   -4.2091 C   0  0  0  0  0  0  0  0  0  0  0  0
   -0.3267   -0.6758   -4.4590 C   0  0  0  0  0  0  0  0  0  0  0  0
   -1.4226   -1.3823   -4.9412 C   0  0  0  0  0  0  0  0  0  0  0  0
   -1.2990   -2.7531   -5.2164 C   0  0  0  0  0  0  0  0  0  0  0  0
    0.0014   -4.4863   -5.2692 H   0  0  0  0  0  0  0  0  0  0  0  0
    1.9815   -3.2400   -4.4106 H   0  0  0  0  0  0  0  0  0  0  0  0
    1.8057   -0.7749   -4.0458 H   0  0  0  0  0  0  0  0  0  0  0  0
   -0.4022    0.3942   -4.2637 H   0  0  0  0  0  0  0  0  0  0  0  0
   -2.3690   -0.8726   -5.1188 H   0  0  0  0  0  0  0  0  0  0  0  0
   -2.1602   -3.3032   -5.5980 H   0  0  0  0  0  0  0  0  0  0  0  0
  2  1  2  0  0  0  0
  3  1  1  0  0  0  0
  3  5  1  0  0  0  0
  4  3  1  0  0  0  0
  6  7  1  0  0  0  0
  7 13  1  0  0  0  0
  7  8  2  0  0  0  0
  8 14  1  0  0  0  0
  9 15  1  0  0  0  0
  9  8  1  0  0  0  0
 10  9  2  0  0  0  0
 11  6  2  0  0  0  0
 11 10  1  0  0  0  0
 12  6  1  0  0  0  0
 16 10  1  0  0  0  0
 17 11  1  0  0  0  0
M  RAD  1   2   2
M  END
