Coordinates from ORCA-job C6H6+NH2N2+-aug-scan
 OpenBabel10121810033D

 17 16  0  0  0  0  0  0  0  0999 V2000
    1.0009   -1.5413   -1.3825 N   0  0  0  0  0  0  0  0  0  0  0  0
    1.2153   -1.5305   -2.4964 N   0  0  0  0  0  0  0  0  0  0  0  0
    0.3427   -1.5308   -0.2563 N   0  0  0  0  0  0  0  0  0  0  0  0
   -0.5409   -2.0478   -0.2748 H   0  0  0  0  0  0  0  0  0  0  0  0
    0.9330   -1.5961    0.5728 H   0  0  0  0  0  0  0  0  0  0  0  0
   -0.0108   -3.1327   -4.5750 C   0  0  0  0  0  0  0  0  0  0  0  0
    0.9707   -2.9633   -5.5527 C   0  0  0  0  0  0  0  0  0  0  0  0
    1.2149   -1.6886   -6.0874 C   0  0  0  0  0  0  0  0  0  0  0  0
    0.4830   -0.5780   -5.6405 C   0  0  0  0  0  0  0  0  0  0  0  0
   -0.5000   -0.7388   -4.6625 C   0  0  0  0  0  0  0  0  0  0  0  0
   -0.7447   -2.0177   -4.1187 C   0  0  0  0  0  0  0  0  0  0  0  0
   -0.2263   -4.1269   -4.1815 H   0  0  0  0  0  0  0  0  0  0  0  0
    1.5347   -3.8226   -5.9157 H   0  0  0  0  0  0  0  0  0  0  0  0
    1.9734   -1.5621   -6.8606 H   0  0  0  0  0  0  0  0  0  0  0  0
    0.6700    0.4060   -6.0707 H   0  0  0  0  0  0  0  0  0  0  0  0
   -1.0928    0.1159   -4.3349 H   0  0  0  0  0  0  0  0  0  0  0  0
   -1.5676   -2.1590   -3.4145 H   0  0  0  0  0  0  0  0  0  0  0  0
  1  3  1  0  0  0  0
  2  1  1  0  0  0  0
  3  5  1  0  0  0  0
  4  3  1  0  0  0  0
  6 12  1  0  0  0  0
  6 11  1  0  0  0  0
  7  6  2  0  0  0  0
  8  9  2  0  0  0  0
  8  7  1  0  0  0  0
  9 10  1  0  0  0  0
 10 16  1  0  0  0  0
 10 11  2  0  0  0  0
 11 17  1  0  0  0  0
 13  7  1  0  0  0  0
 14  8  1  0  0  0  0
 15  9  1  0  0  0  0
M  RAD  2   1   2   2   3
M  END
