Coordinates from ORCA-job C6H6+NH2N2+-aug-scan
 OpenBabel10121810033D

 17 16  0  0  0  0  0  0  0  0999 V2000
   -0.0064   -0.0861    0.5904 N   0  0  0  0  0  0  0  0  0  0  0  0
    0.4537   -0.3386   -0.3799 N   0  0  0  0  0  0  0  0  0  0  0  0
    1.7178   -1.1183   -3.0967 N   0  0  0  0  0  0  0  0  0  0  0  0
    2.5001   -1.7428   -2.8543 H   0  0  0  0  0  0  0  0  0  0  0  0
    2.1623   -0.2671   -3.4782 H   0  0  0  0  0  0  0  0  0  0  0  0
    0.0451   -3.6355   -5.0817 C   0  0  0  0  0  0  0  0  0  0  0  0
    0.9787   -3.0355   -4.2326 C   0  0  0  0  0  0  0  0  0  0  0  0
    0.8546   -1.6802   -3.9069 C   0  0  0  0  0  0  0  0  0  0  0  0
   -0.2009   -0.9206   -4.4340 C   0  0  0  0  0  0  0  0  0  0  0  0
   -1.1287   -1.5250   -5.2816 C   0  0  0  0  0  0  0  0  0  0  0  0
   -1.0079   -2.8819   -5.6052 C   0  0  0  0  0  0  0  0  0  0  0  0
    0.1467   -4.6905   -5.3335 H   0  0  0  0  0  0  0  0  0  0  0  0
    1.8046   -3.6260   -3.8261 H   0  0  0  0  0  0  0  0  0  0  0  0
    1.3144   -0.8230   -2.1832 H   0  0  0  0  0  0  0  0  0  0  0  0
   -0.2978    0.1394   -4.1865 H   0  0  0  0  0  0  0  0  0  0  0  0
   -1.9462   -0.9334   -5.6924 H   0  0  0  0  0  0  0  0  0  0  0  0
   -1.7344   -3.3492   -6.2696 H   0  0  0  0  0  0  0  0  0  0  0  0
  2  1  3  0  0  0  0
  3  4  1  0  0  0  0
  3 14  1  0  0  0  0
  5  3  1  0  0  0  0
  6  7  2  0  0  0  0
  7  8  1  0  0  0  0
  7 13  1  0  0  0  0
  8  3  1  0  0  0  0
  9 15  1  0  0  0  0
  9  8  2  0  0  0  0
 10  9  1  0  0  0  0
 11 10  2  0  0  0  0
 11  6  1  0  0  0  0
 12  6  1  0  0  0  0
 16 10  1  0  0  0  0
 17 11  1  0  0  0  0
M  END
