Coordinates from ORCA-job C6H6+NH2N2+-aug-scan
 OpenBabel10121810033D

 17 16  0  0  0  0  0  0  0  0999 V2000
    0.8017   -1.5664   -0.9704 N   0  0  0  0  0  0  0  0  0  0  0  0
    1.1696   -1.4822   -2.0329 N   0  0  0  0  0  0  0  0  0  0  0  0
    0.2307   -1.5752    0.1960 N   0  0  0  0  0  0  0  0  0  0  0  0
   -0.6537   -2.0888    0.2384 H   0  0  0  0  0  0  0  0  0  0  0  0
    0.8799   -1.6295    0.9834 H   0  0  0  0  0  0  0  0  0  0  0  0
    0.1067   -3.0983   -4.6853 C   0  0  0  0  0  0  0  0  0  0  0  0
    0.9587   -2.9704   -5.7853 C   0  0  0  0  0  0  0  0  0  0  0  0
    1.1295   -1.7209   -6.4009 C   0  0  0  0  0  0  0  0  0  0  0  0
    0.4618   -0.5926   -5.9001 C   0  0  0  0  0  0  0  0  0  0  0  0
   -0.3912   -0.7146   -4.8004 C   0  0  0  0  0  0  0  0  0  0  0  0
   -0.5743   -1.9701   -4.1915 C   0  0  0  0  0  0  0  0  0  0  0  0
   -0.0553   -4.0780   -4.2335 H   0  0  0  0  0  0  0  0  0  0  0  0
    1.4746   -3.8460   -6.1800 H   0  0  0  0  0  0  0  0  0  0  0  0
    1.7813   -1.6267   -7.2699 H   0  0  0  0  0  0  0  0  0  0  0  0
    0.5929    0.3758   -6.3834 H   0  0  0  0  0  0  0  0  0  0  0  0
   -0.9384    0.1559   -4.4360 H   0  0  0  0  0  0  0  0  0  0  0  0
   -1.3187   -2.0862   -3.4002 H   0  0  0  0  0  0  0  0  0  0  0  0
  1  3  1  0  0  0  0
  2  1  1  0  0  0  0
  3  4  1  0  0  0  0
  3  5  1  0  0  0  0
  6 12  1  0  0  0  0
  6 11  1  0  0  0  0
  7  6  2  0  0  0  0
  8  9  2  0  0  0  0
  8  7  1  0  0  0  0
  9 10  1  0  0  0  0
 10 16  1  0  0  0  0
 10 11  2  0  0  0  0
 11 17  1  0  0  0  0
 13  7  1  0  0  0  0
 14  8  1  0  0  0  0
 15  9  1  0  0  0  0
M  RAD  2   1   2   2   3
M  END
