Coordinates from ORCA-job C6H6+NH2N2+-aug-scan
 OpenBabel10121810033D

 17 16  0  0  0  0  0  0  0  0999 V2000
    1.0918   -1.5182   -1.5393 N   0  0  0  0  0  0  0  0  0  0  0  0
    1.0439   -2.0304   -2.5523 N   0  0  0  0  0  0  0  0  0  0  0  0
    0.8829   -0.5731   -0.6619 N   0  0  0  0  0  0  0  0  0  0  0  0
   -0.0110   -0.0864   -0.7724 H   0  0  0  0  0  0  0  0  0  0  0  0
    1.1993   -0.8023    0.2794 H   0  0  0  0  0  0  0  0  0  0  0  0
   -0.2286   -3.4778   -5.1201 C   0  0  0  0  0  0  0  0  0  0  0  0
    0.9584   -2.9950   -5.6975 C   0  0  0  0  0  0  0  0  0  0  0  0
    1.3133   -1.6466   -5.5744 C   0  0  0  0  0  0  0  0  0  0  0  0
    0.4847   -0.7733   -4.8628 C   0  0  0  0  0  0  0  0  0  0  0  0
   -0.7022   -1.2595   -4.2674 C   0  0  0  0  0  0  0  0  0  0  0  0
   -1.0628   -2.6136   -4.4113 C   0  0  0  0  0  0  0  0  0  0  0  0
   -0.5026   -4.5261   -5.2396 H   0  0  0  0  0  0  0  0  0  0  0  0
    1.6006   -3.6747   -6.2585 H   0  0  0  0  0  0  0  0  0  0  0  0
    2.2248   -1.2760   -6.0433 H   0  0  0  0  0  0  0  0  0  0  0  0
    0.7385    0.2849   -4.7874 H   0  0  0  0  0  0  0  0  0  0  0  0
   -1.3798   -0.5676   -3.7631 H   0  0  0  0  0  0  0  0  0  0  0  0
   -1.9952   -2.9787   -3.9801 H   0  0  0  0  0  0  0  0  0  0  0  0
  1  3  1  0  0  0  0
  2  1  1  0  0  0  0
  3  5  1  0  0  0  0
  4  3  1  0  0  0  0
  6 11  2  0  0  0  0
  7  8  2  0  0  0  0
  7  6  1  0  0  0  0
  8  9  1  0  0  0  0
  9 15  1  0  0  0  0
  9 10  2  0  0  0  0
 10 16  1  0  0  0  0
 11 10  1  0  0  0  0
 11 17  1  0  0  0  0
 12  6  1  0  0  0  0
 13  7  1  0  0  0  0
 14  8  1  0  0  0  0
M  RAD  2   1   2   2   3
M  END
