Coordinates from ORCA-job C6H6+NH2N2+-aug-scan
 OpenBabel10121810033D

 17 16  0  0  0  0  0  0  0  0999 V2000
    0.8778   -1.5508   -1.1040 N   0  0  0  0  0  0  0  0  0  0  0  0
    1.1997   -1.5006   -2.1863 N   0  0  0  0  0  0  0  0  0  0  0  0
    0.2523   -1.5666    0.0358 N   0  0  0  0  0  0  0  0  0  0  0  0
   -0.6283   -2.0887    0.0380 H   0  0  0  0  0  0  0  0  0  0  0  0
    0.8634   -1.6109    0.8523 H   0  0  0  0  0  0  0  0  0  0  0  0
    0.0769   -3.1079   -4.6394 C   0  0  0  0  0  0  0  0  0  0  0  0
    0.9604   -2.9686   -5.7121 C   0  0  0  0  0  0  0  0  0  0  0  0
    1.1494   -1.7121   -6.3085 C   0  0  0  0  0  0  0  0  0  0  0  0
    0.4683   -0.5879   -5.8157 C   0  0  0  0  0  0  0  0  0  0  0  0
   -0.4162   -0.7202   -4.7432 C   0  0  0  0  0  0  0  0  0  0  0  0
   -0.6162   -1.9828   -4.1512 C   0  0  0  0  0  0  0  0  0  0  0  0
   -0.0999   -4.0920   -4.2032 H   0  0  0  0  0  0  0  0  0  0  0  0
    1.4867   -3.8402   -6.1018 H   0  0  0  0  0  0  0  0  0  0  0  0
    1.8260   -1.6092   -7.1573 H   0  0  0  0  0  0  0  0  0  0  0  0
    0.6140    0.3851   -6.2854 H   0  0  0  0  0  0  0  0  0  0  0  0
   -0.9740    0.1463   -4.3857 H   0  0  0  0  0  0  0  0  0  0  0  0
   -1.3845   -2.1070   -3.3844 H   0  0  0  0  0  0  0  0  0  0  0  0
  1  3  1  0  0  0  0
  2  1  1  0  0  0  0
  3  4  1  0  0  0  0
  3  5  1  0  0  0  0
  6 12  1  0  0  0  0
  6 11  1  0  0  0  0
  7  6  2  0  0  0  0
  8  9  2  0  0  0  0
  8  7  1  0  0  0  0
  9 10  1  0  0  0  0
 10 16  1  0  0  0  0
 10 11  2  0  0  0  0
 11 17  1  0  0  0  0
 13  7  1  0  0  0  0
 14  8  1  0  0  0  0
 15  9  1  0  0  0  0
M  RAD  2   1   2   2   3
M  END
