Coordinates from ORCA-job C6H6+NH2N2+-aug-scan
 OpenBabel10121810033D

 17 16  0  0  0  0  0  0  0  0999 V2000
    0.7687   -1.5613   -0.8426 N   0  0  0  0  0  0  0  0  0  0  0  0
    1.1517   -1.4705   -1.8982 N   0  0  0  0  0  0  0  0  0  0  0  0
    0.2006   -1.5881    0.3236 N   0  0  0  0  0  0  0  0  0  0  0  0
   -0.6763   -2.1143    0.3656 H   0  0  0  0  0  0  0  0  0  0  0  0
    0.8499   -1.6224    1.1122 H   0  0  0  0  0  0  0  0  0  0  0  0
    0.1371   -3.0909   -4.7230 C   0  0  0  0  0  0  0  0  0  0  0  0
    0.9507   -2.9744   -5.8531 C   0  0  0  0  0  0  0  0  0  0  0  0
    1.1026   -1.7308   -6.4852 C   0  0  0  0  0  0  0  0  0  0  0  0
    0.4547   -0.5972   -5.9706 C   0  0  0  0  0  0  0  0  0  0  0  0
   -0.3597   -0.7081   -4.8407 C   0  0  0  0  0  0  0  0  0  0  0  0
   -0.5257   -1.9580   -4.2169 C   0  0  0  0  0  0  0  0  0  0  0  0
   -0.0100   -4.0665   -4.2574 H   0  0  0  0  0  0  0  0  0  0  0  0
    1.4514   -3.8545   -6.2573 H   0  0  0  0  0  0  0  0  0  0  0  0
    1.7245   -1.6452   -7.3767 H   0  0  0  0  0  0  0  0  0  0  0  0
    0.5711    0.3671   -6.4658 H   0  0  0  0  0  0  0  0  0  0  0  0
   -0.8913    0.1671   -4.4649 H   0  0  0  0  0  0  0  0  0  0  0  0
   -1.2443   -2.0663   -3.4008 H   0  0  0  0  0  0  0  0  0  0  0  0
  1  3  1  0  0  0  0
  2  1  1  0  0  0  0
  3  4  1  0  0  0  0
  3  5  1  0  0  0  0
  6 12  1  0  0  0  0
  6 11  1  0  0  0  0
  7  6  2  0  0  0  0
  8  9  2  0  0  0  0
  8  7  1  0  0  0  0
  9 10  1  0  0  0  0
 10 16  1  0  0  0  0
 10 11  2  0  0  0  0
 11 17  1  0  0  0  0
 13  7  1  0  0  0  0
 14  8  1  0  0  0  0
 15  9  1  0  0  0  0
M  RAD  2   1   2   2   3
M  END
