Coordinates from ORCA-job C6H6+NH2N2+-aug-scan
 OpenBabel10121810033D

 17 16  0  0  0  0  0  0  0  0999 V2000
    0.9645   -1.6360   -1.4594 N   0  0  0  0  0  0  0  0  0  0  0  0
    0.1626   -1.9726   -2.2249 N   0  0  0  0  0  0  0  0  0  0  0  0
    2.1437   -1.0499   -1.4964 N   0  0  0  0  0  0  0  0  0  0  0  0
    2.2476   -0.3764   -2.2575 H   0  0  0  0  0  0  0  0  0  0  0  0
    2.4892   -0.7775   -0.5792 H   0  0  0  0  0  0  0  0  0  0  0  0
   -0.0902   -3.4337   -5.0464 C   0  0  0  0  0  0  0  0  0  0  0  0
    1.0236   -2.7487   -4.5779 C   0  0  0  0  0  0  0  0  0  0  0  0
    0.9100   -1.3718   -4.2378 C   0  0  0  0  0  0  0  0  0  0  0  0
   -0.3158   -0.6840   -4.4612 C   0  0  0  0  0  0  0  0  0  0  0  0
   -1.4223   -1.3833   -4.9300 C   0  0  0  0  0  0  0  0  0  0  0  0
   -1.3094   -2.7533   -5.2155 C   0  0  0  0  0  0  0  0  0  0  0  0
   -0.0179   -4.4916   -5.2976 H   0  0  0  0  0  0  0  0  0  0  0  0
    1.9805   -3.2582   -4.4623 H   0  0  0  0  0  0  0  0  0  0  0  0
    1.8214   -0.7967   -4.0700 H   0  0  0  0  0  0  0  0  0  0  0  0
   -0.3836    0.3854   -4.2593 H   0  0  0  0  0  0  0  0  0  0  0  0
   -2.3693   -0.8687   -5.0896 H   0  0  0  0  0  0  0  0  0  0  0  0
   -2.1789   -3.2971   -5.5868 H   0  0  0  0  0  0  0  0  0  0  0  0
  2  1  2  0  0  0  0
  3  1  1  0  0  0  0
  3  5  1  0  0  0  0
  4  3  1  0  0  0  0
  6  7  1  0  0  0  0
  7 13  1  0  0  0  0
  7  8  2  0  0  0  0
  8 14  1  0  0  0  0
  9 15  1  0  0  0  0
  9  8  1  0  0  0  0
 10  9  2  0  0  0  0
 11  6  2  0  0  0  0
 11 10  1  0  0  0  0
 12  6  1  0  0  0  0
 16 10  1  0  0  0  0
 17 11  1  0  0  0  0
M  RAD  1   2   2
M  END
