Coordinates from ORCA-job C6H6+NH2N2+-aug-scan
 OpenBabel10121810033D

 17 16  0  0  0  0  0  0  0  0999 V2000
    0.9383   -1.5482   -1.2423 N   0  0  0  0  0  0  0  0  0  0  0  0
    1.2103   -1.5084   -2.3406 N   0  0  0  0  0  0  0  0  0  0  0  0
    0.2966   -1.5533   -0.1084 N   0  0  0  0  0  0  0  0  0  0  0  0
   -0.5840   -2.0756   -0.1183 H   0  0  0  0  0  0  0  0  0  0  0  0
    0.8994   -1.6153    0.7127 H   0  0  0  0  0  0  0  0  0  0  0  0
    0.0343   -3.1167   -4.6012 C   0  0  0  0  0  0  0  0  0  0  0  0
    0.9675   -2.9648   -5.6286 C   0  0  0  0  0  0  0  0  0  0  0  0
    1.1827   -1.7012   -6.2011 C   0  0  0  0  0  0  0  0  0  0  0  0
    0.4752   -0.5830   -5.7329 C   0  0  0  0  0  0  0  0  0  0  0  0
   -0.4593   -0.7272   -4.7056 C   0  0  0  0  0  0  0  0  0  0  0  0
   -0.6816   -1.9962   -4.1331 C   0  0  0  0  0  0  0  0  0  0  0  0
   -0.1616   -4.1051   -4.1835 H   0  0  0  0  0  0  0  0  0  0  0  0
    1.5136   -3.8312   -6.0022 H   0  0  0  0  0  0  0  0  0  0  0  0
    1.8998   -1.5887   -7.0147 H   0  0  0  0  0  0  0  0  0  0  0  0
    0.6405    0.3943   -6.1868 H   0  0  0  0  0  0  0  0  0  0  0  0
   -1.0363    0.1341   -4.3667 H   0  0  0  0  0  0  0  0  0  0  0  0
   -1.4797   -2.1277   -3.3988 H   0  0  0  0  0  0  0  0  0  0  0  0
  1  3  1  0  0  0  0
  2  1  1  0  0  0  0
  3  5  1  0  0  0  0
  4  3  1  0  0  0  0
  6 12  1  0  0  0  0
  6 11  1  0  0  0  0
  7  6  2  0  0  0  0
  8  9  2  0  0  0  0
  8  7  1  0  0  0  0
  9 10  1  0  0  0  0
 10 16  1  0  0  0  0
 10 11  2  0  0  0  0
 11 17  1  0  0  0  0
 13  7  1  0  0  0  0
 14  8  1  0  0  0  0
 15  9  1  0  0  0  0
M  RAD  2   1   2   2   3
M  END
