Coordinates from ORCA-job C6H6+NH2N2+-aug-scan
 OpenBabel10121810033D

 17 16  0  0  0  0  0  0  0  0999 V2000
    1.0605   -1.5666   -1.5041 N   0  0  0  0  0  0  0  0  0  0  0  0
    0.6219   -2.1477   -2.3793 N   0  0  0  0  0  0  0  0  0  0  0  0
    1.6275   -0.5285   -0.9478 N   0  0  0  0  0  0  0  0  0  0  0  0
    1.3682    0.3687   -1.3671 H   0  0  0  0  0  0  0  0  0  0  0  0
    1.7080   -0.5915    0.0658 H   0  0  0  0  0  0  0  0  0  0  0  0
   -0.2374   -3.4934   -5.3258 C   0  0  0  0  0  0  0  0  0  0  0  0
    1.0425   -2.9255   -5.3666 C   0  0  0  0  0  0  0  0  0  0  0  0
    1.2282   -1.6048   -4.9517 C   0  0  0  0  0  0  0  0  0  0  0  0
    0.1237   -0.8538   -4.4854 C   0  0  0  0  0  0  0  0  0  0  0  0
   -1.1661   -1.4251   -4.4676 C   0  0  0  0  0  0  0  0  0  0  0  0
   -1.3403   -2.7446   -4.8810 C   0  0  0  0  0  0  0  0  0  0  0  0
   -0.3827   -4.5227   -5.6556 H   0  0  0  0  0  0  0  0  0  0  0  0
    1.8875   -3.5081   -5.7334 H   0  0  0  0  0  0  0  0  0  0  0  0
    2.2158   -1.1452   -5.0066 H   0  0  0  0  0  0  0  0  0  0  0  0
    0.2532    0.2000   -4.2294 H   0  0  0  0  0  0  0  0  0  0  0  0
   -2.0212   -0.8318   -4.1430 H   0  0  0  0  0  0  0  0  0  0  0  0
   -2.3335   -3.1936   -4.8733 H   0  0  0  0  0  0  0  0  0  0  0  0
  1  3  1  0  0  0  0
  2  1  2  0  0  0  0
  3  5  1  0  0  0  0
  4  3  1  0  0  0  0
  6 11  1  0  0  0  0
  7  6  2  0  0  0  0
  7  8  1  0  0  0  0
  8  9  2  0  0  0  0
  9 10  1  0  0  0  0
  9 15  1  0  0  0  0
 10 16  1  0  0  0  0
 11 17  1  0  0  0  0
 11 10  2  0  0  0  0
 12  6  1  0  0  0  0
 13  7  1  0  0  0  0
 14  8  1  0  0  0  0
M  RAD  1   2   2
M  END
