Coordinates from ORCA-job C6H6+NH2N2+-aug-scan
 OpenBabel10121810033D

 17 16  0  0  0  0  0  0  0  0999 V2000
    1.1806   -1.5132   -1.6783 N   0  0  0  0  0  0  0  0  0  0  0  0
    1.2814   -1.5420   -2.8132 N   0  0  0  0  0  0  0  0  0  0  0  0
    0.4006   -1.4956   -0.6305 N   0  0  0  0  0  0  0  0  0  0  0  0
   -0.4856   -1.9905   -0.7652 H   0  0  0  0  0  0  0  0  0  0  0  0
    0.8879   -1.5994    0.2572 H   0  0  0  0  0  0  0  0  0  0  0  0
   -0.0796   -3.1632   -4.4909 C   0  0  0  0  0  0  0  0  0  0  0  0
    0.9646   -2.9655   -5.3923 C   0  0  0  0  0  0  0  0  0  0  0  0
    1.2550   -1.6701   -5.8453 C   0  0  0  0  0  0  0  0  0  0  0  0
    0.4829   -0.5712   -5.4485 C   0  0  0  0  0  0  0  0  0  0  0  0
   -0.5606   -0.7556   -4.5415 C   0  0  0  0  0  0  0  0  0  0  0  0
   -0.8261   -2.0519   -4.0374 C   0  0  0  0  0  0  0  0  0  0  0  0
   -0.3255   -4.1653   -4.1383 H   0  0  0  0  0  0  0  0  0  0  0  0
    1.5536   -3.8115   -5.7459 H   0  0  0  0  0  0  0  0  0  0  0  0
    2.0766   -1.5214   -6.5469 H   0  0  0  0  0  0  0  0  0  0  0  0
    0.7000    0.4210   -5.8431 H   0  0  0  0  0  0  0  0  0  0  0  0
   -1.1756    0.0871   -4.2246 H   0  0  0  0  0  0  0  0  0  0  0  0
   -1.6745   -2.2059   -3.3671 H   0  0  0  0  0  0  0  0  0  0  0  0
  1  3  1  0  0  0  0
  2  1  2  0  0  0  0
  3  5  1  0  0  0  0
  4  3  1  0  0  0  0
  6 12  1  0  0  0  0
  6 11  1  0  0  0  0
  7  6  2  0  0  0  0
  8  9  2  0  0  0  0
  8  7  1  0  0  0  0
  9 10  1  0  0  0  0
 10 16  1  0  0  0  0
 10 11  2  0  0  0  0
 11 17  1  0  0  0  0
 13  7  1  0  0  0  0
 14  8  1  0  0  0  0
 15  9  1  0  0  0  0
M  RAD  1   2   2
M  END
