Coordinates from ORCA-job C6H6+NH2N2+-aug-scan
 OpenBabel10121810033D

 17 16  0  0  0  0  0  0  0  0999 V2000
    0.0118   -0.0741    0.5449 N   0  0  0  0  0  0  0  0  0  0  0  0
    0.4510   -0.3471   -0.4296 N   0  0  0  0  0  0  0  0  0  0  0  0
    1.6333   -1.1777   -3.1607 N   0  0  0  0  0  0  0  0  0  0  0  0
    2.4375   -1.7745   -2.8815 H   0  0  0  0  0  0  0  0  0  0  0  0
    2.1147   -0.3038   -3.4861 H   0  0  0  0  0  0  0  0  0  0  0  0
    0.0636   -3.6191   -5.0682 C   0  0  0  0  0  0  0  0  0  0  0  0
    0.9929   -3.0137   -4.2219 C   0  0  0  0  0  0  0  0  0  0  0  0
    0.8990   -1.6534   -3.8603 C   0  0  0  0  0  0  0  0  0  0  0  0
   -0.1835   -0.9177   -4.4089 C   0  0  0  0  0  0  0  0  0  0  0  0
   -1.1104   -1.5160   -5.2543 C   0  0  0  0  0  0  0  0  0  0  0  0
   -0.9940   -2.8722   -5.5868 C   0  0  0  0  0  0  0  0  0  0  0  0
    0.1749   -4.6728   -5.3219 H   0  0  0  0  0  0  0  0  0  0  0  0
    1.8264   -3.6009   -3.8193 H   0  0  0  0  0  0  0  0  0  0  0  0
    1.2683   -0.8588   -2.2212 H   0  0  0  0  0  0  0  0  0  0  0  0
   -0.2824    0.1443   -4.1635 H   0  0  0  0  0  0  0  0  0  0  0  0
   -1.9266   -0.9194   -5.6607 H   0  0  0  0  0  0  0  0  0  0  0  0
   -1.7208   -3.3373   -6.2520 H   0  0  0  0  0  0  0  0  0  0  0  0
  2  1  3  0  0  0  0
  3  4  1  0  0  0  0
  3 14  1  0  0  0  0
  5  3  1  0  0  0  0
  6  7  2  0  0  0  0
  7  8  1  0  0  0  0
  7 13  1  0  0  0  0
  8  3  1  0  0  0  0
  9 15  1  0  0  0  0
  9  8  2  0  0  0  0
 10  9  1  0  0  0  0
 11 10  2  0  0  0  0
 11  6  1  0  0  0  0
 12  6  1  0  0  0  0
 16 10  1  0  0  0  0
 17 11  1  0  0  0  0
M  END
