Coordinates from ORCA-job C6H6+NH2N2+-aug-scan
 OpenBabel10121810033D

 17 17  0  0  1  0  0  0  0  0999 V2000
    1.0877   -1.3517   -1.4035 N   0  0  0  0  0  0  0  0  0  0  0  0
    0.1146   -1.2851   -2.1306 N   0  0  0  0  0  0  0  0  0  0  0  0
    2.3185   -1.3970   -2.0214 N   0  0  0  0  0  0  0  0  0  0  0  0
    2.5424   -0.4862   -2.4326 H   0  0  0  0  0  0  0  0  0  0  0  0
    3.0168   -1.5595   -1.2920 H   0  0  0  0  0  0  0  0  0  0  0  0
   -0.0348   -3.4094   -4.8483 C   0  0  0  0  0  0  0  0  0  0  0  0
    0.8390   -2.7009   -4.0604 C   0  0  0  0  0  0  0  0  0  0  0  0
    0.5589   -1.3032   -3.6836 C   0  0  1  0  0  0  0  0  0  0  0  0
   -0.5910   -0.6808   -4.3705 C   0  0  0  0  0  0  0  0  0  0  0  0
   -1.4295   -1.3965   -5.1880 C   0  0  0  0  0  0  0  0  0  0  0  0
   -1.1666   -2.7670   -5.4025 C   0  0  0  0  0  0  0  0  0  0  0  0
    0.1575   -4.4565   -5.0803 H   0  0  0  0  0  0  0  0  0  0  0  0
    1.7423   -3.1686   -3.6752 H   0  0  0  0  0  0  0  0  0  0  0  0
    1.4284   -0.6519   -3.8130 H   0  0  0  0  0  0  0  0  0  0  0  0
   -0.7926    0.3704   -4.1562 H   0  0  0  0  0  0  0  0  0  0  0  0
   -2.2908   -0.9253   -5.6600 H   0  0  0  0  0  0  0  0  0  0  0  0
   -1.8450   -3.3450   -6.0340 H   0  0  0  0  0  0  0  0  0  0  0  0
  2  1  1  0  0  0  0
  3  1  1  0  0  0  0
  3  5  1  0  0  0  0
  4  3  1  0  0  0  0
  6  7  2  0  0  0  0
  7  8  1  0  0  0  0
  7 13  1  0  0  0  0
  8 14  1  6  0  0  0
  8  2  1  0  0  0  0
  9 15  1  0  0  0  0
  9  8  1  0  0  0  0
 10  9  2  0  0  0  0
 11 10  1  0  0  0  0
 11  6  1  0  0  0  0
 12  6  1  0  0  0  0
 16 10  1  0  0  0  0
 17 11  1  0  0  0  0
M  RAD  3   1   2   2   2  11   2
M  END
