Coordinates from ORCA-job C6H6+NH2N2+-aug-scan
 OpenBabel10121810033D

 17 16  0  0  0  0  0  0  0  0999 V2000
    1.0911   -1.5153   -1.5359 N   0  0  0  0  0  0  0  0  0  0  0  0
    1.0437   -2.0268   -2.5492 N   0  0  0  0  0  0  0  0  0  0  0  0
    0.8822   -0.5720   -0.6562 N   0  0  0  0  0  0  0  0  0  0  0  0
   -0.0123   -0.0860   -0.7654 H   0  0  0  0  0  0  0  0  0  0  0  0
    1.1986   -0.8047    0.2844 H   0  0  0  0  0  0  0  0  0  0  0  0
   -0.2285   -3.4781   -5.1209 C   0  0  0  0  0  0  0  0  0  0  0  0
    0.9580   -2.9957   -5.6999 C   0  0  0  0  0  0  0  0  0  0  0  0
    1.3128   -1.6473   -5.5785 C   0  0  0  0  0  0  0  0  0  0  0  0
    0.4851   -0.7738   -4.8660 C   0  0  0  0  0  0  0  0  0  0  0  0
   -0.7012   -1.2595   -4.2690 C   0  0  0  0  0  0  0  0  0  0  0  0
   -1.0619   -2.6138   -4.4118 C   0  0  0  0  0  0  0  0  0  0  0  0
   -0.5025   -4.5266   -5.2393 H   0  0  0  0  0  0  0  0  0  0  0  0
    1.5997   -3.6758   -6.2611 H   0  0  0  0  0  0  0  0  0  0  0  0
    2.2239   -1.2769   -6.0483 H   0  0  0  0  0  0  0  0  0  0  0  0
    0.7392    0.2844   -4.7911 H   0  0  0  0  0  0  0  0  0  0  0  0
   -1.3782   -0.5674   -3.7643 H   0  0  0  0  0  0  0  0  0  0  0  0
   -1.9939   -2.9788   -3.9795 H   0  0  0  0  0  0  0  0  0  0  0  0
  1  3  1  0  0  0  0
  2  1  1  0  0  0  0
  3  5  1  0  0  0  0
  4  3  1  0  0  0  0
  6 11  2  0  0  0  0
  7  8  2  0  0  0  0
  7  6  1  0  0  0  0
  8  9  1  0  0  0  0
  9 15  1  0  0  0  0
  9 10  2  0  0  0  0
 10 16  1  0  0  0  0
 11 10  1  0  0  0  0
 11 17  1  0  0  0  0
 12  6  1  0  0  0  0
 13  7  1  0  0  0  0
 14  8  1  0  0  0  0
M  RAD  2   1   2   2   3
M  END
