Coordinates from ORCA-job C6H6+NH2N2+-aug-scan
 OpenBabel10121810033D

 17 16  0  0  0  0  0  0  0  0999 V2000
    0.9892   -1.6079   -1.4564 N   0  0  0  0  0  0  0  0  0  0  0  0
    0.2325   -1.9769   -2.2390 N   0  0  0  0  0  0  0  0  0  0  0  0
    2.1503   -1.0218   -1.2961 N   0  0  0  0  0  0  0  0  0  0  0  0
    2.4121   -0.3867   -2.0542 H   0  0  0  0  0  0  0  0  0  0  0  0
    2.3584   -0.7574   -0.3363 H   0  0  0  0  0  0  0  0  0  0  0  0
   -0.1157   -3.4459   -5.0670 C   0  0  0  0  0  0  0  0  0  0  0  0
    1.0242   -2.7420   -4.6903 C   0  0  0  0  0  0  0  0  0  0  0  0
    0.9280   -1.3566   -4.4013 C   0  0  0  0  0  0  0  0  0  0  0  0
   -0.3097   -0.6812   -4.5527 C   0  0  0  0  0  0  0  0  0  0  0  0
   -1.4420   -1.3975   -4.9295 C   0  0  0  0  0  0  0  0  0  0  0  0
   -1.3446   -2.7757   -5.1807 C   0  0  0  0  0  0  0  0  0  0  0  0
   -0.0539   -4.5115   -5.2867 H   0  0  0  0  0  0  0  0  0  0  0  0
    1.9881   -3.2467   -4.6210 H   0  0  0  0  0  0  0  0  0  0  0  0
    1.8411   -0.7795   -4.2370 H   0  0  0  0  0  0  0  0  0  0  0  0
   -0.3692    0.3937   -4.3803 H   0  0  0  0  0  0  0  0  0  0  0  0
   -2.3992   -0.8893   -5.0432 H   0  0  0  0  0  0  0  0  0  0  0  0
   -2.2339   -3.3313   -5.4803 H   0  0  0  0  0  0  0  0  0  0  0  0
  1  3  1  0  0  0  0
  2  1  2  0  0  0  0
  3  5  1  0  0  0  0
  4  3  1  0  0  0  0
  6  7  1  0  0  0  0
  7 13  1  0  0  0  0
  7  8  2  0  0  0  0
  8 14  1  0  0  0  0
  9  8  1  0  0  0  0
  9 15  1  0  0  0  0
 10  9  2  0  0  0  0
 11  6  2  0  0  0  0
 11 10  1  0  0  0  0
 12  6  1  0  0  0  0
 16 10  1  0  0  0  0
 17 11  1  0  0  0  0
M  RAD  1   2   2
M  END
