Coordinates from ORCA-job C6H6+NH2N2+-aug-scan
 OpenBabel10121810033D

 17 16  0  0  0  0  0  0  0  0999 V2000
    0.9239   -1.5494   -1.2094 N   0  0  0  0  0  0  0  0  0  0  0  0
    1.2088   -1.5048   -2.3037 N   0  0  0  0  0  0  0  0  0  0  0  0
    0.2856   -1.5581   -0.0742 N   0  0  0  0  0  0  0  0  0  0  0  0
   -0.5945   -2.0814   -0.0821 H   0  0  0  0  0  0  0  0  0  0  0  0
    0.8904   -1.6174    0.7457 H   0  0  0  0  0  0  0  0  0  0  0  0
    0.0450   -3.1134   -4.6084 C   0  0  0  0  0  0  0  0  0  0  0  0
    0.9662   -2.9654   -5.6472 C   0  0  0  0  0  0  0  0  0  0  0  0
    1.1746   -1.7042   -6.2273 C   0  0  0  0  0  0  0  0  0  0  0  0
    0.4732   -0.5842   -5.7541 C   0  0  0  0  0  0  0  0  0  0  0  0
   -0.4493   -0.7247   -4.7154 C   0  0  0  0  0  0  0  0  0  0  0  0
   -0.6660   -1.9916   -4.1366 C   0  0  0  0  0  0  0  0  0  0  0  0
   -0.1461   -4.1004   -4.1852 H   0  0  0  0  0  0  0  0  0  0  0  0
    1.5079   -3.8334   -6.0238 H   0  0  0  0  0  0  0  0  0  0  0  0
    1.8818   -1.5947   -7.0499 H   0  0  0  0  0  0  0  0  0  0  0  0
    0.6334    0.3916   -6.2129 H   0  0  0  0  0  0  0  0  0  0  0  0
   -1.0220    0.1381   -4.3729 H   0  0  0  0  0  0  0  0  0  0  0  0
   -1.4573   -2.1208   -3.3946 H   0  0  0  0  0  0  0  0  0  0  0  0
  1  3  1  0  0  0  0
  2  1  1  0  0  0  0
  3  5  1  0  0  0  0
  4  3  1  0  0  0  0
  6 12  1  0  0  0  0
  6 11  1  0  0  0  0
  7  6  2  0  0  0  0
  8  9  2  0  0  0  0
  8  7  1  0  0  0  0
  9 10  1  0  0  0  0
 10 16  1  0  0  0  0
 10 11  2  0  0  0  0
 11 17  1  0  0  0  0
 13  7  1  0  0  0  0
 14  8  1  0  0  0  0
 15  9  1  0  0  0  0
M  RAD  2   1   2   2   3
M  END
