Coordinates from ORCA-job C6H6+NH2N2+-aug-scan
 OpenBabel10121810033D

 17 17  0  0  1  0  0  0  0  0999 V2000
    1.1194   -1.3234   -1.3844 N   0  0  0  0  0  0  0  0  0  0  0  0
    0.1287   -1.2231   -2.1038 N   0  0  0  0  0  0  0  0  0  0  0  0
    2.3237   -1.4569   -1.9424 N   0  0  0  0  0  0  0  0  0  0  0  0
    2.5442   -0.8760   -2.7489 H   0  0  0  0  0  0  0  0  0  0  0  0
    3.0522   -1.4194   -1.2329 H   0  0  0  0  0  0  0  0  0  0  0  0
   -0.0045   -3.3814   -4.8501 C   0  0  0  0  0  0  0  0  0  0  0  0
    0.8275   -2.6732   -4.0184 C   0  0  0  0  0  0  0  0  0  0  0  0
    0.5193   -1.2798   -3.6381 C   0  0  1  0  0  0  0  0  0  0  0  0
   -0.6352   -0.6762   -4.3389 C   0  0  0  0  0  0  0  0  0  0  0  0
   -1.4309   -1.3919   -5.1968 C   0  0  0  0  0  0  0  0  0  0  0  0
   -1.1283   -2.7507   -5.4332 C   0  0  0  0  0  0  0  0  0  0  0  0
    0.2073   -4.4249   -5.0808 H   0  0  0  0  0  0  0  0  0  0  0  0
    1.7064   -3.1527   -3.5921 H   0  0  0  0  0  0  0  0  0  0  0  0
    1.3588   -0.5865   -3.8116 H   0  0  0  0  0  0  0  0  0  0  0  0
   -0.8664    0.3646   -4.1048 H   0  0  0  0  0  0  0  0  0  0  0  0
   -2.2915   -0.9312   -5.6802 H   0  0  0  0  0  0  0  0  0  0  0  0
   -1.7750   -3.3315   -6.0948 H   0  0  0  0  0  0  0  0  0  0  0  0
  2  1  1  0  0  0  0
  3  1  1  0  0  0  0
  3  5  1  0  0  0  0
  4  3  1  0  0  0  0
  6  7  2  0  0  0  0
  7  8  1  0  0  0  0
  7 13  1  0  0  0  0
  8 14  1  6  0  0  0
  8  2  1  0  0  0  0
  9 15  1  0  0  0  0
  9  8  1  0  0  0  0
 10  9  2  0  0  0  0
 11 10  1  0  0  0  0
 11  6  1  0  0  0  0
 12  6  1  0  0  0  0
 16 10  1  0  0  0  0
 17 11  1  0  0  0  0
M  RAD  3   1   2   2   2  11   2
M  END
