Coordinates from ORCA-job C6H6+NH2N2+-aug-scan
 OpenBabel10121810033D

 17 16  0  0  0  0  0  0  0  0999 V2000
    0.9527   -1.6419   -1.4658 N   0  0  0  0  0  0  0  0  0  0  0  0
    0.1239   -1.9352   -2.2231 N   0  0  0  0  0  0  0  0  0  0  0  0
    2.1528   -1.0957   -1.5615 N   0  0  0  0  0  0  0  0  0  0  0  0
    2.2144   -0.3795   -2.2865 H   0  0  0  0  0  0  0  0  0  0  0  0
    2.5508   -0.8572   -0.6556 H   0  0  0  0  0  0  0  0  0  0  0  0
   -0.0768   -3.4265   -5.0215 C   0  0  0  0  0  0  0  0  0  0  0  0
    1.0244   -2.7347   -4.5357 C   0  0  0  0  0  0  0  0  0  0  0  0
    0.8973   -1.3567   -4.1996 C   0  0  0  0  0  0  0  0  0  0  0  0
   -0.3279   -0.6754   -4.4546 C   0  0  0  0  0  0  0  0  0  0  0  0
   -1.4215   -1.3816   -4.9419 C   0  0  0  0  0  0  0  0  0  0  0  0
   -1.2962   -2.7522   -5.2177 C   0  0  0  0  0  0  0  0  0  0  0  0
    0.0053   -4.4849   -5.2673 H   0  0  0  0  0  0  0  0  0  0  0  0
    1.9814   -3.2389   -4.3999 H   0  0  0  0  0  0  0  0  0  0  0  0
    1.8031   -0.7738   -4.0373 H   0  0  0  0  0  0  0  0  0  0  0  0
   -0.4049    0.3944   -4.2580 H   0  0  0  0  0  0  0  0  0  0  0  0
   -2.3674   -0.8720   -5.1228 H   0  0  0  0  0  0  0  0  0  0  0  0
   -2.1556   -3.3024   -5.6031 H   0  0  0  0  0  0  0  0  0  0  0  0
  2  1  2  0  0  0  0
  3  1  1  0  0  0  0
  3  5  1  0  0  0  0
  4  3  1  0  0  0  0
  6  7  1  0  0  0  0
  7 13  1  0  0  0  0
  7  8  2  0  0  0  0
  8 14  1  0  0  0  0
  9 15  1  0  0  0  0
  9  8  1  0  0  0  0
 10  9  2  0  0  0  0
 11  6  2  0  0  0  0
 11 10  1  0  0  0  0
 12  6  1  0  0  0  0
 16 10  1  0  0  0  0
 17 11  1  0  0  0  0
M  RAD  1   2   2
M  END
