Coordinates from ORCA-job C6H6+NH2N2+-aug-scan
 OpenBabel10121810033D

 17 16  0  0  0  0  0  0  0  0999 V2000
    1.1945   -1.5109   -1.6946 N   0  0  0  0  0  0  0  0  0  0  0  0
    1.2903   -1.5413   -2.8305 N   0  0  0  0  0  0  0  0  0  0  0  0
    0.3980   -1.4948   -0.6594 N   0  0  0  0  0  0  0  0  0  0  0  0
   -0.4874   -1.9865   -0.8101 H   0  0  0  0  0  0  0  0  0  0  0  0
    0.8695   -1.6022    0.2362 H   0  0  0  0  0  0  0  0  0  0  0  0
   -0.0801   -3.1649   -4.4824 C   0  0  0  0  0  0  0  0  0  0  0  0
    0.9632   -2.9663   -5.3844 C   0  0  0  0  0  0  0  0  0  0  0  0
    1.2544   -1.6697   -5.8331 C   0  0  0  0  0  0  0  0  0  0  0  0
    0.4819   -0.5708   -5.4381 C   0  0  0  0  0  0  0  0  0  0  0  0
   -0.5602   -0.7558   -4.5298 C   0  0  0  0  0  0  0  0  0  0  0  0
   -0.8241   -2.0529   -4.0256 C   0  0  0  0  0  0  0  0  0  0  0  0
   -0.3261   -4.1670   -4.1301 H   0  0  0  0  0  0  0  0  0  0  0  0
    1.5519   -3.8116   -5.7400 H   0  0  0  0  0  0  0  0  0  0  0  0
    2.0764   -1.5203   -6.5342 H   0  0  0  0  0  0  0  0  0  0  0  0
    0.6991    0.4214   -5.8323 H   0  0  0  0  0  0  0  0  0  0  0  0
   -1.1746    0.0864   -4.2102 H   0  0  0  0  0  0  0  0  0  0  0  0
   -1.6710   -2.2071   -3.3533 H   0  0  0  0  0  0  0  0  0  0  0  0
  1  3  1  0  0  0  0
  2  1  2  0  0  0  0
  3  5  1  0  0  0  0
  4  3  1  0  0  0  0
  6 12  1  0  0  0  0
  6 11  1  0  0  0  0
  7  6  2  0  0  0  0
  8  9  2  0  0  0  0
  8  7  1  0  0  0  0
  9 10  1  0  0  0  0
 10 16  1  0  0  0  0
 10 11  2  0  0  0  0
 11 17  1  0  0  0  0
 13  7  1  0  0  0  0
 14  8  1  0  0  0  0
 15  9  1  0  0  0  0
M  RAD  1   2   2
M  END
