Coordinates from ORCA-job C6H6+NH2N2+-aug-scan
 OpenBabel10121810033D

 17 16  0  0  0  0  0  0  0  0999 V2000
    1.0962   -1.5299   -1.5603 N   0  0  0  0  0  0  0  0  0  0  0  0
    1.2504   -1.5455   -2.6867 N   0  0  0  0  0  0  0  0  0  0  0  0
    0.3852   -1.5053   -0.4655 N   0  0  0  0  0  0  0  0  0  0  0  0
   -0.5043   -2.0083   -0.5297 H   0  0  0  0  0  0  0  0  0  0  0  0
    0.9319   -1.5859    0.3905 H   0  0  0  0  0  0  0  0  0  0  0  0
   -0.0574   -3.1522   -4.5330 C   0  0  0  0  0  0  0  0  0  0  0  0
    0.9690   -2.9636   -5.4586 C   0  0  0  0  0  0  0  0  0  0  0  0
    1.2440   -1.6759   -5.9435 C   0  0  0  0  0  0  0  0  0  0  0  0
    0.4861   -0.5737   -5.5240 C   0  0  0  0  0  0  0  0  0  0  0  0
   -0.5413   -0.7514   -4.5963 C   0  0  0  0  0  0  0  0  0  0  0  0
   -0.8041   -2.0416   -4.0829 C   0  0  0  0  0  0  0  0  0  0  0  0
   -0.2926   -4.1522   -4.1672 H   0  0  0  0  0  0  0  0  0  0  0  0
    1.5501   -3.8147   -5.8135 H   0  0  0  0  0  0  0  0  0  0  0  0
    2.0441   -1.5342   -6.6709 H   0  0  0  0  0  0  0  0  0  0  0  0
    0.6938    0.4168   -5.9285 H   0  0  0  0  0  0  0  0  0  0  0  0
   -1.1492    0.0958   -4.2775 H   0  0  0  0  0  0  0  0  0  0  0  0
   -1.6464   -2.1924   -3.4043 H   0  0  0  0  0  0  0  0  0  0  0  0
  1  3  1  0  0  0  0
  2  1  2  0  0  0  0
  3  5  1  0  0  0  0
  4  3  1  0  0  0  0
  6 12  1  0  0  0  0
  6 11  1  0  0  0  0
  7  6  2  0  0  0  0
  8  9  2  0  0  0  0
  8  7  1  0  0  0  0
  9 10  1  0  0  0  0
 10 16  1  0  0  0  0
 10 11  2  0  0  0  0
 11 17  1  0  0  0  0
 13  7  1  0  0  0  0
 14  8  1  0  0  0  0
 15  9  1  0  0  0  0
M  RAD  1   2   2
M  END
