Coordinates from ORCA-job C6H6+NH2N2+-aug-scan
 OpenBabel10121810033D

 17 16  0  0  0  0  0  0  0  0999 V2000
    0.0032   -0.0827    0.5749 N   0  0  0  0  0  0  0  0  0  0  0  0
    0.4545   -0.3416   -0.3979 N   0  0  0  0  0  0  0  0  0  0  0  0
    1.6855   -1.1397   -3.1200 N   0  0  0  0  0  0  0  0  0  0  0  0
    2.4744   -1.7549   -2.8643 H   0  0  0  0  0  0  0  0  0  0  0  0
    2.1434   -0.2820   -3.4825 H   0  0  0  0  0  0  0  0  0  0  0  0
    0.0526   -3.6291   -5.0762 C   0  0  0  0  0  0  0  0  0  0  0  0
    0.9841   -3.0269   -4.2276 C   0  0  0  0  0  0  0  0  0  0  0  0
    0.8703   -1.6699   -3.8899 C   0  0  0  0  0  0  0  0  0  0  0  0
   -0.1942   -0.9193   -4.4247 C   0  0  0  0  0  0  0  0  0  0  0  0
   -1.1215   -1.5215   -5.2721 C   0  0  0  0  0  0  0  0  0  0  0  0
   -1.0018   -2.8780   -5.5987 C   0  0  0  0  0  0  0  0  0  0  0  0
    0.1577   -4.6837   -5.3285 H   0  0  0  0  0  0  0  0  0  0  0  0
    1.8122   -3.6170   -3.8224 H   0  0  0  0  0  0  0  0  0  0  0  0
    1.2948   -0.8363   -2.1986 H   0  0  0  0  0  0  0  0  0  0  0  0
   -0.2928    0.1414   -4.1781 H   0  0  0  0  0  0  0  0  0  0  0  0
   -1.9385   -0.9283   -5.6816 H   0  0  0  0  0  0  0  0  0  0  0  0
   -1.7280   -3.3447   -6.2636 H   0  0  0  0  0  0  0  0  0  0  0  0
  2  1  3  0  0  0  0
  3  4  1  0  0  0  0
  3 14  1  0  0  0  0
  5  3  1  0  0  0  0
  6  7  2  0  0  0  0
  7  8  1  0  0  0  0
  7 13  1  0  0  0  0
  8  3  1  0  0  0  0
  9 15  1  0  0  0  0
  9  8  2  0  0  0  0
 10  9  1  0  0  0  0
 11 10  2  0  0  0  0
 11  6  1  0  0  0  0
 12  6  1  0  0  0  0
 16 10  1  0  0  0  0
 17 11  1  0  0  0  0
M  END
