Coordinates from ORCA-job C6H6+NH2N2+-aug-scan
 OpenBabel10121810033D

 17 16  0  0  0  0  0  0  0  0999 V2000
    0.2622   -1.0755   -0.6646 N   0  0  0  0  0  0  0  0  0  0  0  0
    0.1854   -1.3690   -1.7337 N   0  0  0  0  0  0  0  0  0  0  0  0
    2.1472   -0.7407   -3.2637 N   0  0  0  0  0  0  0  0  0  0  0  0
    3.0220   -1.1560   -2.9290 H   0  0  0  0  0  0  0  0  0  0  0  0
    2.1344   -0.9484   -4.2638 H   0  0  0  0  0  0  0  0  0  0  0  0
    0.0202   -3.5418   -4.6439 C   0  0  0  0  0  0  0  0  0  0  0  0
    0.3810   -3.0821   -3.3822 C   0  0  0  0  0  0  0  0  0  0  0  0
    0.0729   -1.7428   -3.0655 C   0  0  0  0  0  0  0  0  0  0  0  0
   -0.7160   -0.9198   -3.8958 C   0  0  0  0  0  0  0  0  0  0  0  0
   -1.0589   -1.4145   -5.1493 C   0  0  0  0  0  0  0  0  0  0  0  0
   -0.6846   -2.7123   -5.5296 C   0  0  0  0  0  0  0  0  0  0  0  0
    0.2747   -4.5612   -4.9321 H   0  0  0  0  0  0  0  0  0  0  0  0
    0.9089   -3.7147   -2.6708 H   0  0  0  0  0  0  0  0  0  0  0  0
    2.3255    0.2673   -3.2163 H   0  0  0  0  0  0  0  0  0  0  0  0
   -1.0141    0.0756   -3.5711 H   0  0  0  0  0  0  0  0  0  0  0  0
   -1.6385   -0.7896   -5.8280 H   0  0  0  0  0  0  0  0  0  0  0  0
   -0.9665   -3.0889   -6.5127 H   0  0  0  0  0  0  0  0  0  0  0  0
  2  1  1  0  0  0  0
  3 14  1  0  0  0  0
  3  4  1  0  0  0  0
  5  3  1  0  0  0  0
  6  7  2  0  0  0  0
  7  8  1  0  0  0  0
  7 13  1  0  0  0  0
  8  2  1  0  0  0  0
  9 15  1  0  0  0  0
  9  8  2  0  0  0  0
 10  9  1  0  0  0  0
 11 10  2  0  0  0  0
 11  6  1  0  0  0  0
 12  6  1  0  0  0  0
 16 10  1  0  0  0  0
 17 11  1  0  0  0  0
M  RAD  2   1   3   2   2
M  END
