Coordinates from ORCA-job C6H6+NH2N2+-aug-scan
 OpenBabel10121810033D

 17 16  0  0  0  0  0  0  0  0999 V2000
    0.0064   -0.0456    0.7504 N   0  0  0  0  0  0  0  0  0  0  0  0
    0.4820   -0.2856   -0.2158 N   0  0  0  0  0  0  0  0  0  0  0  0
    1.8815   -1.0041   -2.9514 N   0  0  0  0  0  0  0  0  0  0  0  0
    2.6428   -1.6593   -2.7633 H   0  0  0  0  0  0  0  0  0  0  0  0
    2.2618   -0.1674   -3.3993 H   0  0  0  0  0  0  0  0  0  0  0  0
   -0.0018   -3.6810   -5.1413 C   0  0  0  0  0  0  0  0  0  0  0  0
    0.9362   -3.0943   -4.2785 C   0  0  0  0  0  0  0  0  0  0  0  0
    0.7501   -1.7515   -4.0115 C   0  0  0  0  0  0  0  0  0  0  0  0
   -0.2544   -0.9399   -4.5046 C   0  0  0  0  0  0  0  0  0  0  0  0
   -1.1733   -1.5595   -5.3635 C   0  0  0  0  0  0  0  0  0  0  0  0
   -1.0447   -2.9176   -5.6766 C   0  0  0  0  0  0  0  0  0  0  0  0
    0.0931   -4.7376   -5.3901 H   0  0  0  0  0  0  0  0  0  0  0  0
    1.7532   -3.6771   -3.8551 H   0  0  0  0  0  0  0  0  0  0  0  0
    1.4165   -0.7526   -2.0693 H   0  0  0  0  0  0  0  0  0  0  0  0
   -0.3405    0.1157   -4.2504 H   0  0  0  0  0  0  0  0  0  0  0  0
   -1.9876   -0.9709   -5.7853 H   0  0  0  0  0  0  0  0  0  0  0  0
   -1.7655   -3.3860   -6.3462 H   0  0  0  0  0  0  0  0  0  0  0  0
  2  1  3  0  0  0  0
  3  4  1  0  0  0  0
  3 14  1  0  0  0  0
  5  3  1  0  0  0  0
  6  7  2  0  0  0  0
  7  8  1  0  0  0  0
  7 13  1  0  0  0  0
  8  3  1  0  0  0  0
  9 15  1  0  0  0  0
  9  8  2  0  0  0  0
 10  9  1  0  0  0  0
 11 10  2  0  0  0  0
 11  6  1  0  0  0  0
 12  6  1  0  0  0  0
 16 10  1  0  0  0  0
 17 11  1  0  0  0  0
M  END
