Coordinates from ORCA-job C6H6+NH2N2+-aug-scan
 OpenBabel10121810033D

 17 16  0  0  0  0  0  0  0  0999 V2000
    0.0004   -0.0600    0.6791 N   0  0  0  0  0  0  0  0  0  0  0  0
    0.4695   -0.3062   -0.2887 N   0  0  0  0  0  0  0  0  0  0  0  0
    1.8146   -1.0519   -3.0100 N   0  0  0  0  0  0  0  0  0  0  0  0
    2.5806   -1.6993   -2.8023 H   0  0  0  0  0  0  0  0  0  0  0  0
    2.2198   -0.2128   -3.4377 H   0  0  0  0  0  0  0  0  0  0  0  0
    0.0201   -3.6610   -5.1165 C   0  0  0  0  0  0  0  0  0  0  0  0
    0.9557   -3.0695   -4.2590 C   0  0  0  0  0  0  0  0  0  0  0  0
    0.7935   -1.7216   -3.9662 C   0  0  0  0  0  0  0  0  0  0  0  0
   -0.2324   -0.9316   -4.4719 C   0  0  0  0  0  0  0  0  0  0  0  0
   -1.1549   -1.5440   -5.3268 C   0  0  0  0  0  0  0  0  0  0  0  0
   -1.0276   -2.9010   -5.6457 C   0  0  0  0  0  0  0  0  0  0  0  0
    0.1169   -4.7165   -5.3689 H   0  0  0  0  0  0  0  0  0  0  0  0
    1.7761   -3.6565   -3.8438 H   0  0  0  0  0  0  0  0  0  0  0  0
    1.3702   -0.7829   -2.1180 H   0  0  0  0  0  0  0  0  0  0  0  0
   -0.3243    0.1252   -4.2184 H   0  0  0  0  0  0  0  0  0  0  0  0
   -1.9718   -0.9556   -5.7435 H   0  0  0  0  0  0  0  0  0  0  0  0
   -1.7506   -3.3688   -6.3136 H   0  0  0  0  0  0  0  0  0  0  0  0
  2  1  3  0  0  0  0
  3  4  1  0  0  0  0
  3 14  1  0  0  0  0
  5  3  1  0  0  0  0
  6  7  2  0  0  0  0
  7  8  1  0  0  0  0
  7 13  1  0  0  0  0
  8  3  1  0  0  0  0
  9 15  1  0  0  0  0
  9  8  2  0  0  0  0
 10  9  1  0  0  0  0
 11 10  2  0  0  0  0
 11  6  1  0  0  0  0
 12  6  1  0  0  0  0
 16 10  1  0  0  0  0
 17 11  1  0  0  0  0
M  END
