Coordinates from ORCA-job C6H6+NH2N2+-aug-scan
 OpenBabel10121810033D

 17 17  0  0  1  0  0  0  0  0999 V2000
    1.1032   -1.3082   -1.4008 N   0  0  0  0  0  0  0  0  0  0  0  0
    0.1171   -1.2901   -2.1111 N   0  0  0  0  0  0  0  0  0  0  0  0
    2.3121   -1.3232   -2.1079 N   0  0  0  0  0  0  0  0  0  0  0  0
    2.5587   -0.3435   -2.2985 H   0  0  0  0  0  0  0  0  0  0  0  0
    3.0283   -1.6222   -1.4366 H   0  0  0  0  0  0  0  0  0  0  0  0
   -0.0485   -3.4246   -4.8457 C   0  0  0  0  0  0  0  0  0  0  0  0
    0.8115   -2.7330   -4.0298 C   0  0  0  0  0  0  0  0  0  0  0  0
    0.5487   -1.3318   -3.6495 C   0  0  1  0  0  0  0  0  0  0  0  0
   -0.5938   -0.7002   -4.3449 C   0  0  0  0  0  0  0  0  0  0  0  0
   -1.4148   -1.3955   -5.1985 C   0  0  0  0  0  0  0  0  0  0  0  0
   -1.1586   -2.7644   -5.4245 C   0  0  0  0  0  0  0  0  0  0  0  0
    0.1397   -4.4711   -5.0842 H   0  0  0  0  0  0  0  0  0  0  0  0
    1.7036   -3.2126   -3.6324 H   0  0  0  0  0  0  0  0  0  0  0  0
    1.4306   -0.7035   -3.8024 H   0  0  0  0  0  0  0  0  0  0  0  0
   -0.7982    0.3479   -4.1177 H   0  0  0  0  0  0  0  0  0  0  0  0
   -2.2600   -0.9101   -5.6850 H   0  0  0  0  0  0  0  0  0  0  0  0
   -1.8237   -3.3280   -6.0825 H   0  0  0  0  0  0  0  0  0  0  0  0
  2  1  1  0  0  0  0
  3  5  1  0  0  0  0
  3  1  1  0  0  0  0
  4  3  1  0  0  0  0
  6  7  2  0  0  0  0
  7  8  1  0  0  0  0
  7 13  1  0  0  0  0
  8 14  1  6  0  0  0
  8  2  1  0  0  0  0
  9 15  1  0  0  0  0
  9  8  1  0  0  0  0
 10  9  2  0  0  0  0
 11 10  1  0  0  0  0
 11  6  1  0  0  0  0
 12  6  1  0  0  0  0
 16 10  1  0  0  0  0
 17 11  1  0  0  0  0
M  RAD  3   1   2   2   2  11   2
M  END
