12
Coordinates from ORCA-job C6H4-N2-B3LYPG-aug-cc-pVDZ-scan-d09-49-n400
  C   -1.89367220921871      0.10038002838721     -1.06891341114187
  C   -0.47746107916015      0.02915079668968     -0.94727492983128
  C   -0.05311434378486      0.85449813016027      0.01997403105013
  C   -0.68405317137109      1.73574107046441      0.89969117601720
  C   -2.06581608129922      1.76081250056316      0.73216003885087
  C   -2.66076861479029      0.94073385623308     -0.25338684825769
  H   -2.40948565936108     -0.51178909207315     -1.81471494182888
  N   1.53847785395130      0.80861449751930      0.19417528178346
  N   2.61387173692839      0.55329428557253      0.06518095363916
  H   -3.74646252308183      0.96995432084910     -0.37455014153221
  H   -2.67976971591220      2.40853720151932      1.35754983169902
  H   -0.16084619290025      2.34187240411509      1.63990895955208
