13
Coordinates from ORCA-job N-O-Pyridine-4-N2+-scan-d09-160-n800
  C   -2.75978682117201      0.68583997003279     -1.65913858292334
  C   -3.95354211952058      1.15476245898370     -2.19366933956610
  C   -4.55793977835219      1.96378092299822     -1.28060867864138
  C   -4.06843774636265      2.81882379629562     -0.34104785717492
  C   -2.87198892811726      2.31087526621961      0.15004847246509
  H   -2.19650123637368     -0.15267679164515     -2.05499473296677
  H   -4.37611155992408      0.76345082648086     -3.11556856009528
  N   10.65202957661915     -3.06427396245463      4.10320925614312
  N   11.56744597410006     -3.48053236668710      4.56235450505894
  H   -2.38982417247275      2.64698669739028      1.06199720087388
  H   -4.57643890950142      3.66487737952935      0.11470865846470
  N   -2.23212815846958      1.24832517535522     -0.49376203721077
  O   -1.15887612045299      0.81016062750119     -0.03362830442718
