Coordinates from ORCA-job Imidazole-4-N2+-scan-d09-160-n800
 OpenBabel09191814123D

 10  9  0  0  0  0  0  0  0  0999 V2000
    3.3484    0.6722    0.3068 N   0  0  0  0  0  0  0  0  0  0  0  0
    4.4463    0.5698    0.3827 N   0  0  0  0  0  0  0  0  0  0  0  0
   -0.6736    0.7394   -0.1083 C   0  0  0  0  0  0  0  0  0  0  0  0
   -2.5847    0.3480   -0.4939 C   0  0  0  0  0  0  0  0  0  0  0  0
   -3.4920   -0.1452   -0.8133 H   0  0  0  0  0  0  0  0  0  0  0  0
   -2.5010    1.5902    0.0664 N   0  0  0  0  0  0  0  0  0  0  0  0
   -3.2877    2.2103    0.2542 H   0  0  0  0  0  0  0  0  0  0  0  0
   -1.1649    1.9116    0.3571 C   0  0  0  0  0  0  0  0  0  0  0  0
   -0.7917    2.8190    0.8011 H   0  0  0  0  0  0  0  0  0  0  0  0
   -1.3371   -0.1817   -0.5906 N   0  0  0  0  0  0  0  0  0  0  0  0
  1  2  3  0  0  0  0
  3  8  2  0  0  0  0
  4  6  1  0  0  0  0
  5  4  1  0  0  0  0
  6  7  1  0  0  0  0
  6  8  1  0  0  0  0
  8  9  1  0  0  0  0
 10  4  2  0  0  0  0
 10  3  1  0  0  0  0
M  RAD  1   3   2
M  END
