Coordinates from ORCA-job Imidazole-4-N2+-scan-d09-160-n800
 OpenBabel09191814123D

 10  9  0  0  0  0  0  0  0  0999 V2000
    4.3795    0.9073    0.5253 N   0  0  0  0  0  0  0  0  0  0  0  0
    5.4788    0.8937    0.6407 N   0  0  0  0  0  0  0  0  0  0  0  0
   -1.0772    0.3798   -0.3127 C   0  0  0  0  0  0  0  0  0  0  0  0
   -3.0565    0.4575   -0.4975 C   0  0  0  0  0  0  0  0  0  0  0  0
   -4.0816    0.2006   -0.7250 H   0  0  0  0  0  0  0  0  0  0  0  0
   -2.6278    1.6240    0.0674 N   0  0  0  0  0  0  0  0  0  0  0  0
   -3.2237    2.4023    0.3466 H   0  0  0  0  0  0  0  0  0  0  0  0
   -1.2313    1.6154    0.2183 C   0  0  0  0  0  0  0  0  0  0  0  0
   -0.6147    2.3952    0.6324 H   0  0  0  0  0  0  0  0  0  0  0  0
   -1.9835   -0.3423   -0.7334 N   0  0  0  0  0  0  0  0  0  0  0  0
  1  2  3  0  0  0  0
  3  8  2  0  0  0  0
  4  6  1  0  0  0  0
  5  4  1  0  0  0  0
  6  8  1  0  0  0  0
  6  7  1  0  0  0  0
  8  9  1  0  0  0  0
 10  4  2  0  0  0  0
 10  3  1  0  0  0  0
M  RAD  1   3   2
M  END
