Coordinates from ORCA-job Imidazole-4-N2+-scan-d09-160-n800
 OpenBabel09191814123D

 10  9  0  0  0  0  0  0  0  0999 V2000
    4.7547    4.0281    1.9504 N   0  0  0  0  0  0  0  0  0  0  0  0
    5.6655    4.5555    2.2884 N   0  0  0  0  0  0  0  0  0  0  0  0
   -3.2907   -0.5837   -0.9985 C   0  0  0  0  0  0  0  0  0  0  0  0
   -2.8161    1.1404   -0.1214 C   0  0  0  0  0  0  0  0  0  0  0  0
   -2.8857    2.1139    0.3434 H   0  0  0  0  0  0  0  0  0  0  0  0
   -1.6666    0.4418   -0.3561 N   0  0  0  0  0  0  0  0  0  0  0  0
   -0.7249    0.7532   -0.1207 H   0  0  0  0  0  0  0  0  0  0  0  0
   -1.9517   -0.7855   -0.9757 C   0  0  0  0  0  0  0  0  0  0  0  0
   -1.2493   -1.5435   -1.2793 H   0  0  0  0  0  0  0  0  0  0  0  0
   -3.8732    0.4134   -0.5683 N   0  0  0  0  0  0  0  0  0  0  0  0
  1  2  3  0  0  0  0
  3  8  2  0  0  0  0
  3 10  1  0  0  0  0
  4  5  1  0  0  0  0
  6  4  1  0  0  0  0
  6  7  1  0  0  0  0
  8  6  1  0  0  0  0
  9  8  1  0  0  0  0
 10  4  2  0  0  0  0
M  RAD  1   3   2
M  END
