Coordinates from ORCA-job Imidazole-4-N2+-scan-d09-160-n800
 OpenBabel09191814123D

 10  9  0  0  0  0  0  0  0  0999 V2000
    9.4113    6.5473    3.5843 N   0  0  0  0  0  0  0  0  0  0  0  0
   10.2862    7.1199    3.9431 N   0  0  0  0  0  0  0  0  0  0  0  0
   -4.4657   -1.2057   -1.4023 C   0  0  0  0  0  0  0  0  0  0  0  0
   -3.9602    0.5115   -0.5280 C   0  0  0  0  0  0  0  0  0  0  0  0
   -4.0131    1.4855   -0.0621 H   0  0  0  0  0  0  0  0  0  0  0  0
   -2.8224   -0.2025   -0.7721 N   0  0  0  0  0  0  0  0  0  0  0  0
   -1.8749    0.0960   -0.5440 H   0  0  0  0  0  0  0  0  0  0  0  0
   -3.1292   -1.4252   -1.3900 C   0  0  0  0  0  0  0  0  0  0  0  0
   -2.4398   -2.1926   -1.6997 H   0  0  0  0  0  0  0  0  0  0  0  0
   -5.0303   -0.2006   -0.9668 N   0  0  0  0  0  0  0  0  0  0  0  0
  1  2  3  0  0  0  0
  3  8  2  0  0  0  0
  3 10  1  0  0  0  0
  4  5  1  0  0  0  0
  6  7  1  0  0  0  0
  6  4  1  0  0  0  0
  8  6  1  0  0  0  0
  9  8  1  0  0  0  0
 10  4  2  0  0  0  0
M  RAD  1   3   2
M  END
