Coordinates from ORCA-job Imidazole-4-N2+-scan-d09-160-n800
 OpenBabel09191814123D

 10  9  0  0  0  0  0  0  0  0999 V2000
    2.8461    2.9494    1.2591 N   0  0  0  0  0  0  0  0  0  0  0  0
    3.7615    3.4707    1.5935 N   0  0  0  0  0  0  0  0  0  0  0  0
   -2.7720   -0.3544   -0.8408 C   0  0  0  0  0  0  0  0  0  0  0  0
   -2.3817    1.3908    0.0384 C   0  0  0  0  0  0  0  0  0  0  0  0
   -2.4989    2.3622    0.4978 H   0  0  0  0  0  0  0  0  0  0  0  0
   -1.2010    0.7382   -0.1715 N   0  0  0  0  0  0  0  0  0  0  0  0
   -0.2768    1.0890    0.0810 H   0  0  0  0  0  0  0  0  0  0  0  0
   -1.4260   -0.5014   -0.7913 C   0  0  0  0  0  0  0  0  0  0  0  0
   -0.6885   -1.2318   -1.0786 H   0  0  0  0  0  0  0  0  0  0  0  0
   -3.4007    0.6208   -0.4254 N   0  0  0  0  0  0  0  0  0  0  0  0
  1  2  3  0  0  0  0
  3  8  2  0  0  0  0
  3 10  1  0  0  0  0
  4  5  1  0  0  0  0
  6  4  1  0  0  0  0
  6  7  1  0  0  0  0
  8  6  1  0  0  0  0
  9  8  1  0  0  0  0
 10  4  2  0  0  0  0
M  RAD  1   3   2
M  END
