Coordinates from ORCA-job Imidazole-4-N2+-scan-d09-160-n800
 OpenBabel09191814123D

 10 10  0  0  0  0  0  0  0  0999 V2000
    1.4208    0.7357    0.1218 N   0  0  0  0  0  0  0  0  0  0  0  0
    2.5237    0.6216    0.1935 N   0  0  0  0  0  0  0  0  0  0  0  0
   -0.0512    0.8511    0.0097 C   0  0  0  0  0  0  0  0  0  0  0  0
   -1.9940    0.2777   -0.4599 C   0  0  0  0  0  0  0  0  0  0  0  0
   -2.8732   -0.2562   -0.7940 H   0  0  0  0  0  0  0  0  0  0  0  0
   -2.0547    1.5428    0.0952 N   0  0  0  0  0  0  0  0  0  0  0  0
   -2.8982    2.0881    0.2442 H   0  0  0  0  0  0  0  0  0  0  0  0
   -0.7994    1.9455    0.4121 C   0  0  0  0  0  0  0  0  0  0  0  0
   -0.5502    2.8955    0.8611 H   0  0  0  0  0  0  0  0  0  0  0  0
   -0.7616   -0.1682   -0.5214 N   0  0  0  0  0  0  0  0  0  0  0  0
  1  2  1  0  0  0  0
  3  1  1  0  0  0  0
  3  8  2  0  0  0  0
  4  6  1  0  0  0  0
  5  4  1  0  0  0  0
  6  7  1  0  0  0  0
  6  8  1  0  0  0  0
  8  9  1  0  0  0  0
 10  4  2  0  0  0  0
 10  3  1  0  0  0  0
M  RAD  2   1   2   2   3
M  END
