Coordinates from ORCA-job Imidazole-4-N2+-scan-d09-160-n800
 OpenBabel09191814123D

 10  9  0  0  0  0  0  0  0  0999 V2000
    7.6382    5.6061    2.9715 N   0  0  0  0  0  0  0  0  0  0  0  0
    8.5498    6.1328    3.3088 N   0  0  0  0  0  0  0  0  0  0  0  0
   -4.0238   -0.9672   -1.2487 C   0  0  0  0  0  0  0  0  0  0  0  0
   -3.5247    0.7512   -0.3730 C   0  0  0  0  0  0  0  0  0  0  0  0
   -3.5812    1.7250    0.0928 H   0  0  0  0  0  0  0  0  0  0  0  0
   -2.3845    0.0403   -0.6149 N   0  0  0  0  0  0  0  0  0  0  0  0
   -1.4383    0.3413   -0.3847 H   0  0  0  0  0  0  0  0  0  0  0  0
   -2.6868   -1.1832   -1.2336 C   0  0  0  0  0  0  0  0  0  0  0  0
   -1.9947   -1.9487   -1.5419 H   0  0  0  0  0  0  0  0  0  0  0  0
   -4.5920    0.0363   -0.8142 N   0  0  0  0  0  0  0  0  0  0  0  0
  1  2  3  0  0  0  0
  3  8  2  0  0  0  0
  3 10  1  0  0  0  0
  4  5  1  0  0  0  0
  6  7  1  0  0  0  0
  6  4  1  0  0  0  0
  8  6  1  0  0  0  0
  9  8  1  0  0  0  0
 10  4  2  0  0  0  0
M  RAD  1   3   2
M  END
