Coordinates from ORCA-job Imidazole-4-N2+-scan-d09-160-n800
 OpenBabel09191814123D

 10  9  0  0  0  0  0  0  0  0999 V2000
    3.5753    0.6940    0.3416 N   0  0  0  0  0  0  0  0  0  0  0  0
    4.6739    0.6027    0.4224 N   0  0  0  0  0  0  0  0  0  0  0  0
   -0.7427    0.6948   -0.1357 C   0  0  0  0  0  0  0  0  0  0  0  0
   -2.6704    0.3606   -0.4978 C   0  0  0  0  0  0  0  0  0  0  0  0
   -3.5956   -0.1052   -0.8071 H   0  0  0  0  0  0  0  0  0  0  0  0
   -2.5435    1.5978    0.0651 N   0  0  0  0  0  0  0  0  0  0  0  0
   -3.3092    2.2400    0.2650 H   0  0  0  0  0  0  0  0  0  0  0  0
   -1.1954    1.8789    0.3393 C   0  0  0  0  0  0  0  0  0  0  0  0
   -0.7905    2.7738    0.7811 H   0  0  0  0  0  0  0  0  0  0  0  0
   -1.4399   -0.2038   -0.6117 N   0  0  0  0  0  0  0  0  0  0  0  0
  1  2  3  0  0  0  0
  3  8  2  0  0  0  0
  4  6  1  0  0  0  0
  5  4  1  0  0  0  0
  6  7  1  0  0  0  0
  6  8  1  0  0  0  0
  8  9  1  0  0  0  0
 10  4  2  0  0  0  0
 10  3  1  0  0  0  0
M  RAD  1   3   2
M  END
