Coordinates from ORCA-job Imidazole-4-N2+-scan-d09-160-n800
 OpenBabel09191814123D

 10 10  0  0  0  0  0  0  0  0999 V2000
    1.4995    0.7283    0.1272 N   0  0  0  0  0  0  0  0  0  0  0  0
    2.5981    0.6073    0.1953 N   0  0  0  0  0  0  0  0  0  0  0  0
   -0.0919    0.8529    0.0060 C   0  0  0  0  0  0  0  0  0  0  0  0
   -2.0137    0.2828   -0.4599 C   0  0  0  0  0  0  0  0  0  0  0  0
   -2.8884   -0.2567   -0.7960 H   0  0  0  0  0  0  0  0  0  0  0  0
   -2.0753    1.5427    0.0929 N   0  0  0  0  0  0  0  0  0  0  0  0
   -2.9194    2.0870    0.2413 H   0  0  0  0  0  0  0  0  0  0  0  0
   -0.8131    1.9516    0.4133 C   0  0  0  0  0  0  0  0  0  0  0  0
   -0.5609    2.9000    0.8619 H   0  0  0  0  0  0  0  0  0  0  0  0
   -0.7730   -0.1623   -0.5198 N   0  0  0  0  0  0  0  0  0  0  0  0
  1  2  1  0  0  0  0
  3  1  1  0  0  0  0
  3  8  2  0  0  0  0
  4  6  1  0  0  0  0
  5  4  1  0  0  0  0
  6  7  1  0  0  0  0
  6  8  1  0  0  0  0
  8  9  1  0  0  0  0
 10  4  2  0  0  0  0
 10  3  1  0  0  0  0
M  RAD  2   1   2   2   3
M  END
