Coordinates from ORCA-job Imidazole-4-N2+-scan-d09-160-n800
 OpenBabel09191814123D

 10  9  0  0  0  0  0  0  0  0999 V2000
    5.1161    4.2264    2.0785 N   0  0  0  0  0  0  0  0  0  0  0  0
    6.0262    4.7547    2.4171 N   0  0  0  0  0  0  0  0  0  0  0  0
   -3.3838   -0.6313   -1.0297 C   0  0  0  0  0  0  0  0  0  0  0  0
   -2.9035    1.0918   -0.1528 C   0  0  0  0  0  0  0  0  0  0  0  0
   -2.9705    2.0653    0.3123 H   0  0  0  0  0  0  0  0  0  0  0  0
   -1.7562    0.3906   -0.3889 N   0  0  0  0  0  0  0  0  0  0  0  0
   -0.8136    0.6999   -0.1545 H   0  0  0  0  0  0  0  0  0  0  0  0
   -2.0451   -0.8357   -1.0083 C   0  0  0  0  0  0  0  0  0  0  0  0
   -1.3450   -1.5954   -1.3130 H   0  0  0  0  0  0  0  0  0  0  0  0
   -3.9627    0.3675   -0.5985 N   0  0  0  0  0  0  0  0  0  0  0  0
  1  2  3  0  0  0  0
  3  8  2  0  0  0  0
  3 10  1  0  0  0  0
  4  5  1  0  0  0  0
  6  7  1  0  0  0  0
  6  4  1  0  0  0  0
  8  6  1  0  0  0  0
  9  8  1  0  0  0  0
 10  4  2  0  0  0  0
M  RAD  1   3   2
M  END
