Coordinates from ORCA-job Imidazole-4-N2+-scan-d09-160-n800
 OpenBabel09191814123D

 10  9  0  0  0  0  0  0  0  0999 V2000
    2.0463    0.6919    0.1714 N   0  0  0  0  0  0  0  0  0  0  0  0
    3.1401    0.5533    0.2310 N   0  0  0  0  0  0  0  0  0  0  0  0
   -0.3028    0.8421   -0.0220 C   0  0  0  0  0  0  0  0  0  0  0  0
   -2.1735    0.3026   -0.4685 C   0  0  0  0  0  0  0  0  0  0  0  0
   -3.0338   -0.2546   -0.8110 H   0  0  0  0  0  0  0  0  0  0  0  0
   -2.2115    1.5516    0.0814 N   0  0  0  0  0  0  0  0  0  0  0  0
   -3.0497    2.1076    0.2353 H   0  0  0  0  0  0  0  0  0  0  0  0
   -0.9192    1.9692    0.4098 C   0  0  0  0  0  0  0  0  0  0  0  0
   -0.6366    2.9067    0.8571 H   0  0  0  0  0  0  0  0  0  0  0  0
   -0.8973   -0.1368   -0.5222 N   0  0  0  0  0  0  0  0  0  0  0  0
  1  2  3  0  0  0  0
  3  8  2  0  0  0  0
  4  6  1  0  0  0  0
  5  4  1  0  0  0  0
  6  7  1  0  0  0  0
  6  8  1  0  0  0  0
  8  9  1  0  0  0  0
 10  4  2  0  0  0  0
 10  3  1  0  0  0  0
M  RAD  1   3   2
M  END
