Coordinates from ORCA-job Imidazole-4-N2+-scan-d09-160-n800
 OpenBabel09191814123D

 10  9  0  0  0  0  0  0  0  0999 V2000
    6.6445    5.0643    2.6204 N   0  0  0  0  0  0  0  0  0  0  0  0
    7.5555    5.5915    2.9584 N   0  0  0  0  0  0  0  0  0  0  0  0
   -3.7724   -0.8347   -1.1622 C   0  0  0  0  0  0  0  0  0  0  0  0
   -3.2793    0.8852   -0.2863 C   0  0  0  0  0  0  0  0  0  0  0  0
   -3.3390    1.8590    0.1794 H   0  0  0  0  0  0  0  0  0  0  0  0
   -2.1368    0.1774   -0.5263 N   0  0  0  0  0  0  0  0  0  0  0  0
   -1.1917    0.4811   -0.2948 H   0  0  0  0  0  0  0  0  0  0  0  0
   -2.4348   -1.0470   -1.1452 C   0  0  0  0  0  0  0  0  0  0  0  0
   -1.7401   -1.8106   -1.4524 H   0  0  0  0  0  0  0  0  0  0  0  0
   -4.3440    0.1673   -0.7288 N   0  0  0  0  0  0  0  0  0  0  0  0
  1  2  3  0  0  0  0
  3  8  2  0  0  0  0
  3 10  1  0  0  0  0
  4  5  1  0  0  0  0
  6  7  1  0  0  0  0
  6  4  1  0  0  0  0
  8  6  1  0  0  0  0
  9  8  1  0  0  0  0
 10  4  2  0  0  0  0
M  RAD  1   3   2
M  END
