Coordinates from ORCA-job Imidazole-4-N2+-scan-d09-160-n800
 OpenBabel09191814123D

 10  9  0  0  0  0  0  0  0  0999 V2000
    6.0004    4.7121    2.3925 N   0  0  0  0  0  0  0  0  0  0  0  0
    6.9114    5.2393    2.7305 N   0  0  0  0  0  0  0  0  0  0  0  0
   -3.6093   -0.7486   -1.1062 C   0  0  0  0  0  0  0  0  0  0  0  0
   -3.1204    0.9724   -0.2299 C   0  0  0  0  0  0  0  0  0  0  0  0
   -3.1825    1.9460    0.2355 H   0  0  0  0  0  0  0  0  0  0  0  0
   -1.9763    0.2667   -0.4687 N   0  0  0  0  0  0  0  0  0  0  0  0
   -1.0320    0.5722   -0.2362 H   0  0  0  0  0  0  0  0  0  0  0  0
   -2.2713   -0.9583   -1.0877 C   0  0  0  0  0  0  0  0  0  0  0  0
   -1.5748   -1.7207   -1.3941 H   0  0  0  0  0  0  0  0  0  0  0  0
   -4.1833    0.2524   -0.6735 N   0  0  0  0  0  0  0  0  0  0  0  0
  1  2  3  0  0  0  0
  3  8  2  0  0  0  0
  3 10  1  0  0  0  0
  4  5  1  0  0  0  0
  6  7  1  0  0  0  0
  6  4  1  0  0  0  0
  8  6  1  0  0  0  0
  9  8  1  0  0  0  0
 10  4  2  0  0  0  0
M  RAD  1   3   2
M  END
