Coordinates from ORCA-job Imidazole-4-N2+-scan-d09-160-n800
 OpenBabel09191814123D

 10  9  0  0  0  0  0  0  0  0999 V2000
    4.4330    0.9369    0.5443 N   0  0  0  0  0  0  0  0  0  0  0  0
    5.5318    0.9347    0.6648 N   0  0  0  0  0  0  0  0  0  0  0  0
   -1.1123    0.3408   -0.3338 C   0  0  0  0  0  0  0  0  0  0  0  0
   -3.0908    0.4720   -0.4949 C   0  0  0  0  0  0  0  0  0  0  0  0
   -4.1251    0.2434   -0.7108 H   0  0  0  0  0  0  0  0  0  0  0  0
   -2.6243    1.6248    0.0681 N   0  0  0  0  0  0  0  0  0  0  0  0
   -3.1958    2.4180    0.3566 H   0  0  0  0  0  0  0  0  0  0  0  0
   -1.2269    1.5784    0.2023 C   0  0  0  0  0  0  0  0  0  0  0  0
   -0.5850    2.3402    0.6113 H   0  0  0  0  0  0  0  0  0  0  0  0
   -2.0425   -0.3556   -0.7458 N   0  0  0  0  0  0  0  0  0  0  0  0
  1  2  3  0  0  0  0
  3  8  2  0  0  0  0
  4  6  1  0  0  0  0
  5  4  1  0  0  0  0
  6  8  1  0  0  0  0
  6  7  1  0  0  0  0
  8  9  1  0  0  0  0
 10  4  2  0  0  0  0
 10  3  1  0  0  0  0
M  RAD  1   3   2
M  END
