Coordinates from ORCA-job Imidazole-4-N2+-scan-d09-160-n800
 OpenBabel09191814123D

 10  9  0  0  0  0  0  0  0  0999 V2000
    4.2819    0.8522    0.4900 N   0  0  0  0  0  0  0  0  0  0  0  0
    5.3817    0.8161    0.5955 N   0  0  0  0  0  0  0  0  0  0  0  0
   -1.0143    0.4548   -0.2725 C   0  0  0  0  0  0  0  0  0  0  0  0
   -2.9905    0.4318   -0.5016 C   0  0  0  0  0  0  0  0  0  0  0  0
   -3.9960    0.1222   -0.7503 H   0  0  0  0  0  0  0  0  0  0  0  0
   -2.6341    1.6213    0.0655 N   0  0  0  0  0  0  0  0  0  0  0  0
   -3.2745    2.3700    0.3266 H   0  0  0  0  0  0  0  0  0  0  0  0
   -1.2429    1.6837    0.2473 C   0  0  0  0  0  0  0  0  0  0  0  0
   -0.6755    2.4955    0.6703 H   0  0  0  0  0  0  0  0  0  0  0  0
   -1.8738   -0.3141   -0.7087 N   0  0  0  0  0  0  0  0  0  0  0  0
  1  2  3  0  0  0  0
  3  8  2  0  0  0  0
  4  6  1  0  0  0  0
  5  4  1  0  0  0  0
  6  8  1  0  0  0  0
  6  7  1  0  0  0  0
  8  9  1  0  0  0  0
 10  4  2  0  0  0  0
 10  3  1  0  0  0  0
M  RAD  1   3   2
M  END
