Coordinates from ORCA-job Imidazole-4-N2+-scan-d09-160-n800
 OpenBabel09191814123D

 10  9  0  0  0  0  0  0  0  0999 V2000
    7.2621    5.4012    2.8388 N   0  0  0  0  0  0  0  0  0  0  0  0
    8.1734    5.9281    3.1763 N   0  0  0  0  0  0  0  0  0  0  0  0
   -3.9288   -0.9169   -1.2159 C   0  0  0  0  0  0  0  0  0  0  0  0
   -3.4316    0.8020   -0.3402 C   0  0  0  0  0  0  0  0  0  0  0  0
   -3.4891    1.7757    0.1256 H   0  0  0  0  0  0  0  0  0  0  0  0
   -2.2907    0.0920   -0.5815 N   0  0  0  0  0  0  0  0  0  0  0  0
   -1.3448    0.3938   -0.3509 H   0  0  0  0  0  0  0  0  0  0  0  0
   -2.5916   -1.1317   -1.2002 C   0  0  0  0  0  0  0  0  0  0  0  0
   -1.8987   -1.8967   -1.5082 H   0  0  0  0  0  0  0  0  0  0  0  0
   -4.4981    0.0861   -0.7817 N   0  0  0  0  0  0  0  0  0  0  0  0
  1  2  3  0  0  0  0
  3  8  2  0  0  0  0
  3 10  1  0  0  0  0
  4  5  1  0  0  0  0
  6  7  1  0  0  0  0
  6  4  1  0  0  0  0
  8  6  1  0  0  0  0
  9  8  1  0  0  0  0
 10  4  2  0  0  0  0
M  RAD  1   3   2
M  END
