Coordinates from ORCA-job Imidazole-4-N2+-scan-d09-160-n800
 OpenBabel09191814123D

 10  9  0  0  0  0  0  0  0  0999 V2000
    9.5738    6.6335    3.6405 N   0  0  0  0  0  0  0  0  0  0  0  0
   10.4424    7.2136    4.0026 N   0  0  0  0  0  0  0  0  0  0  0  0
   -4.5056   -1.2280   -1.4169 C   0  0  0  0  0  0  0  0  0  0  0  0
   -4.0000    0.4890   -0.5424 C   0  0  0  0  0  0  0  0  0  0  0  0
   -4.0528    1.4630   -0.0765 H   0  0  0  0  0  0  0  0  0  0  0  0
   -2.8622   -0.2250   -0.7866 N   0  0  0  0  0  0  0  0  0  0  0  0
   -1.9147    0.0733   -0.5584 H   0  0  0  0  0  0  0  0  0  0  0  0
   -3.1691   -1.4477   -1.4045 C   0  0  0  0  0  0  0  0  0  0  0  0
   -2.4798   -2.2152   -1.7142 H   0  0  0  0  0  0  0  0  0  0  0  0
   -5.0702   -0.2230   -0.9813 N   0  0  0  0  0  0  0  0  0  0  0  0
  1  2  3  0  0  0  0
  3  8  2  0  0  0  0
  3 10  1  0  0  0  0
  4  5  1  0  0  0  0
  6  7  1  0  0  0  0
  6  4  1  0  0  0  0
  8  6  1  0  0  0  0
  9  8  1  0  0  0  0
 10  4  2  0  0  0  0
M  RAD  1   3   2
M  END
