Coordinates from ORCA-job Imidazole-4-N2+-scan-d09-160-n800
 OpenBabel09191814123D

 10 10  0  0  0  0  0  0  0  0999 V2000
    1.4864    0.7295    0.1260 N   0  0  0  0  0  0  0  0  0  0  0  0
    2.5856    0.6099    0.1944 N   0  0  0  0  0  0  0  0  0  0  0  0
   -0.0852    0.8526    0.0068 C   0  0  0  0  0  0  0  0  0  0  0  0
   -2.0103    0.2818   -0.4595 C   0  0  0  0  0  0  0  0  0  0  0  0
   -2.8858   -0.2567   -0.7953 H   0  0  0  0  0  0  0  0  0  0  0  0
   -2.0717    1.5429    0.0927 N   0  0  0  0  0  0  0  0  0  0  0  0
   -2.9157    2.0877    0.2406 H   0  0  0  0  0  0  0  0  0  0  0  0
   -0.8109    1.9503    0.4138 C   0  0  0  0  0  0  0  0  0  0  0  0
   -0.5593    2.8989    0.8626 H   0  0  0  0  0  0  0  0  0  0  0  0
   -0.7710   -0.1633   -0.5199 N   0  0  0  0  0  0  0  0  0  0  0  0
  1  2  1  0  0  0  0
  3  1  1  0  0  0  0
  3  8  2  0  0  0  0
  4  6  1  0  0  0  0
  5  4  1  0  0  0  0
  6  7  1  0  0  0  0
  6  8  1  0  0  0  0
  8  9  1  0  0  0  0
 10  4  2  0  0  0  0
 10  3  1  0  0  0  0
M  RAD  2   1   2   2   3
M  END
