Coordinates from ORCA-job Imidazole-4-N2+-scan-d09-160-n800
 OpenBabel09191814123D

 10  9  0  0  0  0  0  0  0  0999 V2000
    9.1129    6.3901    3.4817 N   0  0  0  0  0  0  0  0  0  0  0  0
    9.9990    6.9491    3.8344 N   0  0  0  0  0  0  0  0  0  0  0  0
   -4.3918   -1.1653   -1.3763 C   0  0  0  0  0  0  0  0  0  0  0  0
   -3.8877    0.5522   -0.5018 C   0  0  0  0  0  0  0  0  0  0  0  0
   -3.9413    1.5262   -0.0360 H   0  0  0  0  0  0  0  0  0  0  0  0
   -2.7494   -0.1611   -0.7455 N   0  0  0  0  0  0  0  0  0  0  0  0
   -1.8021    0.1380   -0.5170 H   0  0  0  0  0  0  0  0  0  0  0  0
   -3.0552   -1.3840   -1.3635 C   0  0  0  0  0  0  0  0  0  0  0  0
   -2.3652   -2.1510   -1.6729 H   0  0  0  0  0  0  0  0  0  0  0  0
   -4.9572   -0.1606   -0.9410 N   0  0  0  0  0  0  0  0  0  0  0  0
  1  2  3  0  0  0  0
  3  8  2  0  0  0  0
  3 10  1  0  0  0  0
  4  5  1  0  0  0  0
  6  7  1  0  0  0  0
  6  4  1  0  0  0  0
  8  6  1  0  0  0  0
  9  8  1  0  0  0  0
 10  4  2  0  0  0  0
M  RAD  1   3   2
M  END
