Coordinates from ORCA-job Imidazole-4-N2+-scan-d09-160-n800
 OpenBabel09191814123D

 10 10  0  0  0  0  0  0  0  0999 V2000
    1.2242    0.7608    0.1107 N   0  0  0  0  0  0  0  0  0  0  0  0
    2.3442    0.6509    0.1861 N   0  0  0  0  0  0  0  0  0  0  0  0
    0.0506    0.8464    0.0187 C   0  0  0  0  0  0  0  0  0  0  0  0
   -1.9477    0.2649   -0.4603 C   0  0  0  0  0  0  0  0  0  0  0  0
   -2.8350   -0.2596   -0.7912 H   0  0  0  0  0  0  0  0  0  0  0  0
   -2.0061    1.5434    0.1003 N   0  0  0  0  0  0  0  0  0  0  0  0
   -2.8485    2.0925    0.2505 H   0  0  0  0  0  0  0  0  0  0  0  0
   -0.7673    1.9332    0.4109 C   0  0  0  0  0  0  0  0  0  0  0  0
   -0.5193    2.8854    0.8611 H   0  0  0  0  0  0  0  0  0  0  0  0
   -0.7333   -0.1843   -0.5245 N   0  0  0  0  0  0  0  0  0  0  0  0
  1  2  1  0  0  0  0
  3  1  1  0  0  0  0
  3  8  2  0  0  0  0
  4  6  1  0  0  0  0
  5  4  1  0  0  0  0
  6  7  1  0  0  0  0
  6  8  1  0  0  0  0
  8  9  1  0  0  0  0
 10  4  2  0  0  0  0
 10  3  1  0  0  0  0
M  RAD  2   1   2   2   3
M  END
