Coordinates from ORCA-job Imidazole-4-N2+-scan-d09-160-n800
 OpenBabel09191814123D

 10  9  0  0  0  0  0  0  0  0999 V2000
    3.0557    3.0717    1.3368 N   0  0  0  0  0  0  0  0  0  0  0  0
    3.9699    3.5948    1.6722 N   0  0  0  0  0  0  0  0  0  0  0  0
   -2.8322   -0.3774   -0.8574 C   0  0  0  0  0  0  0  0  0  0  0  0
   -2.4261    1.3640    0.0215 C   0  0  0  0  0  0  0  0  0  0  0  0
   -2.5343    2.3359    0.4820 H   0  0  0  0  0  0  0  0  0  0  0  0
   -1.2512    0.7025   -0.1932 N   0  0  0  0  0  0  0  0  0  0  0  0
   -0.3237    1.0457    0.0561 H   0  0  0  0  0  0  0  0  0  0  0  0
   -1.4874   -0.5349   -0.8130 C   0  0  0  0  0  0  0  0  0  0  0  0
   -0.7563   -1.2706   -1.1034 H   0  0  0  0  0  0  0  0  0  0  0  0
   -3.4525    0.6020   -0.4392 N   0  0  0  0  0  0  0  0  0  0  0  0
  1  2  3  0  0  0  0
  3  8  2  0  0  0  0
  3 10  1  0  0  0  0
  4  5  1  0  0  0  0
  6  4  1  0  0  0  0
  6  7  1  0  0  0  0
  8  6  1  0  0  0  0
  9  8  1  0  0  0  0
 10  4  2  0  0  0  0
M  RAD  1   3   2
M  END
