Coordinates from ORCA-job Imidazole-4-N2+-scan-d09-160-n800
 OpenBabel09191814123D

 10  9  0  0  0  0  0  0  0  0999 V2000
    2.4794    0.6668    0.2082 N   0  0  0  0  0  0  0  0  0  0  0  0
    3.5746    0.5362    0.2715 N   0  0  0  0  0  0  0  0  0  0  0  0
   -0.4279    0.8257   -0.0431 C   0  0  0  0  0  0  0  0  0  0  0  0
   -2.3022    0.3155   -0.4771 C   0  0  0  0  0  0  0  0  0  0  0  0
   -3.1697   -0.2328   -0.8164 H   0  0  0  0  0  0  0  0  0  0  0  0
   -2.3126    1.5636    0.0755 N   0  0  0  0  0  0  0  0  0  0  0  0
   -3.1410    2.1340    0.2369 H   0  0  0  0  0  0  0  0  0  0  0  0
   -1.0080    1.9661    0.3986 C   0  0  0  0  0  0  0  0  0  0  0  0
   -0.7054    2.8977    0.8454 H   0  0  0  0  0  0  0  0  0  0  0  0
   -1.0252   -0.1391   -0.5373 N   0  0  0  0  0  0  0  0  0  0  0  0
  1  2  3  0  0  0  0
  3  8  2  0  0  0  0
  4  6  1  0  0  0  0
  5  4  1  0  0  0  0
  6  7  1  0  0  0  0
  6  8  1  0  0  0  0
  8  9  1  0  0  0  0
 10  4  2  0  0  0  0
 10  3  1  0  0  0  0
M  RAD  1   3   2
M  END
