Coordinates from ORCA-job Imidazole-4-N2+-scan-d09-160-n800
 OpenBabel09191814123D

 10  9  0  0  0  0  0  0  0  0999 V2000
    4.8620    4.0868    1.9883 N   0  0  0  0  0  0  0  0  0  0  0  0
    5.7724    4.6147    2.3267 N   0  0  0  0  0  0  0  0  0  0  0  0
   -3.3182   -0.5978   -1.0077 C   0  0  0  0  0  0  0  0  0  0  0  0
   -2.8421    1.1260   -0.1307 C   0  0  0  0  0  0  0  0  0  0  0  0
   -2.9109    2.0995    0.3342 H   0  0  0  0  0  0  0  0  0  0  0  0
   -1.6932    0.4266   -0.3658 N   0  0  0  0  0  0  0  0  0  0  0  0
   -0.7512    0.7373   -0.1307 H   0  0  0  0  0  0  0  0  0  0  0  0
   -1.9793   -0.8004   -0.9854 C   0  0  0  0  0  0  0  0  0  0  0  0
   -1.2776   -1.5589   -1.2893 H   0  0  0  0  0  0  0  0  0  0  0  0
   -3.8999    0.3998   -0.5773 N   0  0  0  0  0  0  0  0  0  0  0  0
  1  2  3  0  0  0  0
  3  8  2  0  0  0  0
  3 10  1  0  0  0  0
  4  5  1  0  0  0  0
  6  7  1  0  0  0  0
  6  4  1  0  0  0  0
  8  6  1  0  0  0  0
  9  8  1  0  0  0  0
 10  4  2  0  0  0  0
M  RAD  1   3   2
M  END
