Coordinates from ORCA-job Imidazole-4-N2+-scan-d09-160-n800
 OpenBabel09191814123D

 10  9  0  0  0  0  0  0  0  0999 V2000
    2.8849    0.6579    0.2492 N   0  0  0  0  0  0  0  0  0  0  0  0
    3.9815    0.5392    0.3178 N   0  0  0  0  0  0  0  0  0  0  0  0
   -0.5408    0.7967   -0.0683 C   0  0  0  0  0  0  0  0  0  0  0  0
   -2.4281    0.3290   -0.4850 C   0  0  0  0  0  0  0  0  0  0  0  0
   -3.3099   -0.2004   -0.8176 H   0  0  0  0  0  0  0  0  0  0  0  0
   -2.4038    1.5757    0.0708 N   0  0  0  0  0  0  0  0  0  0  0  0
   -3.2176    2.1647    0.2419 H   0  0  0  0  0  0  0  0  0  0  0  0
   -1.0868    1.9500    0.3828 C   0  0  0  0  0  0  0  0  0  0  0  0
   -0.7574    2.8731    0.8288 H   0  0  0  0  0  0  0  0  0  0  0  0
   -1.1599   -0.1524   -0.5580 N   0  0  0  0  0  0  0  0  0  0  0  0
  1  2  3  0  0  0  0
  3  8  2  0  0  0  0
  4  6  1  0  0  0  0
  5  4  1  0  0  0  0
  6  7  1  0  0  0  0
  6  8  1  0  0  0  0
  8  9  1  0  0  0  0
 10  4  2  0  0  0  0
 10  3  1  0  0  0  0
M  RAD  1   3   2
M  END
