Coordinates from ORCA-job Imidazole-4-N2+-scan-d09-160-n800
 OpenBabel09191814123D

 10  9  0  0  0  0  0  0  0  0999 V2000
    2.3583    2.6688    1.0804 N   0  0  0  0  0  0  0  0  0  0  0  0
    3.2784    3.1840    1.4108 N   0  0  0  0  0  0  0  0  0  0  0  0
   -2.6343   -0.3004   -0.8031 C   0  0  0  0  0  0  0  0  0  0  0  0
   -2.2766    1.4525    0.0777 C   0  0  0  0  0  0  0  0  0  0  0  0
   -2.4136    2.4223    0.5348 H   0  0  0  0  0  0  0  0  0  0  0  0
   -1.0838    0.8195   -0.1213 N   0  0  0  0  0  0  0  0  0  0  0  0
   -0.1671    1.1879    0.1396 H   0  0  0  0  0  0  0  0  0  0  0  0
   -1.2854   -0.4240   -0.7415 C   0  0  0  0  0  0  0  0  0  0  0  0
   -0.5343   -1.1431   -1.0219 H   0  0  0  0  0  0  0  0  0  0  0  0
   -3.2797    0.6660   -0.3934 N   0  0  0  0  0  0  0  0  0  0  0  0
  1  2  3  0  0  0  0
  3  8  2  0  0  0  0
  3 10  1  0  0  0  0
  4  5  1  0  0  0  0
  6  4  1  0  0  0  0
  6  7  1  0  0  0  0
  8  6  1  0  0  0  0
  9  8  1  0  0  0  0
 10  4  2  0  0  0  0
M  RAD  1   3   2
M  END
