Coordinates from ORCA-job Imidazole-4-N2+-scan-d09-160-n800
 OpenBabel09191814123D

 10  9  0  0  0  0  0  0  0  0999 V2000
    8.5418    6.0920    3.2870 N   0  0  0  0  0  0  0  0  0  0  0  0
    9.4469    6.6271    3.6283 N   0  0  0  0  0  0  0  0  0  0  0  0
   -4.2501   -1.0886   -1.3273 C   0  0  0  0  0  0  0  0  0  0  0  0
   -3.7485    0.6292   -0.4521 C   0  0  0  0  0  0  0  0  0  0  0  0
   -3.8035    1.6030    0.0139 H   0  0  0  0  0  0  0  0  0  0  0  0
   -2.6093   -0.0830   -0.6947 N   0  0  0  0  0  0  0  0  0  0  0  0
   -1.6625    0.2170   -0.4653 H   0  0  0  0  0  0  0  0  0  0  0  0
   -2.9134   -1.3061   -1.3132 C   0  0  0  0  0  0  0  0  0  0  0  0
   -2.2223   -2.0724   -1.6220 H   0  0  0  0  0  0  0  0  0  0  0  0
   -4.8170   -0.0845   -0.8924 N   0  0  0  0  0  0  0  0  0  0  0  0
  1  2  3  0  0  0  0
  3  8  2  0  0  0  0
  3 10  1  0  0  0  0
  4  5  1  0  0  0  0
  6  7  1  0  0  0  0
  6  4  1  0  0  0  0
  8  6  1  0  0  0  0
  9  8  1  0  0  0  0
 10  4  2  0  0  0  0
M  RAD  1   3   2
M  END
