Coordinates from ORCA-job Imidazole-4-N2+-scan-d09-160-n800
 OpenBabel09191814123D

 10  9  0  0  0  0  0  0  0  0999 V2000
    8.8823    6.2694    3.4029 N   0  0  0  0  0  0  0  0  0  0  0  0
    9.7766    6.8182    3.7508 N   0  0  0  0  0  0  0  0  0  0  0  0
   -4.3341   -1.1341   -1.3563 C   0  0  0  0  0  0  0  0  0  0  0  0
   -3.8320    0.5834   -0.4817 C   0  0  0  0  0  0  0  0  0  0  0  0
   -3.8863    1.5574   -0.0158 H   0  0  0  0  0  0  0  0  0  0  0  0
   -2.6930   -0.1293   -0.7249 N   0  0  0  0  0  0  0  0  0  0  0  0
   -1.7459    0.1702   -0.4960 H   0  0  0  0  0  0  0  0  0  0  0  0
   -2.9976   -1.3525   -1.3431 C   0  0  0  0  0  0  0  0  0  0  0  0
   -2.3068   -2.1190   -1.6521 H   0  0  0  0  0  0  0  0  0  0  0  0
   -4.9012   -0.1301   -0.9215 N   0  0  0  0  0  0  0  0  0  0  0  0
  1  2  3  0  0  0  0
  3  8  2  0  0  0  0
  3 10  1  0  0  0  0
  4  5  1  0  0  0  0
  6  7  1  0  0  0  0
  6  4  1  0  0  0  0
  8  6  1  0  0  0  0
  9  8  1  0  0  0  0
 10  4  2  0  0  0  0
M  RAD  1   3   2
M  END
