Coordinates from ORCA-job Imidazole-4-N2+-scan-d09-160-n800
 OpenBabel09191814123D

 10  9  0  0  0  0  0  0  0  0999 V2000
    8.7867    6.2195    3.3703 N   0  0  0  0  0  0  0  0  0  0  0  0
    9.6842    6.7644    3.7163 N   0  0  0  0  0  0  0  0  0  0  0  0
   -4.3108   -1.1215   -1.3483 C   0  0  0  0  0  0  0  0  0  0  0  0
   -3.8085    0.5962   -0.4734 C   0  0  0  0  0  0  0  0  0  0  0  0
   -3.8631    1.5701   -0.0075 H   0  0  0  0  0  0  0  0  0  0  0  0
   -2.6695   -0.1162   -0.7164 N   0  0  0  0  0  0  0  0  0  0  0  0
   -1.7226    0.1835   -0.4873 H   0  0  0  0  0  0  0  0  0  0  0  0
   -2.9741   -1.3393   -1.3346 C   0  0  0  0  0  0  0  0  0  0  0  0
   -2.2833   -2.1058   -1.6437 H   0  0  0  0  0  0  0  0  0  0  0  0
   -4.8772   -0.1173   -0.9133 N   0  0  0  0  0  0  0  0  0  0  0  0
  1  2  3  0  0  0  0
  3  8  2  0  0  0  0
  3 10  1  0  0  0  0
  4  5  1  0  0  0  0
  6  7  1  0  0  0  0
  6  4  1  0  0  0  0
  8  6  1  0  0  0  0
  9  8  1  0  0  0  0
 10  4  2  0  0  0  0
M  RAD  1   3   2
M  END
