Coordinates from ORCA-job Imidazole-4-N2+-scan-d09-160-n800
 OpenBabel09191814123D

 10  9  0  0  0  0  0  0  0  0999 V2000
    6.8592    5.1816    2.6964 N   0  0  0  0  0  0  0  0  0  0  0  0
    7.7704    5.7086    3.0342 N   0  0  0  0  0  0  0  0  0  0  0  0
   -3.8268   -0.8632   -1.1809 C   0  0  0  0  0  0  0  0  0  0  0  0
   -3.3322    0.8563   -0.3050 C   0  0  0  0  0  0  0  0  0  0  0  0
   -3.3911    1.8300    0.1607 H   0  0  0  0  0  0  0  0  0  0  0  0
   -2.1903    0.1477   -0.5455 N   0  0  0  0  0  0  0  0  0  0  0  0
   -1.2449    0.4506   -0.3144 H   0  0  0  0  0  0  0  0  0  0  0  0
   -2.4894   -1.0765   -1.1643 C   0  0  0  0  0  0  0  0  0  0  0  0
   -1.7954   -1.8406   -1.4718 H   0  0  0  0  0  0  0  0  0  0  0  0
   -4.3976    0.1392   -0.7472 N   0  0  0  0  0  0  0  0  0  0  0  0
  1  2  3  0  0  0  0
  3  8  2  0  0  0  0
  3 10  1  0  0  0  0
  4  5  1  0  0  0  0
  6  7  1  0  0  0  0
  6  4  1  0  0  0  0
  8  6  1  0  0  0  0
  9  8  1  0  0  0  0
 10  4  2  0  0  0  0
M  RAD  1   3   2
M  END
