Coordinates from ORCA-job Imidazole-4-N2+-scan-d09-160-n800
 OpenBabel09191814123D

 10  9  0  0  0  0  0  0  0  0999 V2000
    3.0714    0.6598    0.2706 N   0  0  0  0  0  0  0  0  0  0  0  0
    4.1685    0.5475    0.3421 N   0  0  0  0  0  0  0  0  0  0  0  0
   -0.5932    0.7775   -0.0826 C   0  0  0  0  0  0  0  0  0  0  0  0
   -2.4890    0.3360   -0.4886 C   0  0  0  0  0  0  0  0  0  0  0  0
   -3.3797   -0.1811   -0.8168 H   0  0  0  0  0  0  0  0  0  0  0  0
   -2.4441    1.5814    0.0688 N   0  0  0  0  0  0  0  0  0  0  0  0
   -3.2487    2.1813    0.2458 H   0  0  0  0  0  0  0  0  0  0  0  0
   -1.1202    1.9377    0.3736 C   0  0  0  0  0  0  0  0  0  0  0  0
   -0.7755    2.8555    0.8190 H   0  0  0  0  0  0  0  0  0  0  0  0
   -1.2275   -0.1621   -0.5698 N   0  0  0  0  0  0  0  0  0  0  0  0
  1  2  3  0  0  0  0
  3  8  2  0  0  0  0
  4  6  1  0  0  0  0
  5  4  1  0  0  0  0
  6  7  1  0  0  0  0
  6  8  1  0  0  0  0
  8  9  1  0  0  0  0
 10  4  2  0  0  0  0
 10  3  1  0  0  0  0
M  RAD  1   3   2
M  END
