Coordinates from ORCA-job Imidazole-4-N2+-scan-d09-160-n800
 OpenBabel09191814123D

 10  9  0  0  0  0  0  0  0  0999 V2000
    9.0857    6.3759    3.4724 N   0  0  0  0  0  0  0  0  0  0  0  0
    9.9729    6.9337    3.8245 N   0  0  0  0  0  0  0  0  0  0  0  0
   -4.3850   -1.1616   -1.3740 C   0  0  0  0  0  0  0  0  0  0  0  0
   -3.8811    0.5559   -0.4994 C   0  0  0  0  0  0  0  0  0  0  0  0
   -3.9348    1.5298   -0.0336 H   0  0  0  0  0  0  0  0  0  0  0  0
   -2.7427   -0.1573   -0.7431 N   0  0  0  0  0  0  0  0  0  0  0  0
   -1.7955    0.1418   -0.5145 H   0  0  0  0  0  0  0  0  0  0  0  0
   -3.0484   -1.3803   -1.3611 C   0  0  0  0  0  0  0  0  0  0  0  0
   -2.3584   -2.1472   -1.6704 H   0  0  0  0  0  0  0  0  0  0  0  0
   -4.9506   -0.1570   -0.9387 N   0  0  0  0  0  0  0  0  0  0  0  0
  1  2  3  0  0  0  0
  3  8  2  0  0  0  0
  3 10  1  0  0  0  0
  4  5  1  0  0  0  0
  6  7  1  0  0  0  0
  6  4  1  0  0  0  0
  8  6  1  0  0  0  0
  9  8  1  0  0  0  0
 10  4  2  0  0  0  0
M  RAD  1   3   2
M  END
