Coordinates from ORCA-job Imidazole-4-N2+-scan-d09-160-n800
 OpenBabel09191814123D

 10  9  0  0  0  0  0  0  0  0999 V2000
    5.4375    4.4032    2.1927 N   0  0  0  0  0  0  0  0  0  0  0  0
    6.3479    4.9311    2.5311 N   0  0  0  0  0  0  0  0  0  0  0  0
   -3.4661   -0.6736   -1.0574 C   0  0  0  0  0  0  0  0  0  0  0  0
   -2.9820    1.0485   -0.1807 C   0  0  0  0  0  0  0  0  0  0  0  0
   -3.0467    2.0221    0.2845 H   0  0  0  0  0  0  0  0  0  0  0  0
   -1.8361    0.3453   -0.4180 N   0  0  0  0  0  0  0  0  0  0  0  0
   -0.8927    0.6529   -0.1845 H   0  0  0  0  0  0  0  0  0  0  0  0
   -2.1277   -0.8804   -1.0373 C   0  0  0  0  0  0  0  0  0  0  0  0
   -1.4292   -1.6413   -1.3427 H   0  0  0  0  0  0  0  0  0  0  0  0
   -4.0428    0.3261   -0.6255 N   0  0  0  0  0  0  0  0  0  0  0  0
  1  2  3  0  0  0  0
  3  8  2  0  0  0  0
  3 10  1  0  0  0  0
  4  5  1  0  0  0  0
  6  7  1  0  0  0  0
  6  4  1  0  0  0  0
  8  6  1  0  0  0  0
  9  8  1  0  0  0  0
 10  4  2  0  0  0  0
M  RAD  1   3   2
M  END
