Coordinates from ORCA-job Imidazole-4-N2+-scan-d09-160-n800
 OpenBabel09191814123D

 10  9  0  0  0  0  0  0  0  0999 V2000
    3.9804    0.7611    0.4162 N   0  0  0  0  0  0  0  0  0  0  0  0
    5.0799    0.6945    0.5081 N   0  0  0  0  0  0  0  0  0  0  0  0
   -0.8825    0.5848   -0.2000 C   0  0  0  0  0  0  0  0  0  0  0  0
   -2.8397    0.3915   -0.5028 C   0  0  0  0  0  0  0  0  0  0  0  0
   -3.8049   -0.0047   -0.7856 H   0  0  0  0  0  0  0  0  0  0  0  0
   -2.6074    1.6115    0.0641 N   0  0  0  0  0  0  0  0  0  0  0  0
   -3.3187    2.3047    0.2927 H   0  0  0  0  0  0  0  0  0  0  0  0
   -1.2347    1.7939    0.2972 C   0  0  0  0  0  0  0  0  0  0  0  0
   -0.7536    2.6538    0.7320 H   0  0  0  0  0  0  0  0  0  0  0  0
   -1.6566   -0.2575   -0.6595 N   0  0  0  0  0  0  0  0  0  0  0  0
  1  2  3  0  0  0  0
  3  8  2  0  0  0  0
  4  6  1  0  0  0  0
  5  4  1  0  0  0  0
  6  7  1  0  0  0  0
  6  8  1  0  0  0  0
  8  9  1  0  0  0  0
 10  4  2  0  0  0  0
 10  3  1  0  0  0  0
M  RAD  1   3   2
M  END
