Coordinates from ORCA-job Imidazole-4-N2+-scan-d09-160-n800
 OpenBabel09191814123D

 10  9  0  0  0  0  0  0  0  0999 V2000
    8.0144    5.8110    3.1043 N   0  0  0  0  0  0  0  0  0  0  0  0
    8.9263    6.3373    3.4413 N   0  0  0  0  0  0  0  0  0  0  0  0
   -4.1186   -1.0177   -1.2815 C   0  0  0  0  0  0  0  0  0  0  0  0
   -3.6180    0.7003   -0.4060 C   0  0  0  0  0  0  0  0  0  0  0  0
   -3.6736    1.6741    0.0600 H   0  0  0  0  0  0  0  0  0  0  0  0
   -2.4784   -0.0114   -0.6483 N   0  0  0  0  0  0  0  0  0  0  0  0
   -1.5319    0.2889   -0.4185 H   0  0  0  0  0  0  0  0  0  0  0  0
   -2.7818   -1.2346   -1.2669 C   0  0  0  0  0  0  0  0  0  0  0  0
   -2.0903   -2.0006   -1.5755 H   0  0  0  0  0  0  0  0  0  0  0  0
   -4.6860   -0.0138   -0.8468 N   0  0  0  0  0  0  0  0  0  0  0  0
  1  2  3  0  0  0  0
  3  8  2  0  0  0  0
  3 10  1  0  0  0  0
  4  5  1  0  0  0  0
  6  7  1  0  0  0  0
  6  4  1  0  0  0  0
  8  6  1  0  0  0  0
  9  8  1  0  0  0  0
 10  4  2  0  0  0  0
M  RAD  1   3   2
M  END
