Coordinates from ORCA-job Imidazole-4-N2+-scan-d09-160-n800
 OpenBabel09191814123D

 10  9  0  0  0  0  0  0  0  0999 V2000
    5.5851    4.4845    2.2453 N   0  0  0  0  0  0  0  0  0  0  0  0
    6.4960    5.0117    2.5833 N   0  0  0  0  0  0  0  0  0  0  0  0
   -3.5034   -0.6929   -1.0700 C   0  0  0  0  0  0  0  0  0  0  0  0
   -3.0185    1.0286   -0.1936 C   0  0  0  0  0  0  0  0  0  0  0  0
   -3.0823    2.0022    0.2717 H   0  0  0  0  0  0  0  0  0  0  0  0
   -1.8729    0.3246   -0.4314 N   0  0  0  0  0  0  0  0  0  0  0  0
   -0.9292    0.6314   -0.1982 H   0  0  0  0  0  0  0  0  0  0  0  0
   -2.1653   -0.9011   -1.0506 C   0  0  0  0  0  0  0  0  0  0  0  0
   -1.4673   -1.6623   -1.3563 H   0  0  0  0  0  0  0  0  0  0  0  0
   -4.0802    0.3068   -0.6381 N   0  0  0  0  0  0  0  0  0  0  0  0
  1  2  3  0  0  0  0
  3  8  2  0  0  0  0
  3 10  1  0  0  0  0
  4  5  1  0  0  0  0
  6  7  1  0  0  0  0
  6  4  1  0  0  0  0
  8  6  1  0  0  0  0
  9  8  1  0  0  0  0
 10  4  2  0  0  0  0
M  RAD  1   3   2
M  END
