Coordinates from ORCA-job Imidazole-4-N2+-scan-d09-160-n800
 OpenBabel09191814123D

 10  9  0  0  0  0  0  0  0  0999 V2000
    6.3901    4.9249    2.5302 N   0  0  0  0  0  0  0  0  0  0  0  0
    7.3007    5.4525    2.8685 N   0  0  0  0  0  0  0  0  0  0  0  0
   -3.7073   -0.8005   -1.1400 C   0  0  0  0  0  0  0  0  0  0  0  0
   -3.2169    0.9197   -0.2640 C   0  0  0  0  0  0  0  0  0  0  0  0
   -3.2776    1.8934    0.2015 H   0  0  0  0  0  0  0  0  0  0  0  0
   -2.0734    0.2128   -0.5035 N   0  0  0  0  0  0  0  0  0  0  0  0
   -1.1286    0.5172   -0.2717 H   0  0  0  0  0  0  0  0  0  0  0  0
   -2.3698   -1.0121   -1.1225 C   0  0  0  0  0  0  0  0  0  0  0  0
   -1.6741   -1.7750   -1.4292 H   0  0  0  0  0  0  0  0  0  0  0  0
   -4.2810    0.2006   -0.7071 N   0  0  0  0  0  0  0  0  0  0  0  0
  1  2  3  0  0  0  0
  3  8  2  0  0  0  0
  3 10  1  0  0  0  0
  4  5  1  0  0  0  0
  6  7  1  0  0  0  0
  6  4  1  0  0  0  0
  8  6  1  0  0  0  0
  9  8  1  0  0  0  0
 10  4  2  0  0  0  0
M  RAD  1   3   2
M  END
