Coordinates from ORCA-job Imidazole-4-N2+-scan-d09-160-n800
 OpenBabel09191814123D

 10  9  0  0  0  0  0  0  0  0999 V2000
    4.5806    3.9318    1.8882 N   0  0  0  0  0  0  0  0  0  0  0  0
    5.4911    4.4596    2.2265 N   0  0  0  0  0  0  0  0  0  0  0  0
   -3.2460   -0.5615   -0.9838 C   0  0  0  0  0  0  0  0  0  0  0  0
   -2.7738    1.1637   -0.1064 C   0  0  0  0  0  0  0  0  0  0  0  0
   -2.8452    2.1371    0.3583 H   0  0  0  0  0  0  0  0  0  0  0  0
   -1.6234    0.4667   -0.3401 N   0  0  0  0  0  0  0  0  0  0  0  0
   -0.6824    0.7797   -0.1040 H   0  0  0  0  0  0  0  0  0  0  0  0
   -1.9065   -0.7608   -0.9597 C   0  0  0  0  0  0  0  0  0  0  0  0
   -1.2030   -1.5180   -1.2628 H   0  0  0  0  0  0  0  0  0  0  0  0
   -3.8294    0.4353   -0.5539 N   0  0  0  0  0  0  0  0  0  0  0  0
  1  2  3  0  0  0  0
  3  8  2  0  0  0  0
  3 10  1  0  0  0  0
  4  5  1  0  0  0  0
  6  4  1  0  0  0  0
  6  7  1  0  0  0  0
  8  6  1  0  0  0  0
  9  8  1  0  0  0  0
 10  4  2  0  0  0  0
M  RAD  1   3   2
M  END
