Coordinates from ORCA-job Imidazole-4-N2+-scan-d09-160-n800
 OpenBabel09191814123D

 10  9  0  0  0  0  0  0  0  0999 V2000
    4.3134    3.7840    1.7929 N   0  0  0  0  0  0  0  0  0  0  0  0
    5.2241    4.3116    2.1310 N   0  0  0  0  0  0  0  0  0  0  0  0
   -3.1764   -0.5273   -0.9611 C   0  0  0  0  0  0  0  0  0  0  0  0
   -2.7100    1.1993   -0.0834 C   0  0  0  0  0  0  0  0  0  0  0  0
   -2.7847    2.1726    0.3809 H   0  0  0  0  0  0  0  0  0  0  0  0
   -1.5573    0.5055   -0.3155 N   0  0  0  0  0  0  0  0  0  0  0  0
   -0.6176    0.8211   -0.0781 H   0  0  0  0  0  0  0  0  0  0  0  0
   -1.8363   -0.7230   -0.9351 C   0  0  0  0  0  0  0  0  0  0  0  0
   -1.1303   -1.4782   -1.2371 H   0  0  0  0  0  0  0  0  0  0  0  0
   -3.7630    0.4680   -0.5322 N   0  0  0  0  0  0  0  0  0  0  0  0
  1  2  3  0  0  0  0
  3  8  2  0  0  0  0
  3 10  1  0  0  0  0
  4  5  1  0  0  0  0
  6  4  1  0  0  0  0
  6  7  1  0  0  0  0
  8  6  1  0  0  0  0
  9  8  1  0  0  0  0
 10  4  2  0  0  0  0
M  RAD  1   3   2
M  END
