Coordinates from ORCA-job Imidazole-4-N2+-scan-d09-160-n800
 OpenBabel09191814123D

 10  9  0  0  0  0  0  0  0  0999 V2000
    9.4794    6.5834    3.6078 N   0  0  0  0  0  0  0  0  0  0  0  0
   10.3517    7.1591    3.9680 N   0  0  0  0  0  0  0  0  0  0  0  0
   -4.4820   -1.2148   -1.4082 C   0  0  0  0  0  0  0  0  0  0  0  0
   -3.9772    0.5022   -0.5340 C   0  0  0  0  0  0  0  0  0  0  0  0
   -4.0299    1.4762   -0.0681 H   0  0  0  0  0  0  0  0  0  0  0  0
   -2.8392   -0.2119   -0.7782 N   0  0  0  0  0  0  0  0  0  0  0  0
   -1.8915    0.0864   -0.5501 H   0  0  0  0  0  0  0  0  0  0  0  0
   -3.1457   -1.4348   -1.3962 C   0  0  0  0  0  0  0  0  0  0  0  0
   -2.4562   -2.2021   -1.7058 H   0  0  0  0  0  0  0  0  0  0  0  0
   -5.0476   -0.2101   -0.9730 N   0  0  0  0  0  0  0  0  0  0  0  0
  1  2  3  0  0  0  0
  3  8  2  0  0  0  0
  3 10  1  0  0  0  0
  4  5  1  0  0  0  0
  6  7  1  0  0  0  0
  6  4  1  0  0  0  0
  8  6  1  0  0  0  0
  9  8  1  0  0  0  0
 10  4  2  0  0  0  0
M  RAD  1   3   2
M  END
