Coordinates from ORCA-job Imidazole-4-N2+-scan-d09-160-n800
 OpenBabel09191814123D

 10  9  0  0  0  0  0  0  0  0999 V2000
    3.9542    3.5835    1.6639 N   0  0  0  0  0  0  0  0  0  0  0  0
    4.8650    4.1110    2.0019 N   0  0  0  0  0  0  0  0  0  0  0  0
   -3.0809   -0.4820   -0.9306 C   0  0  0  0  0  0  0  0  0  0  0  0
   -2.6258    1.2471   -0.0528 C   0  0  0  0  0  0  0  0  0  0  0  0
   -2.7063    2.2202    0.4109 H   0  0  0  0  0  0  0  0  0  0  0  0
   -1.4690    0.5589   -0.2818 N   0  0  0  0  0  0  0  0  0  0  0  0
   -0.5312    0.8792   -0.0423 H   0  0  0  0  0  0  0  0  0  0  0  0
   -1.7401   -0.6714   -0.9016 C   0  0  0  0  0  0  0  0  0  0  0  0
   -1.0295   -1.4231   -1.2015 H   0  0  0  0  0  0  0  0  0  0  0  0
   -3.6743    0.5102   -0.5039 N   0  0  0  0  0  0  0  0  0  0  0  0
  1  2  3  0  0  0  0
  3  8  2  0  0  0  0
  3 10  1  0  0  0  0
  4  5  1  0  0  0  0
  6  4  1  0  0  0  0
  6  7  1  0  0  0  0
  8  6  1  0  0  0  0
  9  8  1  0  0  0  0
 10  4  2  0  0  0  0
M  RAD  1   3   2
M  END
