Coordinates from ORCA-job Imidazole-4-N2+-scan-d09-160-n800
 OpenBabel09191814123D

 10  9  0  0  0  0  0  0  0  0999 V2000
    5.7731    4.5869    2.3116 N   0  0  0  0  0  0  0  0  0  0  0  0
    6.6835    5.1149    2.6500 N   0  0  0  0  0  0  0  0  0  0  0  0
   -3.5511   -0.7179   -1.0863 C   0  0  0  0  0  0  0  0  0  0  0  0
   -3.0646    1.0033   -0.2100 C   0  0  0  0  0  0  0  0  0  0  0  0
   -3.1276    1.9769    0.2554 H   0  0  0  0  0  0  0  0  0  0  0  0
   -1.9197    0.2985   -0.4482 N   0  0  0  0  0  0  0  0  0  0  0  0
   -0.9756    0.6046   -0.2154 H   0  0  0  0  0  0  0  0  0  0  0  0
   -2.2132   -0.9270   -1.0674 C   0  0  0  0  0  0  0  0  0  0  0  0
   -1.5158   -1.6887   -1.3734 H   0  0  0  0  0  0  0  0  0  0  0  0
   -4.1270    0.2822   -0.6541 N   0  0  0  0  0  0  0  0  0  0  0  0
  1  2  3  0  0  0  0
  3  8  2  0  0  0  0
  3 10  1  0  0  0  0
  4  5  1  0  0  0  0
  6  7  1  0  0  0  0
  6  4  1  0  0  0  0
  8  6  1  0  0  0  0
  9  8  1  0  0  0  0
 10  4  2  0  0  0  0
M  RAD  1   3   2
M  END
