Coordinates from ORCA-job Imidazole-4-N2+-scan-d09-160-n800
 OpenBabel09191814123D

 10  9  0  0  0  0  0  0  0  0999 V2000
    8.9639    6.3120    3.4307 N   0  0  0  0  0  0  0  0  0  0  0  0
    9.8553    6.8644    3.7803 N   0  0  0  0  0  0  0  0  0  0  0  0
   -4.3543   -1.1450   -1.3633 C   0  0  0  0  0  0  0  0  0  0  0  0
   -3.8519    0.5724   -0.4888 C   0  0  0  0  0  0  0  0  0  0  0  0
   -3.9059    1.5464   -0.0229 H   0  0  0  0  0  0  0  0  0  0  0  0
   -2.7130   -0.1405   -0.7321 N   0  0  0  0  0  0  0  0  0  0  0  0
   -1.7658    0.1588   -0.5034 H   0  0  0  0  0  0  0  0  0  0  0  0
   -3.0179   -1.3637   -1.3503 C   0  0  0  0  0  0  0  0  0  0  0  0
   -2.3273   -2.1303   -1.6594 H   0  0  0  0  0  0  0  0  0  0  0  0
   -4.9212   -0.1409   -0.9284 N   0  0  0  0  0  0  0  0  0  0  0  0
  1  2  3  0  0  0  0
  3  8  2  0  0  0  0
  3 10  1  0  0  0  0
  4  5  1  0  0  0  0
  6  7  1  0  0  0  0
  6  4  1  0  0  0  0
  8  6  1  0  0  0  0
  9  8  1  0  0  0  0
 10  4  2  0  0  0  0
M  RAD  1   3   2
M  END
