Coordinates from ORCA-job Imidazole-4-N2+-scan-d09-160-n800
 OpenBabel09191814123D

 10  9  0  0  0  0  0  0  0  0999 V2000
    8.5962    6.1203    3.3055 N   0  0  0  0  0  0  0  0  0  0  0  0
    9.4997    6.6575    3.6478 N   0  0  0  0  0  0  0  0  0  0  0  0
   -4.2636   -1.0960   -1.3320 C   0  0  0  0  0  0  0  0  0  0  0  0
   -3.7619    0.6219   -0.4568 C   0  0  0  0  0  0  0  0  0  0  0  0
   -3.8169    1.5957    0.0091 H   0  0  0  0  0  0  0  0  0  0  0  0
   -2.6227   -0.0903   -0.6995 N   0  0  0  0  0  0  0  0  0  0  0  0
   -1.6759    0.2096   -0.4701 H   0  0  0  0  0  0  0  0  0  0  0  0
   -2.9268   -1.3135   -1.3179 C   0  0  0  0  0  0  0  0  0  0  0  0
   -2.2358   -2.0798   -1.6268 H   0  0  0  0  0  0  0  0  0  0  0  0
   -4.8304   -0.0918   -0.8971 N   0  0  0  0  0  0  0  0  0  0  0  0
  1  2  3  0  0  0  0
  3  8  2  0  0  0  0
  3 10  1  0  0  0  0
  4  5  1  0  0  0  0
  6  7  1  0  0  0  0
  6  4  1  0  0  0  0
  8  6  1  0  0  0  0
  9  8  1  0  0  0  0
 10  4  2  0  0  0  0
M  RAD  1   3   2
M  END
