Coordinates from ORCA-job Imidazole-4-N2+-scan-d09-160-n800
 OpenBabel09191814123D

 10  9  0  0  0  0  0  0  0  0999 V2000
    3.2786    3.2009    1.4190 N   0  0  0  0  0  0  0  0  0  0  0  0
    4.1917    3.7254    1.7552 N   0  0  0  0  0  0  0  0  0  0  0  0
   -2.8960   -0.4024   -0.8754 C   0  0  0  0  0  0  0  0  0  0  0  0
   -2.4736    1.3352    0.0034 C   0  0  0  0  0  0  0  0  0  0  0  0
   -2.5730    2.3076    0.4649 H   0  0  0  0  0  0  0  0  0  0  0  0
   -1.3046    0.6651   -0.2159 N   0  0  0  0  0  0  0  0  0  0  0  0
   -0.3739    1.0011    0.0302 H   0  0  0  0  0  0  0  0  0  0  0  0
   -1.5523   -0.5699   -0.8358 C   0  0  0  0  0  0  0  0  0  0  0  0
   -0.8279   -1.3109   -1.1293 H   0  0  0  0  0  0  0  0  0  0  0  0
   -3.5069    0.5814   -0.4542 N   0  0  0  0  0  0  0  0  0  0  0  0
  1  2  3  0  0  0  0
  3  8  2  0  0  0  0
  3 10  1  0  0  0  0
  4  5  1  0  0  0  0
  6  4  1  0  0  0  0
  6  7  1  0  0  0  0
  8  6  1  0  0  0  0
  9  8  1  0  0  0  0
 10  4  2  0  0  0  0
M  RAD  1   3   2
M  END
