Coordinates from ORCA-job Imidazole-4-N2+-scan-d09-160-n800
 OpenBabel09191814123D

 10 10  0  0  0  0  0  0  0  0999 V2000
    1.1859    0.7659    0.1091 N   0  0  0  0  0  0  0  0  0  0  0  0
    2.3110    0.6545    0.1841 N   0  0  0  0  0  0  0  0  0  0  0  0
    0.0719    0.8463    0.0215 C   0  0  0  0  0  0  0  0  0  0  0  0
   -1.9389    0.2624   -0.4603 C   0  0  0  0  0  0  0  0  0  0  0  0
   -2.8274   -0.2607   -0.7909 H   0  0  0  0  0  0  0  0  0  0  0  0
   -1.9973    1.5433    0.1016 N   0  0  0  0  0  0  0  0  0  0  0  0
   -2.8399    2.0928    0.2521 H   0  0  0  0  0  0  0  0  0  0  0  0
   -0.7619    1.9321    0.4107 C   0  0  0  0  0  0  0  0  0  0  0  0
   -0.5134    2.8847    0.8607 H   0  0  0  0  0  0  0  0  0  0  0  0
   -0.7279   -0.1878   -0.5263 N   0  0  0  0  0  0  0  0  0  0  0  0
  1  2  1  0  0  0  0
  3  1  1  0  0  0  0
  3  8  2  0  0  0  0
  4  6  1  0  0  0  0
  5  4  1  0  0  0  0
  6  7  1  0  0  0  0
  6  8  1  0  0  0  0
  8  9  1  0  0  0  0
 10  4  2  0  0  0  0
 10  3  1  0  0  0  0
M  RAD  2   1   2   2   3
M  END
