Coordinates from ORCA-job Imidazole-4-N2+-scan-d09-160-n800
 OpenBabel09191814123D

 10  9  0  0  0  0  0  0  0  0999 V2000
    7.5040    5.5327    2.9241 N   0  0  0  0  0  0  0  0  0  0  0  0
    8.4153    6.0598    3.2615 N   0  0  0  0  0  0  0  0  0  0  0  0
   -3.9899   -0.9492   -1.2369 C   0  0  0  0  0  0  0  0  0  0  0  0
   -3.4914    0.7693   -0.3613 C   0  0  0  0  0  0  0  0  0  0  0  0
   -3.5481    1.7431    0.1046 H   0  0  0  0  0  0  0  0  0  0  0  0
   -2.3510    0.0587   -0.6030 N   0  0  0  0  0  0  0  0  0  0  0  0
   -1.4048    0.3599   -0.3727 H   0  0  0  0  0  0  0  0  0  0  0  0
   -2.6529   -1.1648   -1.2217 C   0  0  0  0  0  0  0  0  0  0  0  0
   -1.9606   -1.9302   -1.5299 H   0  0  0  0  0  0  0  0  0  0  0  0
   -4.5585    0.0542   -0.8026 N   0  0  0  0  0  0  0  0  0  0  0  0
  1  2  3  0  0  0  0
  3  8  2  0  0  0  0
  3 10  1  0  0  0  0
  4  5  1  0  0  0  0
  6  7  1  0  0  0  0
  6  4  1  0  0  0  0
  8  6  1  0  0  0  0
  9  8  1  0  0  0  0
 10  4  2  0  0  0  0
M  RAD  1   3   2
M  END
