Coordinates from ORCA-job Imidazole-4-N2+-scan-d09-160-n800
 OpenBabel09191814123D

 10  9  0  0  0  0  0  0  0  0999 V2000
    4.2206    3.7320    1.7595 N   0  0  0  0  0  0  0  0  0  0  0  0
    5.1311    4.2598    2.0977 N   0  0  0  0  0  0  0  0  0  0  0  0
   -3.1514   -0.5153   -0.9531 C   0  0  0  0  0  0  0  0  0  0  0  0
   -2.6884    1.2118   -0.0755 C   0  0  0  0  0  0  0  0  0  0  0  0
   -2.7644    2.1850    0.3887 H   0  0  0  0  0  0  0  0  0  0  0  0
   -1.5345    0.5193   -0.3068 N   0  0  0  0  0  0  0  0  0  0  0  0
   -0.5952    0.8359   -0.0689 H   0  0  0  0  0  0  0  0  0  0  0  0
   -1.8114   -0.7098   -0.9265 C   0  0  0  0  0  0  0  0  0  0  0  0
   -1.1041   -1.4641   -1.2280 H   0  0  0  0  0  0  0  0  0  0  0  0
   -3.7404    0.4789   -0.5249 N   0  0  0  0  0  0  0  0  0  0  0  0
  1  2  3  0  0  0  0
  3  8  2  0  0  0  0
  3 10  1  0  0  0  0
  4  5  1  0  0  0  0
  6  4  1  0  0  0  0
  6  7  1  0  0  0  0
  8  6  1  0  0  0  0
  9  8  1  0  0  0  0
 10  4  2  0  0  0  0
M  RAD  1   3   2
M  END
