Coordinates from ORCA-job Imidazole-4-N2+-scan-d09-160-n800
 OpenBabel09191814123D

 10 10  0  0  0  0  0  0  0  0999 V2000
    1.5127    0.7274    0.1279 N   0  0  0  0  0  0  0  0  0  0  0  0
    2.6107    0.6052    0.1951 N   0  0  0  0  0  0  0  0  0  0  0  0
   -0.0987    0.8530    0.0054 C   0  0  0  0  0  0  0  0  0  0  0  0
   -2.0171    0.2834   -0.4595 C   0  0  0  0  0  0  0  0  0  0  0  0
   -2.8910   -0.2570   -0.7961 H   0  0  0  0  0  0  0  0  0  0  0  0
   -2.0787    1.5429    0.0919 N   0  0  0  0  0  0  0  0  0  0  0  0
   -2.9228    2.0875    0.2397 H   0  0  0  0  0  0  0  0  0  0  0  0
   -0.8155    1.9523    0.4142 C   0  0  0  0  0  0  0  0  0  0  0  0
   -0.5627    2.9003    0.8629 H   0  0  0  0  0  0  0  0  0  0  0  0
   -0.7750   -0.1613   -0.5195 N   0  0  0  0  0  0  0  0  0  0  0  0
  1  2  1  0  0  0  0
  3  1  1  0  0  0  0
  3  8  2  0  0  0  0
  4  6  1  0  0  0  0
  5  4  1  0  0  0  0
  6  7  1  0  0  0  0
  6  8  1  0  0  0  0
  8  9  1  0  0  0  0
 10  4  2  0  0  0  0
 10  3  1  0  0  0  0
M  RAD  2   1   2   2   3
M  END
