Coordinates from ORCA-job Imidazole-4-N2+-scan-d09-160-n800
 OpenBabel09191814123D

 10  9  0  0  0  0  0  0  0  0999 V2000
    6.9935    5.2548    2.7439 N   0  0  0  0  0  0  0  0  0  0  0  0
    7.9047    5.7818    3.0816 N   0  0  0  0  0  0  0  0  0  0  0  0
   -3.8608   -0.8811   -1.1925 C   0  0  0  0  0  0  0  0  0  0  0  0
   -3.3653    0.8382   -0.3167 C   0  0  0  0  0  0  0  0  0  0  0  0
   -3.4237    1.8119    0.1490 H   0  0  0  0  0  0  0  0  0  0  0  0
   -2.2237    0.1291   -0.5575 N   0  0  0  0  0  0  0  0  0  0  0  0
   -1.2782    0.4316   -0.3266 H   0  0  0  0  0  0  0  0  0  0  0  0
   -2.5235   -1.0949   -1.1763 C   0  0  0  0  0  0  0  0  0  0  0  0
   -1.8299   -1.8594   -1.4840 H   0  0  0  0  0  0  0  0  0  0  0  0
   -4.4311    0.1215   -0.7587 N   0  0  0  0  0  0  0  0  0  0  0  0
  1  2  3  0  0  0  0
  3  8  2  0  0  0  0
  3 10  1  0  0  0  0
  4  5  1  0  0  0  0
  6  7  1  0  0  0  0
  6  4  1  0  0  0  0
  8  6  1  0  0  0  0
  9  8  1  0  0  0  0
 10  4  2  0  0  0  0
M  RAD  1   3   2
M  END
