Coordinates from ORCA-job Imidazole-4-N2+-scan-d09-160-n800
 OpenBabel09191814123D

 10  9  0  0  0  0  0  0  0  0999 V2000
    5.1834    4.2635    2.1024 N   0  0  0  0  0  0  0  0  0  0  0  0
    6.0937    4.7915    2.4409 N   0  0  0  0  0  0  0  0  0  0  0  0
   -3.4007   -0.6399   -1.0354 C   0  0  0  0  0  0  0  0  0  0  0  0
   -2.9203    1.0828   -0.1586 C   0  0  0  0  0  0  0  0  0  0  0  0
   -2.9866    2.0563    0.3065 H   0  0  0  0  0  0  0  0  0  0  0  0
   -1.7730    0.3811   -0.3950 N   0  0  0  0  0  0  0  0  0  0  0  0
   -0.8301    0.6899   -0.1608 H   0  0  0  0  0  0  0  0  0  0  0  0
   -2.0622   -0.8453   -1.0144 C   0  0  0  0  0  0  0  0  0  0  0  0
   -1.3622   -1.6051   -1.3192 H   0  0  0  0  0  0  0  0  0  0  0  0
   -3.9800    0.3587   -0.6042 N   0  0  0  0  0  0  0  0  0  0  0  0
  1  2  3  0  0  0  0
  3  8  2  0  0  0  0
  3 10  1  0  0  0  0
  4  5  1  0  0  0  0
  6  7  1  0  0  0  0
  6  4  1  0  0  0  0
  8  6  1  0  0  0  0
  9  8  1  0  0  0  0
 10  4  2  0  0  0  0
M  RAD  1   3   2
M  END
