Coordinates from ORCA-job Imidazole-4-N2+-scan-d09-160-n800
 OpenBabel09191814123D

 10  9  0  0  0  0  0  0  0  0999 V2000
    5.5178    4.4475    2.2214 N   0  0  0  0  0  0  0  0  0  0  0  0
    6.4285    4.9750    2.5596 N   0  0  0  0  0  0  0  0  0  0  0  0
   -3.4866   -0.6843   -1.0644 C   0  0  0  0  0  0  0  0  0  0  0  0
   -3.0017    1.0376   -0.1877 C   0  0  0  0  0  0  0  0  0  0  0  0
   -3.0661    2.0112    0.2775 H   0  0  0  0  0  0  0  0  0  0  0  0
   -1.8561    0.3340   -0.4253 N   0  0  0  0  0  0  0  0  0  0  0  0
   -0.9126    0.6413   -0.1919 H   0  0  0  0  0  0  0  0  0  0  0  0
   -2.1482   -0.8916   -1.0445 C   0  0  0  0  0  0  0  0  0  0  0  0
   -1.4501   -1.6527   -1.3501 H   0  0  0  0  0  0  0  0  0  0  0  0
   -4.0628    0.3156   -0.6324 N   0  0  0  0  0  0  0  0  0  0  0  0
  1  2  3  0  0  0  0
  3  8  2  0  0  0  0
  3 10  1  0  0  0  0
  4  5  1  0  0  0  0
  6  7  1  0  0  0  0
  6  4  1  0  0  0  0
  8  6  1  0  0  0  0
  9  8  1  0  0  0  0
 10  4  2  0  0  0  0
M  RAD  1   3   2
M  END
