Coordinates from ORCA-job Imidazole-4-N2+-scan-d09-160-n800
 OpenBabel09191814123D

 10  9  0  0  0  0  0  0  0  0999 V2000
    8.1756    5.8988    3.1612 N   0  0  0  0  0  0  0  0  0  0  0  0
    9.0876    6.4250    3.4981 N   0  0  0  0  0  0  0  0  0  0  0  0
   -4.1592   -1.0393   -1.2956 C   0  0  0  0  0  0  0  0  0  0  0  0
   -3.6581    0.6785   -0.4201 C   0  0  0  0  0  0  0  0  0  0  0  0
   -3.7133    1.6523    0.0459 H   0  0  0  0  0  0  0  0  0  0  0  0
   -2.5187   -0.0335   -0.6626 N   0  0  0  0  0  0  0  0  0  0  0  0
   -1.5720    0.2666   -0.4329 H   0  0  0  0  0  0  0  0  0  0  0  0
   -2.8224   -1.2566   -1.2812 C   0  0  0  0  0  0  0  0  0  0  0  0
   -2.1312   -2.0228   -1.5899 H   0  0  0  0  0  0  0  0  0  0  0  0
   -4.7263   -0.0354   -0.8608 N   0  0  0  0  0  0  0  0  0  0  0  0
  1  2  3  0  0  0  0
  3  8  2  0  0  0  0
  3 10  1  0  0  0  0
  4  5  1  0  0  0  0
  6  7  1  0  0  0  0
  6  4  1  0  0  0  0
  8  6  1  0  0  0  0
  9  8  1  0  0  0  0
 10  4  2  0  0  0  0
M  RAD  1   3   2
M  END
