Coordinates from ORCA-job Imidazole-4-N2+-scan-d09-160-n800
 OpenBabel09191814123D

 10  9  0  0  0  0  0  0  0  0999 V2000
    2.6104    2.8116    1.1717 N   0  0  0  0  0  0  0  0  0  0  0  0
    3.5286    3.3292    1.5040 N   0  0  0  0  0  0  0  0  0  0  0  0
   -2.7038   -0.3289   -0.8226 C   0  0  0  0  0  0  0  0  0  0  0  0
   -2.3326    1.4207    0.0573 C   0  0  0  0  0  0  0  0  0  0  0  0
   -2.4609    2.3913    0.5154 H   0  0  0  0  0  0  0  0  0  0  0  0
   -1.1449    0.7791   -0.1466 N   0  0  0  0  0  0  0  0  0  0  0  0
   -0.2250    1.1394    0.1103 H   0  0  0  0  0  0  0  0  0  0  0  0
   -1.3563   -0.4629   -0.7666 C   0  0  0  0  0  0  0  0  0  0  0  0
   -0.6109   -1.1868   -1.0499 H   0  0  0  0  0  0  0  0  0  0  0  0
   -3.3425    0.6410   -0.4106 N   0  0  0  0  0  0  0  0  0  0  0  0
  1  2  3  0  0  0  0
  3  8  2  0  0  0  0
  3 10  1  0  0  0  0
  4  5  1  0  0  0  0
  6  4  1  0  0  0  0
  6  7  1  0  0  0  0
  8  6  1  0  0  0  0
  9  8  1  0  0  0  0
 10  4  2  0  0  0  0
M  RAD  1   3   2
M  END
