Coordinates from ORCA-job Imidazole-4-N2+-scan-d09-160-n800
 OpenBabel09191814123D

 10  9  0  0  0  0  0  0  0  0999 V2000
    3.4631    3.3066    1.4865 N   0  0  0  0  0  0  0  0  0  0  0  0
    4.3752    3.8324    1.8233 N   0  0  0  0  0  0  0  0  0  0  0  0
   -2.9478   -0.4234   -0.8902 C   0  0  0  0  0  0  0  0  0  0  0  0
   -2.5138    1.3114   -0.0117 C   0  0  0  0  0  0  0  0  0  0  0  0
   -2.6067    2.2841    0.4506 H   0  0  0  0  0  0  0  0  0  0  0  0
   -1.3491    0.6350   -0.2344 N   0  0  0  0  0  0  0  0  0  0  0  0
   -0.4160    0.9656    0.0094 H   0  0  0  0  0  0  0  0  0  0  0  0
   -1.6050   -0.5984   -0.8542 C   0  0  0  0  0  0  0  0  0  0  0  0
   -0.8855   -1.3432   -1.1500 H   0  0  0  0  0  0  0  0  0  0  0  0
   -3.5524    0.5635   -0.4670 N   0  0  0  0  0  0  0  0  0  0  0  0
  1  2  3  0  0  0  0
  3  8  2  0  0  0  0
  3 10  1  0  0  0  0
  4  5  1  0  0  0  0
  6  4  1  0  0  0  0
  6  7  1  0  0  0  0
  8  6  1  0  0  0  0
  9  8  1  0  0  0  0
 10  4  2  0  0  0  0
M  RAD  1   3   2
M  END
