Coordinates from ORCA-job Imidazole-4-N2+-scan-d09-160-n800
 OpenBabel09191814123D

 10  9  0  0  0  0  0  0  0  0999 V2000
    3.7229    0.7138    0.3667 N   0  0  0  0  0  0  0  0  0  0  0  0
    4.8219    0.6309    0.4513 N   0  0  0  0  0  0  0  0  0  0  0  0
   -0.7911    0.6597   -0.1567 C   0  0  0  0  0  0  0  0  0  0  0  0
   -2.7295    0.3703   -0.5001 C   0  0  0  0  0  0  0  0  0  0  0  0
   -3.6680   -0.0736   -0.8011 H   0  0  0  0  0  0  0  0  0  0  0  0
   -2.5688    1.6028    0.0645 N   0  0  0  0  0  0  0  0  0  0  0  0
   -3.3177    2.2618    0.2737 H   0  0  0  0  0  0  0  0  0  0  0  0
   -1.2120    1.8526    0.3258 C   0  0  0  0  0  0  0  0  0  0  0  0
   -0.7825    2.7369    0.7657 H   0  0  0  0  0  0  0  0  0  0  0  0
   -1.5133   -0.2215   -0.6277 N   0  0  0  0  0  0  0  0  0  0  0  0
  1  2  3  0  0  0  0
  3  8  2  0  0  0  0
  4  6  1  0  0  0  0
  5  4  1  0  0  0  0
  6  7  1  0  0  0  0
  6  8  1  0  0  0  0
  8  9  1  0  0  0  0
 10  4  2  0  0  0  0
 10  3  1  0  0  0  0
M  RAD  1   3   2
M  END
