Coordinates from ORCA-job Imidazole-4-N2+-scan-d09-160-n800
 OpenBabel09191814123D

 10  9  0  0  0  0  0  0  0  0999 V2000
    4.1693    0.8105    0.4591 N   0  0  0  0  0  0  0  0  0  0  0  0
    5.2691    0.7588    0.5576 N   0  0  0  0  0  0  0  0  0  0  0  0
   -0.9601    0.5140   -0.2401 C   0  0  0  0  0  0  0  0  0  0  0  0
   -2.9290    0.4129   -0.5032 C   0  0  0  0  0  0  0  0  0  0  0  0
   -3.9172    0.0634   -0.7678 H   0  0  0  0  0  0  0  0  0  0  0  0
   -2.6285    1.6175    0.0644 N   0  0  0  0  0  0  0  0  0  0  0  0
   -3.3022    2.3415    0.3109 H   0  0  0  0  0  0  0  0  0  0  0  0
   -1.2439    1.7354    0.2702 C   0  0  0  0  0  0  0  0  0  0  0  0
   -0.7148    2.5698    0.6989 H   0  0  0  0  0  0  0  0  0  0  0  0
   -1.7808   -0.2903   -0.6878 N   0  0  0  0  0  0  0  0  0  0  0  0
  1  2  3  0  0  0  0
  3  8  2  0  0  0  0
  4  6  1  0  0  0  0
  5  4  1  0  0  0  0
  6  8  1  0  0  0  0
  6  7  1  0  0  0  0
  8  9  1  0  0  0  0
 10  4  2  0  0  0  0
 10  3  1  0  0  0  0
M  RAD  1   3   2
M  END
