Coordinates from ORCA-job Imidazole-4-N2+-scan-d09-160-n800
 OpenBabel09191814123D

 10  9  0  0  0  0  0  0  0  0999 V2000
    5.1694    4.2562    2.0977 N   0  0  0  0  0  0  0  0  0  0  0  0
    6.0800    4.7839    2.4360 N   0  0  0  0  0  0  0  0  0  0  0  0
   -3.3976   -0.6383   -1.0343 C   0  0  0  0  0  0  0  0  0  0  0  0
   -2.9165    1.0846   -0.1574 C   0  0  0  0  0  0  0  0  0  0  0  0
   -2.9830    2.0581    0.3077 H   0  0  0  0  0  0  0  0  0  0  0  0
   -1.7695    0.3830   -0.3938 N   0  0  0  0  0  0  0  0  0  0  0  0
   -0.8267    0.6919   -0.1596 H   0  0  0  0  0  0  0  0  0  0  0  0
   -2.0589   -0.8432   -1.0132 C   0  0  0  0  0  0  0  0  0  0  0  0
   -1.3592   -1.6032   -1.3180 H   0  0  0  0  0  0  0  0  0  0  0  0
   -3.9760    0.3607   -0.6029 N   0  0  0  0  0  0  0  0  0  0  0  0
  1  2  3  0  0  0  0
  3  8  2  0  0  0  0
  3 10  1  0  0  0  0
  4  5  1  0  0  0  0
  6  7  1  0  0  0  0
  6  4  1  0  0  0  0
  8  6  1  0  0  0  0
  9  8  1  0  0  0  0
 10  4  2  0  0  0  0
M  RAD  1   3   2
M  END
