Coordinates from ORCA-job Imidazole-4-N2+-scan-d09-160-n800
 OpenBabel09191814123D

 10  9  0  0  0  0  0  0  0  0999 V2000
    5.0890    4.2121    2.0692 N   0  0  0  0  0  0  0  0  0  0  0  0
    5.9996    4.7397    2.4074 N   0  0  0  0  0  0  0  0  0  0  0  0
   -3.3770   -0.6277   -1.0274 C   0  0  0  0  0  0  0  0  0  0  0  0
   -2.8969    1.0954   -0.1504 C   0  0  0  0  0  0  0  0  0  0  0  0
   -2.9640    2.0689    0.3146 H   0  0  0  0  0  0  0  0  0  0  0  0
   -1.7495    0.3943   -0.3865 N   0  0  0  0  0  0  0  0  0  0  0  0
   -0.8070    0.7037   -0.1521 H   0  0  0  0  0  0  0  0  0  0  0  0
   -2.0382   -0.8320   -1.0059 C   0  0  0  0  0  0  0  0  0  0  0  0
   -1.3381   -1.5917   -1.3105 H   0  0  0  0  0  0  0  0  0  0  0  0
   -3.9560    0.3710   -0.5962 N   0  0  0  0  0  0  0  0  0  0  0  0
  1  2  3  0  0  0  0
  3  8  2  0  0  0  0
  3 10  1  0  0  0  0
  4  5  1  0  0  0  0
  6  7  1  0  0  0  0
  6  4  1  0  0  0  0
  8  6  1  0  0  0  0
  9  8  1  0  0  0  0
 10  4  2  0  0  0  0
M  RAD  1   3   2
M  END
