Coordinates from ORCA-job Imidazole-4-N2+-scan-d09-160-n800
 OpenBabel09191814123D

 10  9  0  0  0  0  0  0  0  0999 V2000
    3.0027    3.0419    1.3178 N   0  0  0  0  0  0  0  0  0  0  0  0
    3.9180    3.5634    1.6523 N   0  0  0  0  0  0  0  0  0  0  0  0
   -2.8172   -0.3716   -0.8532 C   0  0  0  0  0  0  0  0  0  0  0  0
   -2.4149    1.3707    0.0257 C   0  0  0  0  0  0  0  0  0  0  0  0
   -2.5252    2.3425    0.4860 H   0  0  0  0  0  0  0  0  0  0  0  0
   -1.2386    0.7113   -0.1878 N   0  0  0  0  0  0  0  0  0  0  0  0
   -0.3118    1.0563    0.0621 H   0  0  0  0  0  0  0  0  0  0  0  0
   -1.4721   -0.5267   -0.8077 C   0  0  0  0  0  0  0  0  0  0  0  0
   -0.7395   -1.2611   -1.0973 H   0  0  0  0  0  0  0  0  0  0  0  0
   -3.4395    0.6067   -0.4357 N   0  0  0  0  0  0  0  0  0  0  0  0
  1  2  3  0  0  0  0
  3  8  2  0  0  0  0
  3 10  1  0  0  0  0
  4  5  1  0  0  0  0
  6  4  1  0  0  0  0
  6  7  1  0  0  0  0
  8  6  1  0  0  0  0
  9  8  1  0  0  0  0
 10  4  2  0  0  0  0
M  RAD  1   3   2
M  END
