Coordinates from ORCA-job Imidazole-4-N2+-scan-d09-160-n800
 OpenBabel09191814123D

 10  9  0  0  0  0  0  0  0  0999 V2000
    5.6658    4.5283    2.2737 N   0  0  0  0  0  0  0  0  0  0  0  0
    6.5763    5.0561    2.6120 N   0  0  0  0  0  0  0  0  0  0  0  0
   -3.5238   -0.7037   -1.0770 C   0  0  0  0  0  0  0  0  0  0  0  0
   -3.0383    1.0177   -0.2006 C   0  0  0  0  0  0  0  0  0  0  0  0
   -3.1019    1.9913    0.2647 H   0  0  0  0  0  0  0  0  0  0  0  0
   -1.8930    0.3134   -0.4386 N   0  0  0  0  0  0  0  0  0  0  0  0
   -0.9491    0.6200   -0.2055 H   0  0  0  0  0  0  0  0  0  0  0  0
   -2.1857   -0.9122   -1.0578 C   0  0  0  0  0  0  0  0  0  0  0  0
   -1.4880   -1.6736   -1.3636 H   0  0  0  0  0  0  0  0  0  0  0  0
   -4.1002    0.2962   -0.6450 N   0  0  0  0  0  0  0  0  0  0  0  0
  1  2  3  0  0  0  0
  3  8  2  0  0  0  0
  3 10  1  0  0  0  0
  4  5  1  0  0  0  0
  6  7  1  0  0  0  0
  6  4  1  0  0  0  0
  8  6  1  0  0  0  0
  9  8  1  0  0  0  0
 10  4  2  0  0  0  0
M  RAD  1   3   2
M  END
