Coordinates from ORCA-job Imidazole-4-N2+-scan-d09-160-n800
 OpenBabel09191814123D

 10  9  0  0  0  0  0  0  0  0999 V2000
    6.3096    4.8809    2.5017 N   0  0  0  0  0  0  0  0  0  0  0  0
    7.2202    5.4084    2.8400 N   0  0  0  0  0  0  0  0  0  0  0  0
   -3.6870   -0.7897   -1.1330 C   0  0  0  0  0  0  0  0  0  0  0  0
   -3.1970    0.9306   -0.2570 C   0  0  0  0  0  0  0  0  0  0  0  0
   -3.2580    1.9043    0.2086 H   0  0  0  0  0  0  0  0  0  0  0  0
   -2.0534    0.2240   -0.4963 N   0  0  0  0  0  0  0  0  0  0  0  0
   -1.1086    0.5286   -0.2643 H   0  0  0  0  0  0  0  0  0  0  0  0
   -2.3494   -1.0010   -1.1153 C   0  0  0  0  0  0  0  0  0  0  0  0
   -1.6535   -1.7638   -1.4220 H   0  0  0  0  0  0  0  0  0  0  0  0
   -4.2609    0.2113   -0.7002 N   0  0  0  0  0  0  0  0  0  0  0  0
  1  2  3  0  0  0  0
  3  8  2  0  0  0  0
  3 10  1  0  0  0  0
  4  5  1  0  0  0  0
  6  7  1  0  0  0  0
  6  4  1  0  0  0  0
  8  6  1  0  0  0  0
  9  8  1  0  0  0  0
 10  4  2  0  0  0  0
M  RAD  1   3   2
M  END
