Coordinates from ORCA-job Imidazole-4-N2+-scan-d09-160-n800
 OpenBabel09191814123D

 10  9  0  0  0  0  0  0  0  0999 V2000
    1.8644    0.7055    0.1572 N   0  0  0  0  0  0  0  0  0  0  0  0
    2.9576    0.5651    0.2159 N   0  0  0  0  0  0  0  0  0  0  0  0
   -0.2455    0.8464   -0.0137 C   0  0  0  0  0  0  0  0  0  0  0  0
   -2.1195    0.2976   -0.4645 C   0  0  0  0  0  0  0  0  0  0  0  0
   -2.9804   -0.2589   -0.8068 H   0  0  0  0  0  0  0  0  0  0  0  0
   -2.1676    1.5475    0.0842 N   0  0  0  0  0  0  0  0  0  0  0  0
   -3.0087    2.0986    0.2353 H   0  0  0  0  0  0  0  0  0  0  0  0
   -0.8816    1.9666    0.4131 C   0  0  0  0  0  0  0  0  0  0  0  0
   -0.6075    2.9068    0.8607 H   0  0  0  0  0  0  0  0  0  0  0  0
   -0.8491   -0.1417   -0.5191 N   0  0  0  0  0  0  0  0  0  0  0  0
  1  2  3  0  0  0  0
  3  8  2  0  0  0  0
  4  6  1  0  0  0  0
  5  4  1  0  0  0  0
  6  7  1  0  0  0  0
  6  8  1  0  0  0  0
  8  9  1  0  0  0  0
 10  4  2  0  0  0  0
 10  3  1  0  0  0  0
M  RAD  1   3   2
M  END
