Coordinates from ORCA-job Imidazole-4-N2+-scan-d09-160-n800
 OpenBabel09191814123D

 10  9  0  0  0  0  0  0  0  0999 V2000
    8.7051    6.1770    3.3425 N   0  0  0  0  0  0  0  0  0  0  0  0
    9.6052    6.7185    3.6869 N   0  0  0  0  0  0  0  0  0  0  0  0
   -4.2905   -1.1106   -1.3413 C   0  0  0  0  0  0  0  0  0  0  0  0
   -3.7885    0.6072   -0.4663 C   0  0  0  0  0  0  0  0  0  0  0  0
   -3.8433    1.5811   -0.0004 H   0  0  0  0  0  0  0  0  0  0  0  0
   -2.6494   -0.1051   -0.7091 N   0  0  0  0  0  0  0  0  0  0  0  0
   -1.7026    0.1947   -0.4799 H   0  0  0  0  0  0  0  0  0  0  0  0
   -2.9538   -1.3282   -1.3275 C   0  0  0  0  0  0  0  0  0  0  0  0
   -2.2629   -2.0946   -1.6364 H   0  0  0  0  0  0  0  0  0  0  0  0
   -4.8572   -0.1064   -0.9064 N   0  0  0  0  0  0  0  0  0  0  0  0
  1  2  3  0  0  0  0
  3  8  2  0  0  0  0
  3 10  1  0  0  0  0
  4  5  1  0  0  0  0
  6  7  1  0  0  0  0
  6  4  1  0  0  0  0
  8  6  1  0  0  0  0
  9  8  1  0  0  0  0
 10  4  2  0  0  0  0
M  RAD  1   3   2
M  END
