Coordinates from ORCA-job Imidazole-4-N2+-scan-d09-160-n800
 OpenBabel09191814123D

 10  9  0  0  0  0  0  0  0  0999 V2000
    5.7592    4.5797    2.3069 N   0  0  0  0  0  0  0  0  0  0  0  0
    6.6698    5.1073    2.6451 N   0  0  0  0  0  0  0  0  0  0  0  0
   -3.5481   -0.7163   -1.0853 C   0  0  0  0  0  0  0  0  0  0  0  0
   -3.0609    1.0051   -0.2088 C   0  0  0  0  0  0  0  0  0  0  0  0
   -3.1239    1.9787    0.2566 H   0  0  0  0  0  0  0  0  0  0  0  0
   -1.9161    0.3003   -0.4470 N   0  0  0  0  0  0  0  0  0  0  0  0
   -0.9722    0.6065   -0.2142 H   0  0  0  0  0  0  0  0  0  0  0  0
   -2.2099   -0.9250   -1.0662 C   0  0  0  0  0  0  0  0  0  0  0  0
   -1.5128   -1.6868   -1.3722 H   0  0  0  0  0  0  0  0  0  0  0  0
   -4.1230    0.2842   -0.6528 N   0  0  0  0  0  0  0  0  0  0  0  0
  1  2  3  0  0  0  0
  3  8  2  0  0  0  0
  3 10  1  0  0  0  0
  4  5  1  0  0  0  0
  6  7  1  0  0  0  0
  6  4  1  0  0  0  0
  8  6  1  0  0  0  0
  9  8  1  0  0  0  0
 10  4  2  0  0  0  0
M  RAD  1   3   2
M  END
