Coordinates from ORCA-job Imidazole-4-N2+-scan-d09-160-n800
 OpenBabel09191814123D

 10  9  0  0  0  0  0  0  0  0999 V2000
    5.4109    4.3883    2.1831 N   0  0  0  0  0  0  0  0  0  0  0  0
    6.3210    4.9165    2.5217 N   0  0  0  0  0  0  0  0  0  0  0  0
   -3.4592   -0.6702   -1.0551 C   0  0  0  0  0  0  0  0  0  0  0  0
   -2.9755    1.0521   -0.1784 C   0  0  0  0  0  0  0  0  0  0  0  0
   -3.0405    2.0256    0.2868 H   0  0  0  0  0  0  0  0  0  0  0  0
   -1.8294    0.3491   -0.4156 N   0  0  0  0  0  0  0  0  0  0  0  0
   -0.8862    0.6569   -0.1819 H   0  0  0  0  0  0  0  0  0  0  0  0
   -2.1208   -0.8767   -1.0349 C   0  0  0  0  0  0  0  0  0  0  0  0
   -1.4221   -1.6375   -1.3402 H   0  0  0  0  0  0  0  0  0  0  0  0
   -4.0361    0.3295   -0.6233 N   0  0  0  0  0  0  0  0  0  0  0  0
  1  2  3  0  0  0  0
  3  8  2  0  0  0  0
  3 10  1  0  0  0  0
  4  5  1  0  0  0  0
  6  7  1  0  0  0  0
  6  4  1  0  0  0  0
  8  6  1  0  0  0  0
  9  8  1  0  0  0  0
 10  4  2  0  0  0  0
M  RAD  1   3   2
M  END
