Coordinates from ORCA-job Imidazole-4-N2+-scan-d09-160-n800
 OpenBabel09191814123D

 10  9  0  0  0  0  0  0  0  0999 V2000
    2.8080    0.6579    0.2406 N   0  0  0  0  0  0  0  0  0  0  0  0
    3.9043    0.5365    0.3080 N   0  0  0  0  0  0  0  0  0  0  0  0
   -0.5180    0.8038   -0.0627 C   0  0  0  0  0  0  0  0  0  0  0  0
   -2.4034    0.3263   -0.4835 C   0  0  0  0  0  0  0  0  0  0  0  0
   -3.2817   -0.2077   -0.8177 H   0  0  0  0  0  0  0  0  0  0  0  0
   -2.3871    1.5734    0.0716 N   0  0  0  0  0  0  0  0  0  0  0  0
   -3.2041    2.1583    0.2406 H   0  0  0  0  0  0  0  0  0  0  0  0
   -1.0732    1.9539    0.3860 C   0  0  0  0  0  0  0  0  0  0  0  0
   -0.7499    2.8790    0.8322 H   0  0  0  0  0  0  0  0  0  0  0  0
   -1.1329   -0.1478   -0.5530 N   0  0  0  0  0  0  0  0  0  0  0  0
  1  2  3  0  0  0  0
  3  8  2  0  0  0  0
  4  6  1  0  0  0  0
  5  4  1  0  0  0  0
  6  7  1  0  0  0  0
  6  8  1  0  0  0  0
  8  9  1  0  0  0  0
 10  4  2  0  0  0  0
 10  3  1  0  0  0  0
M  RAD  1   3   2
M  END
