Coordinates from ORCA-job Imidazole-4-N2+-scan-d09-160-n800
 OpenBabel09191814123D

 10  9  0  0  0  0  0  0  0  0999 V2000
    9.1400    6.4044    3.4910 N   0  0  0  0  0  0  0  0  0  0  0  0
   10.0252    6.9646    3.8442 N   0  0  0  0  0  0  0  0  0  0  0  0
   -4.3985   -1.1689   -1.3786 C   0  0  0  0  0  0  0  0  0  0  0  0
   -3.8943    0.5485   -0.5042 C   0  0  0  0  0  0  0  0  0  0  0  0
   -3.9478    1.5225   -0.0383 H   0  0  0  0  0  0  0  0  0  0  0  0
   -2.7560   -0.1649   -0.7479 N   0  0  0  0  0  0  0  0  0  0  0  0
   -1.8087    0.1341   -0.5195 H   0  0  0  0  0  0  0  0  0  0  0  0
   -3.0620   -1.3878   -1.3659 C   0  0  0  0  0  0  0  0  0  0  0  0
   -2.3720   -2.1548   -1.6753 H   0  0  0  0  0  0  0  0  0  0  0  0
   -4.9639   -0.1642   -0.9433 N   0  0  0  0  0  0  0  0  0  0  0  0
  1  2  3  0  0  0  0
  3  8  2  0  0  0  0
  3 10  1  0  0  0  0
  4  5  1  0  0  0  0
  6  7  1  0  0  0  0
  6  4  1  0  0  0  0
  8  6  1  0  0  0  0
  9  8  1  0  0  0  0
 10  4  2  0  0  0  0
M  RAD  1   3   2
M  END
