Coordinates from ORCA-job Imidazole-4-N2+-scan-d09-160-n800
 OpenBabel09191814123D

 10  9  0  0  0  0  0  0  0  0999 V2000
    7.2890    5.4158    2.8482 N   0  0  0  0  0  0  0  0  0  0  0  0
    8.2003    5.9428    3.1857 N   0  0  0  0  0  0  0  0  0  0  0  0
   -3.9356   -0.9205   -1.2182 C   0  0  0  0  0  0  0  0  0  0  0  0
   -3.4382    0.7983   -0.3425 C   0  0  0  0  0  0  0  0  0  0  0  0
   -3.4956    1.7721    0.1233 H   0  0  0  0  0  0  0  0  0  0  0  0
   -2.2974    0.0883   -0.5838 N   0  0  0  0  0  0  0  0  0  0  0  0
   -1.3515    0.3901   -0.3533 H   0  0  0  0  0  0  0  0  0  0  0  0
   -2.5984   -1.1354   -1.2026 C   0  0  0  0  0  0  0  0  0  0  0  0
   -1.9056   -1.9004   -1.5106 H   0  0  0  0  0  0  0  0  0  0  0  0
   -4.5048    0.0826   -0.7840 N   0  0  0  0  0  0  0  0  0  0  0  0
  1  2  3  0  0  0  0
  3  8  2  0  0  0  0
  3 10  1  0  0  0  0
  4  5  1  0  0  0  0
  6  7  1  0  0  0  0
  6  4  1  0  0  0  0
  8  6  1  0  0  0  0
  9  8  1  0  0  0  0
 10  4  2  0  0  0  0
M  RAD  1   3   2
M  END
