Coordinates from ORCA-job Imidazole-4-N2+-scan-d09-160-n800
 OpenBabel09191814123D

 10  9  0  0  0  0  0  0  0  0999 V2000
    1.9400    0.6997    0.1631 N   0  0  0  0  0  0  0  0  0  0  0  0
    3.0334    0.5597    0.2220 N   0  0  0  0  0  0  0  0  0  0  0  0
   -0.2696    0.8448   -0.0171 C   0  0  0  0  0  0  0  0  0  0  0  0
   -2.1418    0.2998   -0.4662 C   0  0  0  0  0  0  0  0  0  0  0  0
   -3.0023   -0.2572   -0.8086 H   0  0  0  0  0  0  0  0  0  0  0  0
   -2.1860    1.5491    0.0831 N   0  0  0  0  0  0  0  0  0  0  0  0
   -3.0260    2.1022    0.2354 H   0  0  0  0  0  0  0  0  0  0  0  0
   -0.8973    1.9679    0.4117 C   0  0  0  0  0  0  0  0  0  0  0  0
   -0.6197    2.9070    0.8591 H   0  0  0  0  0  0  0  0  0  0  0  0
   -0.8688   -0.1394   -0.5202 N   0  0  0  0  0  0  0  0  0  0  0  0
  1  2  3  0  0  0  0
  3  8  2  0  0  0  0
  4  6  1  0  0  0  0
  5  4  1  0  0  0  0
  6  7  1  0  0  0  0
  6  8  1  0  0  0  0
  8  9  1  0  0  0  0
 10  4  2  0  0  0  0
 10  3  1  0  0  0  0
M  RAD  1   3   2
M  END
