Coordinates from ORCA-job Imidazole-4-N2+-scan-d09-160-n800
 OpenBabel09191814123D

 10  9  0  0  0  0  0  0  0  0999 V2000
    5.3438    4.3522    2.1598 N   0  0  0  0  0  0  0  0  0  0  0  0
    6.2547    4.8794    2.4978 N   0  0  0  0  0  0  0  0  0  0  0  0
   -3.4419   -0.6610   -1.0492 C   0  0  0  0  0  0  0  0  0  0  0  0
   -2.9594    1.0612   -0.1726 C   0  0  0  0  0  0  0  0  0  0  0  0
   -3.0246    2.0347    0.2927 H   0  0  0  0  0  0  0  0  0  0  0  0
   -1.8129    0.3584   -0.4096 N   0  0  0  0  0  0  0  0  0  0  0  0
   -0.8696    0.6663   -0.1759 H   0  0  0  0  0  0  0  0  0  0  0  0
   -2.1036   -0.8677   -1.0290 C   0  0  0  0  0  0  0  0  0  0  0  0
   -1.4045   -1.6281   -1.3341 H   0  0  0  0  0  0  0  0  0  0  0  0
   -4.0200    0.3382   -0.6177 N   0  0  0  0  0  0  0  0  0  0  0  0
  1  2  3  0  0  0  0
  3  8  2  0  0  0  0
  3 10  1  0  0  0  0
  4  5  1  0  0  0  0
  6  7  1  0  0  0  0
  6  4  1  0  0  0  0
  8  6  1  0  0  0  0
  9  8  1  0  0  0  0
 10  4  2  0  0  0  0
M  RAD  1   3   2
M  END
