Coordinates from ORCA-job Imidazole-4-N2+-scan-d09-160-n800
 OpenBabel09191814123D

 10 10  0  0  0  0  0  0  0  0999 V2000
    1.3157    0.7482    0.1157 N   0  0  0  0  0  0  0  0  0  0  0  0
    2.4264    0.6391    0.1904 N   0  0  0  0  0  0  0  0  0  0  0  0
    0.0029    0.8479    0.0144 C   0  0  0  0  0  0  0  0  0  0  0  0
   -1.9690    0.2707   -0.4600 C   0  0  0  0  0  0  0  0  0  0  0  0
   -2.8531   -0.2573   -0.7922 H   0  0  0  0  0  0  0  0  0  0  0  0
   -2.0281    1.5431    0.0982 N   0  0  0  0  0  0  0  0  0  0  0  0
   -2.8708    2.0905    0.2481 H   0  0  0  0  0  0  0  0  0  0  0  0
   -0.7815    1.9380    0.4108 C   0  0  0  0  0  0  0  0  0  0  0  0
   -0.5340    2.8896    0.8603 H   0  0  0  0  0  0  0  0  0  0  0  0
   -0.7464   -0.1761   -0.5235 N   0  0  0  0  0  0  0  0  0  0  0  0
  1  2  1  0  0  0  0
  3  1  1  0  0  0  0
  3  8  2  0  0  0  0
  4  6  1  0  0  0  0
  5  4  1  0  0  0  0
  6  7  1  0  0  0  0
  6  8  1  0  0  0  0
  8  9  1  0  0  0  0
 10  4  2  0  0  0  0
 10  3  1  0  0  0  0
M  RAD  2   1   2   2   3
M  END
