Coordinates from ORCA-job Imidazole-4-N2+-scan-d09-160-n800
 OpenBabel09191814123D

 10  9  0  0  0  0  0  0  0  0999 V2000
    4.9288    4.1231    2.0118 N   0  0  0  0  0  0  0  0  0  0  0  0
    5.8387    4.6517    2.3505 N   0  0  0  0  0  0  0  0  0  0  0  0
   -3.3358   -0.6067   -1.0136 C   0  0  0  0  0  0  0  0  0  0  0  0
   -2.8579    1.1170   -0.1365 C   0  0  0  0  0  0  0  0  0  0  0  0
   -2.9262    2.0905    0.3285 H   0  0  0  0  0  0  0  0  0  0  0  0
   -1.7096    0.4171   -0.3719 N   0  0  0  0  0  0  0  0  0  0  0  0
   -0.7676    0.7275   -0.1369 H   0  0  0  0  0  0  0  0  0  0  0  0
   -1.9968   -0.8096   -0.9913 C   0  0  0  0  0  0  0  0  0  0  0  0
   -1.2956   -1.5685   -1.2955 H   0  0  0  0  0  0  0  0  0  0  0  0
   -3.9160    0.3915   -0.5828 N   0  0  0  0  0  0  0  0  0  0  0  0
  1  2  3  0  0  0  0
  3  8  2  0  0  0  0
  3 10  1  0  0  0  0
  4  5  1  0  0  0  0
  6  7  1  0  0  0  0
  6  4  1  0  0  0  0
  8  6  1  0  0  0  0
  9  8  1  0  0  0  0
 10  4  2  0  0  0  0
M  RAD  1   3   2
M  END
