Coordinates from ORCA-job Imidazole-4-N2+-scan-d09-160-n800
 OpenBabel09191814123D

 10  9  0  0  0  0  0  0  0  0999 V2000
    2.7937    2.9187    1.2397 N   0  0  0  0  0  0  0  0  0  0  0  0
    3.7094    3.4396    1.5738 N   0  0  0  0  0  0  0  0  0  0  0  0
   -2.7571   -0.3486   -0.8366 C   0  0  0  0  0  0  0  0  0  0  0  0
   -2.3705    1.3975    0.0427 C   0  0  0  0  0  0  0  0  0  0  0  0
   -2.4899    2.3688    0.5018 H   0  0  0  0  0  0  0  0  0  0  0  0
   -1.1884    0.7471   -0.1661 N   0  0  0  0  0  0  0  0  0  0  0  0
   -0.2651    1.0999    0.0872 H   0  0  0  0  0  0  0  0  0  0  0  0
   -1.4108   -0.4930   -0.7859 C   0  0  0  0  0  0  0  0  0  0  0  0
   -0.6716   -1.2221   -1.0724 H   0  0  0  0  0  0  0  0  0  0  0  0
   -3.3877    0.6255   -0.4219 N   0  0  0  0  0  0  0  0  0  0  0  0
  1  2  3  0  0  0  0
  3  8  2  0  0  0  0
  3 10  1  0  0  0  0
  4  5  1  0  0  0  0
  6  4  1  0  0  0  0
  6  7  1  0  0  0  0
  8  6  1  0  0  0  0
  9  8  1  0  0  0  0
 10  4  2  0  0  0  0
M  RAD  1   3   2
M  END
