Coordinates from ORCA-job Imidazole-4-N2+-scan-d09-160-n800
 OpenBabel09191814123D

 10  9  0  0  0  0  0  0  0  0999 V2000
    7.5445    5.5550    2.9385 N   0  0  0  0  0  0  0  0  0  0  0  0
    8.4561    6.0817    3.2757 N   0  0  0  0  0  0  0  0  0  0  0  0
   -3.9998   -0.9543   -1.2403 C   0  0  0  0  0  0  0  0  0  0  0  0
   -3.5018    0.7639   -0.3648 C   0  0  0  0  0  0  0  0  0  0  0  0
   -3.5582    1.7377    0.1011 H   0  0  0  0  0  0  0  0  0  0  0  0
   -2.3612    0.0531   -0.6066 N   0  0  0  0  0  0  0  0  0  0  0  0
   -1.4149    0.3541   -0.3764 H   0  0  0  0  0  0  0  0  0  0  0  0
   -2.6630   -1.1706   -1.2253 C   0  0  0  0  0  0  0  0  0  0  0  0
   -1.9706   -1.9359   -1.5335 H   0  0  0  0  0  0  0  0  0  0  0  0
   -4.5692    0.0487   -0.8061 N   0  0  0  0  0  0  0  0  0  0  0  0
  1  2  3  0  0  0  0
  3  8  2  0  0  0  0
  3 10  1  0  0  0  0
  4  5  1  0  0  0  0
  6  7  1  0  0  0  0
  6  4  1  0  0  0  0
  8  6  1  0  0  0  0
  9  8  1  0  0  0  0
 10  4  2  0  0  0  0
M  RAD  1   3   2
M  END
