Coordinates from ORCA-job Imidazole-4-N2+-scan-d09-160-n800
 OpenBabel09191814123D

 10  9  0  0  0  0  0  0  0  0999 V2000
    3.5689    3.3667    1.5250 N   0  0  0  0  0  0  0  0  0  0  0  0
    4.4805    3.8931    1.8621 N   0  0  0  0  0  0  0  0  0  0  0  0
   -2.9771   -0.4357   -0.8988 C   0  0  0  0  0  0  0  0  0  0  0  0
   -2.5373    1.2977   -0.0205 C   0  0  0  0  0  0  0  0  0  0  0  0
   -2.6269    2.2705    0.4422 H   0  0  0  0  0  0  0  0  0  0  0  0
   -1.3748    0.6181   -0.2448 N   0  0  0  0  0  0  0  0  0  0  0  0
   -0.4404    0.9460   -0.0022 H   0  0  0  0  0  0  0  0  0  0  0  0
   -1.6348   -0.6144   -0.8646 C   0  0  0  0  0  0  0  0  0  0  0  0
   -0.9177   -1.3611   -1.1615 H   0  0  0  0  0  0  0  0  0  0  0  0
   -3.5785    0.5527   -0.4746 N   0  0  0  0  0  0  0  0  0  0  0  0
  1  2  3  0  0  0  0
  3  8  2  0  0  0  0
  3 10  1  0  0  0  0
  4  5  1  0  0  0  0
  6  4  1  0  0  0  0
  6  7  1  0  0  0  0
  8  6  1  0  0  0  0
  9  8  1  0  0  0  0
 10  4  2  0  0  0  0
M  RAD  1   3   2
M  END
