Coordinates from ORCA-job Imidazole-4-N2+-scan-d09-160-n800
 OpenBabel09191814123D

 10  9  0  0  0  0  0  0  0  0999 V2000
    3.5298    3.3441    1.5105 N   0  0  0  0  0  0  0  0  0  0  0  0
    4.4414    3.8706    1.8477 N   0  0  0  0  0  0  0  0  0  0  0  0
   -2.9658   -0.4309   -0.8955 C   0  0  0  0  0  0  0  0  0  0  0  0
   -2.5290    1.3028   -0.0172 C   0  0  0  0  0  0  0  0  0  0  0  0
   -2.6198    2.2756    0.4453 H   0  0  0  0  0  0  0  0  0  0  0  0
   -1.3654    0.6245   -0.2409 N   0  0  0  0  0  0  0  0  0  0  0  0
   -0.4313    0.9533    0.0022 H   0  0  0  0  0  0  0  0  0  0  0  0
   -1.6235   -0.6085   -0.8608 C   0  0  0  0  0  0  0  0  0  0  0  0
   -0.9051   -1.3544   -1.1572 H   0  0  0  0  0  0  0  0  0  0  0  0
   -3.5693    0.5565   -0.4719 N   0  0  0  0  0  0  0  0  0  0  0  0
  1  2  3  0  0  0  0
  3  8  2  0  0  0  0
  3 10  1  0  0  0  0
  4  5  1  0  0  0  0
  6  4  1  0  0  0  0
  6  7  1  0  0  0  0
  8  6  1  0  0  0  0
  9  8  1  0  0  0  0
 10  4  2  0  0  0  0
M  RAD  1   3   2
M  END
