Coordinates from ORCA-job Imidazole-4-N2+-scan-d09-160-n800
 OpenBabel09191814123D

 10  9  0  0  0  0  0  0  0  0999 V2000
    4.0484    0.7780    0.4313 N   0  0  0  0  0  0  0  0  0  0  0  0
    5.1480    0.7167    0.5255 N   0  0  0  0  0  0  0  0  0  0  0  0
   -0.9102    0.5603   -0.2140 C   0  0  0  0  0  0  0  0  0  0  0  0
   -2.8716    0.3987   -0.5032 C   0  0  0  0  0  0  0  0  0  0  0  0
   -3.8451    0.0185   -0.7797 H   0  0  0  0  0  0  0  0  0  0  0  0
   -2.6154    1.6137    0.0641 N   0  0  0  0  0  0  0  0  0  0  0  0
   -3.3140    2.3177    0.2990 H   0  0  0  0  0  0  0  0  0  0  0  0
   -1.2380    1.7741    0.2880 C   0  0  0  0  0  0  0  0  0  0  0  0
   -0.7401    2.6254    0.7209 H   0  0  0  0  0  0  0  0  0  0  0  0
   -1.7001   -0.2696   -0.6697 N   0  0  0  0  0  0  0  0  0  0  0  0
  1  2  3  0  0  0  0
  3  8  2  0  0  0  0
  4  6  1  0  0  0  0
  5  4  1  0  0  0  0
  6  8  1  0  0  0  0
  6  7  1  0  0  0  0
  8  9  1  0  0  0  0
 10  4  2  0  0  0  0
 10  3  1  0  0  0  0
M  RAD  1   3   2
M  END
