Coordinates from ORCA-job Imidazole-4-N2+-scan-d09-160-n800
 OpenBabel09191814123D

 10  9  0  0  0  0  0  0  0  0999 V2000
    2.3859    0.6736    0.2009 N   0  0  0  0  0  0  0  0  0  0  0  0
    3.4807    0.5401    0.2628 N   0  0  0  0  0  0  0  0  0  0  0  0
   -0.4019    0.8283   -0.0391 C   0  0  0  0  0  0  0  0  0  0  0  0
   -2.2753    0.3126   -0.4754 C   0  0  0  0  0  0  0  0  0  0  0  0
   -3.1413   -0.2375   -0.8153 H   0  0  0  0  0  0  0  0  0  0  0  0
   -2.2906    1.5609    0.0768 N   0  0  0  0  0  0  0  0  0  0  0  0
   -3.1207    2.1288    0.2368 H   0  0  0  0  0  0  0  0  0  0  0  0
   -0.9879    1.9664    0.4010 C   0  0  0  0  0  0  0  0  0  0  0  0
   -0.6889    2.8991    0.8479 H   0  0  0  0  0  0  0  0  0  0  0  0
   -0.9979   -0.1387   -0.5341 N   0  0  0  0  0  0  0  0  0  0  0  0
  1  2  3  0  0  0  0
  3  8  2  0  0  0  0
  4  6  1  0  0  0  0
  5  4  1  0  0  0  0
  6  7  1  0  0  0  0
  6  8  1  0  0  0  0
  8  9  1  0  0  0  0
 10  4  2  0  0  0  0
 10  3  1  0  0  0  0
M  RAD  1   3   2
M  END
