Coordinates from ORCA-job Imidazole-4-N2+-scan-d09-160-n800
 OpenBabel09191814123D

 10  9  0  0  0  0  0  0  0  0999 V2000
    3.1024    0.6605    0.2744 N   0  0  0  0  0  0  0  0  0  0  0  0
    4.1996    0.5492    0.3463 N   0  0  0  0  0  0  0  0  0  0  0  0
   -0.6020    0.7740   -0.0852 C   0  0  0  0  0  0  0  0  0  0  0  0
   -2.4993    0.3373   -0.4892 C   0  0  0  0  0  0  0  0  0  0  0  0
   -3.3916   -0.1776   -0.8166 H   0  0  0  0  0  0  0  0  0  0  0  0
   -2.4507    1.5824    0.0685 N   0  0  0  0  0  0  0  0  0  0  0  0
   -3.2536    2.1843    0.2465 H   0  0  0  0  0  0  0  0  0  0  0  0
   -1.1256    1.9353    0.3720 C   0  0  0  0  0  0  0  0  0  0  0  0
   -0.7781    2.8522    0.8173 H   0  0  0  0  0  0  0  0  0  0  0  0
   -1.2391   -0.1639   -0.5718 N   0  0  0  0  0  0  0  0  0  0  0  0
  1  2  3  0  0  0  0
  3  8  2  0  0  0  0
  4  6  1  0  0  0  0
  5  4  1  0  0  0  0
  6  7  1  0  0  0  0
  6  8  1  0  0  0  0
  8  9  1  0  0  0  0
 10  4  2  0  0  0  0
 10  3  1  0  0  0  0
M  RAD  1   3   2
M  END
