Coordinates from ORCA-job Imidazole-4-N2+-scan-d09-160-n800
 OpenBabel09191814123D

 10  9  0  0  0  0  0  0  0  0999 V2000
    4.3577    0.8956    0.5177 N   0  0  0  0  0  0  0  0  0  0  0  0
    5.4571    0.8774    0.6311 N   0  0  0  0  0  0  0  0  0  0  0  0
   -1.0633    0.3956   -0.3041 C   0  0  0  0  0  0  0  0  0  0  0  0
   -3.0425    0.4518   -0.4985 C   0  0  0  0  0  0  0  0  0  0  0  0
   -4.0637    0.1837   -0.7305 H   0  0  0  0  0  0  0  0  0  0  0  0
   -2.6289    1.6235    0.0671 N   0  0  0  0  0  0  0  0  0  0  0  0
   -3.2345    2.3958    0.3425 H   0  0  0  0  0  0  0  0  0  0  0  0
   -1.2332    1.6301    0.2246 C   0  0  0  0  0  0  0  0  0  0  0  0
   -0.6269    2.4168    0.6407 H   0  0  0  0  0  0  0  0  0  0  0  0
   -1.9598   -0.3367   -0.7283 N   0  0  0  0  0  0  0  0  0  0  0  0
  1  2  3  0  0  0  0
  3  8  2  0  0  0  0
  4  6  1  0  0  0  0
  5  4  1  0  0  0  0
  6  8  1  0  0  0  0
  6  7  1  0  0  0  0
  8  9  1  0  0  0  0
 10  4  2  0  0  0  0
 10  3  1  0  0  0  0
M  RAD  1   3   2
M  END
