Coordinates from ORCA-job Imidazole-4-N2+-scan-d09-160-n800
 OpenBabel09191814123D

 10  9  0  0  0  0  0  0  0  0999 V2000
    4.2601    3.7543    1.7738 N   0  0  0  0  0  0  0  0  0  0  0  0
    5.1708    4.2819    2.1119 N   0  0  0  0  0  0  0  0  0  0  0  0
   -3.1624   -0.5205   -0.9566 C   0  0  0  0  0  0  0  0  0  0  0  0
   -2.6973    1.2064   -0.0789 C   0  0  0  0  0  0  0  0  0  0  0  0
   -2.7728    2.1797    0.3854 H   0  0  0  0  0  0  0  0  0  0  0  0
   -1.5442    0.5133   -0.3105 N   0  0  0  0  0  0  0  0  0  0  0  0
   -0.6047    0.8296   -0.0729 H   0  0  0  0  0  0  0  0  0  0  0  0
   -1.8222   -0.7153   -0.9302 C   0  0  0  0  0  0  0  0  0  0  0  0
   -1.1156   -1.4702   -1.2319 H   0  0  0  0  0  0  0  0  0  0  0  0
   -3.7497    0.4744   -0.5279 N   0  0  0  0  0  0  0  0  0  0  0  0
  1  2  3  0  0  0  0
  3  8  2  0  0  0  0
  3 10  1  0  0  0  0
  4  5  1  0  0  0  0
  6  4  1  0  0  0  0
  6  7  1  0  0  0  0
  8  6  1  0  0  0  0
  9  8  1  0  0  0  0
 10  4  2  0  0  0  0
M  RAD  1   3   2
M  END
