Coordinates from ORCA-job Imidazole-4-N2+-scan-d09-160-n800
 OpenBabel09191814123D

 10  9  0  0  0  0  0  0  0  0999 V2000
    1.7468    0.7132    0.1478 N   0  0  0  0  0  0  0  0  0  0  0  0
    2.8401    0.5738    0.2070 N   0  0  0  0  0  0  0  0  0  0  0  0
   -0.2036    0.8498   -0.0077 C   0  0  0  0  0  0  0  0  0  0  0  0
   -2.0840    0.2942   -0.4625 C   0  0  0  0  0  0  0  0  0  0  0  0
   -2.9470   -0.2598   -0.8039 H   0  0  0  0  0  0  0  0  0  0  0  0
   -2.1388    1.5450    0.0867 N   0  0  0  0  0  0  0  0  0  0  0  0
   -2.9817    2.0927    0.2366 H   0  0  0  0  0  0  0  0  0  0  0  0
   -0.8584    1.9643    0.4141 C   0  0  0  0  0  0  0  0  0  0  0  0
   -0.5912    2.9068    0.8618 H   0  0  0  0  0  0  0  0  0  0  0  0
   -0.8201   -0.1464   -0.5179 N   0  0  0  0  0  0  0  0  0  0  0  0
  1  2  3  0  0  0  0
  3  8  2  0  0  0  0
  4  6  1  0  0  0  0
  5  4  1  0  0  0  0
  6  7  1  0  0  0  0
  6  8  1  0  0  0  0
  8  9  1  0  0  0  0
 10  4  2  0  0  0  0
 10  3  1  0  0  0  0
M  RAD  1   3   2
M  END
