Coordinates from ORCA-job Imidazole-4-N2+-scan-d09-160-n800
 OpenBabel09191814123D

 10  9  0  0  0  0  0  0  0  0999 V2000
    3.6488    0.7029    0.3537 N   0  0  0  0  0  0  0  0  0  0  0  0
    4.7476    0.6157    0.4363 N   0  0  0  0  0  0  0  0  0  0  0  0
   -0.7674    0.6786   -0.1457 C   0  0  0  0  0  0  0  0  0  0  0  0
   -2.6992    0.3650   -0.4990 C   0  0  0  0  0  0  0  0  0  0  0  0
   -3.6308   -0.0905   -0.8044 H   0  0  0  0  0  0  0  0  0  0  0  0
   -2.5564    1.6002    0.0647 N   0  0  0  0  0  0  0  0  0  0  0  0
   -3.3144    2.2502    0.2689 H   0  0  0  0  0  0  0  0  0  0  0  0
   -1.2037    1.8672    0.3332 C   0  0  0  0  0  0  0  0  0  0  0  0
   -0.7871    2.7572    0.7741 H   0  0  0  0  0  0  0  0  0  0  0  0
   -1.4753   -0.2130   -0.6197 N   0  0  0  0  0  0  0  0  0  0  0  0
  1  2  3  0  0  0  0
  3  8  2  0  0  0  0
  4  6  1  0  0  0  0
  5  4  1  0  0  0  0
  6  7  1  0  0  0  0
  6  8  1  0  0  0  0
  8  9  1  0  0  0  0
 10  4  2  0  0  0  0
 10  3  1  0  0  0  0
M  RAD  1   3   2
M  END
