Coordinates from ORCA-job Imidazole-4-N2+-scan-d09-160-n800
 OpenBabel09191814123D

 10  9  0  0  0  0  0  0  0  0999 V2000
    6.5371    5.0056    2.5824 N   0  0  0  0  0  0  0  0  0  0  0  0
    7.4481    5.5329    2.9205 N   0  0  0  0  0  0  0  0  0  0  0  0
   -3.7451   -0.8204   -1.1529 C   0  0  0  0  0  0  0  0  0  0  0  0
   -3.2528    0.8997   -0.2769 C   0  0  0  0  0  0  0  0  0  0  0  0
   -3.3130    1.8735    0.1887 H   0  0  0  0  0  0  0  0  0  0  0  0
   -2.1100    0.1923   -0.5167 N   0  0  0  0  0  0  0  0  0  0  0  0
   -1.1651    0.4963   -0.2851 H   0  0  0  0  0  0  0  0  0  0  0  0
   -2.4075   -1.0322   -1.1356 C   0  0  0  0  0  0  0  0  0  0  0  0
   -1.7125   -1.7956   -1.4426 H   0  0  0  0  0  0  0  0  0  0  0  0
   -4.3172    0.1814   -0.7196 N   0  0  0  0  0  0  0  0  0  0  0  0
  1  2  3  0  0  0  0
  3  8  2  0  0  0  0
  3 10  1  0  0  0  0
  4  5  1  0  0  0  0
  6  7  1  0  0  0  0
  6  4  1  0  0  0  0
  8  6  1  0  0  0  0
  9  8  1  0  0  0  0
 10  4  2  0  0  0  0
M  RAD  1   3   2
M  END
