Coordinates from ORCA-job Imidazole-4-N2+-scan-d09-160-n800
 OpenBabel09191814123D

 10  9  0  0  0  0  0  0  0  0999 V2000
    4.2217    0.8273    0.4723 N   0  0  0  0  0  0  0  0  0  0  0  0
    5.3215    0.7809    0.5732 N   0  0  0  0  0  0  0  0  0  0  0  0
   -0.9826    0.4902   -0.2532 C   0  0  0  0  0  0  0  0  0  0  0  0
   -2.9556    0.4203   -0.5029 C   0  0  0  0  0  0  0  0  0  0  0  0
   -3.9508    0.0865   -0.7612 H   0  0  0  0  0  0  0  0  0  0  0  0
   -2.6328    1.6193    0.0647 N   0  0  0  0  0  0  0  0  0  0  0  0
   -3.2934    2.3533    0.3171 H   0  0  0  0  0  0  0  0  0  0  0  0
   -1.2457    1.7148    0.2608 C   0  0  0  0  0  0  0  0  0  0  0  0
   -0.7006    2.5401    0.6873 H   0  0  0  0  0  0  0  0  0  0  0  0
   -1.8196   -0.2991   -0.6961 N   0  0  0  0  0  0  0  0  0  0  0  0
  1  2  3  0  0  0  0
  3  8  2  0  0  0  0
  4  6  1  0  0  0  0
  5  4  1  0  0  0  0
  6  8  1  0  0  0  0
  6  7  1  0  0  0  0
  8  9  1  0  0  0  0
 10  4  2  0  0  0  0
 10  3  1  0  0  0  0
M  RAD  1   3   2
M  END
