Coordinates from ORCA-job Imidazole-4-N2+-scan-d09-160-n800
 OpenBabel09191814123D

 10  9  0  0  0  0  0  0  0  0999 V2000
    5.9608    4.6900    2.3782 N   0  0  0  0  0  0  0  0  0  0  0  0
    6.8714    5.2176    2.7165 N   0  0  0  0  0  0  0  0  0  0  0  0
   -3.5987   -0.7430   -1.1026 C   0  0  0  0  0  0  0  0  0  0  0  0
   -3.1109    0.9778   -0.2264 C   0  0  0  0  0  0  0  0  0  0  0  0
   -3.1732    1.9515    0.2390 H   0  0  0  0  0  0  0  0  0  0  0  0
   -1.9664    0.2724   -0.4651 N   0  0  0  0  0  0  0  0  0  0  0  0
   -1.0221    0.5779   -0.2326 H   0  0  0  0  0  0  0  0  0  0  0  0
   -2.2609   -0.9529   -1.0842 C   0  0  0  0  0  0  0  0  0  0  0  0
   -1.5641   -1.7150   -1.3904 H   0  0  0  0  0  0  0  0  0  0  0  0
   -4.1738    0.2575   -0.6702 N   0  0  0  0  0  0  0  0  0  0  0  0
  1  2  3  0  0  0  0
  3  8  2  0  0  0  0
  3 10  1  0  0  0  0
  4  5  1  0  0  0  0
  6  7  1  0  0  0  0
  6  4  1  0  0  0  0
  8  6  1  0  0  0  0
  9  8  1  0  0  0  0
 10  4  2  0  0  0  0
M  RAD  1   3   2
M  END
