Coordinates from ORCA-job Imidazole-4-N2+-scan-d09-160-n800
 OpenBabel09191814123D

 10  9  0  0  0  0  0  0  0  0999 V2000
    4.0351    0.7751    0.4285 N   0  0  0  0  0  0  0  0  0  0  0  0
    5.1347    0.7129    0.5223 N   0  0  0  0  0  0  0  0  0  0  0  0
   -0.9043    0.5644   -0.2115 C   0  0  0  0  0  0  0  0  0  0  0  0
   -2.8656    0.3974   -0.5031 C   0  0  0  0  0  0  0  0  0  0  0  0
   -3.8376    0.0144   -0.7807 H   0  0  0  0  0  0  0  0  0  0  0  0
   -2.6138    1.6134    0.0642 N   0  0  0  0  0  0  0  0  0  0  0  0
   -3.3145    2.3157    0.2980 H   0  0  0  0  0  0  0  0  0  0  0  0
   -1.2375    1.7772    0.2895 C   0  0  0  0  0  0  0  0  0  0  0  0
   -0.7425    2.6301    0.7227 H   0  0  0  0  0  0  0  0  0  0  0  0
   -1.6921   -0.2670   -0.6676 N   0  0  0  0  0  0  0  0  0  0  0  0
  1  2  3  0  0  0  0
  3  8  2  0  0  0  0
  4  6  1  0  0  0  0
  5  4  1  0  0  0  0
  6  8  1  0  0  0  0
  6  7  1  0  0  0  0
  8  9  1  0  0  0  0
 10  4  2  0  0  0  0
 10  3  1  0  0  0  0
M  RAD  1   3   2
M  END
