Coordinates from ORCA-job Imidazole-4-N2+-scan-d09-160-n800
 OpenBabel09191814123D

 10  9  0  0  0  0  0  0  0  0999 V2000
    3.6347    0.7014    0.3515 N   0  0  0  0  0  0  0  0  0  0  0  0
    4.7334    0.6134    0.4338 N   0  0  0  0  0  0  0  0  0  0  0  0
   -0.7619    0.6813   -0.1439 C   0  0  0  0  0  0  0  0  0  0  0  0
   -2.6938    0.3643   -0.4988 C   0  0  0  0  0  0  0  0  0  0  0  0
   -3.6243   -0.0931   -0.8049 H   0  0  0  0  0  0  0  0  0  0  0  0
   -2.5539    1.5998    0.0648 N   0  0  0  0  0  0  0  0  0  0  0  0
   -3.3132    2.2486    0.2684 H   0  0  0  0  0  0  0  0  0  0  0  0
   -1.2023    1.8689    0.3341 C   0  0  0  0  0  0  0  0  0  0  0  0
   -0.7879    2.7597    0.7752 H   0  0  0  0  0  0  0  0  0  0  0  0
   -1.4688   -0.2107   -0.6180 N   0  0  0  0  0  0  0  0  0  0  0  0
  1  2  3  0  0  0  0
  3  8  2  0  0  0  0
  4  6  1  0  0  0  0
  5  4  1  0  0  0  0
  6  7  1  0  0  0  0
  6  8  1  0  0  0  0
  8  9  1  0  0  0  0
 10  4  2  0  0  0  0
 10  3  1  0  0  0  0
M  RAD  1   3   2
M  END
