Coordinates from ORCA-job Imidazole-4-N2+-scan-d09-160-n800
 OpenBabel09191814123D

 10 10  0  0  0  0  0  0  0  0999 V2000
    1.3815    0.7402    0.1190 N   0  0  0  0  0  0  0  0  0  0  0  0
    2.4870    0.6288    0.1918 N   0  0  0  0  0  0  0  0  0  0  0  0
   -0.0308    0.8499    0.0115 C   0  0  0  0  0  0  0  0  0  0  0  0
   -1.9846    0.2750   -0.4598 C   0  0  0  0  0  0  0  0  0  0  0  0
   -2.8657   -0.2564   -0.7932 H   0  0  0  0  0  0  0  0  0  0  0  0
   -2.0445    1.5431    0.0959 N   0  0  0  0  0  0  0  0  0  0  0  0
   -2.8877    2.0894    0.2445 H   0  0  0  0  0  0  0  0  0  0  0  0
   -0.7927    1.9422    0.4122 C   0  0  0  0  0  0  0  0  0  0  0  0
   -0.5444    2.8928    0.8616 H   0  0  0  0  0  0  0  0  0  0  0  0
   -0.7561   -0.1715   -0.5215 N   0  0  0  0  0  0  0  0  0  0  0  0
  1  2  1  0  0  0  0
  3  1  1  0  0  0  0
  3  8  2  0  0  0  0
  4  6  1  0  0  0  0
  5  4  1  0  0  0  0
  6  7  1  0  0  0  0
  6  8  1  0  0  0  0
  8  9  1  0  0  0  0
 10  4  2  0  0  0  0
 10  3  1  0  0  0  0
M  RAD  2   1   2   2   3
M  END
