Coordinates from ORCA-job Imidazole-4-N2+-scan-d09-160-n800
 OpenBabel09191814123D

 10  9  0  0  0  0  0  0  0  0999 V2000
    6.4566    4.9616    2.5540 N   0  0  0  0  0  0  0  0  0  0  0  0
    7.3675    5.4889    2.8920 N   0  0  0  0  0  0  0  0  0  0  0  0
   -3.7247   -0.8096   -1.1459 C   0  0  0  0  0  0  0  0  0  0  0  0
   -3.2330    0.9106   -0.2698 C   0  0  0  0  0  0  0  0  0  0  0  0
   -3.2935    1.8843    0.1957 H   0  0  0  0  0  0  0  0  0  0  0  0
   -2.0900    0.2035   -0.5095 N   0  0  0  0  0  0  0  0  0  0  0  0
   -1.1451    0.5077   -0.2777 H   0  0  0  0  0  0  0  0  0  0  0  0
   -2.3870   -1.0211   -1.1284 C   0  0  0  0  0  0  0  0  0  0  0  0
   -1.6918   -1.7844   -1.4353 H   0  0  0  0  0  0  0  0  0  0  0  0
   -4.2971    0.1920   -0.7127 N   0  0  0  0  0  0  0  0  0  0  0  0
  1  2  3  0  0  0  0
  3  8  2  0  0  0  0
  3 10  1  0  0  0  0
  4  5  1  0  0  0  0
  6  7  1  0  0  0  0
  6  4  1  0  0  0  0
  8  6  1  0  0  0  0
  9  8  1  0  0  0  0
 10  4  2  0  0  0  0
M  RAD  1   3   2
M  END
