Coordinates from ORCA-job Imidazole-4-N2+-scan-d09-160-n800
 OpenBabel09191814123D

 10  9  0  0  0  0  0  0  0  0999 V2000
    5.5317    4.4548    2.2261 N   0  0  0  0  0  0  0  0  0  0  0  0
    6.4422    4.9826    2.5645 N   0  0  0  0  0  0  0  0  0  0  0  0
   -3.4896   -0.6860   -1.0655 C   0  0  0  0  0  0  0  0  0  0  0  0
   -3.0055    1.0358   -0.1890 C   0  0  0  0  0  0  0  0  0  0  0  0
   -3.0698    2.0094    0.2763 H   0  0  0  0  0  0  0  0  0  0  0  0
   -1.8596    0.3322   -0.4265 N   0  0  0  0  0  0  0  0  0  0  0  0
   -0.9160    0.6393   -0.1932 H   0  0  0  0  0  0  0  0  0  0  0  0
   -2.1515   -0.8936   -1.0458 C   0  0  0  0  0  0  0  0  0  0  0  0
   -1.4531   -1.6546   -1.3513 H   0  0  0  0  0  0  0  0  0  0  0  0
   -4.0668    0.3136   -0.6337 N   0  0  0  0  0  0  0  0  0  0  0  0
  1  2  3  0  0  0  0
  3  8  2  0  0  0  0
  3 10  1  0  0  0  0
  4  5  1  0  0  0  0
  6  7  1  0  0  0  0
  6  4  1  0  0  0  0
  8  6  1  0  0  0  0
  9  8  1  0  0  0  0
 10  4  2  0  0  0  0
M  RAD  1   3   2
M  END
