Coordinates from ORCA-job Imidazole-4-N2+-scan-d09-160-n800
 OpenBabel09191814123D

 10  9  0  0  0  0  0  0  0  0999 V2000
    5.8803    4.6459    2.3497 N   0  0  0  0  0  0  0  0  0  0  0  0
    6.7909    5.1735    2.6880 N   0  0  0  0  0  0  0  0  0  0  0  0
   -3.5783   -0.7323   -1.0956 C   0  0  0  0  0  0  0  0  0  0  0  0
   -3.0911    0.9887   -0.2194 C   0  0  0  0  0  0  0  0  0  0  0  0
   -3.1536    1.9624    0.2460 H   0  0  0  0  0  0  0  0  0  0  0  0
   -1.9464    0.2835   -0.4579 N   0  0  0  0  0  0  0  0  0  0  0  0
   -1.0022    0.5893   -0.2252 H   0  0  0  0  0  0  0  0  0  0  0  0
   -2.2404   -0.9418   -1.0770 C   0  0  0  0  0  0  0  0  0  0  0  0
   -1.5434   -1.7038   -1.3831 H   0  0  0  0  0  0  0  0  0  0  0  0
   -4.1538    0.2681   -0.6633 N   0  0  0  0  0  0  0  0  0  0  0  0
  1  2  3  0  0  0  0
  3  8  2  0  0  0  0
  3 10  1  0  0  0  0
  4  5  1  0  0  0  0
  6  7  1  0  0  0  0
  6  4  1  0  0  0  0
  8  6  1  0  0  0  0
  9  8  1  0  0  0  0
 10  4  2  0  0  0  0
M  RAD  1   3   2
M  END
