Coordinates from ORCA-job Imidazole-4-N2+-scan-d09-160-n800
 OpenBabel09191814123D

 10  9  0  0  0  0  0  0  0  0999 V2000
    4.0606    3.6431    1.7022 N   0  0  0  0  0  0  0  0  0  0  0  0
    4.9713    4.1706    2.0402 N   0  0  0  0  0  0  0  0  0  0  0  0
   -3.1093   -0.4952   -0.9396 C   0  0  0  0  0  0  0  0  0  0  0  0
   -2.6506    1.2330   -0.0618 C   0  0  0  0  0  0  0  0  0  0  0  0
   -2.7292    2.2062    0.4021 H   0  0  0  0  0  0  0  0  0  0  0  0
   -1.4951    0.5429   -0.2918 N   0  0  0  0  0  0  0  0  0  0  0  0
   -0.5566    0.8616   -0.0531 H   0  0  0  0  0  0  0  0  0  0  0  0
   -1.7688   -0.6868   -0.9116 C   0  0  0  0  0  0  0  0  0  0  0  0
   -1.0597   -1.4397   -1.2122 H   0  0  0  0  0  0  0  0  0  0  0  0
   -3.7007    0.4979   -0.5122 N   0  0  0  0  0  0  0  0  0  0  0  0
  1  2  3  0  0  0  0
  3  8  2  0  0  0  0
  3 10  1  0  0  0  0
  4  5  1  0  0  0  0
  6  4  1  0  0  0  0
  6  7  1  0  0  0  0
  8  6  1  0  0  0  0
  9  8  1  0  0  0  0
 10  4  2  0  0  0  0
M  RAD  1   3   2
M  END
