Coordinates from ORCA-job Imidazole-4-N2+-scan-d09-160-n800
 OpenBabel09191814123D

 10  9  0  0  0  0  0  0  0  0999 V2000
    8.7323    6.1912    3.3518 N   0  0  0  0  0  0  0  0  0  0  0  0
    9.6316    6.7338    3.6967 N   0  0  0  0  0  0  0  0  0  0  0  0
   -4.2973   -1.1142   -1.3437 C   0  0  0  0  0  0  0  0  0  0  0  0
   -3.7952    0.6036   -0.4686 C   0  0  0  0  0  0  0  0  0  0  0  0
   -3.8499    1.5775   -0.0027 H   0  0  0  0  0  0  0  0  0  0  0  0
   -2.6561   -0.1088   -0.7116 N   0  0  0  0  0  0  0  0  0  0  0  0
   -1.7093    0.1910   -0.4823 H   0  0  0  0  0  0  0  0  0  0  0  0
   -2.9605   -1.3319   -1.3299 C   0  0  0  0  0  0  0  0  0  0  0  0
   -2.2697   -2.0983   -1.6388 H   0  0  0  0  0  0  0  0  0  0  0  0
   -4.8638   -0.1100   -0.9087 N   0  0  0  0  0  0  0  0  0  0  0  0
  1  2  3  0  0  0  0
  3  8  2  0  0  0  0
  3 10  1  0  0  0  0
  4  5  1  0  0  0  0
  6  7  1  0  0  0  0
  6  4  1  0  0  0  0
  8  6  1  0  0  0  0
  9  8  1  0  0  0  0
 10  4  2  0  0  0  0
M  RAD  1   3   2
M  END
