Coordinates from ORCA-job Imidazole-4-N2+-scan-d09-160-n800
 OpenBabel09191814123D

 10  9  0  0  0  0  0  0  0  0999 V2000
    8.6234    6.1345    3.3148 N   0  0  0  0  0  0  0  0  0  0  0  0
    9.5261    6.6727    3.6576 N   0  0  0  0  0  0  0  0  0  0  0  0
   -4.2703   -1.0996   -1.3343 C   0  0  0  0  0  0  0  0  0  0  0  0
   -3.7686    0.6182   -0.4592 C   0  0  0  0  0  0  0  0  0  0  0  0
   -3.8235    1.5921    0.0067 H   0  0  0  0  0  0  0  0  0  0  0  0
   -2.6294   -0.0940   -0.7019 N   0  0  0  0  0  0  0  0  0  0  0  0
   -1.6826    0.2059   -0.4726 H   0  0  0  0  0  0  0  0  0  0  0  0
   -2.9336   -1.3171   -1.3203 C   0  0  0  0  0  0  0  0  0  0  0  0
   -2.2426   -2.0835   -1.6292 H   0  0  0  0  0  0  0  0  0  0  0  0
   -4.8371   -0.0955   -0.8994 N   0  0  0  0  0  0  0  0  0  0  0  0
  1  2  3  0  0  0  0
  3  8  2  0  0  0  0
  3 10  1  0  0  0  0
  4  5  1  0  0  0  0
  6  7  1  0  0  0  0
  6  4  1  0  0  0  0
  8  6  1  0  0  0  0
  9  8  1  0  0  0  0
 10  4  2  0  0  0  0
M  RAD  1   3   2
M  END
