Coordinates from ORCA-job Imidazole-4-N2+-scan-d09-160-n800
 OpenBabel09191814123D

 10  9  0  0  0  0  0  0  0  0999 V2000
    4.1559    0.8073    0.4562 N   0  0  0  0  0  0  0  0  0  0  0  0
    5.2557    0.7546    0.5543 N   0  0  0  0  0  0  0  0  0  0  0  0
   -0.9545    0.5186   -0.2374 C   0  0  0  0  0  0  0  0  0  0  0  0
   -2.9231    0.4114   -0.5032 C   0  0  0  0  0  0  0  0  0  0  0  0
   -3.9098    0.0587   -0.7690 H   0  0  0  0  0  0  0  0  0  0  0  0
   -2.6269    1.6171    0.0644 N   0  0  0  0  0  0  0  0  0  0  0  0
   -3.3032    2.3392    0.3097 H   0  0  0  0  0  0  0  0  0  0  0  0
   -1.2430    1.7393    0.2720 C   0  0  0  0  0  0  0  0  0  0  0  0
   -0.7170    2.5754    0.7012 H   0  0  0  0  0  0  0  0  0  0  0  0
   -1.7722   -0.2880   -0.6858 N   0  0  0  0  0  0  0  0  0  0  0  0
  1  2  3  0  0  0  0
  3  8  2  0  0  0  0
  4  6  1  0  0  0  0
  5  4  1  0  0  0  0
  6  8  1  0  0  0  0
  6  7  1  0  0  0  0
  8  9  1  0  0  0  0
 10  4  2  0  0  0  0
 10  3  1  0  0  0  0
M  RAD  1   3   2
M  END
