Coordinates from ORCA-job Imidazole-4-N2+-scan-d09-160-n800
 OpenBabel09191814123D

 10  9  0  0  0  0  0  0  0  0999 V2000
    6.7654    5.1307    2.6634 N   0  0  0  0  0  0  0  0  0  0  0  0
    7.6769    5.6573    3.0010 N   0  0  0  0  0  0  0  0  0  0  0  0
   -3.8027   -0.8505   -1.1726 C   0  0  0  0  0  0  0  0  0  0  0  0
   -3.3094    0.8690   -0.2968 C   0  0  0  0  0  0  0  0  0  0  0  0
   -3.3685    1.8427    0.1689 H   0  0  0  0  0  0  0  0  0  0  0  0
   -2.1670    0.1606   -0.5371 N   0  0  0  0  0  0  0  0  0  0  0  0
   -1.2216    0.4637   -0.3059 H   0  0  0  0  0  0  0  0  0  0  0  0
   -2.4654   -1.0638   -1.1561 C   0  0  0  0  0  0  0  0  0  0  0  0
   -1.7710   -1.8276   -1.4634 H   0  0  0  0  0  0  0  0  0  0  0  0
   -4.3747    0.1514   -0.7392 N   0  0  0  0  0  0  0  0  0  0  0  0
  1  2  3  0  0  0  0
  3  8  2  0  0  0  0
  3 10  1  0  0  0  0
  4  5  1  0  0  0  0
  6  7  1  0  0  0  0
  6  4  1  0  0  0  0
  8  6  1  0  0  0  0
  9  8  1  0  0  0  0
 10  4  2  0  0  0  0
M  RAD  1   3   2
M  END
