Coordinates from ORCA-job Imidazole-4-N2+-scan-d09-160-n800
 OpenBabel09191814123D

 10  9  0  0  0  0  0  0  0  0999 V2000
    7.1146    5.3211    2.7868 N   0  0  0  0  0  0  0  0  0  0  0  0
    8.0261    5.8476    3.1242 N   0  0  0  0  0  0  0  0  0  0  0  0
   -3.8911   -0.8970   -1.2029 C   0  0  0  0  0  0  0  0  0  0  0  0
   -3.3955    0.8219   -0.3273 C   0  0  0  0  0  0  0  0  0  0  0  0
   -3.4534    1.7957    0.1385 H   0  0  0  0  0  0  0  0  0  0  0  0
   -2.2540    0.1124   -0.5683 N   0  0  0  0  0  0  0  0  0  0  0  0
   -1.3082    0.4145   -0.3376 H   0  0  0  0  0  0  0  0  0  0  0  0
   -2.5540   -1.1117   -1.1871 C   0  0  0  0  0  0  0  0  0  0  0  0
   -1.8606   -1.8762   -1.4949 H   0  0  0  0  0  0  0  0  0  0  0  0
   -4.4619    0.1054   -0.7692 N   0  0  0  0  0  0  0  0  0  0  0  0
  1  2  3  0  0  0  0
  3  8  2  0  0  0  0
  3 10  1  0  0  0  0
  4  5  1  0  0  0  0
  6  7  1  0  0  0  0
  6  4  1  0  0  0  0
  8  6  1  0  0  0  0
  9  8  1  0  0  0  0
 10  4  2  0  0  0  0
M  RAD  1   3   2
M  END
