Coordinates from ORCA-job Imidazole-4-N2+-scan-d09-160-n800
 OpenBabel09191814123D

 10  9  0  0  0  0  0  0  0  0999 V2000
    8.3105    5.9720    3.2086 N   0  0  0  0  0  0  0  0  0  0  0  0
    9.2222    6.4985    3.5457 N   0  0  0  0  0  0  0  0  0  0  0  0
   -4.1927   -1.0572   -1.3072 C   0  0  0  0  0  0  0  0  0  0  0  0
   -3.6919    0.6603   -0.4319 C   0  0  0  0  0  0  0  0  0  0  0  0
   -3.7468    1.6342    0.0341 H   0  0  0  0  0  0  0  0  0  0  0  0
   -2.5524   -0.0519   -0.6745 N   0  0  0  0  0  0  0  0  0  0  0  0
   -1.6055    0.2478   -0.4450 H   0  0  0  0  0  0  0  0  0  0  0  0
   -2.8561   -1.2752   -1.2932 C   0  0  0  0  0  0  0  0  0  0  0  0
   -2.1649   -2.0413   -1.6019 H   0  0  0  0  0  0  0  0  0  0  0  0
   -4.7605   -0.0535   -0.8726 N   0  0  0  0  0  0  0  0  0  0  0  0
  1  2  3  0  0  0  0
  3  8  2  0  0  0  0
  3 10  1  0  0  0  0
  4  5  1  0  0  0  0
  6  7  1  0  0  0  0
  6  4  1  0  0  0  0
  8  6  1  0  0  0  0
  9  8  1  0  0  0  0
 10  4  2  0  0  0  0
M  RAD  1   3   2
M  END
