Coordinates from ORCA-job Imidazole-4-N2+-scan-d09-160-n800
 OpenBabel09191814123D

 10  9  0  0  0  0  0  0  0  0999 V2000
    8.9910    6.3262    3.4400 N   0  0  0  0  0  0  0  0  0  0  0  0
    9.8816    6.8798    3.7901 N   0  0  0  0  0  0  0  0  0  0  0  0
   -4.3611   -1.1487   -1.3657 C   0  0  0  0  0  0  0  0  0  0  0  0
   -3.8584    0.5688   -0.4912 C   0  0  0  0  0  0  0  0  0  0  0  0
   -3.9124    1.5427   -0.0253 H   0  0  0  0  0  0  0  0  0  0  0  0
   -2.7196   -0.1442   -0.7346 N   0  0  0  0  0  0  0  0  0  0  0  0
   -1.7724    0.1550   -0.5059 H   0  0  0  0  0  0  0  0  0  0  0  0
   -3.0246   -1.3674   -1.3527 C   0  0  0  0  0  0  0  0  0  0  0  0
   -2.3342   -2.1341   -1.6619 H   0  0  0  0  0  0  0  0  0  0  0  0
   -4.9279   -0.1445   -0.9308 N   0  0  0  0  0  0  0  0  0  0  0  0
  1  2  3  0  0  0  0
  3  8  2  0  0  0  0
  3 10  1  0  0  0  0
  4  5  1  0  0  0  0
  6  7  1  0  0  0  0
  6  4  1  0  0  0  0
  8  6  1  0  0  0  0
  9  8  1  0  0  0  0
 10  4  2  0  0  0  0
M  RAD  1   3   2
M  END
