Coordinates from ORCA-job Imidazole-4-N2+-scan-d09-160-n800
 OpenBabel09191814123D

 10  9  0  0  0  0  0  0  0  0999 V2000
    7.1414    5.3357    2.7963 N   0  0  0  0  0  0  0  0  0  0  0  0
    8.0530    5.8622    3.1337 N   0  0  0  0  0  0  0  0  0  0  0  0
   -3.8979   -0.9006   -1.2052 C   0  0  0  0  0  0  0  0  0  0  0  0
   -3.4021    0.8183   -0.3296 C   0  0  0  0  0  0  0  0  0  0  0  0
   -3.4599    1.7921    0.1362 H   0  0  0  0  0  0  0  0  0  0  0  0
   -2.2607    0.1087   -0.5707 N   0  0  0  0  0  0  0  0  0  0  0  0
   -1.3149    0.4107   -0.3400 H   0  0  0  0  0  0  0  0  0  0  0  0
   -2.5609   -1.1154   -1.1895 C   0  0  0  0  0  0  0  0  0  0  0  0
   -1.8675   -1.8800   -1.4973 H   0  0  0  0  0  0  0  0  0  0  0  0
   -4.4686    0.1019   -0.7715 N   0  0  0  0  0  0  0  0  0  0  0  0
  1  2  3  0  0  0  0
  3  8  2  0  0  0  0
  3 10  1  0  0  0  0
  4  5  1  0  0  0  0
  6  7  1  0  0  0  0
  6  4  1  0  0  0  0
  8  6  1  0  0  0  0
  9  8  1  0  0  0  0
 10  4  2  0  0  0  0
M  RAD  1   3   2
M  END
