Coordinates from ORCA-job Imidazole-4-N2+-scan-d09-160-n800
 OpenBabel09191814123D

 10  9  0  0  0  0  0  0  0  0999 V2000
    2.2387    2.6013    1.0371 N   0  0  0  0  0  0  0  0  0  0  0  0
    3.1588    3.1163    1.3673 N   0  0  0  0  0  0  0  0  0  0  0  0
   -2.6019   -0.2864   -0.7934 C   0  0  0  0  0  0  0  0  0  0  0  0
   -2.2492    1.4678    0.0875 C   0  0  0  0  0  0  0  0  0  0  0  0
   -2.3895    2.4373    0.5442 H   0  0  0  0  0  0  0  0  0  0  0  0
   -1.0544    0.8381   -0.1097 N   0  0  0  0  0  0  0  0  0  0  0  0
   -0.1387    1.2099    0.1528 H   0  0  0  0  0  0  0  0  0  0  0  0
   -1.2525   -0.4060   -0.7298 C   0  0  0  0  0  0  0  0  0  0  0  0
   -0.4994   -1.1232   -1.0092 H   0  0  0  0  0  0  0  0  0  0  0  0
   -3.2500    0.6786   -0.3847 N   0  0  0  0  0  0  0  0  0  0  0  0
  1  2  3  0  0  0  0
  3  8  2  0  0  0  0
  3 10  1  0  0  0  0
  4  5  1  0  0  0  0
  6  4  1  0  0  0  0
  6  7  1  0  0  0  0
  8  6  1  0  0  0  0
  9  8  1  0  0  0  0
 10  4  2  0  0  0  0
M  RAD  1   3   2
M  END
