Coordinates from ORCA-job Imidazole-4-N2+-scan-d09-160-n800
 OpenBabel09191814123D

 10  9  0  0  0  0  0  0  0  0999 V2000
    4.4576    0.9640    0.5591 N   0  0  0  0  0  0  0  0  0  0  0  0
    5.5561    0.9690    0.6827 N   0  0  0  0  0  0  0  0  0  0  0  0
   -1.1369    0.3077   -0.3513 C   0  0  0  0  0  0  0  0  0  0  0  0
   -3.1150    0.4847   -0.4919 C   0  0  0  0  0  0  0  0  0  0  0  0
   -4.1561    0.2798   -0.6981 H   0  0  0  0  0  0  0  0  0  0  0  0
   -2.6162    1.6252    0.0692 N   0  0  0  0  0  0  0  0  0  0  0  0
   -3.1666    2.4303    0.3653 H   0  0  0  0  0  0  0  0  0  0  0  0
   -1.2195    1.5468    0.1891 C   0  0  0  0  0  0  0  0  0  0  0  0
   -0.5535    2.2909    0.5930 H   0  0  0  0  0  0  0  0  0  0  0  0
   -2.0879   -0.3647   -0.7549 N   0  0  0  0  0  0  0  0  0  0  0  0
  1  2  3  0  0  0  0
  3  8  2  0  0  0  0
  4  6  1  0  0  0  0
  5  4  1  0  0  0  0
  6  8  1  0  0  0  0
  6  7  1  0  0  0  0
  8  9  1  0  0  0  0
 10  4  2  0  0  0  0
 10  3  1  0  0  0  0
M  RAD  1   3   2
M  END
