Coordinates from ORCA-job Imidazole-4-N2+-scan-d09-160-n800
 OpenBabel09191814123D

 10  9  0  0  0  0  0  0  0  0999 V2000
    3.0687    3.0788    1.3414 N   0  0  0  0  0  0  0  0  0  0  0  0
    3.9823    3.6027    1.6771 N   0  0  0  0  0  0  0  0  0  0  0  0
   -2.8363   -0.3790   -0.8586 C   0  0  0  0  0  0  0  0  0  0  0  0
   -2.4285    1.3623    0.0205 C   0  0  0  0  0  0  0  0  0  0  0  0
   -2.5362    2.3342    0.4810 H   0  0  0  0  0  0  0  0  0  0  0  0
   -1.2541    0.7003   -0.1945 N   0  0  0  0  0  0  0  0  0  0  0  0
   -0.3265    1.0432    0.0546 H   0  0  0  0  0  0  0  0  0  0  0  0
   -1.4914   -0.5368   -0.8143 C   0  0  0  0  0  0  0  0  0  0  0  0
   -0.7609   -1.2730   -1.1050 H   0  0  0  0  0  0  0  0  0  0  0  0
   -3.4551    0.6010   -0.4400 N   0  0  0  0  0  0  0  0  0  0  0  0
  1  2  3  0  0  0  0
  3  8  2  0  0  0  0
  3 10  1  0  0  0  0
  4  5  1  0  0  0  0
  6  4  1  0  0  0  0
  6  7  1  0  0  0  0
  8  6  1  0  0  0  0
  9  8  1  0  0  0  0
 10  4  2  0  0  0  0
M  RAD  1   3   2
M  END
