Coordinates from ORCA-job Imidazole-4-N2+-scan-d09-160-n800
 OpenBabel09191814123D

 10  9  0  0  0  0  0  0  0  0999 V2000
    8.2701    5.9501    3.1945 N   0  0  0  0  0  0  0  0  0  0  0  0
    9.1821    6.4762    3.5313 N   0  0  0  0  0  0  0  0  0  0  0  0
   -4.1826   -1.0517   -1.3036 C   0  0  0  0  0  0  0  0  0  0  0  0
   -3.6818    0.6658   -0.4283 C   0  0  0  0  0  0  0  0  0  0  0  0
   -3.7367    1.6397    0.0377 H   0  0  0  0  0  0  0  0  0  0  0  0
   -2.5423   -0.0464   -0.6709 N   0  0  0  0  0  0  0  0  0  0  0  0
   -1.5955    0.2533   -0.4414 H   0  0  0  0  0  0  0  0  0  0  0  0
   -2.8461   -1.2697   -1.2896 C   0  0  0  0  0  0  0  0  0  0  0  0
   -2.1548   -2.0358   -1.5983 H   0  0  0  0  0  0  0  0  0  0  0  0
   -4.7504   -0.0480   -0.8690 N   0  0  0  0  0  0  0  0  0  0  0  0
  1  2  3  0  0  0  0
  3  8  2  0  0  0  0
  3 10  1  0  0  0  0
  4  5  1  0  0  0  0
  6  7  1  0  0  0  0
  6  4  1  0  0  0  0
  8  6  1  0  0  0  0
  9  8  1  0  0  0  0
 10  4  2  0  0  0  0
M  RAD  1   3   2
M  END
