Coordinates from ORCA-job Imidazole-4-N2+-scan-d09-160-n800
 OpenBabel09191814123D

 10  9  0  0  0  0  0  0  0  0999 V2000
    6.1882    4.8149    2.4590 N   0  0  0  0  0  0  0  0  0  0  0  0
    7.0992    5.3420    2.7970 N   0  0  0  0  0  0  0  0  0  0  0  0
   -3.6568   -0.7737   -1.1226 C   0  0  0  0  0  0  0  0  0  0  0  0
   -3.1667    0.9469   -0.2464 C   0  0  0  0  0  0  0  0  0  0  0  0
   -3.2282    1.9206    0.2191 H   0  0  0  0  0  0  0  0  0  0  0  0
   -2.0231    0.2407   -0.4855 N   0  0  0  0  0  0  0  0  0  0  0  0
   -1.0786    0.5457   -0.2533 H   0  0  0  0  0  0  0  0  0  0  0  0
   -2.3189   -0.9842   -1.1045 C   0  0  0  0  0  0  0  0  0  0  0  0
   -1.6230   -1.7469   -1.4111 H   0  0  0  0  0  0  0  0  0  0  0  0
   -4.2301    0.2275   -0.6896 N   0  0  0  0  0  0  0  0  0  0  0  0
  1  2  3  0  0  0  0
  3  8  2  0  0  0  0
  3 10  1  0  0  0  0
  4  5  1  0  0  0  0
  6  7  1  0  0  0  0
  6  4  1  0  0  0  0
  8  6  1  0  0  0  0
  9  8  1  0  0  0  0
 10  4  2  0  0  0  0
M  RAD  1   3   2
M  END
