Coordinates from ORCA-job Imidazole-4-N2+-scan-d09-160-n800
 OpenBabel09191814123D

 10  9  0  0  0  0  0  0  0  0999 V2000
    2.6045    0.6606    0.2193 N   0  0  0  0  0  0  0  0  0  0  0  0
    3.7001    0.5327    0.2838 N   0  0  0  0  0  0  0  0  0  0  0  0
   -0.4623    0.8203   -0.0493 C   0  0  0  0  0  0  0  0  0  0  0  0
   -2.3391    0.3193   -0.4795 C   0  0  0  0  0  0  0  0  0  0  0  0
   -3.2096   -0.2251   -0.8174 H   0  0  0  0  0  0  0  0  0  0  0  0
   -2.3417    1.5672    0.0739 N   0  0  0  0  0  0  0  0  0  0  0  0
   -3.1668    2.1418    0.2375 H   0  0  0  0  0  0  0  0  0  0  0  0
   -1.0341    1.9639    0.3947 C   0  0  0  0  0  0  0  0  0  0  0  0
   -0.7255    2.8937    0.8414 H   0  0  0  0  0  0  0  0  0  0  0  0
   -1.0635   -0.1408   -0.5423 N   0  0  0  0  0  0  0  0  0  0  0  0
  1  2  3  0  0  0  0
  3  8  2  0  0  0  0
  4  6  1  0  0  0  0
  5  4  1  0  0  0  0
  6  7  1  0  0  0  0
  6  8  1  0  0  0  0
  8  9  1  0  0  0  0
 10  4  2  0  0  0  0
 10  3  1  0  0  0  0
M  RAD  1   3   2
M  END
