Coordinates from ORCA-job Imidazole-4-N2+-scan-d09-160-n800
 OpenBabel09191814123D

 10  9  0  0  0  0  0  0  0  0999 V2000
    3.2259    0.6649    0.2900 N   0  0  0  0  0  0  0  0  0  0  0  0
    4.3234    0.5578    0.3638 N   0  0  0  0  0  0  0  0  0  0  0  0
   -0.6374    0.7582   -0.0960 C   0  0  0  0  0  0  0  0  0  0  0  0
   -2.5413    0.3424   -0.4916 C   0  0  0  0  0  0  0  0  0  0  0  0
   -3.4406   -0.1625   -0.8153 H   0  0  0  0  0  0  0  0  0  0  0  0
   -2.4765    1.5862    0.0674 N   0  0  0  0  0  0  0  0  0  0  0  0
   -3.2719    2.1966    0.2500 H   0  0  0  0  0  0  0  0  0  0  0  0
   -1.1461    1.9247    0.3650 C   0  0  0  0  0  0  0  0  0  0  0  0
   -0.7867    2.8373    0.8097 H   0  0  0  0  0  0  0  0  0  0  0  0
   -1.2868   -0.1720   -0.5807 N   0  0  0  0  0  0  0  0  0  0  0  0
  1  2  3  0  0  0  0
  3  8  2  0  0  0  0
  4  6  1  0  0  0  0
  5  4  1  0  0  0  0
  6  7  1  0  0  0  0
  6  8  1  0  0  0  0
  8  9  1  0  0  0  0
 10  4  2  0  0  0  0
 10  3  1  0  0  0  0
M  RAD  1   3   2
M  END
