Coordinates from ORCA-job Imidazole-4-N2+-scan-d09-160-n800
 OpenBabel09191814123D

 10  9  0  0  0  0  0  0  0  0999 V2000
    2.7147    0.6578    0.2303 N   0  0  0  0  0  0  0  0  0  0  0  0
    3.8106    0.5327    0.2960 N   0  0  0  0  0  0  0  0  0  0  0  0
   -0.4918    0.8129   -0.0558 C   0  0  0  0  0  0  0  0  0  0  0  0
   -2.3731    0.3230   -0.4816 C   0  0  0  0  0  0  0  0  0  0  0  0
   -3.2471   -0.2166   -0.8178 H   0  0  0  0  0  0  0  0  0  0  0  0
   -2.3667    1.5705    0.0726 N   0  0  0  0  0  0  0  0  0  0  0  0
   -3.1880    2.1501    0.2387 H   0  0  0  0  0  0  0  0  0  0  0  0
   -1.0563    1.9594    0.3903 C   0  0  0  0  0  0  0  0  0  0  0  0
   -0.7405    2.8869    0.8368 H   0  0  0  0  0  0  0  0  0  0  0  0
   -1.0997   -0.1432   -0.5473 N   0  0  0  0  0  0  0  0  0  0  0  0
  1  2  3  0  0  0  0
  3  8  2  0  0  0  0
  4  6  1  0  0  0  0
  5  4  1  0  0  0  0
  6  7  1  0  0  0  0
  6  8  1  0  0  0  0
  8  9  1  0  0  0  0
 10  4  2  0  0  0  0
 10  3  1  0  0  0  0
M  RAD  1   3   2
M  END
