Coordinates from ORCA-job Imidazole-4-N2+-scan-d09-160-n800
 OpenBabel09191814123D

 10  9  0  0  0  0  0  0  0  0999 V2000
    6.6176    5.0497    2.6110 N   0  0  0  0  0  0  0  0  0  0  0  0
    7.5286    5.5768    2.9489 N   0  0  0  0  0  0  0  0  0  0  0  0
   -3.7656   -0.8311   -1.1599 C   0  0  0  0  0  0  0  0  0  0  0  0
   -3.2726    0.8889   -0.2839 C   0  0  0  0  0  0  0  0  0  0  0  0
   -3.3325    1.8626    0.1817 H   0  0  0  0  0  0  0  0  0  0  0  0
   -2.1301    0.1811   -0.5239 N   0  0  0  0  0  0  0  0  0  0  0  0
   -1.1850    0.4849   -0.2924 H   0  0  0  0  0  0  0  0  0  0  0  0
   -2.4280   -1.0433   -1.1428 C   0  0  0  0  0  0  0  0  0  0  0  0
   -1.7333   -1.8069   -1.4499 H   0  0  0  0  0  0  0  0  0  0  0  0
   -4.3373    0.1709   -0.7265 N   0  0  0  0  0  0  0  0  0  0  0  0
  1  2  3  0  0  0  0
  3  8  2  0  0  0  0
  3 10  1  0  0  0  0
  4  5  1  0  0  0  0
  6  7  1  0  0  0  0
  6  4  1  0  0  0  0
  8  6  1  0  0  0  0
  9  8  1  0  0  0  0
 10  4  2  0  0  0  0
M  RAD  1   3   2
M  END
