Coordinates from ORCA-job Imidazole-4-N2+-scan-d09-160-n800
 OpenBabel09191814123D

 10  9  0  0  0  0  0  0  0  0999 V2000
    5.0496    4.1897    2.0548 N   0  0  0  0  0  0  0  0  0  0  0  0
    5.9596    4.7180    2.3934 N   0  0  0  0  0  0  0  0  0  0  0  0
   -3.3664   -0.6223   -1.0238 C   0  0  0  0  0  0  0  0  0  0  0  0
   -2.8876    1.1008   -0.1470 C   0  0  0  0  0  0  0  0  0  0  0  0
   -2.9549    2.0743    0.3181 H   0  0  0  0  0  0  0  0  0  0  0  0
   -1.7397    0.4000   -0.3829 N   0  0  0  0  0  0  0  0  0  0  0  0
   -0.7972    0.7096   -0.1483 H   0  0  0  0  0  0  0  0  0  0  0  0
   -2.0277   -0.8266   -1.0023 C   0  0  0  0  0  0  0  0  0  0  0  0
   -1.3271   -1.5859   -1.3068 H   0  0  0  0  0  0  0  0  0  0  0  0
   -3.9466    0.3759   -0.5930 N   0  0  0  0  0  0  0  0  0  0  0  0
  1  2  3  0  0  0  0
  3  8  2  0  0  0  0
  3 10  1  0  0  0  0
  4  5  1  0  0  0  0
  6  7  1  0  0  0  0
  6  4  1  0  0  0  0
  8  6  1  0  0  0  0
  9  8  1  0  0  0  0
 10  4  2  0  0  0  0
M  RAD  1   3   2
M  END
