Coordinates from ORCA-job Imidazole-4-N2+-scan-d09-160-n800
 OpenBabel09191814123D

 10  9  0  0  0  0  0  0  0  0999 V2000
    7.8262    5.7086    3.0380 N   0  0  0  0  0  0  0  0  0  0  0  0
    8.7381    6.2349    3.3750 N   0  0  0  0  0  0  0  0  0  0  0  0
   -4.0713   -0.9924   -1.2650 C   0  0  0  0  0  0  0  0  0  0  0  0
   -3.5713    0.7258   -0.3895 C   0  0  0  0  0  0  0  0  0  0  0  0
   -3.6272    1.6996    0.0764 H   0  0  0  0  0  0  0  0  0  0  0  0
   -2.4315    0.0144   -0.6316 N   0  0  0  0  0  0  0  0  0  0  0  0
   -1.4850    0.3150   -0.4016 H   0  0  0  0  0  0  0  0  0  0  0  0
   -2.7344   -1.2089   -1.2503 C   0  0  0  0  0  0  0  0  0  0  0  0
   -2.0427   -1.9747   -1.5588 H   0  0  0  0  0  0  0  0  0  0  0  0
   -4.6390    0.0114   -0.8304 N   0  0  0  0  0  0  0  0  0  0  0  0
  1  2  3  0  0  0  0
  3  8  2  0  0  0  0
  3 10  1  0  0  0  0
  4  5  1  0  0  0  0
  6  7  1  0  0  0  0
  6  4  1  0  0  0  0
  8  6  1  0  0  0  0
  9  8  1  0  0  0  0
 10  4  2  0  0  0  0
M  RAD  1   3   2
M  END
