Coordinates from ORCA-job Imidazole-4-N2+-scan-d09-160-n800
 OpenBabel09191814123D

 10  9  0  0  0  0  0  0  0  0999 V2000
    4.3020    0.8672    0.4989 N   0  0  0  0  0  0  0  0  0  0  0  0
    5.4017    0.8370    0.6070 N   0  0  0  0  0  0  0  0  0  0  0  0
   -1.0292    0.4345   -0.2831 C   0  0  0  0  0  0  0  0  0  0  0  0
   -3.0072    0.4383   -0.5006 C   0  0  0  0  0  0  0  0  0  0  0  0
   -4.0182    0.1426   -0.7437 H   0  0  0  0  0  0  0  0  0  0  0  0
   -2.6310    1.6220    0.0662 N   0  0  0  0  0  0  0  0  0  0  0  0
   -3.2598    2.3788    0.3322 H   0  0  0  0  0  0  0  0  0  0  0  0
   -1.2378    1.6657    0.2399 C   0  0  0  0  0  0  0  0  0  0  0  0
   -0.6570    2.4691    0.6606 H   0  0  0  0  0  0  0  0  0  0  0  0
   -1.9015   -0.3218   -0.7152 N   0  0  0  0  0  0  0  0  0  0  0  0
  1  2  3  0  0  0  0
  3  8  2  0  0  0  0
  4  6  1  0  0  0  0
  5  4  1  0  0  0  0
  6  8  1  0  0  0  0
  6  7  1  0  0  0  0
  8  9  1  0  0  0  0
 10  4  2  0  0  0  0
 10  3  1  0  0  0  0
M  RAD  1   3   2
M  END
