Coordinates from ORCA-job Imidazole-4-N2+-scan-d09-160-n800
 OpenBabel09191814123D

 10  9  0  0  0  0  0  0  0  0999 V2000
    9.0314    6.3474    3.4538 N   0  0  0  0  0  0  0  0  0  0  0  0
    9.9205    6.9028    3.8048 N   0  0  0  0  0  0  0  0  0  0  0  0
   -4.3715   -1.1543   -1.3693 C   0  0  0  0  0  0  0  0  0  0  0  0
   -3.8679    0.5632   -0.4947 C   0  0  0  0  0  0  0  0  0  0  0  0
   -3.9218    1.5372   -0.0288 H   0  0  0  0  0  0  0  0  0  0  0  0
   -2.7294   -0.1498   -0.7382 N   0  0  0  0  0  0  0  0  0  0  0  0
   -1.7823    0.1494   -0.5095 H   0  0  0  0  0  0  0  0  0  0  0  0
   -3.0349   -1.3728   -1.3562 C   0  0  0  0  0  0  0  0  0  0  0  0
   -2.3447   -2.1397   -1.6655 H   0  0  0  0  0  0  0  0  0  0  0  0
   -4.9373   -0.1497   -0.9341 N   0  0  0  0  0  0  0  0  0  0  0  0
  1  2  3  0  0  0  0
  3  8  2  0  0  0  0
  3 10  1  0  0  0  0
  4  5  1  0  0  0  0
  6  7  1  0  0  0  0
  6  4  1  0  0  0  0
  8  6  1  0  0  0  0
  9  8  1  0  0  0  0
 10  4  2  0  0  0  0
M  RAD  1   3   2
M  END
