Coordinates from ORCA-job Imidazole-4-N2+-scan-d09-160-n800
 OpenBabel09191814123D

 10  9  0  0  0  0  0  0  0  0999 V2000
    9.3300    6.5044    3.5562 N   0  0  0  0  0  0  0  0  0  0  0  0
   10.2080    7.0732    3.9134 N   0  0  0  0  0  0  0  0  0  0  0  0
   -4.4456   -1.1946   -1.3952 C   0  0  0  0  0  0  0  0  0  0  0  0
   -3.9404    0.5226   -0.5208 C   0  0  0  0  0  0  0  0  0  0  0  0
   -3.9934    1.4966   -0.0550 H   0  0  0  0  0  0  0  0  0  0  0  0
   -2.8025   -0.1912   -0.7649 N   0  0  0  0  0  0  0  0  0  0  0  0
   -1.8550    0.1074   -0.5367 H   0  0  0  0  0  0  0  0  0  0  0  0
   -3.1091   -1.4140   -1.3828 C   0  0  0  0  0  0  0  0  0  0  0  0
   -2.4196   -2.1813   -1.6924 H   0  0  0  0  0  0  0  0  0  0  0  0
   -5.0104   -0.1896   -0.9597 N   0  0  0  0  0  0  0  0  0  0  0  0
  1  2  3  0  0  0  0
  3  8  2  0  0  0  0
  3 10  1  0  0  0  0
  4  5  1  0  0  0  0
  6  7  1  0  0  0  0
  6  4  1  0  0  0  0
  8  6  1  0  0  0  0
  9  8  1  0  0  0  0
 10  4  2  0  0  0  0
M  RAD  1   3   2
M  END
