Coordinates from ORCA-job Imidazole-4-N2+-scan-d09-160-n800
 OpenBabel09191814123D

 10  9  0  0  0  0  0  0  0  0999 V2000
    1.9093    0.7023    0.1609 N   0  0  0  0  0  0  0  0  0  0  0  0
    3.0027    0.5622    0.2199 N   0  0  0  0  0  0  0  0  0  0  0  0
   -0.2604    0.8451   -0.0160 C   0  0  0  0  0  0  0  0  0  0  0  0
   -2.1330    0.2990   -0.4658 C   0  0  0  0  0  0  0  0  0  0  0  0
   -2.9936   -0.2580   -0.8082 H   0  0  0  0  0  0  0  0  0  0  0  0
   -2.1786    1.5483    0.0838 N   0  0  0  0  0  0  0  0  0  0  0  0
   -3.0189    2.1005    0.2360 H   0  0  0  0  0  0  0  0  0  0  0  0
   -0.8906    1.9675    0.4120 C   0  0  0  0  0  0  0  0  0  0  0  0
   -0.6142    2.9070    0.8593 H   0  0  0  0  0  0  0  0  0  0  0  0
   -0.8608   -0.1403   -0.5197 N   0  0  0  0  0  0  0  0  0  0  0  0
  1  2  3  0  0  0  0
  3  8  2  0  0  0  0
  4  6  1  0  0  0  0
  5  4  1  0  0  0  0
  6  7  1  0  0  0  0
  6  8  1  0  0  0  0
  8  9  1  0  0  0  0
 10  4  2  0  0  0  0
 10  3  1  0  0  0  0
M  RAD  1   3   2
M  END
