Coordinates from ORCA-job Imidazole-4-N2+-scan-d09-160-n800
 OpenBabel09191814123D

 10  9  0  0  0  0  0  0  0  0999 V2000
    4.5411    3.9096    1.8739 N   0  0  0  0  0  0  0  0  0  0  0  0
    5.4514    4.4376    2.2123 N   0  0  0  0  0  0  0  0  0  0  0  0
   -3.2352   -0.5561   -0.9803 C   0  0  0  0  0  0  0  0  0  0  0  0
   -2.7647    1.1690   -0.1030 C   0  0  0  0  0  0  0  0  0  0  0  0
   -2.8365    2.1424    0.3616 H   0  0  0  0  0  0  0  0  0  0  0  0
   -1.6137    0.4726   -0.3364 N   0  0  0  0  0  0  0  0  0  0  0  0
   -0.6728    0.7858   -0.1001 H   0  0  0  0  0  0  0  0  0  0  0  0
   -1.8958   -0.7553   -0.9561 C   0  0  0  0  0  0  0  0  0  0  0  0
   -1.1917   -1.5120   -1.2590 H   0  0  0  0  0  0  0  0  0  0  0  0
   -3.8200    0.4400   -0.5508 N   0  0  0  0  0  0  0  0  0  0  0  0
  1  2  3  0  0  0  0
  3  8  2  0  0  0  0
  3 10  1  0  0  0  0
  4  5  1  0  0  0  0
  6  4  1  0  0  0  0
  6  7  1  0  0  0  0
  8  6  1  0  0  0  0
  9  8  1  0  0  0  0
 10  4  2  0  0  0  0
M  RAD  1   3   2
M  END
