Coordinates from ORCA-job Imidazole-4-N2+-scan-d09-160-n800
 OpenBabel09191814123D

 10  9  0  0  0  0  0  0  0  0999 V2000
    2.3722    2.6756    1.0849 N   0  0  0  0  0  0  0  0  0  0  0  0
    3.2916    3.1918    1.4158 N   0  0  0  0  0  0  0  0  0  0  0  0
   -2.6378   -0.3020   -0.8041 C   0  0  0  0  0  0  0  0  0  0  0  0
   -2.2797    1.4508    0.0766 C   0  0  0  0  0  0  0  0  0  0  0  0
   -2.4165    2.4206    0.5338 H   0  0  0  0  0  0  0  0  0  0  0  0
   -1.0871    0.8175   -0.1226 N   0  0  0  0  0  0  0  0  0  0  0  0
   -0.1703    1.1857    0.1382 H   0  0  0  0  0  0  0  0  0  0  0  0
   -1.2890   -0.4259   -0.7427 C   0  0  0  0  0  0  0  0  0  0  0  0
   -0.5381   -1.1451   -1.0232 H   0  0  0  0  0  0  0  0  0  0  0  0
   -3.2831    0.6645   -0.3944 N   0  0  0  0  0  0  0  0  0  0  0  0
  1  2  3  0  0  0  0
  3  8  2  0  0  0  0
  3 10  1  0  0  0  0
  4  5  1  0  0  0  0
  6  4  1  0  0  0  0
  6  7  1  0  0  0  0
  8  6  1  0  0  0  0
  9  8  1  0  0  0  0
 10  4  2  0  0  0  0
M  RAD  1   3   2
M  END
