Coordinates from ORCA-job Imidazole-4-N2+-scan-d09-160-n800
 OpenBabel09191814123D

 10  9  0  0  0  0  0  0  0  0999 V2000
    4.0876    3.6575    1.7116 N   0  0  0  0  0  0  0  0  0  0  0  0
    4.9978    4.1857    2.0499 N   0  0  0  0  0  0  0  0  0  0  0  0
   -3.1162   -0.4986   -0.9418 C   0  0  0  0  0  0  0  0  0  0  0  0
   -2.6570    1.2295   -0.0641 C   0  0  0  0  0  0  0  0  0  0  0  0
   -2.7352    2.2027    0.3999 H   0  0  0  0  0  0  0  0  0  0  0  0
   -1.5017    0.5390   -0.2943 N   0  0  0  0  0  0  0  0  0  0  0  0
   -0.5631    0.8574   -0.0557 H   0  0  0  0  0  0  0  0  0  0  0  0
   -1.7758   -0.6906   -0.9141 C   0  0  0  0  0  0  0  0  0  0  0  0
   -1.0669   -1.4437   -1.2148 H   0  0  0  0  0  0  0  0  0  0  0  0
   -3.7074    0.4947   -0.5143 N   0  0  0  0  0  0  0  0  0  0  0  0
  1  2  3  0  0  0  0
  3  8  2  0  0  0  0
  3 10  1  0  0  0  0
  4  5  1  0  0  0  0
  6  4  1  0  0  0  0
  6  7  1  0  0  0  0
  8  6  1  0  0  0  0
  9  8  1  0  0  0  0
 10  4  2  0  0  0  0
M  RAD  1   3   2
M  END
