Coordinates from ORCA-job Imidazole-4-N2+-scan-d09-160-n800
 OpenBabel09191814123D

 10  9  0  0  0  0  0  0  0  0999 V2000
    5.1296    4.2343    2.0836 N   0  0  0  0  0  0  0  0  0  0  0  0
    6.0403    4.7618    2.4217 N   0  0  0  0  0  0  0  0  0  0  0  0
   -3.3870   -0.6328   -1.0307 C   0  0  0  0  0  0  0  0  0  0  0  0
   -2.9071    1.0900   -0.1539 C   0  0  0  0  0  0  0  0  0  0  0  0
   -2.9737    2.0635    0.3112 H   0  0  0  0  0  0  0  0  0  0  0  0
   -1.7597    0.3886   -0.3902 N   0  0  0  0  0  0  0  0  0  0  0  0
   -0.8169    0.6976   -0.1559 H   0  0  0  0  0  0  0  0  0  0  0  0
   -2.0485   -0.8378   -1.0096 C   0  0  0  0  0  0  0  0  0  0  0  0
   -1.3483   -1.5975   -1.3143 H   0  0  0  0  0  0  0  0  0  0  0  0
   -3.9666    0.3657   -0.5997 N   0  0  0  0  0  0  0  0  0  0  0  0
  1  2  3  0  0  0  0
  3  8  2  0  0  0  0
  3 10  1  0  0  0  0
  4  5  1  0  0  0  0
  6  7  1  0  0  0  0
  6  4  1  0  0  0  0
  8  6  1  0  0  0  0
  9  8  1  0  0  0  0
 10  4  2  0  0  0  0
M  RAD  1   3   2
M  END
