Coordinates from ORCA-job Imidazole-4-N2+-scan-d09-160-n800
 OpenBabel09191814123D

 10  9  0  0  0  0  0  0  0  0999 V2000
    7.4908    5.5258    2.9195 N   0  0  0  0  0  0  0  0  0  0  0  0
    8.4024    6.0524    3.2568 N   0  0  0  0  0  0  0  0  0  0  0  0
   -3.9862   -0.9471   -1.2356 C   0  0  0  0  0  0  0  0  0  0  0  0
   -3.4885    0.7712   -0.3601 C   0  0  0  0  0  0  0  0  0  0  0  0
   -3.5451    1.7450    0.1058 H   0  0  0  0  0  0  0  0  0  0  0  0
   -2.3478    0.0605   -0.6018 N   0  0  0  0  0  0  0  0  0  0  0  0
   -1.4016    0.3616   -0.3716 H   0  0  0  0  0  0  0  0  0  0  0  0
   -2.6494   -1.1632   -1.2206 C   0  0  0  0  0  0  0  0  0  0  0  0
   -1.9569   -1.9284   -1.5287 H   0  0  0  0  0  0  0  0  0  0  0  0
   -4.5558    0.0558   -0.8015 N   0  0  0  0  0  0  0  0  0  0  0  0
  1  2  3  0  0  0  0
  3  8  2  0  0  0  0
  3 10  1  0  0  0  0
  4  5  1  0  0  0  0
  6  7  1  0  0  0  0
  6  4  1  0  0  0  0
  8  6  1  0  0  0  0
  9  8  1  0  0  0  0
 10  4  2  0  0  0  0
M  RAD  1   3   2
M  END
