Coordinates from ORCA-job Imidazole-4-N2+-scan-d09-160-n800
 OpenBabel09191814123D

 10  9  0  0  0  0  0  0  0  0999 V2000
    4.4606    3.8657    1.8456 N   0  0  0  0  0  0  0  0  0  0  0  0
    5.3715    4.3930    2.1835 N   0  0  0  0  0  0  0  0  0  0  0  0
   -3.2144   -0.5458   -0.9734 C   0  0  0  0  0  0  0  0  0  0  0  0
   -2.7454    1.1798   -0.0961 C   0  0  0  0  0  0  0  0  0  0  0  0
   -2.8180    2.1531    0.3685 H   0  0  0  0  0  0  0  0  0  0  0  0
   -1.5938    0.4841   -0.3291 N   0  0  0  0  0  0  0  0  0  0  0  0
   -0.6532    0.7980   -0.0925 H   0  0  0  0  0  0  0  0  0  0  0  0
   -1.8749   -0.7440   -0.9488 C   0  0  0  0  0  0  0  0  0  0  0  0
   -1.1702   -1.5003   -1.2514 H   0  0  0  0  0  0  0  0  0  0  0  0
   -3.8001    0.4500   -0.5442 N   0  0  0  0  0  0  0  0  0  0  0  0
  1  2  3  0  0  0  0
  3  8  2  0  0  0  0
  3 10  1  0  0  0  0
  4  5  1  0  0  0  0
  6  4  1  0  0  0  0
  6  7  1  0  0  0  0
  8  6  1  0  0  0  0
  9  8  1  0  0  0  0
 10  4  2  0  0  0  0
M  RAD  1   3   2
M  END
