Coordinates from ORCA-job Imidazole-4-N2+-scan-d09-160-n800
 OpenBabel09191814123D

 10  9  0  0  0  0  0  0  0  0999 V2000
    2.8059    2.9268    1.2447 N   0  0  0  0  0  0  0  0  0  0  0  0
    3.7220    3.4472    1.5786 N   0  0  0  0  0  0  0  0  0  0  0  0
   -2.7612   -0.3502   -0.8378 C   0  0  0  0  0  0  0  0  0  0  0  0
   -2.3727    1.3958    0.0416 C   0  0  0  0  0  0  0  0  0  0  0  0
   -2.4915    2.3671    0.5008 H   0  0  0  0  0  0  0  0  0  0  0  0
   -1.1913    0.7448   -0.1675 N   0  0  0  0  0  0  0  0  0  0  0  0
   -0.2679    1.0972    0.0856 H   0  0  0  0  0  0  0  0  0  0  0  0
   -1.4148   -0.4950   -0.7872 C   0  0  0  0  0  0  0  0  0  0  0  0
   -0.6763   -1.2247   -1.0741 H   0  0  0  0  0  0  0  0  0  0  0  0
   -3.3903    0.6246   -0.4225 N   0  0  0  0  0  0  0  0  0  0  0  0
  1  2  3  0  0  0  0
  3  8  2  0  0  0  0
  3 10  1  0  0  0  0
  4  5  1  0  0  0  0
  6  4  1  0  0  0  0
  6  7  1  0  0  0  0
  8  6  1  0  0  0  0
  9  8  1  0  0  0  0
 10  4  2  0  0  0  0
M  RAD  1   3   2
M  END
