Coordinates from ORCA-job Imidazole-4-N2+-scan-d09-160-n800
 OpenBabel09191814123D

 10 10  0  0  0  0  0  0  0  0999 V2000
    1.3290    0.7466    0.1162 N   0  0  0  0  0  0  0  0  0  0  0  0
    2.4386    0.6372    0.1905 N   0  0  0  0  0  0  0  0  0  0  0  0
   -0.0038    0.8482    0.0138 C   0  0  0  0  0  0  0  0  0  0  0  0
   -1.9722    0.2716   -0.4600 C   0  0  0  0  0  0  0  0  0  0  0  0
   -2.8557   -0.2570   -0.7924 H   0  0  0  0  0  0  0  0  0  0  0  0
   -2.0313    1.5431    0.0976 N   0  0  0  0  0  0  0  0  0  0  0  0
   -2.8740    2.0904    0.2471 H   0  0  0  0  0  0  0  0  0  0  0  0
   -0.7837    1.9387    0.4113 C   0  0  0  0  0  0  0  0  0  0  0  0
   -0.5364    2.8901    0.8608 H   0  0  0  0  0  0  0  0  0  0  0  0
   -0.7485   -0.1754   -0.5228 N   0  0  0  0  0  0  0  0  0  0  0  0
  1  2  1  0  0  0  0
  3  1  1  0  0  0  0
  3  8  2  0  0  0  0
  4  6  1  0  0  0  0
  5  4  1  0  0  0  0
  6  7  1  0  0  0  0
  6  8  1  0  0  0  0
  8  9  1  0  0  0  0
 10  4  2  0  0  0  0
 10  3  1  0  0  0  0
M  RAD  2   1   2   2   3
M  END
