Coordinates from ORCA-job Imidazole-4-N2+-scan-d09-160-n800
 OpenBabel09191814123D

 10  9  0  0  0  0  0  0  0  0999 V2000
    4.3003    3.7769    1.7884 N   0  0  0  0  0  0  0  0  0  0  0  0
    5.2113    4.3041    2.1262 N   0  0  0  0  0  0  0  0  0  0  0  0
   -3.1725   -0.5254   -0.9598 C   0  0  0  0  0  0  0  0  0  0  0  0
   -2.7072    1.2011   -0.0823 C   0  0  0  0  0  0  0  0  0  0  0  0
   -2.7820    2.1744    0.3820 H   0  0  0  0  0  0  0  0  0  0  0  0
   -1.5542    0.5074   -0.3143 N   0  0  0  0  0  0  0  0  0  0  0  0
   -0.6144    0.8231   -0.0769 H   0  0  0  0  0  0  0  0  0  0  0  0
   -1.8327   -0.7213   -0.9340 C   0  0  0  0  0  0  0  0  0  0  0  0
   -1.1264   -1.4763   -1.2359 H   0  0  0  0  0  0  0  0  0  0  0  0
   -3.7603    0.4695   -0.5312 N   0  0  0  0  0  0  0  0  0  0  0  0
  1  2  3  0  0  0  0
  3  8  2  0  0  0  0
  3 10  1  0  0  0  0
  4  5  1  0  0  0  0
  6  4  1  0  0  0  0
  6  7  1  0  0  0  0
  8  6  1  0  0  0  0
  9  8  1  0  0  0  0
 10  4  2  0  0  0  0
M  RAD  1   3   2
M  END
