Coordinates from ORCA-job Imidazole-4-N2+-scan-d09-160-n800
 OpenBabel09191814123D

 10  9  0  0  0  0  0  0  0  0999 V2000
    3.9011    3.5536    1.6448 N   0  0  0  0  0  0  0  0  0  0  0  0
    4.8118    4.0812    1.9827 N   0  0  0  0  0  0  0  0  0  0  0  0
   -3.0667   -0.4755   -0.9262 C   0  0  0  0  0  0  0  0  0  0  0  0
   -2.6135    1.2541   -0.0483 C   0  0  0  0  0  0  0  0  0  0  0  0
   -2.6951    2.2272    0.4153 H   0  0  0  0  0  0  0  0  0  0  0  0
   -1.4560    0.5669   -0.2767 N   0  0  0  0  0  0  0  0  0  0  0  0
   -0.5186    0.8881   -0.0369 H   0  0  0  0  0  0  0  0  0  0  0  0
   -1.7257   -0.6636   -0.8966 C   0  0  0  0  0  0  0  0  0  0  0  0
   -1.0143   -1.4148   -1.1961 H   0  0  0  0  0  0  0  0  0  0  0  0
   -3.6612    0.5162   -0.4997 N   0  0  0  0  0  0  0  0  0  0  0  0
  1  2  3  0  0  0  0
  3  8  2  0  0  0  0
  3 10  1  0  0  0  0
  4  5  1  0  0  0  0
  6  4  1  0  0  0  0
  6  7  1  0  0  0  0
  8  6  1  0  0  0  0
  9  8  1  0  0  0  0
 10  4  2  0  0  0  0
M  RAD  1   3   2
M  END
