Coordinates from ORCA-job Imidazole-4-N2+-scan-d09-160-n800
 OpenBabel09191814123D

 10  9  0  0  0  0  0  0  0  0999 V2000
    7.9745    5.7892    3.0902 N   0  0  0  0  0  0  0  0  0  0  0  0
    8.8863    6.3155    3.4272 N   0  0  0  0  0  0  0  0  0  0  0  0
   -4.1082   -1.0120   -1.2778 C   0  0  0  0  0  0  0  0  0  0  0  0
   -3.6084    0.7058   -0.4025 C   0  0  0  0  0  0  0  0  0  0  0  0
   -3.6639    1.6796    0.0635 H   0  0  0  0  0  0  0  0  0  0  0  0
   -2.4685   -0.0059   -0.6447 N   0  0  0  0  0  0  0  0  0  0  0  0
   -1.5219    0.2943   -0.4149 H   0  0  0  0  0  0  0  0  0  0  0  0
   -2.7715   -1.2293   -1.2634 C   0  0  0  0  0  0  0  0  0  0  0  0
   -2.0798   -1.9951   -1.5720 H   0  0  0  0  0  0  0  0  0  0  0  0
   -4.6766   -0.0085   -0.8434 N   0  0  0  0  0  0  0  0  0  0  0  0
  1  2  3  0  0  0  0
  3  8  2  0  0  0  0
  3 10  1  0  0  0  0
  4  5  1  0  0  0  0
  6  7  1  0  0  0  0
  6  4  1  0  0  0  0
  8  6  1  0  0  0  0
  9  8  1  0  0  0  0
 10  4  2  0  0  0  0
M  RAD  1   3   2
M  END
