Coordinates from ORCA-job Imidazole-4-N2+-scan-d09-160-n800
 OpenBabel09191814123D

 10  9  0  0  0  0  0  0  0  0999 V2000
    4.1429    0.8040    0.4533 N   0  0  0  0  0  0  0  0  0  0  0  0
    5.2427    0.7504    0.5510 N   0  0  0  0  0  0  0  0  0  0  0  0
   -0.9484    0.5229   -0.2348 C   0  0  0  0  0  0  0  0  0  0  0  0
   -2.9169    0.4100   -0.5032 C   0  0  0  0  0  0  0  0  0  0  0  0
   -3.9022    0.0542   -0.7702 H   0  0  0  0  0  0  0  0  0  0  0  0
   -2.6255    1.6169    0.0645 N   0  0  0  0  0  0  0  0  0  0  0  0
   -3.3042    2.3371    0.3087 H   0  0  0  0  0  0  0  0  0  0  0  0
   -1.2427    1.7428    0.2736 C   0  0  0  0  0  0  0  0  0  0  0  0
   -0.7197    2.5806    0.7032 H   0  0  0  0  0  0  0  0  0  0  0  0
   -1.7639   -0.2853   -0.6837 N   0  0  0  0  0  0  0  0  0  0  0  0
  1  2  3  0  0  0  0
  3  8  2  0  0  0  0
  4  6  1  0  0  0  0
  5  4  1  0  0  0  0
  6  8  1  0  0  0  0
  6  7  1  0  0  0  0
  8  9  1  0  0  0  0
 10  4  2  0  0  0  0
 10  3  1  0  0  0  0
M  RAD  1   3   2
M  END
