Coordinates from ORCA-job Imidazole-4-N2+-scan-d09-160-n800
 OpenBabel09191814123D

 10 10  0  0  0  0  0  0  0  0999 V2000
    1.1608    0.7694    0.1077 N   0  0  0  0  0  0  0  0  0  0  0  0
    2.2898    0.6561    0.1825 N   0  0  0  0  0  0  0  0  0  0  0  0
    0.0867    0.8469    0.0231 C   0  0  0  0  0  0  0  0  0  0  0  0
   -1.9331    0.2608   -0.4605 C   0  0  0  0  0  0  0  0  0  0  0  0
   -2.8225   -0.2615   -0.7906 H   0  0  0  0  0  0  0  0  0  0  0  0
   -1.9918    1.5435    0.1021 N   0  0  0  0  0  0  0  0  0  0  0  0
   -2.8346    2.0931    0.2526 H   0  0  0  0  0  0  0  0  0  0  0  0
   -0.7588    1.9316    0.4109 C   0  0  0  0  0  0  0  0  0  0  0  0
   -0.5098    2.8843    0.8612 H   0  0  0  0  0  0  0  0  0  0  0  0
   -0.7247   -0.1908   -0.5269 N   0  0  0  0  0  0  0  0  0  0  0  0
  1  2  1  0  0  0  0
  3  1  1  0  0  0  0
  3  8  2  0  0  0  0
  4  6  1  0  0  0  0
  5  4  1  0  0  0  0
  6  7  1  0  0  0  0
  6  8  1  0  0  0  0
  8  9  1  0  0  0  0
 10  4  2  0  0  0  0
 10  3  1  0  0  0  0
M  RAD  2   1   2   2   3
M  END
