Coordinates from ORCA-job Imidazole-4-N2+-scan-d09-160-n800
 OpenBabel09191814123D

 10  9  0  0  0  0  0  0  0  0999 V2000
    4.5007    3.8871    1.8594 N   0  0  0  0  0  0  0  0  0  0  0  0
    5.4108    4.4155    2.1980 N   0  0  0  0  0  0  0  0  0  0  0  0
   -3.2251   -0.5512   -0.9770 C   0  0  0  0  0  0  0  0  0  0  0  0
   -2.7547    1.1744   -0.0995 C   0  0  0  0  0  0  0  0  0  0  0  0
   -2.8271    2.1477    0.3651 H   0  0  0  0  0  0  0  0  0  0  0  0
   -1.6036    0.4784   -0.3327 N   0  0  0  0  0  0  0  0  0  0  0  0
   -0.6630    0.7921   -0.0962 H   0  0  0  0  0  0  0  0  0  0  0  0
   -1.8854   -0.7495   -0.9523 C   0  0  0  0  0  0  0  0  0  0  0  0
   -1.1812   -1.5060   -1.2551 H   0  0  0  0  0  0  0  0  0  0  0  0
   -3.8095    0.4451   -0.5474 N   0  0  0  0  0  0  0  0  0  0  0  0
  1  2  3  0  0  0  0
  3  8  2  0  0  0  0
  3 10  1  0  0  0  0
  4  5  1  0  0  0  0
  6  4  1  0  0  0  0
  6  7  1  0  0  0  0
  8  6  1  0  0  0  0
  9  8  1  0  0  0  0
 10  4  2  0  0  0  0
M  RAD  1   3   2
M  END
