Coordinates from ORCA-job Imidazole-4-N2+-scan-d09-160-n800
 OpenBabel09191814123D

 10  9  0  0  0  0  0  0  0  0999 V2000
    3.9663    0.7570    0.4129 N   0  0  0  0  0  0  0  0  0  0  0  0
    5.0657    0.6893    0.5042 N   0  0  0  0  0  0  0  0  0  0  0  0
   -0.8777    0.5910   -0.1968 C   0  0  0  0  0  0  0  0  0  0  0  0
   -2.8328    0.3898   -0.5028 C   0  0  0  0  0  0  0  0  0  0  0  0
   -3.7960   -0.0102   -0.7871 H   0  0  0  0  0  0  0  0  0  0  0  0
   -2.6058    1.6109    0.0640 N   0  0  0  0  0  0  0  0  0  0  0  0
   -3.3203    2.3014    0.2910 H   0  0  0  0  0  0  0  0  0  0  0  0
   -1.2338    1.7990    0.2996 C   0  0  0  0  0  0  0  0  0  0  0  0
   -0.7567    2.6610    0.7348 H   0  0  0  0  0  0  0  0  0  0  0  0
   -1.6469   -0.2555   -0.6575 N   0  0  0  0  0  0  0  0  0  0  0  0
  1  2  3  0  0  0  0
  3  8  2  0  0  0  0
  4  6  1  0  0  0  0
  5  4  1  0  0  0  0
  6  7  1  0  0  0  0
  6  8  1  0  0  0  0
  8  9  1  0  0  0  0
 10  4  2  0  0  0  0
 10  3  1  0  0  0  0
M  RAD  1   3   2
M  END
