Coordinates from ORCA-job Imidazole-4-N2+-scan-d09-160-n800
 OpenBabel09191814123D

 10  9  0  0  0  0  0  0  0  0999 V2000
    9.3571    6.5187    3.5656 N   0  0  0  0  0  0  0  0  0  0  0  0
   10.2341    7.0888    3.9233 N   0  0  0  0  0  0  0  0  0  0  0  0
   -4.4523   -1.1983   -1.3976 C   0  0  0  0  0  0  0  0  0  0  0  0
   -3.9470    0.5189   -0.5232 C   0  0  0  0  0  0  0  0  0  0  0  0
   -4.0000    1.4929   -0.0574 H   0  0  0  0  0  0  0  0  0  0  0  0
   -2.8091   -0.1950   -0.7673 N   0  0  0  0  0  0  0  0  0  0  0  0
   -1.8616    0.1036   -0.5392 H   0  0  0  0  0  0  0  0  0  0  0  0
   -3.1158   -1.4177   -1.3852 C   0  0  0  0  0  0  0  0  0  0  0  0
   -2.4263   -2.1851   -1.6948 H   0  0  0  0  0  0  0  0  0  0  0  0
   -5.0171   -0.1933   -0.9621 N   0  0  0  0  0  0  0  0  0  0  0  0
  1  2  3  0  0  0  0
  3  8  2  0  0  0  0
  3 10  1  0  0  0  0
  4  5  1  0  0  0  0
  6  7  1  0  0  0  0
  6  4  1  0  0  0  0
  8  6  1  0  0  0  0
  9  8  1  0  0  0  0
 10  4  2  0  0  0  0
M  RAD  1   3   2
M  END
