Coordinates from ORCA-job Imidazole-4-N2+-scan-d09-160-n800
 OpenBabel09191814123D

 10  9  0  0  0  0  0  0  0  0999 V2000
    8.8411    6.2479    3.3889 N   0  0  0  0  0  0  0  0  0  0  0  0
    9.7368    6.7951    3.7359 N   0  0  0  0  0  0  0  0  0  0  0  0
   -4.3243   -1.1288   -1.3530 C   0  0  0  0  0  0  0  0  0  0  0  0
   -3.8217    0.5889   -0.4781 C   0  0  0  0  0  0  0  0  0  0  0  0
   -3.8762    1.5628   -0.0122 H   0  0  0  0  0  0  0  0  0  0  0  0
   -2.6828   -0.1237   -0.7212 N   0  0  0  0  0  0  0  0  0  0  0  0
   -1.7359    0.1759   -0.4922 H   0  0  0  0  0  0  0  0  0  0  0  0
   -2.9876   -1.3467   -1.3394 C   0  0  0  0  0  0  0  0  0  0  0  0
   -2.2970   -2.1133   -1.6485 H   0  0  0  0  0  0  0  0  0  0  0  0
   -4.8906   -0.1245   -0.9179 N   0  0  0  0  0  0  0  0  0  0  0  0
  1  2  3  0  0  0  0
  3  8  2  0  0  0  0
  3 10  1  0  0  0  0
  4  5  1  0  0  0  0
  6  7  1  0  0  0  0
  6  4  1  0  0  0  0
  8  6  1  0  0  0  0
  9  8  1  0  0  0  0
 10  4  2  0  0  0  0
M  RAD  1   3   2
M  END
