Coordinates from ORCA-job Imidazole-4-N2+-scan-d09-160-n800
 OpenBabel09191814123D

 10  9  0  0  0  0  0  0  0  0999 V2000
    8.2833    5.9570    3.1990 N   0  0  0  0  0  0  0  0  0  0  0  0
    9.1950    6.4836    3.5361 N   0  0  0  0  0  0  0  0  0  0  0  0
   -4.1863   -1.0537   -1.3049 C   0  0  0  0  0  0  0  0  0  0  0  0
   -3.6847    0.6640   -0.4295 C   0  0  0  0  0  0  0  0  0  0  0  0
   -3.7398    1.6378    0.0365 H   0  0  0  0  0  0  0  0  0  0  0  0
   -2.5455   -0.0482   -0.6721 N   0  0  0  0  0  0  0  0  0  0  0  0
   -1.5988    0.2516   -0.4425 H   0  0  0  0  0  0  0  0  0  0  0  0
   -2.8496   -1.2713   -1.2907 C   0  0  0  0  0  0  0  0  0  0  0  0
   -2.1585   -2.0376   -1.5995 H   0  0  0  0  0  0  0  0  0  0  0  0
   -4.7531   -0.0497   -0.8701 N   0  0  0  0  0  0  0  0  0  0  0  0
  1  2  3  0  0  0  0
  3  8  2  0  0  0  0
  3 10  1  0  0  0  0
  4  5  1  0  0  0  0
  6  7  1  0  0  0  0
  6  4  1  0  0  0  0
  8  6  1  0  0  0  0
  9  8  1  0  0  0  0
 10  4  2  0  0  0  0
M  RAD  1   3   2
M  END
