Coordinates from ORCA-job Imidazole-4-N2+-scan-d09-160-n800
 OpenBabel09191814123D

 10  9  0  0  0  0  0  0  0  0999 V2000
    9.4523    6.5690    3.5984 N   0  0  0  0  0  0  0  0  0  0  0  0
   10.3257    7.1435    3.9581 N   0  0  0  0  0  0  0  0  0  0  0  0
   -4.4753   -1.2110   -1.4058 C   0  0  0  0  0  0  0  0  0  0  0  0
   -3.9705    0.5059   -0.5316 C   0  0  0  0  0  0  0  0  0  0  0  0
   -4.0233    1.4799   -0.0657 H   0  0  0  0  0  0  0  0  0  0  0  0
   -2.8325   -0.2081   -0.7758 N   0  0  0  0  0  0  0  0  0  0  0  0
   -1.8849    0.0902   -0.5477 H   0  0  0  0  0  0  0  0  0  0  0  0
   -3.1391   -1.4310   -1.3937 C   0  0  0  0  0  0  0  0  0  0  0  0
   -2.4495   -2.1983   -1.7034 H   0  0  0  0  0  0  0  0  0  0  0  0
   -5.0409   -0.2064   -0.9706 N   0  0  0  0  0  0  0  0  0  0  0  0
  1  2  3  0  0  0  0
  3  8  2  0  0  0  0
  3 10  1  0  0  0  0
  4  5  1  0  0  0  0
  6  7  1  0  0  0  0
  6  4  1  0  0  0  0
  8  6  1  0  0  0  0
  9  8  1  0  0  0  0
 10  4  2  0  0  0  0
M  RAD  1   3   2
M  END
