Coordinates from ORCA-job Imidazole-4-N2+-scan-d09-160-n800
 OpenBabel09191814123D

 10  9  0  0  0  0  0  0  0  0999 V2000
    3.3843    3.2609    1.4574 N   0  0  0  0  0  0  0  0  0  0  0  0
    4.2963    3.7869    1.7943 N   0  0  0  0  0  0  0  0  0  0  0  0
   -2.9256   -0.4144   -0.8839 C   0  0  0  0  0  0  0  0  0  0  0  0
   -2.4966    1.3216   -0.0053 C   0  0  0  0  0  0  0  0  0  0  0  0
   -2.5922    2.2942    0.4568 H   0  0  0  0  0  0  0  0  0  0  0  0
   -1.3301    0.6479   -0.2265 N   0  0  0  0  0  0  0  0  0  0  0  0
   -0.3979    0.9808    0.0183 H   0  0  0  0  0  0  0  0  0  0  0  0
   -1.5824   -0.5862   -0.8463 C   0  0  0  0  0  0  0  0  0  0  0  0
   -0.8608   -1.3294   -1.1411 H   0  0  0  0  0  0  0  0  0  0  0  0
   -3.5329    0.5712   -0.4615 N   0  0  0  0  0  0  0  0  0  0  0  0
  1  2  3  0  0  0  0
  3  8  2  0  0  0  0
  3 10  1  0  0  0  0
  4  5  1  0  0  0  0
  6  4  1  0  0  0  0
  6  7  1  0  0  0  0
  8  6  1  0  0  0  0
  9  8  1  0  0  0  0
 10  4  2  0  0  0  0
M  RAD  1   3   2
M  END
