Coordinates from ORCA-job Imidazole-4-N2+-scan-d09-160-n800
 OpenBabel09191814123D

 10  9  0  0  0  0  0  0  0  0999 V2000
    5.6926    4.5430    2.2832 N   0  0  0  0  0  0  0  0  0  0  0  0
    6.6031    5.0707    2.6215 N   0  0  0  0  0  0  0  0  0  0  0  0
   -3.5306   -0.7073   -1.0794 C   0  0  0  0  0  0  0  0  0  0  0  0
   -3.0449    1.0141   -0.2030 C   0  0  0  0  0  0  0  0  0  0  0  0
   -3.1084    1.9877    0.2624 H   0  0  0  0  0  0  0  0  0  0  0  0
   -1.8997    0.3097   -0.4410 N   0  0  0  0  0  0  0  0  0  0  0  0
   -0.9558    0.6162   -0.2080 H   0  0  0  0  0  0  0  0  0  0  0  0
   -2.1926   -0.9159   -1.0602 C   0  0  0  0  0  0  0  0  0  0  0  0
   -1.4949   -1.6773   -1.3660 H   0  0  0  0  0  0  0  0  0  0  0  0
   -4.1069    0.2927   -0.6473 N   0  0  0  0  0  0  0  0  0  0  0  0
  1  2  3  0  0  0  0
  3  8  2  0  0  0  0
  3 10  1  0  0  0  0
  4  5  1  0  0  0  0
  6  7  1  0  0  0  0
  6  4  1  0  0  0  0
  8  6  1  0  0  0  0
  9  8  1  0  0  0  0
 10  4  2  0  0  0  0
M  RAD  1   3   2
M  END
