Coordinates from ORCA-job Imidazole-4-N2+-scan-d09-160-n800
 OpenBabel09191814123D

 10  9  0  0  0  0  0  0  0  0999 V2000
    7.2489    5.3942    2.8342 N   0  0  0  0  0  0  0  0  0  0  0  0
    8.1605    5.9207    3.1715 N   0  0  0  0  0  0  0  0  0  0  0  0
   -3.9251   -0.9149   -1.2146 C   0  0  0  0  0  0  0  0  0  0  0  0
   -3.4287    0.8038   -0.3390 C   0  0  0  0  0  0  0  0  0  0  0  0
   -3.4861    1.7776    0.1268 H   0  0  0  0  0  0  0  0  0  0  0  0
   -2.2875    0.0938   -0.5803 N   0  0  0  0  0  0  0  0  0  0  0  0
   -1.3415    0.3955   -0.3498 H   0  0  0  0  0  0  0  0  0  0  0  0
   -2.5881   -1.1301   -1.1991 C   0  0  0  0  0  0  0  0  0  0  0  0
   -1.8950   -1.8949   -1.5070 H   0  0  0  0  0  0  0  0  0  0  0  0
   -4.4954    0.0878   -0.7807 N   0  0  0  0  0  0  0  0  0  0  0  0
  1  2  3  0  0  0  0
  3  8  2  0  0  0  0
  3 10  1  0  0  0  0
  4  5  1  0  0  0  0
  6  7  1  0  0  0  0
  6  4  1  0  0  0  0
  8  6  1  0  0  0  0
  9  8  1  0  0  0  0
 10  4  2  0  0  0  0
M  RAD  1   3   2
M  END
