Coordinates from ORCA-job Imidazole-4-N2+-scan-d09-160-n800
 OpenBabel09191814123D

 10  9  0  0  0  0  0  0  0  0999 V2000
    2.2481    0.6718    0.1848 N   0  0  0  0  0  0  0  0  0  0  0  0
    3.3412    0.5238    0.2402 N   0  0  0  0  0  0  0  0  0  0  0  0
   -0.3597    0.8480   -0.0257 C   0  0  0  0  0  0  0  0  0  0  0  0
   -2.2264    0.3079   -0.4720 C   0  0  0  0  0  0  0  0  0  0  0  0
   -3.0841   -0.2526   -0.8157 H   0  0  0  0  0  0  0  0  0  0  0  0
   -2.2617    1.5567    0.0781 N   0  0  0  0  0  0  0  0  0  0  0  0
   -3.0999    2.1137    0.2325 H   0  0  0  0  0  0  0  0  0  0  0  0
   -0.9672    1.9777    0.4083 C   0  0  0  0  0  0  0  0  0  0  0  0
   -0.6829    2.9148    0.8555 H   0  0  0  0  0  0  0  0  0  0  0  0
   -0.9454   -0.1281   -0.5237 N   0  0  0  0  0  0  0  0  0  0  0  0
  1  2  3  0  0  0  0
  3  8  2  0  0  0  0
  4  6  1  0  0  0  0
  5  4  1  0  0  0  0
  6  7  1  0  0  0  0
  6  8  1  0  0  0  0
  8  9  1  0  0  0  0
 10  4  2  0  0  0  0
 10  3  1  0  0  0  0
M  RAD  1   3   2
M  END
