Coordinates from ORCA-job Imidazole-4-N2+-scan-d09-160-n800
 OpenBabel09191814123D

 10  9  0  0  0  0  0  0  0  0999 V2000
    4.0754    0.7854    0.4375 N   0  0  0  0  0  0  0  0  0  0  0  0
    5.1750    0.7264    0.5328 N   0  0  0  0  0  0  0  0  0  0  0  0
   -0.9212    0.5497   -0.2199 C   0  0  0  0  0  0  0  0  0  0  0  0
   -2.8847    0.4018   -0.5032 C   0  0  0  0  0  0  0  0  0  0  0  0
   -3.8616    0.0286   -0.7771 H   0  0  0  0  0  0  0  0  0  0  0  0
   -2.6183    1.6146    0.0642 N   0  0  0  0  0  0  0  0  0  0  0  0
   -3.3113    2.3233    0.3017 H   0  0  0  0  0  0  0  0  0  0  0  0
   -1.2391    1.7653    0.2840 C   0  0  0  0  0  0  0  0  0  0  0  0
   -0.7340    2.6129    0.7160 H   0  0  0  0  0  0  0  0  0  0  0  0
   -1.7183   -0.2744   -0.6738 N   0  0  0  0  0  0  0  0  0  0  0  0
  1  2  3  0  0  0  0
  3  8  2  0  0  0  0
  4  6  1  0  0  0  0
  5  4  1  0  0  0  0
  6  8  1  0  0  0  0
  6  7  1  0  0  0  0
  8  9  1  0  0  0  0
 10  4  2  0  0  0  0
 10  3  1  0  0  0  0
M  RAD  1   3   2
M  END
