Coordinates from ORCA-job Imidazole-4-N2+-scan-d09-160-n800
 OpenBabel09191814123D

 10  9  0  0  0  0  0  0  0  0999 V2000
    2.3099    0.6693    0.1905 N   0  0  0  0  0  0  0  0  0  0  0  0
    3.4035    0.5249    0.2476 N   0  0  0  0  0  0  0  0  0  0  0  0
   -0.3777    0.8435   -0.0297 C   0  0  0  0  0  0  0  0  0  0  0  0
   -2.2460    0.3099   -0.4733 C   0  0  0  0  0  0  0  0  0  0  0  0
   -3.1055   -0.2484   -0.8162 H   0  0  0  0  0  0  0  0  0  0  0  0
   -2.2757    1.5585    0.0774 N   0  0  0  0  0  0  0  0  0  0  0  0
   -3.1119    2.1184    0.2332 H   0  0  0  0  0  0  0  0  0  0  0  0
   -0.9789    1.9757    0.4061 C   0  0  0  0  0  0  0  0  0  0  0  0
   -0.6903    2.9115    0.8532 H   0  0  0  0  0  0  0  0  0  0  0  0
   -0.9653   -0.1298   -0.5266 N   0  0  0  0  0  0  0  0  0  0  0  0
  1  2  3  0  0  0  0
  3  8  2  0  0  0  0
  4  6  1  0  0  0  0
  5  4  1  0  0  0  0
  6  7  1  0  0  0  0
  6  8  1  0  0  0  0
  8  9  1  0  0  0  0
 10  4  2  0  0  0  0
 10  3  1  0  0  0  0
M  RAD  1   3   2
M  END
