Coordinates from ORCA-job Imidazole-4-N2+-scan-d09-160-n800
 OpenBabel09191814123D

 10  9  0  0  0  0  0  0  0  0999 V2000
    3.0258    0.6591    0.2653 N   0  0  0  0  0  0  0  0  0  0  0  0
    4.1227    0.5452    0.3360 N   0  0  0  0  0  0  0  0  0  0  0  0
   -0.5791    0.7823   -0.0790 C   0  0  0  0  0  0  0  0  0  0  0  0
   -2.4740    0.3344   -0.4877 C   0  0  0  0  0  0  0  0  0  0  0  0
   -3.3625   -0.1859   -0.8170 H   0  0  0  0  0  0  0  0  0  0  0  0
   -2.4344    1.5801    0.0693 N   0  0  0  0  0  0  0  0  0  0  0  0
   -3.2411    2.1774    0.2449 H   0  0  0  0  0  0  0  0  0  0  0  0
   -1.1126    1.9403    0.3756 C   0  0  0  0  0  0  0  0  0  0  0  0
   -0.7719    2.8595    0.8212 H   0  0  0  0  0  0  0  0  0  0  0  0
   -1.2109   -0.1586   -0.5664 N   0  0  0  0  0  0  0  0  0  0  0  0
  1  2  3  0  0  0  0
  3  8  2  0  0  0  0
  4  6  1  0  0  0  0
  5  4  1  0  0  0  0
  6  7  1  0  0  0  0
  6  8  1  0  0  0  0
  8  9  1  0  0  0  0
 10  4  2  0  0  0  0
 10  3  1  0  0  0  0
M  RAD  1   3   2
M  END
