Coordinates from ORCA-job Imidazole-4-N2+-scan-d09-160-n800
 OpenBabel09191814123D

 10  9  0  0  0  0  0  0  0  0999 V2000
    3.2135    3.1628    1.3948 N   0  0  0  0  0  0  0  0  0  0  0  0
    4.1266    3.6873    1.7309 N   0  0  0  0  0  0  0  0  0  0  0  0
   -2.8770   -0.3949   -0.8700 C   0  0  0  0  0  0  0  0  0  0  0  0
   -2.4599    1.3437    0.0087 C   0  0  0  0  0  0  0  0  0  0  0  0
   -2.5618    2.3160    0.4700 H   0  0  0  0  0  0  0  0  0  0  0  0
   -1.2891    0.6761   -0.2092 N   0  0  0  0  0  0  0  0  0  0  0  0
   -0.3592    1.0141    0.0377 H   0  0  0  0  0  0  0  0  0  0  0  0
   -1.5331   -0.5598   -0.8291 C   0  0  0  0  0  0  0  0  0  0  0  0
   -0.8066   -1.2991   -1.1217 H   0  0  0  0  0  0  0  0  0  0  0  0
   -3.4914    0.5874   -0.4499 N   0  0  0  0  0  0  0  0  0  0  0  0
  1  2  3  0  0  0  0
  3  8  2  0  0  0  0
  3 10  1  0  0  0  0
  4  5  1  0  0  0  0
  6  4  1  0  0  0  0
  6  7  1  0  0  0  0
  8  6  1  0  0  0  0
  9  8  1  0  0  0  0
 10  4  2  0  0  0  0
M  RAD  1   3   2
M  END
