Coordinates from ORCA-job Imidazole-4-N2+-scan-d09-160-n800
 OpenBabel09191814123D

 10  9  0  0  0  0  0  0  0  0999 V2000
    4.6210    3.9542    1.9027 N   0  0  0  0  0  0  0  0  0  0  0  0
    5.5317    4.4817    2.2408 N   0  0  0  0  0  0  0  0  0  0  0  0
   -3.2561   -0.5664   -0.9871 C   0  0  0  0  0  0  0  0  0  0  0  0
   -2.7838    1.1583   -0.1099 C   0  0  0  0  0  0  0  0  0  0  0  0
   -2.8547    2.1317    0.3549 H   0  0  0  0  0  0  0  0  0  0  0  0
   -1.6335    0.4609   -0.3438 N   0  0  0  0  0  0  0  0  0  0  0  0
   -0.6922    0.7734   -0.1079 H   0  0  0  0  0  0  0  0  0  0  0  0
   -1.9169   -0.7667   -0.9635 C   0  0  0  0  0  0  0  0  0  0  0  0
   -1.2135   -1.5239   -1.2667 H   0  0  0  0  0  0  0  0  0  0  0  0
   -3.8400    0.4302   -0.5573 N   0  0  0  0  0  0  0  0  0  0  0  0
  1  2  3  0  0  0  0
  3  8  2  0  0  0  0
  3 10  1  0  0  0  0
  4  5  1  0  0  0  0
  6  4  1  0  0  0  0
  6  7  1  0  0  0  0
  8  6  1  0  0  0  0
  9  8  1  0  0  0  0
 10  4  2  0  0  0  0
M  RAD  1   3   2
M  END
