Coordinates from ORCA-job Imidazole-4-N2+-scan-d09-160-n800
 OpenBabel09191814123D

 10  9  0  0  0  0  0  0  0  0999 V2000
    3.7547    3.4712    1.5919 N   0  0  0  0  0  0  0  0  0  0  0  0
    4.6654    3.9988    1.9298 N   0  0  0  0  0  0  0  0  0  0  0  0
   -3.0277   -0.4578   -0.9141 C   0  0  0  0  0  0  0  0  0  0  0  0
   -2.5794    1.2734   -0.0360 C   0  0  0  0  0  0  0  0  0  0  0  0
   -2.6642    2.2464    0.4273 H   0  0  0  0  0  0  0  0  0  0  0  0
   -1.4200    0.5892   -0.2628 N   0  0  0  0  0  0  0  0  0  0  0  0
   -0.4838    0.9131   -0.0218 H   0  0  0  0  0  0  0  0  0  0  0  0
   -1.6861   -0.6420   -0.8826 C   0  0  0  0  0  0  0  0  0  0  0  0
   -0.9725   -1.3915   -1.1811 H   0  0  0  0  0  0  0  0  0  0  0  0
   -3.6244    0.5328   -0.4884 N   0  0  0  0  0  0  0  0  0  0  0  0
  1  2  3  0  0  0  0
  3  8  2  0  0  0  0
  3 10  1  0  0  0  0
  4  5  1  0  0  0  0
  6  4  1  0  0  0  0
  6  7  1  0  0  0  0
  8  6  1  0  0  0  0
  9  8  1  0  0  0  0
 10  4  2  0  0  0  0
M  RAD  1   3   2
M  END
