Coordinates from ORCA-job Imidazole-4-N2+-scan-d09-160-n800
 OpenBabel09191814123D

 10  9  0  0  0  0  0  0  0  0999 V2000
    3.7017    3.4412    1.5727 N   0  0  0  0  0  0  0  0  0  0  0  0
    4.6124    3.9688    1.9105 N   0  0  0  0  0  0  0  0  0  0  0  0
   -3.0133   -0.4515   -0.9098 C   0  0  0  0  0  0  0  0  0  0  0  0
   -2.5673    1.2803   -0.0315 C   0  0  0  0  0  0  0  0  0  0  0  0
   -2.6534    2.2533    0.4316 H   0  0  0  0  0  0  0  0  0  0  0  0
   -1.4070    0.5974   -0.2577 N   0  0  0  0  0  0  0  0  0  0  0  0
   -0.4714    0.9224   -0.0162 H   0  0  0  0  0  0  0  0  0  0  0  0
   -1.6715   -0.6341   -0.8775 C   0  0  0  0  0  0  0  0  0  0  0  0
   -0.9570   -1.3829   -1.1756 H   0  0  0  0  0  0  0  0  0  0  0  0
   -3.6112    0.5386   -0.4844 N   0  0  0  0  0  0  0  0  0  0  0  0
  1  2  3  0  0  0  0
  3  8  2  0  0  0  0
  3 10  1  0  0  0  0
  4  5  1  0  0  0  0
  6  4  1  0  0  0  0
  6  7  1  0  0  0  0
  8  6  1  0  0  0  0
  9  8  1  0  0  0  0
 10  4  2  0  0  0  0
M  RAD  1   3   2
M  END
