Coordinates from ORCA-job Imidazole-4-N2+-scan-d09-160-n800
 OpenBabel09191814123D

 10  9  0  0  0  0  0  0  0  0999 V2000
    8.3650    6.0002    3.2271 N   0  0  0  0  0  0  0  0  0  0  0  0
    9.2752    6.5287    3.5651 N   0  0  0  0  0  0  0  0  0  0  0  0
   -4.2061   -1.0646   -1.3119 C   0  0  0  0  0  0  0  0  0  0  0  0
   -3.7053    0.6530   -0.4367 C   0  0  0  0  0  0  0  0  0  0  0  0
   -3.7603    1.6268    0.0293 H   0  0  0  0  0  0  0  0  0  0  0  0
   -2.5658   -0.0592   -0.6793 N   0  0  0  0  0  0  0  0  0  0  0  0
   -1.6190    0.2406   -0.4497 H   0  0  0  0  0  0  0  0  0  0  0  0
   -2.8695   -1.2825   -1.2979 C   0  0  0  0  0  0  0  0  0  0  0  0
   -2.1783   -2.0486   -1.6066 H   0  0  0  0  0  0  0  0  0  0  0  0
   -4.7739   -0.0609   -0.8773 N   0  0  0  0  0  0  0  0  0  0  0  0
  1  2  3  0  0  0  0
  3  8  2  0  0  0  0
  3 10  1  0  0  0  0
  4  5  1  0  0  0  0
  6  7  1  0  0  0  0
  6  4  1  0  0  0  0
  8  6  1  0  0  0  0
  9  8  1  0  0  0  0
 10  4  2  0  0  0  0
M  RAD  1   3   2
M  END
