Coordinates from ORCA-job Imidazole-4-N2+-scan-d09-160-n800
 OpenBabel09191814123D

 10  9  0  0  0  0  0  0  0  0999 V2000
    7.8801    5.7377    3.0569 N   0  0  0  0  0  0  0  0  0  0  0  0
    8.7917    6.2643    3.3940 N   0  0  0  0  0  0  0  0  0  0  0  0
   -4.0848   -0.9997   -1.2698 C   0  0  0  0  0  0  0  0  0  0  0  0
   -3.5847    0.7185   -0.3942 C   0  0  0  0  0  0  0  0  0  0  0  0
   -3.6406    1.6923    0.0717 H   0  0  0  0  0  0  0  0  0  0  0  0
   -2.4449    0.0071   -0.6364 N   0  0  0  0  0  0  0  0  0  0  0  0
   -1.4984    0.3076   -0.4064 H   0  0  0  0  0  0  0  0  0  0  0  0
   -2.7478   -1.2162   -1.2550 C   0  0  0  0  0  0  0  0  0  0  0  0
   -2.0562   -1.9821   -1.5635 H   0  0  0  0  0  0  0  0  0  0  0  0
   -4.6525    0.0041   -0.8351 N   0  0  0  0  0  0  0  0  0  0  0  0
  1  2  3  0  0  0  0
  3  8  2  0  0  0  0
  3 10  1  0  0  0  0
  4  5  1  0  0  0  0
  6  7  1  0  0  0  0
  6  4  1  0  0  0  0
  8  6  1  0  0  0  0
  9  8  1  0  0  0  0
 10  4  2  0  0  0  0
M  RAD  1   3   2
M  END
