Coordinates from ORCA-job Imidazole-4-N2+-scan-d09-160-n800
 OpenBabel09191814123D

 10  9  0  0  0  0  0  0  0  0999 V2000
    8.1088    5.8624    3.1376 N   0  0  0  0  0  0  0  0  0  0  0  0
    9.0208    6.3886    3.4745 N   0  0  0  0  0  0  0  0  0  0  0  0
   -4.1420   -1.0301   -1.2896 C   0  0  0  0  0  0  0  0  0  0  0  0
   -3.6418    0.6876   -0.4142 C   0  0  0  0  0  0  0  0  0  0  0  0
   -3.6971    1.6614    0.0517 H   0  0  0  0  0  0  0  0  0  0  0  0
   -2.5021   -0.0243   -0.6566 N   0  0  0  0  0  0  0  0  0  0  0  0
   -1.5553    0.2757   -0.4270 H   0  0  0  0  0  0  0  0  0  0  0  0
   -2.8054   -1.2476   -1.2753 C   0  0  0  0  0  0  0  0  0  0  0  0
   -2.1139   -2.0136   -1.5839 H   0  0  0  0  0  0  0  0  0  0  0  0
   -4.7101   -0.0265   -0.8550 N   0  0  0  0  0  0  0  0  0  0  0  0
  1  2  3  0  0  0  0
  3  8  2  0  0  0  0
  3 10  1  0  0  0  0
  4  5  1  0  0  0  0
  6  7  1  0  0  0  0
  6  4  1  0  0  0  0
  8  6  1  0  0  0  0
  9  8  1  0  0  0  0
 10  4  2  0  0  0  0
M  RAD  1   3   2
M  END
