Coordinates from ORCA-job Imidazole-4-N2+-scan-d09-160-n800
 OpenBabel09191814123D

 10  9  0  0  0  0  0  0  0  0999 V2000
    8.5285    6.0851    3.2825 N   0  0  0  0  0  0  0  0  0  0  0  0
    9.4341    6.6196    3.6235 N   0  0  0  0  0  0  0  0  0  0  0  0
   -4.2464   -1.0866   -1.3260 C   0  0  0  0  0  0  0  0  0  0  0  0
   -3.7456    0.6310   -0.4509 C   0  0  0  0  0  0  0  0  0  0  0  0
   -3.8006    1.6049    0.0150 H   0  0  0  0  0  0  0  0  0  0  0  0
   -2.6061   -0.0811   -0.6936 N   0  0  0  0  0  0  0  0  0  0  0  0
   -1.6593    0.2187   -0.4641 H   0  0  0  0  0  0  0  0  0  0  0  0
   -2.9098   -1.3045   -1.3121 C   0  0  0  0  0  0  0  0  0  0  0  0
   -2.2186   -2.0706   -1.6208 H   0  0  0  0  0  0  0  0  0  0  0  0
   -4.8142   -0.0829   -0.8914 N   0  0  0  0  0  0  0  0  0  0  0  0
  1  2  3  0  0  0  0
  3  8  2  0  0  0  0
  3 10  1  0  0  0  0
  4  5  1  0  0  0  0
  6  7  1  0  0  0  0
  6  4  1  0  0  0  0
  8  6  1  0  0  0  0
  9  8  1  0  0  0  0
 10  4  2  0  0  0  0
M  RAD  1   3   2
M  END
