Coordinates from ORCA-job Imidazole-4-N2+-scan-d09-160-n800
 OpenBabel09191814123D

 10  9  0  0  0  0  0  0  0  0999 V2000
    6.8997    5.2039    2.7109 N   0  0  0  0  0  0  0  0  0  0  0  0
    7.8112    5.7305    3.0484 N   0  0  0  0  0  0  0  0  0  0  0  0
   -3.8367   -0.8684   -1.1843 C   0  0  0  0  0  0  0  0  0  0  0  0
   -3.3425    0.8509   -0.3085 C   0  0  0  0  0  0  0  0  0  0  0  0
   -3.4012    1.8246    0.1572 H   0  0  0  0  0  0  0  0  0  0  0  0
   -2.2005    0.1421   -0.5491 N   0  0  0  0  0  0  0  0  0  0  0  0
   -1.2549    0.4448   -0.3181 H   0  0  0  0  0  0  0  0  0  0  0  0
   -2.4995   -1.0822   -1.1680 C   0  0  0  0  0  0  0  0  0  0  0  0
   -1.8054   -1.8463   -1.4755 H   0  0  0  0  0  0  0  0  0  0  0  0
   -4.4082    0.1337   -0.7508 N   0  0  0  0  0  0  0  0  0  0  0  0
  1  2  3  0  0  0  0
  3  8  2  0  0  0  0
  3 10  1  0  0  0  0
  4  5  1  0  0  0  0
  6  7  1  0  0  0  0
  6  4  1  0  0  0  0
  8  6  1  0  0  0  0
  9  8  1  0  0  0  0
 10  4  2  0  0  0  0
M  RAD  1   3   2
M  END
