Coordinates from ORCA-job Imidazole-4-N2+-scan-d09-160-n800
 OpenBabel09191814123D

 10  9  0  0  0  0  0  0  0  0999 V2000
    9.0586    6.3616    3.4631 N   0  0  0  0  0  0  0  0  0  0  0  0
    9.9467    6.9182    3.8146 N   0  0  0  0  0  0  0  0  0  0  0  0
   -4.3783   -1.1580   -1.3716 C   0  0  0  0  0  0  0  0  0  0  0  0
   -3.8745    0.5595   -0.4971 C   0  0  0  0  0  0  0  0  0  0  0  0
   -3.9283    1.5335   -0.0312 H   0  0  0  0  0  0  0  0  0  0  0  0
   -2.7361   -0.1536   -0.7406 N   0  0  0  0  0  0  0  0  0  0  0  0
   -1.7889    0.1456   -0.5120 H   0  0  0  0  0  0  0  0  0  0  0  0
   -3.0417   -1.3765   -1.3586 C   0  0  0  0  0  0  0  0  0  0  0  0
   -2.3516   -2.1435   -1.6680 H   0  0  0  0  0  0  0  0  0  0  0  0
   -4.9439   -0.1533   -0.9364 N   0  0  0  0  0  0  0  0  0  0  0  0
  1  2  3  0  0  0  0
  3  8  2  0  0  0  0
  3 10  1  0  0  0  0
  4  5  1  0  0  0  0
  6  7  1  0  0  0  0
  6  4  1  0  0  0  0
  8  6  1  0  0  0  0
  9  8  1  0  0  0  0
 10  4  2  0  0  0  0
M  RAD  1   3   2
M  END
