Coordinates from ORCA-job Imidazole-4-N2+-scan-d09-160-n800
 OpenBabel09191814123D

 10  9  0  0  0  0  0  0  0  0999 V2000
    9.2897    6.4831    3.5424 N   0  0  0  0  0  0  0  0  0  0  0  0
   10.1692    7.0501    3.8987 N   0  0  0  0  0  0  0  0  0  0  0  0
   -4.4352   -1.1889   -1.3915 C   0  0  0  0  0  0  0  0  0  0  0  0
   -3.9309    0.5282   -0.5173 C   0  0  0  0  0  0  0  0  0  0  0  0
   -3.9839    1.5022   -0.0514 H   0  0  0  0  0  0  0  0  0  0  0  0
   -2.7927   -0.1856   -0.7613 N   0  0  0  0  0  0  0  0  0  0  0  0
   -1.8451    0.1130   -0.5331 H   0  0  0  0  0  0  0  0  0  0  0  0
   -3.0989   -1.4086   -1.3792 C   0  0  0  0  0  0  0  0  0  0  0  0
   -2.4091   -2.1757   -1.6887 H   0  0  0  0  0  0  0  0  0  0  0  0
   -5.0011   -0.1843   -0.9563 N   0  0  0  0  0  0  0  0  0  0  0  0
  1  2  3  0  0  0  0
  3  8  2  0  0  0  0
  3 10  1  0  0  0  0
  4  5  1  0  0  0  0
  6  7  1  0  0  0  0
  6  4  1  0  0  0  0
  8  6  1  0  0  0  0
  9  8  1  0  0  0  0
 10  4  2  0  0  0  0
M  RAD  1   3   2
M  END
