Coordinates from ORCA-job Imidazole-4-N2+-scan-d09-160-n800
 OpenBabel09191814123D

 10  9  0  0  0  0  0  0  0  0999 V2000
    4.1141    3.6726    1.7212 N   0  0  0  0  0  0  0  0  0  0  0  0
    5.0245    4.2004    2.0594 N   0  0  0  0  0  0  0  0  0  0  0  0
   -3.1233   -0.5020   -0.9441 C   0  0  0  0  0  0  0  0  0  0  0  0
   -2.6633    1.2259   -0.0664 C   0  0  0  0  0  0  0  0  0  0  0  0
   -2.7410    2.1991    0.3976 H   0  0  0  0  0  0  0  0  0  0  0  0
   -1.5083    0.5351   -0.2968 N   0  0  0  0  0  0  0  0  0  0  0  0
   -0.5695    0.8531   -0.0583 H   0  0  0  0  0  0  0  0  0  0  0  0
   -1.7829   -0.6945   -0.9166 C   0  0  0  0  0  0  0  0  0  0  0  0
   -1.0744   -1.4478   -1.2174 H   0  0  0  0  0  0  0  0  0  0  0  0
   -3.7140    0.4915   -0.5165 N   0  0  0  0  0  0  0  0  0  0  0  0
  1  2  3  0  0  0  0
  3  8  2  0  0  0  0
  3 10  1  0  0  0  0
  4  5  1  0  0  0  0
  6  4  1  0  0  0  0
  6  7  1  0  0  0  0
  8  6  1  0  0  0  0
  9  8  1  0  0  0  0
 10  4  2  0  0  0  0
M  RAD  1   3   2
M  END
