Coordinates from ORCA-job Imidazole-4-N2+-scan-d09-160-n800
 OpenBabel09191814123D

 10  9  0  0  0  0  0  0  0  0999 V2000
    6.1485    4.7928    2.4448 N   0  0  0  0  0  0  0  0  0  0  0  0
    7.0592    5.3203    2.7830 N   0  0  0  0  0  0  0  0  0  0  0  0
   -3.6462   -0.7682   -1.1190 C   0  0  0  0  0  0  0  0  0  0  0  0
   -3.1572    0.9524   -0.2429 C   0  0  0  0  0  0  0  0  0  0  0  0
   -3.2188    1.9261    0.2226 H   0  0  0  0  0  0  0  0  0  0  0  0
   -2.0132    0.2463   -0.4819 N   0  0  0  0  0  0  0  0  0  0  0  0
   -1.0687    0.5513   -0.2497 H   0  0  0  0  0  0  0  0  0  0  0  0
   -2.3085   -0.9788   -1.1010 C   0  0  0  0  0  0  0  0  0  0  0  0
   -1.6123   -1.7413   -1.4074 H   0  0  0  0  0  0  0  0  0  0  0  0
   -4.2207    0.2326   -0.6863 N   0  0  0  0  0  0  0  0  0  0  0  0
  1  2  3  0  0  0  0
  3  8  2  0  0  0  0
  3 10  1  0  0  0  0
  4  5  1  0  0  0  0
  6  7  1  0  0  0  0
  6  4  1  0  0  0  0
  8  6  1  0  0  0  0
  9  8  1  0  0  0  0
 10  4  2  0  0  0  0
M  RAD  1   3   2
M  END
