Coordinates from ORCA-job Imidazole-4-N2+-scan-d09-160-n800
 OpenBabel09191814123D

 10  9  0  0  0  0  0  0  0  0999 V2000
    7.8938    5.7454    3.0618 N   0  0  0  0  0  0  0  0  0  0  0  0
    8.8057    6.2716    3.3988 N   0  0  0  0  0  0  0  0  0  0  0  0
   -4.0878   -1.0012   -1.2708 C   0  0  0  0  0  0  0  0  0  0  0  0
   -3.5884    0.7167   -0.3954 C   0  0  0  0  0  0  0  0  0  0  0  0
   -3.6441    1.6905    0.0705 H   0  0  0  0  0  0  0  0  0  0  0  0
   -2.4484    0.0052   -0.6376 N   0  0  0  0  0  0  0  0  0  0  0  0
   -1.5018    0.3056   -0.4077 H   0  0  0  0  0  0  0  0  0  0  0  0
   -2.7511   -1.2183   -1.2563 C   0  0  0  0  0  0  0  0  0  0  0  0
   -2.0593   -1.9840   -1.5647 H   0  0  0  0  0  0  0  0  0  0  0  0
   -4.6564    0.0022   -0.8364 N   0  0  0  0  0  0  0  0  0  0  0  0
  1  2  3  0  0  0  0
  3  8  2  0  0  0  0
  3 10  1  0  0  0  0
  4  5  1  0  0  0  0
  6  7  1  0  0  0  0
  6  4  1  0  0  0  0
  8  6  1  0  0  0  0
  9  8  1  0  0  0  0
 10  4  2  0  0  0  0
M  RAD  1   3   2
M  END
