Coordinates from ORCA-job Imidazole-4-N2+-scan-d09-160-n800
 OpenBabel09191814123D

 10  9  0  0  0  0  0  0  0  0999 V2000
    6.9398    5.2255    2.7249 N   0  0  0  0  0  0  0  0  0  0  0  0
    7.8509    5.7526    3.0626 N   0  0  0  0  0  0  0  0  0  0  0  0
   -3.8472   -0.8740   -1.1879 C   0  0  0  0  0  0  0  0  0  0  0  0
   -3.3521    0.8454   -0.3120 C   0  0  0  0  0  0  0  0  0  0  0  0
   -3.4107    1.8192    0.1537 H   0  0  0  0  0  0  0  0  0  0  0  0
   -2.2104    0.1365   -0.5527 N   0  0  0  0  0  0  0  0  0  0  0  0
   -1.2648    0.4393   -0.3217 H   0  0  0  0  0  0  0  0  0  0  0  0
   -2.5098   -1.0875   -1.1715 C   0  0  0  0  0  0  0  0  0  0  0  0
   -1.8161   -1.8519   -1.4791 H   0  0  0  0  0  0  0  0  0  0  0  0
   -4.4177    0.1285   -0.7541 N   0  0  0  0  0  0  0  0  0  0  0  0
  1  2  3  0  0  0  0
  3  8  2  0  0  0  0
  3 10  1  0  0  0  0
  4  5  1  0  0  0  0
  6  7  1  0  0  0  0
  6  4  1  0  0  0  0
  8  6  1  0  0  0  0
  9  8  1  0  0  0  0
 10  4  2  0  0  0  0
M  RAD  1   3   2
M  END
