Coordinates from ORCA-job Imidazole-4-N2+-scan-d09-160-n800
 OpenBabel09191814123D

 10  9  0  0  0  0  0  0  0  0999 V2000
    6.3761    4.9176    2.5255 N   0  0  0  0  0  0  0  0  0  0  0  0
    7.2870    5.4449    2.8636 N   0  0  0  0  0  0  0  0  0  0  0  0
   -3.7043   -0.7989   -1.1389 C   0  0  0  0  0  0  0  0  0  0  0  0
   -3.2131    0.9215   -0.2628 C   0  0  0  0  0  0  0  0  0  0  0  0
   -3.2739    1.8952    0.2027 H   0  0  0  0  0  0  0  0  0  0  0  0
   -2.0699    0.2147   -0.5023 N   0  0  0  0  0  0  0  0  0  0  0  0
   -1.1252    0.5192   -0.2704 H   0  0  0  0  0  0  0  0  0  0  0  0
   -2.3666   -1.0100   -1.1212 C   0  0  0  0  0  0  0  0  0  0  0  0
   -1.6711   -1.7731   -1.4280 H   0  0  0  0  0  0  0  0  0  0  0  0
   -4.2770    0.2026   -0.7058 N   0  0  0  0  0  0  0  0  0  0  0  0
  1  2  3  0  0  0  0
  3  8  2  0  0  0  0
  3 10  1  0  0  0  0
  4  5  1  0  0  0  0
  6  7  1  0  0  0  0
  6  4  1  0  0  0  0
  8  6  1  0  0  0  0
  9  8  1  0  0  0  0
 10  4  2  0  0  0  0
M  RAD  1   3   2
M  END
