Coordinates from ORCA-job Imidazole-4-N2+-scan-d09-160-n800
 OpenBabel09191814123D

 10  9  0  0  0  0  0  0  0  0999 V2000
    5.1427    4.2413    2.0881 N   0  0  0  0  0  0  0  0  0  0  0  0
    6.0531    4.7692    2.4265 N   0  0  0  0  0  0  0  0  0  0  0  0
   -3.3908   -0.6348   -1.0320 C   0  0  0  0  0  0  0  0  0  0  0  0
   -2.9100    1.0882   -0.1551 C   0  0  0  0  0  0  0  0  0  0  0  0
   -2.9766    2.0617    0.3100 H   0  0  0  0  0  0  0  0  0  0  0  0
   -1.7628    0.3867   -0.3914 N   0  0  0  0  0  0  0  0  0  0  0  0
   -0.8201    0.6958   -0.1571 H   0  0  0  0  0  0  0  0  0  0  0  0
   -2.0520   -0.8395   -1.0107 C   0  0  0  0  0  0  0  0  0  0  0  0
   -1.3522   -1.5993   -1.3155 H   0  0  0  0  0  0  0  0  0  0  0  0
   -3.9693    0.3641   -0.6007 N   0  0  0  0  0  0  0  0  0  0  0  0
  1  2  3  0  0  0  0
  3  8  2  0  0  0  0
  3 10  1  0  0  0  0
  4  5  1  0  0  0  0
  6  7  1  0  0  0  0
  6  4  1  0  0  0  0
  8  6  1  0  0  0  0
  9  8  1  0  0  0  0
 10  4  2  0  0  0  0
M  RAD  1   3   2
M  END
