Coordinates from ORCA-job Imidazole-4-N2+-scan-d09-160-n800
 OpenBabel09191814123D

 10  9  0  0  0  0  0  0  0  0999 V2000
    3.1736    3.1400    1.3802 N   0  0  0  0  0  0  0  0  0  0  0  0
    4.0869    3.6641    1.7162 N   0  0  0  0  0  0  0  0  0  0  0  0
   -2.8662   -0.3906   -0.8669 C   0  0  0  0  0  0  0  0  0  0  0  0
   -2.4509    1.3488    0.0119 C   0  0  0  0  0  0  0  0  0  0  0  0
   -2.5543    2.3210    0.4730 H   0  0  0  0  0  0  0  0  0  0  0  0
   -1.2793    0.6826   -0.2053 N   0  0  0  0  0  0  0  0  0  0  0  0
   -0.3501    1.0219    0.0423 H   0  0  0  0  0  0  0  0  0  0  0  0
   -1.5220   -0.5535   -0.8251 C   0  0  0  0  0  0  0  0  0  0  0  0
   -0.7947   -1.2922   -1.1172 H   0  0  0  0  0  0  0  0  0  0  0  0
   -3.4810    0.5914   -0.4470 N   0  0  0  0  0  0  0  0  0  0  0  0
  1  2  3  0  0  0  0
  3  8  2  0  0  0  0
  3 10  1  0  0  0  0
  4  5  1  0  0  0  0
  6  4  1  0  0  0  0
  6  7  1  0  0  0  0
  8  6  1  0  0  0  0
  9  8  1  0  0  0  0
 10  4  2  0  0  0  0
M  RAD  1   3   2
M  END
