Coordinates from ORCA-job Imidazole-4-N2+-scan-d09-160-n800
 OpenBabel09191814123D

 10  9  0  0  0  0  0  0  0  0999 V2000
    2.9947    0.6586    0.2616 N   0  0  0  0  0  0  0  0  0  0  0  0
    4.0916    0.5438    0.3319 N   0  0  0  0  0  0  0  0  0  0  0  0
   -0.5704    0.7856   -0.0766 C   0  0  0  0  0  0  0  0  0  0  0  0
   -2.4639    0.3332   -0.4871 C   0  0  0  0  0  0  0  0  0  0  0  0
   -3.3508   -0.1892   -0.8172 H   0  0  0  0  0  0  0  0  0  0  0  0
   -2.4277    1.5791    0.0696 N   0  0  0  0  0  0  0  0  0  0  0  0
   -3.2360    2.1746    0.2442 H   0  0  0  0  0  0  0  0  0  0  0  0
   -1.1070    1.9424    0.3772 C   0  0  0  0  0  0  0  0  0  0  0  0
   -0.7689    2.8625    0.8229 H   0  0  0  0  0  0  0  0  0  0  0  0
   -1.1996   -0.1570   -0.5644 N   0  0  0  0  0  0  0  0  0  0  0  0
  1  2  3  0  0  0  0
  3  8  2  0  0  0  0
  4  6  1  0  0  0  0
  5  4  1  0  0  0  0
  6  7  1  0  0  0  0
  6  8  1  0  0  0  0
  8  9  1  0  0  0  0
 10  4  2  0  0  0  0
 10  3  1  0  0  0  0
M  RAD  1   3   2
M  END
