Coordinates from ORCA-job Imidazole-4-N2+-scan-d09-160-n800
 OpenBabel09191814123D

 10  9  0  0  0  0  0  0  0  0999 V2000
    8.4600    6.0495    3.2593 N   0  0  0  0  0  0  0  0  0  0  0  0
    9.3676    6.5816    3.5990 N   0  0  0  0  0  0  0  0  0  0  0  0
   -4.2300   -1.0776   -1.3203 C   0  0  0  0  0  0  0  0  0  0  0  0
   -3.7284    0.6402   -0.4449 C   0  0  0  0  0  0  0  0  0  0  0  0
   -3.7835    1.6140    0.0210 H   0  0  0  0  0  0  0  0  0  0  0  0
   -2.5892   -0.0720   -0.6876 N   0  0  0  0  0  0  0  0  0  0  0  0
   -1.6424    0.2280   -0.4580 H   0  0  0  0  0  0  0  0  0  0  0  0
   -2.8932   -1.2951   -1.3061 C   0  0  0  0  0  0  0  0  0  0  0  0
   -2.2021   -2.0614   -1.6149 H   0  0  0  0  0  0  0  0  0  0  0  0
   -4.7968   -0.0736   -0.8854 N   0  0  0  0  0  0  0  0  0  0  0  0
  1  2  3  0  0  0  0
  3  8  2  0  0  0  0
  3 10  1  0  0  0  0
  4  5  1  0  0  0  0
  6  7  1  0  0  0  0
  6  4  1  0  0  0  0
  8  6  1  0  0  0  0
  9  8  1  0  0  0  0
 10  4  2  0  0  0  0
M  RAD  1   3   2
M  END
