Coordinates from ORCA-job Imidazole-4-N2+-scan-d09-160-n800
 OpenBabel09191814123D

 10  9  0  0  0  0  0  0  0  0999 V2000
    3.8963    0.7429    0.3988 N   0  0  0  0  0  0  0  0  0  0  0  0
    4.9956    0.6704    0.4881 N   0  0  0  0  0  0  0  0  0  0  0  0
   -0.8511    0.6125   -0.1843 C   0  0  0  0  0  0  0  0  0  0  0  0
   -2.8020    0.3836   -0.5022 C   0  0  0  0  0  0  0  0  0  0  0  0
   -3.7577   -0.0304   -0.7918 H   0  0  0  0  0  0  0  0  0  0  0  0
   -2.5960    1.6087    0.0641 N   0  0  0  0  0  0  0  0  0  0  0  0
   -3.3215    2.2895    0.2856 H   0  0  0  0  0  0  0  0  0  0  0  0
   -1.2288    1.8159    0.3076 C   0  0  0  0  0  0  0  0  0  0  0  0
   -0.7665    2.6852    0.7445 H   0  0  0  0  0  0  0  0  0  0  0  0
   -1.6063   -0.2445   -0.6482 N   0  0  0  0  0  0  0  0  0  0  0  0
  1  2  3  0  0  0  0
  3  8  2  0  0  0  0
  4  6  1  0  0  0  0
  5  4  1  0  0  0  0
  6  7  1  0  0  0  0
  6  8  1  0  0  0  0
  8  9  1  0  0  0  0
 10  4  2  0  0  0  0
 10  3  1  0  0  0  0
M  RAD  1   3   2
M  END
