Coordinates from ORCA-job Imidazole-4-N2+-scan-d09-160-n800
 OpenBabel09191814123D

 10  9  0  0  0  0  0  0  0  0999 V2000
    1.9703    0.6975    0.1654 N   0  0  0  0  0  0  0  0  0  0  0  0
    3.0638    0.5578    0.2245 N   0  0  0  0  0  0  0  0  0  0  0  0
   -0.2792    0.8441   -0.0185 C   0  0  0  0  0  0  0  0  0  0  0  0
   -2.1508    0.3006   -0.4669 C   0  0  0  0  0  0  0  0  0  0  0  0
   -3.0112   -0.2565   -0.8094 H   0  0  0  0  0  0  0  0  0  0  0  0
   -2.1933    1.5498    0.0826 N   0  0  0  0  0  0  0  0  0  0  0  0
   -3.0328    2.1037    0.2354 H   0  0  0  0  0  0  0  0  0  0  0  0
   -0.9035    1.9683    0.4112 C   0  0  0  0  0  0  0  0  0  0  0  0
   -0.6246    2.9070    0.8585 H   0  0  0  0  0  0  0  0  0  0  0  0
   -0.8768   -0.1386   -0.5207 N   0  0  0  0  0  0  0  0  0  0  0  0
  1  2  3  0  0  0  0
  3  8  2  0  0  0  0
  4  6  1  0  0  0  0
  5  4  1  0  0  0  0
  6  7  1  0  0  0  0
  6  8  1  0  0  0  0
  8  9  1  0  0  0  0
 10  4  2  0  0  0  0
 10  3  1  0  0  0  0
M  RAD  1   3   2
M  END
