Coordinates from ORCA-job Imidazole-4-N2+-scan-d09-160-n800
 OpenBabel09191814123D

 10  9  0  0  0  0  0  0  0  0999 V2000
    8.4195    6.0285    3.2456 N   0  0  0  0  0  0  0  0  0  0  0  0
    9.3282    6.5590    3.5846 N   0  0  0  0  0  0  0  0  0  0  0  0
   -4.2195   -1.0719   -1.3166 C   0  0  0  0  0  0  0  0  0  0  0  0
   -3.7188    0.6457   -0.4414 C   0  0  0  0  0  0  0  0  0  0  0  0
   -3.7738    1.6195    0.0246 H   0  0  0  0  0  0  0  0  0  0  0  0
   -2.5793   -0.0665   -0.6840 N   0  0  0  0  0  0  0  0  0  0  0  0
   -1.6324    0.2333   -0.4545 H   0  0  0  0  0  0  0  0  0  0  0  0
   -2.8829   -1.2898   -1.3026 C   0  0  0  0  0  0  0  0  0  0  0  0
   -2.1917   -2.0559   -1.6113 H   0  0  0  0  0  0  0  0  0  0  0  0
   -4.7874   -0.0682   -0.8820 N   0  0  0  0  0  0  0  0  0  0  0  0
  1  2  3  0  0  0  0
  3  8  2  0  0  0  0
  3 10  1  0  0  0  0
  4  5  1  0  0  0  0
  6  7  1  0  0  0  0
  6  4  1  0  0  0  0
  8  6  1  0  0  0  0
  9  8  1  0  0  0  0
 10  4  2  0  0  0  0
M  RAD  1   3   2
M  END
