Coordinates from ORCA-job Imidazole-4-N2+-scan-d09-160-n800
 OpenBabel09191814123D

 10  9  0  0  0  0  0  0  0  0999 V2000
    3.1497    0.6620    0.2803 N   0  0  0  0  0  0  0  0  0  0  0  0
    4.2470    0.5522    0.3529 N   0  0  0  0  0  0  0  0  0  0  0  0
   -0.6143    0.7680   -0.0892 C   0  0  0  0  0  0  0  0  0  0  0  0
   -2.5153    0.3393   -0.4901 C   0  0  0  0  0  0  0  0  0  0  0  0
   -3.4102   -0.1719   -0.8161 H   0  0  0  0  0  0  0  0  0  0  0  0
   -2.4607    1.5839    0.0681 N   0  0  0  0  0  0  0  0  0  0  0  0
   -3.2607    2.1891    0.2479 H   0  0  0  0  0  0  0  0  0  0  0  0
   -1.1340    1.9308    0.3691 C   0  0  0  0  0  0  0  0  0  0  0  0
   -0.7822    2.8462    0.8142 H   0  0  0  0  0  0  0  0  0  0  0  0
   -1.2573   -0.1659   -0.5748 N   0  0  0  0  0  0  0  0  0  0  0  0
  1  2  3  0  0  0  0
  3  8  2  0  0  0  0
  4  6  1  0  0  0  0
  5  4  1  0  0  0  0
  6  7  1  0  0  0  0
  6  8  1  0  0  0  0
  8  9  1  0  0  0  0
 10  4  2  0  0  0  0
 10  3  1  0  0  0  0
M  RAD  1   3   2
M  END
