Coordinates from ORCA-job Imidazole-4-N2+-scan-d09-160-n800
 OpenBabel09191814123D

 10  9  0  0  0  0  0  0  0  0999 V2000
    8.8007    6.2268    3.3751 N   0  0  0  0  0  0  0  0  0  0  0  0
    9.6978    6.7722    3.7213 N   0  0  0  0  0  0  0  0  0  0  0  0
   -4.3138   -1.1232   -1.3493 C   0  0  0  0  0  0  0  0  0  0  0  0
   -3.8122    0.5944   -0.4746 C   0  0  0  0  0  0  0  0  0  0  0  0
   -3.8667    1.5683   -0.0087 H   0  0  0  0  0  0  0  0  0  0  0  0
   -2.6730   -0.1181   -0.7176 N   0  0  0  0  0  0  0  0  0  0  0  0
   -1.7260    0.1815   -0.4886 H   0  0  0  0  0  0  0  0  0  0  0  0
   -2.9773   -1.3414   -1.3359 C   0  0  0  0  0  0  0  0  0  0  0  0
   -2.2864   -2.1078   -1.6449 H   0  0  0  0  0  0  0  0  0  0  0  0
   -4.8812   -0.1192   -0.9146 N   0  0  0  0  0  0  0  0  0  0  0  0
  1  2  3  0  0  0  0
  3  8  2  0  0  0  0
  3 10  1  0  0  0  0
  4  5  1  0  0  0  0
  6  7  1  0  0  0  0
  6  4  1  0  0  0  0
  8  6  1  0  0  0  0
  9  8  1  0  0  0  0
 10  4  2  0  0  0  0
M  RAD  1   3   2
M  END
