Coordinates from ORCA-job Imidazole-4-N2+-scan-d09-160-n800
 OpenBabel09191814123D

 10  9  0  0  0  0  0  0  0  0999 V2000
    3.3313    3.2311    1.4383 N   0  0  0  0  0  0  0  0  0  0  0  0
    4.2439    3.7562    1.7747 N   0  0  0  0  0  0  0  0  0  0  0  0
   -2.9109   -0.4083   -0.8796 C   0  0  0  0  0  0  0  0  0  0  0  0
   -2.4850    1.3285   -0.0009 C   0  0  0  0  0  0  0  0  0  0  0  0
   -2.5823    2.3010    0.4609 H   0  0  0  0  0  0  0  0  0  0  0  0
   -1.3173    0.6565   -0.2212 N   0  0  0  0  0  0  0  0  0  0  0  0
   -0.3858    0.9908    0.0242 H   0  0  0  0  0  0  0  0  0  0  0  0
   -1.5675   -0.5781   -0.8411 C   0  0  0  0  0  0  0  0  0  0  0  0
   -0.8445   -1.3203   -1.1353 H   0  0  0  0  0  0  0  0  0  0  0  0
   -3.5199    0.5764   -0.4577 N   0  0  0  0  0  0  0  0  0  0  0  0
  1  2  3  0  0  0  0
  3  8  2  0  0  0  0
  3 10  1  0  0  0  0
  4  5  1  0  0  0  0
  6  4  1  0  0  0  0
  6  7  1  0  0  0  0
  8  6  1  0  0  0  0
  9  8  1  0  0  0  0
 10  4  2  0  0  0  0
M  RAD  1   3   2
M  END
