Coordinates from ORCA-job Imidazole-4-N2+-scan-d09-160-n800
 OpenBabel09191814123D

 10  9  0  0  0  0  0  0  0  0999 V2000
    7.1951    5.3650    2.8153 N   0  0  0  0  0  0  0  0  0  0  0  0
    8.1068    5.8915    3.1526 N   0  0  0  0  0  0  0  0  0  0  0  0
   -3.9115   -0.9077   -1.2099 C   0  0  0  0  0  0  0  0  0  0  0  0
   -3.4154    0.8110   -0.3343 C   0  0  0  0  0  0  0  0  0  0  0  0
   -3.4730    1.7848    0.1315 H   0  0  0  0  0  0  0  0  0  0  0  0
   -2.2741    0.1013   -0.5755 N   0  0  0  0  0  0  0  0  0  0  0  0
   -1.3282    0.4031   -0.3449 H   0  0  0  0  0  0  0  0  0  0  0  0
   -2.5745   -1.1228   -1.1943 C   0  0  0  0  0  0  0  0  0  0  0  0
   -1.8813   -1.8875   -1.5021 H   0  0  0  0  0  0  0  0  0  0  0  0
   -4.4820    0.0948   -0.7761 N   0  0  0  0  0  0  0  0  0  0  0  0
  1  2  3  0  0  0  0
  3  8  2  0  0  0  0
  3 10  1  0  0  0  0
  4  5  1  0  0  0  0
  6  7  1  0  0  0  0
  6  4  1  0  0  0  0
  8  6  1  0  0  0  0
  9  8  1  0  0  0  0
 10  4  2  0  0  0  0
M  RAD  1   3   2
M  END
