Coordinates from ORCA-job Imidazole-4-N2+-scan-d09-160-n800
 OpenBabel09191814123D

 10  9  0  0  0  0  0  0  0  0999 V2000
    2.1326    2.5410    0.9986 N   0  0  0  0  0  0  0  0  0  0  0  0
    3.0523    3.0564    1.3289 N   0  0  0  0  0  0  0  0  0  0  0  0
   -2.5733   -0.2738   -0.7846 C   0  0  0  0  0  0  0  0  0  0  0  0
   -2.2248    1.4812    0.0961 C   0  0  0  0  0  0  0  0  0  0  0  0
   -2.3676    2.4505    0.5525 H   0  0  0  0  0  0  0  0  0  0  0  0
   -1.0282    0.8547   -0.0995 N   0  0  0  0  0  0  0  0  0  0  0  0
   -0.1132    1.2295    0.1644 H   0  0  0  0  0  0  0  0  0  0  0  0
   -1.2234   -0.3900   -0.7196 C   0  0  0  0  0  0  0  0  0  0  0  0
   -0.4684   -1.1057   -0.9980 H   0  0  0  0  0  0  0  0  0  0  0  0
   -3.2239    0.6899   -0.3768 N   0  0  0  0  0  0  0  0  0  0  0  0
  1  2  3  0  0  0  0
  3  8  2  0  0  0  0
  3 10  1  0  0  0  0
  4  5  1  0  0  0  0
  6  4  1  0  0  0  0
  6  7  1  0  0  0  0
  8  6  1  0  0  0  0
  9  8  1  0  0  0  0
 10  4  2  0  0  0  0
M  RAD  1   3   2
M  END
