Coordinates from ORCA-job Imidazole-4-N2+-scan-d09-160-n800
 OpenBabel09191814123D

 10  9  0  0  0  0  0  0  0  0999 V2000
    5.7460    4.5727    2.3024 N   0  0  0  0  0  0  0  0  0  0  0  0
    6.6569    5.0999    2.6403 N   0  0  0  0  0  0  0  0  0  0  0  0
   -3.5443   -0.7143   -1.0840 C   0  0  0  0  0  0  0  0  0  0  0  0
   -3.0580    1.0069   -0.2076 C   0  0  0  0  0  0  0  0  0  0  0  0
   -3.1210    1.9805    0.2578 H   0  0  0  0  0  0  0  0  0  0  0  0
   -1.9130    0.3021   -0.4458 N   0  0  0  0  0  0  0  0  0  0  0  0
   -0.9689    0.6083   -0.2130 H   0  0  0  0  0  0  0  0  0  0  0  0
   -2.2064   -0.9233   -1.0650 C   0  0  0  0  0  0  0  0  0  0  0  0
   -1.5090   -1.6850   -1.3710 H   0  0  0  0  0  0  0  0  0  0  0  0
   -4.1203    0.2859   -0.6518 N   0  0  0  0  0  0  0  0  0  0  0  0
  1  2  3  0  0  0  0
  3  8  2  0  0  0  0
  3 10  1  0  0  0  0
  4  5  1  0  0  0  0
  6  7  1  0  0  0  0
  6  4  1  0  0  0  0
  8  6  1  0  0  0  0
  9  8  1  0  0  0  0
 10  4  2  0  0  0  0
M  RAD  1   3   2
M  END
