Coordinates from ORCA-job Imidazole-4-N2+-scan-d09-160-n800
 OpenBabel09191814123D

 10  9  0  0  0  0  0  0  0  0999 V2000
    7.4639    5.5112    2.9101 N   0  0  0  0  0  0  0  0  0  0  0  0
    8.3755    6.0378    3.2473 N   0  0  0  0  0  0  0  0  0  0  0  0
   -3.9794   -0.9436   -1.2333 C   0  0  0  0  0  0  0  0  0  0  0  0
   -3.4818    0.7748   -0.3578 C   0  0  0  0  0  0  0  0  0  0  0  0
   -3.5385    1.7486    0.1081 H   0  0  0  0  0  0  0  0  0  0  0  0
   -2.3411    0.0642   -0.5994 N   0  0  0  0  0  0  0  0  0  0  0  0
   -1.3949    0.3654   -0.3691 H   0  0  0  0  0  0  0  0  0  0  0  0
   -2.6426   -1.1595   -1.2182 C   0  0  0  0  0  0  0  0  0  0  0  0
   -1.9500   -1.9247   -1.5263 H   0  0  0  0  0  0  0  0  0  0  0  0
   -4.5490    0.0594   -0.7992 N   0  0  0  0  0  0  0  0  0  0  0  0
  1  2  3  0  0  0  0
  3  8  2  0  0  0  0
  3 10  1  0  0  0  0
  4  5  1  0  0  0  0
  6  7  1  0  0  0  0
  6  4  1  0  0  0  0
  8  6  1  0  0  0  0
  9  8  1  0  0  0  0
 10  4  2  0  0  0  0
M  RAD  1   3   2
M  END
