Coordinates from ORCA-job Imidazole-4-N2+-scan-d09-160-n800
 OpenBabel09191814123D

 10  9  0  0  0  0  0  0  0  0999 V2000
    6.3632    4.9102    2.5207 N   0  0  0  0  0  0  0  0  0  0  0  0
    7.2739    5.4378    2.8590 N   0  0  0  0  0  0  0  0  0  0  0  0
   -3.7005   -0.7969   -1.1376 C   0  0  0  0  0  0  0  0  0  0  0  0
   -3.2103    0.9233   -0.2617 C   0  0  0  0  0  0  0  0  0  0  0  0
   -3.2711    1.8970    0.2039 H   0  0  0  0  0  0  0  0  0  0  0  0
   -2.0668    0.2166   -0.5011 N   0  0  0  0  0  0  0  0  0  0  0  0
   -1.1219    0.5210   -0.2692 H   0  0  0  0  0  0  0  0  0  0  0  0
   -2.3630   -1.0084   -1.1201 C   0  0  0  0  0  0  0  0  0  0  0  0
   -1.6673   -1.7713   -1.4268 H   0  0  0  0  0  0  0  0  0  0  0  0
   -4.2743    0.2042   -0.7048 N   0  0  0  0  0  0  0  0  0  0  0  0
  1  2  3  0  0  0  0
  3  8  2  0  0  0  0
  3 10  1  0  0  0  0
  4  5  1  0  0  0  0
  6  7  1  0  0  0  0
  6  4  1  0  0  0  0
  8  6  1  0  0  0  0
  9  8  1  0  0  0  0
 10  4  2  0  0  0  0
M  RAD  1   3   2
M  END
