Coordinates from ORCA-job Imidazole-4-N2+-scan-d09-160-n800
 OpenBabel09191814123D

 10  9  0  0  0  0  0  0  0  0999 V2000
    4.2702    0.8459    0.4859 N   0  0  0  0  0  0  0  0  0  0  0  0
    5.3699    0.8069    0.5902 N   0  0  0  0  0  0  0  0  0  0  0  0
   -1.0082    0.4640   -0.2677 C   0  0  0  0  0  0  0  0  0  0  0  0
   -2.9829    0.4287   -0.5022 C   0  0  0  0  0  0  0  0  0  0  0  0
   -3.9859    0.1131   -0.7533 H   0  0  0  0  0  0  0  0  0  0  0  0
   -2.6342    1.6205    0.0651 N   0  0  0  0  0  0  0  0  0  0  0  0
   -3.2797    2.3655    0.3241 H   0  0  0  0  0  0  0  0  0  0  0  0
   -1.2431    1.6918    0.2509 C   0  0  0  0  0  0  0  0  0  0  0  0
   -0.6829    2.5081    0.6750 H   0  0  0  0  0  0  0  0  0  0  0  0
   -1.8611   -0.3109   -0.7059 N   0  0  0  0  0  0  0  0  0  0  0  0
  1  2  3  0  0  0  0
  3  8  2  0  0  0  0
  4  6  1  0  0  0  0
  5  4  1  0  0  0  0
  6  8  1  0  0  0  0
  6  7  1  0  0  0  0
  8  9  1  0  0  0  0
 10  4  2  0  0  0  0
 10  3  1  0  0  0  0
M  RAD  1   3   2
M  END
