Coordinates from ORCA-job Imidazole-4-N2+-scan-d09-160-n800
 OpenBabel09191814123D

 10  9  0  0  0  0  0  0  0  0999 V2000
    2.0619    0.6905    0.1725 N   0  0  0  0  0  0  0  0  0  0  0  0
    3.1557    0.5520    0.2321 N   0  0  0  0  0  0  0  0  0  0  0  0
   -0.3071    0.8421   -0.0225 C   0  0  0  0  0  0  0  0  0  0  0  0
   -2.1778    0.3031   -0.4688 C   0  0  0  0  0  0  0  0  0  0  0  0
   -3.0382   -0.2541   -0.8113 H   0  0  0  0  0  0  0  0  0  0  0  0
   -2.2153    1.5520    0.0812 N   0  0  0  0  0  0  0  0  0  0  0  0
   -3.0533    2.1084    0.2352 H   0  0  0  0  0  0  0  0  0  0  0  0
   -0.9227    1.9694    0.4095 C   0  0  0  0  0  0  0  0  0  0  0  0
   -0.6397    2.9068    0.8567 H   0  0  0  0  0  0  0  0  0  0  0  0
   -0.9015   -0.1365   -0.5225 N   0  0  0  0  0  0  0  0  0  0  0  0
  1  2  3  0  0  0  0
  3  8  2  0  0  0  0
  4  6  1  0  0  0  0
  5  4  1  0  0  0  0
  6  7  1  0  0  0  0
  6  8  1  0  0  0  0
  8  9  1  0  0  0  0
 10  4  2  0  0  0  0
 10  3  1  0  0  0  0
M  RAD  1   3   2
M  END
