Coordinates from ORCA-job Imidazole-4-N2+-scan-d09-160-n800
 OpenBabel09191814123D

 10  9  0  0  0  0  0  0  0  0999 V2000
    7.3427    5.4450    2.8672 N   0  0  0  0  0  0  0  0  0  0  0  0
    8.2540    5.9720    3.2047 N   0  0  0  0  0  0  0  0  0  0  0  0
   -3.9492   -0.9277   -1.2229 C   0  0  0  0  0  0  0  0  0  0  0  0
   -3.4515    0.7911   -0.3472 C   0  0  0  0  0  0  0  0  0  0  0  0
   -3.5087    1.7649    0.1186 H   0  0  0  0  0  0  0  0  0  0  0  0
   -2.3108    0.0809   -0.5886 N   0  0  0  0  0  0  0  0  0  0  0  0
   -1.3648    0.3825   -0.3582 H   0  0  0  0  0  0  0  0  0  0  0  0
   -2.6121   -1.1428   -1.2073 C   0  0  0  0  0  0  0  0  0  0  0  0
   -1.9194   -1.9079   -1.5154 H   0  0  0  0  0  0  0  0  0  0  0  0
   -4.5182    0.0755   -0.7887 N   0  0  0  0  0  0  0  0  0  0  0  0
  1  2  3  0  0  0  0
  3  8  2  0  0  0  0
  3 10  1  0  0  0  0
  4  5  1  0  0  0  0
  6  7  1  0  0  0  0
  6  4  1  0  0  0  0
  8  6  1  0  0  0  0
  9  8  1  0  0  0  0
 10  4  2  0  0  0  0
M  RAD  1   3   2
M  END
