Coordinates from ORCA-job Imidazole-4-N2+-scan-d09-160-n800
 OpenBabel09191814123D

 10  9  0  0  0  0  0  0  0  0999 V2000
    6.3364    4.8956    2.5112 N   0  0  0  0  0  0  0  0  0  0  0  0
    7.2470    5.4231    2.8495 N   0  0  0  0  0  0  0  0  0  0  0  0
   -3.6938   -0.7933   -1.1353 C   0  0  0  0  0  0  0  0  0  0  0  0
   -3.2036    0.9270   -0.2593 C   0  0  0  0  0  0  0  0  0  0  0  0
   -3.2645    1.9007    0.2062 H   0  0  0  0  0  0  0  0  0  0  0  0
   -2.0601    0.2203   -0.4987 N   0  0  0  0  0  0  0  0  0  0  0  0
   -1.1153    0.5248   -0.2668 H   0  0  0  0  0  0  0  0  0  0  0  0
   -2.3562   -1.0047   -1.1177 C   0  0  0  0  0  0  0  0  0  0  0  0
   -1.6604   -1.7675   -1.4244 H   0  0  0  0  0  0  0  0  0  0  0  0
   -4.2676    0.2078   -0.7025 N   0  0  0  0  0  0  0  0  0  0  0  0
  1  2  3  0  0  0  0
  3  8  2  0  0  0  0
  3 10  1  0  0  0  0
  4  5  1  0  0  0  0
  6  7  1  0  0  0  0
  6  4  1  0  0  0  0
  8  6  1  0  0  0  0
  9  8  1  0  0  0  0
 10  4  2  0  0  0  0
M  RAD  1   3   2
M  END
