Coordinates from ORCA-job Imidazole-4-N2+-scan-d09-160-n800
 OpenBabel09191814123D

 10  9  0  0  0  0  0  0  0  0999 V2000
    1.9851    0.6966    0.1667 N   0  0  0  0  0  0  0  0  0  0  0  0
    3.0787    0.5574    0.2260 N   0  0  0  0  0  0  0  0  0  0  0  0
   -0.2843    0.8433   -0.0194 C   0  0  0  0  0  0  0  0  0  0  0  0
   -2.1556    0.3010   -0.4673 C   0  0  0  0  0  0  0  0  0  0  0  0
   -3.0159   -0.2563   -0.8098 H   0  0  0  0  0  0  0  0  0  0  0  0
   -2.1968    1.5500    0.0824 N   0  0  0  0  0  0  0  0  0  0  0  0
   -3.0359    2.1045    0.2355 H   0  0  0  0  0  0  0  0  0  0  0  0
   -0.9062    1.9685    0.4109 C   0  0  0  0  0  0  0  0  0  0  0  0
   -0.6263    2.9068    0.8582 H   0  0  0  0  0  0  0  0  0  0  0  0
   -0.8808   -0.1383   -0.5210 N   0  0  0  0  0  0  0  0  0  0  0  0
  1  2  3  0  0  0  0
  3  8  2  0  0  0  0
  4  6  1  0  0  0  0
  5  4  1  0  0  0  0
  6  7  1  0  0  0  0
  6  8  1  0  0  0  0
  8  9  1  0  0  0  0
 10  4  2  0  0  0  0
 10  3  1  0  0  0  0
M  RAD  1   3   2
M  END
