Coordinates from ORCA-job Imidazole-4-N2+-scan-d09-160-n800
 OpenBabel09191814123D

 10  9  0  0  0  0  0  0  0  0999 V2000
    3.3575    3.2464    1.4480 N   0  0  0  0  0  0  0  0  0  0  0  0
    4.2703    3.7713    1.7844 N   0  0  0  0  0  0  0  0  0  0  0  0
   -2.9183   -0.4114   -0.8817 C   0  0  0  0  0  0  0  0  0  0  0  0
   -2.4907    1.3250   -0.0031 C   0  0  0  0  0  0  0  0  0  0  0  0
   -2.5872    2.2976    0.4588 H   0  0  0  0  0  0  0  0  0  0  0  0
   -1.3237    0.6521   -0.2239 N   0  0  0  0  0  0  0  0  0  0  0  0
   -0.3918    0.9857    0.0212 H   0  0  0  0  0  0  0  0  0  0  0  0
   -1.5750   -0.5822   -0.8437 C   0  0  0  0  0  0  0  0  0  0  0  0
   -0.8527   -1.3249   -1.1382 H   0  0  0  0  0  0  0  0  0  0  0  0
   -3.5264    0.5738   -0.4596 N   0  0  0  0  0  0  0  0  0  0  0  0
  1  2  3  0  0  0  0
  3  8  2  0  0  0  0
  3 10  1  0  0  0  0
  4  5  1  0  0  0  0
  6  4  1  0  0  0  0
  6  7  1  0  0  0  0
  8  6  1  0  0  0  0
  9  8  1  0  0  0  0
 10  4  2  0  0  0  0
M  RAD  1   3   2
M  END
