Coordinates from ORCA-job Imidazole-4-N2+-scan-d09-160-n800
 OpenBabel09191814123D

 10  9  0  0  0  0  0  0  0  0999 V2000
    7.7057    5.6430    2.9954 N   0  0  0  0  0  0  0  0  0  0  0  0
    8.6175    6.1693    3.3325 N   0  0  0  0  0  0  0  0  0  0  0  0
   -4.0404   -0.9760   -1.2544 C   0  0  0  0  0  0  0  0  0  0  0  0
   -3.5417    0.7421   -0.3789 C   0  0  0  0  0  0  0  0  0  0  0  0
   -3.5979    1.7159    0.0870 H   0  0  0  0  0  0  0  0  0  0  0  0
   -2.4015    0.0310   -0.6209 N   0  0  0  0  0  0  0  0  0  0  0  0
   -1.4550    0.3317   -0.3909 H   0  0  0  0  0  0  0  0  0  0  0  0
   -2.7037   -1.1926   -1.2396 C   0  0  0  0  0  0  0  0  0  0  0  0
   -2.0115   -1.9581   -1.5479 H   0  0  0  0  0  0  0  0  0  0  0  0
   -4.6094    0.0272   -0.8201 N   0  0  0  0  0  0  0  0  0  0  0  0
  1  2  3  0  0  0  0
  3  8  2  0  0  0  0
  3 10  1  0  0  0  0
  4  5  1  0  0  0  0
  6  7  1  0  0  0  0
  6  4  1  0  0  0  0
  8  6  1  0  0  0  0
  9  8  1  0  0  0  0
 10  4  2  0  0  0  0
M  RAD  1   3   2
M  END
