Coordinates from ORCA-job Imidazole-4-N2+-scan-d09-160-n800
 OpenBabel09191814123D

 10  9  0  0  0  0  0  0  0  0999 V2000
    9.1672    6.4187    3.5003 N   0  0  0  0  0  0  0  0  0  0  0  0
   10.0513    6.9801    3.8541 N   0  0  0  0  0  0  0  0  0  0  0  0
   -4.4053   -1.1726   -1.3810 C   0  0  0  0  0  0  0  0  0  0  0  0
   -3.9009    0.5448   -0.5065 C   0  0  0  0  0  0  0  0  0  0  0  0
   -3.9543    1.5188   -0.0407 H   0  0  0  0  0  0  0  0  0  0  0  0
   -2.7627   -0.1686   -0.7503 N   0  0  0  0  0  0  0  0  0  0  0  0
   -1.8153    0.1303   -0.5219 H   0  0  0  0  0  0  0  0  0  0  0  0
   -3.0687   -1.3915   -1.3683 C   0  0  0  0  0  0  0  0  0  0  0  0
   -2.3789   -2.1586   -1.6777 H   0  0  0  0  0  0  0  0  0  0  0  0
   -4.9705   -0.1678   -0.9457 N   0  0  0  0  0  0  0  0  0  0  0  0
  1  2  3  0  0  0  0
  3  8  2  0  0  0  0
  3 10  1  0  0  0  0
  4  5  1  0  0  0  0
  6  7  1  0  0  0  0
  6  4  1  0  0  0  0
  8  6  1  0  0  0  0
  9  8  1  0  0  0  0
 10  4  2  0  0  0  0
M  RAD  1   3   2
M  END
