Coordinates from ORCA-job Imidazole-4-N2+-scan-d09-160-n800
 OpenBabel09191814123D

 10  9  0  0  0  0  0  0  0  0999 V2000
    9.5336    6.6121    3.6265 N   0  0  0  0  0  0  0  0  0  0  0  0
   10.4038    7.1903    3.9878 N   0  0  0  0  0  0  0  0  0  0  0  0
   -4.4952   -1.2222   -1.4131 C   0  0  0  0  0  0  0  0  0  0  0  0
   -3.9904    0.4947   -0.5388 C   0  0  0  0  0  0  0  0  0  0  0  0
   -4.0431    1.4687   -0.0729 H   0  0  0  0  0  0  0  0  0  0  0  0
   -2.8524   -0.2194   -0.7830 N   0  0  0  0  0  0  0  0  0  0  0  0
   -1.9048    0.0789   -0.5549 H   0  0  0  0  0  0  0  0  0  0  0  0
   -3.1590   -1.4423   -1.4010 C   0  0  0  0  0  0  0  0  0  0  0  0
   -2.4695   -2.2096   -1.7106 H   0  0  0  0  0  0  0  0  0  0  0  0
   -5.0608   -0.2175   -0.9778 N   0  0  0  0  0  0  0  0  0  0  0  0
  1  2  3  0  0  0  0
  3  8  2  0  0  0  0
  3 10  1  0  0  0  0
  4  5  1  0  0  0  0
  6  7  1  0  0  0  0
  6  4  1  0  0  0  0
  8  6  1  0  0  0  0
  9  8  1  0  0  0  0
 10  4  2  0  0  0  0
M  RAD  1   3   2
M  END
