Coordinates from ORCA-job Imidazole-4-N2+-scan-d09-160-n800
 OpenBabel09191814123D

 10  9  0  0  0  0  0  0  0  0999 V2000
    5.4643    4.4179    2.2023 N   0  0  0  0  0  0  0  0  0  0  0  0
    6.3748    4.9457    2.5406 N   0  0  0  0  0  0  0  0  0  0  0  0
   -3.4730   -0.6772   -1.0598 C   0  0  0  0  0  0  0  0  0  0  0  0
   -2.9886    1.0448   -0.1831 C   0  0  0  0  0  0  0  0  0  0  0  0
   -3.0532    2.0184    0.2822 H   0  0  0  0  0  0  0  0  0  0  0  0
   -1.8427    0.3415   -0.4205 N   0  0  0  0  0  0  0  0  0  0  0  0
   -0.8994    0.6490   -0.1870 H   0  0  0  0  0  0  0  0  0  0  0  0
   -2.1345   -0.8842   -1.0397 C   0  0  0  0  0  0  0  0  0  0  0  0
   -1.4362   -1.6451   -1.3452 H   0  0  0  0  0  0  0  0  0  0  0  0
   -4.0495    0.3226   -0.6278 N   0  0  0  0  0  0  0  0  0  0  0  0
  1  2  3  0  0  0  0
  3  8  2  0  0  0  0
  3 10  1  0  0  0  0
  4  5  1  0  0  0  0
  6  7  1  0  0  0  0
  6  4  1  0  0  0  0
  8  6  1  0  0  0  0
  9  8  1  0  0  0  0
 10  4  2  0  0  0  0
M  RAD  1   3   2
M  END
