Coordinates from ORCA-job Imidazole-4-N2+-scan-d09-160-n800
 OpenBabel09191814123D

 10  9  0  0  0  0  0  0  0  0999 V2000
    3.7808    3.4867    1.6018 N   0  0  0  0  0  0  0  0  0  0  0  0
    4.6921    4.0136    1.9392 N   0  0  0  0  0  0  0  0  0  0  0  0
   -3.0350   -0.4610   -0.9163 C   0  0  0  0  0  0  0  0  0  0  0  0
   -2.5853    1.2699   -0.0382 C   0  0  0  0  0  0  0  0  0  0  0  0
   -2.6693    2.2429    0.4252 H   0  0  0  0  0  0  0  0  0  0  0  0
   -1.4264    0.5850   -0.2654 N   0  0  0  0  0  0  0  0  0  0  0  0
   -0.4900    0.9083   -0.0247 H   0  0  0  0  0  0  0  0  0  0  0  0
   -1.6935   -0.6460   -0.8852 C   0  0  0  0  0  0  0  0  0  0  0  0
   -0.9805   -1.3959   -1.1840 H   0  0  0  0  0  0  0  0  0  0  0  0
   -3.6309    0.5300   -0.4903 N   0  0  0  0  0  0  0  0  0  0  0  0
  1  2  3  0  0  0  0
  3  8  2  0  0  0  0
  3 10  1  0  0  0  0
  4  5  1  0  0  0  0
  6  4  1  0  0  0  0
  6  7  1  0  0  0  0
  8  6  1  0  0  0  0
  9  8  1  0  0  0  0
 10  4  2  0  0  0  0
M  RAD  1   3   2
M  END
