Coordinates from ORCA-job Imidazole-4-N2+-scan-d09-160-n800
 OpenBabel09191814123D

 10  9  0  0  0  0  0  0  0  0999 V2000
    7.3564    5.4527    2.8722 N   0  0  0  0  0  0  0  0  0  0  0  0
    8.2680    5.9792    3.2094 N   0  0  0  0  0  0  0  0  0  0  0  0
   -3.9523   -0.9292   -1.2239 C   0  0  0  0  0  0  0  0  0  0  0  0
   -3.4552    0.7893   -0.3484 C   0  0  0  0  0  0  0  0  0  0  0  0
   -3.5123    1.7631    0.1175 H   0  0  0  0  0  0  0  0  0  0  0  0
   -2.3143    0.0790   -0.5898 N   0  0  0  0  0  0  0  0  0  0  0  0
   -1.3682    0.3804   -0.3595 H   0  0  0  0  0  0  0  0  0  0  0  0
   -2.6154   -1.1448   -1.2086 C   0  0  0  0  0  0  0  0  0  0  0  0
   -1.9225   -1.9098   -1.5166 H   0  0  0  0  0  0  0  0  0  0  0  0
   -4.5222    0.0736   -0.7899 N   0  0  0  0  0  0  0  0  0  0  0  0
  1  2  3  0  0  0  0
  3  8  2  0  0  0  0
  3 10  1  0  0  0  0
  4  5  1  0  0  0  0
  6  7  1  0  0  0  0
  6  4  1  0  0  0  0
  8  6  1  0  0  0  0
  9  8  1  0  0  0  0
 10  4  2  0  0  0  0
M  RAD  1   3   2
M  END
