Coordinates from ORCA-job Imidazole-4-N2+-scan-d09-160-n800
 OpenBabel09191814123D

 10  9  0  0  0  0  0  0  0  0999 V2000
    3.7951    0.7247    0.3796 N   0  0  0  0  0  0  0  0  0  0  0  0
    4.8943    0.6461    0.4660 N   0  0  0  0  0  0  0  0  0  0  0  0
   -0.8165    0.6416   -0.1675 C   0  0  0  0  0  0  0  0  0  0  0  0
   -2.7591    0.3753   -0.5011 C   0  0  0  0  0  0  0  0  0  0  0  0
   -3.7045   -0.0569   -0.7977 H   0  0  0  0  0  0  0  0  0  0  0  0
   -2.5805    1.6051    0.0642 N   0  0  0  0  0  0  0  0  0  0  0  0
   -3.3205    2.2726    0.2782 H   0  0  0  0  0  0  0  0  0  0  0  0
   -1.2190    1.8390    0.3190 C   0  0  0  0  0  0  0  0  0  0  0  0
   -0.7767    2.7175    0.7577 H   0  0  0  0  0  0  0  0  0  0  0  0
   -1.5506   -0.2314   -0.6362 N   0  0  0  0  0  0  0  0  0  0  0  0
  1  2  3  0  0  0  0
  3  8  2  0  0  0  0
  4  6  1  0  0  0  0
  5  4  1  0  0  0  0
  6  7  1  0  0  0  0
  6  8  1  0  0  0  0
  8  9  1  0  0  0  0
 10  4  2  0  0  0  0
 10  3  1  0  0  0  0
M  RAD  1   3   2
M  END
