Coordinates from ORCA-job Imidazole-4-N2+-scan-d09-160-n800
 OpenBabel09191814123D

 10  9  0  0  0  0  0  0  0  0999 V2000
    3.5298    0.6886    0.3342 N   0  0  0  0  0  0  0  0  0  0  0  0
    4.6282    0.5946    0.4138 N   0  0  0  0  0  0  0  0  0  0  0  0
   -0.7292    0.7053   -0.1296 C   0  0  0  0  0  0  0  0  0  0  0  0
   -2.6525    0.3577   -0.4971 C   0  0  0  0  0  0  0  0  0  0  0  0
   -3.5737   -0.1144   -0.8087 H   0  0  0  0  0  0  0  0  0  0  0  0
   -2.5354    1.5962    0.0652 N   0  0  0  0  0  0  0  0  0  0  0  0
   -3.3061    2.2333    0.2624 H   0  0  0  0  0  0  0  0  0  0  0  0
   -1.1896    1.8870    0.3435 C   0  0  0  0  0  0  0  0  0  0  0  0
   -0.7918    2.7848    0.7859 H   0  0  0  0  0  0  0  0  0  0  0  0
   -1.4179   -0.1994   -0.6073 N   0  0  0  0  0  0  0  0  0  0  0  0
  1  2  3  0  0  0  0
  3  8  2  0  0  0  0
  4  6  1  0  0  0  0
  5  4  1  0  0  0  0
  6  7  1  0  0  0  0
  6  8  1  0  0  0  0
  8  9  1  0  0  0  0
 10  4  2  0  0  0  0
 10  3  1  0  0  0  0
M  RAD  1   3   2
M  END
