Coordinates from ORCA-job Imidazole-4-N2+-scan-d09-160-n800
 OpenBabel09191814123D

 10 10  0  0  0  0  0  0  0  0999 V2000
    1.0684    0.7827    0.1036 N   0  0  0  0  0  0  0  0  0  0  0  0
    2.2201    0.6557    0.1743 N   0  0  0  0  0  0  0  0  0  0  0  0
    0.1538    0.8548    0.0343 C   0  0  0  0  0  0  0  0  0  0  0  0
   -1.9128    0.2536   -0.4614 C   0  0  0  0  0  0  0  0  0  0  0  0
   -2.8076   -0.2628   -0.7896 H   0  0  0  0  0  0  0  0  0  0  0  0
   -1.9723    1.5440    0.1045 N   0  0  0  0  0  0  0  0  0  0  0  0
   -2.8173    2.0926    0.2543 H   0  0  0  0  0  0  0  0  0  0  0  0
   -0.7507    1.9331    0.4125 C   0  0  0  0  0  0  0  0  0  0  0  0
   -0.5026    2.8872    0.8632 H   0  0  0  0  0  0  0  0  0  0  0  0
   -0.7170   -0.2073   -0.5335 N   0  0  0  0  0  0  0  0  0  0  0  0
  1  2  1  0  0  0  0
  3  1  1  0  0  0  0
  3  8  2  0  0  0  0
  4  6  1  0  0  0  0
  5  4  1  0  0  0  0
  6  7  1  0  0  0  0
  6  8  1  0  0  0  0
  8  9  1  0  0  0  0
 10  4  2  0  0  0  0
 10  3  1  0  0  0  0
M  RAD  2   1   2   2   3
M  END
