Coordinates from ORCA-job Imidazole-4-N2+-scan-d09-160-n800
 OpenBabel09191814123D

 10  9  0  0  0  0  0  0  0  0999 V2000
    8.8955    6.2763    3.4074 N   0  0  0  0  0  0  0  0  0  0  0  0
    9.7894    6.8258    3.7556 N   0  0  0  0  0  0  0  0  0  0  0  0
   -4.3378   -1.1361   -1.3576 C   0  0  0  0  0  0  0  0  0  0  0  0
   -3.8349    0.5816   -0.4828 C   0  0  0  0  0  0  0  0  0  0  0  0
   -3.8893    1.5555   -0.0170 H   0  0  0  0  0  0  0  0  0  0  0  0
   -2.6962   -0.1311   -0.7261 N   0  0  0  0  0  0  0  0  0  0  0  0
   -1.7491    0.1684   -0.4971 H   0  0  0  0  0  0  0  0  0  0  0  0
   -3.0011   -1.3542   -1.3442 C   0  0  0  0  0  0  0  0  0  0  0  0
   -2.3106   -2.1208   -1.6533 H   0  0  0  0  0  0  0  0  0  0  0  0
   -4.9039   -0.1317   -0.9226 N   0  0  0  0  0  0  0  0  0  0  0  0
  1  2  3  0  0  0  0
  3  8  2  0  0  0  0
  3 10  1  0  0  0  0
  4  5  1  0  0  0  0
  6  7  1  0  0  0  0
  6  4  1  0  0  0  0
  8  6  1  0  0  0  0
  9  8  1  0  0  0  0
 10  4  2  0  0  0  0
M  RAD  1   3   2
M  END
