Coordinates from ORCA-job Imidazole-4-N2+-scan-d09-160-n800
 OpenBabel09191814123D

 10 10  0  0  0  0  0  0  0  0999 V2000
    1.6756    0.7174    0.1416 N   0  0  0  0  0  0  0  0  0  0  0  0
    2.7694    0.5809    0.2021 N   0  0  0  0  0  0  0  0  0  0  0  0
   -0.1751    0.8516   -0.0036 C   0  0  0  0  0  0  0  0  0  0  0  0
   -2.0627    0.2915   -0.4610 C   0  0  0  0  0  0  0  0  0  0  0  0
   -2.9281   -0.2596   -0.8013 H   0  0  0  0  0  0  0  0  0  0  0  0
   -2.1209    1.5441    0.0879 N   0  0  0  0  0  0  0  0  0  0  0  0
   -2.9646    2.0902    0.2365 H   0  0  0  0  0  0  0  0  0  0  0  0
   -0.8450    1.9618    0.4150 C   0  0  0  0  0  0  0  0  0  0  0  0
   -0.5823    2.9058    0.8630 H   0  0  0  0  0  0  0  0  0  0  0  0
   -0.8042   -0.1501   -0.5178 N   0  0  0  0  0  0  0  0  0  0  0  0
  1  2  1  0  0  0  0
  3  1  1  0  0  0  0
  3  8  2  0  0  0  0
  4  6  1  0  0  0  0
  5  4  1  0  0  0  0
  6  7  1  0  0  0  0
  6  8  1  0  0  0  0
  8  9  1  0  0  0  0
 10  4  2  0  0  0  0
 10  3  1  0  0  0  0
M  RAD  2   1   2   2   3
M  END
