Coordinates from ORCA-job Imidazole-4-N2+-scan-d09-160-n800
 OpenBabel09191814123D

 10  9  0  0  0  0  0  0  0  0999 V2000
    6.2290    4.8369    2.4732 N   0  0  0  0  0  0  0  0  0  0  0  0
    7.1397    5.3644    2.8115 N   0  0  0  0  0  0  0  0  0  0  0  0
   -3.6666   -0.7789   -1.1260 C   0  0  0  0  0  0  0  0  0  0  0  0
   -3.1771    0.9415   -0.2499 C   0  0  0  0  0  0  0  0  0  0  0  0
   -3.2384    1.9152    0.2156 H   0  0  0  0  0  0  0  0  0  0  0  0
   -2.0333    0.2351   -0.4891 N   0  0  0  0  0  0  0  0  0  0  0  0
   -1.0887    0.5399   -0.2570 H   0  0  0  0  0  0  0  0  0  0  0  0
   -2.3290   -0.9899   -1.1082 C   0  0  0  0  0  0  0  0  0  0  0  0
   -1.6329   -1.7525   -1.4147 H   0  0  0  0  0  0  0  0  0  0  0  0
   -4.2408    0.2220   -0.6933 N   0  0  0  0  0  0  0  0  0  0  0  0
  1  2  3  0  0  0  0
  3  8  2  0  0  0  0
  3 10  1  0  0  0  0
  4  5  1  0  0  0  0
  6  7  1  0  0  0  0
  6  4  1  0  0  0  0
  8  6  1  0  0  0  0
  9  8  1  0  0  0  0
 10  4  2  0  0  0  0
M  RAD  1   3   2
M  END
