Coordinates from ORCA-job Imidazole-4-N2+-scan-d09-160-n800
 OpenBabel09191814123D

 10  9  0  0  0  0  0  0  0  0999 V2000
    4.9553    4.1381    2.0215 N   0  0  0  0  0  0  0  0  0  0  0  0
    5.8656    4.6662    2.3599 N   0  0  0  0  0  0  0  0  0  0  0  0
   -3.3427   -0.6101   -1.0159 C   0  0  0  0  0  0  0  0  0  0  0  0
   -2.8643    1.1134   -0.1388 C   0  0  0  0  0  0  0  0  0  0  0  0
   -2.9323    2.0869    0.3262 H   0  0  0  0  0  0  0  0  0  0  0  0
   -1.7162    0.4132   -0.3744 N   0  0  0  0  0  0  0  0  0  0  0  0
   -0.7741    0.7234   -0.1395 H   0  0  0  0  0  0  0  0  0  0  0  0
   -2.0038   -0.8134   -0.9938 C   0  0  0  0  0  0  0  0  0  0  0  0
   -1.3029   -1.5724   -1.2981 H   0  0  0  0  0  0  0  0  0  0  0  0
   -3.9226    0.3882   -0.5849 N   0  0  0  0  0  0  0  0  0  0  0  0
  1  2  3  0  0  0  0
  3  8  2  0  0  0  0
  3 10  1  0  0  0  0
  4  5  1  0  0  0  0
  6  7  1  0  0  0  0
  6  4  1  0  0  0  0
  8  6  1  0  0  0  0
  9  8  1  0  0  0  0
 10  4  2  0  0  0  0
M  RAD  1   3   2
M  END
