Coordinates from ORCA-job Imidazole-4-N2+-scan-d09-160-n800
 OpenBabel09191814123D

 10  9  0  0  0  0  0  0  0  0999 V2000
    8.0014    5.8037    3.0996 N   0  0  0  0  0  0  0  0  0  0  0  0
    8.9131    6.3303    3.4367 N   0  0  0  0  0  0  0  0  0  0  0  0
   -4.1149   -1.0157   -1.2802 C   0  0  0  0  0  0  0  0  0  0  0  0
   -3.6151    0.7022   -0.4048 C   0  0  0  0  0  0  0  0  0  0  0  0
   -3.6706    1.6760    0.0611 H   0  0  0  0  0  0  0  0  0  0  0  0
   -2.4752   -0.0095   -0.6471 N   0  0  0  0  0  0  0  0  0  0  0  0
   -1.5286    0.2907   -0.4173 H   0  0  0  0  0  0  0  0  0  0  0  0
   -2.7782   -1.2330   -1.2658 C   0  0  0  0  0  0  0  0  0  0  0  0
   -2.0866   -1.9988   -1.5743 H   0  0  0  0  0  0  0  0  0  0  0  0
   -4.6833   -0.0122   -0.8457 N   0  0  0  0  0  0  0  0  0  0  0  0
  1  2  3  0  0  0  0
  3  8  2  0  0  0  0
  3 10  1  0  0  0  0
  4  5  1  0  0  0  0
  6  7  1  0  0  0  0
  6  4  1  0  0  0  0
  8  6  1  0  0  0  0
  9  8  1  0  0  0  0
 10  4  2  0  0  0  0
M  RAD  1   3   2
M  END
