Coordinates from ORCA-job Imidazole-4-N2+-scan-d09-160-n800
 OpenBabel09191814123D

 10  9  0  0  0  0  0  0  0  0999 V2000
    4.6481    3.9686    1.9120 N   0  0  0  0  0  0  0  0  0  0  0  0
    5.5583    4.4968    2.2505 N   0  0  0  0  0  0  0  0  0  0  0  0
   -3.2630   -0.5699   -0.9894 C   0  0  0  0  0  0  0  0  0  0  0  0
   -2.7904    1.1547   -0.1122 C   0  0  0  0  0  0  0  0  0  0  0  0
   -2.8611    2.1281    0.3525 H   0  0  0  0  0  0  0  0  0  0  0  0
   -1.6401    0.4572   -0.3463 N   0  0  0  0  0  0  0  0  0  0  0  0
   -0.6988    0.7695   -0.1104 H   0  0  0  0  0  0  0  0  0  0  0  0
   -1.9238   -0.7704   -0.9659 C   0  0  0  0  0  0  0  0  0  0  0  0
   -1.2205   -1.5277   -1.2691 H   0  0  0  0  0  0  0  0  0  0  0  0
   -3.8466    0.4267   -0.5596 N   0  0  0  0  0  0  0  0  0  0  0  0
  1  2  3  0  0  0  0
  3  8  2  0  0  0  0
  3 10  1  0  0  0  0
  4  5  1  0  0  0  0
  6  4  1  0  0  0  0
  6  7  1  0  0  0  0
  8  6  1  0  0  0  0
  9  8  1  0  0  0  0
 10  4  2  0  0  0  0
M  RAD  1   3   2
M  END
