Coordinates from ORCA-job Imidazole-4-N2+-scan-d09-160-n800
 OpenBabel09191814123D

 10  9  0  0  0  0  0  0  0  0999 V2000
    2.8538    0.6578    0.2457 N   0  0  0  0  0  0  0  0  0  0  0  0
    3.9502    0.5381    0.3138 N   0  0  0  0  0  0  0  0  0  0  0  0
   -0.5320    0.7997   -0.0661 C   0  0  0  0  0  0  0  0  0  0  0  0
   -2.4180    0.3279   -0.4844 C   0  0  0  0  0  0  0  0  0  0  0  0
   -3.2984   -0.2034   -0.8177 H   0  0  0  0  0  0  0  0  0  0  0  0
   -2.3971    1.5747    0.0711 N   0  0  0  0  0  0  0  0  0  0  0  0
   -3.2122    2.1620    0.2413 H   0  0  0  0  0  0  0  0  0  0  0  0
   -1.0812    1.9519    0.3842 C   0  0  0  0  0  0  0  0  0  0  0  0
   -0.7542    2.8758    0.8303 H   0  0  0  0  0  0  0  0  0  0  0  0
   -1.1489   -0.1508   -0.5561 N   0  0  0  0  0  0  0  0  0  0  0  0
  1  2  3  0  0  0  0
  3  8  2  0  0  0  0
  4  6  1  0  0  0  0
  5  4  1  0  0  0  0
  6  7  1  0  0  0  0
  6  8  1  0  0  0  0
  8  9  1  0  0  0  0
 10  4  2  0  0  0  0
 10  3  1  0  0  0  0
M  RAD  1   3   2
M  END
