Coordinates from ORCA-job Imidazole-4-N2+-scan-d09-160-n800
 OpenBabel09191814123D

 10  9  0  0  0  0  0  0  0  0999 V2000
    6.2022    4.8222    2.4638 N   0  0  0  0  0  0  0  0  0  0  0  0
    7.1129    5.3497    2.8020 N   0  0  0  0  0  0  0  0  0  0  0  0
   -3.6598   -0.7753   -1.1236 C   0  0  0  0  0  0  0  0  0  0  0  0
   -3.1705    0.9451   -0.2476 C   0  0  0  0  0  0  0  0  0  0  0  0
   -3.2319    1.9188    0.2179 H   0  0  0  0  0  0  0  0  0  0  0  0
   -2.0266    0.2389   -0.4867 N   0  0  0  0  0  0  0  0  0  0  0  0
   -1.0820    0.5437   -0.2546 H   0  0  0  0  0  0  0  0  0  0  0  0
   -2.3222   -0.9862   -1.1058 C   0  0  0  0  0  0  0  0  0  0  0  0
   -1.6260   -1.7488   -1.4123 H   0  0  0  0  0  0  0  0  0  0  0  0
   -4.2341    0.2255   -0.6910 N   0  0  0  0  0  0  0  0  0  0  0  0
  1  2  3  0  0  0  0
  3  8  2  0  0  0  0
  3 10  1  0  0  0  0
  4  5  1  0  0  0  0
  6  7  1  0  0  0  0
  6  4  1  0  0  0  0
  8  6  1  0  0  0  0
  9  8  1  0  0  0  0
 10  4  2  0  0  0  0
M  RAD  1   3   2
M  END
