Coordinates from ORCA-job Imidazole-4-N2+-scan-d09-160-n800
 OpenBabel09191814123D

 10  9  0  0  0  0  0  0  0  0999 V2000
    2.2166    0.6756    0.1830 N   0  0  0  0  0  0  0  0  0  0  0  0
    3.3101    0.5320    0.2404 N   0  0  0  0  0  0  0  0  0  0  0  0
   -0.3515    0.8451   -0.0261 C   0  0  0  0  0  0  0  0  0  0  0  0
   -2.2194    0.3072   -0.4716 C   0  0  0  0  0  0  0  0  0  0  0  0
   -3.0782   -0.2521   -0.8148 H   0  0  0  0  0  0  0  0  0  0  0  0
   -2.2535    1.5559    0.0787 N   0  0  0  0  0  0  0  0  0  0  0  0
   -3.0910    2.1136    0.2334 H   0  0  0  0  0  0  0  0  0  0  0  0
   -0.9586    1.9751    0.4080 C   0  0  0  0  0  0  0  0  0  0  0  0
   -0.6733    2.9118    0.8553 H   0  0  0  0  0  0  0  0  0  0  0  0
   -0.9393   -0.1306   -0.5241 N   0  0  0  0  0  0  0  0  0  0  0  0
  1  2  3  0  0  0  0
  3  8  2  0  0  0  0
  4  6  1  0  0  0  0
  5  4  1  0  0  0  0
  6  7  1  0  0  0  0
  6  8  1  0  0  0  0
  8  9  1  0  0  0  0
 10  4  2  0  0  0  0
 10  3  1  0  0  0  0
M  RAD  1   3   2
M  END
