Coordinates from ORCA-job Imidazole-4-N2+-scan-d09-160-n800
 OpenBabel09191814123D

 10  9  0  0  0  0  0  0  0  0999 V2000
    4.2914    0.8613    0.4951 N   0  0  0  0  0  0  0  0  0  0  0  0
    5.3911    0.8283    0.6020 N   0  0  0  0  0  0  0  0  0  0  0  0
   -1.0219    0.4429   -0.2786 C   0  0  0  0  0  0  0  0  0  0  0  0
   -3.0002    0.4355   -0.5010 C   0  0  0  0  0  0  0  0  0  0  0  0
   -4.0088    0.1338   -0.7466 H   0  0  0  0  0  0  0  0  0  0  0  0
   -2.6318    1.6217    0.0659 N   0  0  0  0  0  0  0  0  0  0  0  0
   -3.2656    2.3750    0.3298 H   0  0  0  0  0  0  0  0  0  0  0  0
   -1.2399    1.6734    0.2431 C   0  0  0  0  0  0  0  0  0  0  0  0
   -0.6627    2.4794    0.6645 H   0  0  0  0  0  0  0  0  0  0  0  0
   -1.8896   -0.3177   -0.7121 N   0  0  0  0  0  0  0  0  0  0  0  0
  1  2  3  0  0  0  0
  3  8  2  0  0  0  0
  4  6  1  0  0  0  0
  5  4  1  0  0  0  0
  6  8  1  0  0  0  0
  6  7  1  0  0  0  0
  8  9  1  0  0  0  0
 10  4  2  0  0  0  0
 10  3  1  0  0  0  0
M  RAD  1   3   2
M  END
