Coordinates from ORCA-job Imidazole-4-N2+-scan-d09-160-n800
 OpenBabel09191814123D

 10  9  0  0  0  0  0  0  0  0999 V2000
    4.1936    3.7176    1.7502 N   0  0  0  0  0  0  0  0  0  0  0  0
    5.1047    4.2447    2.0880 N   0  0  0  0  0  0  0  0  0  0  0  0
   -3.1445   -0.5119   -0.9508 C   0  0  0  0  0  0  0  0  0  0  0  0
   -2.6819    1.2153   -0.0732 C   0  0  0  0  0  0  0  0  0  0  0  0
   -2.7583    2.1886    0.3910 H   0  0  0  0  0  0  0  0  0  0  0  0
   -1.5279    0.5231   -0.3043 N   0  0  0  0  0  0  0  0  0  0  0  0
   -0.5886    0.8400   -0.0664 H   0  0  0  0  0  0  0  0  0  0  0  0
   -1.8044   -0.7060   -0.9241 C   0  0  0  0  0  0  0  0  0  0  0  0
   -1.0969   -1.4602   -1.2254 H   0  0  0  0  0  0  0  0  0  0  0  0
   -3.7338    0.4822   -0.5227 N   0  0  0  0  0  0  0  0  0  0  0  0
  1  2  3  0  0  0  0
  3  8  2  0  0  0  0
  3 10  1  0  0  0  0
  4  5  1  0  0  0  0
  6  4  1  0  0  0  0
  6  7  1  0  0  0  0
  8  6  1  0  0  0  0
  9  8  1  0  0  0  0
 10  4  2  0  0  0  0
M  RAD  1   3   2
M  END
