Coordinates from ORCA-job Imidazole-4-N2+-scan-d09-160-n800
 OpenBabel09191814123D

 10  9  0  0  0  0  0  0  0  0999 V2000
    2.9783    0.6584    0.2597 N   0  0  0  0  0  0  0  0  0  0  0  0
    4.0751    0.5430    0.3298 N   0  0  0  0  0  0  0  0  0  0  0  0
   -0.5669    0.7875   -0.0753 C   0  0  0  0  0  0  0  0  0  0  0  0
   -2.4584    0.3325   -0.4868 C   0  0  0  0  0  0  0  0  0  0  0  0
   -3.3445   -0.1910   -0.8173 H   0  0  0  0  0  0  0  0  0  0  0  0
   -2.4241    1.5785    0.0698 N   0  0  0  0  0  0  0  0  0  0  0  0
   -3.2334    2.1729    0.2438 H   0  0  0  0  0  0  0  0  0  0  0  0
   -1.1037    1.9441    0.3783 C   0  0  0  0  0  0  0  0  0  0  0  0
   -0.7669    2.8647    0.8241 H   0  0  0  0  0  0  0  0  0  0  0  0
   -1.1934   -0.1570   -0.5638 N   0  0  0  0  0  0  0  0  0  0  0  0
  1  2  3  0  0  0  0
  3  8  2  0  0  0  0
  4  6  1  0  0  0  0
  5  4  1  0  0  0  0
  6  7  1  0  0  0  0
  6  8  1  0  0  0  0
  8  9  1  0  0  0  0
 10  4  2  0  0  0  0
 10  3  1  0  0  0  0
M  RAD  1   3   2
M  END
