Coordinates from ORCA-job Imidazole-4-N2+-scan-d09-160-n800
 OpenBabel09191814123D

 10  9  0  0  0  0  0  0  0  0999 V2000
    4.9820    4.1530    2.0311 N   0  0  0  0  0  0  0  0  0  0  0  0
    5.8924    4.6809    2.3694 N   0  0  0  0  0  0  0  0  0  0  0  0
   -3.3496   -0.6137   -1.0182 C   0  0  0  0  0  0  0  0  0  0  0  0
   -2.8709    1.1098   -0.1411 C   0  0  0  0  0  0  0  0  0  0  0  0
   -2.9387    2.0833    0.3239 H   0  0  0  0  0  0  0  0  0  0  0  0
   -1.7229    0.4094   -0.3768 N   0  0  0  0  0  0  0  0  0  0  0  0
   -0.7806    0.7195   -0.1420 H   0  0  0  0  0  0  0  0  0  0  0  0
   -2.0107   -0.8171   -0.9962 C   0  0  0  0  0  0  0  0  0  0  0  0
   -1.3099   -1.5763   -1.3006 H   0  0  0  0  0  0  0  0  0  0  0  0
   -3.9293    0.3847   -0.5872 N   0  0  0  0  0  0  0  0  0  0  0  0
  1  2  3  0  0  0  0
  3  8  2  0  0  0  0
  3 10  1  0  0  0  0
  4  5  1  0  0  0  0
  6  7  1  0  0  0  0
  6  4  1  0  0  0  0
  8  6  1  0  0  0  0
  9  8  1  0  0  0  0
 10  4  2  0  0  0  0
M  RAD  1   3   2
M  END
