Coordinates from ORCA-job Imidazole-4-N2+-scan-d09-160-n800
 OpenBabel09191814123D

 10  9  0  0  0  0  0  0  0  0999 V2000
    9.3842    6.5330    3.5749 N   0  0  0  0  0  0  0  0  0  0  0  0
   10.2601    7.1043    3.9332 N   0  0  0  0  0  0  0  0  0  0  0  0
   -4.4590   -1.2020   -1.3999 C   0  0  0  0  0  0  0  0  0  0  0  0
   -3.9536    0.5152   -0.5256 C   0  0  0  0  0  0  0  0  0  0  0  0
   -4.0065    1.4892   -0.0597 H   0  0  0  0  0  0  0  0  0  0  0  0
   -2.8158   -0.1987   -0.7697 N   0  0  0  0  0  0  0  0  0  0  0  0
   -1.8682    0.0998   -0.5416 H   0  0  0  0  0  0  0  0  0  0  0  0
   -3.1225   -1.4215   -1.3876 C   0  0  0  0  0  0  0  0  0  0  0  0
   -2.4331   -2.1888   -1.6973 H   0  0  0  0  0  0  0  0  0  0  0  0
   -5.0237   -0.1970   -0.9644 N   0  0  0  0  0  0  0  0  0  0  0  0
  1  2  3  0  0  0  0
  3  8  2  0  0  0  0
  3 10  1  0  0  0  0
  4  5  1  0  0  0  0
  6  7  1  0  0  0  0
  6  4  1  0  0  0  0
  8  6  1  0  0  0  0
  9  8  1  0  0  0  0
 10  4  2  0  0  0  0
M  RAD  1   3   2
M  END
