Coordinates from ORCA-job Imidazole-4-N2+-scan-d09-160-n800
 OpenBabel09191814123D

 10  9  0  0  0  0  0  0  0  0999 V2000
    8.3238    5.9789    3.2131 N   0  0  0  0  0  0  0  0  0  0  0  0
    9.2351    6.5059    3.5504 N   0  0  0  0  0  0  0  0  0  0  0  0
   -4.1964   -1.0593   -1.3085 C   0  0  0  0  0  0  0  0  0  0  0  0
   -3.6948    0.6585   -0.4331 C   0  0  0  0  0  0  0  0  0  0  0  0
   -3.7498    1.6323    0.0329 H   0  0  0  0  0  0  0  0  0  0  0  0
   -2.5556   -0.0537   -0.6757 N   0  0  0  0  0  0  0  0  0  0  0  0
   -1.6088    0.2461   -0.4461 H   0  0  0  0  0  0  0  0  0  0  0  0
   -2.8596   -1.2768   -1.2943 C   0  0  0  0  0  0  0  0  0  0  0  0
   -2.1686   -2.0431   -1.6031 H   0  0  0  0  0  0  0  0  0  0  0  0
   -4.7632   -0.0552   -0.8736 N   0  0  0  0  0  0  0  0  0  0  0  0
  1  2  3  0  0  0  0
  3  8  2  0  0  0  0
  3 10  1  0  0  0  0
  4  5  1  0  0  0  0
  6  7  1  0  0  0  0
  6  4  1  0  0  0  0
  8  6  1  0  0  0  0
  9  8  1  0  0  0  0
 10  4  2  0  0  0  0
M  RAD  1   3   2
M  END
