Coordinates from ORCA-job Imidazole-4-N2+-scan-d09-160-n800
 OpenBabel09191814123D

 10  9  0  0  0  0  0  0  0  0999 V2000
    3.6886    3.4342    1.5681 N   0  0  0  0  0  0  0  0  0  0  0  0
    4.5998    3.9612    1.9057 N   0  0  0  0  0  0  0  0  0  0  0  0
   -3.0094   -0.4496   -0.9085 C   0  0  0  0  0  0  0  0  0  0  0  0
   -2.5647    1.2821   -0.0304 C   0  0  0  0  0  0  0  0  0  0  0  0
   -2.6510    2.2550    0.4326 H   0  0  0  0  0  0  0  0  0  0  0  0
   -1.4040    0.5995   -0.2564 N   0  0  0  0  0  0  0  0  0  0  0  0
   -0.4683    0.9246   -0.0149 H   0  0  0  0  0  0  0  0  0  0  0  0
   -1.6677   -0.6324   -0.8763 C   0  0  0  0  0  0  0  0  0  0  0  0
   -0.9527   -1.3808   -1.1742 H   0  0  0  0  0  0  0  0  0  0  0  0
   -3.6086    0.5399   -0.4835 N   0  0  0  0  0  0  0  0  0  0  0  0
  1  2  3  0  0  0  0
  3  8  2  0  0  0  0
  3 10  1  0  0  0  0
  4  5  1  0  0  0  0
  6  4  1  0  0  0  0
  6  7  1  0  0  0  0
  8  6  1  0  0  0  0
  9  8  1  0  0  0  0
 10  4  2  0  0  0  0
M  RAD  1   3   2
M  END
