Coordinates from ORCA-job Imidazole-4-N2+-scan-d09-160-n800
 OpenBabel09191814123D

 10 10  0  0  0  0  0  0  0  0999 V2000
    1.2373    0.7589    0.1116 N   0  0  0  0  0  0  0  0  0  0  0  0
    2.3558    0.6495    0.1869 N   0  0  0  0  0  0  0  0  0  0  0  0
    0.0437    0.8463    0.0182 C   0  0  0  0  0  0  0  0  0  0  0  0
   -1.9508    0.2657   -0.4602 C   0  0  0  0  0  0  0  0  0  0  0  0
   -2.8376   -0.2592   -0.7913 H   0  0  0  0  0  0  0  0  0  0  0  0
   -2.0091    1.5432    0.1001 N   0  0  0  0  0  0  0  0  0  0  0  0
   -2.8515    2.0922    0.2504 H   0  0  0  0  0  0  0  0  0  0  0  0
   -0.7691    1.9338    0.4107 C   0  0  0  0  0  0  0  0  0  0  0  0
   -0.5215    2.8861    0.8606 H   0  0  0  0  0  0  0  0  0  0  0  0
   -0.7351   -0.1829   -0.5248 N   0  0  0  0  0  0  0  0  0  0  0  0
  1  2  1  0  0  0  0
  3  1  1  0  0  0  0
  3  8  2  0  0  0  0
  4  6  1  0  0  0  0
  5  4  1  0  0  0  0
  6  7  1  0  0  0  0
  6  8  1  0  0  0  0
  8  9  1  0  0  0  0
 10  4  2  0  0  0  0
 10  3  1  0  0  0  0
M  RAD  2   1   2   2   3
M  END
