Coordinates from ORCA-job Imidazole-4-N2+-scan-d09-160-n800
 OpenBabel09191814123D

 10  9  0  0  0  0  0  0  0  0999 V2000
    3.1643    0.6624    0.2821 N   0  0  0  0  0  0  0  0  0  0  0  0
    4.2616    0.5531    0.3549 N   0  0  0  0  0  0  0  0  0  0  0  0
   -0.6197    0.7664   -0.0904 C   0  0  0  0  0  0  0  0  0  0  0  0
   -2.5201    0.3398   -0.4904 C   0  0  0  0  0  0  0  0  0  0  0  0
   -3.4158   -0.1703   -0.8160 H   0  0  0  0  0  0  0  0  0  0  0  0
   -2.4637    1.5843    0.0679 N   0  0  0  0  0  0  0  0  0  0  0  0
   -3.2630    2.1903    0.2482 H   0  0  0  0  0  0  0  0  0  0  0  0
   -1.1361    1.9303    0.3686 C   0  0  0  0  0  0  0  0  0  0  0  0
   -0.7828    2.8451    0.8136 H   0  0  0  0  0  0  0  0  0  0  0  0
   -1.2626   -0.1677   -0.5762 N   0  0  0  0  0  0  0  0  0  0  0  0
  1  2  3  0  0  0  0
  3  8  2  0  0  0  0
  4  6  1  0  0  0  0
  5  4  1  0  0  0  0
  6  7  1  0  0  0  0
  6  8  1  0  0  0  0
  8  9  1  0  0  0  0
 10  4  2  0  0  0  0
 10  3  1  0  0  0  0
M  RAD  1   3   2
M  END
