Coordinates from ORCA-job Imidazole-4-N2+-scan-d09-160-n800
 OpenBabel09191814123D

 10  9  0  0  0  0  0  0  0  0999 V2000
    5.6518    4.5210    2.2689 N   0  0  0  0  0  0  0  0  0  0  0  0
    6.5626    5.0484    2.6071 N   0  0  0  0  0  0  0  0  0  0  0  0
   -3.5208   -0.7021   -1.0760 C   0  0  0  0  0  0  0  0  0  0  0  0
   -3.0346    1.0195   -0.1994 C   0  0  0  0  0  0  0  0  0  0  0  0
   -3.0982    1.9931    0.2659 H   0  0  0  0  0  0  0  0  0  0  0  0
   -1.8894    0.3153   -0.4374 N   0  0  0  0  0  0  0  0  0  0  0  0
   -0.9457    0.6220   -0.2043 H   0  0  0  0  0  0  0  0  0  0  0  0
   -2.1825   -0.9101   -1.0565 C   0  0  0  0  0  0  0  0  0  0  0  0
   -1.4849   -1.6717   -1.3624 H   0  0  0  0  0  0  0  0  0  0  0  0
   -4.0963    0.2982   -0.6437 N   0  0  0  0  0  0  0  0  0  0  0  0
  1  2  3  0  0  0  0
  3  8  2  0  0  0  0
  3 10  1  0  0  0  0
  4  5  1  0  0  0  0
  6  7  1  0  0  0  0
  6  4  1  0  0  0  0
  8  6  1  0  0  0  0
  9  8  1  0  0  0  0
 10  4  2  0  0  0  0
M  RAD  1   3   2
M  END
