Coordinates from ORCA-job Imidazole-4-N2+-scan-d09-160-n800
 OpenBabel09191814123D

 10  9  0  0  0  0  0  0  0  0999 V2000
    7.6788    5.6284    2.9860 N   0  0  0  0  0  0  0  0  0  0  0  0
    8.5906    6.1546    3.3230 N   0  0  0  0  0  0  0  0  0  0  0  0
   -4.0336   -0.9724   -1.2520 C   0  0  0  0  0  0  0  0  0  0  0  0
   -3.5351    0.7458   -0.3766 C   0  0  0  0  0  0  0  0  0  0  0  0
   -3.5913    1.7196    0.0893 H   0  0  0  0  0  0  0  0  0  0  0  0
   -2.3948    0.0347   -0.6185 N   0  0  0  0  0  0  0  0  0  0  0  0
   -1.4483    0.3354   -0.3884 H   0  0  0  0  0  0  0  0  0  0  0  0
   -2.6969   -1.1889   -1.2372 C   0  0  0  0  0  0  0  0  0  0  0  0
   -2.0047   -1.9544   -1.5455 H   0  0  0  0  0  0  0  0  0  0  0  0
   -4.6027    0.0308   -0.8178 N   0  0  0  0  0  0  0  0  0  0  0  0
  1  2  3  0  0  0  0
  3  8  2  0  0  0  0
  3 10  1  0  0  0  0
  4  5  1  0  0  0  0
  6  7  1  0  0  0  0
  6  4  1  0  0  0  0
  8  6  1  0  0  0  0
  9  8  1  0  0  0  0
 10  4  2  0  0  0  0
M  RAD  1   3   2
M  END
