Coordinates from ORCA-job Imidazole-4-N2+-scan-d09-160-n800
 OpenBabel09191814123D

 10  9  0  0  0  0  0  0  0  0999 V2000
    4.8885    4.1018    1.9979 N   0  0  0  0  0  0  0  0  0  0  0  0
    5.7993    4.6293    2.3361 N   0  0  0  0  0  0  0  0  0  0  0  0
   -3.3252   -0.6012   -1.0100 C   0  0  0  0  0  0  0  0  0  0  0  0
   -2.8485    1.1224   -0.1330 C   0  0  0  0  0  0  0  0  0  0  0  0
   -2.9169    2.0959    0.3319 H   0  0  0  0  0  0  0  0  0  0  0  0
   -1.6998    0.4227   -0.3683 N   0  0  0  0  0  0  0  0  0  0  0  0
   -0.7577    0.7332   -0.1333 H   0  0  0  0  0  0  0  0  0  0  0  0
   -1.9863   -0.8042   -0.9878 C   0  0  0  0  0  0  0  0  0  0  0  0
   -1.2848   -1.5629   -1.2919 H   0  0  0  0  0  0  0  0  0  0  0  0
   -3.9066    0.3965   -0.5795 N   0  0  0  0  0  0  0  0  0  0  0  0
  1  2  3  0  0  0  0
  3  8  2  0  0  0  0
  3 10  1  0  0  0  0
  4  5  1  0  0  0  0
  6  7  1  0  0  0  0
  6  4  1  0  0  0  0
  8  6  1  0  0  0  0
  9  8  1  0  0  0  0
 10  4  2  0  0  0  0
M  RAD  1   3   2
M  END
