Coordinates from ORCA-job Imidazole-4-N2+-scan-d09-160-n800
 OpenBabel09191814123D

 10  9  0  0  0  0  0  0  0  0999 V2000
    7.5844    5.5770    2.9527 N   0  0  0  0  0  0  0  0  0  0  0  0
    8.4961    6.1033    3.2898 N   0  0  0  0  0  0  0  0  0  0  0  0
   -4.0103   -0.9599   -1.2439 C   0  0  0  0  0  0  0  0  0  0  0  0
   -3.5113    0.7585   -0.3683 C   0  0  0  0  0  0  0  0  0  0  0  0
   -3.5678    1.7323    0.0976 H   0  0  0  0  0  0  0  0  0  0  0  0
   -2.3711    0.0476   -0.6101 N   0  0  0  0  0  0  0  0  0  0  0  0
   -1.4248    0.3486   -0.3800 H   0  0  0  0  0  0  0  0  0  0  0  0
   -2.6733   -1.1759   -1.2288 C   0  0  0  0  0  0  0  0  0  0  0  0
   -1.9812   -1.9414   -1.5371 H   0  0  0  0  0  0  0  0  0  0  0  0
   -4.5786    0.0435   -0.8095 N   0  0  0  0  0  0  0  0  0  0  0  0
  1  2  3  0  0  0  0
  3  8  2  0  0  0  0
  3 10  1  0  0  0  0
  4  5  1  0  0  0  0
  6  7  1  0  0  0  0
  6  4  1  0  0  0  0
  8  6  1  0  0  0  0
  9  8  1  0  0  0  0
 10  4  2  0  0  0  0
M  RAD  1   3   2
M  END
