Coordinates from ORCA-job Imidazole-4-N2+-scan-d09-160-n800
 OpenBabel09191814123D

 10  9  0  0  0  0  0  0  0  0999 V2000
    2.7458    0.6579    0.2337 N   0  0  0  0  0  0  0  0  0  0  0  0
    3.8418    0.5340    0.3000 N   0  0  0  0  0  0  0  0  0  0  0  0
   -0.5005    0.8099   -0.0581 C   0  0  0  0  0  0  0  0  0  0  0  0
   -2.3832    0.3241   -0.4822 C   0  0  0  0  0  0  0  0  0  0  0  0
   -3.2587   -0.2137   -0.8178 H   0  0  0  0  0  0  0  0  0  0  0  0
   -2.3735    1.5715    0.0723 N   0  0  0  0  0  0  0  0  0  0  0  0
   -3.1933    2.1529    0.2394 H   0  0  0  0  0  0  0  0  0  0  0  0
   -1.0619    1.9575    0.3889 C   0  0  0  0  0  0  0  0  0  0  0  0
   -0.7436    2.8843    0.8353 H   0  0  0  0  0  0  0  0  0  0  0  0
   -1.1108   -0.1447   -0.5492 N   0  0  0  0  0  0  0  0  0  0  0  0
  1  2  3  0  0  0  0
  3  8  2  0  0  0  0
  4  6  1  0  0  0  0
  5  4  1  0  0  0  0
  6  7  1  0  0  0  0
  6  8  1  0  0  0  0
  8  9  1  0  0  0  0
 10  4  2  0  0  0  0
 10  3  1  0  0  0  0
M  RAD  1   3   2
M  END
