Coordinates from ORCA-job Imidazole-4-N2+-scan-d09-160-n800
 OpenBabel09191814123D

 10 10  0  0  0  0  0  0  0  0999 V2000
    1.5392    0.7255    0.1300 N   0  0  0  0  0  0  0  0  0  0  0  0
    2.6361    0.6005    0.1959 N   0  0  0  0  0  0  0  0  0  0  0  0
   -0.1120    0.8532    0.0041 C   0  0  0  0  0  0  0  0  0  0  0  0
   -2.0241    0.2849   -0.4596 C   0  0  0  0  0  0  0  0  0  0  0  0
   -2.8964   -0.2575   -0.7968 H   0  0  0  0  0  0  0  0  0  0  0  0
   -2.0856    1.5430    0.0912 N   0  0  0  0  0  0  0  0  0  0  0  0
   -2.9298    2.0875    0.2390 H   0  0  0  0  0  0  0  0  0  0  0  0
   -0.8202    1.9542    0.4145 C   0  0  0  0  0  0  0  0  0  0  0  0
   -0.5660    2.9016    0.8631 H   0  0  0  0  0  0  0  0  0  0  0  0
   -0.7791   -0.1593   -0.5191 N   0  0  0  0  0  0  0  0  0  0  0  0
  1  2  1  0  0  0  0
  3  1  1  0  0  0  0
  3  8  2  0  0  0  0
  4  6  1  0  0  0  0
  5  4  1  0  0  0  0
  6  7  1  0  0  0  0
  6  8  1  0  0  0  0
  8  9  1  0  0  0  0
 10  4  2  0  0  0  0
 10  3  1  0  0  0  0
M  RAD  2   1   2   2   3
M  END
