Coordinates from ORCA-job Imidazole-4-N2+-scan-d09-160-n800
 OpenBabel09191814123D

 10  9  0  0  0  0  0  0  0  0999 V2000
    4.8481    4.0794    1.9835 N   0  0  0  0  0  0  0  0  0  0  0  0
    5.7586    4.6071    2.3217 N   0  0  0  0  0  0  0  0  0  0  0  0
   -3.3152   -0.5962   -1.0067 C   0  0  0  0  0  0  0  0  0  0  0  0
   -2.8384    1.1278   -0.1295 C   0  0  0  0  0  0  0  0  0  0  0  0
   -2.9072    2.1013    0.3354 H   0  0  0  0  0  0  0  0  0  0  0  0
   -1.6897    0.4284   -0.3646 N   0  0  0  0  0  0  0  0  0  0  0  0
   -0.7478    0.7394   -0.1294 H   0  0  0  0  0  0  0  0  0  0  0  0
   -1.9761   -0.7984   -0.9841 C   0  0  0  0  0  0  0  0  0  0  0  0
   -1.2745   -1.5570   -1.2881 H   0  0  0  0  0  0  0  0  0  0  0  0
   -3.8959    0.4017   -0.5760 N   0  0  0  0  0  0  0  0  0  0  0  0
  1  2  3  0  0  0  0
  3  8  2  0  0  0  0
  3 10  1  0  0  0  0
  4  5  1  0  0  0  0
  6  4  1  0  0  0  0
  6  7  1  0  0  0  0
  8  6  1  0  0  0  0
  9  8  1  0  0  0  0
 10  4  2  0  0  0  0
M  RAD  1   3   2
M  END
