Coordinates from ORCA-job Imidazole-4-N2+-scan-d09-160-n800
 OpenBabel09191814123D

 10  9  0  0  0  0  0  0  0  0999 V2000
    7.2757    5.4089    2.8437 N   0  0  0  0  0  0  0  0  0  0  0  0
    8.1874    5.9354    3.1810 N   0  0  0  0  0  0  0  0  0  0  0  0
   -3.9319   -0.9185   -1.2169 C   0  0  0  0  0  0  0  0  0  0  0  0
   -3.4353    0.8002   -0.3413 C   0  0  0  0  0  0  0  0  0  0  0  0
   -3.4926    1.7740    0.1245 H   0  0  0  0  0  0  0  0  0  0  0  0
   -2.2942    0.0901   -0.5827 N   0  0  0  0  0  0  0  0  0  0  0  0
   -1.3482    0.3918   -0.3522 H   0  0  0  0  0  0  0  0  0  0  0  0
   -2.5949   -1.1338   -1.2015 C   0  0  0  0  0  0  0  0  0  0  0  0
   -1.9019   -1.8986   -1.5094 H   0  0  0  0  0  0  0  0  0  0  0  0
   -4.5021    0.0842   -0.7830 N   0  0  0  0  0  0  0  0  0  0  0  0
  1  2  3  0  0  0  0
  3  8  2  0  0  0  0
  3 10  1  0  0  0  0
  4  5  1  0  0  0  0
  6  7  1  0  0  0  0
  6  4  1  0  0  0  0
  8  6  1  0  0  0  0
  9  8  1  0  0  0  0
 10  4  2  0  0  0  0
M  RAD  1   3   2
M  END
