Coordinates from ORCA-job Imidazole-4-N2+-scan-d09-160-n800
 OpenBabel09191814123D

 10  9  0  0  0  0  0  0  0  0999 V2000
    3.1951    0.6635    0.2860 N   0  0  0  0  0  0  0  0  0  0  0  0
    4.2926    0.5554    0.3593 N   0  0  0  0  0  0  0  0  0  0  0  0
   -0.6285    0.7624   -0.0932 C   0  0  0  0  0  0  0  0  0  0  0  0
   -2.5307    0.3411   -0.4910 C   0  0  0  0  0  0  0  0  0  0  0  0
   -3.4281   -0.1665   -0.8157 H   0  0  0  0  0  0  0  0  0  0  0  0
   -2.4701    1.5853    0.0676 N   0  0  0  0  0  0  0  0  0  0  0  0
   -3.2676    2.1934    0.2490 H   0  0  0  0  0  0  0  0  0  0  0  0
   -1.1412    1.9276    0.3668 C   0  0  0  0  0  0  0  0  0  0  0  0
   -0.7849    2.8413    0.8117 H   0  0  0  0  0  0  0  0  0  0  0  0
   -1.2746   -0.1698   -0.5784 N   0  0  0  0  0  0  0  0  0  0  0  0
  1  2  3  0  0  0  0
  3  8  2  0  0  0  0
  4  6  1  0  0  0  0
  5  4  1  0  0  0  0
  6  7  1  0  0  0  0
  6  8  1  0  0  0  0
  8  9  1  0  0  0  0
 10  4  2  0  0  0  0
 10  3  1  0  0  0  0
M  RAD  1   3   2
M  END
