Coordinates from ORCA-job Imidazole-4-N2+-scan-d09-160-n800
 OpenBabel09191814123D

 10  9  0  0  0  0  0  0  0  0999 V2000
    6.5507    5.0134    2.5874 N   0  0  0  0  0  0  0  0  0  0  0  0
    7.4621    5.5401    2.9252 N   0  0  0  0  0  0  0  0  0  0  0  0
   -3.7482   -0.8219   -1.1539 C   0  0  0  0  0  0  0  0  0  0  0  0
   -3.2565    0.8980   -0.2781 C   0  0  0  0  0  0  0  0  0  0  0  0
   -3.3165    1.8717    0.1875 H   0  0  0  0  0  0  0  0  0  0  0  0
   -2.1135    0.1904   -0.5179 N   0  0  0  0  0  0  0  0  0  0  0  0
   -1.1684    0.4942   -0.2864 H   0  0  0  0  0  0  0  0  0  0  0  0
   -2.4108   -1.0343   -1.1369 C   0  0  0  0  0  0  0  0  0  0  0  0
   -1.7157   -1.7976   -1.4439 H   0  0  0  0  0  0  0  0  0  0  0  0
   -4.3212    0.1796   -0.7209 N   0  0  0  0  0  0  0  0  0  0  0  0
  1  2  3  0  0  0  0
  3  8  2  0  0  0  0
  3 10  1  0  0  0  0
  4  5  1  0  0  0  0
  6  7  1  0  0  0  0
  6  4  1  0  0  0  0
  8  6  1  0  0  0  0
  9  8  1  0  0  0  0
 10  4  2  0  0  0  0
M  RAD  1   3   2
M  END
