Coordinates from ORCA-job Imidazole-4-N2+-scan-d09-160-n800
 OpenBabel09191814123D

 10 10  0  0  0  0  0  0  0  0999 V2000
    1.0581    0.7845    0.1034 N   0  0  0  0  0  0  0  0  0  0  0  0
    2.2137    0.6550    0.1731 N   0  0  0  0  0  0  0  0  0  0  0  0
    0.1635    0.8567    0.0363 C   0  0  0  0  0  0  0  0  0  0  0  0
   -1.9106    0.2524   -0.4617 C   0  0  0  0  0  0  0  0  0  0  0  0
   -2.8068   -0.2625   -0.7892 H   0  0  0  0  0  0  0  0  0  0  0  0
   -1.9701    1.5442    0.1047 N   0  0  0  0  0  0  0  0  0  0  0  0
   -2.8156    2.0924    0.2541 H   0  0  0  0  0  0  0  0  0  0  0  0
   -0.7504    1.9336    0.4127 C   0  0  0  0  0  0  0  0  0  0  0  0
   -0.5025    2.8878    0.8638 H   0  0  0  0  0  0  0  0  0  0  0  0
   -0.7171   -0.2104   -0.5350 N   0  0  0  0  0  0  0  0  0  0  0  0
  1  2  1  0  0  0  0
  3  1  1  0  0  0  0
  3  8  2  0  0  0  0
  4  6  1  0  0  0  0
  5  4  1  0  0  0  0
  6  7  1  0  0  0  0
  6  8  1  0  0  0  0
  8  9  1  0  0  0  0
 10  4  2  0  0  0  0
 10  3  1  0  0  0  0
M  RAD  2   1   2   2   3
M  END
