Coordinates from ORCA-job Imidazole-4-N2+-scan-d09-160-n800
 OpenBabel09191814123D

 10  9  0  0  0  0  0  0  0  0999 V2000
    2.9325    0.6581    0.2545 N   0  0  0  0  0  0  0  0  0  0  0  0
    4.0292    0.5412    0.3239 N   0  0  0  0  0  0  0  0  0  0  0  0
   -0.5529    0.7918   -0.0718 C   0  0  0  0  0  0  0  0  0  0  0  0
   -2.4436    0.3309   -0.4859 C   0  0  0  0  0  0  0  0  0  0  0  0
   -3.3276   -0.1955   -0.8174 H   0  0  0  0  0  0  0  0  0  0  0  0
   -2.4142    1.5772    0.0703 N   0  0  0  0  0  0  0  0  0  0  0  0
   -3.2255    2.1691    0.2430 H   0  0  0  0  0  0  0  0  0  0  0  0
   -1.0958    1.9464    0.3802 C   0  0  0  0  0  0  0  0  0  0  0  0
   -0.7628    2.8683    0.8261 H   0  0  0  0  0  0  0  0  0  0  0  0
   -1.1771   -0.1538   -0.5606 N   0  0  0  0  0  0  0  0  0  0  0  0
  1  2  3  0  0  0  0
  3  8  2  0  0  0  0
  4  6  1  0  0  0  0
  5  4  1  0  0  0  0
  6  7  1  0  0  0  0
  6  8  1  0  0  0  0
  8  9  1  0  0  0  0
 10  4  2  0  0  0  0
 10  3  1  0  0  0  0
M  RAD  1   3   2
M  END
