Coordinates from ORCA-job Imidazole-4-N2+-scan-d09-160-n800
 OpenBabel09191814123D

 10  9  0  0  0  0  0  0  0  0999 V2000
    2.0774    0.6892    0.1737 N   0  0  0  0  0  0  0  0  0  0  0  0
    3.1713    0.5506    0.2333 N   0  0  0  0  0  0  0  0  0  0  0  0
   -0.3115    0.8419   -0.0230 C   0  0  0  0  0  0  0  0  0  0  0  0
   -2.1821    0.3035   -0.4691 C   0  0  0  0  0  0  0  0  0  0  0  0
   -3.0426   -0.2536   -0.8115 H   0  0  0  0  0  0  0  0  0  0  0  0
   -2.2191    1.5524    0.0809 N   0  0  0  0  0  0  0  0  0  0  0  0
   -3.0569    2.1091    0.2352 H   0  0  0  0  0  0  0  0  0  0  0  0
   -0.9262    1.9696    0.4092 C   0  0  0  0  0  0  0  0  0  0  0  0
   -0.6427    2.9069    0.8564 H   0  0  0  0  0  0  0  0  0  0  0  0
   -0.9056   -0.1361   -0.5228 N   0  0  0  0  0  0  0  0  0  0  0  0
  1  2  3  0  0  0  0
  3  8  2  0  0  0  0
  4  6  1  0  0  0  0
  5  4  1  0  0  0  0
  6  7  1  0  0  0  0
  6  8  1  0  0  0  0
  8  9  1  0  0  0  0
 10  4  2  0  0  0  0
 10  3  1  0  0  0  0
M  RAD  1   3   2
M  END
