Coordinates from ORCA-job Imidazole-4-N2+-scan-d09-160-n800
 OpenBabel09191814123D

 10  9  0  0  0  0  0  0  0  0999 V2000
    9.2083    6.4402    3.5144 N   0  0  0  0  0  0  0  0  0  0  0  0
   10.0909    7.0035    3.8690 N   0  0  0  0  0  0  0  0  0  0  0  0
   -4.4150   -1.1779   -1.3844 C   0  0  0  0  0  0  0  0  0  0  0  0
   -3.9111    0.5393   -0.5101 C   0  0  0  0  0  0  0  0  0  0  0  0
   -3.9644    1.5133   -0.0443 H   0  0  0  0  0  0  0  0  0  0  0  0
   -2.7728   -0.1743   -0.7540 N   0  0  0  0  0  0  0  0  0  0  0  0
   -1.8253    0.1245   -0.5257 H   0  0  0  0  0  0  0  0  0  0  0  0
   -3.0787   -1.3973   -1.3720 C   0  0  0  0  0  0  0  0  0  0  0  0
   -2.3887   -2.1643   -1.6814 H   0  0  0  0  0  0  0  0  0  0  0  0
   -4.9811   -0.1734   -0.9493 N   0  0  0  0  0  0  0  0  0  0  0  0
  1  2  3  0  0  0  0
  3  8  2  0  0  0  0
  3 10  1  0  0  0  0
  4  5  1  0  0  0  0
  6  7  1  0  0  0  0
  6  4  1  0  0  0  0
  8  6  1  0  0  0  0
  9  8  1  0  0  0  0
 10  4  2  0  0  0  0
M  RAD  1   3   2
M  END
