Coordinates from ORCA-job Imidazole-4-N2+-scan-d09-160-n800
 OpenBabel09191814123D

 10  9  0  0  0  0  0  0  0  0999 V2000
    5.9736    4.6974    2.3830 N   0  0  0  0  0  0  0  0  0  0  0  0
    6.8845    5.2246    2.7210 N   0  0  0  0  0  0  0  0  0  0  0  0
   -3.6025   -0.7450   -1.1039 C   0  0  0  0  0  0  0  0  0  0  0  0
   -3.1138    0.9760   -0.2276 C   0  0  0  0  0  0  0  0  0  0  0  0
   -3.1760    1.9497    0.2379 H   0  0  0  0  0  0  0  0  0  0  0  0
   -1.9696    0.2705   -0.4663 N   0  0  0  0  0  0  0  0  0  0  0  0
   -1.0254    0.5760   -0.2338 H   0  0  0  0  0  0  0  0  0  0  0  0
   -2.2645   -0.9546   -1.0853 C   0  0  0  0  0  0  0  0  0  0  0  0
   -1.5679   -1.7169   -1.3917 H   0  0  0  0  0  0  0  0  0  0  0  0
   -4.1766    0.2559   -0.6712 N   0  0  0  0  0  0  0  0  0  0  0  0
  1  2  3  0  0  0  0
  3  8  2  0  0  0  0
  3 10  1  0  0  0  0
  4  5  1  0  0  0  0
  6  7  1  0  0  0  0
  6  4  1  0  0  0  0
  8  6  1  0  0  0  0
  9  8  1  0  0  0  0
 10  4  2  0  0  0  0
M  RAD  1   3   2
M  END
