Coordinates from ORCA-job Imidazole-4-N2+-scan-d09-160-n800
 OpenBabel09191814123D

 10  9  0  0  0  0  0  0  0  0999 V2000
    5.1966    4.2705    2.1070 N   0  0  0  0  0  0  0  0  0  0  0  0
    6.1065    4.7989    2.4457 N   0  0  0  0  0  0  0  0  0  0  0  0
   -3.4044   -0.6419   -1.0367 C   0  0  0  0  0  0  0  0  0  0  0  0
   -2.9232    1.0809   -0.1598 C   0  0  0  0  0  0  0  0  0  0  0  0
   -2.9895    2.0545    0.3054 H   0  0  0  0  0  0  0  0  0  0  0  0
   -1.7762    0.3792   -0.3962 N   0  0  0  0  0  0  0  0  0  0  0  0
   -0.8334    0.6881   -0.1620 H   0  0  0  0  0  0  0  0  0  0  0  0
   -2.0657   -0.8469   -1.0155 C   0  0  0  0  0  0  0  0  0  0  0  0
   -1.3660   -1.6069   -1.3204 H   0  0  0  0  0  0  0  0  0  0  0  0
   -3.9827    0.3571   -0.6052 N   0  0  0  0  0  0  0  0  0  0  0  0
  1  2  3  0  0  0  0
  3  8  2  0  0  0  0
  3 10  1  0  0  0  0
  4  5  1  0  0  0  0
  6  7  1  0  0  0  0
  6  4  1  0  0  0  0
  8  6  1  0  0  0  0
  9  8  1  0  0  0  0
 10  4  2  0  0  0  0
M  RAD  1   3   2
M  END
