Coordinates from ORCA-job Imidazole-4-N2+-scan-d09-160-n800
 OpenBabel09191814123D

 10  9  0  0  0  0  0  0  0  0999 V2000
    8.3923    6.0144    3.2363 N   0  0  0  0  0  0  0  0  0  0  0  0
    9.3017    6.5438    3.5748 N   0  0  0  0  0  0  0  0  0  0  0  0
   -4.2128   -1.0683   -1.3142 C   0  0  0  0  0  0  0  0  0  0  0  0
   -3.7121    0.6493   -0.4390 C   0  0  0  0  0  0  0  0  0  0  0  0
   -3.7670    1.6232    0.0269 H   0  0  0  0  0  0  0  0  0  0  0  0
   -2.5726   -0.0628   -0.6816 N   0  0  0  0  0  0  0  0  0  0  0  0
   -1.6257    0.2370   -0.4521 H   0  0  0  0  0  0  0  0  0  0  0  0
   -2.8762   -1.2861   -1.3002 C   0  0  0  0  0  0  0  0  0  0  0  0
   -2.1850   -2.0523   -1.6090 H   0  0  0  0  0  0  0  0  0  0  0  0
   -4.7807   -0.0646   -0.8796 N   0  0  0  0  0  0  0  0  0  0  0  0
  1  2  3  0  0  0  0
  3  8  2  0  0  0  0
  3 10  1  0  0  0  0
  4  5  1  0  0  0  0
  6  7  1  0  0  0  0
  6  4  1  0  0  0  0
  8  6  1  0  0  0  0
  9  8  1  0  0  0  0
 10  4  2  0  0  0  0
M  RAD  1   3   2
M  END
