Coordinates from ORCA-job Imidazole-4-N2+-scan-d09-160-n800
 OpenBabel09191814123D

 10  9  0  0  0  0  0  0  0  0999 V2000
    5.7325    4.5648    2.2973 N   0  0  0  0  0  0  0  0  0  0  0  0
    6.6429    5.0927    2.6357 N   0  0  0  0  0  0  0  0  0  0  0  0
   -3.5412   -0.7128   -1.0830 C   0  0  0  0  0  0  0  0  0  0  0  0
   -3.0543    1.0087   -0.2065 C   0  0  0  0  0  0  0  0  0  0  0  0
   -3.1176    1.9823    0.2589 H   0  0  0  0  0  0  0  0  0  0  0  0
   -1.9095    0.3041   -0.4446 N   0  0  0  0  0  0  0  0  0  0  0  0
   -0.9656    0.6105   -0.2117 H   0  0  0  0  0  0  0  0  0  0  0  0
   -2.2030   -0.9213   -1.0637 C   0  0  0  0  0  0  0  0  0  0  0  0
   -1.5057   -1.6830   -1.3697 H   0  0  0  0  0  0  0  0  0  0  0  0
   -4.1163    0.2877   -0.6506 N   0  0  0  0  0  0  0  0  0  0  0  0
  1  2  3  0  0  0  0
  3  8  2  0  0  0  0
  3 10  1  0  0  0  0
  4  5  1  0  0  0  0
  6  7  1  0  0  0  0
  6  4  1  0  0  0  0
  8  6  1  0  0  0  0
  9  8  1  0  0  0  0
 10  4  2  0  0  0  0
M  RAD  1   3   2
M  END
