Coordinates from ORCA-job Imidazole-4-N2+-scan-d09-160-n800
 OpenBabel09191814123D

 10  9  0  0  0  0  0  0  0  0999 V2000
    4.7679    4.0351    1.9549 N   0  0  0  0  0  0  0  0  0  0  0  0
    5.6783    4.5629    2.2932 N   0  0  0  0  0  0  0  0  0  0  0  0
   -3.2945   -0.5857   -0.9998 C   0  0  0  0  0  0  0  0  0  0  0  0
   -2.8189    1.1386   -0.1226 C   0  0  0  0  0  0  0  0  0  0  0  0
   -2.8885    2.1120    0.3423 H   0  0  0  0  0  0  0  0  0  0  0  0
   -1.6698    0.4399   -0.3573 N   0  0  0  0  0  0  0  0  0  0  0  0
   -0.7281    0.7514   -0.1218 H   0  0  0  0  0  0  0  0  0  0  0  0
   -1.9553   -0.7871   -0.9768 C   0  0  0  0  0  0  0  0  0  0  0  0
   -1.2531   -1.5453   -1.2806 H   0  0  0  0  0  0  0  0  0  0  0  0
   -3.8760    0.4119   -0.5693 N   0  0  0  0  0  0  0  0  0  0  0  0
  1  2  3  0  0  0  0
  3  8  2  0  0  0  0
  3 10  1  0  0  0  0
  4  5  1  0  0  0  0
  6  4  1  0  0  0  0
  6  7  1  0  0  0  0
  8  6  1  0  0  0  0
  9  8  1  0  0  0  0
 10  4  2  0  0  0  0
M  RAD  1   3   2
M  END
