Coordinates from ORCA-job Imidazole-4-N2+-scan-d09-160-n800
 OpenBabel09191814123D

 10  9  0  0  0  0  0  0  0  0999 V2000
    3.6936    0.7095    0.3616 N   0  0  0  0  0  0  0  0  0  0  0  0
    4.7925    0.6249    0.4454 N   0  0  0  0  0  0  0  0  0  0  0  0
   -0.7813    0.6671   -0.1523 C   0  0  0  0  0  0  0  0  0  0  0  0
   -2.7175    0.3682   -0.4997 C   0  0  0  0  0  0  0  0  0  0  0  0
   -3.6534   -0.0803   -0.8024 H   0  0  0  0  0  0  0  0  0  0  0  0
   -2.5639    1.6018    0.0646 N   0  0  0  0  0  0  0  0  0  0  0  0
   -3.3164    2.2573    0.2719 H   0  0  0  0  0  0  0  0  0  0  0  0
   -1.2089    1.8582    0.3286 C   0  0  0  0  0  0  0  0  0  0  0  0
   -0.7845    2.7447    0.7689 H   0  0  0  0  0  0  0  0  0  0  0  0
   -1.4983   -0.2178   -0.6244 N   0  0  0  0  0  0  0  0  0  0  0  0
  1  2  3  0  0  0  0
  3  8  2  0  0  0  0
  4  6  1  0  0  0  0
  5  4  1  0  0  0  0
  6  7  1  0  0  0  0
  6  8  1  0  0  0  0
  8  9  1  0  0  0  0
 10  4  2  0  0  0  0
 10  3  1  0  0  0  0
M  RAD  1   3   2
M  END
