Coordinates from ORCA-job Imidazole-4-N2+-scan-d09-160-n800
 OpenBabel09191814123D

 10  9  0  0  0  0  0  0  0  0999 V2000
    2.5184    2.7581    1.1376 N   0  0  0  0  0  0  0  0  0  0  0  0
    3.4376    3.2745    1.4690 N   0  0  0  0  0  0  0  0  0  0  0  0
   -2.6774   -0.3191   -0.8159 C   0  0  0  0  0  0  0  0  0  0  0  0
   -2.3131    1.4321    0.0646 C   0  0  0  0  0  0  0  0  0  0  0  0
   -2.4459    2.4023    0.5223 H   0  0  0  0  0  0  0  0  0  0  0  0
   -1.1229    0.7948   -0.1368 N   0  0  0  0  0  0  0  0  0  0  0  0
   -0.2049    1.1591    0.1223 H   0  0  0  0  0  0  0  0  0  0  0  0
   -1.3293   -0.4479   -0.7569 C   0  0  0  0  0  0  0  0  0  0  0  0
   -0.5810   -1.1694   -1.0388 H   0  0  0  0  0  0  0  0  0  0  0  0
   -3.3195    0.6491   -0.4051 N   0  0  0  0  0  0  0  0  0  0  0  0
  1  2  3  0  0  0  0
  3  8  2  0  0  0  0
  3 10  1  0  0  0  0
  4  5  1  0  0  0  0
  6  4  1  0  0  0  0
  6  7  1  0  0  0  0
  8  6  1  0  0  0  0
  9  8  1  0  0  0  0
 10  4  2  0  0  0  0
M  RAD  1   3   2
M  END
