Coordinates from ORCA-job Imidazole-4-N2+-scan-d09-160-n800
 OpenBabel09191814123D

 10  9  0  0  0  0  0  0  0  0999 V2000
    2.4916    2.7434    1.1282 N   0  0  0  0  0  0  0  0  0  0  0  0
    3.4111    3.2593    1.4592 N   0  0  0  0  0  0  0  0  0  0  0  0
   -2.6703   -0.3159   -0.8138 C   0  0  0  0  0  0  0  0  0  0  0  0
   -2.3070    1.4355    0.0668 C   0  0  0  0  0  0  0  0  0  0  0  0
   -2.4404    2.4056    0.5244 H   0  0  0  0  0  0  0  0  0  0  0  0
   -1.1164    0.7989   -0.1342 N   0  0  0  0  0  0  0  0  0  0  0  0
   -0.1985    1.1638    0.1252 H   0  0  0  0  0  0  0  0  0  0  0  0
   -1.3220   -0.4440   -0.7544 C   0  0  0  0  0  0  0  0  0  0  0  0
   -0.5733   -1.1650   -1.0360 H   0  0  0  0  0  0  0  0  0  0  0  0
   -3.3129    0.6520   -0.4031 N   0  0  0  0  0  0  0  0  0  0  0  0
  1  2  3  0  0  0  0
  3  8  2  0  0  0  0
  3 10  1  0  0  0  0
  4  5  1  0  0  0  0
  6  4  1  0  0  0  0
  6  7  1  0  0  0  0
  8  6  1  0  0  0  0
  9  8  1  0  0  0  0
 10  4  2  0  0  0  0
M  RAD  1   3   2
M  END
