Coordinates from ORCA-job Imidazole-4-N2+-scan-d09-160-n800
 OpenBabel09191814123D

 10  9  0  0  0  0  0  0  0  0999 V2000
    1.8495    0.7067    0.1561 N   0  0  0  0  0  0  0  0  0  0  0  0
    2.9427    0.5663    0.2148 N   0  0  0  0  0  0  0  0  0  0  0  0
   -0.2405    0.8467   -0.0131 C   0  0  0  0  0  0  0  0  0  0  0  0
   -2.1151    0.2973   -0.4643 C   0  0  0  0  0  0  0  0  0  0  0  0
   -2.9762   -0.2591   -0.8065 H   0  0  0  0  0  0  0  0  0  0  0  0
   -2.1640    1.5471    0.0845 N   0  0  0  0  0  0  0  0  0  0  0  0
   -3.0053    2.0978    0.2356 H   0  0  0  0  0  0  0  0  0  0  0  0
   -0.8785    1.9664    0.4132 C   0  0  0  0  0  0  0  0  0  0  0  0
   -0.6052    2.9068    0.8608 H   0  0  0  0  0  0  0  0  0  0  0  0
   -0.8454   -0.1423   -0.5189 N   0  0  0  0  0  0  0  0  0  0  0  0
  1  2  3  0  0  0  0
  3  8  2  0  0  0  0
  4  6  1  0  0  0  0
  5  4  1  0  0  0  0
  6  7  1  0  0  0  0
  6  8  1  0  0  0  0
  8  9  1  0  0  0  0
 10  4  2  0  0  0  0
 10  3  1  0  0  0  0
M  RAD  1   3   2
M  END
