Coordinates from ORCA-job Imidazole-4-N2+-scan-d09-160-n800
 OpenBabel09191814123D

 10  9  0  0  0  0  0  0  0  0999 V2000
    4.1403    3.6879    1.7311 N   0  0  0  0  0  0  0  0  0  0  0  0
    5.0514    4.2150    2.0688 N   0  0  0  0  0  0  0  0  0  0  0  0
   -3.1304   -0.5052   -0.9463 C   0  0  0  0  0  0  0  0  0  0  0  0
   -2.6694    1.2224   -0.0687 C   0  0  0  0  0  0  0  0  0  0  0  0
   -2.7466    2.1956    0.3954 H   0  0  0  0  0  0  0  0  0  0  0  0
   -1.5148    0.5310   -0.2993 N   0  0  0  0  0  0  0  0  0  0  0  0
   -0.5758    0.8486   -0.0611 H   0  0  0  0  0  0  0  0  0  0  0  0
   -1.7901   -0.6984   -0.9191 C   0  0  0  0  0  0  0  0  0  0  0  0
   -1.0820   -1.4520   -1.2201 H   0  0  0  0  0  0  0  0  0  0  0  0
   -3.7206    0.4885   -0.5185 N   0  0  0  0  0  0  0  0  0  0  0  0
  1  2  3  0  0  0  0
  3  8  2  0  0  0  0
  3 10  1  0  0  0  0
  4  5  1  0  0  0  0
  6  4  1  0  0  0  0
  6  7  1  0  0  0  0
  8  6  1  0  0  0  0
  9  8  1  0  0  0  0
 10  4  2  0  0  0  0
M  RAD  1   3   2
M  END
