Coordinates from ORCA-job Imidazole-4-N2+-scan-d09-160-n800
 OpenBabel09191814123D

 10  9  0  0  0  0  0  0  0  0999 V2000
    7.3295    5.4381    2.8627 N   0  0  0  0  0  0  0  0  0  0  0  0
    8.2411    5.9646    3.1999 N   0  0  0  0  0  0  0  0  0  0  0  0
   -3.9455   -0.9256   -1.2216 C   0  0  0  0  0  0  0  0  0  0  0  0
   -3.4486    0.7929   -0.3460 C   0  0  0  0  0  0  0  0  0  0  0  0
   -3.5057    1.7667    0.1198 H   0  0  0  0  0  0  0  0  0  0  0  0
   -2.3076    0.0827   -0.5875 N   0  0  0  0  0  0  0  0  0  0  0  0
   -1.3615    0.3842   -0.3570 H   0  0  0  0  0  0  0  0  0  0  0  0
   -2.6086   -1.1411   -1.2063 C   0  0  0  0  0  0  0  0  0  0  0  0
   -1.9157   -1.9061   -1.5142 H   0  0  0  0  0  0  0  0  0  0  0  0
   -4.5155    0.0771   -0.7876 N   0  0  0  0  0  0  0  0  0  0  0  0
  1  2  3  0  0  0  0
  3  8  2  0  0  0  0
  3 10  1  0  0  0  0
  4  5  1  0  0  0  0
  6  7  1  0  0  0  0
  6  4  1  0  0  0  0
  8  6  1  0  0  0  0
  9  8  1  0  0  0  0
 10  4  2  0  0  0  0
M  RAD  1   3   2
M  END
