Coordinates from ORCA-job Imidazole-4-N2+-scan-d09-160-n800
 OpenBabel09191814123D

 10 10  0  0  0  0  0  0  0  0999 V2000
    1.6338    0.7196    0.1381 N   0  0  0  0  0  0  0  0  0  0  0  0
    2.7282    0.5859    0.2001 N   0  0  0  0  0  0  0  0  0  0  0  0
   -0.1570    0.8525   -0.0013 C   0  0  0  0  0  0  0  0  0  0  0  0
   -2.0505    0.2899   -0.4608 C   0  0  0  0  0  0  0  0  0  0  0  0
   -2.9177   -0.2589   -0.8003 H   0  0  0  0  0  0  0  0  0  0  0  0
   -2.1103    1.5434    0.0892 N   0  0  0  0  0  0  0  0  0  0  0  0
   -2.9543    2.0885    0.2380 H   0  0  0  0  0  0  0  0  0  0  0  0
   -0.8372    1.9601    0.4145 C   0  0  0  0  0  0  0  0  0  0  0  0
   -0.5772    2.9052    0.8626 H   0  0  0  0  0  0  0  0  0  0  0  0
   -0.7958   -0.1527   -0.5179 N   0  0  0  0  0  0  0  0  0  0  0  0
  1  2  1  0  0  0  0
  3  1  1  0  0  0  0
  3  8  2  0  0  0  0
  4  6  1  0  0  0  0
  5  4  1  0  0  0  0
  6  7  1  0  0  0  0
  6  8  1  0  0  0  0
  8  9  1  0  0  0  0
 10  4  2  0  0  0  0
 10  3  1  0  0  0  0
M  RAD  2   1   2   2   3
M  END
