Coordinates from ORCA-job Imidazole-4-N2+-scan-d09-160-n800
 OpenBabel09191814123D

 10  9  0  0  0  0  0  0  0  0999 V2000
    3.7678    3.4796    1.5972 N   0  0  0  0  0  0  0  0  0  0  0  0
    4.6794    4.0060    1.9344 N   0  0  0  0  0  0  0  0  0  0  0  0
   -3.0311   -0.4591   -0.9150 C   0  0  0  0  0  0  0  0  0  0  0  0
   -2.5826    1.2717   -0.0371 C   0  0  0  0  0  0  0  0  0  0  0  0
   -2.6669    2.2447    0.4262 H   0  0  0  0  0  0  0  0  0  0  0  0
   -1.4233    0.5871   -0.2641 N   0  0  0  0  0  0  0  0  0  0  0  0
   -0.4869    0.9105   -0.0234 H   0  0  0  0  0  0  0  0  0  0  0  0
   -1.6897   -0.6442   -0.8840 C   0  0  0  0  0  0  0  0  0  0  0  0
   -0.9763   -1.3939   -1.1826 H   0  0  0  0  0  0  0  0  0  0  0  0
   -3.6282    0.5313   -0.4894 N   0  0  0  0  0  0  0  0  0  0  0  0
  1  2  3  0  0  0  0
  3  8  2  0  0  0  0
  3 10  1  0  0  0  0
  4  5  1  0  0  0  0
  6  4  1  0  0  0  0
  6  7  1  0  0  0  0
  8  6  1  0  0  0  0
  9  8  1  0  0  0  0
 10  4  2  0  0  0  0
M  RAD  1   3   2
M  END
