Coordinates from ORCA-job Imidazole-4-N2+-scan-d09-160-n800
 OpenBabel09191814123D

 10  9  0  0  0  0  0  0  0  0999 V2000
    3.4252    0.6787    0.3182 N   0  0  0  0  0  0  0  0  0  0  0  0
    4.5233    0.5794    0.3954 N   0  0  0  0  0  0  0  0  0  0  0  0
   -0.6957    0.7254   -0.1170 C   0  0  0  0  0  0  0  0  0  0  0  0
   -2.6130    0.3521   -0.4953 C   0  0  0  0  0  0  0  0  0  0  0  0
   -3.5260   -0.1327   -0.8115 H   0  0  0  0  0  0  0  0  0  0  0  0
   -2.5159    1.5928    0.0659 N   0  0  0  0  0  0  0  0  0  0  0  0
   -3.2960    2.2200    0.2576 H   0  0  0  0  0  0  0  0  0  0  0  0
   -1.1762    1.9012    0.3513 C   0  0  0  0  0  0  0  0  0  0  0  0
   -0.7931    2.8048    0.7946 H   0  0  0  0  0  0  0  0  0  0  0  0
   -1.3707   -0.1880   -0.5971 N   0  0  0  0  0  0  0  0  0  0  0  0
  1  2  3  0  0  0  0
  3  8  2  0  0  0  0
  4  6  1  0  0  0  0
  5  4  1  0  0  0  0
  6  7  1  0  0  0  0
  6  8  1  0  0  0  0
  8  9  1  0  0  0  0
 10  4  2  0  0  0  0
 10  3  1  0  0  0  0
M  RAD  1   3   2
M  END
