Coordinates from ORCA-job Imidazole-4-N2+-scan-d09-160-n800
 OpenBabel09191814123D

 10 10  0  0  0  0  0  0  0  0999 V2000
    1.0897    0.7793    0.1044 N   0  0  0  0  0  0  0  0  0  0  0  0
    2.2346    0.6573    0.1766 N   0  0  0  0  0  0  0  0  0  0  0  0
    0.1352    0.8513    0.0309 C   0  0  0  0  0  0  0  0  0  0  0  0
   -1.9174    0.2557   -0.4610 C   0  0  0  0  0  0  0  0  0  0  0  0
   -2.8102   -0.2628   -0.7900 H   0  0  0  0  0  0  0  0  0  0  0  0
   -1.9767    1.5437    0.1040 N   0  0  0  0  0  0  0  0  0  0  0  0
   -2.8210    2.0929    0.2541 H   0  0  0  0  0  0  0  0  0  0  0  0
   -0.7518    1.9322    0.4119 C   0  0  0  0  0  0  0  0  0  0  0  0
   -0.5028    2.8858    0.8624 H   0  0  0  0  0  0  0  0  0  0  0  0
   -0.7176   -0.2018   -0.5312 N   0  0  0  0  0  0  0  0  0  0  0  0
  1  2  1  0  0  0  0
  3  1  1  0  0  0  0
  3  8  2  0  0  0  0
  4  6  1  0  0  0  0
  5  4  1  0  0  0  0
  6  7  1  0  0  0  0
  6  8  1  0  0  0  0
  8  9  1  0  0  0  0
 10  4  2  0  0  0  0
 10  3  1  0  0  0  0
M  RAD  2   1   2   2   3
M  END
