Coordinates from ORCA-job Imidazole-4-N2+-scan-d09-160-n800
 OpenBabel09191814123D

 10  9  0  0  0  0  0  0  0  0999 V2000
    2.4785    2.7357    1.1233 N   0  0  0  0  0  0  0  0  0  0  0  0
    3.3978    3.2519    1.4544 N   0  0  0  0  0  0  0  0  0  0  0  0
   -2.6666   -0.3144   -0.8127 C   0  0  0  0  0  0  0  0  0  0  0  0
   -2.3040    1.4372    0.0678 C   0  0  0  0  0  0  0  0  0  0  0  0
   -2.4379    2.4073    0.5254 H   0  0  0  0  0  0  0  0  0  0  0  0
   -1.1132    0.8010   -0.1329 N   0  0  0  0  0  0  0  0  0  0  0  0
   -0.1955    1.1663    0.1266 H   0  0  0  0  0  0  0  0  0  0  0  0
   -1.3183   -0.4419   -0.7530 C   0  0  0  0  0  0  0  0  0  0  0  0
   -0.5693   -1.1627   -1.0345 H   0  0  0  0  0  0  0  0  0  0  0  0
   -3.3096    0.6533   -0.4022 N   0  0  0  0  0  0  0  0  0  0  0  0
  1  2  3  0  0  0  0
  3  8  2  0  0  0  0
  3 10  1  0  0  0  0
  4  5  1  0  0  0  0
  6  4  1  0  0  0  0
  6  7  1  0  0  0  0
  8  6  1  0  0  0  0
  9  8  1  0  0  0  0
 10  4  2  0  0  0  0
M  RAD  1   3   2
M  END
