Coordinates from ORCA-job Imidazole-4-N2+-scan-d09-160-n800
 OpenBabel09191814123D

 10  9  0  0  0  0  0  0  0  0999 V2000
    6.9666    5.2402    2.7344 N   0  0  0  0  0  0  0  0  0  0  0  0
    7.8778    5.7672    3.0721 N   0  0  0  0  0  0  0  0  0  0  0  0
   -3.8540   -0.8775   -1.1902 C   0  0  0  0  0  0  0  0  0  0  0  0
   -3.3587    0.8418   -0.3144 C   0  0  0  0  0  0  0  0  0  0  0  0
   -3.4172    1.8156    0.1513 H   0  0  0  0  0  0  0  0  0  0  0  0
   -2.2170    0.1328   -0.5551 N   0  0  0  0  0  0  0  0  0  0  0  0
   -1.2715    0.4355   -0.3241 H   0  0  0  0  0  0  0  0  0  0  0  0
   -2.5167   -1.0912   -1.1739 C   0  0  0  0  0  0  0  0  0  0  0  0
   -1.8230   -1.8556   -1.4815 H   0  0  0  0  0  0  0  0  0  0  0  0
   -4.4244    0.1250   -0.7564 N   0  0  0  0  0  0  0  0  0  0  0  0
  1  2  3  0  0  0  0
  3  8  2  0  0  0  0
  3 10  1  0  0  0  0
  4  5  1  0  0  0  0
  6  7  1  0  0  0  0
  6  4  1  0  0  0  0
  8  6  1  0  0  0  0
  9  8  1  0  0  0  0
 10  4  2  0  0  0  0
M  RAD  1   3   2
M  END
