Coordinates from ORCA-job Imidazole-4-N2+-scan-d09-160-n800
 OpenBabel09191814123D

 10  9  0  0  0  0  0  0  0  0999 V2000
    4.1804    3.7094    1.7449 N   0  0  0  0  0  0  0  0  0  0  0  0
    5.0906    4.2376    2.0833 N   0  0  0  0  0  0  0  0  0  0  0  0
   -3.1412   -0.5105   -0.9498 C   0  0  0  0  0  0  0  0  0  0  0  0
   -2.6785    1.2170   -0.0721 C   0  0  0  0  0  0  0  0  0  0  0  0
   -2.7553    2.1903    0.3921 H   0  0  0  0  0  0  0  0  0  0  0  0
   -1.5245    0.5252   -0.3030 N   0  0  0  0  0  0  0  0  0  0  0  0
   -0.5855    0.8425   -0.0649 H   0  0  0  0  0  0  0  0  0  0  0  0
   -1.8008   -0.7038   -0.9227 C   0  0  0  0  0  0  0  0  0  0  0  0
   -1.0933   -1.4579   -1.2240 H   0  0  0  0  0  0  0  0  0  0  0  0
   -3.7299    0.4838   -0.5216 N   0  0  0  0  0  0  0  0  0  0  0  0
  1  2  3  0  0  0  0
  3  8  2  0  0  0  0
  3 10  1  0  0  0  0
  4  5  1  0  0  0  0
  6  4  1  0  0  0  0
  6  7  1  0  0  0  0
  8  6  1  0  0  0  0
  9  8  1  0  0  0  0
 10  4  2  0  0  0  0
M  RAD  1   3   2
M  END
