Coordinates from ORCA-job Imidazole-4-N2+-scan-d09-160-n800
 OpenBabel09191814123D

 10  9  0  0  0  0  0  0  0  0999 V2000
    7.5309    5.5473    2.9335 N   0  0  0  0  0  0  0  0  0  0  0  0
    8.4421    6.0744    3.2710 N   0  0  0  0  0  0  0  0  0  0  0  0
   -3.9967   -0.9528   -1.2393 C   0  0  0  0  0  0  0  0  0  0  0  0
   -3.4981    0.7657   -0.3636 C   0  0  0  0  0  0  0  0  0  0  0  0
   -3.5547    1.7395    0.1022 H   0  0  0  0  0  0  0  0  0  0  0  0
   -2.3577    0.0550   -0.6054 N   0  0  0  0  0  0  0  0  0  0  0  0
   -1.4115    0.3562   -0.3751 H   0  0  0  0  0  0  0  0  0  0  0  0
   -2.6597   -1.1685   -1.2240 C   0  0  0  0  0  0  0  0  0  0  0  0
   -1.9674   -1.9339   -1.5323 H   0  0  0  0  0  0  0  0  0  0  0  0
   -4.5652    0.0506   -0.8049 N   0  0  0  0  0  0  0  0  0  0  0  0
  1  2  3  0  0  0  0
  3  8  2  0  0  0  0
  3 10  1  0  0  0  0
  4  5  1  0  0  0  0
  6  7  1  0  0  0  0
  6  4  1  0  0  0  0
  8  6  1  0  0  0  0
  9  8  1  0  0  0  0
 10  4  2  0  0  0  0
M  RAD  1   3   2
M  END
