Coordinates from ORCA-job Imidazole-4-N2+-scan-d09-160-n800
 OpenBabel09191814123D

 10  9  0  0  0  0  0  0  0  0999 V2000
    3.1874    3.1473    1.3850 N   0  0  0  0  0  0  0  0  0  0  0  0
    4.1004    3.6720    1.7212 N   0  0  0  0  0  0  0  0  0  0  0  0
   -2.8696   -0.3919   -0.8679 C   0  0  0  0  0  0  0  0  0  0  0  0
   -2.4543    1.3471    0.0108 C   0  0  0  0  0  0  0  0  0  0  0  0
   -2.5572    2.3194    0.4720 H   0  0  0  0  0  0  0  0  0  0  0  0
   -1.2828    0.6805   -0.2066 N   0  0  0  0  0  0  0  0  0  0  0  0
   -0.3532    1.0193    0.0408 H   0  0  0  0  0  0  0  0  0  0  0  0
   -1.5255   -0.5556   -0.8265 C   0  0  0  0  0  0  0  0  0  0  0  0
   -0.7983   -1.2944   -1.1187 H   0  0  0  0  0  0  0  0  0  0  0  0
   -3.4849    0.5899   -0.4481 N   0  0  0  0  0  0  0  0  0  0  0  0
  1  2  3  0  0  0  0
  3  8  2  0  0  0  0
  3 10  1  0  0  0  0
  4  5  1  0  0  0  0
  6  4  1  0  0  0  0
  6  7  1  0  0  0  0
  8  6  1  0  0  0  0
  9  8  1  0  0  0  0
 10  4  2  0  0  0  0
M  RAD  1   3   2
M  END
