Coordinates from ORCA-job Imidazole-4-N2+-scan-d09-160-n800
 OpenBabel09191814123D

 10 10  0  0  0  0  0  0  0  0999 V2000
    1.1243    0.7744    0.1059 N   0  0  0  0  0  0  0  0  0  0  0  0
    2.2604    0.6575    0.1799 N   0  0  0  0  0  0  0  0  0  0  0  0
    0.1100    0.8485    0.0264 C   0  0  0  0  0  0  0  0  0  0  0  0
   -1.9249    0.2584   -0.4606 C   0  0  0  0  0  0  0  0  0  0  0  0
   -2.8158   -0.2624   -0.7903 H   0  0  0  0  0  0  0  0  0  0  0  0
   -1.9839    1.5436    0.1030 N   0  0  0  0  0  0  0  0  0  0  0  0
   -2.8273    2.0932    0.2535 H   0  0  0  0  0  0  0  0  0  0  0  0
   -0.7548    1.9315    0.4113 C   0  0  0  0  0  0  0  0  0  0  0  0
   -0.5055    2.8846    0.8618 H   0  0  0  0  0  0  0  0  0  0  0  0
   -0.7205   -0.1957   -0.5287 N   0  0  0  0  0  0  0  0  0  0  0  0
  1  2  1  0  0  0  0
  3  1  1  0  0  0  0
  3  8  2  0  0  0  0
  4  6  1  0  0  0  0
  5  4  1  0  0  0  0
  6  7  1  0  0  0  0
  6  8  1  0  0  0  0
  8  9  1  0  0  0  0
 10  4  2  0  0  0  0
 10  3  1  0  0  0  0
M  RAD  2   1   2   2   3
M  END
