Coordinates from ORCA-job Imidazole-4-N2+-scan-d09-160-n800
 OpenBabel09191814123D

 10  9  0  0  0  0  0  0  0  0999 V2000
    6.9266    5.2186    2.7204 N   0  0  0  0  0  0  0  0  0  0  0  0
    7.8381    5.7452    3.0579 N   0  0  0  0  0  0  0  0  0  0  0  0
   -3.8435   -0.8720   -1.1866 C   0  0  0  0  0  0  0  0  0  0  0  0
   -3.3491    0.8473   -0.3109 C   0  0  0  0  0  0  0  0  0  0  0  0
   -3.4077    1.8210    0.1548 H   0  0  0  0  0  0  0  0  0  0  0  0
   -2.2072    0.1384   -0.5515 N   0  0  0  0  0  0  0  0  0  0  0  0
   -1.2616    0.4410   -0.3206 H   0  0  0  0  0  0  0  0  0  0  0  0
   -2.5063   -1.0859   -1.1704 C   0  0  0  0  0  0  0  0  0  0  0  0
   -1.8123   -1.8501   -1.4779 H   0  0  0  0  0  0  0  0  0  0  0  0
   -4.4149    0.1302   -0.7530 N   0  0  0  0  0  0  0  0  0  0  0  0
  1  2  3  0  0  0  0
  3  8  2  0  0  0  0
  3 10  1  0  0  0  0
  4  5  1  0  0  0  0
  6  7  1  0  0  0  0
  6  4  1  0  0  0  0
  8  6  1  0  0  0  0
  9  8  1  0  0  0  0
 10  4  2  0  0  0  0
M  RAD  1   3   2
M  END
