Coordinates from ORCA-job Imidazole-4-N2+-scan-d09-160-n800
 OpenBabel09191814123D

 10  9  0  0  0  0  0  0  0  0999 V2000
    3.9385    0.7505    0.4069 N   0  0  0  0  0  0  0  0  0  0  0  0
    5.0379    0.6806    0.4972 N   0  0  0  0  0  0  0  0  0  0  0  0
   -0.8671    0.6008   -0.1912 C   0  0  0  0  0  0  0  0  0  0  0  0
   -2.8199    0.3870   -0.5026 C   0  0  0  0  0  0  0  0  0  0  0  0
   -3.7798   -0.0192   -0.7893 H   0  0  0  0  0  0  0  0  0  0  0  0
   -2.6023    1.6099    0.0639 N   0  0  0  0  0  0  0  0  0  0  0  0
   -3.3218    2.2960    0.2884 H   0  0  0  0  0  0  0  0  0  0  0  0
   -1.2322    1.8069    0.3033 C   0  0  0  0  0  0  0  0  0  0  0  0
   -0.7617    2.6722    0.7392 H   0  0  0  0  0  0  0  0  0  0  0  0
   -1.6295   -0.2509   -0.6536 N   0  0  0  0  0  0  0  0  0  0  0  0
  1  2  3  0  0  0  0
  3  8  2  0  0  0  0
  4  6  1  0  0  0  0
  5  4  1  0  0  0  0
  6  7  1  0  0  0  0
  6  8  1  0  0  0  0
  8  9  1  0  0  0  0
 10  4  2  0  0  0  0
 10  3  1  0  0  0  0
M  RAD  1   3   2
M  END
