Coordinates from ORCA-job Imidazole-4-N2+-scan-d09-160-n800
 OpenBabel09191814123D

 10  9  0  0  0  0  0  0  0  0999 V2000
    9.4252    6.5547    3.5891 N   0  0  0  0  0  0  0  0  0  0  0  0
   10.2996    7.1279    3.9482 N   0  0  0  0  0  0  0  0  0  0  0  0
   -4.4686   -1.2073   -1.4034 C   0  0  0  0  0  0  0  0  0  0  0  0
   -3.9639    0.5096   -0.5292 C   0  0  0  0  0  0  0  0  0  0  0  0
   -4.0167    1.4836   -0.0633 H   0  0  0  0  0  0  0  0  0  0  0  0
   -2.8259   -0.2044   -0.7734 N   0  0  0  0  0  0  0  0  0  0  0  0
   -1.8782    0.0940   -0.5453 H   0  0  0  0  0  0  0  0  0  0  0  0
   -3.1324   -1.4273   -1.3913 C   0  0  0  0  0  0  0  0  0  0  0  0
   -2.4428   -2.1946   -1.7009 H   0  0  0  0  0  0  0  0  0  0  0  0
   -5.0343   -0.2027   -0.9682 N   0  0  0  0  0  0  0  0  0  0  0  0
  1  2  3  0  0  0  0
  3  8  2  0  0  0  0
  3 10  1  0  0  0  0
  4  5  1  0  0  0  0
  6  7  1  0  0  0  0
  6  4  1  0  0  0  0
  8  6  1  0  0  0  0
  9  8  1  0  0  0  0
 10  4  2  0  0  0  0
M  RAD  1   3   2
M  END
