Coordinates from ORCA-job Imidazole-4-N2+-scan-d09-160-n800
 OpenBabel09191814123D

 10  9  0  0  0  0  0  0  0  0999 V2000
    4.8214    4.0645    1.9739 N   0  0  0  0  0  0  0  0  0  0  0  0
    5.7318    4.5925    2.3123 N   0  0  0  0  0  0  0  0  0  0  0  0
   -3.3083   -0.5927   -1.0044 C   0  0  0  0  0  0  0  0  0  0  0  0
   -2.8319    1.1314   -0.1272 C   0  0  0  0  0  0  0  0  0  0  0  0
   -2.9010    2.1049    0.3377 H   0  0  0  0  0  0  0  0  0  0  0  0
   -1.6830    0.4323   -0.3622 N   0  0  0  0  0  0  0  0  0  0  0  0
   -0.7412    0.7433   -0.1269 H   0  0  0  0  0  0  0  0  0  0  0  0
   -1.9691   -0.7946   -0.9817 C   0  0  0  0  0  0  0  0  0  0  0  0
   -1.2674   -1.5531   -1.2856 H   0  0  0  0  0  0  0  0  0  0  0  0
   -3.8893    0.4052   -0.5738 N   0  0  0  0  0  0  0  0  0  0  0  0
  1  2  3  0  0  0  0
  3  8  2  0  0  0  0
  3 10  1  0  0  0  0
  4  5  1  0  0  0  0
  6  4  1  0  0  0  0
  6  7  1  0  0  0  0
  8  6  1  0  0  0  0
  9  8  1  0  0  0  0
 10  4  2  0  0  0  0
M  RAD  1   3   2
M  END
