Coordinates from ORCA-job Imidazole-4-N2+-scan-d09-160-n800
 OpenBabel09191814123D

 10  9  0  0  0  0  0  0  0  0999 V2000
    6.4834    4.9763    2.5635 N   0  0  0  0  0  0  0  0  0  0  0  0
    7.3944    5.5035    2.9015 N   0  0  0  0  0  0  0  0  0  0  0  0
   -3.7316   -0.8132   -1.1482 C   0  0  0  0  0  0  0  0  0  0  0  0
   -3.2395    0.9070   -0.2722 C   0  0  0  0  0  0  0  0  0  0  0  0
   -3.2999    1.8807    0.1934 H   0  0  0  0  0  0  0  0  0  0  0  0
   -2.0966    0.1997   -0.5119 N   0  0  0  0  0  0  0  0  0  0  0  0
   -1.1517    0.5039   -0.2802 H   0  0  0  0  0  0  0  0  0  0  0  0
   -2.3939   -1.0248   -1.1308 C   0  0  0  0  0  0  0  0  0  0  0  0
   -1.6988   -1.7882   -1.4378 H   0  0  0  0  0  0  0  0  0  0  0  0
   -4.3038    0.1886   -0.7150 N   0  0  0  0  0  0  0  0  0  0  0  0
  1  2  3  0  0  0  0
  3  8  2  0  0  0  0
  3 10  1  0  0  0  0
  4  5  1  0  0  0  0
  6  7  1  0  0  0  0
  6  4  1  0  0  0  0
  8  6  1  0  0  0  0
  9  8  1  0  0  0  0
 10  4  2  0  0  0  0
M  RAD  1   3   2
M  END
