Coordinates from ORCA-job Imidazole-4-N2+-scan-d09-160-n800
 OpenBabel09191814123D

 10  9  0  0  0  0  0  0  0  0999 V2000
    9.4926    6.5904    3.6124 N   0  0  0  0  0  0  0  0  0  0  0  0
   10.3643    7.1667    3.9729 N   0  0  0  0  0  0  0  0  0  0  0  0
   -4.4857   -1.2168   -1.4096 C   0  0  0  0  0  0  0  0  0  0  0  0
   -3.9801    0.5003   -0.5352 C   0  0  0  0  0  0  0  0  0  0  0  0
   -4.0328    1.4743   -0.0693 H   0  0  0  0  0  0  0  0  0  0  0  0
   -2.8423   -0.2138   -0.7794 N   0  0  0  0  0  0  0  0  0  0  0  0
   -1.8947    0.0846   -0.5512 H   0  0  0  0  0  0  0  0  0  0  0  0
   -3.1492   -1.4365   -1.3973 C   0  0  0  0  0  0  0  0  0  0  0  0
   -2.4599   -2.2039   -1.7070 H   0  0  0  0  0  0  0  0  0  0  0  0
   -5.0502   -0.2117   -0.9740 N   0  0  0  0  0  0  0  0  0  0  0  0
  1  2  3  0  0  0  0
  3  8  2  0  0  0  0
  3 10  1  0  0  0  0
  4  5  1  0  0  0  0
  6  7  1  0  0  0  0
  6  4  1  0  0  0  0
  8  6  1  0  0  0  0
  9  8  1  0  0  0  0
 10  4  2  0  0  0  0
M  RAD  1   3   2
M  END
