Coordinates from ORCA-job Imidazole-4-N2+-scan-d09-160-n800
 OpenBabel09191814123D

 10  9  0  0  0  0  0  0  0  0999 V2000
    4.1827    0.8155    0.4627 N   0  0  0  0  0  0  0  0  0  0  0  0
    5.2824    0.7651    0.5619 N   0  0  0  0  0  0  0  0  0  0  0  0
   -0.9653    0.5069   -0.2438 C   0  0  0  0  0  0  0  0  0  0  0  0
   -2.9362    0.4150   -0.5031 C   0  0  0  0  0  0  0  0  0  0  0  0
   -3.9263    0.0699   -0.7659 H   0  0  0  0  0  0  0  0  0  0  0  0
   -2.6295    1.6181    0.0646 N   0  0  0  0  0  0  0  0  0  0  0  0
   -3.2993    2.3451    0.3128 H   0  0  0  0  0  0  0  0  0  0  0  0
   -1.2444    1.7292    0.2674 C   0  0  0  0  0  0  0  0  0  0  0  0
   -0.7106    2.5610    0.6955 H   0  0  0  0  0  0  0  0  0  0  0  0
   -1.7914   -0.2921   -0.6898 N   0  0  0  0  0  0  0  0  0  0  0  0
  1  2  3  0  0  0  0
  3  8  2  0  0  0  0
  4  6  1  0  0  0  0
  5  4  1  0  0  0  0
  6  8  1  0  0  0  0
  6  7  1  0  0  0  0
  8  9  1  0  0  0  0
 10  4  2  0  0  0  0
 10  3  1  0  0  0  0
M  RAD  1   3   2
M  END
