Coordinates from ORCA-job Imidazole-4-N2+-scan-d09-160-n800
 OpenBabel09191814123D

 10  9  0  0  0  0  0  0  0  0999 V2000
    1.8793    0.7045    0.1585 N   0  0  0  0  0  0  0  0  0  0  0  0
    2.9726    0.5643    0.2174 N   0  0  0  0  0  0  0  0  0  0  0  0
   -0.2505    0.8459   -0.0146 C   0  0  0  0  0  0  0  0  0  0  0  0
   -2.1241    0.2981   -0.4651 C   0  0  0  0  0  0  0  0  0  0  0  0
   -2.9849   -0.2585   -0.8074 H   0  0  0  0  0  0  0  0  0  0  0  0
   -2.1713    1.5476    0.0842 N   0  0  0  0  0  0  0  0  0  0  0  0
   -3.0121    2.0992    0.2358 H   0  0  0  0  0  0  0  0  0  0  0  0
   -0.8844    1.9670    0.4126 C   0  0  0  0  0  0  0  0  0  0  0  0
   -0.6096    2.9069    0.8600 H   0  0  0  0  0  0  0  0  0  0  0  0
   -0.8530   -0.1413   -0.5193 N   0  0  0  0  0  0  0  0  0  0  0  0
  1  2  3  0  0  0  0
  3  8  2  0  0  0  0
  4  6  1  0  0  0  0
  5  4  1  0  0  0  0
  6  7  1  0  0  0  0
  6  8  1  0  0  0  0
  8  9  1  0  0  0  0
 10  4  2  0  0  0  0
 10  3  1  0  0  0  0
M  RAD  1   3   2
M  END
