Coordinates from ORCA-job Imidazole-4-N2+-scan-d09-160-n800
 OpenBabel09191814123D

 10  9  0  0  0  0  0  0  0  0999 V2000
    1.9245    0.7011    0.1620 N   0  0  0  0  0  0  0  0  0  0  0  0
    3.0179    0.5611    0.2210 N   0  0  0  0  0  0  0  0  0  0  0  0
   -0.2652    0.8448   -0.0167 C   0  0  0  0  0  0  0  0  0  0  0  0
   -2.1375    0.2994   -0.4661 C   0  0  0  0  0  0  0  0  0  0  0  0
   -2.9980   -0.2577   -0.8085 H   0  0  0  0  0  0  0  0  0  0  0  0
   -2.1822    1.5486    0.0834 N   0  0  0  0  0  0  0  0  0  0  0  0
   -3.0224    2.1014    0.2358 H   0  0  0  0  0  0  0  0  0  0  0  0
   -0.8937    1.9677    0.4118 C   0  0  0  0  0  0  0  0  0  0  0  0
   -0.6166    2.9070    0.8592 H   0  0  0  0  0  0  0  0  0  0  0  0
   -0.8647   -0.1398   -0.5199 N   0  0  0  0  0  0  0  0  0  0  0  0
  1  2  3  0  0  0  0
  3  8  2  0  0  0  0
  4  6  1  0  0  0  0
  5  4  1  0  0  0  0
  6  7  1  0  0  0  0
  6  8  1  0  0  0  0
  8  9  1  0  0  0  0
 10  4  2  0  0  0  0
 10  3  1  0  0  0  0
M  RAD  1   3   2
M  END
