Coordinates from ORCA-job Imidazole-4-N2+-scan-d09-160-n800
 OpenBabel09191814123D

 10  9  0  0  0  0  0  0  0  0999 V2000
    3.9938    0.7638    0.4189 N   0  0  0  0  0  0  0  0  0  0  0  0
    5.0934    0.6982    0.5112 N   0  0  0  0  0  0  0  0  0  0  0  0
   -0.8884    0.5810   -0.2024 C   0  0  0  0  0  0  0  0  0  0  0  0
   -2.8457    0.3927   -0.5030 C   0  0  0  0  0  0  0  0  0  0  0  0
   -3.8123   -0.0009   -0.7847 H   0  0  0  0  0  0  0  0  0  0  0  0
   -2.6091    1.6118    0.0640 N   0  0  0  0  0  0  0  0  0  0  0  0
   -3.3185    2.3068    0.2936 H   0  0  0  0  0  0  0  0  0  0  0  0
   -1.2353    1.7910    0.2958 C   0  0  0  0  0  0  0  0  0  0  0  0
   -0.7514    2.6495    0.7303 H   0  0  0  0  0  0  0  0  0  0  0  0
   -1.6644   -0.2602   -0.6616 N   0  0  0  0  0  0  0  0  0  0  0  0
  1  2  3  0  0  0  0
  3  8  2  0  0  0  0
  4  6  1  0  0  0  0
  5  4  1  0  0  0  0
  6  7  1  0  0  0  0
  6  8  1  0  0  0  0
  8  9  1  0  0  0  0
 10  4  2  0  0  0  0
 10  3  1  0  0  0  0
M  RAD  1   3   2
M  END
