Coordinates from ORCA-job Imidazole-4-N2+-scan-d09-160-n800
 OpenBabel09191814123D

 10 10  0  0  0  0  0  0  0  0999 V2000
    1.3027    0.7501    0.1147 N   0  0  0  0  0  0  0  0  0  0  0  0
    2.4145    0.6412    0.1894 N   0  0  0  0  0  0  0  0  0  0  0  0
    0.0097    0.8476    0.0149 C   0  0  0  0  0  0  0  0  0  0  0  0
   -1.9660    0.2699   -0.4601 C   0  0  0  0  0  0  0  0  0  0  0  0
   -2.8505   -0.2576   -0.7920 H   0  0  0  0  0  0  0  0  0  0  0  0
   -2.0248    1.5433    0.0982 N   0  0  0  0  0  0  0  0  0  0  0  0
   -2.8674    2.0911    0.2478 H   0  0  0  0  0  0  0  0  0  0  0  0
   -0.7794    1.9370    0.4112 C   0  0  0  0  0  0  0  0  0  0  0  0
   -0.5320    2.8886    0.8609 H   0  0  0  0  0  0  0  0  0  0  0  0
   -0.7447   -0.1776   -0.5229 N   0  0  0  0  0  0  0  0  0  0  0  0
  1  2  1  0  0  0  0
  3  1  1  0  0  0  0
  3  8  2  0  0  0  0
  4  6  1  0  0  0  0
  5  4  1  0  0  0  0
  6  7  1  0  0  0  0
  6  8  1  0  0  0  0
  8  9  1  0  0  0  0
 10  4  2  0  0  0  0
 10  3  1  0  0  0  0
M  RAD  2   1   2   2   3
M  END
