Coordinates from ORCA-job Imidazole-4-N2+-scan-d09-160-n800
 OpenBabel09191814123D

 10 10  0  0  0  0  0  0  0  0999 V2000
    1.6616    0.7181    0.1405 N   0  0  0  0  0  0  0  0  0  0  0  0
    2.7555    0.5825    0.2016 N   0  0  0  0  0  0  0  0  0  0  0  0
   -0.1691    0.8520   -0.0029 C   0  0  0  0  0  0  0  0  0  0  0  0
   -2.0586    0.2911   -0.4611 C   0  0  0  0  0  0  0  0  0  0  0  0
   -2.9245   -0.2593   -0.8012 H   0  0  0  0  0  0  0  0  0  0  0  0
   -2.1174    1.5437    0.0886 N   0  0  0  0  0  0  0  0  0  0  0  0
   -2.9612    2.0893    0.2375 H   0  0  0  0  0  0  0  0  0  0  0  0
   -0.8423    1.9614    0.4146 C   0  0  0  0  0  0  0  0  0  0  0  0
   -0.5806    2.9058    0.8625 H   0  0  0  0  0  0  0  0  0  0  0  0
   -0.8013   -0.1509   -0.5178 N   0  0  0  0  0  0  0  0  0  0  0  0
  1  2  1  0  0  0  0
  3  1  1  0  0  0  0
  3  8  2  0  0  0  0
  4  6  1  0  0  0  0
  5  4  1  0  0  0  0
  6  7  1  0  0  0  0
  6  8  1  0  0  0  0
  8  9  1  0  0  0  0
 10  4  2  0  0  0  0
 10  3  1  0  0  0  0
M  RAD  2   1   2   2   3
M  END
