Coordinates from ORCA-job Imidazole-4-N2+-scan-d09-160-n800
 OpenBabel09191814123D

 10  9  0  0  0  0  0  0  0  0999 V2000
    1.8346    0.7076    0.1550 N   0  0  0  0  0  0  0  0  0  0  0  0
    2.9278    0.5672    0.2138 N   0  0  0  0  0  0  0  0  0  0  0  0
   -0.2354    0.8471   -0.0124 C   0  0  0  0  0  0  0  0  0  0  0  0
   -2.1106    0.2969   -0.4642 C   0  0  0  0  0  0  0  0  0  0  0  0
   -2.9719   -0.2592   -0.8063 H   0  0  0  0  0  0  0  0  0  0  0  0
   -2.1604    1.5467    0.0850 N   0  0  0  0  0  0  0  0  0  0  0  0
   -3.0019    2.0968    0.2361 H   0  0  0  0  0  0  0  0  0  0  0  0
   -0.8755    1.9662    0.4132 C   0  0  0  0  0  0  0  0  0  0  0  0
   -0.6031    2.9070    0.8607 H   0  0  0  0  0  0  0  0  0  0  0  0
   -0.8416   -0.1428   -0.5187 N   0  0  0  0  0  0  0  0  0  0  0  0
  1  2  3  0  0  0  0
  3  8  2  0  0  0  0
  4  6  1  0  0  0  0
  5  4  1  0  0  0  0
  6  7  1  0  0  0  0
  6  8  1  0  0  0  0
  8  9  1  0  0  0  0
 10  4  2  0  0  0  0
 10  3  1  0  0  0  0
M  RAD  1   3   2
M  END
