Coordinates from ORCA-job Imidazole-4-N2+-scan-d09-160-n800
 OpenBabel09191814123D

 10  9  0  0  0  0  0  0  0  0999 V2000
    6.7121    5.1009    2.6442 N   0  0  0  0  0  0  0  0  0  0  0  0
    7.6229    5.6284    2.9823 N   0  0  0  0  0  0  0  0  0  0  0  0
   -3.7890   -0.8434   -1.1679 C   0  0  0  0  0  0  0  0  0  0  0  0
   -3.2962    0.8762   -0.2921 C   0  0  0  0  0  0  0  0  0  0  0  0
   -3.3557    1.8500    0.1735 H   0  0  0  0  0  0  0  0  0  0  0  0
   -2.1537    0.1681   -0.5323 N   0  0  0  0  0  0  0  0  0  0  0  0
   -1.2084    0.4715   -0.3010 H   0  0  0  0  0  0  0  0  0  0  0  0
   -2.4517   -1.0564   -1.1513 C   0  0  0  0  0  0  0  0  0  0  0  0
   -1.7570   -1.8201   -1.4584 H   0  0  0  0  0  0  0  0  0  0  0  0
   -4.3614    0.1583   -0.7347 N   0  0  0  0  0  0  0  0  0  0  0  0
  1  2  3  0  0  0  0
  3  8  2  0  0  0  0
  3 10  1  0  0  0  0
  4  5  1  0  0  0  0
  6  7  1  0  0  0  0
  6  4  1  0  0  0  0
  8  6  1  0  0  0  0
  9  8  1  0  0  0  0
 10  4  2  0  0  0  0
M  RAD  1   3   2
M  END
