Coordinates from ORCA-job Imidazole-4-N2+-scan-d09-160-n800
 OpenBabel09191814123D

 10  9  0  0  0  0  0  0  0  0999 V2000
    3.4900    3.3211    1.4958 N   0  0  0  0  0  0  0  0  0  0  0  0
    4.4013    3.8479    1.8332 N   0  0  0  0  0  0  0  0  0  0  0  0
   -2.9551   -0.4265   -0.8924 C   0  0  0  0  0  0  0  0  0  0  0  0
   -2.5198    1.3080   -0.0139 C   0  0  0  0  0  0  0  0  0  0  0  0
   -2.6119    2.2807    0.4485 H   0  0  0  0  0  0  0  0  0  0  0  0
   -1.3556    0.6308   -0.2370 N   0  0  0  0  0  0  0  0  0  0  0  0
   -0.4222    0.9608    0.0066 H   0  0  0  0  0  0  0  0  0  0  0  0
   -1.6124   -0.6023   -0.8568 C   0  0  0  0  0  0  0  0  0  0  0  0
   -0.8934   -1.3476   -1.1528 H   0  0  0  0  0  0  0  0  0  0  0  0
   -3.5590    0.5607   -0.4689 N   0  0  0  0  0  0  0  0  0  0  0  0
  1  2  3  0  0  0  0
  3  8  2  0  0  0  0
  3 10  1  0  0  0  0
  4  5  1  0  0  0  0
  6  4  1  0  0  0  0
  6  7  1  0  0  0  0
  8  6  1  0  0  0  0
  9  8  1  0  0  0  0
 10  4  2  0  0  0  0
M  RAD  1   3   2
M  END
