Coordinates from ORCA-job Imidazole-4-N2+-scan-d09-160-n800
 OpenBabel09191814123D

 10  9  0  0  0  0  0  0  0  0999 V2000
    5.0623    4.1972    2.0596 N   0  0  0  0  0  0  0  0  0  0  0  0
    5.9728    4.7250    2.3979 N   0  0  0  0  0  0  0  0  0  0  0  0
   -3.3702   -0.6242   -1.0251 C   0  0  0  0  0  0  0  0  0  0  0  0
   -2.8904    1.0990   -0.1481 C   0  0  0  0  0  0  0  0  0  0  0  0
   -2.9576    2.0725    0.3170 H   0  0  0  0  0  0  0  0  0  0  0  0
   -1.7428    0.3981   -0.3841 N   0  0  0  0  0  0  0  0  0  0  0  0
   -0.8004    0.7076   -0.1496 H   0  0  0  0  0  0  0  0  0  0  0  0
   -2.0314   -0.8283   -1.0035 C   0  0  0  0  0  0  0  0  0  0  0  0
   -1.3310   -1.5878   -1.3081 H   0  0  0  0  0  0  0  0  0  0  0  0
   -3.9493    0.3745   -0.5939 N   0  0  0  0  0  0  0  0  0  0  0  0
  1  2  3  0  0  0  0
  3  8  2  0  0  0  0
  3 10  1  0  0  0  0
  4  5  1  0  0  0  0
  6  7  1  0  0  0  0
  6  4  1  0  0  0  0
  8  6  1  0  0  0  0
  9  8  1  0  0  0  0
 10  4  2  0  0  0  0
M  RAD  1   3   2
M  END
