Coordinates from ORCA-job Imidazole-4-N2+-scan-d09-160-n800
 OpenBabel09191814123D

 10  9  0  0  0  0  0  0  0  0999 V2000
    8.2564    5.9425    3.1895 N   0  0  0  0  0  0  0  0  0  0  0  0
    9.1681    6.4690    3.5266 N   0  0  0  0  0  0  0  0  0  0  0  0
   -4.1795   -1.0501   -1.3026 C   0  0  0  0  0  0  0  0  0  0  0  0
   -3.6781    0.6676   -0.4272 C   0  0  0  0  0  0  0  0  0  0  0  0
   -3.7331    1.6414    0.0388 H   0  0  0  0  0  0  0  0  0  0  0  0
   -2.5388   -0.0445   -0.6697 N   0  0  0  0  0  0  0  0  0  0  0  0
   -1.5921    0.2554   -0.4401 H   0  0  0  0  0  0  0  0  0  0  0  0
   -2.8428   -1.2676   -1.2883 C   0  0  0  0  0  0  0  0  0  0  0  0
   -2.1517   -2.0339   -1.5971 H   0  0  0  0  0  0  0  0  0  0  0  0
   -4.7464   -0.0461   -0.8677 N   0  0  0  0  0  0  0  0  0  0  0  0
  1  2  3  0  0  0  0
  3  8  2  0  0  0  0
  3 10  1  0  0  0  0
  4  5  1  0  0  0  0
  6  7  1  0  0  0  0
  6  4  1  0  0  0  0
  8  6  1  0  0  0  0
  9  8  1  0  0  0  0
 10  4  2  0  0  0  0
M  RAD  1   3   2
M  END
