Coordinates from ORCA-job Imidazole-4-N2+-scan-d09-160-n800
 OpenBabel09191814123D

 10  9  0  0  0  0  0  0  0  0999 V2000
    7.6253    5.5988    2.9668 N   0  0  0  0  0  0  0  0  0  0  0  0
    8.5366    6.1257    3.3042 N   0  0  0  0  0  0  0  0  0  0  0  0
   -4.0201   -0.9652   -1.2473 C   0  0  0  0  0  0  0  0  0  0  0  0
   -3.5218    0.7530   -0.3719 C   0  0  0  0  0  0  0  0  0  0  0  0
   -3.5782    1.7268    0.0940 H   0  0  0  0  0  0  0  0  0  0  0  0
   -2.3814    0.0421   -0.6137 N   0  0  0  0  0  0  0  0  0  0  0  0
   -1.4350    0.3430   -0.3836 H   0  0  0  0  0  0  0  0  0  0  0  0
   -2.6832   -1.1816   -1.2325 C   0  0  0  0  0  0  0  0  0  0  0  0
   -1.9909   -1.9469   -1.5407 H   0  0  0  0  0  0  0  0  0  0  0  0
   -4.5893    0.0379   -0.8132 N   0  0  0  0  0  0  0  0  0  0  0  0
  1  2  3  0  0  0  0
  3  8  2  0  0  0  0
  3 10  1  0  0  0  0
  4  5  1  0  0  0  0
  6  7  1  0  0  0  0
  6  4  1  0  0  0  0
  8  6  1  0  0  0  0
  9  8  1  0  0  0  0
 10  4  2  0  0  0  0
M  RAD  1   3   2
M  END
