Coordinates from ORCA-job Imidazole-4-N2+-scan-d09-160-n800
 OpenBabel09191814123D

 10  9  0  0  0  0  0  0  0  0999 V2000
    3.0404    0.6592    0.2670 N   0  0  0  0  0  0  0  0  0  0  0  0
    4.1374    0.5459    0.3379 N   0  0  0  0  0  0  0  0  0  0  0  0
   -0.5844    0.7810   -0.0801 C   0  0  0  0  0  0  0  0  0  0  0  0
   -2.4787    0.3348   -0.4880 C   0  0  0  0  0  0  0  0  0  0  0  0
   -3.3679   -0.1845   -0.8170 H   0  0  0  0  0  0  0  0  0  0  0  0
   -2.4375    1.5804    0.0691 N   0  0  0  0  0  0  0  0  0  0  0  0
   -3.2437    2.1785    0.2451 H   0  0  0  0  0  0  0  0  0  0  0  0
   -1.1148    1.9399    0.3752 C   0  0  0  0  0  0  0  0  0  0  0  0
   -0.7727    2.8587    0.8208 H   0  0  0  0  0  0  0  0  0  0  0  0
   -1.2161   -0.1603   -0.5677 N   0  0  0  0  0  0  0  0  0  0  0  0
  1  2  3  0  0  0  0
  3  8  2  0  0  0  0
  4  6  1  0  0  0  0
  5  4  1  0  0  0  0
  6  7  1  0  0  0  0
  6  8  1  0  0  0  0
  8  9  1  0  0  0  0
 10  4  2  0  0  0  0
 10  3  1  0  0  0  0
M  RAD  1   3   2
M  END
