Coordinates from ORCA-job Imidazole-4-N2+-scan-d09-160-n800
 OpenBabel09191814123D

 10  9  0  0  0  0  0  0  0  0999 V2000
    4.3133    0.8726    0.5026 N   0  0  0  0  0  0  0  0  0  0  0  0
    5.4129    0.8448    0.6117 N   0  0  0  0  0  0  0  0  0  0  0  0
   -1.0361    0.4270   -0.2872 C   0  0  0  0  0  0  0  0  0  0  0  0
   -3.0140    0.4409   -0.5002 C   0  0  0  0  0  0  0  0  0  0  0  0
   -4.0271    0.1507   -0.7411 H   0  0  0  0  0  0  0  0  0  0  0  0
   -2.6307    1.6223    0.0663 N   0  0  0  0  0  0  0  0  0  0  0  0
   -3.2550    2.3822    0.3342 H   0  0  0  0  0  0  0  0  0  0  0  0
   -1.2369    1.6588    0.2369 C   0  0  0  0  0  0  0  0  0  0  0  0
   -0.6516    2.4594    0.6569 H   0  0  0  0  0  0  0  0  0  0  0  0
   -1.9128   -0.3251   -0.7179 N   0  0  0  0  0  0  0  0  0  0  0  0
  1  2  3  0  0  0  0
  3  8  2  0  0  0  0
  4  6  1  0  0  0  0
  5  4  1  0  0  0  0
  6  8  1  0  0  0  0
  6  7  1  0  0  0  0
  8  9  1  0  0  0  0
 10  4  2  0  0  0  0
 10  3  1  0  0  0  0
M  RAD  1   3   2
M  END
