Coordinates from ORCA-job Imidazole-4-N2+-scan-d09-160-n800
 OpenBabel09191814123D

 10  9  0  0  0  0  0  0  0  0999 V2000
    5.1567    4.2487    2.0929 N   0  0  0  0  0  0  0  0  0  0  0  0
    6.0668    4.7769    2.4314 N   0  0  0  0  0  0  0  0  0  0  0  0
   -3.3938   -0.6364   -1.0331 C   0  0  0  0  0  0  0  0  0  0  0  0
   -2.9137    1.0864   -0.1563 C   0  0  0  0  0  0  0  0  0  0  0  0
   -2.9803    2.0599    0.3088 H   0  0  0  0  0  0  0  0  0  0  0  0
   -1.7663    0.3849   -0.3926 N   0  0  0  0  0  0  0  0  0  0  0  0
   -0.8236    0.6938   -0.1583 H   0  0  0  0  0  0  0  0  0  0  0  0
   -2.0553   -0.8415   -1.0120 C   0  0  0  0  0  0  0  0  0  0  0  0
   -1.3552   -1.6012   -1.3167 H   0  0  0  0  0  0  0  0  0  0  0  0
   -3.9733    0.3622   -0.6020 N   0  0  0  0  0  0  0  0  0  0  0  0
  1  2  3  0  0  0  0
  3  8  2  0  0  0  0
  3 10  1  0  0  0  0
  4  5  1  0  0  0  0
  6  7  1  0  0  0  0
  6  4  1  0  0  0  0
  8  6  1  0  0  0  0
  9  8  1  0  0  0  0
 10  4  2  0  0  0  0
M  RAD  1   3   2
M  END
