Coordinates from ORCA-job Imidazole-4-N2+-scan-d09-160-n800
 OpenBabel09191814123D

 10  9  0  0  0  0  0  0  0  0999 V2000
    4.3357    0.8840    0.5101 N   0  0  0  0  0  0  0  0  0  0  0  0
    5.4352    0.8610    0.6214 N   0  0  0  0  0  0  0  0  0  0  0  0
   -1.0496    0.4113   -0.2956 C   0  0  0  0  0  0  0  0  0  0  0  0
   -3.0283    0.4463   -0.4994 C   0  0  0  0  0  0  0  0  0  0  0  0
   -4.0455    0.1671   -0.7359 H   0  0  0  0  0  0  0  0  0  0  0  0
   -2.6299    1.6230    0.0667 N   0  0  0  0  0  0  0  0  0  0  0  0
   -3.2450    2.3891    0.3384 H   0  0  0  0  0  0  0  0  0  0  0  0
   -1.2351    1.6446    0.2308 C   0  0  0  0  0  0  0  0  0  0  0  0
   -0.6392    2.4382    0.6488 H   0  0  0  0  0  0  0  0  0  0  0  0
   -1.9363   -0.3310   -0.7231 N   0  0  0  0  0  0  0  0  0  0  0  0
  1  2  3  0  0  0  0
  3  8  2  0  0  0  0
  4  6  1  0  0  0  0
  5  4  1  0  0  0  0
  6  8  1  0  0  0  0
  6  7  1  0  0  0  0
  8  9  1  0  0  0  0
 10  4  2  0  0  0  0
 10  3  1  0  0  0  0
M  RAD  1   3   2
M  END
