Coordinates from ORCA-job Imidazole-4-N2+-scan-d09-160-n800
 OpenBabel09191814123D

 10  9  0  0  0  0  0  0  0  0999 V2000
    2.4516    2.7210    1.1138 N   0  0  0  0  0  0  0  0  0  0  0  0
    3.3713    3.2367    1.4447 N   0  0  0  0  0  0  0  0  0  0  0  0
   -2.6594   -0.3113   -0.8106 C   0  0  0  0  0  0  0  0  0  0  0  0
   -2.2979    1.4406    0.0700 C   0  0  0  0  0  0  0  0  0  0  0  0
   -2.4324    2.4106    0.5275 H   0  0  0  0  0  0  0  0  0  0  0  0
   -1.1066    0.8051   -0.1304 N   0  0  0  0  0  0  0  0  0  0  0  0
   -0.1891    1.1711    0.1295 H   0  0  0  0  0  0  0  0  0  0  0  0
   -1.3110   -0.4380   -0.7505 C   0  0  0  0  0  0  0  0  0  0  0  0
   -0.5616   -1.1584   -1.0318 H   0  0  0  0  0  0  0  0  0  0  0  0
   -3.3029    0.6562   -0.4002 N   0  0  0  0  0  0  0  0  0  0  0  0
  1  2  3  0  0  0  0
  3  8  2  0  0  0  0
  3 10  1  0  0  0  0
  4  5  1  0  0  0  0
  6  4  1  0  0  0  0
  6  7  1  0  0  0  0
  8  6  1  0  0  0  0
  9  8  1  0  0  0  0
 10  4  2  0  0  0  0
M  RAD  1   3   2
M  END
