Coordinates from ORCA-job Imidazole-4-N2+-scan-d09-160-n800
 OpenBabel09191814123D

 10  9  0  0  0  0  0  0  0  0999 V2000
    6.0809    4.7562    2.4210 N   0  0  0  0  0  0  0  0  0  0  0  0
    6.9919    5.2833    2.7590 N   0  0  0  0  0  0  0  0  0  0  0  0
   -3.6296   -0.7593   -1.1132 C   0  0  0  0  0  0  0  0  0  0  0  0
   -3.1402    0.9615   -0.2370 C   0  0  0  0  0  0  0  0  0  0  0  0
   -3.2021    1.9351    0.2285 H   0  0  0  0  0  0  0  0  0  0  0  0
   -1.9963    0.2556   -0.4759 N   0  0  0  0  0  0  0  0  0  0  0  0
   -1.0520    0.5608   -0.2436 H   0  0  0  0  0  0  0  0  0  0  0  0
   -2.2917   -0.9694   -1.0949 C   0  0  0  0  0  0  0  0  0  0  0  0
   -1.5955   -1.7319   -1.4014 H   0  0  0  0  0  0  0  0  0  0  0  0
   -4.2033    0.2417   -0.6804 N   0  0  0  0  0  0  0  0  0  0  0  0
  1  2  3  0  0  0  0
  3  8  2  0  0  0  0
  3 10  1  0  0  0  0
  4  5  1  0  0  0  0
  6  7  1  0  0  0  0
  6  4  1  0  0  0  0
  8  6  1  0  0  0  0
  9  8  1  0  0  0  0
 10  4  2  0  0  0  0
M  RAD  1   3   2
M  END
