Coordinates from ORCA-job Imidazole-4-N2+-scan-d09-160-n800
 OpenBabel09191814123D

 10  9  0  0  0  0  0  0  0  0999 V2000
    7.2084    5.3719    2.8198 N   0  0  0  0  0  0  0  0  0  0  0  0
    8.1196    5.8989    3.1573 N   0  0  0  0  0  0  0  0  0  0  0  0
   -3.9152   -0.9097   -1.2112 C   0  0  0  0  0  0  0  0  0  0  0  0
   -3.4183    0.8092   -0.3355 C   0  0  0  0  0  0  0  0  0  0  0  0
   -3.4760    1.7830    0.1303 H   0  0  0  0  0  0  0  0  0  0  0  0
   -2.2773    0.0994   -0.5767 N   0  0  0  0  0  0  0  0  0  0  0  0
   -1.3315    0.4014   -0.3460 H   0  0  0  0  0  0  0  0  0  0  0  0
   -2.5780   -1.1244   -1.1954 C   0  0  0  0  0  0  0  0  0  0  0  0
   -1.8850   -1.8892   -1.5033 H   0  0  0  0  0  0  0  0  0  0  0  0
   -4.4847    0.0932   -0.7771 N   0  0  0  0  0  0  0  0  0  0  0  0
  1  2  3  0  0  0  0
  3  8  2  0  0  0  0
  3 10  1  0  0  0  0
  4  5  1  0  0  0  0
  6  7  1  0  0  0  0
  6  4  1  0  0  0  0
  8  6  1  0  0  0  0
  9  8  1  0  0  0  0
 10  4  2  0  0  0  0
M  RAD  1   3   2
M  END
