Coordinates from ORCA-job Imidazole-4-N2+-scan-d09-160-n800
 OpenBabel09191814123D

 10  9  0  0  0  0  0  0  0  0999 V2000
    4.4071    3.8361    1.8265 N   0  0  0  0  0  0  0  0  0  0  0  0
    5.3181    4.3634    2.1644 N   0  0  0  0  0  0  0  0  0  0  0  0
   -3.2005   -0.5389   -0.9689 C   0  0  0  0  0  0  0  0  0  0  0  0
   -2.7326    1.1869   -0.0915 C   0  0  0  0  0  0  0  0  0  0  0  0
   -2.8060    2.1602    0.3730 H   0  0  0  0  0  0  0  0  0  0  0  0
   -1.5806    0.4918   -0.3242 N   0  0  0  0  0  0  0  0  0  0  0  0
   -0.6402    0.8063   -0.0873 H   0  0  0  0  0  0  0  0  0  0  0  0
   -1.8609   -0.7365   -0.9439 C   0  0  0  0  0  0  0  0  0  0  0  0
   -1.1556   -1.4923   -1.2462 H   0  0  0  0  0  0  0  0  0  0  0  0
   -3.7868    0.4565   -0.5399 N   0  0  0  0  0  0  0  0  0  0  0  0
  1  2  3  0  0  0  0
  3  8  2  0  0  0  0
  3 10  1  0  0  0  0
  4  5  1  0  0  0  0
  6  4  1  0  0  0  0
  6  7  1  0  0  0  0
  8  6  1  0  0  0  0
  9  8  1  0  0  0  0
 10  4  2  0  0  0  0
M  RAD  1   3   2
M  END
