Coordinates from ORCA-job Imidazole-4-N2+-scan-d09-160-n800
 OpenBabel09191814123D

 10  9  0  0  0  0  0  0  0  0999 V2000
    5.7999    4.6017    2.3211 N   0  0  0  0  0  0  0  0  0  0  0  0
    6.7103    5.1296    2.6595 N   0  0  0  0  0  0  0  0  0  0  0  0
   -3.5579   -0.7215   -1.0886 C   0  0  0  0  0  0  0  0  0  0  0  0
   -3.0712    0.9996   -0.2123 C   0  0  0  0  0  0  0  0  0  0  0  0
   -3.1341    1.9733    0.2531 H   0  0  0  0  0  0  0  0  0  0  0  0
   -1.9264    0.2947   -0.4506 N   0  0  0  0  0  0  0  0  0  0  0  0
   -0.9823    0.6007   -0.2179 H   0  0  0  0  0  0  0  0  0  0  0  0
   -2.2200   -0.9307   -1.0698 C   0  0  0  0  0  0  0  0  0  0  0  0
   -1.5227   -1.6925   -1.3758 H   0  0  0  0  0  0  0  0  0  0  0  0
   -4.1337    0.2787   -0.6564 N   0  0  0  0  0  0  0  0  0  0  0  0
  1  2  3  0  0  0  0
  3  8  2  0  0  0  0
  3 10  1  0  0  0  0
  4  5  1  0  0  0  0
  6  7  1  0  0  0  0
  6  4  1  0  0  0  0
  8  6  1  0  0  0  0
  9  8  1  0  0  0  0
 10  4  2  0  0  0  0
M  RAD  1   3   2
M  END
