Coordinates from ORCA-job Imidazole-4-N2+-scan-d09-160-n800
 OpenBabel09191814123D

 10  9  0  0  0  0  0  0  0  0999 V2000
    6.0272    4.7268    2.4020 N   0  0  0  0  0  0  0  0  0  0  0  0
    6.9382    5.2539    2.7400 N   0  0  0  0  0  0  0  0  0  0  0  0
   -3.6161   -0.7522   -1.1086 C   0  0  0  0  0  0  0  0  0  0  0  0
   -3.1270    0.9687   -0.2323 C   0  0  0  0  0  0  0  0  0  0  0  0
   -3.1890    1.9424    0.2332 H   0  0  0  0  0  0  0  0  0  0  0  0
   -1.9830    0.2630   -0.4711 N   0  0  0  0  0  0  0  0  0  0  0  0
   -1.0387    0.5684   -0.2387 H   0  0  0  0  0  0  0  0  0  0  0  0
   -2.2781   -0.9620   -1.0901 C   0  0  0  0  0  0  0  0  0  0  0  0
   -1.5817   -1.7244   -1.3965 H   0  0  0  0  0  0  0  0  0  0  0  0
   -4.1899    0.2488   -0.6758 N   0  0  0  0  0  0  0  0  0  0  0  0
  1  2  3  0  0  0  0
  3  8  2  0  0  0  0
  3 10  1  0  0  0  0
  4  5  1  0  0  0  0
  6  7  1  0  0  0  0
  6  4  1  0  0  0  0
  8  6  1  0  0  0  0
  9  8  1  0  0  0  0
 10  4  2  0  0  0  0
M  RAD  1   3   2
M  END
