Coordinates from ORCA-job Imidazole-4-N2+-scan-d09-160-n800
 OpenBabel09191814123D

 10  9  0  0  0  0  0  0  0  0999 V2000
    8.9499    6.3047    3.4260 N   0  0  0  0  0  0  0  0  0  0  0  0
    9.8418    6.8565    3.7752 N   0  0  0  0  0  0  0  0  0  0  0  0
   -4.3513   -1.1434   -1.3623 C   0  0  0  0  0  0  0  0  0  0  0  0
   -3.8481    0.5742   -0.4876 C   0  0  0  0  0  0  0  0  0  0  0  0
   -3.9023    1.5482   -0.0217 H   0  0  0  0  0  0  0  0  0  0  0  0
   -2.7095   -0.1386   -0.7309 N   0  0  0  0  0  0  0  0  0  0  0  0
   -1.7624    0.1608   -0.5021 H   0  0  0  0  0  0  0  0  0  0  0  0
   -3.0146   -1.3616   -1.3490 C   0  0  0  0  0  0  0  0  0  0  0  0
   -2.3243   -2.1284   -1.6582 H   0  0  0  0  0  0  0  0  0  0  0  0
   -4.9173   -0.1389   -0.9272 N   0  0  0  0  0  0  0  0  0  0  0  0
  1  2  3  0  0  0  0
  3  8  2  0  0  0  0
  3 10  1  0  0  0  0
  4  5  1  0  0  0  0
  6  7  1  0  0  0  0
  6  4  1  0  0  0  0
  8  6  1  0  0  0  0
  9  8  1  0  0  0  0
 10  4  2  0  0  0  0
M  RAD  1   3   2
M  END
