Coordinates from ORCA-job Imidazole-4-N2+-scan-d09-160-n800
 OpenBabel09191814123D

 10  9  0  0  0  0  0  0  0  0999 V2000
    2.9369    3.0035    1.2933 N   0  0  0  0  0  0  0  0  0  0  0  0
    3.8523    3.5248    1.6278 N   0  0  0  0  0  0  0  0  0  0  0  0
   -2.7986   -0.3647   -0.8482 C   0  0  0  0  0  0  0  0  0  0  0  0
   -2.4006    1.3790    0.0310 C   0  0  0  0  0  0  0  0  0  0  0  0
   -2.5139    2.3506    0.4909 H   0  0  0  0  0  0  0  0  0  0  0  0
   -1.2227    0.7225   -0.1811 N   0  0  0  0  0  0  0  0  0  0  0  0
   -0.2972    1.0702    0.0700 H   0  0  0  0  0  0  0  0  0  0  0  0
   -1.4530   -0.5160   -0.8008 C   0  0  0  0  0  0  0  0  0  0  0  0
   -0.7185   -1.2489   -1.0896 H   0  0  0  0  0  0  0  0  0  0  0  0
   -3.4227    0.6127   -0.4313 N   0  0  0  0  0  0  0  0  0  0  0  0
  1  2  3  0  0  0  0
  3  8  2  0  0  0  0
  3 10  1  0  0  0  0
  4  5  1  0  0  0  0
  6  4  1  0  0  0  0
  6  7  1  0  0  0  0
  8  6  1  0  0  0  0
  9  8  1  0  0  0  0
 10  4  2  0  0  0  0
M  RAD  1   3   2
M  END
