Coordinates from ORCA-job Imidazole-4-N2+-scan-d09-160-n800
 OpenBabel09191814123D

 10  9  0  0  0  0  0  0  0  0999 V2000
    5.3570    4.3592    2.1643 N   0  0  0  0  0  0  0  0  0  0  0  0
    6.2676    4.8868    2.5025 N   0  0  0  0  0  0  0  0  0  0  0  0
   -3.4456   -0.6630   -1.0505 C   0  0  0  0  0  0  0  0  0  0  0  0
   -2.9623    1.0593   -0.1737 C   0  0  0  0  0  0  0  0  0  0  0  0
   -3.0275    2.0329    0.2915 H   0  0  0  0  0  0  0  0  0  0  0  0
   -1.8161    0.3565   -0.4108 N   0  0  0  0  0  0  0  0  0  0  0  0
   -0.8729    0.6645   -0.1770 H   0  0  0  0  0  0  0  0  0  0  0  0
   -2.1071   -0.8693   -1.0301 C   0  0  0  0  0  0  0  0  0  0  0  0
   -1.4083   -1.6299   -1.3353 H   0  0  0  0  0  0  0  0  0  0  0  0
   -4.0227    0.3366   -0.6187 N   0  0  0  0  0  0  0  0  0  0  0  0
  1  2  3  0  0  0  0
  3  8  2  0  0  0  0
  3 10  1  0  0  0  0
  4  5  1  0  0  0  0
  6  7  1  0  0  0  0
  6  4  1  0  0  0  0
  8  6  1  0  0  0  0
  9  8  1  0  0  0  0
 10  4  2  0  0  0  0
M  RAD  1   3   2
M  END
