Coordinates from ORCA-job Imidazole-4-N2+-scan-d09-160-n800
 OpenBabel09191814123D

 10  9  0  0  0  0  0  0  0  0999 V2000
    9.2757    6.4758    3.5376 N   0  0  0  0  0  0  0  0  0  0  0  0
   10.1558    7.0421    3.8936 N   0  0  0  0  0  0  0  0  0  0  0  0
   -4.4322   -1.1872   -1.3904 C   0  0  0  0  0  0  0  0  0  0  0  0
   -3.9272    0.5300   -0.5161 C   0  0  0  0  0  0  0  0  0  0  0  0
   -3.9804    1.5040   -0.0502 H   0  0  0  0  0  0  0  0  0  0  0  0
   -2.7892   -0.1837   -0.7601 N   0  0  0  0  0  0  0  0  0  0  0  0
   -1.8418    0.1151   -0.5318 H   0  0  0  0  0  0  0  0  0  0  0  0
   -3.0957   -1.4065   -1.3779 C   0  0  0  0  0  0  0  0  0  0  0  0
   -2.4060   -2.1737   -1.6875 H   0  0  0  0  0  0  0  0  0  0  0  0
   -4.9971   -0.1823   -0.9550 N   0  0  0  0  0  0  0  0  0  0  0  0
  1  2  3  0  0  0  0
  3  8  2  0  0  0  0
  3 10  1  0  0  0  0
  4  5  1  0  0  0  0
  6  7  1  0  0  0  0
  6  4  1  0  0  0  0
  8  6  1  0  0  0  0
  9  8  1  0  0  0  0
 10  4  2  0  0  0  0
M  RAD  1   3   2
M  END
