Coordinates from ORCA-job Imidazole-4-N2+-scan-d09-160-n800
 OpenBabel09191814123D

 10  9  0  0  0  0  0  0  0  0999 V2000
    1.7613    0.7124    0.1489 N   0  0  0  0  0  0  0  0  0  0  0  0
    2.8545    0.5727    0.2079 N   0  0  0  0  0  0  0  0  0  0  0  0
   -0.2090    0.8493   -0.0084 C   0  0  0  0  0  0  0  0  0  0  0  0
   -2.0884    0.2946   -0.4625 C   0  0  0  0  0  0  0  0  0  0  0  0
   -2.9511   -0.2599   -0.8040 H   0  0  0  0  0  0  0  0  0  0  0  0
   -2.1424    1.5454    0.0861 N   0  0  0  0  0  0  0  0  0  0  0  0
   -2.9850    2.0936    0.2359 H   0  0  0  0  0  0  0  0  0  0  0  0
   -0.8612    1.9646    0.4143 C   0  0  0  0  0  0  0  0  0  0  0  0
   -0.5932    2.9067    0.8621 H   0  0  0  0  0  0  0  0  0  0  0  0
   -0.8235   -0.1457   -0.5180 N   0  0  0  0  0  0  0  0  0  0  0  0
  1  2  3  0  0  0  0
  3  8  2  0  0  0  0
  4  6  1  0  0  0  0
  5  4  1  0  0  0  0
  6  7  1  0  0  0  0
  6  8  1  0  0  0  0
  8  9  1  0  0  0  0
 10  4  2  0  0  0  0
 10  3  1  0  0  0  0
M  RAD  1   3   2
M  END
