Coordinates from ORCA-job Imidazole-4-N2+-scan-d09-160-n800
 OpenBabel09191814123D

 10  9  0  0  0  0  0  0  0  0999 V2000
    2.1701    0.6821    0.1807 N   0  0  0  0  0  0  0  0  0  0  0  0
    3.2642    0.5445    0.2408 N   0  0  0  0  0  0  0  0  0  0  0  0
   -0.3384    0.8403   -0.0267 C   0  0  0  0  0  0  0  0  0  0  0  0
   -2.2089    0.3060   -0.4709 C   0  0  0  0  0  0  0  0  0  0  0  0
   -3.0698   -0.2505   -0.8132 H   0  0  0  0  0  0  0  0  0  0  0  0
   -2.2413    1.5548    0.0795 N   0  0  0  0  0  0  0  0  0  0  0  0
   -3.0777    2.1138    0.2349 H   0  0  0  0  0  0  0  0  0  0  0  0
   -0.9461    1.9704    0.4074 C   0  0  0  0  0  0  0  0  0  0  0  0
   -0.6591    2.9067    0.8546 H   0  0  0  0  0  0  0  0  0  0  0  0
   -0.9310   -0.1345   -0.5249 N   0  0  0  0  0  0  0  0  0  0  0  0
  1  2  3  0  0  0  0
  3  8  2  0  0  0  0
  4  6  1  0  0  0  0
  5  4  1  0  0  0  0
  6  7  1  0  0  0  0
  6  8  1  0  0  0  0
  8  9  1  0  0  0  0
 10  4  2  0  0  0  0
 10  3  1  0  0  0  0
M  RAD  1   3   2
M  END
