Coordinates from ORCA-job Imidazole-4-N2+-scan-d09-160-n800
 OpenBabel09191814123D

 10  9  0  0  0  0  0  0  0  0999 V2000
    2.8984    2.9801    1.2785 N   0  0  0  0  0  0  0  0  0  0  0  0
    3.8136    3.5018    1.6132 N   0  0  0  0  0  0  0  0  0  0  0  0
   -2.7870   -0.3601   -0.8449 C   0  0  0  0  0  0  0  0  0  0  0  0
   -2.3928    1.3841    0.0342 C   0  0  0  0  0  0  0  0  0  0  0  0
   -2.5078    2.3556    0.4939 H   0  0  0  0  0  0  0  0  0  0  0  0
   -1.2135    0.7293   -0.1769 N   0  0  0  0  0  0  0  0  0  0  0  0
   -0.2886    1.0782    0.0747 H   0  0  0  0  0  0  0  0  0  0  0  0
   -1.4413   -0.5098   -0.7968 C   0  0  0  0  0  0  0  0  0  0  0  0
   -0.7054   -1.2415   -1.0848 H   0  0  0  0  0  0  0  0  0  0  0  0
   -3.4136    0.6160   -0.4289 N   0  0  0  0  0  0  0  0  0  0  0  0
  1  2  3  0  0  0  0
  3  8  2  0  0  0  0
  3 10  1  0  0  0  0
  4  5  1  0  0  0  0
  6  4  1  0  0  0  0
  6  7  1  0  0  0  0
  8  6  1  0  0  0  0
  9  8  1  0  0  0  0
 10  4  2  0  0  0  0
M  RAD  1   3   2
M  END
