Coordinates from ORCA-job Imidazole-4-N2+-scan-d09-160-n800
 OpenBabel09191814123D

 10  9  0  0  0  0  0  0  0  0999 V2000
    3.7661    0.7200    0.3743 N   0  0  0  0  0  0  0  0  0  0  0  0
    4.8652    0.6397    0.4600 N   0  0  0  0  0  0  0  0  0  0  0  0
   -0.8065    0.6493   -0.1630 C   0  0  0  0  0  0  0  0  0  0  0  0
   -2.7470    0.3732   -0.5007 C   0  0  0  0  0  0  0  0  0  0  0  0
   -3.6896   -0.0639   -0.7992 H   0  0  0  0  0  0  0  0  0  0  0  0
   -2.5759    1.6041    0.0643 N   0  0  0  0  0  0  0  0  0  0  0  0
   -3.3197    2.2680    0.2762 H   0  0  0  0  0  0  0  0  0  0  0  0
   -1.2162    1.8449    0.3219 C   0  0  0  0  0  0  0  0  0  0  0  0
   -0.7792    2.7259    0.7612 H   0  0  0  0  0  0  0  0  0  0  0  0
   -1.5352   -0.2276   -0.6328 N   0  0  0  0  0  0  0  0  0  0  0  0
  1  2  3  0  0  0  0
  3  8  2  0  0  0  0
  4  6  1  0  0  0  0
  5  4  1  0  0  0  0
  6  7  1  0  0  0  0
  6  8  1  0  0  0  0
  8  9  1  0  0  0  0
 10  4  2  0  0  0  0
 10  3  1  0  0  0  0
M  RAD  1   3   2
M  END
