Coordinates from ORCA-job Imidazole-4-N2+-scan-d09-160-n800
 OpenBabel09191814123D

 10  9  0  0  0  0  0  0  0  0999 V2000
    4.7949    4.0495    1.9642 N   0  0  0  0  0  0  0  0  0  0  0  0
    5.7049    4.5780    2.3029 N   0  0  0  0  0  0  0  0  0  0  0  0
   -3.3013   -0.5893   -1.0021 C   0  0  0  0  0  0  0  0  0  0  0  0
   -2.8255    1.1350   -0.1249 C   0  0  0  0  0  0  0  0  0  0  0  0
   -2.8949    2.1084    0.3400 H   0  0  0  0  0  0  0  0  0  0  0  0
   -1.6764    0.4361   -0.3597 N   0  0  0  0  0  0  0  0  0  0  0  0
   -0.7348    0.7475   -0.1243 H   0  0  0  0  0  0  0  0  0  0  0  0
   -1.9621   -0.7909   -0.9792 C   0  0  0  0  0  0  0  0  0  0  0  0
   -1.2601   -1.5491   -1.2830 H   0  0  0  0  0  0  0  0  0  0  0  0
   -3.8826    0.4084   -0.5716 N   0  0  0  0  0  0  0  0  0  0  0  0
  1  2  3  0  0  0  0
  3  8  2  0  0  0  0
  3 10  1  0  0  0  0
  4  5  1  0  0  0  0
  6  4  1  0  0  0  0
  6  7  1  0  0  0  0
  8  6  1  0  0  0  0
  9  8  1  0  0  0  0
 10  4  2  0  0  0  0
M  RAD  1   3   2
M  END
