Coordinates from ORCA-job Imidazole-4-N2+-scan-d09-160-n800
 OpenBabel09191814123D

 10  9  0  0  0  0  0  0  0  0999 V2000
    8.1893    5.9065    3.1661 N   0  0  0  0  0  0  0  0  0  0  0  0
    9.1015    6.4323    3.5029 N   0  0  0  0  0  0  0  0  0  0  0  0
   -4.1623   -1.0409   -1.2966 C   0  0  0  0  0  0  0  0  0  0  0  0
   -3.6618    0.6767   -0.4213 C   0  0  0  0  0  0  0  0  0  0  0  0
   -3.7169    1.6505    0.0447 H   0  0  0  0  0  0  0  0  0  0  0  0
   -2.5222   -0.0354   -0.6638 N   0  0  0  0  0  0  0  0  0  0  0  0
   -1.5754    0.2645   -0.4342 H   0  0  0  0  0  0  0  0  0  0  0  0
   -2.8257   -1.2587   -1.2825 C   0  0  0  0  0  0  0  0  0  0  0  0
   -2.1343   -2.0247   -1.5911 H   0  0  0  0  0  0  0  0  0  0  0  0
   -4.7303   -0.0373   -0.8620 N   0  0  0  0  0  0  0  0  0  0  0  0
  1  2  3  0  0  0  0
  3  8  2  0  0  0  0
  3 10  1  0  0  0  0
  4  5  1  0  0  0  0
  6  7  1  0  0  0  0
  6  4  1  0  0  0  0
  8  6  1  0  0  0  0
  9  8  1  0  0  0  0
 10  4  2  0  0  0  0
M  RAD  1   3   2
M  END
