Coordinates from ORCA-job Imidazole-4-N2+-scan-d09-160-n800
 OpenBabel09191814123D

 10  9  0  0  0  0  0  0  0  0999 V2000
    9.5468    6.6191    3.6311 N   0  0  0  0  0  0  0  0  0  0  0  0
   10.4164    7.1980    3.9927 N   0  0  0  0  0  0  0  0  0  0  0  0
   -4.4989   -1.2243   -1.4145 C   0  0  0  0  0  0  0  0  0  0  0  0
   -3.9933    0.4928   -0.5400 C   0  0  0  0  0  0  0  0  0  0  0  0
   -4.0461    1.4668   -0.0741 H   0  0  0  0  0  0  0  0  0  0  0  0
   -2.8556   -0.2213   -0.7842 N   0  0  0  0  0  0  0  0  0  0  0  0
   -1.9080    0.0771   -0.5560 H   0  0  0  0  0  0  0  0  0  0  0  0
   -3.1625   -1.4439   -1.4021 C   0  0  0  0  0  0  0  0  0  0  0  0
   -2.4732   -2.2114   -1.7118 H   0  0  0  0  0  0  0  0  0  0  0  0
   -5.0635   -0.2192   -0.9789 N   0  0  0  0  0  0  0  0  0  0  0  0
  1  2  3  0  0  0  0
  3  8  2  0  0  0  0
  3 10  1  0  0  0  0
  4  5  1  0  0  0  0
  6  7  1  0  0  0  0
  6  4  1  0  0  0  0
  8  6  1  0  0  0  0
  9  8  1  0  0  0  0
 10  4  2  0  0  0  0
M  RAD  1   3   2
M  END
