Coordinates from ORCA-job Imidazole-4-N2+-scan-d09-160-n800
 OpenBabel09191814123D

 10  9  0  0  0  0  0  0  0  0999 V2000
    7.5984    5.5842    2.9574 N   0  0  0  0  0  0  0  0  0  0  0  0
    8.5098    6.1110    3.2947 N   0  0  0  0  0  0  0  0  0  0  0  0
   -4.0133   -0.9616   -1.2450 C   0  0  0  0  0  0  0  0  0  0  0  0
   -3.5151    0.7567   -0.3695 C   0  0  0  0  0  0  0  0  0  0  0  0
   -3.5715    1.7305    0.0964 H   0  0  0  0  0  0  0  0  0  0  0  0
   -2.3746    0.0458   -0.6113 N   0  0  0  0  0  0  0  0  0  0  0  0
   -1.4283    0.3467   -0.3812 H   0  0  0  0  0  0  0  0  0  0  0  0
   -2.6765   -1.1779   -1.2301 C   0  0  0  0  0  0  0  0  0  0  0  0
   -1.9842   -1.9432   -1.5383 H   0  0  0  0  0  0  0  0  0  0  0  0
   -4.5826    0.0415   -0.8108 N   0  0  0  0  0  0  0  0  0  0  0  0
  1  2  3  0  0  0  0
  3  8  2  0  0  0  0
  3 10  1  0  0  0  0
  4  5  1  0  0  0  0
  6  7  1  0  0  0  0
  6  4  1  0  0  0  0
  8  6  1  0  0  0  0
  9  8  1  0  0  0  0
 10  4  2  0  0  0  0
M  RAD  1   3   2
M  END
