Coordinates from ORCA-job Imidazole-4-N2+-scan-d09-160-n800
 OpenBabel09191814123D

 10  9  0  0  0  0  0  0  0  0999 V2000
    6.1217    4.7782    2.4353 N   0  0  0  0  0  0  0  0  0  0  0  0
    7.0324    5.3056    2.7735 N   0  0  0  0  0  0  0  0  0  0  0  0
   -3.6394   -0.7646   -1.1166 C   0  0  0  0  0  0  0  0  0  0  0  0
   -3.1506    0.9560   -0.2405 C   0  0  0  0  0  0  0  0  0  0  0  0
   -3.2123    1.9297    0.2250 H   0  0  0  0  0  0  0  0  0  0  0  0
   -2.0066    0.2500   -0.4795 N   0  0  0  0  0  0  0  0  0  0  0  0
   -1.0620    0.5551   -0.2473 H   0  0  0  0  0  0  0  0  0  0  0  0
   -2.3017   -0.9751   -1.0986 C   0  0  0  0  0  0  0  0  0  0  0  0
   -1.6054   -1.7376   -1.4050 H   0  0  0  0  0  0  0  0  0  0  0  0
   -4.2140    0.2362   -0.6840 N   0  0  0  0  0  0  0  0  0  0  0  0
  1  2  3  0  0  0  0
  3  8  2  0  0  0  0
  3 10  1  0  0  0  0
  4  5  1  0  0  0  0
  6  7  1  0  0  0  0
  6  4  1  0  0  0  0
  8  6  1  0  0  0  0
  9  8  1  0  0  0  0
 10  4  2  0  0  0  0
M  RAD  1   3   2
M  END
