Coordinates from ORCA-job Imidazole-4-N2+-scan-d09-160-n800
 OpenBabel09191814123D

 10  9  0  0  0  0  0  0  0  0999 V2000
    7.3696    5.4597    2.8767 N   0  0  0  0  0  0  0  0  0  0  0  0
    8.2809    5.9866    3.2141 N   0  0  0  0  0  0  0  0  0  0  0  0
   -3.9560   -0.9312   -1.2252 C   0  0  0  0  0  0  0  0  0  0  0  0
   -3.4582    0.7875   -0.3495 C   0  0  0  0  0  0  0  0  0  0  0  0
   -3.5153    1.7612    0.1163 H   0  0  0  0  0  0  0  0  0  0  0  0
   -2.3175    0.0772   -0.5910 N   0  0  0  0  0  0  0  0  0  0  0  0
   -1.3715    0.3787   -0.3606 H   0  0  0  0  0  0  0  0  0  0  0  0
   -2.6189   -1.1464   -1.2097 C   0  0  0  0  0  0  0  0  0  0  0  0
   -1.9262   -1.9116   -1.5178 H   0  0  0  0  0  0  0  0  0  0  0  0
   -4.5250    0.0719   -0.7910 N   0  0  0  0  0  0  0  0  0  0  0  0
  1  2  3  0  0  0  0
  3  8  2  0  0  0  0
  3 10  1  0  0  0  0
  4  5  1  0  0  0  0
  6  7  1  0  0  0  0
  6  4  1  0  0  0  0
  8  6  1  0  0  0  0
  9  8  1  0  0  0  0
 10  4  2  0  0  0  0
M  RAD  1   3   2
M  END
