Coordinates from ORCA-job Imidazole-4-N2+-scan-d09-160-n800
 OpenBabel09191814123D

 10  9  0  0  0  0  0  0  0  0999 V2000
    3.1806    0.6631    0.2842 N   0  0  0  0  0  0  0  0  0  0  0  0
    4.2780    0.5544    0.3572 N   0  0  0  0  0  0  0  0  0  0  0  0
   -0.6232    0.7640   -0.0919 C   0  0  0  0  0  0  0  0  0  0  0  0
   -2.5258    0.3406   -0.4907 C   0  0  0  0  0  0  0  0  0  0  0  0
   -3.4225   -0.1682   -0.8158 H   0  0  0  0  0  0  0  0  0  0  0  0
   -2.4671    1.5849    0.0678 N   0  0  0  0  0  0  0  0  0  0  0  0
   -3.2652    2.1922    0.2488 H   0  0  0  0  0  0  0  0  0  0  0  0
   -1.1391    1.9282    0.3673 C   0  0  0  0  0  0  0  0  0  0  0  0
   -0.7843    2.8424    0.8123 H   0  0  0  0  0  0  0  0  0  0  0  0
   -1.2692   -0.1680   -0.5770 N   0  0  0  0  0  0  0  0  0  0  0  0
  1  2  3  0  0  0  0
  3  8  2  0  0  0  0
  4  6  1  0  0  0  0
  5  4  1  0  0  0  0
  6  7  1  0  0  0  0
  6  8  1  0  0  0  0
  8  9  1  0  0  0  0
 10  4  2  0  0  0  0
 10  3  1  0  0  0  0
M  RAD  1   3   2
M  END
