Coordinates from ORCA-job Imidazole-4-N2+-scan-d09-160-n800
 OpenBabel09191814123D

 10  9  0  0  0  0  0  0  0  0999 V2000
    5.5584    4.4697    2.2357 N   0  0  0  0  0  0  0  0  0  0  0  0
    6.4691    4.9972    2.5739 N   0  0  0  0  0  0  0  0  0  0  0  0
   -3.4965   -0.6894   -1.0677 C   0  0  0  0  0  0  0  0  0  0  0  0
   -3.0120    1.0322   -0.1913 C   0  0  0  0  0  0  0  0  0  0  0  0
   -3.0760    2.0058    0.2740 H   0  0  0  0  0  0  0  0  0  0  0  0
   -1.8663    0.3284   -0.4289 N   0  0  0  0  0  0  0  0  0  0  0  0
   -0.9226    0.6354   -0.1957 H   0  0  0  0  0  0  0  0  0  0  0  0
   -2.1584   -0.8974   -1.0482 C   0  0  0  0  0  0  0  0  0  0  0  0
   -1.4602   -1.6585   -1.3538 H   0  0  0  0  0  0  0  0  0  0  0  0
   -4.0735    0.3102   -0.6359 N   0  0  0  0  0  0  0  0  0  0  0  0
  1  2  3  0  0  0  0
  3  8  2  0  0  0  0
  3 10  1  0  0  0  0
  4  5  1  0  0  0  0
  6  7  1  0  0  0  0
  6  4  1  0  0  0  0
  8  6  1  0  0  0  0
  9  8  1  0  0  0  0
 10  4  2  0  0  0  0
M  RAD  1   3   2
M  END
