Coordinates from ORCA-job Imidazole-4-N2+-scan-d09-160-n800
 OpenBabel09191814123D

 10  9  0  0  0  0  0  0  0  0999 V2000
    3.5597    0.6919    0.3390 N   0  0  0  0  0  0  0  0  0  0  0  0
    4.6582    0.5996    0.4193 N   0  0  0  0  0  0  0  0  0  0  0  0
   -0.7387    0.6989   -0.1335 C   0  0  0  0  0  0  0  0  0  0  0  0
   -2.6641    0.3595   -0.4976 C   0  0  0  0  0  0  0  0  0  0  0  0
   -3.5878   -0.1087   -0.8077 H   0  0  0  0  0  0  0  0  0  0  0  0
   -2.5407    1.5972    0.0651 N   0  0  0  0  0  0  0  0  0  0  0  0
   -3.3084    2.2374    0.2640 H   0  0  0  0  0  0  0  0  0  0  0  0
   -1.1933    1.8823    0.3410 C   0  0  0  0  0  0  0  0  0  0  0  0
   -0.7910    2.7782    0.7831 H   0  0  0  0  0  0  0  0  0  0  0  0
   -1.4320   -0.2027   -0.6104 N   0  0  0  0  0  0  0  0  0  0  0  0
  1  2  3  0  0  0  0
  3  8  2  0  0  0  0
  4  6  1  0  0  0  0
  5  4  1  0  0  0  0
  6  7  1  0  0  0  0
  6  8  1  0  0  0  0
  8  9  1  0  0  0  0
 10  4  2  0  0  0  0
 10  3  1  0  0  0  0
M  RAD  1   3   2
M  END
