Coordinates from ORCA-job Imidazole-4-N2+-scan-d09-160-n800
 OpenBabel09191814123D

 10  9  0  0  0  0  0  0  0  0999 V2000
    7.3026    5.4235    2.8532 N   0  0  0  0  0  0  0  0  0  0  0  0
    8.2143    5.9500    3.1905 N   0  0  0  0  0  0  0  0  0  0  0  0
   -3.9387   -0.9220   -1.2193 C   0  0  0  0  0  0  0  0  0  0  0  0
   -3.4419    0.7966   -0.3437 C   0  0  0  0  0  0  0  0  0  0  0  0
   -3.4992    1.7703    0.1221 H   0  0  0  0  0  0  0  0  0  0  0  0
   -2.3009    0.0864   -0.5851 N   0  0  0  0  0  0  0  0  0  0  0  0
   -1.3548    0.3880   -0.3546 H   0  0  0  0  0  0  0  0  0  0  0  0
   -2.6017   -1.1375   -1.2039 C   0  0  0  0  0  0  0  0  0  0  0  0
   -1.9088   -1.9024   -1.5118 H   0  0  0  0  0  0  0  0  0  0  0  0
   -4.5088    0.0807   -0.7853 N   0  0  0  0  0  0  0  0  0  0  0  0
  1  2  3  0  0  0  0
  3  8  2  0  0  0  0
  3 10  1  0  0  0  0
  4  5  1  0  0  0  0
  6  7  1  0  0  0  0
  6  4  1  0  0  0  0
  8  6  1  0  0  0  0
  9  8  1  0  0  0  0
 10  4  2  0  0  0  0
M  RAD  1   3   2
M  END
