Coordinates from ORCA-job Imidazole-4-N2+-scan-d09-160-n800
 OpenBabel09191814123D

 10  9  0  0  0  0  0  0  0  0999 V2000
    3.8478    3.5239    1.6257 N   0  0  0  0  0  0  0  0  0  0  0  0
    4.7587    4.0512    1.9634 N   0  0  0  0  0  0  0  0  0  0  0  0
   -3.0525   -0.4689   -0.9217 C   0  0  0  0  0  0  0  0  0  0  0  0
   -2.6010    1.2612   -0.0438 C   0  0  0  0  0  0  0  0  0  0  0  0
   -2.6836    2.2343    0.4197 H   0  0  0  0  0  0  0  0  0  0  0  0
   -1.4429    0.5749   -0.2717 N   0  0  0  0  0  0  0  0  0  0  0  0
   -0.5058    0.8969   -0.0316 H   0  0  0  0  0  0  0  0  0  0  0  0
   -1.7114   -0.6559   -0.8916 C   0  0  0  0  0  0  0  0  0  0  0  0
   -0.9993   -1.4065   -1.1908 H   0  0  0  0  0  0  0  0  0  0  0  0
   -3.6480    0.5224   -0.4956 N   0  0  0  0  0  0  0  0  0  0  0  0
  1  2  3  0  0  0  0
  3  8  2  0  0  0  0
  3 10  1  0  0  0  0
  4  5  1  0  0  0  0
  6  4  1  0  0  0  0
  6  7  1  0  0  0  0
  8  6  1  0  0  0  0
  9  8  1  0  0  0  0
 10  4  2  0  0  0  0
M  RAD  1   3   2
M  END
