Coordinates from ORCA-job Imidazole-4-N2+-scan-d09-160-n800
 OpenBabel09191814123D

 10  9  0  0  0  0  0  0  0  0999 V2000
    3.5160    3.3367    1.5057 N   0  0  0  0  0  0  0  0  0  0  0  0
    4.4278    3.8628    1.8427 N   0  0  0  0  0  0  0  0  0  0  0  0
   -2.9625   -0.4295   -0.8945 C   0  0  0  0  0  0  0  0  0  0  0  0
   -2.5255    1.3045   -0.0161 C   0  0  0  0  0  0  0  0  0  0  0  0
   -2.6167    2.2773    0.4464 H   0  0  0  0  0  0  0  0  0  0  0  0
   -1.3619    0.6265   -0.2396 N   0  0  0  0  0  0  0  0  0  0  0  0
   -0.4281    0.9557    0.0036 H   0  0  0  0  0  0  0  0  0  0  0  0
   -1.6200   -0.6064   -0.8595 C   0  0  0  0  0  0  0  0  0  0  0  0
   -0.9016   -1.3522   -1.1558 H   0  0  0  0  0  0  0  0  0  0  0  0
   -3.5654    0.5582   -0.4708 N   0  0  0  0  0  0  0  0  0  0  0  0
  1  2  3  0  0  0  0
  3  8  2  0  0  0  0
  3 10  1  0  0  0  0
  4  5  1  0  0  0  0
  6  4  1  0  0  0  0
  6  7  1  0  0  0  0
  8  6  1  0  0  0  0
  9  8  1  0  0  0  0
 10  4  2  0  0  0  0
M  RAD  1   3   2
M  END
