Coordinates from ORCA-job Imidazole-4-N2+-scan-d09-160-n800
 OpenBabel09191814123D

 10  9  0  0  0  0  0  0  0  0999 V2000
    8.4055    6.0213    3.2408 N   0  0  0  0  0  0  0  0  0  0  0  0
    9.3146    6.5513    3.5796 N   0  0  0  0  0  0  0  0  0  0  0  0
   -4.2165   -1.0703   -1.3156 C   0  0  0  0  0  0  0  0  0  0  0  0
   -3.7150    0.6475   -0.4402 C   0  0  0  0  0  0  0  0  0  0  0  0
   -3.7700    1.6213    0.0258 H   0  0  0  0  0  0  0  0  0  0  0  0
   -2.5757   -0.0647   -0.6828 N   0  0  0  0  0  0  0  0  0  0  0  0
   -1.6290    0.2353   -0.4533 H   0  0  0  0  0  0  0  0  0  0  0  0
   -2.8797   -1.2878   -1.3013 C   0  0  0  0  0  0  0  0  0  0  0  0
   -2.1887   -2.0540   -1.6102 H   0  0  0  0  0  0  0  0  0  0  0  0
   -4.7834   -0.0662   -0.8807 N   0  0  0  0  0  0  0  0  0  0  0  0
  1  2  3  0  0  0  0
  3  8  2  0  0  0  0
  3 10  1  0  0  0  0
  4  5  1  0  0  0  0
  6  7  1  0  0  0  0
  6  4  1  0  0  0  0
  8  6  1  0  0  0  0
  9  8  1  0  0  0  0
 10  4  2  0  0  0  0
M  RAD  1   3   2
M  END
