Coordinates from ORCA-job Imidazole-4-N2+-scan-d09-160-n800
 OpenBabel09191814123D

 10  9  0  0  0  0  0  0  0  0999 V2000
    8.2432    5.9356    3.1850 N   0  0  0  0  0  0  0  0  0  0  0  0
    9.1553    6.4616    3.5218 N   0  0  0  0  0  0  0  0  0  0  0  0
   -4.1758   -1.0481   -1.3013 C   0  0  0  0  0  0  0  0  0  0  0  0
   -3.6751    0.6695   -0.4260 C   0  0  0  0  0  0  0  0  0  0  0  0
   -3.7301    1.6433    0.0400 H   0  0  0  0  0  0  0  0  0  0  0  0
   -2.5356   -0.0427   -0.6686 N   0  0  0  0  0  0  0  0  0  0  0  0
   -1.5888    0.2571   -0.4390 H   0  0  0  0  0  0  0  0  0  0  0  0
   -2.8393   -1.2660   -1.2872 C   0  0  0  0  0  0  0  0  0  0  0  0
   -2.1480   -2.0321   -1.5959 H   0  0  0  0  0  0  0  0  0  0  0  0
   -4.7437   -0.0444   -0.8667 N   0  0  0  0  0  0  0  0  0  0  0  0
  1  2  3  0  0  0  0
  3  8  2  0  0  0  0
  3 10  1  0  0  0  0
  4  5  1  0  0  0  0
  6  7  1  0  0  0  0
  6  4  1  0  0  0  0
  8  6  1  0  0  0  0
  9  8  1  0  0  0  0
 10  4  2  0  0  0  0
M  RAD  1   3   2
M  END
