Coordinates from ORCA-job Imidazole-4-N2+-scan-d09-160-n800
 OpenBabel09191814123D

 10  9  0  0  0  0  0  0  0  0999 V2000
    3.5455    0.6906    0.3368 N   0  0  0  0  0  0  0  0  0  0  0  0
    4.6439    0.5976    0.4168 N   0  0  0  0  0  0  0  0  0  0  0  0
   -0.7332    0.7013   -0.1318 C   0  0  0  0  0  0  0  0  0  0  0  0
   -2.6587    0.3588   -0.4973 C   0  0  0  0  0  0  0  0  0  0  0  0
   -3.5814   -0.1111   -0.8081 H   0  0  0  0  0  0  0  0  0  0  0  0
   -2.5382    1.5968    0.0652 N   0  0  0  0  0  0  0  0  0  0  0  0
   -3.3070    2.2359    0.2634 H   0  0  0  0  0  0  0  0  0  0  0  0
   -1.1918    1.8837    0.3418 C   0  0  0  0  0  0  0  0  0  0  0  0
   -0.7915    2.7805    0.7840 H   0  0  0  0  0  0  0  0  0  0  0  0
   -1.4257   -0.2005   -0.6087 N   0  0  0  0  0  0  0  0  0  0  0  0
  1  2  3  0  0  0  0
  3  8  2  0  0  0  0
  4  6  1  0  0  0  0
  5  4  1  0  0  0  0
  6  7  1  0  0  0  0
  6  8  1  0  0  0  0
  8  9  1  0  0  0  0
 10  4  2  0  0  0  0
 10  3  1  0  0  0  0
M  RAD  1   3   2
M  END
