Coordinates from ORCA-job Imidazole-4-N2+-scan-d09-160-n800
 OpenBabel09191814123D

 10  9  0  0  0  0  0  0  0  0999 V2000
    9.3029    6.4901    3.5469 N   0  0  0  0  0  0  0  0  0  0  0  0
   10.1819    7.0577    3.9035 N   0  0  0  0  0  0  0  0  0  0  0  0
   -4.4389   -1.1909   -1.3928 C   0  0  0  0  0  0  0  0  0  0  0  0
   -3.9338    0.5263   -0.5184 C   0  0  0  0  0  0  0  0  0  0  0  0
   -3.9869    1.5003   -0.0526 H   0  0  0  0  0  0  0  0  0  0  0  0
   -2.7959   -0.1874   -0.7625 N   0  0  0  0  0  0  0  0  0  0  0  0
   -1.8484    0.1112   -0.5343 H   0  0  0  0  0  0  0  0  0  0  0  0
   -3.1024   -1.4102   -1.3804 C   0  0  0  0  0  0  0  0  0  0  0  0
   -2.4128   -2.1775   -1.6900 H   0  0  0  0  0  0  0  0  0  0  0  0
   -5.0038   -0.1860   -0.9573 N   0  0  0  0  0  0  0  0  0  0  0  0
  1  2  3  0  0  0  0
  3  8  2  0  0  0  0
  3 10  1  0  0  0  0
  4  5  1  0  0  0  0
  6  7  1  0  0  0  0
  6  4  1  0  0  0  0
  8  6  1  0  0  0  0
  9  8  1  0  0  0  0
 10  4  2  0  0  0  0
M  RAD  1   3   2
M  END
