Coordinates from ORCA-job Imidazole-4-N2+-scan-d09-160-n800
 OpenBabel09191814123D

 10  9  0  0  0  0  0  0  0  0999 V2000
    2.0923    0.6886    0.1750 N   0  0  0  0  0  0  0  0  0  0  0  0
    3.1863    0.5508    0.2350 N   0  0  0  0  0  0  0  0  0  0  0  0
   -0.3166    0.8409   -0.0241 C   0  0  0  0  0  0  0  0  0  0  0  0
   -2.1872    0.3039   -0.4695 C   0  0  0  0  0  0  0  0  0  0  0  0
   -3.0477   -0.2531   -0.8119 H   0  0  0  0  0  0  0  0  0  0  0  0
   -2.2225    1.5527    0.0807 N   0  0  0  0  0  0  0  0  0  0  0  0
   -3.0598    2.1101    0.2353 H   0  0  0  0  0  0  0  0  0  0  0  0
   -0.9287    1.9695    0.4089 C   0  0  0  0  0  0  0  0  0  0  0  0
   -0.6441    2.9064    0.8561 H   0  0  0  0  0  0  0  0  0  0  0  0
   -0.9100   -0.1362   -0.5233 N   0  0  0  0  0  0  0  0  0  0  0  0
  1  2  3  0  0  0  0
  3  8  2  0  0  0  0
  4  6  1  0  0  0  0
  5  4  1  0  0  0  0
  6  7  1  0  0  0  0
  6  8  1  0  0  0  0
  8  9  1  0  0  0  0
 10  4  2  0  0  0  0
 10  3  1  0  0  0  0
M  RAD  1   3   2
M  END
