Coordinates from ORCA-job Imidazole-4-N2+-scan-d09-160-n800
 OpenBabel09191814123D

 10  9  0  0  0  0  0  0  0  0999 V2000
    2.3853    2.6834    1.0898 N   0  0  0  0  0  0  0  0  0  0  0  0
    3.3049    3.1992    1.4206 N   0  0  0  0  0  0  0  0  0  0  0  0
   -2.6414   -0.3035   -0.8052 C   0  0  0  0  0  0  0  0  0  0  0  0
   -2.2827    1.4491    0.0755 C   0  0  0  0  0  0  0  0  0  0  0  0
   -2.4191    2.4190    0.5327 H   0  0  0  0  0  0  0  0  0  0  0  0
   -1.0903    0.8154   -0.1239 N   0  0  0  0  0  0  0  0  0  0  0  0
   -0.1735    1.1832    0.1368 H   0  0  0  0  0  0  0  0  0  0  0  0
   -1.2927   -0.4279   -0.7440 C   0  0  0  0  0  0  0  0  0  0  0  0
   -0.5421   -1.1474   -1.0247 H   0  0  0  0  0  0  0  0  0  0  0  0
   -3.2864    0.6631   -0.3954 N   0  0  0  0  0  0  0  0  0  0  0  0
  1  2  3  0  0  0  0
  3  8  2  0  0  0  0
  3 10  1  0  0  0  0
  4  5  1  0  0  0  0
  6  4  1  0  0  0  0
  6  7  1  0  0  0  0
  8  6  1  0  0  0  0
  9  8  1  0  0  0  0
 10  4  2  0  0  0  0
M  RAD  1   3   2
M  END
