Coordinates from ORCA-job Imidazole-4-N2+-scan-d09-160-n800
 OpenBabel09191814123D

 10  9  0  0  0  0  0  0  0  0999 V2000
    3.7416    3.4641    1.5873 N   0  0  0  0  0  0  0  0  0  0  0  0
    4.6527    3.9912    1.9249 N   0  0  0  0  0  0  0  0  0  0  0  0
   -3.0238   -0.4560   -0.9129 C   0  0  0  0  0  0  0  0  0  0  0  0
   -2.5767    1.2752   -0.0349 C   0  0  0  0  0  0  0  0  0  0  0  0
   -2.6617    2.2481    0.4284 H   0  0  0  0  0  0  0  0  0  0  0  0
   -1.4169    0.5912   -0.2615 N   0  0  0  0  0  0  0  0  0  0  0  0
   -0.4808    0.9153   -0.0205 H   0  0  0  0  0  0  0  0  0  0  0  0
   -1.6824   -0.6403   -0.8814 C   0  0  0  0  0  0  0  0  0  0  0  0
   -0.9684   -1.3894   -1.1797 H   0  0  0  0  0  0  0  0  0  0  0  0
   -3.6217    0.5341   -0.4875 N   0  0  0  0  0  0  0  0  0  0  0  0
  1  2  3  0  0  0  0
  3  8  2  0  0  0  0
  3 10  1  0  0  0  0
  4  5  1  0  0  0  0
  6  4  1  0  0  0  0
  6  7  1  0  0  0  0
  8  6  1  0  0  0  0
  9  8  1  0  0  0  0
 10  4  2  0  0  0  0
M  RAD  1   3   2
M  END
