Coordinates from ORCA-job Imidazole-4-N2+-scan-d09-160-n800
 OpenBabel09191814123D

 10  9  0  0  0  0  0  0  0  0999 V2000
    8.6919    6.1701    3.3380 N   0  0  0  0  0  0  0  0  0  0  0  0
    9.5925    6.7110    3.6821 N   0  0  0  0  0  0  0  0  0  0  0  0
   -4.2868   -1.1086   -1.3400 C   0  0  0  0  0  0  0  0  0  0  0  0
   -3.7856    0.6091   -0.4651 C   0  0  0  0  0  0  0  0  0  0  0  0
   -3.8404    1.5830    0.0008 H   0  0  0  0  0  0  0  0  0  0  0  0
   -2.6463   -0.1033   -0.7080 N   0  0  0  0  0  0  0  0  0  0  0  0
   -1.6993    0.1965   -0.4787 H   0  0  0  0  0  0  0  0  0  0  0  0
   -2.9503   -1.3266   -1.3264 C   0  0  0  0  0  0  0  0  0  0  0  0
   -2.2592   -2.0928   -1.6352 H   0  0  0  0  0  0  0  0  0  0  0  0
   -4.8544   -0.1047   -0.9054 N   0  0  0  0  0  0  0  0  0  0  0  0
  1  2  3  0  0  0  0
  3  8  2  0  0  0  0
  3 10  1  0  0  0  0
  4  5  1  0  0  0  0
  6  7  1  0  0  0  0
  6  4  1  0  0  0  0
  8  6  1  0  0  0  0
  9  8  1  0  0  0  0
 10  4  2  0  0  0  0
M  RAD  1   3   2
M  END
