Coordinates from ORCA-job Imidazole-4-N2+-scan-d09-160-n800
 OpenBabel09191814123D

 10  9  0  0  0  0  0  0  0  0999 V2000
    3.4770    3.3140    1.4913 N   0  0  0  0  0  0  0  0  0  0  0  0
    4.3888    3.8402    1.8283 N   0  0  0  0  0  0  0  0  0  0  0  0
   -2.9511   -0.4248   -0.8912 C   0  0  0  0  0  0  0  0  0  0  0  0
   -2.5173    1.3097   -0.0129 C   0  0  0  0  0  0  0  0  0  0  0  0
   -2.6097    2.2824    0.4495 H   0  0  0  0  0  0  0  0  0  0  0  0
   -1.3526    0.6330   -0.2357 N   0  0  0  0  0  0  0  0  0  0  0  0
   -0.4191    0.9631    0.0080 H   0  0  0  0  0  0  0  0  0  0  0  0
   -1.6086   -0.6005   -0.8556 C   0  0  0  0  0  0  0  0  0  0  0  0
   -0.8890   -1.3454   -1.1514 H   0  0  0  0  0  0  0  0  0  0  0  0
   -3.5563    0.5619   -0.4681 N   0  0  0  0  0  0  0  0  0  0  0  0
  1  2  3  0  0  0  0
  3  8  2  0  0  0  0
  3 10  1  0  0  0  0
  4  5  1  0  0  0  0
  6  4  1  0  0  0  0
  6  7  1  0  0  0  0
  8  6  1  0  0  0  0
  9  8  1  0  0  0  0
 10  4  2  0  0  0  0
M  RAD  1   3   2
M  END
