Coordinates from ORCA-job Imidazole-4-N2+-scan-d09-160-n800
 OpenBabel09191814123D

 10  9  0  0  0  0  0  0  0  0999 V2000
    6.8861    5.1962    2.7059 N   0  0  0  0  0  0  0  0  0  0  0  0
    7.7972    5.7233    3.0437 N   0  0  0  0  0  0  0  0  0  0  0  0
   -3.8336   -0.8669   -1.1832 C   0  0  0  0  0  0  0  0  0  0  0  0
   -3.3388    0.8526   -0.3074 C   0  0  0  0  0  0  0  0  0  0  0  0
   -3.3977    1.8264    0.1583 H   0  0  0  0  0  0  0  0  0  0  0  0
   -2.1970    0.1440   -0.5479 N   0  0  0  0  0  0  0  0  0  0  0  0
   -1.2515    0.4469   -0.3168 H   0  0  0  0  0  0  0  0  0  0  0  0
   -2.4962   -1.0802   -1.1667 C   0  0  0  0  0  0  0  0  0  0  0  0
   -1.8022   -1.8443   -1.4742 H   0  0  0  0  0  0  0  0  0  0  0  0
   -4.4043    0.1356   -0.7495 N   0  0  0  0  0  0  0  0  0  0  0  0
  1  2  3  0  0  0  0
  3  8  2  0  0  0  0
  3 10  1  0  0  0  0
  4  5  1  0  0  0  0
  6  7  1  0  0  0  0
  6  4  1  0  0  0  0
  8  6  1  0  0  0  0
  9  8  1  0  0  0  0
 10  4  2  0  0  0  0
M  RAD  1   3   2
M  END
