Coordinates from ORCA-job Imidazole-4-N2+-scan-d09-160-n800
 OpenBabel09191814123D

 10  9  0  0  0  0  0  0  0  0999 V2000
    2.4169    0.6709    0.2031 N   0  0  0  0  0  0  0  0  0  0  0  0
    3.5119    0.5386    0.2656 N   0  0  0  0  0  0  0  0  0  0  0  0
   -0.4107    0.8277   -0.0403 C   0  0  0  0  0  0  0  0  0  0  0  0
   -2.2841    0.3136   -0.4759 C   0  0  0  0  0  0  0  0  0  0  0  0
   -3.1504   -0.2361   -0.8157 H   0  0  0  0  0  0  0  0  0  0  0  0
   -2.2980    1.5618    0.0764 N   0  0  0  0  0  0  0  0  0  0  0  0
   -3.1276    2.1304    0.2368 H   0  0  0  0  0  0  0  0  0  0  0  0
   -0.9947    1.9666    0.4003 C   0  0  0  0  0  0  0  0  0  0  0  0
   -0.6947    2.8990    0.8472 H   0  0  0  0  0  0  0  0  0  0  0  0
   -1.0067   -0.1388   -0.5352 N   0  0  0  0  0  0  0  0  0  0  0  0
  1  2  3  0  0  0  0
  3  8  2  0  0  0  0
  4  6  1  0  0  0  0
  5  4  1  0  0  0  0
  6  7  1  0  0  0  0
  6  8  1  0  0  0  0
  8  9  1  0  0  0  0
 10  4  2  0  0  0  0
 10  3  1  0  0  0  0
M  RAD  1   3   2
M  END
