Coordinates from ORCA-job Imidazole-4-N2+-scan-d09-160-n800
 OpenBabel09191814123D

 10  9  0  0  0  0  0  0  0  0999 V2000
    3.0568    0.6596    0.2689 N   0  0  0  0  0  0  0  0  0  0  0  0
    4.1539    0.5468    0.3401 N   0  0  0  0  0  0  0  0  0  0  0  0
   -0.5879    0.7789   -0.0814 C   0  0  0  0  0  0  0  0  0  0  0  0
   -2.4843    0.3356   -0.4883 C   0  0  0  0  0  0  0  0  0  0  0  0
   -3.3743   -0.1826   -0.8168 H   0  0  0  0  0  0  0  0  0  0  0  0
   -2.4410    1.5810    0.0690 N   0  0  0  0  0  0  0  0  0  0  0  0
   -3.2462    2.1802    0.2456 H   0  0  0  0  0  0  0  0  0  0  0  0
   -1.1180    1.9381    0.3740 C   0  0  0  0  0  0  0  0  0  0  0  0
   -0.7747    2.8564    0.8195 H   0  0  0  0  0  0  0  0  0  0  0  0
   -1.2223   -0.1603   -0.5684 N   0  0  0  0  0  0  0  0  0  0  0  0
  1  2  3  0  0  0  0
  3  8  2  0  0  0  0
  4  6  1  0  0  0  0
  5  4  1  0  0  0  0
  6  7  1  0  0  0  0
  6  8  1  0  0  0  0
  8  9  1  0  0  0  0
 10  4  2  0  0  0  0
 10  3  1  0  0  0  0
M  RAD  1   3   2
M  END
