Coordinates from ORCA-job Imidazole-4-N2+-scan-d09-160-n800
 OpenBabel09191814123D

 10  9  0  0  0  0  0  0  0  0999 V2000
    4.3537    3.8066    1.8074 N   0  0  0  0  0  0  0  0  0  0  0  0
    5.2647    4.3337    2.1453 N   0  0  0  0  0  0  0  0  0  0  0  0
   -3.1865   -0.5321   -0.9643 C   0  0  0  0  0  0  0  0  0  0  0  0
   -2.7199    1.1940   -0.0869 C   0  0  0  0  0  0  0  0  0  0  0  0
   -2.7939    2.1674    0.3775 H   0  0  0  0  0  0  0  0  0  0  0  0
   -1.5674    0.4996   -0.3192 N   0  0  0  0  0  0  0  0  0  0  0  0
   -0.6273    0.8147   -0.0821 H   0  0  0  0  0  0  0  0  0  0  0  0
   -1.8468   -0.7289   -0.9389 C   0  0  0  0  0  0  0  0  0  0  0  0
   -1.1410   -1.4843   -1.2410 H   0  0  0  0  0  0  0  0  0  0  0  0
   -3.7735    0.4630   -0.5355 N   0  0  0  0  0  0  0  0  0  0  0  0
  1  2  3  0  0  0  0
  3  8  2  0  0  0  0
  3 10  1  0  0  0  0
  4  5  1  0  0  0  0
  6  4  1  0  0  0  0
  6  7  1  0  0  0  0
  8  6  1  0  0  0  0
  9  8  1  0  0  0  0
 10  4  2  0  0  0  0
M  RAD  1   3   2
M  END
