Coordinates from ORCA-job Imidazole-4-N2+-scan-d09-160-n800
 OpenBabel09191814123D

 10  9  0  0  0  0  0  0  0  0999 V2000
    3.3949    0.6761    0.3137 N   0  0  0  0  0  0  0  0  0  0  0  0
    4.4929    0.5755    0.3903 N   0  0  0  0  0  0  0  0  0  0  0  0
   -0.6865    0.7309   -0.1135 C   0  0  0  0  0  0  0  0  0  0  0  0
   -2.6018    0.3505   -0.4947 C   0  0  0  0  0  0  0  0  0  0  0  0
   -3.5125   -0.1377   -0.8123 H   0  0  0  0  0  0  0  0  0  0  0  0
   -2.5101    1.5918    0.0661 N   0  0  0  0  0  0  0  0  0  0  0  0
   -3.2928    2.2162    0.2563 H   0  0  0  0  0  0  0  0  0  0  0  0
   -1.1719    1.9051    0.3535 C   0  0  0  0  0  0  0  0  0  0  0  0
   -0.7928    2.8103    0.7971 H   0  0  0  0  0  0  0  0  0  0  0  0
   -1.3574   -0.1852   -0.5943 N   0  0  0  0  0  0  0  0  0  0  0  0
  1  2  3  0  0  0  0
  3  8  2  0  0  0  0
  4  6  1  0  0  0  0
  5  4  1  0  0  0  0
  6  7  1  0  0  0  0
  6  8  1  0  0  0  0
  8  9  1  0  0  0  0
 10  4  2  0  0  0  0
 10  3  1  0  0  0  0
M  RAD  1   3   2
M  END
