Coordinates from ORCA-job Imidazole-4-N2+-scan-d09-160-n800
 OpenBabel09191814123D

 10  9  0  0  0  0  0  0  0  0999 V2000
    5.3709    4.3665    2.1690 N   0  0  0  0  0  0  0  0  0  0  0  0
    6.2813    4.8945    2.5075 N   0  0  0  0  0  0  0  0  0  0  0  0
   -3.4486   -0.6646   -1.0515 C   0  0  0  0  0  0  0  0  0  0  0  0
   -2.9660    1.0575   -0.1749 C   0  0  0  0  0  0  0  0  0  0  0  0
   -3.0312    2.0311    0.2903 H   0  0  0  0  0  0  0  0  0  0  0  0
   -1.8196    0.3547   -0.4120 N   0  0  0  0  0  0  0  0  0  0  0  0
   -0.8763    0.6625   -0.1783 H   0  0  0  0  0  0  0  0  0  0  0  0
   -2.1104   -0.8713   -1.0313 C   0  0  0  0  0  0  0  0  0  0  0  0
   -1.4114   -1.6318   -1.3365 H   0  0  0  0  0  0  0  0  0  0  0  0
   -4.0267    0.3346   -0.6200 N   0  0  0  0  0  0  0  0  0  0  0  0
  1  2  3  0  0  0  0
  3  8  2  0  0  0  0
  3 10  1  0  0  0  0
  4  5  1  0  0  0  0
  6  7  1  0  0  0  0
  6  4  1  0  0  0  0
  8  6  1  0  0  0  0
  9  8  1  0  0  0  0
 10  4  2  0  0  0  0
M  RAD  1   3   2
M  END
