Coordinates from ORCA-job Imidazole-4-N2+-scan-d09-160-n800
 OpenBabel09191814123D

 10  9  0  0  0  0  0  0  0  0999 V2000
    2.6836    0.6577    0.2268 N   0  0  0  0  0  0  0  0  0  0  0  0
    3.7794    0.5314    0.2920 N   0  0  0  0  0  0  0  0  0  0  0  0
   -0.4830    0.8161   -0.0534 C   0  0  0  0  0  0  0  0  0  0  0  0
   -2.3629    0.3219   -0.4809 C   0  0  0  0  0  0  0  0  0  0  0  0
   -3.2355   -0.2197   -0.8179 H   0  0  0  0  0  0  0  0  0  0  0  0
   -2.3600    1.5695    0.0729 N   0  0  0  0  0  0  0  0  0  0  0  0
   -3.1827    2.1473    0.2381 H   0  0  0  0  0  0  0  0  0  0  0  0
   -1.0508    1.9613    0.3918 C   0  0  0  0  0  0  0  0  0  0  0  0
   -0.7375    2.8896    0.8383 H   0  0  0  0  0  0  0  0  0  0  0  0
   -1.0886   -0.1416   -0.5454 N   0  0  0  0  0  0  0  0  0  0  0  0
  1  2  3  0  0  0  0
  3  8  2  0  0  0  0
  4  6  1  0  0  0  0
  5  4  1  0  0  0  0
  6  7  1  0  0  0  0
  6  8  1  0  0  0  0
  8  9  1  0  0  0  0
 10  4  2  0  0  0  0
 10  3  1  0  0  0  0
M  RAD  1   3   2
M  END
