Coordinates from ORCA-job Imidazole-4-N2+-scan-d09-160-n800
 OpenBabel09191814123D

 10  9  0  0  0  0  0  0  0  0999 V2000
    4.7016    3.9981    1.9310 N   0  0  0  0  0  0  0  0  0  0  0  0
    5.6117    4.5263    2.2695 N   0  0  0  0  0  0  0  0  0  0  0  0
   -3.2768   -0.5769   -0.9940 C   0  0  0  0  0  0  0  0  0  0  0  0
   -2.8033    1.1476   -0.1168 C   0  0  0  0  0  0  0  0  0  0  0  0
   -2.8735    2.1210    0.3480 H   0  0  0  0  0  0  0  0  0  0  0  0
   -1.6534    0.4495   -0.3512 N   0  0  0  0  0  0  0  0  0  0  0  0
   -0.7119    0.7614   -0.1155 H   0  0  0  0  0  0  0  0  0  0  0  0
   -1.9377   -0.7779   -0.9708 C   0  0  0  0  0  0  0  0  0  0  0  0
   -1.2348   -1.5356   -1.2742 H   0  0  0  0  0  0  0  0  0  0  0  0
   -3.8600    0.4201   -0.5640 N   0  0  0  0  0  0  0  0  0  0  0  0
  1  2  3  0  0  0  0
  3  8  2  0  0  0  0
  3 10  1  0  0  0  0
  4  5  1  0  0  0  0
  6  4  1  0  0  0  0
  6  7  1  0  0  0  0
  8  6  1  0  0  0  0
  9  8  1  0  0  0  0
 10  4  2  0  0  0  0
M  RAD  1   3   2
M  END
