Coordinates from ORCA-job Imidazole-4-N2+-scan-d09-160-n800
 OpenBabel09191814123D

 10  9  0  0  0  0  0  0  0  0999 V2000
    2.7797    2.9115    1.2350 N   0  0  0  0  0  0  0  0  0  0  0  0
    3.6960    3.4316    1.5688 N   0  0  0  0  0  0  0  0  0  0  0  0
   -2.7537   -0.3473   -0.8357 C   0  0  0  0  0  0  0  0  0  0  0  0
   -2.3671    1.3992    0.0438 C   0  0  0  0  0  0  0  0  0  0  0  0
   -2.4870    2.3704    0.5028 H   0  0  0  0  0  0  0  0  0  0  0  0
   -1.1850    0.7492   -0.1648 N   0  0  0  0  0  0  0  0  0  0  0  0
   -0.2620    1.1026    0.0888 H   0  0  0  0  0  0  0  0  0  0  0  0
   -1.4071   -0.4908   -0.7845 C   0  0  0  0  0  0  0  0  0  0  0  0
   -0.6679   -1.2198   -1.0710 H   0  0  0  0  0  0  0  0  0  0  0  0
   -3.3838    0.6270   -0.4208 N   0  0  0  0  0  0  0  0  0  0  0  0
  1  2  3  0  0  0  0
  3  8  2  0  0  0  0
  3 10  1  0  0  0  0
  4  5  1  0  0  0  0
  6  4  1  0  0  0  0
  6  7  1  0  0  0  0
  8  6  1  0  0  0  0
  9  8  1  0  0  0  0
 10  4  2  0  0  0  0
M  RAD  1   3   2
M  END
