Coordinates from ORCA-job Imidazole-4-N2+-scan-d09-160-n800
 OpenBabel09191814123D

 10  9  0  0  0  0  0  0  0  0999 V2000
    3.3713    3.2538    1.4528 N   0  0  0  0  0  0  0  0  0  0  0  0
    4.2838    3.7791    1.7894 N   0  0  0  0  0  0  0  0  0  0  0  0
   -2.9216   -0.4127   -0.8827 C   0  0  0  0  0  0  0  0  0  0  0  0
   -2.4941    1.3234   -0.0042 C   0  0  0  0  0  0  0  0  0  0  0  0
   -2.5902    2.2959    0.4578 H   0  0  0  0  0  0  0  0  0  0  0  0
   -1.3271    0.6501   -0.2252 N   0  0  0  0  0  0  0  0  0  0  0  0
   -0.3950    0.9832    0.0197 H   0  0  0  0  0  0  0  0  0  0  0  0
   -1.5785   -0.5843   -0.8451 C   0  0  0  0  0  0  0  0  0  0  0  0
   -0.8563   -1.3271   -1.1396 H   0  0  0  0  0  0  0  0  0  0  0  0
   -3.5303    0.5723   -0.4607 N   0  0  0  0  0  0  0  0  0  0  0  0
  1  2  3  0  0  0  0
  3  8  2  0  0  0  0
  3 10  1  0  0  0  0
  4  5  1  0  0  0  0
  6  4  1  0  0  0  0
  6  7  1  0  0  0  0
  8  6  1  0  0  0  0
  9  8  1  0  0  0  0
 10  4  2  0  0  0  0
M  RAD  1   3   2
M  END
