Coordinates from ORCA-job Imidazole-4-N2+-scan-d09-160-n800
 OpenBabel09191814123D

 10  9  0  0  0  0  0  0  0  0999 V2000
    5.2100    4.2784    2.1121 N   0  0  0  0  0  0  0  0  0  0  0  0
    6.1206    4.8060    2.4503 N   0  0  0  0  0  0  0  0  0  0  0  0
   -3.4076   -0.6434   -1.0376 C   0  0  0  0  0  0  0  0  0  0  0  0
   -2.9267    1.0792   -0.1609 C   0  0  0  0  0  0  0  0  0  0  0  0
   -2.9928    2.0527    0.3042 H   0  0  0  0  0  0  0  0  0  0  0  0
   -1.7796    0.3773   -0.3975 N   0  0  0  0  0  0  0  0  0  0  0  0
   -0.8367    0.6859   -0.1634 H   0  0  0  0  0  0  0  0  0  0  0  0
   -2.0691   -0.8490   -1.0169 C   0  0  0  0  0  0  0  0  0  0  0  0
   -1.3694   -1.6090   -1.3217 H   0  0  0  0  0  0  0  0  0  0  0  0
   -3.9866    0.3554   -0.6064 N   0  0  0  0  0  0  0  0  0  0  0  0
  1  2  3  0  0  0  0
  3  8  2  0  0  0  0
  3 10  1  0  0  0  0
  4  5  1  0  0  0  0
  6  7  1  0  0  0  0
  6  4  1  0  0  0  0
  8  6  1  0  0  0  0
  9  8  1  0  0  0  0
 10  4  2  0  0  0  0
M  RAD  1   3   2
M  END
