Coordinates from ORCA-job Imidazole-4-N2+-scan-d09-160-n800
 OpenBabel09191814123D

 10  9  0  0  0  0  0  0  0  0999 V2000
    6.1754    4.8075    2.4543 N   0  0  0  0  0  0  0  0  0  0  0  0
    7.0861    5.3350    2.7925 N   0  0  0  0  0  0  0  0  0  0  0  0
   -3.6530   -0.7718   -1.1213 C   0  0  0  0  0  0  0  0  0  0  0  0
   -3.1639    0.9488   -0.2452 C   0  0  0  0  0  0  0  0  0  0  0  0
   -3.2253    1.9225    0.2203 H   0  0  0  0  0  0  0  0  0  0  0  0
   -2.0199    0.2426   -0.4843 N   0  0  0  0  0  0  0  0  0  0  0  0
   -1.0753    0.5475   -0.2521 H   0  0  0  0  0  0  0  0  0  0  0  0
   -2.3154   -0.9825   -1.1034 C   0  0  0  0  0  0  0  0  0  0  0  0
   -1.6192   -1.7451   -1.4098 H   0  0  0  0  0  0  0  0  0  0  0  0
   -4.2274    0.2291   -0.6887 N   0  0  0  0  0  0  0  0  0  0  0  0
  1  2  3  0  0  0  0
  3  8  2  0  0  0  0
  3 10  1  0  0  0  0
  4  5  1  0  0  0  0
  6  7  1  0  0  0  0
  6  4  1  0  0  0  0
  8  6  1  0  0  0  0
  9  8  1  0  0  0  0
 10  4  2  0  0  0  0
M  RAD  1   3   2
M  END
