15
Coordinates from ORCA-job 4-HOOC-C6H3-N2-B3LYPG-aug-cc-pVDZ-scan-d09-49-n400
  C   -2.15014317818540     -2.00413215116368     -1.11092361998499
  C   -0.77259079485495     -1.97112099460934     -1.19006456765682
  C   -0.01930643875190     -0.97868863174588     -1.05612741700429
  C   -0.40430579028069      0.33019030224258     -0.79433948012588
  C   -1.80969141767065      0.41931276639733     -0.69121731196723
  C   -2.65923791880279     -0.70254710416051     -0.84256540630232
  H   -2.81412325908232     -2.85725236875763     -1.22491268121166
  H   0.24177803030079      1.19757749790302     -0.67656399060871
  H   -2.25806995418028      1.39045561113779     -0.48682036287764
  N   3.37073636666724      2.35320118320360     -0.66127013446188
  N   4.46683312256807      2.25310527325234     -0.74948657025541
  C   -4.14067506525972     -0.57638270866139     -0.72761872865115
  O   -4.92511664690913     -1.49452123599164     -0.84995876998476
  O   -4.55484284302227      0.69491918424140     -0.47589816078251
  H   -5.52364421253596      0.65978337671197     -0.42543279812475
