15
Coordinates from ORCA-job 4-HOOC-C6H3-N2-B3LYPG-aug-cc-pVDZ-scan-d09-49-n400
  C   -2.01633476293964     -1.90926680817013     -1.10212688421604
  C   -0.64420531482978     -1.76986337377253     -1.16015005868881
  C   0.02571020073992     -0.72127902402218     -1.01167808912976
  C   -0.46251985637393      0.55262260844789     -0.75229749858423
  C   -1.87220192573318      0.53174424166998     -0.67071294764040
  C   -2.62926836820335     -0.65223070298534     -0.83854445528691
  H   -2.61028090491065     -2.81084891469771     -1.22884951570324
  H   0.11308762007202      1.46645711326279     -0.62233187925876
  H   -2.39803218723580      1.46420769665439     -0.47078408043162
  N   3.32920844162136      2.02891333266544     -0.71723376982605
  N   4.38468459805647      1.72647520144717     -0.83409507299884
  C   -4.11767818442761     -0.64200276790917     -0.74703564901398
  O   -4.82572747499528     -1.61952336490401     -0.87510480012625
  O   -4.63274416669487      0.59020349219008     -0.48724143304702
  H   -5.59609771414563      0.47829127012328     -0.44501386604807
