15
Coordinates from ORCA-job 4-HOOC-C6H3-N2-B3LYPG-aug-cc-pVDZ-scan-d09-49-n400
  C   -1.87965492498044     -1.80748719733892     -1.09145581878356
  C   -0.51991409983187     -1.57037688849219     -1.13248054443355
  C   0.06674689641074     -0.47515188755988     -0.96963938438341
  C   -0.51298669233072      0.75855929949497     -0.70947134733073
  C   -1.91850358426747      0.63518156728843     -0.64490051363801
  C   -2.58520198187484     -0.59982379541794     -0.82801852866379
  H   -2.40568693241364     -2.74867539557628     -1.22992940955824
  H   -0.00422813562061      1.70941350337500     -0.56808735928712
  H   -2.51310453230577      1.52561610729088     -0.44612765503804
  N   3.20906319230159      1.68329558235734     -0.77296603048049
  N   4.19836951963127      1.21640588152759     -0.92249076523929
  C   -4.07135668021471     -0.69832160339312     -0.75353440478256
  O   -4.70568655779680     -1.72190607515507     -0.90580567920717
  O   -4.67833499368103      0.49378092031241     -0.50523375506097
  H   -5.63192049302564      0.31338998128673     -0.48305880411307
