15
Coordinates from ORCA-job 4-HOOC-C6H3-N2-B3LYPG-aug-cc-pVDZ-scan-d09-49-n400
  C   -2.08032777963523     -1.95551659027466     -1.10647567432534
  C   -0.70470388111891     -1.86549541005801     -1.17349796501954
  C   0.00551318894112     -0.84277564381365     -1.03208187808915
  C   -0.43541134287821      0.44862201308539     -0.77248564300279
  C   -1.84421506747626      0.47948701597473     -0.68178616679405
  C   -2.64520577347583     -0.67632881951452     -0.84192353257039
  H   -2.70744991693171     -2.83517065913898     -1.22725544707233
  H   0.17363769185374      1.34144807277101     -0.64827439372498
  H   -2.33425729030011      1.43099021254470     -0.48067967061616
  N   3.35676261847990      2.18454161748511     -0.69006265229400
  N   4.43627336083150      1.97670685428673     -0.79330124885265
  C   -4.13161493905546     -0.61157197308855     -0.74086112221034
  O   -4.87568018784540     -1.56292121316021     -0.86168407168586
  O   -4.59961240646492      0.63921116669591     -0.48083673546948
  H   -5.56610827492419      0.56267335620496     -0.43199379827295
