15
Coordinates from ORCA-job 4-HOOC-C6H3-N2-B3LYPG-aug-cc-pVDZ-scan-d09-49-n400
  C   -2.04526445525764     -1.93039681903457     -1.10395971446663
  C   -0.67152304421920     -1.81251289078768     -1.16769881150714
  C   0.01679144693394     -0.77553973813111     -1.02180853709181
  C   -0.45040032305727      0.50585972341610     -0.75978775373964
  C   -1.85981852070214      0.50772207405892     -0.67197996032869
  C   -2.63666994724406     -0.66379853815273     -0.83670689902962
  H   -2.65409531023975     -2.82232007544210     -1.22829480964048
  H   0.13990964710370      1.41061811537506     -0.63187539825005
  H   -2.36960814923246      1.44843429651878     -0.46918554968636
  N   3.34387228251229      2.09997731462439     -0.70684033303749
  N   4.41095107989823      1.83961392571139     -0.81967606444080
  C   -4.12424047788496     -0.62979830395765     -0.73780267493703
  O   -4.84908461649108     -1.59400477669023     -0.87271106007291
  O   -4.61896118884685      0.61254642314335     -0.48696562774316
  H   -5.58425842327268      0.51749926934806     -0.44790680602821
