15
Coordinates from ORCA-job 4-HOOC-C6H3-N2-B3LYPG-aug-cc-pVDZ-scan-d09-49-n400
  C   -2.00430734609868     -1.90048687974603     -1.10096027520012
  C   -0.63287462586584     -1.75239906167927     -1.15916630788469
  C   0.02844993042593     -0.69867828173418     -1.00860334010968
  C   -0.46745459240387      0.57146291498152     -0.74681821371062
  C   -1.87700112228454      0.54063962189965     -0.66481785587398
  C   -2.62580481015079     -0.64833217516078     -0.83438450598446
  H   -2.59225081082007     -2.80582581435664     -1.22899277200707
  H   0.10215708403386      1.48880289164533     -0.61540912069556
  H   -2.40925256979648      1.46900678804526     -0.46281825169651
  N   3.32307182358503      2.00020980970970     -0.72419499996226
  N   4.37301926107474      1.68090767190871     -0.84586761176926
  C   -4.11416411805711     -0.64865455171345     -0.74150933776529
  O   -4.81617499197191     -1.62889822855812     -0.88146164773156
  O   -4.63839328560245      0.58169452522359     -0.49135239865374
  H   -5.60141982606777      0.46445076953466     -0.45684336095519
