15
Coordinates from ORCA-job 4-HOOC-C6H3-N2-B3LYPG-aug-cc-pVDZ-scan-d09-49-n400
  C   -2.02815530611632     -1.91800571428553     -1.10274139851282
  C   -0.65545040425564     -1.78704900611695     -1.16403338246609
  C   0.02239319963794     -0.74345827435633     -1.01634085016844
  C   -0.45737352876883      0.53329819155335     -0.75445598513594
  C   -1.86689997564717      0.52154315035013     -0.66912169593854
  C   -2.63214725703345     -0.65731535411565     -0.83585200257652
  H   -2.62820788146830     -2.81564434872115     -1.22862755330397
  H   0.12435609594142      1.44336394704800     -0.62509983257499
  H   -2.38608219610544      1.45719082210541     -0.46671754809084
  N   3.33459927796318      2.05805020951332     -0.71409789896197
  N   4.39502671300458      1.77320878162430     -0.83037542799378
  C   -4.12015804636164     -0.63765288190319     -0.73955149868645
  O   -4.83547545191719     -1.60869751017602     -0.87622435344023
  O   -4.62721122074159      0.59970527945591     -0.48867253016602
  H   -5.59161401813149      0.49536270802437     -0.45128804198338
