15
Coordinates from ORCA-job 4-HOOC-C6H3-N2-B3LYPG-aug-cc-pVDZ-scan-d09-49-n400
  C   -1.95384108088243     -1.86304145318312     -1.09765425904903
  C   -0.58631688459494     -1.67838799580758     -1.14687637476061
  C   0.04354694092457     -0.60630294533549     -0.99155890416629
  C   -0.48728642159917      0.64990880527648     -0.73292787396710
  C   -1.89605506907019      0.58085310846024     -0.66036634551608
  C   -2.61090048365429     -0.62813690525672     -0.83547887975800
  H   -2.51641161473119     -2.78376399606971     -1.22990580408473
  H   0.05781230011984      1.58143523543513     -0.59782820273518
  H   -2.45483461265996      1.49427307874499     -0.46198368770029
  N   3.28549606928206      1.87139695650673     -0.74202490685599
  N   4.31334596264962      1.49025461111870     -0.87380143513184
  C   -4.09934796051869     -0.66882233035389     -0.75353086495443
  O   -4.77285519992942     -1.66963201937659     -0.88790591506854
  O   -4.65777888483027      0.54437651453539     -0.49373179097116
  H   -5.61697306050547      0.39948933530539     -0.45762475528072
