15
Coordinates from ORCA-job 4-HOOC-C6H3-N2-B3LYPG-aug-cc-pVDZ-scan-d09-49-n400
  C   -1.93168204899765     -1.84646848695974     -1.09600252369624
  C   -0.56623571618848     -1.64602395058360     -1.14216746286981
  C   0.05034817515326     -0.56655828450626     -0.98459574761787
  C   -0.49538477248171      0.68311891519745     -0.72617296602643
  C   -1.90345479514563      0.59759267843593     -0.65669892689353
  C   -2.60370235991209     -0.61952154908957     -0.83428817986542
  H   -2.48323473782055     -2.77356542656378     -1.23017045097816
  H   0.03852626731396      1.62079703878903     -0.58918117776346
  H   -2.47330081991540      1.50426633772995     -0.45881677825005
  N   3.26543321250067      1.81474452786413     -0.75041447228521
  N   4.28260846210733      1.40788666163003     -0.88796441487256
  C   -4.09175481530815     -0.67765967960330     -0.75558958560066
  O   -4.75324213238215     -1.68612937650007     -0.89239756379191
  O   -4.66490036980087      0.52875789437592     -0.49625435686468
  H   -5.62242354912248      0.37266269978385     -0.46248539262400
