15
Coordinates from ORCA-job 4-HOOC-C6H3-N2-B3LYPG-aug-cc-pVDZ-scan-d09-49-n400
  C   -1.41853237689413     -1.46833869962673     -1.05882687338589
  C   -0.01467794702444     -1.23897239056155     -1.10410501768200
  C   0.24680297668908      0.06034125932472     -0.88447090597569
  C   -0.54065139574206      1.18722696416093     -0.63121478926625
  C   -1.89877757823703      0.90186590761643     -0.59897320038387
  C   -2.33428411359454     -0.43145098960778     -0.81392469736099
  H   -1.82307281251471     -2.46985080204663     -1.21542889400833
  H   -0.14219435580243      2.18964391459715     -0.47395530056386
  H   -2.62182197048631      1.69124568883731     -0.41093458418046
  N   1.80857499462245      0.36489070753288     -0.92594421821654
  N   2.91348971966677      0.27330930935701     -1.01093296321743
  C   -3.79045986021540     -0.76842648450390     -0.78470362590461
  O   -4.25465332664238     -1.87485759670967     -0.95953170122246
  O   -4.58433400449729      0.31265315802233     -0.54259184529543
  H   -5.49780794932758     -0.01537994639253     -0.54766138333618
