15
Coordinates from ORCA-job 4-HOOC-C6H3-N2-B3LYPG-aug-cc-pVDZ-scan-d09-49-n400
  C   -2.16186503701773     -2.01208481166462     -1.11152680451124
  C   -0.78410388575684     -1.98929432730546     -1.19053199815160
  C   -0.02351423616642     -1.00217944434903     -1.05858958032074
  C   -0.39904877175435      0.31003090328136     -0.79956035571305
  C   -1.80374906988303      0.40970687933983     -0.69701396920022
  C   -2.66148252830652     -0.70616475291846     -0.84647523319640
  H   -2.83206658464530     -2.86052154034449     -1.22405700496504
  H   0.25339413213905      1.17288160976006     -0.68343001785496
  H   -2.24502157986574      1.38457936098874     -0.49493157177942
  N   3.37133087973208      2.38102121370228     -0.65496789176685
  N   4.46934120066115      2.29903400309403     -0.73794760093583
  C   -4.14203493589795     -0.56874735645466     -0.73301115038039
  O   -4.93257364948441     -1.48309594531929     -0.84395193737380
  O   -4.54620613937162      0.70399120312869     -0.47244817078972
  H   -5.51479979438234      0.67474300506099     -0.41475671306074
