15
Coordinates from ORCA-job 4-HOOC-C6H3-N2-B3LYPG-aug-cc-pVDZ-scan-d09-49-n400
  C   -2.05695834150634     -1.93877199667823     -1.10491482346489
  C   -0.68248501095230     -1.83020278679355     -1.16861343282991
  C   0.01317874734243     -0.79788472816047     -1.02459278671362
  C   -0.44558607320165      0.48717234502626     -0.76496108304897
  C   -1.85493384352860      0.49884085595863     -0.67757575585532
  C   -2.63976222983006     -0.66759968788664     -0.84060055159940
  H   -2.67183107053483     -2.82672519168467     -1.22792845893311
  H   0.15106524495672      1.38799108154600     -0.63856105442872
  H   -2.35833288895164      1.44342196516108     -0.47681616765959
  N   3.34885786491084      2.12793474759322     -0.70010977173436
  N   4.42043411870188      1.88473769661786     -0.80857432600583
  C   -4.12714973527504     -0.62310225887712     -0.74299396194828
  O   -4.85796337158155     -1.58429819117993     -0.86671851489091
  O   -4.61271985970246      0.62102398692231     -0.48325326039930
  H   -5.57821355084733      0.53136216243522     -0.43698605048778
