15
Coordinates from ORCA-job 4-HOOC-C6H3-N2-B3LYPG-aug-cc-pVDZ-scan-d09-49-n400
  C   -1.94273162766893     -1.85488543897152     -1.09625871170907
  C   -0.57633786942624     -1.66196613352626     -1.14571907258998
  C   0.04691890653224     -0.58626481792674     -0.98872055802394
  C   -0.49125005883222      0.66625844256032     -0.72770821358018
  C   -1.89956585866304      0.58854133399112     -0.65466544689871
  C   -2.60711578956150     -0.62450718076188     -0.83125619971527
  H   -2.49979110250336     -2.77878927834812     -1.22966562897824
  H   0.04828050876053      1.60079970922024     -0.59121721352603
  H   -2.46377866395028      1.49818220676689     -0.45428588987136
  N   3.27553907066210      1.84346016210574     -0.74851794518815
  N   4.29802256019672      1.44986872770100     -0.88533776199407
  C   -4.09520646590125     -0.67450435455702     -0.74782970362770
  O   -4.76336066218104     -1.67723912617538     -0.89404594744926
  O   -4.66162008583741      0.53711996611241     -0.49815002923882
  H   -5.62040286162625      0.38782578180916     -0.46982167760920
