15
Coordinates from ORCA-job 4-HOOC-C6H3-N2-B3LYPG-aug-cc-pVDZ-scan-d09-49-n400
  C   -2.12676066534423     -1.98811663150046     -1.10946745811477
  C   -0.74961625770198     -1.93567725357930     -1.18514145023665
  C   -0.01089770397451     -0.93272981565713     -1.04838575351236
  C   -0.41480045426748      0.37029550904367     -0.78636942731556
  C   -1.82160746704627      0.43950744890316     -0.68667704567061
  C   -2.65483793712428     -0.69408266373200     -0.84117655739888
  H   -2.77837187250694     -2.85039526162196     -1.22588727835220
  H   0.21865573687210      1.24659298198196     -0.66617430242678
  H   -2.28417957657482      1.40402050230014     -0.48250927209399
  N   3.36803111463143      2.29711652889754     -0.67142890849642
  N   4.45966462778705      2.16057946589023     -0.76583781307241
  C   -4.13818974987673     -0.58894472086565     -0.72980647466055
  O   -4.90929775949298     -1.51790390866397     -0.85521872537685
  O   -4.57092298635995      0.67622697312646     -0.47843813924715
  H   -5.53926904902036      0.62741084547729     -0.43068139402480
