15
Coordinates from ORCA-job 4-HOOC-C6H3-N2-B3LYPG-aug-cc-pVDZ-scan-d09-49-n400
  C   -1.85019401179848     -1.78532212647882     -1.09017258235080
  C   -0.49380098804724     -1.52895000878979     -1.12608393662353
  C   0.07645748978838     -0.42541437334355     -0.96121684086330
  C   -0.52158336010926      0.79988183426837     -0.70348727466076
  C   -1.92548141648150      0.65664472805410     -0.64424667479059
  C   -2.57386082380574     -0.58766659432532     -0.82999055952033
  H   -2.36230775576991     -2.73386404127026     -1.23066818479498
  H   -0.02679556795536      1.75778906267362     -0.56035305171811
  H   -2.53341868440304      1.53860188658304     -0.44803565385702
  N   3.16971544131788      1.60967013559583     -0.78186995973616
  N   4.14149688707858      1.10787849913818     -0.93318900122744
  C   -4.05879109468228     -0.70715905617328     -0.76197585035555
  O   -4.67732669016330     -1.74137628056848     -0.90721225245131
  O   -4.68296887908521      0.47420634738622     -0.50516557825174
  H   -5.63354054588346      0.27897998725009     -0.47953259879839
