15
Coordinates from ORCA-job 4-HOOC-C6H3-N2-B3LYPG-aug-cc-pVDZ-scan-d09-49-n400
  C   -1.99536761764325     -1.89389307023233     -1.10064069504349
  C   -0.62427865564959     -1.73991295919472     -1.15603670765022
  C   0.03026302922942     -0.68211107168193     -1.00488049218530
  C   -0.47133206820912      0.58607000669929     -0.74554838653464
  C   -1.88091705984214      0.54856742958918     -0.66679796829345
  C   -2.62344169493335     -0.64431109601596     -0.83718124379714
  H   -2.57895668053931     -2.80197162560593     -1.22921917149525
  H   0.09467955256069      1.50560585851012     -0.61395259049176
  H   -2.41824154752303      1.47450814496881     -0.46716086965076
  N   3.31804345696663      1.97801049546773     -0.72590215428180
  N   4.36401299418913      1.64599385997942     -0.84778291728667
  C   -4.11205230737237     -0.65154608838246     -0.74858051959752
  O   -4.80848690179831     -1.63696359916461     -0.87980790013316
  O   -4.64211428756674      0.57449573964779     -0.48962691685253
  H   -5.60421021186862      0.45135797541554     -0.45008146670631
