15
Coordinates from ORCA-job 4-HOOC-C6H3-N2-B3LYPG-aug-cc-pVDZ-scan-d09-49-n400
  C   -2.04816731336092     -1.93213134466989     -1.10417504650966
  C   -0.67421106698455     -1.81674070040520     -1.16757858356825
  C   0.01617875281991     -0.78090010124112     -1.02228372207603
  C   -0.44998357209909      0.50057816062487     -0.76146133974254
  C   -1.85923356003489      0.50616646411847     -0.67398146282226
  C   -2.63777459802463     -0.66427550975999     -0.83827039703759
  H   -2.65843611975611     -2.82312505110586     -1.22814241806751
  H   0.14390786814945      1.40316543690483     -0.63434640314656
  H   -2.36712769435408      1.44805789692884     -0.47214837558539
  N   3.34581697778483      2.10674443607982     -0.70481707629046
  N   4.41433939234089      1.85167559105654     -0.81608999610063
  C   -4.12532095023629     -0.62797248834801     -0.74037577739943
  O   -4.85129394078293     -1.59198214650877     -0.87052506208007
  O   -4.61791716893739      0.61438559786153     -0.48552742469874
  H   -5.58317700652414      0.52025375846392     -0.44347691487487
