15
Coordinates from ORCA-job 4-HOOC-C6H3-N2-B3LYPG-aug-cc-pVDZ-scan-d09-49-n400
  C   -1.93460844161075     -1.84831897859005     -1.09584172077210
  C   -0.56896669676678     -1.64974373992181     -1.14331147329969
  C   0.05026083730749     -0.57160823438873     -0.98587517030600
  C   -0.49482744484122      0.67795690124965     -0.72621901254584
  C   -1.90279227824891      0.59532953754875     -0.65513435252089
  C   -2.60482053012227     -0.62072671768850     -0.83252380002356
  H   -2.48747879711794     -2.77465231917802     -1.22988014472040
  H   0.04186594014510      1.61407020608568     -0.58947042097828
  H   -2.47080022541014      1.50285307118078     -0.45604367992680
  N   3.26837992031810      1.82234652650121     -0.75058268452652
  N   4.28717880065736      1.41960511997695     -0.88824126450018
  C   -4.09280510128229     -0.67717908085353     -0.75189583890506
  O   -4.75602660638412     -1.68379756200886     -0.89381305475157
  O   -4.66451024090579      0.53096186439276     -0.49752689473311
  H   -5.62244913573776      0.37680340569367     -0.46684048748999
