15
Coordinates from ORCA-job 4-HOOC-C6H3-N2-B3LYPG-aug-cc-pVDZ-scan-d09-49-n400
  C   -2.16473035638173     -2.01379669497341     -1.11171377332796
  C   -0.78705351099029     -1.99341492664351     -1.19232796464200
  C   -0.02452417340748     -1.00761865203476     -1.06042474617054
  C   -0.39829274704085      0.30409896096189     -0.79999668519363
  C   -1.80250273981988      0.40722347699905     -0.69541378410658
  C   -2.66205667771047     -0.70723529591500     -0.84465905938161
  H   -2.83644344282831     -2.86106340266038     -1.22406317161610
  H   0.25734954318238      1.16465671764630     -0.68425489062791
  H   -2.24152651743559      1.38276472243790     -0.49187826310948
  N   3.37180340813875      2.38806966828966     -0.65455921189461
  N   4.47023914914590      2.31191184737614     -0.73748738734029
  C   -4.14219400937020     -0.56782219604718     -0.72885156027228
  O   -4.93458769418147     -1.47987627561879     -0.84529509407523
  O   -4.54451981414851      0.70652037286541     -0.47339713226832
  H   -5.51336041715221      0.67948167731667     -0.41887727597345
