15
Coordinates from ORCA-job 4-HOOC-C6H3-N2-B3LYPG-aug-cc-pVDZ-scan-d09-49-n400
  C   -2.00741513917193     -1.90240024631757     -1.10128020096365
  C   -0.63583283972646     -1.75653427166175     -1.15904795959917
  C   0.02830062952339     -0.70432301403434     -1.00923629007377
  C   -0.46689421716069      0.56599838614611     -0.74870478957662
  C   -1.87634299266626      0.53897738860336     -0.66707280094399
  C   -2.62702979046424     -0.64885842836833     -0.83615488392950
  H   -2.59678784646011     -2.80685744158299     -1.22893186659966
  H   0.10602047103947      1.48145588426232     -0.61804914351638
  H   -2.40662804536613      1.46864056577900     -0.46610135290647
  N   3.32517483589804      2.00735935344074     -0.72200767909610
  N   4.37689299352980      1.69321145698590     -0.84180626359106
  C   -4.11541808147405     -0.64675220230578     -0.74436598138763
  O   -4.81861062267912     -1.62689447904797     -0.87898745916901
  O   -4.63740901525773      0.58359558146546     -0.48966980149571
  H   -5.60042033956392      0.46728146663579     -0.45178352715127
