15
Coordinates from ORCA-job 4-HOOC-C6H3-N2-B3LYPG-aug-cc-pVDZ-scan-d09-49-n400
  C   -2.08321392256393     -1.95732349474926     -1.10657920327126
  C   -0.70751330731541     -1.86964154956482     -1.17499735806017
  C   0.00468159473286     -0.84813978300964     -1.03358904116399
  C   -0.43470085211678      0.44292921502648     -0.77274093431914
  C   -1.84318378575031      0.47714313051342     -0.68025607034028
  C   -2.64597261687322     -0.67741975971052     -0.84024364652619
  H   -2.71184180797406     -2.83592301686506     -1.22722391883736
  H   0.17760297382245      1.33364702631983     -0.64887019435090
  H   -2.33112793322676      1.42940407111411     -0.47785368207731
  N   3.35799518669876      2.19166706961871     -0.68968480747773
  N   4.43855617389729      1.98950300902546     -0.79321302018347
  C   -4.13211282548533     -0.61074199225159     -0.73714314885083
  O   -4.87798202201849     -1.56002145425432     -0.86300808370638
  O   -4.59839270366689      0.64163978738676     -0.48184334450396
  H   -5.56519415216014      0.56717774140040     -0.43595354633102
