15
Coordinates from ORCA-job 4-HOOC-C6H3-N2-B3LYPG-aug-cc-pVDZ-scan-d09-49-n400
  C   -1.97601504942087     -1.87919611609288     -1.09897812470302
  C   -0.60656506530977     -1.71075379711799     -1.15236003773097
  C   0.03715260054747     -0.64643425417484     -0.99908367156829
  C   -0.47939618126165      0.61514065905523     -0.73897059436478
  C   -1.88849989866533      0.56370575836637     -0.66194740654331
  C   -2.61792032918208     -0.63679816261230     -0.83467374060057
  H   -2.54966850048148     -2.79333168119808     -1.22939116176361
  H   0.07811091054746      1.53957236619474     -0.60574414519279
  H   -2.43549997499616      1.48381912986505     -0.46181812743090
  N   3.30409307543409      1.92859976167849     -0.73461390937837
  N   4.34205830213978      1.57416414098095     -0.86163176640326
  C   -4.10643003361546     -0.66031886667755     -0.74779689747496
  O   -4.79226129311692     -1.65228208011400     -0.88537301993590
  O   -4.65029725287223      0.56049172298348     -0.49287304169555
  H   -5.61126130974677      0.42752141886330     -0.45794435521370
