15
Coordinates from ORCA-job 4-HOOC-C6H3-N2-B3LYPG-aug-cc-pVDZ-scan-d09-49-n400
  C   -2.12962877885238     -1.98980768482526     -1.10957492053379
  C   -0.75238525688248     -1.94008320749036     -1.18492829905635
  C   -0.01170508858833     -0.93830935377258     -1.04874707919494
  C   -0.41429656115866      0.36461643048496     -0.78797507453142
  C   -1.82078331720191      0.43782173818127     -0.68858404812388
  C   -2.65574559341612     -0.69451991825254     -0.84262332784388
  H   -2.78271912337402     -2.85101834649471     -1.22561571763005
  H   0.22277086826257      1.23848835338399     -0.66861835703644
  H   -2.28126784554538      1.40348482430486     -0.48538917344464
  N   3.36907402441587      2.30389173075554     -0.66959937886058
  N   4.46154654266510      2.17301608049960     -0.76232605029718
  C   -4.13894817997014     -0.58693175406131     -0.73224393830112
  O   -4.91123926287178     -1.51549465224724     -0.85319670195832
  O   -4.56940797666035      0.67825364625570     -0.47715502515344
  H   -5.53766445082196      0.63049211327806     -0.42662290803395
