15
Coordinates from ORCA-job 4-HOOC-C6H3-N2-B3LYPG-aug-cc-pVDZ-scan-d09-49-n400
  C   -2.03951042971122     -1.92611335561190     -1.10361281457860
  C   -0.66599850921709     -1.80395275468667     -1.16583916154663
  C   0.01882688885632     -0.76468866603770     -1.01957727690000
  C   -0.45306286836121      0.51477396534149     -0.75868139581353
  C   -1.86250109823579      0.51276847315415     -0.67246627583139
  C   -2.63540932100016     -0.66125557824527     -0.83774804854568
  H   -2.64533842199928     -2.82001815989708     -1.22838414454453
  H   0.13495519425830      1.42086303710887     -0.63057770653564
  H   -2.37533206721447      1.45204810687111     -0.47072133755374
  N   3.34125217684555      2.08585947378295     -0.70853883284235
  N   4.40631053961101      1.81750444168714     -0.82170244965001
  C   -4.12322255811595     -0.63195627772546     -0.74098691002203
  O   -4.84455353134963     -1.59927564624095     -0.87241848625324
  O   -4.62198301169136      0.60802361013461     -0.48645863521111
  H   -5.58683298267497      0.50931933036468     -0.44548652417152
