15
Coordinates from ORCA-job 4-HOOC-C6H3-N2-B3LYPG-aug-cc-pVDZ-scan-d09-49-n400
  C   -1.89347192304389     -1.81734337228412     -1.09278294457115
  C   -0.53217288941793     -1.58972632718164     -1.13466702327140
  C   0.06325160823851     -0.49884863826987     -0.97338993387708
  C   -0.50919777796401      0.73847688154351     -0.71426139406203
  C   -1.91536458126466      0.62586671054031     -0.64878266053033
  C   -2.59066095014820     -0.60461308325234     -0.83049198735038
  H   -2.42601629060361     -2.75502708330125     -1.23016436023559
  H   0.00734011082622      1.68534036063463     -0.57425625317551
  H   -2.50333362537424      1.52081580690847     -0.45072792801821
  N   3.22584199735569      1.71747504961860     -0.76637021750751
  N   4.22323515657289      1.26705839151351     -0.91269288659649
  C   -4.07741318045883     -0.69284782164770     -0.75572402984246
  O   -4.71848104483352     -1.71317628254426     -0.90148810271912
  O   -4.67570256156349      0.50250200411734     -0.50208150169635
  H   -5.63025404832086      0.32794740360476     -0.47531877654639
