15
Coordinates from ORCA-job 4-HOOC-C6H3-N2-B3LYPG-aug-cc-pVDZ-scan-d09-49-n400
  C   -1.81565417087139     -1.75903325957801     -1.08723875154458
  C   -0.46377622515835     -1.47986040161012     -1.11959061888512
  C   0.08931439969345     -0.36790791908692     -0.95197349696046
  C   -0.53143002052727      0.84598369866024     -0.69387707835629
  C   -1.93276689261122      0.68057334918103     -0.63785645667789
  C   -2.55986929711591     -0.57411950714188     -0.82679501316824
  H   -2.31149240645368     -2.71581490231102     -1.23025241923406
  H   -0.05174213873750      1.81119876572271     -0.54837668795963
  H   -2.55530576889725      1.55222535064975     -0.44167452693668
  N   3.12011219015056      1.52485228427322     -0.79561829362568
  N   4.06896573029094      0.98260678347018     -0.95272949454873
  C   -4.04268325443552     -0.71884762070894     -0.76206687995548
  O   -4.64367561829895     -1.76231860024539     -0.91454287817747
  O   -4.68748176338643      0.45245278217610     -0.51022945041858
  H   -5.63491476364142      0.24190919654900     -0.49037795355111
