15
Coordinates from ORCA-job 4-HOOC-C6H3-N2-B3LYPG-aug-cc-pVDZ-scan-d09-49-n400
  C   -1.86089506222829     -1.79287037106414     -1.09042389622342
  C   -0.50321989164133     -1.54346712042900     -1.12835393400818
  C   0.07355629525582     -0.44305182035019     -0.96422921614400
  C   -0.51927054876168      0.78455199558320     -0.70544723665074
  C   -1.92363819330327      0.64920484530344     -0.64396649148141
  C   -2.57837766918119     -0.59186330377804     -0.82880453276724
  H   -2.37787492236670     -2.73887650088375     -1.23022627103124
  H   -0.01825260590647      1.73931498323227     -0.56308893901107
  H   -2.52654460699808      1.53431412643842     -0.44661765379409
  N   3.18542570896084      1.63609834727279     -0.77904019352234
  N   4.16394042436116      1.14744696525786     -0.93000586807155
  C   -4.06370776292312     -0.70429272407855     -0.75822909367122
  O   -4.68775225101913     -1.73466464411184     -0.90717514550180
  O   -4.68205337235176      0.48102316270749     -0.50560447535915
  H   -5.63373554189672      0.29103205890001     -0.48198705276254
