Coordinates from ORCA-job 3-NO2-C6H3-N2-v2-B3LYPG-aug-cc-pVDZ-scan-d09-49-n400
 OpenBabel11091809153D

 14 13  0  0  0  0  0  0  0  0999 V2000
   -2.0001    0.2254   -1.0661 C   0  0  0  0  0  0  0  0  0  0  0  0
   -0.6872   -0.0424   -0.5973 C   0  0  0  0  0  0  0  0  0  0  0  0
   -0.3670    0.8761    0.3763 C   0  0  0  0  0  0  0  0  0  0  0  0
   -0.9853    1.8397    0.8870 C   0  0  0  0  0  0  0  0  0  0  0  0
   -2.2692    2.1256    0.4495 C   0  0  0  0  0  0  0  0  0  0  0  0
   -2.7755    1.2813   -0.5589 C   0  0  0  0  0  0  0  0  0  0  0  0
   -2.4150   -0.4142   -1.8468 H   0  0  0  0  0  0  0  0  0  0  0  0
    2.7058   -0.7805    0.5747 N   0  0  0  0  0  0  0  0  0  0  0  0
    3.5948   -0.6074    1.2061 N   0  0  0  0  0  0  0  0  0  0  0  0
   -3.7796    1.4621   -0.9384 H   0  0  0  0  0  0  0  0  0  0  0  0
   -3.0751    3.2366    0.9886 N   0  0  0  0  0  0  0  0  0  0  0  0
   -4.2018    3.3968    0.5223 O   0  0  0  0  0  0  0  0  0  0  0  0
   -2.5631    3.9261    1.8616 O   0  0  0  0  0  0  0  0  0  0  0  0
   -0.0767   -0.8555   -0.9808 H   0  0  0  0  0  0  0  0  0  0  0  0
  1  2  2  0  0  0  0
  1  6  1  0  0  0  0
  2  3  1  0  0  0  0
  3  4  2  0  0  0  0
  5  4  1  0  0  0  0
  5 11  1  0  0  0  0
  6  5  2  0  0  0  0
  7  1  1  0  0  0  0
  8  9  3  0  0  0  0
 10  6  1  0  0  0  0
 11 13  2  0  0  0  0
 12 11  2  0  0  0  0
 14  2  1  0  0  0  0
M  RAD  2   3   2   4   2
M  END
