Coordinates from ORCA-job 3-NO2-C6H3-N2-v2-B3LYPG-aug-cc-pVDZ-scan-d09-49-n400
 OpenBabel11091809153D

 14 13  0  0  0  0  0  0  0  0999 V2000
   -2.0286    0.1756   -1.1248 C   0  0  0  0  0  0  0  0  0  0  0  0
   -0.7126   -0.1657   -0.7182 C   0  0  0  0  0  0  0  0  0  0  0  0
   -0.3097    0.7103    0.2621 C   0  0  0  0  0  0  0  0  0  0  0  0
   -0.8517    1.6904    0.8274 C   0  0  0  0  0  0  0  0  0  0  0  0
   -2.1380    2.0439    0.4474 C   0  0  0  0  0  0  0  0  0  0  0  0
   -2.7290    1.2538   -0.5586 C   0  0  0  0  0  0  0  0  0  0  0  0
   -2.5061   -0.4226   -1.9025 H   0  0  0  0  0  0  0  0  0  0  0  0
    2.2855   -0.3639    0.7142 N   0  0  0  0  0  0  0  0  0  0  0  0
    3.1492   -0.1483    1.3673 N   0  0  0  0  0  0  0  0  0  0  0  0
   -3.7378    1.4928   -0.8901 H   0  0  0  0  0  0  0  0  0  0  0  0
   -2.8675    3.1782    1.0470 N   0  0  0  0  0  0  0  0  0  0  0  0
   -4.0044    3.4018    0.6339 O   0  0  0  0  0  0  0  0  0  0  0  0
   -2.2897    3.8187    1.9161 O   0  0  0  0  0  0  0  0  0  0  0  0
   -0.1544   -0.9953   -1.1435 H   0  0  0  0  0  0  0  0  0  0  0  0
  1  2  2  0  0  0  0
  1  6  1  0  0  0  0
  2  3  1  0  0  0  0
  3  4  2  0  0  0  0
  5  4  1  0  0  0  0
  5 11  1  0  0  0  0
  6  5  2  0  0  0  0
  7  1  1  0  0  0  0
  8  9  3  0  0  0  0
 10  6  1  0  0  0  0
 11 13  2  0  0  0  0
 12 11  2  0  0  0  0
 14  2  1  0  0  0  0
M  RAD  2   3   2   4   2
M  END
