Coordinates from ORCA-job 3-NO2-C6H3-N2-v2-B3LYPG-aug-cc-pVDZ-scan-d09-49-n400
 OpenBabel11091809153D

 14 14  0  0  0  0  0  0  0  0999 V2000
   -1.9737    0.1181   -1.1459 C   0  0  0  0  0  0  0  0  0  0  0  0
   -0.6704   -0.2497   -0.7698 C   0  0  0  0  0  0  0  0  0  0  0  0
   -0.1826    0.5809    0.2182 C   0  0  0  0  0  0  0  0  0  0  0  0
   -0.6500    1.6022    0.8615 C   0  0  0  0  0  0  0  0  0  0  0  0
   -1.9416    1.9365    0.4624 C   0  0  0  0  0  0  0  0  0  0  0  0
   -2.6128    1.2096   -0.5331 C   0  0  0  0  0  0  0  0  0  0  0  0
   -2.4898   -0.4502   -1.9195 H   0  0  0  0  0  0  0  0  0  0  0  0
    1.4880    0.0900    0.6833 N   0  0  0  0  0  0  0  0  0  0  0  0
    2.3830    0.2638    1.3159 N   0  0  0  0  0  0  0  0  0  0  0  0
   -3.6216    1.4951   -0.8234 H   0  0  0  0  0  0  0  0  0  0  0  0
   -2.6496    3.0919    1.0947 N   0  0  0  0  0  0  0  0  0  0  0  0
   -3.7867    3.3441    0.6933 O   0  0  0  0  0  0  0  0  0  0  0  0
   -2.0540    3.7236    1.9544 O   0  0  0  0  0  0  0  0  0  0  0  0
   -0.1330   -1.0864   -1.2142 H   0  0  0  0  0  0  0  0  0  0  0  0
  1  2  2  0  0  0  0
  1  6  1  0  0  0  0
  2  3  1  0  0  0  0
  3  8  1  0  0  0  0
  3  4  2  0  0  0  0
  5  4  1  0  0  0  0
  5 11  1  0  0  0  0
  6  5  2  0  0  0  0
  7  1  1  0  0  0  0
  8  9  2  0  0  0  0
 10  6  1  0  0  0  0
 11 13  2  0  0  0  0
 12 11  2  0  0  0  0
 14  2  1  0  0  0  0
M  RAD  2   4   2   9   2
M  END
