Coordinates from ORCA-job 3-NO2-C6H3-N2-v2-B3LYPG-aug-cc-pVDZ-scan-d09-49-n400
 OpenBabel11091809153D

 14 13  0  0  0  0  0  0  0  0999 V2000
   -1.9465    0.2682   -0.9999 C   0  0  0  0  0  0  0  0  0  0  0  0
   -0.6437    0.0755   -0.4709 C   0  0  0  0  0  0  0  0  0  0  0  0
   -0.4054    1.0314    0.4908 C   0  0  0  0  0  0  0  0  0  0  0  0
   -1.0911    1.9761    0.9482 C   0  0  0  0  0  0  0  0  0  0  0  0
   -2.3674    2.1903    0.4522 C   0  0  0  0  0  0  0  0  0  0  0  0
   -2.7909    1.2980   -0.5531 C   0  0  0  0  0  0  0  0  0  0  0  0
   -2.2979   -0.4097   -1.7794 H   0  0  0  0  0  0  0  0  0  0  0  0
    2.9322   -1.0761    0.4392 N   0  0  0  0  0  0  0  0  0  0  0  0
    3.8898   -1.0385    0.9875 N   0  0  0  0  0  0  0  0  0  0  0  0
   -3.7856    1.4211   -0.9779 H   0  0  0  0  0  0  0  0  0  0  0  0
   -3.2459    3.2744    0.9282 N   0  0  0  0  0  0  0  0  0  0  0  0
   -4.3594    3.3676    0.4144 O   0  0  0  0  0  0  0  0  0  0  0  0
   -2.8044    4.0074    1.8044 O   0  0  0  0  0  0  0  0  0  0  0  0
    0.0213   -0.7162   -0.8059 H   0  0  0  0  0  0  0  0  0  0  0  0
  1  6  2  0  0  0  0
  1  2  1  0  0  0  0
  2  3  2  0  0  0  0
  3  4  1  0  0  0  0
  5 11  1  0  0  0  0
  5  4  2  0  0  0  0
  6  5  1  0  0  0  0
  7  1  1  0  0  0  0
  8  9  3  0  0  0  0
 10  6  1  0  0  0  0
 11 13  2  0  0  0  0
 12 11  2  0  0  0  0
 14  2  1  0  0  0  0
M  RAD  2   3   2   4   2
M  END
