Coordinates from ORCA-job 3-NO2-C6H3-N2-v2-B3LYPG-aug-cc-pVDZ-scan-d09-49-n400
 OpenBabel11091809153D

 14 13  0  0  0  0  0  0  0  0999 V2000
   -2.0276    0.1809   -1.1197 C   0  0  0  0  0  0  0  0  0  0  0  0
   -0.7116   -0.1539   -0.7074 C   0  0  0  0  0  0  0  0  0  0  0  0
   -0.3166    0.7263    0.2723 C   0  0  0  0  0  0  0  0  0  0  0  0
   -0.8670    1.7048    0.8316 C   0  0  0  0  0  0  0  0  0  0  0  0
   -2.1530    2.0530    0.4472 C   0  0  0  0  0  0  0  0  0  0  0  0
   -2.7356    1.2572   -0.5593 C   0  0  0  0  0  0  0  0  0  0  0  0
   -2.4994   -0.4214   -1.8978 H   0  0  0  0  0  0  0  0  0  0  0  0
    2.3353   -0.4035    0.7062 N   0  0  0  0  0  0  0  0  0  0  0  0
    3.2064   -0.1998    1.3533 N   0  0  0  0  0  0  0  0  0  0  0  0
   -3.7442    1.4905   -0.8955 H   0  0  0  0  0  0  0  0  0  0  0  0
   -2.8895    3.1853    1.0411 N   0  0  0  0  0  0  0  0  0  0  0  0
   -4.0258    3.4028    0.6236 O   0  0  0  0  0  0  0  0  0  0  0  0
   -2.3176    3.8299    1.9112 O   0  0  0  0  0  0  0  0  0  0  0  0
   -0.1486   -0.9823   -1.1291 H   0  0  0  0  0  0  0  0  0  0  0  0
  1  2  2  0  0  0  0
  1  6  1  0  0  0  0
  2  3  1  0  0  0  0
  3  4  2  0  0  0  0
  5  4  1  0  0  0  0
  5 11  1  0  0  0  0
  6  5  2  0  0  0  0
  7  1  1  0  0  0  0
  8  9  3  0  0  0  0
 10  6  1  0  0  0  0
 11 13  2  0  0  0  0
 12 11  2  0  0  0  0
 14  2  1  0  0  0  0
M  RAD  2   3   2   4   2
M  END
