Coordinates from ORCA-job 3-NO2-C6H3-N2-v2-B3LYPG-aug-cc-pVDZ-scan-d09-49-n400
 OpenBabel11091809153D

 14 13  0  0  0  0  0  0  0  0999 V2000
   -1.9341    0.2755   -0.9869 C   0  0  0  0  0  0  0  0  0  0  0  0
   -0.6335    0.0955   -0.4479 C   0  0  0  0  0  0  0  0  0  0  0  0
   -0.4117    1.0583    0.5116 C   0  0  0  0  0  0  0  0  0  0  0  0
   -1.1086    1.9990    0.9600 C   0  0  0  0  0  0  0  0  0  0  0  0
   -2.3829    2.2002    0.4536 C   0  0  0  0  0  0  0  0  0  0  0  0
   -2.7909    1.3000   -0.5509 C   0  0  0  0  0  0  0  0  0  0  0  0
   -2.2742   -0.4084   -1.7662 H   0  0  0  0  0  0  0  0  0  0  0  0
    2.9604   -1.1238    0.4126 N   0  0  0  0  0  0  0  0  0  0  0  0
    3.9270   -1.1080    0.9460 N   0  0  0  0  0  0  0  0  0  0  0  0
   -3.7833    1.4125   -0.9838 H   0  0  0  0  0  0  0  0  0  0  0  0
   -3.2744    3.2786    0.9184 N   0  0  0  0  0  0  0  0  0  0  0  0
   -4.3837    3.3617    0.3938 O   0  0  0  0  0  0  0  0  0  0  0  0
   -2.8449    4.0208    1.7928 O   0  0  0  0  0  0  0  0  0  0  0  0
    0.0399   -0.6922   -0.7753 H   0  0  0  0  0  0  0  0  0  0  0  0
  1  6  2  0  0  0  0
  1  2  1  0  0  0  0
  2  3  2  0  0  0  0
  3  4  1  0  0  0  0
  5 11  1  0  0  0  0
  5  4  2  0  0  0  0
  6  5  1  0  0  0  0
  7  1  1  0  0  0  0
  8  9  3  0  0  0  0
 10  6  1  0  0  0  0
 11 13  2  0  0  0  0
 12 11  2  0  0  0  0
 14  2  1  0  0  0  0
M  RAD  2   3   2   4   2
M  END
