Coordinates from ORCA-job 3-NO2-C6H3-N2-v2-B3LYPG-aug-cc-pVDZ-scan-d09-49-n400
 OpenBabel11091809153D

 14 14  0  0  0  0  0  0  0  0999 V2000
   -1.9797    0.1213   -1.1461 C   0  0  0  0  0  0  0  0  0  0  0  0
   -0.6739   -0.2501   -0.7711 C   0  0  0  0  0  0  0  0  0  0  0  0
   -0.1951    0.5847    0.2140 C   0  0  0  0  0  0  0  0  0  0  0  0
   -0.6647    1.5978    0.8471 C   0  0  0  0  0  0  0  0  0  0  0  0
   -1.9551    1.9450    0.4593 C   0  0  0  0  0  0  0  0  0  0  0  0
   -2.6215    1.2127   -0.5369 C   0  0  0  0  0  0  0  0  0  0  0  0
   -2.4951   -0.4485   -1.9194 H   0  0  0  0  0  0  0  0  0  0  0  0
    1.5487    0.0558    0.6863 N   0  0  0  0  0  0  0  0  0  0  0  0
    2.4188    0.2687    1.3397 N   0  0  0  0  0  0  0  0  0  0  0  0
   -3.6304    1.4961   -0.8296 H   0  0  0  0  0  0  0  0  0  0  0  0
   -2.6558    3.0997    1.0922 N   0  0  0  0  0  0  0  0  0  0  0  0
   -3.7961    3.3510    0.7006 O   0  0  0  0  0  0  0  0  0  0  0  0
   -2.0571    3.7227    1.9568 O   0  0  0  0  0  0  0  0  0  0  0  0
   -0.1379   -1.0874   -1.2152 H   0  0  0  0  0  0  0  0  0  0  0  0
  1  2  2  0  0  0  0
  1  6  1  0  0  0  0
  2  3  1  0  0  0  0
  3  8  1  0  0  0  0
  3  4  2  0  0  0  0
  5  4  1  0  0  0  0
  5 11  1  0  0  0  0
  6  5  2  0  0  0  0
  7  1  1  0  0  0  0
  8  9  2  0  0  0  0
 10  6  1  0  0  0  0
 11 13  2  0  0  0  0
 12 11  2  0  0  0  0
 14  2  1  0  0  0  0
M  RAD  2   4   2   9   2
M  END
