Coordinates from ORCA-job 3-NO2-C6H3-N2-v2-B3LYPG-aug-cc-pVDZ-scan-d09-49-n400
 OpenBabel11091809153D

 14 13  0  0  0  0  0  0  0  0999 V2000
   -1.9495    0.2662   -1.0033 C   0  0  0  0  0  0  0  0  0  0  0  0
   -0.6457    0.0684   -0.4782 C   0  0  0  0  0  0  0  0  0  0  0  0
   -0.4046    1.0234    0.4843 C   0  0  0  0  0  0  0  0  0  0  0  0
   -1.0861    1.9693    0.9452 C   0  0  0  0  0  0  0  0  0  0  0  0
   -2.3629    2.1874    0.4523 C   0  0  0  0  0  0  0  0  0  0  0  0
   -2.7905    1.2975   -0.5532 C   0  0  0  0  0  0  0  0  0  0  0  0
   -2.3048   -0.4094   -1.7831 H   0  0  0  0  0  0  0  0  0  0  0  0
    2.9236   -1.0617    0.4469 N   0  0  0  0  0  0  0  0  0  0  0  0
    3.8781   -1.0170    1.0001 N   0  0  0  0  0  0  0  0  0  0  0  0
   -3.7858    1.4235   -0.9758 H   0  0  0  0  0  0  0  0  0  0  0  0
   -3.2378    3.2730    0.9317 N   0  0  0  0  0  0  0  0  0  0  0  0
   -4.3519    3.3699    0.4199 O   0  0  0  0  0  0  0  0  0  0  0  0
   -2.7925    4.0041    1.8075 O   0  0  0  0  0  0  0  0  0  0  0  0
    0.0154   -0.7249   -0.8168 H   0  0  0  0  0  0  0  0  0  0  0  0
  1  6  2  0  0  0  0
  1  2  1  0  0  0  0
  2  3  2  0  0  0  0
  3  4  1  0  0  0  0
  5 11  1  0  0  0  0
  5  4  2  0  0  0  0
  6  5  1  0  0  0  0
  7  1  1  0  0  0  0
  8  9  3  0  0  0  0
 10  6  1  0  0  0  0
 11 13  2  0  0  0  0
 12 11  2  0  0  0  0
 14  2  1  0  0  0  0
M  RAD  2   3   2   4   2
M  END
