Coordinates from ORCA-job 3-NO2-C6H3-N2-v2-B3LYPG-aug-cc-pVDZ-scan-d09-49-n400
 OpenBabel11091809153D

 14 13  0  0  0  0  0  0  0  0999 V2000
   -1.8462    0.3204   -0.9005 C   0  0  0  0  0  0  0  0  0  0  0  0
   -0.5652    0.2261   -0.2968 C   0  0  0  0  0  0  0  0  0  0  0  0
   -0.4403    1.2260    0.6433 C   0  0  0  0  0  0  0  0  0  0  0  0
   -1.2096    2.1380    1.0277 C   0  0  0  0  0  0  0  0  0  0  0  0
   -2.4670    2.2567    0.4579 C   0  0  0  0  0  0  0  0  0  0  0  0
   -2.7769    1.3079   -0.5367 C   0  0  0  0  0  0  0  0  0  0  0  0
   -2.1114   -0.4024   -1.6738 H   0  0  0  0  0  0  0  0  0  0  0  0
    3.0735   -1.3895    0.2420 N   0  0  0  0  0  0  0  0  0  0  0  0
    4.0836   -1.5204    0.6681 N   0  0  0  0  0  0  0  0  0  0  0  0
   -3.7517    1.3536   -1.0189 H   0  0  0  0  0  0  0  0  0  0  0  0
   -3.4355    3.2972    0.8479 N   0  0  0  0  0  0  0  0  0  0  0  0
   -4.5212    3.3052    0.2701 O   0  0  0  0  0  0  0  0  0  0  0  0
   -3.0886    4.0852    1.7189 O   0  0  0  0  0  0  0  0  0  0  0  0
    0.1618   -0.5341   -0.5713 H   0  0  0  0  0  0  0  0  0  0  0  0
  1  6  2  0  0  0  0
  1  2  1  0  0  0  0
  2  3  2  0  0  0  0
  3  4  1  0  0  0  0
  5 11  1  0  0  0  0
  5  4  2  0  0  0  0
  6  5  1  0  0  0  0
  7  1  1  0  0  0  0
  8  9  3  0  0  0  0
 10  6  1  0  0  0  0
 11 13  2  0  0  0  0
 12 11  2  0  0  0  0
 14  2  1  0  0  0  0
M  RAD  2   3   2   4   2
M  END
