Coordinates from ORCA-job 3-NO2-C6H3-N2-v2-B3LYPG-aug-cc-pVDZ-scan-d09-49-n400
 OpenBabel11091809153D

 14 13  0  0  0  0  0  0  0  0999 V2000
   -1.9920    0.2332   -1.0543 C   0  0  0  0  0  0  0  0  0  0  0  0
   -0.6805   -0.0213   -0.5742 C   0  0  0  0  0  0  0  0  0  0  0  0
   -0.3743    0.9066    0.3950 C   0  0  0  0  0  0  0  0  0  0  0  0
   -1.0036    1.8691    0.8943 C   0  0  0  0  0  0  0  0  0  0  0  0
   -2.2864    2.1422    0.4456 C   0  0  0  0  0  0  0  0  0  0  0  0
   -2.7791    1.2868   -0.5601 C   0  0  0  0  0  0  0  0  0  0  0  0
   -2.3965   -0.4151   -1.8333 H   0  0  0  0  0  0  0  0  0  0  0  0
    2.7551   -0.8389    0.5530 N   0  0  0  0  0  0  0  0  0  0  0  0
    3.6594   -0.6914    1.1690 N   0  0  0  0  0  0  0  0  0  0  0  0
   -3.7817    1.4572   -0.9482 H   0  0  0  0  0  0  0  0  0  0  0  0
   -3.1044    3.2512    0.9704 N   0  0  0  0  0  0  0  0  0  0  0  0
   -4.2372    3.3855    0.5108 O   0  0  0  0  0  0  0  0  0  0  0  0
   -2.6122    3.9371    1.8576 O   0  0  0  0  0  0  0  0  0  0  0  0
   -0.0615   -0.8327   -0.9477 H   0  0  0  0  0  0  0  0  0  0  0  0
  1  2  2  0  0  0  0
  1  6  1  0  0  0  0
  2  3  1  0  0  0  0
  3  4  2  0  0  0  0
  5  4  1  0  0  0  0
  5 11  1  0  0  0  0
  6  5  2  0  0  0  0
  7  1  1  0  0  0  0
  8  9  3  0  0  0  0
 10  6  1  0  0  0  0
 11 13  2  0  0  0  0
 12 11  2  0  0  0  0
 14  2  1  0  0  0  0
M  RAD  2   3   2   4   2
M  END
