Coordinates from ORCA-job 3-NO2-C6H3-N2-v2-B3LYPG-aug-cc-pVDZ-scan-d09-49-n400
 OpenBabel11091809153D

 14 13  0  0  0  0  0  0  0  0999 V2000
   -2.0271    0.1878   -1.1133 C   0  0  0  0  0  0  0  0  0  0  0  0
   -0.7115   -0.1374   -0.6930 C   0  0  0  0  0  0  0  0  0  0  0  0
   -0.3247    0.7477    0.2867 C   0  0  0  0  0  0  0  0  0  0  0  0
   -0.8870    1.7238    0.8378 C   0  0  0  0  0  0  0  0  0  0  0  0
   -2.1728    2.0645    0.4469 C   0  0  0  0  0  0  0  0  0  0  0  0
   -2.7446    1.2616   -0.5601 C   0  0  0  0  0  0  0  0  0  0  0  0
   -2.4910   -0.4198   -1.8920 H   0  0  0  0  0  0  0  0  0  0  0  0
    2.4063   -0.4651    0.6903 N   0  0  0  0  0  0  0  0  0  0  0  0
    3.2768   -0.2607    1.3380 N   0  0  0  0  0  0  0  0  0  0  0  0
   -3.7529    1.4878   -0.9023 H   0  0  0  0  0  0  0  0  0  0  0  0
   -2.9185    3.1939    1.0336 N   0  0  0  0  0  0  0  0  0  0  0  0
   -4.0537    3.4042    0.6094 O   0  0  0  0  0  0  0  0  0  0  0  0
   -2.3542    3.8448    1.9041 O   0  0  0  0  0  0  0  0  0  0  0  0
   -0.1401   -0.9633   -1.1082 H   0  0  0  0  0  0  0  0  0  0  0  0
  1  2  2  0  0  0  0
  1  6  1  0  0  0  0
  2  3  1  0  0  0  0
  3  4  2  0  0  0  0
  5  4  1  0  0  0  0
  5 11  1  0  0  0  0
  6  5  2  0  0  0  0
  7  1  1  0  0  0  0
  8  9  3  0  0  0  0
 10  6  1  0  0  0  0
 11 13  2  0  0  0  0
 12 11  2  0  0  0  0
 14  2  1  0  0  0  0
M  RAD  2   3   2   4   2
M  END
