Coordinates from ORCA-job 3-NO2-C6H3-N2-v2-B3LYPG-aug-cc-pVDZ-scan-d09-49-n400
 OpenBabel11091809153D

 14 13  0  0  0  0  0  0  0  0999 V2000
   -1.8224    0.3309   -0.8786 C   0  0  0  0  0  0  0  0  0  0  0  0
   -0.5476    0.2583   -0.2592 C   0  0  0  0  0  0  0  0  0  0  0  0
   -0.4463    1.2662    0.6751 C   0  0  0  0  0  0  0  0  0  0  0  0
   -1.2323    2.1705    1.0437 C   0  0  0  0  0  0  0  0  0  0  0  0
   -2.4844    2.2683    0.4587 C   0  0  0  0  0  0  0  0  0  0  0  0
   -2.7701    1.3084   -0.5326 C   0  0  0  0  0  0  0  0  0  0  0  0
   -2.0688   -0.4010   -1.6496 H   0  0  0  0  0  0  0  0  0  0  0  0
    3.0865   -1.4456    0.1999 N   0  0  0  0  0  0  0  0  0  0  0  0
    4.1029   -1.6145    0.5966 N   0  0  0  0  0  0  0  0  0  0  0  0
   -3.7399    1.3379   -1.0262 H   0  0  0  0  0  0  0  0  0  0  0  0
   -3.4711    3.2986    0.8299 N   0  0  0  0  0  0  0  0  0  0  0  0
   -4.5501    3.2878    0.2398 O   0  0  0  0  0  0  0  0  0  0  0  0
   -3.1449    4.0972    1.6993 O   0  0  0  0  0  0  0  0  0  0  0  0
    0.1935   -0.4935   -0.5188 H   0  0  0  0  0  0  0  0  0  0  0  0
  1  6  2  0  0  0  0
  1  2  1  0  0  0  0
  2  3  2  0  0  0  0
  3  4  1  0  0  0  0
  5 11  1  0  0  0  0
  5  4  2  0  0  0  0
  6  5  1  0  0  0  0
  7  1  1  0  0  0  0
  8  9  3  0  0  0  0
 10  6  1  0  0  0  0
 11 13  2  0  0  0  0
 12 11  2  0  0  0  0
 14  2  1  0  0  0  0
M  RAD  2   3   2   4   2
M  END
