Coordinates from ORCA-job 3-NO2-C6H3-N2-v2-B3LYPG-aug-cc-pVDZ-scan-d09-49-n400
 OpenBabel11091809153D

 14 14  0  0  0  0  0  0  0  0999 V2000
   -1.9255    0.0967   -1.1098 C   0  0  0  0  0  0  0  0  0  0  0  0
   -0.6410   -0.2412   -0.7295 C   0  0  0  0  0  0  0  0  0  0  0  0
   -0.0618    0.5845    0.2725 C   0  0  0  0  0  0  0  0  0  0  0  0
   -0.5929    1.6955    0.9524 C   0  0  0  0  0  0  0  0  0  0  0  0
   -1.8917    1.9332    0.4796 C   0  0  0  0  0  0  0  0  0  0  0  0
   -2.5594    1.2044   -0.5025 C   0  0  0  0  0  0  0  0  0  0  0  0
   -2.4468   -0.4811   -1.8712 H   0  0  0  0  0  0  0  0  0  0  0  0
    1.2256    0.2776    0.6677 N   0  0  0  0  0  0  0  0  0  0  0  0
    2.2638    0.0732    1.0245 N   0  0  0  0  0  0  0  0  0  0  0  0
   -3.5677    1.4884   -0.8001 H   0  0  0  0  0  0  0  0  0  0  0  0
   -2.6621    3.0876    1.0761 N   0  0  0  0  0  0  0  0  0  0  0  0
   -3.7291    3.3885    0.5345 O   0  0  0  0  0  0  0  0  0  0  0  0
   -2.1970    3.6482    2.0531 O   0  0  0  0  0  0  0  0  0  0  0  0
   -0.1093   -1.0858   -1.1694 H   0  0  0  0  0  0  0  0  0  0  0  0
  1  2  2  0  0  0  0
  1  6  1  0  0  0  0
  2  3  1  0  0  0  0
  3  8  1  0  0  0  0
  3  4  2  0  0  0  0
  5  4  1  0  0  0  0
  5 11  1  0  0  0  0
  6  5  2  0  0  0  0
  7  1  1  0  0  0  0
  8  9  1  0  0  0  0
 10  6  1  0  0  0  0
 11 13  2  0  0  0  0
 12 11  2  0  0  0  0
 14  2  1  0  0  0  0
M  RAD  3   4   2   8   2   9   3
M  END
