Coordinates from ORCA-job 3-NO2-C6H3-N2-v2-B3LYPG-aug-cc-pVDZ-scan-d09-49-n400
 OpenBabel11091809153D

 14 14  0  0  0  0  0  0  0  0999 V2000
   -1.9726    0.1172   -1.1458 C   0  0  0  0  0  0  0  0  0  0  0  0
   -0.6705   -0.2496   -0.7686 C   0  0  0  0  0  0  0  0  0  0  0  0
   -0.1791    0.5806    0.2191 C   0  0  0  0  0  0  0  0  0  0  0  0
   -0.6451    1.6061    0.8645 C   0  0  0  0  0  0  0  0  0  0  0  0
   -1.9368    1.9361    0.4607 C   0  0  0  0  0  0  0  0  0  0  0  0
   -2.6100    1.2100   -0.5334 C   0  0  0  0  0  0  0  0  0  0  0  0
   -2.4892   -0.4515   -1.9187 H   0  0  0  0  0  0  0  0  0  0  0  0
    1.4728    0.1002    0.6847 N   0  0  0  0  0  0  0  0  0  0  0  0
    2.3775    0.2582    1.3079 N   0  0  0  0  0  0  0  0  0  0  0  0
   -3.6186    1.4966   -0.8234 H   0  0  0  0  0  0  0  0  0  0  0  0
   -2.6465    3.0935    1.0908 N   0  0  0  0  0  0  0  0  0  0  0  0
   -3.7873    3.3381    0.6949 O   0  0  0  0  0  0  0  0  0  0  0  0
   -2.0565    3.7213    1.9569 O   0  0  0  0  0  0  0  0  0  0  0  0
   -0.1330   -1.0871   -1.2117 H   0  0  0  0  0  0  0  0  0  0  0  0
  1  2  2  0  0  0  0
  1  6  1  0  0  0  0
  2  3  1  0  0  0  0
  3  8  1  0  0  0  0
  3  4  2  0  0  0  0
  5  4  1  0  0  0  0
  5 11  1  0  0  0  0
  6  5  2  0  0  0  0
  7  1  1  0  0  0  0
  8  9  2  0  0  0  0
 10  6  1  0  0  0  0
 11 13  2  0  0  0  0
 12 11  2  0  0  0  0
 14  2  1  0  0  0  0
M  RAD  2   4   2   9   2
M  END
