Coordinates from ORCA-job 3-NO2-C6H3-N2-v2-B3LYPG-aug-cc-pVDZ-scan-d09-49-n400
 OpenBabel11091809153D

 14 13  0  0  0  0  0  0  0  0999 V2000
   -1.9941    0.1294   -1.1466 C   0  0  0  0  0  0  0  0  0  0  0  0
   -0.6842   -0.2465   -0.7728 C   0  0  0  0  0  0  0  0  0  0  0  0
   -0.2226    0.5964    0.2092 C   0  0  0  0  0  0  0  0  0  0  0  0
   -0.6997    1.5972    0.8260 C   0  0  0  0  0  0  0  0  0  0  0  0
   -1.9881    1.9632    0.4551 C   0  0  0  0  0  0  0  0  0  0  0  0
   -2.6429    1.2200   -0.5433 C   0  0  0  0  0  0  0  0  0  0  0  0
   -2.5072   -0.4430   -1.9202 H   0  0  0  0  0  0  0  0  0  0  0  0
    1.6954   -0.0158    0.7028 N   0  0  0  0  0  0  0  0  0  0  0  0
    2.5324    0.2438    1.3786 N   0  0  0  0  0  0  0  0  0  0  0  0
   -3.6517    1.4980   -0.8413 H   0  0  0  0  0  0  0  0  0  0  0  0
   -2.6811    3.1148    1.0875 N   0  0  0  0  0  0  0  0  0  0  0  0
   -3.8234    3.3665    0.7040 O   0  0  0  0  0  0  0  0  0  0  0  0
   -2.0774    3.7297    1.9557 O   0  0  0  0  0  0  0  0  0  0  0  0
   -0.1501   -1.0840   -1.2168 H   0  0  0  0  0  0  0  0  0  0  0  0
  1  2  2  0  0  0  0
  1  6  1  0  0  0  0
  2  3  1  0  0  0  0
  3  4  2  0  0  0  0
  5  4  1  0  0  0  0
  5 11  1  0  0  0  0
  6  5  2  0  0  0  0
  7  1  1  0  0  0  0
  8  9  3  0  0  0  0
 10  6  1  0  0  0  0
 11 13  2  0  0  0  0
 12 11  2  0  0  0  0
 14  2  1  0  0  0  0
M  RAD  2   3   2   4   2
M  END
