Coordinates from ORCA-job 3-NO2-C6H3-N2-v2-B3LYPG-aug-cc-pVDZ-scan-d09-49-n400
 OpenBabel11091809153D

 14 13  0  0  0  0  0  0  0  0999 V2000
   -2.0274    0.1658   -1.1328 C   0  0  0  0  0  0  0  0  0  0  0  0
   -0.7118   -0.1870   -0.7364 C   0  0  0  0  0  0  0  0  0  0  0  0
   -0.2955    0.6813    0.2446 C   0  0  0  0  0  0  0  0  0  0  0  0
   -0.8231    1.6640    0.8201 C   0  0  0  0  0  0  0  0  0  0  0  0
   -2.1095    2.0272    0.4485 C   0  0  0  0  0  0  0  0  0  0  0  0
   -2.7149    1.2472   -0.5567 C   0  0  0  0  0  0  0  0  0  0  0  0
   -2.5149   -0.4252   -1.9098 H   0  0  0  0  0  0  0  0  0  0  0  0
    2.1829   -0.2890    0.7249 N   0  0  0  0  0  0  0  0  0  0  0  0
    3.0342   -0.0540    1.3877 N   0  0  0  0  0  0  0  0  0  0  0  0
   -3.7240    1.4959   -0.8799 H   0  0  0  0  0  0  0  0  0  0  0  0
   -2.8267    3.1650    1.0578 N   0  0  0  0  0  0  0  0  0  0  0  0
   -3.9643    3.3993    0.6526 O   0  0  0  0  0  0  0  0  0  0  0  0
   -2.2385    3.7980    1.9252 O   0  0  0  0  0  0  0  0  0  0  0  0
   -0.1615   -1.0189   -1.1681 H   0  0  0  0  0  0  0  0  0  0  0  0
  1  2  2  0  0  0  0
  1  6  1  0  0  0  0
  2  3  1  0  0  0  0
  3  4  2  0  0  0  0
  5  4  1  0  0  0  0
  5 11  1  0  0  0  0
  6  5  2  0  0  0  0
  7  1  1  0  0  0  0
  8  9  3  0  0  0  0
 10  6  1  0  0  0  0
 11 13  2  0  0  0  0
 12 11  2  0  0  0  0
 14  2  1  0  0  0  0
M  RAD  2   3   2   4   2
M  END
