Coordinates from ORCA-job 3-NO2-C6H3-N2-v2-B3LYPG-aug-cc-pVDZ-scan-d09-49-n400
 OpenBabel11091809153D

 14 13  0  0  0  0  0  0  0  0999 V2000
   -2.0048    0.2208   -1.0725 C   0  0  0  0  0  0  0  0  0  0  0  0
   -0.6914   -0.0544   -0.6099 C   0  0  0  0  0  0  0  0  0  0  0  0
   -0.3621    0.8600    0.3646 C   0  0  0  0  0  0  0  0  0  0  0  0
   -0.9736    1.8254    0.8801 C   0  0  0  0  0  0  0  0  0  0  0  0
   -2.2579    2.1187    0.4488 C   0  0  0  0  0  0  0  0  0  0  0  0
   -2.7728    1.2794   -0.5594 C   0  0  0  0  0  0  0  0  0  0  0  0
   -2.4262   -0.4149   -1.8530 H   0  0  0  0  0  0  0  0  0  0  0  0
    2.6776   -0.7486    0.5878 N   0  0  0  0  0  0  0  0  0  0  0  0
    3.5576   -0.5603    1.2274 N   0  0  0  0  0  0  0  0  0  0  0  0
   -3.7776    1.4661   -0.9342 H   0  0  0  0  0  0  0  0  0  0  0  0
   -3.0559    3.2324    0.9939 N   0  0  0  0  0  0  0  0  0  0  0  0
   -4.1845    3.3983    0.5342 O   0  0  0  0  0  0  0  0  0  0  0  0
   -2.5375    3.9161    1.8677 O   0  0  0  0  0  0  0  0  0  0  0  0
   -0.0861   -0.8695   -0.9975 H   0  0  0  0  0  0  0  0  0  0  0  0
  1  2  2  0  0  0  0
  1  6  1  0  0  0  0
  2  3  1  0  0  0  0
  3  4  2  0  0  0  0
  5  4  1  0  0  0  0
  5 11  1  0  0  0  0
  6  5  2  0  0  0  0
  7  1  1  0  0  0  0
  8  9  3  0  0  0  0
 10  6  1  0  0  0  0
 11 13  2  0  0  0  0
 12 11  2  0  0  0  0
 14  2  1  0  0  0  0
M  RAD  2   3   2   4   2
M  END
