Coordinates from ORCA-job 3-NO2-C6H3-N2-v2-B3LYPG-aug-cc-pVDZ-scan-d09-49-n400
 OpenBabel11091809153D

 14 13  0  0  0  0  0  0  0  0999 V2000
   -1.9955    0.2300   -1.0601 C   0  0  0  0  0  0  0  0  0  0  0  0
   -0.6833   -0.0303   -0.5853 C   0  0  0  0  0  0  0  0  0  0  0  0
   -0.3724    0.8908    0.3889 C   0  0  0  0  0  0  0  0  0  0  0  0
   -0.9981    1.8515    0.8960 C   0  0  0  0  0  0  0  0  0  0  0  0
   -2.2816    2.1301    0.4528 C   0  0  0  0  0  0  0  0  0  0  0  0
   -2.7789    1.2823   -0.5572 C   0  0  0  0  0  0  0  0  0  0  0  0
   -2.4036   -0.4125   -1.8420 H   0  0  0  0  0  0  0  0  0  0  0  0
    2.7343   -0.8112    0.5613 N   0  0  0  0  0  0  0  0  0  0  0  0
    3.6314   -0.6530    1.1851 N   0  0  0  0  0  0  0  0  0  0  0  0
   -3.7823    1.4572   -0.9412 H   0  0  0  0  0  0  0  0  0  0  0  0
   -3.0960    3.2368    0.9876 N   0  0  0  0  0  0  0  0  0  0  0  0
   -4.2159    3.3996    0.5057 O   0  0  0  0  0  0  0  0  0  0  0  0
   -2.5861    3.9388    1.8519 O   0  0  0  0  0  0  0  0  0  0  0  0
   -0.0670   -0.8406   -0.9656 H   0  0  0  0  0  0  0  0  0  0  0  0
  1  2  2  0  0  0  0
  1  6  1  0  0  0  0
  2  3  1  0  0  0  0
  3  4  2  0  0  0  0
  5  4  1  0  0  0  0
  5 11  1  0  0  0  0
  6  5  2  0  0  0  0
  7  1  1  0  0  0  0
  8  9  3  0  0  0  0
 10  6  1  0  0  0  0
 11 13  2  0  0  0  0
 12 11  2  0  0  0  0
 14  2  1  0  0  0  0
M  RAD  2   3   2   4   2
M  END
