Coordinates from ORCA-job 3-NO2-C6H3-N2-v2-B3LYPG-aug-cc-pVDZ-scan-d09-49-n400
 OpenBabel11091809153D

 14 13  0  0  0  0  0  0  0  0999 V2000
   -2.0248    0.1613   -1.1354 C   0  0  0  0  0  0  0  0  0  0  0  0
   -0.7091   -0.1967   -0.7435 C   0  0  0  0  0  0  0  0  0  0  0  0
   -0.2892    0.6687    0.2371 C   0  0  0  0  0  0  0  0  0  0  0  0
   -0.8092    1.6528    0.8180 C   0  0  0  0  0  0  0  0  0  0  0  0
   -2.0956    2.0196    0.4494 C   0  0  0  0  0  0  0  0  0  0  0  0
   -2.7071    1.2439   -0.5554 C   0  0  0  0  0  0  0  0  0  0  0  0
   -2.5165   -0.4266   -1.9120 H   0  0  0  0  0  0  0  0  0  0  0  0
    2.1292   -0.2539    0.7268 N   0  0  0  0  0  0  0  0  0  0  0  0
    2.9757   -0.0115    1.3932 N   0  0  0  0  0  0  0  0  0  0  0  0
   -3.7162    1.4965   -0.8751 H   0  0  0  0  0  0  0  0  0  0  0  0
   -2.8079    3.1588    1.0628 N   0  0  0  0  0  0  0  0  0  0  0  0
   -3.9457    3.3975    0.6606 O   0  0  0  0  0  0  0  0  0  0  0  0
   -2.2156    3.7890    1.9295 O   0  0  0  0  0  0  0  0  0  0  0  0
   -0.1628   -1.0297   -1.1783 H   0  0  0  0  0  0  0  0  0  0  0  0
  1  2  2  0  0  0  0
  1  6  1  0  0  0  0
  2  3  1  0  0  0  0
  3  4  2  0  0  0  0
  5  4  1  0  0  0  0
  5 11  1  0  0  0  0
  6  5  2  0  0  0  0
  7  1  1  0  0  0  0
  8  9  3  0  0  0  0
 10  6  1  0  0  0  0
 11 13  2  0  0  0  0
 12 11  2  0  0  0  0
 14  2  1  0  0  0  0
M  RAD  2   3   2   4   2
M  END
