Coordinates from ORCA-job 3-NO2-C6H3-N2-v2-B3LYPG-aug-cc-pVDZ-scan-d09-49-n400
 OpenBabel11091809153D

 14 13  0  0  0  0  0  0  0  0999 V2000
   -2.0104    0.1402   -1.1461 C   0  0  0  0  0  0  0  0  0  0  0  0
   -0.6972   -0.2352   -0.7704 C   0  0  0  0  0  0  0  0  0  0  0  0
   -0.2512    0.6153    0.2110 C   0  0  0  0  0  0  0  0  0  0  0  0
   -0.7410    1.6072    0.8147 C   0  0  0  0  0  0  0  0  0  0  0  0
   -2.0281    1.9825    0.4530 C   0  0  0  0  0  0  0  0  0  0  0  0
   -2.6686    1.2283   -0.5486 C   0  0  0  0  0  0  0  0  0  0  0  0
   -2.5189   -0.4354   -1.9210 H   0  0  0  0  0  0  0  0  0  0  0  0
    1.8675   -0.0979    0.7233 N   0  0  0  0  0  0  0  0  0  0  0  0
    2.6922    0.1774    1.4056 N   0  0  0  0  0  0  0  0  0  0  0  0
   -3.6777    1.4989   -0.8528 H   0  0  0  0  0  0  0  0  0  0  0  0
   -2.7220    3.1292    1.0825 N   0  0  0  0  0  0  0  0  0  0  0  0
   -3.8615    3.3832    0.6937 O   0  0  0  0  0  0  0  0  0  0  0  0
   -2.1155    3.7474    1.9473 O   0  0  0  0  0  0  0  0  0  0  0  0
   -0.1625   -1.0715   -1.2143 H   0  0  0  0  0  0  0  0  0  0  0  0
  1  2  2  0  0  0  0
  1  6  1  0  0  0  0
  2  3  1  0  0  0  0
  3  4  2  0  0  0  0
  5  4  1  0  0  0  0
  5 11  1  0  0  0  0
  6  5  2  0  0  0  0
  7  1  1  0  0  0  0
  8  9  3  0  0  0  0
 10  6  1  0  0  0  0
 11 13  2  0  0  0  0
 12 11  2  0  0  0  0
 14  2  1  0  0  0  0
M  RAD  2   3   2   4   2
M  END
