Coordinates from ORCA-job 3-NO2-C6H3-N2-v2-B3LYPG-aug-cc-pVDZ-scan-d09-49-n400
 OpenBabel11091809153D

 14 13  0  0  0  0  0  0  0  0999 V2000
   -1.7418    0.3580   -0.8118 C   0  0  0  0  0  0  0  0  0  0  0  0
   -0.4872    0.3482   -0.1486 C   0  0  0  0  0  0  0  0  0  0  0  0
   -0.4560    1.3778    0.7665 C   0  0  0  0  0  0  0  0  0  0  0  0
   -1.2885    2.2579    1.0888 C   0  0  0  0  0  0  0  0  0  0  0  0
   -2.5227    2.2950    0.4604 C   0  0  0  0  0  0  0  0  0  0  0  0
   -2.7374    1.3047   -0.5188 C   0  0  0  0  0  0  0  0  0  0  0  0
   -1.9332   -0.3986   -1.5745 H   0  0  0  0  0  0  0  0  0  0  0  0
    3.0612   -1.5685    0.0794 N   0  0  0  0  0  0  0  0  0  0  0  0
    4.0849   -1.8517    0.3806 N   0  0  0  0  0  0  0  0  0  0  0  0
   -3.6903    1.2864   -1.0449 H   0  0  0  0  0  0  0  0  0  0  0  0
   -3.5601    3.2934    0.7761 N   0  0  0  0  0  0  0  0  0  0  0  0
   -4.6181    3.2270    0.1526 O   0  0  0  0  0  0  0  0  0  0  0  0
   -3.2955    4.1201    1.6401 O   0  0  0  0  0  0  0  0  0  0  0  0
    0.2897   -0.3801   -0.3682 H   0  0  0  0  0  0  0  0  0  0  0  0
  1  6  2  0  0  0  0
  1  2  1  0  0  0  0
  2  3  2  0  0  0  0
  3  4  1  0  0  0  0
  5 11  1  0  0  0  0
  5  4  2  0  0  0  0
  6  5  1  0  0  0  0
  7  1  1  0  0  0  0
  8  9  3  0  0  0  0
 10  6  1  0  0  0  0
 11 13  2  0  0  0  0
 12 11  2  0  0  0  0
 14  2  1  0  0  0  0
M  RAD  2   3   2   4   2
M  END
