Coordinates from ORCA-job 3-NO2-C6H3-N2-v2-B3LYPG-aug-cc-pVDZ-scan-d09-49-n400
 OpenBabel11091809153D

 14 13  0  0  0  0  0  0  0  0999 V2000
   -2.0273    0.1858   -1.1152 C   0  0  0  0  0  0  0  0  0  0  0  0
   -0.7116   -0.1421   -0.6972 C   0  0  0  0  0  0  0  0  0  0  0  0
   -0.3226    0.7416    0.2825 C   0  0  0  0  0  0  0  0  0  0  0  0
   -0.8811    1.7184    0.8362 C   0  0  0  0  0  0  0  0  0  0  0  0
   -2.1671    2.0611    0.4470 C   0  0  0  0  0  0  0  0  0  0  0  0
   -2.7421    1.2602   -0.5598 C   0  0  0  0  0  0  0  0  0  0  0  0
   -2.4935   -0.4203   -1.8938 H   0  0  0  0  0  0  0  0  0  0  0  0
    2.3850   -0.4457    0.6959 N   0  0  0  0  0  0  0  0  0  0  0  0
    3.2578   -0.2449    1.3415 N   0  0  0  0  0  0  0  0  0  0  0  0
   -3.7504    1.4885   -0.9003 H   0  0  0  0  0  0  0  0  0  0  0  0
   -2.9103    3.1913    1.0358 N   0  0  0  0  0  0  0  0  0  0  0  0
   -4.0457    3.4038    0.6133 O   0  0  0  0  0  0  0  0  0  0  0  0
   -2.3437    3.8406    1.9060 O   0  0  0  0  0  0  0  0  0  0  0  0
   -0.1423   -0.9686   -1.1140 H   0  0  0  0  0  0  0  0  0  0  0  0
  1  2  2  0  0  0  0
  1  6  1  0  0  0  0
  2  3  1  0  0  0  0
  3  4  2  0  0  0  0
  5  4  1  0  0  0  0
  5 11  1  0  0  0  0
  6  5  2  0  0  0  0
  7  1  1  0  0  0  0
  8  9  3  0  0  0  0
 10  6  1  0  0  0  0
 11 13  2  0  0  0  0
 12 11  2  0  0  0  0
 14  2  1  0  0  0  0
M  RAD  2   3   2   4   2
M  END
