Coordinates from ORCA-job 3-NO2-C6H3-N2-v2-B3LYPG-aug-cc-pVDZ-scan-d09-49-n400
 OpenBabel11091809153D

 14 13  0  0  0  0  0  0  0  0999 V2000
   -2.0216    0.2013   -1.0986 C   0  0  0  0  0  0  0  0  0  0  0  0
   -0.7067   -0.1049   -0.6621 C   0  0  0  0  0  0  0  0  0  0  0  0
   -0.3403    0.7913    0.3163 C   0  0  0  0  0  0  0  0  0  0  0  0
   -0.9233    1.7631    0.8526 C   0  0  0  0  0  0  0  0  0  0  0  0
   -2.2087    2.0868    0.4472 C   0  0  0  0  0  0  0  0  0  0  0  0
   -2.7586    1.2696   -0.5606 C   0  0  0  0  0  0  0  0  0  0  0  0
   -2.4695   -0.4171   -1.8781 H   0  0  0  0  0  0  0  0  0  0  0  0
    2.5334   -0.5902    0.6490 N   0  0  0  0  0  0  0  0  0  0  0  0
    3.3952   -0.3726    1.3039 N   0  0  0  0  0  0  0  0  0  0  0  0
   -3.7658    1.4808   -0.9153 H   0  0  0  0  0  0  0  0  0  0  0  0
   -2.9740    3.2104    1.0183 N   0  0  0  0  0  0  0  0  0  0  0  0
   -4.1070    3.4041    0.5808 O   0  0  0  0  0  0  0  0  0  0  0  0
   -2.4266    3.8736    1.8903 O   0  0  0  0  0  0  0  0  0  0  0  0
   -0.1212   -0.9266   -1.0660 H   0  0  0  0  0  0  0  0  0  0  0  0
  1  2  2  0  0  0  0
  1  6  1  0  0  0  0
  2  3  1  0  0  0  0
  3  4  2  0  0  0  0
  5  4  1  0  0  0  0
  5 11  1  0  0  0  0
  6  5  2  0  0  0  0
  7  1  1  0  0  0  0
  8  9  3  0  0  0  0
 10  6  1  0  0  0  0
 11 13  2  0  0  0  0
 12 11  2  0  0  0  0
 14  2  1  0  0  0  0
M  RAD  2   3   2   4   2
M  END
