Coordinates from ORCA-job 3-NO2-C6H3-N2-v2-B3LYPG-aug-cc-pVDZ-scan-d09-49-n400
 OpenBabel11091809153D

 14 13  0  0  0  0  0  0  0  0999 V2000
   -1.9685    0.2532   -1.0248 C   0  0  0  0  0  0  0  0  0  0  0  0
   -0.6613    0.0326   -0.5178 C   0  0  0  0  0  0  0  0  0  0  0  0
   -0.3934    0.9759    0.4488 C   0  0  0  0  0  0  0  0  0  0  0  0
   -1.0549    1.9280    0.9259 C   0  0  0  0  0  0  0  0  0  0  0  0
   -2.3345    2.1686    0.4510 C   0  0  0  0  0  0  0  0  0  0  0  0
   -2.7883    1.2932   -0.5558 C   0  0  0  0  0  0  0  0  0  0  0  0
   -2.3436   -0.4110   -1.8051 H   0  0  0  0  0  0  0  0  0  0  0  0
    2.8645   -0.9743    0.4910 N   0  0  0  0  0  0  0  0  0  0  0  0
    3.8009   -0.8901    1.0699 N   0  0  0  0  0  0  0  0  0  0  0  0
   -3.7870    1.4372   -0.9644 H   0  0  0  0  0  0  0  0  0  0  0  0
   -3.1871    3.2631    0.9501 N   0  0  0  0  0  0  0  0  0  0  0  0
   -4.3062    3.3803    0.4537 O   0  0  0  0  0  0  0  0  0  0  0  0
   -2.7199    3.9804    1.8259 O   0  0  0  0  0  0  0  0  0  0  0  0
   -0.0156   -0.7673   -0.8705 H   0  0  0  0  0  0  0  0  0  0  0  0
  1  6  2  0  0  0  0
  1  2  1  0  0  0  0
  2  3  2  0  0  0  0
  3  4  1  0  0  0  0
  5  4  2  0  0  0  0
  5 11  1  0  0  0  0
  6  5  1  0  0  0  0
  7  1  1  0  0  0  0
  8  9  3  0  0  0  0
 10  6  1  0  0  0  0
 11 13  2  0  0  0  0
 12 11  2  0  0  0  0
 14  2  1  0  0  0  0
M  RAD  2   3   2   4   2
M  END
