Coordinates from ORCA-job 3-NO2-C6H3-N2-v2-B3LYPG-aug-cc-pVDZ-scan-d09-49-n400
 OpenBabel11091809153D

 14 13  0  0  0  0  0  0  0  0999 V2000
   -2.0281    0.1764   -1.1239 C   0  0  0  0  0  0  0  0  0  0  0  0
   -0.7120   -0.1641   -0.7168 C   0  0  0  0  0  0  0  0  0  0  0  0
   -0.3113    0.7124    0.2634 C   0  0  0  0  0  0  0  0  0  0  0  0
   -0.8542    1.6920    0.8285 C   0  0  0  0  0  0  0  0  0  0  0  0
   -2.1404    2.0448    0.4481 C   0  0  0  0  0  0  0  0  0  0  0  0
   -2.7299    1.2541   -0.5583 C   0  0  0  0  0  0  0  0  0  0  0  0
   -2.5047   -0.4222   -1.9020 H   0  0  0  0  0  0  0  0  0  0  0  0
    2.2922   -0.3693    0.7128 N   0  0  0  0  0  0  0  0  0  0  0  0
    3.1569   -0.1555    1.3652 N   0  0  0  0  0  0  0  0  0  0  0  0
   -3.7387    1.4921   -0.8905 H   0  0  0  0  0  0  0  0  0  0  0  0
   -2.8711    3.1785    1.0472 N   0  0  0  0  0  0  0  0  0  0  0  0
   -4.0069    3.4029    0.6315 O   0  0  0  0  0  0  0  0  0  0  0  0
   -2.2933    3.8211    1.9148 O   0  0  0  0  0  0  0  0  0  0  0  0
   -0.1532   -0.9935   -1.1421 H   0  0  0  0  0  0  0  0  0  0  0  0
  1  2  2  0  0  0  0
  1  6  1  0  0  0  0
  2  3  1  0  0  0  0
  3  4  2  0  0  0  0
  5  4  1  0  0  0  0
  5 11  1  0  0  0  0
  6  5  2  0  0  0  0
  7  1  1  0  0  0  0
  8  9  3  0  0  0  0
 10  6  1  0  0  0  0
 11 13  2  0  0  0  0
 12 11  2  0  0  0  0
 14  2  1  0  0  0  0
M  RAD  2   3   2   4   2
M  END
