Coordinates from ORCA-job 3-NO2-C6H3-N2-v2-B3LYPG-aug-cc-pVDZ-scan-d09-49-n400
 OpenBabel11091809153D

 14 13  0  0  0  0  0  0  0  0999 V2000
   -1.9378    0.2734   -0.9906 C   0  0  0  0  0  0  0  0  0  0  0  0
   -0.6362    0.0887   -0.4552 C   0  0  0  0  0  0  0  0  0  0  0  0
   -0.4103    1.0504    0.5044 C   0  0  0  0  0  0  0  0  0  0  0  0
   -1.1029    1.9927    0.9558 C   0  0  0  0  0  0  0  0  0  0  0  0
   -2.3779    2.1980    0.4527 C   0  0  0  0  0  0  0  0  0  0  0  0
   -2.7907    1.2998   -0.5516 C   0  0  0  0  0  0  0  0  0  0  0  0
   -2.2819   -0.4087   -1.7698 H   0  0  0  0  0  0  0  0  0  0  0  0
    2.9526   -1.1097    0.4212 N   0  0  0  0  0  0  0  0  0  0  0  0
    3.9162   -1.0867    0.9595 N   0  0  0  0  0  0  0  0  0  0  0  0
   -3.7838    1.4155   -0.9822 H   0  0  0  0  0  0  0  0  0  0  0  0
   -3.2652    3.2785    0.9204 N   0  0  0  0  0  0  0  0  0  0  0  0
   -4.3771    3.3624    0.4015 O   0  0  0  0  0  0  0  0  0  0  0  0
   -2.8332    4.0161    1.7974 O   0  0  0  0  0  0  0  0  0  0  0  0
    0.0335   -0.7009   -0.7857 H   0  0  0  0  0  0  0  0  0  0  0  0
  1  6  2  0  0  0  0
  1  2  1  0  0  0  0
  2  3  2  0  0  0  0
  3  4  1  0  0  0  0
  5 11  1  0  0  0  0
  5  4  2  0  0  0  0
  6  5  1  0  0  0  0
  7  1  1  0  0  0  0
  8  9  3  0  0  0  0
 10  6  1  0  0  0  0
 11 13  2  0  0  0  0
 12 11  2  0  0  0  0
 14  2  1  0  0  0  0
M  RAD  2   3   2   4   2
M  END
