Coordinates from ORCA-job 3-NO2-C6H3-N2-v2-B3LYPG-aug-cc-pVDZ-scan-d09-49-n400
 OpenBabel11091809153D

 14 14  0  0  0  0  0  0  0  0999 V2000
   -1.9217    0.0936   -1.1039 C   0  0  0  0  0  0  0  0  0  0  0  0
   -0.6386   -0.2420   -0.7238 C   0  0  0  0  0  0  0  0  0  0  0  0
   -0.0463    0.5843    0.2772 C   0  0  0  0  0  0  0  0  0  0  0  0
   -0.5895    1.7031    0.9557 C   0  0  0  0  0  0  0  0  0  0  0  0
   -1.8890    1.9339    0.4808 C   0  0  0  0  0  0  0  0  0  0  0  0
   -2.5554    1.2041   -0.5001 C   0  0  0  0  0  0  0  0  0  0  0  0
   -2.4437   -0.4870   -1.8627 H   0  0  0  0  0  0  0  0  0  0  0  0
    1.2055    0.2882    0.6564 N   0  0  0  0  0  0  0  0  0  0  0  0
    2.2481    0.0715    0.9990 N   0  0  0  0  0  0  0  0  0  0  0  0
   -3.5630    1.4886   -0.8000 H   0  0  0  0  0  0  0  0  0  0  0  0
   -2.6627    3.0870    1.0758 N   0  0  0  0  0  0  0  0  0  0  0  0
   -3.7106    3.4090    0.5097 O   0  0  0  0  0  0  0  0  0  0  0  0
   -2.2193    3.6243    2.0755 O   0  0  0  0  0  0  0  0  0  0  0  0
   -0.1088   -1.0889   -1.1618 H   0  0  0  0  0  0  0  0  0  0  0  0
  1  2  2  0  0  0  0
  1  6  1  0  0  0  0
  2  3  1  0  0  0  0
  3  8  1  0  0  0  0
  3  4  2  0  0  0  0
  5  4  1  0  0  0  0
  5 11  1  0  0  0  0
  6  5  2  0  0  0  0
  7  1  1  0  0  0  0
  8  9  1  0  0  0  0
 10  6  1  0  0  0  0
 11 13  2  0  0  0  0
 12 11  2  0  0  0  0
 14  2  1  0  0  0  0
M  RAD  3   4   2   8   2   9   3
M  END
