Coordinates from ORCA-job 3-NO2-C6H3-N2-v2-B3LYPG-aug-cc-pVDZ-scan-d09-49-n400
 OpenBabel11091809153D

 14 13  0  0  0  0  0  0  0  0999 V2000
   -2.0076    0.1374   -1.1469 C   0  0  0  0  0  0  0  0  0  0  0  0
   -0.6952   -0.2389   -0.7722 C   0  0  0  0  0  0  0  0  0  0  0  0
   -0.2448    0.6096    0.2091 C   0  0  0  0  0  0  0  0  0  0  0  0
   -0.7311    1.6034    0.8156 C   0  0  0  0  0  0  0  0  0  0  0  0
   -2.0184    1.9779    0.4528 C   0  0  0  0  0  0  0  0  0  0  0  0
   -2.6628    1.2264   -0.5478 C   0  0  0  0  0  0  0  0  0  0  0  0
   -2.5177   -0.4372   -1.9213 H   0  0  0  0  0  0  0  0  0  0  0  0
    1.8286   -0.0775    0.7204 N   0  0  0  0  0  0  0  0  0  0  0  0
    2.6536    0.1979    1.4028 N   0  0  0  0  0  0  0  0  0  0  0  0
   -3.6718    1.4994   -0.8502 H   0  0  0  0  0  0  0  0  0  0  0  0
   -2.7107    3.1261    1.0834 N   0  0  0  0  0  0  0  0  0  0  0  0
   -3.8516    3.3793    0.6980 O   0  0  0  0  0  0  0  0  0  0  0  0
   -2.1046    3.7417    1.9501 O   0  0  0  0  0  0  0  0  0  0  0  0
   -0.1609   -1.0758   -1.2161 H   0  0  0  0  0  0  0  0  0  0  0  0
  1  2  2  0  0  0  0
  1  6  1  0  0  0  0
  2  3  1  0  0  0  0
  3  4  2  0  0  0  0
  5  4  1  0  0  0  0
  5 11  1  0  0  0  0
  6  5  2  0  0  0  0
  7  1  1  0  0  0  0
  8  9  3  0  0  0  0
 10  6  1  0  0  0  0
 11 13  2  0  0  0  0
 12 11  2  0  0  0  0
 14  2  1  0  0  0  0
M  RAD  2   3   2   4   2
M  END
