Coordinates from ORCA-job 3-NO2-C6H3-N2-v2-B3LYPG-aug-cc-pVDZ-scan-d09-49-n400
 OpenBabel11091809153D

 14 13  0  0  0  0  0  0  0  0999 V2000
   -2.0274    0.1824   -1.1183 C   0  0  0  0  0  0  0  0  0  0  0  0
   -0.7114   -0.1503   -0.7042 C   0  0  0  0  0  0  0  0  0  0  0  0
   -0.3185    0.7311    0.2755 C   0  0  0  0  0  0  0  0  0  0  0  0
   -0.8712    1.7090    0.8334 C   0  0  0  0  0  0  0  0  0  0  0  0
   -2.1572    2.0554    0.4473 C   0  0  0  0  0  0  0  0  0  0  0  0
   -2.7375    1.2580   -0.5594 C   0  0  0  0  0  0  0  0  0  0  0  0
   -2.4974   -0.4210   -1.8966 H   0  0  0  0  0  0  0  0  0  0  0  0
    2.3495   -0.4149    0.7038 N   0  0  0  0  0  0  0  0  0  0  0  0
    3.2227   -0.2148    1.3490 N   0  0  0  0  0  0  0  0  0  0  0  0
   -3.7460    1.4897   -0.8970 H   0  0  0  0  0  0  0  0  0  0  0  0
   -2.8959    3.1869    1.0397 N   0  0  0  0  0  0  0  0  0  0  0  0
   -4.0318    3.4031    0.6201 O   0  0  0  0  0  0  0  0  0  0  0  0
   -2.3257    3.8334    1.9094 O   0  0  0  0  0  0  0  0  0  0  0  0
   -0.1469   -0.9782   -1.1249 H   0  0  0  0  0  0  0  0  0  0  0  0
  1  2  2  0  0  0  0
  1  6  1  0  0  0  0
  2  3  1  0  0  0  0
  3  4  2  0  0  0  0
  5  4  1  0  0  0  0
  5 11  1  0  0  0  0
  6  5  2  0  0  0  0
  7  1  1  0  0  0  0
  8  9  3  0  0  0  0
 10  6  1  0  0  0  0
 11 13  2  0  0  0  0
 12 11  2  0  0  0  0
 14  2  1  0  0  0  0
M  RAD  2   3   2   4   2
M  END
