Coordinates from ORCA-job 3-NO2-C6H3-N2-v2-B3LYPG-aug-cc-pVDZ-scan-d09-49-n400
 OpenBabel11091809153D

 14 14  0  0  0  0  0  0  0  0999 V2000
   -1.9205    0.0931   -1.1031 C   0  0  0  0  0  0  0  0  0  0  0  0
   -0.6376   -0.2424   -0.7232 C   0  0  0  0  0  0  0  0  0  0  0  0
   -0.0436    0.5839    0.2780 C   0  0  0  0  0  0  0  0  0  0  0  0
   -0.5885    1.7037    0.9565 C   0  0  0  0  0  0  0  0  0  0  0  0
   -1.8881    1.9338    0.4813 C   0  0  0  0  0  0  0  0  0  0  0  0
   -2.5543    1.2039   -0.4996 C   0  0  0  0  0  0  0  0  0  0  0  0
   -2.4426   -0.4877   -1.8617 H   0  0  0  0  0  0  0  0  0  0  0  0
    1.1991    0.2902    0.6540 N   0  0  0  0  0  0  0  0  0  0  0  0
    2.2423    0.0727    0.9953 N   0  0  0  0  0  0  0  0  0  0  0  0
   -3.5617    1.4884   -0.7998 H   0  0  0  0  0  0  0  0  0  0  0  0
   -2.6623    3.0866    1.0760 N   0  0  0  0  0  0  0  0  0  0  0  0
   -3.7082    3.4108    0.5074 O   0  0  0  0  0  0  0  0  0  0  0  0
   -2.2209    3.6221    2.0776 O   0  0  0  0  0  0  0  0  0  0  0  0
   -0.1080   -1.0894   -1.1611 H   0  0  0  0  0  0  0  0  0  0  0  0
  1  2  2  0  0  0  0
  1  6  1  0  0  0  0
  2  3  1  0  0  0  0
  3  8  1  0  0  0  0
  3  4  2  0  0  0  0
  5  4  1  0  0  0  0
  5 11  1  0  0  0  0
  6  5  2  0  0  0  0
  7  1  1  0  0  0  0
  8  9  1  0  0  0  0
 10  6  1  0  0  0  0
 11 13  2  0  0  0  0
 12 11  2  0  0  0  0
 14  2  1  0  0  0  0
M  RAD  3   4   2   8   2   9   3
M  END
