Coordinates from ORCA-job 3-NO2-C6H3-N2-v2-B3LYPG-aug-cc-pVDZ-scan-d09-49-n400
 OpenBabel11091809153D

 14 14  0  0  0  0  0  0  0  0999 V2000
   -1.9746    0.1184   -1.1459 C   0  0  0  0  0  0  0  0  0  0  0  0
   -0.6712   -0.2501   -0.7696 C   0  0  0  0  0  0  0  0  0  0  0  0
   -0.1841    0.5815    0.2173 C   0  0  0  0  0  0  0  0  0  0  0  0
   -0.6512    1.6024    0.8584 C   0  0  0  0  0  0  0  0  0  0  0  0
   -1.9425    1.9386    0.4605 C   0  0  0  0  0  0  0  0  0  0  0  0
   -2.6135    1.2106   -0.5344 C   0  0  0  0  0  0  0  0  0  0  0  0
   -2.4909   -0.4505   -1.9190 H   0  0  0  0  0  0  0  0  0  0  0  0
    1.4954    0.0856    0.6839 N   0  0  0  0  0  0  0  0  0  0  0  0
    2.3871    0.2651    1.3193 N   0  0  0  0  0  0  0  0  0  0  0  0
   -3.6222    1.4962   -0.8252 H   0  0  0  0  0  0  0  0  0  0  0  0
   -2.6488    3.0950    1.0919 N   0  0  0  0  0  0  0  0  0  0  0  0
   -3.7891    3.3427    0.6970 O   0  0  0  0  0  0  0  0  0  0  0  0
   -2.0552    3.7215    1.9569 O   0  0  0  0  0  0  0  0  0  0  0  0
   -0.1343   -1.0875   -1.2132 H   0  0  0  0  0  0  0  0  0  0  0  0
  1  2  2  0  0  0  0
  1  6  1  0  0  0  0
  2  3  1  0  0  0  0
  3  8  1  0  0  0  0
  3  4  2  0  0  0  0
  5  4  1  0  0  0  0
  5 11  1  0  0  0  0
  6  5  2  0  0  0  0
  7  1  1  0  0  0  0
  8  9  2  0  0  0  0
 10  6  1  0  0  0  0
 11 13  2  0  0  0  0
 12 11  2  0  0  0  0
 14  2  1  0  0  0  0
M  RAD  2   4   2   9   2
M  END
