Coordinates from ORCA-job 3-NO2-C6H3-N2-v2-B3LYPG-aug-cc-pVDZ-scan-d09-49-n400
 OpenBabel11091809153D

 14 13  0  0  0  0  0  0  0  0999 V2000
   -2.0272    0.1817   -1.1189 C   0  0  0  0  0  0  0  0  0  0  0  0
   -0.7109   -0.1520   -0.7060 C   0  0  0  0  0  0  0  0  0  0  0  0
   -0.3182    0.7284    0.2742 C   0  0  0  0  0  0  0  0  0  0  0  0
   -0.8697    1.7060    0.8338 C   0  0  0  0  0  0  0  0  0  0  0  0
   -2.1558    2.0531    0.4487 C   0  0  0  0  0  0  0  0  0  0  0  0
   -2.7367    1.2570   -0.5586 C   0  0  0  0  0  0  0  0  0  0  0  0
   -2.4978   -0.4207   -1.8977 H   0  0  0  0  0  0  0  0  0  0  0  0
    2.3421   -0.4090    0.7045 N   0  0  0  0  0  0  0  0  0  0  0  0
    3.2143   -0.2073    1.3508 N   0  0  0  0  0  0  0  0  0  0  0  0
   -3.7453    1.4893   -0.8955 H   0  0  0  0  0  0  0  0  0  0  0  0
   -2.8940    3.1842    1.0427 N   0  0  0  0  0  0  0  0  0  0  0  0
   -4.0275    3.4050    0.6194 O   0  0  0  0  0  0  0  0  0  0  0  0
   -2.3208    3.8335    1.9084 O   0  0  0  0  0  0  0  0  0  0  0  0
   -0.1472   -0.9797   -1.1280 H   0  0  0  0  0  0  0  0  0  0  0  0
  1  2  2  0  0  0  0
  1  6  1  0  0  0  0
  2  3  1  0  0  0  0
  3  4  2  0  0  0  0
  5  4  1  0  0  0  0
  5 11  1  0  0  0  0
  6  5  2  0  0  0  0
  7  1  1  0  0  0  0
  8  9  3  0  0  0  0
 10  6  1  0  0  0  0
 11 13  2  0  0  0  0
 12 11  2  0  0  0  0
 14  2  1  0  0  0  0
M  RAD  2   3   2   4   2
M  END
