Coordinates from ORCA-job 3-NO2-C6H3-N2-v2-B3LYPG-aug-cc-pVDZ-scan-d09-49-n400
 OpenBabel11091809153D

 14 13  0  0  0  0  0  0  0  0999 V2000
   -1.9839    0.1238   -1.1462 C   0  0  0  0  0  0  0  0  0  0  0  0
   -0.6764   -0.2492   -0.7723 C   0  0  0  0  0  0  0  0  0  0  0  0
   -0.2042    0.5878    0.2122 C   0  0  0  0  0  0  0  0  0  0  0  0
   -0.6765    1.5954    0.8399 C   0  0  0  0  0  0  0  0  0  0  0  0
   -1.9663    1.9499    0.4592 C   0  0  0  0  0  0  0  0  0  0  0  0
   -2.6286    1.2143   -0.5383 C   0  0  0  0  0  0  0  0  0  0  0  0
   -2.4985   -0.4464   -1.9201 H   0  0  0  0  0  0  0  0  0  0  0  0
    1.5948    0.0321    0.6900 N   0  0  0  0  0  0  0  0  0  0  0  0
    2.4508    0.2652    1.3539 N   0  0  0  0  0  0  0  0  0  0  0  0
   -3.6375    1.4957   -0.8325 H   0  0  0  0  0  0  0  0  0  0  0  0
   -2.6641    3.1026    1.0933 N   0  0  0  0  0  0  0  0  0  0  0  0
   -3.8028    3.3585    0.7006 O   0  0  0  0  0  0  0  0  0  0  0  0
   -2.0608    3.7259    1.9551 O   0  0  0  0  0  0  0  0  0  0  0  0
   -0.1410   -1.0861   -1.2171 H   0  0  0  0  0  0  0  0  0  0  0  0
  1  2  2  0  0  0  0
  1  6  1  0  0  0  0
  2  3  1  0  0  0  0
  3  4  2  0  0  0  0
  5  4  1  0  0  0  0
  5 11  1  0  0  0  0
  6  5  2  0  0  0  0
  7  1  1  0  0  0  0
  8  9  3  0  0  0  0
 10  6  1  0  0  0  0
 11 13  2  0  0  0  0
 12 11  2  0  0  0  0
 14  2  1  0  0  0  0
M  RAD  2   3   2   4   2
M  END
