Coordinates from ORCA-job 3-NO2-C6H3-N2-v2-B3LYPG-aug-cc-pVDZ-scan-d09-49-n400
 OpenBabel11091809153D

 14 13  0  0  0  0  0  0  0  0999 V2000
   -2.0232    0.1984   -1.1019 C   0  0  0  0  0  0  0  0  0  0  0  0
   -0.7080   -0.1124   -0.6692 C   0  0  0  0  0  0  0  0  0  0  0  0
   -0.3372    0.7816    0.3092 C   0  0  0  0  0  0  0  0  0  0  0  0
   -0.9152    1.7546    0.8488 C   0  0  0  0  0  0  0  0  0  0  0  0
   -2.2007    2.0823    0.4467 C   0  0  0  0  0  0  0  0  0  0  0  0
   -2.7557    1.2681   -0.5607 C   0  0  0  0  0  0  0  0  0  0  0  0
   -2.4748   -0.4177   -1.8812 H   0  0  0  0  0  0  0  0  0  0  0  0
    2.5071   -0.5636    0.6584 N   0  0  0  0  0  0  0  0  0  0  0  0
    3.3698   -0.3472    1.3126 N   0  0  0  0  0  0  0  0  0  0  0  0
   -3.7631    1.4827   -0.9127 H   0  0  0  0  0  0  0  0  0  0  0  0
   -2.9614    3.2075    1.0211 N   0  0  0  0  0  0  0  0  0  0  0  0
   -4.0957    3.4037    0.5880 O   0  0  0  0  0  0  0  0  0  0  0  0
   -2.4108    3.8668    1.8941 O   0  0  0  0  0  0  0  0  0  0  0  0
   -0.1259   -0.9352   -1.0756 H   0  0  0  0  0  0  0  0  0  0  0  0
  1  2  2  0  0  0  0
  1  6  1  0  0  0  0
  2  3  1  0  0  0  0
  3  4  2  0  0  0  0
  5  4  1  0  0  0  0
  5 11  1  0  0  0  0
  6  5  2  0  0  0  0
  7  1  1  0  0  0  0
  8  9  3  0  0  0  0
 10  6  1  0  0  0  0
 11 13  2  0  0  0  0
 12 11  2  0  0  0  0
 14  2  1  0  0  0  0
M  RAD  2   3   2   4   2
M  END
