Coordinates from ORCA-job 3-NO2-C6H3-N2-v2-B3LYPG-aug-cc-pVDZ-scan-d09-49-n400
 OpenBabel11091809153D

 14 14  0  0  0  0  0  0  0  0999 V2000
   -1.9651    0.1143   -1.1443 C   0  0  0  0  0  0  0  0  0  0  0  0
   -0.6661   -0.2481   -0.7651 C   0  0  0  0  0  0  0  0  0  0  0  0
   -0.1655    0.5796    0.2259 C   0  0  0  0  0  0  0  0  0  0  0  0
   -0.6305    1.6171    0.8827 C   0  0  0  0  0  0  0  0  0  0  0  0
   -1.9237    1.9304    0.4637 C   0  0  0  0  0  0  0  0  0  0  0  0
   -2.5999    1.2081   -0.5293 C   0  0  0  0  0  0  0  0  0  0  0  0
   -2.4822   -0.4535   -1.9171 H   0  0  0  0  0  0  0  0  0  0  0  0
    1.4126    0.1378    0.6853 N   0  0  0  0  0  0  0  0  0  0  0  0
    2.3514    0.2323    1.2708 N   0  0  0  0  0  0  0  0  0  0  0  0
   -3.6086    1.4961   -0.8181 H   0  0  0  0  0  0  0  0  0  0  0  0
   -2.6439    3.0890    1.0897 N   0  0  0  0  0  0  0  0  0  0  0  0
   -3.7837    3.3277    0.6860 O   0  0  0  0  0  0  0  0  0  0  0  0
   -2.0625    3.7242    1.9553 O   0  0  0  0  0  0  0  0  0  0  0  0
   -0.1273   -1.0854   -1.2077 H   0  0  0  0  0  0  0  0  0  0  0  0
  1  2  2  0  0  0  0
  1  6  1  0  0  0  0
  2  3  1  0  0  0  0
  3  8  1  0  0  0  0
  3  4  2  0  0  0  0
  5  4  1  0  0  0  0
  5 11  1  0  0  0  0
  6  5  2  0  0  0  0
  7  1  1  0  0  0  0
  8  9  2  0  0  0  0
 10  6  1  0  0  0  0
 11 13  2  0  0  0  0
 12 11  2  0  0  0  0
 14  2  1  0  0  0  0
M  RAD  2   4   2   9   2
M  END
