Coordinates from ORCA-job 3-NO2-C6H3-N2-v2-B3LYPG-aug-cc-pVDZ-scan-d09-49-n400
 OpenBabel11091809153D

 14 14  0  0  0  0  0  0  0  0999 V2000
   -1.9645    0.1140   -1.1443 C   0  0  0  0  0  0  0  0  0  0  0  0
   -0.6663   -0.2474   -0.7648 C   0  0  0  0  0  0  0  0  0  0  0  0
   -0.1627    0.5792    0.2272 C   0  0  0  0  0  0  0  0  0  0  0  0
   -0.6287    1.6195    0.8864 C   0  0  0  0  0  0  0  0  0  0  0  0
   -1.9221    1.9292    0.4643 C   0  0  0  0  0  0  0  0  0  0  0  0
   -2.5988    1.2078   -0.5285 C   0  0  0  0  0  0  0  0  0  0  0  0
   -2.4818   -0.4534   -1.9171 H   0  0  0  0  0  0  0  0  0  0  0  0
    1.4063    0.1441    0.6873 N   0  0  0  0  0  0  0  0  0  0  0  0
    2.3513    0.2257    1.2648 N   0  0  0  0  0  0  0  0  0  0  0  0
   -3.6075    1.4961   -0.8169 H   0  0  0  0  0  0  0  0  0  0  0  0
   -2.6445    3.0878    1.0897 N   0  0  0  0  0  0  0  0  0  0  0  0
   -3.7835    3.3263    0.6832 O   0  0  0  0  0  0  0  0  0  0  0  0
   -2.0645    3.7254    1.9542 O   0  0  0  0  0  0  0  0  0  0  0  0
   -0.1275   -1.0847   -1.2077 H   0  0  0  0  0  0  0  0  0  0  0  0
  1  2  2  0  0  0  0
  1  6  1  0  0  0  0
  2  3  1  0  0  0  0
  3  8  1  0  0  0  0
  3  4  2  0  0  0  0
  5  4  1  0  0  0  0
  5 11  1  0  0  0  0
  6  5  2  0  0  0  0
  7  1  1  0  0  0  0
  8  9  1  0  0  0  0
 10  6  1  0  0  0  0
 11 13  2  0  0  0  0
 12 11  2  0  0  0  0
 14  2  1  0  0  0  0
M  RAD  3   4   2   8   2   9   3
M  END
