Coordinates from ORCA-job 3-NO2-C6H3-N2-v2-B3LYPG-aug-cc-pVDZ-scan-d09-49-n400
 OpenBabel11091809153D

 14 13  0  0  0  0  0  0  0  0999 V2000
   -1.9394    0.2724   -0.9924 C   0  0  0  0  0  0  0  0  0  0  0  0
   -0.6376    0.0861   -0.4583 C   0  0  0  0  0  0  0  0  0  0  0  0
   -0.4094    1.0465    0.5020 C   0  0  0  0  0  0  0  0  0  0  0  0
   -1.1009    1.9891    0.9547 C   0  0  0  0  0  0  0  0  0  0  0  0
   -2.3761    2.1962    0.4530 C   0  0  0  0  0  0  0  0  0  0  0  0
   -2.7908    1.2993   -0.5517 C   0  0  0  0  0  0  0  0  0  0  0  0
   -2.2849   -0.4088   -1.7718 H   0  0  0  0  0  0  0  0  0  0  0  0
    2.9485   -1.1030    0.4245 N   0  0  0  0  0  0  0  0  0  0  0  0
    3.9110   -1.0772    0.9648 N   0  0  0  0  0  0  0  0  0  0  0  0
   -3.7842    1.4164   -0.9811 H   0  0  0  0  0  0  0  0  0  0  0  0
   -3.2618    3.2772    0.9225 N   0  0  0  0  0  0  0  0  0  0  0  0
   -4.3733    3.3641    0.4032 O   0  0  0  0  0  0  0  0  0  0  0  0
   -2.8274    4.0149    1.7983 O   0  0  0  0  0  0  0  0  0  0  0  0
    0.0313   -0.7038   -0.7897 H   0  0  0  0  0  0  0  0  0  0  0  0
  1  6  2  0  0  0  0
  1  2  1  0  0  0  0
  2  3  2  0  0  0  0
  3  4  1  0  0  0  0
  5 11  1  0  0  0  0
  5  4  2  0  0  0  0
  6  5  1  0  0  0  0
  7  1  1  0  0  0  0
  8  9  3  0  0  0  0
 10  6  1  0  0  0  0
 11 13  2  0  0  0  0
 12 11  2  0  0  0  0
 14  2  1  0  0  0  0
M  RAD  2   3   2   4   2
M  END
