Coordinates from ORCA-job 3-NO2-C6H3-N2-v2-B3LYPG-aug-cc-pVDZ-scan-d09-49-n400
 OpenBabel11091809153D

 14 14  0  0  0  0  0  0  0  0999 V2000
   -1.9601    0.1128   -1.1430 C   0  0  0  0  0  0  0  0  0  0  0  0
   -0.6639   -0.2465   -0.7623 C   0  0  0  0  0  0  0  0  0  0  0  0
   -0.1539    0.5791    0.2316 C   0  0  0  0  0  0  0  0  0  0  0  0
   -0.6219    1.6273    0.8963 C   0  0  0  0  0  0  0  0  0  0  0  0
   -1.9158    1.9280    0.4656 C   0  0  0  0  0  0  0  0  0  0  0  0
   -2.5933    1.2075   -0.5263 C   0  0  0  0  0  0  0  0  0  0  0  0
   -2.4777   -0.4544   -1.9155 H   0  0  0  0  0  0  0  0  0  0  0  0
    1.3779    0.1630    0.6888 N   0  0  0  0  0  0  0  0  0  0  0  0
    2.3402    0.2067    1.2420 N   0  0  0  0  0  0  0  0  0  0  0  0
   -3.6019    1.4962   -0.8147 H   0  0  0  0  0  0  0  0  0  0  0  0
   -2.6443    3.0872    1.0874 N   0  0  0  0  0  0  0  0  0  0  0  0
   -3.7841    3.3196    0.6788 O   0  0  0  0  0  0  0  0  0  0  0  0
   -2.0709    3.7271    1.9541 O   0  0  0  0  0  0  0  0  0  0  0  0
   -0.1251   -1.0841   -1.2050 H   0  0  0  0  0  0  0  0  0  0  0  0
  1  2  2  0  0  0  0
  1  6  1  0  0  0  0
  2  3  1  0  0  0  0
  3  8  1  0  0  0  0
  3  4  2  0  0  0  0
  5  4  1  0  0  0  0
  5 11  1  0  0  0  0
  6  5  2  0  0  0  0
  7  1  1  0  0  0  0
  8  9  1  0  0  0  0
 10  6  1  0  0  0  0
 11 13  2  0  0  0  0
 12 11  2  0  0  0  0
 14  2  1  0  0  0  0
M  RAD  3   4   2   8   2   9   3
M  END
