Coordinates from ORCA-job 3-NO2-C6H3-N2-v2-B3LYPG-aug-cc-pVDZ-scan-d09-49-n400
 OpenBabel11091809153D

 14 13  0  0  0  0  0  0  0  0999 V2000
   -1.9141    0.2872   -0.9658 C   0  0  0  0  0  0  0  0  0  0  0  0
   -0.6181    0.1300   -0.4094 C   0  0  0  0  0  0  0  0  0  0  0  0
   -0.4201    1.1023    0.5451 C   0  0  0  0  0  0  0  0  0  0  0  0
   -1.1357    2.0366    0.9774 C   0  0  0  0  0  0  0  0  0  0  0  0
   -2.4064    2.2164    0.4541 C   0  0  0  0  0  0  0  0  0  0  0  0
   -2.7899    1.3031   -0.5482 C   0  0  0  0  0  0  0  0  0  0  0  0
   -2.2350   -0.4074   -1.7438 H   0  0  0  0  0  0  0  0  0  0  0  0
    3.0017   -1.2001    0.3691 N   0  0  0  0  0  0  0  0  0  0  0  0
    3.9817   -1.2197    0.8772 N   0  0  0  0  0  0  0  0  0  0  0  0
   -3.7784    1.3987   -0.9939 H   0  0  0  0  0  0  0  0  0  0  0  0
   -3.3179    3.2861    0.8996 N   0  0  0  0  0  0  0  0  0  0  0  0
   -4.4229    3.3482    0.3630 O   0  0  0  0  0  0  0  0  0  0  0  0
   -2.9103    4.0390    1.7754 O   0  0  0  0  0  0  0  0  0  0  0  0
    0.0705   -0.6507   -0.7220 H   0  0  0  0  0  0  0  0  0  0  0  0
  1  6  2  0  0  0  0
  1  2  1  0  0  0  0
  2  3  2  0  0  0  0
  3  4  1  0  0  0  0
  5 11  1  0  0  0  0
  5  4  2  0  0  0  0
  6  5  1  0  0  0  0
  7  1  1  0  0  0  0
  8  9  3  0  0  0  0
 10  6  1  0  0  0  0
 11 13  2  0  0  0  0
 12 11  2  0  0  0  0
 14  2  1  0  0  0  0
M  RAD  2   3   2   4   2
M  END
