Coordinates from ORCA-job 3-NO2-C6H3-N2-v2-B3LYPG-aug-cc-pVDZ-scan-d09-49-n400
 OpenBabel11091809153D

 14 13  0  0  0  0  0  0  0  0999 V2000
   -2.0110    0.2138   -1.0820 C   0  0  0  0  0  0  0  0  0  0  0  0
   -0.6970   -0.0727   -0.6288 C   0  0  0  0  0  0  0  0  0  0  0  0
   -0.3542    0.8352    0.3472 C   0  0  0  0  0  0  0  0  0  0  0  0
   -0.9556    1.8029    0.8701 C   0  0  0  0  0  0  0  0  0  0  0  0
   -2.2404    2.1075    0.4483 C   0  0  0  0  0  0  0  0  0  0  0  0
   -2.7679    1.2760   -0.5598 C   0  0  0  0  0  0  0  0  0  0  0  0
   -2.4421   -0.4156   -1.8622 H   0  0  0  0  0  0  0  0  0  0  0  0
    2.6309   -0.6988    0.6063 N   0  0  0  0  0  0  0  0  0  0  0  0
    3.4962   -0.4870    1.2584 N   0  0  0  0  0  0  0  0  0  0  0  0
   -3.7737    1.4716   -0.9274 H   0  0  0  0  0  0  0  0  0  0  0  0
   -3.0266    3.2249    1.0029 N   0  0  0  0  0  0  0  0  0  0  0  0
   -4.1569    3.4009    0.5512 O   0  0  0  0  0  0  0  0  0  0  0  0
   -2.4975    3.9012    1.8762 O   0  0  0  0  0  0  0  0  0  0  0  0
   -0.0990   -0.8903   -1.0225 H   0  0  0  0  0  0  0  0  0  0  0  0
  1  2  2  0  0  0  0
  1  6  1  0  0  0  0
  2  3  1  0  0  0  0
  3  4  2  0  0  0  0
  5  4  1  0  0  0  0
  5 11  1  0  0  0  0
  6  5  2  0  0  0  0
  7  1  1  0  0  0  0
  8  9  3  0  0  0  0
 10  6  1  0  0  0  0
 11 13  2  0  0  0  0
 12 11  2  0  0  0  0
 14  2  1  0  0  0  0
M  RAD  2   3   2   4   2
M  END
