Coordinates from ORCA-job 3-NO2-C6H3-N2-v2-B3LYPG-aug-cc-pVDZ-scan-d09-49-n400
 OpenBabel11091809153D

 14 13  0  0  0  0  0  0  0  0999 V2000
   -1.9883    0.1263   -1.1463 C   0  0  0  0  0  0  0  0  0  0  0  0
   -0.6795   -0.2483   -0.7726 C   0  0  0  0  0  0  0  0  0  0  0  0
   -0.2131    0.5917    0.2106 C   0  0  0  0  0  0  0  0  0  0  0  0
   -0.6876    1.5952    0.8327 C   0  0  0  0  0  0  0  0  0  0  0  0
   -1.9767    1.9561    0.4575 C   0  0  0  0  0  0  0  0  0  0  0  0
   -2.6351    1.2167   -0.5406 C   0  0  0  0  0  0  0  0  0  0  0  0
   -2.5021   -0.4449   -1.9201 H   0  0  0  0  0  0  0  0  0  0  0  0
    1.6408    0.0094    0.6951 N   0  0  0  0  0  0  0  0  0  0  0  0
    2.4860    0.2575    1.3659 N   0  0  0  0  0  0  0  0  0  0  0  0
   -3.6441    1.4964   -0.8366 H   0  0  0  0  0  0  0  0  0  0  0  0
   -2.6717    3.1081    1.0913 N   0  0  0  0  0  0  0  0  0  0  0  0
   -3.8117    3.3631    0.7026 O   0  0  0  0  0  0  0  0  0  0  0  0
   -2.0672    3.7276    1.9554 O   0  0  0  0  0  0  0  0  0  0  0  0
   -0.1446   -1.0854   -1.2171 H   0  0  0  0  0  0  0  0  0  0  0  0
  1  2  2  0  0  0  0
  1  6  1  0  0  0  0
  2  3  1  0  0  0  0
  3  4  2  0  0  0  0
  5  4  1  0  0  0  0
  5 11  1  0  0  0  0
  6  5  2  0  0  0  0
  7  1  1  0  0  0  0
  8  9  3  0  0  0  0
 10  6  1  0  0  0  0
 11 13  2  0  0  0  0
 12 11  2  0  0  0  0
 14  2  1  0  0  0  0
M  RAD  2   3   2   4   2
M  END
