Coordinates from ORCA-job 3-NO2-C6H3-N2-v2-B3LYPG-aug-cc-pVDZ-scan-d09-49-n400
 OpenBabel11091809153D

 14 13  0  0  0  0  0  0  0  0999 V2000
   -1.9928    0.2325   -1.0560 C   0  0  0  0  0  0  0  0  0  0  0  0
   -0.6812   -0.0233   -0.5774 C   0  0  0  0  0  0  0  0  0  0  0  0
   -0.3744    0.9015    0.3947 C   0  0  0  0  0  0  0  0  0  0  0  0
   -1.0037    1.8624    0.8971 C   0  0  0  0  0  0  0  0  0  0  0  0
   -2.2867    2.1368    0.4501 C   0  0  0  0  0  0  0  0  0  0  0  0
   -2.7797    1.2846   -0.5582 C   0  0  0  0  0  0  0  0  0  0  0  0
   -2.3977   -0.4133   -1.8368 H   0  0  0  0  0  0  0  0  0  0  0  0
    2.7505   -0.8312    0.5543 N   0  0  0  0  0  0  0  0  0  0  0  0
    3.6529   -0.6815    1.1726 N   0  0  0  0  0  0  0  0  0  0  0  0
   -3.7826    1.4561   -0.9452 H   0  0  0  0  0  0  0  0  0  0  0  0
   -3.1047    3.2437    0.9792 N   0  0  0  0  0  0  0  0  0  0  0  0
   -4.2293    3.3937    0.5045 O   0  0  0  0  0  0  0  0  0  0  0  0
   -2.6036    3.9409    1.8525 O   0  0  0  0  0  0  0  0  0  0  0  0
   -0.0620   -0.8333   -0.9535 H   0  0  0  0  0  0  0  0  0  0  0  0
  1  2  2  0  0  0  0
  1  6  1  0  0  0  0
  2  3  1  0  0  0  0
  3  4  2  0  0  0  0
  5  4  1  0  0  0  0
  5 11  1  0  0  0  0
  6  5  2  0  0  0  0
  7  1  1  0  0  0  0
  8  9  3  0  0  0  0
 10  6  1  0  0  0  0
 11 13  2  0  0  0  0
 12 11  2  0  0  0  0
 14  2  1  0  0  0  0
M  RAD  2   3   2   4   2
M  END
