Coordinates from ORCA-job 3-NO2-C6H3-N2-v2-B3LYPG-aug-cc-pVDZ-scan-d09-49-n400
 OpenBabel11091809153D

 14 14  0  0  0  0  0  0  0  0999 V2000
   -1.9162    0.0896   -1.0960 C   0  0  0  0  0  0  0  0  0  0  0  0
   -0.6356   -0.2431   -0.7152 C   0  0  0  0  0  0  0  0  0  0  0  0
   -0.0233    0.5831    0.2845 C   0  0  0  0  0  0  0  0  0  0  0  0
   -0.5856    1.7133    0.9608 C   0  0  0  0  0  0  0  0  0  0  0  0
   -1.8859    1.9335    0.4830 C   0  0  0  0  0  0  0  0  0  0  0  0
   -2.5500    1.2040   -0.4978 C   0  0  0  0  0  0  0  0  0  0  0  0
   -2.4381   -0.4950   -1.8519 H   0  0  0  0  0  0  0  0  0  0  0  0
    1.1751    0.3015    0.6383 N   0  0  0  0  0  0  0  0  0  0  0  0
    2.2243    0.0730    0.9640 N   0  0  0  0  0  0  0  0  0  0  0  0
   -3.5559    1.4902   -0.8022 H   0  0  0  0  0  0  0  0  0  0  0  0
   -2.6646    3.0834    1.0778 N   0  0  0  0  0  0  0  0  0  0  0  0
   -3.6838    3.4369    0.4791 O   0  0  0  0  0  0  0  0  0  0  0  0
   -2.2473    3.5928    2.1027 O   0  0  0  0  0  0  0  0  0  0  0  0
   -0.1081   -1.0937   -1.1493 H   0  0  0  0  0  0  0  0  0  0  0  0
  1  2  2  0  0  0  0
  1  6  1  0  0  0  0
  2  3  1  0  0  0  0
  3  8  1  0  0  0  0
  3  4  2  0  0  0  0
  5  4  1  0  0  0  0
  5 11  1  0  0  0  0
  6  5  2  0  0  0  0
  7  1  1  0  0  0  0
  8  9  1  0  0  0  0
 10  6  1  0  0  0  0
 11 13  2  0  0  0  0
 12 11  2  0  0  0  0
 14  2  1  0  0  0  0
M  RAD  3   4   2   8   2   9   3
M  END
