Coordinates from ORCA-job 3-NO2-C6H3-N2-v2-B3LYPG-aug-cc-pVDZ-scan-d09-49-n400
 OpenBabel11091809153D

 14 13  0  0  0  0  0  0  0  0999 V2000
   -1.8970    0.2959   -0.9492 C   0  0  0  0  0  0  0  0  0  0  0  0
   -0.6041    0.1535   -0.3812 C   0  0  0  0  0  0  0  0  0  0  0  0
   -0.4252    1.1334    0.5707 C   0  0  0  0  0  0  0  0  0  0  0  0
   -1.1554    2.0617    0.9905 C   0  0  0  0  0  0  0  0  0  0  0  0
   -2.4231    2.2268    0.4559 C   0  0  0  0  0  0  0  0  0  0  0  0
   -2.7875    1.3045   -0.5451 C   0  0  0  0  0  0  0  0  0  0  0  0
   -2.2040   -0.4058   -1.7266 H   0  0  0  0  0  0  0  0  0  0  0  0
    3.0232   -1.2497    0.3369 N   0  0  0  0  0  0  0  0  0  0  0  0
    4.0121   -1.2965    0.8255 N   0  0  0  0  0  0  0  0  0  0  0  0
   -3.7728    1.3873   -1.0004 H   0  0  0  0  0  0  0  0  0  0  0  0
   -3.3494    3.2891    0.8879 N   0  0  0  0  0  0  0  0  0  0  0  0
   -4.4485    3.3397    0.3385 O   0  0  0  0  0  0  0  0  0  0  0  0
   -2.9557    4.0527    1.7608 O   0  0  0  0  0  0  0  0  0  0  0  0
    0.0926   -0.6230   -0.6864 H   0  0  0  0  0  0  0  0  0  0  0  0
  1  6  2  0  0  0  0
  1  2  1  0  0  0  0
  2  3  2  0  0  0  0
  3  4  1  0  0  0  0
  5 11  1  0  0  0  0
  5  4  2  0  0  0  0
  6  5  1  0  0  0  0
  7  1  1  0  0  0  0
  8  9  3  0  0  0  0
 10  6  1  0  0  0  0
 11 13  2  0  0  0  0
 12 11  2  0  0  0  0
 14  2  1  0  0  0  0
M  RAD  2   3   2   4   2
M  END
