Coordinates from ORCA-job 3-NO2-C6H3-N2-v2-B3LYPG-aug-cc-pVDZ-scan-d09-49-n400
 OpenBabel11091809153D

 14 13  0  0  0  0  0  0  0  0999 V2000
   -1.6896    0.3761   -0.7679 C   0  0  0  0  0  0  0  0  0  0  0  0
   -0.4497    0.4054   -0.0782 C   0  0  0  0  0  0  0  0  0  0  0  0
   -0.4637    1.4470    0.8238 C   0  0  0  0  0  0  0  0  0  0  0  0
   -1.3241    2.3102    1.1169 C   0  0  0  0  0  0  0  0  0  0  0  0
   -2.5450    2.3089    0.4620 C   0  0  0  0  0  0  0  0  0  0  0  0
   -2.7143    1.3014   -0.5086 C   0  0  0  0  0  0  0  0  0  0  0  0
   -1.8460   -0.3945   -1.5246 H   0  0  0  0  0  0  0  0  0  0  0  0
    3.0395   -1.6388    0.0055 N   0  0  0  0  0  0  0  0  0  0  0  0
    4.0578   -1.9955    0.2397 N   0  0  0  0  0  0  0  0  0  0  0  0
   -3.6548    1.2530   -1.0545 H   0  0  0  0  0  0  0  0  0  0  0  0
   -3.6131    3.2851    0.7425 N   0  0  0  0  0  0  0  0  0  0  0  0
   -4.6542    3.1869    0.0952 O   0  0  0  0  0  0  0  0  0  0  0  0
   -3.3862    4.1310    1.5987 O   0  0  0  0  0  0  0  0  0  0  0  0
    0.3486   -0.3067   -0.2727 H   0  0  0  0  0  0  0  0  0  0  0  0
  1  6  2  0  0  0  0
  1  2  1  0  0  0  0
  2  3  2  0  0  0  0
  3  4  1  0  0  0  0
  5 11  1  0  0  0  0
  5  4  2  0  0  0  0
  6  5  1  0  0  0  0
  7  1  1  0  0  0  0
  8  9  3  0  0  0  0
 10  6  1  0  0  0  0
 11 13  2  0  0  0  0
 12 11  2  0  0  0  0
 14  2  1  0  0  0  0
M  RAD  2   3   2   4   2
M  END
