Coordinates from ORCA-job 3-NO2-C6H3-N2-v2-B3LYPG-aug-cc-pVDZ-scan-d09-49-n400
 OpenBabel11091809153D

 14 13  0  0  0  0  0  0  0  0999 V2000
   -1.9847    0.1242   -1.1462 C   0  0  0  0  0  0  0  0  0  0  0  0
   -0.6770   -0.2493   -0.7722 C   0  0  0  0  0  0  0  0  0  0  0  0
   -0.2055    0.5885    0.2118 C   0  0  0  0  0  0  0  0  0  0  0  0
   -0.6781    1.5957    0.8379 C   0  0  0  0  0  0  0  0  0  0  0  0
   -1.9677    1.9516    0.4582 C   0  0  0  0  0  0  0  0  0  0  0  0
   -2.6295    1.2150   -0.5391 C   0  0  0  0  0  0  0  0  0  0  0  0
   -2.4992   -0.4464   -1.9198 H   0  0  0  0  0  0  0  0  0  0  0  0
    1.6026    0.0279    0.6907 N   0  0  0  0  0  0  0  0  0  0  0  0
    2.4561    0.2646    1.3563 N   0  0  0  0  0  0  0  0  0  0  0  0
   -3.6384    1.4963   -0.8337 H   0  0  0  0  0  0  0  0  0  0  0  0
   -2.6646    3.1046    1.0918 N   0  0  0  0  0  0  0  0  0  0  0  0
   -3.8048    3.3582    0.7023 O   0  0  0  0  0  0  0  0  0  0  0  0
   -2.0622    3.7252    1.9562 O   0  0  0  0  0  0  0  0  0  0  0  0
   -0.1419   -1.0865   -1.2166 H   0  0  0  0  0  0  0  0  0  0  0  0
  1  2  2  0  0  0  0
  1  6  1  0  0  0  0
  2  3  1  0  0  0  0
  3  4  2  0  0  0  0
  5  4  1  0  0  0  0
  5 11  1  0  0  0  0
  6  5  2  0  0  0  0
  7  1  1  0  0  0  0
  8  9  3  0  0  0  0
 10  6  1  0  0  0  0
 11 13  2  0  0  0  0
 12 11  2  0  0  0  0
 14  2  1  0  0  0  0
M  RAD  2   3   2   4   2
M  END
