Coordinates from ORCA-job 3-NO2-C6H3-N2-v2-B3LYPG-aug-cc-pVDZ-scan-d09-49-n400
 OpenBabel11091809153D

 14 14  0  0  0  0  0  0  0  0999 V2000
   -1.9456    0.1097   -1.1354 C   0  0  0  0  0  0  0  0  0  0  0  0
   -0.6545   -0.2420   -0.7523 C   0  0  0  0  0  0  0  0  0  0  0  0
   -0.1265    0.5825    0.2481 C   0  0  0  0  0  0  0  0  0  0  0  0
   -0.6087    1.6545    0.9253 C   0  0  0  0  0  0  0  0  0  0  0  0
   -1.9044    1.9283    0.4716 C   0  0  0  0  0  0  0  0  0  0  0  0
   -2.5790    1.2070   -0.5182 C   0  0  0  0  0  0  0  0  0  0  0  0
   -2.4632   -0.4585   -1.9068 H   0  0  0  0  0  0  0  0  0  0  0  0
    1.3130    0.2122    0.6934 N   0  0  0  0  0  0  0  0  0  0  0  0
    2.3182    0.1326    1.1611 N   0  0  0  0  0  0  0  0  0  0  0  0
   -3.5879    1.4938   -0.8084 H   0  0  0  0  0  0  0  0  0  0  0  0
   -2.6525    3.0867    1.0824 N   0  0  0  0  0  0  0  0  0  0  0  0
   -3.7859    3.3133    0.6517 O   0  0  0  0  0  0  0  0  0  0  0  0
   -2.1017    3.7295    1.9602 O   0  0  0  0  0  0  0  0  0  0  0  0
   -0.1161   -1.0800   -1.1948 H   0  0  0  0  0  0  0  0  0  0  0  0
  1  2  2  0  0  0  0
  1  6  1  0  0  0  0
  2  3  1  0  0  0  0
  3  8  1  0  0  0  0
  3  4  2  0  0  0  0
  5  4  1  0  0  0  0
  5 11  1  0  0  0  0
  6  5  2  0  0  0  0
  7  1  1  0  0  0  0
  8  9  1  0  0  0  0
 10  6  1  0  0  0  0
 11 13  2  0  0  0  0
 12 11  2  0  0  0  0
 14  2  1  0  0  0  0
M  RAD  3   4   2   8   2   9   3
M  END
