Coordinates from ORCA-job 3-NO2-C6H3-N2-v2-B3LYPG-aug-cc-pVDZ-scan-d09-49-n400
 OpenBabel11091809153D

 14 13  0  0  0  0  0  0  0  0999 V2000
   -2.0115    0.1441   -1.1431 C   0  0  0  0  0  0  0  0  0  0  0  0
   -0.6971   -0.2281   -0.7639 C   0  0  0  0  0  0  0  0  0  0  0  0
   -0.2597    0.6268    0.2163 C   0  0  0  0  0  0  0  0  0  0  0  0
   -0.7531    1.6176    0.8165 C   0  0  0  0  0  0  0  0  0  0  0  0
   -2.0402    1.9905    0.4525 C   0  0  0  0  0  0  0  0  0  0  0  0
   -2.6747    1.2312   -0.5498 C   0  0  0  0  0  0  0  0  0  0  0  0
   -2.5165   -0.4342   -1.9183 H   0  0  0  0  0  0  0  0  0  0  0  0
    1.9120   -0.1265    0.7222 N   0  0  0  0  0  0  0  0  0  0  0  0
    2.7441    0.1382    1.3992 N   0  0  0  0  0  0  0  0  0  0  0  0
   -3.6838    1.4979   -0.8576 H   0  0  0  0  0  0  0  0  0  0  0  0
   -2.7383    3.1359    1.0780 N   0  0  0  0  0  0  0  0  0  0  0  0
   -3.8784    3.3847    0.6876 O   0  0  0  0  0  0  0  0  0  0  0  0
   -2.1361    3.7556    1.9448 O   0  0  0  0  0  0  0  0  0  0  0  0
   -0.1615   -1.0642   -1.2066 H   0  0  0  0  0  0  0  0  0  0  0  0
  1  2  2  0  0  0  0
  1  6  1  0  0  0  0
  2  3  1  0  0  0  0
  3  4  2  0  0  0  0
  5  4  1  0  0  0  0
  5 11  1  0  0  0  0
  6  5  2  0  0  0  0
  7  1  1  0  0  0  0
  8  9  3  0  0  0  0
 10  6  1  0  0  0  0
 11 13  2  0  0  0  0
 12 11  2  0  0  0  0
 14  2  1  0  0  0  0
M  RAD  2   3   2   4   2
M  END
