Coordinates from ORCA-job 3-NO2-C6H3-N2-v2-B3LYPG-aug-cc-pVDZ-scan-d09-49-n400
 OpenBabel11091809153D

 14 14  0  0  0  0  0  0  0  0999 V2000
   -1.9634    0.1136   -1.1440 C   0  0  0  0  0  0  0  0  0  0  0  0
   -0.6655   -0.2477   -0.7643 C   0  0  0  0  0  0  0  0  0  0  0  0
   -0.1608    0.5789    0.2277 C   0  0  0  0  0  0  0  0  0  0  0  0
   -0.6269    1.6204    0.8872 C   0  0  0  0  0  0  0  0  0  0  0  0
   -1.9203    1.9293    0.4641 C   0  0  0  0  0  0  0  0  0  0  0  0
   -2.5973    1.2079   -0.5284 C   0  0  0  0  0  0  0  0  0  0  0  0
   -2.4809   -0.4539   -1.9166 H   0  0  0  0  0  0  0  0  0  0  0  0
    1.3988    0.1472    0.6862 N   0  0  0  0  0  0  0  0  0  0  0  0
    2.3455    0.2256    1.2617 N   0  0  0  0  0  0  0  0  0  0  0  0
   -3.6060    1.4963   -0.8168 H   0  0  0  0  0  0  0  0  0  0  0  0
   -2.6432    3.0883    1.0887 N   0  0  0  0  0  0  0  0  0  0  0  0
   -3.7833    3.3244    0.6840 O   0  0  0  0  0  0  0  0  0  0  0  0
   -2.0648    3.7246    1.9552 O   0  0  0  0  0  0  0  0  0  0  0  0
   -0.1269   -1.0853   -1.2069 H   0  0  0  0  0  0  0  0  0  0  0  0
  1  2  2  0  0  0  0
  1  6  1  0  0  0  0
  2  3  1  0  0  0  0
  3  8  1  0  0  0  0
  3  4  2  0  0  0  0
  5  4  1  0  0  0  0
  5 11  1  0  0  0  0
  6  5  2  0  0  0  0
  7  1  1  0  0  0  0
  8  9  1  0  0  0  0
 10  6  1  0  0  0  0
 11 13  2  0  0  0  0
 12 11  2  0  0  0  0
 14  2  1  0  0  0  0
M  RAD  3   4   2   8   2   9   3
M  END
