Coordinates from ORCA-job 3-NO2-C6H3-N2-v2-B3LYPG-aug-cc-pVDZ-scan-d09-49-n400
 OpenBabel11091809153D

 14 13  0  0  0  0  0  0  0  0999 V2000
   -1.9747    0.2484   -1.0323 C   0  0  0  0  0  0  0  0  0  0  0  0
   -0.6662    0.0191   -0.5323 C   0  0  0  0  0  0  0  0  0  0  0  0
   -0.3894    0.9583    0.4357 C   0  0  0  0  0  0  0  0  0  0  0  0
   -1.0430    1.9127    0.9189 C   0  0  0  0  0  0  0  0  0  0  0  0
   -2.3236    2.1614    0.4508 C   0  0  0  0  0  0  0  0  0  0  0  0
   -2.7868    1.2914   -0.5565 C   0  0  0  0  0  0  0  0  0  0  0  0
   -2.3570   -0.4114   -1.8128 H   0  0  0  0  0  0  0  0  0  0  0  0
    2.8398   -0.9412    0.5066 N   0  0  0  0  0  0  0  0  0  0  0  0
    3.7687   -0.8417    1.0949 N   0  0  0  0  0  0  0  0  0  0  0  0
   -3.7865    1.4419   -0.9600 H   0  0  0  0  0  0  0  0  0  0  0  0
   -3.1680    3.2590    0.9570 N   0  0  0  0  0  0  0  0  0  0  0  0
   -4.2887    3.3838    0.4660 O   0  0  0  0  0  0  0  0  0  0  0  0
   -2.6928    3.9714    1.8325 O   0  0  0  0  0  0  0  0  0  0  0  0
   -0.0268   -0.7834   -0.8906 H   0  0  0  0  0  0  0  0  0  0  0  0
  1  6  2  0  0  0  0
  1  2  1  0  0  0  0
  2  3  2  0  0  0  0
  3  4  1  0  0  0  0
  5  4  2  0  0  0  0
  5 11  1  0  0  0  0
  6  5  1  0  0  0  0
  7  1  1  0  0  0  0
  8  9  3  0  0  0  0
 10  6  1  0  0  0  0
 11 13  2  0  0  0  0
 12 11  2  0  0  0  0
 14  2  1  0  0  0  0
M  RAD  2   3   2   4   2
M  END
