Coordinates from ORCA-job 3-NO2-C6H3-N2-v2-B3LYPG-aug-cc-pVDZ-scan-d09-49-n400
 OpenBabel11091809153D

 14 13  0  0  0  0  0  0  0  0999 V2000
   -1.8067    0.3376   -0.8643 C   0  0  0  0  0  0  0  0  0  0  0  0
   -0.5363    0.2796   -0.2347 C   0  0  0  0  0  0  0  0  0  0  0  0
   -0.4500    1.2921    0.6953 C   0  0  0  0  0  0  0  0  0  0  0  0
   -1.2465    2.1914    1.0537 C   0  0  0  0  0  0  0  0  0  0  0  0
   -2.4949    2.2757    0.4588 C   0  0  0  0  0  0  0  0  0  0  0  0
   -2.7652    1.3087   -0.5300 C   0  0  0  0  0  0  0  0  0  0  0  0
   -2.0408   -0.4001   -1.6336 H   0  0  0  0  0  0  0  0  0  0  0  0
    3.0927   -1.4807    0.1729 N   0  0  0  0  0  0  0  0  0  0  0  0
    4.1123   -1.6742    0.5498 N   0  0  0  0  0  0  0  0  0  0  0  0
   -3.7314    1.3276   -1.0309 H   0  0  0  0  0  0  0  0  0  0  0  0
   -3.4931    3.2993    0.8177 N   0  0  0  0  0  0  0  0  0  0  0  0
   -4.5681    3.2755    0.2207 O   0  0  0  0  0  0  0  0  0  0  0  0
   -3.1808    4.1037    1.6868 O   0  0  0  0  0  0  0  0  0  0  0  0
    0.2139   -0.4667   -0.4843 H   0  0  0  0  0  0  0  0  0  0  0  0
  1  6  2  0  0  0  0
  1  2  1  0  0  0  0
  2  3  2  0  0  0  0
  3  4  1  0  0  0  0
  5 11  1  0  0  0  0
  5  4  2  0  0  0  0
  6  5  1  0  0  0  0
  7  1  1  0  0  0  0
  8  9  3  0  0  0  0
 10  6  1  0  0  0  0
 11 13  2  0  0  0  0
 12 11  2  0  0  0  0
 14  2  1  0  0  0  0
M  RAD  2   3   2   4   2
M  END
