Coordinates from ORCA-job 3-NO2-C6H3-N2-v2-B3LYPG-aug-cc-pVDZ-scan-d09-49-n400
 OpenBabel11091809153D

 14 13  0  0  0  0  0  0  0  0999 V2000
   -2.0023    0.2229   -1.0699 C   0  0  0  0  0  0  0  0  0  0  0  0
   -0.6890   -0.0490   -0.6048 C   0  0  0  0  0  0  0  0  0  0  0  0
   -0.3649    0.8658    0.3709 C   0  0  0  0  0  0  0  0  0  0  0  0
   -0.9799    1.8291    0.8861 C   0  0  0  0  0  0  0  0  0  0  0  0
   -2.2642    2.1189    0.4523 C   0  0  0  0  0  0  0  0  0  0  0  0
   -2.7744    1.2789   -0.5578 C   0  0  0  0  0  0  0  0  0  0  0  0
   -2.4202   -0.4134   -1.8517 H   0  0  0  0  0  0  0  0  0  0  0  0
    2.6889   -0.7610    0.5810 N   0  0  0  0  0  0  0  0  0  0  0  0
    3.5724   -0.5796    1.2176 N   0  0  0  0  0  0  0  0  0  0  0  0
   -3.7790    1.4629   -0.9345 H   0  0  0  0  0  0  0  0  0  0  0  0
   -3.0667    3.2296    0.9969 N   0  0  0  0  0  0  0  0  0  0  0  0
   -4.1885    3.4027    0.5233 O   0  0  0  0  0  0  0  0  0  0  0  0
   -2.5459    3.9241    1.8608 O   0  0  0  0  0  0  0  0  0  0  0  0
   -0.0813   -0.8623   -0.9924 H   0  0  0  0  0  0  0  0  0  0  0  0
  1  2  2  0  0  0  0
  1  6  1  0  0  0  0
  2  3  1  0  0  0  0
  3  4  2  0  0  0  0
  5  4  1  0  0  0  0
  5 11  1  0  0  0  0
  6  5  2  0  0  0  0
  7  1  1  0  0  0  0
  8  9  3  0  0  0  0
 10  6  1  0  0  0  0
 11 13  2  0  0  0  0
 12 11  2  0  0  0  0
 14  2  1  0  0  0  0
M  RAD  2   3   2   4   2
M  END
