Coordinates from ORCA-job 3-NO2-C6H3-N2-v2-B3LYPG-aug-cc-pVDZ-scan-d09-49-n400
 OpenBabel11091809153D

 14 14  0  0  0  0  0  0  0  0999 V2000
   -1.9512    0.1112   -1.1388 C   0  0  0  0  0  0  0  0  0  0  0  0
   -0.6580   -0.2433   -0.7559 C   0  0  0  0  0  0  0  0  0  0  0  0
   -0.1395    0.5822    0.2416 C   0  0  0  0  0  0  0  0  0  0  0  0
   -0.6134    1.6442    0.9146 C   0  0  0  0  0  0  0  0  0  0  0  0
   -1.9084    1.9279    0.4689 C   0  0  0  0  0  0  0  0  0  0  0  0
   -2.5845    1.2073   -0.5218 C   0  0  0  0  0  0  0  0  0  0  0  0
   -2.4684   -0.4567   -1.9108 H   0  0  0  0  0  0  0  0  0  0  0  0
    1.3368    0.1940    0.6927 N   0  0  0  0  0  0  0  0  0  0  0  0
    2.3286    0.1581    1.1920 N   0  0  0  0  0  0  0  0  0  0  0  0
   -3.5934    1.4950   -0.8112 H   0  0  0  0  0  0  0  0  0  0  0  0
   -2.6491    3.0871    1.0839 N   0  0  0  0  0  0  0  0  0  0  0  0
   -3.7871    3.3127    0.6653 O   0  0  0  0  0  0  0  0  0  0  0  0
   -2.0885    3.7309    1.9553 O   0  0  0  0  0  0  0  0  0  0  0  0
   -0.1186   -1.0809   -1.1978 H   0  0  0  0  0  0  0  0  0  0  0  0
  1  2  2  0  0  0  0
  1  6  1  0  0  0  0
  2  3  1  0  0  0  0
  3  8  1  0  0  0  0
  3  4  2  0  0  0  0
  5  4  1  0  0  0  0
  5 11  1  0  0  0  0
  6  5  2  0  0  0  0
  7  1  1  0  0  0  0
  8  9  1  0  0  0  0
 10  6  1  0  0  0  0
 11 13  2  0  0  0  0
 12 11  2  0  0  0  0
 14  2  1  0  0  0  0
M  RAD  3   4   2   8   2   9   3
M  END
