Coordinates from ORCA-job 3-NO2-C6H3-N2-v2-B3LYPG-aug-cc-pVDZ-scan-d09-49-n400
 OpenBabel11091809153D

 14 13  0  0  0  0  0  0  0  0999 V2000
   -2.0179    0.2065   -1.0921 C   0  0  0  0  0  0  0  0  0  0  0  0
   -0.7033   -0.0917   -0.6489 C   0  0  0  0  0  0  0  0  0  0  0  0
   -0.3464    0.8090    0.3288 C   0  0  0  0  0  0  0  0  0  0  0  0
   -0.9370    1.7790    0.8599 C   0  0  0  0  0  0  0  0  0  0  0  0
   -2.2222    2.0951    0.4480 C   0  0  0  0  0  0  0  0  0  0  0  0
   -2.7630    1.2722   -0.5602 C   0  0  0  0  0  0  0  0  0  0  0  0
   -2.4590   -0.4162   -1.8721 H   0  0  0  0  0  0  0  0  0  0  0  0
    2.5772   -0.6376    0.6308 N   0  0  0  0  0  0  0  0  0  0  0  0
    3.4374   -0.4177    1.2872 N   0  0  0  0  0  0  0  0  0  0  0  0
   -3.7697    1.4772   -0.9201 H   0  0  0  0  0  0  0  0  0  0  0  0
   -2.9961    3.2160    1.0127 N   0  0  0  0  0  0  0  0  0  0  0  0
   -4.1273    3.4038    0.5682 O   0  0  0  0  0  0  0  0  0  0  0  0
   -2.4554    3.8855    1.8841 O   0  0  0  0  0  0  0  0  0  0  0  0
   -0.1122   -0.9114   -1.0484 H   0  0  0  0  0  0  0  0  0  0  0  0
  1  2  2  0  0  0  0
  1  6  1  0  0  0  0
  2  3  1  0  0  0  0
  3  4  2  0  0  0  0
  5  4  1  0  0  0  0
  5 11  1  0  0  0  0
  6  5  2  0  0  0  0
  7  1  1  0  0  0  0
  8  9  3  0  0  0  0
 10  6  1  0  0  0  0
 11 13  2  0  0  0  0
 12 11  2  0  0  0  0
 14  2  1  0  0  0  0
M  RAD  2   3   2   4   2
M  END
