Coordinates from ORCA-job 3-NO2-C6H3-N2-v2-B3LYPG-aug-cc-pVDZ-scan-d09-49-n400
 OpenBabel11091809153D

 14 13  0  0  0  0  0  0  0  0999 V2000
   -2.0057    0.1365   -1.1467 C   0  0  0  0  0  0  0  0  0  0  0  0
   -0.6935   -0.2398   -0.7724 C   0  0  0  0  0  0  0  0  0  0  0  0
   -0.2423    0.6080    0.2093 C   0  0  0  0  0  0  0  0  0  0  0  0
   -0.7279    1.6020    0.8170 C   0  0  0  0  0  0  0  0  0  0  0  0
   -2.0153    1.9758    0.4539 C   0  0  0  0  0  0  0  0  0  0  0  0
   -2.6605    1.2254   -0.5469 C   0  0  0  0  0  0  0  0  0  0  0  0
   -2.5161   -0.4376   -1.9212 H   0  0  0  0  0  0  0  0  0  0  0  0
    1.8129   -0.0707    0.7177 N   0  0  0  0  0  0  0  0  0  0  0  0
    2.6385    0.2038    1.4000 N   0  0  0  0  0  0  0  0  0  0  0  0
   -3.6696    1.4987   -0.8487 H   0  0  0  0  0  0  0  0  0  0  0  0
   -2.7079    3.1237    1.0852 N   0  0  0  0  0  0  0  0  0  0  0  0
   -3.8476    3.3790    0.6975 O   0  0  0  0  0  0  0  0  0  0  0  0
   -2.1007    3.7411    1.9498 O   0  0  0  0  0  0  0  0  0  0  0  0
   -0.1592   -1.0764   -1.2167 H   0  0  0  0  0  0  0  0  0  0  0  0
  1  2  2  0  0  0  0
  1  6  1  0  0  0  0
  2  3  1  0  0  0  0
  3  4  2  0  0  0  0
  5  4  1  0  0  0  0
  5 11  1  0  0  0  0
  6  5  2  0  0  0  0
  7  1  1  0  0  0  0
  8  9  3  0  0  0  0
 10  6  1  0  0  0  0
 11 13  2  0  0  0  0
 12 11  2  0  0  0  0
 14  2  1  0  0  0  0
M  RAD  2   3   2   4   2
M  END
