Coordinates from ORCA-job 3-NO2-C6H3-N2-v2-B3LYPG-aug-cc-pVDZ-scan-d09-49-n400
 OpenBabel11091809153D

 14 13  0  0  0  0  0  0  0  0999 V2000
   -2.0172    0.1494   -1.1417 C   0  0  0  0  0  0  0  0  0  0  0  0
   -0.7026   -0.2187   -0.7589 C   0  0  0  0  0  0  0  0  0  0  0  0
   -0.2684    0.6388    0.2223 C   0  0  0  0  0  0  0  0  0  0  0  0
   -0.7716    1.6269    0.8153 C   0  0  0  0  0  0  0  0  0  0  0  0
   -2.0585    1.9994    0.4514 C   0  0  0  0  0  0  0  0  0  0  0  0
   -2.6859    1.2352   -0.5519 C   0  0  0  0  0  0  0  0  0  0  0  0
   -2.5184   -0.4316   -1.9173 H   0  0  0  0  0  0  0  0  0  0  0  0
    1.9837   -0.1649    0.7269 N   0  0  0  0  0  0  0  0  0  0  0  0
    2.8206    0.0925    1.4003 N   0  0  0  0  0  0  0  0  0  0  0  0
   -3.6951    1.4979   -0.8630 H   0  0  0  0  0  0  0  0  0  0  0  0
   -2.7600    3.1427    1.0738 N   0  0  0  0  0  0  0  0  0  0  0  0
   -3.8990    3.3899    0.6797 O   0  0  0  0  0  0  0  0  0  0  0  0
   -2.1595    3.7656    1.9398 O   0  0  0  0  0  0  0  0  0  0  0  0
   -0.1630   -1.0536   -1.1988 H   0  0  0  0  0  0  0  0  0  0  0  0
  1  2  2  0  0  0  0
  1  6  1  0  0  0  0
  2  3  1  0  0  0  0
  3  4  2  0  0  0  0
  5  4  1  0  0  0  0
  5 11  1  0  0  0  0
  6  5  2  0  0  0  0
  7  1  1  0  0  0  0
  8  9  3  0  0  0  0
 10  6  1  0  0  0  0
 11 13  2  0  0  0  0
 12 11  2  0  0  0  0
 14  2  1  0  0  0  0
M  RAD  2   3   2   4   2
M  END
