Coordinates from ORCA-job 3-NO2-C6H3-N2-v2-B3LYPG-aug-cc-pVDZ-scan-d09-49-n400
 OpenBabel11091809153D

 14 13  0  0  0  0  0  0  0  0999 V2000
   -1.9912    0.2344   -1.0533 C   0  0  0  0  0  0  0  0  0  0  0  0
   -0.6799   -0.0182   -0.5721 C   0  0  0  0  0  0  0  0  0  0  0  0
   -0.3758    0.9083    0.3994 C   0  0  0  0  0  0  0  0  0  0  0  0
   -1.0082    1.8685    0.8992 C   0  0  0  0  0  0  0  0  0  0  0  0
   -2.2909    2.1400    0.4496 C   0  0  0  0  0  0  0  0  0  0  0  0
   -2.7808    1.2857   -0.5584 C   0  0  0  0  0  0  0  0  0  0  0  0
   -2.3934   -0.4133   -1.8340 H   0  0  0  0  0  0  0  0  0  0  0  0
    2.7615   -0.8443    0.5491 N   0  0  0  0  0  0  0  0  0  0  0  0
    3.6674   -0.7007    1.1637 N   0  0  0  0  0  0  0  0  0  0  0  0
   -3.7833    1.4549   -0.9472 H   0  0  0  0  0  0  0  0  0  0  0  0
   -3.1116    3.2461    0.9757 N   0  0  0  0  0  0  0  0  0  0  0  0
   -4.2367    3.3917    0.5007 O   0  0  0  0  0  0  0  0  0  0  0  0
   -2.6143    3.9438    1.8508 O   0  0  0  0  0  0  0  0  0  0  0  0
   -0.0579   -0.8273   -0.9455 H   0  0  0  0  0  0  0  0  0  0  0  0
  1  2  2  0  0  0  0
  1  6  1  0  0  0  0
  2  3  1  0  0  0  0
  3  4  2  0  0  0  0
  5  4  1  0  0  0  0
  5 11  1  0  0  0  0
  6  5  2  0  0  0  0
  7  1  1  0  0  0  0
  8  9  3  0  0  0  0
 10  6  1  0  0  0  0
 11 13  2  0  0  0  0
 12 11  2  0  0  0  0
 14  2  1  0  0  0  0
M  RAD  2   3   2   4   2
M  END
