Coordinates from ORCA-job 3-NO2-C6H3-N2-v2-B3LYPG-aug-cc-pVDZ-scan-d09-49-n400
 OpenBabel11091809153D

 14 14  0  0  0  0  0  0  0  0999 V2000
   -1.8938    0.0795   -1.0673 C   0  0  0  0  0  0  0  0  0  0  0  0
   -0.6332   -0.2603   -0.6694 C   0  0  0  0  0  0  0  0  0  0  0  0
    0.1358    0.5396    0.3085 C   0  0  0  0  0  0  0  0  0  0  0  0
   -0.5699    1.7722    0.9791 C   0  0  0  0  0  0  0  0  0  0  0  0
   -1.8698    1.9316    0.4866 C   0  0  0  0  0  0  0  0  0  0  0  0
   -2.5208    1.2151   -0.5099 C   0  0  0  0  0  0  0  0  0  0  0  0
   -2.4111   -0.5246   -1.8115 H   0  0  0  0  0  0  0  0  0  0  0  0
    0.9880    0.3561    0.5323 N   0  0  0  0  0  0  0  0  0  0  0  0
    2.0931    0.1323    0.8338 N   0  0  0  0  0  0  0  0  0  0  0  0
   -3.5074    1.5302   -0.8484 H   0  0  0  0  0  0  0  0  0  0  0  0
   -2.6610    3.0663    1.0888 N   0  0  0  0  0  0  0  0  0  0  0  0
   -3.5933    3.5098    0.4181 O   0  0  0  0  0  0  0  0  0  0  0  0
   -2.3389    3.4595    2.1955 O   0  0  0  0  0  0  0  0  0  0  0  0
   -0.1127   -1.1378   -1.0587 H   0  0  0  0  0  0  0  0  0  0  0  0
  1  2  2  0  0  0  0
  1  6  1  0  0  0  0
  2  3  1  0  0  0  0
  3  8  1  0  0  0  0
  3  4  2  0  0  0  0
  5  4  1  0  0  0  0
  5 11  1  0  0  0  0
  6  5  2  0  0  0  0
  7  1  1  0  0  0  0
  8  9  1  0  0  0  0
 10  6  1  0  0  0  0
 11 13  2  0  0  0  0
 12 11  2  0  0  0  0
 14  2  1  0  0  0  0
M  RAD  3   4   2   8   2   9   3
M  END
