Coordinates from ORCA-job 3-NO2-C6H3-N2-v2-B3LYPG-aug-cc-pVDZ-scan-d09-49-n400
 OpenBabel11091809153D

 14 13  0  0  0  0  0  0  0  0999 V2000
   -1.8409    0.3228   -0.8956 C   0  0  0  0  0  0  0  0  0  0  0  0
   -0.5614    0.2341   -0.2879 C   0  0  0  0  0  0  0  0  0  0  0  0
   -0.4416    1.2360    0.6504 C   0  0  0  0  0  0  0  0  0  0  0  0
   -1.2147    2.1465    1.0307 C   0  0  0  0  0  0  0  0  0  0  0  0
   -2.4708    2.2602    0.4572 C   0  0  0  0  0  0  0  0  0  0  0  0
   -2.7753    1.3083   -0.5362 C   0  0  0  0  0  0  0  0  0  0  0  0
   -2.1017   -0.4025   -1.6680 H   0  0  0  0  0  0  0  0  0  0  0  0
    3.0774   -1.4037    0.2324 N   0  0  0  0  0  0  0  0  0  0  0  0
    4.0892   -1.5439    0.6514 N   0  0  0  0  0  0  0  0  0  0  0  0
   -3.7491    1.3503   -1.0210 H   0  0  0  0  0  0  0  0  0  0  0  0
   -3.4435    3.2987    0.8424 N   0  0  0  0  0  0  0  0  0  0  0  0
   -4.5291    3.2997    0.2646 O   0  0  0  0  0  0  0  0  0  0  0  0
   -3.1027    4.0871    1.7154 O   0  0  0  0  0  0  0  0  0  0  0  0
    0.1694   -0.5240   -0.5580 H   0  0  0  0  0  0  0  0  0  0  0  0
  1  6  2  0  0  0  0
  1  2  1  0  0  0  0
  2  3  2  0  0  0  0
  3  4  1  0  0  0  0
  5 11  1  0  0  0  0
  5  4  2  0  0  0  0
  6  5  1  0  0  0  0
  7  1  1  0  0  0  0
  8  9  3  0  0  0  0
 10  6  1  0  0  0  0
 11 13  2  0  0  0  0
 12 11  2  0  0  0  0
 14  2  1  0  0  0  0
M  RAD  2   3   2   4   2
M  END
