Coordinates from ORCA-job 3-NO2-C6H3-N2-v2-B3LYPG-aug-cc-pVDZ-scan-d09-49-n400
 OpenBabel11091809153D

 14 14  0  0  0  0  0  0  0  0999 V2000
   -1.9013    0.0832   -1.0794 C   0  0  0  0  0  0  0  0  0  0  0  0
   -0.6314   -0.2512   -0.6882 C   0  0  0  0  0  0  0  0  0  0  0  0
    0.0456    0.5737    0.3016 C   0  0  0  0  0  0  0  0  0  0  0  0
   -0.5727    1.7413    0.9670 C   0  0  0  0  0  0  0  0  0  0  0  0
   -1.8745    1.9344    0.4833 C   0  0  0  0  0  0  0  0  0  0  0  0
   -2.5318    1.2114   -0.5033 C   0  0  0  0  0  0  0  0  0  0  0  0
   -2.4217   -0.5125   -1.8278 H   0  0  0  0  0  0  0  0  0  0  0  0
    1.0816    0.3323    0.5834 N   0  0  0  0  0  0  0  0  0  0  0  0
    2.1519    0.0957    0.8848 N   0  0  0  0  0  0  0  0  0  0  0  0
   -3.5281    1.5108   -0.8266 H   0  0  0  0  0  0  0  0  0  0  0  0
   -2.6619    3.0754    1.0823 N   0  0  0  0  0  0  0  0  0  0  0  0
   -3.6360    3.4762    0.4416 O   0  0  0  0  0  0  0  0  0  0  0  0
   -2.3024    3.5174    2.1587 O   0  0  0  0  0  0  0  0  0  0  0  0
   -0.1122   -1.1185   -1.0996 H   0  0  0  0  0  0  0  0  0  0  0  0
  1  2  2  0  0  0  0
  1  6  1  0  0  0  0
  2  3  1  0  0  0  0
  3  8  1  0  0  0  0
  3  4  2  0  0  0  0
  5  4  1  0  0  0  0
  5 11  1  0  0  0  0
  6  5  2  0  0  0  0
  7  1  1  0  0  0  0
  8  9  1  0  0  0  0
 10  6  1  0  0  0  0
 11 13  2  0  0  0  0
 12 11  2  0  0  0  0
 14  2  1  0  0  0  0
M  RAD  3   4   2   8   2   9   3
M  END
