Coordinates from ORCA-job 3-NO2-C6H3-N2-v2-B3LYPG-aug-cc-pVDZ-scan-d09-49-n400
 OpenBabel11091809153D

 14 14  0  0  0  0  0  0  0  0999 V2000
   -1.9726    0.1176   -1.1454 C   0  0  0  0  0  0  0  0  0  0  0  0
   -0.6695   -0.2504   -0.7689 C   0  0  0  0  0  0  0  0  0  0  0  0
   -0.1812    0.5810    0.2182 C   0  0  0  0  0  0  0  0  0  0  0  0
   -0.6477    1.6036    0.8609 C   0  0  0  0  0  0  0  0  0  0  0  0
   -1.9392    1.9376    0.4609 C   0  0  0  0  0  0  0  0  0  0  0  0
   -2.6109    1.2101   -0.5337 C   0  0  0  0  0  0  0  0  0  0  0  0
   -2.4890   -0.4512   -1.9184 H   0  0  0  0  0  0  0  0  0  0  0  0
    1.4798    0.0928    0.6819 N   0  0  0  0  0  0  0  0  0  0  0  0
    2.3766    0.2644    1.3130 N   0  0  0  0  0  0  0  0  0  0  0  0
   -3.6196    1.4961   -0.8243 H   0  0  0  0  0  0  0  0  0  0  0  0
   -2.6468    3.0944    1.0917 N   0  0  0  0  0  0  0  0  0  0  0  0
   -3.7875    3.3405    0.6967 O   0  0  0  0  0  0  0  0  0  0  0  0
   -2.0548    3.7211    1.9575 O   0  0  0  0  0  0  0  0  0  0  0  0
   -0.1325   -1.0879   -1.2122 H   0  0  0  0  0  0  0  0  0  0  0  0
  1  2  2  0  0  0  0
  1  6  1  0  0  0  0
  2  3  1  0  0  0  0
  3  8  1  0  0  0  0
  3  4  2  0  0  0  0
  5  4  1  0  0  0  0
  5 11  1  0  0  0  0
  6  5  2  0  0  0  0
  7  1  1  0  0  0  0
  8  9  2  0  0  0  0
 10  6  1  0  0  0  0
 11 13  2  0  0  0  0
 12 11  2  0  0  0  0
 14  2  1  0  0  0  0
M  RAD  2   4   2   9   2
M  END
