Coordinates from ORCA-job 3-NO2-C6H3-N2-v2-B3LYPG-aug-cc-pVDZ-scan-d09-49-n400
 OpenBabel11091809153D

 14 13  0  0  0  0  0  0  0  0999 V2000
   -1.9869    0.1255   -1.1463 C   0  0  0  0  0  0  0  0  0  0  0  0
   -0.6785   -0.2488   -0.7725 C   0  0  0  0  0  0  0  0  0  0  0  0
   -0.2101    0.5904    0.2110 C   0  0  0  0  0  0  0  0  0  0  0  0
   -0.6837    1.5954    0.8348 C   0  0  0  0  0  0  0  0  0  0  0  0
   -1.9730    1.9543    0.4578 C   0  0  0  0  0  0  0  0  0  0  0  0
   -2.6329    1.2161   -0.5400 C   0  0  0  0  0  0  0  0  0  0  0  0
   -2.5010   -0.4455   -1.9200 H   0  0  0  0  0  0  0  0  0  0  0  0
    1.6255    0.0169    0.6934 N   0  0  0  0  0  0  0  0  0  0  0  0
    2.4741    0.2604    1.3622 N   0  0  0  0  0  0  0  0  0  0  0  0
   -3.6418    1.4964   -0.8354 H   0  0  0  0  0  0  0  0  0  0  0  0
   -2.6688    3.1068    1.0914 N   0  0  0  0  0  0  0  0  0  0  0  0
   -3.8090    3.3611    0.7025 O   0  0  0  0  0  0  0  0  0  0  0  0
   -2.0652    3.7266    1.9558 O   0  0  0  0  0  0  0  0  0  0  0  0
   -0.1436   -1.0859   -1.2170 H   0  0  0  0  0  0  0  0  0  0  0  0
  1  2  2  0  0  0  0
  1  6  1  0  0  0  0
  2  3  1  0  0  0  0
  3  4  2  0  0  0  0
  5  4  1  0  0  0  0
  5 11  1  0  0  0  0
  6  5  2  0  0  0  0
  7  1  1  0  0  0  0
  8  9  3  0  0  0  0
 10  6  1  0  0  0  0
 11 13  2  0  0  0  0
 12 11  2  0  0  0  0
 14  2  1  0  0  0  0
M  RAD  2   3   2   4   2
M  END
