Coordinates from ORCA-job 3-NO2-C6H3-N2-v2-B3LYPG-aug-cc-pVDZ-scan-d09-49-n400
 OpenBabel11091809153D

 14 13  0  0  0  0  0  0  0  0999 V2000
   -2.0201    0.1537   -1.1394 C   0  0  0  0  0  0  0  0  0  0  0  0
   -0.7049   -0.2113   -0.7537 C   0  0  0  0  0  0  0  0  0  0  0  0
   -0.2767    0.6492    0.2268 C   0  0  0  0  0  0  0  0  0  0  0  0
   -0.7853    1.6360    0.8157 C   0  0  0  0  0  0  0  0  0  0  0  0
   -2.0719    2.0070    0.4505 C   0  0  0  0  0  0  0  0  0  0  0  0
   -2.6936    1.2385   -0.5533 C   0  0  0  0  0  0  0  0  0  0  0  0
   -2.5181   -0.4297   -1.9154 H   0  0  0  0  0  0  0  0  0  0  0  0
    2.0372   -0.1968    0.7276 N   0  0  0  0  0  0  0  0  0  0  0  0
    2.8770    0.0560    1.3989 N   0  0  0  0  0  0  0  0  0  0  0  0
   -3.7028    1.4976   -0.8676 H   0  0  0  0  0  0  0  0  0  0  0  0
   -2.7769    3.1490    1.0696 N   0  0  0  0  0  0  0  0  0  0  0  0
   -3.9159    3.3927    0.6736 O   0  0  0  0  0  0  0  0  0  0  0  0
   -2.1794    3.7737    1.9365 O   0  0  0  0  0  0  0  0  0  0  0  0
   -0.1635   -1.0458   -1.1921 H   0  0  0  0  0  0  0  0  0  0  0  0
  1  2  2  0  0  0  0
  1  6  1  0  0  0  0
  2  3  1  0  0  0  0
  3  4  2  0  0  0  0
  5  4  1  0  0  0  0
  5 11  1  0  0  0  0
  6  5  2  0  0  0  0
  7  1  1  0  0  0  0
  8  9  3  0  0  0  0
 10  6  1  0  0  0  0
 11 13  2  0  0  0  0
 12 11  2  0  0  0  0
 14  2  1  0  0  0  0
M  RAD  2   3   2   4   2
M  END
