Coordinates from ORCA-job 3-NO2-C6H3-N2-v2-B3LYPG-aug-cc-pVDZ-scan-d09-49-n400
 OpenBabel11091809153D

 14 14  0  0  0  0  0  0  0  0999 V2000
   -1.9440    0.1091   -1.1336 C   0  0  0  0  0  0  0  0  0  0  0  0
   -0.6538   -0.2409   -0.7502 C   0  0  0  0  0  0  0  0  0  0  0  0
   -0.1221    0.5835    0.2506 C   0  0  0  0  0  0  0  0  0  0  0  0
   -0.6078    1.6595    0.9289 C   0  0  0  0  0  0  0  0  0  0  0  0
   -1.9037    1.9290    0.4720 C   0  0  0  0  0  0  0  0  0  0  0  0
   -2.5776    1.2071   -0.5171 C   0  0  0  0  0  0  0  0  0  0  0  0
   -2.4616   -0.4599   -1.9043 H   0  0  0  0  0  0  0  0  0  0  0  0
    1.3083    0.2188    0.6947 N   0  0  0  0  0  0  0  0  0  0  0  0
    2.3186    0.1197    1.1475 N   0  0  0  0  0  0  0  0  0  0  0  0
   -3.5865    1.4934   -0.8079 H   0  0  0  0  0  0  0  0  0  0  0  0
   -2.6544    3.0874    1.0809 N   0  0  0  0  0  0  0  0  0  0  0  0
   -3.7851    3.3160    0.6437 O   0  0  0  0  0  0  0  0  0  0  0  0
   -2.1097    3.7261    1.9653 O   0  0  0  0  0  0  0  0  0  0  0  0
   -0.1155   -1.0794   -1.1924 H   0  0  0  0  0  0  0  0  0  0  0  0
  1  2  2  0  0  0  0
  1  6  1  0  0  0  0
  2  3  1  0  0  0  0
  3  8  1  0  0  0  0
  3  4  2  0  0  0  0
  5  4  1  0  0  0  0
  5 11  1  0  0  0  0
  6  5  2  0  0  0  0
  7  1  1  0  0  0  0
  8  9  1  0  0  0  0
 10  6  1  0  0  0  0
 11 13  2  0  0  0  0
 12 11  2  0  0  0  0
 14  2  1  0  0  0  0
M  RAD  3   4   2   8   2   9   3
M  END
