Coordinates from ORCA-job 3-NO2-C6H3-N2-v2-B3LYPG-aug-cc-pVDZ-scan-d09-49-n400
 OpenBabel11091809153D

 14 14  0  0  0  0  0  0  0  0999 V2000
   -1.9005    0.0826   -1.0778 C   0  0  0  0  0  0  0  0  0  0  0  0
   -0.6327   -0.2526   -0.6838 C   0  0  0  0  0  0  0  0  0  0  0  0
    0.0548    0.5714    0.3032 C   0  0  0  0  0  0  0  0  0  0  0  0
   -0.5722    1.7455    0.9670 C   0  0  0  0  0  0  0  0  0  0  0  0
   -1.8742    1.9340    0.4830 C   0  0  0  0  0  0  0  0  0  0  0  0
   -2.5302    1.2131   -0.5058 C   0  0  0  0  0  0  0  0  0  0  0  0
   -2.4203   -0.5149   -1.8252 H   0  0  0  0  0  0  0  0  0  0  0  0
    1.0732    0.3357    0.5764 N   0  0  0  0  0  0  0  0  0  0  0  0
    2.1472    0.1006    0.8752 N   0  0  0  0  0  0  0  0  0  0  0  0
   -3.5244    1.5158   -0.8329 H   0  0  0  0  0  0  0  0  0  0  0  0
   -2.6627    3.0729    1.0842 N   0  0  0  0  0  0  0  0  0  0  0  0
   -3.6297    3.4821    0.4383 O   0  0  0  0  0  0  0  0  0  0  0  0
   -2.3090    3.5063    2.1659 O   0  0  0  0  0  0  0  0  0  0  0  0
   -0.1142   -1.1231   -1.0900 H   0  0  0  0  0  0  0  0  0  0  0  0
  1  2  2  0  0  0  0
  1  6  1  0  0  0  0
  2  3  1  0  0  0  0
  3  8  1  0  0  0  0
  3  4  2  0  0  0  0
  5  4  1  0  0  0  0
  5 11  1  0  0  0  0
  6  5  2  0  0  0  0
  7  1  1  0  0  0  0
  8  9  1  0  0  0  0
 10  6  1  0  0  0  0
 11 13  2  0  0  0  0
 12 11  2  0  0  0  0
 14  2  1  0  0  0  0
M  RAD  3   4   2   8   2   9   3
M  END
