Coordinates from ORCA-job 3-NO2-C6H3-N2-v2-B3LYPG-aug-cc-pVDZ-scan-d09-49-n400
 OpenBabel11091809153D

 14 13  0  0  0  0  0  0  0  0999 V2000
   -1.9559    0.2621   -1.0103 C   0  0  0  0  0  0  0  0  0  0  0  0
   -0.6513    0.0580   -0.4903 C   0  0  0  0  0  0  0  0  0  0  0  0
   -0.4006    1.0086    0.4735 C   0  0  0  0  0  0  0  0  0  0  0  0
   -1.0765    1.9564    0.9391 C   0  0  0  0  0  0  0  0  0  0  0  0
   -2.3543    2.1815    0.4517 C   0  0  0  0  0  0  0  0  0  0  0  0
   -2.7904    1.2961   -0.5543 C   0  0  0  0  0  0  0  0  0  0  0  0
   -2.3171   -0.4102   -1.7903 H   0  0  0  0  0  0  0  0  0  0  0  0
    2.9064   -1.0350    0.4608 N   0  0  0  0  0  0  0  0  0  0  0  0
    3.8557   -0.9786    1.0217 N   0  0  0  0  0  0  0  0  0  0  0  0
   -3.7867    1.4279   -0.9725 H   0  0  0  0  0  0  0  0  0  0  0  0
   -3.2221    3.2701    0.9372 N   0  0  0  0  0  0  0  0  0  0  0  0
   -4.3380    3.3732    0.4305 O   0  0  0  0  0  0  0  0  0  0  0  0
   -2.7700    3.9966    1.8133 O   0  0  0  0  0  0  0  0  0  0  0  0
    0.0059   -0.7370   -0.8325 H   0  0  0  0  0  0  0  0  0  0  0  0
  1  6  2  0  0  0  0
  1  2  1  0  0  0  0
  2  3  2  0  0  0  0
  3  4  1  0  0  0  0
  5 11  1  0  0  0  0
  5  4  2  0  0  0  0
  6  5  1  0  0  0  0
  7  1  1  0  0  0  0
  8  9  3  0  0  0  0
 10  6  1  0  0  0  0
 11 13  2  0  0  0  0
 12 11  2  0  0  0  0
 14  2  1  0  0  0  0
M  RAD  2   3   2   4   2
M  END
