Coordinates from ORCA-job 3-NO2-C6H3-N2-v2-B3LYPG-aug-cc-pVDZ-scan-d09-49-n400
 OpenBabel11091809153D

 14 13  0  0  0  0  0  0  0  0999 V2000
   -2.0242    0.1962   -1.1044 C   0  0  0  0  0  0  0  0  0  0  0  0
   -0.7090   -0.1175   -0.6743 C   0  0  0  0  0  0  0  0  0  0  0  0
   -0.3346    0.7745    0.3047 C   0  0  0  0  0  0  0  0  0  0  0  0
   -0.9097    1.7479    0.8467 C   0  0  0  0  0  0  0  0  0  0  0  0
   -2.1953    2.0784    0.4470 C   0  0  0  0  0  0  0  0  0  0  0  0
   -2.7537    1.2667   -0.5605 C   0  0  0  0  0  0  0  0  0  0  0  0
   -2.4784   -0.4180   -1.8837 H   0  0  0  0  0  0  0  0  0  0  0  0
    2.4875   -0.5437    0.6651 N   0  0  0  0  0  0  0  0  0  0  0  0
    3.3514   -0.3292    1.3183 N   0  0  0  0  0  0  0  0  0  0  0  0
   -3.7613    1.4837   -0.9104 H   0  0  0  0  0  0  0  0  0  0  0  0
   -2.9529    3.2043    1.0243 N   0  0  0  0  0  0  0  0  0  0  0  0
   -4.0869    3.4045    0.5919 O   0  0  0  0  0  0  0  0  0  0  0  0
   -2.3989    3.8626    1.8957 O   0  0  0  0  0  0  0  0  0  0  0  0
   -0.1290   -0.9408   -1.0826 H   0  0  0  0  0  0  0  0  0  0  0  0
  1  2  2  0  0  0  0
  1  6  1  0  0  0  0
  2  3  1  0  0  0  0
  3  4  2  0  0  0  0
  5  4  1  0  0  0  0
  5 11  1  0  0  0  0
  6  5  2  0  0  0  0
  7  1  1  0  0  0  0
  8  9  3  0  0  0  0
 10  6  1  0  0  0  0
 11 13  2  0  0  0  0
 12 11  2  0  0  0  0
 14  2  1  0  0  0  0
M  RAD  2   3   2   4   2
M  END
