Coordinates from ORCA-job 3-NO2-C6H3-N2-v2-B3LYPG-aug-cc-pVDZ-scan-d09-49-n400
 OpenBabel11091809153D

 14 13  0  0  0  0  0  0  0  0999 V2000
   -2.0273    0.1850   -1.1157 C   0  0  0  0  0  0  0  0  0  0  0  0
   -0.7116   -0.1440   -0.6983 C   0  0  0  0  0  0  0  0  0  0  0  0
   -0.3219    0.7400    0.2806 C   0  0  0  0  0  0  0  0  0  0  0  0
   -0.8785    1.7177    0.8349 C   0  0  0  0  0  0  0  0  0  0  0  0
   -2.1644    2.0611    0.4459 C   0  0  0  0  0  0  0  0  0  0  0  0
   -2.7408    1.2603   -0.5603 C   0  0  0  0  0  0  0  0  0  0  0  0
   -2.4945   -0.4209   -1.8938 H   0  0  0  0  0  0  0  0  0  0  0  0
    2.3774   -0.4394    0.6979 N   0  0  0  0  0  0  0  0  0  0  0  0
    3.2514   -0.2399    1.3427 N   0  0  0  0  0  0  0  0  0  0  0  0
   -3.7491    1.4893   -0.9004 H   0  0  0  0  0  0  0  0  0  0  0  0
   -2.9064    3.1923    1.0344 N   0  0  0  0  0  0  0  0  0  0  0  0
   -4.0442    3.4016    0.6167 O   0  0  0  0  0  0  0  0  0  0  0  0
   -2.3414    3.8377    1.9084 O   0  0  0  0  0  0  0  0  0  0  0  0
   -0.1435   -0.9713   -1.1153 H   0  0  0  0  0  0  0  0  0  0  0  0
  1  2  2  0  0  0  0
  1  6  1  0  0  0  0
  2  3  1  0  0  0  0
  3  4  2  0  0  0  0
  5  4  1  0  0  0  0
  5 11  1  0  0  0  0
  6  5  2  0  0  0  0
  7  1  1  0  0  0  0
  8  9  3  0  0  0  0
 10  6  1  0  0  0  0
 11 13  2  0  0  0  0
 12 11  2  0  0  0  0
 14  2  1  0  0  0  0
M  RAD  2   3   2   4   2
M  END
