Coordinates from ORCA-job 3-NO2-C6H3-N2-v2-B3LYPG-aug-cc-pVDZ-scan-d09-49-n400
 OpenBabel11091809153D

 14 14  0  0  0  0  0  0  0  0999 V2000
   -1.9170    0.0902   -1.0972 C   0  0  0  0  0  0  0  0  0  0  0  0
   -0.6360   -0.2432   -0.7165 C   0  0  0  0  0  0  0  0  0  0  0  0
   -0.0276    0.5836    0.2829 C   0  0  0  0  0  0  0  0  0  0  0  0
   -0.5854    1.7118    0.9592 C   0  0  0  0  0  0  0  0  0  0  0  0
   -1.8855    1.9343    0.4820 C   0  0  0  0  0  0  0  0  0  0  0  0
   -2.5505    1.2044   -0.4983 C   0  0  0  0  0  0  0  0  0  0  0  0
   -2.4393   -0.4939   -1.8532 H   0  0  0  0  0  0  0  0  0  0  0  0
    1.1797    0.2995    0.6413 N   0  0  0  0  0  0  0  0  0  0  0  0
    2.2275    0.0726    0.9698 N   0  0  0  0  0  0  0  0  0  0  0  0
   -3.5566    1.4904   -0.8019 H   0  0  0  0  0  0  0  0  0  0  0  0
   -2.6629    3.0855    1.0761 N   0  0  0  0  0  0  0  0  0  0  0  0
   -3.6893    3.4309    0.4850 O   0  0  0  0  0  0  0  0  0  0  0  0
   -2.2438    3.5967    2.0994 O   0  0  0  0  0  0  0  0  0  0  0  0
   -0.1082   -1.0934   -1.1509 H   0  0  0  0  0  0  0  0  0  0  0  0
  1  2  2  0  0  0  0
  1  6  1  0  0  0  0
  2  3  1  0  0  0  0
  3  8  1  0  0  0  0
  3  4  2  0  0  0  0
  5  4  1  0  0  0  0
  5 11  1  0  0  0  0
  6  5  2  0  0  0  0
  7  1  1  0  0  0  0
  8  9  1  0  0  0  0
 10  6  1  0  0  0  0
 11 13  2  0  0  0  0
 12 11  2  0  0  0  0
 14  2  1  0  0  0  0
M  RAD  3   4   2   8   2   9   3
M  END
