Coordinates from ORCA-job 3-NO2-C6H3-N2-v2-B3LYPG-aug-cc-pVDZ-scan-d09-49-n400
 OpenBabel11091809153D

 14 13  0  0  0  0  0  0  0  0999 V2000
   -1.8348    0.3255   -0.8900 C   0  0  0  0  0  0  0  0  0  0  0  0
   -0.5569    0.2421   -0.2784 C   0  0  0  0  0  0  0  0  0  0  0  0
   -0.4433    1.2458    0.6589 C   0  0  0  0  0  0  0  0  0  0  0  0
   -1.2208    2.1540    1.0355 C   0  0  0  0  0  0  0  0  0  0  0  0
   -2.4756    2.2625    0.4582 C   0  0  0  0  0  0  0  0  0  0  0  0
   -2.7738    1.3082   -0.5348 C   0  0  0  0  0  0  0  0  0  0  0  0
   -2.0908   -0.4018   -1.6622 H   0  0  0  0  0  0  0  0  0  0  0  0
    3.0807   -1.4175    0.2214 N   0  0  0  0  0  0  0  0  0  0  0  0
    4.0942   -1.5673    0.6331 N   0  0  0  0  0  0  0  0  0  0  0  0
   -3.7462    1.3460   -1.0225 H   0  0  0  0  0  0  0  0  0  0  0  0
   -3.4531    3.2980    0.8391 N   0  0  0  0  0  0  0  0  0  0  0  0
   -4.5356    3.2968    0.2553 O   0  0  0  0  0  0  0  0  0  0  0  0
   -3.1163    4.0912    1.7094 O   0  0  0  0  0  0  0  0  0  0  0  0
    0.1775   -0.5138   -0.5451 H   0  0  0  0  0  0  0  0  0  0  0  0
  1  6  2  0  0  0  0
  1  2  1  0  0  0  0
  2  3  2  0  0  0  0
  3  4  1  0  0  0  0
  5 11  1  0  0  0  0
  5  4  2  0  0  0  0
  6  5  1  0  0  0  0
  7  1  1  0  0  0  0
  8  9  3  0  0  0  0
 10  6  1  0  0  0  0
 11 13  2  0  0  0  0
 12 11  2  0  0  0  0
 14  2  1  0  0  0  0
M  RAD  2   3   2   4   2
M  END
