Coordinates from ORCA-job 3-NO2-C6H3-N2-v2-B3LYPG-aug-cc-pVDZ-scan-d09-49-n400
 OpenBabel11091809153D

 14 14  0  0  0  0  0  0  0  0999 V2000
   -1.9546    0.1117   -1.1408 C   0  0  0  0  0  0  0  0  0  0  0  0
   -0.6605   -0.2446   -0.7588 C   0  0  0  0  0  0  0  0  0  0  0  0
   -0.1446    0.5802    0.2375 C   0  0  0  0  0  0  0  0  0  0  0  0
   -0.6161    1.6370    0.9079 C   0  0  0  0  0  0  0  0  0  0  0  0
   -1.9107    1.9271    0.4678 C   0  0  0  0  0  0  0  0  0  0  0  0
   -2.5876    1.2071   -0.5235 C   0  0  0  0  0  0  0  0  0  0  0  0
   -2.4721   -0.4556   -1.9132 H   0  0  0  0  0  0  0  0  0  0  0  0
    1.3502    0.1832    0.6911 N   0  0  0  0  0  0  0  0  0  0  0  0
    2.3309    0.1793    1.2127 N   0  0  0  0  0  0  0  0  0  0  0  0
   -3.5964    1.4954   -0.8122 H   0  0  0  0  0  0  0  0  0  0  0  0
   -2.6466    3.0863    1.0859 N   0  0  0  0  0  0  0  0  0  0  0  0
   -3.7853    3.3147    0.6713 O   0  0  0  0  0  0  0  0  0  0  0  0
   -2.0799    3.7301    1.9535 O   0  0  0  0  0  0  0  0  0  0  0  0
   -0.1214   -1.0822   -1.2014 H   0  0  0  0  0  0  0  0  0  0  0  0
  1  2  2  0  0  0  0
  1  6  1  0  0  0  0
  2  3  1  0  0  0  0
  3  8  1  0  0  0  0
  3  4  2  0  0  0  0
  5  4  1  0  0  0  0
  5 11  1  0  0  0  0
  6  5  2  0  0  0  0
  7  1  1  0  0  0  0
  8  9  1  0  0  0  0
 10  6  1  0  0  0  0
 11 13  2  0  0  0  0
 12 11  2  0  0  0  0
 14  2  1  0  0  0  0
M  RAD  3   4   2   8   2   9   3
M  END
