Coordinates from ORCA-job 3-NO2-C6H3-N2-v2-B3LYPG-aug-cc-pVDZ-scan-d09-49-n400
 OpenBabel11091809153D

 14 13  0  0  0  0  0  0  0  0999 V2000
   -2.0273    0.1844   -1.1164 C   0  0  0  0  0  0  0  0  0  0  0  0
   -0.7115   -0.1452   -0.6998 C   0  0  0  0  0  0  0  0  0  0  0  0
   -0.3212    0.7377    0.2799 C   0  0  0  0  0  0  0  0  0  0  0  0
   -0.8772    1.7151    0.8354 C   0  0  0  0  0  0  0  0  0  0  0  0
   -2.1633    2.0589    0.4471 C   0  0  0  0  0  0  0  0  0  0  0  0
   -2.7403    1.2594   -0.5597 C   0  0  0  0  0  0  0  0  0  0  0  0
   -2.4949   -0.4207   -1.8949 H   0  0  0  0  0  0  0  0  0  0  0  0
    2.3706   -0.4328    0.6995 N   0  0  0  0  0  0  0  0  0  0  0  0
    3.2454   -0.2349    1.3436 N   0  0  0  0  0  0  0  0  0  0  0  0
   -3.7487    1.4889   -0.8991 H   0  0  0  0  0  0  0  0  0  0  0  0
   -2.9049    3.1896    1.0372 N   0  0  0  0  0  0  0  0  0  0  0  0
   -4.0405    3.4033    0.6158 O   0  0  0  0  0  0  0  0  0  0  0  0
   -2.3371    3.8379    1.9073 O   0  0  0  0  0  0  0  0  0  0  0  0
   -0.1440   -0.9722   -1.1180 H   0  0  0  0  0  0  0  0  0  0  0  0
  1  2  2  0  0  0  0
  1  6  1  0  0  0  0
  2  3  1  0  0  0  0
  3  4  2  0  0  0  0
  5  4  1  0  0  0  0
  5 11  1  0  0  0  0
  6  5  2  0  0  0  0
  7  1  1  0  0  0  0
  8  9  3  0  0  0  0
 10  6  1  0  0  0  0
 11 13  2  0  0  0  0
 12 11  2  0  0  0  0
 14  2  1  0  0  0  0
M  RAD  2   3   2   4   2
M  END
