Coordinates from ORCA-job 3-NO2-C6H3-N2-v2-B3LYPG-aug-cc-pVDZ-scan-d09-49-n400
 OpenBabel11091809153D

 14 13  0  0  0  0  0  0  0  0999 V2000
   -1.9178    0.2851   -0.9697 C   0  0  0  0  0  0  0  0  0  0  0  0
   -0.6205    0.1224   -0.4173 C   0  0  0  0  0  0  0  0  0  0  0  0
   -0.4193    1.0938    0.5382 C   0  0  0  0  0  0  0  0  0  0  0  0
   -1.1305    2.0296    0.9743 C   0  0  0  0  0  0  0  0  0  0  0  0
   -2.4019    2.2136    0.4543 C   0  0  0  0  0  0  0  0  0  0  0  0
   -2.7900    1.3027   -0.5485 C   0  0  0  0  0  0  0  0  0  0  0  0
   -2.2429   -0.4072   -1.7480 H   0  0  0  0  0  0  0  0  0  0  0  0
    2.9946   -1.1855    0.3778 N   0  0  0  0  0  0  0  0  0  0  0  0
    3.9719   -1.1977    0.8913 N   0  0  0  0  0  0  0  0  0  0  0  0
   -3.7793    1.4015   -0.9918 H   0  0  0  0  0  0  0  0  0  0  0  0
   -3.3097    3.2849    0.9034 N   0  0  0  0  0  0  0  0  0  0  0  0
   -4.4155    3.3510    0.3690 O   0  0  0  0  0  0  0  0  0  0  0  0
   -2.8979    4.0358    1.7789 O   0  0  0  0  0  0  0  0  0  0  0  0
    0.0639   -0.6603   -0.7340 H   0  0  0  0  0  0  0  0  0  0  0  0
  1  6  2  0  0  0  0
  1  2  1  0  0  0  0
  2  3  2  0  0  0  0
  3  4  1  0  0  0  0
  5 11  1  0  0  0  0
  5  4  2  0  0  0  0
  6  5  1  0  0  0  0
  7  1  1  0  0  0  0
  8  9  3  0  0  0  0
 10  6  1  0  0  0  0
 11 13  2  0  0  0  0
 12 11  2  0  0  0  0
 14  2  1  0  0  0  0
M  RAD  2   3   2   4   2
M  END
