Coordinates from ORCA-job 3-NO2-C6H3-N2-v2-B3LYPG-aug-cc-pVDZ-scan-d09-49-n400
 OpenBabel11091809153D

 14 13  0  0  0  0  0  0  0  0999 V2000
   -1.9511    0.2651   -1.0050 C   0  0  0  0  0  0  0  0  0  0  0  0
   -0.6472    0.0660   -0.4811 C   0  0  0  0  0  0  0  0  0  0  0  0
   -0.4034    1.0198    0.4818 C   0  0  0  0  0  0  0  0  0  0  0  0
   -1.0837    1.9661    0.9437 C   0  0  0  0  0  0  0  0  0  0  0  0
   -2.3608    2.1860    0.4521 C   0  0  0  0  0  0  0  0  0  0  0  0
   -2.7905    1.2972   -0.5535 C   0  0  0  0  0  0  0  0  0  0  0  0
   -2.3078   -0.4097   -1.7848 H   0  0  0  0  0  0  0  0  0  0  0  0
    2.9193   -1.0551    0.4503 N   0  0  0  0  0  0  0  0  0  0  0  0
    3.8726   -1.0077    1.0053 N   0  0  0  0  0  0  0  0  0  0  0  0
   -3.7860    1.4246   -0.9750 H   0  0  0  0  0  0  0  0  0  0  0  0
   -3.2339    3.2723    0.9329 N   0  0  0  0  0  0  0  0  0  0  0  0
   -4.3485    3.3706    0.4225 O   0  0  0  0  0  0  0  0  0  0  0  0
   -2.7870    4.0022    1.8090 O   0  0  0  0  0  0  0  0  0  0  0  0
    0.0132   -0.7277   -0.8204 H   0  0  0  0  0  0  0  0  0  0  0  0
  1  6  2  0  0  0  0
  1  2  1  0  0  0  0
  2  3  2  0  0  0  0
  3  4  1  0  0  0  0
  5 11  1  0  0  0  0
  5  4  2  0  0  0  0
  6  5  1  0  0  0  0
  7  1  1  0  0  0  0
  8  9  3  0  0  0  0
 10  6  1  0  0  0  0
 11 13  2  0  0  0  0
 12 11  2  0  0  0  0
 14  2  1  0  0  0  0
M  RAD  2   3   2   4   2
M  END
