Coordinates from ORCA-job 3-NO2-C6H3-N2-v2-B3LYPG-aug-cc-pVDZ-scan-d09-49-n400
 OpenBabel11091809153D

 14 13  0  0  0  0  0  0  0  0999 V2000
   -2.0281    0.1735   -1.1263 C   0  0  0  0  0  0  0  0  0  0  0  0
   -0.7120   -0.1706   -0.7222 C   0  0  0  0  0  0  0  0  0  0  0  0
   -0.3073    0.7039    0.2579 C   0  0  0  0  0  0  0  0  0  0  0  0
   -0.8456    1.6846    0.8259 C   0  0  0  0  0  0  0  0  0  0  0  0
   -2.1318    2.0404    0.4478 C   0  0  0  0  0  0  0  0  0  0  0  0
   -2.7258    1.2524   -0.5581 C   0  0  0  0  0  0  0  0  0  0  0  0
   -2.5078   -0.4230   -1.9040 H   0  0  0  0  0  0  0  0  0  0  0  0
    2.2631   -0.3475    0.7165 N   0  0  0  0  0  0  0  0  0  0  0  0
    3.1241   -0.1276    1.3719 N   0  0  0  0  0  0  0  0  0  0  0  0
   -3.7347    1.4934   -0.8878 H   0  0  0  0  0  0  0  0  0  0  0  0
   -2.8587    3.1754    1.0495 N   0  0  0  0  0  0  0  0  0  0  0  0
   -3.9956    3.4014    0.6380 O   0  0  0  0  0  0  0  0  0  0  0  0
   -2.2786    3.8144    1.9182 O   0  0  0  0  0  0  0  0  0  0  0  0
   -0.1560   -1.0010   -1.1494 H   0  0  0  0  0  0  0  0  0  0  0  0
  1  2  2  0  0  0  0
  1  6  1  0  0  0  0
  2  3  1  0  0  0  0
  3  4  2  0  0  0  0
  5  4  1  0  0  0  0
  5 11  1  0  0  0  0
  6  5  2  0  0  0  0
  7  1  1  0  0  0  0
  8  9  3  0  0  0  0
 10  6  1  0  0  0  0
 11 13  2  0  0  0  0
 12 11  2  0  0  0  0
 14  2  1  0  0  0  0
M  RAD  2   3   2   4   2
M  END
