Coordinates from ORCA-job 3-NO2-C6H3-N2-v2-B3LYPG-aug-cc-pVDZ-scan-d09-49-n400
 OpenBabel11091809153D

 14 14  0  0  0  0  0  0  0  0999 V2000
   -1.8954    0.0813   -1.0729 C   0  0  0  0  0  0  0  0  0  0  0  0
   -0.6328   -0.2573   -0.6737 C   0  0  0  0  0  0  0  0  0  0  0  0
    0.0922    0.5603    0.3075 C   0  0  0  0  0  0  0  0  0  0  0  0
   -0.5684    1.7582    0.9700 C   0  0  0  0  0  0  0  0  0  0  0  0
   -1.8703    1.9332    0.4834 C   0  0  0  0  0  0  0  0  0  0  0  0
   -2.5230    1.2167   -0.5106 C   0  0  0  0  0  0  0  0  0  0  0  0
   -2.4139   -0.5203   -1.8181 H   0  0  0  0  0  0  0  0  0  0  0  0
    1.0277    0.3482    0.5529 N   0  0  0  0  0  0  0  0  0  0  0  0
    2.1153    0.1164    0.8501 N   0  0  0  0  0  0  0  0  0  0  0  0
   -3.5119    1.5274   -0.8463 H   0  0  0  0  0  0  0  0  0  0  0  0
   -2.6609    3.0684    1.0876 N   0  0  0  0  0  0  0  0  0  0  0  0
   -3.6162    3.4900    0.4337 O   0  0  0  0  0  0  0  0  0  0  0  0
   -2.3217    3.4816    2.1817 O   0  0  0  0  0  0  0  0  0  0  0  0
   -0.1155   -1.1345   -1.0673 H   0  0  0  0  0  0  0  0  0  0  0  0
  1  2  2  0  0  0  0
  1  6  1  0  0  0  0
  2  3  1  0  0  0  0
  3  8  1  0  0  0  0
  3  4  2  0  0  0  0
  5  4  1  0  0  0  0
  5 11  1  0  0  0  0
  6  5  2  0  0  0  0
  7  1  1  0  0  0  0
  8  9  1  0  0  0  0
 10  6  1  0  0  0  0
 11 13  2  0  0  0  0
 12 11  2  0  0  0  0
 14  2  1  0  0  0  0
M  RAD  3   4   2   8   2   9   3
M  END
