Coordinates from ORCA-job 3-NO2-C6H3-N2-v2-B3LYPG-aug-cc-pVDZ-scan-d09-49-n400
 OpenBabel11091809153D

 14 13  0  0  0  0  0  0  0  0999 V2000
   -2.0256    0.1927   -1.1083 C   0  0  0  0  0  0  0  0  0  0  0  0
   -0.7101   -0.1262   -0.6825 C   0  0  0  0  0  0  0  0  0  0  0  0
   -0.3307    0.7630    0.2967 C   0  0  0  0  0  0  0  0  0  0  0  0
   -0.9000    1.7376    0.8428 C   0  0  0  0  0  0  0  0  0  0  0  0
   -2.1857    2.0726    0.4469 C   0  0  0  0  0  0  0  0  0  0  0  0
   -2.7499    1.2646   -0.5603 C   0  0  0  0  0  0  0  0  0  0  0  0
   -2.4841   -0.4187   -1.8873 H   0  0  0  0  0  0  0  0  0  0  0  0
    2.4539   -0.5107    0.6760 N   0  0  0  0  0  0  0  0  0  0  0  0
    3.3200   -0.2994    1.3274 N   0  0  0  0  0  0  0  0  0  0  0  0
   -3.7578    1.4855   -0.9070 H   0  0  0  0  0  0  0  0  0  0  0  0
   -2.9382    3.2000    1.0282 N   0  0  0  0  0  0  0  0  0  0  0  0
   -4.0728    3.4044    0.5996 O   0  0  0  0  0  0  0  0  0  0  0  0
   -2.3798    3.8550    1.8994 O   0  0  0  0  0  0  0  0  0  0  0  0
   -0.1340   -0.9507   -1.0938 H   0  0  0  0  0  0  0  0  0  0  0  0
  1  2  2  0  0  0  0
  1  6  1  0  0  0  0
  2  3  1  0  0  0  0
  3  4  2  0  0  0  0
  5  4  1  0  0  0  0
  5 11  1  0  0  0  0
  6  5  2  0  0  0  0
  7  1  1  0  0  0  0
  8  9  3  0  0  0  0
 10  6  1  0  0  0  0
 11 13  2  0  0  0  0
 12 11  2  0  0  0  0
 14  2  1  0  0  0  0
M  RAD  2   3   2   4   2
M  END
