Coordinates from ORCA-job 3-NO2-C6H3-N2-v2-B3LYPG-aug-cc-pVDZ-scan-d09-49-n400
 OpenBabel11091809153D

 14 13  0  0  0  0  0  0  0  0999 V2000
   -2.0278    0.1743   -1.1256 C   0  0  0  0  0  0  0  0  0  0  0  0
   -0.7116   -0.1691   -0.7207 C   0  0  0  0  0  0  0  0  0  0  0  0
   -0.3087    0.7061    0.2591 C   0  0  0  0  0  0  0  0  0  0  0  0
   -0.8477    1.6866    0.8266 C   0  0  0  0  0  0  0  0  0  0  0  0
   -2.1339    2.0416    0.4480 C   0  0  0  0  0  0  0  0  0  0  0  0
   -2.7267    1.2528   -0.5581 C   0  0  0  0  0  0  0  0  0  0  0  0
   -2.5068   -0.4228   -1.9033 H   0  0  0  0  0  0  0  0  0  0  0  0
    2.2700   -0.3530    0.7154 N   0  0  0  0  0  0  0  0  0  0  0  0
    3.1320   -0.1347    1.3699 N   0  0  0  0  0  0  0  0  0  0  0  0
   -3.7355    1.4929   -0.8886 H   0  0  0  0  0  0  0  0  0  0  0  0
   -2.8618    3.1763    1.0489 N   0  0  0  0  0  0  0  0  0  0  0  0
   -3.9986    3.4017    0.6364 O   0  0  0  0  0  0  0  0  0  0  0  0
   -2.2825    3.8162    1.9175 O   0  0  0  0  0  0  0  0  0  0  0  0
   -0.1552   -0.9993   -1.1477 H   0  0  0  0  0  0  0  0  0  0  0  0
  1  2  2  0  0  0  0
  1  6  1  0  0  0  0
  2  3  1  0  0  0  0
  3  4  2  0  0  0  0
  5  4  1  0  0  0  0
  5 11  1  0  0  0  0
  6  5  2  0  0  0  0
  7  1  1  0  0  0  0
  8  9  3  0  0  0  0
 10  6  1  0  0  0  0
 11 13  2  0  0  0  0
 12 11  2  0  0  0  0
 14  2  1  0  0  0  0
M  RAD  2   3   2   4   2
M  END
