Coordinates from ORCA-job 3-NO2-C6H3-N2-v2-B3LYPG-aug-cc-pVDZ-scan-d09-49-n400
 OpenBabel11091809153D

 14 14  0  0  0  0  0  0  0  0999 V2000
   -1.9068    0.0851   -1.0848 C   0  0  0  0  0  0  0  0  0  0  0  0
   -0.6325   -0.2473   -0.6984 C   0  0  0  0  0  0  0  0  0  0  0  0
    0.0190    0.5785    0.2958 C   0  0  0  0  0  0  0  0  0  0  0  0
   -0.5775    1.7313    0.9654 C   0  0  0  0  0  0  0  0  0  0  0  0
   -1.8788    1.9343    0.4834 C   0  0  0  0  0  0  0  0  0  0  0  0
   -2.5389    1.2080   -0.4998 C   0  0  0  0  0  0  0  0  0  0  0  0
   -2.4279   -0.5067   -1.8357 H   0  0  0  0  0  0  0  0  0  0  0  0
    1.1185    0.3208    0.6041 N   0  0  0  0  0  0  0  0  0  0  0  0
    2.1800    0.0843    0.9120 N   0  0  0  0  0  0  0  0  0  0  0  0
   -3.5395    1.5014   -0.8153 H   0  0  0  0  0  0  0  0  0  0  0  0
   -2.6636    3.0789    1.0799 N   0  0  0  0  0  0  0  0  0  0  0  0
   -3.6509    3.4656    0.4502 O   0  0  0  0  0  0  0  0  0  0  0  0
   -2.2859    3.5434    2.1406 O   0  0  0  0  0  0  0  0  0  0  0  0
   -0.1102   -1.1079   -1.1197 H   0  0  0  0  0  0  0  0  0  0  0  0
  1  2  2  0  0  0  0
  1  6  1  0  0  0  0
  2  3  1  0  0  0  0
  3  8  1  0  0  0  0
  3  4  2  0  0  0  0
  5  4  1  0  0  0  0
  5 11  1  0  0  0  0
  6  5  2  0  0  0  0
  7  1  1  0  0  0  0
  8  9  1  0  0  0  0
 10  6  1  0  0  0  0
 11 13  2  0  0  0  0
 12 11  2  0  0  0  0
 14  2  1  0  0  0  0
M  RAD  3   4   2   8   2   9   3
M  END
