Coordinates from ORCA-job 3-NO2-C6H3-N2-v2-B3LYPG-aug-cc-pVDZ-scan-d09-49-n400
 OpenBabel11091809153D

 14 13  0  0  0  0  0  0  0  0999 V2000
   -2.0160    0.2088   -1.0890 C   0  0  0  0  0  0  0  0  0  0  0  0
   -0.7017   -0.0856   -0.6426 C   0  0  0  0  0  0  0  0  0  0  0  0
   -0.3486    0.8173    0.3346 C   0  0  0  0  0  0  0  0  0  0  0  0
   -0.9430    1.7866    0.8626 C   0  0  0  0  0  0  0  0  0  0  0  0
   -2.2280    2.0993    0.4478 C   0  0  0  0  0  0  0  0  0  0  0  0
   -2.7647    1.2736   -0.5603 C   0  0  0  0  0  0  0  0  0  0  0  0
   -2.4539   -0.4161   -1.8690 H   0  0  0  0  0  0  0  0  0  0  0  0
    2.5956   -0.6587    0.6224 N   0  0  0  0  0  0  0  0  0  0  0  0
    3.4557   -0.4387    1.2788 N   0  0  0  0  0  0  0  0  0  0  0  0
   -3.7711    1.4757   -0.9225 H   0  0  0  0  0  0  0  0  0  0  0  0
   -3.0056    3.2192    1.0092 N   0  0  0  0  0  0  0  0  0  0  0  0
   -4.1370    3.4026    0.5634 O   0  0  0  0  0  0  0  0  0  0  0  0
   -2.4688    3.8901    1.8820 O   0  0  0  0  0  0  0  0  0  0  0  0
   -0.1078   -0.9046   -1.0396 H   0  0  0  0  0  0  0  0  0  0  0  0
  1  2  2  0  0  0  0
  1  6  1  0  0  0  0
  2  3  1  0  0  0  0
  3  4  2  0  0  0  0
  5  4  1  0  0  0  0
  5 11  1  0  0  0  0
  6  5  2  0  0  0  0
  7  1  1  0  0  0  0
  8  9  3  0  0  0  0
 10  6  1  0  0  0  0
 11 13  2  0  0  0  0
 12 11  2  0  0  0  0
 14  2  1  0  0  0  0
M  RAD  2   3   2   4   2
M  END
