Coordinates from ORCA-job 3-NO2-C6H3-N2-v2-B3LYPG-aug-cc-pVDZ-scan-d09-49-n400
 OpenBabel11091809153D

 14 13  0  0  0  0  0  0  0  0999 V2000
   -1.9824    0.2418   -1.0422 C   0  0  0  0  0  0  0  0  0  0  0  0
   -0.6726    0.0018   -0.5508 C   0  0  0  0  0  0  0  0  0  0  0  0
   -0.3830    0.9351    0.4188 C   0  0  0  0  0  0  0  0  0  0  0  0
   -1.0267    1.8923    0.9098 C   0  0  0  0  0  0  0  0  0  0  0  0
   -2.3084    2.1515    0.4501 C   0  0  0  0  0  0  0  0  0  0  0  0
   -2.7841    1.2888   -0.5575 C   0  0  0  0  0  0  0  0  0  0  0  0
   -2.3740   -0.4125   -1.8228 H   0  0  0  0  0  0  0  0  0  0  0  0
    2.8037   -0.8963    0.5264 N   0  0  0  0  0  0  0  0  0  0  0  0
    3.7222   -0.7763    1.1271 N   0  0  0  0  0  0  0  0  0  0  0  0
   -3.7852    1.4480   -0.9541 H   0  0  0  0  0  0  0  0  0  0  0  0
   -3.1418    3.2531    0.9657 N   0  0  0  0  0  0  0  0  0  0  0  0
   -4.2647    3.3876    0.4822 O   0  0  0  0  0  0  0  0  0  0  0  0
   -2.6564    3.9586    1.8412 O   0  0  0  0  0  0  0  0  0  0  0  0
   -0.0415   -0.8039   -0.9162 H   0  0  0  0  0  0  0  0  0  0  0  0
  1  6  2  0  0  0  0
  1  2  1  0  0  0  0
  2  3  2  0  0  0  0
  3  4  1  0  0  0  0
  5  4  2  0  0  0  0
  5 11  1  0  0  0  0
  6  5  1  0  0  0  0
  7  1  1  0  0  0  0
  8  9  3  0  0  0  0
 10  6  1  0  0  0  0
 11 13  2  0  0  0  0
 12 11  2  0  0  0  0
 14  2  1  0  0  0  0
M  RAD  2   3   2   4   2
M  END
