Coordinates from ORCA-job 3-NO2-C6H3-N2-v2-B3LYPG-aug-cc-pVDZ-scan-d09-49-n400
 OpenBabel11091809153D

 14 13  0  0  0  0  0  0  0  0999 V2000
   -1.6035    0.4066   -0.6953 C   0  0  0  0  0  0  0  0  0  0  0  0
   -0.3907    0.5001    0.0356 C   0  0  0  0  0  0  0  0  0  0  0  0
   -0.4768    1.5585    0.9132 C   0  0  0  0  0  0  0  0  0  0  0  0
   -1.3799    2.3928    1.1578 C   0  0  0  0  0  0  0  0  0  0  0  0
   -2.5762    2.3290    0.4618 C   0  0  0  0  0  0  0  0  0  0  0  0
   -2.6720    1.2956   -0.4915 C   0  0  0  0  0  0  0  0  0  0  0  0
   -1.7029   -0.3852   -1.4395 H   0  0  0  0  0  0  0  0  0  0  0  0
    2.9943   -1.7449   -0.1109 N   0  0  0  0  0  0  0  0  0  0  0  0
    3.9853   -2.2167    0.0090 N   0  0  0  0  0  0  0  0  0  0  0  0
   -3.5902    1.1984   -1.0679 H   0  0  0  0  0  0  0  0  0  0  0  0
   -3.6909    3.2675    0.6840 N   0  0  0  0  0  0  0  0  0  0  0  0
   -4.7050    3.1127    0.0057 O   0  0  0  0  0  0  0  0  0  0  0  0
   -3.5284    4.1378    1.5303 O   0  0  0  0  0  0  0  0  0  0  0  0
    0.4419   -0.1827   -0.1145 H   0  0  0  0  0  0  0  0  0  0  0  0
  1  6  2  0  0  0  0
  1  2  1  0  0  0  0
  2  3  2  0  0  0  0
  3  4  1  0  0  0  0
  5 11  1  0  0  0  0
  5  4  2  0  0  0  0
  6  5  1  0  0  0  0
  7  1  1  0  0  0  0
  8  9  3  0  0  0  0
 10  6  1  0  0  0  0
 11 13  2  0  0  0  0
 12 11  2  0  0  0  0
 14  2  1  0  0  0  0
M  RAD  2   3   2   4   2
M  END
