Coordinates from ORCA-job 3-NO2-C6H3-N2-v2-B3LYPG-aug-cc-pVDZ-scan-d09-49-n400
 OpenBabel11091809153D

 14 14  0  0  0  0  0  0  0  0999 V2000
   -1.8959    0.0815   -1.0733 C   0  0  0  0  0  0  0  0  0  0  0  0
   -0.6331   -0.2574   -0.6741 C   0  0  0  0  0  0  0  0  0  0  0  0
    0.0875    0.5604    0.3090 C   0  0  0  0  0  0  0  0  0  0  0  0
   -0.5690    1.7566    0.9701 C   0  0  0  0  0  0  0  0  0  0  0  0
   -1.8708    1.9335    0.4834 C   0  0  0  0  0  0  0  0  0  0  0  0
   -2.5236    1.2166   -0.5101 C   0  0  0  0  0  0  0  0  0  0  0  0
   -2.4144   -0.5193   -1.8191 H   0  0  0  0  0  0  0  0  0  0  0  0
    1.0331    0.3467    0.5555 N   0  0  0  0  0  0  0  0  0  0  0  0
    2.1201    0.1157    0.8504 N   0  0  0  0  0  0  0  0  0  0  0  0
   -3.5128    1.5267   -0.8454 H   0  0  0  0  0  0  0  0  0  0  0  0
   -2.6610    3.0693    1.0869 N   0  0  0  0  0  0  0  0  0  0  0  0
   -3.6175    3.4895    0.4336 O   0  0  0  0  0  0  0  0  0  0  0  0
   -2.3214    3.4836    2.1805 O   0  0  0  0  0  0  0  0  0  0  0  0
   -0.1159   -1.1337   -1.0694 H   0  0  0  0  0  0  0  0  0  0  0  0
  1  2  2  0  0  0  0
  1  6  1  0  0  0  0
  2  3  1  0  0  0  0
  3  8  1  0  0  0  0
  3  4  2  0  0  0  0
  5  4  1  0  0  0  0
  5 11  1  0  0  0  0
  6  5  2  0  0  0  0
  7  1  1  0  0  0  0
  8  9  1  0  0  0  0
 10  6  1  0  0  0  0
 11 13  2  0  0  0  0
 12 11  2  0  0  0  0
 14  2  1  0  0  0  0
M  RAD  3   4   2   8   2   9   3
M  END
