Coordinates from ORCA-job 3-NO2-C6H3-N2-v2-B3LYPG-aug-cc-pVDZ-scan-d09-49-n400
 OpenBabel11091809153D

 14 13  0  0  0  0  0  0  0  0999 V2000
   -1.8003    0.3404   -0.8585 C   0  0  0  0  0  0  0  0  0  0  0  0
   -0.5316    0.2879   -0.2250 C   0  0  0  0  0  0  0  0  0  0  0  0
   -0.4515    1.3025    0.7033 C   0  0  0  0  0  0  0  0  0  0  0  0
   -1.2522    2.1997    1.0576 C   0  0  0  0  0  0  0  0  0  0  0  0
   -2.4991    2.2787    0.4588 C   0  0  0  0  0  0  0  0  0  0  0  0
   -2.7631    1.3088   -0.5289 C   0  0  0  0  0  0  0  0  0  0  0  0
   -2.0296   -0.3996   -1.6270 H   0  0  0  0  0  0  0  0  0  0  0  0
    3.0950   -1.4945    0.1622 N   0  0  0  0  0  0  0  0  0  0  0  0
    4.1156   -1.6977    0.5313 N   0  0  0  0  0  0  0  0  0  0  0  0
   -3.7279    1.3234   -1.0327 H   0  0  0  0  0  0  0  0  0  0  0  0
   -3.5018    3.2994    0.8128 N   0  0  0  0  0  0  0  0  0  0  0  0
   -4.5752    3.2705    0.2132 O   0  0  0  0  0  0  0  0  0  0  0  0
   -3.1951    4.1063    1.6817 O   0  0  0  0  0  0  0  0  0  0  0  0
    0.2218   -0.4563   -0.4710 H   0  0  0  0  0  0  0  0  0  0  0  0
  1  6  2  0  0  0  0
  1  2  1  0  0  0  0
  2  3  2  0  0  0  0
  3  4  1  0  0  0  0
  5 11  1  0  0  0  0
  5  4  2  0  0  0  0
  6  5  1  0  0  0  0
  7  1  1  0  0  0  0
  8  9  3  0  0  0  0
 10  6  1  0  0  0  0
 11 13  2  0  0  0  0
 12 11  2  0  0  0  0
 14  2  1  0  0  0  0
M  RAD  2   3   2   4   2
M  END
