Coordinates from ORCA-job 3-NO2-C6H3-N2-v2-B3LYPG-aug-cc-pVDZ-scan-d09-49-n400
 OpenBabel11091809153D

 14 13  0  0  0  0  0  0  0  0999 V2000
   -1.6553    0.3876   -0.7395 C   0  0  0  0  0  0  0  0  0  0  0  0
   -0.4258    0.4428   -0.0330 C   0  0  0  0  0  0  0  0  0  0  0  0
   -0.4681    1.4913    0.8594 C   0  0  0  0  0  0  0  0  0  0  0  0
   -1.3458    2.3435    1.1333 C   0  0  0  0  0  0  0  0  0  0  0  0
   -2.5573    2.3173    0.4617 C   0  0  0  0  0  0  0  0  0  0  0  0
   -2.6977    1.2990   -0.5023 C   0  0  0  0  0  0  0  0  0  0  0  0
   -1.7890   -0.3918   -1.4914 H   0  0  0  0  0  0  0  0  0  0  0  0
    3.0200   -1.6805   -0.0407 N   0  0  0  0  0  0  0  0  0  0  0  0
    4.0301   -2.0844    0.1478 N   0  0  0  0  0  0  0  0  0  0  0  0
   -3.6297    1.2312   -1.0605 H   0  0  0  0  0  0  0  0  0  0  0  0
   -3.6443    3.2791    0.7191 N   0  0  0  0  0  0  0  0  0  0  0  0
   -4.6757    3.1575    0.0602 O   0  0  0  0  0  0  0  0  0  0  0  0
   -3.4434    4.1342    1.5725 O   0  0  0  0  0  0  0  0  0  0  0  0
    0.3872   -0.2573   -0.2087 H   0  0  0  0  0  0  0  0  0  0  0  0
  1  6  2  0  0  0  0
  1  2  1  0  0  0  0
  2  3  2  0  0  0  0
  3  4  1  0  0  0  0
  5 11  1  0  0  0  0
  5  4  2  0  0  0  0
  6  5  1  0  0  0  0
  7  1  1  0  0  0  0
  8  9  3  0  0  0  0
 10  6  1  0  0  0  0
 11 13  2  0  0  0  0
 12 11  2  0  0  0  0
 14  2  1  0  0  0  0
M  RAD  2   3   2   4   2
M  END
