Coordinates from ORCA-job 3-NO2-C6H3-N2-v2-B3LYPG-aug-cc-pVDZ-scan-d09-49-n400
 OpenBabel11091809153D

 14 13  0  0  0  0  0  0  0  0999 V2000
   -2.0255    0.1626   -1.1346 C   0  0  0  0  0  0  0  0  0  0  0  0
   -0.7098   -0.1940   -0.7414 C   0  0  0  0  0  0  0  0  0  0  0  0
   -0.2912    0.6724    0.2392 C   0  0  0  0  0  0  0  0  0  0  0  0
   -0.8130    1.6562    0.8187 C   0  0  0  0  0  0  0  0  0  0  0  0
   -2.0994    2.0219    0.4491 C   0  0  0  0  0  0  0  0  0  0  0  0
   -2.7092    1.2449   -0.5558 C   0  0  0  0  0  0  0  0  0  0  0  0
   -2.5160   -0.4263   -1.9113 H   0  0  0  0  0  0  0  0  0  0  0  0
    2.1444   -0.2639    0.7263 N   0  0  0  0  0  0  0  0  0  0  0  0
    2.9924   -0.0237    1.3915 N   0  0  0  0  0  0  0  0  0  0  0  0
   -3.7183    1.4964   -0.8766 H   0  0  0  0  0  0  0  0  0  0  0  0
   -2.8132    3.1608    1.0611 N   0  0  0  0  0  0  0  0  0  0  0  0
   -3.9512    3.3977    0.6585 O   0  0  0  0  0  0  0  0  0  0  0  0
   -2.2224    3.7915    1.9285 O   0  0  0  0  0  0  0  0  0  0  0  0
   -0.1626   -1.0268   -1.1754 H   0  0  0  0  0  0  0  0  0  0  0  0
  1  2  2  0  0  0  0
  1  6  1  0  0  0  0
  2  3  1  0  0  0  0
  3  4  2  0  0  0  0
  5  4  1  0  0  0  0
  5 11  1  0  0  0  0
  6  5  2  0  0  0  0
  7  1  1  0  0  0  0
  8  9  3  0  0  0  0
 10  6  1  0  0  0  0
 11 13  2  0  0  0  0
 12 11  2  0  0  0  0
 14  2  1  0  0  0  0
M  RAD  2   3   2   4   2
M  END
