Coordinates from ORCA-job 3-NO2-C6H3-N2-v2-B3LYPG-aug-cc-pVDZ-scan-d09-49-n400
 OpenBabel11091809153D

 14 13  0  0  0  0  0  0  0  0999 V2000
   -2.0208    0.2028   -1.0968 C   0  0  0  0  0  0  0  0  0  0  0  0
   -0.7060   -0.1013   -0.6586 C   0  0  0  0  0  0  0  0  0  0  0  0
   -0.3420    0.7962    0.3196 C   0  0  0  0  0  0  0  0  0  0  0  0
   -0.9271    1.7675    0.8543 C   0  0  0  0  0  0  0  0  0  0  0  0
   -2.2124    2.0892    0.4472 C   0  0  0  0  0  0  0  0  0  0  0  0
   -2.7600    1.2704   -0.5606 C   0  0  0  0  0  0  0  0  0  0  0  0
   -2.4669   -0.4169   -1.8765 H   0  0  0  0  0  0  0  0  0  0  0  0
    2.5462   -0.6035    0.6443 N   0  0  0  0  0  0  0  0  0  0  0  0
    3.4075   -0.3852    1.2996 N   0  0  0  0  0  0  0  0  0  0  0  0
   -3.7670    1.4799   -0.9168 H   0  0  0  0  0  0  0  0  0  0  0  0
   -2.9800    3.2123    1.0165 N   0  0  0  0  0  0  0  0  0  0  0  0
   -4.1129    3.4039    0.5777 O   0  0  0  0  0  0  0  0  0  0  0  0
   -2.4347    3.8767    1.8889 O   0  0  0  0  0  0  0  0  0  0  0  0
   -0.1189   -0.9225   -1.0611 H   0  0  0  0  0  0  0  0  0  0  0  0
  1  2  2  0  0  0  0
  1  6  1  0  0  0  0
  2  3  1  0  0  0  0
  3  4  2  0  0  0  0
  5  4  1  0  0  0  0
  5 11  1  0  0  0  0
  6  5  2  0  0  0  0
  7  1  1  0  0  0  0
  8  9  3  0  0  0  0
 10  6  1  0  0  0  0
 11 13  2  0  0  0  0
 12 11  2  0  0  0  0
 14  2  1  0  0  0  0
M  RAD  2   3   2   4   2
M  END
