Coordinates from ORCA-job 3-NO2-C6H3-N2-v2-B3LYPG-aug-cc-pVDZ-scan-d09-49-n400
 OpenBabel11091809153D

 14 14  0  0  0  0  0  0  0  0999 V2000
   -1.9295    0.1000   -1.1160 C   0  0  0  0  0  0  0  0  0  0  0  0
   -0.6437   -0.2406   -0.7349 C   0  0  0  0  0  0  0  0  0  0  0  0
   -0.0772    0.5846    0.2676 C   0  0  0  0  0  0  0  0  0  0  0  0
   -0.5964    1.6876    0.9484 C   0  0  0  0  0  0  0  0  0  0  0  0
   -1.8945    1.9323    0.4781 C   0  0  0  0  0  0  0  0  0  0  0  0
   -2.5635    1.2050   -0.5057 C   0  0  0  0  0  0  0  0  0  0  0  0
   -2.4500   -0.4752   -1.8800 H   0  0  0  0  0  0  0  0  0  0  0  0
    1.2457    0.2655    0.6776 N   0  0  0  0  0  0  0  0  0  0  0  0
    2.2790    0.0776    1.0519 N   0  0  0  0  0  0  0  0  0  0  0  0
   -3.5722    1.4890   -0.8011 H   0  0  0  0  0  0  0  0  0  0  0  0
   -2.6611    3.0879    1.0768 N   0  0  0  0  0  0  0  0  0  0  0  0
   -3.7470    3.3673    0.5618 O   0  0  0  0  0  0  0  0  0  0  0  0
   -2.1742    3.6718    2.0293 O   0  0  0  0  0  0  0  0  0  0  0  0
   -0.1102   -1.0832   -1.1760 H   0  0  0  0  0  0  0  0  0  0  0  0
  1  2  2  0  0  0  0
  1  6  1  0  0  0  0
  2  3  1  0  0  0  0
  3  8  1  0  0  0  0
  3  4  2  0  0  0  0
  5  4  1  0  0  0  0
  5 11  1  0  0  0  0
  6  5  2  0  0  0  0
  7  1  1  0  0  0  0
  8  9  1  0  0  0  0
 10  6  1  0  0  0  0
 11 13  2  0  0  0  0
 12 11  2  0  0  0  0
 14  2  1  0  0  0  0
M  RAD  3   4   2   8   2   9   3
M  END
