Coordinates from ORCA-job 3-NO2-C6H3-N2-v2-B3LYPG-aug-cc-pVDZ-scan-d09-49-n400
 OpenBabel11091809153D

 14 13  0  0  0  0  0  0  0  0999 V2000
   -1.6290    0.3972   -0.7172 C   0  0  0  0  0  0  0  0  0  0  0  0
   -0.4077    0.4716    0.0016 C   0  0  0  0  0  0  0  0  0  0  0  0
   -0.4723    1.5254    0.8866 C   0  0  0  0  0  0  0  0  0  0  0  0
   -1.3629    2.3687    1.1457 C   0  0  0  0  0  0  0  0  0  0  0  0
   -2.5669    2.3235    0.4617 C   0  0  0  0  0  0  0  0  0  0  0  0
   -2.6848    1.2974   -0.4969 C   0  0  0  0  0  0  0  0  0  0  0  0
   -1.7456   -0.3886   -1.4653 H   0  0  0  0  0  0  0  0  0  0  0  0
    3.0070   -1.7132   -0.0761 N   0  0  0  0  0  0  0  0  0  0  0  0
    4.0085   -2.1516    0.0781 N   0  0  0  0  0  0  0  0  0  0  0  0
   -3.6100    1.2147   -1.0643 H   0  0  0  0  0  0  0  0  0  0  0  0
   -3.6681    3.2736    0.7014 N   0  0  0  0  0  0  0  0  0  0  0  0
   -4.6911    3.1350    0.0328 O   0  0  0  0  0  0  0  0  0  0  0  0
   -3.4867    4.1363    1.5516 O   0  0  0  0  0  0  0  0  0  0  0  0
    0.4148   -0.2206   -0.1620 H   0  0  0  0  0  0  0  0  0  0  0  0
  1  6  2  0  0  0  0
  1  2  1  0  0  0  0
  2  3  2  0  0  0  0
  3  4  1  0  0  0  0
  5 11  1  0  0  0  0
  5  4  2  0  0  0  0
  6  5  1  0  0  0  0
  7  1  1  0  0  0  0
  8  9  3  0  0  0  0
 10  6  1  0  0  0  0
 11 13  2  0  0  0  0
 12 11  2  0  0  0  0
 14  2  1  0  0  0  0
M  RAD  2   3   2   4   2
M  END
