Coordinates from ORCA-job 3-NO2-C6H3-N2-v2-B3LYPG-aug-cc-pVDZ-scan-d09-49-n400
 OpenBabel11091809153D

 14 13  0  0  0  0  0  0  0  0999 V2000
   -2.0210    0.1556   -1.1383 C   0  0  0  0  0  0  0  0  0  0  0  0
   -0.7056   -0.2077   -0.7510 C   0  0  0  0  0  0  0  0  0  0  0  0
   -0.2803    0.6543    0.2293 C   0  0  0  0  0  0  0  0  0  0  0  0
   -0.7911    1.6405    0.8167 C   0  0  0  0  0  0  0  0  0  0  0  0
   -2.0777    2.0101    0.4504 C   0  0  0  0  0  0  0  0  0  0  0  0
   -2.6968    1.2398   -0.5537 C   0  0  0  0  0  0  0  0  0  0  0  0
   -2.5175   -0.4289   -1.9145 H   0  0  0  0  0  0  0  0  0  0  0  0
    2.0597   -0.2110    0.7272 N   0  0  0  0  0  0  0  0  0  0  0  0
    2.9016    0.0386    1.3970 N   0  0  0  0  0  0  0  0  0  0  0  0
   -3.7060    1.4972   -0.8694 H   0  0  0  0  0  0  0  0  0  0  0  0
   -2.7848    3.1514    1.0680 N   0  0  0  0  0  0  0  0  0  0  0  0
   -3.9234    3.3938    0.6701 O   0  0  0  0  0  0  0  0  0  0  0  0
   -2.1888    3.7778    1.9347 O   0  0  0  0  0  0  0  0  0  0  0  0
   -0.1633   -1.0418   -1.1888 H   0  0  0  0  0  0  0  0  0  0  0  0
  1  2  2  0  0  0  0
  1  6  1  0  0  0  0
  2  3  1  0  0  0  0
  3  4  2  0  0  0  0
  5  4  1  0  0  0  0
  5 11  1  0  0  0  0
  6  5  2  0  0  0  0
  7  1  1  0  0  0  0
  8  9  3  0  0  0  0
 10  6  1  0  0  0  0
 11 13  2  0  0  0  0
 12 11  2  0  0  0  0
 14  2  1  0  0  0  0
M  RAD  2   3   2   4   2
M  END
