Coordinates from ORCA-job 3-NO2-C6H3-N2-v2-B3LYPG-aug-cc-pVDZ-scan-d09-49-n400
 OpenBabel11091809153D

 14 13  0  0  0  0  0  0  0  0999 V2000
   -2.0220    0.2006   -1.0994 C   0  0  0  0  0  0  0  0  0  0  0  0
   -0.7069   -0.1069   -0.6640 C   0  0  0  0  0  0  0  0  0  0  0  0
   -0.3397    0.7888    0.3144 C   0  0  0  0  0  0  0  0  0  0  0  0
   -0.9212    1.7609    0.8517 C   0  0  0  0  0  0  0  0  0  0  0  0
   -2.2066    2.0856    0.4471 C   0  0  0  0  0  0  0  0  0  0  0  0
   -2.7578    1.2692   -0.5605 C   0  0  0  0  0  0  0  0  0  0  0  0
   -2.4709   -0.4172   -1.8789 H   0  0  0  0  0  0  0  0  0  0  0  0
    2.5267   -0.5834    0.6513 N   0  0  0  0  0  0  0  0  0  0  0  0
    3.3886   -0.3660    1.3062 N   0  0  0  0  0  0  0  0  0  0  0  0
   -3.7651    1.4812   -0.9146 H   0  0  0  0  0  0  0  0  0  0  0  0
   -2.9708    3.2096    1.0192 N   0  0  0  0  0  0  0  0  0  0  0  0
   -4.1041    3.4041    0.5826 O   0  0  0  0  0  0  0  0  0  0  0  0
   -2.4226    3.8720    1.8913 O   0  0  0  0  0  0  0  0  0  0  0  0
   -0.1224   -0.9289   -1.0686 H   0  0  0  0  0  0  0  0  0  0  0  0
  1  2  2  0  0  0  0
  1  6  1  0  0  0  0
  2  3  1  0  0  0  0
  3  4  2  0  0  0  0
  5  4  1  0  0  0  0
  5 11  1  0  0  0  0
  6  5  2  0  0  0  0
  7  1  1  0  0  0  0
  8  9  3  0  0  0  0
 10  6  1  0  0  0  0
 11 13  2  0  0  0  0
 12 11  2  0  0  0  0
 14  2  1  0  0  0  0
M  RAD  2   3   2   4   2
M  END
