Coordinates from ORCA-job 3-NO2-C6H3-N2-v2-B3LYPG-aug-cc-pVDZ-scan-d09-49-n400
 OpenBabel11091809153D

 14 13  0  0  0  0  0  0  0  0999 V2000
   -2.0286    0.1786   -1.1222 C   0  0  0  0  0  0  0  0  0  0  0  0
   -0.7127   -0.1588   -0.7123 C   0  0  0  0  0  0  0  0  0  0  0  0
   -0.3130    0.7191    0.2680 C   0  0  0  0  0  0  0  0  0  0  0  0
   -0.8605    1.6982    0.8295 C   0  0  0  0  0  0  0  0  0  0  0  0
   -2.1467    2.0489    0.4472 C   0  0  0  0  0  0  0  0  0  0  0  0
   -2.7331    1.2557   -0.5591 C   0  0  0  0  0  0  0  0  0  0  0  0
   -2.5028   -0.4219   -1.9002 H   0  0  0  0  0  0  0  0  0  0  0  0
    2.3148   -0.3864    0.7102 N   0  0  0  0  0  0  0  0  0  0  0  0
    3.1825   -0.1773    1.3600 N   0  0  0  0  0  0  0  0  0  0  0  0
   -3.7418    1.4916   -0.8931 H   0  0  0  0  0  0  0  0  0  0  0  0
   -2.8799    3.1820    1.0438 N   0  0  0  0  0  0  0  0  0  0  0  0
   -4.0164    3.4026    0.6281 O   0  0  0  0  0  0  0  0  0  0  0  0
   -2.3052    3.8249    1.9132 O   0  0  0  0  0  0  0  0  0  0  0  0
   -0.1513   -0.9876   -1.1352 H   0  0  0  0  0  0  0  0  0  0  0  0
  1  2  2  0  0  0  0
  1  6  1  0  0  0  0
  2  3  1  0  0  0  0
  3  4  2  0  0  0  0
  5  4  1  0  0  0  0
  5 11  1  0  0  0  0
  6  5  2  0  0  0  0
  7  1  1  0  0  0  0
  8  9  3  0  0  0  0
 10  6  1  0  0  0  0
 11 13  2  0  0  0  0
 12 11  2  0  0  0  0
 14  2  1  0  0  0  0
M  RAD  2   3   2   4   2
M  END
