Coordinates from ORCA-job 3-NO2-C6H3-N2-v2-B3LYPG-aug-cc-pVDZ-scan-d09-49-n400
 OpenBabel11091809153D

 14 13  0  0  0  0  0  0  0  0999 V2000
   -1.9265    0.2799   -0.9790 C   0  0  0  0  0  0  0  0  0  0  0  0
   -0.6275    0.1081   -0.4337 C   0  0  0  0  0  0  0  0  0  0  0  0
   -0.4147    1.0747    0.5238 C   0  0  0  0  0  0  0  0  0  0  0  0
   -1.1185    2.0132    0.9662 C   0  0  0  0  0  0  0  0  0  0  0  0
   -2.3915    2.2066    0.4536 C   0  0  0  0  0  0  0  0  0  0  0  0
   -2.7904    1.3013   -0.5500 C   0  0  0  0  0  0  0  0  0  0  0  0
   -2.2597   -0.4082   -1.7577 H   0  0  0  0  0  0  0  0  0  0  0  0
    2.9753   -1.1520    0.3965 N   0  0  0  0  0  0  0  0  0  0  0  0
    3.9471   -1.1494    0.9206 N   0  0  0  0  0  0  0  0  0  0  0  0
   -3.7814    1.4074   -0.9876 H   0  0  0  0  0  0  0  0  0  0  0  0
   -3.2904    3.2819    0.9110 N   0  0  0  0  0  0  0  0  0  0  0  0
   -4.3986    3.3562    0.3829 O   0  0  0  0  0  0  0  0  0  0  0  0
   -2.8695    4.0273    1.7868 O   0  0  0  0  0  0  0  0  0  0  0  0
    0.0513   -0.6774   -0.7558 H   0  0  0  0  0  0  0  0  0  0  0  0
  1  6  2  0  0  0  0
  1  2  1  0  0  0  0
  2  3  2  0  0  0  0
  3  4  1  0  0  0  0
  5 11  1  0  0  0  0
  5  4  2  0  0  0  0
  6  5  1  0  0  0  0
  7  1  1  0  0  0  0
  8  9  3  0  0  0  0
 10  6  1  0  0  0  0
 11 13  2  0  0  0  0
 12 11  2  0  0  0  0
 14  2  1  0  0  0  0
M  RAD  2   3   2   4   2
M  END
