Coordinates from ORCA-job 3-NO2-C6H3-N2-v2-B3LYPG-aug-cc-pVDZ-scan-d09-49-n400
 OpenBabel11091809153D

 14 13  0  0  0  0  0  0  0  0999 V2000
   -1.7465    0.3562   -0.8158 C   0  0  0  0  0  0  0  0  0  0  0  0
   -0.4907    0.3431   -0.1550 C   0  0  0  0  0  0  0  0  0  0  0  0
   -0.4553    1.3713    0.7614 C   0  0  0  0  0  0  0  0  0  0  0  0
   -1.2852    2.2528    1.0863 C   0  0  0  0  0  0  0  0  0  0  0  0
   -2.5205    2.2934    0.4604 C   0  0  0  0  0  0  0  0  0  0  0  0
   -2.7394    1.3048   -0.5197 C   0  0  0  0  0  0  0  0  0  0  0  0
   -1.9410   -0.3990   -1.5791 H   0  0  0  0  0  0  0  0  0  0  0  0
    3.0624   -1.5614    0.0861 N   0  0  0  0  0  0  0  0  0  0  0  0
    4.0862   -1.8382    0.3930 N   0  0  0  0  0  0  0  0  0  0  0  0
   -3.6933    1.2893   -1.0439 H   0  0  0  0  0  0  0  0  0  0  0  0
   -3.5552    3.2936    0.7794 N   0  0  0  0  0  0  0  0  0  0  0  0
   -4.6142    3.2308    0.1574 O   0  0  0  0  0  0  0  0  0  0  0  0
   -3.2867    4.1191    1.6435 O   0  0  0  0  0  0  0  0  0  0  0  0
    0.2846   -0.3863   -0.3763 H   0  0  0  0  0  0  0  0  0  0  0  0
  1  6  2  0  0  0  0
  1  2  1  0  0  0  0
  2  3  2  0  0  0  0
  3  4  1  0  0  0  0
  5 11  1  0  0  0  0
  5  4  2  0  0  0  0
  6  5  1  0  0  0  0
  7  1  1  0  0  0  0
  8  9  3  0  0  0  0
 10  6  1  0  0  0  0
 11 13  2  0  0  0  0
 12 11  2  0  0  0  0
 14  2  1  0  0  0  0
M  RAD  2   3   2   4   2
M  END
