Coordinates from ORCA-job 3-NO2-C6H3-N2-v2-B3LYPG-aug-cc-pVDZ-scan-d09-49-n400
 OpenBabel11091809153D

 14 13  0  0  0  0  0  0  0  0999 V2000
   -1.9828    0.1229   -1.1463 C   0  0  0  0  0  0  0  0  0  0  0  0
   -0.6760   -0.2496   -0.7717 C   0  0  0  0  0  0  0  0  0  0  0  0
   -0.2014    0.5870    0.2125 C   0  0  0  0  0  0  0  0  0  0  0  0
   -0.6719    1.5970    0.8420 C   0  0  0  0  0  0  0  0  0  0  0  0
   -1.9619    1.9487    0.4582 C   0  0  0  0  0  0  0  0  0  0  0  0
   -2.6261    1.2142   -0.5384 C   0  0  0  0  0  0  0  0  0  0  0  0
   -2.4977   -0.4475   -1.9197 H   0  0  0  0  0  0  0  0  0  0  0  0
    1.5792    0.0411    0.6898 N   0  0  0  0  0  0  0  0  0  0  0  0
    2.4414    0.2654    1.3490 N   0  0  0  0  0  0  0  0  0  0  0  0
   -3.6349    1.4965   -0.8321 H   0  0  0  0  0  0  0  0  0  0  0  0
   -2.6605    3.1028    1.0913 N   0  0  0  0  0  0  0  0  0  0  0  0
   -3.8013    3.3544    0.7019 O   0  0  0  0  0  0  0  0  0  0  0  0
   -2.0603    3.7237    1.9568 O   0  0  0  0  0  0  0  0  0  0  0  0
   -0.1404   -1.0869   -1.2157 H   0  0  0  0  0  0  0  0  0  0  0  0
  1  2  2  0  0  0  0
  1  6  1  0  0  0  0
  2  3  1  0  0  0  0
  3  4  2  0  0  0  0
  5  4  1  0  0  0  0
  5 11  1  0  0  0  0
  6  5  2  0  0  0  0
  7  1  1  0  0  0  0
  8  9  3  0  0  0  0
 10  6  1  0  0  0  0
 11 13  2  0  0  0  0
 12 11  2  0  0  0  0
 14  2  1  0  0  0  0
M  RAD  2   3   2   4   2
M  END
