Coordinates from ORCA-job 3-NO2-C6H3-N2-v2-B3LYPG-aug-cc-pVDZ-scan-d09-49-n400
 OpenBabel11091809153D

 14 13  0  0  0  0  0  0  0  0999 V2000
   -2.0138    0.1458   -1.1430 C   0  0  0  0  0  0  0  0  0  0  0  0
   -0.6996   -0.2248   -0.7627 C   0  0  0  0  0  0  0  0  0  0  0  0
   -0.2620    0.6305    0.2186 C   0  0  0  0  0  0  0  0  0  0  0  0
   -0.7597    1.6200    0.8160 C   0  0  0  0  0  0  0  0  0  0  0  0
   -2.0468    1.9931    0.4523 C   0  0  0  0  0  0  0  0  0  0  0  0
   -2.6789    1.2324   -0.5504 C   0  0  0  0  0  0  0  0  0  0  0  0
   -2.5175   -0.4332   -1.9184 H   0  0  0  0  0  0  0  0  0  0  0  0
    1.9367   -0.1389    0.7245 N   0  0  0  0  0  0  0  0  0  0  0  0
    2.7707    0.1230    1.4001 N   0  0  0  0  0  0  0  0  0  0  0  0
   -3.6880    1.4979   -0.8592 H   0  0  0  0  0  0  0  0  0  0  0  0
   -2.7458    3.1375    1.0772 N   0  0  0  0  0  0  0  0  0  0  0  0
   -3.8849    3.3872    0.6845 O   0  0  0  0  0  0  0  0  0  0  0  0
   -2.1433    3.7592    1.9425 O   0  0  0  0  0  0  0  0  0  0  0  0
   -0.1620   -1.0602   -1.2042 H   0  0  0  0  0  0  0  0  0  0  0  0
  1  2  2  0  0  0  0
  1  6  1  0  0  0  0
  2  3  1  0  0  0  0
  3  4  2  0  0  0  0
  5  4  1  0  0  0  0
  5 11  1  0  0  0  0
  6  5  2  0  0  0  0
  7  1  1  0  0  0  0
  8  9  3  0  0  0  0
 10  6  1  0  0  0  0
 11 13  2  0  0  0  0
 12 11  2  0  0  0  0
 14  2  1  0  0  0  0
M  RAD  2   3   2   4   2
M  END
