Coordinates from ORCA-job 3-NO2-C6H3-N2-v2-B3LYPG-aug-cc-pVDZ-scan-d09-49-n400
 OpenBabel11091809153D

 14 14  0  0  0  0  0  0  0  0999 V2000
   -1.9590    0.1126   -1.1428 C   0  0  0  0  0  0  0  0  0  0  0  0
   -0.6631   -0.2462   -0.7626 C   0  0  0  0  0  0  0  0  0  0  0  0
   -0.1514    0.5783    0.2329 C   0  0  0  0  0  0  0  0  0  0  0  0
   -0.6210    1.6276    0.8996 C   0  0  0  0  0  0  0  0  0  0  0  0
   -1.9153    1.9263    0.4678 C   0  0  0  0  0  0  0  0  0  0  0  0
   -2.5923    1.2066   -0.5248 C   0  0  0  0  0  0  0  0  0  0  0  0
   -2.4767   -0.4539   -1.9158 H   0  0  0  0  0  0  0  0  0  0  0  0
    1.3714    0.1669    0.6884 N   0  0  0  0  0  0  0  0  0  0  0  0
    2.3363    0.2046    1.2378 N   0  0  0  0  0  0  0  0  0  0  0  0
   -3.6012    1.4950   -0.8128 H   0  0  0  0  0  0  0  0  0  0  0  0
   -2.6457    3.0842    1.0902 N   0  0  0  0  0  0  0  0  0  0  0  0
   -3.7821    3.3210    0.6747 O   0  0  0  0  0  0  0  0  0  0  0  0
   -2.0705    3.7297    1.9515 O   0  0  0  0  0  0  0  0  0  0  0  0
   -0.1243   -1.0831   -1.2064 H   0  0  0  0  0  0  0  0  0  0  0  0
  1  2  2  0  0  0  0
  1  6  1  0  0  0  0
  2  3  1  0  0  0  0
  3  8  1  0  0  0  0
  3  4  2  0  0  0  0
  5  4  1  0  0  0  0
  5 11  1  0  0  0  0
  6  5  2  0  0  0  0
  7  1  1  0  0  0  0
  8  9  1  0  0  0  0
 10  6  1  0  0  0  0
 11 13  2  0  0  0  0
 12 11  2  0  0  0  0
 14  2  1  0  0  0  0
M  RAD  3   4   2   8   2   9   3
M  END
