Coordinates from ORCA-job 3-NO2-C6H3-N2-v2-B3LYPG-aug-cc-pVDZ-scan-d09-49-n400
 OpenBabel11091809153D

 14 13  0  0  0  0  0  0  0  0999 V2000
   -2.0139    0.2111   -1.0860 C   0  0  0  0  0  0  0  0  0  0  0  0
   -0.6998   -0.0797   -0.6365 C   0  0  0  0  0  0  0  0  0  0  0  0
   -0.3512    0.8254    0.3404 C   0  0  0  0  0  0  0  0  0  0  0  0
   -0.9488    1.7939    0.8663 C   0  0  0  0  0  0  0  0  0  0  0  0
   -2.2338    2.1028    0.4483 C   0  0  0  0  0  0  0  0  0  0  0  0
   -2.7663    1.2746   -0.5600 C   0  0  0  0  0  0  0  0  0  0  0  0
   -2.4488   -0.4158   -1.8661 H   0  0  0  0  0  0  0  0  0  0  0  0
    2.6135   -0.6797    0.6135 N   0  0  0  0  0  0  0  0  0  0  0  0
    3.4728   -0.4585    1.2706 N   0  0  0  0  0  0  0  0  0  0  0  0
   -3.7725    1.4738   -0.9246 H   0  0  0  0  0  0  0  0  0  0  0  0
   -3.0154    3.2214    1.0068 N   0  0  0  0  0  0  0  0  0  0  0  0
   -4.1458    3.4023    0.5575 O   0  0  0  0  0  0  0  0  0  0  0  0
   -2.4817    3.8955    1.8790 O   0  0  0  0  0  0  0  0  0  0  0  0
   -0.1032   -0.8976   -1.0315 H   0  0  0  0  0  0  0  0  0  0  0  0
  1  2  2  0  0  0  0
  1  6  1  0  0  0  0
  2  3  1  0  0  0  0
  3  4  2  0  0  0  0
  5  4  1  0  0  0  0
  5 11  1  0  0  0  0
  6  5  2  0  0  0  0
  7  1  1  0  0  0  0
  8  9  3  0  0  0  0
 10  6  1  0  0  0  0
 11 13  2  0  0  0  0
 12 11  2  0  0  0  0
 14  2  1  0  0  0  0
M  RAD  2   3   2   4   2
M  END
