Coordinates from ORCA-job 3-NO2-C6H3-N2-v2-B3LYPG-aug-cc-pVDZ-scan-d09-49-n400
 OpenBabel11091809153D

 14 13  0  0  0  0  0  0  0  0999 V2000
   -1.8947    0.2969   -0.9470 C   0  0  0  0  0  0  0  0  0  0  0  0
   -0.6026    0.1579   -0.3765 C   0  0  0  0  0  0  0  0  0  0  0  0
   -0.4254    1.1385    0.5743 C   0  0  0  0  0  0  0  0  0  0  0  0
   -1.1579    2.0663    0.9918 C   0  0  0  0  0  0  0  0  0  0  0  0
   -2.4251    2.2289    0.4552 C   0  0  0  0  0  0  0  0  0  0  0  0
   -2.7870    1.3047   -0.5452 C   0  0  0  0  0  0  0  0  0  0  0  0
   -2.1993   -0.4063   -1.7239 H   0  0  0  0  0  0  0  0  0  0  0  0
    3.0257   -1.2574    0.3320 N   0  0  0  0  0  0  0  0  0  0  0  0
    4.0162   -1.3091    0.8170 N   0  0  0  0  0  0  0  0  0  0  0  0
   -3.7718    1.3857   -1.0018 H   0  0  0  0  0  0  0  0  0  0  0  0
   -3.3533    3.2904    0.8847 N   0  0  0  0  0  0  0  0  0  0  0  0
   -4.4531    3.3368    0.3362 O   0  0  0  0  0  0  0  0  0  0  0  0
   -2.9632    4.0536    1.7596 O   0  0  0  0  0  0  0  0  0  0  0  0
    0.0967   -0.6174   -0.6787 H   0  0  0  0  0  0  0  0  0  0  0  0
  1  6  2  0  0  0  0
  1  2  1  0  0  0  0
  2  3  2  0  0  0  0
  3  4  1  0  0  0  0
  5 11  1  0  0  0  0
  5  4  2  0  0  0  0
  6  5  1  0  0  0  0
  7  1  1  0  0  0  0
  8  9  3  0  0  0  0
 10  6  1  0  0  0  0
 11 13  2  0  0  0  0
 12 11  2  0  0  0  0
 14  2  1  0  0  0  0
M  RAD  2   3   2   4   2
M  END
