Coordinates from ORCA-job 3-NO2-C6H3-N2-v2-B3LYPG-aug-cc-pVDZ-scan-d09-49-n400
 OpenBabel11091809153D

 14 13  0  0  0  0  0  0  0  0999 V2000
   -2.0053    0.1357   -1.1467 C   0  0  0  0  0  0  0  0  0  0  0  0
   -0.6936   -0.2411   -0.7719 C   0  0  0  0  0  0  0  0  0  0  0  0
   -0.2408    0.6075    0.2083 C   0  0  0  0  0  0  0  0  0  0  0  0
   -0.7245    1.6036    0.8151 C   0  0  0  0  0  0  0  0  0  0  0  0
   -2.0116    1.9775    0.4507 C   0  0  0  0  0  0  0  0  0  0  0  0
   -2.6586    1.2264   -0.5483 C   0  0  0  0  0  0  0  0  0  0  0  0
   -2.5165   -0.4391   -1.9201 H   0  0  0  0  0  0  0  0  0  0  0  0
    1.8048   -0.0667    0.7179 N   0  0  0  0  0  0  0  0  0  0  0  0
    2.6314    0.2072    1.3991 N   0  0  0  0  0  0  0  0  0  0  0  0
   -3.6674    1.5007   -0.8503 H   0  0  0  0  0  0  0  0  0  0  0  0
   -2.7028    3.1280    1.0798 N   0  0  0  0  0  0  0  0  0  0  0  0
   -3.8487    3.3732    0.7039 O   0  0  0  0  0  0  0  0  0  0  0  0
   -2.1012    3.7360    1.9549 O   0  0  0  0  0  0  0  0  0  0  0  0
   -0.1601   -1.0792   -1.2146 H   0  0  0  0  0  0  0  0  0  0  0  0
  1  2  2  0  0  0  0
  1  6  1  0  0  0  0
  2  3  1  0  0  0  0
  3  4  2  0  0  0  0
  5  4  1  0  0  0  0
  5 11  1  0  0  0  0
  6  5  2  0  0  0  0
  7  1  1  0  0  0  0
  8  9  3  0  0  0  0
 10  6  1  0  0  0  0
 11 13  2  0  0  0  0
 12 11  2  0  0  0  0
 14  2  1  0  0  0  0
M  RAD  2   3   2   4   2
M  END
