Coordinates from ORCA-job 3-NO2-C6H3-N2-v2-B3LYPG-aug-cc-pVDZ-scan-d09-49-n400
 OpenBabel11091809153D

 14 13  0  0  0  0  0  0  0  0999 V2000
   -1.9939    0.2316   -1.0573 C   0  0  0  0  0  0  0  0  0  0  0  0
   -0.6822   -0.0257   -0.5799 C   0  0  0  0  0  0  0  0  0  0  0  0
   -0.3732    0.8985    0.3921 C   0  0  0  0  0  0  0  0  0  0  0  0
   -1.0011    1.8600    0.8952 C   0  0  0  0  0  0  0  0  0  0  0  0
   -2.2842    2.1359    0.4494 C   0  0  0  0  0  0  0  0  0  0  0  0
   -2.7792    1.2844   -0.5586 C   0  0  0  0  0  0  0  0  0  0  0  0
   -2.4002   -0.4137   -1.8379 H   0  0  0  0  0  0  0  0  0  0  0  0
    2.7450   -0.8250    0.5572 N   0  0  0  0  0  0  0  0  0  0  0  0
    3.6459   -0.6724    1.1770 N   0  0  0  0  0  0  0  0  0  0  0  0
   -3.7822    1.4572   -0.9447 H   0  0  0  0  0  0  0  0  0  0  0  0
   -3.1004    3.2436    0.9794 N   0  0  0  0  0  0  0  0  0  0  0  0
   -4.2264    3.3931    0.5079 O   0  0  0  0  0  0  0  0  0  0  0  0
   -2.5989    3.9383    1.8545 O   0  0  0  0  0  0  0  0  0  0  0  0
   -0.0639   -0.8363   -0.9565 H   0  0  0  0  0  0  0  0  0  0  0  0
  1  2  2  0  0  0  0
  1  6  1  0  0  0  0
  2  3  1  0  0  0  0
  3  4  2  0  0  0  0
  5  4  1  0  0  0  0
  5 11  1  0  0  0  0
  6  5  2  0  0  0  0
  7  1  1  0  0  0  0
  8  9  3  0  0  0  0
 10  6  1  0  0  0  0
 11 13  2  0  0  0  0
 12 11  2  0  0  0  0
 14  2  1  0  0  0  0
M  RAD  2   3   2   4   2
M  END
