Coordinates from ORCA-job 3-NO2-C6H3-N2-v2-B3LYPG-aug-cc-pVDZ-scan-d09-49-n400
 OpenBabel11091809153D

 14 13  0  0  0  0  0  0  0  0999 V2000
   -1.9899    0.1273   -1.1463 C   0  0  0  0  0  0  0  0  0  0  0  0
   -0.6807   -0.2478   -0.7728 C   0  0  0  0  0  0  0  0  0  0  0  0
   -0.2157    0.5929    0.2103 C   0  0  0  0  0  0  0  0  0  0  0  0
   -0.6912    1.5955    0.8309 C   0  0  0  0  0  0  0  0  0  0  0  0
   -1.9801    1.9580    0.4572 C   0  0  0  0  0  0  0  0  0  0  0  0
   -2.6374    1.2175   -0.5412 C   0  0  0  0  0  0  0  0  0  0  0  0
   -2.5035   -0.4442   -1.9202 H   0  0  0  0  0  0  0  0  0  0  0  0
    1.6566    0.0018    0.6970 N   0  0  0  0  0  0  0  0  0  0  0  0
    2.4989    0.2541    1.3698 N   0  0  0  0  0  0  0  0  0  0  0  0
   -3.6463    1.4967   -0.8377 H   0  0  0  0  0  0  0  0  0  0  0  0
   -2.6746    3.1096    1.0907 N   0  0  0  0  0  0  0  0  0  0  0  0
   -3.8148    3.3645    0.7025 O   0  0  0  0  0  0  0  0  0  0  0  0
   -2.0699    3.7286    1.9551 O   0  0  0  0  0  0  0  0  0  0  0  0
   -0.1461   -1.0849   -1.2174 H   0  0  0  0  0  0  0  0  0  0  0  0
  1  2  2  0  0  0  0
  1  6  1  0  0  0  0
  2  3  1  0  0  0  0
  3  4  2  0  0  0  0
  5  4  1  0  0  0  0
  5 11  1  0  0  0  0
  6  5  2  0  0  0  0
  7  1  1  0  0  0  0
  8  9  3  0  0  0  0
 10  6  1  0  0  0  0
 11 13  2  0  0  0  0
 12 11  2  0  0  0  0
 14  2  1  0  0  0  0
M  RAD  2   3   2   4   2
M  END
