Coordinates from ORCA-job 3-NO2-C6H3-N2-v2-B3LYPG-aug-cc-pVDZ-scan-d09-49-n400
 OpenBabel11091809153D

 14 14  0  0  0  0  0  0  0  0999 V2000
   -1.9010    0.0828   -1.0785 C   0  0  0  0  0  0  0  0  0  0  0  0
   -0.6318   -0.2520   -0.6861 C   0  0  0  0  0  0  0  0  0  0  0  0
    0.0505    0.5737    0.3011 C   0  0  0  0  0  0  0  0  0  0  0  0
   -0.5719    1.7437    0.9664 C   0  0  0  0  0  0  0  0  0  0  0  0
   -1.8740    1.9345    0.4830 C   0  0  0  0  0  0  0  0  0  0  0  0
   -2.5307    1.2125   -0.5047 C   0  0  0  0  0  0  0  0  0  0  0  0
   -2.4215   -0.5142   -1.8258 H   0  0  0  0  0  0  0  0  0  0  0  0
    1.0773    0.3344    0.5796 N   0  0  0  0  0  0  0  0  0  0  0  0
    2.1490    0.0978    0.8809 N   0  0  0  0  0  0  0  0  0  0  0  0
   -3.5260    1.5136   -0.8298 H   0  0  0  0  0  0  0  0  0  0  0  0
   -2.6620    3.0744    1.0831 N   0  0  0  0  0  0  0  0  0  0  0  0
   -3.6327    3.4792    0.4400 O   0  0  0  0  0  0  0  0  0  0  0  0
   -2.3066    3.5106    2.1632 O   0  0  0  0  0  0  0  0  0  0  0  0
   -0.1135   -1.1214   -1.0945 H   0  0  0  0  0  0  0  0  0  0  0  0
  1  2  2  0  0  0  0
  1  6  1  0  0  0  0
  2  3  1  0  0  0  0
  3  8  1  0  0  0  0
  3  4  2  0  0  0  0
  5  4  1  0  0  0  0
  5 11  1  0  0  0  0
  6  5  2  0  0  0  0
  7  1  1  0  0  0  0
  8  9  1  0  0  0  0
 10  6  1  0  0  0  0
 11 13  2  0  0  0  0
 12 11  2  0  0  0  0
 14  2  1  0  0  0  0
M  RAD  3   4   2   8   2   9   3
M  END
