Coordinates from ORCA-job 3-NO2-C6H3-N2-v2-B3LYPG-aug-cc-pVDZ-scan-d09-49-n400
 OpenBabel11091809153D

 14 13  0  0  0  0  0  0  0  0999 V2000
   -1.8705    0.3088   -0.9236 C   0  0  0  0  0  0  0  0  0  0  0  0
   -0.5842    0.1935   -0.3355 C   0  0  0  0  0  0  0  0  0  0  0  0
   -0.4330    1.1838    0.6099 C   0  0  0  0  0  0  0  0  0  0  0  0
   -1.1848    2.1036    1.0101 C   0  0  0  0  0  0  0  0  0  0  0  0
   -2.4472    2.2437    0.4564 C   0  0  0  0  0  0  0  0  0  0  0  0
   -2.7826    1.3065   -0.5413 C   0  0  0  0  0  0  0  0  0  0  0  0
   -2.1547   -0.4048   -1.6987 H   0  0  0  0  0  0  0  0  0  0  0  0
    3.0531   -1.3274    0.2857 N   0  0  0  0  0  0  0  0  0  0  0  0
    4.0548   -1.4200    0.7406 N   0  0  0  0  0  0  0  0  0  0  0  0
   -3.7625    1.3696   -1.0110 H   0  0  0  0  0  0  0  0  0  0  0  0
   -3.3962    3.2947    0.8655 N   0  0  0  0  0  0  0  0  0  0  0  0
   -4.4893    3.3208    0.3025 O   0  0  0  0  0  0  0  0  0  0  0  0
   -3.0285    4.0703    1.7392 O   0  0  0  0  0  0  0  0  0  0  0  0
    0.1308   -0.5735   -0.6221 H   0  0  0  0  0  0  0  0  0  0  0  0
  1  6  2  0  0  0  0
  1  2  1  0  0  0  0
  2  3  2  0  0  0  0
  3  4  1  0  0  0  0
  5 11  1  0  0  0  0
  5  4  2  0  0  0  0
  6  5  1  0  0  0  0
  7  1  1  0  0  0  0
  8  9  3  0  0  0  0
 10  6  1  0  0  0  0
 11 13  2  0  0  0  0
 12 11  2  0  0  0  0
 14  2  1  0  0  0  0
M  RAD  2   3   2   4   2
M  END
