Coordinates from ORCA-job 3-NO2-C6H3-N2-v2-B3LYPG-aug-cc-pVDZ-scan-d09-49-n400
 OpenBabel11091809153D

 14 13  0  0  0  0  0  0  0  0999 V2000
   -1.9247    0.2809   -0.9771 C   0  0  0  0  0  0  0  0  0  0  0  0
   -0.6259    0.1106   -0.4305 C   0  0  0  0  0  0  0  0  0  0  0  0
   -0.4158    1.0785    0.5266 C   0  0  0  0  0  0  0  0  0  0  0  0
   -1.1208    2.0165    0.9678 C   0  0  0  0  0  0  0  0  0  0  0  0
   -2.3935    2.2080    0.4538 C   0  0  0  0  0  0  0  0  0  0  0  0
   -2.7902    1.3016   -0.5496 C   0  0  0  0  0  0  0  0  0  0  0  0
   -2.2564   -0.4079   -1.7557 H   0  0  0  0  0  0  0  0  0  0  0  0
    2.9791   -1.1586    0.3929 N   0  0  0  0  0  0  0  0  0  0  0  0
    3.9520   -1.1588    0.9150 N   0  0  0  0  0  0  0  0  0  0  0  0
   -3.7809    1.4063   -0.9884 H   0  0  0  0  0  0  0  0  0  0  0  0
   -3.2942    3.2826    0.9095 N   0  0  0  0  0  0  0  0  0  0  0  0
   -4.4020    3.3552    0.3803 O   0  0  0  0  0  0  0  0  0  0  0  0
   -2.8751    4.0291    1.7853 O   0  0  0  0  0  0  0  0  0  0  0  0
    0.0536   -0.6744   -0.7519 H   0  0  0  0  0  0  0  0  0  0  0  0
  1  6  2  0  0  0  0
  1  2  1  0  0  0  0
  2  3  2  0  0  0  0
  3  4  1  0  0  0  0
  5 11  1  0  0  0  0
  5  4  2  0  0  0  0
  6  5  1  0  0  0  0
  7  1  1  0  0  0  0
  8  9  3  0  0  0  0
 10  6  1  0  0  0  0
 11 13  2  0  0  0  0
 12 11  2  0  0  0  0
 14  2  1  0  0  0  0
M  RAD  2   3   2   4   2
M  END
