Coordinates from ORCA-job 3-NO2-C6H3-N2-v2-B3LYPG-aug-cc-pVDZ-scan-d09-49-n400
 OpenBabel11091809153D

 14 13  0  0  0  0  0  0  0  0999 V2000
   -2.0233    0.1587   -1.1368 C   0  0  0  0  0  0  0  0  0  0  0  0
   -0.7077   -0.2016   -0.7470 C   0  0  0  0  0  0  0  0  0  0  0  0
   -0.2853    0.6621    0.2336 C   0  0  0  0  0  0  0  0  0  0  0  0
   -0.8013    1.6470    0.8175 C   0  0  0  0  0  0  0  0  0  0  0  0
   -2.0877    2.0151    0.4500 C   0  0  0  0  0  0  0  0  0  0  0  0
   -2.7026    1.2420   -0.5545 C   0  0  0  0  0  0  0  0  0  0  0  0
   -2.5171   -0.4276   -1.9134 H   0  0  0  0  0  0  0  0  0  0  0  0
    2.0985   -0.2345    0.7273 N   0  0  0  0  0  0  0  0  0  0  0  0
    2.9430    0.0110    1.3952 N   0  0  0  0  0  0  0  0  0  0  0  0
   -3.7118    1.4968   -0.8724 H   0  0  0  0  0  0  0  0  0  0  0  0
   -2.7977    3.1552    1.0655 N   0  0  0  0  0  0  0  0  0  0  0  0
   -3.9355    3.3963    0.6645 O   0  0  0  0  0  0  0  0  0  0  0  0
   -2.2033    3.7842    1.9315 O   0  0  0  0  0  0  0  0  0  0  0  0
   -0.1630   -1.0350   -1.1832 H   0  0  0  0  0  0  0  0  0  0  0  0
  1  2  2  0  0  0  0
  1  6  1  0  0  0  0
  2  3  1  0  0  0  0
  3  4  2  0  0  0  0
  5  4  1  0  0  0  0
  5 11  1  0  0  0  0
  6  5  2  0  0  0  0
  7  1  1  0  0  0  0
  8  9  3  0  0  0  0
 10  6  1  0  0  0  0
 11 13  2  0  0  0  0
 12 11  2  0  0  0  0
 14  2  1  0  0  0  0
M  RAD  2   3   2   4   2
M  END
