Coordinates from ORCA-job 3-NO2-C6H3-N2-v2-B3LYPG-aug-cc-pVDZ-scan-d09-49-n400
 OpenBabel11091809153D

 14 13  0  0  0  0  0  0  0  0999 V2000
   -2.0079    0.2173   -1.0772 C   0  0  0  0  0  0  0  0  0  0  0  0
   -0.6941   -0.0636   -0.6193 C   0  0  0  0  0  0  0  0  0  0  0  0
   -0.3582    0.8477    0.3558 C   0  0  0  0  0  0  0  0  0  0  0  0
   -0.9646    1.8143    0.8750 C   0  0  0  0  0  0  0  0  0  0  0  0
   -2.2491    2.1132    0.4485 C   0  0  0  0  0  0  0  0  0  0  0  0
   -2.7703    1.2778   -0.5597 C   0  0  0  0  0  0  0  0  0  0  0  0
   -2.4341   -0.4153   -1.8575 H   0  0  0  0  0  0  0  0  0  0  0  0
    2.6543   -0.7237    0.5971 N   0  0  0  0  0  0  0  0  0  0  0  0
    3.5271   -0.5237    1.2429 N   0  0  0  0  0  0  0  0  0  0  0  0
   -3.7756    1.4689   -0.9309 H   0  0  0  0  0  0  0  0  0  0  0  0
   -3.0412    3.2288    0.9983 N   0  0  0  0  0  0  0  0  0  0  0  0
   -4.1709    3.3994    0.5429 O   0  0  0  0  0  0  0  0  0  0  0  0
   -2.5176    3.9086    1.8721 O   0  0  0  0  0  0  0  0  0  0  0  0
   -0.0928   -0.8801   -1.0102 H   0  0  0  0  0  0  0  0  0  0  0  0
  1  2  2  0  0  0  0
  1  6  1  0  0  0  0
  2  3  1  0  0  0  0
  3  4  2  0  0  0  0
  5  4  1  0  0  0  0
  5 11  1  0  0  0  0
  6  5  2  0  0  0  0
  7  1  1  0  0  0  0
  8  9  3  0  0  0  0
 10  6  1  0  0  0  0
 11 13  2  0  0  0  0
 12 11  2  0  0  0  0
 14  2  1  0  0  0  0
M  RAD  2   3   2   4   2
M  END
