Coordinates from ORCA-job 3-NO2-C6H3-N2-v2-B3LYPG-aug-cc-pVDZ-scan-d09-49-n400
 OpenBabel11091809153D

 14 14  0  0  0  0  0  0  0  0999 V2000
   -1.9085    0.0857   -1.0863 C   0  0  0  0  0  0  0  0  0  0  0  0
   -0.6331   -0.2466   -0.7009 C   0  0  0  0  0  0  0  0  0  0  0  0
    0.0116    0.5799    0.2937 C   0  0  0  0  0  0  0  0  0  0  0  0
   -0.5783    1.7289    0.9641 C   0  0  0  0  0  0  0  0  0  0  0  0
   -1.8795    1.9349    0.4828 C   0  0  0  0  0  0  0  0  0  0  0  0
   -2.5406    1.2077   -0.4995 C   0  0  0  0  0  0  0  0  0  0  0  0
   -2.4300   -0.5052   -1.8376 H   0  0  0  0  0  0  0  0  0  0  0  0
    1.1292    0.3175    0.6098 N   0  0  0  0  0  0  0  0  0  0  0  0
    2.1883    0.0814    0.9199 N   0  0  0  0  0  0  0  0  0  0  0  0
   -3.5421    1.5000   -0.8131 H   0  0  0  0  0  0  0  0  0  0  0  0
   -2.6630    3.0809    1.0784 N   0  0  0  0  0  0  0  0  0  0  0  0
   -3.6564    3.4610    0.4541 O   0  0  0  0  0  0  0  0  0  0  0  0
   -2.2822    3.5492    2.1364 O   0  0  0  0  0  0  0  0  0  0  0  0
   -0.1102   -1.1058   -1.1241 H   0  0  0  0  0  0  0  0  0  0  0  0
  1  2  2  0  0  0  0
  1  6  1  0  0  0  0
  2  3  1  0  0  0  0
  3  8  1  0  0  0  0
  3  4  2  0  0  0  0
  5  4  1  0  0  0  0
  5 11  1  0  0  0  0
  6  5  2  0  0  0  0
  7  1  1  0  0  0  0
  8  9  1  0  0  0  0
 10  6  1  0  0  0  0
 11 13  2  0  0  0  0
 12 11  2  0  0  0  0
 14  2  1  0  0  0  0
M  RAD  3   4   2   8   2   9   3
M  END
