Coordinates from ORCA-job 3-NO2-C6H3-N2-v2-B3LYPG-aug-cc-pVDZ-scan-d09-49-n400
 OpenBabel11091809153D

 14 13  0  0  0  0  0  0  0  0999 V2000
   -1.9946    0.1299   -1.1465 C   0  0  0  0  0  0  0  0  0  0  0  0
   -0.6843   -0.2459   -0.7730 C   0  0  0  0  0  0  0  0  0  0  0  0
   -0.2240    0.5971    0.2094 C   0  0  0  0  0  0  0  0  0  0  0  0
   -0.7023    1.5965    0.8259 C   0  0  0  0  0  0  0  0  0  0  0  0
   -1.9907    1.9634    0.4562 C   0  0  0  0  0  0  0  0  0  0  0  0
   -2.6443    1.2198   -0.5429 C   0  0  0  0  0  0  0  0  0  0  0  0
   -2.5073   -0.4422   -1.9206 H   0  0  0  0  0  0  0  0  0  0  0  0
    1.7032   -0.0200    0.7031 N   0  0  0  0  0  0  0  0  0  0  0  0
    2.5386    0.2417    1.3800 N   0  0  0  0  0  0  0  0  0  0  0  0
   -3.6533    1.4972   -0.8411 H   0  0  0  0  0  0  0  0  0  0  0  0
   -2.6840    3.1139    1.0894 N   0  0  0  0  0  0  0  0  0  0  0  0
   -3.8240    3.3693    0.7018 O   0  0  0  0  0  0  0  0  0  0  0  0
   -2.0779    3.7319    1.9538 O   0  0  0  0  0  0  0  0  0  0  0  0
   -0.1500   -1.0829   -1.2177 H   0  0  0  0  0  0  0  0  0  0  0  0
  1  2  2  0  0  0  0
  1  6  1  0  0  0  0
  2  3  1  0  0  0  0
  3  4  2  0  0  0  0
  5  4  1  0  0  0  0
  5 11  1  0  0  0  0
  6  5  2  0  0  0  0
  7  1  1  0  0  0  0
  8  9  3  0  0  0  0
 10  6  1  0  0  0  0
 11 13  2  0  0  0  0
 12 11  2  0  0  0  0
 14  2  1  0  0  0  0
M  RAD  2   3   2   4   2
M  END
