Coordinates from ORCA-job 3-NO2-C6H3-N2-v2-B3LYPG-aug-cc-pVDZ-scan-d09-49-n400
 OpenBabel11091809153D

 14 13  0  0  0  0  0  0  0  0999 V2000
   -2.0255    0.1639   -1.1333 C   0  0  0  0  0  0  0  0  0  0  0  0
   -0.7095   -0.1915   -0.7387 C   0  0  0  0  0  0  0  0  0  0  0  0
   -0.2939    0.6766    0.2411 C   0  0  0  0  0  0  0  0  0  0  0  0
   -0.8168    1.6604    0.8195 C   0  0  0  0  0  0  0  0  0  0  0  0
   -2.1031    2.0248    0.4486 C   0  0  0  0  0  0  0  0  0  0  0  0
   -2.7109    1.2460   -0.5562 C   0  0  0  0  0  0  0  0  0  0  0  0
   -2.5148   -0.4260   -1.9100 H   0  0  0  0  0  0  0  0  0  0  0  0
    2.1585   -0.2743    0.7250 N   0  0  0  0  0  0  0  0  0  0  0  0
    3.0085   -0.0369    1.3887 N   0  0  0  0  0  0  0  0  0  0  0  0
   -3.7200    1.4961   -0.8784 H   0  0  0  0  0  0  0  0  0  0  0  0
   -2.8185    3.1635    1.0589 N   0  0  0  0  0  0  0  0  0  0  0  0
   -3.9573    3.3973    0.6568 O   0  0  0  0  0  0  0  0  0  0  0  0
   -2.2300    3.7939    1.9280 O   0  0  0  0  0  0  0  0  0  0  0  0
   -0.1619   -1.0243   -1.1721 H   0  0  0  0  0  0  0  0  0  0  0  0
  1  2  2  0  0  0  0
  1  6  1  0  0  0  0
  2  3  1  0  0  0  0
  3  4  2  0  0  0  0
  5  4  1  0  0  0  0
  5 11  1  0  0  0  0
  6  5  2  0  0  0  0
  7  1  1  0  0  0  0
  8  9  3  0  0  0  0
 10  6  1  0  0  0  0
 11 13  2  0  0  0  0
 12 11  2  0  0  0  0
 14  2  1  0  0  0  0
M  RAD  2   3   2   4   2
M  END
