Coordinates from ORCA-job 3-NO2-C6H3-N2-v2-B3LYPG-aug-cc-pVDZ-scan-d09-49-n400
 OpenBabel11091809153D

 14 13  0  0  0  0  0  0  0  0999 V2000
   -1.7590    0.3524   -0.8259 C   0  0  0  0  0  0  0  0  0  0  0  0
   -0.5001    0.3301   -0.1713 C   0  0  0  0  0  0  0  0  0  0  0  0
   -0.4540    1.3551    0.7477 C   0  0  0  0  0  0  0  0  0  0  0  0
   -1.2772    2.2403    1.0795 C   0  0  0  0  0  0  0  0  0  0  0  0
   -2.5155    2.2900    0.4599 C   0  0  0  0  0  0  0  0  0  0  0  0
   -2.7450    1.3057   -0.5220 C   0  0  0  0  0  0  0  0  0  0  0  0
   -1.9616   -0.3994   -1.5905 H   0  0  0  0  0  0  0  0  0  0  0  0
    3.0697   -1.5457    0.1038 N   0  0  0  0  0  0  0  0  0  0  0  0
    4.0934   -1.8053    0.4256 N   0  0  0  0  0  0  0  0  0  0  0  0
   -3.7016    1.2973   -1.0415 H   0  0  0  0  0  0  0  0  0  0  0  0
   -3.5426    3.2953    0.7872 N   0  0  0  0  0  0  0  0  0  0  0  0
   -4.6054    3.2401    0.1707 O   0  0  0  0  0  0  0  0  0  0  0  0
   -3.2653    4.1161    1.6528 O   0  0  0  0  0  0  0  0  0  0  0  0
    0.2695   -0.4023   -0.3984 H   0  0  0  0  0  0  0  0  0  0  0  0
  1  6  2  0  0  0  0
  1  2  1  0  0  0  0
  2  3  2  0  0  0  0
  3  4  1  0  0  0  0
  5 11  1  0  0  0  0
  5  4  2  0  0  0  0
  6  5  1  0  0  0  0
  7  1  1  0  0  0  0
  8  9  3  0  0  0  0
 10  6  1  0  0  0  0
 11 13  2  0  0  0  0
 12 11  2  0  0  0  0
 14  2  1  0  0  0  0
M  RAD  2   3   2   4   2
M  END
