Coordinates from ORCA-job 3-NO2-C6H3-N2-v2-B3LYPG-aug-cc-pVDZ-scan-d09-49-n400
 OpenBabel11091809153D

 14 13  0  0  0  0  0  0  0  0999 V2000
   -1.9894    0.1267   -1.1464 C   0  0  0  0  0  0  0  0  0  0  0  0
   -0.6805   -0.2482   -0.7726 C   0  0  0  0  0  0  0  0  0  0  0  0
   -0.2143    0.5924    0.2102 C   0  0  0  0  0  0  0  0  0  0  0  0
   -0.6889    1.5961    0.8314 C   0  0  0  0  0  0  0  0  0  0  0  0
   -1.9778    1.9575    0.4565 C   0  0  0  0  0  0  0  0  0  0  0  0
   -2.6361    1.2175   -0.5413 C   0  0  0  0  0  0  0  0  0  0  0  0
   -2.5032   -0.4448   -1.9200 H   0  0  0  0  0  0  0  0  0  0  0  0
    1.6487    0.0060    0.6966 N   0  0  0  0  0  0  0  0  0  0  0  0
    2.4931    0.2555    1.3680 N   0  0  0  0  0  0  0  0  0  0  0  0
   -3.6450    1.4971   -0.8376 H   0  0  0  0  0  0  0  0  0  0  0  0
   -2.6724    3.1100    1.0896 N   0  0  0  0  0  0  0  0  0  0  0  0
   -3.8140    3.3624    0.7038 O   0  0  0  0  0  0  0  0  0  0  0  0
   -2.0693    3.7271    1.9563 O   0  0  0  0  0  0  0  0  0  0  0  0
   -0.1459   -1.0856   -1.2168 H   0  0  0  0  0  0  0  0  0  0  0  0
  1  2  2  0  0  0  0
  1  6  1  0  0  0  0
  2  3  1  0  0  0  0
  3  4  2  0  0  0  0
  5  4  1  0  0  0  0
  5 11  1  0  0  0  0
  6  5  2  0  0  0  0
  7  1  1  0  0  0  0
  8  9  3  0  0  0  0
 10  6  1  0  0  0  0
 11 13  2  0  0  0  0
 12 11  2  0  0  0  0
 14  2  1  0  0  0  0
M  RAD  2   3   2   4   2
M  END
