Coordinates from ORCA-job 3-NO2-C6H3-N2-v2-B3LYPG-aug-cc-pVDZ-scan-d09-49-n400
 OpenBabel11091809153D

 14 13  0  0  0  0  0  0  0  0999 V2000
   -1.8485    0.3191   -0.9029 C   0  0  0  0  0  0  0  0  0  0  0  0
   -0.5670    0.2229   -0.3007 C   0  0  0  0  0  0  0  0  0  0  0  0
   -0.4393    1.2220    0.6398 C   0  0  0  0  0  0  0  0  0  0  0  0
   -1.2068    2.1349    1.0255 C   0  0  0  0  0  0  0  0  0  0  0  0
   -2.4647    2.2557    0.4573 C   0  0  0  0  0  0  0  0  0  0  0  0
   -2.7772    1.3078   -0.5374 C   0  0  0  0  0  0  0  0  0  0  0  0
   -2.1157   -0.4030   -1.6762 H   0  0  0  0  0  0  0  0  0  0  0  0
    3.0706   -1.3832    0.2464 N   0  0  0  0  0  0  0  0  0  0  0  0
    4.0800   -1.5104    0.6753 N   0  0  0  0  0  0  0  0  0  0  0  0
   -3.7526    1.3553   -1.0183 H   0  0  0  0  0  0  0  0  0  0  0  0
   -3.4312    3.2975    0.8489 N   0  0  0  0  0  0  0  0  0  0  0  0
   -4.5185    3.3058    0.2743 O   0  0  0  0  0  0  0  0  0  0  0  0
   -3.0829    4.0831    1.7216 O   0  0  0  0  0  0  0  0  0  0  0  0
    0.1590   -0.5380   -0.5759 H   0  0  0  0  0  0  0  0  0  0  0  0
  1  6  2  0  0  0  0
  1  2  1  0  0  0  0
  2  3  2  0  0  0  0
  3  4  1  0  0  0  0
  5 11  1  0  0  0  0
  5  4  2  0  0  0  0
  6  5  1  0  0  0  0
  7  1  1  0  0  0  0
  8  9  3  0  0  0  0
 10  6  1  0  0  0  0
 11 13  2  0  0  0  0
 12 11  2  0  0  0  0
 14  2  1  0  0  0  0
M  RAD  2   3   2   4   2
M  END
