Coordinates from ORCA-job 3-NO2-C6H3-N2-v2-B3LYPG-aug-cc-pVDZ-scan-d09-49-n400
 OpenBabel11091809153D

 14 13  0  0  0  0  0  0  0  0999 V2000
   -1.9865    0.1250   -1.1465 C   0  0  0  0  0  0  0  0  0  0  0  0
   -0.6785   -0.2486   -0.7727 C   0  0  0  0  0  0  0  0  0  0  0  0
   -0.2086    0.5896    0.2113 C   0  0  0  0  0  0  0  0  0  0  0  0
   -0.6817    1.5954    0.8366 C   0  0  0  0  0  0  0  0  0  0  0  0
   -1.9712    1.9525    0.4582 C   0  0  0  0  0  0  0  0  0  0  0  0
   -2.6320    1.2155   -0.5395 C   0  0  0  0  0  0  0  0  0  0  0  0
   -2.5007   -0.4456   -1.9204 H   0  0  0  0  0  0  0  0  0  0  0  0
    1.6180    0.0216    0.6934 N   0  0  0  0  0  0  0  0  0  0  0  0
    2.4693    0.2612    1.3604 N   0  0  0  0  0  0  0  0  0  0  0  0
   -3.6410    1.4963   -0.8344 H   0  0  0  0  0  0  0  0  0  0  0  0
   -2.6677    3.1051    1.0923 N   0  0  0  0  0  0  0  0  0  0  0  0
   -3.8070    3.3606    0.7014 O   0  0  0  0  0  0  0  0  0  0  0  0
   -2.0639    3.7266    1.9551 O   0  0  0  0  0  0  0  0  0  0  0  0
   -0.1432   -1.0856   -1.2173 H   0  0  0  0  0  0  0  0  0  0  0  0
  1  2  2  0  0  0  0
  1  6  1  0  0  0  0
  2  3  1  0  0  0  0
  3  4  2  0  0  0  0
  5  4  1  0  0  0  0
  5 11  1  0  0  0  0
  6  5  2  0  0  0  0
  7  1  1  0  0  0  0
  8  9  3  0  0  0  0
 10  6  1  0  0  0  0
 11 13  2  0  0  0  0
 12 11  2  0  0  0  0
 14  2  1  0  0  0  0
M  RAD  2   3   2   4   2
M  END
