Coordinates from ORCA-job 3-NO2-C6H3-N2-v2-B3LYPG-aug-cc-pVDZ-scan-d09-49-n400
 OpenBabel11091809153D

 14 13  0  0  0  0  0  0  0  0999 V2000
   -1.9857    0.1246   -1.1463 C   0  0  0  0  0  0  0  0  0  0  0  0
   -0.6779   -0.2490   -0.7723 C   0  0  0  0  0  0  0  0  0  0  0  0
   -0.2070    0.5891    0.2114 C   0  0  0  0  0  0  0  0  0  0  0  0
   -0.6798    1.5958    0.8371 C   0  0  0  0  0  0  0  0  0  0  0  0
   -1.9692    1.9523    0.4579 C   0  0  0  0  0  0  0  0  0  0  0  0
   -2.6307    1.2154   -0.5395 C   0  0  0  0  0  0  0  0  0  0  0  0
   -2.5001   -0.4461   -1.9200 H   0  0  0  0  0  0  0  0  0  0  0  0
    1.6103    0.0248    0.6922 N   0  0  0  0  0  0  0  0  0  0  0  0
    2.4628    0.2629    1.3584 N   0  0  0  0  0  0  0  0  0  0  0  0
   -3.6396    1.4965   -0.8343 H   0  0  0  0  0  0  0  0  0  0  0  0
   -2.6658    3.1053    1.0914 N   0  0  0  0  0  0  0  0  0  0  0  0
   -3.8062    3.3589    0.7024 O   0  0  0  0  0  0  0  0  0  0  0  0
   -2.0633    3.7255    1.9561 O   0  0  0  0  0  0  0  0  0  0  0  0
   -0.1428   -1.0863   -1.2167 H   0  0  0  0  0  0  0  0  0  0  0  0
  1  2  2  0  0  0  0
  1  6  1  0  0  0  0
  2  3  1  0  0  0  0
  3  4  2  0  0  0  0
  5  4  1  0  0  0  0
  5 11  1  0  0  0  0
  6  5  2  0  0  0  0
  7  1  1  0  0  0  0
  8  9  3  0  0  0  0
 10  6  1  0  0  0  0
 11 13  2  0  0  0  0
 12 11  2  0  0  0  0
 14  2  1  0  0  0  0
M  RAD  2   3   2   4   2
M  END
