Coordinates from ORCA-job 3-NO2-C6H3-N2-v2-B3LYPG-aug-cc-pVDZ-scan-d09-49-n400
 OpenBabel11091809153D

 14 13  0  0  0  0  0  0  0  0999 V2000
   -2.0201    0.1530   -1.1401 C   0  0  0  0  0  0  0  0  0  0  0  0
   -0.7051   -0.2124   -0.7549 C   0  0  0  0  0  0  0  0  0  0  0  0
   -0.2750    0.6473    0.2262 C   0  0  0  0  0  0  0  0  0  0  0  0
   -0.7834    1.6341    0.8154 C   0  0  0  0  0  0  0  0  0  0  0  0
   -2.0700    2.0056    0.4507 C   0  0  0  0  0  0  0  0  0  0  0  0
   -2.6927    1.2379   -0.5531 C   0  0  0  0  0  0  0  0  0  0  0  0
   -2.5187   -0.4299   -1.9160 H   0  0  0  0  0  0  0  0  0  0  0  0
    2.0301   -0.1919    0.7281 N   0  0  0  0  0  0  0  0  0  0  0  0
    2.8691    0.0622    1.4001 N   0  0  0  0  0  0  0  0  0  0  0  0
   -3.7019    1.4977   -0.8667 H   0  0  0  0  0  0  0  0  0  0  0  0
   -2.7744    3.1476    1.0706 N   0  0  0  0  0  0  0  0  0  0  0  0
   -3.9130    3.3927    0.6743 O   0  0  0  0  0  0  0  0  0  0  0  0
   -2.1759    3.7725    1.9367 O   0  0  0  0  0  0  0  0  0  0  0  0
   -0.1638   -1.0468   -1.1935 H   0  0  0  0  0  0  0  0  0  0  0  0
  1  2  2  0  0  0  0
  1  6  1  0  0  0  0
  2  3  1  0  0  0  0
  3  4  2  0  0  0  0
  5  4  1  0  0  0  0
  5 11  1  0  0  0  0
  6  5  2  0  0  0  0
  7  1  1  0  0  0  0
  8  9  3  0  0  0  0
 10  6  1  0  0  0  0
 11 13  2  0  0  0  0
 12 11  2  0  0  0  0
 14  2  1  0  0  0  0
M  RAD  2   3   2   4   2
M  END
