Coordinates from ORCA-job 3-NO2-C6H3-N2-v2-B3LYPG-aug-cc-pVDZ-scan-d09-49-n400
 OpenBabel11091809153D

 14 13  0  0  0  0  0  0  0  0999 V2000
   -2.0089    0.1385   -1.1468 C   0  0  0  0  0  0  0  0  0  0  0  0
   -0.6962   -0.2375   -0.7719 C   0  0  0  0  0  0  0  0  0  0  0  0
   -0.2473    0.6114    0.2098 C   0  0  0  0  0  0  0  0  0  0  0  0
   -0.7352    1.6042    0.8152 C   0  0  0  0  0  0  0  0  0  0  0  0
   -2.0224    1.9793    0.4532 C   0  0  0  0  0  0  0  0  0  0  0  0
   -2.6653    1.2270   -0.5479 C   0  0  0  0  0  0  0  0  0  0  0  0
   -2.5184   -0.4362   -1.9215 H   0  0  0  0  0  0  0  0  0  0  0  0
    1.8444   -0.0854    0.7219 N   0  0  0  0  0  0  0  0  0  0  0  0
    2.6685    0.1909    1.4047 N   0  0  0  0  0  0  0  0  0  0  0  0
   -3.6744    1.4992   -0.8508 H   0  0  0  0  0  0  0  0  0  0  0  0
   -2.7152    3.1265    1.0838 N   0  0  0  0  0  0  0  0  0  0  0  0
   -3.8548    3.3814    0.6957 O   0  0  0  0  0  0  0  0  0  0  0  0
   -2.1081    3.7442    1.9484 O   0  0  0  0  0  0  0  0  0  0  0  0
   -0.1617   -1.0740   -1.2160 H   0  0  0  0  0  0  0  0  0  0  0  0
  1  2  2  0  0  0  0
  1  6  1  0  0  0  0
  2  3  1  0  0  0  0
  3  4  2  0  0  0  0
  5  4  1  0  0  0  0
  5 11  1  0  0  0  0
  6  5  2  0  0  0  0
  7  1  1  0  0  0  0
  8  9  3  0  0  0  0
 10  6  1  0  0  0  0
 11 13  2  0  0  0  0
 12 11  2  0  0  0  0
 14  2  1  0  0  0  0
M  RAD  2   3   2   4   2
M  END
