Coordinates from ORCA-job 3-NO2-C6H3-N2-v2-B3LYPG-aug-cc-pVDZ-scan-d09-49-n400
 OpenBabel11091809153D

 14 13  0  0  0  0  0  0  0  0999 V2000
   -2.0264    0.1645   -1.1334 C   0  0  0  0  0  0  0  0  0  0  0  0
   -0.7107   -0.1899   -0.7382 C   0  0  0  0  0  0  0  0  0  0  0  0
   -0.2941    0.6779    0.2425 C   0  0  0  0  0  0  0  0  0  0  0  0
   -0.8189    1.6613    0.8198 C   0  0  0  0  0  0  0  0  0  0  0  0
   -2.1053    2.0252    0.4487 C   0  0  0  0  0  0  0  0  0  0  0  0
   -2.7125    1.2463   -0.5564 C   0  0  0  0  0  0  0  0  0  0  0  0
   -2.5151   -0.4257   -1.9102 H   0  0  0  0  0  0  0  0  0  0  0  0
    2.1671   -0.2790    0.7252 N   0  0  0  0  0  0  0  0  0  0  0  0
    3.0174   -0.0423    1.3888 N   0  0  0  0  0  0  0  0  0  0  0  0
   -3.7216    1.4960   -0.8786 H   0  0  0  0  0  0  0  0  0  0  0  0
   -2.8214    3.1634    1.0590 N   0  0  0  0  0  0  0  0  0  0  0  0
   -3.9592    3.3984    0.6549 O   0  0  0  0  0  0  0  0  0  0  0  0
   -2.2324    3.7955    1.9266 O   0  0  0  0  0  0  0  0  0  0  0  0
   -0.1619   -1.0222   -1.1710 H   0  0  0  0  0  0  0  0  0  0  0  0
  1  2  2  0  0  0  0
  1  6  1  0  0  0  0
  2  3  1  0  0  0  0
  3  4  2  0  0  0  0
  5  4  1  0  0  0  0
  5 11  1  0  0  0  0
  6  5  2  0  0  0  0
  7  1  1  0  0  0  0
  8  9  3  0  0  0  0
 10  6  1  0  0  0  0
 11 13  2  0  0  0  0
 12 11  2  0  0  0  0
 14  2  1  0  0  0  0
M  RAD  2   3   2   4   2
M  END
