Coordinates from ORCA-job 3-NO2-C6H3-N2-v2-B3LYPG-aug-cc-pVDZ-scan-d09-49-n400
 OpenBabel11091809153D

 14 13  0  0  0  0  0  0  0  0999 V2000
   -2.0010    0.2244   -1.0674 C   0  0  0  0  0  0  0  0  0  0  0  0
   -0.6882   -0.0447   -0.5997 C   0  0  0  0  0  0  0  0  0  0  0  0
   -0.3658    0.8731    0.3739 C   0  0  0  0  0  0  0  0  0  0  0  0
   -0.9828    1.8373    0.8852 C   0  0  0  0  0  0  0  0  0  0  0  0
   -2.2668    2.1246    0.4489 C   0  0  0  0  0  0  0  0  0  0  0  0
   -2.7749    1.2811   -0.5592 C   0  0  0  0  0  0  0  0  0  0  0  0
   -2.4173   -0.4146   -1.8478 H   0  0  0  0  0  0  0  0  0  0  0  0
    2.7001   -0.7744    0.5774 N   0  0  0  0  0  0  0  0  0  0  0  0
    3.5875   -0.5984    1.2102 N   0  0  0  0  0  0  0  0  0  0  0  0
   -3.7791    1.4631   -0.9378 H   0  0  0  0  0  0  0  0  0  0  0  0
   -3.0709    3.2363    0.9889 N   0  0  0  0  0  0  0  0  0  0  0  0
   -4.1989    3.3964    0.5254 O   0  0  0  0  0  0  0  0  0  0  0  0
   -2.5584    3.9236    1.8634 O   0  0  0  0  0  0  0  0  0  0  0  0
   -0.0785   -0.8583   -0.9836 H   0  0  0  0  0  0  0  0  0  0  0  0
  1  2  2  0  0  0  0
  1  6  1  0  0  0  0
  2  3  1  0  0  0  0
  3  4  2  0  0  0  0
  5  4  1  0  0  0  0
  5 11  1  0  0  0  0
  6  5  2  0  0  0  0
  7  1  1  0  0  0  0
  8  9  3  0  0  0  0
 10  6  1  0  0  0  0
 11 13  2  0  0  0  0
 12 11  2  0  0  0  0
 14  2  1  0  0  0  0
M  RAD  2   3   2   4   2
M  END
