Coordinates from ORCA-job 3-NO2-C6H3-N2-v2-B3LYPG-aug-cc-pVDZ-scan-d09-49-n400
 OpenBabel11091809153D

 14 13  0  0  0  0  0  0  0  0999 V2000
   -1.9088    0.2898   -0.9608 C   0  0  0  0  0  0  0  0  0  0  0  0
   -0.6138    0.1369   -0.4010 C   0  0  0  0  0  0  0  0  0  0  0  0
   -0.4214    1.1116    0.5528 C   0  0  0  0  0  0  0  0  0  0  0  0
   -1.1415    2.0441    0.9811 C   0  0  0  0  0  0  0  0  0  0  0  0
   -2.4113    2.2196    0.4545 C   0  0  0  0  0  0  0  0  0  0  0  0
   -2.7891    1.3035   -0.5473 C   0  0  0  0  0  0  0  0  0  0  0  0
   -2.2256   -0.4071   -1.7386 H   0  0  0  0  0  0  0  0  0  0  0  0
    3.0075   -1.2148    0.3593 N   0  0  0  0  0  0  0  0  0  0  0  0
    3.9903   -1.2424    0.8617 N   0  0  0  0  0  0  0  0  0  0  0  0
   -3.7767    1.3953   -0.9959 H   0  0  0  0  0  0  0  0  0  0  0  0
   -3.3272    3.2872    0.8959 N   0  0  0  0  0  0  0  0  0  0  0  0
   -4.4307    3.3455    0.3560 O   0  0  0  0  0  0  0  0  0  0  0  0
   -2.9240    4.0429    1.7712 O   0  0  0  0  0  0  0  0  0  0  0  0
    0.0774   -0.6425   -0.7112 H   0  0  0  0  0  0  0  0  0  0  0  0
  1  6  2  0  0  0  0
  1  2  1  0  0  0  0
  2  3  2  0  0  0  0
  3  4  1  0  0  0  0
  5 11  1  0  0  0  0
  5  4  2  0  0  0  0
  6  5  1  0  0  0  0
  7  1  1  0  0  0  0
  8  9  3  0  0  0  0
 10  6  1  0  0  0  0
 11 13  2  0  0  0  0
 12 11  2  0  0  0  0
 14  2  1  0  0  0  0
M  RAD  2   3   2   4   2
M  END
