Coordinates from ORCA-job 3-NO2-C6H3-N2-v2-B3LYPG-aug-cc-pVDZ-scan-d09-49-n400
 OpenBabel11091809153D

 14 14  0  0  0  0  0  0  0  0999 V2000
   -1.9626    0.1133   -1.1438 C   0  0  0  0  0  0  0  0  0  0  0  0
   -0.6654   -0.2477   -0.7639 C   0  0  0  0  0  0  0  0  0  0  0  0
   -0.1579    0.5784    0.2286 C   0  0  0  0  0  0  0  0  0  0  0  0
   -0.6250    1.6226    0.8894 C   0  0  0  0  0  0  0  0  0  0  0  0
   -1.9184    1.9293    0.4641 C   0  0  0  0  0  0  0  0  0  0  0  0
   -2.5958    1.2080   -0.5280 C   0  0  0  0  0  0  0  0  0  0  0  0
   -2.4805   -0.4541   -1.9161 H   0  0  0  0  0  0  0  0  0  0  0  0
    1.3924    0.1517    0.6868 N   0  0  0  0  0  0  0  0  0  0  0  0
    2.3429    0.2220    1.2572 N   0  0  0  0  0  0  0  0  0  0  0  0
   -3.6044    1.4967   -0.8165 H   0  0  0  0  0  0  0  0  0  0  0  0
   -2.6426    3.0887    1.0874 N   0  0  0  0  0  0  0  0  0  0  0  0
   -3.7837    3.3219    0.6836 O   0  0  0  0  0  0  0  0  0  0  0  0
   -2.0666    3.7245    1.9557 O   0  0  0  0  0  0  0  0  0  0  0  0
   -0.1272   -1.0856   -1.2066 H   0  0  0  0  0  0  0  0  0  0  0  0
  1  2  2  0  0  0  0
  1  6  1  0  0  0  0
  2  3  1  0  0  0  0
  3  8  1  0  0  0  0
  3  4  2  0  0  0  0
  5  4  1  0  0  0  0
  5 11  1  0  0  0  0
  6  5  2  0  0  0  0
  7  1  1  0  0  0  0
  8  9  1  0  0  0  0
 10  6  1  0  0  0  0
 11 13  2  0  0  0  0
 12 11  2  0  0  0  0
 14  2  1  0  0  0  0
M  RAD  3   4   2   8   2   9   3
M  END
