Coordinates from ORCA-job 3-NO2-C6H3-N2-v2-B3LYPG-aug-cc-pVDZ-scan-d09-49-n400
 OpenBabel11091809153D

 14 13  0  0  0  0  0  0  0  0999 V2000
   -2.0129    0.2119   -1.0844 C   0  0  0  0  0  0  0  0  0  0  0  0
   -0.6988   -0.0777   -0.6335 C   0  0  0  0  0  0  0  0  0  0  0  0
   -0.3519    0.8295    0.3417 C   0  0  0  0  0  0  0  0  0  0  0  0
   -0.9499    1.7988    0.8655 C   0  0  0  0  0  0  0  0  0  0  0  0
   -2.2347    2.1065    0.4460 C   0  0  0  0  0  0  0  0  0  0  0  0
   -2.7662    1.2761   -0.5610 C   0  0  0  0  0  0  0  0  0  0  0  0
   -2.4470   -0.4167   -1.8636 H   0  0  0  0  0  0  0  0  0  0  0  0
    2.6188   -0.6867    0.6117 N   0  0  0  0  0  0  0  0  0  0  0  0
    3.4801   -0.4680    1.2668 N   0  0  0  0  0  0  0  0  0  0  0  0
   -3.7721    1.4741   -0.9267 H   0  0  0  0  0  0  0  0  0  0  0  0
   -3.0170    3.2261    1.0015 N   0  0  0  0  0  0  0  0  0  0  0  0
   -4.1519    3.3979    0.5598 O   0  0  0  0  0  0  0  0  0  0  0  0
   -2.4888    3.8945    1.8814 O   0  0  0  0  0  0  0  0  0  0  0  0
   -0.1027   -0.8966   -1.0273 H   0  0  0  0  0  0  0  0  0  0  0  0
  1  2  2  0  0  0  0
  1  6  1  0  0  0  0
  2  3  1  0  0  0  0
  3  4  2  0  0  0  0
  5  4  1  0  0  0  0
  5 11  1  0  0  0  0
  6  5  2  0  0  0  0
  7  1  1  0  0  0  0
  8  9  3  0  0  0  0
 10  6  1  0  0  0  0
 11 13  2  0  0  0  0
 12 11  2  0  0  0  0
 14  2  1  0  0  0  0
M  RAD  2   3   2   4   2
M  END
