Coordinates from ORCA-job 3-NO2-C6H3-N2-v2-B3LYPG-aug-cc-pVDZ-scan-d09-49-n400
 OpenBabel11091809153D

 14 13  0  0  0  0  0  0  0  0999 V2000
   -2.0171    0.1501   -1.1411 C   0  0  0  0  0  0  0  0  0  0  0  0
   -0.7022   -0.2175   -0.7580 C   0  0  0  0  0  0  0  0  0  0  0  0
   -0.2702    0.6404    0.2229 C   0  0  0  0  0  0  0  0  0  0  0  0
   -0.7739    1.6281    0.8160 C   0  0  0  0  0  0  0  0  0  0  0  0
   -2.0607    2.0003    0.4518 C   0  0  0  0  0  0  0  0  0  0  0  0
   -2.6869    1.2355   -0.5517 C   0  0  0  0  0  0  0  0  0  0  0  0
   -2.5177   -0.4311   -1.9169 H   0  0  0  0  0  0  0  0  0  0  0  0
    1.9907   -0.1696    0.7264 N   0  0  0  0  0  0  0  0  0  0  0  0
    2.8284    0.0865    1.3993 N   0  0  0  0  0  0  0  0  0  0  0  0
   -3.6962    1.4974   -0.8634 H   0  0  0  0  0  0  0  0  0  0  0  0
   -2.7631    3.1431    1.0740 N   0  0  0  0  0  0  0  0  0  0  0  0
   -3.9012    3.3911    0.6778 O   0  0  0  0  0  0  0  0  0  0  0  0
   -2.1624    3.7677    1.9387 O   0  0  0  0  0  0  0  0  0  0  0  0
   -0.1625   -1.0522   -1.1981 H   0  0  0  0  0  0  0  0  0  0  0  0
  1  2  2  0  0  0  0
  1  6  1  0  0  0  0
  2  3  1  0  0  0  0
  3  4  2  0  0  0  0
  5  4  1  0  0  0  0
  5 11  1  0  0  0  0
  6  5  2  0  0  0  0
  7  1  1  0  0  0  0
  8  9  3  0  0  0  0
 10  6  1  0  0  0  0
 11 13  2  0  0  0  0
 12 11  2  0  0  0  0
 14  2  1  0  0  0  0
M  RAD  2   3   2   4   2
M  END
