Coordinates from ORCA-job 3-NO2-C6H3-N2-v2-B3LYPG-aug-cc-pVDZ-scan-d09-49-n400
 OpenBabel11091809153D

 14 13  0  0  0  0  0  0  0  0999 V2000
   -1.8511    0.3178   -0.9054 C   0  0  0  0  0  0  0  0  0  0  0  0
   -0.5691    0.2197   -0.3045 C   0  0  0  0  0  0  0  0  0  0  0  0
   -0.4384    1.2175    0.6364 C   0  0  0  0  0  0  0  0  0  0  0  0
   -1.2042    2.1312    1.0238 C   0  0  0  0  0  0  0  0  0  0  0  0
   -2.4626    2.2542    0.4572 C   0  0  0  0  0  0  0  0  0  0  0  0
   -2.7779    1.3075   -0.5379 C   0  0  0  0  0  0  0  0  0  0  0  0
   -2.1200   -0.4034   -1.6789 H   0  0  0  0  0  0  0  0  0  0  0  0
    3.0681   -1.3765    0.2508 N   0  0  0  0  0  0  0  0  0  0  0  0
    4.0767   -1.5001    0.6825 N   0  0  0  0  0  0  0  0  0  0  0  0
   -3.7538    1.3568   -1.0175 H   0  0  0  0  0  0  0  0  0  0  0  0
   -3.4271    3.2971    0.8509 N   0  0  0  0  0  0  0  0  0  0  0  0
   -4.5150    3.3076    0.2774 O   0  0  0  0  0  0  0  0  0  0  0  0
   -3.0765    4.0817    1.7235 O   0  0  0  0  0  0  0  0  0  0  0  0
    0.1561   -0.5415   -0.5806 H   0  0  0  0  0  0  0  0  0  0  0  0
  1  6  2  0  0  0  0
  1  2  1  0  0  0  0
  2  3  2  0  0  0  0
  3  4  1  0  0  0  0
  5 11  1  0  0  0  0
  5  4  2  0  0  0  0
  6  5  1  0  0  0  0
  7  1  1  0  0  0  0
  8  9  3  0  0  0  0
 10  6  1  0  0  0  0
 11 13  2  0  0  0  0
 12 11  2  0  0  0  0
 14  2  1  0  0  0  0
M  RAD  2   3   2   4   2
M  END
