Coordinates from ORCA-job 3-NO2-C6H3-N2-v2-B3LYPG-aug-cc-pVDZ-scan-d09-49-n400
 OpenBabel11091809153D

 14 13  0  0  0  0  0  0  0  0999 V2000
   -2.0025    0.1346   -1.1467 C   0  0  0  0  0  0  0  0  0  0  0  0
   -0.6907   -0.2417   -0.7727 C   0  0  0  0  0  0  0  0  0  0  0  0
   -0.2372    0.6047    0.2092 C   0  0  0  0  0  0  0  0  0  0  0  0
   -0.7206    1.6001    0.8193 C   0  0  0  0  0  0  0  0  0  0  0  0
   -2.0084    1.9723    0.4546 C   0  0  0  0  0  0  0  0  0  0  0  0
   -2.6559    1.2238   -0.5457 C   0  0  0  0  0  0  0  0  0  0  0  0
   -2.5135   -0.4389   -1.9211 H   0  0  0  0  0  0  0  0  0  0  0  0
    1.7815   -0.0563    0.7135 N   0  0  0  0  0  0  0  0  0  0  0  0
    2.6092    0.2155    1.3945 N   0  0  0  0  0  0  0  0  0  0  0  0
   -3.6649    1.4982   -0.8465 H   0  0  0  0  0  0  0  0  0  0  0  0
   -2.7009    3.1209    1.0865 N   0  0  0  0  0  0  0  0  0  0  0  0
   -3.8407    3.3764    0.6989 O   0  0  0  0  0  0  0  0  0  0  0  0
   -2.0938    3.7384    1.9510 O   0  0  0  0  0  0  0  0  0  0  0  0
   -0.1565   -1.0785   -1.2171 H   0  0  0  0  0  0  0  0  0  0  0  0
  1  2  2  0  0  0  0
  1  6  1  0  0  0  0
  2  3  1  0  0  0  0
  3  4  2  0  0  0  0
  5  4  1  0  0  0  0
  5 11  1  0  0  0  0
  6  5  2  0  0  0  0
  7  1  1  0  0  0  0
  8  9  3  0  0  0  0
 10  6  1  0  0  0  0
 11 13  2  0  0  0  0
 12 11  2  0  0  0  0
 14  2  1  0  0  0  0
M  RAD  2   3   2   4   2
M  END
