Coordinates from ORCA-job 3-NO2-C6H3-N2-v2-B3LYPG-aug-cc-pVDZ-scan-d09-49-n400
 OpenBabel11091809153D

 14 14  0  0  0  0  0  0  0  0999 V2000
   -1.9224    0.0946   -1.1060 C   0  0  0  0  0  0  0  0  0  0  0  0
   -0.6387   -0.2420   -0.7261 C   0  0  0  0  0  0  0  0  0  0  0  0
   -0.0513    0.5840    0.2756 C   0  0  0  0  0  0  0  0  0  0  0  0
   -0.5902    1.6999    0.9549 C   0  0  0  0  0  0  0  0  0  0  0  0
   -1.8894    1.9334    0.4808 C   0  0  0  0  0  0  0  0  0  0  0  0
   -2.5562    1.2040   -0.5007 C   0  0  0  0  0  0  0  0  0  0  0  0
   -2.4442   -0.4848   -1.8659 H   0  0  0  0  0  0  0  0  0  0  0  0
    1.2091    0.2852    0.6598 N   0  0  0  0  0  0  0  0  0  0  0  0
    2.2501    0.0731    1.0079 N   0  0  0  0  0  0  0  0  0  0  0  0
   -3.5641    1.4881   -0.7996 H   0  0  0  0  0  0  0  0  0  0  0  0
   -2.6620    3.0870    1.0762 N   0  0  0  0  0  0  0  0  0  0  0  0
   -3.7175    3.4006    0.5194 O   0  0  0  0  0  0  0  0  0  0  0  0
   -2.2098    3.6342    2.0666 O   0  0  0  0  0  0  0  0  0  0  0  0
   -0.1082   -1.0878   -1.1651 H   0  0  0  0  0  0  0  0  0  0  0  0
  1  2  2  0  0  0  0
  1  6  1  0  0  0  0
  2  3  1  0  0  0  0
  3  8  1  0  0  0  0
  3  4  2  0  0  0  0
  5  4  1  0  0  0  0
  5 11  1  0  0  0  0
  6  5  2  0  0  0  0
  7  1  1  0  0  0  0
  8  9  1  0  0  0  0
 10  6  1  0  0  0  0
 11 13  2  0  0  0  0
 12 11  2  0  0  0  0
 14  2  1  0  0  0  0
M  RAD  3   4   2   8   2   9   3
M  END
