Coordinates from ORCA-job 3-NO2-C6H3-N2-v2-B3LYPG-aug-cc-pVDZ-scan-d09-49-n400
 OpenBabel11091809153D

 14 13  0  0  0  0  0  0  0  0999 V2000
   -1.9955    0.1304   -1.1467 C   0  0  0  0  0  0  0  0  0  0  0  0
   -0.6851   -0.2455   -0.7731 C   0  0  0  0  0  0  0  0  0  0  0  0
   -0.2254    0.5977    0.2093 C   0  0  0  0  0  0  0  0  0  0  0  0
   -0.7040    1.5968    0.8253 C   0  0  0  0  0  0  0  0  0  0  0  0
   -1.9924    1.9640    0.4560 C   0  0  0  0  0  0  0  0  0  0  0  0
   -2.6455    1.2202   -0.5432 C   0  0  0  0  0  0  0  0  0  0  0  0
   -2.5081   -0.4419   -1.9208 H   0  0  0  0  0  0  0  0  0  0  0  0
    1.7111   -0.0232    0.7044 N   0  0  0  0  0  0  0  0  0  0  0  0
    2.5457    0.2393    1.3817 N   0  0  0  0  0  0  0  0  0  0  0  0
   -3.6545    1.4973   -0.8415 H   0  0  0  0  0  0  0  0  0  0  0  0
   -2.6856    3.1144    1.0892 N   0  0  0  0  0  0  0  0  0  0  0  0
   -3.8255    3.3701    0.7014 O   0  0  0  0  0  0  0  0  0  0  0  0
   -2.0793    3.7325    1.9535 O   0  0  0  0  0  0  0  0  0  0  0  0
   -0.1508   -1.0825   -1.2178 H   0  0  0  0  0  0  0  0  0  0  0  0
  1  2  2  0  0  0  0
  1  6  1  0  0  0  0
  2  3  1  0  0  0  0
  3  4  2  0  0  0  0
  5  4  1  0  0  0  0
  5 11  1  0  0  0  0
  6  5  2  0  0  0  0
  7  1  1  0  0  0  0
  8  9  3  0  0  0  0
 10  6  1  0  0  0  0
 11 13  2  0  0  0  0
 12 11  2  0  0  0  0
 14  2  1  0  0  0  0
M  RAD  2   3   2   4   2
M  END
