Coordinates from ORCA-job 3-NO2-C6H3-N2-v2-B3LYPG-aug-cc-pVDZ-scan-d09-49-n400
 OpenBabel11091809153D

 14 13  0  0  0  0  0  0  0  0999 V2000
   -1.9922    0.1286   -1.1464 C   0  0  0  0  0  0  0  0  0  0  0  0
   -0.6824   -0.2469   -0.7729 C   0  0  0  0  0  0  0  0  0  0  0  0
   -0.2199    0.5950    0.2098 C   0  0  0  0  0  0  0  0  0  0  0  0
   -0.6968    1.5959    0.8282 C   0  0  0  0  0  0  0  0  0  0  0  0
   -1.9854    1.9607    0.4567 C   0  0  0  0  0  0  0  0  0  0  0  0
   -2.6408    1.2187   -0.5420 C   0  0  0  0  0  0  0  0  0  0  0  0
   -2.5054   -0.4433   -1.9204 H   0  0  0  0  0  0  0  0  0  0  0  0
    1.6798   -0.0092    0.6999 N   0  0  0  0  0  0  0  0  0  0  0  0
    2.5184    0.2482    1.3750 N   0  0  0  0  0  0  0  0  0  0  0  0
   -3.6498    1.4969   -0.8394 H   0  0  0  0  0  0  0  0  0  0  0  0
   -2.6792    3.1118    1.0901 N   0  0  0  0  0  0  0  0  0  0  0  0
   -3.8194    3.3670    0.7023 O   0  0  0  0  0  0  0  0  0  0  0  0
   -2.0738    3.7302    1.9545 O   0  0  0  0  0  0  0  0  0  0  0  0
   -0.1480   -1.0840   -1.2175 H   0  0  0  0  0  0  0  0  0  0  0  0
  1  2  2  0  0  0  0
  1  6  1  0  0  0  0
  2  3  1  0  0  0  0
  3  4  2  0  0  0  0
  5  4  1  0  0  0  0
  5 11  1  0  0  0  0
  6  5  2  0  0  0  0
  7  1  1  0  0  0  0
  8  9  3  0  0  0  0
 10  6  1  0  0  0  0
 11 13  2  0  0  0  0
 12 11  2  0  0  0  0
 14  2  1  0  0  0  0
M  RAD  2   3   2   4   2
M  END
