Coordinates from ORCA-job 3-NO2-C6H3-N2-v2-B3LYPG-aug-cc-pVDZ-scan-d09-49-n400
 OpenBabel11091809153D

 14 13  0  0  0  0  0  0  0  0999 V2000
   -2.0153    0.2097   -1.0882 C   0  0  0  0  0  0  0  0  0  0  0  0
   -0.7009   -0.0834   -0.6409 C   0  0  0  0  0  0  0  0  0  0  0  0
   -0.3499    0.8194    0.3373 C   0  0  0  0  0  0  0  0  0  0  0  0
   -0.9458    1.7876    0.8656 C   0  0  0  0  0  0  0  0  0  0  0  0
   -2.2310    2.0988    0.4498 C   0  0  0  0  0  0  0  0  0  0  0  0
   -2.7657    1.2732   -0.5593 C   0  0  0  0  0  0  0  0  0  0  0  0
   -2.4518   -0.4152   -1.8689 H   0  0  0  0  0  0  0  0  0  0  0  0
    2.6018   -0.6653    0.6189 N   0  0  0  0  0  0  0  0  0  0  0  0
    3.4617   -0.4451    1.2760 N   0  0  0  0  0  0  0  0  0  0  0  0
   -3.7721    1.4742   -0.9222 H   0  0  0  0  0  0  0  0  0  0  0  0
   -3.0105    3.2172    1.0116 N   0  0  0  0  0  0  0  0  0  0  0  0
   -4.1381    3.4055    0.5579 O   0  0  0  0  0  0  0  0  0  0  0  0
   -2.4717    3.8942    1.8784 O   0  0  0  0  0  0  0  0  0  0  0  0
   -0.1057   -0.9013   -1.0381 H   0  0  0  0  0  0  0  0  0  0  0  0
  1  2  2  0  0  0  0
  1  6  1  0  0  0  0
  2  3  1  0  0  0  0
  3  4  2  0  0  0  0
  5  4  1  0  0  0  0
  5 11  1  0  0  0  0
  6  5  2  0  0  0  0
  7  1  1  0  0  0  0
  8  9  3  0  0  0  0
 10  6  1  0  0  0  0
 11 13  2  0  0  0  0
 12 11  2  0  0  0  0
 14  2  1  0  0  0  0
M  RAD  2   3   2   4   2
M  END
