Coordinates from ORCA-job 3-NO2-C6H3-N2-v2-B3LYPG-aug-cc-pVDZ-scan-d09-49-n400
 OpenBabel11091809153D

 14 13  0  0  0  0  0  0  0  0999 V2000
   -2.0285    0.1771   -1.1234 C   0  0  0  0  0  0  0  0  0  0  0  0
   -0.7125   -0.1623   -0.7153 C   0  0  0  0  0  0  0  0  0  0  0  0
   -0.3116    0.7146    0.2650 C   0  0  0  0  0  0  0  0  0  0  0  0
   -0.8563    1.6941    0.8286 C   0  0  0  0  0  0  0  0  0  0  0  0
   -2.1425    2.0463    0.4475 C   0  0  0  0  0  0  0  0  0  0  0  0
   -2.7311    1.2547   -0.5587 C   0  0  0  0  0  0  0  0  0  0  0  0
   -2.5043   -0.4221   -1.9014 H   0  0  0  0  0  0  0  0  0  0  0  0
    2.3000   -0.3750    0.7122 N   0  0  0  0  0  0  0  0  0  0  0  0
    3.1657   -0.1627    1.3637 N   0  0  0  0  0  0  0  0  0  0  0  0
   -3.7398    1.4921   -0.8915 H   0  0  0  0  0  0  0  0  0  0  0  0
   -2.8738    3.1800    1.0456 N   0  0  0  0  0  0  0  0  0  0  0  0
   -4.0102    3.4025    0.6308 O   0  0  0  0  0  0  0  0  0  0  0  0
   -2.2973    3.8220    1.9145 O   0  0  0  0  0  0  0  0  0  0  0  0
   -0.1527   -0.9915   -1.1397 H   0  0  0  0  0  0  0  0  0  0  0  0
  1  2  2  0  0  0  0
  1  6  1  0  0  0  0
  2  3  1  0  0  0  0
  3  4  2  0  0  0  0
  5  4  1  0  0  0  0
  5 11  1  0  0  0  0
  6  5  2  0  0  0  0
  7  1  1  0  0  0  0
  8  9  3  0  0  0  0
 10  6  1  0  0  0  0
 11 13  2  0  0  0  0
 12 11  2  0  0  0  0
 14  2  1  0  0  0  0
M  RAD  2   3   2   4   2
M  END
