Coordinates from ORCA-job 3-NO2-C6H3-N2-v2-B3LYPG-aug-cc-pVDZ-scan-d09-49-n400
 OpenBabel11091809153D

 14 13  0  0  0  0  0  0  0  0999 V2000
   -1.8678    0.3102   -0.9210 C   0  0  0  0  0  0  0  0  0  0  0  0
   -0.5818    0.1966   -0.3316 C   0  0  0  0  0  0  0  0  0  0  0  0
   -0.4337    1.1886    0.6132 C   0  0  0  0  0  0  0  0  0  0  0  0
   -1.1874    2.1077    1.0116 C   0  0  0  0  0  0  0  0  0  0  0  0
   -2.4492    2.2455    0.4562 C   0  0  0  0  0  0  0  0  0  0  0  0
   -2.7818    1.3069   -0.5408 C   0  0  0  0  0  0  0  0  0  0  0  0
   -2.1503   -0.4045   -1.6958 H   0  0  0  0  0  0  0  0  0  0  0  0
    3.0555   -1.3343    0.2812 N   0  0  0  0  0  0  0  0  0  0  0  0
    4.0581   -1.4306    0.7334 N   0  0  0  0  0  0  0  0  0  0  0  0
   -3.7613    1.3681   -1.0119 H   0  0  0  0  0  0  0  0  0  0  0  0
   -3.4003    3.2957    0.8631 N   0  0  0  0  0  0  0  0  0  0  0  0
   -4.4934    3.3186    0.2999 O   0  0  0  0  0  0  0  0  0  0  0  0
   -3.0354    4.0715    1.7376 O   0  0  0  0  0  0  0  0  0  0  0  0
    0.1337   -0.5702   -0.6174 H   0  0  0  0  0  0  0  0  0  0  0  0
  1  6  2  0  0  0  0
  1  2  1  0  0  0  0
  2  3  2  0  0  0  0
  3  4  1  0  0  0  0
  5 11  1  0  0  0  0
  5  4  2  0  0  0  0
  6  5  1  0  0  0  0
  7  1  1  0  0  0  0
  8  9  3  0  0  0  0
 10  6  1  0  0  0  0
 11 13  2  0  0  0  0
 12 11  2  0  0  0  0
 14  2  1  0  0  0  0
M  RAD  2   3   2   4   2
M  END
