Coordinates from ORCA-job 3-NO2-C6H3-N2-v2-B3LYPG-aug-cc-pVDZ-scan-d09-49-n400
 OpenBabel11091809153D

 14 14  0  0  0  0  0  0  0  0999 V2000
   -1.8977    0.0819   -1.0755 C   0  0  0  0  0  0  0  0  0  0  0  0
   -0.6321   -0.2548   -0.6792 C   0  0  0  0  0  0  0  0  0  0  0  0
    0.0703    0.5677    0.3055 C   0  0  0  0  0  0  0  0  0  0  0  0
   -0.5698    1.7507    0.9680 C   0  0  0  0  0  0  0  0  0  0  0  0
   -1.8720    1.9340    0.4832 C   0  0  0  0  0  0  0  0  0  0  0  0
   -2.5264    1.2148   -0.5077 C   0  0  0  0  0  0  0  0  0  0  0  0
   -2.4172   -0.5174   -1.8218 H   0  0  0  0  0  0  0  0  0  0  0  0
    1.0519    0.3417    0.5659 N   0  0  0  0  0  0  0  0  0  0  0  0
    2.1312    0.1072    0.8633 N   0  0  0  0  0  0  0  0  0  0  0  0
   -3.5184    1.5207   -0.8386 H   0  0  0  0  0  0  0  0  0  0  0  0
   -2.6614    3.0713    1.0854 N   0  0  0  0  0  0  0  0  0  0  0  0
   -3.6239    3.4851    0.4364 O   0  0  0  0  0  0  0  0  0  0  0  0
   -2.3148    3.4952    2.1731 O   0  0  0  0  0  0  0  0  0  0  0  0
   -0.1147   -1.1284   -1.0802 H   0  0  0  0  0  0  0  0  0  0  0  0
  1  2  2  0  0  0  0
  1  6  1  0  0  0  0
  2  3  1  0  0  0  0
  3  8  1  0  0  0  0
  3  4  2  0  0  0  0
  5  4  1  0  0  0  0
  5 11  1  0  0  0  0
  6  5  2  0  0  0  0
  7  1  1  0  0  0  0
  8  9  1  0  0  0  0
 10  6  1  0  0  0  0
 11 13  2  0  0  0  0
 12 11  2  0  0  0  0
 14  2  1  0  0  0  0
M  RAD  3   4   2   8   2   9   3
M  END
