Coordinates from ORCA-job 3-NO2-C6H3-N2-v2-B3LYPG-aug-cc-pVDZ-scan-d09-49-n400
 OpenBabel11091809153D

 14 14  0  0  0  0  0  0  0  0999 V2000
   -1.9243    0.0962   -1.1091 C   0  0  0  0  0  0  0  0  0  0  0  0
   -0.6399   -0.2416   -0.7289 C   0  0  0  0  0  0  0  0  0  0  0  0
   -0.0591    0.5841    0.2733 C   0  0  0  0  0  0  0  0  0  0  0  0
   -0.5919    1.6961    0.9532 C   0  0  0  0  0  0  0  0  0  0  0  0
   -1.8908    1.9331    0.4801 C   0  0  0  0  0  0  0  0  0  0  0  0
   -2.5582    1.2041   -0.5019 C   0  0  0  0  0  0  0  0  0  0  0  0
   -2.4458   -0.4818   -1.8702 H   0  0  0  0  0  0  0  0  0  0  0  0
    1.2191    0.2798    0.6653 N   0  0  0  0  0  0  0  0  0  0  0  0
    2.2579    0.0741    1.0208 N   0  0  0  0  0  0  0  0  0  0  0  0
   -3.5664    1.4881   -0.7997 H   0  0  0  0  0  0  0  0  0  0  0  0
   -2.6617    3.0873    1.0764 N   0  0  0  0  0  0  0  0  0  0  0  0
   -3.7268    3.3903    0.5320 O   0  0  0  0  0  0  0  0  0  0  0  0
   -2.1986    3.6462    2.0552 O   0  0  0  0  0  0  0  0  0  0  0  0
   -0.1085   -1.0863   -1.1688 H   0  0  0  0  0  0  0  0  0  0  0  0
  1  2  2  0  0  0  0
  1  6  1  0  0  0  0
  2  3  1  0  0  0  0
  3  8  1  0  0  0  0
  3  4  2  0  0  0  0
  5  4  1  0  0  0  0
  5 11  1  0  0  0  0
  6  5  2  0  0  0  0
  7  1  1  0  0  0  0
  8  9  1  0  0  0  0
 10  6  1  0  0  0  0
 11 13  2  0  0  0  0
 12 11  2  0  0  0  0
 14  2  1  0  0  0  0
M  RAD  3   4   2   8   2   9   3
M  END
