Coordinates from ORCA-job 3-NO2-C6H3-N2-v2-B3LYPG-aug-cc-pVDZ-scan-d09-49-n400
 OpenBabel11091809153D

 14 13  0  0  0  0  0  0  0  0999 V2000
   -1.9698    0.2521   -1.0261 C   0  0  0  0  0  0  0  0  0  0  0  0
   -0.6622    0.0294   -0.5207 C   0  0  0  0  0  0  0  0  0  0  0  0
   -0.3922    0.9733    0.4446 C   0  0  0  0  0  0  0  0  0  0  0  0
   -1.0510    1.9271    0.9219 C   0  0  0  0  0  0  0  0  0  0  0  0
   -2.3309    2.1695    0.4484 C   0  0  0  0  0  0  0  0  0  0  0  0
   -2.7873    1.2939   -0.5570 C   0  0  0  0  0  0  0  0  0  0  0  0
   -2.3471   -0.4121   -1.8054 H   0  0  0  0  0  0  0  0  0  0  0  0
    2.8591   -0.9683    0.4953 N   0  0  0  0  0  0  0  0  0  0  0  0
    3.7940   -0.8804    1.0759 N   0  0  0  0  0  0  0  0  0  0  0  0
   -3.7862    1.4392   -0.9647 H   0  0  0  0  0  0  0  0  0  0  0  0
   -3.1808    3.2661    0.9472 N   0  0  0  0  0  0  0  0  0  0  0  0
   -4.3053    3.3765    0.4615 O   0  0  0  0  0  0  0  0  0  0  0  0
   -2.7163    3.9753    1.8310 O   0  0  0  0  0  0  0  0  0  0  0  0
   -0.0188   -0.7722   -0.8739 H   0  0  0  0  0  0  0  0  0  0  0  0
  1  6  2  0  0  0  0
  1  2  1  0  0  0  0
  2  3  2  0  0  0  0
  3  4  1  0  0  0  0
  5  4  2  0  0  0  0
  5 11  1  0  0  0  0
  6  5  1  0  0  0  0
  7  1  1  0  0  0  0
  8  9  3  0  0  0  0
 10  6  1  0  0  0  0
 11 13  2  0  0  0  0
 12 11  2  0  0  0  0
 14  2  1  0  0  0  0
M  RAD  2   3   2   4   2
M  END
