Coordinates from ORCA-job 3-NO2-C6H3-N2-v2-B3LYPG-aug-cc-pVDZ-scan-d09-49-n400
 OpenBabel11091809153D

 14 13  0  0  0  0  0  0  0  0999 V2000
   -2.0275    0.1700   -1.1291 C   0  0  0  0  0  0  0  0  0  0  0  0
   -0.7113   -0.1785   -0.7288 C   0  0  0  0  0  0  0  0  0  0  0  0
   -0.3026    0.6934    0.2514 C   0  0  0  0  0  0  0  0  0  0  0  0
   -0.8354    1.6751    0.8232 C   0  0  0  0  0  0  0  0  0  0  0  0
   -2.1216    2.0345    0.4483 C   0  0  0  0  0  0  0  0  0  0  0  0
   -2.7207    1.2500   -0.5574 C   0  0  0  0  0  0  0  0  0  0  0  0
   -2.5109   -0.4239   -1.9065 H   0  0  0  0  0  0  0  0  0  0  0  0
    2.2263   -0.3206    0.7203 N   0  0  0  0  0  0  0  0  0  0  0  0
    3.0827   -0.0937    1.3792 N   0  0  0  0  0  0  0  0  0  0  0  0
   -3.7297    1.4944   -0.8842 H   0  0  0  0  0  0  0  0  0  0  0  0
   -2.8441    3.1707    1.0535 N   0  0  0  0  0  0  0  0  0  0  0  0
   -3.9813    3.4007    0.6447 O   0  0  0  0  0  0  0  0  0  0  0  0
   -2.2602    3.8071    1.9215 O   0  0  0  0  0  0  0  0  0  0  0  0
   -0.1586   -1.0097   -1.1585 H   0  0  0  0  0  0  0  0  0  0  0  0
  1  2  2  0  0  0  0
  1  6  1  0  0  0  0
  2  3  1  0  0  0  0
  3  4  2  0  0  0  0
  5  4  1  0  0  0  0
  5 11  1  0  0  0  0
  6  5  2  0  0  0  0
  7  1  1  0  0  0  0
  8  9  3  0  0  0  0
 10  6  1  0  0  0  0
 11 13  2  0  0  0  0
 12 11  2  0  0  0  0
 14  2  1  0  0  0  0
M  RAD  2   3   2   4   2
M  END
