Coordinates from ORCA-job 3-NO2-C6H3-N2-v2-B3LYPG-aug-cc-pVDZ-scan-d09-49-n400
 OpenBabel11091809153D

 14 13  0  0  0  0  0  0  0  0999 V2000
   -2.0103    0.1416   -1.1448 C   0  0  0  0  0  0  0  0  0  0  0  0
   -0.6964   -0.2327   -0.7679 C   0  0  0  0  0  0  0  0  0  0  0  0
   -0.2546    0.6194    0.2129 C   0  0  0  0  0  0  0  0  0  0  0  0
   -0.7452    1.6109    0.8160 C   0  0  0  0  0  0  0  0  0  0  0  0
   -2.0323    1.9851    0.4533 C   0  0  0  0  0  0  0  0  0  0  0  0
   -2.6705    1.2291   -0.5488 C   0  0  0  0  0  0  0  0  0  0  0  0
   -2.5175   -0.4348   -1.9199 H   0  0  0  0  0  0  0  0  0  0  0  0
    1.8818   -0.1079    0.7222 N   0  0  0  0  0  0  0  0  0  0  0  0
    2.7093    0.1635    1.4026 N   0  0  0  0  0  0  0  0  0  0  0  0
   -3.6797    1.4981   -0.8544 H   0  0  0  0  0  0  0  0  0  0  0  0
   -2.7280    3.1311    1.0815 N   0  0  0  0  0  0  0  0  0  0  0  0
   -3.8671    3.3841    0.6909 O   0  0  0  0  0  0  0  0  0  0  0  0
   -2.1227    3.7509    1.9461 O   0  0  0  0  0  0  0  0  0  0  0  0
   -0.1618   -1.0689   -1.2118 H   0  0  0  0  0  0  0  0  0  0  0  0
  1  2  2  0  0  0  0
  1  6  1  0  0  0  0
  2  3  1  0  0  0  0
  3  4  2  0  0  0  0
  5  4  1  0  0  0  0
  5 11  1  0  0  0  0
  6  5  2  0  0  0  0
  7  1  1  0  0  0  0
  8  9  3  0  0  0  0
 10  6  1  0  0  0  0
 11 13  2  0  0  0  0
 12 11  2  0  0  0  0
 14  2  1  0  0  0  0
M  RAD  2   3   2   4   2
M  END
