Coordinates from ORCA-job 3-NO2-C6H3-N2-v2-B3LYPG-aug-cc-pVDZ-scan-d09-49-n400
 OpenBabel11091809153D

 14 13  0  0  0  0  0  0  0  0999 V2000
   -1.8587    0.3140   -0.9128 C   0  0  0  0  0  0  0  0  0  0  0  0
   -0.5751    0.2092   -0.3169 C   0  0  0  0  0  0  0  0  0  0  0  0
   -0.4359    1.2038    0.6258 C   0  0  0  0  0  0  0  0  0  0  0  0
   -1.1962    2.1200    1.0183 C   0  0  0  0  0  0  0  0  0  0  0  0
   -2.4563    2.2499    0.4569 C   0  0  0  0  0  0  0  0  0  0  0  0
   -2.7796    1.3070   -0.5393 C   0  0  0  0  0  0  0  0  0  0  0  0
   -2.1338   -0.4042   -1.6869 H   0  0  0  0  0  0  0  0  0  0  0  0
    3.0608   -1.3562    0.2647 N   0  0  0  0  0  0  0  0  0  0  0  0
    4.0669   -1.4676    0.7056 N   0  0  0  0  0  0  0  0  0  0  0  0
   -3.7572    1.3618   -1.0149 H   0  0  0  0  0  0  0  0  0  0  0  0
   -3.4146    3.2960    0.8568 N   0  0  0  0  0  0  0  0  0  0  0  0
   -4.5046    3.3129    0.2875 O   0  0  0  0  0  0  0  0  0  0  0  0
   -3.0570    4.0770    1.7299 O   0  0  0  0  0  0  0  0  0  0  0  0
    0.1465   -0.5542   -0.5968 H   0  0  0  0  0  0  0  0  0  0  0  0
  1  6  2  0  0  0  0
  1  2  1  0  0  0  0
  2  3  2  0  0  0  0
  3  4  1  0  0  0  0
  5 11  1  0  0  0  0
  5  4  2  0  0  0  0
  6  5  1  0  0  0  0
  7  1  1  0  0  0  0
  8  9  3  0  0  0  0
 10  6  1  0  0  0  0
 11 13  2  0  0  0  0
 12 11  2  0  0  0  0
 14  2  1  0  0  0  0
M  RAD  2   3   2   4   2
M  END
