Coordinates from ORCA-job 3-NO2-C6H3-N2-v2-B3LYPG-aug-cc-pVDZ-scan-d09-49-n400
 OpenBabel11091809153D

 14 14  0  0  0  0  0  0  0  0999 V2000
   -1.9187    0.0916   -1.1001 C   0  0  0  0  0  0  0  0  0  0  0  0
   -0.6365   -0.2429   -0.7201 C   0  0  0  0  0  0  0  0  0  0  0  0
   -0.0359    0.5838    0.2803 C   0  0  0  0  0  0  0  0  0  0  0  0
   -0.5868    1.7075    0.9578 C   0  0  0  0  0  0  0  0  0  0  0  0
   -1.8867    1.9341    0.4818 C   0  0  0  0  0  0  0  0  0  0  0  0
   -2.5523    1.2040   -0.4987 C   0  0  0  0  0  0  0  0  0  0  0  0
   -2.4411   -0.4907   -1.8575 H   0  0  0  0  0  0  0  0  0  0  0  0
    1.1890    0.2951    0.6478 N   0  0  0  0  0  0  0  0  0  0  0  0
    2.2345    0.0728    0.9830 N   0  0  0  0  0  0  0  0  0  0  0  0
   -3.5592    1.4890   -0.8004 H   0  0  0  0  0  0  0  0  0  0  0  0
   -2.6625    3.0861    1.0760 N   0  0  0  0  0  0  0  0  0  0  0  0
   -3.6987    3.4209    0.4961 O   0  0  0  0  0  0  0  0  0  0  0  0
   -2.2320    3.6097    2.0885 O   0  0  0  0  0  0  0  0  0  0  0  0
   -0.1079   -1.0913   -1.1567 H   0  0  0  0  0  0  0  0  0  0  0  0
  1  2  2  0  0  0  0
  1  6  1  0  0  0  0
  2  3  1  0  0  0  0
  3  8  1  0  0  0  0
  3  4  2  0  0  0  0
  5  4  1  0  0  0  0
  5 11  1  0  0  0  0
  6  5  2  0  0  0  0
  7  1  1  0  0  0  0
  8  9  1  0  0  0  0
 10  6  1  0  0  0  0
 11 13  2  0  0  0  0
 12 11  2  0  0  0  0
 14  2  1  0  0  0  0
M  RAD  3   4   2   8   2   9   3
M  END
