Coordinates from ORCA-job 3-NO2-C6H3-N2-v2-B3LYPG-aug-cc-pVDZ-scan-d09-49-n400
 OpenBabel11091809153D

 14 13  0  0  0  0  0  0  0  0999 V2000
   -1.9430    0.2701   -0.9959 C   0  0  0  0  0  0  0  0  0  0  0  0
   -0.6405    0.0801   -0.4649 C   0  0  0  0  0  0  0  0  0  0  0  0
   -0.4066    1.0407    0.4938 C   0  0  0  0  0  0  0  0  0  0  0  0
   -1.0937    1.9862    0.9472 C   0  0  0  0  0  0  0  0  0  0  0  0
   -2.3694    2.1970    0.4484 C   0  0  0  0  0  0  0  0  0  0  0  0
   -2.7898    1.3004   -0.5541 C   0  0  0  0  0  0  0  0  0  0  0  0
   -2.2927   -0.4108   -1.7737 H   0  0  0  0  0  0  0  0  0  0  0  0
    2.9396   -1.0905    0.4337 N   0  0  0  0  0  0  0  0  0  0  0  0
    3.8997   -1.0580    0.9778 N   0  0  0  0  0  0  0  0  0  0  0  0
   -3.7839    1.4204   -0.9811 H   0  0  0  0  0  0  0  0  0  0  0  0
   -3.2501    3.2819    0.9186 N   0  0  0  0  0  0  0  0  0  0  0  0
   -4.3706    3.3586    0.4174 O   0  0  0  0  0  0  0  0  0  0  0  0
   -2.8188    4.0058    1.8074 O   0  0  0  0  0  0  0  0  0  0  0  0
    0.0250   -0.7124   -0.7970 H   0  0  0  0  0  0  0  0  0  0  0  0
  1  6  2  0  0  0  0
  1  2  1  0  0  0  0
  2  3  2  0  0  0  0
  3  4  1  0  0  0  0
  5 11  1  0  0  0  0
  5  4  2  0  0  0  0
  6  5  1  0  0  0  0
  7  1  1  0  0  0  0
  8  9  3  0  0  0  0
 10  6  1  0  0  0  0
 11 13  2  0  0  0  0
 12 11  2  0  0  0  0
 14  2  1  0  0  0  0
M  RAD  2   3   2   4   2
M  END
