Coordinates from ORCA-job 3-NO2-C6H3-N2-v2-B3LYPG-aug-cc-pVDZ-scan-d09-49-n400
 OpenBabel11091809153D

 14 13  0  0  0  0  0  0  0  0999 V2000
   -2.0098    0.1389   -1.1468 C   0  0  0  0  0  0  0  0  0  0  0  0
   -0.6970   -0.2370   -0.7718 C   0  0  0  0  0  0  0  0  0  0  0  0
   -0.2485    0.6122    0.2098 C   0  0  0  0  0  0  0  0  0  0  0  0
   -0.7369    1.6048    0.8146 C   0  0  0  0  0  0  0  0  0  0  0  0
   -2.0241    1.9802    0.4529 C   0  0  0  0  0  0  0  0  0  0  0  0
   -2.6665    1.2275   -0.5483 C   0  0  0  0  0  0  0  0  0  0  0  0
   -2.5191   -0.4360   -1.9215 H   0  0  0  0  0  0  0  0  0  0  0  0
    1.8524   -0.0888    0.7231 N   0  0  0  0  0  0  0  0  0  0  0  0
    2.6762    0.1878    1.4061 N   0  0  0  0  0  0  0  0  0  0  0  0
   -3.6756    1.4994   -0.8515 H   0  0  0  0  0  0  0  0  0  0  0  0
   -2.7169    3.1274    1.0832 N   0  0  0  0  0  0  0  0  0  0  0  0
   -3.8568    3.3819    0.6956 O   0  0  0  0  0  0  0  0  0  0  0  0
   -2.1099    3.7447    1.9483 O   0  0  0  0  0  0  0  0  0  0  0  0
   -0.1625   -1.0735   -1.2158 H   0  0  0  0  0  0  0  0  0  0  0  0
  1  2  2  0  0  0  0
  1  6  1  0  0  0  0
  2  3  1  0  0  0  0
  3  4  2  0  0  0  0
  5  4  1  0  0  0  0
  5 11  1  0  0  0  0
  6  5  2  0  0  0  0
  7  1  1  0  0  0  0
  8  9  3  0  0  0  0
 10  6  1  0  0  0  0
 11 13  2  0  0  0  0
 12 11  2  0  0  0  0
 14  2  1  0  0  0  0
M  RAD  2   3   2   4   2
M  END
