Coordinates from ORCA-job 3-NO2-C6H3-N2-v2-B3LYPG-aug-cc-pVDZ-scan-d09-49-n400
 OpenBabel11091809153D

 14 14  0  0  0  0  0  0  0  0999 V2000
   -1.9691    0.1157   -1.1452 C   0  0  0  0  0  0  0  0  0  0  0  0
   -0.6684   -0.2497   -0.7675 C   0  0  0  0  0  0  0  0  0  0  0  0
   -0.1716    0.5789    0.2217 C   0  0  0  0  0  0  0  0  0  0  0  0
   -0.6379    1.6097    0.8715 C   0  0  0  0  0  0  0  0  0  0  0  0
   -1.9301    1.9334    0.4619 C   0  0  0  0  0  0  0  0  0  0  0  0
   -2.6049    1.2090   -0.5316 C   0  0  0  0  0  0  0  0  0  0  0  0
   -2.4865   -0.4523   -1.9179 H   0  0  0  0  0  0  0  0  0  0  0  0
    1.4434    0.1162    0.6829 N   0  0  0  0  0  0  0  0  0  0  0  0
    2.3600    0.2536    1.2944 N   0  0  0  0  0  0  0  0  0  0  0  0
   -3.6136    1.4965   -0.8210 H   0  0  0  0  0  0  0  0  0  0  0  0
   -2.6435    3.0914    1.0903 N   0  0  0  0  0  0  0  0  0  0  0  0
   -3.7844    3.3331    0.6922 O   0  0  0  0  0  0  0  0  0  0  0  0
   -2.0572    3.7214    1.9569 O   0  0  0  0  0  0  0  0  0  0  0  0
   -0.1311   -1.0874   -1.2108 H   0  0  0  0  0  0  0  0  0  0  0  0
  1  2  2  0  0  0  0
  1  6  1  0  0  0  0
  2  3  1  0  0  0  0
  3  8  1  0  0  0  0
  3  4  2  0  0  0  0
  5  4  1  0  0  0  0
  5 11  1  0  0  0  0
  6  5  2  0  0  0  0
  7  1  1  0  0  0  0
  8  9  2  0  0  0  0
 10  6  1  0  0  0  0
 11 13  2  0  0  0  0
 12 11  2  0  0  0  0
 14  2  1  0  0  0  0
M  RAD  2   4   2   9   2
M  END
