Coordinates from ORCA-job 3-NO2-C6H3-N2-v2-B3LYPG-aug-cc-pVDZ-scan-d09-49-n400
 OpenBabel11091809153D

 14 13  0  0  0  0  0  0  0  0999 V2000
   -2.0167    0.2081   -1.0900 C   0  0  0  0  0  0  0  0  0  0  0  0
   -0.7024   -0.0875   -0.6446 C   0  0  0  0  0  0  0  0  0  0  0  0
   -0.3475    0.8146    0.3328 C   0  0  0  0  0  0  0  0  0  0  0  0
   -0.9411    1.7842    0.8614 C   0  0  0  0  0  0  0  0  0  0  0  0
   -2.2262    2.0980    0.4476 C   0  0  0  0  0  0  0  0  0  0  0  0
   -2.7642    1.2732   -0.5604 C   0  0  0  0  0  0  0  0  0  0  0  0
   -2.4556   -0.4162   -1.8699 H   0  0  0  0  0  0  0  0  0  0  0  0
    2.5897   -0.6517    0.6254 N   0  0  0  0  0  0  0  0  0  0  0  0
    3.4502   -0.4322    1.2815 N   0  0  0  0  0  0  0  0  0  0  0  0
   -3.7708    1.4763   -0.9218 H   0  0  0  0  0  0  0  0  0  0  0  0
   -3.0024    3.2184    1.0101 N   0  0  0  0  0  0  0  0  0  0  0  0
   -4.1341    3.4028    0.5653 O   0  0  0  0  0  0  0  0  0  0  0  0
   -2.4645    3.8884    1.8829 O   0  0  0  0  0  0  0  0  0  0  0  0
   -0.1092   -0.9067   -1.0423 H   0  0  0  0  0  0  0  0  0  0  0  0
  1  2  2  0  0  0  0
  1  6  1  0  0  0  0
  2  3  1  0  0  0  0
  3  4  2  0  0  0  0
  5  4  1  0  0  0  0
  5 11  1  0  0  0  0
  6  5  2  0  0  0  0
  7  1  1  0  0  0  0
  8  9  3  0  0  0  0
 10  6  1  0  0  0  0
 11 13  2  0  0  0  0
 12 11  2  0  0  0  0
 14  2  1  0  0  0  0
M  RAD  2   3   2   4   2
M  END
