Coordinates from ORCA-job 3-NO2-C6H3-N2-v2-B3LYPG-aug-cc-pVDZ-scan-d09-49-n400
 OpenBabel11091809153D

 14 13  0  0  0  0  0  0  0  0999 V2000
   -2.0070    0.2182   -1.0760 C   0  0  0  0  0  0  0  0  0  0  0  0
   -0.6932   -0.0613   -0.6170 C   0  0  0  0  0  0  0  0  0  0  0  0
   -0.3594    0.8506    0.3581 C   0  0  0  0  0  0  0  0  0  0  0  0
   -0.9669    1.8169    0.8767 C   0  0  0  0  0  0  0  0  0  0  0  0
   -2.2514    2.1143    0.4490 C   0  0  0  0  0  0  0  0  0  0  0  0
   -2.7709    1.2780   -0.5594 C   0  0  0  0  0  0  0  0  0  0  0  0
   -2.4320   -0.4150   -1.8565 H   0  0  0  0  0  0  0  0  0  0  0  0
    2.6601   -0.7299    0.5946 N   0  0  0  0  0  0  0  0  0  0  0  0
    3.5346   -0.5327    1.2390 N   0  0  0  0  0  0  0  0  0  0  0  0
   -3.7761    1.4680   -0.9315 H   0  0  0  0  0  0  0  0  0  0  0  0
   -3.0452    3.2292    0.9978 N   0  0  0  0  0  0  0  0  0  0  0  0
   -4.1739    3.3997    0.5400 O   0  0  0  0  0  0  0  0  0  0  0  0
   -2.5224    3.9110    1.8705 O   0  0  0  0  0  0  0  0  0  0  0  0
   -0.0911   -0.8774   -1.0074 H   0  0  0  0  0  0  0  0  0  0  0  0
  1  2  2  0  0  0  0
  1  6  1  0  0  0  0
  2  3  1  0  0  0  0
  3  4  2  0  0  0  0
  5  4  1  0  0  0  0
  5 11  1  0  0  0  0
  6  5  2  0  0  0  0
  7  1  1  0  0  0  0
  8  9  3  0  0  0  0
 10  6  1  0  0  0  0
 11 13  2  0  0  0  0
 12 11  2  0  0  0  0
 14  2  1  0  0  0  0
M  RAD  2   3   2   4   2
M  END
