Coordinates from ORCA-job 3-NO2-C6H3-N2-v2-B3LYPG-aug-cc-pVDZ-scan-d09-49-n400
 OpenBabel11091809153D

 14 13  0  0  0  0  0  0  0  0999 V2000
   -1.7541    0.3541   -0.8217 C   0  0  0  0  0  0  0  0  0  0  0  0
   -0.4964    0.3352   -0.1646 C   0  0  0  0  0  0  0  0  0  0  0  0
   -0.4551    1.3614    0.7539 C   0  0  0  0  0  0  0  0  0  0  0  0
   -1.2812    2.2448    1.0833 C   0  0  0  0  0  0  0  0  0  0  0  0
   -2.5182    2.2909    0.4610 C   0  0  0  0  0  0  0  0  0  0  0  0
   -2.7431    1.3052   -0.5206 C   0  0  0  0  0  0  0  0  0  0  0  0
   -1.9534   -0.3988   -1.5861 H   0  0  0  0  0  0  0  0  0  0  0  0
    3.0683   -1.5526    0.0962 N   0  0  0  0  0  0  0  0  0  0  0  0
    4.0921   -1.8187    0.4123 N   0  0  0  0  0  0  0  0  0  0  0  0
   -3.6986    1.2940   -1.0421 H   0  0  0  0  0  0  0  0  0  0  0  0
   -3.5487    3.2937    0.7853 N   0  0  0  0  0  0  0  0  0  0  0  0
   -4.6083    3.2381    0.1634 O   0  0  0  0  0  0  0  0  0  0  0  0
   -3.2736    4.1187    1.6477 O   0  0  0  0  0  0  0  0  0  0  0  0
    0.2755   -0.3964   -0.3903 H   0  0  0  0  0  0  0  0  0  0  0  0
  1  6  2  0  0  0  0
  1  2  1  0  0  0  0
  2  3  2  0  0  0  0
  3  4  1  0  0  0  0
  5 11  1  0  0  0  0
  5  4  2  0  0  0  0
  6  5  1  0  0  0  0
  7  1  1  0  0  0  0
  8  9  3  0  0  0  0
 10  6  1  0  0  0  0
 11 13  2  0  0  0  0
 12 11  2  0  0  0  0
 14  2  1  0  0  0  0
M  RAD  2   3   2   4   2
M  END
