Coordinates from ORCA-job 3-NO2-C6H3-N2-v2-B3LYPG-aug-cc-pVDZ-scan-d09-49-n400
 OpenBabel11091809153D

 14 14  0  0  0  0  0  0  0  0999 V2000
   -1.8952    0.0812   -1.0725 C   0  0  0  0  0  0  0  0  0  0  0  0
   -0.6338   -0.2591   -0.6716 C   0  0  0  0  0  0  0  0  0  0  0  0
    0.0946    0.5527    0.3145 C   0  0  0  0  0  0  0  0  0  0  0  0
   -0.5699    1.7579    0.9734 C   0  0  0  0  0  0  0  0  0  0  0  0
   -1.8709    1.9325    0.4845 C   0  0  0  0  0  0  0  0  0  0  0  0
   -2.5229    1.2165   -0.5103 C   0  0  0  0  0  0  0  0  0  0  0  0
   -2.4124   -0.5188   -1.8199 H   0  0  0  0  0  0  0  0  0  0  0  0
    1.0235    0.3483    0.5513 N   0  0  0  0  0  0  0  0  0  0  0  0
    2.1166    0.1227    0.8417 N   0  0  0  0  0  0  0  0  0  0  0  0
   -3.5108    1.5286   -0.8476 H   0  0  0  0  0  0  0  0  0  0  0  0
   -2.6611    3.0687    1.0874 N   0  0  0  0  0  0  0  0  0  0  0  0
   -3.6137    3.4925    0.4311 O   0  0  0  0  0  0  0  0  0  0  0  0
   -2.3233    3.4811    2.1822 O   0  0  0  0  0  0  0  0  0  0  0  0
   -0.1156   -1.1352   -1.0665 H   0  0  0  0  0  0  0  0  0  0  0  0
  1  2  2  0  0  0  0
  1  6  1  0  0  0  0
  2  3  1  0  0  0  0
  3  8  1  0  0  0  0
  3  4  2  0  0  0  0
  5  4  1  0  0  0  0
  5 11  1  0  0  0  0
  6  5  2  0  0  0  0
  7  1  1  0  0  0  0
  8  9  1  0  0  0  0
 10  6  1  0  0  0  0
 11 13  2  0  0  0  0
 12 11  2  0  0  0  0
 14  2  1  0  0  0  0
M  RAD  3   4   2   8   2   9   3
M  END
