Coordinates from ORCA-job 3-NO2-C6H3-N2-v2-B3LYPG-aug-cc-pVDZ-scan-d09-49-n400
 OpenBabel11091809153D

 14 14  0  0  0  0  0  0  0  0999 V2000
   -1.9532    0.1114   -1.1401 C   0  0  0  0  0  0  0  0  0  0  0  0
   -0.6594   -0.2447   -0.7580 C   0  0  0  0  0  0  0  0  0  0  0  0
   -0.1423    0.5804    0.2387 C   0  0  0  0  0  0  0  0  0  0  0  0
   -0.6146    1.6391    0.9098 C   0  0  0  0  0  0  0  0  0  0  0  0
   -1.9093    1.9275    0.4682 C   0  0  0  0  0  0  0  0  0  0  0  0
   -2.5860    1.2072   -0.5229 C   0  0  0  0  0  0  0  0  0  0  0  0
   -2.4708   -0.4560   -1.9123 H   0  0  0  0  0  0  0  0  0  0  0  0
    1.3432    0.1868    0.6905 N   0  0  0  0  0  0  0  0  0  0  0  0
    2.3269    0.1751    1.2067 N   0  0  0  0  0  0  0  0  0  0  0  0
   -3.5948    1.4953   -0.8119 H   0  0  0  0  0  0  0  0  0  0  0  0
   -2.6465    3.0867    1.0850 N   0  0  0  0  0  0  0  0  0  0  0  0
   -3.7856    3.3132    0.6704 O   0  0  0  0  0  0  0  0  0  0  0  0
   -2.0820    3.7301    1.9543 O   0  0  0  0  0  0  0  0  0  0  0  0
   -0.1205   -1.0825   -1.2005 H   0  0  0  0  0  0  0  0  0  0  0  0
  1  2  2  0  0  0  0
  1  6  1  0  0  0  0
  2  3  1  0  0  0  0
  3  8  1  0  0  0  0
  3  4  2  0  0  0  0
  5  4  1  0  0  0  0
  5 11  1  0  0  0  0
  6  5  2  0  0  0  0
  7  1  1  0  0  0  0
  8  9  1  0  0  0  0
 10  6  1  0  0  0  0
 11 13  2  0  0  0  0
 12 11  2  0  0  0  0
 14  2  1  0  0  0  0
M  RAD  3   4   2   8   2   9   3
M  END
