Coordinates from ORCA-job 3-NO2-C6H3-N2-v2-B3LYPG-aug-cc-pVDZ-scan-d09-49-n400
 OpenBabel11091809153D

 14 13  0  0  0  0  0  0  0  0999 V2000
   -2.0002    0.1332   -1.1467 C   0  0  0  0  0  0  0  0  0  0  0  0
   -0.6888   -0.2431   -0.7729 C   0  0  0  0  0  0  0  0  0  0  0  0
   -0.2333    0.6022    0.2091 C   0  0  0  0  0  0  0  0  0  0  0  0
   -0.7151    1.5987    0.8212 C   0  0  0  0  0  0  0  0  0  0  0  0
   -2.0030    1.9695    0.4551 C   0  0  0  0  0  0  0  0  0  0  0  0
   -2.6524    1.2225   -0.5449 C   0  0  0  0  0  0  0  0  0  0  0  0
   -2.5118   -0.4399   -1.9211 H   0  0  0  0  0  0  0  0  0  0  0  0
    1.7580   -0.0453    0.7104 N   0  0  0  0  0  0  0  0  0  0  0  0
    2.5875    0.2242    1.3906 N   0  0  0  0  0  0  0  0  0  0  0  0
   -3.6614    1.4979   -0.8449 H   0  0  0  0  0  0  0  0  0  0  0  0
   -2.6957    3.1187    1.0876 N   0  0  0  0  0  0  0  0  0  0  0  0
   -3.8354    3.3745    0.6999 O   0  0  0  0  0  0  0  0  0  0  0  0
   -2.0887    3.7364    1.9519 O   0  0  0  0  0  0  0  0  0  0  0  0
   -0.1547   -1.0799   -1.2175 H   0  0  0  0  0  0  0  0  0  0  0  0
  1  2  2  0  0  0  0
  1  6  1  0  0  0  0
  2  3  1  0  0  0  0
  3  4  2  0  0  0  0
  5  4  1  0  0  0  0
  5 11  1  0  0  0  0
  6  5  2  0  0  0  0
  7  1  1  0  0  0  0
  8  9  3  0  0  0  0
 10  6  1  0  0  0  0
 11 13  2  0  0  0  0
 12 11  2  0  0  0  0
 14  2  1  0  0  0  0
M  RAD  2   3   2   4   2
M  END
