Coordinates from ORCA-job 3-NO2-C6H3-N2-v2-B3LYPG-aug-cc-pVDZ-scan-d09-49-n400
 OpenBabel11091809153D

 14 13  0  0  0  0  0  0  0  0999 V2000
   -2.0036    0.2217   -1.0710 C   0  0  0  0  0  0  0  0  0  0  0  0
   -0.6903   -0.0520   -0.6070 C   0  0  0  0  0  0  0  0  0  0  0  0
   -0.3630    0.8637    0.3669 C   0  0  0  0  0  0  0  0  0  0  0  0
   -0.9757    1.8290    0.8811 C   0  0  0  0  0  0  0  0  0  0  0  0
   -2.2599    2.1207    0.4484 C   0  0  0  0  0  0  0  0  0  0  0  0
   -2.7730    1.2800   -0.5596 C   0  0  0  0  0  0  0  0  0  0  0  0
   -2.4237   -0.4150   -1.8513 H   0  0  0  0  0  0  0  0  0  0  0  0
    2.6829   -0.7554    0.5850 N   0  0  0  0  0  0  0  0  0  0  0  0
    3.5649   -0.5702    1.2228 N   0  0  0  0  0  0  0  0  0  0  0  0
   -3.7777    1.4654   -0.9355 H   0  0  0  0  0  0  0  0  0  0  0  0
   -3.0594    3.2342    0.9918 N   0  0  0  0  0  0  0  0  0  0  0  0
   -4.1887    3.3970    0.5328 O   0  0  0  0  0  0  0  0  0  0  0  0
   -2.5433    3.9176    1.8673 O   0  0  0  0  0  0  0  0  0  0  0  0
   -0.0843   -0.8670   -0.9937 H   0  0  0  0  0  0  0  0  0  0  0  0
  1  2  2  0  0  0  0
  1  6  1  0  0  0  0
  2  3  1  0  0  0  0
  3  4  2  0  0  0  0
  5  4  1  0  0  0  0
  5 11  1  0  0  0  0
  6  5  2  0  0  0  0
  7  1  1  0  0  0  0
  8  9  3  0  0  0  0
 10  6  1  0  0  0  0
 11 13  2  0  0  0  0
 12 11  2  0  0  0  0
 14  2  1  0  0  0  0
M  RAD  2   3   2   4   2
M  END
