Coordinates from ORCA-job C2H5-N2+-scan-d09-169-n800
 OpenBabel09191813583D

  9  7  0  0  0  0  0  0  0  0999 V2000
    0.3078    1.8272    1.8538 C   0  0  0  0  0  0  0  0  0  0  0  0
    1.0797    1.6123    1.1146 H   0  0  0  0  0  0  0  0  0  0  0  0
   -0.4505    1.0685    2.0488 H   0  0  0  0  0  0  0  0  0  0  0  0
    0.3428   -8.8935   -4.2859 N   0  0  0  0  0  0  0  0  0  0  0  0
    0.3300   -9.8598   -4.8227 N   0  0  0  0  0  0  0  0  0  0  0  0
    0.3063    3.0242    2.5480 C   0  0  0  0  0  0  0  0  0  0  0  0
    1.0774    3.7737    2.3686 H   0  0  0  0  0  0  0  0  0  0  0  0
   -0.3423    2.8871    1.4059 H   0  0  0  0  0  0  0  0  0  0  0  0
   -0.4529    3.2299    3.3029 H   0  0  0  0  0  0  0  0  0  0  0  0
  1  3  1  0  0  0  0
  1  6  1  0  0  0  0
  2  1  1  0  0  0  0
  5  4  3  0  0  0  0
  6  9  1  0  0  0  0
  7  6  1  0  0  0  0
  8  6  1  0  0  0  0
M  RAD  1   1   2
M  END
