Coordinates from ORCA-job C2H5-N2+-scan-d09-169-n800
 OpenBabel09191813583D

  9  7  0  0  0  0  0  0  0  0999 V2000
    0.2983    0.3708    1.0013 C   0  0  0  0  0  0  0  0  0  0  0  0
    1.0527    0.1648    0.2416 H   0  0  0  0  0  0  0  0  0  0  0  0
   -0.4765   -0.3759    1.1763 H   0  0  0  0  0  0  0  0  0  0  0  0
    0.2936   -3.7710   -1.3946 N   0  0  0  0  0  0  0  0  0  0  0  0
    0.3096   -4.7403   -1.9255 N   0  0  0  0  0  0  0  0  0  0  0  0
    0.3354    1.5410    1.7387 C   0  0  0  0  0  0  0  0  0  0  0  0
    1.1235    2.2767    1.5775 H   0  0  0  0  0  0  0  0  0  0  0  0
   -0.3313    1.4679    0.6057 H   0  0  0  0  0  0  0  0  0  0  0  0
   -0.4070    1.7356    2.5130 H   0  0  0  0  0  0  0  0  0  0  0  0
  1  3  1  0  0  0  0
  1  6  1  0  0  0  0
  2  1  1  0  0  0  0
  5  4  3  0  0  0  0
  6  9  1  0  0  0  0
  7  6  1  0  0  0  0
  8  6  1  0  0  0  0
M  RAD  1   1   2
M  END
