Coordinates from ORCA-job C2H5-N2+-scan-d09-169-n800
 OpenBabel09191813583D

  9  7  0  0  0  0  0  0  0  0999 V2000
    0.3033    2.1602    2.0424 C   0  0  0  0  0  0  0  0  0  0  0  0
    1.0746    1.9425    1.3032 H   0  0  0  0  0  0  0  0  0  0  0  0
   -0.4556    1.4028    2.2401 H   0  0  0  0  0  0  0  0  0  0  0  0
    0.3664  -10.0775   -4.9134 N   0  0  0  0  0  0  0  0  0  0  0  0
    0.3318  -11.0120   -5.5030 N   0  0  0  0  0  0  0  0  0  0  0  0
    0.3035    3.3591    2.7333 C   0  0  0  0  0  0  0  0  0  0  0  0
    1.0752    4.1074    2.5512 H   0  0  0  0  0  0  0  0  0  0  0  0
   -0.3460    3.2194    1.5920 H   0  0  0  0  0  0  0  0  0  0  0  0
   -0.4550    3.5677    3.4881 H   0  0  0  0  0  0  0  0  0  0  0  0
  1  3  1  0  0  0  0
  1  6  1  0  0  0  0
  2  1  1  0  0  0  0
  5  4  3  0  0  0  0
  6  9  1  0  0  0  0
  7  6  1  0  0  0  0
  8  6  1  0  0  0  0
M  RAD  1   1   2
M  END
