Coordinates from ORCA-job C2H5-N2+-scan-d09-169-n800
 OpenBabel09191813583D

  9  7  0  0  0  0  0  0  0  0999 V2000
    0.3235    1.3674    1.6153 C   0  0  0  0  0  0  0  0  0  0  0  0
    1.1032    1.1464    0.8862 H   0  0  0  0  0  0  0  0  0  0  0  0
   -0.4269    0.6038    1.8212 H   0  0  0  0  0  0  0  0  0  0  0  0
    0.3108   -7.2959   -3.4022 N   0  0  0  0  0  0  0  0  0  0  0  0
    0.3215   -8.2656   -3.9328 N   0  0  0  0  0  0  0  0  0  0  0  0
    0.3022    2.5789    2.2836 C   0  0  0  0  0  0  0  0  0  0  0  0
    1.0654    3.3338    2.0936 H   0  0  0  0  0  0  0  0  0  0  0  0
   -0.3364    2.4098    1.1404 H   0  0  0  0  0  0  0  0  0  0  0  0
   -0.4649    2.7912    3.0287 H   0  0  0  0  0  0  0  0  0  0  0  0
  1  3  1  0  0  0  0
  1  6  1  0  0  0  0
  2  1  1  0  0  0  0
  5  4  3  0  0  0  0
  6  9  1  0  0  0  0
  7  6  1  0  0  0  0
  8  6  1  0  0  0  0
M  RAD  1   1   2
M  END
