Coordinates from ORCA-job C2H5-N2+-scan-d09-169-n800
 OpenBabel09191813583D

  9  7  0  0  0  0  0  0  0  0999 V2000
    0.2980    2.4371    2.1931 C   0  0  0  0  0  0  0  0  0  0  0  0
    1.0674    2.2208    1.4516 H   0  0  0  0  0  0  0  0  0  0  0  0
   -0.4627    1.6810    2.3884 H   0  0  0  0  0  0  0  0  0  0  0  0
    0.3763  -11.0446   -5.4510 N   0  0  0  0  0  0  0  0  0  0  0  0
    0.3432  -11.9769   -6.0442 N   0  0  0  0  0  0  0  0  0  0  0  0
    0.3028    3.6326    2.8899 C   0  0  0  0  0  0  0  0  0  0  0  0
    1.0763    4.3796    2.7101 H   0  0  0  0  0  0  0  0  0  0  0  0
   -0.3490    3.5003    1.7490 H   0  0  0  0  0  0  0  0  0  0  0  0
   -0.4538    3.8397    3.6470 H   0  0  0  0  0  0  0  0  0  0  0  0
  1  3  1  0  0  0  0
  1  6  1  0  0  0  0
  2  1  1  0  0  0  0
  5  4  3  0  0  0  0
  6  9  1  0  0  0  0
  7  6  1  0  0  0  0
  8  6  1  0  0  0  0
M  RAD  1   1   2
M  END
