Coordinates from ORCA-job C2H5-N2+-scan-d09-169-n800
 OpenBabel09191813583D

  9  7  0  0  0  0  0  0  0  0999 V2000
    0.3148    0.7337    1.2364 C   0  0  0  0  0  0  0  0  0  0  0  0
    1.0840    0.5190    0.4942 H   0  0  0  0  0  0  0  0  0  0  0  0
   -0.4460   -0.0230    1.4292 H   0  0  0  0  0  0  0  0  0  0  0  0
    0.2959   -5.0637   -2.1366 N   0  0  0  0  0  0  0  0  0  0  0  0
    0.3086   -6.0320   -2.6698 N   0  0  0  0  0  0  0  0  0  0  0  0
    0.3188    1.9280    1.9352 C   0  0  0  0  0  0  0  0  0  0  0  0
    1.0926    2.6752    1.7577 H   0  0  0  0  0  0  0  0  0  0  0  0
   -0.3324    1.7994    0.7949 H   0  0  0  0  0  0  0  0  0  0  0  0
   -0.4378    2.1330    2.6928 H   0  0  0  0  0  0  0  0  0  0  0  0
  1  3  1  0  0  0  0
  1  6  1  0  0  0  0
  2  1  1  0  0  0  0
  5  4  3  0  0  0  0
  6  9  1  0  0  0  0
  7  6  1  0  0  0  0
  8  6  1  0  0  0  0
M  RAD  1   1   2
M  END
