Coordinates from ORCA-job C2H5-N2+-scan-d09-169-n800
 OpenBabel09191813583D

  9  7  0  0  0  0  0  0  0  0999 V2000
    0.3231    1.2902    1.5703 C   0  0  0  0  0  0  0  0  0  0  0  0
    1.1020    1.0697    0.8401 H   0  0  0  0  0  0  0  0  0  0  0  0
   -0.4281    0.5271    1.7751 H   0  0  0  0  0  0  0  0  0  0  0  0
    0.3087   -7.0250   -3.2491 N   0  0  0  0  0  0  0  0  0  0  0  0
    0.3196   -7.9945   -3.7801 N   0  0  0  0  0  0  0  0  0  0  0  0
    0.3037    2.5005    2.2409 C   0  0  0  0  0  0  0  0  0  0  0  0
    1.0678    3.2548    2.0519 H   0  0  0  0  0  0  0  0  0  0  0  0
   -0.3358    2.3345    1.0979 H   0  0  0  0  0  0  0  0  0  0  0  0
   -0.4625    2.7122    2.9870 H   0  0  0  0  0  0  0  0  0  0  0  0
  1  3  1  0  0  0  0
  1  6  1  0  0  0  0
  2  1  1  0  0  0  0
  5  4  3  0  0  0  0
  6  9  1  0  0  0  0
  7  6  1  0  0  0  0
  8  6  1  0  0  0  0
M  RAD  1   1   2
M  END
