Coordinates from ORCA-job C2H5-N2+-scan-d09-169-n800
 OpenBabel09191813583D

  9  7  0  0  0  0  0  0  0  0999 V2000
    0.3208    1.0362    1.4202 C   0  0  0  0  0  0  0  0  0  0  0  0
    1.0964    0.8177    0.6859 H   0  0  0  0  0  0  0  0  0  0  0  0
   -0.4338    0.2753    1.6209 H   0  0  0  0  0  0  0  0  0  0  0  0
    0.3021   -6.1315   -2.7433 N   0  0  0  0  0  0  0  0  0  0  0  0
    0.3137   -7.1003   -3.2757 N   0  0  0  0  0  0  0  0  0  0  0  0
    0.3096    2.2409    2.1008 C   0  0  0  0  0  0  0  0  0  0  0  0
    1.0770    2.9929    1.9158 H   0  0  0  0  0  0  0  0  0  0  0  0
   -0.3341    2.0879    0.9586 H   0  0  0  0  0  0  0  0  0  0  0  0
   -0.4533    2.4504    2.8509 H   0  0  0  0  0  0  0  0  0  0  0  0
  1  3  1  0  0  0  0
  1  6  1  0  0  0  0
  2  1  1  0  0  0  0
  5  4  3  0  0  0  0
  6  9  1  0  0  0  0
  7  6  1  0  0  0  0
  8  6  1  0  0  0  0
M  RAD  1   1   2
M  END
