Coordinates from ORCA-job C2H5-N2+-scan-d09-169-n800
 OpenBabel09191813583D

  9  7  0  0  0  0  0  0  0  0999 V2000
    0.2990    2.3632    2.1523 C   0  0  0  0  0  0  0  0  0  0  0  0
    1.0686    2.1467    1.4110 H   0  0  0  0  0  0  0  0  0  0  0  0
   -0.4615    1.6069    2.3479 H   0  0  0  0  0  0  0  0  0  0  0  0
    0.3737  -10.7860   -5.3071 N   0  0  0  0  0  0  0  0  0  0  0  0
    0.3403  -11.7189   -5.8992 N   0  0  0  0  0  0  0  0  0  0  0  0
    0.3033    3.5591    2.8483 C   0  0  0  0  0  0  0  0  0  0  0  0
    1.0767    4.3062    2.6683 H   0  0  0  0  0  0  0  0  0  0  0  0
   -0.3483    3.4259    1.7074 H   0  0  0  0  0  0  0  0  0  0  0  0
   -0.4535    3.7664    3.6052 H   0  0  0  0  0  0  0  0  0  0  0  0
  1  3  1  0  0  0  0
  1  6  1  0  0  0  0
  2  1  1  0  0  0  0
  5  4  3  0  0  0  0
  6  9  1  0  0  0  0
  7  6  1  0  0  0  0
  8  6  1  0  0  0  0
M  RAD  1   1   2
M  END
