Coordinates from ORCA-job C2H5-N2+-scan-d09-169-n800
 OpenBabel09191813583D

  9  7  0  0  0  0  0  0  0  0999 V2000
    0.3232    1.3211    1.5883 C   0  0  0  0  0  0  0  0  0  0  0  0
    1.1025    1.1004    0.8586 H   0  0  0  0  0  0  0  0  0  0  0  0
   -0.4276    0.5578    1.7935 H   0  0  0  0  0  0  0  0  0  0  0  0
    0.3095   -7.1333   -3.3103 N   0  0  0  0  0  0  0  0  0  0  0  0
    0.3203   -8.1029   -3.8412 N   0  0  0  0  0  0  0  0  0  0  0  0
    0.3031    2.5318    2.2580 C   0  0  0  0  0  0  0  0  0  0  0  0
    1.0668    3.2865    2.0686 H   0  0  0  0  0  0  0  0  0  0  0  0
   -0.3360    2.3646    1.1149 H   0  0  0  0  0  0  0  0  0  0  0  0
   -0.4635    2.7438    3.0036 H   0  0  0  0  0  0  0  0  0  0  0  0
  1  3  1  0  0  0  0
  1  6  1  0  0  0  0
  2  1  1  0  0  0  0
  5  4  3  0  0  0  0
  6  9  1  0  0  0  0
  7  6  1  0  0  0  0
  8  6  1  0  0  0  0
M  RAD  1   1   2
M  END
