Coordinates from ORCA-job C2H5-N2+-scan-d09-169-n800
 OpenBabel09191813583D

  9  7  0  0  0  0  0  0  0  0999 V2000
    0.3070    1.8854    1.8863 C   0  0  0  0  0  0  0  0  0  0  0  0
    1.0789    1.6704    1.1470 H   0  0  0  0  0  0  0  0  0  0  0  0
   -0.4514    1.1269    2.0814 H   0  0  0  0  0  0  0  0  0  0  0  0
    0.3468   -9.0984   -4.3981 N   0  0  0  0  0  0  0  0  0  0  0  0
    0.3304  -10.0626   -4.9387 N   0  0  0  0  0  0  0  0  0  0  0  0
    0.3058    3.0824    2.5807 C   0  0  0  0  0  0  0  0  0  0  0  0
    1.0770    3.8318    2.4012 H   0  0  0  0  0  0  0  0  0  0  0  0
   -0.3429    2.9455    1.4386 H   0  0  0  0  0  0  0  0  0  0  0  0
   -0.4533    3.2882    3.3356 H   0  0  0  0  0  0  0  0  0  0  0  0
  1  3  1  0  0  0  0
  1  6  1  0  0  0  0
  2  1  1  0  0  0  0
  5  4  3  0  0  0  0
  6  9  1  0  0  0  0
  7  6  1  0  0  0  0
  8  6  1  0  0  0  0
M  RAD  1   1   2
M  END
