Coordinates from ORCA-job C2H5-N2+-scan-d09-169-n800
 OpenBabel09191813583D

  9  7  0  0  0  0  0  0  0  0999 V2000
    0.2985    2.3982    2.1715 C   0  0  0  0  0  0  0  0  0  0  0  0
    1.0680    2.1819    1.4301 H   0  0  0  0  0  0  0  0  0  0  0  0
   -0.4622    1.6421    2.3669 H   0  0  0  0  0  0  0  0  0  0  0  0
    0.3750  -10.9083   -5.3756 N   0  0  0  0  0  0  0  0  0  0  0  0
    0.3417  -11.8413   -5.9676 N   0  0  0  0  0  0  0  0  0  0  0  0
    0.3031    3.5939    2.8681 C   0  0  0  0  0  0  0  0  0  0  0  0
    1.0766    4.3409    2.6883 H   0  0  0  0  0  0  0  0  0  0  0  0
   -0.3486    3.4613    1.7272 H   0  0  0  0  0  0  0  0  0  0  0  0
   -0.4536    3.8010    3.6251 H   0  0  0  0  0  0  0  0  0  0  0  0
  1  3  1  0  0  0  0
  1  6  1  0  0  0  0
  2  1  1  0  0  0  0
  5  4  3  0  0  0  0
  6  9  1  0  0  0  0
  7  6  1  0  0  0  0
  8  6  1  0  0  0  0
M  RAD  1   1   2
M  END
