Coordinates from ORCA-job C2H5-N2+-scan-d09-169-n800
 OpenBabel09191813583D

  9  7  0  0  0  0  0  0  0  0999 V2000
    0.3218    1.1285    1.4751 C   0  0  0  0  0  0  0  0  0  0  0  0
    1.0988    0.9091    0.7424 H   0  0  0  0  0  0  0  0  0  0  0  0
   -0.4314    0.3667    1.6774 H   0  0  0  0  0  0  0  0  0  0  0  0
    0.3044   -6.4563   -2.9273 N   0  0  0  0  0  0  0  0  0  0  0  0
    0.3157   -7.4253   -3.4592 N   0  0  0  0  0  0  0  0  0  0  0  0
    0.3073    2.3355    2.1516 C   0  0  0  0  0  0  0  0  0  0  0  0
    1.0734    3.0884    1.9650 H   0  0  0  0  0  0  0  0  0  0  0  0
   -0.3347    2.1771    1.0090 H   0  0  0  0  0  0  0  0  0  0  0  0
   -0.4570    2.5459    2.9000 H   0  0  0  0  0  0  0  0  0  0  0  0
  1  3  1  0  0  0  0
  1  6  1  0  0  0  0
  2  1  1  0  0  0  0
  5  4  3  0  0  0  0
  6  9  1  0  0  0  0
  7  6  1  0  0  0  0
  8  6  1  0  0  0  0
M  RAD  1   1   2
M  END
