Coordinates from ORCA-job C2H5-N2+-scan-d09-169-n800
 OpenBabel09191813583D

  9  7  0  0  0  0  0  0  0  0999 V2000
    0.3240    1.5642    1.7297 C   0  0  0  0  0  0  0  0  0  0  0  0
    1.1055    1.3422    1.0027 H   0  0  0  0  0  0  0  0  0  0  0  0
   -0.4246    0.7995    1.9377 H   0  0  0  0  0  0  0  0  0  0  0  0
    0.3166   -7.9870   -3.7925 N   0  0  0  0  0  0  0  0  0  0  0  0
    0.3265   -8.9573   -4.3219 N   0  0  0  0  0  0  0  0  0  0  0  0
    0.2985    2.7785    2.3927 C   0  0  0  0  0  0  0  0  0  0  0  0
    1.0600    3.5347    2.2007 H   0  0  0  0  0  0  0  0  0  0  0  0
   -0.3378    2.6028    1.2493 H   0  0  0  0  0  0  0  0  0  0  0  0
   -0.4703    2.9920    3.1357 H   0  0  0  0  0  0  0  0  0  0  0  0
  1  3  1  0  0  0  0
  1  6  1  0  0  0  0
  2  1  1  0  0  0  0
  5  4  3  0  0  0  0
  6  9  1  0  0  0  0
  7  6  1  0  0  0  0
  8  6  1  0  0  0  0
M  RAD  1   1   2
M  END
