Coordinates from ORCA-job C2H5-N2+-scan-d09-169-n800
 OpenBabel09191813583D

  9  7  0  0  0  0  0  0  0  0999 V2000
    0.3138    0.6994    1.2150 C   0  0  0  0  0  0  0  0  0  0  0  0
    1.0821    0.4853    0.4717 H   0  0  0  0  0  0  0  0  0  0  0  0
   -0.4480   -0.0566    1.4066 H   0  0  0  0  0  0  0  0  0  0  0  0
    0.2954   -4.9423   -2.0673 N   0  0  0  0  0  0  0  0  0  0  0  0
    0.3082   -5.9105   -2.6005 N   0  0  0  0  0  0  0  0  0  0  0  0
    0.3200    1.8921    1.9165 C   0  0  0  0  0  0  0  0  0  0  0  0
    1.0948    2.6385    1.7401 H   0  0  0  0  0  0  0  0  0  0  0  0
   -0.3323    1.7672    0.7766 H   0  0  0  0  0  0  0  0  0  0  0  0
   -0.4356    2.0965    2.6753 H   0  0  0  0  0  0  0  0  0  0  0  0
  1  3  1  0  0  0  0
  1  6  1  0  0  0  0
  2  1  1  0  0  0  0
  5  4  3  0  0  0  0
  6  9  1  0  0  0  0
  7  6  1  0  0  0  0
  8  6  1  0  0  0  0
M  RAD  1   1   2
M  END
