Coordinates from ORCA-job C2H5-N2+-scan-d09-169-n800
 OpenBabel09191813583D

  9  7  0  0  0  0  0  0  0  0999 V2000
   -0.1590    0.2436    0.1813 C   0  0  0  0  0  0  0  0  0  0  0  0
    0.3312    0.4140   -0.7783 H   0  0  0  0  0  0  0  0  0  0  0  0
   -1.1865   -0.1215    0.1500 H   0  0  0  0  0  0  0  0  0  0  0  0
    0.5042   -2.1896   -0.1381 N   0  0  0  0  0  0  0  0  0  0  0  0
    0.7929   -3.2469   -0.2759 N   0  0  0  0  0  0  0  0  0  0  0  0
    0.4249    0.6928    1.3952 C   0  0  0  0  0  0  0  0  0  0  0  0
    1.5075    0.8359    1.3954 H   0  0  0  0  0  0  0  0  0  0  0  0
   -0.0123    1.7390    1.2840 H   0  0  0  0  0  0  0  0  0  0  0  0
   -0.0045    0.3023    2.3202 H   0  0  0  0  0  0  0  0  0  0  0  0
  1  6  1  0  0  0  0
  2  1  1  0  0  0  0
  3  1  1  0  0  0  0
  5  4  3  0  0  0  0
  6  7  1  0  0  0  0
  6  9  1  0  0  0  0
  8  6  1  0  0  0  0
M  RAD  1   1   2
M  END
