Coordinates from ORCA-job C2H5-N2+-scan-d09-169-n800
 OpenBabel09191813583D

  9  7  0  0  0  0  0  0  0  0999 V2000
    0.3220    1.1439    1.4842 C   0  0  0  0  0  0  0  0  0  0  0  0
    1.0992    0.9244    0.7518 H   0  0  0  0  0  0  0  0  0  0  0  0
   -0.4310    0.3819    1.6868 H   0  0  0  0  0  0  0  0  0  0  0  0
    0.3048   -6.5104   -2.9580 N   0  0  0  0  0  0  0  0  0  0  0  0
    0.3161   -7.4795   -3.4898 N   0  0  0  0  0  0  0  0  0  0  0  0
    0.3070    2.3512    2.1601 C   0  0  0  0  0  0  0  0  0  0  0  0
    1.0728    3.1043    1.9732 H   0  0  0  0  0  0  0  0  0  0  0  0
   -0.3348    2.1920    1.0175 H   0  0  0  0  0  0  0  0  0  0  0  0
   -0.4575    2.5618    2.9083 H   0  0  0  0  0  0  0  0  0  0  0  0
  1  3  1  0  0  0  0
  1  6  1  0  0  0  0
  2  1  1  0  0  0  0
  5  4  3  0  0  0  0
  6  9  1  0  0  0  0
  7  6  1  0  0  0  0
  8  6  1  0  0  0  0
M  RAD  1   1   2
M  END
