Coordinates from ORCA-job C2H5-N2+-scan-d09-169-n800
 OpenBabel09191813583D

  9  7  0  0  0  0  0  0  0  0999 V2000
    0.3098    0.5854    1.1429 C   0  0  0  0  0  0  0  0  0  0  0  0
    1.0743    0.3736    0.3951 H   0  0  0  0  0  0  0  0  0  0  0  0
   -0.4557   -0.1681    1.3300 H   0  0  0  0  0  0  0  0  0  0  0  0
    0.2940   -4.5377   -1.8360 N   0  0  0  0  0  0  0  0  0  0  0  0
    0.3075   -5.5060   -2.3691 N   0  0  0  0  0  0  0  0  0  0  0  0
    0.3246    1.7719    1.8547 C   0  0  0  0  0  0  0  0  0  0  0  0
    1.1030    2.5156    1.6825 H   0  0  0  0  0  0  0  0  0  0  0  0
   -0.3319    1.6612    0.7163 H   0  0  0  0  0  0  0  0  0  0  0  0
   -0.4274    1.9737    2.6177 H   0  0  0  0  0  0  0  0  0  0  0  0
  1  3  1  0  0  0  0
  1  6  1  0  0  0  0
  2  1  1  0  0  0  0
  5  4  3  0  0  0  0
  6  9  1  0  0  0  0
  7  6  1  0  0  0  0
  8  6  1  0  0  0  0
M  RAD  1   1   2
M  END
