Coordinates from ORCA-job C2H5-N2+-scan-d09-169-n800
 OpenBabel09191813583D

  9  7  0  0  0  0  0  0  0  0999 V2000
   -0.0905    0.3448    0.3517 C   0  0  0  0  0  0  0  0  0  0  0  0
    0.4338    0.4578   -0.5969 H   0  0  0  0  0  0  0  0  0  0  0  0
   -1.0936   -0.0810    0.3373 H   0  0  0  0  0  0  0  0  0  0  0  0
    0.5049   -2.6110   -0.3800 N   0  0  0  0  0  0  0  0  0  0  0  0
    0.7193   -3.6641   -0.6373 N   0  0  0  0  0  0  0  0  0  0  0  0
    0.4797    0.7822    1.5364 C   0  0  0  0  0  0  0  0  0  0  0  0
    1.4942    1.1795    1.5503 H   0  0  0  0  0  0  0  0  0  0  0  0
   -0.2138    1.6214    0.8865 H   0  0  0  0  0  0  0  0  0  0  0  0
   -0.0355    0.6399    2.4859 H   0  0  0  0  0  0  0  0  0  0  0  0
  1  6  1  0  0  0  0
  2  1  1  0  0  0  0
  3  1  1  0  0  0  0
  5  4  3  0  0  0  0
  6  7  1  0  0  0  0
  6  9  1  0  0  0  0
  8  6  1  0  0  0  0
M  RAD  1   1   2
M  END
