Coordinates from ORCA-job C2H5-N2+-scan-d09-169-n800
 OpenBabel09191813583D

  9  8  0  0  0  0  0  0  0  0999 V2000
   -0.0803   -0.1658    0.0738 C   0  0  0  0  0  0  0  0  0  0  0  0
    0.2819    0.2914   -0.8570 H   0  0  0  0  0  0  0  0  0  0  0  0
   -1.1766   -0.2233    0.0350 H   0  0  0  0  0  0  0  0  0  0  0  0
    0.3619   -1.4941    0.0306 N   0  0  0  0  0  0  0  0  0  0  0  0
    0.7299   -2.5373    0.0304 N   0  0  0  0  0  0  0  0  0  0  0  0
    0.4389    0.5541    1.3381 C   0  0  0  0  0  0  0  0  0  0  0  0
    1.5296    0.5939    1.3499 H   0  0  0  0  0  0  0  0  0  0  0  0
    0.0483    1.5736    1.2875 H   0  0  0  0  0  0  0  0  0  0  0  0
    0.0648    0.0771    2.2458 H   0  0  0  0  0  0  0  0  0  0  0  0
  1  6  1  0  0  0  0
  2  1  1  0  0  0  0
  3  1  1  0  0  0  0
  4  1  1  0  0  0  0
  5  4  1  0  0  0  0
  6  7  1  0  0  0  0
  6  9  1  0  0  0  0
  8  6  1  0  0  0  0
M  RAD  2   4   2   5   3
M  END
