Coordinates from ORCA-job C2H5-N2+-scan-d09-169-n800
 OpenBabel09191813583D

  9  7  0  0  0  0  0  0  0  0999 V2000
    0.2997    2.3204    2.1286 C   0  0  0  0  0  0  0  0  0  0  0  0
    1.0694    2.1038    1.3876 H   0  0  0  0  0  0  0  0  0  0  0  0
   -0.4607    1.5640    2.3244 H   0  0  0  0  0  0  0  0  0  0  0  0
    0.3722  -10.6362   -5.2238 N   0  0  0  0  0  0  0  0  0  0  0  0
    0.3387  -11.5696   -5.8152 N   0  0  0  0  0  0  0  0  0  0  0  0
    0.3036    3.5166    2.8242 C   0  0  0  0  0  0  0  0  0  0  0  0
    1.0768    4.2638    2.6440 H   0  0  0  0  0  0  0  0  0  0  0  0
   -0.3478    3.3828    1.6833 H   0  0  0  0  0  0  0  0  0  0  0  0
   -0.4534    3.7240    3.5809 H   0  0  0  0  0  0  0  0  0  0  0  0
  1  3  1  0  0  0  0
  1  6  1  0  0  0  0
  2  1  1  0  0  0  0
  5  4  3  0  0  0  0
  6  9  1  0  0  0  0
  7  6  1  0  0  0  0
  8  6  1  0  0  0  0
M  RAD  1   1   2
M  END
