Coordinates from ORCA-job C2H5-N2+-scan-d09-169-n800
 OpenBabel09191813583D

  9  8  0  0  0  0  0  0  0  0999 V2000
   -0.0967   -0.1103    0.0790 C   0  0  0  0  0  0  0  0  0  0  0  0
    0.2846    0.3014   -0.8614 H   0  0  0  0  0  0  0  0  0  0  0  0
   -1.1858   -0.2174    0.0379 H   0  0  0  0  0  0  0  0  0  0  0  0
    0.3786   -1.5538    0.0234 N   0  0  0  0  0  0  0  0  0  0  0  0
    0.7433   -2.5961    0.0183 N   0  0  0  0  0  0  0  0  0  0  0  0
    0.4356    0.5642    1.3385 C   0  0  0  0  0  0  0  0  0  0  0  0
    1.5263    0.6047    1.3487 H   0  0  0  0  0  0  0  0  0  0  0  0
    0.0526    1.5898    1.3039 H   0  0  0  0  0  0  0  0  0  0  0  0
    0.0599    0.0873    2.2456 H   0  0  0  0  0  0  0  0  0  0  0  0
  1  6  1  0  0  0  0
  2  1  1  0  0  0  0
  3  1  1  0  0  0  0
  4  1  1  0  0  0  0
  5  4  1  0  0  0  0
  6  7  1  0  0  0  0
  6  9  1  0  0  0  0
  8  6  1  0  0  0  0
M  RAD  2   4   2   5   3
M  END
