Coordinates from ORCA-job C2H5-N2+-scan-d09-169-n800
 OpenBabel09191813583D

  9  7  0  0  0  0  0  0  0  0999 V2000
    0.3236    1.4021    1.6356 C   0  0  0  0  0  0  0  0  0  0  0  0
    1.1037    1.1809    0.9068 H   0  0  0  0  0  0  0  0  0  0  0  0
   -0.4265    0.6383    1.8418 H   0  0  0  0  0  0  0  0  0  0  0  0
    0.3118   -7.4178   -3.4711 N   0  0  0  0  0  0  0  0  0  0  0  0
    0.3224   -8.3877   -4.0015 N   0  0  0  0  0  0  0  0  0  0  0  0
    0.3015    2.6141    2.3028 C   0  0  0  0  0  0  0  0  0  0  0  0
    1.0644    3.3693    2.1124 H   0  0  0  0  0  0  0  0  0  0  0  0
   -0.3366    2.4437    1.1596 H   0  0  0  0  0  0  0  0  0  0  0  0
   -0.4659    2.8267    3.0475 H   0  0  0  0  0  0  0  0  0  0  0  0
  1  3  1  0  0  0  0
  1  6  1  0  0  0  0
  2  1  1  0  0  0  0
  5  4  3  0  0  0  0
  6  9  1  0  0  0  0
  7  6  1  0  0  0  0
  8  6  1  0  0  0  0
M  RAD  1   1   2
M  END
