Coordinates from ORCA-job C2H5-N2+-scan-d09-169-n800
 OpenBabel09191813583D

  9  7  0  0  0  0  0  0  0  0999 V2000
    0.2974    2.4760    2.2145 C   0  0  0  0  0  0  0  0  0  0  0  0
    1.0667    2.2600    1.4728 H   0  0  0  0  0  0  0  0  0  0  0  0
   -0.4634    1.7200    2.4095 H   0  0  0  0  0  0  0  0  0  0  0  0
    0.3786  -11.1806   -5.5271 N   0  0  0  0  0  0  0  0  0  0  0  0
    0.3438  -12.1129   -6.1201 N   0  0  0  0  0  0  0  0  0  0  0  0
    0.3025    3.6713    2.9119 C   0  0  0  0  0  0  0  0  0  0  0  0
    1.0762    4.4181    2.7324 H   0  0  0  0  0  0  0  0  0  0  0  0
   -0.3494    3.5396    1.7710 H   0  0  0  0  0  0  0  0  0  0  0  0
   -0.4540    3.8781    3.6691 H   0  0  0  0  0  0  0  0  0  0  0  0
  1  3  1  0  0  0  0
  1  6  1  0  0  0  0
  2  1  1  0  0  0  0
  5  4  3  0  0  0  0
  6  9  1  0  0  0  0
  7  6  1  0  0  0  0
  8  6  1  0  0  0  0
M  RAD  1   1   2
M  END
