Coordinates from ORCA-job C2H5-N2+-scan-d09-169-n800
 OpenBabel09191813583D

  9  7  0  0  0  0  0  0  0  0999 V2000
    0.3234    1.3481    1.6041 C   0  0  0  0  0  0  0  0  0  0  0  0
    1.1030    1.1272    0.8747 H   0  0  0  0  0  0  0  0  0  0  0  0
   -0.4272    0.5846    1.8097 H   0  0  0  0  0  0  0  0  0  0  0  0
    0.3103   -7.2282   -3.3639 N   0  0  0  0  0  0  0  0  0  0  0  0
    0.3210   -8.1979   -3.8946 N   0  0  0  0  0  0  0  0  0  0  0  0
    0.3025    2.5593    2.2729 C   0  0  0  0  0  0  0  0  0  0  0  0
    1.0660    3.3141    2.0832 H   0  0  0  0  0  0  0  0  0  0  0  0
   -0.3362    2.3909    1.1298 H   0  0  0  0  0  0  0  0  0  0  0  0
   -0.4643    2.7714    3.0182 H   0  0  0  0  0  0  0  0  0  0  0  0
  1  3  1  0  0  0  0
  1  6  1  0  0  0  0
  2  1  1  0  0  0  0
  5  4  3  0  0  0  0
  6  9  1  0  0  0  0
  7  6  1  0  0  0  0
  8  6  1  0  0  0  0
M  RAD  1   1   2
M  END
