Coordinates from ORCA-job C2H5-N2+-scan-d09-169-n800
 OpenBabel09191813583D

  9  7  0  0  0  0  0  0  0  0999 V2000
    0.3107    1.7253    1.7999 C   0  0  0  0  0  0  0  0  0  0  0  0
    1.0840    1.5095    1.0623 H   0  0  0  0  0  0  0  0  0  0  0  0
   -0.4462    0.9658    1.9966 H   0  0  0  0  0  0  0  0  0  0  0  0
    0.3350   -8.5379   -4.0909 N   0  0  0  0  0  0  0  0  0  0  0  0
    0.3289   -9.5067   -4.6234 N   0  0  0  0  0  0  0  0  0  0  0  0
    0.3059    2.9247    2.4900 C   0  0  0  0  0  0  0  0  0  0  0  0
    1.0757    3.6752    2.3089 H   0  0  0  0  0  0  0  0  0  0  0  0
   -0.3410    2.7823    1.3475 H   0  0  0  0  0  0  0  0  0  0  0  0
   -0.4547    3.1314    3.2432 H   0  0  0  0  0  0  0  0  0  0  0  0
  1  3  1  0  0  0  0
  1  6  1  0  0  0  0
  2  1  1  0  0  0  0
  5  4  3  0  0  0  0
  6  9  1  0  0  0  0
  7  6  1  0  0  0  0
  8  6  1  0  0  0  0
M  RAD  1   1   2
M  END
