Coordinates from ORCA-job C2H5-N2+-scan-d09-169-n800
 OpenBabel09191813583D

  9  7  0  0  0  0  0  0  0  0999 V2000
    0.2970    2.5188    2.2383 C   0  0  0  0  0  0  0  0  0  0  0  0
    1.0662    2.3027    1.4966 H   0  0  0  0  0  0  0  0  0  0  0  0
   -0.4639    1.7627    2.4333 H   0  0  0  0  0  0  0  0  0  0  0  0
    0.3801  -11.3304   -5.6103 N   0  0  0  0  0  0  0  0  0  0  0  0
    0.3454  -12.2621   -6.2042 N   0  0  0  0  0  0  0  0  0  0  0  0
    0.3021    3.7139    2.9358 C   0  0  0  0  0  0  0  0  0  0  0  0
    1.0758    4.4608    2.7564 H   0  0  0  0  0  0  0  0  0  0  0  0
   -0.3499    3.5824    1.7949 H   0  0  0  0  0  0  0  0  0  0  0  0
   -0.4543    3.9207    3.6931 H   0  0  0  0  0  0  0  0  0  0  0  0
  1  3  1  0  0  0  0
  1  6  1  0  0  0  0
  2  1  1  0  0  0  0
  5  4  3  0  0  0  0
  6  9  1  0  0  0  0
  7  6  1  0  0  0  0
  8  6  1  0  0  0  0
M  RAD  1   1   2
M  END
