Coordinates from ORCA-job C2H5-N2+-scan-d09-169-n800
 OpenBabel09191813583D

  9  7  0  0  0  0  0  0  0  0999 V2000
    0.3007    2.2580    2.0944 C   0  0  0  0  0  0  0  0  0  0  0  0
    1.0708    2.0412    1.3538 H   0  0  0  0  0  0  0  0  0  0  0  0
   -0.4594    1.5015    2.2906 H   0  0  0  0  0  0  0  0  0  0  0  0
    0.3700  -10.4182   -5.1028 N   0  0  0  0  0  0  0  0  0  0  0  0
    0.3361  -11.3523   -5.6930 N   0  0  0  0  0  0  0  0  0  0  0  0
    0.3039    3.4548    2.7891 C   0  0  0  0  0  0  0  0  0  0  0  0
    1.0768    4.2022    2.6085 H   0  0  0  0  0  0  0  0  0  0  0  0
   -0.3471    3.3198    1.6480 H   0  0  0  0  0  0  0  0  0  0  0  0
   -0.4534    3.6624    3.5454 H   0  0  0  0  0  0  0  0  0  0  0  0
  1  3  1  0  0  0  0
  1  6  1  0  0  0  0
  2  1  1  0  0  0  0
  5  4  3  0  0  0  0
  6  9  1  0  0  0  0
  7  6  1  0  0  0  0
  8  6  1  0  0  0  0
M  RAD  1   1   2
M  END
