Coordinates from ORCA-job C2H5-N2+-scan-d09-169-n800
 OpenBabel09191813583D

  9  7  0  0  0  0  0  0  0  0999 V2000
   -0.1576    0.2331    0.1777 C   0  0  0  0  0  0  0  0  0  0  0  0
    0.3313    0.4060   -0.7820 H   0  0  0  0  0  0  0  0  0  0  0  0
   -1.1859   -0.1294    0.1460 H   0  0  0  0  0  0  0  0  0  0  0  0
    0.4999   -2.1614   -0.1288 N   0  0  0  0  0  0  0  0  0  0  0  0
    0.7892   -3.2187   -0.2657 N   0  0  0  0  0  0  0  0  0  0  0  0
    0.4252    0.6868    1.3922 C   0  0  0  0  0  0  0  0  0  0  0  0
    1.5082    0.8266    1.3924 H   0  0  0  0  0  0  0  0  0  0  0  0
   -0.0091    1.7332    1.2858 H   0  0  0  0  0  0  0  0  0  0  0  0
   -0.0028    0.2934    2.3165 H   0  0  0  0  0  0  0  0  0  0  0  0
  1  6  1  0  0  0  0
  2  1  1  0  0  0  0
  3  1  1  0  0  0  0
  5  4  3  0  0  0  0
  6  7  1  0  0  0  0
  6  9  1  0  0  0  0
  8  6  1  0  0  0  0
M  RAD  1   1   2
M  END
