Coordinates from ORCA-job C2H5-N2+-scan-d09-169-n800
 OpenBabel09191813583D

  9  7  0  0  0  0  0  0  0  0999 V2000
    0.3065    1.9204    1.9058 C   0  0  0  0  0  0  0  0  0  0  0  0
    1.0783    1.7054    1.1664 H   0  0  0  0  0  0  0  0  0  0  0  0
   -0.4520    1.1620    2.1009 H   0  0  0  0  0  0  0  0  0  0  0  0
    0.3496   -9.2217   -4.4650 N   0  0  0  0  0  0  0  0  0  0  0  0
    0.3303  -10.1841   -5.0086 N   0  0  0  0  0  0  0  0  0  0  0  0
    0.3056    3.1173    2.6002 C   0  0  0  0  0  0  0  0  0  0  0  0
    1.0769    3.8666    2.4208 H   0  0  0  0  0  0  0  0  0  0  0  0
   -0.3433    2.9805    1.4582 H   0  0  0  0  0  0  0  0  0  0  0  0
   -0.4535    3.3232    3.3553 H   0  0  0  0  0  0  0  0  0  0  0  0
  1  3  1  0  0  0  0
  1  6  1  0  0  0  0
  2  1  1  0  0  0  0
  5  4  3  0  0  0  0
  6  9  1  0  0  0  0
  7  6  1  0  0  0  0
  8  6  1  0  0  0  0
M  RAD  1   1   2
M  END
