Coordinates from ORCA-job C2H5-N2+-scan-d09-169-n800
 OpenBabel09191813583D

  9  7  0  0  0  0  0  0  0  0999 V2000
    0.3182    1.6328    1.7591 C   0  0  0  0  0  0  0  0  0  0  0  0
    1.0962    1.4136    1.0275 H   0  0  0  0  0  0  0  0  0  0  0  0
   -0.4341    0.8703    1.9620 H   0  0  0  0  0  0  0  0  0  0  0  0
    0.3241   -8.2208   -3.9201 N   0  0  0  0  0  0  0  0  0  0  0  0
    0.3279   -9.1914   -4.4492 N   0  0  0  0  0  0  0  0  0  0  0  0
    0.3018    2.8405    2.4344 C   0  0  0  0  0  0  0  0  0  0  0  0
    1.0669    3.5943    2.2473 H   0  0  0  0  0  0  0  0  0  0  0  0
   -0.3392    2.6794    1.2912 H   0  0  0  0  0  0  0  0  0  0  0  0
   -0.4634    3.0509    3.1819 H   0  0  0  0  0  0  0  0  0  0  0  0
  1  3  1  0  0  0  0
  1  6  1  0  0  0  0
  2  1  1  0  0  0  0
  5  4  3  0  0  0  0
  6  9  1  0  0  0  0
  7  6  1  0  0  0  0
  8  6  1  0  0  0  0
M  RAD  1   1   2
M  END
