Coordinates from ORCA-job C2H5-N2+-scan-d09-169-n800
 OpenBabel09191813583D

  9  7  0  0  0  0  0  0  0  0999 V2000
    0.3206    1.0208    1.4110 C   0  0  0  0  0  0  0  0  0  0  0  0
    1.0959    0.8025    0.6764 H   0  0  0  0  0  0  0  0  0  0  0  0
   -0.4342    0.2601    1.6114 H   0  0  0  0  0  0  0  0  0  0  0  0
    0.3017   -6.0774   -2.7127 N   0  0  0  0  0  0  0  0  0  0  0  0
    0.3134   -7.0461   -3.2451 N   0  0  0  0  0  0  0  0  0  0  0  0
    0.3100    2.2252    2.0923 C   0  0  0  0  0  0  0  0  0  0  0  0
    1.0777    2.9769    1.9077 H   0  0  0  0  0  0  0  0  0  0  0  0
   -0.3340    2.0731    0.9502 H   0  0  0  0  0  0  0  0  0  0  0  0
   -0.4526    2.4345    2.8428 H   0  0  0  0  0  0  0  0  0  0  0  0
  1  3  1  0  0  0  0
  1  6  1  0  0  0  0
  2  1  1  0  0  0  0
  5  4  3  0  0  0  0
  6  9  1  0  0  0  0
  7  6  1  0  0  0  0
  8  6  1  0  0  0  0
M  RAD  1   1   2
M  END
