Coordinates from ORCA-job C2H5-N2+-scan-d09-169-n800
 OpenBabel09191813583D

  9  7  0  0  0  0  0  0  0  0999 V2000
    0.2933    0.3038    0.9549 C   0  0  0  0  0  0  0  0  0  0  0  0
    1.0432    0.0999    0.1902 H   0  0  0  0  0  0  0  0  0  0  0  0
   -0.4854   -0.4401    1.1247 H   0  0  0  0  0  0  0  0  0  0  0  0
    0.2944   -3.5296   -1.2543 N   0  0  0  0  0  0  0  0  0  0  0  0
    0.3117   -4.4996   -1.7839 N   0  0  0  0  0  0  0  0  0  0  0  0
    0.3395    1.4671    1.7026 C   0  0  0  0  0  0  0  0  0  0  0  0
    1.1317    2.1993    1.5458 H   0  0  0  0  0  0  0  0  0  0  0  0
   -0.3312    1.4100    0.5726 H   0  0  0  0  0  0  0  0  0  0  0  0
   -0.3987    1.6587    2.4815 H   0  0  0  0  0  0  0  0  0  0  0  0
  1  3  1  0  0  0  0
  1  6  1  0  0  0  0
  2  1  1  0  0  0  0
  5  4  3  0  0  0  0
  6  9  1  0  0  0  0
  7  6  1  0  0  0  0
  8  6  1  0  0  0  0
M  RAD  1   1   2
M  END
