Coordinates from ORCA-job C2H5-N2+-scan-d09-169-n800
 OpenBabel09191813583D

  9  7  0  0  0  0  0  0  0  0999 V2000
    0.3015    2.2229    2.0755 C   0  0  0  0  0  0  0  0  0  0  0  0
    1.0718    2.0058    1.3352 H   0  0  0  0  0  0  0  0  0  0  0  0
   -0.4583    1.4661    2.2721 H   0  0  0  0  0  0  0  0  0  0  0  0
    0.3687  -10.2958   -5.0343 N   0  0  0  0  0  0  0  0  0  0  0  0
    0.3347  -11.2296   -5.6249 N   0  0  0  0  0  0  0  0  0  0  0  0
    0.3039    3.4202    2.7691 C   0  0  0  0  0  0  0  0  0  0  0  0
    1.0765    4.1678    2.5881 H   0  0  0  0  0  0  0  0  0  0  0  0
   -0.3467    3.2840    1.6280 H   0  0  0  0  0  0  0  0  0  0  0  0
   -0.4537    3.6282    3.5250 H   0  0  0  0  0  0  0  0  0  0  0  0
  1  3  1  0  0  0  0
  1  6  1  0  0  0  0
  2  1  1  0  0  0  0
  5  4  3  0  0  0  0
  6  9  1  0  0  0  0
  7  6  1  0  0  0  0
  8  6  1  0  0  0  0
M  RAD  1   1   2
M  END
