Coordinates from ORCA-job C2H5-N2+-scan-d09-169-n800
 OpenBabel09191813583D

  9  7  0  0  0  0  0  0  0  0999 V2000
    0.3158    1.6533    1.7669 C   0  0  0  0  0  0  0  0  0  0  0  0
    1.0923    1.4351    1.0333 H   0  0  0  0  0  0  0  0  0  0  0  0
   -0.4380    0.8917    1.9678 H   0  0  0  0  0  0  0  0  0  0  0  0
    0.3271   -8.2902   -3.9570 N   0  0  0  0  0  0  0  0  0  0  0  0
    0.3281   -9.2604   -4.4868 N   0  0  0  0  0  0  0  0  0  0  0  0
    0.3033    2.8582    2.4471 C   0  0  0  0  0  0  0  0  0  0  0  0
    1.0699    3.6110    2.2620 H   0  0  0  0  0  0  0  0  0  0  0  0
   -0.3397    2.7033    1.3041 H   0  0  0  0  0  0  0  0  0  0  0  0
   -0.4604    3.0675    3.1965 H   0  0  0  0  0  0  0  0  0  0  0  0
  1  3  1  0  0  0  0
  1  6  1  0  0  0  0
  2  1  1  0  0  0  0
  5  4  3  0  0  0  0
  6  9  1  0  0  0  0
  7  6  1  0  0  0  0
  8  6  1  0  0  0  0
M  RAD  1   1   2
M  END
