Coordinates from ORCA-job C2H5-N2+-scan-d09-169-n800
 OpenBabel09191813583D

  9  7  0  0  0  0  0  0  0  0999 V2000
    0.2953    0.3298    0.9731 C   0  0  0  0  0  0  0  0  0  0  0  0
    1.0470    0.1249    0.2105 H   0  0  0  0  0  0  0  0  0  0  0  0
   -0.4819   -0.4152    1.1451 H   0  0  0  0  0  0  0  0  0  0  0  0
    0.2941   -3.6234   -1.3089 N   0  0  0  0  0  0  0  0  0  0  0  0
    0.3108   -4.5931   -1.8392 N   0  0  0  0  0  0  0  0  0  0  0  0
    0.3379    1.4959    1.7166 C   0  0  0  0  0  0  0  0  0  0  0  0
    1.1285    2.2295    1.5580 H   0  0  0  0  0  0  0  0  0  0  0  0
   -0.3312    1.4322    0.5853 H   0  0  0  0  0  0  0  0  0  0  0  0
   -0.4020    1.6889    2.4936 H   0  0  0  0  0  0  0  0  0  0  0  0
  1  3  1  0  0  0  0
  1  6  1  0  0  0  0
  2  1  1  0  0  0  0
  5  4  3  0  0  0  0
  6  9  1  0  0  0  0
  7  6  1  0  0  0  0
  8  6  1  0  0  0  0
M  RAD  1   1   2
M  END
