Coordinates from ORCA-job C2H5-N2+-scan-d09-169-n800
 OpenBabel09191813583D

  9  7  0  0  0  0  0  0  0  0999 V2000
    0.3057    0.4947    1.0841 C   0  0  0  0  0  0  0  0  0  0  0  0
    1.0665    0.2851    0.3319 H   0  0  0  0  0  0  0  0  0  0  0  0
   -0.4633   -0.2563    1.2668 H   0  0  0  0  0  0  0  0  0  0  0  0
    0.2934   -4.2146   -1.6506 N   0  0  0  0  0  0  0  0  0  0  0  0
    0.3078   -5.1831   -2.1830 N   0  0  0  0  0  0  0  0  0  0  0  0
    0.3288    1.6752    1.8056 C   0  0  0  0  0  0  0  0  0  0  0  0
    1.1108    2.4160    1.6375 H   0  0  0  0  0  0  0  0  0  0  0  0
   -0.3316    1.5783    0.6689 H   0  0  0  0  0  0  0  0  0  0  0  0
   -0.4197    1.8743    2.5728 H   0  0  0  0  0  0  0  0  0  0  0  0
  1  3  1  0  0  0  0
  1  6  1  0  0  0  0
  2  1  1  0  0  0  0
  5  4  3  0  0  0  0
  6  9  1  0  0  0  0
  7  6  1  0  0  0  0
  8  6  1  0  0  0  0
M  RAD  1   1   2
M  END
