Coordinates from ORCA-job C2H5-N2+-scan-d09-169-n800
 OpenBabel09191813583D

  9  8  0  0  0  0  0  0  0  0999 V2000
   -0.0469   -0.2777    0.0639 C   0  0  0  0  0  0  0  0  0  0  0  0
    0.2819    0.2738   -0.8393 H   0  0  0  0  0  0  0  0  0  0  0  0
   -1.1539   -0.2328    0.0388 H   0  0  0  0  0  0  0  0  0  0  0  0
    0.3273   -1.3758    0.0422 N   0  0  0  0  0  0  0  0  0  0  0  0
    0.7023   -2.4264    0.0493 N   0  0  0  0  0  0  0  0  0  0  0  0
    0.4471    0.5370    1.3416 C   0  0  0  0  0  0  0  0  0  0  0  0
    1.5376    0.5741    1.3468 H   0  0  0  0  0  0  0  0  0  0  0  0
    0.0340    1.5415    1.2457 H   0  0  0  0  0  0  0  0  0  0  0  0
    0.0691    0.0559    2.2450 H   0  0  0  0  0  0  0  0  0  0  0  0
  1  6  1  0  0  0  0
  2  1  1  0  0  0  0
  3  1  1  0  0  0  0
  4  5  1  0  0  0  0
  4  1  1  0  0  0  0
  6  7  1  0  0  0  0
  6  9  1  0  0  0  0
  8  6  1  0  0  0  0
M  RAD  2   4   2   5   3
M  END
