Coordinates from ORCA-job C2H5-N2+-scan-d09-169-n800
 OpenBabel09191813583D

  9  7  0  0  0  0  0  0  0  0999 V2000
    0.3226    1.2247    1.5318 C   0  0  0  0  0  0  0  0  0  0  0  0
    1.1009    1.0047    0.8007 H   0  0  0  0  0  0  0  0  0  0  0  0
   -0.4293    0.4621    1.7357 H   0  0  0  0  0  0  0  0  0  0  0  0
    0.3069   -6.7948   -3.1189 N   0  0  0  0  0  0  0  0  0  0  0  0
    0.3180   -7.7641   -3.6502 N   0  0  0  0  0  0  0  0  0  0  0  0
    0.3051    2.4337    2.2047 C   0  0  0  0  0  0  0  0  0  0  0  0
    1.0699    3.1876    2.0166 H   0  0  0  0  0  0  0  0  0  0  0  0
   -0.3353    2.2706    1.0619 H   0  0  0  0  0  0  0  0  0  0  0  0
   -0.4604    2.6450    2.9517 H   0  0  0  0  0  0  0  0  0  0  0  0
  1  3  1  0  0  0  0
  1  6  1  0  0  0  0
  2  1  1  0  0  0  0
  5  4  3  0  0  0  0
  6  9  1  0  0  0  0
  7  6  1  0  0  0  0
  8  6  1  0  0  0  0
M  RAD  1   1   2
M  END
