Coordinates from ORCA-job C2H5-N2+-scan-d09-169-n800
 OpenBabel09191813583D

  9  7  0  0  0  0  0  0  0  0999 V2000
    0.3113    1.7134    1.7940 C   0  0  0  0  0  0  0  0  0  0  0  0
    1.0850    1.4974    1.0569 H   0  0  0  0  0  0  0  0  0  0  0  0
   -0.4453    0.9537    1.9912 H   0  0  0  0  0  0  0  0  0  0  0  0
    0.3339   -8.4968   -4.0685 N   0  0  0  0  0  0  0  0  0  0  0  0
    0.3288   -9.4658   -4.6006 N   0  0  0  0  0  0  0  0  0  0  0  0
    0.3057    2.9134    2.4831 C   0  0  0  0  0  0  0  0  0  0  0  0
    1.0751    3.6642    2.3015 H   0  0  0  0  0  0  0  0  0  0  0  0
   -0.3408    2.7697    1.3406 H   0  0  0  0  0  0  0  0  0  0  0  0
   -0.4553    3.1204    3.2359 H   0  0  0  0  0  0  0  0  0  0  0  0
  1  3  1  0  0  0  0
  1  6  1  0  0  0  0
  2  1  1  0  0  0  0
  5  4  3  0  0  0  0
  6  9  1  0  0  0  0
  7  6  1  0  0  0  0
  8  6  1  0  0  0  0
M  RAD  1   1   2
M  END
