Coordinates from ORCA-job C2H5-N2+-scan-d09-169-n800
 OpenBabel09191813583D

  9  7  0  0  0  0  0  0  0  0999 V2000
    0.3230    1.2787    1.5635 C   0  0  0  0  0  0  0  0  0  0  0  0
    1.1018    1.0582    0.8332 H   0  0  0  0  0  0  0  0  0  0  0  0
   -0.4283    0.5157    1.7682 H   0  0  0  0  0  0  0  0  0  0  0  0
    0.3083   -6.9844   -3.2261 N   0  0  0  0  0  0  0  0  0  0  0  0
    0.3193   -7.9538   -3.7572 N   0  0  0  0  0  0  0  0  0  0  0  0
    0.3040    2.4887    2.2345 C   0  0  0  0  0  0  0  0  0  0  0  0
    1.0681    3.2430    2.0457 H   0  0  0  0  0  0  0  0  0  0  0  0
   -0.3357    2.3232    1.0916 H   0  0  0  0  0  0  0  0  0  0  0  0
   -0.4621    2.7004    2.9807 H   0  0  0  0  0  0  0  0  0  0  0  0
  1  3  1  0  0  0  0
  1  6  1  0  0  0  0
  2  1  1  0  0  0  0
  5  4  3  0  0  0  0
  6  9  1  0  0  0  0
  7  6  1  0  0  0  0
  8  6  1  0  0  0  0
M  RAD  1   1   2
M  END
