Coordinates from ORCA-job C2H5-N2+-scan-d09-169-n800
 OpenBabel09191813583D

  9  7  0  0  0  0  0  0  0  0999 V2000
    0.3170    0.8215    1.2905 C   0  0  0  0  0  0  0  0  0  0  0  0
    1.0885    0.6055    0.5511 H   0  0  0  0  0  0  0  0  0  0  0  0
   -0.4417    0.0634    1.4861 H   0  0  0  0  0  0  0  0  0  0  0  0
    0.2975   -5.3744   -2.3135 N   0  0  0  0  0  0  0  0  0  0  0  0
    0.3098   -6.3427   -2.8466 N   0  0  0  0  0  0  0  0  0  0  0  0
    0.3158    2.0194    1.9831 C   0  0  0  0  0  0  0  0  0  0  0  0
    1.0874    2.7683    1.8030 H   0  0  0  0  0  0  0  0  0  0  0  0
   -0.3329    1.8824    0.8421 H   0  0  0  0  0  0  0  0  0  0  0  0
   -0.4430    2.2261    2.7382 H   0  0  0  0  0  0  0  0  0  0  0  0
  1  3  1  0  0  0  0
  1  6  1  0  0  0  0
  2  1  1  0  0  0  0
  5  4  3  0  0  0  0
  6  9  1  0  0  0  0
  7  6  1  0  0  0  0
  8  6  1  0  0  0  0
M  RAD  1   1   2
M  END
