Coordinates from ORCA-job C2H5-N2+-scan-d09-169-n800
 OpenBabel09191813583D

  9  7  0  0  0  0  0  0  0  0999 V2000
    0.3083    1.7999    1.8389 C   0  0  0  0  0  0  0  0  0  0  0  0
    1.0805    1.5849    1.0999 H   0  0  0  0  0  0  0  0  0  0  0  0
   -0.4498    1.0411    2.0342 H   0  0  0  0  0  0  0  0  0  0  0  0
    0.3408   -8.7978   -4.2334 N   0  0  0  0  0  0  0  0  0  0  0  0
    0.3298   -9.7649   -4.7689 N   0  0  0  0  0  0  0  0  0  0  0  0
    0.3064    2.9972    2.5326 C   0  0  0  0  0  0  0  0  0  0  0  0
    1.0773    3.7468    2.3530 H   0  0  0  0  0  0  0  0  0  0  0  0
   -0.3419    2.8594    1.3904 H   0  0  0  0  0  0  0  0  0  0  0  0
   -0.4530    3.2031    3.2873 H   0  0  0  0  0  0  0  0  0  0  0  0
  1  3  1  0  0  0  0
  1  6  1  0  0  0  0
  2  1  1  0  0  0  0
  5  4  3  0  0  0  0
  6  9  1  0  0  0  0
  7  6  1  0  0  0  0
  8  6  1  0  0  0  0
M  RAD  1   1   2
M  END
