Coordinates from ORCA-job C2H5-N2+-scan-d09-169-n800
 OpenBabel09191813583D

  9  7  0  0  0  0  0  0  0  0999 V2000
    0.2976    2.4643    2.2081 C   0  0  0  0  0  0  0  0  0  0  0  0
    1.0669    2.2482    1.4665 H   0  0  0  0  0  0  0  0  0  0  0  0
   -0.4632    1.7083    2.4033 H   0  0  0  0  0  0  0  0  0  0  0  0
    0.3781  -11.1399   -5.5041 N   0  0  0  0  0  0  0  0  0  0  0  0
    0.3434  -12.0720   -6.0975 N   0  0  0  0  0  0  0  0  0  0  0  0
    0.3026    3.6597    2.9052 C   0  0  0  0  0  0  0  0  0  0  0  0
    1.0762    4.4066    2.7257 H   0  0  0  0  0  0  0  0  0  0  0  0
   -0.3493    3.5278    1.7643 H   0  0  0  0  0  0  0  0  0  0  0  0
   -0.4540    3.8666    3.6624 H   0  0  0  0  0  0  0  0  0  0  0  0
  1  3  1  0  0  0  0
  1  6  1  0  0  0  0
  2  1  1  0  0  0  0
  5  4  3  0  0  0  0
  6  9  1  0  0  0  0
  7  6  1  0  0  0  0
  8  6  1  0  0  0  0
M  RAD  1   1   2
M  END
