Coordinates from ORCA-job C2H5-N2+-scan-d09-169-n800
 OpenBabel09191813583D

  9  7  0  0  0  0  0  0  0  0999 V2000
    0.3235    1.3828    1.6243 C   0  0  0  0  0  0  0  0  0  0  0  0
    1.1035    1.1617    0.8954 H   0  0  0  0  0  0  0  0  0  0  0  0
   -0.4267    0.6191    1.8303 H   0  0  0  0  0  0  0  0  0  0  0  0
    0.3113   -7.3501   -3.4328 N   0  0  0  0  0  0  0  0  0  0  0  0
    0.3219   -8.3199   -3.9633 N   0  0  0  0  0  0  0  0  0  0  0  0
    0.3019    2.5946    2.2921 C   0  0  0  0  0  0  0  0  0  0  0  0
    1.0649    3.3496    2.1020 H   0  0  0  0  0  0  0  0  0  0  0  0
   -0.3365    2.4249    1.1490 H   0  0  0  0  0  0  0  0  0  0  0  0
   -0.4653    2.8069    3.0370 H   0  0  0  0  0  0  0  0  0  0  0  0
  1  3  1  0  0  0  0
  1  6  1  0  0  0  0
  2  1  1  0  0  0  0
  5  4  3  0  0  0  0
  6  9  1  0  0  0  0
  7  6  1  0  0  0  0
  8  6  1  0  0  0  0
M  RAD  1   1   2
M  END
