Coordinates from ORCA-job C2H5-N2+-scan-d09-169-n800
 OpenBabel09191813583D

  9  7  0  0  0  0  0  0  0  0999 V2000
    0.3193    0.9364    1.3603 C   0  0  0  0  0  0  0  0  0  0  0  0
    1.0931    0.7189    0.6238 H   0  0  0  0  0  0  0  0  0  0  0  0
   -0.4370    0.1767    1.5588 H   0  0  0  0  0  0  0  0  0  0  0  0
    0.2998   -5.7798   -2.5439 N   0  0  0  0  0  0  0  0  0  0  0  0
    0.3117   -6.7484   -3.0766 N   0  0  0  0  0  0  0  0  0  0  0  0
    0.3123    2.1383    2.0460 C   0  0  0  0  0  0  0  0  0  0  0  0
    1.0815    2.8889    1.8631 H   0  0  0  0  0  0  0  0  0  0  0  0
   -0.3335    1.9920    0.9043 H   0  0  0  0  0  0  0  0  0  0  0  0
   -0.4489    2.3466    2.7982 H   0  0  0  0  0  0  0  0  0  0  0  0
  1  3  1  0  0  0  0
  1  6  1  0  0  0  0
  2  1  1  0  0  0  0
  5  4  3  0  0  0  0
  6  9  1  0  0  0  0
  7  6  1  0  0  0  0
  8  6  1  0  0  0  0
M  RAD  1   1   2
M  END
