Coordinates from ORCA-job C2H5-N2+-scan-d09-169-n800
 OpenBabel09191813583D

  9  7  0  0  0  0  0  0  0  0999 V2000
    0.2966    2.5499    2.2556 C   0  0  0  0  0  0  0  0  0  0  0  0
    1.0658    2.3339    1.5138 H   0  0  0  0  0  0  0  0  0  0  0  0
   -0.4644    1.7939    2.4505 H   0  0  0  0  0  0  0  0  0  0  0  0
    0.3812  -11.4392   -5.6710 N   0  0  0  0  0  0  0  0  0  0  0  0
    0.3465  -12.3708   -6.2652 N   0  0  0  0  0  0  0  0  0  0  0  0
    0.3019    3.7449    2.9533 C   0  0  0  0  0  0  0  0  0  0  0  0
    1.0756    4.4917    2.7740 H   0  0  0  0  0  0  0  0  0  0  0  0
   -0.3502    3.6137    1.8124 H   0  0  0  0  0  0  0  0  0  0  0  0
   -0.4545    3.9516    3.7107 H   0  0  0  0  0  0  0  0  0  0  0  0
  1  3  1  0  0  0  0
  1  6  1  0  0  0  0
  2  1  1  0  0  0  0
  5  4  3  0  0  0  0
  6  9  1  0  0  0  0
  7  6  1  0  0  0  0
  8  6  1  0  0  0  0
M  RAD  1   1   2
M  END
