Coordinates from ORCA-job C2H5-N2+-scan-d09-169-n800
 OpenBabel09191813583D

  9  7  0  0  0  0  0  0  0  0999 V2000
    0.2981    2.4332    2.1910 C   0  0  0  0  0  0  0  0  0  0  0  0
    1.0675    2.2169    1.4495 H   0  0  0  0  0  0  0  0  0  0  0  0
   -0.4626    1.6771    2.3864 H   0  0  0  0  0  0  0  0  0  0  0  0
    0.3761  -11.0311   -5.4434 N   0  0  0  0  0  0  0  0  0  0  0  0
    0.3430  -11.9633   -6.0366 N   0  0  0  0  0  0  0  0  0  0  0  0
    0.3028    3.6288    2.8877 C   0  0  0  0  0  0  0  0  0  0  0  0
    1.0763    4.3757    2.7079 H   0  0  0  0  0  0  0  0  0  0  0  0
   -0.3490    3.4964    1.7468 H   0  0  0  0  0  0  0  0  0  0  0  0
   -0.4538    3.8359    3.6448 H   0  0  0  0  0  0  0  0  0  0  0  0
  1  3  1  0  0  0  0
  1  6  1  0  0  0  0
  2  1  1  0  0  0  0
  5  4  3  0  0  0  0
  6  9  1  0  0  0  0
  7  6  1  0  0  0  0
  8  6  1  0  0  0  0
M  RAD  1   1   2
M  END
