Coordinates from ORCA-job C2H5-N2+-scan-d09-169-n800
 OpenBabel09191813583D

  9  7  0  0  0  0  0  0  0  0999 V2000
    0.3143    0.7146    1.2245 C   0  0  0  0  0  0  0  0  0  0  0  0
    1.0830    0.5003    0.4817 H   0  0  0  0  0  0  0  0  0  0  0  0
   -0.4471   -0.0417    1.4167 H   0  0  0  0  0  0  0  0  0  0  0  0
    0.2956   -4.9963   -2.0981 N   0  0  0  0  0  0  0  0  0  0  0  0
    0.3084   -5.9645   -2.6313 N   0  0  0  0  0  0  0  0  0  0  0  0
    0.3195    1.9080    1.9248 C   0  0  0  0  0  0  0  0  0  0  0  0
    1.0938    2.6548    1.7479 H   0  0  0  0  0  0  0  0  0  0  0  0
   -0.3324    1.7815    0.7848 H   0  0  0  0  0  0  0  0  0  0  0  0
   -0.4366    2.1127    2.6831 H   0  0  0  0  0  0  0  0  0  0  0  0
  1  3  1  0  0  0  0
  1  6  1  0  0  0  0
  2  1  1  0  0  0  0
  5  4  3  0  0  0  0
  6  9  1  0  0  0  0
  7  6  1  0  0  0  0
  8  6  1  0  0  0  0
M  RAD  1   1   2
M  END
