Coordinates from ORCA-job C2H5-N2+-scan-d09-169-n800
 OpenBabel09191813583D

  9  7  0  0  0  0  0  0  0  0999 V2000
    0.3213    1.0823    1.4477 C   0  0  0  0  0  0  0  0  0  0  0  0
    1.0977    0.8634    0.7142 H   0  0  0  0  0  0  0  0  0  0  0  0
   -0.4325    0.3210    1.6492 H   0  0  0  0  0  0  0  0  0  0  0  0
    0.3032   -6.2939   -2.8354 N   0  0  0  0  0  0  0  0  0  0  0  0
    0.3147   -7.2628   -3.3675 N   0  0  0  0  0  0  0  0  0  0  0  0
    0.3084    2.2882    2.1262 C   0  0  0  0  0  0  0  0  0  0  0  0
    1.0751    3.0407    1.9403 H   0  0  0  0  0  0  0  0  0  0  0  0
   -0.3344    2.1325    0.9838 H   0  0  0  0  0  0  0  0  0  0  0  0
   -0.4552    2.4982    2.8754 H   0  0  0  0  0  0  0  0  0  0  0  0
  1  3  1  0  0  0  0
  1  6  1  0  0  0  0
  2  1  1  0  0  0  0
  5  4  3  0  0  0  0
  6  9  1  0  0  0  0
  7  6  1  0  0  0  0
  8  6  1  0  0  0  0
M  RAD  1   1   2
M  END
