Coordinates from ORCA-job C2H5-N2+-scan-d09-169-n800
 OpenBabel09191813583D

  9  7  0  0  0  0  0  0  0  0999 V2000
   -0.1485    0.1343    0.1355 C   0  0  0  0  0  0  0  0  0  0  0  0
    0.3186    0.3560   -0.8241 H   0  0  0  0  0  0  0  0  0  0  0  0
   -1.1925   -0.1771    0.1001 H   0  0  0  0  0  0  0  0  0  0  0  0
    0.4583   -1.9108   -0.0523 N   0  0  0  0  0  0  0  0  0  0  0  0
    0.7768   -2.9645   -0.1394 N   0  0  0  0  0  0  0  0  0  0  0  0
    0.4264    0.6315    1.3624 C   0  0  0  0  0  0  0  0  0  0  0  0
    1.5142    0.7248    1.3610 H   0  0  0  0  0  0  0  0  0  0  0  0
    0.0276    1.6787    1.3144 H   0  0  0  0  0  0  0  0  0  0  0  0
    0.0174    0.1967    2.2765 H   0  0  0  0  0  0  0  0  0  0  0  0
  1  6  1  0  0  0  0
  2  1  1  0  0  0  0
  3  1  1  0  0  0  0
  5  4  3  0  0  0  0
  6  9  1  0  0  0  0
  7  6  1  0  0  0  0
  8  6  1  0  0  0  0
M  RAD  1   1   2
M  END
