Coordinates from ORCA-job C2H5-N2+-scan-d09-169-n800
 OpenBabel09191813583D

  9  7  0  0  0  0  0  0  0  0999 V2000
    0.3062    1.9476    1.9210 C   0  0  0  0  0  0  0  0  0  0  0  0
    1.0779    1.7324    1.1816 H   0  0  0  0  0  0  0  0  0  0  0  0
   -0.4524    1.1892    2.1162 H   0  0  0  0  0  0  0  0  0  0  0  0
    0.3518   -9.3177   -4.5168 N   0  0  0  0  0  0  0  0  0  0  0  0
    0.3302  -10.2784   -5.0633 N   0  0  0  0  0  0  0  0  0  0  0  0
    0.3053    3.1445    2.6154 C   0  0  0  0  0  0  0  0  0  0  0  0
    1.0767    3.8937    2.4359 H   0  0  0  0  0  0  0  0  0  0  0  0
   -0.3436    3.0077    1.4734 H   0  0  0  0  0  0  0  0  0  0  0  0
   -0.4536    3.3505    3.3705 H   0  0  0  0  0  0  0  0  0  0  0  0
  1  3  1  0  0  0  0
  1  6  1  0  0  0  0
  2  1  1  0  0  0  0
  5  4  3  0  0  0  0
  6  9  1  0  0  0  0
  7  6  1  0  0  0  0
  8  6  1  0  0  0  0
M  RAD  1   1   2
M  END
