Coordinates from ORCA-job C2H5-N2+-scan-d09-169-n800
 OpenBabel09191813583D

  9  7  0  0  0  0  0  0  0  0999 V2000
    0.2904    0.2705    0.9313 C   0  0  0  0  0  0  0  0  0  0  0  0
    1.0376    0.0676    0.1638 H   0  0  0  0  0  0  0  0  0  0  0  0
   -0.4905   -0.4718    1.0981 H   0  0  0  0  0  0  0  0  0  0  0  0
    0.2950   -3.4090   -1.1840 N   0  0  0  0  0  0  0  0  0  0  0  0
    0.3132   -4.3794   -1.7127 N   0  0  0  0  0  0  0  0  0  0  0  0
    0.3417    1.4299    1.6846 C   0  0  0  0  0  0  0  0  0  0  0  0
    1.1363    2.1601    1.5304 H   0  0  0  0  0  0  0  0  0  0  0  0
   -0.3311    1.3820    0.5565 H   0  0  0  0  0  0  0  0  0  0  0  0
   -0.3942    1.6198    2.4661 H   0  0  0  0  0  0  0  0  0  0  0  0
  1  3  1  0  0  0  0
  1  6  1  0  0  0  0
  2  1  1  0  0  0  0
  5  4  3  0  0  0  0
  6  9  1  0  0  0  0
  7  6  1  0  0  0  0
  8  6  1  0  0  0  0
M  RAD  1   1   2
M  END
