Coordinates from ORCA-job C2H5-N2+-scan-d09-169-n800
 OpenBabel09191813583D

  9  7  0  0  0  0  0  0  0  0999 V2000
    0.3096    1.7529    1.8139 C   0  0  0  0  0  0  0  0  0  0  0  0
    1.0823    1.5375    1.0756 H   0  0  0  0  0  0  0  0  0  0  0  0
   -0.4479    0.9937    2.0099 H   0  0  0  0  0  0  0  0  0  0  0  0
    0.3373   -8.6338   -4.1434 N   0  0  0  0  0  0  0  0  0  0  0  0
    0.3293   -9.6019   -4.6769 N   0  0  0  0  0  0  0  0  0  0  0  0
    0.3062    2.9512    2.5059 C   0  0  0  0  0  0  0  0  0  0  0  0
    1.0766    3.7013    2.3255 H   0  0  0  0  0  0  0  0  0  0  0  0
   -0.3414    2.8112    1.3636 H   0  0  0  0  0  0  0  0  0  0  0  0
   -0.4537    3.1575    3.2598 H   0  0  0  0  0  0  0  0  0  0  0  0
  1  3  1  0  0  0  0
  1  6  1  0  0  0  0
  2  1  1  0  0  0  0
  5  4  3  0  0  0  0
  6  9  1  0  0  0  0
  7  6  1  0  0  0  0
  8  6  1  0  0  0  0
M  RAD  1   1   2
M  END
