Coordinates from ORCA-job C2H5-N2+-scan-d09-169-n800
 OpenBabel09191813583D

  9  7  0  0  0  0  0  0  0  0999 V2000
    0.3058    1.9747    1.9363 C   0  0  0  0  0  0  0  0  0  0  0  0
    1.0775    1.7595    1.1969 H   0  0  0  0  0  0  0  0  0  0  0  0
   -0.4528    1.2164    2.1316 H   0  0  0  0  0  0  0  0  0  0  0  0
    0.3541   -9.4138   -4.5683 N   0  0  0  0  0  0  0  0  0  0  0  0
    0.3300  -10.3725   -5.1182 N   0  0  0  0  0  0  0  0  0  0  0  0
    0.3051    3.1717    2.6306 C   0  0  0  0  0  0  0  0  0  0  0  0
    1.0765    3.9209    2.4509 H   0  0  0  0  0  0  0  0  0  0  0  0
   -0.3439    3.0349    1.4886 H   0  0  0  0  0  0  0  0  0  0  0  0
   -0.4538    3.3778    3.3857 H   0  0  0  0  0  0  0  0  0  0  0  0
  1  3  1  0  0  0  0
  1  6  1  0  0  0  0
  2  1  1  0  0  0  0
  5  4  3  0  0  0  0
  6  9  1  0  0  0  0
  7  6  1  0  0  0  0
  8  6  1  0  0  0  0
M  RAD  1   1   2
M  END
