Coordinates from ORCA-job C2H5-N2+-scan-d09-169-n800
 OpenBabel09191813583D

  9  8  0  0  0  0  0  0  0  0999 V2000
   -0.1068   -0.0740    0.0835 C   0  0  0  0  0  0  0  0  0  0  0  0
    0.2876    0.3082   -0.8620 H   0  0  0  0  0  0  0  0  0  0  0  0
   -1.1905   -0.2134    0.0420 H   0  0  0  0  0  0  0  0  0  0  0  0
    0.3894   -1.5945    0.0176 N   0  0  0  0  0  0  0  0  0  0  0  0
    0.7511   -2.6372    0.0075 N   0  0  0  0  0  0  0  0  0  0  0  0
    0.4337    0.5712    1.3394 C   0  0  0  0  0  0  0  0  0  0  0  0
    1.5244    0.6135    1.3478 H   0  0  0  0  0  0  0  0  0  0  0  0
    0.0538    1.6005    1.3121 H   0  0  0  0  0  0  0  0  0  0  0  0
    0.0557    0.0953    2.2461 H   0  0  0  0  0  0  0  0  0  0  0  0
  1  6  1  0  0  0  0
  2  1  1  0  0  0  0
  3  1  1  0  0  0  0
  4  1  1  0  0  0  0
  5  4  1  0  0  0  0
  6  7  1  0  0  0  0
  6  9  1  0  0  0  0
  8  6  1  0  0  0  0
M  RAD  2   4   2   5   3
M  END
