Coordinates from ORCA-job C2H5-N2+-scan-d09-169-n800
 OpenBabel09191813583D

  9  7  0  0  0  0  0  0  0  0999 V2000
    0.3239    1.4986    1.6916 C   0  0  0  0  0  0  0  0  0  0  0  0
    1.1049    1.2769    0.9640 H   0  0  0  0  0  0  0  0  0  0  0  0
   -0.4253    0.7342    1.8989 H   0  0  0  0  0  0  0  0  0  0  0  0
    0.3146   -7.7566   -3.6624 N   0  0  0  0  0  0  0  0  0  0  0  0
    0.3248   -8.7268   -4.1922 N   0  0  0  0  0  0  0  0  0  0  0  0
    0.2997    2.7120    2.3563 C   0  0  0  0  0  0  0  0  0  0  0  0
    1.0617    3.4678    2.1649 H   0  0  0  0  0  0  0  0  0  0  0  0
   -0.3373    2.5383    1.2130 H   0  0  0  0  0  0  0  0  0  0  0  0
   -0.4686    2.9251    3.0999 H   0  0  0  0  0  0  0  0  0  0  0  0
  1  3  1  0  0  0  0
  1  6  1  0  0  0  0
  2  1  1  0  0  0  0
  5  4  3  0  0  0  0
  6  9  1  0  0  0  0
  7  6  1  0  0  0  0
  8  6  1  0  0  0  0
M  RAD  1   1   2
M  END
