Coordinates from ORCA-job C2H5-N2+-scan-d09-169-n800
 OpenBabel09191813583D

  9  7  0  0  0  0  0  0  0  0999 V2000
    0.3095    1.7568    1.8160 C   0  0  0  0  0  0  0  0  0  0  0  0
    1.0822    1.5415    1.0776 H   0  0  0  0  0  0  0  0  0  0  0  0
   -0.4481    0.9977    2.0119 H   0  0  0  0  0  0  0  0  0  0  0  0
    0.3376   -8.6474   -4.1509 N   0  0  0  0  0  0  0  0  0  0  0  0
    0.3293   -9.6155   -4.6845 N   0  0  0  0  0  0  0  0  0  0  0  0
    0.3063    2.9550    2.5081 C   0  0  0  0  0  0  0  0  0  0  0  0
    1.0767    3.7051    2.3279 H   0  0  0  0  0  0  0  0  0  0  0  0
   -0.3414    2.8152    1.3658 H   0  0  0  0  0  0  0  0  0  0  0  0
   -0.4537    3.1613    3.2621 H   0  0  0  0  0  0  0  0  0  0  0  0
  1  3  1  0  0  0  0
  1  6  1  0  0  0  0
  2  1  1  0  0  0  0
  5  4  3  0  0  0  0
  6  9  1  0  0  0  0
  7  6  1  0  0  0  0
  8  6  1  0  0  0  0
M  RAD  1   1   2
M  END
