Coordinates from ORCA-job C2H5-N2+-scan-d09-169-n800
 OpenBabel09191813583D

  9  7  0  0  0  0  0  0  0  0999 V2000
   -0.0870    0.4050    0.3922 C   0  0  0  0  0  0  0  0  0  0  0  0
    0.4483    0.4947   -0.5529 H   0  0  0  0  0  0  0  0  0  0  0  0
   -1.0799   -0.0444    0.3817 H   0  0  0  0  0  0  0  0  0  0  0  0
    0.5242   -2.8288   -0.4740 N   0  0  0  0  0  0  0  0  0  0  0  0
    0.7232   -3.8790   -0.7547 N   0  0  0  0  0  0  0  0  0  0  0  0
    0.4785    0.8512    1.5743 C   0  0  0  0  0  0  0  0  0  0  0  0
    1.4822    1.2760    1.5857 H   0  0  0  0  0  0  0  0  0  0  0  0
   -0.2431    1.6587    0.8601 H   0  0  0  0  0  0  0  0  0  0  0  0
   -0.0481    0.7362    2.5216 H   0  0  0  0  0  0  0  0  0  0  0  0
  1  6  1  0  0  0  0
  2  1  1  0  0  0  0
  3  1  1  0  0  0  0
  5  4  3  0  0  0  0
  6  7  1  0  0  0  0
  6  9  1  0  0  0  0
  8  6  1  0  0  0  0
M  RAD  1   1   2
M  END
