Coordinates from ORCA-job C2H5-N2+-scan-d09-169-n800
 OpenBabel09191813583D

  9  7  0  0  0  0  0  0  0  0999 V2000
   -0.0843    0.4298    0.4109 C   0  0  0  0  0  0  0  0  0  0  0  0
    0.4555    0.5102   -0.5325 H   0  0  0  0  0  0  0  0  0  0  0  0
   -1.0729   -0.0290    0.4022 H   0  0  0  0  0  0  0  0  0  0  0  0
    0.5327   -2.9328   -0.5202 N   0  0  0  0  0  0  0  0  0  0  0  0
    0.7253   -3.9817   -0.8105 N   0  0  0  0  0  0  0  0  0  0  0  0
    0.4759    0.8876    1.5910 C   0  0  0  0  0  0  0  0  0  0  0  0
    1.4753    1.3225    1.6012 H   0  0  0  0  0  0  0  0  0  0  0  0
   -0.2540    1.6805    0.8548 H   0  0  0  0  0  0  0  0  0  0  0  0
   -0.0550    0.7826    2.5371 H   0  0  0  0  0  0  0  0  0  0  0  0
  1  6  1  0  0  0  0
  2  1  1  0  0  0  0
  3  1  1  0  0  0  0
  5  4  3  0  0  0  0
  6  7  1  0  0  0  0
  6  9  1  0  0  0  0
  8  6  1  0  0  0  0
M  RAD  1   1   2
M  END
