Coordinates from ORCA-job C2H5-N2+-scan-d09-169-n800
 OpenBabel09191813583D

  9  7  0  0  0  0  0  0  0  0999 V2000
    0.2994    2.3398    2.1394 C   0  0  0  0  0  0  0  0  0  0  0  0
    1.0691    2.1233    1.3983 H   0  0  0  0  0  0  0  0  0  0  0  0
   -0.4611    1.5835    2.3351 H   0  0  0  0  0  0  0  0  0  0  0  0
    0.3728  -10.7043   -5.2616 N   0  0  0  0  0  0  0  0  0  0  0  0
    0.3394  -11.6374   -5.8535 N   0  0  0  0  0  0  0  0  0  0  0  0
    0.3035    3.5359    2.8352 C   0  0  0  0  0  0  0  0  0  0  0  0
    1.0767    4.2831    2.6550 H   0  0  0  0  0  0  0  0  0  0  0  0
   -0.3480    3.4024    1.6942 H   0  0  0  0  0  0  0  0  0  0  0  0
   -0.4535    3.7433    3.5919 H   0  0  0  0  0  0  0  0  0  0  0  0
  1  3  1  0  0  0  0
  1  6  1  0  0  0  0
  2  1  1  0  0  0  0
  5  4  3  0  0  0  0
  6  9  1  0  0  0  0
  7  6  1  0  0  0  0
  8  6  1  0  0  0  0
M  RAD  1   1   2
M  END
