Coordinates from ORCA-job C2H5-N2+-scan-d09-169-n800
 OpenBabel09191813583D

  9  7  0  0  0  0  0  0  0  0999 V2000
    0.3048    2.0790    1.9963 C   0  0  0  0  0  0  0  0  0  0  0  0
    1.0766    1.8625    1.2573 H   0  0  0  0  0  0  0  0  0  0  0  0
   -0.4536    1.3209    2.1930 H   0  0  0  0  0  0  0  0  0  0  0  0
    0.3625   -9.7862   -4.7639 N   0  0  0  0  0  0  0  0  0  0  0  0
    0.3293  -10.7330   -5.3335 N   0  0  0  0  0  0  0  0  0  0  0  0
    0.3039    3.2773    2.6882 C   0  0  0  0  0  0  0  0  0  0  0  0
    1.0751    4.0263    2.5072 H   0  0  0  0  0  0  0  0  0  0  0  0
   -0.3450    3.1382    1.5465 H   0  0  0  0  0  0  0  0  0  0  0  0
   -0.4551    3.4847    3.4429 H   0  0  0  0  0  0  0  0  0  0  0  0
  1  3  1  0  0  0  0
  1  6  1  0  0  0  0
  2  1  1  0  0  0  0
  5  4  3  0  0  0  0
  6  9  1  0  0  0  0
  7  6  1  0  0  0  0
  8  6  1  0  0  0  0
M  RAD  1   1   2
M  END
