Coordinates from ORCA-job C2H5-N2+-scan-d09-169-n800
 OpenBabel09191813583D

  9  7  0  0  0  0  0  0  0  0999 V2000
    0.3000    2.3009    2.1179 C   0  0  0  0  0  0  0  0  0  0  0  0
    1.0698    2.0843    1.3770 H   0  0  0  0  0  0  0  0  0  0  0  0
   -0.4603    1.5445    2.3138 H   0  0  0  0  0  0  0  0  0  0  0  0
    0.3715  -10.5680   -5.1861 N   0  0  0  0  0  0  0  0  0  0  0  0
    0.3379  -11.5017   -5.7770 N   0  0  0  0  0  0  0  0  0  0  0  0
    0.3037    3.4973    2.8133 C   0  0  0  0  0  0  0  0  0  0  0  0
    1.0768    4.2445    2.6330 H   0  0  0  0  0  0  0  0  0  0  0  0
   -0.3476    3.3632    1.6723 H   0  0  0  0  0  0  0  0  0  0  0  0
   -0.4534    3.7047    3.5698 H   0  0  0  0  0  0  0  0  0  0  0  0
  1  3  1  0  0  0  0
  1  6  1  0  0  0  0
  2  1  1  0  0  0  0
  5  4  3  0  0  0  0
  6  9  1  0  0  0  0
  7  6  1  0  0  0  0
  8  6  1  0  0  0  0
M  RAD  1   1   2
M  END
