Coordinates from ORCA-job C2H5-N2+-scan-d09-169-n800
 OpenBabel09191813583D

  9  7  0  0  0  0  0  0  0  0999 V2000
    0.3240    1.5372    1.7140 C   0  0  0  0  0  0  0  0  0  0  0  0
    1.1053    1.3153    0.9868 H   0  0  0  0  0  0  0  0  0  0  0  0
   -0.4249    0.7726    1.9217 H   0  0  0  0  0  0  0  0  0  0  0  0
    0.3158   -7.8921   -3.7389 N   0  0  0  0  0  0  0  0  0  0  0  0
    0.3258   -8.8624   -4.2685 N   0  0  0  0  0  0  0  0  0  0  0  0
    0.2990    2.7511    2.3777 C   0  0  0  0  0  0  0  0  0  0  0  0
    1.0607    3.5072    2.1859 H   0  0  0  0  0  0  0  0  0  0  0  0
   -0.3376    2.5762    1.2343 H   0  0  0  0  0  0  0  0  0  0  0  0
   -0.4696    2.9644    3.1210 H   0  0  0  0  0  0  0  0  0  0  0  0
  1  3  1  0  0  0  0
  1  6  1  0  0  0  0
  2  1  1  0  0  0  0
  5  4  3  0  0  0  0
  6  9  1  0  0  0  0
  7  6  1  0  0  0  0
  8  6  1  0  0  0  0
M  RAD  1   1   2
M  END
