Coordinates from ORCA-job C2H5-N2+-scan-d09-169-n800
 OpenBabel09191813583D

  9  7  0  0  0  0  0  0  0  0999 V2000
    0.3073    1.8583    1.8710 C   0  0  0  0  0  0  0  0  0  0  0  0
    1.0791    1.6435    1.1316 H   0  0  0  0  0  0  0  0  0  0  0  0
   -0.4512    1.0998    2.0659 H   0  0  0  0  0  0  0  0  0  0  0  0
    0.3451   -9.0028   -4.3458 N   0  0  0  0  0  0  0  0  0  0  0  0
    0.3302   -9.9681   -4.8844 N   0  0  0  0  0  0  0  0  0  0  0  0
    0.3062    3.0551    2.5656 C   0  0  0  0  0  0  0  0  0  0  0  0
    1.0774    3.8045    2.3862 H   0  0  0  0  0  0  0  0  0  0  0  0
   -0.3426    2.9185    1.4235 H   0  0  0  0  0  0  0  0  0  0  0  0
   -0.4529    3.2608    3.3206 H   0  0  0  0  0  0  0  0  0  0  0  0
  1  3  1  0  0  0  0
  1  6  1  0  0  0  0
  2  1  1  0  0  0  0
  5  4  3  0  0  0  0
  6  9  1  0  0  0  0
  7  6  1  0  0  0  0
  8  6  1  0  0  0  0
M  RAD  1   1   2
M  END
