Coordinates from ORCA-job C2H5-N2+-scan-d09-169-n800
 OpenBabel09191813583D

  9  7  0  0  0  0  0  0  0  0999 V2000
    0.2993    2.3437    2.1415 C   0  0  0  0  0  0  0  0  0  0  0  0
    1.0690    2.1272    1.4003 H   0  0  0  0  0  0  0  0  0  0  0  0
   -0.4612    1.5874    2.3372 H   0  0  0  0  0  0  0  0  0  0  0  0
    0.3730  -10.7178   -5.2693 N   0  0  0  0  0  0  0  0  0  0  0  0
    0.3396  -11.6511   -5.8610 N   0  0  0  0  0  0  0  0  0  0  0  0
    0.3035    3.5398    2.8374 C   0  0  0  0  0  0  0  0  0  0  0  0
    1.0767    4.2869    2.6573 H   0  0  0  0  0  0  0  0  0  0  0  0
   -0.3481    3.4064    1.6964 H   0  0  0  0  0  0  0  0  0  0  0  0
   -0.4534    3.7471    3.5942 H   0  0  0  0  0  0  0  0  0  0  0  0
  1  3  1  0  0  0  0
  1  6  1  0  0  0  0
  2  1  1  0  0  0  0
  5  4  3  0  0  0  0
  6  9  1  0  0  0  0
  7  6  1  0  0  0  0
  8  6  1  0  0  0  0
M  RAD  1   1   2
M  END
