Coordinates from ORCA-job C2H5-N2+-scan-d09-169-n800
 OpenBabel09191813583D

  9  7  0  0  0  0  0  0  0  0999 V2000
    0.2936    0.3075    0.9575 C   0  0  0  0  0  0  0  0  0  0  0  0
    1.0438    0.1035    0.1931 H   0  0  0  0  0  0  0  0  0  0  0  0
   -0.4849   -0.4365    1.1276 H   0  0  0  0  0  0  0  0  0  0  0  0
    0.2943   -3.5430   -1.2621 N   0  0  0  0  0  0  0  0  0  0  0  0
    0.3115   -4.5129   -1.7918 N   0  0  0  0  0  0  0  0  0  0  0  0
    0.3392    1.4712    1.7046 C   0  0  0  0  0  0  0  0  0  0  0  0
    1.1312    2.2037    1.5476 H   0  0  0  0  0  0  0  0  0  0  0  0
   -0.3312    1.4132    0.5744 H   0  0  0  0  0  0  0  0  0  0  0  0
   -0.3992    1.6630    2.4832 H   0  0  0  0  0  0  0  0  0  0  0  0
  1  3  1  0  0  0  0
  1  6  1  0  0  0  0
  2  1  1  0  0  0  0
  5  4  3  0  0  0  0
  6  9  1  0  0  0  0
  7  6  1  0  0  0  0
  8  6  1  0  0  0  0
M  RAD  1   1   2
M  END
