Coordinates from ORCA-job C2H5-N2+-scan-d09-169-n800
 OpenBabel09191813583D

  9  7  0  0  0  0  0  0  0  0999 V2000
    0.3236    1.4059    1.6378 C   0  0  0  0  0  0  0  0  0  0  0  0
    1.1038    1.1847    0.9091 H   0  0  0  0  0  0  0  0  0  0  0  0
   -0.4264    0.6421    1.8441 H   0  0  0  0  0  0  0  0  0  0  0  0
    0.3119   -7.4314   -3.4787 N   0  0  0  0  0  0  0  0  0  0  0  0
    0.3225   -8.4012   -4.0091 N   0  0  0  0  0  0  0  0  0  0  0  0
    0.3014    2.6181    2.3049 C   0  0  0  0  0  0  0  0  0  0  0  0
    1.0643    3.3733    2.1145 H   0  0  0  0  0  0  0  0  0  0  0  0
   -0.3366    2.4475    1.1617 H   0  0  0  0  0  0  0  0  0  0  0  0
   -0.4660    2.8306    3.0496 H   0  0  0  0  0  0  0  0  0  0  0  0
  1  3  1  0  0  0  0
  1  6  1  0  0  0  0
  2  1  1  0  0  0  0
  5  4  3  0  0  0  0
  6  9  1  0  0  0  0
  7  6  1  0  0  0  0
  8  6  1  0  0  0  0
M  RAD  1   1   2
M  END
