Coordinates from ORCA-job C2H5-N2+-scan-d09-169-n800
 OpenBabel09191813583D

  9  7  0  0  0  0  0  0  0  0999 V2000
    0.3006    2.2619    2.0965 C   0  0  0  0  0  0  0  0  0  0  0  0
    1.0707    2.0452    1.3558 H   0  0  0  0  0  0  0  0  0  0  0  0
   -0.4595    1.5054    2.2926 H   0  0  0  0  0  0  0  0  0  0  0  0
    0.3702  -10.4317   -5.1105 N   0  0  0  0  0  0  0  0  0  0  0  0
    0.3363  -11.3660   -5.7005 N   0  0  0  0  0  0  0  0  0  0  0  0
    0.3039    3.4586    2.7913 C   0  0  0  0  0  0  0  0  0  0  0  0
    1.0768    4.2060    2.6108 H   0  0  0  0  0  0  0  0  0  0  0  0
   -0.3472    3.3238    1.6503 H   0  0  0  0  0  0  0  0  0  0  0  0
   -0.4534    3.6662    3.5476 H   0  0  0  0  0  0  0  0  0  0  0  0
  1  3  1  0  0  0  0
  1  6  1  0  0  0  0
  2  1  1  0  0  0  0
  5  4  3  0  0  0  0
  6  9  1  0  0  0  0
  7  6  1  0  0  0  0
  8  6  1  0  0  0  0
M  RAD  1   1   2
M  END
