Coordinates from ORCA-job C2H5-N2+-scan-d09-169-n800
 OpenBabel09191813583D

  9  7  0  0  0  0  0  0  0  0999 V2000
    0.3068    0.5173    1.0989 C   0  0  0  0  0  0  0  0  0  0  0  0
    1.0686    0.3072    0.3479 H   0  0  0  0  0  0  0  0  0  0  0  0
   -0.4612   -0.2343    1.2828 H   0  0  0  0  0  0  0  0  0  0  0  0
    0.2935   -4.2953   -1.6970 N   0  0  0  0  0  0  0  0  0  0  0  0
    0.3076   -5.2638   -2.2296 N   0  0  0  0  0  0  0  0  0  0  0  0
    0.3277    1.6994    1.8178 C   0  0  0  0  0  0  0  0  0  0  0  0
    1.1087    2.4410    1.6486 H   0  0  0  0  0  0  0  0  0  0  0  0
   -0.3316    1.5989    0.6807 H   0  0  0  0  0  0  0  0  0  0  0  0
   -0.4217    1.8993    2.5839 H   0  0  0  0  0  0  0  0  0  0  0  0
  1  3  1  0  0  0  0
  1  6  1  0  0  0  0
  2  1  1  0  0  0  0
  5  4  3  0  0  0  0
  6  9  1  0  0  0  0
  7  6  1  0  0  0  0
  8  6  1  0  0  0  0
M  RAD  1   1   2
M  END
