Coordinates from ORCA-job C2H5-N2+-scan-d09-169-n800
 OpenBabel09191813583D

  9  7  0  0  0  0  0  0  0  0999 V2000
   -0.0898    0.3172    0.3370 C   0  0  0  0  0  0  0  0  0  0  0  0
    0.4315    0.4405   -0.6117 H   0  0  0  0  0  0  0  0  0  0  0  0
   -1.0968   -0.0986    0.3230 H   0  0  0  0  0  0  0  0  0  0  0  0
    0.4964   -2.5266   -0.3451 N   0  0  0  0  0  0  0  0  0  0  0  0
    0.7155   -3.5804   -0.5951 N   0  0  0  0  0  0  0  0  0  0  0  0
    0.4787    0.7590    1.5214 C   0  0  0  0  0  0  0  0  0  0  0  0
    1.4974    1.1451    1.5360 H   0  0  0  0  0  0  0  0  0  0  0  0
   -0.2025    1.6078    0.8971 H   0  0  0  0  0  0  0  0  0  0  0  0
   -0.0321    0.6056    2.4715 H   0  0  0  0  0  0  0  0  0  0  0  0
  1  6  1  0  0  0  0
  2  1  1  0  0  0  0
  3  1  1  0  0  0  0
  5  4  3  0  0  0  0
  6  7  1  0  0  0  0
  6  9  1  0  0  0  0
  8  6  1  0  0  0  0
M  RAD  1   1   2
M  END
