Coordinates from ORCA-job C2H5-N2+-scan-d09-169-n800
 OpenBabel09191813583D

  9  7  0  0  0  0  0  0  0  0999 V2000
    0.3080    1.8155    1.8474 C   0  0  0  0  0  0  0  0  0  0  0  0
    1.0801    1.6005    1.1083 H   0  0  0  0  0  0  0  0  0  0  0  0
   -0.4502    1.0568    2.0425 H   0  0  0  0  0  0  0  0  0  0  0  0
    0.3419   -8.8525   -4.2634 N   0  0  0  0  0  0  0  0  0  0  0  0
    0.3299   -9.8191   -4.7996 N   0  0  0  0  0  0  0  0  0  0  0  0
    0.3063    3.0126    2.5414 C   0  0  0  0  0  0  0  0  0  0  0  0
    1.0774    3.7622    2.3619 H   0  0  0  0  0  0  0  0  0  0  0  0
   -0.3421    2.8752    1.3993 H   0  0  0  0  0  0  0  0  0  0  0  0
   -0.4530    3.2184    3.2962 H   0  0  0  0  0  0  0  0  0  0  0  0
  1  3  1  0  0  0  0
  1  6  1  0  0  0  0
  2  1  1  0  0  0  0
  5  4  3  0  0  0  0
  6  9  1  0  0  0  0
  7  6  1  0  0  0  0
  8  6  1  0  0  0  0
M  RAD  1   1   2
M  END
