Coordinates from ORCA-job C2H5-N2+-scan-d09-169-n800
 OpenBabel09191813583D

  9  8  0  0  0  0  0  0  0  0999 V2000
   -0.1328    0.0363    0.1046 C   0  0  0  0  0  0  0  0  0  0  0  0
    0.3018    0.3303   -0.8512 H   0  0  0  0  0  0  0  0  0  0  0  0
   -1.1969   -0.1985    0.0654 H   0  0  0  0  0  0  0  0  0  0  0  0
    0.4230   -1.7364   -0.0094 N   0  0  0  0  0  0  0  0  0  0  0  0
    0.7689   -2.7836   -0.0479 N   0  0  0  0  0  0  0  0  0  0  0  0
    0.4293    0.5962    1.3466 C   0  0  0  0  0  0  0  0  0  0  0  0
    1.5191    0.6560    1.3486 H   0  0  0  0  0  0  0  0  0  0  0  0
    0.0479    1.6361    1.3229 H   0  0  0  0  0  0  0  0  0  0  0  0
    0.0380    0.1334    2.2544 H   0  0  0  0  0  0  0  0  0  0  0  0
  1  6  1  0  0  0  0
  2  1  1  0  0  0  0
  3  1  1  0  0  0  0
  4  1  1  0  0  0  0
  5  4  1  0  0  0  0
  6  7  1  0  0  0  0
  6  9  1  0  0  0  0
  8  6  1  0  0  0  0
M  RAD  2   4   2   5   3
M  END
