Coordinates from ORCA-job C2H5-N2+-scan-d09-169-n800
 OpenBabel09191813583D

  9  7  0  0  0  0  0  0  0  0999 V2000
    0.3164    0.7947    1.2741 C   0  0  0  0  0  0  0  0  0  0  0  0
    1.0872    0.5792    0.5339 H   0  0  0  0  0  0  0  0  0  0  0  0
   -0.4429    0.0371    1.4689 H   0  0  0  0  0  0  0  0  0  0  0  0
    0.2970   -5.2798   -2.2597 N   0  0  0  0  0  0  0  0  0  0  0  0
    0.3094   -6.2481   -2.7928 N   0  0  0  0  0  0  0  0  0  0  0  0
    0.3167    1.9916    1.9685 C   0  0  0  0  0  0  0  0  0  0  0  0
    1.0889    2.7400    1.7891 H   0  0  0  0  0  0  0  0  0  0  0  0
   -0.3327    1.8570    0.8277 H   0  0  0  0  0  0  0  0  0  0  0  0
   -0.4415    2.1978    2.7243 H   0  0  0  0  0  0  0  0  0  0  0  0
  1  3  1  0  0  0  0
  1  6  1  0  0  0  0
  2  1  1  0  0  0  0
  5  4  3  0  0  0  0
  6  9  1  0  0  0  0
  7  6  1  0  0  0  0
  8  6  1  0  0  0  0
M  RAD  1   1   2
M  END
