Coordinates from ORCA-job C2H5-N2+-scan-d09-169-n800
 OpenBabel09191813583D

  9  7  0  0  0  0  0  0  0  0999 V2000
    0.2968    2.5266    2.2426 C   0  0  0  0  0  0  0  0  0  0  0  0
    1.0660    2.3106    1.5008 H   0  0  0  0  0  0  0  0  0  0  0  0
   -0.4641    1.7705    2.4375 H   0  0  0  0  0  0  0  0  0  0  0  0
    0.3804  -11.3575   -5.6256 N   0  0  0  0  0  0  0  0  0  0  0  0
    0.3456  -12.2894   -6.2193 N   0  0  0  0  0  0  0  0  0  0  0  0
    0.3021    3.7216    2.9402 C   0  0  0  0  0  0  0  0  0  0  0  0
    1.0758    4.4685    2.7609 H   0  0  0  0  0  0  0  0  0  0  0  0
   -0.3500    3.5903    1.7993 H   0  0  0  0  0  0  0  0  0  0  0  0
   -0.4543    3.9284    3.6976 H   0  0  0  0  0  0  0  0  0  0  0  0
  1  3  1  0  0  0  0
  1  6  1  0  0  0  0
  2  1  1  0  0  0  0
  5  4  3  0  0  0  0
  6  9  1  0  0  0  0
  7  6  1  0  0  0  0
  8  6  1  0  0  0  0
M  RAD  1   1   2
M  END
