Coordinates from ORCA-job C2H5-N2+-scan-d09-169-n800
 OpenBabel09191813583D

  9  7  0  0  0  0  0  0  0  0999 V2000
    0.3074    1.8466    1.8645 C   0  0  0  0  0  0  0  0  0  0  0  0
    1.0793    1.6318    1.1251 H   0  0  0  0  0  0  0  0  0  0  0  0
   -0.4510    1.0881    2.0594 H   0  0  0  0  0  0  0  0  0  0  0  0
    0.3442   -8.9618   -4.3233 N   0  0  0  0  0  0  0  0  0  0  0  0
    0.3301   -9.9275   -4.8613 N   0  0  0  0  0  0  0  0  0  0  0  0
    0.3062    3.0435    2.5590 C   0  0  0  0  0  0  0  0  0  0  0  0
    1.0774    3.7929    2.3796 H   0  0  0  0  0  0  0  0  0  0  0  0
   -0.3425    2.9067    1.4169 H   0  0  0  0  0  0  0  0  0  0  0  0
   -0.4529    3.2492    3.3140 H   0  0  0  0  0  0  0  0  0  0  0  0
  1  3  1  0  0  0  0
  1  6  1  0  0  0  0
  2  1  1  0  0  0  0
  5  4  3  0  0  0  0
  6  9  1  0  0  0  0
  7  6  1  0  0  0  0
  8  6  1  0  0  0  0
M  RAD  1   1   2
M  END
