Coordinates from ORCA-job C2H5-N2+-scan-d09-169-n800
 OpenBabel09191813583D

  9  7  0  0  0  0  0  0  0  0999 V2000
    0.3237    1.4214    1.6468 C   0  0  0  0  0  0  0  0  0  0  0  0
    1.1040    1.2001    0.9183 H   0  0  0  0  0  0  0  0  0  0  0  0
   -0.4262    0.6574    1.8533 H   0  0  0  0  0  0  0  0  0  0  0  0
    0.3124   -7.4856   -3.5093 N   0  0  0  0  0  0  0  0  0  0  0  0
    0.3229   -8.4555   -4.0396 N   0  0  0  0  0  0  0  0  0  0  0  0
    0.3011    2.6337    2.3135 C   0  0  0  0  0  0  0  0  0  0  0  0
    1.0638    3.3890    2.1229 H   0  0  0  0  0  0  0  0  0  0  0  0
   -0.3368    2.4626    1.1703 H   0  0  0  0  0  0  0  0  0  0  0  0
   -0.4664    2.8464    3.0579 H   0  0  0  0  0  0  0  0  0  0  0  0
  1  3  1  0  0  0  0
  1  6  1  0  0  0  0
  2  1  1  0  0  0  0
  5  4  3  0  0  0  0
  6  9  1  0  0  0  0
  7  6  1  0  0  0  0
  8  6  1  0  0  0  0
M  RAD  1   1   2
M  END
