Coordinates from ORCA-job C2H5-N2+-scan-d09-169-n800
 OpenBabel09191813583D

  9  7  0  0  0  0  0  0  0  0999 V2000
    0.3151    0.7451    1.2435 C   0  0  0  0  0  0  0  0  0  0  0  0
    1.0847    0.5303    0.5017 H   0  0  0  0  0  0  0  0  0  0  0  0
   -0.4454   -0.0117    1.4367 H   0  0  0  0  0  0  0  0  0  0  0  0
    0.2961   -5.1042   -2.1597 N   0  0  0  0  0  0  0  0  0  0  0  0
    0.3087   -6.0725   -2.6929 N   0  0  0  0  0  0  0  0  0  0  0  0
    0.3184    1.9399    1.9414 C   0  0  0  0  0  0  0  0  0  0  0  0
    1.0918    2.6873    1.7635 H   0  0  0  0  0  0  0  0  0  0  0  0
   -0.3325    1.8102    0.8011 H   0  0  0  0  0  0  0  0  0  0  0  0
   -0.4385    2.1452    2.6987 H   0  0  0  0  0  0  0  0  0  0  0  0
  1  3  1  0  0  0  0
  1  6  1  0  0  0  0
  2  1  1  0  0  0  0
  5  4  3  0  0  0  0
  6  9  1  0  0  0  0
  7  6  1  0  0  0  0
  8  6  1  0  0  0  0
M  RAD  1   1   2
M  END
