Coordinates from ORCA-job C2H5-N2+-scan-d09-169-n800
 OpenBabel09191813583D

  9  7  0  0  0  0  0  0  0  0999 V2000
    0.2946    2.6823    2.3285 C   0  0  0  0  0  0  0  0  0  0  0  0
    1.0633    2.4668    1.5860 H   0  0  0  0  0  0  0  0  0  0  0  0
   -0.4668    1.9265    2.5226 H   0  0  0  0  0  0  0  0  0  0  0  0
    0.3870  -11.9018   -5.9291 N   0  0  0  0  0  0  0  0  0  0  0  0
    0.3505  -12.8328   -6.5240 N   0  0  0  0  0  0  0  0  0  0  0  0
    0.3010    3.8763    3.0279 C   0  0  0  0  0  0  0  0  0  0  0  0
    1.0752    4.6228    2.8493 H   0  0  0  0  0  0  0  0  0  0  0  0
   -0.3516    3.7471    1.8870 H   0  0  0  0  0  0  0  0  0  0  0  0
   -0.4549    4.0825    3.7859 H   0  0  0  0  0  0  0  0  0  0  0  0
  1  3  1  0  0  0  0
  1  6  1  0  0  0  0
  2  1  1  0  0  0  0
  5  4  3  0  0  0  0
  6  9  1  0  0  0  0
  7  6  1  0  0  0  0
  8  6  1  0  0  0  0
M  RAD  1   1   2
M  END
