Coordinates from ORCA-job C2H5-N2+-scan-d09-169-n800
 OpenBabel09191813583D

  9  7  0  0  0  0  0  0  0  0999 V2000
    0.3237    1.4252    1.6491 C   0  0  0  0  0  0  0  0  0  0  0  0
    1.1040    1.2039    0.9206 H   0  0  0  0  0  0  0  0  0  0  0  0
   -0.4262    0.6613    1.8556 H   0  0  0  0  0  0  0  0  0  0  0  0
    0.3125   -7.4991   -3.5170 N   0  0  0  0  0  0  0  0  0  0  0  0
    0.3229   -8.4691   -4.0473 N   0  0  0  0  0  0  0  0  0  0  0  0
    0.3010    2.6377    2.3156 C   0  0  0  0  0  0  0  0  0  0  0  0
    1.0637    3.3930    2.1250 H   0  0  0  0  0  0  0  0  0  0  0  0
   -0.3368    2.4664    1.1724 H   0  0  0  0  0  0  0  0  0  0  0  0
   -0.4666    2.8503    3.0600 H   0  0  0  0  0  0  0  0  0  0  0  0
  1  3  1  0  0  0  0
  1  6  1  0  0  0  0
  2  1  1  0  0  0  0
  5  4  3  0  0  0  0
  6  9  1  0  0  0  0
  7  6  1  0  0  0  0
  8  6  1  0  0  0  0
M  RAD  1   1   2
M  END
