Coordinates from ORCA-job C2H5-N2+-scan-d09-169-n800
 OpenBabel09191813583D

  9  7  0  0  0  0  0  0  0  0999 V2000
    0.2958    2.6121    2.2901 C   0  0  0  0  0  0  0  0  0  0  0  0
    1.0649    2.3964    1.5481 H   0  0  0  0  0  0  0  0  0  0  0  0
   -0.4653    1.8561    2.4847 H   0  0  0  0  0  0  0  0  0  0  0  0
    0.3843  -11.6569   -5.7924 N   0  0  0  0  0  0  0  0  0  0  0  0
    0.3479  -12.5881   -6.3870 N   0  0  0  0  0  0  0  0  0  0  0  0
    0.3014    3.8068    2.9883 C   0  0  0  0  0  0  0  0  0  0  0  0
    1.0752    4.5536    2.8092 H   0  0  0  0  0  0  0  0  0  0  0  0
   -0.3509    3.6762    1.8474 H   0  0  0  0  0  0  0  0  0  0  0  0
   -0.4550    4.0134    3.7458 H   0  0  0  0  0  0  0  0  0  0  0  0
  1  3  1  0  0  0  0
  1  6  1  0  0  0  0
  2  1  1  0  0  0  0
  5  4  3  0  0  0  0
  6  9  1  0  0  0  0
  7  6  1  0  0  0  0
  8  6  1  0  0  0  0
M  RAD  1   1   2
M  END
