Coordinates from ORCA-job C2H5-N2+-scan-d09-169-n800
 OpenBabel09191813583D

  9  7  0  0  0  0  0  0  0  0999 V2000
    0.2954    2.6432    2.3074 C   0  0  0  0  0  0  0  0  0  0  0  0
    1.0645    2.4275    1.5654 H   0  0  0  0  0  0  0  0  0  0  0  0
   -0.4656    1.8872    2.5019 H   0  0  0  0  0  0  0  0  0  0  0  0
    0.3855  -11.7657   -5.8531 N   0  0  0  0  0  0  0  0  0  0  0  0
    0.3490  -12.6968   -6.4480 N   0  0  0  0  0  0  0  0  0  0  0  0
    0.3011    3.8378    3.0057 C   0  0  0  0  0  0  0  0  0  0  0  0
    1.0749    4.5846    2.8267 H   0  0  0  0  0  0  0  0  0  0  0  0
   -0.3512    3.7073    1.8648 H   0  0  0  0  0  0  0  0  0  0  0  0
   -0.4552    4.0443    3.7633 H   0  0  0  0  0  0  0  0  0  0  0  0
  1  3  1  0  0  0  0
  1  6  1  0  0  0  0
  2  1  1  0  0  0  0
  5  4  3  0  0  0  0
  6  9  1  0  0  0  0
  7  6  1  0  0  0  0
  8  6  1  0  0  0  0
M  RAD  1   1   2
M  END
