Coordinates from ORCA-job C2H5-N2+-scan-d09-169-n800
 OpenBabel09191813583D

  9  7  0  0  0  0  0  0  0  0999 V2000
    0.3217    1.1131    1.4660 C   0  0  0  0  0  0  0  0  0  0  0  0
    1.0984    0.8939    0.7330 H   0  0  0  0  0  0  0  0  0  0  0  0
   -0.4317    0.3514    1.6680 H   0  0  0  0  0  0  0  0  0  0  0  0
    0.3040   -6.4022   -2.8967 N   0  0  0  0  0  0  0  0  0  0  0  0
    0.3154   -7.3711   -3.4286 N   0  0  0  0  0  0  0  0  0  0  0  0
    0.3077    2.3197    2.1431 C   0  0  0  0  0  0  0  0  0  0  0  0
    1.0739    3.0725    1.9567 H   0  0  0  0  0  0  0  0  0  0  0  0
   -0.3346    2.1622    1.0006 H   0  0  0  0  0  0  0  0  0  0  0  0
   -0.4564    2.5300    2.8918 H   0  0  0  0  0  0  0  0  0  0  0  0
  1  3  1  0  0  0  0
  1  6  1  0  0  0  0
  2  1  1  0  0  0  0
  5  4  3  0  0  0  0
  6  9  1  0  0  0  0
  7  6  1  0  0  0  0
  8  6  1  0  0  0  0
M  RAD  1   1   2
M  END
