Coordinates from ORCA-job C2H5-N2+-scan-d09-169-n800
 OpenBabel09191813583D

  9  7  0  0  0  0  0  0  0  0999 V2000
    0.3226    1.2132    1.5250 C   0  0  0  0  0  0  0  0  0  0  0  0
    1.1006    0.9932    0.7938 H   0  0  0  0  0  0  0  0  0  0  0  0
   -0.4295    0.4507    1.7287 H   0  0  0  0  0  0  0  0  0  0  0  0
    0.3066   -6.7541   -3.0959 N   0  0  0  0  0  0  0  0  0  0  0  0
    0.3177   -7.7234   -3.6273 N   0  0  0  0  0  0  0  0  0  0  0  0
    0.3054    2.4220    2.1983 C   0  0  0  0  0  0  0  0  0  0  0  0
    1.0703    3.1757    2.0104 H   0  0  0  0  0  0  0  0  0  0  0  0
   -0.3353    2.2594    1.0555 H   0  0  0  0  0  0  0  0  0  0  0  0
   -0.4600    2.6331    2.9455 H   0  0  0  0  0  0  0  0  0  0  0  0
  1  3  1  0  0  0  0
  1  6  1  0  0  0  0
  2  1  1  0  0  0  0
  5  4  3  0  0  0  0
  6  9  1  0  0  0  0
  7  6  1  0  0  0  0
  8  6  1  0  0  0  0
M  RAD  1   1   2
M  END
