Coordinates from ORCA-job C2H5-N2+-scan-d09-169-n800
 OpenBabel09191813583D

  9  7  0  0  0  0  0  0  0  0999 V2000
   -0.0906    0.3359    0.3465 C   0  0  0  0  0  0  0  0  0  0  0  0
    0.4323    0.4519   -0.6026 H   0  0  0  0  0  0  0  0  0  0  0  0
   -1.0949   -0.0869    0.3315 H   0  0  0  0  0  0  0  0  0  0  0  0
    0.5021   -2.5827   -0.3681 N   0  0  0  0  0  0  0  0  0  0  0  0
    0.7184   -3.6360   -0.6226 N   0  0  0  0  0  0  0  0  0  0  0  0
    0.4794    0.7744    1.5313 C   0  0  0  0  0  0  0  0  0  0  0  0
    1.4954    1.1675    1.5456 H   0  0  0  0  0  0  0  0  0  0  0  0
   -0.2095    1.6175    0.8912 H   0  0  0  0  0  0  0  0  0  0  0  0
   -0.0342    0.6280    2.4811 H   0  0  0  0  0  0  0  0  0  0  0  0
  1  6  1  0  0  0  0
  2  1  1  0  0  0  0
  3  1  1  0  0  0  0
  5  4  3  0  0  0  0
  6  7  1  0  0  0  0
  6  9  1  0  0  0  0
  8  6  1  0  0  0  0
M  RAD  1   1   2
M  END
