Coordinates from ORCA-job C2H5-N2+-scan-d09-169-n800
 OpenBabel09191813583D

  9  7  0  0  0  0  0  0  0  0999 V2000
    0.3154    1.6573    1.7686 C   0  0  0  0  0  0  0  0  0  0  0  0
    1.0916    1.4394    1.0346 H   0  0  0  0  0  0  0  0  0  0  0  0
   -0.4386    0.8959    1.9691 H   0  0  0  0  0  0  0  0  0  0  0  0
    0.3277   -8.3040   -3.9643 N   0  0  0  0  0  0  0  0  0  0  0  0
    0.3282   -9.2741   -4.4944 N   0  0  0  0  0  0  0  0  0  0  0  0
    0.3035    2.8618    2.4496 C   0  0  0  0  0  0  0  0  0  0  0  0
    1.0704    3.6144    2.2648 H   0  0  0  0  0  0  0  0  0  0  0  0
   -0.3398    2.7080    1.3067 H   0  0  0  0  0  0  0  0  0  0  0  0
   -0.4599    3.0709    3.1993 H   0  0  0  0  0  0  0  0  0  0  0  0
  1  3  1  0  0  0  0
  1  6  1  0  0  0  0
  2  1  1  0  0  0  0
  5  4  3  0  0  0  0
  6  9  1  0  0  0  0
  7  6  1  0  0  0  0
  8  6  1  0  0  0  0
M  RAD  1   1   2
M  END
