Coordinates from ORCA-job C2H5-N2+-scan-d09-169-n800
 OpenBabel09191813583D

  9  8  0  0  0  0  0  0  0  0999 V2000
   -0.1201   -0.0212    0.0921 C   0  0  0  0  0  0  0  0  0  0  0  0
    0.2936    0.3183   -0.8593 H   0  0  0  0  0  0  0  0  0  0  0  0
   -1.1951   -0.2069    0.0512 H   0  0  0  0  0  0  0  0  0  0  0  0
    0.4051   -1.6579    0.0067 N   0  0  0  0  0  0  0  0  0  0  0  0
    0.7607   -2.7022   -0.0143 N   0  0  0  0  0  0  0  0  0  0  0  0
    0.4314    0.5822    1.3420 C   0  0  0  0  0  0  0  0  0  0  0  0
    1.5218    0.6304    1.3472 H   0  0  0  0  0  0  0  0  0  0  0  0
    0.0528    1.6166    1.3198 H   0  0  0  0  0  0  0  0  0  0  0  0
    0.0481    0.1104    2.2485 H   0  0  0  0  0  0  0  0  0  0  0  0
  1  6  1  0  0  0  0
  2  1  1  0  0  0  0
  3  1  1  0  0  0  0
  4  1  1  0  0  0  0
  5  4  1  0  0  0  0
  6  7  1  0  0  0  0
  6  9  1  0  0  0  0
  8  6  1  0  0  0  0
M  RAD  2   4   2   5   3
M  END
