Coordinates from ORCA-job C2H5-N2+-scan-d09-169-n800
 OpenBabel09191813583D

  9  7  0  0  0  0  0  0  0  0999 V2000
    0.2821    0.1782    0.8649 C   0  0  0  0  0  0  0  0  0  0  0  0
    1.0210   -0.0210    0.0886 H   0  0  0  0  0  0  0  0  0  0  0  0
   -0.5051   -0.5594    1.0218 H   0  0  0  0  0  0  0  0  0  0  0  0
    0.2967   -3.0744   -0.9883 N   0  0  0  0  0  0  0  0  0  0  0  0
    0.3182   -4.0467   -1.5132 N   0  0  0  0  0  0  0  0  0  0  0  0
    0.3477    1.3261    1.6344 C   0  0  0  0  0  0  0  0  0  0  0  0
    1.1495    2.0500    1.4882 H   0  0  0  0  0  0  0  0  0  0  0  0
   -0.3308    1.3067    0.5136 H   0  0  0  0  0  0  0  0  0  0  0  0
   -0.3809    1.5101    2.4240 H   0  0  0  0  0  0  0  0  0  0  0  0
  1  3  1  0  0  0  0
  1  6  1  0  0  0  0
  2  1  1  0  0  0  0
  5  4  3  0  0  0  0
  6  9  1  0  0  0  0
  7  6  1  0  0  0  0
  8  6  1  0  0  0  0
M  RAD  1   1   2
M  END
