Coordinates from ORCA-job C2H5-N2+-scan-d09-169-n800
 OpenBabel09191813583D

  9  7  0  0  0  0  0  0  0  0999 V2000
    0.3049    0.4796    1.0742 C   0  0  0  0  0  0  0  0  0  0  0  0
    1.0650    0.2704    0.3212 H   0  0  0  0  0  0  0  0  0  0  0  0
   -0.4648   -0.2709    1.2561 H   0  0  0  0  0  0  0  0  0  0  0  0
    0.2934   -4.1607   -1.6196 N   0  0  0  0  0  0  0  0  0  0  0  0
    0.3079   -5.1294   -2.1520 N   0  0  0  0  0  0  0  0  0  0  0  0
    0.3296    1.6590    1.7974 C   0  0  0  0  0  0  0  0  0  0  0  0
    1.1122    2.3992    1.6301 H   0  0  0  0  0  0  0  0  0  0  0  0
   -0.3315    1.5647    0.6612 H   0  0  0  0  0  0  0  0  0  0  0  0
   -0.4182    1.8577    2.5654 H   0  0  0  0  0  0  0  0  0  0  0  0
  1  3  1  0  0  0  0
  1  6  1  0  0  0  0
  2  1  1  0  0  0  0
  5  4  3  0  0  0  0
  6  9  1  0  0  0  0
  7  6  1  0  0  0  0
  8  6  1  0  0  0  0
M  RAD  1   1   2
M  END
