Coordinates from ORCA-job C2H5-N2+-scan-d09-169-n800
 OpenBabel09191813583D

  9  7  0  0  0  0  0  0  0  0999 V2000
    0.2874    0.2373    0.9075 C   0  0  0  0  0  0  0  0  0  0  0  0
    1.0318    0.0357    0.1368 H   0  0  0  0  0  0  0  0  0  0  0  0
   -0.4958   -0.5033    1.0709 H   0  0  0  0  0  0  0  0  0  0  0  0
    0.2957   -3.2885   -1.1135 N   0  0  0  0  0  0  0  0  0  0  0  0
    0.3149   -4.2596   -1.6411 N   0  0  0  0  0  0  0  0  0  0  0  0
    0.3439    1.3926    1.6665 C   0  0  0  0  0  0  0  0  0  0  0  0
    1.1410    2.1206    1.5151 H   0  0  0  0  0  0  0  0  0  0  0  0
   -0.3311    1.3545    0.5408 H   0  0  0  0  0  0  0  0  0  0  0  0
   -0.3894    1.5805    2.4509 H   0  0  0  0  0  0  0  0  0  0  0  0
  1  3  1  0  0  0  0
  1  6  1  0  0  0  0
  2  1  1  0  0  0  0
  5  4  3  0  0  0  0
  6  9  1  0  0  0  0
  7  6  1  0  0  0  0
  8  6  1  0  0  0  0
M  RAD  1   1   2
M  END
