Coordinates from ORCA-job C2H5-N2+-scan-d09-169-n800
 OpenBabel09191813583D

  9  7  0  0  0  0  0  0  0  0999 V2000
    0.3032    2.1641    2.0444 C   0  0  0  0  0  0  0  0  0  0  0  0
    1.0743    1.9465    1.3051 H   0  0  0  0  0  0  0  0  0  0  0  0
   -0.4558    1.4068    2.2419 H   0  0  0  0  0  0  0  0  0  0  0  0
    0.3665  -10.0910   -4.9211 N   0  0  0  0  0  0  0  0  0  0  0  0
    0.3320  -11.0257   -5.5105 N   0  0  0  0  0  0  0  0  0  0  0  0
    0.3036    3.3629    2.7356 C   0  0  0  0  0  0  0  0  0  0  0  0
    1.0754    4.1111    2.5537 H   0  0  0  0  0  0  0  0  0  0  0  0
   -0.3460    3.2235    1.5943 H   0  0  0  0  0  0  0  0  0  0  0  0
   -0.4548    3.5714    3.4906 H   0  0  0  0  0  0  0  0  0  0  0  0
  1  3  1  0  0  0  0
  1  6  1  0  0  0  0
  2  1  1  0  0  0  0
  5  4  3  0  0  0  0
  6  9  1  0  0  0  0
  7  6  1  0  0  0  0
  8  6  1  0  0  0  0
M  RAD  1   1   2
M  END
