Coordinates from ORCA-job C2H5-N2+-scan-d09-169-n800
 OpenBabel09191813583D

  9  7  0  0  0  0  0  0  0  0999 V2000
    0.2977    2.4604    2.2060 C   0  0  0  0  0  0  0  0  0  0  0  0
    1.0670    2.2443    1.4644 H   0  0  0  0  0  0  0  0  0  0  0  0
   -0.4631    1.7043    2.4012 H   0  0  0  0  0  0  0  0  0  0  0  0
    0.3779  -11.1263   -5.4964 N   0  0  0  0  0  0  0  0  0  0  0  0
    0.3433  -12.0583   -6.0900 N   0  0  0  0  0  0  0  0  0  0  0  0
    0.3026    3.6558    2.9030 C   0  0  0  0  0  0  0  0  0  0  0  0
    1.0762    4.4027    2.7234 H   0  0  0  0  0  0  0  0  0  0  0  0
   -0.3493    3.5238    1.7621 H   0  0  0  0  0  0  0  0  0  0  0  0
   -0.4540    3.8628    3.6602 H   0  0  0  0  0  0  0  0  0  0  0  0
  1  3  1  0  0  0  0
  1  6  1  0  0  0  0
  2  1  1  0  0  0  0
  5  4  3  0  0  0  0
  6  9  1  0  0  0  0
  7  6  1  0  0  0  0
  8  6  1  0  0  0  0
M  RAD  1   1   2
M  END
