Coordinates from ORCA-job C2H5-N2+-scan-d09-169-n800
 OpenBabel09191813583D

  9  7  0  0  0  0  0  0  0  0999 V2000
    0.2957    2.6160    2.2922 C   0  0  0  0  0  0  0  0  0  0  0  0
    1.0648    2.4003    1.5502 H   0  0  0  0  0  0  0  0  0  0  0  0
   -0.4653    1.8600    2.4868 H   0  0  0  0  0  0  0  0  0  0  0  0
    0.3845  -11.6705   -5.8001 N   0  0  0  0  0  0  0  0  0  0  0  0
    0.3480  -12.6018   -6.3946 N   0  0  0  0  0  0  0  0  0  0  0  0
    0.3013    3.8107    2.9905 C   0  0  0  0  0  0  0  0  0  0  0  0
    1.0752    4.5575    2.8114 H   0  0  0  0  0  0  0  0  0  0  0  0
   -0.3509    3.6801    1.8496 H   0  0  0  0  0  0  0  0  0  0  0  0
   -0.4550    4.0172    3.7480 H   0  0  0  0  0  0  0  0  0  0  0  0
  1  3  1  0  0  0  0
  1  6  1  0  0  0  0
  2  1  1  0  0  0  0
  5  4  3  0  0  0  0
  6  9  1  0  0  0  0
  7  6  1  0  0  0  0
  8  6  1  0  0  0  0
M  RAD  1   1   2
M  END
