Coordinates from ORCA-job C2H5-N2+-scan-d09-169-n800
 OpenBabel09191813583D

  9  7  0  0  0  0  0  0  0  0999 V2000
   -0.1602    0.2761    0.1981 C   0  0  0  0  0  0  0  0  0  0  0  0
    0.3336    0.4402   -0.7612 H   0  0  0  0  0  0  0  0  0  0  0  0
   -1.1857   -0.0959    0.1681 H   0  0  0  0  0  0  0  0  0  0  0  0
    0.5191   -2.2920   -0.1729 N   0  0  0  0  0  0  0  0  0  0  0  0
    0.8006   -3.3498   -0.3226 N   0  0  0  0  0  0  0  0  0  0  0  0
    0.4253    0.7155    1.4089 C   0  0  0  0  0  0  0  0  0  0  0  0
    1.5053    0.8766    1.4109 H   0  0  0  0  0  0  0  0  0  0  0  0
   -0.0292    1.7571    1.2667 H   0  0  0  0  0  0  0  0  0  0  0  0
   -0.0103    0.3418    2.3379 H   0  0  0  0  0  0  0  0  0  0  0  0
  1  6  1  0  0  0  0
  2  1  1  0  0  0  0
  3  1  1  0  0  0  0
  5  4  3  0  0  0  0
  6  7  1  0  0  0  0
  6  9  1  0  0  0  0
  8  6  1  0  0  0  0
M  RAD  1   1   2
M  END
