Coordinates from ORCA-job C2H5-N2+-scan-d09-169-n800
 OpenBabel09191813583D

  9  7  0  0  0  0  0  0  0  0999 V2000
    0.3181    0.8712    1.3209 C   0  0  0  0  0  0  0  0  0  0  0  0
    1.0906    0.6546    0.5828 H   0  0  0  0  0  0  0  0  0  0  0  0
   -0.4395    0.1124    1.5178 H   0  0  0  0  0  0  0  0  0  0  0  0
    0.2984   -5.5500   -2.4134 N   0  0  0  0  0  0  0  0  0  0  0  0
    0.3105   -6.5184   -2.9463 N   0  0  0  0  0  0  0  0  0  0  0  0
    0.3142    2.0710    2.0103 C   0  0  0  0  0  0  0  0  0  0  0  0
    1.0847    2.8207    1.8289 H   0  0  0  0  0  0  0  0  0  0  0  0
   -0.3331    1.9297    0.8690 H   0  0  0  0  0  0  0  0  0  0  0  0
   -0.4456    2.2784    2.7641 H   0  0  0  0  0  0  0  0  0  0  0  0
  1  3  1  0  0  0  0
  1  6  1  0  0  0  0
  2  1  1  0  0  0  0
  5  4  3  0  0  0  0
  6  9  1  0  0  0  0
  7  6  1  0  0  0  0
  8  6  1  0  0  0  0
M  RAD  1   1   2
M  END
