Coordinates from ORCA-job C2H5-N2+-scan-d09-169-n800
 OpenBabel09191813583D

  9  7  0  0  0  0  0  0  0  0999 V2000
    0.3130    0.6727    1.1983 C   0  0  0  0  0  0  0  0  0  0  0  0
    1.0804    0.4592    0.4540 H   0  0  0  0  0  0  0  0  0  0  0  0
   -0.4496   -0.0827    1.3890 H   0  0  0  0  0  0  0  0  0  0  0  0
    0.2950   -4.8478   -2.0134 N   0  0  0  0  0  0  0  0  0  0  0  0
    0.3080   -5.8160   -2.5466 N   0  0  0  0  0  0  0  0  0  0  0  0
    0.3211    1.8641    1.9020 C   0  0  0  0  0  0  0  0  0  0  0  0
    1.0966    2.6100    1.7265 H   0  0  0  0  0  0  0  0  0  0  0  0
   -0.3322    1.7423    0.7624 H   0  0  0  0  0  0  0  0  0  0  0  0
   -0.4338    2.0679    2.6617 H   0  0  0  0  0  0  0  0  0  0  0  0
  1  3  1  0  0  0  0
  1  6  1  0  0  0  0
  2  1  1  0  0  0  0
  5  4  3  0  0  0  0
  6  9  1  0  0  0  0
  7  6  1  0  0  0  0
  8  6  1  0  0  0  0
M  RAD  1   1   2
M  END
