Coordinates from ORCA-job C2H5-N2+-scan-d09-169-n800
 OpenBabel09191813583D

  9  7  0  0  0  0  0  0  0  0999 V2000
    0.3238    1.4716    1.6760 C   0  0  0  0  0  0  0  0  0  0  0  0
    1.1046    1.2500    0.9480 H   0  0  0  0  0  0  0  0  0  0  0  0
   -0.4256    0.7073    1.8830 H   0  0  0  0  0  0  0  0  0  0  0  0
    0.3138   -7.6617   -3.6088 N   0  0  0  0  0  0  0  0  0  0  0  0
    0.3241   -8.6318   -4.1388 N   0  0  0  0  0  0  0  0  0  0  0  0
    0.3002    2.6846    2.3413 C   0  0  0  0  0  0  0  0  0  0  0  0
    1.0624    3.4403    2.1502 H   0  0  0  0  0  0  0  0  0  0  0  0
   -0.3371    2.5118    1.1980 H   0  0  0  0  0  0  0  0  0  0  0  0
   -0.4678    2.8976    3.0852 H   0  0  0  0  0  0  0  0  0  0  0  0
  1  3  1  0  0  0  0
  1  6  1  0  0  0  0
  2  1  1  0  0  0  0
  5  4  3  0  0  0  0
  6  9  1  0  0  0  0
  7  6  1  0  0  0  0
  8  6  1  0  0  0  0
M  RAD  1   1   2
M  END
