Coordinates from ORCA-job C2H5-N2+-scan-d09-169-n800
 OpenBabel09191813583D

  9  7  0  0  0  0  0  0  0  0999 V2000
    0.3236    1.4098    1.6401 C   0  0  0  0  0  0  0  0  0  0  0  0
    1.1038    1.1886    0.9114 H   0  0  0  0  0  0  0  0  0  0  0  0
   -0.4264    0.6459    1.8464 H   0  0  0  0  0  0  0  0  0  0  0  0
    0.3120   -7.4449   -3.4864 N   0  0  0  0  0  0  0  0  0  0  0  0
    0.3226   -8.4148   -4.0167 N   0  0  0  0  0  0  0  0  0  0  0  0
    0.3013    2.6220    2.3071 C   0  0  0  0  0  0  0  0  0  0  0  0
    1.0642    3.3772    2.1166 H   0  0  0  0  0  0  0  0  0  0  0  0
   -0.3367    2.4513    1.1639 H   0  0  0  0  0  0  0  0  0  0  0  0
   -0.4661    2.8345    3.0517 H   0  0  0  0  0  0  0  0  0  0  0  0
  1  3  1  0  0  0  0
  1  6  1  0  0  0  0
  2  1  1  0  0  0  0
  5  4  3  0  0  0  0
  6  9  1  0  0  0  0
  7  6  1  0  0  0  0
  8  6  1  0  0  0  0
M  RAD  1   1   2
M  END
