Coordinates from ORCA-job C2H5-N2+-scan-d09-169-n800
 OpenBabel09191813583D

  9  7  0  0  0  0  0  0  0  0999 V2000
    0.2920    0.2890    0.9445 C   0  0  0  0  0  0  0  0  0  0  0  0
    1.0407    0.0855    0.1785 H   0  0  0  0  0  0  0  0  0  0  0  0
   -0.4877   -0.4542    1.1130 H   0  0  0  0  0  0  0  0  0  0  0  0
    0.2947   -3.4760   -1.2231 N   0  0  0  0  0  0  0  0  0  0  0  0
    0.3124   -4.4461   -1.7524 N   0  0  0  0  0  0  0  0  0  0  0  0
    0.3405    1.4506    1.6945 C   0  0  0  0  0  0  0  0  0  0  0  0
    1.1338    2.1819    1.5389 H   0  0  0  0  0  0  0  0  0  0  0  0
   -0.3312    1.3975    0.5654 H   0  0  0  0  0  0  0  0  0  0  0  0
   -0.3967    1.6415    2.4746 H   0  0  0  0  0  0  0  0  0  0  0  0
  1  3  1  0  0  0  0
  1  6  1  0  0  0  0
  2  1  1  0  0  0  0
  5  4  3  0  0  0  0
  6  9  1  0  0  0  0
  7  6  1  0  0  0  0
  8  6  1  0  0  0  0
M  RAD  1   1   2
M  END
