Coordinates from ORCA-job C2H5-N2+-scan-d09-169-n800
 OpenBabel09191813583D

  9  7  0  0  0  0  0  0  0  0999 V2000
    0.3006    2.2658    2.0989 C   0  0  0  0  0  0  0  0  0  0  0  0
    1.0707    2.0489    1.3582 H   0  0  0  0  0  0  0  0  0  0  0  0
   -0.4594    1.5092    2.2951 H   0  0  0  0  0  0  0  0  0  0  0  0
    0.3702  -10.4456   -5.1175 N   0  0  0  0  0  0  0  0  0  0  0  0
    0.3365  -11.3791   -5.7088 N   0  0  0  0  0  0  0  0  0  0  0  0
    0.3038    3.4626    2.7934 C   0  0  0  0  0  0  0  0  0  0  0  0
    1.0767    4.2100    2.6127 H   0  0  0  0  0  0  0  0  0  0  0  0
   -0.3472    3.3275    1.6524 H   0  0  0  0  0  0  0  0  0  0  0  0
   -0.4535    3.6703    3.5496 H   0  0  0  0  0  0  0  0  0  0  0  0
  1  3  1  0  0  0  0
  1  6  1  0  0  0  0
  2  1  1  0  0  0  0
  5  4  3  0  0  0  0
  6  9  1  0  0  0  0
  7  6  1  0  0  0  0
  8  6  1  0  0  0  0
M  RAD  1   1   2
M  END
