Coordinates from ORCA-job C2H5-N2+-scan-d09-169-n800
 OpenBabel09191813583D

  9  7  0  0  0  0  0  0  0  0999 V2000
   -0.0911    0.3132    0.3325 C   0  0  0  0  0  0  0  0  0  0  0  0
    0.4272    0.4388   -0.6178 H   0  0  0  0  0  0  0  0  0  0  0  0
   -1.0995   -0.0997    0.3159 H   0  0  0  0  0  0  0  0  0  0  0  0
    0.4961   -2.5123   -0.3374 N   0  0  0  0  0  0  0  0  0  0  0  0
    0.7175   -3.5664   -0.5839 N   0  0  0  0  0  0  0  0  0  0  0  0
    0.4778    0.7548    1.5175 C   0  0  0  0  0  0  0  0  0  0  0  0
    1.4986    1.1353    1.5327 H   0  0  0  0  0  0  0  0  0  0  0  0
   -0.1976    1.6100    0.9064 H   0  0  0  0  0  0  0  0  0  0  0  0
   -0.0305    0.5959    2.4680 H   0  0  0  0  0  0  0  0  0  0  0  0
  1  6  1  0  0  0  0
  2  1  1  0  0  0  0
  3  1  1  0  0  0  0
  5  4  3  0  0  0  0
  6  7  1  0  0  0  0
  6  9  1  0  0  0  0
  8  6  1  0  0  0  0
M  RAD  1   1   2
M  END
