Coordinates from ORCA-job C2H5-N2+-scan-d09-169-n800
 OpenBabel09191813583D

  9  7  0  0  0  0  0  0  0  0999 V2000
    0.3240    1.5333    1.7118 C   0  0  0  0  0  0  0  0  0  0  0  0
    1.1052    1.3115    0.9845 H   0  0  0  0  0  0  0  0  0  0  0  0
   -0.4249    0.7688    1.9194 H   0  0  0  0  0  0  0  0  0  0  0  0
    0.3157   -7.8786   -3.7313 N   0  0  0  0  0  0  0  0  0  0  0  0
    0.3257   -8.8488   -4.2609 N   0  0  0  0  0  0  0  0  0  0  0  0
    0.2990    2.7472    2.3756 C   0  0  0  0  0  0  0  0  0  0  0  0
    1.0608    3.5032    2.1838 H   0  0  0  0  0  0  0  0  0  0  0  0
   -0.3376    2.5724    1.2322 H   0  0  0  0  0  0  0  0  0  0  0  0
   -0.4695    2.9605    3.1189 H   0  0  0  0  0  0  0  0  0  0  0  0
  1  3  1  0  0  0  0
  1  6  1  0  0  0  0
  2  1  1  0  0  0  0
  5  4  3  0  0  0  0
  6  9  1  0  0  0  0
  7  6  1  0  0  0  0
  8  6  1  0  0  0  0
M  RAD  1   1   2
M  END
