Coordinates from ORCA-job C2H5-N2+-scan-d09-169-n800
 OpenBabel09191813583D

  9  7  0  0  0  0  0  0  0  0999 V2000
   -0.0887    0.3863    0.3787 C   0  0  0  0  0  0  0  0  0  0  0  0
    0.4431    0.4835   -0.5676 H   0  0  0  0  0  0  0  0  0  0  0  0
   -1.0849   -0.0555    0.3669 H   0  0  0  0  0  0  0  0  0  0  0  0
    0.5180   -2.7552   -0.4417 N   0  0  0  0  0  0  0  0  0  0  0  0
    0.7220   -3.8064   -0.7148 N   0  0  0  0  0  0  0  0  0  0  0  0
    0.4797    0.8264    1.5620 C   0  0  0  0  0  0  0  0  0  0  0  0
    1.4867    1.2429    1.5742 H   0  0  0  0  0  0  0  0  0  0  0  0
   -0.2342    1.6445    0.8664 H   0  0  0  0  0  0  0  0  0  0  0  0
   -0.0434    0.7032    2.5100 H   0  0  0  0  0  0  0  0  0  0  0  0
  1  6  1  0  0  0  0
  2  1  1  0  0  0  0
  3  1  1  0  0  0  0
  5  4  3  0  0  0  0
  6  7  1  0  0  0  0
  6  9  1  0  0  0  0
  8  6  1  0  0  0  0
M  RAD  1   1   2
M  END
