Coordinates from ORCA-job C2H5-N2+-scan-d09-169-n800
 OpenBabel09191813583D

  9  7  0  0  0  0  0  0  0  0999 V2000
   -0.1510    0.1580    0.1451 C   0  0  0  0  0  0  0  0  0  0  0  0
    0.3230    0.3637   -0.8149 H   0  0  0  0  0  0  0  0  0  0  0  0
   -1.1901   -0.1701    0.1105 H   0  0  0  0  0  0  0  0  0  0  0  0
    0.4674   -1.9651   -0.0686 N   0  0  0  0  0  0  0  0  0  0  0  0
    0.7784   -3.0200   -0.1688 N   0  0  0  0  0  0  0  0  0  0  0  0
    0.4255    0.6448    1.3684 C   0  0  0  0  0  0  0  0  0  0  0  0
    1.5126    0.7475    1.3670 H   0  0  0  0  0  0  0  0  0  0  0  0
    0.0204    1.6928    1.3106 H   0  0  0  0  0  0  0  0  0  0  0  0
    0.0122    0.2181    2.2846 H   0  0  0  0  0  0  0  0  0  0  0  0
  1  6  1  0  0  0  0
  2  1  1  0  0  0  0
  3  1  1  0  0  0  0
  5  4  3  0  0  0  0
  6  9  1  0  0  0  0
  7  6  1  0  0  0  0
  8  6  1  0  0  0  0
M  RAD  1   1   2
M  END
