Coordinates from ORCA-job C2H5-N2+-scan-d09-169-n800
 OpenBabel09191813583D

  9  7  0  0  0  0  0  0  0  0999 V2000
    0.3193    1.6245    1.7562 C   0  0  0  0  0  0  0  0  0  0  0  0
    1.0980    1.4048    1.0255 H   0  0  0  0  0  0  0  0  0  0  0  0
   -0.4322    0.8615    1.9601 H   0  0  0  0  0  0  0  0  0  0  0  0
    0.3227   -8.1929   -3.9055 N   0  0  0  0  0  0  0  0  0  0  0  0
    0.3278   -9.1638   -4.4342 N   0  0  0  0  0  0  0  0  0  0  0  0
    0.3011    2.8335    2.4292 C   0  0  0  0  0  0  0  0  0  0  0  0
    1.0654    3.5879    2.2411 H   0  0  0  0  0  0  0  0  0  0  0  0
   -0.3390    2.6695    1.2858 H   0  0  0  0  0  0  0  0  0  0  0  0
   -0.4649    3.0445    3.1757 H   0  0  0  0  0  0  0  0  0  0  0  0
  1  3  1  0  0  0  0
  1  6  1  0  0  0  0
  2  1  1  0  0  0  0
  5  4  3  0  0  0  0
  6  9  1  0  0  0  0
  7  6  1  0  0  0  0
  8  6  1  0  0  0  0
M  RAD  1   1   2
M  END
