Coordinates from ORCA-job C2H5-N2+-scan-d09-169-n800
 OpenBabel09191813583D

  9  7  0  0  0  0  0  0  0  0999 V2000
    0.3052    2.0173    1.9604 C   0  0  0  0  0  0  0  0  0  0  0  0
    1.0768    1.8018    1.2209 H   0  0  0  0  0  0  0  0  0  0  0  0
   -0.4534    1.2592    2.1559 H   0  0  0  0  0  0  0  0  0  0  0  0
    0.3578   -9.5652   -4.6486 N   0  0  0  0  0  0  0  0  0  0  0  0
    0.3295  -10.5199   -5.2052 N   0  0  0  0  0  0  0  0  0  0  0  0
    0.3047    3.2145    2.6543 C   0  0  0  0  0  0  0  0  0  0  0  0
    1.0762    3.9635    2.4744 H   0  0  0  0  0  0  0  0  0  0  0  0
   -0.3444    3.0775    1.5125 H   0  0  0  0  0  0  0  0  0  0  0  0
   -0.4541    3.4209    3.4094 H   0  0  0  0  0  0  0  0  0  0  0  0
  1  3  1  0  0  0  0
  1  6  1  0  0  0  0
  2  1  1  0  0  0  0
  5  4  3  0  0  0  0
  6  9  1  0  0  0  0
  7  6  1  0  0  0  0
  8  6  1  0  0  0  0
M  RAD  1   1   2
M  END
