Coordinates from ORCA-job C2H5-N2+-scan-d09-169-n800
 OpenBabel09191813583D

  9  7  0  0  0  0  0  0  0  0999 V2000
    0.3229    1.2594    1.5522 C   0  0  0  0  0  0  0  0  0  0  0  0
    1.1015    1.0391    0.8216 H   0  0  0  0  0  0  0  0  0  0  0  0
   -0.4287    0.4965    1.7566 H   0  0  0  0  0  0  0  0  0  0  0  0
    0.3078   -6.9166   -3.1878 N   0  0  0  0  0  0  0  0  0  0  0  0
    0.3188   -7.8860   -3.7190 N   0  0  0  0  0  0  0  0  0  0  0  0
    0.3044    2.4691    2.2239 C   0  0  0  0  0  0  0  0  0  0  0  0
    1.0688    3.2232    2.0353 H   0  0  0  0  0  0  0  0  0  0  0  0
   -0.3356    2.3044    1.0809 H   0  0  0  0  0  0  0  0  0  0  0  0
   -0.4615    2.6806    2.9703 H   0  0  0  0  0  0  0  0  0  0  0  0
  1  3  1  0  0  0  0
  1  6  1  0  0  0  0
  2  1  1  0  0  0  0
  5  4  3  0  0  0  0
  6  9  1  0  0  0  0
  7  6  1  0  0  0  0
  8  6  1  0  0  0  0
M  RAD  1   1   2
M  END
