Coordinates from ORCA-job C2H5-N2+-scan-d09-169-n800
 OpenBabel09191813583D

  9  7  0  0  0  0  0  0  0  0999 V2000
    0.2986    0.3746    1.0038 C   0  0  0  0  0  0  0  0  0  0  0  0
    1.0532    0.1684    0.2444 H   0  0  0  0  0  0  0  0  0  0  0  0
   -0.4760   -0.3723    1.1791 H   0  0  0  0  0  0  0  0  0  0  0  0
    0.2936   -3.7844   -1.4024 N   0  0  0  0  0  0  0  0  0  0  0  0
    0.3095   -4.7537   -1.9334 N   0  0  0  0  0  0  0  0  0  0  0  0
    0.3352    1.5450    1.7408 C   0  0  0  0  0  0  0  0  0  0  0  0
    1.1231    2.2810    1.5793 H   0  0  0  0  0  0  0  0  0  0  0  0
   -0.3313    1.4711    0.6076 H   0  0  0  0  0  0  0  0  0  0  0  0
   -0.4074    1.7399    2.5148 H   0  0  0  0  0  0  0  0  0  0  0  0
  1  3  1  0  0  0  0
  1  6  1  0  0  0  0
  2  1  1  0  0  0  0
  5  4  3  0  0  0  0
  6  9  1  0  0  0  0
  7  6  1  0  0  0  0
  8  6  1  0  0  0  0
M  RAD  1   1   2
M  END
