Coordinates from ORCA-job C2H5-N2+-scan-d09-169-n800
 OpenBabel09191813583D

  9  7  0  0  0  0  0  0  0  0999 V2000
    0.2979    2.4449    2.1973 C   0  0  0  0  0  0  0  0  0  0  0  0
    1.0672    2.2287    1.4558 H   0  0  0  0  0  0  0  0  0  0  0  0
   -0.4629    1.6888    2.3925 H   0  0  0  0  0  0  0  0  0  0  0  0
    0.3774  -11.0717   -5.4664 N   0  0  0  0  0  0  0  0  0  0  0  0
    0.3426  -12.0042   -6.0592 N   0  0  0  0  0  0  0  0  0  0  0  0
    0.3027    3.6403    2.8943 C   0  0  0  0  0  0  0  0  0  0  0  0
    1.0763    4.3873    2.7147 H   0  0  0  0  0  0  0  0  0  0  0  0
   -0.3491    3.5082    1.7534 H   0  0  0  0  0  0  0  0  0  0  0  0
   -0.4539    3.8473    3.6515 H   0  0  0  0  0  0  0  0  0  0  0  0
  1  3  1  0  0  0  0
  1  6  1  0  0  0  0
  2  1  1  0  0  0  0
  5  4  3  0  0  0  0
  6  9  1  0  0  0  0
  7  6  1  0  0  0  0
  8  6  1  0  0  0  0
M  RAD  1   1   2
M  END
