Coordinates from ORCA-job C2H5-N2+-scan-d09-169-n800
 OpenBabel09191813583D

  9  7  0  0  0  0  0  0  0  0999 V2000
    0.3240    1.5449    1.7185 C   0  0  0  0  0  0  0  0  0  0  0  0
    1.1054    1.3230    0.9913 H   0  0  0  0  0  0  0  0  0  0  0  0
   -0.4248    0.7803    1.9263 H   0  0  0  0  0  0  0  0  0  0  0  0
    0.3160   -7.9192   -3.7542 N   0  0  0  0  0  0  0  0  0  0  0  0
    0.3260   -8.8895   -4.2838 N   0  0  0  0  0  0  0  0  0  0  0  0
    0.2988    2.7590    2.3820 C   0  0  0  0  0  0  0  0  0  0  0  0
    1.0605    3.5150    2.1901 H   0  0  0  0  0  0  0  0  0  0  0  0
   -0.3377    2.5838    1.2386 H   0  0  0  0  0  0  0  0  0  0  0  0
   -0.4698    2.9723    3.1252 H   0  0  0  0  0  0  0  0  0  0  0  0
  1  3  1  0  0  0  0
  1  6  1  0  0  0  0
  2  1  1  0  0  0  0
  5  4  3  0  0  0  0
  6  9  1  0  0  0  0
  7  6  1  0  0  0  0
  8  6  1  0  0  0  0
M  RAD  1   1   2
M  END
