Coordinates from ORCA-job C2H5-N2+-scan-d09-169-n800
 OpenBabel09191813583D

  9  7  0  0  0  0  0  0  0  0999 V2000
    0.3071    1.8815    1.8842 C   0  0  0  0  0  0  0  0  0  0  0  0
    1.0790    1.6666    1.1449 H   0  0  0  0  0  0  0  0  0  0  0  0
   -0.4513    1.1230    2.0793 H   0  0  0  0  0  0  0  0  0  0  0  0
    0.3465   -9.0848   -4.3907 N   0  0  0  0  0  0  0  0  0  0  0  0
    0.3304  -10.0491   -4.9309 N   0  0  0  0  0  0  0  0  0  0  0  0
    0.3058    3.0785    2.5785 C   0  0  0  0  0  0  0  0  0  0  0  0
    1.0770    3.8279    2.3990 H   0  0  0  0  0  0  0  0  0  0  0  0
   -0.3428    2.9415    1.4364 H   0  0  0  0  0  0  0  0  0  0  0  0
   -0.4533    3.2844    3.3334 H   0  0  0  0  0  0  0  0  0  0  0  0
  1  3  1  0  0  0  0
  1  6  1  0  0  0  0
  2  1  1  0  0  0  0
  5  4  3  0  0  0  0
  6  9  1  0  0  0  0
  7  6  1  0  0  0  0
  8  6  1  0  0  0  0
M  RAD  1   1   2
M  END
