Coordinates from ORCA-job C2H5-N2+-scan-d09-169-n800
 OpenBabel09191813583D

  9  7  0  0  0  0  0  0  0  0999 V2000
    0.3237    1.4175    1.6446 C   0  0  0  0  0  0  0  0  0  0  0  0
    1.1039    1.1962    0.9160 H   0  0  0  0  0  0  0  0  0  0  0  0
   -0.4263    0.6536    1.8510 H   0  0  0  0  0  0  0  0  0  0  0  0
    0.3123   -7.4720   -3.5017 N   0  0  0  0  0  0  0  0  0  0  0  0
    0.3228   -8.4419   -4.0320 N   0  0  0  0  0  0  0  0  0  0  0  0
    0.3012    2.6298    2.3113 C   0  0  0  0  0  0  0  0  0  0  0  0
    1.0639    3.3851    2.1208 H   0  0  0  0  0  0  0  0  0  0  0  0
   -0.3367    2.4589    1.1681 H   0  0  0  0  0  0  0  0  0  0  0  0
   -0.4663    2.8424    3.0559 H   0  0  0  0  0  0  0  0  0  0  0  0
  1  3  1  0  0  0  0
  1  6  1  0  0  0  0
  2  1  1  0  0  0  0
  5  4  3  0  0  0  0
  6  9  1  0  0  0  0
  7  6  1  0  0  0  0
  8  6  1  0  0  0  0
M  RAD  1   1   2
M  END
