Coordinates from ORCA-job C2H5-N2+-scan-d09-169-n800
 OpenBabel09191813583D

  9  7  0  0  0  0  0  0  0  0999 V2000
    0.2961    2.5926    2.2794 C   0  0  0  0  0  0  0  0  0  0  0  0
    1.0652    2.3767    1.5375 H   0  0  0  0  0  0  0  0  0  0  0  0
   -0.4649    1.8366    2.4741 H   0  0  0  0  0  0  0  0  0  0  0  0
    0.3835  -11.5891   -5.7541 N   0  0  0  0  0  0  0  0  0  0  0  0
    0.3473  -12.5199   -6.3494 N   0  0  0  0  0  0  0  0  0  0  0  0
    0.3015    3.7875    2.9773 C   0  0  0  0  0  0  0  0  0  0  0  0
    1.0753    4.5343    2.7980 H   0  0  0  0  0  0  0  0  0  0  0  0
   -0.3507    3.6565    1.8364 H   0  0  0  0  0  0  0  0  0  0  0  0
   -0.4549    3.9942    3.7347 H   0  0  0  0  0  0  0  0  0  0  0  0
  1  3  1  0  0  0  0
  1  6  1  0  0  0  0
  2  1  1  0  0  0  0
  5  4  3  0  0  0  0
  6  9  1  0  0  0  0
  7  6  1  0  0  0  0
  8  6  1  0  0  0  0
M  RAD  1   1   2
M  END
