Coordinates from ORCA-job C2H5-N2+-scan-d09-169-n800
 OpenBabel09191813583D

  9  7  0  0  0  0  0  0  0  0999 V2000
    0.2816    0.1708    0.8597 C   0  0  0  0  0  0  0  0  0  0  0  0
    1.0198   -0.0282    0.0828 H   0  0  0  0  0  0  0  0  0  0  0  0
   -0.5060   -0.5665    1.0158 H   0  0  0  0  0  0  0  0  0  0  0  0
    0.2967   -3.0476   -0.9727 N   0  0  0  0  0  0  0  0  0  0  0  0
    0.3185   -4.0201   -1.4973 N   0  0  0  0  0  0  0  0  0  0  0  0
    0.3481    1.3179    1.6303 C   0  0  0  0  0  0  0  0  0  0  0  0
    1.1504    2.0413    1.4848 H   0  0  0  0  0  0  0  0  0  0  0  0
   -0.3308    1.3006    0.5101 H   0  0  0  0  0  0  0  0  0  0  0  0
   -0.3799    1.5014    2.4206 H   0  0  0  0  0  0  0  0  0  0  0  0
  1  3  1  0  0  0  0
  1  6  1  0  0  0  0
  2  1  1  0  0  0  0
  5  4  3  0  0  0  0
  6  9  1  0  0  0  0
  7  6  1  0  0  0  0
  8  6  1  0  0  0  0
M  RAD  1   1   2
M  END
