Coordinates from ORCA-job C2H5-N2+-scan-d09-169-n800
 OpenBabel09191813583D

  9  7  0  0  0  0  0  0  0  0999 V2000
    0.3055    1.9980    1.9494 C   0  0  0  0  0  0  0  0  0  0  0  0
    1.0771    1.7826    1.2100 H   0  0  0  0  0  0  0  0  0  0  0  0
   -0.4531    1.2398    2.1448 H   0  0  0  0  0  0  0  0  0  0  0  0
    0.3561   -9.4963   -4.6122 N   0  0  0  0  0  0  0  0  0  0  0  0
    0.3297  -10.4530   -5.1655 N   0  0  0  0  0  0  0  0  0  0  0  0
    0.3049    3.1951    2.6435 C   0  0  0  0  0  0  0  0  0  0  0  0
    1.0763    3.9441    2.4637 H   0  0  0  0  0  0  0  0  0  0  0  0
   -0.3441    3.0581    1.5016 H   0  0  0  0  0  0  0  0  0  0  0  0
   -0.4540    3.4013    3.3986 H   0  0  0  0  0  0  0  0  0  0  0  0
  1  3  1  0  0  0  0
  1  6  1  0  0  0  0
  2  1  1  0  0  0  0
  5  4  3  0  0  0  0
  6  9  1  0  0  0  0
  7  6  1  0  0  0  0
  8  6  1  0  0  0  0
M  RAD  1   1   2
M  END
