Coordinates from ORCA-job C2H5-N2+-scan-d09-169-n800
 OpenBabel09191813583D

  9  7  0  0  0  0  0  0  0  0999 V2000
    0.3235    1.3751    1.6198 C   0  0  0  0  0  0  0  0  0  0  0  0
    1.1034    1.1540    0.8908 H   0  0  0  0  0  0  0  0  0  0  0  0
   -0.4268    0.6114    1.8258 H   0  0  0  0  0  0  0  0  0  0  0  0
    0.3110   -7.3230   -3.4175 N   0  0  0  0  0  0  0  0  0  0  0  0
    0.3217   -8.2928   -3.9480 N   0  0  0  0  0  0  0  0  0  0  0  0
    0.3020    2.5867    2.2878 C   0  0  0  0  0  0  0  0  0  0  0  0
    1.0652    3.3417    2.0978 H   0  0  0  0  0  0  0  0  0  0  0  0
   -0.3364    2.4173    1.1447 H   0  0  0  0  0  0  0  0  0  0  0  0
   -0.4651    2.7991    3.0328 H   0  0  0  0  0  0  0  0  0  0  0  0
  1  3  1  0  0  0  0
  1  6  1  0  0  0  0
  2  1  1  0  0  0  0
  5  4  3  0  0  0  0
  6  9  1  0  0  0  0
  7  6  1  0  0  0  0
  8  6  1  0  0  0  0
M  RAD  1   1   2
M  END
