Coordinates from ORCA-job C2H5-N2+-scan-d09-169-n800
 OpenBabel09191813583D

  9  7  0  0  0  0  0  0  0  0999 V2000
    0.3213    1.0746    1.4431 C   0  0  0  0  0  0  0  0  0  0  0  0
    1.0975    0.8558    0.7095 H   0  0  0  0  0  0  0  0  0  0  0  0
   -0.4327    0.3133    1.6445 H   0  0  0  0  0  0  0  0  0  0  0  0
    0.3030   -6.2668   -2.8200 N   0  0  0  0  0  0  0  0  0  0  0  0
    0.3145   -7.2357   -3.3522 N   0  0  0  0  0  0  0  0  0  0  0  0
    0.3086    2.2804    2.1219 C   0  0  0  0  0  0  0  0  0  0  0  0
    1.0755    3.0327    1.9362 H   0  0  0  0  0  0  0  0  0  0  0  0
   -0.3343    2.1250    0.9796 H   0  0  0  0  0  0  0  0  0  0  0  0
   -0.4549    2.4902    2.8713 H   0  0  0  0  0  0  0  0  0  0  0  0
  1  3  1  0  0  0  0
  1  6  1  0  0  0  0
  2  1  1  0  0  0  0
  5  4  3  0  0  0  0
  6  9  1  0  0  0  0
  7  6  1  0  0  0  0
  8  6  1  0  0  0  0
M  RAD  1   1   2
M  END
