Coordinates from ORCA-job C2H5-N2+-scan-d09-169-n800
 OpenBabel09191813583D

  9  7  0  0  0  0  0  0  0  0999 V2000
    0.3212    1.0708    1.4408 C   0  0  0  0  0  0  0  0  0  0  0  0
    1.0973    0.8520    0.7071 H   0  0  0  0  0  0  0  0  0  0  0  0
   -0.4328    0.3095    1.6421 H   0  0  0  0  0  0  0  0  0  0  0  0
    0.3029   -6.2533   -2.8124 N   0  0  0  0  0  0  0  0  0  0  0  0
    0.3144   -7.2221   -3.3445 N   0  0  0  0  0  0  0  0  0  0  0  0
    0.3087    2.2764    2.1198 C   0  0  0  0  0  0  0  0  0  0  0  0
    1.0756    3.0287    1.9342 H   0  0  0  0  0  0  0  0  0  0  0  0
   -0.3343    2.1213    0.9775 H   0  0  0  0  0  0  0  0  0  0  0  0
   -0.4547    2.4863    2.8693 H   0  0  0  0  0  0  0  0  0  0  0  0
  1  3  1  0  0  0  0
  1  6  1  0  0  0  0
  2  1  1  0  0  0  0
  5  4  3  0  0  0  0
  6  9  1  0  0  0  0
  7  6  1  0  0  0  0
  8  6  1  0  0  0  0
M  RAD  1   1   2
M  END
