Coordinates from ORCA-job C2H5-N2+-scan-d09-169-n800
 OpenBabel09191813583D

  9  7  0  0  0  0  0  0  0  0999 V2000
    0.3109    1.7213    1.7979 C   0  0  0  0  0  0  0  0  0  0  0  0
    1.0843    1.5054    1.0605 H   0  0  0  0  0  0  0  0  0  0  0  0
   -0.4459    0.9617    1.9948 H   0  0  0  0  0  0  0  0  0  0  0  0
    0.3347   -8.5242   -4.0835 N   0  0  0  0  0  0  0  0  0  0  0  0
    0.3289   -9.4930   -4.6158 N   0  0  0  0  0  0  0  0  0  0  0  0
    0.3058    2.9209    2.4877 C   0  0  0  0  0  0  0  0  0  0  0  0
    1.0755    3.6715    2.3065 H   0  0  0  0  0  0  0  0  0  0  0  0
   -0.3409    2.7781    1.3452 H   0  0  0  0  0  0  0  0  0  0  0  0
   -0.4549    3.1278    3.2408 H   0  0  0  0  0  0  0  0  0  0  0  0
  1  3  1  0  0  0  0
  1  6  1  0  0  0  0
  2  1  1  0  0  0  0
  5  4  3  0  0  0  0
  6  9  1  0  0  0  0
  7  6  1  0  0  0  0
  8  6  1  0  0  0  0
M  RAD  1   1   2
M  END
