Coordinates from ORCA-job C2H5-N2+-scan-d09-169-n800
 OpenBabel09191813583D

  9  7  0  0  0  0  0  0  0  0999 V2000
    0.3011    2.2385    2.0838 C   0  0  0  0  0  0  0  0  0  0  0  0
    1.0713    2.0217    1.3433 H   0  0  0  0  0  0  0  0  0  0  0  0
   -0.4589    1.4819    2.2801 H   0  0  0  0  0  0  0  0  0  0  0  0
    0.3693  -10.3500   -5.0651 N   0  0  0  0  0  0  0  0  0  0  0  0
    0.3353  -11.2844   -5.6548 N   0  0  0  0  0  0  0  0  0  0  0  0
    0.3039    3.4355    2.7781 C   0  0  0  0  0  0  0  0  0  0  0  0
    1.0767    4.1830    2.5974 H   0  0  0  0  0  0  0  0  0  0  0  0
   -0.3469    3.3001    1.6370 H   0  0  0  0  0  0  0  0  0  0  0  0
   -0.4535    3.6433    3.5342 H   0  0  0  0  0  0  0  0  0  0  0  0
  1  3  1  0  0  0  0
  1  6  1  0  0  0  0
  2  1  1  0  0  0  0
  5  4  3  0  0  0  0
  6  9  1  0  0  0  0
  7  6  1  0  0  0  0
  8  6  1  0  0  0  0
M  RAD  1   1   2
M  END
