Coordinates from ORCA-job C2H5-N2+-scan-d09-169-n800
 OpenBabel09191813583D

  9  7  0  0  0  0  0  0  0  0999 V2000
    0.3107    0.6081    1.1574 C   0  0  0  0  0  0  0  0  0  0  0  0
    1.0760    0.3959    0.4106 H   0  0  0  0  0  0  0  0  0  0  0  0
   -0.4540   -0.1459    1.3455 H   0  0  0  0  0  0  0  0  0  0  0  0
    0.2942   -4.6186   -1.8823 N   0  0  0  0  0  0  0  0  0  0  0  0
    0.3076   -5.5869   -2.4154 N   0  0  0  0  0  0  0  0  0  0  0  0
    0.3237    1.7960    1.8670 C   0  0  0  0  0  0  0  0  0  0  0  0
    1.1013    2.5403    1.6939 H   0  0  0  0  0  0  0  0  0  0  0  0
   -0.3319    1.6822    0.7282 H   0  0  0  0  0  0  0  0  0  0  0  0
   -0.4292    1.9984    2.6291 H   0  0  0  0  0  0  0  0  0  0  0  0
  1  3  1  0  0  0  0
  1  6  1  0  0  0  0
  2  1  1  0  0  0  0
  5  4  3  0  0  0  0
  6  9  1  0  0  0  0
  7  6  1  0  0  0  0
  8  6  1  0  0  0  0
M  RAD  1   1   2
M  END
