Coordinates from ORCA-job C2H5-N2+-scan-d09-169-n800
 OpenBabel09191813583D

  9  7  0  0  0  0  0  0  0  0999 V2000
    0.2926    0.2964    0.9497 C   0  0  0  0  0  0  0  0  0  0  0  0
    1.0419    0.0927    0.1844 H   0  0  0  0  0  0  0  0  0  0  0  0
   -0.4866   -0.4471    1.1189 H   0  0  0  0  0  0  0  0  0  0  0  0
    0.2945   -3.5028   -1.2387 N   0  0  0  0  0  0  0  0  0  0  0  0
    0.3120   -4.4728   -1.7682 N   0  0  0  0  0  0  0  0  0  0  0  0
    0.3400    1.4588    1.6986 C   0  0  0  0  0  0  0  0  0  0  0  0
    1.1328    2.1906    1.5423 H   0  0  0  0  0  0  0  0  0  0  0  0
   -0.3312    1.4037    0.5690 H   0  0  0  0  0  0  0  0  0  0  0  0
   -0.3977    1.6501    2.4780 H   0  0  0  0  0  0  0  0  0  0  0  0
  1  3  1  0  0  0  0
  1  6  1  0  0  0  0
  2  1  1  0  0  0  0
  5  4  3  0  0  0  0
  6  9  1  0  0  0  0
  7  6  1  0  0  0  0
  8  6  1  0  0  0  0
M  RAD  1   1   2
M  END
