Coordinates from ORCA-job C2H5-N2+-scan-d09-169-n800
 OpenBabel09191813583D

  9  7  0  0  0  0  0  0  0  0999 V2000
    0.3238    1.4484    1.6625 C   0  0  0  0  0  0  0  0  0  0  0  0
    1.1043    1.2270    0.9343 H   0  0  0  0  0  0  0  0  0  0  0  0
   -0.4259    0.6843    1.8693 H   0  0  0  0  0  0  0  0  0  0  0  0
    0.3132   -7.5804   -3.5629 N   0  0  0  0  0  0  0  0  0  0  0  0
    0.3235   -8.5504   -4.0930 N   0  0  0  0  0  0  0  0  0  0  0  0
    0.3006    2.6611    2.3285 C   0  0  0  0  0  0  0  0  0  0  0  0
    1.0631    3.4166    2.1376 H   0  0  0  0  0  0  0  0  0  0  0  0
   -0.3370    2.4891    1.1852 H   0  0  0  0  0  0  0  0  0  0  0  0
   -0.4672    2.8739    3.0726 H   0  0  0  0  0  0  0  0  0  0  0  0
  1  3  1  0  0  0  0
  1  6  1  0  0  0  0
  2  1  1  0  0  0  0
  5  4  3  0  0  0  0
  6  9  1  0  0  0  0
  7  6  1  0  0  0  0
  8  6  1  0  0  0  0
M  RAD  1   1   2
M  END
