Coordinates from ORCA-job C2H5-N2+-scan-d09-169-n800
 OpenBabel09191813583D

  9  7  0  0  0  0  0  0  0  0999 V2000
    0.3220    1.1516    1.4887 C   0  0  0  0  0  0  0  0  0  0  0  0
    1.0993    0.9320    0.7565 H   0  0  0  0  0  0  0  0  0  0  0  0
   -0.4308    0.3896    1.6915 H   0  0  0  0  0  0  0  0  0  0  0  0
    0.3050   -6.5375   -2.9733 N   0  0  0  0  0  0  0  0  0  0  0  0
    0.3163   -7.5066   -3.5051 N   0  0  0  0  0  0  0  0  0  0  0  0
    0.3068    2.3591    2.1643 C   0  0  0  0  0  0  0  0  0  0  0  0
    1.0725    3.1122    1.9773 H   0  0  0  0  0  0  0  0  0  0  0  0
   -0.3348    2.1995    1.0217 H   0  0  0  0  0  0  0  0  0  0  0  0
   -0.4578    2.5697    2.9124 H   0  0  0  0  0  0  0  0  0  0  0  0
  1  3  1  0  0  0  0
  1  6  1  0  0  0  0
  2  1  1  0  0  0  0
  5  4  3  0  0  0  0
  6  9  1  0  0  0  0
  7  6  1  0  0  0  0
  8  6  1  0  0  0  0
M  RAD  1   1   2
M  END
