Coordinates from ORCA-job C2H5-N2+-scan-d09-169-n800
 OpenBabel09191813583D

  9  7  0  0  0  0  0  0  0  0999 V2000
    0.3010    2.2463    2.0882 C   0  0  0  0  0  0  0  0  0  0  0  0
    1.0712    2.0293    1.3477 H   0  0  0  0  0  0  0  0  0  0  0  0
   -0.4590    1.4897    2.2846 H   0  0  0  0  0  0  0  0  0  0  0  0
    0.3695  -10.3775   -5.0798 N   0  0  0  0  0  0  0  0  0  0  0  0
    0.3357  -11.3112   -5.6706 N   0  0  0  0  0  0  0  0  0  0  0  0
    0.3039    3.4433    2.7824 C   0  0  0  0  0  0  0  0  0  0  0  0
    1.0766    4.1908    2.6016 H   0  0  0  0  0  0  0  0  0  0  0  0
   -0.3470    3.3078    1.6413 H   0  0  0  0  0  0  0  0  0  0  0  0
   -0.4535    3.6511    3.5385 H   0  0  0  0  0  0  0  0  0  0  0  0
  1  3  1  0  0  0  0
  1  6  1  0  0  0  0
  2  1  1  0  0  0  0
  5  4  3  0  0  0  0
  6  9  1  0  0  0  0
  7  6  1  0  0  0  0
  8  6  1  0  0  0  0
M  RAD  1   1   2
M  END
