Coordinates from ORCA-job C2H5-N2+-scan-d09-169-n800
 OpenBabel09191813583D

  9  7  0  0  0  0  0  0  0  0999 V2000
    0.3215    1.0938    1.4545 C   0  0  0  0  0  0  0  0  0  0  0  0
    1.0980    0.8748    0.7213 H   0  0  0  0  0  0  0  0  0  0  0  0
   -0.4322    0.3324    1.6563 H   0  0  0  0  0  0  0  0  0  0  0  0
    0.3035   -6.3345   -2.8583 N   0  0  0  0  0  0  0  0  0  0  0  0
    0.3149   -7.3034   -3.3904 N   0  0  0  0  0  0  0  0  0  0  0  0
    0.3081    2.3001    2.1325 C   0  0  0  0  0  0  0  0  0  0  0  0
    1.0747    3.0526    1.9465 H   0  0  0  0  0  0  0  0  0  0  0  0
   -0.3345    2.1436    0.9901 H   0  0  0  0  0  0  0  0  0  0  0  0
   -0.4556    2.5101    2.8816 H   0  0  0  0  0  0  0  0  0  0  0  0
  1  3  1  0  0  0  0
  1  6  1  0  0  0  0
  2  1  1  0  0  0  0
  5  4  3  0  0  0  0
  6  9  1  0  0  0  0
  7  6  1  0  0  0  0
  8  6  1  0  0  0  0
M  RAD  1   1   2
M  END
