Coordinates from ORCA-job C2H5-N2+-scan-d09-169-n800
 OpenBabel09191813583D

  9  7  0  0  0  0  0  0  0  0999 V2000
    0.3166    0.8024    1.2788 C   0  0  0  0  0  0  0  0  0  0  0  0
    1.0876    0.5867    0.5388 H   0  0  0  0  0  0  0  0  0  0  0  0
   -0.4425    0.0446    1.4738 H   0  0  0  0  0  0  0  0  0  0  0  0
    0.2971   -5.3068   -2.2750 N   0  0  0  0  0  0  0  0  0  0  0  0
    0.3095   -6.2751   -2.8082 N   0  0  0  0  0  0  0  0  0  0  0  0
    0.3164    1.9996    1.9727 C   0  0  0  0  0  0  0  0  0  0  0  0
    1.0885    2.7481    1.7931 H   0  0  0  0  0  0  0  0  0  0  0  0
   -0.3328    1.8643    0.8318 H   0  0  0  0  0  0  0  0  0  0  0  0
   -0.4419    2.2059    2.7283 H   0  0  0  0  0  0  0  0  0  0  0  0
  1  3  1  0  0  0  0
  1  6  1  0  0  0  0
  2  1  1  0  0  0  0
  5  4  3  0  0  0  0
  6  9  1  0  0  0  0
  7  6  1  0  0  0  0
  8  6  1  0  0  0  0
M  RAD  1   1   2
M  END
