Coordinates from ORCA-job C2H5-N2+-scan-d09-169-n800
 OpenBabel09191813583D

  9  7  0  0  0  0  0  0  0  0999 V2000
    0.3199    1.6204    1.7549 C   0  0  0  0  0  0  0  0  0  0  0  0
    1.0990    1.4004    1.0247 H   0  0  0  0  0  0  0  0  0  0  0  0
   -0.4312    0.8571    1.9593 H   0  0  0  0  0  0  0  0  0  0  0  0
    0.3220   -8.1790   -3.8982 N   0  0  0  0  0  0  0  0  0  0  0  0
    0.3278   -9.1499   -4.4267 N   0  0  0  0  0  0  0  0  0  0  0  0
    0.3007    2.8301    2.4265 C   0  0  0  0  0  0  0  0  0  0  0  0
    1.0646    3.5847    2.2379 H   0  0  0  0  0  0  0  0  0  0  0  0
   -0.3389    2.6645    1.2831 H   0  0  0  0  0  0  0  0  0  0  0  0
   -0.4657    3.0414    3.1726 H   0  0  0  0  0  0  0  0  0  0  0  0
  1  3  1  0  0  0  0
  1  6  1  0  0  0  0
  2  1  1  0  0  0  0
  5  4  3  0  0  0  0
  6  9  1  0  0  0  0
  7  6  1  0  0  0  0
  8  6  1  0  0  0  0
M  RAD  1   1   2
M  END
