Coordinates from ORCA-job C2H5-N2+-scan-d09-169-n800
 OpenBabel09191813583D

  9  7  0  0  0  0  0  0  0  0999 V2000
   -0.1566    0.2276    0.1761 C   0  0  0  0  0  0  0  0  0  0  0  0
    0.3318    0.4018   -0.7835 H   0  0  0  0  0  0  0  0  0  0  0  0
   -1.1853   -0.1335    0.1443 H   0  0  0  0  0  0  0  0  0  0  0  0
    0.4978   -2.1476   -0.1243 N   0  0  0  0  0  0  0  0  0  0  0  0
    0.7868   -3.2049   -0.2616 N   0  0  0  0  0  0  0  0  0  0  0  0
    0.4253    0.6840    1.3908 C   0  0  0  0  0  0  0  0  0  0  0  0
    1.5085    0.8226    1.3912 H   0  0  0  0  0  0  0  0  0  0  0  0
   -0.0081    1.7301    1.2857 H   0  0  0  0  0  0  0  0  0  0  0  0
   -0.0020    0.2896    2.3151 H   0  0  0  0  0  0  0  0  0  0  0  0
  1  6  1  0  0  0  0
  2  1  1  0  0  0  0
  3  1  1  0  0  0  0
  5  4  3  0  0  0  0
  6  7  1  0  0  0  0
  6  9  1  0  0  0  0
  8  6  1  0  0  0  0
M  RAD  1   1   2
M  END
