Coordinates from ORCA-job C2H5-N2+-scan-d09-169-n800
 OpenBabel09191813583D

  9  7  0  0  0  0  0  0  0  0999 V2000
    0.2854    0.2152    0.8914 C   0  0  0  0  0  0  0  0  0  0  0  0
    1.0277    0.0146    0.1186 H   0  0  0  0  0  0  0  0  0  0  0  0
   -0.4992   -0.5243    1.0523 H   0  0  0  0  0  0  0  0  0  0  0  0
    0.2961   -3.2083   -1.0665 N   0  0  0  0  0  0  0  0  0  0  0  0
    0.3161   -4.1798   -1.5930 N   0  0  0  0  0  0  0  0  0  0  0  0
    0.3453    1.3676    1.6546 C   0  0  0  0  0  0  0  0  0  0  0  0
    1.1442    2.0941    1.5052 H   0  0  0  0  0  0  0  0  0  0  0  0
   -0.3310    1.3366    0.5305 H   0  0  0  0  0  0  0  0  0  0  0  0
   -0.3862    1.5540    2.4409 H   0  0  0  0  0  0  0  0  0  0  0  0
  1  3  1  0  0  0  0
  1  6  1  0  0  0  0
  2  1  1  0  0  0  0
  5  4  3  0  0  0  0
  6  9  1  0  0  0  0
  7  6  1  0  0  0  0
  8  6  1  0  0  0  0
M  RAD  1   1   2
M  END
