Coordinates from ORCA-job C2H5-N2+-scan-d09-169-n800
 OpenBabel09191813583D

  9  7  0  0  0  0  0  0  0  0999 V2000
    0.3012    0.4157    1.0317 C   0  0  0  0  0  0  0  0  0  0  0  0
    1.0581    0.2083    0.2749 H   0  0  0  0  0  0  0  0  0  0  0  0
   -0.4714   -0.3326    1.2098 H   0  0  0  0  0  0  0  0  0  0  0  0
    0.2934   -3.9322   -1.4879 N   0  0  0  0  0  0  0  0  0  0  0  0
    0.3087   -4.9012   -2.0194 N   0  0  0  0  0  0  0  0  0  0  0  0
    0.3329    1.5899    1.7630 C   0  0  0  0  0  0  0  0  0  0  0  0
    1.1186    2.3277    1.5990 H   0  0  0  0  0  0  0  0  0  0  0  0
   -0.3314    1.5075    0.6284 H   0  0  0  0  0  0  0  0  0  0  0  0
   -0.4118    1.7864    2.5345 H   0  0  0  0  0  0  0  0  0  0  0  0
  1  3  1  0  0  0  0
  1  6  1  0  0  0  0
  2  1  1  0  0  0  0
  5  4  3  0  0  0  0
  6  9  1  0  0  0  0
  7  6  1  0  0  0  0
  8  6  1  0  0  0  0
M  RAD  1   1   2
M  END
