Coordinates from ORCA-job C2H5-N2+-scan-d09-169-n800
 OpenBabel09191813583D

  9  7  0  0  0  0  0  0  0  0999 V2000
    0.3038    2.1484    2.0363 C   0  0  0  0  0  0  0  0  0  0  0  0
    1.0753    1.9306    1.2974 H   0  0  0  0  0  0  0  0  0  0  0  0
   -0.4549    1.3909    2.2342 H   0  0  0  0  0  0  0  0  0  0  0  0
    0.3659  -10.0363   -4.8912 N   0  0  0  0  0  0  0  0  0  0  0  0
    0.3312  -10.9714   -5.4798 N   0  0  0  0  0  0  0  0  0  0  0  0
    0.3034    3.3477    2.7266 C   0  0  0  0  0  0  0  0  0  0  0  0
    1.0749    4.0961    2.5443 H   0  0  0  0  0  0  0  0  0  0  0  0
   -0.3458    3.2072    1.5852 H   0  0  0  0  0  0  0  0  0  0  0  0
   -0.4553    3.5564    3.4811 H   0  0  0  0  0  0  0  0  0  0  0  0
  1  3  1  0  0  0  0
  1  6  1  0  0  0  0
  2  1  1  0  0  0  0
  5  4  3  0  0  0  0
  6  9  1  0  0  0  0
  7  6  1  0  0  0  0
  8  6  1  0  0  0  0
M  RAD  1   1   2
M  END
