Coordinates from ORCA-job C2H5-N2+-scan-d09-169-n800
 OpenBabel09191813583D

  9  7  0  0  0  0  0  0  0  0999 V2000
    0.3225    1.2055    1.5205 C   0  0  0  0  0  0  0  0  0  0  0  0
    1.1005    0.9855    0.7891 H   0  0  0  0  0  0  0  0  0  0  0  0
   -0.4297    0.4430    1.7241 H   0  0  0  0  0  0  0  0  0  0  0  0
    0.3064   -6.7271   -3.0806 N   0  0  0  0  0  0  0  0  0  0  0  0
    0.3175   -7.6963   -3.6120 N   0  0  0  0  0  0  0  0  0  0  0  0
    0.3055    2.4141    2.1941 C   0  0  0  0  0  0  0  0  0  0  0  0
    1.0706    3.1678    2.0062 H   0  0  0  0  0  0  0  0  0  0  0  0
   -0.3352    2.2519    1.0513 H   0  0  0  0  0  0  0  0  0  0  0  0
   -0.4597    2.6252    2.9413 H   0  0  0  0  0  0  0  0  0  0  0  0
  1  3  1  0  0  0  0
  1  6  1  0  0  0  0
  2  1  1  0  0  0  0
  5  4  3  0  0  0  0
  6  9  1  0  0  0  0
  7  6  1  0  0  0  0
  8  6  1  0  0  0  0
M  RAD  1   1   2
M  END
