Coordinates from ORCA-job C2H5-N2+-scan-d09-169-n800
 OpenBabel09191813583D

  9  8  0  0  0  0  0  0  0  0999 V2000
   -0.0417   -0.2968    0.0614 C   0  0  0  0  0  0  0  0  0  0  0  0
    0.2824    0.2716   -0.8356 H   0  0  0  0  0  0  0  0  0  0  0  0
   -1.1500   -0.2337    0.0405 H   0  0  0  0  0  0  0  0  0  0  0  0
    0.3214   -1.3564    0.0438 N   0  0  0  0  0  0  0  0  0  0  0  0
    0.6983   -2.4090    0.0528 N   0  0  0  0  0  0  0  0  0  0  0  0
    0.4487    0.5351    1.3431 C   0  0  0  0  0  0  0  0  0  0  0  0
    1.5391    0.5705    1.3453 H   0  0  0  0  0  0  0  0  0  0  0  0
    0.0312    1.5366    1.2383 H   0  0  0  0  0  0  0  0  0  0  0  0
    0.0690    0.0518    2.2445 H   0  0  0  0  0  0  0  0  0  0  0  0
  1  6  1  0  0  0  0
  2  1  1  0  0  0  0
  3  1  1  0  0  0  0
  4  5  1  0  0  0  0
  4  1  1  0  0  0  0
  6  7  1  0  0  0  0
  6  9  1  0  0  0  0
  8  6  1  0  0  0  0
M  RAD  2   4   2   5   3
M  END
