Coordinates from ORCA-job C2H5-N2+-scan-d09-169-n800
 OpenBabel09191813583D

  9  7  0  0  0  0  0  0  0  0999 V2000
    0.3104    0.6006    1.1526 C   0  0  0  0  0  0  0  0  0  0  0  0
    1.0754    0.3885    0.4054 H   0  0  0  0  0  0  0  0  0  0  0  0
   -0.4545   -0.1533    1.3404 H   0  0  0  0  0  0  0  0  0  0  0  0
    0.2942   -4.5916   -1.8669 N   0  0  0  0  0  0  0  0  0  0  0  0
    0.3076   -5.5599   -2.4000 N   0  0  0  0  0  0  0  0  0  0  0  0
    0.3240    1.7880    1.8629 C   0  0  0  0  0  0  0  0  0  0  0  0
    1.1018    2.5320    1.6901 H   0  0  0  0  0  0  0  0  0  0  0  0
   -0.3319    1.6752    0.7242 H   0  0  0  0  0  0  0  0  0  0  0  0
   -0.4286    1.9902    2.6253 H   0  0  0  0  0  0  0  0  0  0  0  0
  1  3  1  0  0  0  0
  1  6  1  0  0  0  0
  2  1  1  0  0  0  0
  5  4  3  0  0  0  0
  6  9  1  0  0  0  0
  7  6  1  0  0  0  0
  8  6  1  0  0  0  0
M  RAD  1   1   2
M  END
