Coordinates from ORCA-job C2H5-N2+-scan-d09-169-n800
 OpenBabel09191813583D

  9  7  0  0  0  0  0  0  0  0999 V2000
    0.3053    2.0135    1.9582 C   0  0  0  0  0  0  0  0  0  0  0  0
    1.0769    1.7980    1.2187 H   0  0  0  0  0  0  0  0  0  0  0  0
   -0.4534    1.2553    2.1537 H   0  0  0  0  0  0  0  0  0  0  0  0
    0.3574   -9.5514   -4.6413 N   0  0  0  0  0  0  0  0  0  0  0  0
    0.3296  -10.5065   -5.1973 N   0  0  0  0  0  0  0  0  0  0  0  0
    0.3048    3.2106    2.6522 C   0  0  0  0  0  0  0  0  0  0  0  0
    1.0762    3.9597    2.4723 H   0  0  0  0  0  0  0  0  0  0  0  0
   -0.3443    3.0736    1.5103 H   0  0  0  0  0  0  0  0  0  0  0  0
   -0.4541    3.4170    3.4073 H   0  0  0  0  0  0  0  0  0  0  0  0
  1  3  1  0  0  0  0
  1  6  1  0  0  0  0
  2  1  1  0  0  0  0
  5  4  3  0  0  0  0
  6  9  1  0  0  0  0
  7  6  1  0  0  0  0
  8  6  1  0  0  0  0
M  RAD  1   1   2
M  END
