Coordinates from ORCA-job C2H5-N2+-scan-d09-169-n800
 OpenBabel09191813583D

  9  7  0  0  0  0  0  0  0  0999 V2000
    0.2871    0.2336    0.9048 C   0  0  0  0  0  0  0  0  0  0  0  0
    1.0311    0.0321    0.1338 H   0  0  0  0  0  0  0  0  0  0  0  0
   -0.4964   -0.5068    1.0678 H   0  0  0  0  0  0  0  0  0  0  0  0
    0.2957   -3.2752   -1.1057 N   0  0  0  0  0  0  0  0  0  0  0  0
    0.3151   -4.2463   -1.6331 N   0  0  0  0  0  0  0  0  0  0  0  0
    0.3441    1.3884    1.6645 C   0  0  0  0  0  0  0  0  0  0  0  0
    1.1416    2.1161    1.5134 H   0  0  0  0  0  0  0  0  0  0  0  0
   -0.3311    1.3515    0.5391 H   0  0  0  0  0  0  0  0  0  0  0  0
   -0.3889    1.5761    2.4493 H   0  0  0  0  0  0  0  0  0  0  0  0
  1  3  1  0  0  0  0
  1  6  1  0  0  0  0
  2  1  1  0  0  0  0
  5  4  3  0  0  0  0
  6  9  1  0  0  0  0
  7  6  1  0  0  0  0
  8  6  1  0  0  0  0
M  RAD  1   1   2
M  END
