Coordinates from ORCA-job C2H5-N2+-scan-d09-169-n800
 OpenBabel09191813583D

  9  7  0  0  0  0  0  0  0  0999 V2000
    0.3012    2.2346    2.0817 C   0  0  0  0  0  0  0  0  0  0  0  0
    1.0714    2.0177    1.3413 H   0  0  0  0  0  0  0  0  0  0  0  0
   -0.4587    1.4780    2.2781 H   0  0  0  0  0  0  0  0  0  0  0  0
    0.3692  -10.3365   -5.0574 N   0  0  0  0  0  0  0  0  0  0  0  0
    0.3352  -11.2707   -5.6473 N   0  0  0  0  0  0  0  0  0  0  0  0
    0.3039    3.4317    2.7759 C   0  0  0  0  0  0  0  0  0  0  0  0
    1.0766    4.1792    2.5951 H   0  0  0  0  0  0  0  0  0  0  0  0
   -0.3469    3.2961    1.6348 H   0  0  0  0  0  0  0  0  0  0  0  0
   -0.4535    3.6395    3.5319 H   0  0  0  0  0  0  0  0  0  0  0  0
  1  3  1  0  0  0  0
  1  6  1  0  0  0  0
  2  1  1  0  0  0  0
  5  4  3  0  0  0  0
  6  9  1  0  0  0  0
  7  6  1  0  0  0  0
  8  6  1  0  0  0  0
M  RAD  1   1   2
M  END
