Coordinates from ORCA-job C2H5-N2+-scan-d09-169-n800
 OpenBabel09191813583D

  9  7  0  0  0  0  0  0  0  0999 V2000
    0.3073    0.5286    1.1063 C   0  0  0  0  0  0  0  0  0  0  0  0
    1.0696    0.3182    0.3558 H   0  0  0  0  0  0  0  0  0  0  0  0
   -0.4602   -0.2233    1.2907 H   0  0  0  0  0  0  0  0  0  0  0  0
    0.2936   -4.3357   -1.7202 N   0  0  0  0  0  0  0  0  0  0  0  0
    0.3076   -5.3041   -2.2529 N   0  0  0  0  0  0  0  0  0  0  0  0
    0.3272    1.7115    1.8239 C   0  0  0  0  0  0  0  0  0  0  0  0
    1.1077    2.4535    1.6542 H   0  0  0  0  0  0  0  0  0  0  0  0
   -0.3317    1.6092    0.6866 H   0  0  0  0  0  0  0  0  0  0  0  0
   -0.4227    1.9117    2.5895 H   0  0  0  0  0  0  0  0  0  0  0  0
  1  3  1  0  0  0  0
  1  6  1  0  0  0  0
  2  1  1  0  0  0  0
  5  4  3  0  0  0  0
  6  9  1  0  0  0  0
  7  6  1  0  0  0  0
  8  6  1  0  0  0  0
M  RAD  1   1   2
M  END
