Coordinates from ORCA-job C2H5-N2+-scan-d09-169-n800
 OpenBabel09191813583D

  9  8  0  0  0  0  0  0  0  0999 V2000
   -0.1358    0.0518    0.1086 C   0  0  0  0  0  0  0  0  0  0  0  0
    0.3042    0.3338   -0.8482 H   0  0  0  0  0  0  0  0  0  0  0  0
   -1.1968   -0.1958    0.0699 H   0  0  0  0  0  0  0  0  0  0  0  0
    0.4280   -1.7598   -0.0147 N   0  0  0  0  0  0  0  0  0  0  0  0
    0.7708   -2.8079   -0.0589 N   0  0  0  0  0  0  0  0  0  0  0  0
    0.4288    0.6005    1.3483 C   0  0  0  0  0  0  0  0  0  0  0  0
    1.5184    0.6643    1.3494 H   0  0  0  0  0  0  0  0  0  0  0  0
    0.0459    1.6418    1.3229 H   0  0  0  0  0  0  0  0  0  0  0  0
    0.0350    0.1409    2.2567 H   0  0  0  0  0  0  0  0  0  0  0  0
  1  6  1  0  0  0  0
  2  1  1  0  0  0  0
  3  1  1  0  0  0  0
  4  1  1  0  0  0  0
  5  4  1  0  0  0  0
  6  7  1  0  0  0  0
  6  9  1  0  0  0  0
  8  6  1  0  0  0  0
M  RAD  2   4   2   5   3
M  END
