Coordinates from ORCA-job C2H5-N2+-scan-d09-169-n800
 OpenBabel09191813583D

  9  7  0  0  0  0  0  0  0  0999 V2000
    0.3190    0.9172    1.3488 C   0  0  0  0  0  0  0  0  0  0  0  0
    1.0924    0.7000    0.6118 H   0  0  0  0  0  0  0  0  0  0  0  0
   -0.4377    0.1577    1.5468 H   0  0  0  0  0  0  0  0  0  0  0  0
    0.2994   -5.7122   -2.5055 N   0  0  0  0  0  0  0  0  0  0  0  0
    0.3114   -6.6807   -3.0383 N   0  0  0  0  0  0  0  0  0  0  0  0
    0.3129    2.1185    2.0355 C   0  0  0  0  0  0  0  0  0  0  0  0
    1.0824    2.8689    1.8530 H   0  0  0  0  0  0  0  0  0  0  0  0
   -0.3334    1.9736    0.8938 H   0  0  0  0  0  0  0  0  0  0  0  0
   -0.4479    2.3265    2.7881 H   0  0  0  0  0  0  0  0  0  0  0  0
  1  3  1  0  0  0  0
  1  6  1  0  0  0  0
  2  1  1  0  0  0  0
  5  4  3  0  0  0  0
  6  9  1  0  0  0  0
  7  6  1  0  0  0  0
  8  6  1  0  0  0  0
M  RAD  1   1   2
M  END
