Coordinates from ORCA-job C2H5-N2+-scan-d09-169-n800
 OpenBabel09191813583D

  9  7  0  0  0  0  0  0  0  0999 V2000
    0.3160    0.7795    1.2647 C   0  0  0  0  0  0  0  0  0  0  0  0
    1.0865    0.5641    0.5240 H   0  0  0  0  0  0  0  0  0  0  0  0
   -0.4437    0.0220    1.4590 H   0  0  0  0  0  0  0  0  0  0  0  0
    0.2967   -5.2258   -2.2289 N   0  0  0  0  0  0  0  0  0  0  0  0
    0.3091   -6.1940   -2.7621 N   0  0  0  0  0  0  0  0  0  0  0  0
    0.3172    1.9757    1.9602 C   0  0  0  0  0  0  0  0  0  0  0  0
    1.0898    2.7238    1.7812 H   0  0  0  0  0  0  0  0  0  0  0  0
   -0.3327    1.8426    0.8195 H   0  0  0  0  0  0  0  0  0  0  0  0
   -0.4406    2.1817    2.7164 H   0  0  0  0  0  0  0  0  0  0  0  0
  1  3  1  0  0  0  0
  1  6  1  0  0  0  0
  2  1  1  0  0  0  0
  5  4  3  0  0  0  0
  6  9  1  0  0  0  0
  7  6  1  0  0  0  0
  8  6  1  0  0  0  0
M  RAD  1   1   2
M  END
