Coordinates from ORCA-job C2H5-N2+-scan-d09-169-n800
 OpenBabel09191813583D

  9  7  0  0  0  0  0  0  0  0999 V2000
    0.3135    0.6879    1.2079 C   0  0  0  0  0  0  0  0  0  0  0  0
    1.0814    0.4741    0.4641 H   0  0  0  0  0  0  0  0  0  0  0  0
   -0.4487   -0.0678    1.3991 H   0  0  0  0  0  0  0  0  0  0  0  0
    0.2952   -4.9018   -2.0442 N   0  0  0  0  0  0  0  0  0  0  0  0
    0.3081   -5.8700   -2.5774 N   0  0  0  0  0  0  0  0  0  0  0  0
    0.3205    1.8801    1.9103 C   0  0  0  0  0  0  0  0  0  0  0  0
    1.0955    2.6263    1.7343 H   0  0  0  0  0  0  0  0  0  0  0  0
   -0.3322    1.7565    0.7705 H   0  0  0  0  0  0  0  0  0  0  0  0
   -0.4349    2.0843    2.6695 H   0  0  0  0  0  0  0  0  0  0  0  0
  1  3  1  0  0  0  0
  1  6  1  0  0  0  0
  2  1  1  0  0  0  0
  5  4  3  0  0  0  0
  6  9  1  0  0  0  0
  7  6  1  0  0  0  0
  8  6  1  0  0  0  0
M  RAD  1   1   2
M  END
