Coordinates from ORCA-job C2H5-N2+-scan-d09-169-n800
 OpenBabel09191813583D

  9  7  0  0  0  0  0  0  0  0999 V2000
    0.2857    0.2189    0.8941 C   0  0  0  0  0  0  0  0  0  0  0  0
    1.0284    0.0180    0.1217 H   0  0  0  0  0  0  0  0  0  0  0  0
   -0.4987   -0.5208    1.0554 H   0  0  0  0  0  0  0  0  0  0  0  0
    0.2960   -3.2217   -1.0743 N   0  0  0  0  0  0  0  0  0  0  0  0
    0.3159   -4.1931   -1.6011 N   0  0  0  0  0  0  0  0  0  0  0  0
    0.3451    1.3718    1.6566 C   0  0  0  0  0  0  0  0  0  0  0  0
    1.1437    2.0985    1.5068 H   0  0  0  0  0  0  0  0  0  0  0  0
   -0.3310    1.3396    0.5322 H   0  0  0  0  0  0  0  0  0  0  0  0
   -0.3867    1.5584    2.4426 H   0  0  0  0  0  0  0  0  0  0  0  0
  1  3  1  0  0  0  0
  1  6  1  0  0  0  0
  2  1  1  0  0  0  0
  5  4  3  0  0  0  0
  6  9  1  0  0  0  0
  7  6  1  0  0  0  0
  8  6  1  0  0  0  0
M  RAD  1   1   2
M  END
