Coordinates from ORCA-job C2H5-N2+-scan-d09-169-n800
 OpenBabel09191813583D

  9  8  0  0  0  0  0  0  0  0999 V2000
   -0.1019   -0.0920    0.0811 C   0  0  0  0  0  0  0  0  0  0  0  0
    0.2860    0.3048   -0.8620 H   0  0  0  0  0  0  0  0  0  0  0  0
   -1.1884   -0.2154    0.0398 H   0  0  0  0  0  0  0  0  0  0  0  0
    0.3840   -1.5741    0.0206 N   0  0  0  0  0  0  0  0  0  0  0  0
    0.7473   -2.6164    0.0133 N   0  0  0  0  0  0  0  0  0  0  0  0
    0.4346    0.5677    1.3389 C   0  0  0  0  0  0  0  0  0  0  0  0
    1.5253    0.6089    1.3482 H   0  0  0  0  0  0  0  0  0  0  0  0
    0.0534    1.5951    1.3083 H   0  0  0  0  0  0  0  0  0  0  0  0
    0.0579    0.0911    2.2458 H   0  0  0  0  0  0  0  0  0  0  0  0
  1  6  1  0  0  0  0
  2  1  1  0  0  0  0
  3  1  1  0  0  0  0
  4  1  1  0  0  0  0
  5  4  1  0  0  0  0
  6  7  1  0  0  0  0
  6  9  1  0  0  0  0
  8  6  1  0  0  0  0
M  RAD  2   4   2   5   3
M  END
