Coordinates from ORCA-job C2H5-N2+-scan-d09-169-n800
 OpenBabel09191813583D

  9  7  0  0  0  0  0  0  0  0999 V2000
    0.3088    0.5627    1.1283 C   0  0  0  0  0  0  0  0  0  0  0  0
    1.0725    0.3514    0.3794 H   0  0  0  0  0  0  0  0  0  0  0  0
   -0.4574   -0.1902    1.3144 H   0  0  0  0  0  0  0  0  0  0  0  0
    0.2938   -4.4569   -1.7897 N   0  0  0  0  0  0  0  0  0  0  0  0
    0.3075   -5.4252   -2.3226 N   0  0  0  0  0  0  0  0  0  0  0  0
    0.3256    1.7478    1.8423 C   0  0  0  0  0  0  0  0  0  0  0  0
    1.1049    2.4908    1.6711 H   0  0  0  0  0  0  0  0  0  0  0  0
   -0.3318    1.6403    0.7043 H   0  0  0  0  0  0  0  0  0  0  0  0
   -0.4256    1.9490    2.6064 H   0  0  0  0  0  0  0  0  0  0  0  0
  1  3  1  0  0  0  0
  1  6  1  0  0  0  0
  2  1  1  0  0  0  0
  5  4  3  0  0  0  0
  6  9  1  0  0  0  0
  7  6  1  0  0  0  0
  8  6  1  0  0  0  0
M  RAD  1   1   2
M  END
