Coordinates from ORCA-job C2H5-N2+-scan-d09-169-n800
 OpenBabel09191813583D

  9  7  0  0  0  0  0  0  0  0999 V2000
   -0.0847    0.4263    0.4083 C   0  0  0  0  0  0  0  0  0  0  0  0
    0.4545    0.5080   -0.5354 H   0  0  0  0  0  0  0  0  0  0  0  0
   -1.0739   -0.0312    0.3993 H   0  0  0  0  0  0  0  0  0  0  0  0
    0.5315   -2.9179   -0.5136 N   0  0  0  0  0  0  0  0  0  0  0  0
    0.7249   -3.9670   -0.8026 N   0  0  0  0  0  0  0  0  0  0  0  0
    0.4763    0.8823    1.5886 C   0  0  0  0  0  0  0  0  0  0  0  0
    1.4763    1.3159    1.5990 H   0  0  0  0  0  0  0  0  0  0  0  0
   -0.2526    1.6773    0.8554 H   0  0  0  0  0  0  0  0  0  0  0  0
   -0.0540    0.7760    2.5349 H   0  0  0  0  0  0  0  0  0  0  0  0
  1  6  1  0  0  0  0
  2  1  1  0  0  0  0
  3  1  1  0  0  0  0
  5  4  3  0  0  0  0
  6  7  1  0  0  0  0
  6  9  1  0  0  0  0
  8  6  1  0  0  0  0
M  RAD  1   1   2
M  END
