Coordinates from ORCA-job C2H5-N2+-scan-d09-169-n800
 OpenBabel09191813583D

  9  7  0  0  0  0  0  0  0  0999 V2000
   -0.1419    0.0879    0.1196 C   0  0  0  0  0  0  0  0  0  0  0  0
    0.3104    0.3427   -0.8389 H   0  0  0  0  0  0  0  0  0  0  0  0
   -1.1956   -0.1887    0.0822 H   0  0  0  0  0  0  0  0  0  0  0  0
    0.4408   -1.8210   -0.0289 N   0  0  0  0  0  0  0  0  0  0  0  0
    0.7737   -2.8717   -0.0910 N   0  0  0  0  0  0  0  0  0  0  0  0
    0.4277    0.6125    1.3535 C   0  0  0  0  0  0  0  0  0  0  0  0
    1.5167    0.6883    1.3533 H   0  0  0  0  0  0  0  0  0  0  0  0
    0.0389    1.6567    1.3202 H   0  0  0  0  0  0  0  0  0  0  0  0
    0.0275    0.1629    2.2641 H   0  0  0  0  0  0  0  0  0  0  0  0
  1  6  1  0  0  0  0
  2  1  1  0  0  0  0
  3  1  1  0  0  0  0
  5  4  3  0  0  0  0
  6  9  1  0  0  0  0
  7  6  1  0  0  0  0
  8  6  1  0  0  0  0
M  RAD  1   1   2
M  END
