Coordinates from ORCA-job C2H5-N2+-scan-d09-169-n800
 OpenBabel09191813583D

  9  7  0  0  0  0  0  0  0  0999 V2000
    0.3064    1.9282    1.9102 C   0  0  0  0  0  0  0  0  0  0  0  0
    1.0781    1.7131    1.1707 H   0  0  0  0  0  0  0  0  0  0  0  0
   -0.4521    1.1698    2.1052 H   0  0  0  0  0  0  0  0  0  0  0  0
    0.3502   -9.2491   -4.4798 N   0  0  0  0  0  0  0  0  0  0  0  0
    0.3303  -10.2110   -5.0242 N   0  0  0  0  0  0  0  0  0  0  0  0
    0.3055    3.1251    2.6046 C   0  0  0  0  0  0  0  0  0  0  0  0
    1.0768    3.8743    2.4251 H   0  0  0  0  0  0  0  0  0  0  0  0
   -0.3434    2.9883    1.4626 H   0  0  0  0  0  0  0  0  0  0  0  0
   -0.4535    3.3310    3.3596 H   0  0  0  0  0  0  0  0  0  0  0  0
  1  3  1  0  0  0  0
  1  6  1  0  0  0  0
  2  1  1  0  0  0  0
  5  4  3  0  0  0  0
  6  9  1  0  0  0  0
  7  6  1  0  0  0  0
  8  6  1  0  0  0  0
M  RAD  1   1   2
M  END
