Coordinates from ORCA-job C2H5-N2+-scan-d09-169-n800
 OpenBabel09191813583D

  9  7  0  0  0  0  0  0  0  0999 V2000
    0.3177    1.6369    1.7606 C   0  0  0  0  0  0  0  0  0  0  0  0
    1.0953    1.4179    1.0285 H   0  0  0  0  0  0  0  0  0  0  0  0
   -0.4349    0.8746    1.9631 H   0  0  0  0  0  0  0  0  0  0  0  0
    0.3247   -8.2347   -3.9275 N   0  0  0  0  0  0  0  0  0  0  0  0
    0.3280   -9.2052   -4.4567 N   0  0  0  0  0  0  0  0  0  0  0  0
    0.3021    2.8440    2.4370 C   0  0  0  0  0  0  0  0  0  0  0  0
    1.0676    3.5976    2.2503 H   0  0  0  0  0  0  0  0  0  0  0  0
   -0.3393    2.6843    1.2938 H   0  0  0  0  0  0  0  0  0  0  0  0
   -0.4627    3.0542    3.1849 H   0  0  0  0  0  0  0  0  0  0  0  0
  1  3  1  0  0  0  0
  1  6  1  0  0  0  0
  2  1  1  0  0  0  0
  5  4  3  0  0  0  0
  6  9  1  0  0  0  0
  7  6  1  0  0  0  0
  8  6  1  0  0  0  0
M  RAD  1   1   2
M  END
