Coordinates from ORCA-job C2H5-N2+-scan-d09-169-n800
 OpenBabel09191813583D

  9  7  0  0  0  0  0  0  0  0999 V2000
    0.2958    2.6198    2.2945 C   0  0  0  0  0  0  0  0  0  0  0  0
    1.0649    2.4040    1.5526 H   0  0  0  0  0  0  0  0  0  0  0  0
   -0.4652    1.8638    2.4893 H   0  0  0  0  0  0  0  0  0  0  0  0
    0.3845  -11.6844   -5.8071 N   0  0  0  0  0  0  0  0  0  0  0  0
    0.3483  -12.6149   -6.4028 N   0  0  0  0  0  0  0  0  0  0  0  0
    0.3012    3.8147    2.9925 C   0  0  0  0  0  0  0  0  0  0  0  0
    1.0750    4.5615    2.8133 H   0  0  0  0  0  0  0  0  0  0  0  0
   -0.3509    3.6838    1.8516 H   0  0  0  0  0  0  0  0  0  0  0  0
   -0.4551    4.0213    3.7500 H   0  0  0  0  0  0  0  0  0  0  0  0
  1  3  1  0  0  0  0
  1  6  1  0  0  0  0
  2  1  1  0  0  0  0
  5  4  3  0  0  0  0
  6  9  1  0  0  0  0
  7  6  1  0  0  0  0
  8  6  1  0  0  0  0
M  RAD  1   1   2
M  END
