Coordinates from ORCA-job C2H5-N2+-scan-d09-169-n800
 OpenBabel09191813583D

  9  7  0  0  0  0  0  0  0  0999 V2000
    0.3196    0.9556    1.3719 C   0  0  0  0  0  0  0  0  0  0  0  0
    1.0938    0.7379    0.6358 H   0  0  0  0  0  0  0  0  0  0  0  0
   -0.4363    0.1956    1.5708 H   0  0  0  0  0  0  0  0  0  0  0  0
    0.3002   -5.8474   -2.5823 N   0  0  0  0  0  0  0  0  0  0  0  0
    0.3121   -6.8160   -3.1149 N   0  0  0  0  0  0  0  0  0  0  0  0
    0.3118    2.1581    2.0565 C   0  0  0  0  0  0  0  0  0  0  0  0
    1.0806    2.9090    1.8732 H   0  0  0  0  0  0  0  0  0  0  0  0
   -0.3336    2.0104    0.9147 H   0  0  0  0  0  0  0  0  0  0  0  0
   -0.4498    2.3666    2.8083 H   0  0  0  0  0  0  0  0  0  0  0  0
  1  3  1  0  0  0  0
  1  6  1  0  0  0  0
  2  1  1  0  0  0  0
  5  4  3  0  0  0  0
  6  9  1  0  0  0  0
  7  6  1  0  0  0  0
  8  6  1  0  0  0  0
M  RAD  1   1   2
M  END
