Coordinates from ORCA-job C2H5-N2+-scan-d09-169-n800
 OpenBabel09191813583D

  9  7  0  0  0  0  0  0  0  0999 V2000
    0.3233    1.3327    1.5951 C   0  0  0  0  0  0  0  0  0  0  0  0
    1.1027    1.1119    0.8655 H   0  0  0  0  0  0  0  0  0  0  0  0
   -0.4274    0.5693    1.8005 H   0  0  0  0  0  0  0  0  0  0  0  0
    0.3098   -7.1740   -3.3333 N   0  0  0  0  0  0  0  0  0  0  0  0
    0.3206   -8.1436   -3.8641 N   0  0  0  0  0  0  0  0  0  0  0  0
    0.3029    2.5436    2.2644 C   0  0  0  0  0  0  0  0  0  0  0  0
    1.0664    3.2983    2.0748 H   0  0  0  0  0  0  0  0  0  0  0  0
   -0.3361    2.3759    1.1213 H   0  0  0  0  0  0  0  0  0  0  0  0
   -0.4638    2.7557    3.0099 H   0  0  0  0  0  0  0  0  0  0  0  0
  1  3  1  0  0  0  0
  1  6  1  0  0  0  0
  2  1  1  0  0  0  0
  5  4  3  0  0  0  0
  6  9  1  0  0  0  0
  7  6  1  0  0  0  0
  8  6  1  0  0  0  0
M  RAD  1   1   2
M  END
