Coordinates from ORCA-job C2H5-N2+-scan-d09-169-n800
 OpenBabel09191813583D

  9  7  0  0  0  0  0  0  0  0999 V2000
    0.3017    2.2112    2.0690 C   0  0  0  0  0  0  0  0  0  0  0  0
    1.0721    1.9941    1.3288 H   0  0  0  0  0  0  0  0  0  0  0  0
   -0.4580    1.4544    2.2657 H   0  0  0  0  0  0  0  0  0  0  0  0
    0.3684  -10.2547   -5.0119 N   0  0  0  0  0  0  0  0  0  0  0  0
    0.3342  -11.1891   -5.6017 N   0  0  0  0  0  0  0  0  0  0  0  0
    0.3040    3.4086    2.7626 C   0  0  0  0  0  0  0  0  0  0  0  0
    1.0765    4.1563    2.5815 H   0  0  0  0  0  0  0  0  0  0  0  0
   -0.3466    3.2722    1.6214 H   0  0  0  0  0  0  0  0  0  0  0  0
   -0.4537    3.6166    3.5184 H   0  0  0  0  0  0  0  0  0  0  0  0
  1  3  1  0  0  0  0
  1  6  1  0  0  0  0
  2  1  1  0  0  0  0
  5  4  3  0  0  0  0
  6  9  1  0  0  0  0
  7  6  1  0  0  0  0
  8  6  1  0  0  0  0
M  RAD  1   1   2
M  END
