Coordinates from ORCA-job C2H5-N2+-scan-d09-169-n800
 OpenBabel09191813583D

  9  7  0  0  0  0  0  0  0  0999 V2000
    0.3123    0.6537    1.1863 C   0  0  0  0  0  0  0  0  0  0  0  0
    1.0792    0.4405    0.4413 H   0  0  0  0  0  0  0  0  0  0  0  0
   -0.4508   -0.1013    1.3763 H   0  0  0  0  0  0  0  0  0  0  0  0
    0.2948   -4.7804   -1.9749 N   0  0  0  0  0  0  0  0  0  0  0  0
    0.3078   -5.7486   -2.5081 N   0  0  0  0  0  0  0  0  0  0  0  0
    0.3218    1.8441    1.8917 C   0  0  0  0  0  0  0  0  0  0  0  0
    1.0979    2.5895    1.7169 H   0  0  0  0  0  0  0  0  0  0  0  0
   -0.3321    1.7245    0.7523 H   0  0  0  0  0  0  0  0  0  0  0  0
   -0.4325    2.0475    2.6521 H   0  0  0  0  0  0  0  0  0  0  0  0
  1  3  1  0  0  0  0
  1  6  1  0  0  0  0
  2  1  1  0  0  0  0
  5  4  3  0  0  0  0
  6  9  1  0  0  0  0
  7  6  1  0  0  0  0
  8  6  1  0  0  0  0
M  RAD  1   1   2
M  END
