Coordinates from ORCA-job C2H5-N2+-scan-d09-169-n800
 OpenBabel09191813583D

  9  7  0  0  0  0  0  0  0  0999 V2000
    0.3049    2.0444    1.9758 C   0  0  0  0  0  0  0  0  0  0  0  0
    1.0765    1.8286    1.2365 H   0  0  0  0  0  0  0  0  0  0  0  0
   -0.4537    1.2863    2.1717 H   0  0  0  0  0  0  0  0  0  0  0  0
    0.3601   -9.6618   -4.6992 N   0  0  0  0  0  0  0  0  0  0  0  0
    0.3293  -10.6134   -5.2610 N   0  0  0  0  0  0  0  0  0  0  0  0
    0.3045    3.2418    2.6693 C   0  0  0  0  0  0  0  0  0  0  0  0
    1.0759    3.9908    2.4891 H   0  0  0  0  0  0  0  0  0  0  0  0
   -0.3447    3.1043    1.5275 H   0  0  0  0  0  0  0  0  0  0  0  0
   -0.4544    3.4485    3.4243 H   0  0  0  0  0  0  0  0  0  0  0  0
  1  3  1  0  0  0  0
  1  6  1  0  0  0  0
  2  1  1  0  0  0  0
  5  4  3  0  0  0  0
  6  9  1  0  0  0  0
  7  6  1  0  0  0  0
  8  6  1  0  0  0  0
M  RAD  1   1   2
M  END
