Coordinates from ORCA-job C2H5-N2+-scan-d09-169-n800
 OpenBabel09191813583D

  9  7  0  0  0  0  0  0  0  0999 V2000
    0.3186    0.8981    1.3372 C   0  0  0  0  0  0  0  0  0  0  0  0
    1.0917    0.6811    0.5997 H   0  0  0  0  0  0  0  0  0  0  0  0
   -0.4384    0.1388    1.5347 H   0  0  0  0  0  0  0  0  0  0  0  0
    0.2990   -5.6446   -2.4671 N   0  0  0  0  0  0  0  0  0  0  0  0
    0.3110   -6.6131   -3.0000 N   0  0  0  0  0  0  0  0  0  0  0  0
    0.3134    2.0987    2.0250 C   0  0  0  0  0  0  0  0  0  0  0  0
    1.0834    2.8488    1.8429 H   0  0  0  0  0  0  0  0  0  0  0  0
   -0.3333    1.9553    0.8835 H   0  0  0  0  0  0  0  0  0  0  0  0
   -0.4470    2.3065    2.7781 H   0  0  0  0  0  0  0  0  0  0  0  0
  1  3  1  0  0  0  0
  1  6  1  0  0  0  0
  2  1  1  0  0  0  0
  5  4  3  0  0  0  0
  6  9  1  0  0  0  0
  7  6  1  0  0  0  0
  8  6  1  0  0  0  0
M  RAD  1   1   2
M  END
