Coordinates from ORCA-job C2H5-N2+-scan-d09-169-n800
 OpenBabel09191813583D

  9  7  0  0  0  0  0  0  0  0999 V2000
    0.2948    0.3224    0.9679 C   0  0  0  0  0  0  0  0  0  0  0  0
    1.0460    0.1178    0.2047 H   0  0  0  0  0  0  0  0  0  0  0  0
   -0.4828   -0.4223    1.1393 H   0  0  0  0  0  0  0  0  0  0  0  0
    0.2941   -3.5966   -1.2933 N   0  0  0  0  0  0  0  0  0  0  0  0
    0.3110   -4.5663   -1.8234 N   0  0  0  0  0  0  0  0  0  0  0  0
    0.3383    1.4877    1.7126 C   0  0  0  0  0  0  0  0  0  0  0  0
    1.1293    2.2210    1.5545 H   0  0  0  0  0  0  0  0  0  0  0  0
   -0.3312    1.4259    0.5817 H   0  0  0  0  0  0  0  0  0  0  0  0
   -0.4011    1.6802    2.4901 H   0  0  0  0  0  0  0  0  0  0  0  0
  1  3  1  0  0  0  0
  1  6  1  0  0  0  0
  2  1  1  0  0  0  0
  5  4  3  0  0  0  0
  6  9  1  0  0  0  0
  7  6  1  0  0  0  0
  8  6  1  0  0  0  0
M  RAD  1   1   2
M  END
