Coordinates from ORCA-job C2H5-N2+-scan-d09-169-n800
 OpenBabel09191813583D

  9  7  0  0  0  0  0  0  0  0999 V2000
    0.3104    1.7332    1.8038 C   0  0  0  0  0  0  0  0  0  0  0  0
    1.0835    1.5175    1.0660 H   0  0  0  0  0  0  0  0  0  0  0  0
   -0.4468    0.9738    2.0003 H   0  0  0  0  0  0  0  0  0  0  0  0
    0.3357   -8.5653   -4.1059 N   0  0  0  0  0  0  0  0  0  0  0  0
    0.3290   -9.5339   -4.6387 N   0  0  0  0  0  0  0  0  0  0  0  0
    0.3060    2.9322    2.4946 C   0  0  0  0  0  0  0  0  0  0  0  0
    1.0760    3.6826    2.3137 H   0  0  0  0  0  0  0  0  0  0  0  0
   -0.3411    2.7906    1.3522 H   0  0  0  0  0  0  0  0  0  0  0  0
   -0.4544    3.1388    3.2480 H   0  0  0  0  0  0  0  0  0  0  0  0
  1  3  1  0  0  0  0
  1  6  1  0  0  0  0
  2  1  1  0  0  0  0
  5  4  3  0  0  0  0
  6  9  1  0  0  0  0
  7  6  1  0  0  0  0
  8  6  1  0  0  0  0
M  RAD  1   1   2
M  END
