Coordinates from ORCA-job C2H5-N2+-scan-d09-169-n800
 OpenBabel09191813583D

  9  7  0  0  0  0  0  0  0  0999 V2000
    0.2923    0.2927    0.9471 C   0  0  0  0  0  0  0  0  0  0  0  0
    1.0413    0.0890    0.1815 H   0  0  0  0  0  0  0  0  0  0  0  0
   -0.4872   -0.4506    1.1160 H   0  0  0  0  0  0  0  0  0  0  0  0
    0.2946   -3.4894   -1.2309 N   0  0  0  0  0  0  0  0  0  0  0  0
    0.3122   -4.4595   -1.7603 N   0  0  0  0  0  0  0  0  0  0  0  0
    0.3402    1.4547    1.6965 C   0  0  0  0  0  0  0  0  0  0  0  0
    1.1333    2.1862    1.5406 H   0  0  0  0  0  0  0  0  0  0  0  0
   -0.3312    1.4006    0.5672 H   0  0  0  0  0  0  0  0  0  0  0  0
   -0.3972    1.6458    2.4763 H   0  0  0  0  0  0  0  0  0  0  0  0
  1  3  1  0  0  0  0
  1  6  1  0  0  0  0
  2  1  1  0  0  0  0
  5  4  3  0  0  0  0
  6  9  1  0  0  0  0
  7  6  1  0  0  0  0
  8  6  1  0  0  0  0
M  RAD  1   1   2
M  END
