Coordinates from ORCA-job C2H5-N2+-scan-d09-169-n800
 OpenBabel09191813583D

  9  7  0  0  0  0  0  0  0  0999 V2000
    0.3006    2.2697    2.1009 C   0  0  0  0  0  0  0  0  0  0  0  0
    1.0706    2.0529    1.3602 H   0  0  0  0  0  0  0  0  0  0  0  0
   -0.4596    1.5132    2.2971 H   0  0  0  0  0  0  0  0  0  0  0  0
    0.3704  -10.4592   -5.1252 N   0  0  0  0  0  0  0  0  0  0  0  0
    0.3366  -11.3928   -5.7163 N   0  0  0  0  0  0  0  0  0  0  0  0
    0.3038    3.4664    2.7956 C   0  0  0  0  0  0  0  0  0  0  0  0
    1.0767    4.2138    2.6150 H   0  0  0  0  0  0  0  0  0  0  0  0
   -0.3473    3.3315    1.6546 H   0  0  0  0  0  0  0  0  0  0  0  0
   -0.4535    3.6741    3.5519 H   0  0  0  0  0  0  0  0  0  0  0  0
  1  3  1  0  0  0  0
  1  6  1  0  0  0  0
  2  1  1  0  0  0  0
  5  4  3  0  0  0  0
  6  9  1  0  0  0  0
  7  6  1  0  0  0  0
  8  6  1  0  0  0  0
M  RAD  1   1   2
M  END
