Coordinates from ORCA-job C2H5-N2+-scan-d09-169-n800
 OpenBabel09191813583D

  9  7  0  0  0  0  0  0  0  0999 V2000
    0.2913    0.2816    0.9392 C   0  0  0  0  0  0  0  0  0  0  0  0
    1.0394    0.0783    0.1727 H   0  0  0  0  0  0  0  0  0  0  0  0
   -0.4889   -0.4612    1.1071 H   0  0  0  0  0  0  0  0  0  0  0  0
    0.2948   -3.4492   -1.2075 N   0  0  0  0  0  0  0  0  0  0  0  0
    0.3127   -4.4194   -1.7365 N   0  0  0  0  0  0  0  0  0  0  0  0
    0.3410    1.4423    1.6905 C   0  0  0  0  0  0  0  0  0  0  0  0
    1.1348    2.1732    1.5354 H   0  0  0  0  0  0  0  0  0  0  0  0
   -0.3312    1.3912    0.5618 H   0  0  0  0  0  0  0  0  0  0  0  0
   -0.3957    1.6329    2.4712 H   0  0  0  0  0  0  0  0  0  0  0  0
  1  3  1  0  0  0  0
  1  6  1  0  0  0  0
  2  1  1  0  0  0  0
  5  4  3  0  0  0  0
  6  9  1  0  0  0  0
  7  6  1  0  0  0  0
  8  6  1  0  0  0  0
M  RAD  1   1   2
M  END
