Coordinates from ORCA-job C2H5-N2+-scan-d09-169-n800
 OpenBabel09191813583D

  9  7  0  0  0  0  0  0  0  0999 V2000
    0.2986    2.3904    2.1673 C   0  0  0  0  0  0  0  0  0  0  0  0
    1.0681    2.1740    1.4259 H   0  0  0  0  0  0  0  0  0  0  0  0
   -0.4620    1.6342    2.3627 H   0  0  0  0  0  0  0  0  0  0  0  0
    0.3746  -10.8812   -5.3602 N   0  0  0  0  0  0  0  0  0  0  0  0
    0.3414  -11.8140   -5.9525 N   0  0  0  0  0  0  0  0  0  0  0  0
    0.3032    3.5862    2.8637 C   0  0  0  0  0  0  0  0  0  0  0  0
    1.0766    4.3332    2.6838 H   0  0  0  0  0  0  0  0  0  0  0  0
   -0.3485    3.4534    1.7227 H   0  0  0  0  0  0  0  0  0  0  0  0
   -0.4536    3.7934    3.6206 H   0  0  0  0  0  0  0  0  0  0  0  0
  1  3  1  0  0  0  0
  1  6  1  0  0  0  0
  2  1  1  0  0  0  0
  5  4  3  0  0  0  0
  6  9  1  0  0  0  0
  7  6  1  0  0  0  0
  8  6  1  0  0  0  0
M  RAD  1   1   2
M  END
