Coordinates from ORCA-job C2H5-N2+-scan-d09-169-n800
 OpenBabel09191813583D

  9  7  0  0  0  0  0  0  0  0999 V2000
   -0.1543    0.2015    0.1648 C   0  0  0  0  0  0  0  0  0  0  0  0
    0.3307    0.3828   -0.7950 H   0  0  0  0  0  0  0  0  0  0  0  0
   -1.1854   -0.1521    0.1322 H   0  0  0  0  0  0  0  0  0  0  0  0
    0.4858   -2.0770   -0.1031 N   0  0  0  0  0  0  0  0  0  0  0  0
    0.7816   -3.1337   -0.2291 N   0  0  0  0  0  0  0  0  0  0  0  0
    0.4246    0.6709    1.3820 C   0  0  0  0  0  0  0  0  0  0  0  0
    1.5095    0.7952    1.3814 H   0  0  0  0  0  0  0  0  0  0  0  0
    0.0033    1.7185    1.2976 H   0  0  0  0  0  0  0  0  0  0  0  0
    0.0025    0.2635    2.3031 H   0  0  0  0  0  0  0  0  0  0  0  0
  1  6  1  0  0  0  0
  2  1  1  0  0  0  0
  3  1  1  0  0  0  0
  5  4  3  0  0  0  0
  6  9  1  0  0  0  0
  7  6  1  0  0  0  0
  8  6  1  0  0  0  0
M  RAD  1   1   2
M  END
