Coordinates from ORCA-job C2H5-N2+-scan-d09-169-n800
 OpenBabel09191813583D

  9  7  0  0  0  0  0  0  0  0999 V2000
   -0.1546    0.2162    0.1728 C   0  0  0  0  0  0  0  0  0  0  0  0
    0.3335    0.3902   -0.7871 H   0  0  0  0  0  0  0  0  0  0  0  0
   -1.1833   -0.1451    0.1406 H   0  0  0  0  0  0  0  0  0  0  0  0
    0.4921   -2.1205   -0.1179 N   0  0  0  0  0  0  0  0  0  0  0  0
    0.7827   -3.1777   -0.2527 N   0  0  0  0  0  0  0  0  0  0  0  0
    0.4243    0.6819    1.3879 C   0  0  0  0  0  0  0  0  0  0  0  0
    1.5083    0.8143    1.3879 H   0  0  0  0  0  0  0  0  0  0  0  0
   -0.0039    1.7284    1.2916 H   0  0  0  0  0  0  0  0  0  0  0  0
   -0.0007    0.2819    2.3109 H   0  0  0  0  0  0  0  0  0  0  0  0
  1  6  1  0  0  0  0
  2  1  1  0  0  0  0
  3  1  1  0  0  0  0
  5  4  3  0  0  0  0
  6  7  1  0  0  0  0
  6  9  1  0  0  0  0
  8  6  1  0  0  0  0
M  RAD  1   1   2
M  END
