Coordinates from ORCA-job C2H5-N2+-scan-d09-169-n800
 OpenBabel09191813583D

  9  7  0  0  0  0  0  0  0  0999 V2000
    0.3232    1.3134    1.5838 C   0  0  0  0  0  0  0  0  0  0  0  0
    1.1024    1.0927    0.8539 H   0  0  0  0  0  0  0  0  0  0  0  0
   -0.4278    0.5501    1.7889 H   0  0  0  0  0  0  0  0  0  0  0  0
    0.3093   -7.1063   -3.2950 N   0  0  0  0  0  0  0  0  0  0  0  0
    0.3201   -8.0758   -3.8259 N   0  0  0  0  0  0  0  0  0  0  0  0
    0.3032    2.5240    2.2537 C   0  0  0  0  0  0  0  0  0  0  0  0
    1.0670    3.2786    2.0644 H   0  0  0  0  0  0  0  0  0  0  0  0
   -0.3360    2.3570    1.1107 H   0  0  0  0  0  0  0  0  0  0  0  0
   -0.4632    2.7359    2.9995 H   0  0  0  0  0  0  0  0  0  0  0  0
  1  3  1  0  0  0  0
  1  6  1  0  0  0  0
  2  1  1  0  0  0  0
  5  4  3  0  0  0  0
  6  9  1  0  0  0  0
  7  6  1  0  0  0  0
  8  6  1  0  0  0  0
M  RAD  1   1   2
M  END
