Coordinates from ORCA-job C2H5-N2+-scan-d09-169-n800
 OpenBabel09191813583D

  9  7  0  0  0  0  0  0  0  0999 V2000
    0.2971    2.5110    2.2341 C   0  0  0  0  0  0  0  0  0  0  0  0
    1.0663    2.2949    1.4924 H   0  0  0  0  0  0  0  0  0  0  0  0
   -0.4638    1.7549    2.4291 H   0  0  0  0  0  0  0  0  0  0  0  0
    0.3797  -11.3033   -5.5949 N   0  0  0  0  0  0  0  0  0  0  0  0
    0.3451  -12.2348   -6.1892 N   0  0  0  0  0  0  0  0  0  0  0  0
    0.3022    3.7062    2.9314 C   0  0  0  0  0  0  0  0  0  0  0  0
    1.0759    4.4531    2.7519 H   0  0  0  0  0  0  0  0  0  0  0  0
   -0.3498    3.5745    1.7905 H   0  0  0  0  0  0  0  0  0  0  0  0
   -0.4543    3.9131    3.6887 H   0  0  0  0  0  0  0  0  0  0  0  0
  1  3  1  0  0  0  0
  1  6  1  0  0  0  0
  2  1  1  0  0  0  0
  5  4  3  0  0  0  0
  6  9  1  0  0  0  0
  7  6  1  0  0  0  0
  8  6  1  0  0  0  0
M  RAD  1   1   2
M  END
