Coordinates from ORCA-job C2H5-N2+-scan-d09-169-n800
 OpenBabel09191813583D

  9  7  0  0  0  0  0  0  0  0999 V2000
    0.3231    1.2941    1.5725 C   0  0  0  0  0  0  0  0  0  0  0  0
    1.1021    1.0736    0.8424 H   0  0  0  0  0  0  0  0  0  0  0  0
   -0.4281    0.5310    1.7774 H   0  0  0  0  0  0  0  0  0  0  0  0
    0.3088   -7.0385   -3.2567 N   0  0  0  0  0  0  0  0  0  0  0  0
    0.3197   -8.0080   -3.7877 N   0  0  0  0  0  0  0  0  0  0  0  0
    0.3036    2.5044    2.2430 C   0  0  0  0  0  0  0  0  0  0  0  0
    1.0677    3.2588    2.0540 H   0  0  0  0  0  0  0  0  0  0  0  0
   -0.3358    2.3382    1.1000 H   0  0  0  0  0  0  0  0  0  0  0  0
   -0.4626    2.7162    2.9890 H   0  0  0  0  0  0  0  0  0  0  0  0
  1  3  1  0  0  0  0
  1  6  1  0  0  0  0
  2  1  1  0  0  0  0
  5  4  3  0  0  0  0
  6  9  1  0  0  0  0
  7  6  1  0  0  0  0
  8  6  1  0  0  0  0
M  RAD  1   1   2
M  END
