Coordinates from ORCA-job C2H5-N2+-scan-d09-169-n800
 OpenBabel09191813583D

  9  7  0  0  0  0  0  0  0  0999 V2000
    0.3228    1.2517    1.5477 C   0  0  0  0  0  0  0  0  0  0  0  0
    1.1014    1.0314    0.8170 H   0  0  0  0  0  0  0  0  0  0  0  0
   -0.4288    0.4889    1.7520 H   0  0  0  0  0  0  0  0  0  0  0  0
    0.3076   -6.8896   -3.1725 N   0  0  0  0  0  0  0  0  0  0  0  0
    0.3186   -7.8589   -3.7037 N   0  0  0  0  0  0  0  0  0  0  0  0
    0.3045    2.4612    2.2196 C   0  0  0  0  0  0  0  0  0  0  0  0
    1.0690    3.2153    2.0311 H   0  0  0  0  0  0  0  0  0  0  0  0
   -0.3355    2.2969    1.0767 H   0  0  0  0  0  0  0  0  0  0  0  0
   -0.4613    2.6727    2.9662 H   0  0  0  0  0  0  0  0  0  0  0  0
  1  3  1  0  0  0  0
  1  6  1  0  0  0  0
  2  1  1  0  0  0  0
  5  4  3  0  0  0  0
  6  9  1  0  0  0  0
  7  6  1  0  0  0  0
  8  6  1  0  0  0  0
M  RAD  1   1   2
M  END
