Coordinates from ORCA-job C2H5-N2+-scan-d09-169-n800
 OpenBabel09191813583D

  9  7  0  0  0  0  0  0  0  0999 V2000
    0.2898    0.2631    0.9260 C   0  0  0  0  0  0  0  0  0  0  0  0
    1.0365    0.0606    0.1578 H   0  0  0  0  0  0  0  0  0  0  0  0
   -0.4915   -0.4789    1.0920 H   0  0  0  0  0  0  0  0  0  0  0  0
    0.2951   -3.3822   -1.1683 N   0  0  0  0  0  0  0  0  0  0  0  0
    0.3135   -4.3528   -1.6967 N   0  0  0  0  0  0  0  0  0  0  0  0
    0.3421    1.4216    1.6806 C   0  0  0  0  0  0  0  0  0  0  0  0
    1.1372    2.1514    1.5270 H   0  0  0  0  0  0  0  0  0  0  0  0
   -0.3311    1.3758    0.5530 H   0  0  0  0  0  0  0  0  0  0  0  0
   -0.3932    1.6110    2.4627 H   0  0  0  0  0  0  0  0  0  0  0  0
  1  3  1  0  0  0  0
  1  6  1  0  0  0  0
  2  1  1  0  0  0  0
  5  4  3  0  0  0  0
  6  9  1  0  0  0  0
  7  6  1  0  0  0  0
  8  6  1  0  0  0  0
M  RAD  1   1   2
M  END
