Coordinates from ORCA-job C2H5-N2+-scan-d09-169-n800
 OpenBabel09191813583D

  9  7  0  0  0  0  0  0  0  0999 V2000
    0.3007    0.4082    1.0267 C   0  0  0  0  0  0  0  0  0  0  0  0
    1.0572    0.2010    0.2694 H   0  0  0  0  0  0  0  0  0  0  0  0
   -0.4723   -0.3398    1.2043 H   0  0  0  0  0  0  0  0  0  0  0  0
    0.2934   -3.9053   -1.4724 N   0  0  0  0  0  0  0  0  0  0  0  0
    0.3089   -4.8743   -2.0038 N   0  0  0  0  0  0  0  0  0  0  0  0
    0.3333    1.5818    1.7589 C   0  0  0  0  0  0  0  0  0  0  0  0
    1.1195    2.3192    1.5954 H   0  0  0  0  0  0  0  0  0  0  0  0
   -0.3314    1.5009    0.6246 H   0  0  0  0  0  0  0  0  0  0  0  0
   -0.4110    1.7780    2.5309 H   0  0  0  0  0  0  0  0  0  0  0  0
  1  3  1  0  0  0  0
  1  6  1  0  0  0  0
  2  1  1  0  0  0  0
  5  4  3  0  0  0  0
  6  9  1  0  0  0  0
  7  6  1  0  0  0  0
  8  6  1  0  0  0  0
M  RAD  1   1   2
M  END
