Coordinates from ORCA-job C2H5-N2+-scan-d09-169-n800
 OpenBabel09191813583D

  9  7  0  0  0  0  0  0  0  0999 V2000
    0.2967    0.3484    0.9860 C   0  0  0  0  0  0  0  0  0  0  0  0
    1.0496    0.1430    0.2247 H   0  0  0  0  0  0  0  0  0  0  0  0
   -0.4794   -0.3973    1.1594 H   0  0  0  0  0  0  0  0  0  0  0  0
    0.2939   -3.6905   -1.3479 N   0  0  0  0  0  0  0  0  0  0  0  0
    0.3102   -4.6600   -1.8785 N   0  0  0  0  0  0  0  0  0  0  0  0
    0.3367    1.5164    1.7266 C   0  0  0  0  0  0  0  0  0  0  0  0
    1.1262    2.2510    1.5668 H   0  0  0  0  0  0  0  0  0  0  0  0
   -0.3313    1.4483    0.5945 H   0  0  0  0  0  0  0  0  0  0  0  0
   -0.4043    1.7102    2.5024 H   0  0  0  0  0  0  0  0  0  0  0  0
  1  3  1  0  0  0  0
  1  6  1  0  0  0  0
  2  1  1  0  0  0  0
  5  4  3  0  0  0  0
  6  9  1  0  0  0  0
  7  6  1  0  0  0  0
  8  6  1  0  0  0  0
M  RAD  1   1   2
M  END
