Coordinates from ORCA-job C2H5-N2+-scan-d09-169-n800
 OpenBabel09191813583D

  9  7  0  0  0  0  0  0  0  0999 V2000
    0.3011    2.2424    2.0861 C   0  0  0  0  0  0  0  0  0  0  0  0
    1.0713    2.0254    1.3457 H   0  0  0  0  0  0  0  0  0  0  0  0
   -0.4588    1.4857    2.2826 H   0  0  0  0  0  0  0  0  0  0  0  0
    0.3694  -10.3639   -5.0721 N   0  0  0  0  0  0  0  0  0  0  0  0
    0.3355  -11.2976   -5.6631 N   0  0  0  0  0  0  0  0  0  0  0  0
    0.3039    3.4395    2.7802 C   0  0  0  0  0  0  0  0  0  0  0  0
    1.0766    4.1870    2.5993 H   0  0  0  0  0  0  0  0  0  0  0  0
   -0.3470    3.3038    1.6391 H   0  0  0  0  0  0  0  0  0  0  0  0
   -0.4536    3.6474    3.5362 H   0  0  0  0  0  0  0  0  0  0  0  0
  1  3  1  0  0  0  0
  1  6  1  0  0  0  0
  2  1  1  0  0  0  0
  5  4  3  0  0  0  0
  6  9  1  0  0  0  0
  7  6  1  0  0  0  0
  8  6  1  0  0  0  0
M  RAD  1   1   2
M  END
