Coordinates from ORCA-job C2H5-N2+-scan-d09-169-n800
 OpenBabel09191813583D

  9  7  0  0  0  0  0  0  0  0999 V2000
    0.3223    1.1785    1.5046 C   0  0  0  0  0  0  0  0  0  0  0  0
    1.0999    0.9588    0.7728 H   0  0  0  0  0  0  0  0  0  0  0  0
   -0.4302    0.4163    1.7078 H   0  0  0  0  0  0  0  0  0  0  0  0
    0.3057   -6.6323   -3.0269 N   0  0  0  0  0  0  0  0  0  0  0  0
    0.3169   -7.6014   -3.5586 N   0  0  0  0  0  0  0  0  0  0  0  0
    0.3062    2.3866    2.1792 C   0  0  0  0  0  0  0  0  0  0  0  0
    1.0715    3.1400    1.9918 H   0  0  0  0  0  0  0  0  0  0  0  0
   -0.3350    2.2257    1.0365 H   0  0  0  0  0  0  0  0  0  0  0  0
   -0.4588    2.5975    2.9268 H   0  0  0  0  0  0  0  0  0  0  0  0
  1  3  1  0  0  0  0
  1  6  1  0  0  0  0
  2  1  1  0  0  0  0
  5  4  3  0  0  0  0
  6  9  1  0  0  0  0
  7  6  1  0  0  0  0
  8  6  1  0  0  0  0
M  RAD  1   1   2
M  END
