Coordinates from ORCA-job C2H5-N2+-scan-d09-169-n800
 OpenBabel09191813583D

  9  7  0  0  0  0  0  0  0  0999 V2000
    0.3092    1.7647    1.8201 C   0  0  0  0  0  0  0  0  0  0  0  0
    1.0818    1.5494    1.0816 H   0  0  0  0  0  0  0  0  0  0  0  0
   -0.4485    1.0056    2.0158 H   0  0  0  0  0  0  0  0  0  0  0  0
    0.3382   -8.6748   -4.1659 N   0  0  0  0  0  0  0  0  0  0  0  0
    0.3294   -9.6427   -4.6998 N   0  0  0  0  0  0  0  0  0  0  0  0
    0.3063    2.9627    2.5126 C   0  0  0  0  0  0  0  0  0  0  0  0
    1.0769    3.7126    2.3325 H   0  0  0  0  0  0  0  0  0  0  0  0
   -0.3415    2.8233    1.3704 H   0  0  0  0  0  0  0  0  0  0  0  0
   -0.4535    3.1688    3.2668 H   0  0  0  0  0  0  0  0  0  0  0  0
  1  3  1  0  0  0  0
  1  6  1  0  0  0  0
  2  1  1  0  0  0  0
  5  4  3  0  0  0  0
  6  9  1  0  0  0  0
  7  6  1  0  0  0  0
  8  6  1  0  0  0  0
M  RAD  1   1   2
M  END
