Coordinates from ORCA-job C2H5-N2+-scan-d09-169-n800
 OpenBabel09191813583D

  9  7  0  0  0  0  0  0  0  0999 V2000
    0.3222    1.1670    1.4978 C   0  0  0  0  0  0  0  0  0  0  0  0
    1.0997    0.9473    0.7658 H   0  0  0  0  0  0  0  0  0  0  0  0
   -0.4305    0.4048    1.7008 H   0  0  0  0  0  0  0  0  0  0  0  0
    0.3054   -6.5917   -3.0040 N   0  0  0  0  0  0  0  0  0  0  0  0
    0.3166   -7.5608   -3.5356 N   0  0  0  0  0  0  0  0  0  0  0  0
    0.3064    2.3748    2.1728 C   0  0  0  0  0  0  0  0  0  0  0  0
    1.0720    3.1281    1.9856 H   0  0  0  0  0  0  0  0  0  0  0  0
   -0.3350    2.2145    1.0301 H   0  0  0  0  0  0  0  0  0  0  0  0
   -0.4584    2.5856    2.9207 H   0  0  0  0  0  0  0  0  0  0  0  0
  1  3  1  0  0  0  0
  1  6  1  0  0  0  0
  2  1  1  0  0  0  0
  5  4  3  0  0  0  0
  6  9  1  0  0  0  0
  7  6  1  0  0  0  0
  8  6  1  0  0  0  0
M  RAD  1   1   2
M  END
