Coordinates from ORCA-job C2H5-N2+-scan-d09-169-n800
 OpenBabel09191813583D

  9  7  0  0  0  0  0  0  0  0999 V2000
    0.3050    2.0482    1.9782 C   0  0  0  0  0  0  0  0  0  0  0  0
    1.0766    1.8323    1.2389 H   0  0  0  0  0  0  0  0  0  0  0  0
   -0.4537    1.2901    2.1741 H   0  0  0  0  0  0  0  0  0  0  0  0
    0.3603   -9.6756   -4.7065 N   0  0  0  0  0  0  0  0  0  0  0  0
    0.3293  -10.6267   -5.2691 N   0  0  0  0  0  0  0  0  0  0  0  0
    0.3044    3.2458    2.6714 C   0  0  0  0  0  0  0  0  0  0  0  0
    1.0758    3.9948    2.4910 H   0  0  0  0  0  0  0  0  0  0  0  0
   -0.3447    3.1080    1.5296 H   0  0  0  0  0  0  0  0  0  0  0  0
   -0.4545    3.4526    3.4263 H   0  0  0  0  0  0  0  0  0  0  0  0
  1  3  1  0  0  0  0
  1  6  1  0  0  0  0
  2  1  1  0  0  0  0
  5  4  3  0  0  0  0
  6  9  1  0  0  0  0
  7  6  1  0  0  0  0
  8  6  1  0  0  0  0
M  RAD  1   1   2
M  END
