Coordinates from ORCA-job C2H5-N2+-scan-d09-169-n800
 OpenBabel09191813583D

  9  7  0  0  0  0  0  0  0  0999 V2000
    0.3063    1.9398    1.9167 C   0  0  0  0  0  0  0  0  0  0  0  0
    1.0780    1.7247    1.1773 H   0  0  0  0  0  0  0  0  0  0  0  0
   -0.4523    1.1814    2.1118 H   0  0  0  0  0  0  0  0  0  0  0  0
    0.3511   -9.2902   -4.5020 N   0  0  0  0  0  0  0  0  0  0  0  0
    0.3302  -10.2514   -5.0476 N   0  0  0  0  0  0  0  0  0  0  0  0
    0.3054    3.1367    2.6111 C   0  0  0  0  0  0  0  0  0  0  0  0
    1.0768    3.8860    2.4316 H   0  0  0  0  0  0  0  0  0  0  0  0
   -0.3435    3.0000    1.4691 H   0  0  0  0  0  0  0  0  0  0  0  0
   -0.4536    3.3427    3.3662 H   0  0  0  0  0  0  0  0  0  0  0  0
  1  3  1  0  0  0  0
  1  6  1  0  0  0  0
  2  1  1  0  0  0  0
  5  4  3  0  0  0  0
  6  9  1  0  0  0  0
  7  6  1  0  0  0  0
  8  6  1  0  0  0  0
M  RAD  1   1   2
M  END
