Coordinates from ORCA-job C2H5-N2+-scan-d09-169-n800
 OpenBabel09191813583D

  9  8  0  0  0  0  0  0  0  0999 V2000
   -0.0775   -0.1751    0.0731 C   0  0  0  0  0  0  0  0  0  0  0  0
    0.2816    0.2897   -0.8559 H   0  0  0  0  0  0  0  0  0  0  0  0
   -1.1749   -0.2242    0.0349 H   0  0  0  0  0  0  0  0  0  0  0  0
    0.3591   -1.4842    0.0317 N   0  0  0  0  0  0  0  0  0  0  0  0
    0.7275   -2.5278    0.0320 N   0  0  0  0  0  0  0  0  0  0  0  0
    0.4395    0.5525    1.3381 C   0  0  0  0  0  0  0  0  0  0  0  0
    1.5302    0.5923    1.3500 H   0  0  0  0  0  0  0  0  0  0  0  0
    0.0473    1.5709    1.2844 H   0  0  0  0  0  0  0  0  0  0  0  0
    0.0655    0.0754    2.2458 H   0  0  0  0  0  0  0  0  0  0  0  0
  1  6  1  0  0  0  0
  2  1  1  0  0  0  0
  3  1  1  0  0  0  0
  4  5  1  0  0  0  0
  4  1  1  0  0  0  0
  6  7  1  0  0  0  0
  6  9  1  0  0  0  0
  8  6  1  0  0  0  0
M  RAD  2   4   2   5   3
M  END
