Coordinates from ORCA-job C2H5-N2+-scan-d09-169-n800
 OpenBabel09191813583D

  9  8  0  0  0  0  0  0  0  0999 V2000
   -0.1312    0.0283    0.1027 C   0  0  0  0  0  0  0  0  0  0  0  0
    0.3006    0.3285   -0.8526 H   0  0  0  0  0  0  0  0  0  0  0  0
   -1.1968   -0.1998    0.0632 H   0  0  0  0  0  0  0  0  0  0  0  0
    0.4204   -1.7248   -0.0069 N   0  0  0  0  0  0  0  0  0  0  0  0
    0.7679   -2.7716   -0.0426 N   0  0  0  0  0  0  0  0  0  0  0  0
    0.4296    0.5941    1.3459 C   0  0  0  0  0  0  0  0  0  0  0  0
    1.5195    0.6520    1.3482 H   0  0  0  0  0  0  0  0  0  0  0  0
    0.0488    1.6332    1.3228 H   0  0  0  0  0  0  0  0  0  0  0  0
    0.0395    0.1298    2.2534 H   0  0  0  0  0  0  0  0  0  0  0  0
  1  6  1  0  0  0  0
  2  1  1  0  0  0  0
  3  1  1  0  0  0  0
  4  1  1  0  0  0  0
  5  4  1  0  0  0  0
  6  7  1  0  0  0  0
  6  9  1  0  0  0  0
  8  6  1  0  0  0  0
M  RAD  2   4   2   5   3
M  END
