Coordinates from ORCA-job C2H5-N2+-scan-d09-169-n800
 OpenBabel09191813583D

  9  7  0  0  0  0  0  0  0  0999 V2000
    0.3200    0.9824    1.3880 C   0  0  0  0  0  0  0  0  0  0  0  0
    1.0947    0.7645    0.6526 H   0  0  0  0  0  0  0  0  0  0  0  0
   -0.4354    0.2221    1.5876 H   0  0  0  0  0  0  0  0  0  0  0  0
    0.3008   -5.9421   -2.6360 N   0  0  0  0  0  0  0  0  0  0  0  0
    0.3126   -6.9107   -3.1685 N   0  0  0  0  0  0  0  0  0  0  0  0
    0.3110    2.1857    2.0712 C   0  0  0  0  0  0  0  0  0  0  0  0
    1.0794    2.9370    1.8873 H   0  0  0  0  0  0  0  0  0  0  0  0
   -0.3338    2.0362    0.9293 H   0  0  0  0  0  0  0  0  0  0  0  0
   -0.4510    2.3946    2.8224 H   0  0  0  0  0  0  0  0  0  0  0  0
  1  3  1  0  0  0  0
  1  6  1  0  0  0  0
  2  1  1  0  0  0  0
  5  4  3  0  0  0  0
  6  9  1  0  0  0  0
  7  6  1  0  0  0  0
  8  6  1  0  0  0  0
M  RAD  1   1   2
M  END
