Coordinates from ORCA-job C2H5-N2+-scan-d09-169-n800
 OpenBabel09191813583D

  9  7  0  0  0  0  0  0  0  0999 V2000
    0.3183    0.8827    1.3279 C   0  0  0  0  0  0  0  0  0  0  0  0
    1.0911    0.6659    0.5900 H   0  0  0  0  0  0  0  0  0  0  0  0
   -0.4390    0.1237    1.5251 H   0  0  0  0  0  0  0  0  0  0  0  0
    0.2987   -5.5906   -2.4364 N   0  0  0  0  0  0  0  0  0  0  0  0
    0.3107   -6.5590   -2.9693 N   0  0  0  0  0  0  0  0  0  0  0  0
    0.3139    2.0829    2.0166 C   0  0  0  0  0  0  0  0  0  0  0  0
    1.0841    2.8327    1.8349 H   0  0  0  0  0  0  0  0  0  0  0  0
   -0.3332    1.9407    0.8752 H   0  0  0  0  0  0  0  0  0  0  0  0
   -0.4462    2.2904    2.7701 H   0  0  0  0  0  0  0  0  0  0  0  0
  1  3  1  0  0  0  0
  1  6  1  0  0  0  0
  2  1  1  0  0  0  0
  5  4  3  0  0  0  0
  6  9  1  0  0  0  0
  7  6  1  0  0  0  0
  8  6  1  0  0  0  0
M  RAD  1   1   2
M  END
