Coordinates from ORCA-job C2H5-N2+-scan-d09-169-n800
 OpenBabel09191813583D

  9  7  0  0  0  0  0  0  0  0999 V2000
    0.2987    2.3865    2.1652 C   0  0  0  0  0  0  0  0  0  0  0  0
    1.0682    2.1701    1.4238 H   0  0  0  0  0  0  0  0  0  0  0  0
   -0.4619    1.6303    2.3607 H   0  0  0  0  0  0  0  0  0  0  0  0
    0.3745  -10.8677   -5.3525 N   0  0  0  0  0  0  0  0  0  0  0  0
    0.3412  -11.8004   -5.9450 N   0  0  0  0  0  0  0  0  0  0  0  0
    0.3032    3.5823    2.8615 C   0  0  0  0  0  0  0  0  0  0  0  0
    1.0766    4.3294    2.6815 H   0  0  0  0  0  0  0  0  0  0  0  0
   -0.3485    3.4494    1.7205 H   0  0  0  0  0  0  0  0  0  0  0  0
   -0.4536    3.7896    3.6184 H   0  0  0  0  0  0  0  0  0  0  0  0
  1  3  1  0  0  0  0
  1  6  1  0  0  0  0
  2  1  1  0  0  0  0
  5  4  3  0  0  0  0
  6  9  1  0  0  0  0
  7  6  1  0  0  0  0
  8  6  1  0  0  0  0
M  RAD  1   1   2
M  END
