Coordinates from ORCA-job C2H5-N2+-scan-d09-169-n800
 OpenBabel09191813583D

  9  7  0  0  0  0  0  0  0  0999 V2000
    0.3077    0.5362    1.1112 C   0  0  0  0  0  0  0  0  0  0  0  0
    1.0703    0.3256    0.3611 H   0  0  0  0  0  0  0  0  0  0  0  0
   -0.4596   -0.2160    1.2960 H   0  0  0  0  0  0  0  0  0  0  0  0
    0.2936   -4.3626   -1.7356 N   0  0  0  0  0  0  0  0  0  0  0  0
    0.3076   -5.3310   -2.2684 N   0  0  0  0  0  0  0  0  0  0  0  0
    0.3268    1.7196    1.8280 C   0  0  0  0  0  0  0  0  0  0  0  0
    1.1071    2.4618    1.6580 H   0  0  0  0  0  0  0  0  0  0  0  0
   -0.3317    1.6161    0.6905 H   0  0  0  0  0  0  0  0  0  0  0  0
   -0.4233    1.9200    2.5932 H   0  0  0  0  0  0  0  0  0  0  0  0
  1  3  1  0  0  0  0
  1  6  1  0  0  0  0
  2  1  1  0  0  0  0
  5  4  3  0  0  0  0
  6  9  1  0  0  0  0
  7  6  1  0  0  0  0
  8  6  1  0  0  0  0
M  RAD  1   1   2
M  END
