Coordinates from ORCA-job C2H5-N2+-scan-d09-169-n800
 OpenBabel09191813583D

  9  7  0  0  0  0  0  0  0  0999 V2000
    0.3229    1.2556    1.5499 C   0  0  0  0  0  0  0  0  0  0  0  0
    1.1014    1.0353    0.8193 H   0  0  0  0  0  0  0  0  0  0  0  0
   -0.4287    0.4927    1.7543 H   0  0  0  0  0  0  0  0  0  0  0  0
    0.3077   -6.9031   -3.1801 N   0  0  0  0  0  0  0  0  0  0  0  0
    0.3187   -7.8725   -3.7113 N   0  0  0  0  0  0  0  0  0  0  0  0
    0.3045    2.4651    2.2217 C   0  0  0  0  0  0  0  0  0  0  0  0
    1.0689    3.2192    2.0332 H   0  0  0  0  0  0  0  0  0  0  0  0
   -0.3356    2.3006    1.0788 H   0  0  0  0  0  0  0  0  0  0  0  0
   -0.4614    2.6766    2.9683 H   0  0  0  0  0  0  0  0  0  0  0  0
  1  3  1  0  0  0  0
  1  6  1  0  0  0  0
  2  1  1  0  0  0  0
  5  4  3  0  0  0  0
  6  9  1  0  0  0  0
  7  6  1  0  0  0  0
  8  6  1  0  0  0  0
M  RAD  1   1   2
M  END
