Coordinates from ORCA-job C2H5-N2+-scan-d09-169-n800
 OpenBabel09191813583D

  9  7  0  0  0  0  0  0  0  0999 V2000
    0.3161    0.7833    1.2671 C   0  0  0  0  0  0  0  0  0  0  0  0
    1.0866    0.5679    0.5265 H   0  0  0  0  0  0  0  0  0  0  0  0
   -0.4435    0.0258    1.4615 H   0  0  0  0  0  0  0  0  0  0  0  0
    0.2968   -5.2393   -2.2366 N   0  0  0  0  0  0  0  0  0  0  0  0
    0.3092   -6.2075   -2.7698 N   0  0  0  0  0  0  0  0  0  0  0  0
    0.3171    1.9797    1.9622 C   0  0  0  0  0  0  0  0  0  0  0  0
    1.0896    2.7279    1.7832 H   0  0  0  0  0  0  0  0  0  0  0  0
   -0.3327    1.8462    0.8215 H   0  0  0  0  0  0  0  0  0  0  0  0
   -0.4408    2.1857    2.7184 H   0  0  0  0  0  0  0  0  0  0  0  0
  1  3  1  0  0  0  0
  1  6  1  0  0  0  0
  2  1  1  0  0  0  0
  5  4  3  0  0  0  0
  6  9  1  0  0  0  0
  7  6  1  0  0  0  0
  8  6  1  0  0  0  0
M  RAD  1   1   2
M  END
