Coordinates from ORCA-job C2H5-N2+-scan-d09-169-n800
 OpenBabel09191813583D

  9  7  0  0  0  0  0  0  0  0999 V2000
    0.3056    1.9863    1.9429 C   0  0  0  0  0  0  0  0  0  0  0  0
    1.0773    1.7710    1.2034 H   0  0  0  0  0  0  0  0  0  0  0  0
   -0.4530    1.2281    2.1382 H   0  0  0  0  0  0  0  0  0  0  0  0
    0.3551   -9.4550   -4.5903 N   0  0  0  0  0  0  0  0  0  0  0  0
    0.3298  -10.4127   -5.1418 N   0  0  0  0  0  0  0  0  0  0  0  0
    0.3050    3.1834    2.6371 C   0  0  0  0  0  0  0  0  0  0  0  0
    1.0764    3.9325    2.4573 H   0  0  0  0  0  0  0  0  0  0  0  0
   -0.3440    3.0465    1.4951 H   0  0  0  0  0  0  0  0  0  0  0  0
   -0.4539    3.3896    3.3922 H   0  0  0  0  0  0  0  0  0  0  0  0
  1  3  1  0  0  0  0
  1  6  1  0  0  0  0
  2  1  1  0  0  0  0
  5  4  3  0  0  0  0
  6  9  1  0  0  0  0
  7  6  1  0  0  0  0
  8  6  1  0  0  0  0
M  RAD  1   1   2
M  END
