Coordinates from ORCA-job C2H5-N2+-scan-d09-169-n800
 OpenBabel09191813583D

  9  7  0  0  0  0  0  0  0  0999 V2000
    0.3222    1.1708    1.5001 C   0  0  0  0  0  0  0  0  0  0  0  0
    1.0998    0.9511    0.7681 H   0  0  0  0  0  0  0  0  0  0  0  0
   -0.4304    0.4086    1.7031 H   0  0  0  0  0  0  0  0  0  0  0  0
    0.3055   -6.6052   -3.0116 N   0  0  0  0  0  0  0  0  0  0  0  0
    0.3167   -7.5743   -3.5433 N   0  0  0  0  0  0  0  0  0  0  0  0
    0.3063    2.3787    2.1749 C   0  0  0  0  0  0  0  0  0  0  0  0
    1.0718    3.1321    1.9876 H   0  0  0  0  0  0  0  0  0  0  0  0
   -0.3350    2.2182    1.0323 H   0  0  0  0  0  0  0  0  0  0  0  0
   -0.4585    2.5895    2.9227 H   0  0  0  0  0  0  0  0  0  0  0  0
  1  3  1  0  0  0  0
  1  6  1  0  0  0  0
  2  1  1  0  0  0  0
  5  4  3  0  0  0  0
  6  9  1  0  0  0  0
  7  6  1  0  0  0  0
  8  6  1  0  0  0  0
M  RAD  1   1   2
M  END
