Coordinates from ORCA-job C2H5-N2+-scan-d09-169-n800
 OpenBabel09191813583D

  9  7  0  0  0  0  0  0  0  0999 V2000
    0.3222    1.1631    1.4955 C   0  0  0  0  0  0  0  0  0  0  0  0
    1.0996    0.9435    0.7635 H   0  0  0  0  0  0  0  0  0  0  0  0
   -0.4306    0.4010    1.6985 H   0  0  0  0  0  0  0  0  0  0  0  0
    0.3053   -6.5781   -2.9963 N   0  0  0  0  0  0  0  0  0  0  0  0
    0.3165   -7.5472   -3.5280 N   0  0  0  0  0  0  0  0  0  0  0  0
    0.3065    2.3709    2.1707 C   0  0  0  0  0  0  0  0  0  0  0  0
    1.0721    3.1241    1.9835 H   0  0  0  0  0  0  0  0  0  0  0  0
   -0.3349    2.2107    1.0280 H   0  0  0  0  0  0  0  0  0  0  0  0
   -0.4582    2.5816    2.9186 H   0  0  0  0  0  0  0  0  0  0  0  0
  1  3  1  0  0  0  0
  1  6  1  0  0  0  0
  2  1  1  0  0  0  0
  5  4  3  0  0  0  0
  6  9  1  0  0  0  0
  7  6  1  0  0  0  0
  8  6  1  0  0  0  0
M  RAD  1   1   2
M  END
