Coordinates from ORCA-job C2H5-N2+-scan-d09-169-n800
 OpenBabel09191813583D

  9  7  0  0  0  0  0  0  0  0999 V2000
    0.2958    0.3372    0.9783 C   0  0  0  0  0  0  0  0  0  0  0  0
    1.0480    0.1321    0.2162 H   0  0  0  0  0  0  0  0  0  0  0  0
   -0.4810   -0.4080    1.1509 H   0  0  0  0  0  0  0  0  0  0  0  0
    0.2940   -3.6502   -1.3245 N   0  0  0  0  0  0  0  0  0  0  0  0
    0.3106   -4.6198   -1.8550 N   0  0  0  0  0  0  0  0  0  0  0  0
    0.3374    1.5041    1.7206 C   0  0  0  0  0  0  0  0  0  0  0  0
    1.1276    2.2381    1.5614 H   0  0  0  0  0  0  0  0  0  0  0  0
   -0.3312    1.4387    0.5890 H   0  0  0  0  0  0  0  0  0  0  0  0
   -0.4029    1.6975    2.4971 H   0  0  0  0  0  0  0  0  0  0  0  0
  1  3  1  0  0  0  0
  1  6  1  0  0  0  0
  2  1  1  0  0  0  0
  5  4  3  0  0  0  0
  6  9  1  0  0  0  0
  7  6  1  0  0  0  0
  8  6  1  0  0  0  0
M  RAD  1   1   2
M  END
