Coordinates from ORCA-job C2H5-N2+-scan-d09-169-n800
 OpenBabel09191813583D

  9  7  0  0  0  0  0  0  0  0999 V2000
    0.3187    0.9019    1.3395 C   0  0  0  0  0  0  0  0  0  0  0  0
    1.0919    0.6849    0.6021 H   0  0  0  0  0  0  0  0  0  0  0  0
   -0.4383    0.1426    1.5371 H   0  0  0  0  0  0  0  0  0  0  0  0
    0.2991   -5.6582   -2.4748 N   0  0  0  0  0  0  0  0  0  0  0  0
    0.3111   -6.6266   -3.0076 N   0  0  0  0  0  0  0  0  0  0  0  0
    0.3133    2.1027    2.0271 C   0  0  0  0  0  0  0  0  0  0  0  0
    1.0832    2.8528    1.8449 H   0  0  0  0  0  0  0  0  0  0  0  0
   -0.3333    1.9590    0.8855 H   0  0  0  0  0  0  0  0  0  0  0  0
   -0.4472    2.3105    2.7801 H   0  0  0  0  0  0  0  0  0  0  0  0
  1  3  1  0  0  0  0
  1  6  1  0  0  0  0
  2  1  1  0  0  0  0
  5  4  3  0  0  0  0
  6  9  1  0  0  0  0
  7  6  1  0  0  0  0
  8  6  1  0  0  0  0
M  RAD  1   1   2
M  END
