Coordinates from ORCA-job C2H5-N2+-scan-d09-169-n800
 OpenBabel09191813583D

  9  7  0  0  0  0  0  0  0  0999 V2000
    0.3057    1.9786    1.9385 C   0  0  0  0  0  0  0  0  0  0  0  0
    1.0774    1.7633    1.1990 H   0  0  0  0  0  0  0  0  0  0  0  0
   -0.4528    1.2203    2.1338 H   0  0  0  0  0  0  0  0  0  0  0  0
    0.3544   -9.4275   -4.5757 N   0  0  0  0  0  0  0  0  0  0  0  0
    0.3299  -10.3859   -5.1261 N   0  0  0  0  0  0  0  0  0  0  0  0
    0.3051    3.1756    2.6327 C   0  0  0  0  0  0  0  0  0  0  0  0
    1.0765    3.9247    2.4531 H   0  0  0  0  0  0  0  0  0  0  0  0
   -0.3439    3.0388    1.4908 H   0  0  0  0  0  0  0  0  0  0  0  0
   -0.4538    3.3817    3.3878 H   0  0  0  0  0  0  0  0  0  0  0  0
  1  3  1  0  0  0  0
  1  6  1  0  0  0  0
  2  1  1  0  0  0  0
  5  4  3  0  0  0  0
  6  9  1  0  0  0  0
  7  6  1  0  0  0  0
  8  6  1  0  0  0  0
M  RAD  1   1   2
M  END
