Coordinates from ORCA-job C2H5-N2+-scan-d09-169-n800
 OpenBabel09191813583D

  9  7  0  0  0  0  0  0  0  0999 V2000
    0.3210    1.0516    1.4294 C   0  0  0  0  0  0  0  0  0  0  0  0
    1.0968    0.8329    0.6953 H   0  0  0  0  0  0  0  0  0  0  0  0
   -0.4333    0.2905    1.6303 H   0  0  0  0  0  0  0  0  0  0  0  0
    0.3025   -6.1856   -2.7740 N   0  0  0  0  0  0  0  0  0  0  0  0
    0.3140   -7.1544   -3.3063 N   0  0  0  0  0  0  0  0  0  0  0  0
    0.3092    2.2567    2.1092 C   0  0  0  0  0  0  0  0  0  0  0  0
    1.0764    3.0088    1.9240 H   0  0  0  0  0  0  0  0  0  0  0  0
   -0.3342    2.1027    0.9670 H   0  0  0  0  0  0  0  0  0  0  0  0
   -0.4539    2.4664    2.8591 H   0  0  0  0  0  0  0  0  0  0  0  0
  1  3  1  0  0  0  0
  1  6  1  0  0  0  0
  2  1  1  0  0  0  0
  5  4  3  0  0  0  0
  6  9  1  0  0  0  0
  7  6  1  0  0  0  0
  8  6  1  0  0  0  0
M  RAD  1   1   2
M  END
