Coordinates from ORCA-job C2H5-N2+-scan-d09-169-n800
 OpenBabel09191813583D

  9  7  0  0  0  0  0  0  0  0999 V2000
   -0.1387    0.0668    0.1126 C   0  0  0  0  0  0  0  0  0  0  0  0
    0.3065    0.3374   -0.8449 H   0  0  0  0  0  0  0  0  0  0  0  0
   -1.1966   -0.1930    0.0745 H   0  0  0  0  0  0  0  0  0  0  0  0
    0.4330   -1.7836   -0.0202 N   0  0  0  0  0  0  0  0  0  0  0  0
    0.7725   -2.8327   -0.0703 N   0  0  0  0  0  0  0  0  0  0  0  0
    0.4283    0.6050    1.3501 C   0  0  0  0  0  0  0  0  0  0  0  0
    1.5177    0.6731    1.3505 H   0  0  0  0  0  0  0  0  0  0  0  0
    0.0436    1.6477    1.3226 H   0  0  0  0  0  0  0  0  0  0  0  0
    0.0320    0.1489    2.2592 H   0  0  0  0  0  0  0  0  0  0  0  0
  1  6  1  0  0  0  0
  2  1  1  0  0  0  0
  3  1  1  0  0  0  0
  5  4  3  0  0  0  0
  6  7  1  0  0  0  0
  6  9  1  0  0  0  0
  8  6  1  0  0  0  0
M  RAD  1   1   2
M  END
