Coordinates from ORCA-job C2H5-N2+-scan-d09-169-n800
 OpenBabel09191813583D

  9  7  0  0  0  0  0  0  0  0999 V2000
    0.3228    1.2440    1.5431 C   0  0  0  0  0  0  0  0  0  0  0  0
    1.1012    1.0238    0.8123 H   0  0  0  0  0  0  0  0  0  0  0  0
   -0.4289    0.4812    1.7473 H   0  0  0  0  0  0  0  0  0  0  0  0
    0.3074   -6.8625   -3.1572 N   0  0  0  0  0  0  0  0  0  0  0  0
    0.3184   -7.8318   -3.6884 N   0  0  0  0  0  0  0  0  0  0  0  0
    0.3047    2.4534    2.2153 C   0  0  0  0  0  0  0  0  0  0  0  0
    1.0693    3.2074    2.0270 H   0  0  0  0  0  0  0  0  0  0  0  0
   -0.3355    2.2894    1.0725 H   0  0  0  0  0  0  0  0  0  0  0  0
   -0.4610    2.6648    2.9620 H   0  0  0  0  0  0  0  0  0  0  0  0
  1  3  1  0  0  0  0
  1  6  1  0  0  0  0
  2  1  1  0  0  0  0
  5  4  3  0  0  0  0
  6  9  1  0  0  0  0
  7  6  1  0  0  0  0
  8  6  1  0  0  0  0
M  RAD  1   1   2
M  END
