Coordinates from ORCA-job C2H5-N2+-scan-d09-169-n800
 OpenBabel09191813583D

  9  7  0  0  0  0  0  0  0  0999 V2000
    0.2986    2.3943    2.1694 C   0  0  0  0  0  0  0  0  0  0  0  0
    1.0680    2.1780    1.4280 H   0  0  0  0  0  0  0  0  0  0  0  0
   -0.4621    1.6381    2.3648 H   0  0  0  0  0  0  0  0  0  0  0  0
    0.3748  -10.8948   -5.3679 N   0  0  0  0  0  0  0  0  0  0  0  0
    0.3415  -11.8277   -5.9601 N   0  0  0  0  0  0  0  0  0  0  0  0
    0.3031    3.5900    2.8659 C   0  0  0  0  0  0  0  0  0  0  0  0
    1.0766    4.3370    2.6860 H   0  0  0  0  0  0  0  0  0  0  0  0
   -0.3486    3.4574    1.7250 H   0  0  0  0  0  0  0  0  0  0  0  0
   -0.4536    3.7972    3.6229 H   0  0  0  0  0  0  0  0  0  0  0  0
  1  3  1  0  0  0  0
  1  6  1  0  0  0  0
  2  1  1  0  0  0  0
  5  4  3  0  0  0  0
  6  9  1  0  0  0  0
  7  6  1  0  0  0  0
  8  6  1  0  0  0  0
M  RAD  1   1   2
M  END
