Coordinates from ORCA-job C2H5-N2+-scan-d09-169-n800
 OpenBabel09191813583D

  9  7  0  0  0  0  0  0  0  0999 V2000
    0.3163    1.6492    1.7653 C   0  0  0  0  0  0  0  0  0  0  0  0
    1.0930    1.4309    1.0320 H   0  0  0  0  0  0  0  0  0  0  0  0
   -0.4373    0.8874    1.9665 H   0  0  0  0  0  0  0  0  0  0  0  0
    0.3266   -8.2763   -3.9496 N   0  0  0  0  0  0  0  0  0  0  0  0
    0.3281   -9.2466   -4.4793 N   0  0  0  0  0  0  0  0  0  0  0  0
    0.3030    2.8547    2.4446 C   0  0  0  0  0  0  0  0  0  0  0  0
    1.0694    3.6076    2.2591 H   0  0  0  0  0  0  0  0  0  0  0  0
   -0.3396    2.6986    1.3016 H   0  0  0  0  0  0  0  0  0  0  0  0
   -0.4610    3.0641    3.1937 H   0  0  0  0  0  0  0  0  0  0  0  0
  1  3  1  0  0  0  0
  1  6  1  0  0  0  0
  2  1  1  0  0  0  0
  5  4  3  0  0  0  0
  6  9  1  0  0  0  0
  7  6  1  0  0  0  0
  8  6  1  0  0  0  0
M  RAD  1   1   2
M  END
