Coordinates from ORCA-job C2H5-N2+-scan-d09-169-n800
 OpenBabel09191813583D

  9  7  0  0  0  0  0  0  0  0999 V2000
    0.3238    1.4561    1.6670 C   0  0  0  0  0  0  0  0  0  0  0  0
    1.1044    1.2346    0.9389 H   0  0  0  0  0  0  0  0  0  0  0  0
   -0.4258    0.6920    1.8738 H   0  0  0  0  0  0  0  0  0  0  0  0
    0.3134   -7.6075   -3.5782 N   0  0  0  0  0  0  0  0  0  0  0  0
    0.3237   -8.5776   -4.1083 N   0  0  0  0  0  0  0  0  0  0  0  0
    0.3004    2.6690    2.3327 C   0  0  0  0  0  0  0  0  0  0  0  0
    1.0629    3.4245    2.1418 H   0  0  0  0  0  0  0  0  0  0  0  0
   -0.3370    2.4967    1.1895 H   0  0  0  0  0  0  0  0  0  0  0  0
   -0.4674    2.8818    3.0768 H   0  0  0  0  0  0  0  0  0  0  0  0
  1  3  1  0  0  0  0
  1  6  1  0  0  0  0
  2  1  1  0  0  0  0
  5  4  3  0  0  0  0
  6  9  1  0  0  0  0
  7  6  1  0  0  0  0
  8  6  1  0  0  0  0
M  RAD  1   1   2
M  END
