Coordinates from ORCA-job C2H5-N2+-scan-d09-169-n800
 OpenBabel09191813583D

  9  7  0  0  0  0  0  0  0  0999 V2000
    0.2984    2.4098    2.1781 C   0  0  0  0  0  0  0  0  0  0  0  0
    1.0678    2.1935    1.4367 H   0  0  0  0  0  0  0  0  0  0  0  0
   -0.4623    1.6537    2.3735 H   0  0  0  0  0  0  0  0  0  0  0  0
    0.3753  -10.9494   -5.3979 N   0  0  0  0  0  0  0  0  0  0  0  0
    0.3421  -11.8818   -5.9908 N   0  0  0  0  0  0  0  0  0  0  0  0
    0.3030    3.6056    2.8746 C   0  0  0  0  0  0  0  0  0  0  0  0
    1.0765    4.3525    2.6947 H   0  0  0  0  0  0  0  0  0  0  0  0
   -0.3488    3.4729    1.7337 H   0  0  0  0  0  0  0  0  0  0  0  0
   -0.4537    3.8127    3.6316 H   0  0  0  0  0  0  0  0  0  0  0  0
  1  3  1  0  0  0  0
  1  6  1  0  0  0  0
  2  1  1  0  0  0  0
  5  4  3  0  0  0  0
  6  9  1  0  0  0  0
  7  6  1  0  0  0  0
  8  6  1  0  0  0  0
M  RAD  1   1   2
M  END
