Coordinates from ORCA-job C2H5-N2+-scan-d09-169-n800
 OpenBabel09191813583D

  9  7  0  0  0  0  0  0  0  0999 V2000
    0.3047    2.0982    2.0076 C   0  0  0  0  0  0  0  0  0  0  0  0
    1.0765    1.8813    1.2688 H   0  0  0  0  0  0  0  0  0  0  0  0
   -0.4537    1.3402    2.2048 H   0  0  0  0  0  0  0  0  0  0  0  0
    0.3637   -9.8555   -4.7995 N   0  0  0  0  0  0  0  0  0  0  0  0
    0.3295  -10.7993   -5.3740 N   0  0  0  0  0  0  0  0  0  0  0  0
    0.3036    3.2970    2.6988 C   0  0  0  0  0  0  0  0  0  0  0  0
    1.0748    4.0459    2.5172 H   0  0  0  0  0  0  0  0  0  0  0  0
   -0.3452    3.1570    1.5571 H   0  0  0  0  0  0  0  0  0  0  0  0
   -0.4555    3.5048    3.4532 H   0  0  0  0  0  0  0  0  0  0  0  0
  1  3  1  0  0  0  0
  1  6  1  0  0  0  0
  2  1  1  0  0  0  0
  5  4  3  0  0  0  0
  6  9  1  0  0  0  0
  7  6  1  0  0  0  0
  8  6  1  0  0  0  0
M  RAD  1   1   2
M  END
