Coordinates from ORCA-job C2H5-N2+-scan-d09-169-n800
 OpenBabel09191813583D

  9  7  0  0  0  0  0  0  0  0999 V2000
    0.2945    2.6900    2.3328 C   0  0  0  0  0  0  0  0  0  0  0  0
    1.0632    2.4745    1.5904 H   0  0  0  0  0  0  0  0  0  0  0  0
   -0.4669    1.9343    2.5270 H   0  0  0  0  0  0  0  0  0  0  0  0
    0.3872  -11.9293   -5.9437 N   0  0  0  0  0  0  0  0  0  0  0  0
    0.3509  -12.8597   -6.5398 N   0  0  0  0  0  0  0  0  0  0  0  0
    0.3010    3.8841    3.0322 C   0  0  0  0  0  0  0  0  0  0  0  0
    1.0752    4.6306    2.8535 H   0  0  0  0  0  0  0  0  0  0  0  0
   -0.3517    3.7548    1.8913 H   0  0  0  0  0  0  0  0  0  0  0  0
   -0.4550    4.0903    3.7902 H   0  0  0  0  0  0  0  0  0  0  0  0
  1  3  1  0  0  0  0
  1  6  1  0  0  0  0
  2  1  1  0  0  0  0
  5  4  3  0  0  0  0
  6  9  1  0  0  0  0
  7  6  1  0  0  0  0
  8  6  1  0  0  0  0
M  RAD  1   1   2
M  END
