Coordinates from ORCA-job C2H5-N2+-scan-d09-169-n800
 OpenBabel09191813583D

  9  7  0  0  0  0  0  0  0  0999 V2000
    0.3229    1.5919    1.7435 C   0  0  0  0  0  0  0  0  0  0  0  0
    1.1038    1.3705    1.0156 H   0  0  0  0  0  0  0  0  0  0  0  0
   -0.4264    0.8275    1.9505 H   0  0  0  0  0  0  0  0  0  0  0  0
    0.3184   -8.0824   -3.8459 N   0  0  0  0  0  0  0  0  0  0  0  0
    0.3272   -9.0532   -4.3744 N   0  0  0  0  0  0  0  0  0  0  0  0
    0.2989    2.8049    2.4089 C   0  0  0  0  0  0  0  0  0  0  0  0
    1.0610    3.5608    2.2178 H   0  0  0  0  0  0  0  0  0  0  0  0
   -0.3382    2.6318    1.2654 H   0  0  0  0  0  0  0  0  0  0  0  0
   -0.4693    3.0178    3.1527 H   0  0  0  0  0  0  0  0  0  0  0  0
  1  3  1  0  0  0  0
  1  6  1  0  0  0  0
  2  1  1  0  0  0  0
  5  4  3  0  0  0  0
  6  9  1  0  0  0  0
  7  6  1  0  0  0  0
  8  6  1  0  0  0  0
M  RAD  1   1   2
M  END
