Coordinates from ORCA-job C2H5-N2+-scan-d09-169-n800
 OpenBabel09191813583D

  9  7  0  0  0  0  0  0  0  0999 V2000
    0.2967    2.5344    2.2469 C   0  0  0  0  0  0  0  0  0  0  0  0
    1.0659    2.3185    1.5050 H   0  0  0  0  0  0  0  0  0  0  0  0
   -0.4642    1.7783    2.4417 H   0  0  0  0  0  0  0  0  0  0  0  0
    0.3807  -11.3846   -5.6410 N   0  0  0  0  0  0  0  0  0  0  0  0
    0.3459  -12.3167   -6.2344 N   0  0  0  0  0  0  0  0  0  0  0  0
    0.3020    3.7293    2.9446 C   0  0  0  0  0  0  0  0  0  0  0  0
    1.0758    4.4762    2.7653 H   0  0  0  0  0  0  0  0  0  0  0  0
   -0.3501    3.5982    1.8037 H   0  0  0  0  0  0  0  0  0  0  0  0
   -0.4544    3.9361    3.7020 H   0  0  0  0  0  0  0  0  0  0  0  0
  1  3  1  0  0  0  0
  1  6  1  0  0  0  0
  2  1  1  0  0  0  0
  5  4  3  0  0  0  0
  6  9  1  0  0  0  0
  7  6  1  0  0  0  0
  8  6  1  0  0  0  0
M  RAD  1   1   2
M  END
