Coordinates from ORCA-job C2H5-N2+-scan-d09-169-n800
 OpenBabel09191813583D

  9  7  0  0  0  0  0  0  0  0999 V2000
    0.3194    0.9441    1.3650 C   0  0  0  0  0  0  0  0  0  0  0  0
    1.0934    0.7265    0.6286 H   0  0  0  0  0  0  0  0  0  0  0  0
   -0.4367    0.1842    1.5636 H   0  0  0  0  0  0  0  0  0  0  0  0
    0.3000   -5.8069   -2.5592 N   0  0  0  0  0  0  0  0  0  0  0  0
    0.3119   -6.7754   -3.0919 N   0  0  0  0  0  0  0  0  0  0  0  0
    0.3121    2.1462    2.0502 C   0  0  0  0  0  0  0  0  0  0  0  0
    1.0811    2.8969    1.8671 H   0  0  0  0  0  0  0  0  0  0  0  0
   -0.3335    1.9993    0.9084 H   0  0  0  0  0  0  0  0  0  0  0  0
   -0.4492    2.3546    2.8022 H   0  0  0  0  0  0  0  0  0  0  0  0
  1  3  1  0  0  0  0
  1  6  1  0  0  0  0
  2  1  1  0  0  0  0
  5  4  3  0  0  0  0
  6  9  1  0  0  0  0
  7  6  1  0  0  0  0
  8  6  1  0  0  0  0
M  RAD  1   1   2
M  END
