Coordinates from ORCA-job C2H5-N2+-scan-d09-169-n800
 OpenBabel09191813583D

  9  7  0  0  0  0  0  0  0  0999 V2000
    0.2977    2.4527    2.2015 C   0  0  0  0  0  0  0  0  0  0  0  0
    1.0670    2.2366    1.4599 H   0  0  0  0  0  0  0  0  0  0  0  0
   -0.4631    1.6966    2.3966 H   0  0  0  0  0  0  0  0  0  0  0  0
    0.3777  -11.0989   -5.4817 N   0  0  0  0  0  0  0  0  0  0  0  0
    0.3429  -12.0315   -6.0742 N   0  0  0  0  0  0  0  0  0  0  0  0
    0.3027    3.6480    2.8988 C   0  0  0  0  0  0  0  0  0  0  0  0
    1.0764    4.3949    2.7193 H   0  0  0  0  0  0  0  0  0  0  0  0
   -0.3492    3.5162    1.7579 H   0  0  0  0  0  0  0  0  0  0  0  0
   -0.4538    3.8549    3.6560 H   0  0  0  0  0  0  0  0  0  0  0  0
  1  3  1  0  0  0  0
  1  6  1  0  0  0  0
  2  1  1  0  0  0  0
  5  4  3  0  0  0  0
  6  9  1  0  0  0  0
  7  6  1  0  0  0  0
  8  6  1  0  0  0  0
M  RAD  1   1   2
M  END
