Coordinates from ORCA-job C2H5-N2+-scan-d09-169-n800
 OpenBabel09191813583D

  9  7  0  0  0  0  0  0  0  0999 V2000
    0.3137    0.6956    1.2126 C   0  0  0  0  0  0  0  0  0  0  0  0
    1.0818    0.4816    0.4691 H   0  0  0  0  0  0  0  0  0  0  0  0
   -0.4482   -0.0603    1.4041 H   0  0  0  0  0  0  0  0  0  0  0  0
    0.2953   -4.9288   -2.0596 N   0  0  0  0  0  0  0  0  0  0  0  0
    0.3082   -5.8970   -2.5928 N   0  0  0  0  0  0  0  0  0  0  0  0
    0.3202    1.8881    1.9145 C   0  0  0  0  0  0  0  0  0  0  0  0
    1.0950    2.6345    1.7382 H   0  0  0  0  0  0  0  0  0  0  0  0
   -0.3323    1.7636    0.7746 H   0  0  0  0  0  0  0  0  0  0  0  0
   -0.4354    2.0924    2.6734 H   0  0  0  0  0  0  0  0  0  0  0  0
  1  3  1  0  0  0  0
  1  6  1  0  0  0  0
  2  1  1  0  0  0  0
  5  4  3  0  0  0  0
  6  9  1  0  0  0  0
  7  6  1  0  0  0  0
  8  6  1  0  0  0  0
M  RAD  1   1   2
M  END
