Coordinates from ORCA-job C2H5-N2+-scan-d09-169-n800
 OpenBabel09191813583D

  9  7  0  0  0  0  0  0  0  0999 V2000
    0.3071    0.5249    1.1038 C   0  0  0  0  0  0  0  0  0  0  0  0
    1.0693    0.3145    0.3532 H   0  0  0  0  0  0  0  0  0  0  0  0
   -0.4606   -0.2270    1.2881 H   0  0  0  0  0  0  0  0  0  0  0  0
    0.2936   -4.3222   -1.7124 N   0  0  0  0  0  0  0  0  0  0  0  0
    0.3076   -5.2907   -2.2451 N   0  0  0  0  0  0  0  0  0  0  0  0
    0.3274    1.7075    1.8219 C   0  0  0  0  0  0  0  0  0  0  0  0
    1.1081    2.4493    1.6524 H   0  0  0  0  0  0  0  0  0  0  0  0
   -0.3317    1.6058    0.6846 H   0  0  0  0  0  0  0  0  0  0  0  0
   -0.4224    1.9076    2.5876 H   0  0  0  0  0  0  0  0  0  0  0  0
  1  3  1  0  0  0  0
  1  6  1  0  0  0  0
  2  1  1  0  0  0  0
  5  4  3  0  0  0  0
  6  9  1  0  0  0  0
  7  6  1  0  0  0  0
  8  6  1  0  0  0  0
M  RAD  1   1   2
M  END
