Coordinates from ORCA-job C2H5-N2+-scan-d09-169-n800
 OpenBabel09191813583D

  9  7  0  0  0  0  0  0  0  0999 V2000
    0.2851    0.2115    0.8887 C   0  0  0  0  0  0  0  0  0  0  0  0
    1.0271    0.0111    0.1156 H   0  0  0  0  0  0  0  0  0  0  0  0
   -0.4998   -0.5278    1.0492 H   0  0  0  0  0  0  0  0  0  0  0  0
    0.2961   -3.1949   -1.0586 N   0  0  0  0  0  0  0  0  0  0  0  0
    0.3163   -4.1665   -1.5850 N   0  0  0  0  0  0  0  0  0  0  0  0
    0.3456    1.3634    1.6526 C   0  0  0  0  0  0  0  0  0  0  0  0
    1.1447    2.0897    1.5035 H   0  0  0  0  0  0  0  0  0  0  0  0
   -0.3310    1.3336    0.5288 H   0  0  0  0  0  0  0  0  0  0  0  0
   -0.3857    1.5495    2.4393 H   0  0  0  0  0  0  0  0  0  0  0  0
  1  3  1  0  0  0  0
  1  6  1  0  0  0  0
  2  1  1  0  0  0  0
  5  4  3  0  0  0  0
  6  9  1  0  0  0  0
  7  6  1  0  0  0  0
  8  6  1  0  0  0  0
M  RAD  1   1   2
M  END
