Coordinates from ORCA-job C2H5-N2+-scan-d09-169-n800
 OpenBabel09191813583D

  9  7  0  0  0  0  0  0  0  0999 V2000
   -0.1544    0.1970    0.1620 C   0  0  0  0  0  0  0  0  0  0  0  0
    0.3297    0.3818   -0.7978 H   0  0  0  0  0  0  0  0  0  0  0  0
   -1.1868   -0.1533    0.1298 H   0  0  0  0  0  0  0  0  0  0  0  0
    0.4841   -2.0621   -0.0973 N   0  0  0  0  0  0  0  0  0  0  0  0
    0.7816   -3.1187   -0.2205 N   0  0  0  0  0  0  0  0  0  0  0  0
    0.4251    0.6659    1.3799 C   0  0  0  0  0  0  0  0  0  0  0  0
    1.5102    0.7884    1.3790 H   0  0  0  0  0  0  0  0  0  0  0  0
    0.0054    1.7138    1.2983 H   0  0  0  0  0  0  0  0  0  0  0  0
    0.0036    0.2568    2.3005 H   0  0  0  0  0  0  0  0  0  0  0  0
  1  6  1  0  0  0  0
  2  1  1  0  0  0  0
  3  1  1  0  0  0  0
  5  4  3  0  0  0  0
  6  9  1  0  0  0  0
  7  6  1  0  0  0  0
  8  6  1  0  0  0  0
M  RAD  1   1   2
M  END
