Coordinates from ORCA-job C2H5-N2+-scan-d09-169-n800
 OpenBabel09191813583D

  9  7  0  0  0  0  0  0  0  0999 V2000
   -0.0917    0.2982    0.3229 C   0  0  0  0  0  0  0  0  0  0  0  0
    0.4246    0.4305   -0.6274 H   0  0  0  0  0  0  0  0  0  0  0  0
   -1.1026   -0.1081    0.3065 H   0  0  0  0  0  0  0  0  0  0  0  0
    0.4929   -2.4714   -0.3190 N   0  0  0  0  0  0  0  0  0  0  0  0
    0.7174   -3.5260   -0.5606 N   0  0  0  0  0  0  0  0  0  0  0  0
    0.4753    0.7452    1.5079 C   0  0  0  0  0  0  0  0  0  0  0  0
    1.5000    1.1151    1.5237 H   0  0  0  0  0  0  0  0  0  0  0  0
   -0.1886    1.6102    0.9212 H   0  0  0  0  0  0  0  0  0  0  0  0
   -0.0288    0.5759    2.4588 H   0  0  0  0  0  0  0  0  0  0  0  0
  1  6  1  0  0  0  0
  2  1  1  0  0  0  0
  3  1  1  0  0  0  0
  5  4  3  0  0  0  0
  6  7  1  0  0  0  0
  6  9  1  0  0  0  0
  8  6  1  0  0  0  0
M  RAD  1   1   2
M  END
