Coordinates from ORCA-job C2H5-N2+-scan-d09-169-n800
 OpenBabel09191813583D

  9  7  0  0  0  0  0  0  0  0999 V2000
    0.2803    0.1522    0.8469 C   0  0  0  0  0  0  0  0  0  0  0  0
    1.0171   -0.0464    0.0686 H   0  0  0  0  0  0  0  0  0  0  0  0
   -0.5081   -0.5845    1.0012 H   0  0  0  0  0  0  0  0  0  0  0  0
    0.2968   -2.9804   -0.9338 N   0  0  0  0  0  0  0  0  0  0  0  0
    0.3190   -3.9531   -1.4580 N   0  0  0  0  0  0  0  0  0  0  0  0
    0.3491    1.2974    1.6201 C   0  0  0  0  0  0  0  0  0  0  0  0
    1.1526    2.0198    1.4759 H   0  0  0  0  0  0  0  0  0  0  0  0
   -0.3306    1.2847    0.5013 H   0  0  0  0  0  0  0  0  0  0  0  0
   -0.3777    1.4799    2.4117 H   0  0  0  0  0  0  0  0  0  0  0  0
  1  3  1  0  0  0  0
  1  6  1  0  0  0  0
  2  1  1  0  0  0  0
  5  4  3  0  0  0  0
  6  9  1  0  0  0  0
  7  6  1  0  0  0  0
  8  6  1  0  0  0  0
M  RAD  1   1   2
M  END
