Coordinates from ORCA-job C2H5-N2+-scan-d09-169-n800
 OpenBabel09191813583D

  9  7  0  0  0  0  0  0  0  0999 V2000
    0.3093    0.5740    1.1356 C   0  0  0  0  0  0  0  0  0  0  0  0
    1.0734    0.3625    0.3873 H   0  0  0  0  0  0  0  0  0  0  0  0
   -0.4565   -0.1791    1.3222 H   0  0  0  0  0  0  0  0  0  0  0  0
    0.2939   -4.4973   -1.8129 N   0  0  0  0  0  0  0  0  0  0  0  0
    0.3075   -5.4656   -2.3458 N   0  0  0  0  0  0  0  0  0  0  0  0
    0.3251    1.7599    1.8485 C   0  0  0  0  0  0  0  0  0  0  0  0
    1.1039    2.5032    1.6768 H   0  0  0  0  0  0  0  0  0  0  0  0
   -0.3318    1.6508    0.7103 H   0  0  0  0  0  0  0  0  0  0  0  0
   -0.4265    1.9613    2.6120 H   0  0  0  0  0  0  0  0  0  0  0  0
  1  3  1  0  0  0  0
  1  6  1  0  0  0  0
  2  1  1  0  0  0  0
  5  4  3  0  0  0  0
  6  9  1  0  0  0  0
  7  6  1  0  0  0  0
  8  6  1  0  0  0  0
M  RAD  1   1   2
M  END
