Coordinates from ORCA-job C2H5-N2+-scan-d09-169-n800
 OpenBabel09191813583D

  9  7  0  0  0  0  0  0  0  0999 V2000
   -0.0866    0.4086    0.3949 C   0  0  0  0  0  0  0  0  0  0  0  0
    0.4493    0.4969   -0.5500 H   0  0  0  0  0  0  0  0  0  0  0  0
   -1.0789   -0.0422    0.3847 H   0  0  0  0  0  0  0  0  0  0  0  0
    0.5255   -2.8436   -0.4806 N   0  0  0  0  0  0  0  0  0  0  0  0
    0.7235   -3.8936   -0.7627 N   0  0  0  0  0  0  0  0  0  0  0  0
    0.4782    0.8563    1.5767 C   0  0  0  0  0  0  0  0  0  0  0  0
    1.4812    1.2826    1.5880 H   0  0  0  0  0  0  0  0  0  0  0  0
   -0.2448    1.6617    0.8591 H   0  0  0  0  0  0  0  0  0  0  0  0
   -0.0490    0.7428    2.5238 H   0  0  0  0  0  0  0  0  0  0  0  0
  1  6  1  0  0  0  0
  2  1  1  0  0  0  0
  3  1  1  0  0  0  0
  5  4  3  0  0  0  0
  6  7  1  0  0  0  0
  6  9  1  0  0  0  0
  8  6  1  0  0  0  0
M  RAD  1   1   2
M  END
