Coordinates from ORCA-job C2H5-N2+-scan-d09-169-n800
 OpenBabel09191813583D

  9  7  0  0  0  0  0  0  0  0999 V2000
    0.3219    1.1362    1.4796 C   0  0  0  0  0  0  0  0  0  0  0  0
    1.0990    0.9168    0.7471 H   0  0  0  0  0  0  0  0  0  0  0  0
   -0.4312    0.3743    1.6821 H   0  0  0  0  0  0  0  0  0  0  0  0
    0.3046   -6.4834   -2.9427 N   0  0  0  0  0  0  0  0  0  0  0  0
    0.3159   -7.4524   -3.4745 N   0  0  0  0  0  0  0  0  0  0  0  0
    0.3071    2.3433    2.1558 C   0  0  0  0  0  0  0  0  0  0  0  0
    1.0731    3.0964    1.9691 H   0  0  0  0  0  0  0  0  0  0  0  0
   -0.3347    2.1846    1.0133 H   0  0  0  0  0  0  0  0  0  0  0  0
   -0.4572    2.5538    2.9042 H   0  0  0  0  0  0  0  0  0  0  0  0
  1  3  1  0  0  0  0
  1  6  1  0  0  0  0
  2  1  1  0  0  0  0
  5  4  3  0  0  0  0
  6  9  1  0  0  0  0
  7  6  1  0  0  0  0
  8  6  1  0  0  0  0
M  RAD  1   1   2
M  END
