Coordinates from ORCA-job C2H5-N2+-scan-d09-169-n800
 OpenBabel09191813583D

  9  7  0  0  0  0  0  0  0  0999 V2000
    0.3076    1.8389    1.8602 C   0  0  0  0  0  0  0  0  0  0  0  0
    1.0794    1.6240    1.1209 H   0  0  0  0  0  0  0  0  0  0  0  0
   -0.4508    1.0803    2.0551 H   0  0  0  0  0  0  0  0  0  0  0  0
    0.3437   -8.9345   -4.3084 N   0  0  0  0  0  0  0  0  0  0  0  0
    0.3301   -9.9004   -4.8458 N   0  0  0  0  0  0  0  0  0  0  0  0
    0.3063    3.0358    2.5546 C   0  0  0  0  0  0  0  0  0  0  0  0
    1.0775    3.7852    2.3753 H   0  0  0  0  0  0  0  0  0  0  0  0
   -0.3424    2.8989    1.4125 H   0  0  0  0  0  0  0  0  0  0  0  0
   -0.4529    3.2415    3.3096 H   0  0  0  0  0  0  0  0  0  0  0  0
  1  3  1  0  0  0  0
  1  6  1  0  0  0  0
  2  1  1  0  0  0  0
  5  4  3  0  0  0  0
  6  9  1  0  0  0  0
  7  6  1  0  0  0  0
  8  6  1  0  0  0  0
M  RAD  1   1   2
M  END
