Coordinates from ORCA-job C2H5-N2+-scan-d09-169-n800
 OpenBabel09191813583D

  9  7  0  0  0  0  0  0  0  0999 V2000
    0.2973    2.4877    2.2211 C   0  0  0  0  0  0  0  0  0  0  0  0
    1.0666    2.2715    1.4794 H   0  0  0  0  0  0  0  0  0  0  0  0
   -0.4635    1.7316    2.4162 H   0  0  0  0  0  0  0  0  0  0  0  0
    0.3789  -11.2216   -5.5495 N   0  0  0  0  0  0  0  0  0  0  0  0
    0.3443  -12.1534   -6.1433 N   0  0  0  0  0  0  0  0  0  0  0  0
    0.3024    3.6829    2.9183 C   0  0  0  0  0  0  0  0  0  0  0  0
    1.0760    4.4298    2.7388 H   0  0  0  0  0  0  0  0  0  0  0  0
   -0.3496    3.5512    1.7774 H   0  0  0  0  0  0  0  0  0  0  0  0
   -0.4541    3.8899    3.6756 H   0  0  0  0  0  0  0  0  0  0  0  0
  1  3  1  0  0  0  0
  1  6  1  0  0  0  0
  2  1  1  0  0  0  0
  5  4  3  0  0  0  0
  6  9  1  0  0  0  0
  7  6  1  0  0  0  0
  8  6  1  0  0  0  0
M  RAD  1   1   2
M  END
