Coordinates from ORCA-job C2H5-N2+-scan-d09-169-n800
 OpenBabel09191813583D

  9  7  0  0  0  0  0  0  0  0999 V2000
    0.3121    0.6461    1.1815 C   0  0  0  0  0  0  0  0  0  0  0  0
    1.0787    0.4331    0.4362 H   0  0  0  0  0  0  0  0  0  0  0  0
   -0.4513   -0.1088    1.3712 H   0  0  0  0  0  0  0  0  0  0  0  0
    0.2947   -4.7534   -1.9595 N   0  0  0  0  0  0  0  0  0  0  0  0
    0.3078   -5.7216   -2.4926 N   0  0  0  0  0  0  0  0  0  0  0  0
    0.3221    1.8361    1.8876 C   0  0  0  0  0  0  0  0  0  0  0  0
    1.0984    2.5813    1.7130 H   0  0  0  0  0  0  0  0  0  0  0  0
   -0.3321    1.7175    0.7483 H   0  0  0  0  0  0  0  0  0  0  0  0
   -0.4320    2.0394    2.6482 H   0  0  0  0  0  0  0  0  0  0  0  0
  1  3  1  0  0  0  0
  1  6  1  0  0  0  0
  2  1  1  0  0  0  0
  5  4  3  0  0  0  0
  6  9  1  0  0  0  0
  7  6  1  0  0  0  0
  8  6  1  0  0  0  0
M  RAD  1   1   2
M  END
