Coordinates from ORCA-job C2H5-N2+-scan-d09-169-n800
 OpenBabel09191813583D

  9  7  0  0  0  0  0  0  0  0999 V2000
    0.2949    2.6705    2.3222 C   0  0  0  0  0  0  0  0  0  0  0  0
    1.0637    2.4550    1.5799 H   0  0  0  0  0  0  0  0  0  0  0  0
   -0.4664    1.9147    2.5165 H   0  0  0  0  0  0  0  0  0  0  0  0
    0.3865  -11.8611   -5.9061 N   0  0  0  0  0  0  0  0  0  0  0  0
    0.3501  -12.7919   -6.5014 N   0  0  0  0  0  0  0  0  0  0  0  0
    0.3010    3.8648    3.0212 C   0  0  0  0  0  0  0  0  0  0  0  0
    1.0751    4.6114    2.8424 H   0  0  0  0  0  0  0  0  0  0  0  0
   -0.3515    3.7351    1.8803 H   0  0  0  0  0  0  0  0  0  0  0  0
   -0.4551    4.0711    3.7790 H   0  0  0  0  0  0  0  0  0  0  0  0
  1  3  1  0  0  0  0
  1  6  1  0  0  0  0
  2  1  1  0  0  0  0
  5  4  3  0  0  0  0
  6  9  1  0  0  0  0
  7  6  1  0  0  0  0
  8  6  1  0  0  0  0
M  RAD  1   1   2
M  END
