Coordinates from ORCA-job C2H5-N2+-scan-d09-169-n800
 OpenBabel09191813583D

  9  7  0  0  0  0  0  0  0  0999 V2000
    0.3060    0.5022    1.0890 C   0  0  0  0  0  0  0  0  0  0  0  0
    1.0672    0.2924    0.3372 H   0  0  0  0  0  0  0  0  0  0  0  0
   -0.4626   -0.2490    1.2722 H   0  0  0  0  0  0  0  0  0  0  0  0
    0.2935   -4.2415   -1.6660 N   0  0  0  0  0  0  0  0  0  0  0  0
    0.3077   -5.2100   -2.1986 N   0  0  0  0  0  0  0  0  0  0  0  0
    0.3284    1.6833    1.8096 C   0  0  0  0  0  0  0  0  0  0  0  0
    1.1101    2.4243    1.6412 H   0  0  0  0  0  0  0  0  0  0  0  0
   -0.3316    1.5852    0.6728 H   0  0  0  0  0  0  0  0  0  0  0  0
   -0.4203    1.8827    2.5765 H   0  0  0  0  0  0  0  0  0  0  0  0
  1  3  1  0  0  0  0
  1  6  1  0  0  0  0
  2  1  1  0  0  0  0
  5  4  3  0  0  0  0
  6  9  1  0  0  0  0
  7  6  1  0  0  0  0
  8  6  1  0  0  0  0
M  RAD  1   1   2
M  END
