Coordinates from ORCA-job C2H5-N2+-scan-d09-169-n800
 OpenBabel09191813583D

  9  7  0  0  0  0  0  0  0  0999 V2000
   -0.1603    0.2717    0.1955 C   0  0  0  0  0  0  0  0  0  0  0  0
    0.3331    0.4365   -0.7639 H   0  0  0  0  0  0  0  0  0  0  0  0
   -1.1860   -0.0996    0.1652 H   0  0  0  0  0  0  0  0  0  0  0  0
    0.5170   -2.2772   -0.1677 N   0  0  0  0  0  0  0  0  0  0  0  0
    0.7998   -3.3349   -0.3153 N   0  0  0  0  0  0  0  0  0  0  0  0
    0.4251    0.7122    1.4068 C   0  0  0  0  0  0  0  0  0  0  0  0
    1.5056    0.8703    1.4084 H   0  0  0  0  0  0  0  0  0  0  0  0
   -0.0264    1.7548    1.2700 H   0  0  0  0  0  0  0  0  0  0  0  0
   -0.0095    0.3357    2.3350 H   0  0  0  0  0  0  0  0  0  0  0  0
  1  6  1  0  0  0  0
  2  1  1  0  0  0  0
  3  1  1  0  0  0  0
  5  4  3  0  0  0  0
  6  7  1  0  0  0  0
  6  9  1  0  0  0  0
  8  6  1  0  0  0  0
M  RAD  1   1   2
M  END
