Coordinates from ORCA-job C2H5-N2+-scan-d09-169-n800
 OpenBabel09191813583D

  9  7  0  0  0  0  0  0  0  0999 V2000
    0.3239    1.4831    1.6827 C   0  0  0  0  0  0  0  0  0  0  0  0
    1.1047    1.2615    0.9548 H   0  0  0  0  0  0  0  0  0  0  0  0
   -0.4255    0.7188    1.8898 H   0  0  0  0  0  0  0  0  0  0  0  0
    0.3142   -7.7024   -3.6318 N   0  0  0  0  0  0  0  0  0  0  0  0
    0.3244   -8.6725   -4.1617 N   0  0  0  0  0  0  0  0  0  0  0  0
    0.3000    2.6964    2.3477 C   0  0  0  0  0  0  0  0  0  0  0  0
    1.0621    3.4521    2.1565 H   0  0  0  0  0  0  0  0  0  0  0  0
   -0.3372    2.5232    1.2044 H   0  0  0  0  0  0  0  0  0  0  0  0
   -0.4681    2.9094    3.0915 H   0  0  0  0  0  0  0  0  0  0  0  0
  1  3  1  0  0  0  0
  1  6  1  0  0  0  0
  2  1  1  0  0  0  0
  5  4  3  0  0  0  0
  6  9  1  0  0  0  0
  7  6  1  0  0  0  0
  8  6  1  0  0  0  0
M  RAD  1   1   2
M  END
