Coordinates from ORCA-job C2H5-N2+-scan-d09-169-n800
 OpenBabel09191813583D

  9  7  0  0  0  0  0  0  0  0999 V2000
   -0.1468    0.1216    0.1309 C   0  0  0  0  0  0  0  0  0  0  0  0
    0.3165    0.3519   -0.8284 H   0  0  0  0  0  0  0  0  0  0  0  0
   -1.1934   -0.1808    0.0950 H   0  0  0  0  0  0  0  0  0  0  0  0
    0.4534   -1.8847   -0.0452 N   0  0  0  0  0  0  0  0  0  0  0  0
    0.7758   -2.9377   -0.1256 N   0  0  0  0  0  0  0  0  0  0  0  0
    0.4268    0.6259    1.3597 C   0  0  0  0  0  0  0  0  0  0  0  0
    1.5149    0.7142    1.3586 H   0  0  0  0  0  0  0  0  0  0  0  0
    0.0310    1.6724    1.3162 H   0  0  0  0  0  0  0  0  0  0  0  0
    0.0202    0.1869    2.2728 H   0  0  0  0  0  0  0  0  0  0  0  0
  1  6  1  0  0  0  0
  2  1  1  0  0  0  0
  3  1  1  0  0  0  0
  5  4  3  0  0  0  0
  6  9  1  0  0  0  0
  7  6  1  0  0  0  0
  8  6  1  0  0  0  0
M  RAD  1   1   2
M  END
