Coordinates from ORCA-job C2H5-N2+-scan-d09-169-n800
 OpenBabel09191813583D

  9  8  0  0  0  0  0  0  0  0999 V2000
   -0.0190   -0.4013    0.0383 C   0  0  0  0  0  0  0  0  0  0  0  0
    0.2850    0.2675   -0.8145 H   0  0  0  0  0  0  0  0  0  0  0  0
   -1.1317   -0.2324    0.0519 H   0  0  0  0  0  0  0  0  0  0  0  0
    0.2912   -1.2675    0.0458 N   0  0  0  0  0  0  0  0  0  0  0  0
    0.6847   -2.3364    0.0724 N   0  0  0  0  0  0  0  0  0  0  0  0
    0.4585    0.5381    1.3609 C   0  0  0  0  0  0  0  0  0  0  0  0
    1.5484    0.5520    1.3329 H   0  0  0  0  0  0  0  0  0  0  0  0
    0.0167    1.5212    1.2058 H   0  0  0  0  0  0  0  0  0  0  0  0
    0.0645    0.0284    2.2405 H   0  0  0  0  0  0  0  0  0  0  0  0
  1  4  1  0  0  0  0
  1  3  1  0  0  0  0
  1  6  1  0  0  0  0
  2  1  1  0  0  0  0
  4  5  1  0  0  0  0
  6  9  1  0  0  0  0
  7  6  1  0  0  0  0
  8  6  1  0  0  0  0
M  RAD  2   4   2   5   3
M  END
