Coordinates from ORCA-job C2H5-N2+-scan-d09-169-n800
 OpenBabel09191813583D

  9  7  0  0  0  0  0  0  0  0999 V2000
    0.3002    2.2853    2.1093 C   0  0  0  0  0  0  0  0  0  0  0  0
    1.0701    2.0687    1.3684 H   0  0  0  0  0  0  0  0  0  0  0  0
   -0.4600    1.5289    2.3052 H   0  0  0  0  0  0  0  0  0  0  0  0
    0.3710  -10.5134   -5.1560 N   0  0  0  0  0  0  0  0  0  0  0  0
    0.3372  -11.4475   -5.7462 N   0  0  0  0  0  0  0  0  0  0  0  0
    0.3038    3.4818    2.8045 C   0  0  0  0  0  0  0  0  0  0  0  0
    1.0768    4.2291    2.6242 H   0  0  0  0  0  0  0  0  0  0  0  0
   -0.3474    3.3475    1.6635 H   0  0  0  0  0  0  0  0  0  0  0  0
   -0.4533    3.6893    3.5610 H   0  0  0  0  0  0  0  0  0  0  0  0
  1  3  1  0  0  0  0
  1  6  1  0  0  0  0
  2  1  1  0  0  0  0
  5  4  3  0  0  0  0
  6  9  1  0  0  0  0
  7  6  1  0  0  0  0
  8  6  1  0  0  0  0
M  RAD  1   1   2
M  END
