Coordinates from ORCA-job C2H5-N2+-scan-d09-169-n800
 OpenBabel09191813583D

  9  7  0  0  0  0  0  0  0  0999 V2000
    0.3062    1.9437    1.9189 C   0  0  0  0  0  0  0  0  0  0  0  0
    1.0779    1.7286    1.1794 H   0  0  0  0  0  0  0  0  0  0  0  0
   -0.4523    1.1853    2.1140 H   0  0  0  0  0  0  0  0  0  0  0  0
    0.3514   -9.3039   -4.5094 N   0  0  0  0  0  0  0  0  0  0  0  0
    0.3302  -10.2649   -5.0554 N   0  0  0  0  0  0  0  0  0  0  0  0
    0.3054    3.1406    2.6133 C   0  0  0  0  0  0  0  0  0  0  0  0
    1.0767    3.8898    2.4337 H   0  0  0  0  0  0  0  0  0  0  0  0
   -0.3435    3.0039    1.4713 H   0  0  0  0  0  0  0  0  0  0  0  0
   -0.4536    3.3466    3.3683 H   0  0  0  0  0  0  0  0  0  0  0  0
  1  3  1  0  0  0  0
  1  6  1  0  0  0  0
  2  1  1  0  0  0  0
  5  4  3  0  0  0  0
  6  9  1  0  0  0  0
  7  6  1  0  0  0  0
  8  6  1  0  0  0  0
M  RAD  1   1   2
M  END
