Coordinates from ORCA-job C2H5-N2+-scan-d09-169-n800
 OpenBabel09191813583D

  9  7  0  0  0  0  0  0  0  0999 V2000
    0.3219    1.1323    1.4773 C   0  0  0  0  0  0  0  0  0  0  0  0
    1.0989    0.9130    0.7448 H   0  0  0  0  0  0  0  0  0  0  0  0
   -0.4313    0.3705    1.6798 H   0  0  0  0  0  0  0  0  0  0  0  0
    0.3045   -6.4698   -2.9350 N   0  0  0  0  0  0  0  0  0  0  0  0
    0.3158   -7.4389   -3.4669 N   0  0  0  0  0  0  0  0  0  0  0  0
    0.3072    2.3394    2.1537 C   0  0  0  0  0  0  0  0  0  0  0  0
    1.0732    3.0924    1.9670 H   0  0  0  0  0  0  0  0  0  0  0  0
   -0.3347    2.1809    1.0111 H   0  0  0  0  0  0  0  0  0  0  0  0
   -0.4571    2.5499    2.9021 H   0  0  0  0  0  0  0  0  0  0  0  0
  1  3  1  0  0  0  0
  1  6  1  0  0  0  0
  2  1  1  0  0  0  0
  5  4  3  0  0  0  0
  6  9  1  0  0  0  0
  7  6  1  0  0  0  0
  8  6  1  0  0  0  0
M  RAD  1   1   2
M  END
