Coordinates from ORCA-job C2H5-N2+-scan-d09-169-n800
 OpenBabel09191813583D

  9  7  0  0  0  0  0  0  0  0999 V2000
    0.3091    0.5702    1.1332 C   0  0  0  0  0  0  0  0  0  0  0  0
    1.0731    0.3588    0.3847 H   0  0  0  0  0  0  0  0  0  0  0  0
   -0.4568   -0.1828    1.3196 H   0  0  0  0  0  0  0  0  0  0  0  0
    0.2939   -4.4838   -1.8052 N   0  0  0  0  0  0  0  0  0  0  0  0
    0.3075   -5.4522   -2.3381 N   0  0  0  0  0  0  0  0  0  0  0  0
    0.3253    1.7558    1.8464 C   0  0  0  0  0  0  0  0  0  0  0  0
    1.1042    2.4990    1.6749 H   0  0  0  0  0  0  0  0  0  0  0  0
   -0.3318    1.6473    0.7083 H   0  0  0  0  0  0  0  0  0  0  0  0
   -0.4262    1.9572    2.6102 H   0  0  0  0  0  0  0  0  0  0  0  0
  1  3  1  0  0  0  0
  1  6  1  0  0  0  0
  2  1  1  0  0  0  0
  5  4  3  0  0  0  0
  6  9  1  0  0  0  0
  7  6  1  0  0  0  0
  8  6  1  0  0  0  0
M  RAD  1   1   2
M  END
