Coordinates from ORCA-job C2H5-N2+-scan-d09-169-n800
 OpenBabel09191813583D

  9  7  0  0  0  0  0  0  0  0999 V2000
    0.3233    1.3249    1.5906 C   0  0  0  0  0  0  0  0  0  0  0  0
    1.1026    1.1042    0.8609 H   0  0  0  0  0  0  0  0  0  0  0  0
   -0.4276    0.5616    1.7958 H   0  0  0  0  0  0  0  0  0  0  0  0
    0.3096   -7.1469   -3.3180 N   0  0  0  0  0  0  0  0  0  0  0  0
    0.3204   -8.1165   -3.8488 N   0  0  0  0  0  0  0  0  0  0  0  0
    0.3030    2.5358    2.2601 C   0  0  0  0  0  0  0  0  0  0  0  0
    1.0667    3.2904    2.0706 H   0  0  0  0  0  0  0  0  0  0  0  0
   -0.3361    2.3683    1.1170 H   0  0  0  0  0  0  0  0  0  0  0  0
   -0.4636    2.7478    3.0057 H   0  0  0  0  0  0  0  0  0  0  0  0
  1  3  1  0  0  0  0
  1  6  1  0  0  0  0
  2  1  1  0  0  0  0
  5  4  3  0  0  0  0
  6  9  1  0  0  0  0
  7  6  1  0  0  0  0
  8  6  1  0  0  0  0
M  RAD  1   1   2
M  END
