Coordinates from ORCA-job C2H5-N2+-scan-d09-169-n800
 OpenBabel09191813583D

  9  7  0  0  0  0  0  0  0  0999 V2000
    0.3002    0.4007    1.0216 C   0  0  0  0  0  0  0  0  0  0  0  0
    1.0563    0.1937    0.2639 H   0  0  0  0  0  0  0  0  0  0  0  0
   -0.4731   -0.3470    1.1988 H   0  0  0  0  0  0  0  0  0  0  0  0
    0.2934   -3.8784   -1.4568 N   0  0  0  0  0  0  0  0  0  0  0  0
    0.3091   -4.8475   -1.9882 N   0  0  0  0  0  0  0  0  0  0  0  0
    0.3338    1.5736    1.7549 C   0  0  0  0  0  0  0  0  0  0  0  0
    1.1203    2.3107    1.5918 H   0  0  0  0  0  0  0  0  0  0  0  0
   -0.3314    1.4942    0.6208 H   0  0  0  0  0  0  0  0  0  0  0  0
   -0.4102    1.7696    2.5273 H   0  0  0  0  0  0  0  0  0  0  0  0
  1  3  1  0  0  0  0
  1  6  1  0  0  0  0
  2  1  1  0  0  0  0
  5  4  3  0  0  0  0
  6  9  1  0  0  0  0
  7  6  1  0  0  0  0
  8  6  1  0  0  0  0
M  RAD  1   1   2
M  END
