Coordinates from ORCA-job C2H5-N2+-scan-d09-169-n800
 OpenBabel09191813583D

  9  7  0  0  0  0  0  0  0  0999 V2000
   -0.0895    0.3744    0.3706 C   0  0  0  0  0  0  0  0  0  0  0  0
    0.4402    0.4763   -0.5764 H   0  0  0  0  0  0  0  0  0  0  0  0
   -1.0877   -0.0627    0.3580 H   0  0  0  0  0  0  0  0  0  0  0  0
    0.5142   -2.7115   -0.4228 N   0  0  0  0  0  0  0  0  0  0  0  0
    0.7213   -3.7633   -0.6912 N   0  0  0  0  0  0  0  0  0  0  0  0
    0.4801    0.8123    1.5544 C   0  0  0  0  0  0  0  0  0  0  0  0
    1.4892    1.2235    1.5671 H   0  0  0  0  0  0  0  0  0  0  0  0
   -0.2285    1.6367    0.8713 H   0  0  0  0  0  0  0  0  0  0  0  0
   -0.0409    0.6838    2.5029 H   0  0  0  0  0  0  0  0  0  0  0  0
  1  6  1  0  0  0  0
  2  1  1  0  0  0  0
  3  1  1  0  0  0  0
  5  4  3  0  0  0  0
  6  7  1  0  0  0  0
  6  9  1  0  0  0  0
  8  6  1  0  0  0  0
M  RAD  1   1   2
M  END
