Coordinates from ORCA-job C2H5-N2+-scan-d09-169-n800
 OpenBabel09191813583D

  9  7  0  0  0  0  0  0  0  0999 V2000
   -0.1449    0.1083    0.1265 C   0  0  0  0  0  0  0  0  0  0  0  0
    0.3142    0.3479   -0.8326 H   0  0  0  0  0  0  0  0  0  0  0  0
   -1.1942   -0.1843    0.0899 H   0  0  0  0  0  0  0  0  0  0  0  0
    0.4484   -1.8590   -0.0384 N   0  0  0  0  0  0  0  0  0  0  0  0
    0.7747   -2.9112   -0.1121 N   0  0  0  0  0  0  0  0  0  0  0  0
    0.4272    0.6205    1.3572 C   0  0  0  0  0  0  0  0  0  0  0  0
    1.5156    0.7039    1.3565 H   0  0  0  0  0  0  0  0  0  0  0  0
    0.0341    1.6661    1.3178 H   0  0  0  0  0  0  0  0  0  0  0  0
    0.0231    0.1773    2.2693 H   0  0  0  0  0  0  0  0  0  0  0  0
  1  6  1  0  0  0  0
  2  1  1  0  0  0  0
  3  1  1  0  0  0  0
  5  4  3  0  0  0  0
  6  9  1  0  0  0  0
  7  6  1  0  0  0  0
  8  6  1  0  0  0  0
M  RAD  1   1   2
M  END
