Coordinates from ORCA-job C2H5-N2+-scan-d09-169-n800
 OpenBabel09191813583D

  9  7  0  0  0  0  0  0  0  0999 V2000
    0.2953    2.6549    2.3139 C   0  0  0  0  0  0  0  0  0  0  0  0
    1.0643    2.4391    1.5718 H   0  0  0  0  0  0  0  0  0  0  0  0
   -0.4658    1.8989    2.5084 H   0  0  0  0  0  0  0  0  0  0  0  0
    0.3858  -11.8068   -5.8754 N   0  0  0  0  0  0  0  0  0  0  0  0
    0.3495  -12.7372   -6.4713 N   0  0  0  0  0  0  0  0  0  0  0  0
    0.3010    3.8495    3.0122 C   0  0  0  0  0  0  0  0  0  0  0  0
    1.0749    4.5962    2.8332 H   0  0  0  0  0  0  0  0  0  0  0  0
   -0.3513    3.7191    1.8714 H   0  0  0  0  0  0  0  0  0  0  0  0
   -0.4552    4.0560    3.7699 H   0  0  0  0  0  0  0  0  0  0  0  0
  1  3  1  0  0  0  0
  1  6  1  0  0  0  0
  2  1  1  0  0  0  0
  5  4  3  0  0  0  0
  6  9  1  0  0  0  0
  7  6  1  0  0  0  0
  8  6  1  0  0  0  0
M  RAD  1   1   2
M  END
