Coordinates from ORCA-job C2H5-N2+-scan-d09-169-n800
 OpenBabel09191813583D

  9  7  0  0  0  0  0  0  0  0999 V2000
    0.3085    0.5551    1.1234 C   0  0  0  0  0  0  0  0  0  0  0  0
    1.0719    0.3440    0.3742 H   0  0  0  0  0  0  0  0  0  0  0  0
   -0.4580   -0.1976    1.3092 H   0  0  0  0  0  0  0  0  0  0  0  0
    0.2938   -4.4300   -1.7743 N   0  0  0  0  0  0  0  0  0  0  0  0
    0.3075   -5.3983   -2.3071 N   0  0  0  0  0  0  0  0  0  0  0  0
    0.3260    1.7397    1.8382 C   0  0  0  0  0  0  0  0  0  0  0  0
    1.1055    2.4825    1.6673 H   0  0  0  0  0  0  0  0  0  0  0  0
   -0.3318    1.6334    0.7004 H   0  0  0  0  0  0  0  0  0  0  0  0
   -0.4249    1.9407    2.6026 H   0  0  0  0  0  0  0  0  0  0  0  0
  1  3  1  0  0  0  0
  1  6  1  0  0  0  0
  2  1  1  0  0  0  0
  5  4  3  0  0  0  0
  6  9  1  0  0  0  0
  7  6  1  0  0  0  0
  8  6  1  0  0  0  0
M  RAD  1   1   2
M  END
