Coordinates from ORCA-job C2H5-N2+-scan-d09-169-n800
 OpenBabel09191813583D

  9  7  0  0  0  0  0  0  0  0999 V2000
    0.3026    2.1798    2.0525 C   0  0  0  0  0  0  0  0  0  0  0  0
    1.0735    1.9624    1.3129 H   0  0  0  0  0  0  0  0  0  0  0  0
   -0.4567    1.4227    2.2498 H   0  0  0  0  0  0  0  0  0  0  0  0
    0.3672  -10.1458   -4.9511 N   0  0  0  0  0  0  0  0  0  0  0  0
    0.3327  -11.0800   -5.5411 N   0  0  0  0  0  0  0  0  0  0  0  0
    0.3038    3.3781    2.7446 C   0  0  0  0  0  0  0  0  0  0  0  0
    1.0758    4.1261    2.5630 H   0  0  0  0  0  0  0  0  0  0  0  0
   -0.3462    3.2398    1.6034 H   0  0  0  0  0  0  0  0  0  0  0  0
   -0.4543    3.5864    3.4999 H   0  0  0  0  0  0  0  0  0  0  0  0
  1  3  1  0  0  0  0
  1  6  1  0  0  0  0
  2  1  1  0  0  0  0
  5  4  3  0  0  0  0
  6  9  1  0  0  0  0
  7  6  1  0  0  0  0
  8  6  1  0  0  0  0
M  RAD  1   1   2
M  END
