Coordinates from ORCA-job C2H5-N2+-scan-d09-169-n800
 OpenBabel09191813583D

  9  7  0  0  0  0  0  0  0  0999 V2000
    0.3238    1.4754    1.6782 C   0  0  0  0  0  0  0  0  0  0  0  0
    1.1046    1.2538    0.9503 H   0  0  0  0  0  0  0  0  0  0  0  0
   -0.4256    0.7112    1.8853 H   0  0  0  0  0  0  0  0  0  0  0  0
    0.3139   -7.6753   -3.6165 N   0  0  0  0  0  0  0  0  0  0  0  0
    0.3242   -8.6454   -4.1464 N   0  0  0  0  0  0  0  0  0  0  0  0
    0.3001    2.6885    2.3434 C   0  0  0  0  0  0  0  0  0  0  0  0
    1.0623    3.4442    2.1523 H   0  0  0  0  0  0  0  0  0  0  0  0
   -0.3372    2.5156    1.2001 H   0  0  0  0  0  0  0  0  0  0  0  0
   -0.4679    2.9015    3.0873 H   0  0  0  0  0  0  0  0  0  0  0  0
  1  3  1  0  0  0  0
  1  6  1  0  0  0  0
  2  1  1  0  0  0  0
  5  4  3  0  0  0  0
  6  9  1  0  0  0  0
  7  6  1  0  0  0  0
  8  6  1  0  0  0  0
M  RAD  1   1   2
M  END
