Coordinates from ORCA-job C2H5-N2+-scan-d09-169-n800
 OpenBabel09191813583D

  9  7  0  0  0  0  0  0  0  0999 V2000
    0.3154    0.7566    1.2506 C   0  0  0  0  0  0  0  0  0  0  0  0
    1.0853    0.5416    0.5091 H   0  0  0  0  0  0  0  0  0  0  0  0
   -0.4448   -0.0005    1.4441 H   0  0  0  0  0  0  0  0  0  0  0  0
    0.2963   -5.1447   -2.1828 N   0  0  0  0  0  0  0  0  0  0  0  0
    0.3089   -6.1130   -2.7160 N   0  0  0  0  0  0  0  0  0  0  0  0
    0.3180    1.9519    1.9477 C   0  0  0  0  0  0  0  0  0  0  0  0
    1.0911    2.6995    1.7694 H   0  0  0  0  0  0  0  0  0  0  0  0
   -0.3326    1.8209    0.8072 H   0  0  0  0  0  0  0  0  0  0  0  0
   -0.4392    2.1574    2.7046 H   0  0  0  0  0  0  0  0  0  0  0  0
  1  3  1  0  0  0  0
  1  6  1  0  0  0  0
  2  1  1  0  0  0  0
  5  4  3  0  0  0  0
  6  9  1  0  0  0  0
  7  6  1  0  0  0  0
  8  6  1  0  0  0  0
M  RAD  1   1   2
M  END
