Coordinates from ORCA-job C2H5-N2+-scan-d09-169-n800
 OpenBabel09191813583D

  9  7  0  0  0  0  0  0  0  0999 V2000
    0.3240    1.5411    1.7163 C   0  0  0  0  0  0  0  0  0  0  0  0
    1.1053    1.3192    0.9890 H   0  0  0  0  0  0  0  0  0  0  0  0
   -0.4249    0.7765    1.9240 H   0  0  0  0  0  0  0  0  0  0  0  0
    0.3159   -7.9057   -3.7466 N   0  0  0  0  0  0  0  0  0  0  0  0
    0.3259   -8.8760   -4.2761 N   0  0  0  0  0  0  0  0  0  0  0  0
    0.2989    2.7551    2.3799 C   0  0  0  0  0  0  0  0  0  0  0  0
    1.0606    3.5111    2.1880 H   0  0  0  0  0  0  0  0  0  0  0  0
   -0.3377    2.5800    1.2365 H   0  0  0  0  0  0  0  0  0  0  0  0
   -0.4697    2.9684    3.1231 H   0  0  0  0  0  0  0  0  0  0  0  0
  1  3  1  0  0  0  0
  1  6  1  0  0  0  0
  2  1  1  0  0  0  0
  5  4  3  0  0  0  0
  6  9  1  0  0  0  0
  7  6  1  0  0  0  0
  8  6  1  0  0  0  0
M  RAD  1   1   2
M  END
