Coordinates from ORCA-job C2H5-N2+-scan-d09-169-n800
 OpenBabel09191813583D

  9  7  0  0  0  0  0  0  0  0999 V2000
    0.3167    1.6451    1.7637 C   0  0  0  0  0  0  0  0  0  0  0  0
    1.0937    1.4266    1.0308 H   0  0  0  0  0  0  0  0  0  0  0  0
   -0.4365    0.8832    1.9653 H   0  0  0  0  0  0  0  0  0  0  0  0
    0.3260   -8.2625   -3.9422 N   0  0  0  0  0  0  0  0  0  0  0  0
    0.3280   -9.2328   -4.4717 N   0  0  0  0  0  0  0  0  0  0  0  0
    0.3027    2.8511    2.4421 C   0  0  0  0  0  0  0  0  0  0  0  0
    1.0688    3.6042    2.2562 H   0  0  0  0  0  0  0  0  0  0  0  0
   -0.3395    2.6939    1.2990 H   0  0  0  0  0  0  0  0  0  0  0  0
   -0.4615    3.0608    3.1908 H   0  0  0  0  0  0  0  0  0  0  0  0
  1  3  1  0  0  0  0
  1  6  1  0  0  0  0
  2  1  1  0  0  0  0
  5  4  3  0  0  0  0
  6  9  1  0  0  0  0
  7  6  1  0  0  0  0
  8  6  1  0  0  0  0
M  RAD  1   1   2
M  END
