Coordinates from ORCA-job C2H5-N2+-scan-d09-169-n800
 OpenBabel09191813583D

  9  7  0  0  0  0  0  0  0  0999 V2000
    0.3230    1.2748    1.5612 C   0  0  0  0  0  0  0  0  0  0  0  0
    1.1018    1.0544    0.8309 H   0  0  0  0  0  0  0  0  0  0  0  0
   -0.4284    0.5118    1.7658 H   0  0  0  0  0  0  0  0  0  0  0  0
    0.3082   -6.9708   -3.2184 N   0  0  0  0  0  0  0  0  0  0  0  0
    0.3192   -7.9403   -3.7495 N   0  0  0  0  0  0  0  0  0  0  0  0
    0.3040    2.4848    2.2324 C   0  0  0  0  0  0  0  0  0  0  0  0
    1.0683    3.2390    2.0436 H   0  0  0  0  0  0  0  0  0  0  0  0
   -0.3357    2.3194    1.0894 H   0  0  0  0  0  0  0  0  0  0  0  0
   -0.4620    2.6964    2.9786 H   0  0  0  0  0  0  0  0  0  0  0  0
  1  3  1  0  0  0  0
  1  6  1  0  0  0  0
  2  1  1  0  0  0  0
  5  4  3  0  0  0  0
  6  9  1  0  0  0  0
  7  6  1  0  0  0  0
  8  6  1  0  0  0  0
M  RAD  1   1   2
M  END
