Coordinates from ORCA-job C2H5-N2+-scan-d09-169-n800
 OpenBabel09191813583D

  9  7  0  0  0  0  0  0  0  0999 V2000
    0.3163    0.7909    1.2718 C   0  0  0  0  0  0  0  0  0  0  0  0
    1.0870    0.5754    0.5314 H   0  0  0  0  0  0  0  0  0  0  0  0
   -0.4431    0.0333    1.4664 H   0  0  0  0  0  0  0  0  0  0  0  0
    0.2969   -5.2663   -2.2520 N   0  0  0  0  0  0  0  0  0  0  0  0
    0.3093   -6.2346   -2.7851 N   0  0  0  0  0  0  0  0  0  0  0  0
    0.3168    1.9877    1.9664 C   0  0  0  0  0  0  0  0  0  0  0  0
    1.0891    2.7360    1.7872 H   0  0  0  0  0  0  0  0  0  0  0  0
   -0.3327    1.8534    0.8256 H   0  0  0  0  0  0  0  0  0  0  0  0
   -0.4413    2.1938    2.7223 H   0  0  0  0  0  0  0  0  0  0  0  0
  1  3  1  0  0  0  0
  1  6  1  0  0  0  0
  2  1  1  0  0  0  0
  5  4  3  0  0  0  0
  6  9  1  0  0  0  0
  7  6  1  0  0  0  0
  8  6  1  0  0  0  0
M  RAD  1   1   2
M  END
