Coordinates from ORCA-job C2H5-N2+-scan-d09-169-n800
 OpenBabel09191813583D

  9  7  0  0  0  0  0  0  0  0999 V2000
    0.3052    2.0212    1.9626 C   0  0  0  0  0  0  0  0  0  0  0  0
    1.0767    1.8056    1.2231 H   0  0  0  0  0  0  0  0  0  0  0  0
   -0.4535    1.2631    2.1581 H   0  0  0  0  0  0  0  0  0  0  0  0
    0.3581   -9.5790   -4.6558 N   0  0  0  0  0  0  0  0  0  0  0  0
    0.3295  -10.5333   -5.2132 N   0  0  0  0  0  0  0  0  0  0  0  0
    0.3047    3.2184    2.6565 C   0  0  0  0  0  0  0  0  0  0  0  0
    1.0762    3.9674    2.4765 H   0  0  0  0  0  0  0  0  0  0  0  0
   -0.3444    3.0813    1.5146 H   0  0  0  0  0  0  0  0  0  0  0  0
   -0.4541    3.4248    3.4116 H   0  0  0  0  0  0  0  0  0  0  0  0
  1  3  1  0  0  0  0
  1  6  1  0  0  0  0
  2  1  1  0  0  0  0
  5  4  3  0  0  0  0
  6  9  1  0  0  0  0
  7  6  1  0  0  0  0
  8  6  1  0  0  0  0
M  RAD  1   1   2
M  END
