Coordinates from ORCA-job C2H5-N2+-scan-d09-169-n800
 OpenBabel09191813583D

  9  7  0  0  0  0  0  0  0  0999 V2000
    0.3223    1.1824    1.5069 C   0  0  0  0  0  0  0  0  0  0  0  0
    1.1000    0.9626    0.7751 H   0  0  0  0  0  0  0  0  0  0  0  0
   -0.4302    0.4201    1.7101 H   0  0  0  0  0  0  0  0  0  0  0  0
    0.3058   -6.6458   -3.0346 N   0  0  0  0  0  0  0  0  0  0  0  0
    0.3170   -7.6150   -3.5662 N   0  0  0  0  0  0  0  0  0  0  0  0
    0.3061    2.3905    2.1813 C   0  0  0  0  0  0  0  0  0  0  0  0
    1.0714    3.1440    1.9938 H   0  0  0  0  0  0  0  0  0  0  0  0
   -0.3351    2.2294    1.0386 H   0  0  0  0  0  0  0  0  0  0  0  0
   -0.4589    2.6014    2.9289 H   0  0  0  0  0  0  0  0  0  0  0  0
  1  3  1  0  0  0  0
  1  6  1  0  0  0  0
  2  1  1  0  0  0  0
  5  4  3  0  0  0  0
  6  9  1  0  0  0  0
  7  6  1  0  0  0  0
  8  6  1  0  0  0  0
M  RAD  1   1   2
M  END
