Coordinates from ORCA-job C2H5-N2+-scan-d09-169-n800
 OpenBabel09191813583D

  9  7  0  0  0  0  0  0  0  0999 V2000
   -0.0914    0.2882    0.3177 C   0  0  0  0  0  0  0  0  0  0  0  0
    0.4230    0.4226   -0.6335 H   0  0  0  0  0  0  0  0  0  0  0  0
   -1.1033   -0.1158    0.3000 H   0  0  0  0  0  0  0  0  0  0  0  0
    0.4903   -2.4439   -0.3076 N   0  0  0  0  0  0  0  0  0  0  0  0
    0.7160   -3.4987   -0.5470 N   0  0  0  0  0  0  0  0  0  0  0  0
    0.4744    0.7390    1.5029 C   0  0  0  0  0  0  0  0  0  0  0  0
    1.5008    1.1040    1.5189 H   0  0  0  0  0  0  0  0  0  0  0  0
   -0.1836    1.6094    0.9290 H   0  0  0  0  0  0  0  0  0  0  0  0
   -0.0278    0.5647    2.4538 H   0  0  0  0  0  0  0  0  0  0  0  0
  1  6  1  0  0  0  0
  2  1  1  0  0  0  0
  3  1  1  0  0  0  0
  5  4  3  0  0  0  0
  6  7  1  0  0  0  0
  6  9  1  0  0  0  0
  8  6  1  0  0  0  0
M  RAD  1   1   2
M  END
