Coordinates from ORCA-job C2H5-N2+-scan-d09-169-n800
 OpenBabel09191813583D

  9  7  0  0  0  0  0  0  0  0999 V2000
    0.3025    2.1838    2.0546 C   0  0  0  0  0  0  0  0  0  0  0  0
    1.0732    1.9664    1.3148 H   0  0  0  0  0  0  0  0  0  0  0  0
   -0.4569    1.4267    2.2517 H   0  0  0  0  0  0  0  0  0  0  0  0
    0.3673  -10.1594   -4.9588 N   0  0  0  0  0  0  0  0  0  0  0  0
    0.3329  -11.0937   -5.5486 N   0  0  0  0  0  0  0  0  0  0  0  0
    0.3038    3.3819    2.7469 C   0  0  0  0  0  0  0  0  0  0  0  0
    1.0760    4.1298    2.5654 H   0  0  0  0  0  0  0  0  0  0  0  0
   -0.3463    3.2440    1.6057 H   0  0  0  0  0  0  0  0  0  0  0  0
   -0.4542    3.5901    3.5023 H   0  0  0  0  0  0  0  0  0  0  0  0
  1  3  1  0  0  0  0
  1  6  1  0  0  0  0
  2  1  1  0  0  0  0
  5  4  3  0  0  0  0
  6  9  1  0  0  0  0
  7  6  1  0  0  0  0
  8  6  1  0  0  0  0
M  RAD  1   1   2
M  END
