Coordinates from ORCA-job C2H5-N2+-scan-d09-169-n800
 OpenBabel09191813583D

  9  7  0  0  0  0  0  0  0  0999 V2000
    0.3076    1.8350    1.8581 C   0  0  0  0  0  0  0  0  0  0  0  0
    1.0796    1.6201    1.1188 H   0  0  0  0  0  0  0  0  0  0  0  0
   -0.4507    1.0764    2.0531 H   0  0  0  0  0  0  0  0  0  0  0  0
    0.3434   -8.9208   -4.3009 N   0  0  0  0  0  0  0  0  0  0  0  0
    0.3301   -9.8869   -4.8381 N   0  0  0  0  0  0  0  0  0  0  0  0
    0.3063    3.0319    2.5524 C   0  0  0  0  0  0  0  0  0  0  0  0
    1.0774    3.7814    2.3730 H   0  0  0  0  0  0  0  0  0  0  0  0
   -0.3423    2.8949    1.4103 H   0  0  0  0  0  0  0  0  0  0  0  0
   -0.4529    3.2376    3.3073 H   0  0  0  0  0  0  0  0  0  0  0  0
  1  3  1  0  0  0  0
  1  6  1  0  0  0  0
  2  1  1  0  0  0  0
  5  4  3  0  0  0  0
  6  9  1  0  0  0  0
  7  6  1  0  0  0  0
  8  6  1  0  0  0  0
M  RAD  1   1   2
M  END
