Coordinates from ORCA-job C2H5-N2+-scan-d09-169-n800
 OpenBabel09191813583D

  9  7  0  0  0  0  0  0  0  0999 V2000
    0.3238    1.4445    1.6603 C   0  0  0  0  0  0  0  0  0  0  0  0
    1.1043    1.2231    0.9320 H   0  0  0  0  0  0  0  0  0  0  0  0
   -0.4259    0.6805    1.8670 H   0  0  0  0  0  0  0  0  0  0  0  0
    0.3130   -7.5669   -3.5553 N   0  0  0  0  0  0  0  0  0  0  0  0
    0.3234   -8.5369   -4.0854 N   0  0  0  0  0  0  0  0  0  0  0  0
    0.3007    2.6572    2.3263 C   0  0  0  0  0  0  0  0  0  0  0  0
    1.0632    3.4127    2.1355 H   0  0  0  0  0  0  0  0  0  0  0  0
   -0.3369    2.4853    1.1831 H   0  0  0  0  0  0  0  0  0  0  0  0
   -0.4671    2.8700    3.0705 H   0  0  0  0  0  0  0  0  0  0  0  0
  1  3  1  0  0  0  0
  1  6  1  0  0  0  0
  2  1  1  0  0  0  0
  5  4  3  0  0  0  0
  6  9  1  0  0  0  0
  7  6  1  0  0  0  0
  8  6  1  0  0  0  0
M  RAD  1   1   2
M  END
