Coordinates from ORCA-job C2H5-N2+-scan-d09-169-n800
 OpenBabel09191813583D

  9  7  0  0  0  0  0  0  0  0999 V2000
    0.3144    0.7184    1.2269 C   0  0  0  0  0  0  0  0  0  0  0  0
    1.0832    0.5041    0.4842 H   0  0  0  0  0  0  0  0  0  0  0  0
   -0.4469   -0.0379    1.4192 H   0  0  0  0  0  0  0  0  0  0  0  0
    0.2957   -5.0098   -2.1058 N   0  0  0  0  0  0  0  0  0  0  0  0
    0.3084   -5.9780   -2.6390 N   0  0  0  0  0  0  0  0  0  0  0  0
    0.3193    1.9120    1.9269 C   0  0  0  0  0  0  0  0  0  0  0  0
    1.0935    2.6589    1.7498 H   0  0  0  0  0  0  0  0  0  0  0  0
   -0.3324    1.7851    0.7868 H   0  0  0  0  0  0  0  0  0  0  0  0
   -0.4369    2.1168    2.6850 H   0  0  0  0  0  0  0  0  0  0  0  0
  1  3  1  0  0  0  0
  1  6  1  0  0  0  0
  2  1  1  0  0  0  0
  5  4  3  0  0  0  0
  6  9  1  0  0  0  0
  7  6  1  0  0  0  0
  8  6  1  0  0  0  0
M  RAD  1   1   2
M  END
