Coordinates from ORCA-job C2H5-N2+-scan-d09-169-n800
 OpenBabel09191813583D

  9  8  0  0  0  0  0  0  0  0999 V2000
   -0.0993   -0.1012    0.0800 C   0  0  0  0  0  0  0  0  0  0  0  0
    0.2853    0.3031   -0.8618 H   0  0  0  0  0  0  0  0  0  0  0  0
   -1.1871   -0.2164    0.0388 H   0  0  0  0  0  0  0  0  0  0  0  0
    0.3813   -1.5639    0.0221 N   0  0  0  0  0  0  0  0  0  0  0  0
    0.7453   -2.6062    0.0159 N   0  0  0  0  0  0  0  0  0  0  0  0
    0.4351    0.5659    1.3387 C   0  0  0  0  0  0  0  0  0  0  0  0
    1.5258    0.6067    1.3485 H   0  0  0  0  0  0  0  0  0  0  0  0
    0.0530    1.5924    1.3062 H   0  0  0  0  0  0  0  0  0  0  0  0
    0.0590    0.0891    2.2457 H   0  0  0  0  0  0  0  0  0  0  0  0
  1  6  1  0  0  0  0
  2  1  1  0  0  0  0
  3  1  1  0  0  0  0
  4  1  1  0  0  0  0
  5  4  1  0  0  0  0
  6  7  1  0  0  0  0
  6  9  1  0  0  0  0
  8  6  1  0  0  0  0
M  RAD  2   4   2   5   3
M  END
