Coordinates from ORCA-job C2H5-N2+-scan-d09-169-n800
 OpenBabel09191813583D

  9  7  0  0  0  0  0  0  0  0999 V2000
    0.3014    2.2268    2.0776 C   0  0  0  0  0  0  0  0  0  0  0  0
    1.0717    2.0098    1.3372 H   0  0  0  0  0  0  0  0  0  0  0  0
   -0.4585    1.4701    2.2741 H   0  0  0  0  0  0  0  0  0  0  0  0
    0.3689  -10.3093   -5.0420 N   0  0  0  0  0  0  0  0  0  0  0  0
    0.3349  -11.2433   -5.6324 N   0  0  0  0  0  0  0  0  0  0  0  0
    0.3039    3.4241    2.7714 C   0  0  0  0  0  0  0  0  0  0  0  0
    1.0765    4.1716    2.5904 H   0  0  0  0  0  0  0  0  0  0  0  0
   -0.3468    3.2880    1.6303 H   0  0  0  0  0  0  0  0  0  0  0  0
   -0.4536    3.6319    3.5273 H   0  0  0  0  0  0  0  0  0  0  0  0
  1  3  1  0  0  0  0
  1  6  1  0  0  0  0
  2  1  1  0  0  0  0
  5  4  3  0  0  0  0
  6  9  1  0  0  0  0
  7  6  1  0  0  0  0
  8  6  1  0  0  0  0
M  RAD  1   1   2
M  END
