Coordinates from ORCA-job C2H5-N2+-scan-d09-169-n800
 OpenBabel09191813583D

  9  7  0  0  0  0  0  0  0  0999 V2000
    0.2813    0.1671    0.8571 C   0  0  0  0  0  0  0  0  0  0  0  0
    1.0192   -0.0318    0.0799 H   0  0  0  0  0  0  0  0  0  0  0  0
   -0.5065   -0.5701    1.0129 H   0  0  0  0  0  0  0  0  0  0  0  0
    0.2968   -3.0342   -0.9649 N   0  0  0  0  0  0  0  0  0  0  0  0
    0.3186   -4.0067   -1.4894 N   0  0  0  0  0  0  0  0  0  0  0  0
    0.3483    1.3137    1.6283 C   0  0  0  0  0  0  0  0  0  0  0  0
    1.1509    2.0370    1.4830 H   0  0  0  0  0  0  0  0  0  0  0  0
   -0.3307    1.2975    0.5084 H   0  0  0  0  0  0  0  0  0  0  0  0
   -0.3795    1.4971    2.4188 H   0  0  0  0  0  0  0  0  0  0  0  0
  1  3  1  0  0  0  0
  1  6  1  0  0  0  0
  2  1  1  0  0  0  0
  5  4  3  0  0  0  0
  6  9  1  0  0  0  0
  7  6  1  0  0  0  0
  8  6  1  0  0  0  0
M  RAD  1   1   2
M  END
