Coordinates from ORCA-job C2H5-N2+-scan-d09-169-n800
 OpenBabel09191813583D

  9  7  0  0  0  0  0  0  0  0999 V2000
    0.2841    0.2005    0.8807 C   0  0  0  0  0  0  0  0  0  0  0  0
    1.0250    0.0005    0.1064 H   0  0  0  0  0  0  0  0  0  0  0  0
   -0.5016   -0.5383    1.0399 H   0  0  0  0  0  0  0  0  0  0  0  0
    0.2964   -3.1548   -1.0351 N   0  0  0  0  0  0  0  0  0  0  0  0
    0.3169   -4.1267   -1.5610 N   0  0  0  0  0  0  0  0  0  0  0  0
    0.3463    1.3509    1.6465 C   0  0  0  0  0  0  0  0  0  0  0  0
    1.1463    2.0764    1.4985 H   0  0  0  0  0  0  0  0  0  0  0  0
   -0.3309    1.3247    0.5238 H   0  0  0  0  0  0  0  0  0  0  0  0
   -0.3841    1.5363    2.4343 H   0  0  0  0  0  0  0  0  0  0  0  0
  1  3  1  0  0  0  0
  1  6  1  0  0  0  0
  2  1  1  0  0  0  0
  5  4  3  0  0  0  0
  6  9  1  0  0  0  0
  7  6  1  0  0  0  0
  8  6  1  0  0  0  0
M  RAD  1   1   2
M  END
