Coordinates from ORCA-job C2H5-N2+-scan-d09-169-n800
 OpenBabel09191813583D

  9  7  0  0  0  0  0  0  0  0999 V2000
    0.3217    1.1169    1.4682 C   0  0  0  0  0  0  0  0  0  0  0  0
    1.0985    0.8977    0.7354 H   0  0  0  0  0  0  0  0  0  0  0  0
   -0.4316    0.3552    1.6704 H   0  0  0  0  0  0  0  0  0  0  0  0
    0.3041   -6.4157   -2.9043 N   0  0  0  0  0  0  0  0  0  0  0  0
    0.3155   -7.3847   -3.4363 N   0  0  0  0  0  0  0  0  0  0  0  0
    0.3076    2.3237    2.1452 C   0  0  0  0  0  0  0  0  0  0  0  0
    1.0738    3.0765    1.9588 H   0  0  0  0  0  0  0  0  0  0  0  0
   -0.3346    2.1659    1.0027 H   0  0  0  0  0  0  0  0  0  0  0  0
   -0.4565    2.5340    2.8939 H   0  0  0  0  0  0  0  0  0  0  0  0
  1  3  1  0  0  0  0
  1  6  1  0  0  0  0
  2  1  1  0  0  0  0
  5  4  3  0  0  0  0
  6  9  1  0  0  0  0
  7  6  1  0  0  0  0
  8  6  1  0  0  0  0
M  RAD  1   1   2
M  END
