Coordinates from ORCA-job C2H5-N2+-scan-d09-169-n800
 OpenBabel09191813583D

  9  7  0  0  0  0  0  0  0  0999 V2000
    0.2998    2.3125    2.1244 C   0  0  0  0  0  0  0  0  0  0  0  0
    1.0696    2.0959    1.3835 H   0  0  0  0  0  0  0  0  0  0  0  0
   -0.4605    1.5562    2.3204 H   0  0  0  0  0  0  0  0  0  0  0  0
    0.3719  -10.6090   -5.2085 N   0  0  0  0  0  0  0  0  0  0  0  0
    0.3384  -11.5422   -5.8002 N   0  0  0  0  0  0  0  0  0  0  0  0
    0.3036    3.5089    2.8198 C   0  0  0  0  0  0  0  0  0  0  0  0
    1.0767    4.2561    2.6394 H   0  0  0  0  0  0  0  0  0  0  0  0
   -0.3477    3.3748    1.6788 H   0  0  0  0  0  0  0  0  0  0  0  0
   -0.4534    3.7164    3.5764 H   0  0  0  0  0  0  0  0  0  0  0  0
  1  3  1  0  0  0  0
  1  6  1  0  0  0  0
  2  1  1  0  0  0  0
  5  4  3  0  0  0  0
  6  9  1  0  0  0  0
  7  6  1  0  0  0  0
  8  6  1  0  0  0  0
M  RAD  1   1   2
M  END
