Coordinates from ORCA-job C2H5-N2+-scan-d09-169-n800
 OpenBabel09191813583D

  9  7  0  0  0  0  0  0  0  0999 V2000
    0.3003    2.2814    2.1072 C   0  0  0  0  0  0  0  0  0  0  0  0
    1.0702    2.0647    1.3664 H   0  0  0  0  0  0  0  0  0  0  0  0
   -0.4599    1.5250    2.3032 H   0  0  0  0  0  0  0  0  0  0  0  0
    0.3708  -10.4999   -5.1483 N   0  0  0  0  0  0  0  0  0  0  0  0
    0.3371  -11.4339   -5.7387 N   0  0  0  0  0  0  0  0  0  0  0  0
    0.3038    3.4779    2.8023 C   0  0  0  0  0  0  0  0  0  0  0  0
    1.0768    4.2253    2.6219 H   0  0  0  0  0  0  0  0  0  0  0  0
   -0.3474    3.3435    1.6613 H   0  0  0  0  0  0  0  0  0  0  0  0
   -0.4534    3.6855    3.5588 H   0  0  0  0  0  0  0  0  0  0  0  0
  1  3  1  0  0  0  0
  1  6  1  0  0  0  0
  2  1  1  0  0  0  0
  5  4  3  0  0  0  0
  6  9  1  0  0  0  0
  7  6  1  0  0  0  0
  8  6  1  0  0  0  0
M  RAD  1   1   2
M  END
