Coordinates from ORCA-job C2H5-N2+-scan-d09-169-n800
 OpenBabel09191813583D

  9  7  0  0  0  0  0  0  0  0999 V2000
   -0.0877    0.3976    0.3868 C   0  0  0  0  0  0  0  0  0  0  0  0
    0.4462    0.4903   -0.5588 H   0  0  0  0  0  0  0  0  0  0  0  0
   -1.0819   -0.0488    0.3758 H   0  0  0  0  0  0  0  0  0  0  0  0
    0.5218   -2.7993   -0.4610 N   0  0  0  0  0  0  0  0  0  0  0  0
    0.7227   -3.8499   -0.7387 N   0  0  0  0  0  0  0  0  0  0  0  0
    0.4791    0.8411    1.5694 C   0  0  0  0  0  0  0  0  0  0  0  0
    1.4840    1.2627    1.5811 H   0  0  0  0  0  0  0  0  0  0  0  0
   -0.2397    1.6529    0.8623 H   0  0  0  0  0  0  0  0  0  0  0  0
   -0.0462    0.7229    2.5170 H   0  0  0  0  0  0  0  0  0  0  0  0
  1  6  1  0  0  0  0
  2  1  1  0  0  0  0
  3  1  1  0  0  0  0
  5  4  3  0  0  0  0
  6  7  1  0  0  0  0
  6  9  1  0  0  0  0
  8  6  1  0  0  0  0
M  RAD  1   1   2
M  END
