Coordinates from ORCA-job C2H5-N2+-scan-d09-169-n800
 OpenBabel09191813583D

  9  7  0  0  0  0  0  0  0  0999 V2000
    0.3158    0.7718    1.2600 C   0  0  0  0  0  0  0  0  0  0  0  0
    1.0861    0.5566    0.5190 H   0  0  0  0  0  0  0  0  0  0  0  0
   -0.4440    0.0145    1.4541 H   0  0  0  0  0  0  0  0  0  0  0  0
    0.2966   -5.1988   -2.2135 N   0  0  0  0  0  0  0  0  0  0  0  0
    0.3090   -6.1670   -2.7467 N   0  0  0  0  0  0  0  0  0  0  0  0
    0.3175    1.9678    1.9560 C   0  0  0  0  0  0  0  0  0  0  0  0
    1.0902    2.7157    1.7773 H   0  0  0  0  0  0  0  0  0  0  0  0
   -0.3326    1.8354    0.8154 H   0  0  0  0  0  0  0  0  0  0  0  0
   -0.4401    2.1736    2.7125 H   0  0  0  0  0  0  0  0  0  0  0  0
  1  3  1  0  0  0  0
  1  6  1  0  0  0  0
  2  1  1  0  0  0  0
  5  4  3  0  0  0  0
  6  9  1  0  0  0  0
  7  6  1  0  0  0  0
  8  6  1  0  0  0  0
M  RAD  1   1   2
M  END
