Coordinates from ORCA-job C2H5-N2+-scan-d09-169-n800
 OpenBabel09191813583D

  9  7  0  0  0  0  0  0  0  0999 V2000
   -0.1538    0.1865    0.1570 C   0  0  0  0  0  0  0  0  0  0  0  0
    0.3278    0.3767   -0.8029 H   0  0  0  0  0  0  0  0  0  0  0  0
   -1.1880   -0.1581    0.1242 H   0  0  0  0  0  0  0  0  0  0  0  0
    0.4796   -2.0337   -0.0883 N   0  0  0  0  0  0  0  0  0  0  0  0
    0.7808   -3.0899   -0.2053 N   0  0  0  0  0  0  0  0  0  0  0  0
    0.4252    0.6592    1.3764 C   0  0  0  0  0  0  0  0  0  0  0  0
    1.5109    0.7762    1.3751 H   0  0  0  0  0  0  0  0  0  0  0  0
    0.0099    1.7075    1.3021 H   0  0  0  0  0  0  0  0  0  0  0  0
    0.0059    0.2452    2.2957 H   0  0  0  0  0  0  0  0  0  0  0  0
  1  6  1  0  0  0  0
  2  1  1  0  0  0  0
  3  1  1  0  0  0  0
  5  4  3  0  0  0  0
  6  9  1  0  0  0  0
  7  6  1  0  0  0  0
  8  6  1  0  0  0  0
M  RAD  1   1   2
M  END
