Coordinates from ORCA-job C2H5-N2+-scan-d09-169-n800
 OpenBabel09191813583D

  9  8  0  0  0  0  0  0  0  0999 V2000
   -0.0859   -0.1473    0.0754 C   0  0  0  0  0  0  0  0  0  0  0  0
    0.2826    0.2947   -0.8589 H   0  0  0  0  0  0  0  0  0  0  0  0
   -1.1799   -0.2214    0.0356 H   0  0  0  0  0  0  0  0  0  0  0  0
    0.3676   -1.5139    0.0284 N   0  0  0  0  0  0  0  0  0  0  0  0
    0.7345   -2.5566    0.0268 N   0  0  0  0  0  0  0  0  0  0  0  0
    0.4377    0.5574    1.3381 C   0  0  0  0  0  0  0  0  0  0  0  0
    1.5285    0.5973    1.3496 H   0  0  0  0  0  0  0  0  0  0  0  0
    0.0500    1.5790    1.2935 H   0  0  0  0  0  0  0  0  0  0  0  0
    0.0634    0.0803    2.2457 H   0  0  0  0  0  0  0  0  0  0  0  0
  1  6  1  0  0  0  0
  2  1  1  0  0  0  0
  3  1  1  0  0  0  0
  4  1  1  0  0  0  0
  5  4  1  0  0  0  0
  6  7  1  0  0  0  0
  6  9  1  0  0  0  0
  8  6  1  0  0  0  0
M  RAD  2   4   2   5   3
M  END
