Coordinates from ORCA-job C2H5-N2+-scan-d09-169-n800
 OpenBabel09191813583D

  9  7  0  0  0  0  0  0  0  0999 V2000
    0.2970    2.5072    2.2317 C   0  0  0  0  0  0  0  0  0  0  0  0
    1.0663    2.2912    1.4900 H   0  0  0  0  0  0  0  0  0  0  0  0
   -0.4639    1.7511    2.4267 H   0  0  0  0  0  0  0  0  0  0  0  0
    0.3797  -11.2894   -5.5879 N   0  0  0  0  0  0  0  0  0  0  0  0
    0.3449  -12.2217   -6.1810 N   0  0  0  0  0  0  0  0  0  0  0  0
    0.3023    3.7022    2.9293 C   0  0  0  0  0  0  0  0  0  0  0  0
    1.0760    4.4491    2.7500 H   0  0  0  0  0  0  0  0  0  0  0  0
   -0.3498    3.5709    1.7885 H   0  0  0  0  0  0  0  0  0  0  0  0
   -0.4542    3.9090    3.6867 H   0  0  0  0  0  0  0  0  0  0  0  0
  1  3  1  0  0  0  0
  1  6  1  0  0  0  0
  2  1  1  0  0  0  0
  5  4  3  0  0  0  0
  6  9  1  0  0  0  0
  7  6  1  0  0  0  0
  8  6  1  0  0  0  0
M  RAD  1   1   2
M  END
