Coordinates from ORCA-job C2H5-N2+-scan-d09-169-n800
 OpenBabel09191813583D

  9  7  0  0  0  0  0  0  0  0999 V2000
   -0.1602    0.2627    0.1904 C   0  0  0  0  0  0  0  0  0  0  0  0
    0.3322    0.4291   -0.7691 H   0  0  0  0  0  0  0  0  0  0  0  0
   -1.1865   -0.1068    0.1598 H   0  0  0  0  0  0  0  0  0  0  0  0
    0.5127   -2.2476   -0.1576 N   0  0  0  0  0  0  0  0  0  0  0  0
    0.7980   -3.3052   -0.3011 N   0  0  0  0  0  0  0  0  0  0  0  0
    0.4249    0.7056    1.4026 C   0  0  0  0  0  0  0  0  0  0  0  0
    1.5062    0.8581    1.4035 H   0  0  0  0  0  0  0  0  0  0  0  0
   -0.0211    1.7499    1.2759 H   0  0  0  0  0  0  0  0  0  0  0  0
   -0.0079    0.3238    2.3296 H   0  0  0  0  0  0  0  0  0  0  0  0
  1  6  1  0  0  0  0
  2  1  1  0  0  0  0
  3  1  1  0  0  0  0
  5  4  3  0  0  0  0
  6  7  1  0  0  0  0
  6  9  1  0  0  0  0
  8  6  1  0  0  0  0
M  RAD  1   1   2
M  END
