Coordinates from ORCA-job C2H5-N2+-scan-d09-169-n800
 OpenBabel09191813583D

  9  7  0  0  0  0  0  0  0  0999 V2000
    0.3237    1.4368    1.6558 C   0  0  0  0  0  0  0  0  0  0  0  0
    1.1042    1.2154    0.9274 H   0  0  0  0  0  0  0  0  0  0  0  0
   -0.4260    0.6728    1.8624 H   0  0  0  0  0  0  0  0  0  0  0  0
    0.3128   -7.5398   -3.5400 N   0  0  0  0  0  0  0  0  0  0  0  0
    0.3232   -8.5097   -4.0701 N   0  0  0  0  0  0  0  0  0  0  0  0
    0.3008    2.6494    2.3220 C   0  0  0  0  0  0  0  0  0  0  0  0
    1.0634    3.4048    2.1313 H   0  0  0  0  0  0  0  0  0  0  0  0
   -0.3369    2.4777    1.1788 H   0  0  0  0  0  0  0  0  0  0  0  0
   -0.4669    2.8621    3.0663 H   0  0  0  0  0  0  0  0  0  0  0  0
  1  3  1  0  0  0  0
  1  6  1  0  0  0  0
  2  1  1  0  0  0  0
  5  4  3  0  0  0  0
  6  9  1  0  0  0  0
  7  6  1  0  0  0  0
  8  6  1  0  0  0  0
M  RAD  1   1   2
M  END
