Coordinates from ORCA-job C2H5-N2+-scan-d09-169-n800
 OpenBabel09191813583D

  9  7  0  0  0  0  0  0  0  0999 V2000
    0.3139    0.7032    1.2174 C   0  0  0  0  0  0  0  0  0  0  0  0
    1.0823    0.4891    0.4742 H   0  0  0  0  0  0  0  0  0  0  0  0
   -0.4478   -0.0529    1.4092 H   0  0  0  0  0  0  0  0  0  0  0  0
    0.2955   -4.9558   -2.0750 N   0  0  0  0  0  0  0  0  0  0  0  0
    0.3083   -5.9240   -2.6082 N   0  0  0  0  0  0  0  0  0  0  0  0
    0.3199    1.8961    1.9186 C   0  0  0  0  0  0  0  0  0  0  0  0
    1.0945    2.6426    1.7420 H   0  0  0  0  0  0  0  0  0  0  0  0
   -0.3323    1.7708    0.7787 H   0  0  0  0  0  0  0  0  0  0  0  0
   -0.4359    2.1005    2.6772 H   0  0  0  0  0  0  0  0  0  0  0  0
  1  3  1  0  0  0  0
  1  6  1  0  0  0  0
  2  1  1  0  0  0  0
  5  4  3  0  0  0  0
  6  9  1  0  0  0  0
  7  6  1  0  0  0  0
  8  6  1  0  0  0  0
M  RAD  1   1   2
M  END
