Coordinates from ORCA-job C2H5-N2+-scan-d09-169-n800
 OpenBabel09191813583D

  9  7  0  0  0  0  0  0  0  0999 V2000
    0.3131    1.6855    1.7808 C   0  0  0  0  0  0  0  0  0  0  0  0
    1.0877    1.4687    1.0450 H   0  0  0  0  0  0  0  0  0  0  0  0
   -0.4425    0.9251    1.9794 H   0  0  0  0  0  0  0  0  0  0  0  0
    0.3311   -8.4006   -4.0163 N   0  0  0  0  0  0  0  0  0  0  0  0
    0.3285   -9.3701   -4.5474 N   0  0  0  0  0  0  0  0  0  0  0  0
    0.3048    2.8874    2.4666 C   0  0  0  0  0  0  0  0  0  0  0  0
    1.0732    3.6389    2.2838 H   0  0  0  0  0  0  0  0  0  0  0  0
   -0.3403    2.7395    1.3239 H   0  0  0  0  0  0  0  0  0  0  0  0
   -0.4571    3.0952    3.2182 H   0  0  0  0  0  0  0  0  0  0  0  0
  1  3  1  0  0  0  0
  1  6  1  0  0  0  0
  2  1  1  0  0  0  0
  5  4  3  0  0  0  0
  6  9  1  0  0  0  0
  7  6  1  0  0  0  0
  8  6  1  0  0  0  0
M  RAD  1   1   2
M  END
