Coordinates from ORCA-job C2H5-N2+-scan-d09-169-n800
 OpenBabel09191813583D

  9  7  0  0  0  0  0  0  0  0999 V2000
    0.3063    1.9359    1.9145 C   0  0  0  0  0  0  0  0  0  0  0  0
    1.0780    1.7208    1.1751 H   0  0  0  0  0  0  0  0  0  0  0  0
   -0.4522    1.1775    2.1096 H   0  0  0  0  0  0  0  0  0  0  0  0
    0.3508   -9.2765   -4.4946 N   0  0  0  0  0  0  0  0  0  0  0  0
    0.3302  -10.2380   -5.0398 N   0  0  0  0  0  0  0  0  0  0  0  0
    0.3054    3.1328    2.6089 C   0  0  0  0  0  0  0  0  0  0  0  0
    1.0768    3.8821    2.4294 H   0  0  0  0  0  0  0  0  0  0  0  0
   -0.3434    2.9961    1.4669 H   0  0  0  0  0  0  0  0  0  0  0  0
   -0.4535    3.3388    3.3640 H   0  0  0  0  0  0  0  0  0  0  0  0
  1  3  1  0  0  0  0
  1  6  1  0  0  0  0
  2  1  1  0  0  0  0
  5  4  3  0  0  0  0
  6  9  1  0  0  0  0
  7  6  1  0  0  0  0
  8  6  1  0  0  0  0
M  RAD  1   1   2
M  END
