Coordinates from ORCA-job C2H5-N2+-scan-d09-169-n800
 OpenBabel09191813583D

  9  7  0  0  0  0  0  0  0  0999 V2000
    0.3062    0.5060    1.0915 C   0  0  0  0  0  0  0  0  0  0  0  0
    1.0676    0.2961    0.3399 H   0  0  0  0  0  0  0  0  0  0  0  0
   -0.4623   -0.2453    1.2748 H   0  0  0  0  0  0  0  0  0  0  0  0
    0.2935   -4.2549   -1.6738 N   0  0  0  0  0  0  0  0  0  0  0  0
    0.3077   -5.2235   -2.2063 N   0  0  0  0  0  0  0  0  0  0  0  0
    0.3283    1.6873    1.8117 C   0  0  0  0  0  0  0  0  0  0  0  0
    1.1097    2.4285    1.6430 H   0  0  0  0  0  0  0  0  0  0  0  0
   -0.3316    1.5886    0.6748 H   0  0  0  0  0  0  0  0  0  0  0  0
   -0.4207    1.8868    2.5783 H   0  0  0  0  0  0  0  0  0  0  0  0
  1  3  1  0  0  0  0
  1  6  1  0  0  0  0
  2  1  1  0  0  0  0
  5  4  3  0  0  0  0
  6  9  1  0  0  0  0
  7  6  1  0  0  0  0
  8  6  1  0  0  0  0
M  RAD  1   1   2
M  END
