Coordinates from ORCA-job C2H5-N2+-scan-d09-169-n800
 OpenBabel09191813583D

  9  7  0  0  0  0  0  0  0  0999 V2000
    0.3095    0.5778    1.1380 C   0  0  0  0  0  0  0  0  0  0  0  0
    1.0737    0.3662    0.3899 H   0  0  0  0  0  0  0  0  0  0  0  0
   -0.4562   -0.1755    1.3248 H   0  0  0  0  0  0  0  0  0  0  0  0
    0.2940   -4.5108   -1.8206 N   0  0  0  0  0  0  0  0  0  0  0  0
    0.3075   -5.4791   -2.3536 N   0  0  0  0  0  0  0  0  0  0  0  0
    0.3250    1.7639    1.8505 C   0  0  0  0  0  0  0  0  0  0  0  0
    1.1036    2.5073    1.6787 H   0  0  0  0  0  0  0  0  0  0  0  0
   -0.3318    1.6543    0.7123 H   0  0  0  0  0  0  0  0  0  0  0  0
   -0.4268    1.9655    2.6139 H   0  0  0  0  0  0  0  0  0  0  0  0
  1  3  1  0  0  0  0
  1  6  1  0  0  0  0
  2  1  1  0  0  0  0
  5  4  3  0  0  0  0
  6  9  1  0  0  0  0
  7  6  1  0  0  0  0
  8  6  1  0  0  0  0
M  RAD  1   1   2
M  END
