Coordinates from ORCA-job C2H5-N2+-scan-d09-169-n800
 OpenBabel09191813583D

  9  7  0  0  0  0  0  0  0  0999 V2000
    0.3175    0.8406    1.3022 C   0  0  0  0  0  0  0  0  0  0  0  0
    1.0893    0.6244    0.5633 H   0  0  0  0  0  0  0  0  0  0  0  0
   -0.4408    0.0822    1.4983 H   0  0  0  0  0  0  0  0  0  0  0  0
    0.2978   -5.4419   -2.3519 N   0  0  0  0  0  0  0  0  0  0  0  0
    0.3100   -6.4102   -2.8849 N   0  0  0  0  0  0  0  0  0  0  0  0
    0.3152    2.0393    1.9936 C   0  0  0  0  0  0  0  0  0  0  0  0
    1.0863    2.7885    1.8130 H   0  0  0  0  0  0  0  0  0  0  0  0
   -0.3330    1.9006    0.8524 H   0  0  0  0  0  0  0  0  0  0  0  0
   -0.4440    2.2462    2.7481 H   0  0  0  0  0  0  0  0  0  0  0  0
  1  3  1  0  0  0  0
  1  6  1  0  0  0  0
  2  1  1  0  0  0  0
  5  4  3  0  0  0  0
  6  9  1  0  0  0  0
  7  6  1  0  0  0  0
  8  6  1  0  0  0  0
M  RAD  1   1   2
M  END
