Coordinates from ORCA-job C2H5-N2+-scan-d09-169-n800
 OpenBabel09191813583D

  9  7  0  0  0  0  0  0  0  0999 V2000
    0.3216    1.1015    1.4591 C   0  0  0  0  0  0  0  0  0  0  0  0
    1.0982    0.8824    0.7260 H   0  0  0  0  0  0  0  0  0  0  0  0
   -0.4320    0.3400    1.6610 H   0  0  0  0  0  0  0  0  0  0  0  0
    0.3037   -6.3615   -2.8737 N   0  0  0  0  0  0  0  0  0  0  0  0
    0.3151   -7.3305   -3.4057 N   0  0  0  0  0  0  0  0  0  0  0  0
    0.3080    2.3079    2.1367 C   0  0  0  0  0  0  0  0  0  0  0  0
    1.0744    3.0606    1.9506 H   0  0  0  0  0  0  0  0  0  0  0  0
   -0.3345    2.1511    0.9943 H   0  0  0  0  0  0  0  0  0  0  0  0
   -0.4559    2.5181    2.8857 H   0  0  0  0  0  0  0  0  0  0  0  0
  1  3  1  0  0  0  0
  1  6  1  0  0  0  0
  2  1  1  0  0  0  0
  5  4  3  0  0  0  0
  6  9  1  0  0  0  0
  7  6  1  0  0  0  0
  8  6  1  0  0  0  0
M  RAD  1   1   2
M  END
