Coordinates from ORCA-job C2H5-N2+-scan-d09-169-n800
 OpenBabel09191813583D

  9  7  0  0  0  0  0  0  0  0999 V2000
    0.3024    0.4345    1.0442 C   0  0  0  0  0  0  0  0  0  0  0  0
    1.0603    0.2266    0.2887 H   0  0  0  0  0  0  0  0  0  0  0  0
   -0.4693   -0.3145    1.2235 H   0  0  0  0  0  0  0  0  0  0  0  0
    0.2934   -3.9994   -1.5266 N   0  0  0  0  0  0  0  0  0  0  0  0
    0.3084   -4.9683   -2.0585 N   0  0  0  0  0  0  0  0  0  0  0  0
    0.3319    1.6103    1.7731 C   0  0  0  0  0  0  0  0  0  0  0  0
    1.1166    2.3488    1.6081 H   0  0  0  0  0  0  0  0  0  0  0  0
   -0.3314    1.5242    0.6380 H   0  0  0  0  0  0  0  0  0  0  0  0
   -0.4138    1.8074    2.5435 H   0  0  0  0  0  0  0  0  0  0  0  0
  1  3  1  0  0  0  0
  1  6  1  0  0  0  0
  2  1  1  0  0  0  0
  5  4  3  0  0  0  0
  6  9  1  0  0  0  0
  7  6  1  0  0  0  0
  8  6  1  0  0  0  0
M  RAD  1   1   2
M  END
