Coordinates from ORCA-job C2H5-N2+-scan-d09-169-n800
 OpenBabel09191813583D

  9  8  0  0  0  0  0  0  0  0999 V2000
   -0.0914   -0.1287    0.0771 C   0  0  0  0  0  0  0  0  0  0  0  0
    0.2835    0.2980   -0.8604 H   0  0  0  0  0  0  0  0  0  0  0  0
   -1.1830   -0.2194    0.0365 H   0  0  0  0  0  0  0  0  0  0  0  0
    0.3731   -1.5338    0.0260 N   0  0  0  0  0  0  0  0  0  0  0  0
    0.7390   -2.5762    0.0228 N   0  0  0  0  0  0  0  0  0  0  0  0
    0.4366    0.5608    1.3382 C   0  0  0  0  0  0  0  0  0  0  0  0
    1.5274    0.6008    1.3492 H   0  0  0  0  0  0  0  0  0  0  0  0
    0.0514    1.5844    1.2990 H   0  0  0  0  0  0  0  0  0  0  0  0
    0.0618    0.0837    2.2456 H   0  0  0  0  0  0  0  0  0  0  0  0
  1  6  1  0  0  0  0
  2  1  1  0  0  0  0
  3  1  1  0  0  0  0
  4  1  1  0  0  0  0
  5  4  1  0  0  0  0
  6  7  1  0  0  0  0
  6  9  1  0  0  0  0
  8  6  1  0  0  0  0
M  RAD  2   4   2   5   3
M  END
