Coordinates from ORCA-job C2H5-N2+-scan-d09-169-n800
 OpenBabel09191813583D

  9  7  0  0  0  0  0  0  0  0999 V2000
    0.3046    2.1136    2.0166 C   0  0  0  0  0  0  0  0  0  0  0  0
    1.0764    1.8963    1.2779 H   0  0  0  0  0  0  0  0  0  0  0  0
   -0.4538    1.3557    2.2141 H   0  0  0  0  0  0  0  0  0  0  0  0
    0.3645   -9.9111   -4.8277 N   0  0  0  0  0  0  0  0  0  0  0  0
    0.3298  -10.8522   -5.4067 N   0  0  0  0  0  0  0  0  0  0  0  0
    0.3034    3.3127    2.7072 C   0  0  0  0  0  0  0  0  0  0  0  0
    1.0746    4.0615    2.5253 H   0  0  0  0  0  0  0  0  0  0  0  0
   -0.3454    3.1722    1.5656 H   0  0  0  0  0  0  0  0  0  0  0  0
   -0.4556    3.5209    3.4616 H   0  0  0  0  0  0  0  0  0  0  0  0
  1  3  1  0  0  0  0
  1  6  1  0  0  0  0
  2  1  1  0  0  0  0
  5  4  3  0  0  0  0
  6  9  1  0  0  0  0
  7  6  1  0  0  0  0
  8  6  1  0  0  0  0
M  RAD  1   1   2
M  END
