Coordinates from ORCA-job C2H5-N2+-scan-d09-169-n800
 OpenBabel09191813583D

  9  8  0  0  0  0  0  0  0  0999 V2000
   -0.0226   -0.3784    0.0455 C   0  0  0  0  0  0  0  0  0  0  0  0
    0.2845    0.2672   -0.8192 H   0  0  0  0  0  0  0  0  0  0  0  0
   -1.1352   -0.2338    0.0491 H   0  0  0  0  0  0  0  0  0  0  0  0
    0.2975   -1.2835    0.0468 N   0  0  0  0  0  0  0  0  0  0  0  0
    0.6862   -2.3483    0.0680 N   0  0  0  0  0  0  0  0  0  0  0  0
    0.4560    0.5349    1.3549 C   0  0  0  0  0  0  0  0  0  0  0  0
    1.5461    0.5557    1.3361 H   0  0  0  0  0  0  0  0  0  0  0  0
    0.0198    1.5224    1.2114 H   0  0  0  0  0  0  0  0  0  0  0  0
    0.0661    0.0334    2.2413 H   0  0  0  0  0  0  0  0  0  0  0  0
  1  4  1  0  0  0  0
  1  3  1  0  0  0  0
  1  6  1  0  0  0  0
  2  1  1  0  0  0  0
  4  5  1  0  0  0  0
  6  9  1  0  0  0  0
  7  6  1  0  0  0  0
  8  6  1  0  0  0  0
M  RAD  2   4   2   5   3
M  END
