Coordinates from ORCA-job C2H5-N2+-scan-d09-169-n800
 OpenBabel09191813583D

  9  7  0  0  0  0  0  0  0  0999 V2000
    0.2977    2.4565    2.2039 C   0  0  0  0  0  0  0  0  0  0  0  0
    1.0671    2.2403    1.4623 H   0  0  0  0  0  0  0  0  0  0  0  0
   -0.4630    1.7004    2.3991 H   0  0  0  0  0  0  0  0  0  0  0  0
    0.3778  -11.1128   -5.4887 N   0  0  0  0  0  0  0  0  0  0  0  0
    0.3431  -12.0447   -6.0824 N   0  0  0  0  0  0  0  0  0  0  0  0
    0.3026    3.6520    2.9008 C   0  0  0  0  0  0  0  0  0  0  0  0
    1.0762    4.3989    2.7212 H   0  0  0  0  0  0  0  0  0  0  0  0
   -0.3492    3.5199    1.7599 H   0  0  0  0  0  0  0  0  0  0  0  0
   -0.4539    3.8590    3.6580 H   0  0  0  0  0  0  0  0  0  0  0  0
  1  3  1  0  0  0  0
  1  6  1  0  0  0  0
  2  1  1  0  0  0  0
  5  4  3  0  0  0  0
  6  9  1  0  0  0  0
  7  6  1  0  0  0  0
  8  6  1  0  0  0  0
M  RAD  1   1   2
M  END
