Coordinates from ORCA-job C2H5-N2+-scan-d09-169-n800
 OpenBabel09191813583D

  9  8  0  0  0  0  0  0  0  0999 V2000
   -0.0718   -0.1937    0.0716 C   0  0  0  0  0  0  0  0  0  0  0  0
    0.2813    0.2865   -0.8535 H   0  0  0  0  0  0  0  0  0  0  0  0
   -1.1712   -0.2260    0.0349 H   0  0  0  0  0  0  0  0  0  0  0  0
    0.3534   -1.4645    0.0337 N   0  0  0  0  0  0  0  0  0  0  0  0
    0.7228   -2.5088    0.0352 N   0  0  0  0  0  0  0  0  0  0  0  0
    0.4408    0.5493    1.3384 C   0  0  0  0  0  0  0  0  0  0  0  0
    1.5314    0.5891    1.3500 H   0  0  0  0  0  0  0  0  0  0  0  0
    0.0452    1.5654    1.2778 H   0  0  0  0  0  0  0  0  0  0  0  0
    0.0666    0.0722    2.2459 H   0  0  0  0  0  0  0  0  0  0  0  0
  1  6  1  0  0  0  0
  2  1  1  0  0  0  0
  3  1  1  0  0  0  0
  4  5  1  0  0  0  0
  4  1  1  0  0  0  0
  6  7  1  0  0  0  0
  6  9  1  0  0  0  0
  8  6  1  0  0  0  0
M  RAD  2   4   2   5   3
M  END
