Coordinates from ORCA-job C2H5-N2+-scan-d09-169-n800
 OpenBabel09191813583D

  9  7  0  0  0  0  0  0  0  0999 V2000
    0.3008    2.2541    2.0924 C   0  0  0  0  0  0  0  0  0  0  0  0
    1.0709    2.0373    1.3517 H   0  0  0  0  0  0  0  0  0  0  0  0
   -0.4592    1.4975    2.2886 H   0  0  0  0  0  0  0  0  0  0  0  0
    0.3699  -10.4046   -5.0951 N   0  0  0  0  0  0  0  0  0  0  0  0
    0.3360  -11.3386   -5.6855 N   0  0  0  0  0  0  0  0  0  0  0  0
    0.3039    3.4510    2.7869 C   0  0  0  0  0  0  0  0  0  0  0  0
    1.0767    4.1984    2.6062 H   0  0  0  0  0  0  0  0  0  0  0  0
   -0.3471    3.3158    1.6458 H   0  0  0  0  0  0  0  0  0  0  0  0
   -0.4535    3.6587    3.5431 H   0  0  0  0  0  0  0  0  0  0  0  0
  1  3  1  0  0  0  0
  1  6  1  0  0  0  0
  2  1  1  0  0  0  0
  5  4  3  0  0  0  0
  6  9  1  0  0  0  0
  7  6  1  0  0  0  0
  8  6  1  0  0  0  0
M  RAD  1   1   2
M  END
