Coordinates from ORCA-job C2H5-N2+-scan-d09-169-n800
 OpenBabel09191813583D

  9  7  0  0  0  0  0  0  0  0999 V2000
    0.3047    2.1020    2.0099 C   0  0  0  0  0  0  0  0  0  0  0  0
    1.0765    1.8850    1.2711 H   0  0  0  0  0  0  0  0  0  0  0  0
   -0.4537    1.3441    2.2071 H   0  0  0  0  0  0  0  0  0  0  0  0
    0.3639   -9.8694   -4.8065 N   0  0  0  0  0  0  0  0  0  0  0  0
    0.3295  -10.8125   -5.3822 N   0  0  0  0  0  0  0  0  0  0  0  0
    0.3035    3.3009    2.7009 C   0  0  0  0  0  0  0  0  0  0  0  0
    1.0747    4.0498    2.5192 H   0  0  0  0  0  0  0  0  0  0  0  0
   -0.3453    3.1608    1.5592 H   0  0  0  0  0  0  0  0  0  0  0  0
   -0.4555    3.5088    3.4553 H   0  0  0  0  0  0  0  0  0  0  0  0
  1  3  1  0  0  0  0
  1  6  1  0  0  0  0
  2  1  1  0  0  0  0
  5  4  3  0  0  0  0
  6  9  1  0  0  0  0
  7  6  1  0  0  0  0
  8  6  1  0  0  0  0
M  RAD  1   1   2
M  END
