Coordinates from ORCA-job C2H5-N2+-scan-d09-169-n800
 OpenBabel09191813583D

  9  7  0  0  0  0  0  0  0  0999 V2000
    0.3237    1.4137    1.6423 C   0  0  0  0  0  0  0  0  0  0  0  0
    1.1039    1.1924    0.9137 H   0  0  0  0  0  0  0  0  0  0  0  0
   -0.4263    0.6498    1.8487 H   0  0  0  0  0  0  0  0  0  0  0  0
    0.3121   -7.4585   -3.4940 N   0  0  0  0  0  0  0  0  0  0  0  0
    0.3227   -8.4284   -4.0244 N   0  0  0  0  0  0  0  0  0  0  0  0
    0.3013    2.6259    2.3092 C   0  0  0  0  0  0  0  0  0  0  0  0
    1.0641    3.3812    2.1187 H   0  0  0  0  0  0  0  0  0  0  0  0
   -0.3367    2.4551    1.1660 H   0  0  0  0  0  0  0  0  0  0  0  0
   -0.4662    2.8385    3.0538 H   0  0  0  0  0  0  0  0  0  0  0  0
  1  3  1  0  0  0  0
  1  6  1  0  0  0  0
  2  1  1  0  0  0  0
  5  4  3  0  0  0  0
  6  9  1  0  0  0  0
  7  6  1  0  0  0  0
  8  6  1  0  0  0  0
M  RAD  1   1   2
M  END
