Coordinates from ORCA-job C2H5-N2+-scan-d09-169-n800
 OpenBabel09191813583D

  9  7  0  0  0  0  0  0  0  0999 V2000
    0.3026    0.4382    1.0467 C   0  0  0  0  0  0  0  0  0  0  0  0
    1.0607    0.2302    0.2914 H   0  0  0  0  0  0  0  0  0  0  0  0
   -0.4689   -0.3109    1.2262 H   0  0  0  0  0  0  0  0  0  0  0  0
    0.2933   -4.0128   -1.5344 N   0  0  0  0  0  0  0  0  0  0  0  0
    0.3083   -4.9817   -2.0663 N   0  0  0  0  0  0  0  0  0  0  0  0
    0.3317    1.6143    1.7751 C   0  0  0  0  0  0  0  0  0  0  0  0
    1.1162    2.3530    1.6099 H   0  0  0  0  0  0  0  0  0  0  0  0
   -0.3314    1.5276    0.6399 H   0  0  0  0  0  0  0  0  0  0  0  0
   -0.4142    1.8116    2.5453 H   0  0  0  0  0  0  0  0  0  0  0  0
  1  3  1  0  0  0  0
  1  6  1  0  0  0  0
  2  1  1  0  0  0  0
  5  4  3  0  0  0  0
  6  9  1  0  0  0  0
  7  6  1  0  0  0  0
  8  6  1  0  0  0  0
M  RAD  1   1   2
M  END
