Coordinates from ORCA-job C2H5-N2+-scan-d09-169-n800
 OpenBabel09191813583D

  9  7  0  0  0  0  0  0  0  0999 V2000
    0.3239    1.5140    1.7006 C   0  0  0  0  0  0  0  0  0  0  0  0
    1.1050    1.2923    0.9731 H   0  0  0  0  0  0  0  0  0  0  0  0
   -0.4252    0.7496    1.9080 H   0  0  0  0  0  0  0  0  0  0  0  0
    0.3151   -7.8108   -3.6930 N   0  0  0  0  0  0  0  0  0  0  0  0
    0.3252   -8.7810   -4.2227 N   0  0  0  0  0  0  0  0  0  0  0  0
    0.2994    2.7277    2.3649 C   0  0  0  0  0  0  0  0  0  0  0  0
    1.0613    3.4836    2.1733 H   0  0  0  0  0  0  0  0  0  0  0  0
   -0.3375    2.5535    1.2215 H   0  0  0  0  0  0  0  0  0  0  0  0
   -0.4690    2.9408    3.1084 H   0  0  0  0  0  0  0  0  0  0  0  0
  1  3  1  0  0  0  0
  1  6  1  0  0  0  0
  2  1  1  0  0  0  0
  5  4  3  0  0  0  0
  6  9  1  0  0  0  0
  7  6  1  0  0  0  0
  8  6  1  0  0  0  0
M  RAD  1   1   2
M  END
