Coordinates from ORCA-job C2H5-N2+-scan-d09-169-n800
 OpenBabel09191813583D

  9  7  0  0  0  0  0  0  0  0999 V2000
    0.3059    1.9670    1.9319 C   0  0  0  0  0  0  0  0  0  0  0  0
    1.0776    1.7517    1.1925 H   0  0  0  0  0  0  0  0  0  0  0  0
   -0.4527    1.2087    2.1272 H   0  0  0  0  0  0  0  0  0  0  0  0
    0.3534   -9.3863   -4.5536 N   0  0  0  0  0  0  0  0  0  0  0  0
    0.3300  -10.3456   -5.1025 N   0  0  0  0  0  0  0  0  0  0  0  0
    0.3052    3.1639    2.6263 C   0  0  0  0  0  0  0  0  0  0  0  0
    1.0766    3.9131    2.4466 H   0  0  0  0  0  0  0  0  0  0  0  0
   -0.3438    3.0271    1.4843 H   0  0  0  0  0  0  0  0  0  0  0  0
   -0.4538    3.3700    3.3813 H   0  0  0  0  0  0  0  0  0  0  0  0
  1  3  1  0  0  0  0
  1  6  1  0  0  0  0
  2  1  1  0  0  0  0
  5  4  3  0  0  0  0
  6  9  1  0  0  0  0
  7  6  1  0  0  0  0
  8  6  1  0  0  0  0
M  RAD  1   1   2
M  END
