Coordinates from ORCA-job C2H5-N2+-scan-d09-169-n800
 OpenBabel09191813583D

  9  7  0  0  0  0  0  0  0  0999 V2000
    0.3197    0.9594    1.3742 C   0  0  0  0  0  0  0  0  0  0  0  0
    1.0940    0.7417    0.6382 H   0  0  0  0  0  0  0  0  0  0  0  0
   -0.4362    0.1994    1.5732 H   0  0  0  0  0  0  0  0  0  0  0  0
    0.3003   -5.8610   -2.5899 N   0  0  0  0  0  0  0  0  0  0  0  0
    0.3121   -6.8295   -3.1226 N   0  0  0  0  0  0  0  0  0  0  0  0
    0.3117    2.1620    2.0586 C   0  0  0  0  0  0  0  0  0  0  0  0
    1.0804    2.9130    1.8752 H   0  0  0  0  0  0  0  0  0  0  0  0
   -0.3336    2.0141    0.9168 H   0  0  0  0  0  0  0  0  0  0  0  0
   -0.4499    2.3706    2.8103 H   0  0  0  0  0  0  0  0  0  0  0  0
  1  3  1  0  0  0  0
  1  6  1  0  0  0  0
  2  1  1  0  0  0  0
  5  4  3  0  0  0  0
  6  9  1  0  0  0  0
  7  6  1  0  0  0  0
  8  6  1  0  0  0  0
M  RAD  1   1   2
M  END
