Coordinates from ORCA-job C2H5-N2+-scan-d09-169-n800
 OpenBabel09191813583D

  9  7  0  0  0  0  0  0  0  0999 V2000
    0.3021    0.4307    1.0417 C   0  0  0  0  0  0  0  0  0  0  0  0
    1.0599    0.2229    0.2859 H   0  0  0  0  0  0  0  0  0  0  0  0
   -0.4697   -0.3182    1.2208 H   0  0  0  0  0  0  0  0  0  0  0  0
    0.2934   -3.9859   -1.5189 N   0  0  0  0  0  0  0  0  0  0  0  0
    0.3085   -4.9548   -2.0507 N   0  0  0  0  0  0  0  0  0  0  0  0
    0.3321    1.6062    1.7711 C   0  0  0  0  0  0  0  0  0  0  0  0
    1.1170    2.3446    1.6063 H   0  0  0  0  0  0  0  0  0  0  0  0
   -0.3314    1.5209    0.6361 H   0  0  0  0  0  0  0  0  0  0  0  0
   -0.4134    1.8032    2.5417 H   0  0  0  0  0  0  0  0  0  0  0  0
  1  3  1  0  0  0  0
  1  6  1  0  0  0  0
  2  1  1  0  0  0  0
  5  4  3  0  0  0  0
  6  9  1  0  0  0  0
  7  6  1  0  0  0  0
  8  6  1  0  0  0  0
M  RAD  1   1   2
M  END
