Coordinates from ORCA-job C2H5-N2+-scan-d09-169-n800
 OpenBabel09191813583D

  9  7  0  0  0  0  0  0  0  0999 V2000
    0.3096    0.5816    1.1405 C   0  0  0  0  0  0  0  0  0  0  0  0
    1.0740    0.3699    0.3925 H   0  0  0  0  0  0  0  0  0  0  0  0
   -0.4559   -0.1718    1.3274 H   0  0  0  0  0  0  0  0  0  0  0  0
    0.2940   -4.5243   -1.8283 N   0  0  0  0  0  0  0  0  0  0  0  0
    0.3075   -5.4926   -2.3613 N   0  0  0  0  0  0  0  0  0  0  0  0
    0.3248    1.7679    1.8526 C   0  0  0  0  0  0  0  0  0  0  0  0
    1.1033    2.5114    1.6806 H   0  0  0  0  0  0  0  0  0  0  0  0
   -0.3318    1.6578    0.7143 H   0  0  0  0  0  0  0  0  0  0  0  0
   -0.4271    1.9696    2.6158 H   0  0  0  0  0  0  0  0  0  0  0  0
  1  3  1  0  0  0  0
  1  6  1  0  0  0  0
  2  1  1  0  0  0  0
  5  4  3  0  0  0  0
  6  9  1  0  0  0  0
  7  6  1  0  0  0  0
  8  6  1  0  0  0  0
M  RAD  1   1   2
M  END
