Coordinates from ORCA-job C2H5-N2+-scan-d09-169-n800
 OpenBabel09191813583D

  9  7  0  0  0  0  0  0  0  0999 V2000
    0.2976    2.4682    2.2103 C   0  0  0  0  0  0  0  0  0  0  0  0
    1.0669    2.2521    1.4686 H   0  0  0  0  0  0  0  0  0  0  0  0
   -0.4633    1.7122    2.4054 H   0  0  0  0  0  0  0  0  0  0  0  0
    0.3783  -11.1535   -5.5118 N   0  0  0  0  0  0  0  0  0  0  0  0
    0.3435  -12.0856   -6.1050 N   0  0  0  0  0  0  0  0  0  0  0  0
    0.3026    3.6635    2.9074 C   0  0  0  0  0  0  0  0  0  0  0  0
    1.0762    4.4104    2.7279 H   0  0  0  0  0  0  0  0  0  0  0  0
   -0.3494    3.5317    1.7666 H   0  0  0  0  0  0  0  0  0  0  0  0
   -0.4540    3.8705    3.6647 H   0  0  0  0  0  0  0  0  0  0  0  0
  1  3  1  0  0  0  0
  1  6  1  0  0  0  0
  2  1  1  0  0  0  0
  5  4  3  0  0  0  0
  6  9  1  0  0  0  0
  7  6  1  0  0  0  0
  8  6  1  0  0  0  0
M  RAD  1   1   2
M  END
