Coordinates from ORCA-job C2H5-N2+-scan-d09-169-n800
 OpenBabel09191813583D

  9  7  0  0  0  0  0  0  0  0999 V2000
    0.3037    0.4570    1.0593 C   0  0  0  0  0  0  0  0  0  0  0  0
    1.0627    0.2485    0.3050 H   0  0  0  0  0  0  0  0  0  0  0  0
   -0.4670   -0.2927    1.2399 H   0  0  0  0  0  0  0  0  0  0  0  0
    0.2934   -4.0801   -1.5731 N   0  0  0  0  0  0  0  0  0  0  0  0
    0.3081   -5.0488   -2.1052 N   0  0  0  0  0  0  0  0  0  0  0  0
    0.3307    1.6346    1.7852 C   0  0  0  0  0  0  0  0  0  0  0  0
    1.1144    2.3741    1.6191 H   0  0  0  0  0  0  0  0  0  0  0  0
   -0.3315    1.5444    0.6495 H   0  0  0  0  0  0  0  0  0  0  0  0
   -0.4161    1.8326    2.5544 H   0  0  0  0  0  0  0  0  0  0  0  0
  1  3  1  0  0  0  0
  1  6  1  0  0  0  0
  2  1  1  0  0  0  0
  5  4  3  0  0  0  0
  6  9  1  0  0  0  0
  7  6  1  0  0  0  0
  8  6  1  0  0  0  0
M  RAD  1   1   2
M  END
