Coordinates from ORCA-job C2H5-N2+-scan-d09-169-n800
 OpenBabel09191813583D

  9  7  0  0  0  0  0  0  0  0999 V2000
    0.3125    1.6935    1.7845 C   0  0  0  0  0  0  0  0  0  0  0  0
    1.0868    1.4769    1.0483 H   0  0  0  0  0  0  0  0  0  0  0  0
   -0.4434    0.9333    1.9826 H   0  0  0  0  0  0  0  0  0  0  0  0
    0.3319   -8.4281   -4.0312 N   0  0  0  0  0  0  0  0  0  0  0  0
    0.3286   -9.3975   -4.5625 N   0  0  0  0  0  0  0  0  0  0  0  0
    0.3051    2.8948    2.4714 C   0  0  0  0  0  0  0  0  0  0  0  0
    1.0738    3.6460    2.2889 H   0  0  0  0  0  0  0  0  0  0  0  0
   -0.3405    2.7482    1.3287 H   0  0  0  0  0  0  0  0  0  0  0  0
   -0.4565    3.1024    3.2233 H   0  0  0  0  0  0  0  0  0  0  0  0
  1  3  1  0  0  0  0
  1  6  1  0  0  0  0
  2  1  1  0  0  0  0
  5  4  3  0  0  0  0
  6  9  1  0  0  0  0
  7  6  1  0  0  0  0
  8  6  1  0  0  0  0
M  RAD  1   1   2
M  END
