Coordinates from ORCA-job C2H5-N2+-scan-d09-169-n800
 OpenBabel09191813583D

  9  7  0  0  0  0  0  0  0  0999 V2000
    0.2998    0.3932    1.0165 C   0  0  0  0  0  0  0  0  0  0  0  0
    1.0554    0.1864    0.2584 H   0  0  0  0  0  0  0  0  0  0  0  0
   -0.4739   -0.3543    1.1932 H   0  0  0  0  0  0  0  0  0  0  0  0
    0.2935   -3.8515   -1.4413 N   0  0  0  0  0  0  0  0  0  0  0  0
    0.3092   -4.8207   -1.9725 N   0  0  0  0  0  0  0  0  0  0  0  0
    0.3342    1.5655    1.7508 C   0  0  0  0  0  0  0  0  0  0  0  0
    1.1211    2.3022    1.5882 H   0  0  0  0  0  0  0  0  0  0  0  0
   -0.3313    1.4876    0.6170 H   0  0  0  0  0  0  0  0  0  0  0  0
   -0.4094    1.7611    2.5237 H   0  0  0  0  0  0  0  0  0  0  0  0
  1  3  1  0  0  0  0
  1  6  1  0  0  0  0
  2  1  1  0  0  0  0
  5  4  3  0  0  0  0
  6  9  1  0  0  0  0
  7  6  1  0  0  0  0
  8  6  1  0  0  0  0
M  RAD  1   1   2
M  END
