Coordinates from ORCA-job C2H5-N2+-scan-d09-169-n800
 OpenBabel09191813583D

  9  7  0  0  0  0  0  0  0  0999 V2000
    0.3147    0.7299    1.2340 C   0  0  0  0  0  0  0  0  0  0  0  0
    1.0838    0.5153    0.4917 H   0  0  0  0  0  0  0  0  0  0  0  0
   -0.4463   -0.0267    1.4267 H   0  0  0  0  0  0  0  0  0  0  0  0
    0.2959   -5.0502   -2.1289 N   0  0  0  0  0  0  0  0  0  0  0  0
    0.3085   -6.0185   -2.6621 N   0  0  0  0  0  0  0  0  0  0  0  0
    0.3189    1.9240    1.9331 C   0  0  0  0  0  0  0  0  0  0  0  0
    1.0928    2.6711    1.7557 H   0  0  0  0  0  0  0  0  0  0  0  0
   -0.3324    1.7958    0.7929 H   0  0  0  0  0  0  0  0  0  0  0  0
   -0.4376    2.1290    2.6909 H   0  0  0  0  0  0  0  0  0  0  0  0
  1  3  1  0  0  0  0
  1  6  1  0  0  0  0
  2  1  1  0  0  0  0
  5  4  3  0  0  0  0
  6  9  1  0  0  0  0
  7  6  1  0  0  0  0
  8  6  1  0  0  0  0
M  RAD  1   1   2
M  END
