Coordinates from ORCA-job C2H5-N2+-scan-d09-169-n800
 OpenBabel09191813583D

  9  8  0  0  0  0  0  0  0  0999 V2000
   -0.0443   -0.2872    0.0627 C   0  0  0  0  0  0  0  0  0  0  0  0
    0.2822    0.2726   -0.8375 H   0  0  0  0  0  0  0  0  0  0  0  0
   -1.1519   -0.2334    0.0396 H   0  0  0  0  0  0  0  0  0  0  0  0
    0.3243   -1.3661    0.0430 N   0  0  0  0  0  0  0  0  0  0  0  0
    0.7003   -2.4176    0.0510 N   0  0  0  0  0  0  0  0  0  0  0  0
    0.4479    0.5360    1.3423 C   0  0  0  0  0  0  0  0  0  0  0  0
    1.5383    0.5723    1.3461 H   0  0  0  0  0  0  0  0  0  0  0  0
    0.0326    1.5390    1.2421 H   0  0  0  0  0  0  0  0  0  0  0  0
    0.0691    0.0539    2.2447 H   0  0  0  0  0  0  0  0  0  0  0  0
  1  6  1  0  0  0  0
  2  1  1  0  0  0  0
  3  1  1  0  0  0  0
  4  5  1  0  0  0  0
  4  1  1  0  0  0  0
  6  7  1  0  0  0  0
  6  9  1  0  0  0  0
  8  6  1  0  0  0  0
M  RAD  2   4   2   5   3
M  END
