Coordinates from ORCA-job C2H5-N2+-scan-d09-169-n800
 OpenBabel09191813583D

  9  7  0  0  0  0  0  0  0  0999 V2000
    0.3039    0.4608    1.0618 C   0  0  0  0  0  0  0  0  0  0  0  0
    1.0631    0.2521    0.3077 H   0  0  0  0  0  0  0  0  0  0  0  0
   -0.4666   -0.2891    1.2426 H   0  0  0  0  0  0  0  0  0  0  0  0
    0.2934   -4.0935   -1.5809 N   0  0  0  0  0  0  0  0  0  0  0  0
    0.3081   -5.0622   -2.1130 N   0  0  0  0  0  0  0  0  0  0  0  0
    0.3305    1.6387    1.7873 C   0  0  0  0  0  0  0  0  0  0  0  0
    1.1140    2.3783    1.6209 H   0  0  0  0  0  0  0  0  0  0  0  0
   -0.3315    1.5478    0.6515 H   0  0  0  0  0  0  0  0  0  0  0  0
   -0.4164    1.8368    2.5562 H   0  0  0  0  0  0  0  0  0  0  0  0
  1  3  1  0  0  0  0
  1  6  1  0  0  0  0
  2  1  1  0  0  0  0
  5  4  3  0  0  0  0
  6  9  1  0  0  0  0
  7  6  1  0  0  0  0
  8  6  1  0  0  0  0
M  RAD  1   1   2
M  END
