Coordinates from ORCA-job C2H5-N2+-scan-d09-169-n800
 OpenBabel09191813583D

  9  7  0  0  0  0  0  0  0  0999 V2000
    0.2989    2.3710    2.1565 C   0  0  0  0  0  0  0  0  0  0  0  0
    1.0684    2.1546    1.4152 H   0  0  0  0  0  0  0  0  0  0  0  0
   -0.4617    1.6148    2.3520 H   0  0  0  0  0  0  0  0  0  0  0  0
    0.3740  -10.8131   -5.3224 N   0  0  0  0  0  0  0  0  0  0  0  0
    0.3406  -11.7462   -5.9143 N   0  0  0  0  0  0  0  0  0  0  0  0
    0.3033    3.5668    2.8528 C   0  0  0  0  0  0  0  0  0  0  0  0
    1.0767    4.3139    2.6728 H   0  0  0  0  0  0  0  0  0  0  0  0
   -0.3483    3.4339    1.7118 H   0  0  0  0  0  0  0  0  0  0  0  0
   -0.4535    3.7740    3.6097 H   0  0  0  0  0  0  0  0  0  0  0  0
  1  3  1  0  0  0  0
  1  6  1  0  0  0  0
  2  1  1  0  0  0  0
  5  4  3  0  0  0  0
  6  9  1  0  0  0  0
  7  6  1  0  0  0  0
  8  6  1  0  0  0  0
M  RAD  1   1   2
M  END
