Coordinates from ORCA-job C2H5-N2+-scan-d09-169-n800
 OpenBabel09191813583D

  9  7  0  0  0  0  0  0  0  0999 V2000
    0.2810    0.1633    0.8546 C   0  0  0  0  0  0  0  0  0  0  0  0
    1.0187   -0.0355    0.0770 H   0  0  0  0  0  0  0  0  0  0  0  0
   -0.5069   -0.5737    1.0099 H   0  0  0  0  0  0  0  0  0  0  0  0
    0.2968   -3.0207   -0.9572 N   0  0  0  0  0  0  0  0  0  0  0  0
    0.3187   -3.9933   -1.4815 N   0  0  0  0  0  0  0  0  0  0  0  0
    0.3485    1.3096    1.6262 C   0  0  0  0  0  0  0  0  0  0  0  0
    1.1513    2.0327    1.4813 H   0  0  0  0  0  0  0  0  0  0  0  0
   -0.3307    1.2944    0.5067 H   0  0  0  0  0  0  0  0  0  0  0  0
   -0.3790    1.4928    2.4170 H   0  0  0  0  0  0  0  0  0  0  0  0
  1  3  1  0  0  0  0
  1  6  1  0  0  0  0
  2  1  1  0  0  0  0
  5  4  3  0  0  0  0
  6  9  1  0  0  0  0
  7  6  1  0  0  0  0
  8  6  1  0  0  0  0
M  RAD  1   1   2
M  END
