Coordinates from ORCA-job C2H5-N2+-scan-d09-169-n800
 OpenBabel09191813583D

  9  7  0  0  0  0  0  0  0  0999 V2000
   -0.1521    0.1695    0.1499 C   0  0  0  0  0  0  0  0  0  0  0  0
    0.3250    0.3682   -0.8101 H   0  0  0  0  0  0  0  0  0  0  0  0
   -1.1889   -0.1660    0.1158 H   0  0  0  0  0  0  0  0  0  0  0  0
    0.4722   -1.9925   -0.0767 N   0  0  0  0  0  0  0  0  0  0  0  0
    0.7792   -3.0480   -0.1836 N   0  0  0  0  0  0  0  0  0  0  0  0
    0.4252    0.6511    1.3716 C   0  0  0  0  0  0  0  0  0  0  0  0
    1.5118    0.7591    1.3702 H   0  0  0  0  0  0  0  0  0  0  0  0
    0.0164    1.6993    1.3079 H   0  0  0  0  0  0  0  0  0  0  0  0
    0.0096    0.2291    2.2890 H   0  0  0  0  0  0  0  0  0  0  0  0
  1  6  1  0  0  0  0
  2  1  1  0  0  0  0
  3  1  1  0  0  0  0
  5  4  3  0  0  0  0
  6  9  1  0  0  0  0
  7  6  1  0  0  0  0
  8  6  1  0  0  0  0
M  RAD  1   1   2
M  END
