Coordinates from ORCA-job C2H5-N2+-scan-d09-169-n800
 OpenBabel09191813583D

  9  7  0  0  0  0  0  0  0  0999 V2000
    0.3236    1.3982    1.6333 C   0  0  0  0  0  0  0  0  0  0  0  0
    1.1037    1.1771    0.9045 H   0  0  0  0  0  0  0  0  0  0  0  0
   -0.4265    0.6344    1.8395 H   0  0  0  0  0  0  0  0  0  0  0  0
    0.3117   -7.4043   -3.4634 N   0  0  0  0  0  0  0  0  0  0  0  0
    0.3223   -8.3741   -3.9938 N   0  0  0  0  0  0  0  0  0  0  0  0
    0.3016    2.6102    2.3007 C   0  0  0  0  0  0  0  0  0  0  0  0
    1.0645    3.3654    2.1103 H   0  0  0  0  0  0  0  0  0  0  0  0
   -0.3366    2.4400    1.1575 H   0  0  0  0  0  0  0  0  0  0  0  0
   -0.4658    2.8227    3.0454 H   0  0  0  0  0  0  0  0  0  0  0  0
  1  3  1  0  0  0  0
  1  6  1  0  0  0  0
  2  1  1  0  0  0  0
  5  4  3  0  0  0  0
  6  9  1  0  0  0  0
  7  6  1  0  0  0  0
  8  6  1  0  0  0  0
M  RAD  1   1   2
M  END
