Coordinates from ORCA-job C2H5-N2+-scan-d09-169-n800
 OpenBabel09191813583D

  9  7  0  0  0  0  0  0  0  0999 V2000
    0.3091    1.7686    1.8222 C   0  0  0  0  0  0  0  0  0  0  0  0
    1.0816    1.5534    1.0836 H   0  0  0  0  0  0  0  0  0  0  0  0
   -0.4487    1.0096    2.0178 H   0  0  0  0  0  0  0  0  0  0  0  0
    0.3385   -8.6885   -4.1734 N   0  0  0  0  0  0  0  0  0  0  0  0
    0.3295   -9.6563   -4.7075 N   0  0  0  0  0  0  0  0  0  0  0  0
    0.3063    2.9665    2.5149 C   0  0  0  0  0  0  0  0  0  0  0  0
    1.0769    3.7164    2.3348 H   0  0  0  0  0  0  0  0  0  0  0  0
   -0.3416    2.8274    1.3726 H   0  0  0  0  0  0  0  0  0  0  0  0
   -0.4534    3.1726    3.2691 H   0  0  0  0  0  0  0  0  0  0  0  0
  1  3  1  0  0  0  0
  1  6  1  0  0  0  0
  2  1  1  0  0  0  0
  5  4  3  0  0  0  0
  6  9  1  0  0  0  0
  7  6  1  0  0  0  0
  8  6  1  0  0  0  0
M  RAD  1   1   2
M  END
