Coordinates from ORCA-job C2H5-N2+-scan-d09-169-n800
 OpenBabel09191813583D

  9  7  0  0  0  0  0  0  0  0999 V2000
    0.2988    2.3749    2.1586 C   0  0  0  0  0  0  0  0  0  0  0  0
    1.0684    2.1585    1.4173 H   0  0  0  0  0  0  0  0  0  0  0  0
   -0.4618    1.6187    2.3541 H   0  0  0  0  0  0  0  0  0  0  0  0
    0.3741  -10.8266   -5.3301 N   0  0  0  0  0  0  0  0  0  0  0  0
    0.3408  -11.7599   -5.9218 N   0  0  0  0  0  0  0  0  0  0  0  0
    0.3033    3.5707    2.8550 C   0  0  0  0  0  0  0  0  0  0  0  0
    1.0767    4.3177    2.6751 H   0  0  0  0  0  0  0  0  0  0  0  0
   -0.3484    3.4378    1.7140 H   0  0  0  0  0  0  0  0  0  0  0  0
   -0.4535    3.7778    3.6119 H   0  0  0  0  0  0  0  0  0  0  0  0
  1  3  1  0  0  0  0
  1  6  1  0  0  0  0
  2  1  1  0  0  0  0
  5  4  3  0  0  0  0
  6  9  1  0  0  0  0
  7  6  1  0  0  0  0
  8  6  1  0  0  0  0
M  RAD  1   1   2
M  END
