Coordinates from ORCA-job C2H5-N2+-scan-d09-169-n800
 OpenBabel09191813583D

  9  7  0  0  0  0  0  0  0  0999 V2000
    0.3239    1.4909    1.6872 C   0  0  0  0  0  0  0  0  0  0  0  0
    1.1048    1.2692    0.9594 H   0  0  0  0  0  0  0  0  0  0  0  0
   -0.4254    0.7265    1.8944 H   0  0  0  0  0  0  0  0  0  0  0  0
    0.3144   -7.7295   -3.6471 N   0  0  0  0  0  0  0  0  0  0  0  0
    0.3246   -8.6996   -4.1770 N   0  0  0  0  0  0  0  0  0  0  0  0
    0.2998    2.7042    2.3520 C   0  0  0  0  0  0  0  0  0  0  0  0
    1.0619    3.4599    2.1607 H   0  0  0  0  0  0  0  0  0  0  0  0
   -0.3373    2.5307    1.2087 H   0  0  0  0  0  0  0  0  0  0  0  0
   -0.4684    2.9172    3.0957 H   0  0  0  0  0  0  0  0  0  0  0  0
  1  3  1  0  0  0  0
  1  6  1  0  0  0  0
  2  1  1  0  0  0  0
  5  4  3  0  0  0  0
  6  9  1  0  0  0  0
  7  6  1  0  0  0  0
  8  6  1  0  0  0  0
M  RAD  1   1   2
M  END
