Coordinates from ORCA-job C2H5-N2+-scan-d09-169-n800
 OpenBabel09191813583D

  9  7  0  0  0  0  0  0  0  0999 V2000
    0.2861    0.2225    0.8968 C   0  0  0  0  0  0  0  0  0  0  0  0
    1.0291    0.0215    0.1247 H   0  0  0  0  0  0  0  0  0  0  0  0
   -0.4981   -0.5173    1.0585 H   0  0  0  0  0  0  0  0  0  0  0  0
    0.2959   -3.2350   -1.0822 N   0  0  0  0  0  0  0  0  0  0  0  0
    0.3157   -4.2064   -1.6091 N   0  0  0  0  0  0  0  0  0  0  0  0
    0.3449    1.3759    1.6586 C   0  0  0  0  0  0  0  0  0  0  0  0
    1.1432    2.1029    1.5085 H   0  0  0  0  0  0  0  0  0  0  0  0
   -0.3310    1.3425    0.5339 H   0  0  0  0  0  0  0  0  0  0  0  0
   -0.3873    1.5629    2.4443 H   0  0  0  0  0  0  0  0  0  0  0  0
  1  3  1  0  0  0  0
  1  6  1  0  0  0  0
  2  1  1  0  0  0  0
  5  4  3  0  0  0  0
  6  9  1  0  0  0  0
  7  6  1  0  0  0  0
  8  6  1  0  0  0  0
M  RAD  1   1   2
M  END
