Coordinates from ORCA-job C2H5-N2+-scan-d09-169-n800
 OpenBabel09191813583D

  9  7  0  0  0  0  0  0  0  0999 V2000
    0.2956    0.3335    0.9757 C   0  0  0  0  0  0  0  0  0  0  0  0
    1.0475    0.1285    0.2133 H   0  0  0  0  0  0  0  0  0  0  0  0
   -0.4814   -0.4116    1.1480 H   0  0  0  0  0  0  0  0  0  0  0  0
    0.2940   -3.6368   -1.3167 N   0  0  0  0  0  0  0  0  0  0  0  0
    0.3107   -4.6064   -1.8471 N   0  0  0  0  0  0  0  0  0  0  0  0
    0.3377    1.5000    1.7186 C   0  0  0  0  0  0  0  0  0  0  0  0
    1.1280    2.2338    1.5597 H   0  0  0  0  0  0  0  0  0  0  0  0
   -0.3312    1.4355    0.5872 H   0  0  0  0  0  0  0  0  0  0  0  0
   -0.4024    1.6932    2.4954 H   0  0  0  0  0  0  0  0  0  0  0  0
  1  3  1  0  0  0  0
  1  6  1  0  0  0  0
  2  1  1  0  0  0  0
  5  4  3  0  0  0  0
  6  9  1  0  0  0  0
  7  6  1  0  0  0  0
  8  6  1  0  0  0  0
M  RAD  1   1   2
M  END
