Coordinates from ORCA-job C2H5-N2+-scan-d09-169-n800
 OpenBabel09191813583D

  9  7  0  0  0  0  0  0  0  0999 V2000
    0.2964    0.3447    0.9834 C   0  0  0  0  0  0  0  0  0  0  0  0
    1.0491    0.1393    0.2219 H   0  0  0  0  0  0  0  0  0  0  0  0
   -0.4799   -0.4009    1.1566 H   0  0  0  0  0  0  0  0  0  0  0  0
    0.2939   -3.6771   -1.3401 N   0  0  0  0  0  0  0  0  0  0  0  0
    0.3104   -4.6466   -1.8707 N   0  0  0  0  0  0  0  0  0  0  0  0
    0.3370    1.5123    1.7246 C   0  0  0  0  0  0  0  0  0  0  0  0
    1.1267    2.2467    1.5650 H   0  0  0  0  0  0  0  0  0  0  0  0
   -0.3313    1.4451    0.5927 H   0  0  0  0  0  0  0  0  0  0  0  0
   -0.4038    1.7060    2.5006 H   0  0  0  0  0  0  0  0  0  0  0  0
  1  3  1  0  0  0  0
  1  6  1  0  0  0  0
  2  1  1  0  0  0  0
  5  4  3  0  0  0  0
  6  9  1  0  0  0  0
  7  6  1  0  0  0  0
  8  6  1  0  0  0  0
M  RAD  1   1   2
M  END
