Coordinates from ORCA-job C2H5-N2+-scan-d09-169-n800
 OpenBabel09191813583D

  9  7  0  0  0  0  0  0  0  0999 V2000
    0.3067    1.9049    1.8971 C   0  0  0  0  0  0  0  0  0  0  0  0
    1.0785    1.6899    1.1578 H   0  0  0  0  0  0  0  0  0  0  0  0
   -0.4517    1.1464    2.0922 H   0  0  0  0  0  0  0  0  0  0  0  0
    0.3483   -9.1669   -4.4353 N   0  0  0  0  0  0  0  0  0  0  0  0
    0.3304  -10.1301   -4.9775 N   0  0  0  0  0  0  0  0  0  0  0  0
    0.3057    3.1018    2.5916 C   0  0  0  0  0  0  0  0  0  0  0  0
    1.0770    3.8511    2.4121 H   0  0  0  0  0  0  0  0  0  0  0  0
   -0.3431    2.9650    1.4495 H   0  0  0  0  0  0  0  0  0  0  0  0
   -0.4534    3.3076    3.3466 H   0  0  0  0  0  0  0  0  0  0  0  0
  1  3  1  0  0  0  0
  1  6  1  0  0  0  0
  2  1  1  0  0  0  0
  5  4  3  0  0  0  0
  6  9  1  0  0  0  0
  7  6  1  0  0  0  0
  8  6  1  0  0  0  0
M  RAD  1   1   2
M  END
