Coordinates from ORCA-job C2H5-N2+-scan-d09-169-n800
 OpenBabel09191813583D

  9  7  0  0  0  0  0  0  0  0999 V2000
    0.2952    2.6588    2.3159 C   0  0  0  0  0  0  0  0  0  0  0  0
    1.0641    2.4431    1.5738 H   0  0  0  0  0  0  0  0  0  0  0  0
   -0.4660    1.9029    2.5104 H   0  0  0  0  0  0  0  0  0  0  0  0
    0.3860  -11.8204   -5.8831 N   0  0  0  0  0  0  0  0  0  0  0  0
    0.3497  -12.7509   -6.4788 N   0  0  0  0  0  0  0  0  0  0  0  0
    0.3010    3.8533    3.0145 C   0  0  0  0  0  0  0  0  0  0  0  0
    1.0750    4.6000    2.8355 H   0  0  0  0  0  0  0  0  0  0  0  0
   -0.3514    3.7231    1.8736 H   0  0  0  0  0  0  0  0  0  0  0  0
   -0.4552    4.0597    3.7722 H   0  0  0  0  0  0  0  0  0  0  0  0
  1  3  1  0  0  0  0
  1  6  1  0  0  0  0
  2  1  1  0  0  0  0
  5  4  3  0  0  0  0
  6  9  1  0  0  0  0
  7  6  1  0  0  0  0
  8  6  1  0  0  0  0
M  RAD  1   1   2
M  END
