Coordinates from ORCA-job C2H5-N2+-scan-d09-169-n800
 OpenBabel09191813583D

  9  7  0  0  0  0  0  0  0  0999 V2000
    0.2955    2.6393    2.3052 C   0  0  0  0  0  0  0  0  0  0  0  0
    1.0646    2.4236    1.5632 H   0  0  0  0  0  0  0  0  0  0  0  0
   -0.4656    1.8833    2.4998 H   0  0  0  0  0  0  0  0  0  0  0  0
    0.3853  -11.7522   -5.8455 N   0  0  0  0  0  0  0  0  0  0  0  0
    0.3489  -12.6831   -6.4405 N   0  0  0  0  0  0  0  0  0  0  0  0
    0.3011    3.8340    3.0035 C   0  0  0  0  0  0  0  0  0  0  0  0
    1.0750    4.5808    2.8245 H   0  0  0  0  0  0  0  0  0  0  0  0
   -0.3511    3.7034    1.8626 H   0  0  0  0  0  0  0  0  0  0  0  0
   -0.4552    4.0405    3.7611 H   0  0  0  0  0  0  0  0  0  0  0  0
  1  3  1  0  0  0  0
  1  6  1  0  0  0  0
  2  1  1  0  0  0  0
  5  4  3  0  0  0  0
  6  9  1  0  0  0  0
  7  6  1  0  0  0  0
  8  6  1  0  0  0  0
M  RAD  1   1   2
M  END
