Coordinates from ORCA-job 4-HOOC-C6H3-N2-B3LYPG-aug-cc-pVDZ-scan-d09-49-n400
 OpenBabel11081810443D

 15 15  0  0  0  0  0  0  0  0999 V2000
   -1.4129   -1.4771   -1.0599 C   0  0  0  0  0  0  0  0  0  0  0  0
    0.0055   -1.3087   -1.1183 C   0  0  0  0  0  0  0  0  0  0  0  0
    0.3227    0.0456   -0.8921 C   0  0  0  0  0  0  0  0  0  0  0  0
   -0.5207    1.1654   -0.6357 C   0  0  0  0  0  0  0  0  0  0  0  0
   -1.8696    0.8965   -0.6001 C   0  0  0  0  0  0  0  0  0  0  0  0
   -2.3154   -0.4389   -0.8147 C   0  0  0  0  0  0  0  0  0  0  0  0
   -1.8350   -2.4722   -1.2140 H   0  0  0  0  0  0  0  0  0  0  0  0
   -0.1264    2.1699   -0.4779 H   0  0  0  0  0  0  0  0  0  0  0  0
   -2.5875    1.6901   -0.4109 H   0  0  0  0  0  0  0  0  0  0  0  0
    1.6719    0.2866   -0.9332 N   0  0  0  0  0  0  0  0  0  0  0  0
    2.7787    0.4326   -0.9763 N   0  0  0  0  0  0  0  0  0  0  0  0
   -3.7782   -0.7614   -0.7811 C   0  0  0  0  0  0  0  0  0  0  0  0
   -4.2528   -1.8620   -0.9583 O   0  0  0  0  0  0  0  0  0  0  0  0
   -4.5569    0.3303   -0.5429 O   0  0  0  0  0  0  0  0  0  0  0  0
   -5.4757    0.0172   -0.5478 H   0  0  0  0  0  0  0  0  0  0  0  0
  1  6  1  0  0  0  0
  2  1  2  0  0  0  0
  2  3  1  0  0  0  0
  3  4  2  0  0  0  0
  4  5  1  0  0  0  0
  4  8  1  0  0  0  0
  5  9  1  0  0  0  0
  6 12  1  0  0  0  0
  6  5  2  0  0  0  0
  7  1  1  0  0  0  0
 10  3  1  0  0  0  0
 11 10  1  0  0  0  0
 12 14  1  0  0  0  0
 13 12  2  0  0  0  0
 15 14  1  0  0  0  0
M  RAD  3   2   2  10   2  11   3
M  END
