Coordinates from ORCA-job 4-HOOC-C6H3-N2-B3LYPG-aug-cc-pVDZ-scan-d09-49-n400
 OpenBabel11091809033D

 15 14  0  0  0  0  0  0  0  0999 V2000
   -1.5456   -1.5651   -1.0685 C   0  0  0  0  0  0  0  0  0  0  0  0
   -0.2114   -1.1777   -1.0805 C   0  0  0  0  0  0  0  0  0  0  0  0
    0.1665    0.0045   -0.8893 C   0  0  0  0  0  0  0  0  0  0  0  0
   -0.5588    1.1499   -0.6367 C   0  0  0  0  0  0  0  0  0  0  0  0
   -1.9357    0.8408   -0.6078 C   0  0  0  0  0  0  0  0  0  0  0  0
   -2.4196   -0.4733   -0.8163 C   0  0  0  0  0  0  0  0  0  0  0  0
   -1.9399   -2.5668   -1.2258 H   0  0  0  0  0  0  0  0  0  0  0  0
   -0.1727    2.1546   -0.4782 H   0  0  0  0  0  0  0  0  0  0  0  0
   -2.6496    1.6408   -0.4185 H   0  0  0  0  0  0  0  0  0  0  0  0
    2.4060    0.7605   -0.8906 N   0  0  0  0  0  0  0  0  0  0  0  0
    3.3747    0.2503   -1.0442 N   0  0  0  0  0  0  0  0  0  0  0  0
   -3.8801   -0.7725   -0.7802 C   0  0  0  0  0  0  0  0  0  0  0  0
   -4.3673   -1.8709   -0.9517 O   0  0  0  0  0  0  0  0  0  0  0  0
   -4.6495    0.3239   -0.5368 O   0  0  0  0  0  0  0  0  0  0  0  0
   -5.5696    0.0148   -0.5379 H   0  0  0  0  0  0  0  0  0  0  0  0
  1  6  1  0  0  0  0
  2  1  2  0  0  0  0
  2  3  1  0  0  0  0
  3  4  2  0  0  0  0
  4  5  1  0  0  0  0
  4  8  1  0  0  0  0
  5  9  1  0  0  0  0
  6 12  1  0  0  0  0
  6  5  2  0  0  0  0
  7  1  1  0  0  0  0
 11 10  3  0  0  0  0
 12 14  1  0  0  0  0
 13 12  2  0  0  0  0
 15 14  1  0  0  0  0
M  RAD  2   2   2   3   2
M  END
