Coordinates from ORCA-job 4-HOOC-C6H3-N2-B3LYPG-aug-cc-pVDZ-scan-d09-49-n400
 OpenBabel11091809033D

 15 14  0  0  0  0  0  0  0  0999 V2000
   -1.4782   -1.5170   -1.0646 C   0  0  0  0  0  0  0  0  0  0  0  0
   -0.1306   -1.1474   -1.0794 C   0  0  0  0  0  0  0  0  0  0  0  0
    0.1932    0.0605   -0.8803 C   0  0  0  0  0  0  0  0  0  0  0  0
   -0.5517    1.1925   -0.6297 C   0  0  0  0  0  0  0  0  0  0  0  0
   -1.9214    0.8725   -0.6046 C   0  0  0  0  0  0  0  0  0  0  0  0
   -2.3781   -0.4508   -0.8169 C   0  0  0  0  0  0  0  0  0  0  0  0
   -1.8597   -2.5244   -1.2241 H   0  0  0  0  0  0  0  0  0  0  0  0
   -0.1680    2.1990   -0.4706 H   0  0  0  0  0  0  0  0  0  0  0  0
   -2.6465    1.6623   -0.4175 H   0  0  0  0  0  0  0  0  0  0  0  0
    2.1493    0.6133   -0.8992 N   0  0  0  0  0  0  0  0  0  0  0  0
    3.1339    0.1268   -1.0509 N   0  0  0  0  0  0  0  0  0  0  0  0
   -3.8335   -0.7762   -0.7878 C   0  0  0  0  0  0  0  0  0  0  0  0
   -4.3015   -1.8831   -0.9567 O   0  0  0  0  0  0  0  0  0  0  0  0
   -4.6226    0.3059   -0.5399 O   0  0  0  0  0  0  0  0  0  0  0  0
   -5.5369   -0.0199   -0.5410 H   0  0  0  0  0  0  0  0  0  0  0  0
  1  6  1  0  0  0  0
  2  1  2  0  0  0  0
  2  3  1  0  0  0  0
  3  4  2  0  0  0  0
  4  5  1  0  0  0  0
  4  8  1  0  0  0  0
  5  9  1  0  0  0  0
  6 12  1  0  0  0  0
  6  5  2  0  0  0  0
  7  1  1  0  0  0  0
 11 10  3  0  0  0  0
 12 14  1  0  0  0  0
 13 12  2  0  0  0  0
 15 14  1  0  0  0  0
M  RAD  2   2   2   3   2
M  END
