Coordinates from ORCA-job 4-HOOC-C6H3-N2-B3LYPG-aug-cc-pVDZ-scan-d09-49-n400
 OpenBabel11091809033D

 15 14  0  0  0  0  0  0  0  0999 V2000
   -1.7976   -1.7451   -1.0855 C   0  0  0  0  0  0  0  0  0  0  0  0
   -0.4482   -1.4540   -1.1160 C   0  0  0  0  0  0  0  0  0  0  0  0
    0.0952   -0.3375   -0.9469 C   0  0  0  0  0  0  0  0  0  0  0  0
   -0.5370    0.8706   -0.6885 C   0  0  0  0  0  0  0  0  0  0  0  0
   -1.9367    0.6931   -0.6341 C   0  0  0  0  0  0  0  0  0  0  0  0
   -2.5524   -0.5671   -0.8248 C   0  0  0  0  0  0  0  0  0  0  0  0
   -2.2848   -2.7061   -1.2298 H   0  0  0  0  0  0  0  0  0  0  0  0
   -0.0634    1.8386   -0.5419 H   0  0  0  0  0  0  0  0  0  0  0  0
   -2.5671    1.5590   -0.4378 H   0  0  0  0  0  0  0  0  0  0  0  0
    3.0922    1.4772   -0.8033 N   0  0  0  0  0  0  0  0  0  0  0  0
    4.0319    0.9196   -0.9636 N   0  0  0  0  0  0  0  0  0  0  0  0
   -4.0340   -0.7250   -0.7615 C   0  0  0  0  0  0  0  0  0  0  0  0
   -4.6257   -1.7730   -0.9188 O   0  0  0  0  0  0  0  0  0  0  0  0
   -4.6896    0.4410   -0.5134 O   0  0  0  0  0  0  0  0  0  0  0  0
   -5.6353    0.2226   -0.4973 H   0  0  0  0  0  0  0  0  0  0  0  0
  1  6  1  0  0  0  0
  2  1  2  0  0  0  0
  2  3  1  0  0  0  0
  3  4  2  0  0  0  0
  4  5  1  0  0  0  0
  4  8  1  0  0  0  0
  5  9  1  0  0  0  0
  6 12  1  0  0  0  0
  6  5  2  0  0  0  0
  7  1  1  0  0  0  0
 11 10  3  0  0  0  0
 12 14  1  0  0  0  0
 13 12  2  0  0  0  0
 14 15  1  0  0  0  0
M  RAD  2   2   2   3   2
M  END
