Coordinates from ORCA-job 4-HOOC-C6H3-N2-B3LYPG-aug-cc-pVDZ-scan-d09-49-n400
 OpenBabel11091809033D

 15 15  0  0  0  0  0  0  0  0999 V2000
   -1.4170   -1.4701   -1.0599 C   0  0  0  0  0  0  0  0  0  0  0  0
   -0.0076   -1.2597   -1.1082 C   0  0  0  0  0  0  0  0  0  0  0  0
    0.2602    0.0535   -0.8864 C   0  0  0  0  0  0  0  0  0  0  0  0
   -0.5358    1.1812   -0.6330 C   0  0  0  0  0  0  0  0  0  0  0  0
   -1.8923    0.9013   -0.6006 C   0  0  0  0  0  0  0  0  0  0  0  0
   -2.3298   -0.4327   -0.8157 C   0  0  0  0  0  0  0  0  0  0  0  0
   -1.8275   -2.4695   -1.2160 H   0  0  0  0  0  0  0  0  0  0  0  0
   -0.1368    2.1834   -0.4757 H   0  0  0  0  0  0  0  0  0  0  0  0
   -2.6138    1.6920   -0.4129 H   0  0  0  0  0  0  0  0  0  0  0  0
    1.7749    0.3370   -0.9278 N   0  0  0  0  0  0  0  0  0  0  0  0
    2.8849    0.3247   -0.9981 N   0  0  0  0  0  0  0  0  0  0  0  0
   -3.7876   -0.7657   -0.7867 C   0  0  0  0  0  0  0  0  0  0  0  0
   -4.2547   -1.8712   -0.9580 O   0  0  0  0  0  0  0  0  0  0  0  0
   -4.5774    0.3174   -0.5409 O   0  0  0  0  0  0  0  0  0  0  0  0
   -5.4920   -0.0076   -0.5432 H   0  0  0  0  0  0  0  0  0  0  0  0
  1  6  1  0  0  0  0
  2  1  2  0  0  0  0
  2  3  1  0  0  0  0
  3  4  2  0  0  0  0
  4  5  1  0  0  0  0
  4  8  1  0  0  0  0
  5  9  1  0  0  0  0
  6 12  1  0  0  0  0
  6  5  2  0  0  0  0
  7  1  1  0  0  0  0
 10  3  1  0  0  0  0
 11 10  1  0  0  0  0
 12 14  1  0  0  0  0
 13 12  2  0  0  0  0
 15 14  1  0  0  0  0
M  RAD  3   2   2  10   2  11   3
M  END
