Coordinates from ORCA-job 4-HOOC-C6H3-N2-B3LYPG-aug-cc-pVDZ-scan-d09-49-n400
 OpenBabel11091809033D

 15 14  0  0  0  0  0  0  0  0999 V2000
   -1.9401   -1.8527   -1.0964 C   0  0  0  0  0  0  0  0  0  0  0  0
   -0.5739   -1.6580   -1.1444 C   0  0  0  0  0  0  0  0  0  0  0  0
    0.0480   -0.5815   -0.9875 C   0  0  0  0  0  0  0  0  0  0  0  0
   -0.4924    0.6704   -0.7280 C   0  0  0  0  0  0  0  0  0  0  0  0
   -1.9007    0.5911   -0.6566 C   0  0  0  0  0  0  0  0  0  0  0  0
   -2.6064   -0.6230   -0.8334 C   0  0  0  0  0  0  0  0  0  0  0  0
   -2.4957   -2.7774   -1.2299 H   0  0  0  0  0  0  0  0  0  0  0  0
    0.0461    1.6056   -0.5917 H   0  0  0  0  0  0  0  0  0  0  0  0
   -2.4663    1.5002   -0.4577 H   0  0  0  0  0  0  0  0  0  0  0  0
    3.2731    1.8362   -0.7481 N   0  0  0  0  0  0  0  0  0  0  0  0
    4.2945    1.4394   -0.8843 N   0  0  0  0  0  0  0  0  0  0  0  0
   -4.0946   -0.6748   -0.7523 C   0  0  0  0  0  0  0  0  0  0  0  0
   -4.7608   -1.6797   -0.8922 O   0  0  0  0  0  0  0  0  0  0  0  0
   -4.6624    0.5348   -0.4965 O   0  0  0  0  0  0  0  0  0  0  0  0
   -5.6208    0.3834   -0.4643 H   0  0  0  0  0  0  0  0  0  0  0  0
  1  6  1  0  0  0  0
  2  1  2  0  0  0  0
  2  3  1  0  0  0  0
  3  4  2  0  0  0  0
  4  5  1  0  0  0  0
  4  8  1  0  0  0  0
  5  9  1  0  0  0  0
  6 12  1  0  0  0  0
  6  5  2  0  0  0  0
  7  1  1  0  0  0  0
 11 10  3  0  0  0  0
 12 14  1  0  0  0  0
 13 12  2  0  0  0  0
 14 15  1  0  0  0  0
M  RAD  2   2   2   3   2
M  END
