Coordinates from ORCA-job 4-HOOC-C6H3-N2-B3LYPG-aug-cc-pVDZ-scan-d09-49-n400
 OpenBabel11091809033D

 15 14  0  0  0  0  0  0  0  0999 V2000
   -1.5121   -1.5401   -1.0668 C   0  0  0  0  0  0  0  0  0  0  0  0
   -0.1748   -1.1528   -1.0781 C   0  0  0  0  0  0  0  0  0  0  0  0
    0.1789    0.0395   -0.8836 C   0  0  0  0  0  0  0  0  0  0  0  0
   -0.5589    1.1769   -0.6323 C   0  0  0  0  0  0  0  0  0  0  0  0
   -1.9316    0.8582   -0.6065 C   0  0  0  0  0  0  0  0  0  0  0  0
   -2.4002   -0.4613   -0.8172 C   0  0  0  0  0  0  0  0  0  0  0  0
   -1.8972   -2.5456   -1.2256 H   0  0  0  0  0  0  0  0  0  0  0  0
   -0.1760    2.1831   -0.4732 H   0  0  0  0  0  0  0  0  0  0  0  0
   -2.6529    1.6517   -0.4187 H   0  0  0  0  0  0  0  0  0  0  0  0
    2.2955    0.6864   -0.8956 N   0  0  0  0  0  0  0  0  0  0  0  0
    3.2616    0.1691   -1.0501 N   0  0  0  0  0  0  0  0  0  0  0  0
   -3.8577   -0.7758   -0.7856 C   0  0  0  0  0  0  0  0  0  0  0  0
   -4.3332   -1.8796   -0.9542 O   0  0  0  0  0  0  0  0  0  0  0  0
   -4.6386    0.3117   -0.5379 O   0  0  0  0  0  0  0  0  0  0  0  0
   -5.5553   -0.0075   -0.5379 H   0  0  0  0  0  0  0  0  0  0  0  0
  1  6  1  0  0  0  0
  2  1  2  0  0  0  0
  2  3  1  0  0  0  0
  3  4  2  0  0  0  0
  4  5  1  0  0  0  0
  4  8  1  0  0  0  0
  5  9  1  0  0  0  0
  6 12  1  0  0  0  0
  6  5  2  0  0  0  0
  7  1  1  0  0  0  0
 11 10  3  0  0  0  0
 12 14  1  0  0  0  0
 13 12  2  0  0  0  0
 15 14  1  0  0  0  0
M  RAD  2   2   2   3   2
M  END
