Coordinates from ORCA-job 4-HOOC-C6H3-N2-B3LYPG-aug-cc-pVDZ-scan-d09-49-n400
 OpenBabel11081810443D

 15 15  0  0  0  0  0  0  0  0999 V2000
   -1.3959   -1.4680   -1.0597 C   0  0  0  0  0  0  0  0  0  0  0  0
    0.0132   -1.3731   -1.1310 C   0  0  0  0  0  0  0  0  0  0  0  0
    0.5030    0.1058   -0.8952 C   0  0  0  0  0  0  0  0  0  0  0  0
   -0.4995    1.1484   -0.6416 C   0  0  0  0  0  0  0  0  0  0  0  0
   -1.8367    0.8894   -0.6067 C   0  0  0  0  0  0  0  0  0  0  0  0
   -2.2996   -0.4353   -0.8187 C   0  0  0  0  0  0  0  0  0  0  0  0
   -1.8141   -2.4665   -1.2131 H   0  0  0  0  0  0  0  0  0  0  0  0
   -0.1015    2.1527   -0.4818 H   0  0  0  0  0  0  0  0  0  0  0  0
   -2.5414    1.6951   -0.4165 H   0  0  0  0  0  0  0  0  0  0  0  0
    1.4279    0.2720   -0.9202 N   0  0  0  0  0  0  0  0  0  0  0  0
    2.5778    0.4445   -0.9547 N   0  0  0  0  0  0  0  0  0  0  0  0
   -3.7647   -0.7566   -0.7878 C   0  0  0  0  0  0  0  0  0  0  0  0
   -4.2294   -1.8608   -0.9591 O   0  0  0  0  0  0  0  0  0  0  0  0
   -4.5343    0.3342   -0.5398 O   0  0  0  0  0  0  0  0  0  0  0  0
   -5.4573    0.0320   -0.5371 H   0  0  0  0  0  0  0  0  0  0  0  0
  1  6  1  0  0  0  0
  2  1  2  0  0  0  0
  2  3  1  0  0  0  0
  3  4  2  0  0  0  0
  4  5  1  0  0  0  0
  4  8  1  0  0  0  0
  5  9  1  0  0  0  0
  6 12  1  0  0  0  0
  6  5  2  0  0  0  0
  7  1  1  0  0  0  0
 10  3  1  0  0  0  0
 11 10  1  0  0  0  0
 12 14  1  0  0  0  0
 13 12  2  0  0  0  0
 14 15  1  0  0  0  0
M  RAD  3   2   2  10   2  11   3
M  END
