Coordinates from ORCA-job 4-HOOC-C6H3-N2-B3LYPG-aug-cc-pVDZ-scan-d09-49-n400
 OpenBabel11091809033D

 15 14  0  0  0  0  0  0  0  0999 V2000
   -2.0920   -1.9638   -1.1072 C   0  0  0  0  0  0  0  0  0  0  0  0
   -0.7159   -1.8829   -1.1776 C   0  0  0  0  0  0  0  0  0  0  0  0
    0.0015   -0.8651   -1.0369 C   0  0  0  0  0  0  0  0  0  0  0  0
   -0.4302    0.4290   -0.7750 C   0  0  0  0  0  0  0  0  0  0  0  0
   -1.8385    0.4691   -0.6805 C   0  0  0  0  0  0  0  0  0  0  0  0
   -2.6476   -0.6812   -0.8395 C   0  0  0  0  0  0  0  0  0  0  0  0
   -2.7252   -2.8392   -1.2271 H   0  0  0  0  0  0  0  0  0  0  0  0
    0.1850    1.3177   -0.6514 H   0  0  0  0  0  0  0  0  0  0  0  0
   -2.3216    1.4236   -0.4771 H   0  0  0  0  0  0  0  0  0  0  0  0
    3.3600    2.2130   -0.6865 N   0  0  0  0  0  0  0  0  0  0  0  0
    4.4429    2.0232   -0.7889 N   0  0  0  0  0  0  0  0  0  0  0  0
   -4.1332   -0.6068   -0.7337 C   0  0  0  0  0  0  0  0  0  0  0  0
   -4.8845   -1.5514   -0.8625 O   0  0  0  0  0  0  0  0  0  0  0  0
   -4.5928    0.6488   -0.4819 O   0  0  0  0  0  0  0  0  0  0  0  0
   -5.5601    0.5799   -0.4374 H   0  0  0  0  0  0  0  0  0  0  0  0
  1  6  1  0  0  0  0
  2  1  2  0  0  0  0
  2  3  1  0  0  0  0
  3  4  2  0  0  0  0
  4  5  1  0  0  0  0
  4  8  1  0  0  0  0
  5  9  1  0  0  0  0
  6 12  1  0  0  0  0
  6  5  2  0  0  0  0
  7  1  1  0  0  0  0
 11 10  3  0  0  0  0
 12 14  1  0  0  0  0
 13 12  2  0  0  0  0
 14 15  1  0  0  0  0
M  RAD  2   2   2   3   2
M  END
