Coordinates from ORCA-job 4-HOOC-C6H3-N2-B3LYPG-aug-cc-pVDZ-scan-d09-49-n400
 OpenBabel11091809033D

 15 14  0  0  0  0  0  0  0  0999 V2000
   -1.7954   -1.7433   -1.0856 C   0  0  0  0  0  0  0  0  0  0  0  0
   -0.4463   -1.4508   -1.1154 C   0  0  0  0  0  0  0  0  0  0  0  0
    0.0960   -0.3338   -0.9462 C   0  0  0  0  0  0  0  0  0  0  0  0
   -0.5377    0.8737   -0.6884 C   0  0  0  0  0  0  0  0  0  0  0  0
   -1.9372    0.6948   -0.6349 C   0  0  0  0  0  0  0  0  0  0  0  0
   -2.5516   -0.5660   -0.8257 C   0  0  0  0  0  0  0  0  0  0  0  0
   -2.2815   -2.7048   -1.2301 H   0  0  0  0  0  0  0  0  0  0  0  0
   -0.0650    1.8422   -0.5418 H   0  0  0  0  0  0  0  0  0  0  0  0
   -2.5686    1.5602   -0.4392 H   0  0  0  0  0  0  0  0  0  0  0  0
    3.0882    1.4695   -0.8036 N   0  0  0  0  0  0  0  0  0  0  0  0
    4.0280    0.9130   -0.9633 N   0  0  0  0  0  0  0  0  0  0  0  0
   -4.0330   -0.7254   -0.7636 C   0  0  0  0  0  0  0  0  0  0  0  0
   -4.6235   -1.7745   -0.9181 O   0  0  0  0  0  0  0  0  0  0  0  0
   -4.6898    0.4395   -0.5126 O   0  0  0  0  0  0  0  0  0  0  0  0
   -5.6351    0.2197   -0.4948 H   0  0  0  0  0  0  0  0  0  0  0  0
  1  6  1  0  0  0  0
  2  1  2  0  0  0  0
  2  3  1  0  0  0  0
  3  4  2  0  0  0  0
  4  5  1  0  0  0  0
  4  8  1  0  0  0  0
  5  9  1  0  0  0  0
  6 12  1  0  0  0  0
  6  5  2  0  0  0  0
  7  1  1  0  0  0  0
 11 10  3  0  0  0  0
 12 14  1  0  0  0  0
 13 12  2  0  0  0  0
 14 15  1  0  0  0  0
M  RAD  2   2   2   3   2
M  END
