Coordinates from ORCA-job 4-HOOC-C6H3-N2-B3LYPG-aug-cc-pVDZ-scan-d09-49-n400
 OpenBabel11091809033D

 15 14  0  0  0  0  0  0  0  0999 V2000
   -1.6789   -1.6576   -1.0774 C   0  0  0  0  0  0  0  0  0  0  0  0
   -0.3431   -1.3031   -1.0951 C   0  0  0  0  0  0  0  0  0  0  0  0
    0.1336   -0.1581   -0.9167 C   0  0  0  0  0  0  0  0  0  0  0  0
   -0.5565    1.0163   -0.6611 C   0  0  0  0  0  0  0  0  0  0  0  0
   -1.9459    0.7687   -0.6207 C   0  0  0  0  0  0  0  0  0  0  0  0
   -2.4952   -0.5205   -0.8209 C   0  0  0  0  0  0  0  0  0  0  0  0
   -2.1163   -2.6413   -1.2290 H   0  0  0  0  0  0  0  0  0  0  0  0
   -0.1309    2.0053   -0.5078 H   0  0  0  0  0  0  0  0  0  0  0  0
   -2.6210    1.6011   -0.4282 H   0  0  0  0  0  0  0  0  0  0  0  0
    2.8045    1.1049   -0.8518 N   0  0  0  0  0  0  0  0  0  0  0  0
    3.7691    0.5909   -1.0065 N   0  0  0  0  0  0  0  0  0  0  0  0
   -3.9675   -0.7527   -0.7725 C   0  0  0  0  0  0  0  0  0  0  0  0
   -4.5045   -1.8290   -0.9353 O   0  0  0  0  0  0  0  0  0  0  0  0
   -4.6831    0.3777   -0.5244 O   0  0  0  0  0  0  0  0  0  0  0  0
   -5.6166    0.1115   -0.5158 H   0  0  0  0  0  0  0  0  0  0  0  0
  1  6  1  0  0  0  0
  2  1  2  0  0  0  0
  2  3  1  0  0  0  0
  3  4  2  0  0  0  0
  4  5  1  0  0  0  0
  4  8  1  0  0  0  0
  5  9  1  0  0  0  0
  6 12  1  0  0  0  0
  6  5  2  0  0  0  0
  7  1  1  0  0  0  0
 11 10  3  0  0  0  0
 12 14  1  0  0  0  0
 13 12  2  0  0  0  0
 14 15  1  0  0  0  0
M  RAD  2   2   2   3   2
M  END
