Coordinates from ORCA-job 4-HOOC-C6H3-N2-B3LYPG-aug-cc-pVDZ-scan-d09-49-n400
 OpenBabel11091809033D

 15 14  0  0  0  0  0  0  0  0999 V2000
   -1.5181   -1.5443   -1.0667 C   0  0  0  0  0  0  0  0  0  0  0  0
   -0.1823   -1.1549   -1.0781 C   0  0  0  0  0  0  0  0  0  0  0  0
    0.1769    0.0349   -0.8844 C   0  0  0  0  0  0  0  0  0  0  0  0
   -0.5599    1.1732   -0.6326 C   0  0  0  0  0  0  0  0  0  0  0  0
   -1.9331    0.8554   -0.6058 C   0  0  0  0  0  0  0  0  0  0  0  0
   -2.4040   -0.4634   -0.8161 C   0  0  0  0  0  0  0  0  0  0  0  0
   -1.9041   -2.5493   -1.2252 H   0  0  0  0  0  0  0  0  0  0  0  0
   -0.1767    2.1793   -0.4736 H   0  0  0  0  0  0  0  0  0  0  0  0
   -2.6534    1.6497   -0.4174 H   0  0  0  0  0  0  0  0  0  0  0  0
    2.3196    0.6995   -0.8958 N   0  0  0  0  0  0  0  0  0  0  0  0
    3.2836    0.1792   -1.0509 N   0  0  0  0  0  0  0  0  0  0  0  0
   -3.8618   -0.7759   -0.7830 C   0  0  0  0  0  0  0  0  0  0  0  0
   -4.3390   -1.8786   -0.9545 O   0  0  0  0  0  0  0  0  0  0  0  0
   -4.6413    0.3133   -0.5386 O   0  0  0  0  0  0  0  0  0  0  0  0
   -5.5586   -0.0042   -0.5404 H   0  0  0  0  0  0  0  0  0  0  0  0
  1  6  1  0  0  0  0
  2  1  2  0  0  0  0
  2  3  1  0  0  0  0
  3  4  2  0  0  0  0
  4  5  1  0  0  0  0
  4  8  1  0  0  0  0
  5  9  1  0  0  0  0
  6 12  1  0  0  0  0
  6  5  2  0  0  0  0
  7  1  1  0  0  0  0
 11 10  3  0  0  0  0
 12 14  1  0  0  0  0
 13 12  2  0  0  0  0
 15 14  1  0  0  0  0
M  RAD  2   2   2   3   2
M  END
