Coordinates from ORCA-job 4-HOOC-C6H3-N2-B3LYPG-aug-cc-pVDZ-scan-d09-49-n400
 OpenBabel11091809033D

 15 15  0  0  0  0  0  0  0  0999 V2000
   -1.4159   -1.4731   -1.0605 C   0  0  0  0  0  0  0  0  0  0  0  0
   -0.0019   -1.2808   -1.1123 C   0  0  0  0  0  0  0  0  0  0  0  0
    0.2816    0.0492   -0.8885 C   0  0  0  0  0  0  0  0  0  0  0  0
   -0.5307    1.1755   -0.6344 C   0  0  0  0  0  0  0  0  0  0  0  0
   -1.8843    0.8999   -0.6013 C   0  0  0  0  0  0  0  0  0  0  0  0
   -2.3244   -0.4349   -0.8164 C   0  0  0  0  0  0  0  0  0  0  0  0
   -1.8323   -2.4703   -1.2158 H   0  0  0  0  0  0  0  0  0  0  0  0
   -0.1336    2.1785   -0.4768 H   0  0  0  0  0  0  0  0  0  0  0  0
   -2.6048    1.6915   -0.4135 H   0  0  0  0  0  0  0  0  0  0  0  0
    1.7390    0.3115   -0.9303 N   0  0  0  0  0  0  0  0  0  0  0  0
    2.8493    0.3735   -0.9872 N   0  0  0  0  0  0  0  0  0  0  0  0
   -3.7843   -0.7634   -0.7865 C   0  0  0  0  0  0  0  0  0  0  0  0
   -4.2546   -1.8673   -0.9573 O   0  0  0  0  0  0  0  0  0  0  0  0
   -4.5697    0.3226   -0.5405 O   0  0  0  0  0  0  0  0  0  0  0  0
   -5.4857    0.0017   -0.5420 H   0  0  0  0  0  0  0  0  0  0  0  0
  1  6  1  0  0  0  0
  2  1  2  0  0  0  0
  2  3  1  0  0  0  0
  3  4  2  0  0  0  0
  4  5  1  0  0  0  0
  4  8  1  0  0  0  0
  5  9  1  0  0  0  0
  6 12  1  0  0  0  0
  6  5  2  0  0  0  0
  7  1  1  0  0  0  0
 10  3  1  0  0  0  0
 11 10  1  0  0  0  0
 12 14  1  0  0  0  0
 13 12  2  0  0  0  0
 15 14  1  0  0  0  0
M  RAD  3   2   2  10   2  11   3
M  END
