Coordinates from ORCA-job 4-HOOC-C6H3-N2-B3LYPG-aug-cc-pVDZ-scan-d09-49-n400
 OpenBabel11081810443D

 15 15  0  0  0  0  0  0  0  0999 V2000
   -1.4108   -1.4777   -1.0616 C   0  0  0  0  0  0  0  0  0  0  0  0
    0.0095   -1.3281   -1.1217 C   0  0  0  0  0  0  0  0  0  0  0  0
    0.3605    0.0468   -0.8941 C   0  0  0  0  0  0  0  0  0  0  0  0
   -0.5142    1.1579   -0.6386 C   0  0  0  0  0  0  0  0  0  0  0  0
   -1.8596    0.8944   -0.6037 C   0  0  0  0  0  0  0  0  0  0  0  0
   -2.3103   -0.4401   -0.8181 C   0  0  0  0  0  0  0  0  0  0  0  0
   -1.8351   -2.4720   -1.2159 H   0  0  0  0  0  0  0  0  0  0  0  0
   -0.1214    2.1634   -0.4803 H   0  0  0  0  0  0  0  0  0  0  0  0
   -2.5745    1.6909   -0.4153 H   0  0  0  0  0  0  0  0  0  0  0  0
    1.6193    0.2813   -0.9285 N   0  0  0  0  0  0  0  0  0  0  0  0
    2.7275    0.4580   -0.9642 N   0  0  0  0  0  0  0  0  0  0  0  0
   -3.7752   -0.7589   -0.7860 C   0  0  0  0  0  0  0  0  0  0  0  0
   -4.2503   -1.8599   -0.9561 O   0  0  0  0  0  0  0  0  0  0  0  0
   -4.5488    0.3336   -0.5399 O   0  0  0  0  0  0  0  0  0  0  0  0
   -5.4691    0.0245   -0.5392 H   0  0  0  0  0  0  0  0  0  0  0  0
  1  6  1  0  0  0  0
  2  1  2  0  0  0  0
  2  3  1  0  0  0  0
  3  4  2  0  0  0  0
  4  5  1  0  0  0  0
  4  8  1  0  0  0  0
  5  9  1  0  0  0  0
  6 12  1  0  0  0  0
  6  5  2  0  0  0  0
  7  1  1  0  0  0  0
 10  3  1  0  0  0  0
 11 10  1  0  0  0  0
 12 14  1  0  0  0  0
 13 12  2  0  0  0  0
 14 15  1  0  0  0  0
M  RAD  3   2   2  10   2  11   3
M  END
