Coordinates from ORCA-job 4-HOOC-C6H3-N2-B3LYPG-aug-cc-pVDZ-scan-d09-49-n400
 OpenBabel11091809033D

 15 14  0  0  0  0  0  0  0  0999 V2000
   -1.9983   -1.8959   -1.1006 C   0  0  0  0  0  0  0  0  0  0  0  0
   -0.6271   -1.7438   -1.1573 C   0  0  0  0  0  0  0  0  0  0  0  0
    0.0300   -0.6875   -1.0063 C   0  0  0  0  0  0  0  0  0  0  0  0
   -0.4703    0.5806   -0.7457 C   0  0  0  0  0  0  0  0  0  0  0  0
   -1.8798    0.5458   -0.6654 C   0  0  0  0  0  0  0  0  0  0  0  0
   -2.6244   -0.6457   -0.8356 C   0  0  0  0  0  0  0  0  0  0  0  0
   -2.5833   -2.8032   -1.2291 H   0  0  0  0  0  0  0  0  0  0  0  0
    0.0974    1.4990   -0.6142 H   0  0  0  0  0  0  0  0  0  0  0  0
   -2.4152    1.4726   -0.4646 H   0  0  0  0  0  0  0  0  0  0  0  0
    3.3201    1.9856   -0.7257 N   0  0  0  0  0  0  0  0  0  0  0  0
    4.3675    1.6583   -0.8478 N   0  0  0  0  0  0  0  0  0  0  0  0
   -4.1129   -0.6508   -0.7450 C   0  0  0  0  0  0  0  0  0  0  0  0
   -4.8112   -1.6342   -0.8810 O   0  0  0  0  0  0  0  0  0  0  0  0
   -4.6412    0.5770   -0.4907 O   0  0  0  0  0  0  0  0  0  0  0  0
   -5.6037    0.4560   -0.4540 H   0  0  0  0  0  0  0  0  0  0  0  0
  1  6  1  0  0  0  0
  2  1  2  0  0  0  0
  2  3  1  0  0  0  0
  3  4  2  0  0  0  0
  4  5  1  0  0  0  0
  4  8  1  0  0  0  0
  5  9  1  0  0  0  0
  6 12  1  0  0  0  0
  6  5  2  0  0  0  0
  7  1  1  0  0  0  0
 11 10  3  0  0  0  0
 12 14  1  0  0  0  0
 13 12  2  0  0  0  0
 14 15  1  0  0  0  0
M  RAD  2   2   2   3   2
M  END
