Coordinates from ORCA-job 4-HOOC-C6H3-N2-B3LYPG-aug-cc-pVDZ-scan-d09-49-n400
 OpenBabel11091809033D

 15 14  0  0  0  0  0  0  0  0999 V2000
   -2.1296   -1.9898   -1.1096 C   0  0  0  0  0  0  0  0  0  0  0  0
   -0.7524   -1.9401   -1.1849 C   0  0  0  0  0  0  0  0  0  0  0  0
   -0.0117   -0.9383   -1.0487 C   0  0  0  0  0  0  0  0  0  0  0  0
   -0.4143    0.3646   -0.7880 C   0  0  0  0  0  0  0  0  0  0  0  0
   -1.8208    0.4378   -0.6886 C   0  0  0  0  0  0  0  0  0  0  0  0
   -2.6557   -0.6945   -0.8426 C   0  0  0  0  0  0  0  0  0  0  0  0
   -2.7827   -2.8510   -1.2256 H   0  0  0  0  0  0  0  0  0  0  0  0
    0.2228    1.2385   -0.6686 H   0  0  0  0  0  0  0  0  0  0  0  0
   -2.2813    1.4035   -0.4854 H   0  0  0  0  0  0  0  0  0  0  0  0
    3.3691    2.3039   -0.6696 N   0  0  0  0  0  0  0  0  0  0  0  0
    4.4615    2.1730   -0.7623 N   0  0  0  0  0  0  0  0  0  0  0  0
   -4.1389   -0.5869   -0.7322 C   0  0  0  0  0  0  0  0  0  0  0  0
   -4.9112   -1.5155   -0.8532 O   0  0  0  0  0  0  0  0  0  0  0  0
   -4.5694    0.6783   -0.4772 O   0  0  0  0  0  0  0  0  0  0  0  0
   -5.5377    0.6305   -0.4266 H   0  0  0  0  0  0  0  0  0  0  0  0
  1  6  1  0  0  0  0
  2  1  2  0  0  0  0
  2  3  1  0  0  0  0
  3  4  2  0  0  0  0
  4  5  1  0  0  0  0
  4  8  1  0  0  0  0
  5  9  1  0  0  0  0
  6 12  1  0  0  0  0
  6  5  2  0  0  0  0
  7  1  1  0  0  0  0
 11 10  3  0  0  0  0
 12 14  1  0  0  0  0
 13 12  2  0  0  0  0
 14 15  1  0  0  0  0
M  RAD  2   2   2   3   2
M  END
