Coordinates from ORCA-job 4-HOOC-C6H3-N2-B3LYPG-aug-cc-pVDZ-scan-d09-49-n400
 OpenBabel11091809033D

 15 14  0  0  0  0  0  0  0  0999 V2000
   -1.6747   -1.6546   -1.0771 C   0  0  0  0  0  0  0  0  0  0  0  0
   -0.3393   -1.2983   -1.0945 C   0  0  0  0  0  0  0  0  0  0  0  0
    0.1349   -0.1522   -0.9157 C   0  0  0  0  0  0  0  0  0  0  0  0
   -0.5569    1.0211   -0.6602 C   0  0  0  0  0  0  0  0  0  0  0  0
   -1.9459    0.7711   -0.6203 C   0  0  0  0  0  0  0  0  0  0  0  0
   -2.4930   -0.5190   -0.8208 C   0  0  0  0  0  0  0  0  0  0  0  0
   -2.1105   -2.6390   -1.2290 H   0  0  0  0  0  0  0  0  0  0  0  0
   -0.1329    2.0107   -0.5067 H   0  0  0  0  0  0  0  0  0  0  0  0
   -2.6225    1.6024   -0.4278 H   0  0  0  0  0  0  0  0  0  0  0  0
    2.7925    1.0919   -0.8534 N   0  0  0  0  0  0  0  0  0  0  0  0
    3.7588    0.5801   -1.0078 N   0  0  0  0  0  0  0  0  0  0  0  0
   -3.9649   -0.7535   -0.7728 C   0  0  0  0  0  0  0  0  0  0  0  0
   -4.5001   -1.8306   -0.9358 O   0  0  0  0  0  0  0  0  0  0  0  0
   -4.6824    0.3758   -0.5248 O   0  0  0  0  0  0  0  0  0  0  0  0
   -5.6155    0.1080   -0.5165 H   0  0  0  0  0  0  0  0  0  0  0  0
  1  6  1  0  0  0  0
  2  1  2  0  0  0  0
  2  3  1  0  0  0  0
  3  4  2  0  0  0  0
  4  5  1  0  0  0  0
  4  8  1  0  0  0  0
  5  9  1  0  0  0  0
  6 12  1  0  0  0  0
  6  5  2  0  0  0  0
  7  1  1  0  0  0  0
 11 10  3  0  0  0  0
 12 14  1  0  0  0  0
 13 12  2  0  0  0  0
 14 15  1  0  0  0  0
M  RAD  2   2   2   3   2
M  END
