Coordinates from ORCA-job 4-HOOC-C6H3-N2-B3LYPG-aug-cc-pVDZ-scan-d09-49-n400
 OpenBabel11091809033D

 15 14  0  0  0  0  0  0  0  0999 V2000
   -2.0949   -1.9655   -1.1073 C   0  0  0  0  0  0  0  0  0  0  0  0
   -0.7187   -1.8873   -1.1776 C   0  0  0  0  0  0  0  0  0  0  0  0
    0.0007   -0.8706   -1.0374 C   0  0  0  0  0  0  0  0  0  0  0  0
   -0.4297    0.4233   -0.7765 C   0  0  0  0  0  0  0  0  0  0  0  0
   -1.8377    0.4674   -0.6822 C   0  0  0  0  0  0  0  0  0  0  0  0
   -2.6486   -0.6817   -0.8407 C   0  0  0  0  0  0  0  0  0  0  0  0
   -2.7296   -2.8399   -1.2268 H   0  0  0  0  0  0  0  0  0  0  0  0
    0.1892    1.3097   -0.6538 H   0  0  0  0  0  0  0  0  0  0  0  0
   -2.3188    1.4231   -0.4795 H   0  0  0  0  0  0  0  0  0  0  0  0
    3.3613    2.2198   -0.6847 N   0  0  0  0  0  0  0  0  0  0  0  0
    4.4453    2.0358   -0.7857 N   0  0  0  0  0  0  0  0  0  0  0  0
   -4.1341   -0.6049   -0.7357 C   0  0  0  0  0  0  0  0  0  0  0  0
   -4.8866   -1.5491   -0.8606 O   0  0  0  0  0  0  0  0  0  0  0  0
   -4.5915    0.6508   -0.4808 O   0  0  0  0  0  0  0  0  0  0  0  0
   -5.5588    0.5830   -0.4339 H   0  0  0  0  0  0  0  0  0  0  0  0
  1  6  1  0  0  0  0
  2  1  2  0  0  0  0
  2  3  1  0  0  0  0
  3  4  2  0  0  0  0
  4  5  1  0  0  0  0
  4  8  1  0  0  0  0
  5  9  1  0  0  0  0
  6 12  1  0  0  0  0
  6  5  2  0  0  0  0
  7  1  1  0  0  0  0
 11 10  3  0  0  0  0
 12 14  1  0  0  0  0
 13 12  2  0  0  0  0
 14 15  1  0  0  0  0
M  RAD  2   2   2   3   2
M  END
