Coordinates from ORCA-job 4-HOOC-C6H3-N2-B3LYPG-aug-cc-pVDZ-scan-d09-49-n400
 OpenBabel11091809033D

 15 14  0  0  0  0  0  0  0  0999 V2000
   -1.8906   -1.8155   -1.0930 C   0  0  0  0  0  0  0  0  0  0  0  0
   -0.5296   -1.5861   -1.1337 C   0  0  0  0  0  0  0  0  0  0  0  0
    0.0634   -0.4941   -0.9723 C   0  0  0  0  0  0  0  0  0  0  0  0
   -0.5096    0.7433   -0.7144 C   0  0  0  0  0  0  0  0  0  0  0  0
   -1.9158    0.6280   -0.6504 C   0  0  0  0  0  0  0  0  0  0  0  0
   -2.5895   -0.6034   -0.8323 C   0  0  0  0  0  0  0  0  0  0  0  0
   -2.4219   -2.7539   -1.2305 H   0  0  0  0  0  0  0  0  0  0  0  0
    0.0043    1.6916   -0.5742 H   0  0  0  0  0  0  0  0  0  0  0  0
   -2.5055    1.5221   -0.4536 H   0  0  0  0  0  0  0  0  0  0  0  0
    3.2222    1.7102   -0.7661 N   0  0  0  0  0  0  0  0  0  0  0  0
    4.2178    1.2557   -0.9119 N   0  0  0  0  0  0  0  0  0  0  0  0
   -4.0763   -0.6932   -0.7595 C   0  0  0  0  0  0  0  0  0  0  0  0
   -4.7157   -1.7153   -0.9000 O   0  0  0  0  0  0  0  0  0  0  0  0
   -4.6758    0.5004   -0.5007 O   0  0  0  0  0  0  0  0  0  0  0  0
   -5.6299    0.3240   -0.4707 H   0  0  0  0  0  0  0  0  0  0  0  0
  1  6  1  0  0  0  0
  2  1  2  0  0  0  0
  2  3  1  0  0  0  0
  3  4  2  0  0  0  0
  4  5  1  0  0  0  0
  4  8  1  0  0  0  0
  5  9  1  0  0  0  0
  6 12  1  0  0  0  0
  6  5  2  0  0  0  0
  7  1  1  0  0  0  0
 11 10  3  0  0  0  0
 12 14  1  0  0  0  0
 13 12  2  0  0  0  0
 14 15  1  0  0  0  0
M  RAD  2   2   2   3   2
M  END
