Coordinates from ORCA-job 4-HOOC-C6H3-N2-B3LYPG-aug-cc-pVDZ-scan-d09-49-n400
 OpenBabel11091809033D

 15 15  0  0  0  0  0  0  0  0999 V2000
   -1.4178   -1.4676   -1.0593 C   0  0  0  0  0  0  0  0  0  0  0  0
   -0.0193   -1.2216   -1.1005 C   0  0  0  0  0  0  0  0  0  0  0  0
    0.2419    0.0671   -0.8828 C   0  0  0  0  0  0  0  0  0  0  0  0
   -0.5419    1.1928   -0.6305 C   0  0  0  0  0  0  0  0  0  0  0  0
   -1.9011    0.9024   -0.5998 C   0  0  0  0  0  0  0  0  0  0  0  0
   -2.3354   -0.4303   -0.8149 C   0  0  0  0  0  0  0  0  0  0  0  0
   -1.8177   -2.4706   -1.2168 H   0  0  0  0  0  0  0  0  0  0  0  0
   -0.1452    2.1959   -0.4729 H   0  0  0  0  0  0  0  0  0  0  0  0
   -2.6258    1.6905   -0.4124 H   0  0  0  0  0  0  0  0  0  0  0  0
    1.8211    0.3871   -0.9216 N   0  0  0  0  0  0  0  0  0  0  0  0
    2.9180    0.2285   -1.0177 N   0  0  0  0  0  0  0  0  0  0  0  0
   -3.7906   -0.7696   -0.7872 C   0  0  0  0  0  0  0  0  0  0  0  0
   -4.2523   -1.8777   -0.9594 O   0  0  0  0  0  0  0  0  0  0  0  0
   -4.5869    0.3089   -0.5419 O   0  0  0  0  0  0  0  0  0  0  0  0
   -5.4994   -0.0219   -0.5454 H   0  0  0  0  0  0  0  0  0  0  0  0
  1  6  1  0  0  0  0
  2  1  2  0  0  0  0
  2  3  1  0  0  0  0
  3  4  2  0  0  0  0
  4  5  1  0  0  0  0
  4  8  1  0  0  0  0
  5  9  1  0  0  0  0
  6 12  1  0  0  0  0
  6  5  2  0  0  0  0
  7  1  1  0  0  0  0
 10  3  1  0  0  0  0
 11 10  1  0  0  0  0
 12 14  1  0  0  0  0
 13 12  2  0  0  0  0
 15 14  1  0  0  0  0
M  RAD  3   2   2  10   2  11   3
M  END
