Coordinates from ORCA-job 4-HOOC-C6H3-N2-B3LYPG-aug-cc-pVDZ-scan-d09-49-n400
 OpenBabel11091809033D

 15 14  0  0  0  0  0  0  0  0999 V2000
   -1.6231   -1.6183   -1.0736 C   0  0  0  0  0  0  0  0  0  0  0  0
   -0.2898   -1.2452   -1.0879 C   0  0  0  0  0  0  0  0  0  0  0  0
    0.1475   -0.0850   -0.9043 C   0  0  0  0  0  0  0  0  0  0  0  0
   -0.5597    1.0765   -0.6500 C   0  0  0  0  0  0  0  0  0  0  0  0
   -1.9442    0.8005   -0.6149 C   0  0  0  0  0  0  0  0  0  0  0  0
   -2.4648   -0.4999   -0.8189 C   0  0  0  0  0  0  0  0  0  0  0  0
   -2.0410   -2.6103   -1.2279 H   0  0  0  0  0  0  0  0  0  0  0  0
   -0.1540    2.0733   -0.4940 H   0  0  0  0  0  0  0  0  0  0  0  0
   -2.6371    1.6186   -0.4239 H   0  0  0  0  0  0  0  0  0  0  0  0
    2.6407    0.9363   -0.8726 N   0  0  0  0  0  0  0  0  0  0  0  0
    3.6239    0.4559   -1.0220 N   0  0  0  0  0  0  0  0  0  0  0  0
   -3.9322   -0.7618   -0.7761 C   0  0  0  0  0  0  0  0  0  0  0  0
   -4.4471   -1.8484   -0.9423 O   0  0  0  0  0  0  0  0  0  0  0  0
   -4.6719    0.3536   -0.5296 O   0  0  0  0  0  0  0  0  0  0  0  0
   -5.5997    0.0681   -0.5251 H   0  0  0  0  0  0  0  0  0  0  0  0
  1  6  1  0  0  0  0
  2  1  2  0  0  0  0
  2  3  1  0  0  0  0
  3  4  2  0  0  0  0
  4  5  1  0  0  0  0
  4  8  1  0  0  0  0
  5  9  1  0  0  0  0
  6 12  1  0  0  0  0
  6  5  2  0  0  0  0
  7  1  1  0  0  0  0
 11 10  3  0  0  0  0
 12 14  1  0  0  0  0
 13 12  2  0  0  0  0
 14 15  1  0  0  0  0
M  RAD  2   2   2   3   2
M  END
