Coordinates from ORCA-job 4-HOOC-C6H3-N2-B3LYPG-aug-cc-pVDZ-scan-d09-49-n400
 OpenBabel11091809033D

 15 14  0  0  0  0  0  0  0  0999 V2000
   -2.1210   -1.9841   -1.1091 C   0  0  0  0  0  0  0  0  0  0  0  0
   -0.7440   -1.9271   -1.1832 C   0  0  0  0  0  0  0  0  0  0  0  0
   -0.0087   -0.9217   -1.0460 C   0  0  0  0  0  0  0  0  0  0  0  0
   -0.4176    0.3797   -0.7850 C   0  0  0  0  0  0  0  0  0  0  0  0
   -1.8246    0.4449   -0.6870 C   0  0  0  0  0  0  0  0  0  0  0  0
   -2.6538   -0.6916   -0.8421 C   0  0  0  0  0  0  0  0  0  0  0  0
   -2.7696   -2.8485   -1.2260 H   0  0  0  0  0  0  0  0  0  0  0  0
    0.2137    1.2576   -0.6646 H   0  0  0  0  0  0  0  0  0  0  0  0
   -2.2905    1.4080   -0.4838 H   0  0  0  0  0  0  0  0  0  0  0  0
    3.3668    2.2831   -0.6733 N   0  0  0  0  0  0  0  0  0  0  0  0
    4.4573    2.1383   -0.7683 N   0  0  0  0  0  0  0  0  0  0  0  0
   -4.1377   -0.5914   -0.7329 C   0  0  0  0  0  0  0  0  0  0  0  0
   -4.9052   -1.5237   -0.8551 O   0  0  0  0  0  0  0  0  0  0  0  0
   -4.5747    0.6716   -0.4781 O   0  0  0  0  0  0  0  0  0  0  0  0
   -5.5428    0.6190   -0.4287 H   0  0  0  0  0  0  0  0  0  0  0  0
  1  6  1  0  0  0  0
  2  1  2  0  0  0  0
  2  3  1  0  0  0  0
  3  4  2  0  0  0  0
  4  5  1  0  0  0  0
  4  8  1  0  0  0  0
  5  9  1  0  0  0  0
  6 12  1  0  0  0  0
  6  5  2  0  0  0  0
  7  1  1  0  0  0  0
 11 10  3  0  0  0  0
 12 14  1  0  0  0  0
 13 12  2  0  0  0  0
 14 15  1  0  0  0  0
M  RAD  2   2   2   3   2
M  END
