Coordinates from ORCA-job 4-HOOC-C6H3-N2-B3LYPG-aug-cc-pVDZ-scan-d09-49-n400
 OpenBabel11091809033D

 15 14  0  0  0  0  0  0  0  0999 V2000
   -2.1356   -1.9941   -1.1100 C   0  0  0  0  0  0  0  0  0  0  0  0
   -0.7583   -1.9491   -1.1865 C   0  0  0  0  0  0  0  0  0  0  0  0
   -0.0139   -0.9501   -1.0510 C   0  0  0  0  0  0  0  0  0  0  0  0
   -0.4110    0.3551   -0.7897 C   0  0  0  0  0  0  0  0  0  0  0  0
   -1.8173    0.4322   -0.6892 C   0  0  0  0  0  0  0  0  0  0  0  0
   -2.6566   -0.6971   -0.8425 C   0  0  0  0  0  0  0  0  0  0  0  0
   -2.7919   -2.8530   -1.2254 H   0  0  0  0  0  0  0  0  0  0  0  0
    0.2278    1.2277   -0.6706 H   0  0  0  0  0  0  0  0  0  0  0  0
   -2.2745    1.3994   -0.4856 H   0  0  0  0  0  0  0  0  0  0  0  0
    3.3692    2.3181   -0.6672 N   0  0  0  0  0  0  0  0  0  0  0  0
    4.4627    2.1957   -0.7589 N   0  0  0  0  0  0  0  0  0  0  0  0
   -4.1393   -0.5840   -0.7306 C   0  0  0  0  0  0  0  0  0  0  0  0
   -4.9153   -1.5093   -0.8524 O   0  0  0  0  0  0  0  0  0  0  0  0
   -4.5650    0.6832   -0.4769 O   0  0  0  0  0  0  0  0  0  0  0  0
   -5.5334    0.6392   -0.4267 H   0  0  0  0  0  0  0  0  0  0  0  0
  1  6  1  0  0  0  0
  2  1  2  0  0  0  0
  2  3  1  0  0  0  0
  3  4  2  0  0  0  0
  4  5  1  0  0  0  0
  4  8  1  0  0  0  0
  5  9  1  0  0  0  0
  6 12  1  0  0  0  0
  6  5  2  0  0  0  0
  7  1  1  0  0  0  0
 11 10  3  0  0  0  0
 12 14  1  0  0  0  0
 13 12  2  0  0  0  0
 14 15  1  0  0  0  0
M  RAD  2   2   2   3   2
M  END
