Coordinates from ORCA-job 4-HOOC-C6H3-N2-B3LYPG-aug-cc-pVDZ-scan-d09-49-n400
 OpenBabel11091809033D

 15 15  0  0  0  0  0  0  0  0999 V2000
   -1.4185   -1.4685   -1.0592 C   0  0  0  0  0  0  0  0  0  0  0  0
   -0.0166   -1.2322   -1.1027 C   0  0  0  0  0  0  0  0  0  0  0  0
    0.2425    0.0614   -0.8839 C   0  0  0  0  0  0  0  0  0  0  0  0
   -0.5403    1.1888   -0.6312 C   0  0  0  0  0  0  0  0  0  0  0  0
   -1.8994    0.9017   -0.5995 C   0  0  0  0  0  0  0  0  0  0  0  0
   -2.3350   -0.4312   -0.8145 C   0  0  0  0  0  0  0  0  0  0  0  0
   -1.8211   -2.4707   -1.2162 H   0  0  0  0  0  0  0  0  0  0  0  0
   -0.1415    2.1910   -0.4739 H   0  0  0  0  0  0  0  0  0  0  0  0
   -2.6226    1.6911   -0.4118 H   0  0  0  0  0  0  0  0  0  0  0  0
    1.8129    0.3742   -0.9239 N   0  0  0  0  0  0  0  0  0  0  0  0
    2.9154    0.2589   -1.0128 N   0  0  0  0  0  0  0  0  0  0  0  0
   -3.7906   -0.7688   -0.7861 C   0  0  0  0  0  0  0  0  0  0  0  0
   -4.2542   -1.8758   -0.9593 O   0  0  0  0  0  0  0  0  0  0  0  0
   -4.5852    0.3114   -0.5421 O   0  0  0  0  0  0  0  0  0  0  0  0
   -5.4983   -0.0175   -0.5462 H   0  0  0  0  0  0  0  0  0  0  0  0
  1  6  1  0  0  0  0
  2  1  2  0  0  0  0
  2  3  1  0  0  0  0
  3  4  2  0  0  0  0
  4  5  1  0  0  0  0
  4  8  1  0  0  0  0
  5  9  1  0  0  0  0
  6 12  1  0  0  0  0
  6  5  2  0  0  0  0
  7  1  1  0  0  0  0
 10  3  1  0  0  0  0
 11 10  1  0  0  0  0
 12 14  1  0  0  0  0
 13 12  2  0  0  0  0
 15 14  1  0  0  0  0
M  RAD  3   2   2  10   2  11   3
M  END
