Coordinates from ORCA-job 4-HOOC-C6H3-N2-B3LYPG-aug-cc-pVDZ-scan-d09-49-n400
 OpenBabel11091809033D

 15 14  0  0  0  0  0  0  0  0999 V2000
   -2.1876   -2.0290   -1.1130 C   0  0  0  0  0  0  0  0  0  0  0  0
   -0.8100   -2.0280   -1.1972 C   0  0  0  0  0  0  0  0  0  0  0  0
   -0.0335   -1.0528   -1.0682 C   0  0  0  0  0  0  0  0  0  0  0  0
   -0.3883    0.2641   -0.8079 C   0  0  0  0  0  0  0  0  0  0  0  0
   -1.7906    0.3871   -0.6998 C   0  0  0  0  0  0  0  0  0  0  0  0
   -2.6660   -0.7154   -0.8458 C   0  0  0  0  0  0  0  0  0  0  0  0
   -2.8714   -2.8669   -1.2229 H   0  0  0  0  0  0  0  0  0  0  0  0
    0.2796    1.1155   -0.6947 H   0  0  0  0  0  0  0  0  0  0  0  0
   -2.2154    1.3689   -0.4959 H   0  0  0  0  0  0  0  0  0  0  0  0
    3.3735    2.4434   -0.6450 N   0  0  0  0  0  0  0  0  0  0  0  0
    4.4743    2.4024   -0.7210 N   0  0  0  0  0  0  0  0  0  0  0  0
   -4.1437   -0.5553   -0.7262 C   0  0  0  0  0  0  0  0  0  0  0  0
   -4.9491   -1.4562   -0.8402 O   0  0  0  0  0  0  0  0  0  0  0  0
   -4.5276    0.7248   -0.4711 O   0  0  0  0  0  0  0  0  0  0  0  0
   -5.4966    0.7114   -0.4143 H   0  0  0  0  0  0  0  0  0  0  0  0
  1  6  1  0  0  0  0
  2  1  2  0  0  0  0
  2  3  1  0  0  0  0
  3  4  2  0  0  0  0
  4  5  1  0  0  0  0
  4  8  1  0  0  0  0
  5  9  1  0  0  0  0
  6 12  1  0  0  0  0
  6  5  2  0  0  0  0
  7  1  1  0  0  0  0
 11 10  3  0  0  0  0
 12 14  1  0  0  0  0
 13 12  2  0  0  0  0
 14 15  1  0  0  0  0
M  RAD  2   2   2   3   2
M  END
