Coordinates from ORCA-job 4-HOOC-C6H3-N2-B3LYPG-aug-cc-pVDZ-scan-d09-49-n400
 OpenBabel11081810443D

 15 15  0  0  0  0  0  0  0  0999 V2000
   -1.4015   -1.4723   -1.0611 C   0  0  0  0  0  0  0  0  0  0  0  0
    0.0159   -1.3532   -1.1261 C   0  0  0  0  0  0  0  0  0  0  0  0
    0.4408    0.0675   -0.8937 C   0  0  0  0  0  0  0  0  0  0  0  0
   -0.5032    1.1488   -0.6406 C   0  0  0  0  0  0  0  0  0  0  0  0
   -1.8432    0.8914   -0.6057 C   0  0  0  0  0  0  0  0  0  0  0  0
   -2.3016   -0.4388   -0.8190 C   0  0  0  0  0  0  0  0  0  0  0  0
   -1.8232   -2.4683   -1.2160 H   0  0  0  0  0  0  0  0  0  0  0  0
   -0.1083    2.1541   -0.4824 H   0  0  0  0  0  0  0  0  0  0  0  0
   -2.5514    1.6942   -0.4172 H   0  0  0  0  0  0  0  0  0  0  0  0
    1.5005    0.2764   -0.9219 N   0  0  0  0  0  0  0  0  0  0  0  0
    2.6259    0.4630   -0.9580 N   0  0  0  0  0  0  0  0  0  0  0  0
   -3.7679   -0.7572   -0.7878 C   0  0  0  0  0  0  0  0  0  0  0  0
   -4.2387   -1.8594   -0.9570 O   0  0  0  0  0  0  0  0  0  0  0  0
   -4.5371    0.3356   -0.5398 O   0  0  0  0  0  0  0  0  0  0  0  0
   -5.4595    0.0321   -0.5369 H   0  0  0  0  0  0  0  0  0  0  0  0
  1  6  1  0  0  0  0
  2  1  2  0  0  0  0
  2  3  1  0  0  0  0
  3  4  2  0  0  0  0
  4  5  1  0  0  0  0
  4  8  1  0  0  0  0
  5  9  1  0  0  0  0
  6 12  1  0  0  0  0
  6  5  2  0  0  0  0
  7  1  1  0  0  0  0
 10  3  1  0  0  0  0
 11 10  1  0  0  0  0
 12 14  1  0  0  0  0
 13 12  2  0  0  0  0
 14 15  1  0  0  0  0
M  RAD  3   2   2  10   2  11   3
M  END
