Coordinates from ORCA-job 4-HOOC-C6H3-N2-B3LYPG-aug-cc-pVDZ-scan-d09-49-n400
 OpenBabel11081810443D

 15 15  0  0  0  0  0  0  0  0999 V2000
   -1.4100   -1.4776   -1.0615 C   0  0  0  0  0  0  0  0  0  0  0  0
    0.0104   -1.3289   -1.1217 C   0  0  0  0  0  0  0  0  0  0  0  0
    0.3633    0.0471   -0.8935 C   0  0  0  0  0  0  0  0  0  0  0  0
   -0.5132    1.1578   -0.6384 C   0  0  0  0  0  0  0  0  0  0  0  0
   -1.8584    0.8943   -0.6036 C   0  0  0  0  0  0  0  0  0  0  0  0
   -2.3094   -0.4401   -0.8180 C   0  0  0  0  0  0  0  0  0  0  0  0
   -1.8343   -2.4719   -1.2158 H   0  0  0  0  0  0  0  0  0  0  0  0
   -0.1206    2.1633   -0.4802 H   0  0  0  0  0  0  0  0  0  0  0  0
   -2.5732    1.6909   -0.4152 H   0  0  0  0  0  0  0  0  0  0  0  0
    1.6121    0.2805   -0.9284 N   0  0  0  0  0  0  0  0  0  0  0  0
    2.7205    0.4582   -0.9647 N   0  0  0  0  0  0  0  0  0  0  0  0
   -3.7743   -0.7588   -0.7858 C   0  0  0  0  0  0  0  0  0  0  0  0
   -4.2494   -1.8597   -0.9564 O   0  0  0  0  0  0  0  0  0  0  0  0
   -4.5478    0.3338   -0.5402 O   0  0  0  0  0  0  0  0  0  0  0  0
   -5.4682    0.0250   -0.5397 H   0  0  0  0  0  0  0  0  0  0  0  0
  1  6  1  0  0  0  0
  2  1  2  0  0  0  0
  2  3  1  0  0  0  0
  3  4  2  0  0  0  0
  4  5  1  0  0  0  0
  4  8  1  0  0  0  0
  5  9  1  0  0  0  0
  6 12  1  0  0  0  0
  6  5  2  0  0  0  0
  7  1  1  0  0  0  0
 10  3  1  0  0  0  0
 11 10  1  0  0  0  0
 12 14  1  0  0  0  0
 13 12  2  0  0  0  0
 14 15  1  0  0  0  0
M  RAD  3   2   2  10   2  11   3
M  END
