Coordinates from ORCA-job 4-HOOC-C6H3-N2-B3LYPG-aug-cc-pVDZ-scan-d09-49-n400
 OpenBabel11091809033D

 15 14  0  0  0  0  0  0  0  0999 V2000
   -1.6352   -1.6269   -1.0750 C   0  0  0  0  0  0  0  0  0  0  0  0
   -0.3013   -1.2580   -1.0895 C   0  0  0  0  0  0  0  0  0  0  0  0
    0.1436   -0.1007   -0.9069 C   0  0  0  0  0  0  0  0  0  0  0  0
   -0.5586    1.0640   -0.6529 C   0  0  0  0  0  0  0  0  0  0  0  0
   -1.9443    0.7938   -0.6174 C   0  0  0  0  0  0  0  0  0  0  0  0
   -2.4713   -0.5042   -0.8207 C   0  0  0  0  0  0  0  0  0  0  0  0
   -2.0573   -2.6171   -1.2288 H   0  0  0  0  0  0  0  0  0  0  0  0
   -0.1494    2.0596   -0.4973 H   0  0  0  0  0  0  0  0  0  0  0  0
   -2.6335    1.6150   -0.4266 H   0  0  0  0  0  0  0  0  0  0  0  0
    2.6726    0.9650   -0.8681 N   0  0  0  0  0  0  0  0  0  0  0  0
    3.6590    0.4909   -1.0161 N   0  0  0  0  0  0  0  0  0  0  0  0
   -3.9399   -0.7593   -0.7776 C   0  0  0  0  0  0  0  0  0  0  0  0
   -4.4595   -1.8442   -0.9397 O   0  0  0  0  0  0  0  0  0  0  0  0
   -4.6741    0.3588   -0.5272 O   0  0  0  0  0  0  0  0  0  0  0  0
   -5.6030    0.0772   -0.5195 H   0  0  0  0  0  0  0  0  0  0  0  0
  1  6  1  0  0  0  0
  2  1  2  0  0  0  0
  2  3  1  0  0  0  0
  3  4  2  0  0  0  0
  4  5  1  0  0  0  0
  4  8  1  0  0  0  0
  5  9  1  0  0  0  0
  6 12  1  0  0  0  0
  6  5  2  0  0  0  0
  7  1  1  0  0  0  0
 11 10  3  0  0  0  0
 12 14  1  0  0  0  0
 13 12  2  0  0  0  0
 14 15  1  0  0  0  0
M  RAD  2   2   2   3   2
M  END
