Coordinates from ORCA-job 4-HOOC-C6H3-N2-B3LYPG-aug-cc-pVDZ-scan-d09-49-n400
 OpenBabel11091809033D

 15 14  0  0  0  0  0  0  0  0999 V2000
   -1.5316   -1.5549   -1.0684 C   0  0  0  0  0  0  0  0  0  0  0  0
   -0.1966   -1.1665   -1.0794 C   0  0  0  0  0  0  0  0  0  0  0  0
    0.1709    0.0198   -0.8868 C   0  0  0  0  0  0  0  0  0  0  0  0
   -0.5588    1.1620   -0.6352 C   0  0  0  0  0  0  0  0  0  0  0  0
   -1.9342    0.8482   -0.6082 C   0  0  0  0  0  0  0  0  0  0  0  0
   -2.4116   -0.4682   -0.8178 C   0  0  0  0  0  0  0  0  0  0  0  0
   -1.9218   -2.5582   -1.2265 H   0  0  0  0  0  0  0  0  0  0  0  0
   -0.1752    2.1677   -0.4762 H   0  0  0  0  0  0  0  0  0  0  0  0
   -2.6516    1.6453   -0.4200 H   0  0  0  0  0  0  0  0  0  0  0  0
    2.3622    0.7298   -0.8919 N   0  0  0  0  0  0  0  0  0  0  0  0
    3.3284    0.2139   -1.0455 N   0  0  0  0  0  0  0  0  0  0  0  0
   -3.8709   -0.7736   -0.7844 C   0  0  0  0  0  0  0  0  0  0  0  0
   -4.3530   -1.8748   -0.9519 O   0  0  0  0  0  0  0  0  0  0  0  0
   -4.6451    0.3185   -0.5361 O   0  0  0  0  0  0  0  0  0  0  0  0
   -5.5637    0.0048   -0.5350 H   0  0  0  0  0  0  0  0  0  0  0  0
  1  6  1  0  0  0  0
  2  1  2  0  0  0  0
  2  3  1  0  0  0  0
  3  4  2  0  0  0  0
  4  5  1  0  0  0  0
  4  8  1  0  0  0  0
  5  9  1  0  0  0  0
  6 12  1  0  0  0  0
  6  5  2  0  0  0  0
  7  1  1  0  0  0  0
 11 10  3  0  0  0  0
 12 14  1  0  0  0  0
 13 12  2  0  0  0  0
 14 15  1  0  0  0  0
M  RAD  2   2   2   3   2
M  END
