Coordinates from ORCA-job 4-HOOC-C6H3-N2-B3LYPG-aug-cc-pVDZ-scan-d09-49-n400
 OpenBabel11091809033D

 15 14  0  0  0  0  0  0  0  0999 V2000
   -2.1180   -1.9818   -1.1089 C   0  0  0  0  0  0  0  0  0  0  0  0
   -0.7409   -1.9224   -1.1824 C   0  0  0  0  0  0  0  0  0  0  0  0
   -0.0075   -0.9155   -1.0449 C   0  0  0  0  0  0  0  0  0  0  0  0
   -0.4193    0.3842   -0.7842 C   0  0  0  0  0  0  0  0  0  0  0  0
   -1.8263    0.4475   -0.6866 C   0  0  0  0  0  0  0  0  0  0  0  0
   -2.6535   -0.6904   -0.8421 C   0  0  0  0  0  0  0  0  0  0  0  0
   -2.7649   -2.8475   -1.2261 H   0  0  0  0  0  0  0  0  0  0  0  0
    0.2109    1.2624   -0.6636 H   0  0  0  0  0  0  0  0  0  0  0  0
   -2.2937    1.4099   -0.4837 H   0  0  0  0  0  0  0  0  0  0  0  0
    3.3669    2.2760   -0.6745 N   0  0  0  0  0  0  0  0  0  0  0  0
    4.4568    2.1272   -0.7701 N   0  0  0  0  0  0  0  0  0  0  0  0
   -4.1376   -0.5929   -0.7337 C   0  0  0  0  0  0  0  0  0  0  0  0
   -4.9033   -1.5267   -0.8555 O   0  0  0  0  0  0  0  0  0  0  0  0
   -4.5770    0.6692   -0.4782 O   0  0  0  0  0  0  0  0  0  0  0  0
   -5.5449    0.6147   -0.4287 H   0  0  0  0  0  0  0  0  0  0  0  0
  1  6  1  0  0  0  0
  2  1  2  0  0  0  0
  2  3  1  0  0  0  0
  3  4  2  0  0  0  0
  4  5  1  0  0  0  0
  4  8  1  0  0  0  0
  5  9  1  0  0  0  0
  6 12  1  0  0  0  0
  6  5  2  0  0  0  0
  7  1  1  0  0  0  0
 11 10  3  0  0  0  0
 12 14  1  0  0  0  0
 13 12  2  0  0  0  0
 14 15  1  0  0  0  0
M  RAD  2   2   2   3   2
M  END
