Coordinates from ORCA-job 4-HOOC-C6H3-N2-B3LYPG-aug-cc-pVDZ-scan-d09-49-n400
 OpenBabel11091809033D

 15 14  0  0  0  0  0  0  0  0999 V2000
   -1.8102   -1.7552   -1.0872 C   0  0  0  0  0  0  0  0  0  0  0  0
   -0.4590   -1.4725   -1.1184 C   0  0  0  0  0  0  0  0  0  0  0  0
    0.0908   -0.3591   -0.9504 C   0  0  0  0  0  0  0  0  0  0  0  0
   -0.5326    0.8535   -0.6929 C   0  0  0  0  0  0  0  0  0  0  0  0
   -1.9336    0.6844   -0.6381 C   0  0  0  0  0  0  0  0  0  0  0  0
   -2.5575   -0.5719   -0.8276 C   0  0  0  0  0  0  0  0  0  0  0  0
   -2.3036   -2.7131   -1.2305 H   0  0  0  0  0  0  0  0  0  0  0  0
   -0.0558    1.8201   -0.5471 H   0  0  0  0  0  0  0  0  0  0  0  0
   -2.5586    1.5544   -0.4426 H   0  0  0  0  0  0  0  0  0  0  0  0
    3.1117    1.5118   -0.7966 N   0  0  0  0  0  0  0  0  0  0  0  0
    4.0563    0.9625   -0.9544 N   0  0  0  0  0  0  0  0  0  0  0  0
   -4.0400   -0.7202   -0.7643 C   0  0  0  0  0  0  0  0  0  0  0  0
   -4.6382   -1.7656   -0.9144 O   0  0  0  0  0  0  0  0  0  0  0  0
   -4.6877    0.4490   -0.5099 O   0  0  0  0  0  0  0  0  0  0  0  0
   -5.6345    0.2358   -0.4887 H   0  0  0  0  0  0  0  0  0  0  0  0
  1  6  1  0  0  0  0
  2  1  2  0  0  0  0
  2  3  1  0  0  0  0
  3  4  2  0  0  0  0
  4  5  1  0  0  0  0
  4  8  1  0  0  0  0
  5  9  1  0  0  0  0
  6 12  1  0  0  0  0
  6  5  2  0  0  0  0
  7  1  1  0  0  0  0
 11 10  3  0  0  0  0
 12 14  1  0  0  0  0
 13 12  2  0  0  0  0
 14 15  1  0  0  0  0
M  RAD  2   2   2   3   2
M  END
