Coordinates from ORCA-job 4-HOOC-C6H3-N2-B3LYPG-aug-cc-pVDZ-scan-d09-49-n400
 OpenBabel11091809033D

 15 14  0  0  0  0  0  0  0  0999 V2000
   -1.9484   -1.8588   -1.0970 C   0  0  0  0  0  0  0  0  0  0  0  0
   -0.5815   -1.6701   -1.1463 C   0  0  0  0  0  0  0  0  0  0  0  0
    0.0457   -0.5965   -0.9902 C   0  0  0  0  0  0  0  0  0  0  0  0
   -0.4895    0.6576   -0.7305 C   0  0  0  0  0  0  0  0  0  0  0  0
   -1.8980    0.5848   -0.6576 C   0  0  0  0  0  0  0  0  0  0  0  0
   -2.6092   -0.6262   -0.8334 C   0  0  0  0  0  0  0  0  0  0  0  0
   -2.5082   -2.7812   -1.2298 H   0  0  0  0  0  0  0  0  0  0  0  0
    0.0537    1.5902   -0.5948 H   0  0  0  0  0  0  0  0  0  0  0  0
   -2.4592    1.4965   -0.4583 H   0  0  0  0  0  0  0  0  0  0  0  0
    3.2807    1.8576   -0.7452 N   0  0  0  0  0  0  0  0  0  0  0  0
    4.3061    1.4708   -0.8792 N   0  0  0  0  0  0  0  0  0  0  0  0
   -4.0974   -0.6716   -0.7508 C   0  0  0  0  0  0  0  0  0  0  0  0
   -4.7682   -1.6735   -0.8908 O   0  0  0  0  0  0  0  0  0  0  0  0
   -4.6599    0.5407   -0.4958 O   0  0  0  0  0  0  0  0  0  0  0  0
   -5.6189    0.3936   -0.4634 H   0  0  0  0  0  0  0  0  0  0  0  0
  1  6  1  0  0  0  0
  2  1  2  0  0  0  0
  2  3  1  0  0  0  0
  3  4  2  0  0  0  0
  4  5  1  0  0  0  0
  4  8  1  0  0  0  0
  5  9  1  0  0  0  0
  6 12  1  0  0  0  0
  6  5  2  0  0  0  0
  7  1  1  0  0  0  0
 11 10  3  0  0  0  0
 12 14  1  0  0  0  0
 13 12  2  0  0  0  0
 14 15  1  0  0  0  0
M  RAD  2   2   2   3   2
M  END
