Coordinates from ORCA-job 4-HOOC-C6H3-N2-B3LYPG-aug-cc-pVDZ-scan-d09-49-n400
 OpenBabel11091809033D

 15 14  0  0  0  0  0  0  0  0999 V2000
   -2.0746   -1.9512   -1.1060 C   0  0  0  0  0  0  0  0  0  0  0  0
   -0.6993   -1.8566   -1.1731 C   0  0  0  0  0  0  0  0  0  0  0  0
    0.0076   -0.8316   -1.0307 C   0  0  0  0  0  0  0  0  0  0  0  0
   -0.4382    0.4577   -0.7700 C   0  0  0  0  0  0  0  0  0  0  0  0
   -1.8470    0.4843   -0.6790 C   0  0  0  0  0  0  0  0  0  0  0  0
   -2.6439   -0.6743   -0.8400 C   0  0  0  0  0  0  0  0  0  0  0  0
   -2.6987   -2.8329   -1.2275 H   0  0  0  0  0  0  0  0  0  0  0  0
    0.1689    1.3519   -0.6452 H   0  0  0  0  0  0  0  0  0  0  0  0
   -2.3401    1.4339   -0.4768 H   0  0  0  0  0  0  0  0  0  0  0  0
    3.3549    2.1706   -0.6933 N   0  0  0  0  0  0  0  0  0  0  0  0
    4.4326    1.9548   -0.7987 N   0  0  0  0  0  0  0  0  0  0  0  0
   -4.1305   -0.6150   -0.7383 C   0  0  0  0  0  0  0  0  0  0  0  0
   -4.8714   -1.5680   -0.8646 O   0  0  0  0  0  0  0  0  0  0  0  0
   -4.6032    0.6349   -0.4826 O   0  0  0  0  0  0  0  0  0  0  0  0
   -5.5696    0.5555   -0.4373 H   0  0  0  0  0  0  0  0  0  0  0  0
  1  6  1  0  0  0  0
  2  1  2  0  0  0  0
  2  3  1  0  0  0  0
  3  4  2  0  0  0  0
  4  5  1  0  0  0  0
  4  8  1  0  0  0  0
  5  9  1  0  0  0  0
  6 12  1  0  0  0  0
  6  5  2  0  0  0  0
  7  1  1  0  0  0  0
 11 10  3  0  0  0  0
 12 14  1  0  0  0  0
 13 12  2  0  0  0  0
 14 15  1  0  0  0  0
M  RAD  2   2   2   3   2
M  END
