Coordinates from ORCA-job 4-HOOC-C6H3-N2-B3LYPG-aug-cc-pVDZ-scan-d09-49-n400
 OpenBabel11081810443D

 15 15  0  0  0  0  0  0  0  0999 V2000
   -1.4056   -1.4758   -1.0607 C   0  0  0  0  0  0  0  0  0  0  0  0
    0.0143   -1.3410   -1.1247 C   0  0  0  0  0  0  0  0  0  0  0  0
    0.3981    0.0536   -0.8958 C   0  0  0  0  0  0  0  0  0  0  0  0
   -0.5073    1.1526   -0.6395 C   0  0  0  0  0  0  0  0  0  0  0  0
   -1.8500    0.8926   -0.6033 C   0  0  0  0  0  0  0  0  0  0  0  0
   -2.3046   -0.4403   -0.8170 C   0  0  0  0  0  0  0  0  0  0  0  0
   -1.8293   -2.4707   -1.2148 H   0  0  0  0  0  0  0  0  0  0  0  0
   -0.1144    2.1583   -0.4811 H   0  0  0  0  0  0  0  0  0  0  0  0
   -2.5616    1.6919   -0.4137 H   0  0  0  0  0  0  0  0  0  0  0  0
    1.5568    0.2788   -0.9265 N   0  0  0  0  0  0  0  0  0  0  0  0
    2.6707    0.4651   -0.9614 N   0  0  0  0  0  0  0  0  0  0  0  0
   -3.7704   -0.7584   -0.7833 C   0  0  0  0  0  0  0  0  0  0  0  0
   -4.2445   -1.8588   -0.9574 O   0  0  0  0  0  0  0  0  0  0  0  0
   -4.5415    0.3357   -0.5415 O   0  0  0  0  0  0  0  0  0  0  0  0
   -5.4632    0.0303   -0.5426 H   0  0  0  0  0  0  0  0  0  0  0  0
  1  6  1  0  0  0  0
  2  1  2  0  0  0  0
  2  3  1  0  0  0  0
  3  4  2  0  0  0  0
  4  5  1  0  0  0  0
  4  8  1  0  0  0  0
  5  9  1  0  0  0  0
  6 12  1  0  0  0  0
  6  5  2  0  0  0  0
  7  1  1  0  0  0  0
 10  3  1  0  0  0  0
 11 10  1  0  0  0  0
 12 14  1  0  0  0  0
 13 12  2  0  0  0  0
 15 14  1  0  0  0  0
M  RAD  3   2   2  10   2  11   3
M  END
