Coordinates from ORCA-job 4-HOOC-C6H3-N2-B3LYPG-aug-cc-pVDZ-scan-d09-49-n400
 OpenBabel11091809033D

 15 15  0  0  0  0  0  0  0  0999 V2000
   -1.4557   -1.4999   -1.0630 C   0  0  0  0  0  0  0  0  0  0  0  0
   -0.0974   -1.1522   -1.0831 C   0  0  0  0  0  0  0  0  0  0  0  0
    0.2053    0.0706   -0.8798 C   0  0  0  0  0  0  0  0  0  0  0  0
   -0.5475    1.1987   -0.6292 C   0  0  0  0  0  0  0  0  0  0  0  0
   -1.9148    0.8824   -0.6028 C   0  0  0  0  0  0  0  0  0  0  0  0
   -2.3635   -0.4435   -0.8158 C   0  0  0  0  0  0  0  0  0  0  0  0
   -1.8372   -2.5079   -1.2225 H   0  0  0  0  0  0  0  0  0  0  0  0
   -0.1608    2.2046   -0.4704 H   0  0  0  0  0  0  0  0  0  0  0  0
   -2.6411    1.6705   -0.4155 H   0  0  0  0  0  0  0  0  0  0  0  0
    2.0440    0.5584   -0.9039 N   0  0  0  0  0  0  0  0  0  0  0  0
    3.0518    0.1150   -1.0464 N   0  0  0  0  0  0  0  0  0  0  0  0
   -3.8177   -0.7760   -0.7872 C   0  0  0  0  0  0  0  0  0  0  0  0
   -4.2815   -1.8841   -0.9585 O   0  0  0  0  0  0  0  0  0  0  0  0
   -4.6116    0.3033   -0.5411 O   0  0  0  0  0  0  0  0  0  0  0  0
   -5.5246   -0.0261   -0.5439 H   0  0  0  0  0  0  0  0  0  0  0  0
  1  6  1  0  0  0  0
  2  1  2  0  0  0  0
  2  3  1  0  0  0  0
  3  4  2  0  0  0  0
  4  5  1  0  0  0  0
  4  8  1  0  0  0  0
  5  9  1  0  0  0  0
  6 12  1  0  0  0  0
  6  5  2  0  0  0  0
  7  1  1  0  0  0  0
 10  3  1  0  0  0  0
 11 10  2  0  0  0  0
 12 14  1  0  0  0  0
 13 12  2  0  0  0  0
 15 14  1  0  0  0  0
M  RAD  2   2   2  11   2
M  END
