Coordinates from ORCA-job 4-HOOC-C6H3-N2-B3LYPG-aug-cc-pVDZ-scan-d09-49-n400
 OpenBabel11091809033D

 15 14  0  0  0  0  0  0  0  0999 V2000
   -1.9235   -1.8405   -1.0948 C   0  0  0  0  0  0  0  0  0  0  0  0
   -0.5590   -1.6338   -1.1414 C   0  0  0  0  0  0  0  0  0  0  0  0
    0.0530   -0.5519   -0.9826 C   0  0  0  0  0  0  0  0  0  0  0  0
   -0.4982    0.6949   -0.7221 C   0  0  0  0  0  0  0  0  0  0  0  0
   -1.9058    0.6031   -0.6520 C   0  0  0  0  0  0  0  0  0  0  0  0
   -2.6008   -0.6169   -0.8307 C   0  0  0  0  0  0  0  0  0  0  0  0
   -2.4710   -2.7698   -1.2299 H   0  0  0  0  0  0  0  0  0  0  0  0
    0.0318    1.6347   -0.5841 H   0  0  0  0  0  0  0  0  0  0  0  0
   -2.4796    1.5069   -0.4524 H   0  0  0  0  0  0  0  0  0  0  0  0
    3.2571    1.7942   -0.7556 N   0  0  0  0  0  0  0  0  0  0  0  0
    4.2702    1.3783   -0.8968 N   0  0  0  0  0  0  0  0  0  0  0  0
   -4.0885   -0.6819   -0.7505 C   0  0  0  0  0  0  0  0  0  0  0  0
   -4.7461   -1.6915   -0.8974 O   0  0  0  0  0  0  0  0  0  0  0  0
   -4.6675    0.5236   -0.5000 O   0  0  0  0  0  0  0  0  0  0  0  0
   -5.6247    0.3645   -0.4728 H   0  0  0  0  0  0  0  0  0  0  0  0
  1  6  1  0  0  0  0
  2  1  2  0  0  0  0
  2  3  1  0  0  0  0
  3  4  2  0  0  0  0
  4  5  1  0  0  0  0
  4  8  1  0  0  0  0
  5  9  1  0  0  0  0
  6 12  1  0  0  0  0
  6  5  2  0  0  0  0
  7  1  1  0  0  0  0
 11 10  3  0  0  0  0
 12 14  1  0  0  0  0
 13 12  2  0  0  0  0
 14 15  1  0  0  0  0
M  RAD  2   2   2   3   2
M  END
