Coordinates from ORCA-job 4-HOOC-C6H3-N2-B3LYPG-aug-cc-pVDZ-scan-d09-49-n400
 OpenBabel11081810443D

 15 15  0  0  0  0  0  0  0  0999 V2000
   -1.4127   -1.4774   -1.0613 C   0  0  0  0  0  0  0  0  0  0  0  0
    0.0065   -1.3135   -1.1188 C   0  0  0  0  0  0  0  0  0  0  0  0
    0.3314    0.0456   -0.8922 C   0  0  0  0  0  0  0  0  0  0  0  0
   -0.5193    1.1641   -0.6370 C   0  0  0  0  0  0  0  0  0  0  0  0
   -1.8674    0.8964   -0.6028 C   0  0  0  0  0  0  0  0  0  0  0  0
   -2.3143   -0.4390   -0.8175 C   0  0  0  0  0  0  0  0  0  0  0  0
   -1.8357   -2.4721   -1.2158 H   0  0  0  0  0  0  0  0  0  0  0  0
   -0.1257    2.1689   -0.4789 H   0  0  0  0  0  0  0  0  0  0  0  0
   -2.5849    1.6906   -0.4146 H   0  0  0  0  0  0  0  0  0  0  0  0
    1.6607    0.2843   -0.9306 N   0  0  0  0  0  0  0  0  0  0  0  0
    2.7677    0.4390   -0.9706 N   0  0  0  0  0  0  0  0  0  0  0  0
   -3.7778   -0.7601   -0.7860 C   0  0  0  0  0  0  0  0  0  0  0  0
   -4.2523   -1.8616   -0.9564 O   0  0  0  0  0  0  0  0  0  0  0  0
   -4.5548    0.3308   -0.5402 O   0  0  0  0  0  0  0  0  0  0  0  0
   -5.4738    0.0181   -0.5404 H   0  0  0  0  0  0  0  0  0  0  0  0
  1  6  1  0  0  0  0
  2  1  2  0  0  0  0
  2  3  1  0  0  0  0
  3  4  2  0  0  0  0
  4  5  1  0  0  0  0
  4  8  1  0  0  0  0
  5  9  1  0  0  0  0
  6 12  1  0  0  0  0
  6  5  2  0  0  0  0
  7  1  1  0  0  0  0
 10  3  1  0  0  0  0
 11 10  1  0  0  0  0
 12 14  1  0  0  0  0
 13 12  2  0  0  0  0
 15 14  1  0  0  0  0
M  RAD  3   2   2  10   2  11   3
M  END
