Coordinates from ORCA-job 4-HOOC-C6H3-N2-B3LYPG-aug-cc-pVDZ-scan-d09-49-n400
 OpenBabel11091809033D

 15 14  0  0  0  0  0  0  0  0999 V2000
   -1.7448   -1.7053   -1.0815 C   0  0  0  0  0  0  0  0  0  0  0  0
   -0.4021   -1.3830   -1.1061 C   0  0  0  0  0  0  0  0  0  0  0  0
    0.1121   -0.2535   -0.9327 C   0  0  0  0  0  0  0  0  0  0  0  0
   -0.5487    0.9388   -0.6753 C   0  0  0  0  0  0  0  0  0  0  0  0
   -1.9441    0.7282   -0.6271 C   0  0  0  0  0  0  0  0  0  0  0  0
   -2.5288   -0.5460   -0.8222 C   0  0  0  0  0  0  0  0  0  0  0  0
   -2.2086   -2.6773   -1.2293 H   0  0  0  0  0  0  0  0  0  0  0  0
   -0.0981    1.9172   -0.5254 H   0  0  0  0  0  0  0  0  0  0  0  0
   -2.5957    1.5785   -0.4322 H   0  0  0  0  0  0  0  0  0  0  0  0
    2.9785    1.3081   -0.8267 N   0  0  0  0  0  0  0  0  0  0  0  0
    3.9286    0.7678   -0.9854 N   0  0  0  0  0  0  0  0  0  0  0  0
   -4.0064   -0.7393   -0.7655 C   0  0  0  0  0  0  0  0  0  0  0  0
   -4.5725   -1.8007   -0.9271 O   0  0  0  0  0  0  0  0  0  0  0  0
   -4.6907    0.4106   -0.5191 O   0  0  0  0  0  0  0  0  0  0  0  0
   -5.6310    0.1698   -0.5076 H   0  0  0  0  0  0  0  0  0  0  0  0
  1  6  1  0  0  0  0
  2  1  2  0  0  0  0
  2  3  1  0  0  0  0
  3  4  2  0  0  0  0
  4  5  1  0  0  0  0
  4  8  1  0  0  0  0
  5  9  1  0  0  0  0
  6 12  1  0  0  0  0
  6  5  2  0  0  0  0
  7  1  1  0  0  0  0
 11 10  3  0  0  0  0
 12 14  1  0  0  0  0
 13 12  2  0  0  0  0
 14 15  1  0  0  0  0
M  RAD  2   2   2   3   2
M  END
