Coordinates from ORCA-job 4-HOOC-C6H3-N2-B3LYPG-aug-cc-pVDZ-scan-d09-49-n400
 OpenBabel11091809033D

 15 14  0  0  0  0  0  0  0  0999 V2000
   -1.6454   -1.6338   -1.0754 C   0  0  0  0  0  0  0  0  0  0  0  0
   -0.3118   -1.2669   -1.0904 C   0  0  0  0  0  0  0  0  0  0  0  0
    0.1424   -0.1131   -0.9090 C   0  0  0  0  0  0  0  0  0  0  0  0
   -0.5590    1.0532   -0.6545 C   0  0  0  0  0  0  0  0  0  0  0  0
   -1.9453    0.7883   -0.6177 C   0  0  0  0  0  0  0  0  0  0  0  0
   -2.4772   -0.5079   -0.8203 C   0  0  0  0  0  0  0  0  0  0  0  0
   -2.0708   -2.6227   -1.2287 H   0  0  0  0  0  0  0  0  0  0  0  0
   -0.1446    2.0467   -0.4997 H   0  0  0  0  0  0  0  0  0  0  0  0
   -2.6314    1.6119   -0.4264 H   0  0  0  0  0  0  0  0  0  0  0  0
    2.7058    0.9993   -0.8645 N   0  0  0  0  0  0  0  0  0  0  0  0
    3.6851    0.5112   -1.0150 N   0  0  0  0  0  0  0  0  0  0  0  0
   -3.9466   -0.7583   -0.7759 C   0  0  0  0  0  0  0  0  0  0  0  0
   -4.4700   -1.8412   -0.9391 O   0  0  0  0  0  0  0  0  0  0  0  0
   -4.6769    0.3627   -0.5270 O   0  0  0  0  0  0  0  0  0  0  0  0
   -5.6068    0.0845   -0.5198 H   0  0  0  0  0  0  0  0  0  0  0  0
  1  6  1  0  0  0  0
  2  1  2  0  0  0  0
  2  3  1  0  0  0  0
  3  4  2  0  0  0  0
  4  5  1  0  0  0  0
  4  8  1  0  0  0  0
  5  9  1  0  0  0  0
  6 12  1  0  0  0  0
  6  5  2  0  0  0  0
  7  1  1  0  0  0  0
 11 10  3  0  0  0  0
 12 14  1  0  0  0  0
 13 12  2  0  0  0  0
 14 15  1  0  0  0  0
M  RAD  2   2   2   3   2
M  END
