Coordinates from ORCA-job 4-HOOC-C6H3-N2-B3LYPG-aug-cc-pVDZ-scan-d09-49-n400
 OpenBabel11091809033D

 15 15  0  0  0  0  0  0  0  0999 V2000
   -1.4164   -1.4710   -1.0597 C   0  0  0  0  0  0  0  0  0  0  0  0
   -0.0054   -1.2664   -1.1096 C   0  0  0  0  0  0  0  0  0  0  0  0
    0.2672    0.0526   -0.8871 C   0  0  0  0  0  0  0  0  0  0  0  0
   -0.5344    1.1798   -0.6332 C   0  0  0  0  0  0  0  0  0  0  0  0
   -1.8898    0.9010   -0.6002 C   0  0  0  0  0  0  0  0  0  0  0  0
   -2.3278   -0.4334   -0.8153 C   0  0  0  0  0  0  0  0  0  0  0  0
   -1.8290   -2.4696   -1.2155 H   0  0  0  0  0  0  0  0  0  0  0  0
   -0.1363    2.1824   -0.4758 H   0  0  0  0  0  0  0  0  0  0  0  0
   -2.6113    1.6918   -0.4123 H   0  0  0  0  0  0  0  0  0  0  0  0
    1.7630    0.3283   -0.9292 N   0  0  0  0  0  0  0  0  0  0  0  0
    2.8736    0.3391   -0.9957 N   0  0  0  0  0  0  0  0  0  0  0  0
   -3.7863   -0.7652   -0.7856 C   0  0  0  0  0  0  0  0  0  0  0  0
   -4.2544   -1.8700   -0.9582 O   0  0  0  0  0  0  0  0  0  0  0  0
   -4.5750    0.3190   -0.5414 O   0  0  0  0  0  0  0  0  0  0  0  0
   -5.4901   -0.0047   -0.5445 H   0  0  0  0  0  0  0  0  0  0  0  0
  1  6  1  0  0  0  0
  2  1  2  0  0  0  0
  2  3  1  0  0  0  0
  3  4  2  0  0  0  0
  4  5  1  0  0  0  0
  4  8  1  0  0  0  0
  5  9  1  0  0  0  0
  6 12  1  0  0  0  0
  6  5  2  0  0  0  0
  7  1  1  0  0  0  0
 10  3  1  0  0  0  0
 11 10  1  0  0  0  0
 12 14  1  0  0  0  0
 13 12  2  0  0  0  0
 15 14  1  0  0  0  0
M  RAD  3   2   2  10   2  11   3
M  END
