Coordinates from ORCA-job 4-HOOC-C6H3-N2-B3LYPG-aug-cc-pVDZ-scan-d09-49-n400
 OpenBabel11091809033D

 15 14  0  0  0  0  0  0  0  0999 V2000
   -2.0424   -1.9283   -1.1039 C   0  0  0  0  0  0  0  0  0  0  0  0
   -0.6688   -1.8084   -1.1661 C   0  0  0  0  0  0  0  0  0  0  0  0
    0.0178   -0.7703   -1.0203 C   0  0  0  0  0  0  0  0  0  0  0  0
   -0.4517    0.5105   -0.7599 C   0  0  0  0  0  0  0  0  0  0  0  0
   -1.8612    0.5105   -0.6738 C   0  0  0  0  0  0  0  0  0  0  0  0
   -2.6361   -0.6623   -0.8386 C   0  0  0  0  0  0  0  0  0  0  0  0
   -2.6498   -2.8212   -1.2283 H   0  0  0  0  0  0  0  0  0  0  0  0
    0.1374    1.4160   -0.6320 H   0  0  0  0  0  0  0  0  0  0  0  0
   -2.3726    1.4507   -0.4725 H   0  0  0  0  0  0  0  0  0  0  0  0
    3.3425    2.0928   -0.7069 N   0  0  0  0  0  0  0  0  0  0  0  0
    4.4086    1.8283   -0.8191 N   0  0  0  0  0  0  0  0  0  0  0  0
   -4.1239   -0.6304   -0.7421 C   0  0  0  0  0  0  0  0  0  0  0  0
   -4.8467   -1.5969   -0.8710 O   0  0  0  0  0  0  0  0  0  0  0  0
   -4.6203    0.6101   -0.4856 O   0  0  0  0  0  0  0  0  0  0  0  0
   -5.5852    0.5128   -0.4430 H   0  0  0  0  0  0  0  0  0  0  0  0
  1  6  1  0  0  0  0
  2  1  2  0  0  0  0
  2  3  1  0  0  0  0
  3  4  2  0  0  0  0
  4  5  1  0  0  0  0
  4  8  1  0  0  0  0
  5  9  1  0  0  0  0
  6 12  1  0  0  0  0
  6  5  2  0  0  0  0
  7  1  1  0  0  0  0
 11 10  3  0  0  0  0
 12 14  1  0  0  0  0
 13 12  2  0  0  0  0
 14 15  1  0  0  0  0
M  RAD  2   2   2   3   2
M  END
