Coordinates from ORCA-job 4-HOOC-C6H3-N2-B3LYPG-aug-cc-pVDZ-scan-d09-49-n400
 OpenBabel11091809033D

 15 15  0  0  0  0  0  0  0  0999 V2000
   -1.4147   -1.4757   -1.0609 C   0  0  0  0  0  0  0  0  0  0  0  0
    0.0022   -1.2977   -1.1157 C   0  0  0  0  0  0  0  0  0  0  0  0
    0.3041    0.0464   -0.8904 C   0  0  0  0  0  0  0  0  0  0  0  0
   -0.5252    1.1697   -0.6357 C   0  0  0  0  0  0  0  0  0  0  0  0
   -1.8761    0.8981   -0.6019 C   0  0  0  0  0  0  0  0  0  0  0  0
   -2.3195   -0.4371   -0.8169 C   0  0  0  0  0  0  0  0  0  0  0  0
   -1.8350   -2.4714   -1.2157 H   0  0  0  0  0  0  0  0  0  0  0  0
   -0.1297    2.1735   -0.4779 H   0  0  0  0  0  0  0  0  0  0  0  0
   -2.5953    1.6908   -0.4139 H   0  0  0  0  0  0  0  0  0  0  0  0
    1.7031    0.2943   -0.9314 N   0  0  0  0  0  0  0  0  0  0  0  0
    2.8112    0.4115   -0.9782 N   0  0  0  0  0  0  0  0  0  0  0  0
   -3.7812   -0.7617   -0.7859 C   0  0  0  0  0  0  0  0  0  0  0  0
   -4.2541   -1.8642   -0.9568 O   0  0  0  0  0  0  0  0  0  0  0  0
   -4.5623    0.3271   -0.5404 O   0  0  0  0  0  0  0  0  0  0  0  0
   -5.4799    0.0103   -0.5414 H   0  0  0  0  0  0  0  0  0  0  0  0
  1  6  1  0  0  0  0
  2  1  2  0  0  0  0
  2  3  1  0  0  0  0
  3  4  2  0  0  0  0
  4  5  1  0  0  0  0
  4  8  1  0  0  0  0
  5  9  1  0  0  0  0
  6 12  1  0  0  0  0
  6  5  2  0  0  0  0
  7  1  1  0  0  0  0
 10  3  1  0  0  0  0
 11 10  1  0  0  0  0
 12 14  1  0  0  0  0
 13 12  2  0  0  0  0
 15 14  1  0  0  0  0
M  RAD  3   2   2  10   2  11   3
M  END
