Coordinates from ORCA-job 4-HOOC-C6H3-N2-B3LYPG-aug-cc-pVDZ-scan-d09-49-n400
 OpenBabel11091809033D

 15 14  0  0  0  0  0  0  0  0999 V2000
   -1.9044   -1.8256   -1.0935 C   0  0  0  0  0  0  0  0  0  0  0  0
   -0.5419   -1.6055   -1.1369 C   0  0  0  0  0  0  0  0  0  0  0  0
    0.0599   -0.5180   -0.9766 C   0  0  0  0  0  0  0  0  0  0  0  0
   -0.5055    0.7225   -0.7173 C   0  0  0  0  0  0  0  0  0  0  0  0
   -1.9122    0.6178   -0.6502 C   0  0  0  0  0  0  0  0  0  0  0  0
   -2.5946   -0.6089   -0.8308 C   0  0  0  0  0  0  0  0  0  0  0  0
   -2.4423   -2.7603   -1.2301 H   0  0  0  0  0  0  0  0  0  0  0  0
    0.0164    1.6665   -0.5781 H   0  0  0  0  0  0  0  0  0  0  0  0
   -2.4949    1.5161   -0.4518 H   0  0  0  0  0  0  0  0  0  0  0  0
    3.2380    1.7453   -0.7623 N   0  0  0  0  0  0  0  0  0  0  0  0
    4.2413    1.3077   -0.9067 N   0  0  0  0  0  0  0  0  0  0  0  0
   -4.0817   -0.6888   -0.7544 C   0  0  0  0  0  0  0  0  0  0  0  0
   -4.7286   -1.7055   -0.8997 O   0  0  0  0  0  0  0  0  0  0  0  0
   -4.6731    0.5100   -0.5011 O   0  0  0  0  0  0  0  0  0  0  0  0
   -5.6286    0.3408   -0.4736 H   0  0  0  0  0  0  0  0  0  0  0  0
  1  6  1  0  0  0  0
  2  1  2  0  0  0  0
  2  3  1  0  0  0  0
  3  4  2  0  0  0  0
  4  5  1  0  0  0  0
  4  8  1  0  0  0  0
  5  9  1  0  0  0  0
  6 12  1  0  0  0  0
  6  5  2  0  0  0  0
  7  1  1  0  0  0  0
 11 10  3  0  0  0  0
 12 14  1  0  0  0  0
 13 12  2  0  0  0  0
 14 15  1  0  0  0  0
M  RAD  2   2   2   3   2
M  END
