Coordinates from ORCA-job 4-HOOC-C6H3-N2-B3LYPG-aug-cc-pVDZ-scan-d09-49-n400
 OpenBabel11091809033D

 15 15  0  0  0  0  0  0  0  0999 V2000
   -1.4271   -1.4742   -1.0597 C   0  0  0  0  0  0  0  0  0  0  0  0
   -0.0447   -1.1845   -1.0922 C   0  0  0  0  0  0  0  0  0  0  0  0
    0.2270    0.0753   -0.8804 C   0  0  0  0  0  0  0  0  0  0  0  0
   -0.5455    1.1988   -0.6290 C   0  0  0  0  0  0  0  0  0  0  0  0
   -1.9079    0.8974   -0.5998 C   0  0  0  0  0  0  0  0  0  0  0  0
   -2.3449   -0.4329   -0.8143 C   0  0  0  0  0  0  0  0  0  0  0  0
   -1.8165   -2.4805   -1.2183 H   0  0  0  0  0  0  0  0  0  0  0  0
   -0.1522    2.2031   -0.4710 H   0  0  0  0  0  0  0  0  0  0  0  0
   -2.6341    1.6846   -0.4123 H   0  0  0  0  0  0  0  0  0  0  0  0
    1.8960    0.4550   -0.9143 N   0  0  0  0  0  0  0  0  0  0  0  0
    2.9602    0.1533   -1.0348 N   0  0  0  0  0  0  0  0  0  0  0  0
   -3.7985   -0.7734   -0.7865 C   0  0  0  0  0  0  0  0  0  0  0  0
   -4.2583   -1.8825   -0.9602 O   0  0  0  0  0  0  0  0  0  0  0  0
   -4.5971    0.3035   -0.5428 O   0  0  0  0  0  0  0  0  0  0  0  0
   -5.5089   -0.0291   -0.5476 H   0  0  0  0  0  0  0  0  0  0  0  0
  1  6  1  0  0  0  0
  2  1  2  0  0  0  0
  2  3  1  0  0  0  0
  3  4  2  0  0  0  0
  4  5  1  0  0  0  0
  4  8  1  0  0  0  0
  5  9  1  0  0  0  0
  6 12  1  0  0  0  0
  6  5  2  0  0  0  0
  7  1  1  0  0  0  0
 10  3  1  0  0  0  0
 11 10  2  0  0  0  0
 12 14  1  0  0  0  0
 13 12  2  0  0  0  0
 15 14  1  0  0  0  0
M  RAD  2   2   2  11   2
M  END
