Coordinates from ORCA-job 4-HOOC-C6H3-N2-B3LYPG-aug-cc-pVDZ-scan-d09-49-n400
 OpenBabel11091809033D

 15 14  0  0  0  0  0  0  0  0999 V2000
   -2.1619   -2.0121   -1.1115 C   0  0  0  0  0  0  0  0  0  0  0  0
   -0.7841   -1.9893   -1.1905 C   0  0  0  0  0  0  0  0  0  0  0  0
   -0.0235   -1.0022   -1.0586 C   0  0  0  0  0  0  0  0  0  0  0  0
   -0.3990    0.3100   -0.7996 C   0  0  0  0  0  0  0  0  0  0  0  0
   -1.8037    0.4097   -0.6970 C   0  0  0  0  0  0  0  0  0  0  0  0
   -2.6615   -0.7062   -0.8465 C   0  0  0  0  0  0  0  0  0  0  0  0
   -2.8321   -2.8605   -1.2241 H   0  0  0  0  0  0  0  0  0  0  0  0
    0.2534    1.1729   -0.6834 H   0  0  0  0  0  0  0  0  0  0  0  0
   -2.2450    1.3846   -0.4949 H   0  0  0  0  0  0  0  0  0  0  0  0
    3.3713    2.3810   -0.6550 N   0  0  0  0  0  0  0  0  0  0  0  0
    4.4693    2.2990   -0.7379 N   0  0  0  0  0  0  0  0  0  0  0  0
   -4.1420   -0.5687   -0.7330 C   0  0  0  0  0  0  0  0  0  0  0  0
   -4.9326   -1.4831   -0.8440 O   0  0  0  0  0  0  0  0  0  0  0  0
   -4.5462    0.7040   -0.4724 O   0  0  0  0  0  0  0  0  0  0  0  0
   -5.5148    0.6747   -0.4148 H   0  0  0  0  0  0  0  0  0  0  0  0
  1  6  1  0  0  0  0
  2  1  2  0  0  0  0
  2  3  1  0  0  0  0
  3  4  2  0  0  0  0
  4  5  1  0  0  0  0
  4  8  1  0  0  0  0
  5  9  1  0  0  0  0
  6 12  1  0  0  0  0
  6  5  2  0  0  0  0
  7  1  1  0  0  0  0
 11 10  3  0  0  0  0
 12 14  1  0  0  0  0
 13 12  2  0  0  0  0
 14 15  1  0  0  0  0
M  RAD  2   2   2   3   2
M  END
