Coordinates from ORCA-job 4-HOOC-C6H3-N2-B3LYPG-aug-cc-pVDZ-scan-d09-49-n400
 OpenBabel11091809033D

 15 14  0  0  0  0  0  0  0  0999 V2000
   -1.7688   -1.7231   -1.0836 C   0  0  0  0  0  0  0  0  0  0  0  0
   -0.4231   -1.4144   -1.1103 C   0  0  0  0  0  0  0  0  0  0  0  0
    0.1042   -0.2907   -0.9389 C   0  0  0  0  0  0  0  0  0  0  0  0
   -0.5442    0.9087   -0.6816 C   0  0  0  0  0  0  0  0  0  0  0  0
   -1.9416    0.7128   -0.6313 C   0  0  0  0  0  0  0  0  0  0  0  0
   -2.5400   -0.5553   -0.8245 C   0  0  0  0  0  0  0  0  0  0  0  0
   -2.2430   -2.6903   -1.2299 H   0  0  0  0  0  0  0  0  0  0  0  0
   -0.0834    1.8827   -0.5333 H   0  0  0  0  0  0  0  0  0  0  0  0
   -2.5839    1.5702   -0.4364 H   0  0  0  0  0  0  0  0  0  0  0  0
    3.0336    1.3833   -0.8156 N   0  0  0  0  0  0  0  0  0  0  0  0
    3.9790    0.8359   -0.9744 N   0  0  0  0  0  0  0  0  0  0  0  0
   -4.0195   -0.7328   -0.7657 C   0  0  0  0  0  0  0  0  0  0  0  0
   -4.5968   -1.7890   -0.9223 O   0  0  0  0  0  0  0  0  0  0  0  0
   -4.6911    0.4237   -0.5155 O   0  0  0  0  0  0  0  0  0  0  0  0
   -5.6337    0.1923   -0.4999 H   0  0  0  0  0  0  0  0  0  0  0  0
  1  6  1  0  0  0  0
  2  1  2  0  0  0  0
  2  3  1  0  0  0  0
  3  4  2  0  0  0  0
  4  5  1  0  0  0  0
  4  8  1  0  0  0  0
  5  9  1  0  0  0  0
  6 12  1  0  0  0  0
  6  5  2  0  0  0  0
  7  1  1  0  0  0  0
 11 10  3  0  0  0  0
 12 14  1  0  0  0  0
 13 12  2  0  0  0  0
 14 15  1  0  0  0  0
M  RAD  2   2   2   3   2
M  END
