Coordinates from ORCA-job 4-HOOC-C6H3-N2-B3LYPG-aug-cc-pVDZ-scan-d09-49-n400
 OpenBabel11091809033D

 15 14  0  0  0  0  0  0  0  0999 V2000
   -1.8370   -1.7756   -1.0891 C   0  0  0  0  0  0  0  0  0  0  0  0
   -0.4823   -1.5106   -1.1238 C   0  0  0  0  0  0  0  0  0  0  0  0
    0.0812   -0.4037   -0.9578 C   0  0  0  0  0  0  0  0  0  0  0  0
   -0.5249    0.8175   -0.6998 C   0  0  0  0  0  0  0  0  0  0  0  0
   -1.9280    0.6656   -0.6417 C   0  0  0  0  0  0  0  0  0  0  0  0
   -2.5684   -0.5827   -0.8286 C   0  0  0  0  0  0  0  0  0  0  0  0
   -2.3430   -2.7272   -1.2305 H   0  0  0  0  0  0  0  0  0  0  0  0
   -0.0365    1.7785   -0.5557 H   0  0  0  0  0  0  0  0  0  0  0  0
   -2.5415    1.5436   -0.4454 H   0  0  0  0  0  0  0  0  0  0  0  0
    3.1502    1.5775   -0.7872 N   0  0  0  0  0  0  0  0  0  0  0  0
    4.1136    1.0604   -0.9406 N   0  0  0  0  0  0  0  0  0  0  0  0
   -4.0526   -0.7116   -0.7617 C   0  0  0  0  0  0  0  0  0  0  0  0
   -4.6646   -1.7492   -0.9101 O   0  0  0  0  0  0  0  0  0  0  0  0
   -4.6845    0.4661   -0.5072 O   0  0  0  0  0  0  0  0  0  0  0  0
   -5.6340    0.2653   -0.4840 H   0  0  0  0  0  0  0  0  0  0  0  0
  1  6  1  0  0  0  0
  2  1  2  0  0  0  0
  2  3  1  0  0  0  0
  3  4  2  0  0  0  0
  4  5  1  0  0  0  0
  4  8  1  0  0  0  0
  5  9  1  0  0  0  0
  6 12  1  0  0  0  0
  6  5  2  0  0  0  0
  7  1  1  0  0  0  0
 11 10  3  0  0  0  0
 12 14  1  0  0  0  0
 13 12  2  0  0  0  0
 14 15  1  0  0  0  0
M  RAD  2   2   2   3   2
M  END
