Coordinates from ORCA-job 4-HOOC-C6H3-N2-B3LYPG-aug-cc-pVDZ-scan-d09-49-n400
 OpenBabel11081810443D

 15 15  0  0  0  0  0  0  0  0999 V2000
   -1.4037   -1.4745   -1.0610 C   0  0  0  0  0  0  0  0  0  0  0  0
    0.0155   -1.3455   -1.1256 C   0  0  0  0  0  0  0  0  0  0  0  0
    0.4141    0.0582   -0.8965 C   0  0  0  0  0  0  0  0  0  0  0  0
   -0.5052    1.1510   -0.6404 C   0  0  0  0  0  0  0  0  0  0  0  0
   -1.8469    0.8922   -0.6044 C   0  0  0  0  0  0  0  0  0  0  0  0
   -2.3030   -0.4397   -0.8180 C   0  0  0  0  0  0  0  0  0  0  0  0
   -1.8267   -2.4698   -1.2152 H   0  0  0  0  0  0  0  0  0  0  0  0
   -0.1117    2.1566   -0.4818 H   0  0  0  0  0  0  0  0  0  0  0  0
   -2.5571    1.6928   -0.4149 H   0  0  0  0  0  0  0  0  0  0  0  0
    1.5331    0.2777   -0.9245 N   0  0  0  0  0  0  0  0  0  0  0  0
    2.6508    0.4647   -0.9582 N   0  0  0  0  0  0  0  0  0  0  0  0
   -3.7690   -0.7579   -0.7849 C   0  0  0  0  0  0  0  0  0  0  0  0
   -4.2420   -1.8590   -0.9570 O   0  0  0  0  0  0  0  0  0  0  0  0
   -4.5393    0.3358   -0.5406 O   0  0  0  0  0  0  0  0  0  0  0  0
   -5.4613    0.0313   -0.5400 H   0  0  0  0  0  0  0  0  0  0  0  0
  1  6  1  0  0  0  0
  2  1  2  0  0  0  0
  2  3  1  0  0  0  0
  3  4  2  0  0  0  0
  4  5  1  0  0  0  0
  4  8  1  0  0  0  0
  5  9  1  0  0  0  0
  6 12  1  0  0  0  0
  6  5  2  0  0  0  0
  7  1  1  0  0  0  0
 10  3  1  0  0  0  0
 11 10  1  0  0  0  0
 12 14  1  0  0  0  0
 13 12  2  0  0  0  0
 14 15  1  0  0  0  0
M  RAD  3   2   2  10   2  11   3
M  END
