Coordinates from ORCA-job 4-HOOC-C6H3-N2-B3LYPG-aug-cc-pVDZ-scan-d09-49-n400
 OpenBabel11091809033D

 15 14  0  0  0  0  0  0  0  0999 V2000
   -1.9815   -1.8836   -1.0995 C   0  0  0  0  0  0  0  0  0  0  0  0
   -0.6116   -1.7192   -1.1534 C   0  0  0  0  0  0  0  0  0  0  0  0
    0.0349   -0.6566   -1.0007 C   0  0  0  0  0  0  0  0  0  0  0  0
   -0.4768    0.6074   -0.7409 C   0  0  0  0  0  0  0  0  0  0  0  0
   -1.8862    0.5593   -0.6636 C   0  0  0  0  0  0  0  0  0  0  0  0
   -2.6194   -0.6391   -0.8356 C   0  0  0  0  0  0  0  0  0  0  0  0
   -2.5580   -2.7960   -1.2294 H   0  0  0  0  0  0  0  0  0  0  0  0
    0.0825    1.5308   -0.6080 H   0  0  0  0  0  0  0  0  0  0  0  0
   -2.4306    1.4810   -0.4637 H   0  0  0  0  0  0  0  0  0  0  0  0
    3.3080    1.9426   -0.7320 N   0  0  0  0  0  0  0  0  0  0  0  0
    4.3482    1.5942   -0.8575 N   0  0  0  0  0  0  0  0  0  0  0  0
   -4.1080   -0.6578   -0.7484 C   0  0  0  0  0  0  0  0  0  0  0  0
   -4.7969   -1.6480   -0.8836 O   0  0  0  0  0  0  0  0  0  0  0  0
   -4.6478    0.5645   -0.4918 O   0  0  0  0  0  0  0  0  0  0  0  0
   -5.6091    0.4343   -0.4551 H   0  0  0  0  0  0  0  0  0  0  0  0
  1  6  1  0  0  0  0
  2  1  2  0  0  0  0
  2  3  1  0  0  0  0
  3  4  2  0  0  0  0
  4  5  1  0  0  0  0
  4  8  1  0  0  0  0
  5  9  1  0  0  0  0
  6 12  1  0  0  0  0
  6  5  2  0  0  0  0
  7  1  1  0  0  0  0
 11 10  3  0  0  0  0
 12 14  1  0  0  0  0
 13 12  2  0  0  0  0
 14 15  1  0  0  0  0
M  RAD  2   2   2   3   2
M  END
