Coordinates from ORCA-job 4-HOOC-C6H3-N2-B3LYPG-aug-cc-pVDZ-scan-d09-49-n400
 OpenBabel11091809033D

 15 14  0  0  0  0  0  0  0  0999 V2000
   -1.5141   -1.5417   -1.0664 C   0  0  0  0  0  0  0  0  0  0  0  0
   -0.1775   -1.1534   -1.0781 C   0  0  0  0  0  0  0  0  0  0  0  0
    0.1783    0.0379   -0.8839 C   0  0  0  0  0  0  0  0  0  0  0  0
   -0.5590    1.1756   -0.6322 C   0  0  0  0  0  0  0  0  0  0  0  0
   -1.9320    0.8571   -0.6056 C   0  0  0  0  0  0  0  0  0  0  0  0
   -2.4014   -0.4622   -0.8160 C   0  0  0  0  0  0  0  0  0  0  0  0
   -1.8995   -2.5470   -1.2250 H   0  0  0  0  0  0  0  0  0  0  0  0
   -0.1761    2.1818   -0.4732 H   0  0  0  0  0  0  0  0  0  0  0  0
   -2.6529    1.6508   -0.4172 H   0  0  0  0  0  0  0  0  0  0  0  0
    2.3034    0.6912   -0.8963 N   0  0  0  0  0  0  0  0  0  0  0  0
    3.2686    0.1727   -1.0513 N   0  0  0  0  0  0  0  0  0  0  0  0
   -3.8590   -0.7761   -0.7832 C   0  0  0  0  0  0  0  0  0  0  0  0
   -4.3352   -1.8792   -0.9549 O   0  0  0  0  0  0  0  0  0  0  0  0
   -4.6395    0.3124   -0.5389 O   0  0  0  0  0  0  0  0  0  0  0  0
   -5.5565   -0.0059   -0.5409 H   0  0  0  0  0  0  0  0  0  0  0  0
  1  6  1  0  0  0  0
  2  1  2  0  0  0  0
  2  3  1  0  0  0  0
  3  4  2  0  0  0  0
  4  5  1  0  0  0  0
  4  8  1  0  0  0  0
  5  9  1  0  0  0  0
  6 12  1  0  0  0  0
  6  5  2  0  0  0  0
  7  1  1  0  0  0  0
 11 10  3  0  0  0  0
 12 14  1  0  0  0  0
 13 12  2  0  0  0  0
 15 14  1  0  0  0  0
M  RAD  2   2   2   3   2
M  END
