Coordinates from ORCA-job 4-HOOC-C6H3-N2-B3LYPG-aug-cc-pVDZ-scan-d09-49-n400
 OpenBabel11091809033D

 15 14  0  0  0  0  0  0  0  0999 V2000
   -2.0775   -1.9534   -1.1062 C   0  0  0  0  0  0  0  0  0  0  0  0
   -0.7021   -1.8609   -1.1741 C   0  0  0  0  0  0  0  0  0  0  0  0
    0.0065   -0.8372   -1.0320 C   0  0  0  0  0  0  0  0  0  0  0  0
   -0.4367    0.4530   -0.7705 C   0  0  0  0  0  0  0  0  0  0  0  0
   -1.8454    0.4815   -0.6786 C   0  0  0  0  0  0  0  0  0  0  0  0
   -2.6444   -0.6756   -0.8393 C   0  0  0  0  0  0  0  0  0  0  0  0
   -2.7031   -2.8341   -1.2274 H   0  0  0  0  0  0  0  0  0  0  0  0
    0.1713    1.3465   -0.6458 H   0  0  0  0  0  0  0  0  0  0  0  0
   -2.3369    1.4319   -0.4758 H   0  0  0  0  0  0  0  0  0  0  0  0
    3.3557    2.1778   -0.6925 N   0  0  0  0  0  0  0  0  0  0  0  0
    4.4342    1.9662   -0.7978 N   0  0  0  0  0  0  0  0  0  0  0  0
   -4.1308   -0.6138   -0.7364 C   0  0  0  0  0  0  0  0  0  0  0  0
   -4.8737   -1.5651   -0.8649 O   0  0  0  0  0  0  0  0  0  0  0  0
   -4.6014    0.6373   -0.4830 O   0  0  0  0  0  0  0  0  0  0  0  0
   -5.5681    0.5600   -0.4389 H   0  0  0  0  0  0  0  0  0  0  0  0
  1  6  1  0  0  0  0
  2  1  2  0  0  0  0
  2  3  1  0  0  0  0
  3  4  2  0  0  0  0
  4  5  1  0  0  0  0
  4  8  1  0  0  0  0
  5  9  1  0  0  0  0
  6 12  1  0  0  0  0
  6  5  2  0  0  0  0
  7  1  1  0  0  0  0
 11 10  3  0  0  0  0
 12 14  1  0  0  0  0
 13 12  2  0  0  0  0
 14 15  1  0  0  0  0
M  RAD  2   2   2   3   2
M  END
