Coordinates from ORCA-job 4-HOOC-C6H3-N2-B3LYPG-aug-cc-pVDZ-scan-d09-49-n400
 OpenBabel11091809033D

 15 15  0  0  0  0  0  0  0  0999 V2000
   -1.4539   -1.4983   -1.0620 C   0  0  0  0  0  0  0  0  0  0  0  0
   -0.0944   -1.1533   -1.0837 C   0  0  0  0  0  0  0  0  0  0  0  0
    0.2064    0.0713   -0.8801 C   0  0  0  0  0  0  0  0  0  0  0  0
   -0.5476    1.1988   -0.6287 C   0  0  0  0  0  0  0  0  0  0  0  0
   -1.9146    0.8830   -0.6012 C   0  0  0  0  0  0  0  0  0  0  0  0
   -2.3624   -0.4432   -0.8140 C   0  0  0  0  0  0  0  0  0  0  0  0
   -1.8357   -2.5064   -1.2212 H   0  0  0  0  0  0  0  0  0  0  0  0
   -0.1606    2.2047   -0.4701 H   0  0  0  0  0  0  0  0  0  0  0  0
   -2.6408    1.6709   -0.4131 H   0  0  0  0  0  0  0  0  0  0  0  0
    2.0362    0.5535   -0.9060 N   0  0  0  0  0  0  0  0  0  0  0  0
    3.0469    0.1156   -1.0479 N   0  0  0  0  0  0  0  0  0  0  0  0
   -3.8165   -0.7765   -0.7840 C   0  0  0  0  0  0  0  0  0  0  0  0
   -4.2802   -1.8840   -0.9598 O   0  0  0  0  0  0  0  0  0  0  0  0
   -4.6111    0.3035   -0.5429 O   0  0  0  0  0  0  0  0  0  0  0  0
   -5.5242   -0.0258   -0.5487 H   0  0  0  0  0  0  0  0  0  0  0  0
  1  6  1  0  0  0  0
  2  1  2  0  0  0  0
  2  3  1  0  0  0  0
  3  4  2  0  0  0  0
  4  5  1  0  0  0  0
  4  8  1  0  0  0  0
  5  9  1  0  0  0  0
  6 12  1  0  0  0  0
  6  5  2  0  0  0  0
  7  1  1  0  0  0  0
 10  3  1  0  0  0  0
 11 10  2  0  0  0  0
 12 14  1  0  0  0  0
 13 12  2  0  0  0  0
 15 14  1  0  0  0  0
M  RAD  2   2   2  11   2
M  END
