Coordinates from ORCA-job 4-HOOC-C6H3-N2-B3LYPG-aug-cc-pVDZ-scan-d09-49-n400
 OpenBabel11091809033D

 15 15  0  0  0  0  0  0  0  0999 V2000
   -1.4173   -1.4681   -1.0591 C   0  0  0  0  0  0  0  0  0  0  0  0
   -0.0116   -1.2454   -1.1054 C   0  0  0  0  0  0  0  0  0  0  0  0
    0.2528    0.0597   -0.8849 C   0  0  0  0  0  0  0  0  0  0  0  0
   -0.5397    1.1861   -0.6316 C   0  0  0  0  0  0  0  0  0  0  0  0
   -1.8969    0.9023   -0.5994 C   0  0  0  0  0  0  0  0  0  0  0  0
   -2.3324   -0.4314   -0.8145 C   0  0  0  0  0  0  0  0  0  0  0  0
   -1.8239   -2.4689   -1.2155 H   0  0  0  0  0  0  0  0  0  0  0  0
   -0.1419    2.1888   -0.4742 H   0  0  0  0  0  0  0  0  0  0  0  0
   -2.6199    1.6917   -0.4115 H   0  0  0  0  0  0  0  0  0  0  0  0
    1.7960    0.3544   -0.9267 N   0  0  0  0  0  0  0  0  0  0  0  0
    2.9032    0.2861   -1.0074 N   0  0  0  0  0  0  0  0  0  0  0  0
   -3.7891   -0.7676   -0.7854 C   0  0  0  0  0  0  0  0  0  0  0  0
   -4.2538   -1.8739   -0.9591 O   0  0  0  0  0  0  0  0  0  0  0  0
   -4.5821    0.3138   -0.5421 O   0  0  0  0  0  0  0  0  0  0  0  0
   -5.4958   -0.0137   -0.5464 H   0  0  0  0  0  0  0  0  0  0  0  0
  1  6  1  0  0  0  0
  2  1  2  0  0  0  0
  2  3  1  0  0  0  0
  3  4  2  0  0  0  0
  4  5  1  0  0  0  0
  4  8  1  0  0  0  0
  5  9  1  0  0  0  0
  6 12  1  0  0  0  0
  6  5  2  0  0  0  0
  7  1  1  0  0  0  0
 10  3  1  0  0  0  0
 11 10  1  0  0  0  0
 12 14  1  0  0  0  0
 13 12  2  0  0  0  0
 15 14  1  0  0  0  0
M  RAD  3   2   2  10   2  11   3
M  END
