Coordinates from ORCA-job 4-HOOC-C6H3-N2-B3LYPG-aug-cc-pVDZ-scan-d09-49-n400
 OpenBabel11091809033D

 15 14  0  0  0  0  0  0  0  0999 V2000
   -1.7405   -1.7021   -1.0813 C   0  0  0  0  0  0  0  0  0  0  0  0
   -0.3983   -1.3776   -1.1053 C   0  0  0  0  0  0  0  0  0  0  0  0
    0.1135   -0.2471   -0.9316 C   0  0  0  0  0  0  0  0  0  0  0  0
   -0.5494    0.9440   -0.6743 C   0  0  0  0  0  0  0  0  0  0  0  0
   -1.9443    0.7309   -0.6268 C   0  0  0  0  0  0  0  0  0  0  0  0
   -2.5267   -0.5443   -0.8223 C   0  0  0  0  0  0  0  0  0  0  0  0
   -2.2025   -2.6750   -1.2293 H   0  0  0  0  0  0  0  0  0  0  0  0
   -0.1005    1.9232   -0.5243 H   0  0  0  0  0  0  0  0  0  0  0  0
   -2.5976    1.5801   -0.4321 H   0  0  0  0  0  0  0  0  0  0  0  0
    2.9679    1.2948   -0.8283 N   0  0  0  0  0  0  0  0  0  0  0  0
    3.9187    0.7558   -0.9868 N   0  0  0  0  0  0  0  0  0  0  0  0
   -4.0040   -0.7402   -0.7661 C   0  0  0  0  0  0  0  0  0  0  0  0
   -4.5681   -1.8027   -0.9275 O   0  0  0  0  0  0  0  0  0  0  0  0
   -4.6904    0.4084   -0.5194 O   0  0  0  0  0  0  0  0  0  0  0  0
   -5.6302    0.1657   -0.5079 H   0  0  0  0  0  0  0  0  0  0  0  0
  1  6  1  0  0  0  0
  2  1  2  0  0  0  0
  2  3  1  0  0  0  0
  3  4  2  0  0  0  0
  4  5  1  0  0  0  0
  4  8  1  0  0  0  0
  5  9  1  0  0  0  0
  6 12  1  0  0  0  0
  6  5  2  0  0  0  0
  7  1  1  0  0  0  0
 11 10  3  0  0  0  0
 12 14  1  0  0  0  0
 13 12  2  0  0  0  0
 14 15  1  0  0  0  0
M  RAD  2   2   2   3   2
M  END
