Coordinates from ORCA-job 4-HOOC-C6H3-N2-B3LYPG-aug-cc-pVDZ-scan-d09-49-n400
 OpenBabel11091809033D

 15 14  0  0  0  0  0  0  0  0999 V2000
   -1.9731   -1.8774   -1.0990 C   0  0  0  0  0  0  0  0  0  0  0  0
   -0.6038   -1.7070   -1.1512 C   0  0  0  0  0  0  0  0  0  0  0  0
    0.0372   -0.6412   -0.9977 C   0  0  0  0  0  0  0  0  0  0  0  0
   -0.4800    0.6206   -0.7387 C   0  0  0  0  0  0  0  0  0  0  0  0
   -1.8892    0.5660   -0.6633 C   0  0  0  0  0  0  0  0  0  0  0  0
   -2.6169   -0.6357   -0.8362 C   0  0  0  0  0  0  0  0  0  0  0  0
   -2.5454   -2.7923   -1.2296 H   0  0  0  0  0  0  0  0  0  0  0  0
    0.0746    1.5468   -0.6052 H   0  0  0  0  0  0  0  0  0  0  0  0
   -2.4382    1.4852   -0.4643 H   0  0  0  0  0  0  0  0  0  0  0  0
    3.3016    1.9209   -0.7347 N   0  0  0  0  0  0  0  0  0  0  0  0
    4.3381    1.5622   -0.8617 N   0  0  0  0  0  0  0  0  0  0  0  0
   -4.1055   -0.6610   -0.7512 C   0  0  0  0  0  0  0  0  0  0  0  0
   -4.7896   -1.6547   -0.8842 O   0  0  0  0  0  0  0  0  0  0  0  0
   -4.6509    0.5582   -0.4918 O   0  0  0  0  0  0  0  0  0  0  0  0
   -5.6115    0.4233   -0.4542 H   0  0  0  0  0  0  0  0  0  0  0  0
  1  6  1  0  0  0  0
  2  1  2  0  0  0  0
  2  3  1  0  0  0  0
  3  4  2  0  0  0  0
  4  5  1  0  0  0  0
  4  8  1  0  0  0  0
  5  9  1  0  0  0  0
  6 12  1  0  0  0  0
  6  5  2  0  0  0  0
  7  1  1  0  0  0  0
 11 10  3  0  0  0  0
 12 14  1  0  0  0  0
 13 12  2  0  0  0  0
 14 15  1  0  0  0  0
M  RAD  2   2   2   3   2
M  END
