Coordinates from ORCA-job 4-HOOC-C6H3-N2-B3LYPG-aug-cc-pVDZ-scan-d09-49-n400
 OpenBabel11091809033D

 15 14  0  0  0  0  0  0  0  0999 V2000
   -1.5340   -1.5565   -1.0679 C   0  0  0  0  0  0  0  0  0  0  0  0
   -0.1990   -1.1682   -1.0796 C   0  0  0  0  0  0  0  0  0  0  0  0
    0.1714    0.0169   -0.8874 C   0  0  0  0  0  0  0  0  0  0  0  0
   -0.5593    1.1598   -0.6351 C   0  0  0  0  0  0  0  0  0  0  0  0
   -1.9349    0.8471   -0.6072 C   0  0  0  0  0  0  0  0  0  0  0  0
   -2.4132   -0.4689   -0.8165 C   0  0  0  0  0  0  0  0  0  0  0  0
   -1.9250   -2.5595   -1.2258 H   0  0  0  0  0  0  0  0  0  0  0  0
   -0.1751    2.1651   -0.4763 H   0  0  0  0  0  0  0  0  0  0  0  0
   -2.6517    1.6447   -0.4184 H   0  0  0  0  0  0  0  0  0  0  0  0
    2.3706    0.7351   -0.8926 N   0  0  0  0  0  0  0  0  0  0  0  0
    3.3371    0.2201   -1.0466 N   0  0  0  0  0  0  0  0  0  0  0  0
   -3.8726   -0.7736   -0.7820 C   0  0  0  0  0  0  0  0  0  0  0  0
   -4.3554   -1.8741   -0.9526 O   0  0  0  0  0  0  0  0  0  0  0  0
   -4.6463    0.3194   -0.5372 O   0  0  0  0  0  0  0  0  0  0  0  0
   -5.5652    0.0066   -0.5380 H   0  0  0  0  0  0  0  0  0  0  0  0
  1  6  1  0  0  0  0
  2  1  2  0  0  0  0
  2  3  1  0  0  0  0
  3  4  2  0  0  0  0
  4  5  1  0  0  0  0
  4  8  1  0  0  0  0
  5  9  1  0  0  0  0
  6 12  1  0  0  0  0
  6  5  2  0  0  0  0
  7  1  1  0  0  0  0
 11 10  3  0  0  0  0
 12 14  1  0  0  0  0
 13 12  2  0  0  0  0
 15 14  1  0  0  0  0
M  RAD  2   2   2   3   2
M  END
