Coordinates from ORCA-job 4-HOOC-C6H3-N2-B3LYPG-aug-cc-pVDZ-scan-d09-49-n400
 OpenBabel11091809033D

 15 15  0  0  0  0  0  0  0  0999 V2000
   -1.4185   -1.4683   -1.0588 C   0  0  0  0  0  0  0  0  0  0  0  0
   -0.0147   -1.2390   -1.1041 C   0  0  0  0  0  0  0  0  0  0  0  0
    0.2468    0.0603   -0.8845 C   0  0  0  0  0  0  0  0  0  0  0  0
   -0.5407    1.1872   -0.6312 C   0  0  0  0  0  0  0  0  0  0  0  0
   -1.8988    0.9019   -0.5990 C   0  0  0  0  0  0  0  0  0  0  0  0
   -2.3343   -0.4315   -0.8139 C   0  0  0  0  0  0  0  0  0  0  0  0
   -1.8231   -2.4699   -1.2154 H   0  0  0  0  0  0  0  0  0  0  0  0
   -0.1422    2.1896   -0.4740 H   0  0  0  0  0  0  0  0  0  0  0  0
   -2.6218    1.6912   -0.4109 H   0  0  0  0  0  0  0  0  0  0  0  0
    1.8086    0.3649   -0.9259 N   0  0  0  0  0  0  0  0  0  0  0  0
    2.9135    0.2733   -1.0109 N   0  0  0  0  0  0  0  0  0  0  0  0
   -3.7905   -0.7684   -0.7847 C   0  0  0  0  0  0  0  0  0  0  0  0
   -4.2547   -1.8749   -0.9595 O   0  0  0  0  0  0  0  0  0  0  0  0
   -4.5843    0.3127   -0.5426 O   0  0  0  0  0  0  0  0  0  0  0  0
   -5.4978   -0.0154   -0.5477 H   0  0  0  0  0  0  0  0  0  0  0  0
  1  6  1  0  0  0  0
  2  1  2  0  0  0  0
  2  3  1  0  0  0  0
  3  4  2  0  0  0  0
  4  5  1  0  0  0  0
  4  8  1  0  0  0  0
  5  9  1  0  0  0  0
  6 12  1  0  0  0  0
  6  5  2  0  0  0  0
  7  1  1  0  0  0  0
 10  3  1  0  0  0  0
 11 10  1  0  0  0  0
 12 14  1  0  0  0  0
 13 12  2  0  0  0  0
 15 14  1  0  0  0  0
M  RAD  3   2   2  10   2  11   3
M  END
