Coordinates from ORCA-job 4-HOOC-C6H3-N2-B3LYPG-aug-cc-pVDZ-scan-d09-49-n400
 OpenBabel11091809033D

 15 14  0  0  0  0  0  0  0  0999 V2000
   -1.7191   -1.6867   -1.0797 C   0  0  0  0  0  0  0  0  0  0  0  0
   -0.3792   -1.3511   -1.1017 C   0  0  0  0  0  0  0  0  0  0  0  0
    0.1205   -0.2155   -0.9263 C   0  0  0  0  0  0  0  0  0  0  0  0
   -0.5522    0.9698   -0.6693 C   0  0  0  0  0  0  0  0  0  0  0  0
   -1.9453    0.7441   -0.6240 C   0  0  0  0  0  0  0  0  0  0  0  0
   -2.5159   -0.5361   -0.8211 C   0  0  0  0  0  0  0  0  0  0  0  0
   -2.1723   -2.6635   -1.2290 H   0  0  0  0  0  0  0  0  0  0  0  0
   -0.1116    1.9525   -0.5181 H   0  0  0  0  0  0  0  0  0  0  0  0
   -2.6064    1.5873   -0.4298 H   0  0  0  0  0  0  0  0  0  0  0  0
    2.9133    1.2292   -0.8370 N   0  0  0  0  0  0  0  0  0  0  0  0
    3.8680    0.6968   -0.9948 N   0  0  0  0  0  0  0  0  0  0  0  0
   -3.9915   -0.7450   -0.7673 C   0  0  0  0  0  0  0  0  0  0  0  0
   -4.5461   -1.8122   -0.9308 O   0  0  0  0  0  0  0  0  0  0  0  0
   -4.6885    0.3975   -0.5217 O   0  0  0  0  0  0  0  0  0  0  0  0
   -5.6262    0.1466   -0.5124 H   0  0  0  0  0  0  0  0  0  0  0  0
  1  6  1  0  0  0  0
  2  1  2  0  0  0  0
  2  3  1  0  0  0  0
  3  4  2  0  0  0  0
  4  5  1  0  0  0  0
  4  8  1  0  0  0  0
  5  9  1  0  0  0  0
  6 12  1  0  0  0  0
  6  5  2  0  0  0  0
  7  1  1  0  0  0  0
 11 10  3  0  0  0  0
 12 14  1  0  0  0  0
 13 12  2  0  0  0  0
 14 15  1  0  0  0  0
M  RAD  2   2   2   3   2
M  END
