Coordinates from ORCA-job 4-HOOC-C6H3-N2-B3LYPG-aug-cc-pVDZ-scan-d09-49-n400
 OpenBabel11091809033D

 15 14  0  0  0  0  0  0  0  0999 V2000
   -2.1530   -2.0058   -1.1110 C   0  0  0  0  0  0  0  0  0  0  0  0
   -0.7754   -1.9756   -1.1899 C   0  0  0  0  0  0  0  0  0  0  0  0
   -0.0202   -0.9843   -1.0565 C   0  0  0  0  0  0  0  0  0  0  0  0
   -0.4038    0.3243   -0.7959 C   0  0  0  0  0  0  0  0  0  0  0  0
   -1.8088    0.4176   -0.6930 C   0  0  0  0  0  0  0  0  0  0  0  0
   -2.6601   -0.7030   -0.8439 C   0  0  0  0  0  0  0  0  0  0  0  0
   -2.8185   -2.8578   -1.2246 H   0  0  0  0  0  0  0  0  0  0  0  0
    0.2459    1.1892   -0.6790 H   0  0  0  0  0  0  0  0  0  0  0  0
   -2.2550    1.3898   -0.4895 H   0  0  0  0  0  0  0  0  0  0  0  0
    3.3715    2.3600   -0.6596 N   0  0  0  0  0  0  0  0  0  0  0  0
    4.4682    2.2657   -0.7460 N   0  0  0  0  0  0  0  0  0  0  0  0
   -4.1413   -0.5743   -0.7298 C   0  0  0  0  0  0  0  0  0  0  0  0
   -4.9270   -1.4920   -0.8480 O   0  0  0  0  0  0  0  0  0  0  0  0
   -4.5532    0.6970   -0.4747 O   0  0  0  0  0  0  0  0  0  0  0  0
   -5.5219    0.6630   -0.4217 H   0  0  0  0  0  0  0  0  0  0  0  0
  1  6  1  0  0  0  0
  2  1  2  0  0  0  0
  2  3  1  0  0  0  0
  3  4  2  0  0  0  0
  4  5  1  0  0  0  0
  4  8  1  0  0  0  0
  5  9  1  0  0  0  0
  6 12  1  0  0  0  0
  6  5  2  0  0  0  0
  7  1  1  0  0  0  0
 11 10  3  0  0  0  0
 12 14  1  0  0  0  0
 13 12  2  0  0  0  0
 14 15  1  0  0  0  0
M  RAD  2   2   2   3   2
M  END
