Coordinates from ORCA-job 4-HOOC-C6H3-N2-B3LYPG-aug-cc-pVDZ-scan-d09-49-n400
 OpenBabel11091809033D

 15 14  0  0  0  0  0  0  0  0999 V2000
   -1.8396   -1.7777   -1.0885 C   0  0  0  0  0  0  0  0  0  0  0  0
   -0.4846   -1.5142   -1.1249 C   0  0  0  0  0  0  0  0  0  0  0  0
    0.0801   -0.4080   -0.9588 C   0  0  0  0  0  0  0  0  0  0  0  0
   -0.5241    0.8138   -0.6990 C   0  0  0  0  0  0  0  0  0  0  0  0
   -1.9272    0.6632   -0.6391 C   0  0  0  0  0  0  0  0  0  0  0  0
   -2.5693   -0.5842   -0.8258 C   0  0  0  0  0  0  0  0  0  0  0  0
   -2.3468   -2.7287   -1.2299 H   0  0  0  0  0  0  0  0  0  0  0  0
   -0.0346    1.7742   -0.5547 H   0  0  0  0  0  0  0  0  0  0  0  0
   -2.5396    1.5417   -0.4411 H   0  0  0  0  0  0  0  0  0  0  0  0
    3.1539    1.5843   -0.7884 N   0  0  0  0  0  0  0  0  0  0  0  0
    4.1188    1.0704   -0.9430 N   0  0  0  0  0  0  0  0  0  0  0  0
   -4.0534   -0.7117   -0.7562 C   0  0  0  0  0  0  0  0  0  0  0  0
   -4.6673   -1.7471   -0.9127 O   0  0  0  0  0  0  0  0  0  0  0  0
   -4.6843    0.4683   -0.5097 O   0  0  0  0  0  0  0  0  0  0  0  0
   -5.6343    0.2695   -0.4915 H   0  0  0  0  0  0  0  0  0  0  0  0
  1  6  1  0  0  0  0
  2  1  2  0  0  0  0
  2  3  1  0  0  0  0
  3  4  2  0  0  0  0
  4  5  1  0  0  0  0
  4  8  1  0  0  0  0
  5  9  1  0  0  0  0
  6 12  1  0  0  0  0
  6  5  2  0  0  0  0
  7  1  1  0  0  0  0
 11 10  3  0  0  0  0
 12 14  1  0  0  0  0
 13 12  2  0  0  0  0
 14 15  1  0  0  0  0
M  RAD  2   2   2   3   2
M  END
