Coordinates from ORCA-job 4-HOOC-C6H3-N2-B3LYPG-aug-cc-pVDZ-scan-d09-49-n400
 OpenBabel11081810443D

 15 15  0  0  0  0  0  0  0  0999 V2000
   -1.4080   -1.4772   -1.0606 C   0  0  0  0  0  0  0  0  0  0  0  0
    0.0124   -1.3345   -1.1231 C   0  0  0  0  0  0  0  0  0  0  0  0
    0.3785    0.0492   -0.8940 C   0  0  0  0  0  0  0  0  0  0  0  0
   -0.5103    1.1553   -0.6382 C   0  0  0  0  0  0  0  0  0  0  0  0
   -1.8544    0.8933   -0.6022 C   0  0  0  0  0  0  0  0  0  0  0  0
   -2.3070   -0.4405   -0.8163 C   0  0  0  0  0  0  0  0  0  0  0  0
   -1.8323   -2.4717   -1.2146 H   0  0  0  0  0  0  0  0  0  0  0  0
   -0.1178    2.1610   -0.4802 H   0  0  0  0  0  0  0  0  0  0  0  0
   -2.5678    1.6910   -0.4131 H   0  0  0  0  0  0  0  0  0  0  0  0
    1.5871    0.2797   -0.9286 N   0  0  0  0  0  0  0  0  0  0  0  0
    2.6974    0.4629   -0.9657 N   0  0  0  0  0  0  0  0  0  0  0  0
   -3.7723   -0.7590   -0.7826 C   0  0  0  0  0  0  0  0  0  0  0  0
   -4.2473   -1.8590   -0.9577 O   0  0  0  0  0  0  0  0  0  0  0  0
   -4.5448    0.3351   -0.5421 O   0  0  0  0  0  0  0  0  0  0  0  0
   -5.4659    0.0283   -0.5444 H   0  0  0  0  0  0  0  0  0  0  0  0
  1  6  1  0  0  0  0
  2  1  2  0  0  0  0
  2  3  1  0  0  0  0
  3  4  2  0  0  0  0
  4  5  1  0  0  0  0
  4  8  1  0  0  0  0
  5  9  1  0  0  0  0
  6 12  1  0  0  0  0
  6  5  2  0  0  0  0
  7  1  1  0  0  0  0
 10  3  1  0  0  0  0
 11 10  1  0  0  0  0
 12 14  1  0  0  0  0
 13 12  2  0  0  0  0
 15 14  1  0  0  0  0
M  RAD  3   2   2  10   2  11   3
M  END
