Coordinates from ORCA-job 4-HOOC-C6H3-N2-B3LYPG-aug-cc-pVDZ-scan-d09-49-n400
 OpenBabel11091809033D

 15 14  0  0  0  0  0  0  0  0999 V2000
   -1.8609   -1.7929   -1.0904 C   0  0  0  0  0  0  0  0  0  0  0  0
   -0.5032   -1.5435   -1.1284 C   0  0  0  0  0  0  0  0  0  0  0  0
    0.0736   -0.4431   -0.9642 C   0  0  0  0  0  0  0  0  0  0  0  0
   -0.5193    0.7846   -0.7054 C   0  0  0  0  0  0  0  0  0  0  0  0
   -1.9236    0.6492   -0.6440 C   0  0  0  0  0  0  0  0  0  0  0  0
   -2.5784   -0.5919   -0.8288 C   0  0  0  0  0  0  0  0  0  0  0  0
   -2.3779   -2.7389   -1.2302 H   0  0  0  0  0  0  0  0  0  0  0  0
   -0.0183    1.7393   -0.5631 H   0  0  0  0  0  0  0  0  0  0  0  0
   -2.5265    1.5343   -0.4466 H   0  0  0  0  0  0  0  0  0  0  0  0
    3.1854    1.6361   -0.7790 N   0  0  0  0  0  0  0  0  0  0  0  0
    4.1639    1.1474   -0.9300 N   0  0  0  0  0  0  0  0  0  0  0  0
   -4.0637   -0.7043   -0.7582 C   0  0  0  0  0  0  0  0  0  0  0  0
   -4.6878   -1.7347   -0.9072 O   0  0  0  0  0  0  0  0  0  0  0  0
   -4.6821    0.4810   -0.5056 O   0  0  0  0  0  0  0  0  0  0  0  0
   -5.6337    0.2910   -0.4820 H   0  0  0  0  0  0  0  0  0  0  0  0
  1  6  1  0  0  0  0
  2  1  2  0  0  0  0
  2  3  1  0  0  0  0
  3  4  2  0  0  0  0
  4  5  1  0  0  0  0
  4  8  1  0  0  0  0
  5  9  1  0  0  0  0
  6 12  1  0  0  0  0
  6  5  2  0  0  0  0
  7  1  1  0  0  0  0
 11 10  3  0  0  0  0
 12 14  1  0  0  0  0
 13 12  2  0  0  0  0
 14 15  1  0  0  0  0
M  RAD  2   2   2   3   2
M  END
