Coordinates from ORCA-job 4-HOOC-C6H3-N2-B3LYPG-aug-cc-pVDZ-scan-d09-49-n400
 OpenBabel11091809033D

 15 14  0  0  0  0  0  0  0  0999 V2000
   -1.4592   -1.5035   -1.0629 C   0  0  0  0  0  0  0  0  0  0  0  0
   -0.1035   -1.1501   -1.0821 C   0  0  0  0  0  0  0  0  0  0  0  0
    0.2039    0.0693   -0.8798 C   0  0  0  0  0  0  0  0  0  0  0  0
   -0.5474    1.1980   -0.6289 C   0  0  0  0  0  0  0  0  0  0  0  0
   -1.9152    0.8802   -0.6024 C   0  0  0  0  0  0  0  0  0  0  0  0
   -2.3654   -0.4451   -0.8151 C   0  0  0  0  0  0  0  0  0  0  0  0
   -1.8405   -2.5115   -1.2223 H   0  0  0  0  0  0  0  0  0  0  0  0
   -0.1618    2.2042   -0.4701 H   0  0  0  0  0  0  0  0  0  0  0  0
   -2.6414    1.6685   -0.4147 H   0  0  0  0  0  0  0  0  0  0  0  0
    2.0600    0.5698   -0.9034 N   0  0  0  0  0  0  0  0  0  0  0  0
    3.0621    0.1148   -1.0490 N   0  0  0  0  0  0  0  0  0  0  0  0
   -3.8199   -0.7763   -0.7855 C   0  0  0  0  0  0  0  0  0  0  0  0
   -4.2846   -1.8838   -0.9589 O   0  0  0  0  0  0  0  0  0  0  0  0
   -4.6131    0.3040   -0.5420 O   0  0  0  0  0  0  0  0  0  0  0  0
   -5.5265   -0.0245   -0.5462 H   0  0  0  0  0  0  0  0  0  0  0  0
  1  6  1  0  0  0  0
  2  1  2  0  0  0  0
  2  3  1  0  0  0  0
  3  4  2  0  0  0  0
  4  5  1  0  0  0  0
  4  8  1  0  0  0  0
  5  9  1  0  0  0  0
  6 12  1  0  0  0  0
  6  5  2  0  0  0  0
  7  1  1  0  0  0  0
 11 10  3  0  0  0  0
 12 14  1  0  0  0  0
 13 12  2  0  0  0  0
 15 14  1  0  0  0  0
M  RAD  2   2   2   3   2
M  END
