Coordinates from ORCA-job 4-HOOC-C6H3-N2-B3LYPG-aug-cc-pVDZ-scan-d09-49-n400
 OpenBabel11091809033D

 15 15  0  0  0  0  0  0  0  0999 V2000
   -1.4572   -1.5010   -1.0621 C   0  0  0  0  0  0  0  0  0  0  0  0
   -0.0996   -1.1519   -1.0830 C   0  0  0  0  0  0  0  0  0  0  0  0
    0.2042    0.0701   -0.8800 C   0  0  0  0  0  0  0  0  0  0  0  0
   -0.5481    1.1982   -0.6286 C   0  0  0  0  0  0  0  0  0  0  0  0
   -1.9155    0.8815   -0.6012 C   0  0  0  0  0  0  0  0  0  0  0  0
   -2.3645   -0.4443   -0.8139 C   0  0  0  0  0  0  0  0  0  0  0  0
   -1.8388   -2.5091   -1.2213 H   0  0  0  0  0  0  0  0  0  0  0  0
   -0.1616    2.2042   -0.4700 H   0  0  0  0  0  0  0  0  0  0  0  0
   -2.6416    1.6696   -0.4131 H   0  0  0  0  0  0  0  0  0  0  0  0
    2.0521    0.5622   -0.9054 N   0  0  0  0  0  0  0  0  0  0  0  0
    3.0586    0.1162   -1.0493 N   0  0  0  0  0  0  0  0  0  0  0  0
   -3.8187   -0.7767   -0.7836 C   0  0  0  0  0  0  0  0  0  0  0  0
   -4.2831   -1.8838   -0.9597 O   0  0  0  0  0  0  0  0  0  0  0  0
   -4.6127    0.3038   -0.5430 O   0  0  0  0  0  0  0  0  0  0  0  0
   -5.5260   -0.0248   -0.5490 H   0  0  0  0  0  0  0  0  0  0  0  0
  1  6  1  0  0  0  0
  2  1  2  0  0  0  0
  2  3  1  0  0  0  0
  3  4  2  0  0  0  0
  4  5  1  0  0  0  0
  4  8  1  0  0  0  0
  5  9  1  0  0  0  0
  6 12  1  0  0  0  0
  6  5  2  0  0  0  0
  7  1  1  0  0  0  0
 10  3  1  0  0  0  0
 11 10  2  0  0  0  0
 12 14  1  0  0  0  0
 13 12  2  0  0  0  0
 15 14  1  0  0  0  0
M  RAD  2   2   2  11   2
M  END
