Coordinates from ORCA-job 4-HOOC-C6H3-N2-B3LYPG-aug-cc-pVDZ-scan-d09-49-n400
 OpenBabel11091809033D

 15 15  0  0  0  0  0  0  0  0999 V2000
   -1.4367   -1.4838   -1.0608 C   0  0  0  0  0  0  0  0  0  0  0  0
   -0.0642   -1.1683   -1.0885 C   0  0  0  0  0  0  0  0  0  0  0  0
    0.2167    0.0748   -0.8802 C   0  0  0  0  0  0  0  0  0  0  0  0
   -0.5451    1.2004   -0.6289 C   0  0  0  0  0  0  0  0  0  0  0  0
   -1.9098    0.8916   -0.6005 C   0  0  0  0  0  0  0  0  0  0  0  0
   -2.3511   -0.4368   -0.8143 C   0  0  0  0  0  0  0  0  0  0  0  0
   -1.8218   -2.4913   -1.2197 H   0  0  0  0  0  0  0  0  0  0  0  0
   -0.1542    2.2052   -0.4707 H   0  0  0  0  0  0  0  0  0  0  0  0
   -2.6363    1.6789   -0.4126 H   0  0  0  0  0  0  0  0  0  0  0  0
    1.9478    0.4976   -0.9104 N   0  0  0  0  0  0  0  0  0  0  0  0
    2.9890    0.1298   -1.0403 N   0  0  0  0  0  0  0  0  0  0  0  0
   -3.8046   -0.7749   -0.7856 C   0  0  0  0  0  0  0  0  0  0  0  0
   -4.2657   -1.8835   -0.9601 O   0  0  0  0  0  0  0  0  0  0  0  0
   -4.6021    0.3029   -0.5427 O   0  0  0  0  0  0  0  0  0  0  0  0
   -5.5142   -0.0288   -0.5479 H   0  0  0  0  0  0  0  0  0  0  0  0
  1  6  1  0  0  0  0
  2  1  2  0  0  0  0
  2  3  1  0  0  0  0
  3  4  2  0  0  0  0
  4  5  1  0  0  0  0
  4  8  1  0  0  0  0
  5  9  1  0  0  0  0
  6 12  1  0  0  0  0
  6  5  2  0  0  0  0
  7  1  1  0  0  0  0
 10  3  1  0  0  0  0
 11 10  2  0  0  0  0
 12 14  1  0  0  0  0
 13 12  2  0  0  0  0
 15 14  1  0  0  0  0
M  RAD  2   2   2  11   2
M  END
