Coordinates from ORCA-job 4-HOOC-C6H3-N2-B3LYPG-aug-cc-pVDZ-scan-d09-49-n400
 OpenBabel11091809033D

 15 15  0  0  0  0  0  0  0  0999 V2000
   -1.4524   -1.4972   -1.0627 C   0  0  0  0  0  0  0  0  0  0  0  0
   -0.0923   -1.1536   -1.0838 C   0  0  0  0  0  0  0  0  0  0  0  0
    0.2076    0.0719   -0.8799 C   0  0  0  0  0  0  0  0  0  0  0  0
   -0.5470    1.1992   -0.6292 C   0  0  0  0  0  0  0  0  0  0  0  0
   -1.9139    0.8839   -0.6026 C   0  0  0  0  0  0  0  0  0  0  0  0
   -2.3614   -0.4424   -0.8157 C   0  0  0  0  0  0  0  0  0  0  0  0
   -1.8342   -2.5052   -1.2222 H   0  0  0  0  0  0  0  0  0  0  0  0
   -0.1599    2.2051   -0.4705 H   0  0  0  0  0  0  0  0  0  0  0  0
   -2.6403    1.6718   -0.4152 H   0  0  0  0  0  0  0  0  0  0  0  0
    2.0282    0.5499   -0.9047 N   0  0  0  0  0  0  0  0  0  0  0  0
    3.0402    0.1145   -1.0453 N   0  0  0  0  0  0  0  0  0  0  0  0
   -3.8154   -0.7758   -0.7872 C   0  0  0  0  0  0  0  0  0  0  0  0
   -4.2786   -1.8842   -0.9587 O   0  0  0  0  0  0  0  0  0  0  0  0
   -4.6101    0.3030   -0.5412 O   0  0  0  0  0  0  0  0  0  0  0  0
   -5.5229   -0.0269   -0.5442 H   0  0  0  0  0  0  0  0  0  0  0  0
  1  6  1  0  0  0  0
  2  1  2  0  0  0  0
  2  3  1  0  0  0  0
  3  4  2  0  0  0  0
  4  5  1  0  0  0  0
  4  8  1  0  0  0  0
  5  9  1  0  0  0  0
  6 12  1  0  0  0  0
  6  5  2  0  0  0  0
  7  1  1  0  0  0  0
 10  3  1  0  0  0  0
 11 10  2  0  0  0  0
 12 14  1  0  0  0  0
 13 12  2  0  0  0  0
 15 14  1  0  0  0  0
M  RAD  2   2   2  11   2
M  END
