Coordinates from ORCA-job 4-HOOC-C6H3-N2-B3LYPG-aug-cc-pVDZ-scan-d09-49-n400
 OpenBabel11091809033D

 15 14  0  0  0  0  0  0  0  0999 V2000
   -1.8423   -1.7791   -1.0892 C   0  0  0  0  0  0  0  0  0  0  0  0
   -0.4869   -1.5175   -1.1248 C   0  0  0  0  0  0  0  0  0  0  0  0
    0.0799   -0.4121   -0.9593 C   0  0  0  0  0  0  0  0  0  0  0  0
   -0.5242    0.8100   -0.7007 C   0  0  0  0  0  0  0  0  0  0  0  0
   -1.9275    0.6621   -0.6415 C   0  0  0  0  0  0  0  0  0  0  0  0
   -2.5709   -0.5846   -0.8280 C   0  0  0  0  0  0  0  0  0  0  0  0
   -2.3507   -2.7296   -1.2303 H   0  0  0  0  0  0  0  0  0  0  0  0
   -0.0321    1.7691   -0.5571 H   0  0  0  0  0  0  0  0  0  0  0  0
   -2.5385    1.5417   -0.4446 H   0  0  0  0  0  0  0  0  0  0  0  0
    3.1589    1.5903   -0.7860 N   0  0  0  0  0  0  0  0  0  0  0  0
    4.1259    1.0799   -0.9391 N   0  0  0  0  0  0  0  0  0  0  0  0
   -4.0552   -0.7103   -0.7598 C   0  0  0  0  0  0  0  0  0  0  0  0
   -4.6698   -1.7461   -0.9101 O   0  0  0  0  0  0  0  0  0  0  0  0
   -4.6845    0.4693   -0.5075 O   0  0  0  0  0  0  0  0  0  0  0  0
   -5.6345    0.2708   -0.4853 H   0  0  0  0  0  0  0  0  0  0  0  0
  1  6  1  0  0  0  0
  2  1  2  0  0  0  0
  2  3  1  0  0  0  0
  3  4  2  0  0  0  0
  4  5  1  0  0  0  0
  4  8  1  0  0  0  0
  5  9  1  0  0  0  0
  6 12  1  0  0  0  0
  6  5  2  0  0  0  0
  7  1  1  0  0  0  0
 11 10  3  0  0  0  0
 12 14  1  0  0  0  0
 13 12  2  0  0  0  0
 14 15  1  0  0  0  0
M  RAD  2   2   2   3   2
M  END
