Coordinates from ORCA-job 4-HOOC-C6H3-N2-B3LYPG-aug-cc-pVDZ-scan-d09-49-n400
 OpenBabel11081810443D

 15 15  0  0  0  0  0  0  0  0999 V2000
   -1.4040   -1.4741   -1.0614 C   0  0  0  0  0  0  0  0  0  0  0  0
    0.0149   -1.3476   -1.1264 C   0  0  0  0  0  0  0  0  0  0  0  0
    0.4202    0.0605   -0.8982 C   0  0  0  0  0  0  0  0  0  0  0  0
   -0.5053    1.1504   -0.6413 C   0  0  0  0  0  0  0  0  0  0  0  0
   -1.8465    0.8919   -0.6052 C   0  0  0  0  0  0  0  0  0  0  0  0
   -2.3033   -0.4396   -0.8186 C   0  0  0  0  0  0  0  0  0  0  0  0
   -1.8267   -2.4696   -1.2153 H   0  0  0  0  0  0  0  0  0  0  0  0
   -0.1116    2.1559   -0.4823 H   0  0  0  0  0  0  0  0  0  0  0  0
   -2.5562    1.6929   -0.4153 H   0  0  0  0  0  0  0  0  0  0  0  0
    1.5293    0.2782   -0.9237 N   0  0  0  0  0  0  0  0  0  0  0  0
    2.6490    0.4650   -0.9553 N   0  0  0  0  0  0  0  0  0  0  0  0
   -3.7694   -0.7578   -0.7855 C   0  0  0  0  0  0  0  0  0  0  0  0
   -4.2419   -1.8592   -0.9564 O   0  0  0  0  0  0  0  0  0  0  0  0
   -4.5393    0.3357   -0.5399 O   0  0  0  0  0  0  0  0  0  0  0  0
   -5.4614    0.0314   -0.5383 H   0  0  0  0  0  0  0  0  0  0  0  0
  1  6  1  0  0  0  0
  2  1  2  0  0  0  0
  2  3  1  0  0  0  0
  3  4  2  0  0  0  0
  4  5  1  0  0  0  0
  4  8  1  0  0  0  0
  5  9  1  0  0  0  0
  6 12  1  0  0  0  0
  6  5  2  0  0  0  0
  7  1  1  0  0  0  0
 10  3  1  0  0  0  0
 11 10  1  0  0  0  0
 12 14  1  0  0  0  0
 13 12  2  0  0  0  0
 14 15  1  0  0  0  0
M  RAD  3   2   2  10   2  11   3
M  END
