Coordinates from ORCA-job 4-HOOC-C6H3-N2-B3LYPG-aug-cc-pVDZ-scan-d09-49-n400
 OpenBabel11091809033D

 15 14  0  0  0  0  0  0  0  0999 V2000
   -1.9427   -1.8549   -1.0963 C   0  0  0  0  0  0  0  0  0  0  0  0
   -0.5763   -1.6620   -1.1457 C   0  0  0  0  0  0  0  0  0  0  0  0
    0.0469   -0.5863   -0.9887 C   0  0  0  0  0  0  0  0  0  0  0  0
   -0.4913    0.6663   -0.7277 C   0  0  0  0  0  0  0  0  0  0  0  0
   -1.8996    0.5885   -0.6547 C   0  0  0  0  0  0  0  0  0  0  0  0
   -2.6071   -0.6245   -0.8313 C   0  0  0  0  0  0  0  0  0  0  0  0
   -2.4998   -2.7788   -1.2297 H   0  0  0  0  0  0  0  0  0  0  0  0
    0.0483    1.6008   -0.5912 H   0  0  0  0  0  0  0  0  0  0  0  0
   -2.4638    1.4982   -0.4543 H   0  0  0  0  0  0  0  0  0  0  0  0
    3.2755    1.8435   -0.7485 N   0  0  0  0  0  0  0  0  0  0  0  0
    4.2980    1.4499   -0.8853 N   0  0  0  0  0  0  0  0  0  0  0  0
   -4.0952   -0.6745   -0.7478 C   0  0  0  0  0  0  0  0  0  0  0  0
   -4.7634   -1.6772   -0.8940 O   0  0  0  0  0  0  0  0  0  0  0  0
   -4.6616    0.5371   -0.4982 O   0  0  0  0  0  0  0  0  0  0  0  0
   -5.6204    0.3878   -0.4698 H   0  0  0  0  0  0  0  0  0  0  0  0
  1  6  1  0  0  0  0
  2  1  2  0  0  0  0
  2  3  1  0  0  0  0
  3  4  2  0  0  0  0
  4  5  1  0  0  0  0
  4  8  1  0  0  0  0
  5  9  1  0  0  0  0
  6 12  1  0  0  0  0
  6  5  2  0  0  0  0
  7  1  1  0  0  0  0
 11 10  3  0  0  0  0
 12 14  1  0  0  0  0
 13 12  2  0  0  0  0
 14 15  1  0  0  0  0
M  RAD  2   2   2   3   2
M  END
