Coordinates from ORCA-job 4-HOOC-C6H3-N2-B3LYPG-aug-cc-pVDZ-scan-d09-49-n400
 OpenBabel11091809033D

 15 14  0  0  0  0  0  0  0  0999 V2000
   -1.5944   -1.5983   -1.0718 C   0  0  0  0  0  0  0  0  0  0  0  0
   -0.2619   -1.2173   -1.0846 C   0  0  0  0  0  0  0  0  0  0  0  0
    0.1548   -0.0495   -0.8983 C   0  0  0  0  0  0  0  0  0  0  0  0
   -0.5607    1.1056   -0.6447 C   0  0  0  0  0  0  0  0  0  0  0  0
   -1.9423    0.8162   -0.6122 C   0  0  0  0  0  0  0  0  0  0  0  0
   -2.4487   -0.4897   -0.8180 C   0  0  0  0  0  0  0  0  0  0  0  0
   -2.0028   -2.5942   -1.2273 H   0  0  0  0  0  0  0  0  0  0  0  0
   -0.1632    2.1056   -0.4877 H   0  0  0  0  0  0  0  0  0  0  0  0
   -2.6437    1.6271   -0.4219 H   0  0  0  0  0  0  0  0  0  0  0  0
    2.5595    0.8689   -0.8799 N   0  0  0  0  0  0  0  0  0  0  0  0
    3.5363    0.3755   -1.0311 N   0  0  0  0  0  0  0  0  0  0  0  0
   -3.9134   -0.7663   -0.7780 C   0  0  0  0  0  0  0  0  0  0  0  0
   -4.4173   -1.8578   -0.9459 O   0  0  0  0  0  0  0  0  0  0  0  0
   -4.6649    0.3415   -0.5322 O   0  0  0  0  0  0  0  0  0  0  0  0
   -5.5898    0.0466   -0.5296 H   0  0  0  0  0  0  0  0  0  0  0  0
  1  6  1  0  0  0  0
  2  1  2  0  0  0  0
  2  3  1  0  0  0  0
  3  4  2  0  0  0  0
  4  5  1  0  0  0  0
  4  8  1  0  0  0  0
  5  9  1  0  0  0  0
  6 12  1  0  0  0  0
  6  5  2  0  0  0  0
  7  1  1  0  0  0  0
 11 10  3  0  0  0  0
 12 14  1  0  0  0  0
 13 12  2  0  0  0  0
 14 15  1  0  0  0  0
M  RAD  2   2   2   3   2
M  END
