Coordinates from ORCA-job 4-HOOC-C6H3-N2-B3LYPG-aug-cc-pVDZ-scan-d09-49-n400
 OpenBabel11091809033D

 15 14  0  0  0  0  0  0  0  0999 V2000
   -1.5246   -1.5488   -1.0672 C   0  0  0  0  0  0  0  0  0  0  0  0
   -0.1897   -1.1586   -1.0784 C   0  0  0  0  0  0  0  0  0  0  0  0
    0.1749    0.0290   -0.8854 C   0  0  0  0  0  0  0  0  0  0  0  0
   -0.5604    1.1686   -0.6335 C   0  0  0  0  0  0  0  0  0  0  0  0
   -1.9344    0.8524   -0.6066 C   0  0  0  0  0  0  0  0  0  0  0  0
   -2.4079   -0.4654   -0.8165 C   0  0  0  0  0  0  0  0  0  0  0  0
   -1.9121   -2.5532   -1.2256 H   0  0  0  0  0  0  0  0  0  0  0  0
   -0.1765    2.1743   -0.4747 H   0  0  0  0  0  0  0  0  0  0  0  0
   -2.6535    1.6478   -0.4181 H   0  0  0  0  0  0  0  0  0  0  0  0
    2.3427    0.7138   -0.8945 N   0  0  0  0  0  0  0  0  0  0  0  0
    3.3060    0.1925   -1.0493 N   0  0  0  0  0  0  0  0  0  0  0  0
   -3.8663   -0.7753   -0.7831 C   0  0  0  0  0  0  0  0  0  0  0  0
   -4.3454   -1.8773   -0.9536 O   0  0  0  0  0  0  0  0  0  0  0  0
   -4.6438    0.3151   -0.5378 O   0  0  0  0  0  0  0  0  0  0  0  0
   -5.5616   -0.0008   -0.5388 H   0  0  0  0  0  0  0  0  0  0  0  0
  1  6  1  0  0  0  0
  2  1  2  0  0  0  0
  2  3  1  0  0  0  0
  3  4  2  0  0  0  0
  4  5  1  0  0  0  0
  4  8  1  0  0  0  0
  5  9  1  0  0  0  0
  6 12  1  0  0  0  0
  6  5  2  0  0  0  0
  7  1  1  0  0  0  0
 11 10  3  0  0  0  0
 12 14  1  0  0  0  0
 13 12  2  0  0  0  0
 15 14  1  0  0  0  0
M  RAD  2   2   2   3   2
M  END
