Coordinates from ORCA-job 4-HOOC-C6H3-N2-B3LYPG-aug-cc-pVDZ-scan-d09-49-n400
 OpenBabel11091809033D

 15 14  0  0  0  0  0  0  0  0999 V2000
   -1.6496   -1.6367   -1.0755 C   0  0  0  0  0  0  0  0  0  0  0  0
   -0.3158   -1.2710   -1.0910 C   0  0  0  0  0  0  0  0  0  0  0  0
    0.1416   -0.1185   -0.9099 C   0  0  0  0  0  0  0  0  0  0  0  0
   -0.5588    1.0487   -0.6552 C   0  0  0  0  0  0  0  0  0  0  0  0
   -1.9454    0.7858   -0.6179 C   0  0  0  0  0  0  0  0  0  0  0  0
   -2.4794   -0.5095   -0.8202 C   0  0  0  0  0  0  0  0  0  0  0  0
   -2.0763   -2.6250   -1.2286 H   0  0  0  0  0  0  0  0  0  0  0  0
   -0.1430    2.0417   -0.5005 H   0  0  0  0  0  0  0  0  0  0  0  0
   -2.6302    1.6106   -0.4263 H   0  0  0  0  0  0  0  0  0  0  0  0
    2.7187    1.0127   -0.8631 N   0  0  0  0  0  0  0  0  0  0  0  0
    3.6952    0.5203   -1.0143 N   0  0  0  0  0  0  0  0  0  0  0  0
   -3.9492   -0.7577   -0.7752 C   0  0  0  0  0  0  0  0  0  0  0  0
   -4.4742   -1.8398   -0.9388 O   0  0  0  0  0  0  0  0  0  0  0  0
   -4.6778    0.3645   -0.5269 O   0  0  0  0  0  0  0  0  0  0  0  0
   -5.6082    0.0878   -0.5198 H   0  0  0  0  0  0  0  0  0  0  0  0
  1  6  1  0  0  0  0
  2  1  2  0  0  0  0
  2  3  1  0  0  0  0
  3  4  2  0  0  0  0
  4  5  1  0  0  0  0
  4  8  1  0  0  0  0
  5  9  1  0  0  0  0
  6 12  1  0  0  0  0
  6  5  2  0  0  0  0
  7  1  1  0  0  0  0
 11 10  3  0  0  0  0
 12 14  1  0  0  0  0
 13 12  2  0  0  0  0
 14 15  1  0  0  0  0
M  RAD  2   2   2   3   2
M  END
