Coordinates from ORCA-job 4-HOOC-C6H3-N2-B3LYPG-aug-cc-pVDZ-scan-d09-49-n400
 OpenBabel11081810443D

 15 15  0  0  0  0  0  0  0  0999 V2000
   -1.4066   -1.4761   -1.0615 C   0  0  0  0  0  0  0  0  0  0  0  0
    0.0135   -1.3405   -1.1240 C   0  0  0  0  0  0  0  0  0  0  0  0
    0.3955    0.0526   -0.8943 C   0  0  0  0  0  0  0  0  0  0  0  0
   -0.5081    1.1530   -0.6396 C   0  0  0  0  0  0  0  0  0  0  0  0
   -1.8511    0.8928   -0.6045 C   0  0  0  0  0  0  0  0  0  0  0  0
   -2.3055   -0.4402   -0.8184 C   0  0  0  0  0  0  0  0  0  0  0  0
   -1.8306   -2.4708   -1.2159 H   0  0  0  0  0  0  0  0  0  0  0  0
   -0.1155    2.1588   -0.4813 H   0  0  0  0  0  0  0  0  0  0  0  0
   -2.5630    1.6920   -0.4159 H   0  0  0  0  0  0  0  0  0  0  0  0
    1.5641    0.2792   -0.9255 N   0  0  0  0  0  0  0  0  0  0  0  0
    2.6777    0.4653   -0.9607 N   0  0  0  0  0  0  0  0  0  0  0  0
   -3.7713   -0.7580   -0.7862 C   0  0  0  0  0  0  0  0  0  0  0  0
   -4.2454   -1.8590   -0.9565 O   0  0  0  0  0  0  0  0  0  0  0  0
   -4.5423    0.3353   -0.5401 O   0  0  0  0  0  0  0  0  0  0  0  0
   -5.4638    0.0294   -0.5388 H   0  0  0  0  0  0  0  0  0  0  0  0
  1  6  1  0  0  0  0
  2  1  2  0  0  0  0
  2  3  1  0  0  0  0
  3  4  2  0  0  0  0
  4  5  1  0  0  0  0
  4  8  1  0  0  0  0
  5  9  1  0  0  0  0
  6 12  1  0  0  0  0
  6  5  2  0  0  0  0
  7  1  1  0  0  0  0
 10  3  1  0  0  0  0
 11 10  1  0  0  0  0
 12 14  1  0  0  0  0
 13 12  2  0  0  0  0
 14 15  1  0  0  0  0
M  RAD  3   2   2  10   2  11   3
M  END
