Coordinates from ORCA-job 4-HOOC-C6H3-N2-B3LYPG-aug-cc-pVDZ-scan-d09-49-n400
 OpenBabel11091809033D

 15 14  0  0  0  0  0  0  0  0999 V2000
   -2.1473   -2.0021   -1.1107 C   0  0  0  0  0  0  0  0  0  0  0  0
   -0.7697   -1.9670   -1.1884 C   0  0  0  0  0  0  0  0  0  0  0  0
   -0.0181   -0.9732   -1.0544 C   0  0  0  0  0  0  0  0  0  0  0  0
   -0.4057    0.3351   -0.7940 C   0  0  0  0  0  0  0  0  0  0  0  0
   -1.8113    0.4222   -0.6926 C   0  0  0  0  0  0  0  0  0  0  0  0
   -2.6588   -0.7011   -0.8442 C   0  0  0  0  0  0  0  0  0  0  0  0
   -2.8098   -2.8564   -1.2249 H   0  0  0  0  0  0  0  0  0  0  0  0
    0.2393    1.2034   -0.6763 H   0  0  0  0  0  0  0  0  0  0  0  0
   -2.2615    1.3928   -0.4896 H   0  0  0  0  0  0  0  0  0  0  0  0
    3.3704    2.3461   -0.6618 N   0  0  0  0  0  0  0  0  0  0  0  0
    4.4661    2.2417   -0.7497 N   0  0  0  0  0  0  0  0  0  0  0  0
   -4.1406   -0.5773   -0.7315 C   0  0  0  0  0  0  0  0  0  0  0  0
   -4.9231   -1.4978   -0.8487 O   0  0  0  0  0  0  0  0  0  0  0  0
   -4.5568    0.6924   -0.4750 O   0  0  0  0  0  0  0  0  0  0  0  0
   -5.5254    0.6550   -0.4215 H   0  0  0  0  0  0  0  0  0  0  0  0
  1  6  1  0  0  0  0
  2  1  2  0  0  0  0
  2  3  1  0  0  0  0
  3  4  2  0  0  0  0
  4  5  1  0  0  0  0
  4  8  1  0  0  0  0
  5  9  1  0  0  0  0
  6 12  1  0  0  0  0
  6  5  2  0  0  0  0
  7  1  1  0  0  0  0
 11 10  3  0  0  0  0
 12 14  1  0  0  0  0
 13 12  2  0  0  0  0
 14 15  1  0  0  0  0
M  RAD  2   2   2   3   2
M  END
