Coordinates from ORCA-job 4-HOOC-C6H3-N2-B3LYPG-aug-cc-pVDZ-scan-d09-49-n400
 OpenBabel11081810443D

 15 15  0  0  0  0  0  0  0  0999 V2000
   -1.3970   -1.4695   -1.0602 C   0  0  0  0  0  0  0  0  0  0  0  0
    0.0167   -1.3629   -1.1285 C   0  0  0  0  0  0  0  0  0  0  0  0
    0.4772    0.0858   -0.8945 C   0  0  0  0  0  0  0  0  0  0  0  0
   -0.4997    1.1483   -0.6408 C   0  0  0  0  0  0  0  0  0  0  0  0
   -1.8379    0.8906   -0.6055 C   0  0  0  0  0  0  0  0  0  0  0  0
   -2.2987   -0.4372   -0.8181 C   0  0  0  0  0  0  0  0  0  0  0  0
   -1.8167   -2.4668   -1.2147 H   0  0  0  0  0  0  0  0  0  0  0  0
   -0.1027    2.1529   -0.4824 H   0  0  0  0  0  0  0  0  0  0  0  0
   -2.5440    1.6950   -0.4159 H   0  0  0  0  0  0  0  0  0  0  0  0
    1.4494    0.2721   -0.9206 N   0  0  0  0  0  0  0  0  0  0  0  0
    2.5878    0.4542   -0.9573 N   0  0  0  0  0  0  0  0  0  0  0  0
   -3.7645   -0.7571   -0.7864 C   0  0  0  0  0  0  0  0  0  0  0  0
   -4.2322   -1.8600   -0.9582 O   0  0  0  0  0  0  0  0  0  0  0  0
   -4.5337    0.3353   -0.5408 O   0  0  0  0  0  0  0  0  0  0  0  0
   -5.4566    0.0332   -0.5392 H   0  0  0  0  0  0  0  0  0  0  0  0
  1  6  1  0  0  0  0
  2  1  2  0  0  0  0
  2  3  1  0  0  0  0
  3  4  2  0  0  0  0
  4  5  1  0  0  0  0
  4  8  1  0  0  0  0
  5  9  1  0  0  0  0
  6 12  1  0  0  0  0
  6  5  2  0  0  0  0
  7  1  1  0  0  0  0
 10  3  1  0  0  0  0
 11 10  1  0  0  0  0
 12 14  1  0  0  0  0
 13 12  2  0  0  0  0
 14 15  1  0  0  0  0
M  RAD  3   2   2  10   2  11   3
M  END
