Coordinates from ORCA-job 4-HOOC-C6H3-N2-B3LYPG-aug-cc-pVDZ-scan-d09-49-n400
 OpenBabel11091809033D

 15 14  0  0  0  0  0  0  0  0999 V2000
   -1.5292   -1.5531   -1.0676 C   0  0  0  0  0  0  0  0  0  0  0  0
   -0.1944   -1.1640   -1.0791 C   0  0  0  0  0  0  0  0  0  0  0  0
    0.1721    0.0228   -0.8864 C   0  0  0  0  0  0  0  0  0  0  0  0
   -0.5591    1.1641   -0.6343 C   0  0  0  0  0  0  0  0  0  0  0  0
   -1.9341    0.8493   -0.6069 C   0  0  0  0  0  0  0  0  0  0  0  0
   -2.4103   -0.4675   -0.8164 C   0  0  0  0  0  0  0  0  0  0  0  0
   -1.9185   -2.5568   -1.2257 H   0  0  0  0  0  0  0  0  0  0  0  0
   -0.1756    2.1699   -0.4754 H   0  0  0  0  0  0  0  0  0  0  0  0
   -2.6520    1.6458   -0.4182 H   0  0  0  0  0  0  0  0  0  0  0  0
    2.3555    0.7248   -0.8935 N   0  0  0  0  0  0  0  0  0  0  0  0
    3.3207    0.2073   -1.0479 N   0  0  0  0  0  0  0  0  0  0  0  0
   -3.8693   -0.7744   -0.7822 C   0  0  0  0  0  0  0  0  0  0  0  0
   -4.3506   -1.8754   -0.9532 O   0  0  0  0  0  0  0  0  0  0  0  0
   -4.6446    0.3177   -0.5376 O   0  0  0  0  0  0  0  0  0  0  0  0
   -5.5630    0.0036   -0.5388 H   0  0  0  0  0  0  0  0  0  0  0  0
  1  6  1  0  0  0  0
  2  1  2  0  0  0  0
  2  3  1  0  0  0  0
  3  4  2  0  0  0  0
  4  5  1  0  0  0  0
  4  8  1  0  0  0  0
  5  9  1  0  0  0  0
  6 12  1  0  0  0  0
  6  5  2  0  0  0  0
  7  1  1  0  0  0  0
 11 10  3  0  0  0  0
 12 14  1  0  0  0  0
 13 12  2  0  0  0  0
 15 14  1  0  0  0  0
M  RAD  2   2   2   3   2
M  END
