Coordinates from ORCA-job 4-HOOC-C6H3-N2-B3LYPG-aug-cc-pVDZ-scan-d09-49-n400
 OpenBabel11081810443D

 15 15  0  0  0  0  0  0  0  0999 V2000
   -1.4106   -1.4775   -1.0624 C   0  0  0  0  0  0  0  0  0  0  0  0
    0.0097   -1.3250   -1.1208 C   0  0  0  0  0  0  0  0  0  0  0  0
    0.3548    0.0463   -0.8934 C   0  0  0  0  0  0  0  0  0  0  0  0
   -0.5146    1.1595   -0.6388 C   0  0  0  0  0  0  0  0  0  0  0  0
   -1.8607    0.8952   -0.6050 C   0  0  0  0  0  0  0  0  0  0  0  0
   -2.3105   -0.4395   -0.8197 C   0  0  0  0  0  0  0  0  0  0  0  0
   -1.8347   -2.4718   -1.2171 H   0  0  0  0  0  0  0  0  0  0  0  0
   -0.1217    2.1648   -0.4805 H   0  0  0  0  0  0  0  0  0  0  0  0
   -2.5762    1.6913   -0.4174 H   0  0  0  0  0  0  0  0  0  0  0  0
    1.6239    0.2805   -0.9275 N   0  0  0  0  0  0  0  0  0  0  0  0
    2.7316    0.4537   -0.9630 N   0  0  0  0  0  0  0  0  0  0  0  0
   -3.7752   -0.7585   -0.7891 C   0  0  0  0  0  0  0  0  0  0  0  0
   -4.2500   -1.8604   -0.9551 O   0  0  0  0  0  0  0  0  0  0  0  0
   -4.5492    0.3328   -0.5384 O   0  0  0  0  0  0  0  0  0  0  0  0
   -5.4690    0.0225   -0.5351 H   0  0  0  0  0  0  0  0  0  0  0  0
  1  6  1  0  0  0  0
  2  1  2  0  0  0  0
  2  3  1  0  0  0  0
  3  4  2  0  0  0  0
  4  5  1  0  0  0  0
  4  8  1  0  0  0  0
  5  9  1  0  0  0  0
  6 12  1  0  0  0  0
  6  5  2  0  0  0  0
  7  1  1  0  0  0  0
 10  3  1  0  0  0  0
 11 10  1  0  0  0  0
 12 14  1  0  0  0  0
 13 12  2  0  0  0  0
 14 15  1  0  0  0  0
M  RAD  3   2   2  10   2  11   3
M  END
