Coordinates from ORCA-job 4-HOOC-C6H3-N2-B3LYPG-aug-cc-pVDZ-scan-d09-49-n400
 OpenBabel11091809033D

 15 14  0  0  0  0  0  0  0  0999 V2000
   -1.7470   -1.7068   -1.0821 C   0  0  0  0  0  0  0  0  0  0  0  0
   -0.4041   -1.3857   -1.1063 C   0  0  0  0  0  0  0  0  0  0  0  0
    0.1114   -0.2568   -0.9332 C   0  0  0  0  0  0  0  0  0  0  0  0
   -0.5485    0.9362   -0.6763 C   0  0  0  0  0  0  0  0  0  0  0  0
   -1.9440    0.7270   -0.6286 C   0  0  0  0  0  0  0  0  0  0  0  0
   -2.5299   -0.5466   -0.8236 C   0  0  0  0  0  0  0  0  0  0  0  0
   -2.2117   -2.6784   -1.2297 H   0  0  0  0  0  0  0  0  0  0  0  0
   -0.0969    1.9143   -0.5266 H   0  0  0  0  0  0  0  0  0  0  0  0
   -2.5948    1.5781   -0.4342 H   0  0  0  0  0  0  0  0  0  0  0  0
    2.9840    1.3144   -0.8249 N   0  0  0  0  0  0  0  0  0  0  0  0
    3.9333    0.7738   -0.9830 N   0  0  0  0  0  0  0  0  0  0  0  0
   -4.0077   -0.7384   -0.7675 C   0  0  0  0  0  0  0  0  0  0  0  0
   -4.5746   -1.7999   -0.9256 O   0  0  0  0  0  0  0  0  0  0  0  0
   -4.6907    0.4116   -0.5177 O   0  0  0  0  0  0  0  0  0  0  0  0
   -5.6311    0.1711   -0.5039 H   0  0  0  0  0  0  0  0  0  0  0  0
  1  6  1  0  0  0  0
  2  1  2  0  0  0  0
  2  3  1  0  0  0  0
  3  4  2  0  0  0  0
  4  5  1  0  0  0  0
  4  8  1  0  0  0  0
  5  9  1  0  0  0  0
  6 12  1  0  0  0  0
  6  5  2  0  0  0  0
  7  1  1  0  0  0  0
 11 10  3  0  0  0  0
 12 14  1  0  0  0  0
 13 12  2  0  0  0  0
 14 15  1  0  0  0  0
M  RAD  2   2   2   3   2
M  END
