Coordinates from ORCA-job 4-HOOC-C6H3-N2-B3LYPG-aug-cc-pVDZ-scan-d09-49-n400
 OpenBabel11091809033D

 15 14  0  0  0  0  0  0  0  0999 V2000
   -1.6415   -1.6307   -1.0761 C   0  0  0  0  0  0  0  0  0  0  0  0
   -0.3077   -1.2629   -1.0899 C   0  0  0  0  0  0  0  0  0  0  0  0
    0.1434   -0.1079   -0.9081 C   0  0  0  0  0  0  0  0  0  0  0  0
   -0.5594    1.0577   -0.6547 C   0  0  0  0  0  0  0  0  0  0  0  0
   -1.9454    0.7910   -0.6196 C   0  0  0  0  0  0  0  0  0  0  0  0
   -2.4752   -0.5059   -0.8226 C   0  0  0  0  0  0  0  0  0  0  0  0
   -2.0654   -2.6201   -1.2297 H   0  0  0  0  0  0  0  0  0  0  0  0
   -0.1464    2.0518   -0.4997 H   0  0  0  0  0  0  0  0  0  0  0  0
   -2.6329    1.6139   -0.4294 H   0  0  0  0  0  0  0  0  0  0  0  0
    2.6931    0.9856   -0.8641 N   0  0  0  0  0  0  0  0  0  0  0  0
    3.6760    0.5018   -1.0128 N   0  0  0  0  0  0  0  0  0  0  0  0
   -3.9443   -0.7581   -0.7805 C   0  0  0  0  0  0  0  0  0  0  0  0
   -4.4657   -1.8429   -0.9375 O   0  0  0  0  0  0  0  0  0  0  0  0
   -4.6759    0.3606   -0.5249 O   0  0  0  0  0  0  0  0  0  0  0  0
   -5.6052    0.0802   -0.5137 H   0  0  0  0  0  0  0  0  0  0  0  0
  1  6  1  0  0  0  0
  2  1  2  0  0  0  0
  2  3  1  0  0  0  0
  3  4  2  0  0  0  0
  4  5  1  0  0  0  0
  4  8  1  0  0  0  0
  5  9  1  0  0  0  0
  6 12  1  0  0  0  0
  6  5  2  0  0  0  0
  7  1  1  0  0  0  0
 11 10  3  0  0  0  0
 12 14  1  0  0  0  0
 13 12  2  0  0  0  0
 14 15  1  0  0  0  0
M  RAD  2   2   2   3   2
M  END
