Coordinates from ORCA-job 4-HOOC-C6H3-N2-B3LYPG-aug-cc-pVDZ-scan-d09-49-n400
 OpenBabel11091809033D

 15 14  0  0  0  0  0  0  0  0999 V2000
   -2.1444   -2.0001   -1.1105 C   0  0  0  0  0  0  0  0  0  0  0  0
   -0.7669   -1.9625   -1.1881 C   0  0  0  0  0  0  0  0  0  0  0  0
   -0.0170   -0.9674   -1.0537 C   0  0  0  0  0  0  0  0  0  0  0  0
   -0.4072    0.3399   -0.7928 C   0  0  0  0  0  0  0  0  0  0  0  0
   -1.8129    0.4248   -0.6913 C   0  0  0  0  0  0  0  0  0  0  0  0
   -2.6583   -0.7001   -0.8434 C   0  0  0  0  0  0  0  0  0  0  0  0
   -2.8053   -2.8555   -1.2250 H   0  0  0  0  0  0  0  0  0  0  0  0
    0.2368    1.2089   -0.6748 H   0  0  0  0  0  0  0  0  0  0  0  0
   -2.2647    1.3946   -0.4879 H   0  0  0  0  0  0  0  0  0  0  0  0
    3.3702    2.3391   -0.6633 N   0  0  0  0  0  0  0  0  0  0  0  0
    4.4654    2.2306   -0.7523 N   0  0  0  0  0  0  0  0  0  0  0  0
   -4.1403   -0.5791   -0.7306 C   0  0  0  0  0  0  0  0  0  0  0  0
   -4.9212   -1.5006   -0.8501 O   0  0  0  0  0  0  0  0  0  0  0  0
   -4.5590    0.6901   -0.4757 O   0  0  0  0  0  0  0  0  0  0  0  0
   -5.5276    0.6511   -0.4237 H   0  0  0  0  0  0  0  0  0  0  0  0
  1  6  1  0  0  0  0
  2  1  2  0  0  0  0
  2  3  1  0  0  0  0
  3  4  2  0  0  0  0
  4  5  1  0  0  0  0
  4  8  1  0  0  0  0
  5  9  1  0  0  0  0
  6 12  1  0  0  0  0
  6  5  2  0  0  0  0
  7  1  1  0  0  0  0
 11 10  3  0  0  0  0
 12 14  1  0  0  0  0
 13 12  2  0  0  0  0
 14 15  1  0  0  0  0
M  RAD  2   2   2   3   2
M  END
