Coordinates from ORCA-job 4-HOOC-C6H3-N2-B3LYPG-aug-cc-pVDZ-scan-d09-49-n400
 OpenBabel11081810443D

 15 15  0  0  0  0  0  0  0  0999 V2000
   -1.4117   -1.4777   -1.0609 C   0  0  0  0  0  0  0  0  0  0  0  0
    0.0081   -1.3196   -1.1202 C   0  0  0  0  0  0  0  0  0  0  0  0
    0.3432    0.0457   -0.8931 C   0  0  0  0  0  0  0  0  0  0  0  0
   -0.5169    1.1615   -0.6373 C   0  0  0  0  0  0  0  0  0  0  0  0
   -1.8638    0.8954   -0.6022 C   0  0  0  0  0  0  0  0  0  0  0  0
   -2.3123   -0.4397   -0.8167 C   0  0  0  0  0  0  0  0  0  0  0  0
   -1.8354   -2.4723   -1.2151 H   0  0  0  0  0  0  0  0  0  0  0  0
   -0.1237    2.1666   -0.4792 H   0  0  0  0  0  0  0  0  0  0  0  0
   -2.5803    1.6904   -0.4135 H   0  0  0  0  0  0  0  0  0  0  0  0
    1.6424    0.2824   -0.9307 N   0  0  0  0  0  0  0  0  0  0  0  0
    2.7494    0.4481   -0.9693 N   0  0  0  0  0  0  0  0  0  0  0  0
   -3.7763   -0.7599   -0.7839 C   0  0  0  0  0  0  0  0  0  0  0  0
   -4.2514   -1.8607   -0.9570 O   0  0  0  0  0  0  0  0  0  0  0  0
   -4.5520    0.3323   -0.5412 O   0  0  0  0  0  0  0  0  0  0  0  0
   -5.4717    0.0215   -0.5429 H   0  0  0  0  0  0  0  0  0  0  0  0
  1  6  1  0  0  0  0
  2  1  2  0  0  0  0
  2  3  1  0  0  0  0
  3  4  2  0  0  0  0
  4  5  1  0  0  0  0
  4  8  1  0  0  0  0
  5  9  1  0  0  0  0
  6 12  1  0  0  0  0
  6  5  2  0  0  0  0
  7  1  1  0  0  0  0
 10  3  1  0  0  0  0
 11 10  1  0  0  0  0
 12 14  1  0  0  0  0
 13 12  2  0  0  0  0
 15 14  1  0  0  0  0
M  RAD  3   2   2  10   2  11   3
M  END
