Coordinates from ORCA-job 4-HOOC-C6H3-N2-B3LYPG-aug-cc-pVDZ-scan-d09-49-n400
 OpenBabel11091809033D

 15 14  0  0  0  0  0  0  0  0999 V2000
   -1.6894   -1.6654   -1.0777 C   0  0  0  0  0  0  0  0  0  0  0  0
   -0.3527   -1.3155   -1.0969 C   0  0  0  0  0  0  0  0  0  0  0  0
    0.1302   -0.1730   -0.9192 C   0  0  0  0  0  0  0  0  0  0  0  0
   -0.5554    1.0042   -0.6628 C   0  0  0  0  0  0  0  0  0  0  0  0
   -1.9458    0.7621   -0.6207 C   0  0  0  0  0  0  0  0  0  0  0  0
   -2.5006   -0.5248   -0.8200 C   0  0  0  0  0  0  0  0  0  0  0  0
   -2.1309   -2.6473   -1.2286 H   0  0  0  0  0  0  0  0  0  0  0  0
   -0.1260    1.9916   -0.5100 H   0  0  0  0  0  0  0  0  0  0  0  0
   -2.6173    1.5972   -0.4273 H   0  0  0  0  0  0  0  0  0  0  0  0
    2.8335    1.1380   -0.8487 N   0  0  0  0  0  0  0  0  0  0  0  0
    3.7954    0.6182   -1.0048 N   0  0  0  0  0  0  0  0  0  0  0  0
   -3.9738   -0.7510   -0.7695 C   0  0  0  0  0  0  0  0  0  0  0  0
   -4.5155   -1.8245   -0.9349 O   0  0  0  0  0  0  0  0  0  0  0  0
   -4.6847    0.3830   -0.5247 O   0  0  0  0  0  0  0  0  0  0  0  0
   -5.6194    0.1211   -0.5175 H   0  0  0  0  0  0  0  0  0  0  0  0
  1  6  1  0  0  0  0
  2  1  2  0  0  0  0
  2  3  1  0  0  0  0
  3  4  2  0  0  0  0
  4  5  1  0  0  0  0
  4  8  1  0  0  0  0
  5  9  1  0  0  0  0
  6 12  1  0  0  0  0
  6  5  2  0  0  0  0
  7  1  1  0  0  0  0
 11 10  3  0  0  0  0
 12 14  1  0  0  0  0
 13 12  2  0  0  0  0
 14 15  1  0  0  0  0
M  RAD  2   2   2   3   2
M  END
