Coordinates from ORCA-job 4-HOOC-C6H3-N2-B3LYPG-aug-cc-pVDZ-scan-d09-49-n400
 OpenBabel11091809033D

 15 14  0  0  0  0  0  0  0  0999 V2000
   -1.9954   -1.8939   -1.1006 C   0  0  0  0  0  0  0  0  0  0  0  0
   -0.6243   -1.7399   -1.1560 C   0  0  0  0  0  0  0  0  0  0  0  0
    0.0303   -0.6821   -1.0049 C   0  0  0  0  0  0  0  0  0  0  0  0
   -0.4713    0.5861   -0.7455 C   0  0  0  0  0  0  0  0  0  0  0  0
   -1.8809    0.5486   -0.6668 C   0  0  0  0  0  0  0  0  0  0  0  0
   -2.6234   -0.6443   -0.8372 C   0  0  0  0  0  0  0  0  0  0  0  0
   -2.5790   -2.8020   -1.2292 H   0  0  0  0  0  0  0  0  0  0  0  0
    0.0947    1.5056   -0.6140 H   0  0  0  0  0  0  0  0  0  0  0  0
   -2.4182    1.4745   -0.4672 H   0  0  0  0  0  0  0  0  0  0  0  0
    3.3180    1.9780   -0.7259 N   0  0  0  0  0  0  0  0  0  0  0  0
    4.3640    1.6460   -0.8478 N   0  0  0  0  0  0  0  0  0  0  0  0
   -4.1121   -0.6515   -0.7486 C   0  0  0  0  0  0  0  0  0  0  0  0
   -4.8085   -1.6370   -0.8798 O   0  0  0  0  0  0  0  0  0  0  0  0
   -4.6421    0.5745   -0.4896 O   0  0  0  0  0  0  0  0  0  0  0  0
   -5.6042    0.4514   -0.4501 H   0  0  0  0  0  0  0  0  0  0  0  0
  1  6  1  0  0  0  0
  2  1  2  0  0  0  0
  2  3  1  0  0  0  0
  3  4  2  0  0  0  0
  4  5  1  0  0  0  0
  4  8  1  0  0  0  0
  5  9  1  0  0  0  0
  6 12  1  0  0  0  0
  6  5  2  0  0  0  0
  7  1  1  0  0  0  0
 11 10  3  0  0  0  0
 12 14  1  0  0  0  0
 13 12  2  0  0  0  0
 14 15  1  0  0  0  0
M  RAD  2   2   2   3   2
M  END
