Coordinates from ORCA-job 4-HOOC-C6H3-N2-B3LYPG-aug-cc-pVDZ-scan-d09-49-n400
 OpenBabel11091809033D

 15 14  0  0  0  0  0  0  0  0999 V2000
   -1.5218   -1.5466   -1.0659 C   0  0  0  0  0  0  0  0  0  0  0  0
   -0.1865   -1.1564   -1.0783 C   0  0  0  0  0  0  0  0  0  0  0  0
    0.1752    0.0324   -0.8849 C   0  0  0  0  0  0  0  0  0  0  0  0
   -0.5610    1.1710   -0.6322 C   0  0  0  0  0  0  0  0  0  0  0  0
   -1.9345    0.8536   -0.6041 C   0  0  0  0  0  0  0  0  0  0  0  0
   -2.4065   -0.4648   -0.8138 C   0  0  0  0  0  0  0  0  0  0  0  0
   -1.9084   -2.5514   -1.2240 H   0  0  0  0  0  0  0  0  0  0  0  0
   -0.1776    2.1770   -0.4734 H   0  0  0  0  0  0  0  0  0  0  0  0
   -2.6542    1.6482   -0.4147 H   0  0  0  0  0  0  0  0  0  0  0  0
    2.3357    0.7070   -0.8975 N   0  0  0  0  0  0  0  0  0  0  0  0
    3.2989    0.1857   -1.0533 N   0  0  0  0  0  0  0  0  0  0  0  0
   -3.8644   -0.7766   -0.7787 C   0  0  0  0  0  0  0  0  0  0  0  0
   -4.3428   -1.8779   -0.9558 O   0  0  0  0  0  0  0  0  0  0  0  0
   -4.6434    0.3143   -0.5405 O   0  0  0  0  0  0  0  0  0  0  0  0
   -5.5612   -0.0018   -0.5460 H   0  0  0  0  0  0  0  0  0  0  0  0
  1  6  1  0  0  0  0
  2  1  2  0  0  0  0
  2  3  1  0  0  0  0
  3  4  2  0  0  0  0
  4  5  1  0  0  0  0
  4  8  1  0  0  0  0
  5  9  1  0  0  0  0
  6 12  1  0  0  0  0
  6  5  2  0  0  0  0
  7  1  1  0  0  0  0
 11 10  3  0  0  0  0
 12 14  1  0  0  0  0
 13 12  2  0  0  0  0
 15 14  1  0  0  0  0
M  RAD  2   2   2   3   2
M  END
