Coordinates from ORCA-job 4-HOOC-C6H3-N2-B3LYPG-aug-cc-pVDZ-scan-d09-49-n400
 OpenBabel11091809033D

 15 14  0  0  0  0  0  0  0  0999 V2000
   -1.5411   -1.5614   -1.0685 C   0  0  0  0  0  0  0  0  0  0  0  0
   -0.2068   -1.1733   -1.0800 C   0  0  0  0  0  0  0  0  0  0  0  0
    0.1690    0.0097   -0.8885 C   0  0  0  0  0  0  0  0  0  0  0  0
   -0.5593    1.1539   -0.6362 C   0  0  0  0  0  0  0  0  0  0  0  0
   -1.9356    0.8435   -0.6080 C   0  0  0  0  0  0  0  0  0  0  0  0
   -2.4171   -0.4714   -0.8169 C   0  0  0  0  0  0  0  0  0  0  0  0
   -1.9340   -2.5637   -1.2261 H   0  0  0  0  0  0  0  0  0  0  0  0
   -0.1736    2.1588   -0.4776 H   0  0  0  0  0  0  0  0  0  0  0  0
   -2.6506    1.6426   -0.4192 H   0  0  0  0  0  0  0  0  0  0  0  0
    2.3925    0.7503   -0.8910 N   0  0  0  0  0  0  0  0  0  0  0  0
    3.3600    0.2374   -1.0446 N   0  0  0  0  0  0  0  0  0  0  0  0
   -3.8772   -0.7729   -0.7819 C   0  0  0  0  0  0  0  0  0  0  0  0
   -4.3624   -1.8724   -0.9517 O   0  0  0  0  0  0  0  0  0  0  0  0
   -4.6483    0.3218   -0.5364 O   0  0  0  0  0  0  0  0  0  0  0  0
   -5.5679    0.0109   -0.5365 H   0  0  0  0  0  0  0  0  0  0  0  0
  1  6  1  0  0  0  0
  2  1  2  0  0  0  0
  2  3  1  0  0  0  0
  3  4  2  0  0  0  0
  4  5  1  0  0  0  0
  4  8  1  0  0  0  0
  5  9  1  0  0  0  0
  6 12  1  0  0  0  0
  6  5  2  0  0  0  0
  7  1  1  0  0  0  0
 11 10  3  0  0  0  0
 12 14  1  0  0  0  0
 13 12  2  0  0  0  0
 15 14  1  0  0  0  0
M  RAD  2   2   2   3   2
M  END
