Coordinates from ORCA-job 4-HOOC-C6H3-N2-B3LYPG-aug-cc-pVDZ-scan-d09-49-n400
 OpenBabel11091809033D

 15 14  0  0  0  0  0  0  0  0999 V2000
   -1.4987   -1.5317   -1.0654 C   0  0  0  0  0  0  0  0  0  0  0  0
   -0.1582   -1.1491   -1.0783 C   0  0  0  0  0  0  0  0  0  0  0  0
    0.1843    0.0484   -0.8822 C   0  0  0  0  0  0  0  0  0  0  0  0
   -0.5557    1.1837   -0.6308 C   0  0  0  0  0  0  0  0  0  0  0  0
   -1.9273    0.8635   -0.6046 C   0  0  0  0  0  0  0  0  0  0  0  0
   -2.3912   -0.4575   -0.8157 C   0  0  0  0  0  0  0  0  0  0  0  0
   -1.8820   -2.5380   -1.2244 H   0  0  0  0  0  0  0  0  0  0  0  0
   -0.1730    2.1902   -0.4717 H   0  0  0  0  0  0  0  0  0  0  0  0
   -2.6502    1.6553   -0.4166 H   0  0  0  0  0  0  0  0  0  0  0  0
    2.2385    0.6588   -0.8980 N   0  0  0  0  0  0  0  0  0  0  0  0
    3.2100    0.1503   -1.0524 N   0  0  0  0  0  0  0  0  0  0  0  0
   -3.8478   -0.7765   -0.7840 C   0  0  0  0  0  0  0  0  0  0  0  0
   -4.3205   -1.8810   -0.9562 O   0  0  0  0  0  0  0  0  0  0  0  0
   -4.6323    0.3095   -0.5400 O   0  0  0  0  0  0  0  0  0  0  0  0
   -5.5482   -0.0120   -0.5428 H   0  0  0  0  0  0  0  0  0  0  0  0
  1  6  1  0  0  0  0
  2  1  2  0  0  0  0
  2  3  1  0  0  0  0
  3  4  2  0  0  0  0
  4  5  1  0  0  0  0
  4  8  1  0  0  0  0
  5  9  1  0  0  0  0
  6 12  1  0  0  0  0
  6  5  2  0  0  0  0
  7  1  1  0  0  0  0
 11 10  3  0  0  0  0
 12 14  1  0  0  0  0
 13 12  2  0  0  0  0
 15 14  1  0  0  0  0
M  RAD  2   2   2   3   2
M  END
