Coordinates from ORCA-job 4-HOOC-C6H3-N2-B3LYPG-aug-cc-pVDZ-scan-d09-49-n400
 OpenBabel11091809033D

 15 15  0  0  0  0  0  0  0  0999 V2000
   -1.4190   -1.4678   -1.0589 C   0  0  0  0  0  0  0  0  0  0  0  0
   -0.0209   -1.2210   -1.1004 C   0  0  0  0  0  0  0  0  0  0  0  0
    0.2401    0.0668   -0.8828 C   0  0  0  0  0  0  0  0  0  0  0  0
   -0.5428    1.1924   -0.6303 C   0  0  0  0  0  0  0  0  0  0  0  0
   -1.9021    0.9020   -0.5991 C   0  0  0  0  0  0  0  0  0  0  0  0
   -2.3366   -0.4307   -0.8140 C   0  0  0  0  0  0  0  0  0  0  0  0
   -1.8186   -2.4710   -1.2162 H   0  0  0  0  0  0  0  0  0  0  0  0
   -0.1458    2.1954   -0.4728 H   0  0  0  0  0  0  0  0  0  0  0  0
   -2.6267    1.6902   -0.4113 H   0  0  0  0  0  0  0  0  0  0  0  0
    1.8290    0.3894   -0.9224 N   0  0  0  0  0  0  0  0  0  0  0  0
    2.9254    0.2288   -1.0193 N   0  0  0  0  0  0  0  0  0  0  0  0
   -3.7917   -0.7701   -0.7856 C   0  0  0  0  0  0  0  0  0  0  0  0
   -4.2536   -1.8778   -0.9599 O   0  0  0  0  0  0  0  0  0  0  0  0
   -4.5882    0.3089   -0.5427 O   0  0  0  0  0  0  0  0  0  0  0  0
   -5.5008   -0.0216   -0.5476 H   0  0  0  0  0  0  0  0  0  0  0  0
  1  6  1  0  0  0  0
  2  1  2  0  0  0  0
  2  3  1  0  0  0  0
  3  4  2  0  0  0  0
  4  5  1  0  0  0  0
  4  8  1  0  0  0  0
  5  9  1  0  0  0  0
  6 12  1  0  0  0  0
  6  5  2  0  0  0  0
  7  1  1  0  0  0  0
 10  3  1  0  0  0  0
 11 10  1  0  0  0  0
 12 14  1  0  0  0  0
 13 12  2  0  0  0  0
 15 14  1  0  0  0  0
M  RAD  3   2   2  10   2  11   3
M  END
