Coordinates from ORCA-job 4-HOOC-C6H3-N2-B3LYPG-aug-cc-pVDZ-scan-d09-49-n400
 OpenBabel11091809033D

 15 14  0  0  0  0  0  0  0  0999 V2000
   -2.1125   -1.9782   -1.1085 C   0  0  0  0  0  0  0  0  0  0  0  0
   -0.7357   -1.9142   -1.1811 C   0  0  0  0  0  0  0  0  0  0  0  0
   -0.0055   -0.9052   -1.0430 C   0  0  0  0  0  0  0  0  0  0  0  0
   -0.4211    0.3944   -0.7824 C   0  0  0  0  0  0  0  0  0  0  0  0
   -1.8286    0.4521   -0.6860 C   0  0  0  0  0  0  0  0  0  0  0  0
   -2.6520   -0.6885   -0.8422 C   0  0  0  0  0  0  0  0  0  0  0  0
   -2.7566   -2.8459   -1.2263 H   0  0  0  0  0  0  0  0  0  0  0  0
    0.2053    1.2756   -0.6611 H   0  0  0  0  0  0  0  0  0  0  0  0
   -2.2997    1.4128   -0.4833 H   0  0  0  0  0  0  0  0  0  0  0  0
    3.3644    2.2623   -0.6768 N   0  0  0  0  0  0  0  0  0  0  0  0
    4.4529    2.1043   -0.7736 N   0  0  0  0  0  0  0  0  0  0  0  0
   -4.1365   -0.5956   -0.7348 C   0  0  0  0  0  0  0  0  0  0  0  0
   -4.8991   -1.5320   -0.8564 O   0  0  0  0  0  0  0  0  0  0  0  0
   -4.5800    0.6648   -0.4786 O   0  0  0  0  0  0  0  0  0  0  0  0
   -5.5477    0.6072   -0.4291 H   0  0  0  0  0  0  0  0  0  0  0  0
  1  6  1  0  0  0  0
  2  1  2  0  0  0  0
  2  3  1  0  0  0  0
  3  4  2  0  0  0  0
  4  5  1  0  0  0  0
  4  8  1  0  0  0  0
  5  9  1  0  0  0  0
  6 12  1  0  0  0  0
  6  5  2  0  0  0  0
  7  1  1  0  0  0  0
 11 10  3  0  0  0  0
 12 14  1  0  0  0  0
 13 12  2  0  0  0  0
 14 15  1  0  0  0  0
M  RAD  2   2   2   3   2
M  END
