Coordinates from ORCA-job 4-HOOC-C6H3-N2-B3LYPG-aug-cc-pVDZ-scan-d09-49-n400
 OpenBabel11091809033D

 15 14  0  0  0  0  0  0  0  0999 V2000
   -1.7999   -1.7468   -1.0860 C   0  0  0  0  0  0  0  0  0  0  0  0
   -0.4502   -1.4571   -1.1163 C   0  0  0  0  0  0  0  0  0  0  0  0
    0.0947   -0.3413   -0.9475 C   0  0  0  0  0  0  0  0  0  0  0  0
   -0.5364    0.8675   -0.6896 C   0  0  0  0  0  0  0  0  0  0  0  0
   -1.9363    0.6917   -0.6355 C   0  0  0  0  0  0  0  0  0  0  0  0
   -2.5534   -0.5678   -0.8260 C   0  0  0  0  0  0  0  0  0  0  0  0
   -2.2881   -2.7073   -1.2301 H   0  0  0  0  0  0  0  0  0  0  0  0
   -0.0617    1.8351   -0.5433 H   0  0  0  0  0  0  0  0  0  0  0  0
   -2.5657    1.5584   -0.4397 H   0  0  0  0  0  0  0  0  0  0  0  0
    3.0966    1.4843   -0.8014 N   0  0  0  0  0  0  0  0  0  0  0  0
    4.0355    0.9263   -0.9612 N   0  0  0  0  0  0  0  0  0  0  0  0
   -4.0352   -0.7240   -0.7633 C   0  0  0  0  0  0  0  0  0  0  0  0
   -4.6279   -1.7719   -0.9173 O   0  0  0  0  0  0  0  0  0  0  0  0
   -4.6893    0.4423   -0.5121 O   0  0  0  0  0  0  0  0  0  0  0  0
   -5.6352    0.2245   -0.4938 H   0  0  0  0  0  0  0  0  0  0  0  0
  1  6  1  0  0  0  0
  2  1  2  0  0  0  0
  2  3  1  0  0  0  0
  3  4  2  0  0  0  0
  4  5  1  0  0  0  0
  4  8  1  0  0  0  0
  5  9  1  0  0  0  0
  6 12  1  0  0  0  0
  6  5  2  0  0  0  0
  7  1  1  0  0  0  0
 11 10  3  0  0  0  0
 12 14  1  0  0  0  0
 13 12  2  0  0  0  0
 14 15  1  0  0  0  0
M  RAD  2   2   2   3   2
M  END
