Coordinates from ORCA-job 4-HOOC-C6H3-N2-B3LYPG-aug-cc-pVDZ-scan-d09-49-n400
 OpenBabel11091809033D

 15 15  0  0  0  0  0  0  0  0999 V2000
   -1.4258   -1.4735   -1.0598 C   0  0  0  0  0  0  0  0  0  0  0  0
   -0.0429   -1.1852   -1.0924 C   0  0  0  0  0  0  0  0  0  0  0  0
    0.2292    0.0760   -0.8804 C   0  0  0  0  0  0  0  0  0  0  0  0
   -0.5450    1.1991   -0.6291 C   0  0  0  0  0  0  0  0  0  0  0  0
   -1.9071    0.8980   -0.6001 C   0  0  0  0  0  0  0  0  0  0  0  0
   -2.3437   -0.4324   -0.8146 C   0  0  0  0  0  0  0  0  0  0  0  0
   -1.8154   -2.4797   -1.2184 H   0  0  0  0  0  0  0  0  0  0  0  0
   -0.1521    2.2036   -0.4710 H   0  0  0  0  0  0  0  0  0  0  0  0
   -2.6337    1.6849   -0.4128 H   0  0  0  0  0  0  0  0  0  0  0  0
    1.8888    0.4521   -0.9141 N   0  0  0  0  0  0  0  0  0  0  0  0
    2.9538    0.1525   -1.0341 N   0  0  0  0  0  0  0  0  0  0  0  0
   -3.7974   -0.7732   -0.7872 C   0  0  0  0  0  0  0  0  0  0  0  0
   -4.2569   -1.8824   -0.9600 O   0  0  0  0  0  0  0  0  0  0  0  0
   -4.5962    0.3035   -0.5425 O   0  0  0  0  0  0  0  0  0  0  0  0
   -5.5079   -0.0295   -0.5467 H   0  0  0  0  0  0  0  0  0  0  0  0
  1  6  1  0  0  0  0
  2  1  2  0  0  0  0
  2  3  1  0  0  0  0
  3  4  2  0  0  0  0
  4  5  1  0  0  0  0
  4  8  1  0  0  0  0
  5  9  1  0  0  0  0
  6 12  1  0  0  0  0
  6  5  2  0  0  0  0
  7  1  1  0  0  0  0
 10  3  1  0  0  0  0
 11 10  2  0  0  0  0
 12 14  1  0  0  0  0
 13 12  2  0  0  0  0
 15 14  1  0  0  0  0
M  RAD  2   2   2  11   2
M  END
