Coordinates from ORCA-job 4-HOOC-C6H3-N2-B3LYPG-aug-cc-pVDZ-scan-d09-49-n400
 OpenBabel11091809033D

 15 14  0  0  0  0  0  0  0  0999 V2000
   -1.9622   -1.8693   -1.0981 C   0  0  0  0  0  0  0  0  0  0  0  0
   -0.5940   -1.6905   -1.1492 C   0  0  0  0  0  0  0  0  0  0  0  0
    0.0411   -0.6214   -0.9945 C   0  0  0  0  0  0  0  0  0  0  0  0
   -0.4842    0.6370   -0.7348 C   0  0  0  0  0  0  0  0  0  0  0  0
   -1.8931    0.5742   -0.6602 C   0  0  0  0  0  0  0  0  0  0  0  0
   -2.6134   -0.6316   -0.8345 C   0  0  0  0  0  0  0  0  0  0  0  0
   -2.5290   -2.7875   -1.2297 H   0  0  0  0  0  0  0  0  0  0  0  0
    0.0654    1.5660   -0.6003 H   0  0  0  0  0  0  0  0  0  0  0  0
   -2.4475    1.4900   -0.4607 H   0  0  0  0  0  0  0  0  0  0  0  0
    3.2924    1.8930   -0.7397 N   0  0  0  0  0  0  0  0  0  0  0  0
    4.3241    1.5219   -0.8700 N   0  0  0  0  0  0  0  0  0  0  0  0
   -4.1019   -0.6659   -0.7500 C   0  0  0  0  0  0  0  0  0  0  0  0
   -4.7803   -1.6630   -0.8877 O   0  0  0  0  0  0  0  0  0  0  0  0
   -4.6550    0.5506   -0.4940 O   0  0  0  0  0  0  0  0  0  0  0  0
   -5.6149    0.4105   -0.4597 H   0  0  0  0  0  0  0  0  0  0  0  0
  1  6  1  0  0  0  0
  2  1  2  0  0  0  0
  2  3  1  0  0  0  0
  3  4  2  0  0  0  0
  4  5  1  0  0  0  0
  4  8  1  0  0  0  0
  5  9  1  0  0  0  0
  6 12  1  0  0  0  0
  6  5  2  0  0  0  0
  7  1  1  0  0  0  0
 11 10  3  0  0  0  0
 12 14  1  0  0  0  0
 13 12  2  0  0  0  0
 14 15  1  0  0  0  0
M  RAD  2   2   2   3   2
M  END
