Coordinates from ORCA-job 4-HOOC-C6H3-N2-B3LYPG-aug-cc-pVDZ-scan-d09-49-n400
 OpenBabel11091809033D

 15 14  0  0  0  0  0  0  0  0999 V2000
   -1.8476   -1.7834   -1.0895 C   0  0  0  0  0  0  0  0  0  0  0  0
   -0.4916   -1.5250   -1.1260 C   0  0  0  0  0  0  0  0  0  0  0  0
    0.0775   -0.4210   -0.9607 C   0  0  0  0  0  0  0  0  0  0  0  0
   -0.5224    0.8032   -0.7018 C   0  0  0  0  0  0  0  0  0  0  0  0
   -1.9260    0.6582   -0.6418 C   0  0  0  0  0  0  0  0  0  0  0  0
   -2.5727   -0.5870   -0.8278 C   0  0  0  0  0  0  0  0  0  0  0  0
   -2.3584   -2.7326   -1.2302 H   0  0  0  0  0  0  0  0  0  0  0  0
   -0.0285    1.7616   -0.5583 H   0  0  0  0  0  0  0  0  0  0  0  0
   -2.5350    1.5392   -0.4445 H   0  0  0  0  0  0  0  0  0  0  0  0
    3.1660    1.6034   -0.7843 N   0  0  0  0  0  0  0  0  0  0  0  0
    4.1361    1.0989   -0.9371 N   0  0  0  0  0  0  0  0  0  0  0  0
   -4.0574   -0.7087   -0.7585 C   0  0  0  0  0  0  0  0  0  0  0  0
   -4.6749   -1.7427   -0.9098 O   0  0  0  0  0  0  0  0  0  0  0  0
   -4.6835    0.4728   -0.5073 O   0  0  0  0  0  0  0  0  0  0  0  0
   -5.6341    0.2771   -0.4856 H   0  0  0  0  0  0  0  0  0  0  0  0
  1  6  1  0  0  0  0
  2  1  2  0  0  0  0
  2  3  1  0  0  0  0
  3  4  2  0  0  0  0
  4  5  1  0  0  0  0
  4  8  1  0  0  0  0
  5  9  1  0  0  0  0
  6 12  1  0  0  0  0
  6  5  2  0  0  0  0
  7  1  1  0  0  0  0
 11 10  3  0  0  0  0
 12 14  1  0  0  0  0
 13 12  2  0  0  0  0
 14 15  1  0  0  0  0
M  RAD  2   2   2   3   2
M  END
