Coordinates from ORCA-job 4-HOOC-C6H3-N2-B3LYPG-aug-cc-pVDZ-scan-d09-49-n400
 OpenBabel11081810443D

 15 15  0  0  0  0  0  0  0  0999 V2000
   -1.4031   -1.4740   -1.0610 C   0  0  0  0  0  0  0  0  0  0  0  0
    0.0157   -1.3483   -1.1250 C   0  0  0  0  0  0  0  0  0  0  0  0
    0.4234    0.0604   -0.8928 C   0  0  0  0  0  0  0  0  0  0  0  0
   -0.5044    1.1502   -0.6397 C   0  0  0  0  0  0  0  0  0  0  0  0
   -1.8456    0.8919   -0.6046 C   0  0  0  0  0  0  0  0  0  0  0  0
   -2.3025   -0.4396   -0.8182 C   0  0  0  0  0  0  0  0  0  0  0  0
   -1.8259   -2.4693   -1.2159 H   0  0  0  0  0  0  0  0  0  0  0  0
   -0.1108    2.1559   -0.4818 H   0  0  0  0  0  0  0  0  0  0  0  0
   -2.5553    1.6932   -0.4163 H   0  0  0  0  0  0  0  0  0  0  0  0
    1.5223    0.2773   -0.9235 N   0  0  0  0  0  0  0  0  0  0  0  0
    2.6425    0.4652   -0.9609 N   0  0  0  0  0  0  0  0  0  0  0  0
   -3.7687   -0.7576   -0.7863 C   0  0  0  0  0  0  0  0  0  0  0  0
   -4.2410   -1.8590   -0.9572 O   0  0  0  0  0  0  0  0  0  0  0  0
   -4.5385    0.3358   -0.5405 O   0  0  0  0  0  0  0  0  0  0  0  0
   -5.4606    0.0318   -0.5392 H   0  0  0  0  0  0  0  0  0  0  0  0
  1  6  1  0  0  0  0
  2  1  2  0  0  0  0
  2  3  1  0  0  0  0
  3  4  2  0  0  0  0
  4  5  1  0  0  0  0
  4  8  1  0  0  0  0
  5  9  1  0  0  0  0
  6 12  1  0  0  0  0
  6  5  2  0  0  0  0
  7  1  1  0  0  0  0
 10  3  1  0  0  0  0
 11 10  1  0  0  0  0
 12 14  1  0  0  0  0
 13 12  2  0  0  0  0
 14 15  1  0  0  0  0
M  RAD  3   2   2  10   2  11   3
M  END
