Coordinates from ORCA-job 4-HOOC-C6H3-N2-B3LYPG-aug-cc-pVDZ-scan-d09-49-n400
 OpenBabel11091809033D

 15 14  0  0  0  0  0  0  0  0999 V2000
   -1.4874   -1.5239   -1.0646 C   0  0  0  0  0  0  0  0  0  0  0  0
   -0.1434   -1.1474   -1.0788 C   0  0  0  0  0  0  0  0  0  0  0  0
    0.1890    0.0553   -0.8811 C   0  0  0  0  0  0  0  0  0  0  0  0
   -0.5534    1.1889   -0.6299 C   0  0  0  0  0  0  0  0  0  0  0  0
   -1.9239    0.8683   -0.6039 C   0  0  0  0  0  0  0  0  0  0  0  0
   -2.3839   -0.4541   -0.8155 C   0  0  0  0  0  0  0  0  0  0  0  0
   -1.8695   -2.5309   -1.2238 H   0  0  0  0  0  0  0  0  0  0  0  0
   -0.1703    2.1954   -0.4708 H   0  0  0  0  0  0  0  0  0  0  0  0
   -2.6481    1.6588   -0.4161 H   0  0  0  0  0  0  0  0  0  0  0  0
    2.1898    0.6344   -0.8993 N   0  0  0  0  0  0  0  0  0  0  0  0
    3.1674    0.1363   -1.0529 N   0  0  0  0  0  0  0  0  0  0  0  0
   -3.8398   -0.7767   -0.7845 C   0  0  0  0  0  0  0  0  0  0  0  0
   -4.3100   -1.8821   -0.9571 O   0  0  0  0  0  0  0  0  0  0  0  0
   -4.6269    0.3076   -0.5408 O   0  0  0  0  0  0  0  0  0  0  0  0
   -5.5420   -0.0160   -0.5441 H   0  0  0  0  0  0  0  0  0  0  0  0
  1  6  1  0  0  0  0
  2  1  2  0  0  0  0
  2  3  1  0  0  0  0
  3  4  2  0  0  0  0
  4  5  1  0  0  0  0
  4  8  1  0  0  0  0
  5  9  1  0  0  0  0
  6 12  1  0  0  0  0
  6  5  2  0  0  0  0
  7  1  1  0  0  0  0
 11 10  3  0  0  0  0
 12 14  1  0  0  0  0
 13 12  2  0  0  0  0
 15 14  1  0  0  0  0
M  RAD  2   2   2   3   2
M  END
