Coordinates from ORCA-job 4-HOOC-C6H3-N2-B3LYPG-aug-cc-pVDZ-scan-d09-49-n400
 OpenBabel11081810443D

 15 15  0  0  0  0  0  0  0  0999 V2000
   -1.3989   -1.4709   -1.0607 C   0  0  0  0  0  0  0  0  0  0  0  0
    0.0168   -1.3580   -1.1282 C   0  0  0  0  0  0  0  0  0  0  0  0
    0.4603    0.0768   -0.8969 C   0  0  0  0  0  0  0  0  0  0  0  0
   -0.5011    1.1486   -0.6414 C   0  0  0  0  0  0  0  0  0  0  0  0
   -1.8399    0.8910   -0.6054 C   0  0  0  0  0  0  0  0  0  0  0  0
   -2.2996   -0.4381   -0.8183 C   0  0  0  0  0  0  0  0  0  0  0  0
   -1.8196   -2.4676   -1.2148 H   0  0  0  0  0  0  0  0  0  0  0  0
   -0.1050    2.1534   -0.4826 H   0  0  0  0  0  0  0  0  0  0  0  0
   -2.5470    1.6944   -0.4155 H   0  0  0  0  0  0  0  0  0  0  0  0
    1.4713    0.2739   -0.9214 N   0  0  0  0  0  0  0  0  0  0  0  0
    2.6035    0.4587   -0.9552 N   0  0  0  0  0  0  0  0  0  0  0  0
   -3.7657   -0.7574   -0.7857 C   0  0  0  0  0  0  0  0  0  0  0  0
   -4.2351   -1.8597   -0.9575 O   0  0  0  0  0  0  0  0  0  0  0  0
   -4.5348    0.3356   -0.5406 O   0  0  0  0  0  0  0  0  0  0  0  0
   -5.4576    0.0331   -0.5390 H   0  0  0  0  0  0  0  0  0  0  0  0
  1  6  1  0  0  0  0
  2  1  2  0  0  0  0
  2  3  1  0  0  0  0
  3  4  2  0  0  0  0
  4  5  1  0  0  0  0
  4  8  1  0  0  0  0
  5  9  1  0  0  0  0
  6 12  1  0  0  0  0
  6  5  2  0  0  0  0
  7  1  1  0  0  0  0
 10  3  1  0  0  0  0
 11 10  1  0  0  0  0
 12 14  1  0  0  0  0
 13 12  2  0  0  0  0
 14 15  1  0  0  0  0
M  RAD  3   2   2  10   2  11   3
M  END
