Coordinates from ORCA-job 4-HOOC-C6H3-N2-B3LYPG-aug-cc-pVDZ-scan-d09-49-n400
 OpenBabel11091809033D

 15 14  0  0  0  0  0  0  0  0999 V2000
   -1.8157   -1.7590   -1.0872 C   0  0  0  0  0  0  0  0  0  0  0  0
   -0.4638   -1.4799   -1.1196 C   0  0  0  0  0  0  0  0  0  0  0  0
    0.0893   -0.3679   -0.9520 C   0  0  0  0  0  0  0  0  0  0  0  0
   -0.5314    0.8460   -0.6939 C   0  0  0  0  0  0  0  0  0  0  0  0
   -1.9328    0.6806   -0.6379 C   0  0  0  0  0  0  0  0  0  0  0  0
   -2.5599   -0.5741   -0.8268 C   0  0  0  0  0  0  0  0  0  0  0  0
   -2.3115   -2.7158   -1.2303 H   0  0  0  0  0  0  0  0  0  0  0  0
   -0.0517    1.8112   -0.5484 H   0  0  0  0  0  0  0  0  0  0  0  0
   -2.5553    1.5522   -0.4417 H   0  0  0  0  0  0  0  0  0  0  0  0
    3.1201    1.5249   -0.7956 N   0  0  0  0  0  0  0  0  0  0  0  0
    4.0690    0.9826   -0.9527 N   0  0  0  0  0  0  0  0  0  0  0  0
   -4.0427   -0.7188   -0.7621 C   0  0  0  0  0  0  0  0  0  0  0  0
   -4.6437   -1.7623   -0.9145 O   0  0  0  0  0  0  0  0  0  0  0  0
   -4.6875    0.4525   -0.5102 O   0  0  0  0  0  0  0  0  0  0  0  0
   -5.6349    0.2419   -0.4904 H   0  0  0  0  0  0  0  0  0  0  0  0
  1  6  1  0  0  0  0
  2  1  2  0  0  0  0
  2  3  1  0  0  0  0
  3  4  2  0  0  0  0
  4  5  1  0  0  0  0
  4  8  1  0  0  0  0
  5  9  1  0  0  0  0
  6 12  1  0  0  0  0
  6  5  2  0  0  0  0
  7  1  1  0  0  0  0
 11 10  3  0  0  0  0
 12 14  1  0  0  0  0
 13 12  2  0  0  0  0
 14 15  1  0  0  0  0
M  RAD  2   2   2   3   2
M  END
