Coordinates from ORCA-job 4-HOOC-C6H3-N2-B3LYPG-aug-cc-pVDZ-scan-d09-49-n400
 OpenBabel11091809033D

 15 14  0  0  0  0  0  0  0  0999 V2000
   -1.6558   -1.6411   -1.0759 C   0  0  0  0  0  0  0  0  0  0  0  0
   -0.3217   -1.2776   -1.0918 C   0  0  0  0  0  0  0  0  0  0  0  0
    0.1400   -0.1267   -0.9113 C   0  0  0  0  0  0  0  0  0  0  0  0
   -0.5584    1.0420   -0.6564 C   0  0  0  0  0  0  0  0  0  0  0  0
   -1.9456    0.7823   -0.6185 C   0  0  0  0  0  0  0  0  0  0  0  0
   -2.4828   -0.5118   -0.8203 C   0  0  0  0  0  0  0  0  0  0  0  0
   -2.0847   -2.6284   -1.2288 H   0  0  0  0  0  0  0  0  0  0  0  0
   -0.1407    2.0341   -0.5020 H   0  0  0  0  0  0  0  0  0  0  0  0
   -2.6284    1.6086   -0.4267 H   0  0  0  0  0  0  0  0  0  0  0  0
    2.7374    1.0327   -0.8606 N   0  0  0  0  0  0  0  0  0  0  0  0
    3.7111    0.5344   -1.0128 N   0  0  0  0  0  0  0  0  0  0  0  0
   -3.9531   -0.7567   -0.7746 C   0  0  0  0  0  0  0  0  0  0  0  0
   -4.4806   -1.8376   -0.9381 O   0  0  0  0  0  0  0  0  0  0  0  0
   -4.6790    0.3672   -0.5263 O   0  0  0  0  0  0  0  0  0  0  0  0
   -5.6101    0.0926   -0.5190 H   0  0  0  0  0  0  0  0  0  0  0  0
  1  6  1  0  0  0  0
  2  1  2  0  0  0  0
  2  3  1  0  0  0  0
  3  4  2  0  0  0  0
  4  5  1  0  0  0  0
  4  8  1  0  0  0  0
  5  9  1  0  0  0  0
  6 12  1  0  0  0  0
  6  5  2  0  0  0  0
  7  1  1  0  0  0  0
 11 10  3  0  0  0  0
 12 14  1  0  0  0  0
 13 12  2  0  0  0  0
 14 15  1  0  0  0  0
M  RAD  2   2   2   3   2
M  END
