Coordinates from ORCA-job 4-HOOC-C6H3-N2-B3LYPG-aug-cc-pVDZ-scan-d09-49-n400
 OpenBabel11091809033D

 15 14  0  0  0  0  0  0  0  0999 V2000
   -1.5617   -1.5758   -1.0697 C   0  0  0  0  0  0  0  0  0  0  0  0
   -0.2284   -1.1894   -1.0816 C   0  0  0  0  0  0  0  0  0  0  0  0
    0.1632   -0.0124   -0.8922 C   0  0  0  0  0  0  0  0  0  0  0  0
   -0.5602    1.1361   -0.6392 C   0  0  0  0  0  0  0  0  0  0  0  0
   -1.9386    0.8332   -0.6094 C   0  0  0  0  0  0  0  0  0  0  0  0
   -2.4295   -0.4784   -0.8171 C   0  0  0  0  0  0  0  0  0  0  0  0
   -1.9603   -2.5757   -1.2265 H   0  0  0  0  0  0  0  0  0  0  0  0
   -0.1704    2.1391   -0.4812 H   0  0  0  0  0  0  0  0  0  0  0  0
   -2.6487    1.6366   -0.4199 H   0  0  0  0  0  0  0  0  0  0  0  0
    2.4592    0.7951   -0.8872 N   0  0  0  0  0  0  0  0  0  0  0  0
    3.4301    0.2896   -1.0400 N   0  0  0  0  0  0  0  0  0  0  0  0
   -3.8914   -0.7706   -0.7801 C   0  0  0  0  0  0  0  0  0  0  0  0
   -4.3836   -1.8671   -0.9496 O   0  0  0  0  0  0  0  0  0  0  0  0
   -4.6552    0.3292   -0.5350 O   0  0  0  0  0  0  0  0  0  0  0  0
   -5.5768    0.0243   -0.5345 H   0  0  0  0  0  0  0  0  0  0  0  0
  1  6  1  0  0  0  0
  2  1  2  0  0  0  0
  2  3  1  0  0  0  0
  3  4  2  0  0  0  0
  4  5  1  0  0  0  0
  4  8  1  0  0  0  0
  5  9  1  0  0  0  0
  6 12  1  0  0  0  0
  6  5  2  0  0  0  0
  7  1  1  0  0  0  0
 11 10  3  0  0  0  0
 12 14  1  0  0  0  0
 13 12  2  0  0  0  0
 14 15  1  0  0  0  0
M  RAD  2   2   2   3   2
M  END
