Coordinates from ORCA-job 4-HOOC-C6H3-N2-B3LYPG-aug-cc-pVDZ-scan-d09-49-n400
 OpenBabel11091809033D

 15 14  0  0  0  0  0  0  0  0999 V2000
   -1.4892   -1.5248   -1.0653 C   0  0  0  0  0  0  0  0  0  0  0  0
   -0.1456   -1.1477   -1.0786 C   0  0  0  0  0  0  0  0  0  0  0  0
    0.1881    0.0543   -0.8811 C   0  0  0  0  0  0  0  0  0  0  0  0
   -0.5540    1.1882   -0.6304 C   0  0  0  0  0  0  0  0  0  0  0  0
   -1.9247    0.8678   -0.6052 C   0  0  0  0  0  0  0  0  0  0  0  0
   -2.3852   -0.4543   -0.8170 C   0  0  0  0  0  0  0  0  0  0  0  0
   -1.8715   -2.5317   -1.2247 H   0  0  0  0  0  0  0  0  0  0  0  0
   -0.1710    2.1948   -0.4712 H   0  0  0  0  0  0  0  0  0  0  0  0
   -2.6488    1.6587   -0.4179 H   0  0  0  0  0  0  0  0  0  0  0  0
    2.1981    0.6377   -0.8980 N   0  0  0  0  0  0  0  0  0  0  0  0
    3.1749    0.1380   -1.0512 N   0  0  0  0  0  0  0  0  0  0  0  0
   -3.8413   -0.7762   -0.7871 C   0  0  0  0  0  0  0  0  0  0  0  0
   -4.3116   -1.8822   -0.9560 O   0  0  0  0  0  0  0  0  0  0  0  0
   -4.6278    0.3076   -0.5393 O   0  0  0  0  0  0  0  0  0  0  0  0
   -5.5429   -0.0162   -0.5402 H   0  0  0  0  0  0  0  0  0  0  0  0
  1  6  1  0  0  0  0
  2  1  2  0  0  0  0
  2  3  1  0  0  0  0
  3  4  2  0  0  0  0
  4  5  1  0  0  0  0
  4  8  1  0  0  0  0
  5  9  1  0  0  0  0
  6 12  1  0  0  0  0
  6  5  2  0  0  0  0
  7  1  1  0  0  0  0
 11 10  3  0  0  0  0
 12 14  1  0  0  0  0
 13 12  2  0  0  0  0
 15 14  1  0  0  0  0
M  RAD  2   2   2   3   2
M  END
