Coordinates from ORCA-job 4-HOOC-C6H3-N2-B3LYPG-aug-cc-pVDZ-scan-d09-49-n400
 OpenBabel11081810443D

 15 15  0  0  0  0  0  0  0  0999 V2000
   -1.4082   -1.4769   -1.0614 C   0  0  0  0  0  0  0  0  0  0  0  0
    0.0122   -1.3370   -1.1233 C   0  0  0  0  0  0  0  0  0  0  0  0
    0.3842    0.0501   -0.8940 C   0  0  0  0  0  0  0  0  0  0  0  0
   -0.5101    1.1544   -0.6391 C   0  0  0  0  0  0  0  0  0  0  0  0
   -1.8537    0.8932   -0.6040 C   0  0  0  0  0  0  0  0  0  0  0  0
   -2.3071   -0.4404   -0.8180 C   0  0  0  0  0  0  0  0  0  0  0  0
   -1.8325   -2.4713   -1.2158 H   0  0  0  0  0  0  0  0  0  0  0  0
   -0.1176    2.1601   -0.4809 H   0  0  0  0  0  0  0  0  0  0  0  0
   -2.5667    1.6915   -0.4154 H   0  0  0  0  0  0  0  0  0  0  0  0
    1.5827    0.2801   -0.9267 N   0  0  0  0  0  0  0  0  0  0  0  0
    2.6941    0.4645   -0.9623 N   0  0  0  0  0  0  0  0  0  0  0  0
   -3.7727   -0.7583   -0.7856 C   0  0  0  0  0  0  0  0  0  0  0  0
   -4.2473   -1.8592   -0.9565 O   0  0  0  0  0  0  0  0  0  0  0  0
   -4.5444    0.3350   -0.5403 O   0  0  0  0  0  0  0  0  0  0  0  0
   -5.4655    0.0282   -0.5396 H   0  0  0  0  0  0  0  0  0  0  0  0
  1  6  1  0  0  0  0
  2  1  2  0  0  0  0
  2  3  1  0  0  0  0
  3  4  2  0  0  0  0
  4  5  1  0  0  0  0
  4  8  1  0  0  0  0
  5  9  1  0  0  0  0
  6 12  1  0  0  0  0
  6  5  2  0  0  0  0
  7  1  1  0  0  0  0
 10  3  1  0  0  0  0
 11 10  1  0  0  0  0
 12 14  1  0  0  0  0
 13 12  2  0  0  0  0
 14 15  1  0  0  0  0
M  RAD  3   2   2  10   2  11   3
M  END
