Coordinates from ORCA-job 4-HOOC-C6H3-N2-B3LYPG-aug-cc-pVDZ-scan-d09-49-n400
 OpenBabel11091809033D

 15 14  0  0  0  0  0  0  0  0999 V2000
   -1.8636   -1.7951   -1.0907 C   0  0  0  0  0  0  0  0  0  0  0  0
   -0.5057   -1.5474   -1.1288 C   0  0  0  0  0  0  0  0  0  0  0  0
    0.0723   -0.4476   -0.9649 C   0  0  0  0  0  0  0  0  0  0  0  0
   -0.5182    0.7812   -0.7063 C   0  0  0  0  0  0  0  0  0  0  0  0
   -1.9228    0.6473   -0.6447 C   0  0  0  0  0  0  0  0  0  0  0  0
   -2.5793   -0.5930   -0.8293 C   0  0  0  0  0  0  0  0  0  0  0  0
   -2.3818   -2.7404   -1.2303 H   0  0  0  0  0  0  0  0  0  0  0  0
   -0.0164    1.7356   -0.5640 H   0  0  0  0  0  0  0  0  0  0  0  0
   -2.5247    1.5331   -0.4474 H   0  0  0  0  0  0  0  0  0  0  0  0
    3.1887    1.6427   -0.7778 N   0  0  0  0  0  0  0  0  0  0  0  0
    4.1687    1.1569   -0.9283 N   0  0  0  0  0  0  0  0  0  0  0  0
   -4.0648   -0.7033   -0.7586 C   0  0  0  0  0  0  0  0  0  0  0  0
   -4.6903   -1.7329   -0.9064 O   0  0  0  0  0  0  0  0  0  0  0  0
   -4.6814    0.4828   -0.5051 O   0  0  0  0  0  0  0  0  0  0  0  0
   -5.6333    0.2940   -0.4807 H   0  0  0  0  0  0  0  0  0  0  0  0
  1  6  1  0  0  0  0
  2  1  2  0  0  0  0
  2  3  1  0  0  0  0
  3  4  2  0  0  0  0
  4  5  1  0  0  0  0
  4  8  1  0  0  0  0
  5  9  1  0  0  0  0
  6 12  1  0  0  0  0
  6  5  2  0  0  0  0
  7  1  1  0  0  0  0
 11 10  3  0  0  0  0
 12 14  1  0  0  0  0
 13 12  2  0  0  0  0
 14 15  1  0  0  0  0
M  RAD  2   2   2   3   2
M  END
