Coordinates from ORCA-job 4-HOOC-C6H3-N2-B3LYPG-aug-cc-pVDZ-scan-d09-49-n400
 OpenBabel11091809033D

 15 14  0  0  0  0  0  0  0  0999 V2000
   -1.8210   -1.7634   -1.0876 C   0  0  0  0  0  0  0  0  0  0  0  0
   -0.4684   -1.4878   -1.1208 C   0  0  0  0  0  0  0  0  0  0  0  0
    0.0871   -0.3771   -0.9535 C   0  0  0  0  0  0  0  0  0  0  0  0
   -0.5295    0.8387   -0.6952 C   0  0  0  0  0  0  0  0  0  0  0  0
   -1.9313    0.6767   -0.6384 C   0  0  0  0  0  0  0  0  0  0  0  0
   -2.5618   -0.5764   -0.8268 C   0  0  0  0  0  0  0  0  0  0  0  0
   -2.3195   -2.7189   -1.2302 H   0  0  0  0  0  0  0  0  0  0  0  0
   -0.0484    1.8033   -0.5499 H   0  0  0  0  0  0  0  0  0  0  0  0
   -2.5515    1.5499   -0.4419 H   0  0  0  0  0  0  0  0  0  0  0  0
    3.1272    1.5383   -0.7938 N   0  0  0  0  0  0  0  0  0  0  0  0
    4.0798    1.0023   -0.9502 N   0  0  0  0  0  0  0  0  0  0  0  0
   -4.0450   -0.7171   -0.7611 C   0  0  0  0  0  0  0  0  0  0  0  0
   -4.6490   -1.7588   -0.9139 O   0  0  0  0  0  0  0  0  0  0  0  0
   -4.6866    0.4561   -0.5099 O   0  0  0  0  0  0  0  0  0  0  0  0
   -5.6346    0.2482   -0.4900 H   0  0  0  0  0  0  0  0  0  0  0  0
  1  6  1  0  0  0  0
  2  1  2  0  0  0  0
  2  3  1  0  0  0  0
  3  4  2  0  0  0  0
  4  5  1  0  0  0  0
  4  8  1  0  0  0  0
  5  9  1  0  0  0  0
  6 12  1  0  0  0  0
  6  5  2  0  0  0  0
  7  1  1  0  0  0  0
 11 10  3  0  0  0  0
 12 14  1  0  0  0  0
 13 12  2  0  0  0  0
 14 15  1  0  0  0  0
M  RAD  2   2   2   3   2
M  END
