Coordinates from ORCA-job 4-HOOC-C6H3-N2-B3LYPG-aug-cc-pVDZ-scan-d09-49-n400
 OpenBabel11091809033D

 15 14  0  0  0  0  0  0  0  0999 V2000
   -1.5025   -1.5342   -1.0657 C   0  0  0  0  0  0  0  0  0  0  0  0
   -0.1631   -1.1500   -1.0783 C   0  0  0  0  0  0  0  0  0  0  0  0
    0.1827    0.0458   -0.8826 C   0  0  0  0  0  0  0  0  0  0  0  0
   -0.5565    1.1818   -0.6311 C   0  0  0  0  0  0  0  0  0  0  0  0
   -1.9285    0.8619   -0.6049 C   0  0  0  0  0  0  0  0  0  0  0  0
   -2.3937   -0.4587   -0.8158 C   0  0  0  0  0  0  0  0  0  0  0  0
   -1.8863   -2.5403   -1.2245 H   0  0  0  0  0  0  0  0  0  0  0  0
   -0.1738    2.1882   -0.4720 H   0  0  0  0  0  0  0  0  0  0  0  0
   -2.6509    1.6542   -0.4168 H   0  0  0  0  0  0  0  0  0  0  0  0
    2.2548    0.6669   -0.8976 N   0  0  0  0  0  0  0  0  0  0  0  0
    3.2245    0.1556   -1.0522 N   0  0  0  0  0  0  0  0  0  0  0  0
   -3.8506   -0.7764   -0.7838 C   0  0  0  0  0  0  0  0  0  0  0  0
   -4.3242   -1.8806   -0.9559 O   0  0  0  0  0  0  0  0  0  0  0  0
   -4.6341    0.3102   -0.5398 O   0  0  0  0  0  0  0  0  0  0  0  0
   -5.5502   -0.0105   -0.5423 H   0  0  0  0  0  0  0  0  0  0  0  0
  1  6  1  0  0  0  0
  2  1  2  0  0  0  0
  2  3  1  0  0  0  0
  3  4  2  0  0  0  0
  4  5  1  0  0  0  0
  4  8  1  0  0  0  0
  5  9  1  0  0  0  0
  6 12  1  0  0  0  0
  6  5  2  0  0  0  0
  7  1  1  0  0  0  0
 11 10  3  0  0  0  0
 12 14  1  0  0  0  0
 13 12  2  0  0  0  0
 15 14  1  0  0  0  0
M  RAD  2   2   2   3   2
M  END
