Coordinates from ORCA-job 4-HOOC-C6H3-N2-B3LYPG-aug-cc-pVDZ-scan-d09-49-n400
 OpenBabel11091809033D

 15 14  0  0  0  0  0  0  0  0999 V2000
   -2.1501   -2.0041   -1.1109 C   0  0  0  0  0  0  0  0  0  0  0  0
   -0.7726   -1.9711   -1.1901 C   0  0  0  0  0  0  0  0  0  0  0  0
   -0.0193   -0.9787   -1.0561 C   0  0  0  0  0  0  0  0  0  0  0  0
   -0.4043    0.3302   -0.7943 C   0  0  0  0  0  0  0  0  0  0  0  0
   -1.8097    0.4193   -0.6912 C   0  0  0  0  0  0  0  0  0  0  0  0
   -2.6592   -0.7025   -0.8426 C   0  0  0  0  0  0  0  0  0  0  0  0
   -2.8141   -2.8573   -1.2249 H   0  0  0  0  0  0  0  0  0  0  0  0
    0.2418    1.1976   -0.6766 H   0  0  0  0  0  0  0  0  0  0  0  0
   -2.2581    1.3905   -0.4868 H   0  0  0  0  0  0  0  0  0  0  0  0
    3.3707    2.3532   -0.6613 N   0  0  0  0  0  0  0  0  0  0  0  0
    4.4668    2.2531   -0.7495 N   0  0  0  0  0  0  0  0  0  0  0  0
   -4.1407   -0.5764   -0.7276 C   0  0  0  0  0  0  0  0  0  0  0  0
   -4.9251   -1.4945   -0.8500 O   0  0  0  0  0  0  0  0  0  0  0  0
   -4.5548    0.6949   -0.4759 O   0  0  0  0  0  0  0  0  0  0  0  0
   -5.5236    0.6598   -0.4254 H   0  0  0  0  0  0  0  0  0  0  0  0
  1  6  1  0  0  0  0
  2  1  2  0  0  0  0
  2  3  1  0  0  0  0
  3  4  2  0  0  0  0
  4  5  1  0  0  0  0
  4  8  1  0  0  0  0
  5  9  1  0  0  0  0
  6 12  1  0  0  0  0
  6  5  2  0  0  0  0
  7  1  1  0  0  0  0
 11 10  3  0  0  0  0
 12 14  1  0  0  0  0
 13 12  2  0  0  0  0
 14 15  1  0  0  0  0
M  RAD  2   2   2   3   2
M  END
