Coordinates from ORCA-job 4-HOOC-C6H3-N2-B3LYPG-aug-cc-pVDZ-scan-d09-49-n400
 OpenBabel11091809033D

 15 15  0  0  0  0  0  0  0  0999 V2000
   -1.4156   -1.4756   -1.0608 C   0  0  0  0  0  0  0  0  0  0  0  0
    0.0012   -1.2969   -1.1155 C   0  0  0  0  0  0  0  0  0  0  0  0
    0.3017    0.0463   -0.8903 C   0  0  0  0  0  0  0  0  0  0  0  0
   -0.5263    1.1697   -0.6356 C   0  0  0  0  0  0  0  0  0  0  0  0
   -1.8774    0.8981   -0.6018 C   0  0  0  0  0  0  0  0  0  0  0  0
   -2.3206   -0.4371   -0.8168 C   0  0  0  0  0  0  0  0  0  0  0  0
   -1.8356   -2.4714   -1.2156 H   0  0  0  0  0  0  0  0  0  0  0  0
   -0.1306    2.1735   -0.4778 H   0  0  0  0  0  0  0  0  0  0  0  0
   -2.5966    1.6908   -0.4138 H   0  0  0  0  0  0  0  0  0  0  0  0
    1.7105    0.2960   -0.9316 N   0  0  0  0  0  0  0  0  0  0  0  0
    2.8186    0.4103   -0.9790 N   0  0  0  0  0  0  0  0  0  0  0  0
   -3.7822   -0.7619   -0.7858 C   0  0  0  0  0  0  0  0  0  0  0  0
   -4.2550   -1.8644   -0.9569 O   0  0  0  0  0  0  0  0  0  0  0  0
   -4.5636    0.3267   -0.5404 O   0  0  0  0  0  0  0  0  0  0  0  0
   -5.4810    0.0098   -0.5416 H   0  0  0  0  0  0  0  0  0  0  0  0
  1  6  1  0  0  0  0
  2  1  2  0  0  0  0
  2  3  1  0  0  0  0
  3  4  2  0  0  0  0
  4  5  1  0  0  0  0
  4  8  1  0  0  0  0
  5  9  1  0  0  0  0
  6 12  1  0  0  0  0
  6  5  2  0  0  0  0
  7  1  1  0  0  0  0
 10  3  1  0  0  0  0
 11 10  1  0  0  0  0
 12 14  1  0  0  0  0
 13 12  2  0  0  0  0
 15 14  1  0  0  0  0
M  RAD  3   2   2  10   2  11   3
M  END
