Coordinates from ORCA-job 4-HOOC-C6H3-N2-B3LYPG-aug-cc-pVDZ-scan-d09-49-n400
 OpenBabel11091809033D

 15 14  0  0  0  0  0  0  0  0999 V2000
   -1.7886   -1.7383   -1.0848 C   0  0  0  0  0  0  0  0  0  0  0  0
   -0.4404   -1.4415   -1.1143 C   0  0  0  0  0  0  0  0  0  0  0  0
    0.0979   -0.3227   -0.9444 C   0  0  0  0  0  0  0  0  0  0  0  0
   -0.5394    0.8826   -0.6861 C   0  0  0  0  0  0  0  0  0  0  0  0
   -1.9384    0.6992   -0.6329 C   0  0  0  0  0  0  0  0  0  0  0  0
   -2.5487   -0.5635   -0.8243 C   0  0  0  0  0  0  0  0  0  0  0  0
   -2.2717   -2.7012   -1.2297 H   0  0  0  0  0  0  0  0  0  0  0  0
   -0.0699    1.8526   -0.5390 H   0  0  0  0  0  0  0  0  0  0  0  0
   -2.5726    1.5624   -0.4368 H   0  0  0  0  0  0  0  0  0  0  0  0
    3.0749    1.4479   -0.8075 N   0  0  0  0  0  0  0  0  0  0  0  0
    4.0165    0.8934   -0.9676 N   0  0  0  0  0  0  0  0  0  0  0  0
   -4.0296   -0.7277   -0.7621 C   0  0  0  0  0  0  0  0  0  0  0  0
   -4.6168   -1.7781   -0.9203 O   0  0  0  0  0  0  0  0  0  0  0  0
   -4.6903    0.4356   -0.5144 O   0  0  0  0  0  0  0  0  0  0  0  0
   -5.6351    0.2132   -0.4991 H   0  0  0  0  0  0  0  0  0  0  0  0
  1  6  1  0  0  0  0
  2  1  2  0  0  0  0
  2  3  1  0  0  0  0
  3  4  2  0  0  0  0
  4  5  1  0  0  0  0
  4  8  1  0  0  0  0
  5  9  1  0  0  0  0
  6 12  1  0  0  0  0
  6  5  2  0  0  0  0
  7  1  1  0  0  0  0
 11 10  3  0  0  0  0
 12 14  1  0  0  0  0
 13 12  2  0  0  0  0
 14 15  1  0  0  0  0
M  RAD  2   2   2   3   2
M  END
