Coordinates from ORCA-job 4-HOOC-C6H3-N2-B3LYPG-aug-cc-pVDZ-scan-d09-49-n400
 OpenBabel11091809033D

 15 14  0  0  0  0  0  0  0  0999 V2000
   -1.4694   -1.5109   -1.0634 C   0  0  0  0  0  0  0  0  0  0  0  0
   -0.1184   -1.1479   -1.0804 C   0  0  0  0  0  0  0  0  0  0  0  0
    0.1979    0.0648   -0.8800 C   0  0  0  0  0  0  0  0  0  0  0  0
   -0.5497    1.1952   -0.6289 C   0  0  0  0  0  0  0  0  0  0  0  0
   -1.9185    0.8759   -0.6028 C   0  0  0  0  0  0  0  0  0  0  0  0
   -2.3722   -0.4484   -0.8151 C   0  0  0  0  0  0  0  0  0  0  0  0
   -1.8506   -2.5187   -1.2227 H   0  0  0  0  0  0  0  0  0  0  0  0
   -0.1651    2.2016   -0.4700 H   0  0  0  0  0  0  0  0  0  0  0  0
   -2.6441    1.6649   -0.4151 H   0  0  0  0  0  0  0  0  0  0  0  0
    2.1086    0.5938   -0.9017 N   0  0  0  0  0  0  0  0  0  0  0  0
    3.1003    0.1202   -1.0517 N   0  0  0  0  0  0  0  0  0  0  0  0
   -3.8271   -0.7766   -0.7852 C   0  0  0  0  0  0  0  0  0  0  0  0
   -4.2936   -1.8834   -0.9584 O   0  0  0  0  0  0  0  0  0  0  0  0
   -4.6183    0.3050   -0.5418 O   0  0  0  0  0  0  0  0  0  0  0  0
   -5.5322   -0.0218   -0.5459 H   0  0  0  0  0  0  0  0  0  0  0  0
  1  6  1  0  0  0  0
  2  1  2  0  0  0  0
  2  3  1  0  0  0  0
  3  4  2  0  0  0  0
  4  5  1  0  0  0  0
  4  8  1  0  0  0  0
  5  9  1  0  0  0  0
  6 12  1  0  0  0  0
  6  5  2  0  0  0  0
  7  1  1  0  0  0  0
 11 10  3  0  0  0  0
 12 14  1  0  0  0  0
 13 12  2  0  0  0  0
 15 14  1  0  0  0  0
M  RAD  2   2   2   3   2
M  END
