Coordinates from ORCA-job 4-HOOC-C6H3-N2-B3LYPG-aug-cc-pVDZ-scan-d09-49-n400
 OpenBabel11091809033D

 15 14  0  0  0  0  0  0  0  0999 V2000
   -1.5827   -1.5902   -1.0717 C   0  0  0  0  0  0  0  0  0  0  0  0
   -0.2501   -1.2069   -1.0834 C   0  0  0  0  0  0  0  0  0  0  0  0
    0.1571   -0.0357   -0.8959 C   0  0  0  0  0  0  0  0  0  0  0  0
   -0.5604    1.1171   -0.6432 C   0  0  0  0  0  0  0  0  0  0  0  0
   -1.9409    0.8224   -0.6125 C   0  0  0  0  0  0  0  0  0  0  0  0
   -2.4418   -0.4855   -0.8192 C   0  0  0  0  0  0  0  0  0  0  0  0
   -1.9874   -2.5876   -1.2278 H   0  0  0  0  0  0  0  0  0  0  0  0
   -0.1661    2.1186   -0.4857 H   0  0  0  0  0  0  0  0  0  0  0  0
   -2.6456    1.6307   -0.4232 H   0  0  0  0  0  0  0  0  0  0  0  0
    2.5238    0.8417   -0.8813 N   0  0  0  0  0  0  0  0  0  0  0  0
    3.4984    0.3437   -1.0325 N   0  0  0  0  0  0  0  0  0  0  0  0
   -3.9056   -0.7675   -0.7814 C   0  0  0  0  0  0  0  0  0  0  0  0
   -4.4051   -1.8615   -0.9461 O   0  0  0  0  0  0  0  0  0  0  0  0
   -4.6612    0.3367   -0.5318 O   0  0  0  0  0  0  0  0  0  0  0  0
   -5.5848    0.0378   -0.5274 H   0  0  0  0  0  0  0  0  0  0  0  0
  1  6  1  0  0  0  0
  2  1  2  0  0  0  0
  2  3  1  0  0  0  0
  3  4  2  0  0  0  0
  4  5  1  0  0  0  0
  4  8  1  0  0  0  0
  5  9  1  0  0  0  0
  6 12  1  0  0  0  0
  6  5  2  0  0  0  0
  7  1  1  0  0  0  0
 11 10  3  0  0  0  0
 12 14  1  0  0  0  0
 13 12  2  0  0  0  0
 14 15  1  0  0  0  0
M  RAD  2   2   2   3   2
M  END
