Coordinates from ORCA-job 4-HOOC-C6H3-N2-B3LYPG-aug-cc-pVDZ-scan-d09-49-n400
 OpenBabel11091809033D

 15 14  0  0  0  0  0  0  0  0999 V2000
   -1.8237   -1.7654   -1.0882 C   0  0  0  0  0  0  0  0  0  0  0  0
   -0.4706   -1.4919   -1.1212 C   0  0  0  0  0  0  0  0  0  0  0  0
    0.0861   -0.3817   -0.9542 C   0  0  0  0  0  0  0  0  0  0  0  0
   -0.5286    0.8352   -0.6965 C   0  0  0  0  0  0  0  0  0  0  0  0
   -1.9307    0.6750   -0.6400 C   0  0  0  0  0  0  0  0  0  0  0  0
   -2.5630   -0.5773   -0.8282 C   0  0  0  0  0  0  0  0  0  0  0  0
   -2.3235   -2.7202   -1.2306 H   0  0  0  0  0  0  0  0  0  0  0  0
   -0.0466    1.7993   -0.5514 H   0  0  0  0  0  0  0  0  0  0  0  0
   -2.5498    1.5492   -0.4441 H   0  0  0  0  0  0  0  0  0  0  0  0
    3.1309    1.5448   -0.7919 N   0  0  0  0  0  0  0  0  0  0  0  0
    4.0853    1.0118   -0.9472 N   0  0  0  0  0  0  0  0  0  0  0  0
   -4.0464   -0.7158   -0.7631 C   0  0  0  0  0  0  0  0  0  0  0  0
   -4.6515   -1.7574   -0.9122 O   0  0  0  0  0  0  0  0  0  0  0  0
   -4.6861    0.4577   -0.5084 O   0  0  0  0  0  0  0  0  0  0  0  0
   -5.6342    0.2507   -0.4861 H   0  0  0  0  0  0  0  0  0  0  0  0
  1  6  1  0  0  0  0
  2  1  2  0  0  0  0
  2  3  1  0  0  0  0
  3  4  2  0  0  0  0
  4  5  1  0  0  0  0
  4  8  1  0  0  0  0
  5  9  1  0  0  0  0
  6 12  1  0  0  0  0
  6  5  2  0  0  0  0
  7  1  1  0  0  0  0
 11 10  3  0  0  0  0
 12 14  1  0  0  0  0
 13 12  2  0  0  0  0
 14 15  1  0  0  0  0
M  RAD  2   2   2   3   2
M  END
