Coordinates from ORCA-job 4-HOOC-C6H3-N2-B3LYPG-aug-cc-pVDZ-scan-d09-49-n400
 OpenBabel11091809033D

 15 14  0  0  0  0  0  0  0  0999 V2000
   -1.5570   -1.5725   -1.0694 C   0  0  0  0  0  0  0  0  0  0  0  0
   -0.2233   -1.1860   -1.0813 C   0  0  0  0  0  0  0  0  0  0  0  0
    0.1646   -0.0076   -0.8914 C   0  0  0  0  0  0  0  0  0  0  0  0
   -0.5601    1.1401   -0.6385 C   0  0  0  0  0  0  0  0  0  0  0  0
   -1.9382    0.8356   -0.6090 C   0  0  0  0  0  0  0  0  0  0  0  0
   -2.4268   -0.4767   -0.8170 C   0  0  0  0  0  0  0  0  0  0  0  0
   -1.9544   -2.5729   -1.2264 H   0  0  0  0  0  0  0  0  0  0  0  0
   -0.1713    2.1435   -0.4804 H   0  0  0  0  0  0  0  0  0  0  0  0
   -2.6494    1.6381   -0.4196 H   0  0  0  0  0  0  0  0  0  0  0  0
    2.4446    0.7850   -0.8881 N   0  0  0  0  0  0  0  0  0  0  0  0
    3.4148    0.2780   -1.0411 N   0  0  0  0  0  0  0  0  0  0  0  0
   -3.8882   -0.7711   -0.7803 C   0  0  0  0  0  0  0  0  0  0  0  0
   -4.3788   -1.8682   -0.9501 O   0  0  0  0  0  0  0  0  0  0  0  0
   -4.6538    0.3275   -0.5354 O   0  0  0  0  0  0  0  0  0  0  0  0
   -5.5749    0.0213   -0.5351 H   0  0  0  0  0  0  0  0  0  0  0  0
  1  6  1  0  0  0  0
  2  1  2  0  0  0  0
  2  3  1  0  0  0  0
  3  4  2  0  0  0  0
  4  5  1  0  0  0  0
  4  8  1  0  0  0  0
  5  9  1  0  0  0  0
  6 12  1  0  0  0  0
  6  5  2  0  0  0  0
  7  1  1  0  0  0  0
 11 10  3  0  0  0  0
 12 14  1  0  0  0  0
 13 12  2  0  0  0  0
 14 15  1  0  0  0  0
M  RAD  2   2   2   3   2
M  END
