Coordinates from ORCA-job 4-HOOC-C6H3-N2-B3LYPG-aug-cc-pVDZ-scan-d09-49-n400
 OpenBabel11091809033D

 15 14  0  0  0  0  0  0  0  0999 V2000
   -1.9208   -1.8383   -1.0949 C   0  0  0  0  0  0  0  0  0  0  0  0
   -0.5566   -1.6298   -1.1403 C   0  0  0  0  0  0  0  0  0  0  0  0
    0.0541   -0.5472   -0.9815 C   0  0  0  0  0  0  0  0  0  0  0  0
   -0.4993    0.6990   -0.7222 C   0  0  0  0  0  0  0  0  0  0  0  0
   -1.9068    0.6055   -0.6534 C   0  0  0  0  0  0  0  0  0  0  0  0
   -2.6000   -0.6155   -0.8323 C   0  0  0  0  0  0  0  0  0  0  0  0
   -2.4669   -2.7685   -1.2301 H   0  0  0  0  0  0  0  0  0  0  0  0
    0.0297    1.6393   -0.5842 H   0  0  0  0  0  0  0  0  0  0  0  0
   -2.4819    1.5087   -0.4549 H   0  0  0  0  0  0  0  0  0  0  0  0
    3.2545    1.7871   -0.7555 N   0  0  0  0  0  0  0  0  0  0  0  0
    4.2663    1.3680   -0.8964 N   0  0  0  0  0  0  0  0  0  0  0  0
   -4.0877   -0.6824   -0.7539 C   0  0  0  0  0  0  0  0  0  0  0  0
   -4.7436   -1.6938   -0.8961 O   0  0  0  0  0  0  0  0  0  0  0  0
   -4.6682    0.5214   -0.4987 O   0  0  0  0  0  0  0  0  0  0  0  0
   -5.6250    0.3604   -0.4687 H   0  0  0  0  0  0  0  0  0  0  0  0
  1  6  1  0  0  0  0
  2  1  2  0  0  0  0
  2  3  1  0  0  0  0
  3  4  2  0  0  0  0
  4  5  1  0  0  0  0
  4  8  1  0  0  0  0
  5  9  1  0  0  0  0
  6 12  1  0  0  0  0
  6  5  2  0  0  0  0
  7  1  1  0  0  0  0
 11 10  3  0  0  0  0
 12 14  1  0  0  0  0
 13 12  2  0  0  0  0
 14 15  1  0  0  0  0
M  RAD  2   2   2   3   2
M  END
