Coordinates from ORCA-job 4-HOOC-C6H3-N2-B3LYPG-aug-cc-pVDZ-scan-d09-49-n400
 OpenBabel11091809033D

 15 14  0  0  0  0  0  0  0  0999 V2000
   -2.1413   -1.9979   -1.1103 C   0  0  0  0  0  0  0  0  0  0  0  0
   -0.7639   -1.9578   -1.1873 C   0  0  0  0  0  0  0  0  0  0  0  0
   -0.0159   -0.9613   -1.0526 C   0  0  0  0  0  0  0  0  0  0  0  0
   -0.4090    0.3447   -0.7919 C   0  0  0  0  0  0  0  0  0  0  0  0
   -1.8148    0.4277   -0.6909 C   0  0  0  0  0  0  0  0  0  0  0  0
   -2.6579   -0.6988   -0.8434 C   0  0  0  0  0  0  0  0  0  0  0  0
   -2.8006   -2.8545   -1.2251 H   0  0  0  0  0  0  0  0  0  0  0  0
    0.2342    1.2142   -0.6738 H   0  0  0  0  0  0  0  0  0  0  0  0
   -2.2682    1.3967   -0.4876 H   0  0  0  0  0  0  0  0  0  0  0  0
    3.3705    2.3320   -0.6645 N   0  0  0  0  0  0  0  0  0  0  0  0
    4.4652    2.2192   -0.7542 N   0  0  0  0  0  0  0  0  0  0  0  0
   -4.1402   -0.5806   -0.7313 C   0  0  0  0  0  0  0  0  0  0  0  0
   -4.9192   -1.5038   -0.8505 O   0  0  0  0  0  0  0  0  0  0  0  0
   -4.5614    0.6876   -0.4758 O   0  0  0  0  0  0  0  0  0  0  0  0
   -5.5299    0.6467   -0.4238 H   0  0  0  0  0  0  0  0  0  0  0  0
  1  6  1  0  0  0  0
  2  1  2  0  0  0  0
  2  3  1  0  0  0  0
  3  4  2  0  0  0  0
  4  5  1  0  0  0  0
  4  8  1  0  0  0  0
  5  9  1  0  0  0  0
  6 12  1  0  0  0  0
  6  5  2  0  0  0  0
  7  1  1  0  0  0  0
 11 10  3  0  0  0  0
 12 14  1  0  0  0  0
 13 12  2  0  0  0  0
 14 15  1  0  0  0  0
M  RAD  2   2   2   3   2
M  END
