Coordinates from ORCA-job 4-HOOC-C6H3-N2-B3LYPG-aug-cc-pVDZ-scan-d09-49-n400
 OpenBabel11091809033D

 15 15  0  0  0  0  0  0  0  0999 V2000
   -1.4180   -1.4702   -1.0593 C   0  0  0  0  0  0  0  0  0  0  0  0
   -0.0090   -1.2587   -1.1080 C   0  0  0  0  0  0  0  0  0  0  0  0
    0.2583    0.0537   -0.8864 C   0  0  0  0  0  0  0  0  0  0  0  0
   -0.5369    1.1812   -0.6326 C   0  0  0  0  0  0  0  0  0  0  0  0
   -1.8934    0.9010   -0.5997 C   0  0  0  0  0  0  0  0  0  0  0  0
   -2.3309   -0.4329   -0.8147 C   0  0  0  0  0  0  0  0  0  0  0  0
   -1.8282   -2.4697   -1.2153 H   0  0  0  0  0  0  0  0  0  0  0  0
   -0.1379    2.1835   -0.4754 H   0  0  0  0  0  0  0  0  0  0  0  0
   -2.6150    1.6917   -0.4116 H   0  0  0  0  0  0  0  0  0  0  0  0
    1.7828    0.3396   -0.9287 N   0  0  0  0  0  0  0  0  0  0  0  0
    2.8924    0.3229   -1.0003 N   0  0  0  0  0  0  0  0  0  0  0  0
   -3.7886   -0.7662   -0.7849 C   0  0  0  0  0  0  0  0  0  0  0  0
   -4.2557   -1.8714   -0.9586 O   0  0  0  0  0  0  0  0  0  0  0  0
   -4.5788    0.3172   -0.5418 O   0  0  0  0  0  0  0  0  0  0  0  0
   -5.4934   -0.0077   -0.5458 H   0  0  0  0  0  0  0  0  0  0  0  0
  1  6  1  0  0  0  0
  2  1  2  0  0  0  0
  2  3  1  0  0  0  0
  3  4  2  0  0  0  0
  4  5  1  0  0  0  0
  4  8  1  0  0  0  0
  5  9  1  0  0  0  0
  6 12  1  0  0  0  0
  6  5  2  0  0  0  0
  7  1  1  0  0  0  0
 10  3  1  0  0  0  0
 11 10  1  0  0  0  0
 12 14  1  0  0  0  0
 13 12  2  0  0  0  0
 15 14  1  0  0  0  0
M  RAD  3   2   2  10   2  11   3
M  END
