Coordinates from ORCA-job 4-HOOC-C6H3-N2-B3LYPG-aug-cc-pVDZ-scan-d09-49-n400
 OpenBabel11091809033D

 15 14  0  0  0  0  0  0  0  0999 V2000
   -1.8344   -1.7736   -1.0886 C   0  0  0  0  0  0  0  0  0  0  0  0
   -0.4801   -1.5068   -1.1235 C   0  0  0  0  0  0  0  0  0  0  0  0
    0.0824   -0.3994   -0.9572 C   0  0  0  0  0  0  0  0  0  0  0  0
   -0.5257    0.8207   -0.6987 C   0  0  0  0  0  0  0  0  0  0  0  0
   -1.9285    0.6673   -0.6403 C   0  0  0  0  0  0  0  0  0  0  0  0
   -2.5673   -0.5818   -0.8275 C   0  0  0  0  0  0  0  0  0  0  0  0
   -2.3392   -2.7259   -1.2303 H   0  0  0  0  0  0  0  0  0  0  0  0
   -0.0383    1.7822   -0.5543 H   0  0  0  0  0  0  0  0  0  0  0  0
   -2.5430    1.5445   -0.4435 H   0  0  0  0  0  0  0  0  0  0  0  0
    3.1463    1.5712   -0.7889 N   0  0  0  0  0  0  0  0  0  0  0  0
    4.1081    1.0513   -0.9431 N   0  0  0  0  0  0  0  0  0  0  0  0
   -4.0513   -0.7128   -0.7600 C   0  0  0  0  0  0  0  0  0  0  0  0
   -4.6622   -1.7506   -0.9116 O   0  0  0  0  0  0  0  0  0  0  0  0
   -4.6849    0.4646   -0.5084 O   0  0  0  0  0  0  0  0  0  0  0  0
   -5.6343    0.2629   -0.4873 H   0  0  0  0  0  0  0  0  0  0  0  0
  1  6  1  0  0  0  0
  2  1  2  0  0  0  0
  2  3  1  0  0  0  0
  3  4  2  0  0  0  0
  4  5  1  0  0  0  0
  4  8  1  0  0  0  0
  5  9  1  0  0  0  0
  6 12  1  0  0  0  0
  6  5  2  0  0  0  0
  7  1  1  0  0  0  0
 11 10  3  0  0  0  0
 12 14  1  0  0  0  0
 13 12  2  0  0  0  0
 14 15  1  0  0  0  0
M  RAD  2   2   2   3   2
M  END
