Coordinates from ORCA-job 4-HOOC-C6H3-N2-B3LYPG-aug-cc-pVDZ-scan-d09-49-n400
 OpenBabel11091809033D

 15 14  0  0  0  0  0  0  0  0999 V2000
   -1.5969   -1.6000   -1.0725 C   0  0  0  0  0  0  0  0  0  0  0  0
   -0.2643   -1.2198   -1.0848 C   0  0  0  0  0  0  0  0  0  0  0  0
    0.1535   -0.0524   -0.8987 C   0  0  0  0  0  0  0  0  0  0  0  0
   -0.5603    1.1034   -0.6457 C   0  0  0  0  0  0  0  0  0  0  0  0
   -1.9422    0.8149   -0.6138 C   0  0  0  0  0  0  0  0  0  0  0  0
   -2.4499   -0.4905   -0.8196 C   0  0  0  0  0  0  0  0  0  0  0  0
   -2.0060   -2.5956   -1.2281 H   0  0  0  0  0  0  0  0  0  0  0  0
   -0.1624    2.1035   -0.4886 H   0  0  0  0  0  0  0  0  0  0  0  0
   -2.6430    1.6265   -0.4240 H   0  0  0  0  0  0  0  0  0  0  0  0
    2.5658    0.8742   -0.8780 N   0  0  0  0  0  0  0  0  0  0  0  0
    3.5433    0.3821   -1.0285 N   0  0  0  0  0  0  0  0  0  0  0  0
   -3.9150   -0.7655   -0.7804 C   0  0  0  0  0  0  0  0  0  0  0  0
   -4.4197   -1.8572   -0.9444 O   0  0  0  0  0  0  0  0  0  0  0  0
   -4.6651    0.3424   -0.5306 O   0  0  0  0  0  0  0  0  0  0  0  0
   -5.5901    0.0479   -0.5253 H   0  0  0  0  0  0  0  0  0  0  0  0
  1  6  1  0  0  0  0
  2  1  2  0  0  0  0
  2  3  1  0  0  0  0
  3  4  2  0  0  0  0
  4  5  1  0  0  0  0
  4  8  1  0  0  0  0
  5  9  1  0  0  0  0
  6 12  1  0  0  0  0
  6  5  2  0  0  0  0
  7  1  1  0  0  0  0
 11 10  3  0  0  0  0
 12 14  1  0  0  0  0
 13 12  2  0  0  0  0
 14 15  1  0  0  0  0
M  RAD  2   2   2   3   2
M  END
