Coordinates from ORCA-job 4-HOOC-C6H3-N2-B3LYPG-aug-cc-pVDZ-scan-d09-49-n400
 OpenBabel11081810443D

 15 15  0  0  0  0  0  0  0  0999 V2000
   -1.4122   -1.4776   -1.0615 C   0  0  0  0  0  0  0  0  0  0  0  0
    0.0074   -1.3181   -1.1197 C   0  0  0  0  0  0  0  0  0  0  0  0
    0.3397    0.0456   -0.8927 C   0  0  0  0  0  0  0  0  0  0  0  0
   -0.5178    1.1621   -0.6375 C   0  0  0  0  0  0  0  0  0  0  0  0
   -1.8650    0.8958   -0.6031 C   0  0  0  0  0  0  0  0  0  0  0  0
   -2.3131   -0.4394   -0.8178 C   0  0  0  0  0  0  0  0  0  0  0  0
   -1.8357   -2.4721   -1.2159 H   0  0  0  0  0  0  0  0  0  0  0  0
   -0.1245    2.1671   -0.4794 H   0  0  0  0  0  0  0  0  0  0  0  0
   -2.5818    1.6906   -0.4149 H   0  0  0  0  0  0  0  0  0  0  0  0
    1.6490    0.2829   -0.9301 N   0  0  0  0  0  0  0  0  0  0  0  0
    2.7558    0.4458   -0.9684 N   0  0  0  0  0  0  0  0  0  0  0  0
   -3.7770   -0.7597   -0.7860 C   0  0  0  0  0  0  0  0  0  0  0  0
   -4.2518   -1.8610   -0.9563 O   0  0  0  0  0  0  0  0  0  0  0  0
   -4.5529    0.3317   -0.5401 O   0  0  0  0  0  0  0  0  0  0  0  0
   -5.4724    0.0201   -0.5399 H   0  0  0  0  0  0  0  0  0  0  0  0
  1  6  1  0  0  0  0
  2  1  2  0  0  0  0
  2  3  1  0  0  0  0
  3  4  2  0  0  0  0
  4  5  1  0  0  0  0
  4  8  1  0  0  0  0
  5  9  1  0  0  0  0
  6 12  1  0  0  0  0
  6  5  2  0  0  0  0
  7  1  1  0  0  0  0
 10  3  1  0  0  0  0
 11 10  1  0  0  0  0
 12 14  1  0  0  0  0
 13 12  2  0  0  0  0
 14 15  1  0  0  0  0
M  RAD  3   2   2  10   2  11   3
M  END
