Coordinates from ORCA-job 4-HOOC-C6H3-N2-B3LYPG-aug-cc-pVDZ-scan-d09-49-n400
 OpenBabel11091809033D

 15 14  0  0  0  0  0  0  0  0999 V2000
   -2.0105   -1.9048   -1.1016 C   0  0  0  0  0  0  0  0  0  0  0  0
   -0.6388   -1.7611   -1.1596 C   0  0  0  0  0  0  0  0  0  0  0  0
    0.0274   -0.7102   -1.0102 C   0  0  0  0  0  0  0  0  0  0  0  0
   -0.4652    0.5616   -0.7497 C   0  0  0  0  0  0  0  0  0  0  0  0
   -1.8748    0.5364   -0.6680 C   0  0  0  0  0  0  0  0  0  0  0  0
   -2.6277   -0.6501   -0.8366 C   0  0  0  0  0  0  0  0  0  0  0  0
   -2.6015   -2.8083   -1.2289 H   0  0  0  0  0  0  0  0  0  0  0  0
    0.1084    1.4766   -0.6193 H   0  0  0  0  0  0  0  0  0  0  0  0
   -2.4036    1.4669   -0.4671 H   0  0  0  0  0  0  0  0  0  0  0  0
    3.3262    2.0147   -0.7206 N   0  0  0  0  0  0  0  0  0  0  0  0
    4.3792    1.7046   -0.8396 N   0  0  0  0  0  0  0  0  0  0  0  0
   -4.1161   -0.6452   -0.7446 C   0  0  0  0  0  0  0  0  0  0  0  0
   -4.8211   -1.6243   -0.8780 O   0  0  0  0  0  0  0  0  0  0  0  0
   -4.6357    0.5859   -0.4891 O   0  0  0  0  0  0  0  0  0  0  0  0
   -5.5989    0.4713   -0.4504 H   0  0  0  0  0  0  0  0  0  0  0  0
  1  6  1  0  0  0  0
  2  1  2  0  0  0  0
  2  3  1  0  0  0  0
  3  4  2  0  0  0  0
  4  5  1  0  0  0  0
  4  8  1  0  0  0  0
  5  9  1  0  0  0  0
  6 12  1  0  0  0  0
  6  5  2  0  0  0  0
  7  1  1  0  0  0  0
 11 10  3  0  0  0  0
 12 14  1  0  0  0  0
 13 12  2  0  0  0  0
 14 15  1  0  0  0  0
M  RAD  2   2   2   3   2
M  END
