Coordinates from ORCA-job 4-HOOC-C6H3-N2-B3LYPG-aug-cc-pVDZ-scan-d09-49-n400
 OpenBabel11091809033D

 15 14  0  0  0  0  0  0  0  0999 V2000
   -2.0629   -1.9429   -1.1052 C   0  0  0  0  0  0  0  0  0  0  0  0
   -0.6882   -1.8389   -1.1708 C   0  0  0  0  0  0  0  0  0  0  0  0
    0.0114   -0.8091   -1.0271 C   0  0  0  0  0  0  0  0  0  0  0  0
   -0.4432    0.4770   -0.7660 C   0  0  0  0  0  0  0  0  0  0  0  0
   -1.8523    0.4938   -0.6765 C   0  0  0  0  0  0  0  0  0  0  0  0
   -2.6411   -0.6700   -0.8390 C   0  0  0  0  0  0  0  0  0  0  0  0
   -2.6808   -2.8287   -1.2278 H   0  0  0  0  0  0  0  0  0  0  0  0
    0.1575    1.3752   -0.6401 H   0  0  0  0  0  0  0  0  0  0  0  0
   -2.3521    1.4400   -0.4743 H   0  0  0  0  0  0  0  0  0  0  0  0
    3.3509    2.1423   -0.6986 N   0  0  0  0  0  0  0  0  0  0  0  0
    4.4247    1.9088   -0.8068 N   0  0  0  0  0  0  0  0  0  0  0  0
   -4.1282   -0.6209   -0.7387 C   0  0  0  0  0  0  0  0  0  0  0  0
   -4.8626   -1.5787   -0.8675 O   0  0  0  0  0  0  0  0  0  0  0  0
   -4.6098    0.6258   -0.4841 O   0  0  0  0  0  0  0  0  0  0  0  0
   -5.5757    0.5400   -0.4407 H   0  0  0  0  0  0  0  0  0  0  0  0
  1  6  1  0  0  0  0
  2  1  2  0  0  0  0
  2  3  1  0  0  0  0
  3  4  2  0  0  0  0
  4  5  1  0  0  0  0
  4  8  1  0  0  0  0
  5  9  1  0  0  0  0
  6 12  1  0  0  0  0
  6  5  2  0  0  0  0
  7  1  1  0  0  0  0
 11 10  3  0  0  0  0
 12 14  1  0  0  0  0
 13 12  2  0  0  0  0
 14 15  1  0  0  0  0
M  RAD  2   2   2   3   2
M  END
