Coordinates from ORCA-job 4-HOOC-C6H3-N2-B3LYPG-aug-cc-pVDZ-scan-d09-49-n400
 OpenBabel11091809033D

 15 14  0  0  0  0  0  0  0  0999 V2000
   -1.5710   -1.5821   -1.0703 C   0  0  0  0  0  0  0  0  0  0  0  0
   -0.2381   -1.1969   -1.0824 C   0  0  0  0  0  0  0  0  0  0  0  0
    0.1608   -0.0225   -0.8938 C   0  0  0  0  0  0  0  0  0  0  0  0
   -0.5605    1.1278   -0.6407 C   0  0  0  0  0  0  0  0  0  0  0  0
   -1.9398    0.8284   -0.6102 C   0  0  0  0  0  0  0  0  0  0  0  0
   -2.4350   -0.4816   -0.8174 C   0  0  0  0  0  0  0  0  0  0  0  0
   -1.9722   -2.5810   -1.2268 H   0  0  0  0  0  0  0  0  0  0  0  0
   -0.1687    2.1300   -0.4830 H   0  0  0  0  0  0  0  0  0  0  0  0
   -2.6476    1.6339   -0.4205 H   0  0  0  0  0  0  0  0  0  0  0  0
    2.4884    0.8156   -0.8852 N   0  0  0  0  0  0  0  0  0  0  0  0
    3.4608    0.3133   -1.0376 N   0  0  0  0  0  0  0  0  0  0  0  0
   -3.8977   -0.7695   -0.7795 C   0  0  0  0  0  0  0  0  0  0  0  0
   -4.3931   -1.8646   -0.9486 O   0  0  0  0  0  0  0  0  0  0  0  0
   -4.6581    0.3325   -0.5343 O   0  0  0  0  0  0  0  0  0  0  0  0
   -5.5806    0.0304   -0.5331 H   0  0  0  0  0  0  0  0  0  0  0  0
  1  6  1  0  0  0  0
  2  1  2  0  0  0  0
  2  3  1  0  0  0  0
  3  4  2  0  0  0  0
  4  5  1  0  0  0  0
  4  8  1  0  0  0  0
  5  9  1  0  0  0  0
  6 12  1  0  0  0  0
  6  5  2  0  0  0  0
  7  1  1  0  0  0  0
 11 10  3  0  0  0  0
 12 14  1  0  0  0  0
 13 12  2  0  0  0  0
 14 15  1  0  0  0  0
M  RAD  2   2   2   3   2
M  END
