Coordinates from ORCA-job 4-HOOC-C6H3-N2-B3LYPG-aug-cc-pVDZ-scan-d09-49-n400
 OpenBabel11091809033D

 15 14  0  0  0  0  0  0  0  0999 V2000
   -1.5082   -1.5376   -1.0666 C   0  0  0  0  0  0  0  0  0  0  0  0
   -0.1700   -1.1516   -1.0781 C   0  0  0  0  0  0  0  0  0  0  0  0
    0.1804    0.0422   -0.8831 C   0  0  0  0  0  0  0  0  0  0  0  0
   -0.5580    1.1790   -0.6320 C   0  0  0  0  0  0  0  0  0  0  0  0
   -1.9304    0.8598   -0.6062 C   0  0  0  0  0  0  0  0  0  0  0  0
   -2.3976   -0.4601   -0.8172 C   0  0  0  0  0  0  0  0  0  0  0  0
   -1.8927   -2.5433   -1.2255 H   0  0  0  0  0  0  0  0  0  0  0  0
   -0.1752    2.1853   -0.4728 H   0  0  0  0  0  0  0  0  0  0  0  0
   -2.6522    1.6529   -0.4186 H   0  0  0  0  0  0  0  0  0  0  0  0
    2.2793    0.6782   -0.8960 N   0  0  0  0  0  0  0  0  0  0  0  0
    3.2468    0.1632   -1.0503 N   0  0  0  0  0  0  0  0  0  0  0  0
   -3.8549   -0.7759   -0.7859 C   0  0  0  0  0  0  0  0  0  0  0  0
   -4.3295   -1.8801   -0.9545 O   0  0  0  0  0  0  0  0  0  0  0  0
   -4.6368    0.3110   -0.5381 O   0  0  0  0  0  0  0  0  0  0  0  0
   -5.5532   -0.0091   -0.5383 H   0  0  0  0  0  0  0  0  0  0  0  0
  1  6  1  0  0  0  0
  2  1  2  0  0  0  0
  2  3  1  0  0  0  0
  3  4  2  0  0  0  0
  4  5  1  0  0  0  0
  4  8  1  0  0  0  0
  5  9  1  0  0  0  0
  6 12  1  0  0  0  0
  6  5  2  0  0  0  0
  7  1  1  0  0  0  0
 11 10  3  0  0  0  0
 12 14  1  0  0  0  0
 13 12  2  0  0  0  0
 15 14  1  0  0  0  0
M  RAD  2   2   2   3   2
M  END
