Coordinates from ORCA-job 4-HOOC-C6H3-N2-B3LYPG-aug-cc-pVDZ-scan-d09-49-n400
 OpenBabel11091809033D

 15 14  0  0  0  0  0  0  0  0999 V2000
   -1.5641   -1.5774   -1.0705 C   0  0  0  0  0  0  0  0  0  0  0  0
   -0.2309   -1.1916   -1.0818 C   0  0  0  0  0  0  0  0  0  0  0  0
    0.1618   -0.0150   -0.8925 C   0  0  0  0  0  0  0  0  0  0  0  0
   -0.5599    1.1341   -0.6402 C   0  0  0  0  0  0  0  0  0  0  0  0
   -1.9386    0.8320   -0.6110 C   0  0  0  0  0  0  0  0  0  0  0  0
   -2.4308   -0.4791   -0.8188 C   0  0  0  0  0  0  0  0  0  0  0  0
   -1.9634   -2.5770   -1.2274 H   0  0  0  0  0  0  0  0  0  0  0  0
   -0.1698    2.1372   -0.4821 H   0  0  0  0  0  0  0  0  0  0  0  0
   -2.6481    1.6361   -0.4221 H   0  0  0  0  0  0  0  0  0  0  0  0
    2.4658    0.8001   -0.8853 N   0  0  0  0  0  0  0  0  0  0  0  0
    3.4374    0.2957   -1.0373 N   0  0  0  0  0  0  0  0  0  0  0  0
   -3.8930   -0.7698   -0.7827 C   0  0  0  0  0  0  0  0  0  0  0  0
   -4.3860   -1.8666   -0.9481 O   0  0  0  0  0  0  0  0  0  0  0  0
   -4.6555    0.3299   -0.5333 O   0  0  0  0  0  0  0  0  0  0  0  0
   -5.5772    0.0254   -0.5299 H   0  0  0  0  0  0  0  0  0  0  0  0
  1  6  1  0  0  0  0
  2  1  2  0  0  0  0
  2  3  1  0  0  0  0
  3  4  2  0  0  0  0
  4  5  1  0  0  0  0
  4  8  1  0  0  0  0
  5  9  1  0  0  0  0
  6 12  1  0  0  0  0
  6  5  2  0  0  0  0
  7  1  1  0  0  0  0
 11 10  3  0  0  0  0
 12 14  1  0  0  0  0
 13 12  2  0  0  0  0
 14 15  1  0  0  0  0
M  RAD  2   2   2   3   2
M  END
