Coordinates from ORCA-job 4-HOOC-C6H3-N2-B3LYPG-aug-cc-pVDZ-scan-d09-49-n400
 OpenBabel11091809033D

 15 14  0  0  0  0  0  0  0  0999 V2000
   -1.4967   -1.5300   -1.0658 C   0  0  0  0  0  0  0  0  0  0  0  0
   -0.1554   -1.1489   -1.0784 C   0  0  0  0  0  0  0  0  0  0  0  0
    0.1849    0.0497   -0.8819 C   0  0  0  0  0  0  0  0  0  0  0  0
   -0.5556    1.1848   -0.6310 C   0  0  0  0  0  0  0  0  0  0  0  0
   -1.9270    0.8647   -0.6056 C   0  0  0  0  0  0  0  0  0  0  0  0
   -2.3901   -0.4566   -0.8170 C   0  0  0  0  0  0  0  0  0  0  0  0
   -1.8798   -2.5364   -1.2250 H   0  0  0  0  0  0  0  0  0  0  0  0
   -0.1728    2.1913   -0.4718 H   0  0  0  0  0  0  0  0  0  0  0  0
   -2.6502    1.6563   -0.4182 H   0  0  0  0  0  0  0  0  0  0  0  0
    2.2306    0.6539   -0.8972 N   0  0  0  0  0  0  0  0  0  0  0  0
    3.2032    0.1472   -1.0510 N   0  0  0  0  0  0  0  0  0  0  0  0
   -3.8466   -0.7761   -0.7866 C   0  0  0  0  0  0  0  0  0  0  0  0
   -4.3186   -1.8814   -0.9554 O   0  0  0  0  0  0  0  0  0  0  0  0
   -4.6314    0.3088   -0.5389 O   0  0  0  0  0  0  0  0  0  0  0  0
   -5.5470   -0.0135   -0.5395 H   0  0  0  0  0  0  0  0  0  0  0  0
  1  6  1  0  0  0  0
  2  1  2  0  0  0  0
  2  3  1  0  0  0  0
  3  4  2  0  0  0  0
  4  5  1  0  0  0  0
  4  8  1  0  0  0  0
  5  9  1  0  0  0  0
  6 12  1  0  0  0  0
  6  5  2  0  0  0  0
  7  1  1  0  0  0  0
 11 10  3  0  0  0  0
 12 14  1  0  0  0  0
 13 12  2  0  0  0  0
 15 14  1  0  0  0  0
M  RAD  2   2   2   3   2
M  END
