Coordinates from ORCA-job 4-HOOC-C6H3-N2-B3LYPG-aug-cc-pVDZ-scan-d09-49-n400
 OpenBabel11091809033D

 15 14  0  0  0  0  0  0  0  0999 V2000
   -1.5548   -1.5713   -1.0699 C   0  0  0  0  0  0  0  0  0  0  0  0
   -0.2211   -1.1848   -1.0812 C   0  0  0  0  0  0  0  0  0  0  0  0
    0.1638   -0.0053   -0.8909 C   0  0  0  0  0  0  0  0  0  0  0  0
   -0.5592    1.1421   -0.6388 C   0  0  0  0  0  0  0  0  0  0  0  0
   -1.9371    0.8365   -0.6102 C   0  0  0  0  0  0  0  0  0  0  0  0
   -2.4252   -0.4761   -0.8184 C   0  0  0  0  0  0  0  0  0  0  0  0
   -1.9517   -2.5719   -1.2271 H   0  0  0  0  0  0  0  0  0  0  0  0
   -0.1712    2.1460   -0.4804 H   0  0  0  0  0  0  0  0  0  0  0  0
   -2.6489    1.6386   -0.4214 H   0  0  0  0  0  0  0  0  0  0  0  0
    2.4356    0.7800   -0.8873 N   0  0  0  0  0  0  0  0  0  0  0  0
    3.4061    0.2731   -1.0396 N   0  0  0  0  0  0  0  0  0  0  0  0
   -3.8866   -0.7708   -0.7830 C   0  0  0  0  0  0  0  0  0  0  0  0
   -4.3766   -1.8688   -0.9493 O   0  0  0  0  0  0  0  0  0  0  0  0
   -4.6524    0.3268   -0.5342 O   0  0  0  0  0  0  0  0  0  0  0  0
   -5.5732    0.0198   -0.5316 H   0  0  0  0  0  0  0  0  0  0  0  0
  1  6  1  0  0  0  0
  2  1  2  0  0  0  0
  2  3  1  0  0  0  0
  3  4  2  0  0  0  0
  4  5  1  0  0  0  0
  4  8  1  0  0  0  0
  5  9  1  0  0  0  0
  6 12  1  0  0  0  0
  6  5  2  0  0  0  0
  7  1  1  0  0  0  0
 11 10  3  0  0  0  0
 12 14  1  0  0  0  0
 13 12  2  0  0  0  0
 14 15  1  0  0  0  0
M  RAD  2   2   2   3   2
M  END
