Coordinates from ORCA-job 4-HOOC-C6H3-N2-B3LYPG-aug-cc-pVDZ-scan-d09-49-n400
 OpenBabel11091809033D

 15 14  0  0  0  0  0  0  0  0999 V2000
   -1.6303   -1.6235   -1.0747 C   0  0  0  0  0  0  0  0  0  0  0  0
   -0.2968   -1.2529   -1.0888 C   0  0  0  0  0  0  0  0  0  0  0  0
    0.1449   -0.0943   -0.9058 C   0  0  0  0  0  0  0  0  0  0  0  0
   -0.5590    1.0691   -0.6519 C   0  0  0  0  0  0  0  0  0  0  0  0
   -1.9442    0.7965   -0.6169 C   0  0  0  0  0  0  0  0  0  0  0  0
   -2.4687   -0.5025   -0.8205 C   0  0  0  0  0  0  0  0  0  0  0  0
   -2.0508   -2.6144   -1.2287 H   0  0  0  0  0  0  0  0  0  0  0  0
   -0.1513    2.0653   -0.4962 H   0  0  0  0  0  0  0  0  0  0  0  0
   -2.6349    1.6165   -0.4263 H   0  0  0  0  0  0  0  0  0  0  0  0
    2.6597    0.9534   -0.8694 N   0  0  0  0  0  0  0  0  0  0  0  0
    3.6449    0.4768   -1.0178 N   0  0  0  0  0  0  0  0  0  0  0  0
   -3.9368   -0.7602   -0.7780 C   0  0  0  0  0  0  0  0  0  0  0  0
   -4.4545   -1.8460   -0.9403 O   0  0  0  0  0  0  0  0  0  0  0  0
   -4.6731    0.3566   -0.5276 O   0  0  0  0  0  0  0  0  0  0  0  0
   -5.6015    0.0733   -0.5202 H   0  0  0  0  0  0  0  0  0  0  0  0
  1  6  1  0  0  0  0
  2  1  2  0  0  0  0
  2  3  1  0  0  0  0
  3  4  2  0  0  0  0
  4  5  1  0  0  0  0
  4  8  1  0  0  0  0
  5  9  1  0  0  0  0
  6 12  1  0  0  0  0
  6  5  2  0  0  0  0
  7  1  1  0  0  0  0
 11 10  3  0  0  0  0
 12 14  1  0  0  0  0
 13 12  2  0  0  0  0
 14 15  1  0  0  0  0
M  RAD  2   2   2   3   2
M  END
