Coordinates from ORCA-job 4-HOOC-C6H3-N2-B3LYPG-aug-cc-pVDZ-scan-d09-49-n400
 OpenBabel11091809033D

 15 14  0  0  0  0  0  0  0  0999 V2000
   -1.7233   -1.6897   -1.0800 C   0  0  0  0  0  0  0  0  0  0  0  0
   -0.3830   -1.3563   -1.1024 C   0  0  0  0  0  0  0  0  0  0  0  0
    0.1192   -0.2217   -0.9274 C   0  0  0  0  0  0  0  0  0  0  0  0
   -0.5517    0.9647   -0.6704 C   0  0  0  0  0  0  0  0  0  0  0  0
   -1.9452    0.7416   -0.6247 C   0  0  0  0  0  0  0  0  0  0  0  0
   -2.5181   -0.5377   -0.8214 C   0  0  0  0  0  0  0  0  0  0  0  0
   -2.1783   -2.6657   -1.2291 H   0  0  0  0  0  0  0  0  0  0  0  0
   -0.1095    1.9467   -0.5193 H   0  0  0  0  0  0  0  0  0  0  0  0
   -2.6047    1.5860   -0.4304 H   0  0  0  0  0  0  0  0  0  0  0  0
    2.9245    1.2422   -0.8352 N   0  0  0  0  0  0  0  0  0  0  0  0
    3.8783    0.7085   -0.9931 N   0  0  0  0  0  0  0  0  0  0  0  0
   -3.9940   -0.7440   -0.7672 C   0  0  0  0  0  0  0  0  0  0  0  0
   -4.5505   -1.8104   -0.9301 O   0  0  0  0  0  0  0  0  0  0  0  0
   -4.6889    0.3996   -0.5212 O   0  0  0  0  0  0  0  0  0  0  0  0
   -5.6271    0.1503   -0.5112 H   0  0  0  0  0  0  0  0  0  0  0  0
  1  6  1  0  0  0  0
  2  1  2  0  0  0  0
  2  3  1  0  0  0  0
  3  4  2  0  0  0  0
  4  5  1  0  0  0  0
  4  8  1  0  0  0  0
  5  9  1  0  0  0  0
  6 12  1  0  0  0  0
  6  5  2  0  0  0  0
  7  1  1  0  0  0  0
 11 10  3  0  0  0  0
 12 14  1  0  0  0  0
 13 12  2  0  0  0  0
 14 15  1  0  0  0  0
M  RAD  2   2   2   3   2
M  END
