Coordinates from ORCA-job 4-HOOC-C6H3-N2-B3LYPG-aug-cc-pVDZ-scan-d09-49-n400
 OpenBabel11091809033D

 15 14  0  0  0  0  0  0  0  0999 V2000
   -2.1590   -2.0101   -1.1114 C   0  0  0  0  0  0  0  0  0  0  0  0
   -0.7814   -1.9846   -1.1916 C   0  0  0  0  0  0  0  0  0  0  0  0
   -0.0224   -0.9963   -1.0588 C   0  0  0  0  0  0  0  0  0  0  0  0
   -0.4004    0.3147   -0.7977 C   0  0  0  0  0  0  0  0  0  0  0  0
   -1.8051    0.4118   -0.6936 C   0  0  0  0  0  0  0  0  0  0  0  0
   -2.6608   -0.7055   -0.8437 C   0  0  0  0  0  0  0  0  0  0  0  0
   -2.8277   -2.8596   -1.2244 H   0  0  0  0  0  0  0  0  0  0  0  0
    0.2510    1.1783   -0.6810 H   0  0  0  0  0  0  0  0  0  0  0  0
   -2.2480    1.3856   -0.4896 H   0  0  0  0  0  0  0  0  0  0  0  0
    3.3710    2.3742   -0.6572 N   0  0  0  0  0  0  0  0  0  0  0  0
    4.4686    2.2884   -0.7425 N   0  0  0  0  0  0  0  0  0  0  0  0
   -4.1415   -0.5713   -0.7280 C   0  0  0  0  0  0  0  0  0  0  0  0
   -4.9309   -1.4856   -0.8473 O   0  0  0  0  0  0  0  0  0  0  0  0
   -4.5485    0.7020   -0.4745 O   0  0  0  0  0  0  0  0  0  0  0  0
   -5.5173    0.6719   -0.4219 H   0  0  0  0  0  0  0  0  0  0  0  0
  1  6  1  0  0  0  0
  2  1  2  0  0  0  0
  2  3  1  0  0  0  0
  3  4  2  0  0  0  0
  4  5  1  0  0  0  0
  4  8  1  0  0  0  0
  5  9  1  0  0  0  0
  6 12  1  0  0  0  0
  6  5  2  0  0  0  0
  7  1  1  0  0  0  0
 11 10  3  0  0  0  0
 12 14  1  0  0  0  0
 13 12  2  0  0  0  0
 14 15  1  0  0  0  0
M  RAD  2   2   2   3   2
M  END
