Coordinates from ORCA-job 4-HOOC-C6H3-N2-B3LYPG-aug-cc-pVDZ-scan-d09-49-n400
 OpenBabel11091809033D

 15 14  0  0  0  0  0  0  0  0999 V2000
   -1.6039   -1.6049   -1.0724 C   0  0  0  0  0  0  0  0  0  0  0  0
   -0.2712   -1.2262   -1.0856 C   0  0  0  0  0  0  0  0  0  0  0  0
    0.1525   -0.0609   -0.9002 C   0  0  0  0  0  0  0  0  0  0  0  0
   -0.5605    1.0963   -0.6464 C   0  0  0  0  0  0  0  0  0  0  0  0
   -1.9431    0.8111   -0.6131 C   0  0  0  0  0  0  0  0  0  0  0  0
   -2.4541   -0.4931   -0.8183 C   0  0  0  0  0  0  0  0  0  0  0  0
   -2.0153   -2.5995   -1.2275 H   0  0  0  0  0  0  0  0  0  0  0  0
   -0.1605    2.0952   -0.4897 H   0  0  0  0  0  0  0  0  0  0  0  0
   -2.6418    1.6243   -0.4225 H   0  0  0  0  0  0  0  0  0  0  0  0
    2.5872    0.8909   -0.8776 N   0  0  0  0  0  0  0  0  0  0  0  0
    3.5659    0.4015   -1.0283 N   0  0  0  0  0  0  0  0  0  0  0  0
   -3.9197   -0.7649   -0.7774 C   0  0  0  0  0  0  0  0  0  0  0  0
   -4.4271   -1.8548   -0.9447 O   0  0  0  0  0  0  0  0  0  0  0  0
   -4.6674    0.3454   -0.5314 O   0  0  0  0  0  0  0  0  0  0  0  0
   -5.5932    0.0535   -0.5282 H   0  0  0  0  0  0  0  0  0  0  0  0
  1  6  1  0  0  0  0
  2  1  2  0  0  0  0
  2  3  1  0  0  0  0
  3  4  2  0  0  0  0
  4  5  1  0  0  0  0
  4  8  1  0  0  0  0
  5  9  1  0  0  0  0
  6 12  1  0  0  0  0
  6  5  2  0  0  0  0
  7  1  1  0  0  0  0
 11 10  3  0  0  0  0
 12 14  1  0  0  0  0
 13 12  2  0  0  0  0
 14 15  1  0  0  0  0
M  RAD  2   2   2   3   2
M  END
