Coordinates from ORCA-job 4-HOOC-C6H3-N2-B3LYPG-aug-cc-pVDZ-scan-d09-49-n400
 OpenBabel11091809033D

 15 15  0  0  0  0  0  0  0  0999 V2000
   -1.4310   -1.4781   -1.0606 C   0  0  0  0  0  0  0  0  0  0  0  0
   -0.0530   -1.1767   -1.0903 C   0  0  0  0  0  0  0  0  0  0  0  0
    0.2218    0.0751   -0.8802 C   0  0  0  0  0  0  0  0  0  0  0  0
   -0.5451    1.1996   -0.6292 C   0  0  0  0  0  0  0  0  0  0  0  0
   -1.9086    0.8951   -0.6009 C   0  0  0  0  0  0  0  0  0  0  0  0
   -2.3475   -0.4343   -0.8151 C   0  0  0  0  0  0  0  0  0  0  0  0
   -1.8182   -2.4850   -1.2195 H   0  0  0  0  0  0  0  0  0  0  0  0
   -0.1524    2.2040   -0.4711 H   0  0  0  0  0  0  0  0  0  0  0  0
   -2.6349    1.6825   -0.4136 H   0  0  0  0  0  0  0  0  0  0  0  0
    1.9174    0.4738   -0.9117 N   0  0  0  0  0  0  0  0  0  0  0  0
    2.9714    0.1416   -1.0363 N   0  0  0  0  0  0  0  0  0  0  0  0
   -3.8010   -0.7739   -0.7877 C   0  0  0  0  0  0  0  0  0  0  0  0
   -4.2612   -1.8831   -0.9596 O   0  0  0  0  0  0  0  0  0  0  0  0
   -4.5991    0.3030   -0.5419 O   0  0  0  0  0  0  0  0  0  0  0  0
   -5.5109   -0.0296   -0.5455 H   0  0  0  0  0  0  0  0  0  0  0  0
  1  6  1  0  0  0  0
  2  1  2  0  0  0  0
  2  3  1  0  0  0  0
  3  4  2  0  0  0  0
  4  5  1  0  0  0  0
  4  8  1  0  0  0  0
  5  9  1  0  0  0  0
  6 12  1  0  0  0  0
  6  5  2  0  0  0  0
  7  1  1  0  0  0  0
 10  3  1  0  0  0  0
 11 10  2  0  0  0  0
 12 14  1  0  0  0  0
 13 12  2  0  0  0  0
 15 14  1  0  0  0  0
M  RAD  2   2   2  11   2
M  END
