Coordinates from ORCA-job 4-HOOC-C6H3-N2-B3LYPG-aug-cc-pVDZ-scan-d09-49-n400
 OpenBabel11091809033D

 15 14  0  0  0  0  0  0  0  0999 V2000
   -1.5850   -1.5917   -1.0711 C   0  0  0  0  0  0  0  0  0  0  0  0
   -0.2524   -1.2087   -1.0836 C   0  0  0  0  0  0  0  0  0  0  0  0
    0.1572   -0.0383   -0.8965 C   0  0  0  0  0  0  0  0  0  0  0  0
   -0.5608    1.1148   -0.6430 C   0  0  0  0  0  0  0  0  0  0  0  0
   -1.9415    0.8212   -0.6114 C   0  0  0  0  0  0  0  0  0  0  0  0
   -2.4432   -0.4864   -0.8177 C   0  0  0  0  0  0  0  0  0  0  0  0
   -1.9903   -2.5889   -1.2271 H   0  0  0  0  0  0  0  0  0  0  0  0
   -0.1657    2.1158   -0.4857 H   0  0  0  0  0  0  0  0  0  0  0  0
   -2.6455    1.6299   -0.4213 H   0  0  0  0  0  0  0  0  0  0  0  0
    2.5315    0.8472   -0.8821 N   0  0  0  0  0  0  0  0  0  0  0  0
    3.5064    0.3498   -1.0339 N   0  0  0  0  0  0  0  0  0  0  0  0
   -3.9072   -0.7677   -0.7786 C   0  0  0  0  0  0  0  0  0  0  0  0
   -4.4075   -1.8606   -0.9470 O   0  0  0  0  0  0  0  0  0  0  0  0
   -4.6623    0.3378   -0.5331 O   0  0  0  0  0  0  0  0  0  0  0  0
   -5.5862    0.0399   -0.5311 H   0  0  0  0  0  0  0  0  0  0  0  0
  1  6  1  0  0  0  0
  2  1  2  0  0  0  0
  2  3  1  0  0  0  0
  3  4  2  0  0  0  0
  4  5  1  0  0  0  0
  4  8  1  0  0  0  0
  5  9  1  0  0  0  0
  6 12  1  0  0  0  0
  6  5  2  0  0  0  0
  7  1  1  0  0  0  0
 11 10  3  0  0  0  0
 12 14  1  0  0  0  0
 13 12  2  0  0  0  0
 14 15  1  0  0  0  0
M  RAD  2   2   2   3   2
M  END
