Coordinates from ORCA-job 4-HOOC-C6H3-N2-B3LYPG-aug-cc-pVDZ-scan-d09-49-n400
 OpenBabel11091809033D

 15 15  0  0  0  0  0  0  0  0999 V2000
   -1.4230   -1.4709   -1.0597 C   0  0  0  0  0  0  0  0  0  0  0  0
   -0.0330   -1.2003   -1.0957 C   0  0  0  0  0  0  0  0  0  0  0  0
    0.2300    0.0708   -0.8813 C   0  0  0  0  0  0  0  0  0  0  0  0
   -0.5438    1.1963   -0.6298 C   0  0  0  0  0  0  0  0  0  0  0  0
   -1.9054    0.8998   -0.6003 C   0  0  0  0  0  0  0  0  0  0  0  0
   -2.3411   -0.4315   -0.8150 C   0  0  0  0  0  0  0  0  0  0  0  0
   -1.8166   -2.4760   -1.2180 H   0  0  0  0  0  0  0  0  0  0  0  0
   -0.1479    2.1995   -0.4721 H   0  0  0  0  0  0  0  0  0  0  0  0
   -2.6307    1.6878   -0.4130 H   0  0  0  0  0  0  0  0  0  0  0  0
    1.8635    0.4252   -0.9171 N   0  0  0  0  0  0  0  0  0  0  0  0
    2.9443    0.1863   -1.0268 N   0  0  0  0  0  0  0  0  0  0  0  0
   -3.7952   -0.7717   -0.7879 C   0  0  0  0  0  0  0  0  0  0  0  0
   -4.2557   -1.8806   -0.9595 O   0  0  0  0  0  0  0  0  0  0  0  0
   -4.5929    0.3056   -0.5418 O   0  0  0  0  0  0  0  0  0  0  0  0
   -5.5049   -0.0266   -0.5452 H   0  0  0  0  0  0  0  0  0  0  0  0
  1  6  1  0  0  0  0
  2  1  2  0  0  0  0
  2  3  1  0  0  0  0
  3  4  2  0  0  0  0
  4  5  1  0  0  0  0
  4  8  1  0  0  0  0
  5  9  1  0  0  0  0
  6 12  1  0  0  0  0
  6  5  2  0  0  0  0
  7  1  1  0  0  0  0
 10  3  1  0  0  0  0
 11 10  2  0  0  0  0
 12 14  1  0  0  0  0
 13 12  2  0  0  0  0
 15 14  1  0  0  0  0
M  RAD  2   2   2  11   2
M  END
