Coordinates from ORCA-job 4-HOOC-C6H3-N2-B3LYPG-aug-cc-pVDZ-scan-d09-49-n400
 OpenBabel11091809033D

 15 14  0  0  0  0  0  0  0  0999 V2000
   -1.9374   -1.8506   -1.0960 C   0  0  0  0  0  0  0  0  0  0  0  0
   -0.5715   -1.6539   -1.1440 C   0  0  0  0  0  0  0  0  0  0  0  0
    0.0491   -0.5766   -0.9868 C   0  0  0  0  0  0  0  0  0  0  0  0
   -0.4935    0.6742   -0.7269 C   0  0  0  0  0  0  0  0  0  0  0  0
   -1.9017    0.5931   -0.6553 C   0  0  0  0  0  0  0  0  0  0  0  0
   -2.6056   -0.6220   -0.8324 C   0  0  0  0  0  0  0  0  0  0  0  0
   -2.4916   -2.7761   -1.2299 H   0  0  0  0  0  0  0  0  0  0  0  0
    0.0440    1.6099   -0.5902 H   0  0  0  0  0  0  0  0  0  0  0  0
   -2.4685    1.5013   -0.4560 H   0  0  0  0  0  0  0  0  0  0  0  0
    3.2707    1.8293   -0.7497 N   0  0  0  0  0  0  0  0  0  0  0  0
    4.2907    1.4296   -0.8869 N   0  0  0  0  0  0  0  0  0  0  0  0
   -4.0936   -0.6762   -0.7511 C   0  0  0  0  0  0  0  0  0  0  0  0
   -4.7585   -1.6817   -0.8935 O   0  0  0  0  0  0  0  0  0  0  0  0
   -4.6635    0.5330   -0.4975 O   0  0  0  0  0  0  0  0  0  0  0  0
   -5.6217    0.3804   -0.4670 H   0  0  0  0  0  0  0  0  0  0  0  0
  1  6  1  0  0  0  0
  2  1  2  0  0  0  0
  2  3  1  0  0  0  0
  3  4  2  0  0  0  0
  4  5  1  0  0  0  0
  4  8  1  0  0  0  0
  5  9  1  0  0  0  0
  6 12  1  0  0  0  0
  6  5  2  0  0  0  0
  7  1  1  0  0  0  0
 11 10  3  0  0  0  0
 12 14  1  0  0  0  0
 13 12  2  0  0  0  0
 14 15  1  0  0  0  0
M  RAD  2   2   2   3   2
M  END
