Coordinates from ORCA-job 4-HOOC-C6H3-N2-B3LYPG-aug-cc-pVDZ-scan-d09-49-n400
 OpenBabel11091809033D

 15 14  0  0  0  0  0  0  0  0999 V2000
   -1.4837   -1.5214   -1.0644 C   0  0  0  0  0  0  0  0  0  0  0  0
   -0.1385   -1.1472   -1.0790 C   0  0  0  0  0  0  0  0  0  0  0  0
    0.1907    0.0574   -0.8808 C   0  0  0  0  0  0  0  0  0  0  0  0
   -0.5526    1.1904   -0.6296 C   0  0  0  0  0  0  0  0  0  0  0  0
   -1.9228    0.8698   -0.6037 C   0  0  0  0  0  0  0  0  0  0  0  0
   -2.3815   -0.4529   -0.8154 C   0  0  0  0  0  0  0  0  0  0  0  0
   -1.8655   -2.5285   -1.2235 H   0  0  0  0  0  0  0  0  0  0  0  0
   -0.1693    2.1969   -0.4705 H   0  0  0  0  0  0  0  0  0  0  0  0
   -2.6473    1.6600   -0.4159 H   0  0  0  0  0  0  0  0  0  0  0  0
    2.1735    0.6263   -0.8997 N   0  0  0  0  0  0  0  0  0  0  0  0
    3.1536    0.1324   -1.0529 N   0  0  0  0  0  0  0  0  0  0  0  0
   -3.8371   -0.7767   -0.7847 C   0  0  0  0  0  0  0  0  0  0  0  0
   -4.3066   -1.8824   -0.9574 O   0  0  0  0  0  0  0  0  0  0  0  0
   -4.6252    0.3070   -0.5411 O   0  0  0  0  0  0  0  0  0  0  0  0
   -5.5400   -0.0173   -0.5445 H   0  0  0  0  0  0  0  0  0  0  0  0
  1  6  1  0  0  0  0
  2  1  2  0  0  0  0
  2  3  1  0  0  0  0
  3  4  2  0  0  0  0
  4  5  1  0  0  0  0
  4  8  1  0  0  0  0
  5  9  1  0  0  0  0
  6 12  1  0  0  0  0
  6  5  2  0  0  0  0
  7  1  1  0  0  0  0
 11 10  3  0  0  0  0
 12 14  1  0  0  0  0
 13 12  2  0  0  0  0
 15 14  1  0  0  0  0
M  RAD  2   2   2   3   2
M  END
