Coordinates from ORCA-job 4-HOOC-C6H3-N2-B3LYPG-aug-cc-pVDZ-scan-d09-49-n400
 OpenBabel11091809033D

 15 14  0  0  0  0  0  0  0  0999 V2000
   -1.7342   -1.6974   -1.0811 C   0  0  0  0  0  0  0  0  0  0  0  0
   -0.3927   -1.3695   -1.1041 C   0  0  0  0  0  0  0  0  0  0  0  0
    0.1158   -0.2376   -0.9300 C   0  0  0  0  0  0  0  0  0  0  0  0
   -0.5503    0.9518   -0.6733 C   0  0  0  0  0  0  0  0  0  0  0  0
   -1.9447    0.7351   -0.6270 C   0  0  0  0  0  0  0  0  0  0  0  0
   -2.5236   -0.5417   -0.8230 C   0  0  0  0  0  0  0  0  0  0  0  0
   -2.1935   -2.6715   -1.2296 H   0  0  0  0  0  0  0  0  0  0  0  0
   -0.1039    1.9321   -0.5229 H   0  0  0  0  0  0  0  0  0  0  0  0
   -2.6003    1.5826   -0.4330 H   0  0  0  0  0  0  0  0  0  0  0  0
    2.9520    1.2748   -0.8301 N   0  0  0  0  0  0  0  0  0  0  0  0
    3.9036    0.7381   -0.9878 N   0  0  0  0  0  0  0  0  0  0  0  0
   -4.0004   -0.7413   -0.7684 C   0  0  0  0  0  0  0  0  0  0  0  0
   -4.5615   -1.8058   -0.9275 O   0  0  0  0  0  0  0  0  0  0  0  0
   -4.6898    0.4049   -0.5190 O   0  0  0  0  0  0  0  0  0  0  0  0
   -5.6289    0.1594   -0.5063 H   0  0  0  0  0  0  0  0  0  0  0  0
  1  6  1  0  0  0  0
  2  1  2  0  0  0  0
  2  3  1  0  0  0  0
  3  4  2  0  0  0  0
  4  5  1  0  0  0  0
  4  8  1  0  0  0  0
  5  9  1  0  0  0  0
  6 12  1  0  0  0  0
  6  5  2  0  0  0  0
  7  1  1  0  0  0  0
 11 10  3  0  0  0  0
 12 14  1  0  0  0  0
 13 12  2  0  0  0  0
 14 15  1  0  0  0  0
M  RAD  2   2   2   3   2
M  END
