Coordinates from ORCA-job 4-HOOC-C6H3-N2-B3LYPG-aug-cc-pVDZ-scan-d09-49-n400
 OpenBabel11081810443D

 15 15  0  0  0  0  0  0  0  0999 V2000
   -1.3969   -1.4692   -1.0602 C   0  0  0  0  0  0  0  0  0  0  0  0
    0.0160   -1.3650   -1.1286 C   0  0  0  0  0  0  0  0  0  0  0  0
    0.4827    0.0890   -0.8930 C   0  0  0  0  0  0  0  0  0  0  0  0
   -0.4998    1.1482   -0.6406 C   0  0  0  0  0  0  0  0  0  0  0  0
   -1.8376    0.8903   -0.6056 C   0  0  0  0  0  0  0  0  0  0  0  0
   -2.2989   -0.4369   -0.8181 C   0  0  0  0  0  0  0  0  0  0  0  0
   -1.8163   -2.4666   -1.2149 H   0  0  0  0  0  0  0  0  0  0  0  0
   -0.1023    2.1527   -0.4824 H   0  0  0  0  0  0  0  0  0  0  0  0
   -2.5435    1.6951   -0.4164 H   0  0  0  0  0  0  0  0  0  0  0  0
    1.4453    0.2721   -0.9203 N   0  0  0  0  0  0  0  0  0  0  0  0
    2.5859    0.4533   -0.9584 N   0  0  0  0  0  0  0  0  0  0  0  0
   -3.7646   -0.7570   -0.7867 C   0  0  0  0  0  0  0  0  0  0  0  0
   -4.2318   -1.8602   -0.9585 O   0  0  0  0  0  0  0  0  0  0  0  0
   -4.5338    0.3351   -0.5407 O   0  0  0  0  0  0  0  0  0  0  0  0
   -5.4568    0.0331   -0.5390 H   0  0  0  0  0  0  0  0  0  0  0  0
  1  6  1  0  0  0  0
  2  1  2  0  0  0  0
  2  3  1  0  0  0  0
  3  4  2  0  0  0  0
  4  5  1  0  0  0  0
  4  8  1  0  0  0  0
  5  9  1  0  0  0  0
  6 12  1  0  0  0  0
  6  5  2  0  0  0  0
  7  1  1  0  0  0  0
 10  3  1  0  0  0  0
 11 10  1  0  0  0  0
 12 14  1  0  0  0  0
 13 12  2  0  0  0  0
 14 15  1  0  0  0  0
M  RAD  3   2   2  10   2  11   3
M  END
