Coordinates from ORCA-job 4-HOOC-C6H3-N2-B3LYPG-aug-cc-pVDZ-scan-d09-49-n400
 OpenBabel11091809033D

 15 14  0  0  0  0  0  0  0  0999 V2000
   -1.4911   -1.5265   -1.0649 C   0  0  0  0  0  0  0  0  0  0  0  0
   -0.1484   -1.1478   -1.0786 C   0  0  0  0  0  0  0  0  0  0  0  0
    0.1874    0.0531   -0.8815 C   0  0  0  0  0  0  0  0  0  0  0  0
   -0.5541    1.1873   -0.6301 C   0  0  0  0  0  0  0  0  0  0  0  0
   -1.9250    0.8667   -0.6042 C   0  0  0  0  0  0  0  0  0  0  0  0
   -2.3863   -0.4552   -0.8156 C   0  0  0  0  0  0  0  0  0  0  0  0
   -1.8736   -2.5333   -1.2240 H   0  0  0  0  0  0  0  0  0  0  0  0
   -0.1712    2.1938   -0.4710 H   0  0  0  0  0  0  0  0  0  0  0  0
   -2.6488    1.6577   -0.4162 H   0  0  0  0  0  0  0  0  0  0  0  0
    2.2060    0.6426   -0.8989 N   0  0  0  0  0  0  0  0  0  0  0  0
    3.1814    0.1406   -1.0528 N   0  0  0  0  0  0  0  0  0  0  0  0
   -3.8424   -0.7766   -0.7844 C   0  0  0  0  0  0  0  0  0  0  0  0
   -4.3135   -1.8818   -0.9568 O   0  0  0  0  0  0  0  0  0  0  0  0
   -4.6287    0.3082   -0.5406 O   0  0  0  0  0  0  0  0  0  0  0  0
   -5.5441   -0.0147   -0.5437 H   0  0  0  0  0  0  0  0  0  0  0  0
  1  6  1  0  0  0  0
  2  1  2  0  0  0  0
  2  3  1  0  0  0  0
  3  4  2  0  0  0  0
  4  5  1  0  0  0  0
  4  8  1  0  0  0  0
  5  9  1  0  0  0  0
  6 12  1  0  0  0  0
  6  5  2  0  0  0  0
  7  1  1  0  0  0  0
 11 10  3  0  0  0  0
 12 14  1  0  0  0  0
 13 12  2  0  0  0  0
 15 14  1  0  0  0  0
M  RAD  2   2   2   3   2
M  END
