Coordinates from ORCA-job 4-HOOC-C6H3-N2-B3LYPG-aug-cc-pVDZ-scan-d09-49-n400
 OpenBabel11091809033D

 15 15  0  0  0  0  0  0  0  0999 V2000
   -1.4284   -1.4768   -1.0605 C   0  0  0  0  0  0  0  0  0  0  0  0
   -0.0486   -1.1797   -1.0911 C   0  0  0  0  0  0  0  0  0  0  0  0
    0.2252    0.0756   -0.8802 C   0  0  0  0  0  0  0  0  0  0  0  0
   -0.5442    1.2000   -0.6291 C   0  0  0  0  0  0  0  0  0  0  0  0
   -1.9073    0.8961   -0.6007 C   0  0  0  0  0  0  0  0  0  0  0  0
   -2.3453   -0.4337   -0.8151 C   0  0  0  0  0  0  0  0  0  0  0  0
   -1.8165   -2.4834   -1.2193 H   0  0  0  0  0  0  0  0  0  0  0  0
   -0.1517    2.2044   -0.4710 H   0  0  0  0  0  0  0  0  0  0  0  0
   -2.6339    1.6832   -0.4135 H   0  0  0  0  0  0  0  0  0  0  0  0
    1.9022    0.4659   -0.9122 N   0  0  0  0  0  0  0  0  0  0  0  0
    2.9603    0.1445   -1.0353 N   0  0  0  0  0  0  0  0  0  0  0  0
   -3.7989   -0.7735   -0.7877 C   0  0  0  0  0  0  0  0  0  0  0  0
   -4.2589   -1.8827   -0.9597 O   0  0  0  0  0  0  0  0  0  0  0  0
   -4.5972    0.3033   -0.5421 O   0  0  0  0  0  0  0  0  0  0  0  0
   -5.5090   -0.0294   -0.5457 H   0  0  0  0  0  0  0  0  0  0  0  0
  1  6  1  0  0  0  0
  2  1  2  0  0  0  0
  2  3  1  0  0  0  0
  3  4  2  0  0  0  0
  4  5  1  0  0  0  0
  4  8  1  0  0  0  0
  5  9  1  0  0  0  0
  6 12  1  0  0  0  0
  6  5  2  0  0  0  0
  7  1  1  0  0  0  0
 10  3  1  0  0  0  0
 11 10  2  0  0  0  0
 12 14  1  0  0  0  0
 13 12  2  0  0  0  0
 15 14  1  0  0  0  0
M  RAD  2   2   2  11   2
M  END
