Coordinates from ORCA-job 4-HOOC-C6H3-N2-B3LYPG-aug-cc-pVDZ-scan-d09-49-n400
 OpenBabel11091809033D

 15 14  0  0  0  0  0  0  0  0999 V2000
   -1.8021   -1.7486   -1.0859 C   0  0  0  0  0  0  0  0  0  0  0  0
   -0.4521   -1.4603   -1.1169 C   0  0  0  0  0  0  0  0  0  0  0  0
    0.0939   -0.3451   -0.9482 C   0  0  0  0  0  0  0  0  0  0  0  0
   -0.5356    0.8644   -0.6897 C   0  0  0  0  0  0  0  0  0  0  0  0
   -1.9357    0.6899   -0.6349 C   0  0  0  0  0  0  0  0  0  0  0  0
   -2.5543   -0.5689   -0.8251 C   0  0  0  0  0  0  0  0  0  0  0  0
   -2.2914   -2.7086   -1.2299 H   0  0  0  0  0  0  0  0  0  0  0  0
   -0.0600    1.8315   -0.5435 H   0  0  0  0  0  0  0  0  0  0  0  0
   -2.5642    1.5573   -0.4385 H   0  0  0  0  0  0  0  0  0  0  0  0
    3.1005    1.4921   -0.8010 N   0  0  0  0  0  0  0  0  0  0  0  0
    4.0392    0.9329   -0.9615 N   0  0  0  0  0  0  0  0  0  0  0  0
   -4.0361   -0.7236   -0.7613 C   0  0  0  0  0  0  0  0  0  0  0  0
   -4.6302   -1.7704   -0.9179 O   0  0  0  0  0  0  0  0  0  0  0  0
   -4.6891    0.4439   -0.5128 O   0  0  0  0  0  0  0  0  0  0  0  0
   -5.6353    0.2274   -0.4960 H   0  0  0  0  0  0  0  0  0  0  0  0
  1  6  1  0  0  0  0
  2  1  2  0  0  0  0
  2  3  1  0  0  0  0
  3  4  2  0  0  0  0
  4  5  1  0  0  0  0
  4  8  1  0  0  0  0
  5  9  1  0  0  0  0
  6 12  1  0  0  0  0
  6  5  2  0  0  0  0
  7  1  1  0  0  0  0
 11 10  3  0  0  0  0
 12 14  1  0  0  0  0
 13 12  2  0  0  0  0
 14 15  1  0  0  0  0
M  RAD  2   2   2   3   2
M  END
