Coordinates from ORCA-job 4-HOOC-C6H3-N2-B3LYPG-aug-cc-pVDZ-scan-d09-49-n400
 OpenBabel11091809033D

 15 14  0  0  0  0  0  0  0  0999 V2000
   -1.9072   -1.8278   -1.0938 C   0  0  0  0  0  0  0  0  0  0  0  0
   -0.5444   -1.6097   -1.1374 C   0  0  0  0  0  0  0  0  0  0  0  0
    0.0587   -0.5229   -0.9774 C   0  0  0  0  0  0  0  0  0  0  0  0
   -0.5043    0.7189   -0.7182 C   0  0  0  0  0  0  0  0  0  0  0  0
   -1.9112    0.6158   -0.6511 C   0  0  0  0  0  0  0  0  0  0  0  0
   -2.5954   -0.6101   -0.8314 C   0  0  0  0  0  0  0  0  0  0  0  0
   -2.4464   -2.7618   -1.2301 H   0  0  0  0  0  0  0  0  0  0  0  0
    0.0184    1.6626   -0.5792 H   0  0  0  0  0  0  0  0  0  0  0  0
   -2.4928    1.5148   -0.4528 H   0  0  0  0  0  0  0  0  0  0  0  0
    3.2406    1.7521   -0.7609 N   0  0  0  0  0  0  0  0  0  0  0  0
    4.2453    1.3174   -0.9047 N   0  0  0  0  0  0  0  0  0  0  0  0
   -4.0827   -0.6877   -0.7549 C   0  0  0  0  0  0  0  0  0  0  0  0
   -4.7311   -1.7036   -0.8988 O   0  0  0  0  0  0  0  0  0  0  0  0
   -4.6721    0.5119   -0.5004 O   0  0  0  0  0  0  0  0  0  0  0  0
   -5.6278    0.3440   -0.4720 H   0  0  0  0  0  0  0  0  0  0  0  0
  1  6  1  0  0  0  0
  2  1  2  0  0  0  0
  2  3  1  0  0  0  0
  3  4  2  0  0  0  0
  4  5  1  0  0  0  0
  4  8  1  0  0  0  0
  5  9  1  0  0  0  0
  6 12  1  0  0  0  0
  6  5  2  0  0  0  0
  7  1  1  0  0  0  0
 11 10  3  0  0  0  0
 12 14  1  0  0  0  0
 13 12  2  0  0  0  0
 14 15  1  0  0  0  0
M  RAD  2   2   2   3   2
M  END
