Coordinates from ORCA-job 4-HOOC-C6H3-N2-B3LYPG-aug-cc-pVDZ-scan-d09-49-n400
 OpenBabel11091809033D

 15 14  0  0  0  0  0  0  0  0999 V2000
   -1.6916   -1.6668   -1.0783 C   0  0  0  0  0  0  0  0  0  0  0  0
   -0.3547   -1.3180   -1.0971 C   0  0  0  0  0  0  0  0  0  0  0  0
    0.1297   -0.1760   -0.9197 C   0  0  0  0  0  0  0  0  0  0  0  0
   -0.5553    1.0018   -0.6639 C   0  0  0  0  0  0  0  0  0  0  0  0
   -1.9458    0.7610   -0.6222 C   0  0  0  0  0  0  0  0  0  0  0  0
   -2.5018   -0.5254   -0.8214 C   0  0  0  0  0  0  0  0  0  0  0  0
   -2.1339   -2.6484   -1.2292 H   0  0  0  0  0  0  0  0  0  0  0  0
   -0.1250    1.9889   -0.5112 H   0  0  0  0  0  0  0  0  0  0  0  0
   -2.6166    1.5969   -0.4293 H   0  0  0  0  0  0  0  0  0  0  0  0
    2.8396    1.1442   -0.8468 N   0  0  0  0  0  0  0  0  0  0  0  0
    3.8005    0.6237   -1.0024 N   0  0  0  0  0  0  0  0  0  0  0  0
   -3.9752   -0.7502   -0.7716 C   0  0  0  0  0  0  0  0  0  0  0  0
   -4.5177   -1.8239   -0.9335 O   0  0  0  0  0  0  0  0  0  0  0  0
   -4.6850    0.3838   -0.5232 O   0  0  0  0  0  0  0  0  0  0  0  0
   -5.6197    0.1222   -0.5136 H   0  0  0  0  0  0  0  0  0  0  0  0
  1  6  1  0  0  0  0
  2  1  2  0  0  0  0
  2  3  1  0  0  0  0
  3  4  2  0  0  0  0
  4  5  1  0  0  0  0
  4  8  1  0  0  0  0
  5  9  1  0  0  0  0
  6 12  1  0  0  0  0
  6  5  2  0  0  0  0
  7  1  1  0  0  0  0
 11 10  3  0  0  0  0
 12 14  1  0  0  0  0
 13 12  2  0  0  0  0
 14 15  1  0  0  0  0
M  RAD  2   2   2   3   2
M  END
