Coordinates from ORCA-job 4-HOOC-C6H3-N2-B3LYPG-aug-cc-pVDZ-scan-d09-49-n400
 OpenBabel11091809033D

 15 14  0  0  0  0  0  0  0  0999 V2000
   -1.5160   -1.5427   -1.0670 C   0  0  0  0  0  0  0  0  0  0  0  0
   -0.1796   -1.1541   -1.0781 C   0  0  0  0  0  0  0  0  0  0  0  0
    0.1775    0.0366   -0.8840 C   0  0  0  0  0  0  0  0  0  0  0  0
   -0.5597    1.1747   -0.6327 C   0  0  0  0  0  0  0  0  0  0  0  0
   -1.9328    0.8566   -0.6067 C   0  0  0  0  0  0  0  0  0  0  0  0
   -2.4028   -0.4625   -0.8172 C   0  0  0  0  0  0  0  0  0  0  0  0
   -1.9017   -2.5478   -1.2258 H   0  0  0  0  0  0  0  0  0  0  0  0
   -0.1766    2.1808   -0.4737 H   0  0  0  0  0  0  0  0  0  0  0  0
   -2.6535    1.6506   -0.4188 H   0  0  0  0  0  0  0  0  0  0  0  0
    2.3117    0.6946   -0.8952 N   0  0  0  0  0  0  0  0  0  0  0  0
    3.2764    0.1753   -1.0497 N   0  0  0  0  0  0  0  0  0  0  0  0
   -3.8605   -0.7756   -0.7854 C   0  0  0  0  0  0  0  0  0  0  0  0
   -4.3370   -1.8791   -0.9538 O   0  0  0  0  0  0  0  0  0  0  0  0
   -4.6405    0.3125   -0.5376 O   0  0  0  0  0  0  0  0  0  0  0  0
   -5.5574   -0.0059   -0.5375 H   0  0  0  0  0  0  0  0  0  0  0  0
  1  6  1  0  0  0  0
  2  1  2  0  0  0  0
  2  3  1  0  0  0  0
  3  4  2  0  0  0  0
  4  5  1  0  0  0  0
  4  8  1  0  0  0  0
  5  9  1  0  0  0  0
  6 12  1  0  0  0  0
  6  5  2  0  0  0  0
  7  1  1  0  0  0  0
 11 10  3  0  0  0  0
 12 14  1  0  0  0  0
 13 12  2  0  0  0  0
 14 15  1  0  0  0  0
M  RAD  2   2   2   3   2
M  END
