Coordinates from ORCA-job 4-HOOC-C6H3-N2-B3LYPG-aug-cc-pVDZ-scan-d09-49-n400
 OpenBabel11091809033D

 15 14  0  0  0  0  0  0  0  0999 V2000
   -2.1327   -1.9920   -1.1098 C   0  0  0  0  0  0  0  0  0  0  0  0
   -0.7554   -1.9448   -1.1854 C   0  0  0  0  0  0  0  0  0  0  0  0
   -0.0128   -0.9445   -1.0497 C   0  0  0  0  0  0  0  0  0  0  0  0
   -0.4125    0.3600   -0.7890 C   0  0  0  0  0  0  0  0  0  0  0  0
   -1.8190    0.4350   -0.6895 C   0  0  0  0  0  0  0  0  0  0  0  0
   -2.6561   -0.6957   -0.8431 C   0  0  0  0  0  0  0  0  0  0  0  0
   -2.7874   -2.8520   -1.2255 H   0  0  0  0  0  0  0  0  0  0  0  0
    0.2253    1.2333   -0.6699 H   0  0  0  0  0  0  0  0  0  0  0  0
   -2.2778    1.4015   -0.4865 H   0  0  0  0  0  0  0  0  0  0  0  0
    3.3689    2.3110   -0.6682 N   0  0  0  0  0  0  0  0  0  0  0  0
    4.4619    2.1843   -0.7600 N   0  0  0  0  0  0  0  0  0  0  0  0
   -4.1391   -0.5852   -0.7325 C   0  0  0  0  0  0  0  0  0  0  0  0
   -4.9132   -1.5124   -0.8522 O   0  0  0  0  0  0  0  0  0  0  0  0
   -4.5671    0.6807   -0.4767 O   0  0  0  0  0  0  0  0  0  0  0  0
   -5.5354    0.6347   -0.4253 H   0  0  0  0  0  0  0  0  0  0  0  0
  1  6  1  0  0  0  0
  2  1  2  0  0  0  0
  2  3  1  0  0  0  0
  3  4  2  0  0  0  0
  4  5  1  0  0  0  0
  4  8  1  0  0  0  0
  5  9  1  0  0  0  0
  6 12  1  0  0  0  0
  6  5  2  0  0  0  0
  7  1  1  0  0  0  0
 11 10  3  0  0  0  0
 12 14  1  0  0  0  0
 13 12  2  0  0  0  0
 14 15  1  0  0  0  0
M  RAD  2   2   2   3   2
M  END
