Coordinates from ORCA-job 4-HOOC-C6H3-N2-B3LYPG-aug-cc-pVDZ-scan-d09-49-n400
 OpenBabel11091809033D

 15 14  0  0  0  0  0  0  0  0999 V2000
   -1.6207   -1.6167   -1.0741 C   0  0  0  0  0  0  0  0  0  0  0  0
   -0.2876   -1.2430   -1.0876 C   0  0  0  0  0  0  0  0  0  0  0  0
    0.1474   -0.0820   -0.9037 C   0  0  0  0  0  0  0  0  0  0  0  0
   -0.5595    1.0792   -0.6501 C   0  0  0  0  0  0  0  0  0  0  0  0
   -1.9438    0.8019   -0.6160 C   0  0  0  0  0  0  0  0  0  0  0  0
   -2.4634   -0.4990   -0.8203 C   0  0  0  0  0  0  0  0  0  0  0  0
   -2.0378   -2.6090   -1.2286 H   0  0  0  0  0  0  0  0  0  0  0  0
   -0.1548    2.0766   -0.4939 H   0  0  0  0  0  0  0  0  0  0  0  0
   -2.6375    1.6194   -0.4256 H   0  0  0  0  0  0  0  0  0  0  0  0
    2.6335    0.9304   -0.8720 N   0  0  0  0  0  0  0  0  0  0  0  0
    3.6164    0.4490   -1.0210 N   0  0  0  0  0  0  0  0  0  0  0  0
   -3.9306   -0.7618   -0.7787 C   0  0  0  0  0  0  0  0  0  0  0  0
   -4.4445   -1.8493   -0.9415 O   0  0  0  0  0  0  0  0  0  0  0  0
   -4.6710    0.3524   -0.5285 O   0  0  0  0  0  0  0  0  0  0  0  0
   -5.5984    0.0658   -0.5217 H   0  0  0  0  0  0  0  0  0  0  0  0
  1  6  1  0  0  0  0
  2  1  2  0  0  0  0
  2  3  1  0  0  0  0
  3  4  2  0  0  0  0
  4  5  1  0  0  0  0
  4  8  1  0  0  0  0
  5  9  1  0  0  0  0
  6 12  1  0  0  0  0
  6  5  2  0  0  0  0
  7  1  1  0  0  0  0
 11 10  3  0  0  0  0
 12 14  1  0  0  0  0
 13 12  2  0  0  0  0
 14 15  1  0  0  0  0
M  RAD  2   2   2   3   2
M  END
