Coordinates from ORCA-job 4-HOOC-C6H3-N2-B3LYPG-aug-cc-pVDZ-scan-d09-49-n400
 OpenBabel11091809033D

 15 14  0  0  0  0  0  0  0  0999 V2000
   -1.5897   -1.5950   -1.0714 C   0  0  0  0  0  0  0  0  0  0  0  0
   -0.2571   -1.2130   -1.0841 C   0  0  0  0  0  0  0  0  0  0  0  0
    0.1561   -0.0439   -0.8974 C   0  0  0  0  0  0  0  0  0  0  0  0
   -0.5607    1.1102   -0.6438 C   0  0  0  0  0  0  0  0  0  0  0  0
   -1.9419    0.8187   -0.6118 C   0  0  0  0  0  0  0  0  0  0  0  0
   -2.4459   -0.4880   -0.8179 C   0  0  0  0  0  0  0  0  0  0  0  0
   -1.9966   -2.5915   -1.2272 H   0  0  0  0  0  0  0  0  0  0  0  0
   -0.1645    2.1107   -0.4867 H   0  0  0  0  0  0  0  0  0  0  0  0
   -2.6446    1.6285   -0.4216 H   0  0  0  0  0  0  0  0  0  0  0  0
    2.5456    0.8580   -0.8810 N   0  0  0  0  0  0  0  0  0  0  0  0
    3.5214    0.3626   -1.0325 N   0  0  0  0  0  0  0  0  0  0  0  0
   -3.9103   -0.7670   -0.7783 C   0  0  0  0  0  0  0  0  0  0  0  0
   -4.4124   -1.8592   -0.9465 O   0  0  0  0  0  0  0  0  0  0  0  0
   -4.6637    0.3396   -0.5327 O   0  0  0  0  0  0  0  0  0  0  0  0
   -5.5880    0.0432   -0.5304 H   0  0  0  0  0  0  0  0  0  0  0  0
  1  6  1  0  0  0  0
  2  1  2  0  0  0  0
  2  3  1  0  0  0  0
  3  4  2  0  0  0  0
  4  5  1  0  0  0  0
  4  8  1  0  0  0  0
  5  9  1  0  0  0  0
  6 12  1  0  0  0  0
  6  5  2  0  0  0  0
  7  1  1  0  0  0  0
 11 10  3  0  0  0  0
 12 14  1  0  0  0  0
 13 12  2  0  0  0  0
 14 15  1  0  0  0  0
M  RAD  2   2   2   3   2
M  END
