Coordinates from ORCA-job 4-HOOC-C6H3-N2-B3LYPG-aug-cc-pVDZ-scan-d09-49-n400
 OpenBabel11091809033D

 15 14  0  0  0  0  0  0  0  0999 V2000
   -1.6852   -1.6623   -1.0774 C   0  0  0  0  0  0  0  0  0  0  0  0
   -0.3488   -1.3105   -1.0962 C   0  0  0  0  0  0  0  0  0  0  0  0
    0.1316   -0.1670   -0.9182 C   0  0  0  0  0  0  0  0  0  0  0  0
   -0.5559    1.0090   -0.6619 C   0  0  0  0  0  0  0  0  0  0  0  0
   -1.9458    0.7646   -0.6202 C   0  0  0  0  0  0  0  0  0  0  0  0
   -2.4984   -0.5232   -0.8199 C   0  0  0  0  0  0  0  0  0  0  0  0
   -2.1250   -2.6450   -1.2286 H   0  0  0  0  0  0  0  0  0  0  0  0
   -0.1280    1.9971   -0.5089 H   0  0  0  0  0  0  0  0  0  0  0  0
   -2.6188    1.5987   -0.4270 H   0  0  0  0  0  0  0  0  0  0  0  0
    2.8219    1.1249   -0.8503 N   0  0  0  0  0  0  0  0  0  0  0  0
    3.7850    0.6072   -1.0061 N   0  0  0  0  0  0  0  0  0  0  0  0
   -3.9712   -0.7518   -0.7698 C   0  0  0  0  0  0  0  0  0  0  0  0
   -4.5111   -1.8262   -0.9355 O   0  0  0  0  0  0  0  0  0  0  0  0
   -4.6841    0.3810   -0.5251 O   0  0  0  0  0  0  0  0  0  0  0  0
   -5.6184    0.1175   -0.5182 H   0  0  0  0  0  0  0  0  0  0  0  0
  1  6  1  0  0  0  0
  2  1  2  0  0  0  0
  2  3  1  0  0  0  0
  3  4  2  0  0  0  0
  4  5  1  0  0  0  0
  4  8  1  0  0  0  0
  5  9  1  0  0  0  0
  6 12  1  0  0  0  0
  6  5  2  0  0  0  0
  7  1  1  0  0  0  0
 11 10  3  0  0  0  0
 12 14  1  0  0  0  0
 13 12  2  0  0  0  0
 14 15  1  0  0  0  0
M  RAD  2   2   2   3   2
M  END
