Coordinates from ORCA-job 4-HOOC-C6H3-N2-B3LYPG-aug-cc-pVDZ-scan-d09-49-n400
 OpenBabel11091809033D

 15 14  0  0  0  0  0  0  0  0999 V2000
   -1.5103   -1.5392   -1.0662 C   0  0  0  0  0  0  0  0  0  0  0  0
   -0.1727   -1.1522   -1.0782 C   0  0  0  0  0  0  0  0  0  0  0  0
    0.1798    0.0406   -0.8835 C   0  0  0  0  0  0  0  0  0  0  0  0
   -0.5582    1.1777   -0.6318 C   0  0  0  0  0  0  0  0  0  0  0  0
   -1.9308    0.8587   -0.6053 C   0  0  0  0  0  0  0  0  0  0  0  0
   -2.3988   -0.4610   -0.8159 C   0  0  0  0  0  0  0  0  0  0  0  0
   -1.8951   -2.5448   -1.2249 H   0  0  0  0  0  0  0  0  0  0  0  0
   -0.1754    2.1840   -0.4728 H   0  0  0  0  0  0  0  0  0  0  0  0
   -2.6522    1.6519   -0.4171 H   0  0  0  0  0  0  0  0  0  0  0  0
    2.2872    0.6831   -0.8968 N   0  0  0  0  0  0  0  0  0  0  0  0
    3.2538    0.1668   -1.0516 N   0  0  0  0  0  0  0  0  0  0  0  0
   -3.8561   -0.7762   -0.7834 C   0  0  0  0  0  0  0  0  0  0  0  0
   -4.3315   -1.8797   -0.9552 O   0  0  0  0  0  0  0  0  0  0  0  0
   -4.6377    0.3117   -0.5392 O   0  0  0  0  0  0  0  0  0  0  0  0
   -5.5544   -0.0075   -0.5414 H   0  0  0  0  0  0  0  0  0  0  0  0
  1  6  1  0  0  0  0
  2  1  2  0  0  0  0
  2  3  1  0  0  0  0
  3  4  2  0  0  0  0
  4  5  1  0  0  0  0
  4  8  1  0  0  0  0
  5  9  1  0  0  0  0
  6 12  1  0  0  0  0
  6  5  2  0  0  0  0
  7  1  1  0  0  0  0
 11 10  3  0  0  0  0
 12 14  1  0  0  0  0
 13 12  2  0  0  0  0
 15 14  1  0  0  0  0
M  RAD  2   2   2   3   2
M  END
