Coordinates from ORCA-job 4-HOOC-C6H3-N2-B3LYPG-aug-cc-pVDZ-scan-d09-49-n400
 OpenBabel11091809033D

 15 15  0  0  0  0  0  0  0  0999 V2000
   -1.4152   -1.4751   -1.0603 C   0  0  0  0  0  0  0  0  0  0  0  0
    0.0009   -1.2929   -1.1148 C   0  0  0  0  0  0  0  0  0  0  0  0
    0.2965    0.0468   -0.8900 C   0  0  0  0  0  0  0  0  0  0  0  0
   -0.5269    1.1710   -0.6350 C   0  0  0  0  0  0  0  0  0  0  0  0
   -1.8786    0.8984   -0.6009 C   0  0  0  0  0  0  0  0  0  0  0  0
   -2.3211   -0.4367   -0.8158 C   0  0  0  0  0  0  0  0  0  0  0  0
   -1.8343   -2.4712   -1.2150 H   0  0  0  0  0  0  0  0  0  0  0  0
   -0.1307    2.1745   -0.4774 H   0  0  0  0  0  0  0  0  0  0  0  0
   -2.5981    1.6908   -0.4125 H   0  0  0  0  0  0  0  0  0  0  0  0
    1.7150    0.2989   -0.9321 N   0  0  0  0  0  0  0  0  0  0  0  0
    2.8236    0.4023   -0.9820 N   0  0  0  0  0  0  0  0  0  0  0  0
   -3.7823   -0.7625   -0.7843 C   0  0  0  0  0  0  0  0  0  0  0  0
   -4.2546   -1.8649   -0.9576 O   0  0  0  0  0  0  0  0  0  0  0  0
   -4.5647    0.3260   -0.5414 O   0  0  0  0  0  0  0  0  0  0  0  0
   -5.4819    0.0084   -0.5442 H   0  0  0  0  0  0  0  0  0  0  0  0
  1  6  1  0  0  0  0
  2  1  2  0  0  0  0
  2  3  1  0  0  0  0
  3  4  2  0  0  0  0
  4  5  1  0  0  0  0
  4  8  1  0  0  0  0
  5  9  1  0  0  0  0
  6 12  1  0  0  0  0
  6  5  2  0  0  0  0
  7  1  1  0  0  0  0
 10  3  1  0  0  0  0
 11 10  1  0  0  0  0
 12 14  1  0  0  0  0
 13 12  2  0  0  0  0
 15 14  1  0  0  0  0
M  RAD  3   2   2  10   2  11   3
M  END
