Coordinates from ORCA-job 4-HOOC-C6H3-N2-B3LYPG-aug-cc-pVDZ-scan-d09-49-n400
 OpenBabel11091809033D

 15 14  0  0  0  0  0  0  0  0999 V2000
   -2.0686   -1.9472   -1.1056 C   0  0  0  0  0  0  0  0  0  0  0  0
   -0.6936   -1.8475   -1.1726 C   0  0  0  0  0  0  0  0  0  0  0  0
    0.0093   -0.8200   -1.0293 C   0  0  0  0  0  0  0  0  0  0  0  0
   -0.4405    0.4678   -0.7673 C   0  0  0  0  0  0  0  0  0  0  0  0
   -1.8495    0.4886   -0.6762 C   0  0  0  0  0  0  0  0  0  0  0  0
   -2.6423   -0.6725   -0.8381 C   0  0  0  0  0  0  0  0  0  0  0  0
   -2.6896   -2.8310   -1.2277 H   0  0  0  0  0  0  0  0  0  0  0  0
    0.1623    1.3646   -0.6416 H   0  0  0  0  0  0  0  0  0  0  0  0
   -2.3461    1.4362   -0.4731 H   0  0  0  0  0  0  0  0  0  0  0  0
    3.3531    2.1565   -0.6967 N   0  0  0  0  0  0  0  0  0  0  0  0
    4.4286    1.9311   -0.8044 N   0  0  0  0  0  0  0  0  0  0  0  0
   -4.1291   -0.6185   -0.7358 C   0  0  0  0  0  0  0  0  0  0  0  0
   -4.8671   -1.5731   -0.8676 O   0  0  0  0  0  0  0  0  0  0  0  0
   -4.6065    0.6305   -0.4844 O   0  0  0  0  0  0  0  0  0  0  0  0
   -5.5729    0.5484   -0.4427 H   0  0  0  0  0  0  0  0  0  0  0  0
  1  6  1  0  0  0  0
  2  1  2  0  0  0  0
  2  3  1  0  0  0  0
  3  4  2  0  0  0  0
  4  5  1  0  0  0  0
  4  8  1  0  0  0  0
  5  9  1  0  0  0  0
  6 12  1  0  0  0  0
  6  5  2  0  0  0  0
  7  1  1  0  0  0  0
 11 10  3  0  0  0  0
 12 14  1  0  0  0  0
 13 12  2  0  0  0  0
 14 15  1  0  0  0  0
M  RAD  2   2   2   3   2
M  END
