Coordinates from ORCA-job 4-HOOC-C6H3-N2-B3LYPG-aug-cc-pVDZ-scan-d09-49-n400
 OpenBabel11091809033D

 15 14  0  0  0  0  0  0  0  0999 V2000
   -1.4949   -1.5291   -1.0652 C   0  0  0  0  0  0  0  0  0  0  0  0
   -0.1533   -1.1484   -1.0785 C   0  0  0  0  0  0  0  0  0  0  0  0
    0.1858    0.0508   -0.8818 C   0  0  0  0  0  0  0  0  0  0  0  0
   -0.5549    1.1856   -0.6304 C   0  0  0  0  0  0  0  0  0  0  0  0
   -1.9262    0.8651   -0.6044 C   0  0  0  0  0  0  0  0  0  0  0  0
   -2.3887   -0.4564   -0.8157 C   0  0  0  0  0  0  0  0  0  0  0  0
   -1.8778   -2.5356   -1.2242 H   0  0  0  0  0  0  0  0  0  0  0  0
   -0.1721    2.1921   -0.4714 H   0  0  0  0  0  0  0  0  0  0  0  0
   -2.6495    1.6565   -0.4164 H   0  0  0  0  0  0  0  0  0  0  0  0
    2.2223    0.6506   -0.8985 N   0  0  0  0  0  0  0  0  0  0  0  0
    3.1956    0.1452   -1.0527 N   0  0  0  0  0  0  0  0  0  0  0  0
   -3.8451   -0.7766   -0.7842 C   0  0  0  0  0  0  0  0  0  0  0  0
   -4.3170   -1.8814   -0.9565 O   0  0  0  0  0  0  0  0  0  0  0  0
   -4.6305    0.3088   -0.5403 O   0  0  0  0  0  0  0  0  0  0  0  0
   -5.5461   -0.0134   -0.5432 H   0  0  0  0  0  0  0  0  0  0  0  0
  1  6  1  0  0  0  0
  2  1  2  0  0  0  0
  2  3  1  0  0  0  0
  3  4  2  0  0  0  0
  4  5  1  0  0  0  0
  4  8  1  0  0  0  0
  5  9  1  0  0  0  0
  6 12  1  0  0  0  0
  6  5  2  0  0  0  0
  7  1  1  0  0  0  0
 11 10  3  0  0  0  0
 12 14  1  0  0  0  0
 13 12  2  0  0  0  0
 15 14  1  0  0  0  0
M  RAD  2   2   2   3   2
M  END
