Coordinates from ORCA-job 4-HOOC-C6H3-N2-B3LYPG-aug-cc-pVDZ-scan-d09-49-n400
 OpenBabel11091809033D

 15 14  0  0  0  0  0  0  0  0999 V2000
   -2.0570   -1.9388   -1.1049 C   0  0  0  0  0  0  0  0  0  0  0  0
   -0.6825   -1.8302   -1.1686 C   0  0  0  0  0  0  0  0  0  0  0  0
    0.0132   -0.7979   -1.0246 C   0  0  0  0  0  0  0  0  0  0  0  0
   -0.4456    0.4872   -0.7650 C   0  0  0  0  0  0  0  0  0  0  0  0
   -1.8549    0.4988   -0.6776 C   0  0  0  0  0  0  0  0  0  0  0  0
   -2.6398   -0.6676   -0.8406 C   0  0  0  0  0  0  0  0  0  0  0  0
   -2.6718   -2.8267   -1.2279 H   0  0  0  0  0  0  0  0  0  0  0  0
    0.1511    1.3880   -0.6386 H   0  0  0  0  0  0  0  0  0  0  0  0
   -2.3583    1.4434   -0.4768 H   0  0  0  0  0  0  0  0  0  0  0  0
    3.3489    2.1279   -0.7001 N   0  0  0  0  0  0  0  0  0  0  0  0
    4.4204    1.8847   -0.8086 N   0  0  0  0  0  0  0  0  0  0  0  0
   -4.1271   -0.6231   -0.7430 C   0  0  0  0  0  0  0  0  0  0  0  0
   -4.8580   -1.5843   -0.8667 O   0  0  0  0  0  0  0  0  0  0  0  0
   -4.6127    0.6210   -0.4833 O   0  0  0  0  0  0  0  0  0  0  0  0
   -5.5782    0.5314   -0.4370 H   0  0  0  0  0  0  0  0  0  0  0  0
  1  6  1  0  0  0  0
  2  1  2  0  0  0  0
  2  3  1  0  0  0  0
  3  4  2  0  0  0  0
  4  5  1  0  0  0  0
  4  8  1  0  0  0  0
  5  9  1  0  0  0  0
  6 12  1  0  0  0  0
  6  5  2  0  0  0  0
  7  1  1  0  0  0  0
 11 10  3  0  0  0  0
 12 14  1  0  0  0  0
 13 12  2  0  0  0  0
 14 15  1  0  0  0  0
M  RAD  2   2   2   3   2
M  END
