Coordinates from ORCA-job 4-HOOC-C6H3-N2-B3LYPG-aug-cc-pVDZ-scan-d09-49-n400
 OpenBabel11091809033D

 15 14  0  0  0  0  0  0  0  0999 V2000
   -1.6704   -1.6517   -1.0759 C   0  0  0  0  0  0  0  0  0  0  0  0
   -0.3354   -1.2935   -1.0940 C   0  0  0  0  0  0  0  0  0  0  0  0
    0.1363   -0.1465   -0.9148 C   0  0  0  0  0  0  0  0  0  0  0  0
   -0.5574    1.0256   -0.6582 C   0  0  0  0  0  0  0  0  0  0  0  0
   -1.9459    0.7732   -0.6175 C   0  0  0  0  0  0  0  0  0  0  0  0
   -2.4907   -0.5178   -0.8181 C   0  0  0  0  0  0  0  0  0  0  0  0
   -2.1047   -2.6368   -1.2278 H   0  0  0  0  0  0  0  0  0  0  0  0
   -0.1349    2.0158   -0.5044 H   0  0  0  0  0  0  0  0  0  0  0  0
   -2.6239    1.6032   -0.4241 H   0  0  0  0  0  0  0  0  0  0  0  0
    2.7804    1.0794   -0.8571 N   0  0  0  0  0  0  0  0  0  0  0  0
    3.7492    0.5699   -1.0124 N   0  0  0  0  0  0  0  0  0  0  0  0
   -3.9621   -0.7550   -0.7687 C   0  0  0  0  0  0  0  0  0  0  0  0
   -4.4960   -1.8318   -0.9386 O   0  0  0  0  0  0  0  0  0  0  0  0
   -4.6821    0.3742   -0.5277 O   0  0  0  0  0  0  0  0  0  0  0  0
   -5.6149    0.1057   -0.5240 H   0  0  0  0  0  0  0  0  0  0  0  0
  1  6  1  0  0  0  0
  2  1  2  0  0  0  0
  2  3  1  0  0  0  0
  3  4  2  0  0  0  0
  4  5  1  0  0  0  0
  4  8  1  0  0  0  0
  5  9  1  0  0  0  0
  6 12  1  0  0  0  0
  6  5  2  0  0  0  0
  7  1  1  0  0  0  0
 11 10  3  0  0  0  0
 12 14  1  0  0  0  0
 13 12  2  0  0  0  0
 14 15  1  0  0  0  0
M  RAD  2   2   2   3   2
M  END
