Coordinates from ORCA-job 4-HOOC-C6H3-N2-B3LYPG-aug-cc-pVDZ-scan-d09-49-n400
 OpenBabel11091809033D

 15 14  0  0  0  0  0  0  0  0999 V2000
   -1.6064   -1.6066   -1.0732 C   0  0  0  0  0  0  0  0  0  0  0  0
   -0.2737   -1.2287   -1.0859 C   0  0  0  0  0  0  0  0  0  0  0  0
    0.1511   -0.0639   -0.9007 C   0  0  0  0  0  0  0  0  0  0  0  0
   -0.5601    1.0940   -0.6474 C   0  0  0  0  0  0  0  0  0  0  0  0
   -1.9430    0.8098   -0.6147 C   0  0  0  0  0  0  0  0  0  0  0  0
   -2.4553   -0.4938   -0.8198 C   0  0  0  0  0  0  0  0  0  0  0  0
   -2.0186   -2.6009   -1.2283 H   0  0  0  0  0  0  0  0  0  0  0  0
   -0.1596    2.0930   -0.4907 H   0  0  0  0  0  0  0  0  0  0  0  0
   -2.6410    1.6237   -0.4246 H   0  0  0  0  0  0  0  0  0  0  0  0
    2.5933    0.8963   -0.8757 N   0  0  0  0  0  0  0  0  0  0  0  0
    3.5729    0.4082   -1.0256 N   0  0  0  0  0  0  0  0  0  0  0  0
   -3.9213   -0.7641   -0.7798 C   0  0  0  0  0  0  0  0  0  0  0  0
   -4.4296   -1.8542   -0.9432 O   0  0  0  0  0  0  0  0  0  0  0  0
   -4.6676    0.3462   -0.5298 O   0  0  0  0  0  0  0  0  0  0  0  0
   -5.5935    0.0548   -0.5239 H   0  0  0  0  0  0  0  0  0  0  0  0
  1  6  1  0  0  0  0
  2  1  2  0  0  0  0
  2  3  1  0  0  0  0
  3  4  2  0  0  0  0
  4  5  1  0  0  0  0
  4  8  1  0  0  0  0
  5  9  1  0  0  0  0
  6 12  1  0  0  0  0
  6  5  2  0  0  0  0
  7  1  1  0  0  0  0
 11 10  3  0  0  0  0
 12 14  1  0  0  0  0
 13 12  2  0  0  0  0
 14 15  1  0  0  0  0
M  RAD  2   2   2   3   2
M  END
