Coordinates from ORCA-job 4-HOOC-C6H3-N2-B3LYPG-aug-cc-pVDZ-scan-d09-49-n400
 OpenBabel11091809033D

 15 14  0  0  0  0  0  0  0  0999 V2000
   -1.9181   -1.8362   -1.0946 C   0  0  0  0  0  0  0  0  0  0  0  0
   -0.5543   -1.6257   -1.1399 C   0  0  0  0  0  0  0  0  0  0  0  0
    0.0552   -0.5423   -0.9808 C   0  0  0  0  0  0  0  0  0  0  0  0
   -0.5004    0.7028   -0.7212 C   0  0  0  0  0  0  0  0  0  0  0  0
   -1.9078    0.6075   -0.6523 C   0  0  0  0  0  0  0  0  0  0  0  0
   -2.5991   -0.6145   -0.8315 C   0  0  0  0  0  0  0  0  0  0  0  0
   -2.4629   -2.7671   -1.2300 H   0  0  0  0  0  0  0  0  0  0  0  0
    0.0276    1.6436   -0.5830 H   0  0  0  0  0  0  0  0  0  0  0  0
   -2.4840    1.5099   -0.4535 H   0  0  0  0  0  0  0  0  0  0  0  0
    3.2519    1.7802   -0.7570 N   0  0  0  0  0  0  0  0  0  0  0  0
    4.2623    1.3582   -0.8987 N   0  0  0  0  0  0  0  0  0  0  0  0
   -4.0867   -0.6837   -0.7531 C   0  0  0  0  0  0  0  0  0  0  0  0
   -4.7412   -1.6957   -0.8972 O   0  0  0  0  0  0  0  0  0  0  0  0
   -4.6691    0.5195   -0.4996 O   0  0  0  0  0  0  0  0  0  0  0  0
   -5.6258    0.3573   -0.4709 H   0  0  0  0  0  0  0  0  0  0  0  0
  1  6  1  0  0  0  0
  2  1  2  0  0  0  0
  2  3  1  0  0  0  0
  3  4  2  0  0  0  0
  4  5  1  0  0  0  0
  4  8  1  0  0  0  0
  5  9  1  0  0  0  0
  6 12  1  0  0  0  0
  6  5  2  0  0  0  0
  7  1  1  0  0  0  0
 11 10  3  0  0  0  0
 12 14  1  0  0  0  0
 13 12  2  0  0  0  0
 14 15  1  0  0  0  0
M  RAD  2   2   2   3   2
M  END
