Coordinates from ORCA-job 4-HOOC-C6H3-N2-B3LYPG-aug-cc-pVDZ-scan-d09-49-n400
 OpenBabel11091809033D

 15 15  0  0  0  0  0  0  0  0999 V2000
   -1.4176   -1.4683   -1.0595 C   0  0  0  0  0  0  0  0  0  0  0  0
   -0.0132   -1.2401   -1.1043 C   0  0  0  0  0  0  0  0  0  0  0  0
    0.2489    0.0605   -0.8844 C   0  0  0  0  0  0  0  0  0  0  0  0
   -0.5397    1.1876   -0.6317 C   0  0  0  0  0  0  0  0  0  0  0  0
   -1.8978    0.9023   -0.6001 C   0  0  0  0  0  0  0  0  0  0  0  0
   -2.3332   -0.4312   -0.8153 C   0  0  0  0  0  0  0  0  0  0  0  0
   -1.8225   -2.4696   -1.2164 H   0  0  0  0  0  0  0  0  0  0  0  0
   -0.1416    2.1900   -0.4743 H   0  0  0  0  0  0  0  0  0  0  0  0
   -2.6210    1.6917   -0.4127 H   0  0  0  0  0  0  0  0  0  0  0  0
    1.8011    0.3622   -0.9248 N   0  0  0  0  0  0  0  0  0  0  0  0
    2.9067    0.2743   -1.0085 N   0  0  0  0  0  0  0  0  0  0  0  0
   -3.7895   -0.7678   -0.7872 C   0  0  0  0  0  0  0  0  0  0  0  0
   -4.2536   -1.8748   -0.9587 O   0  0  0  0  0  0  0  0  0  0  0  0
   -4.5830    0.3127   -0.5413 O   0  0  0  0  0  0  0  0  0  0  0  0
   -5.4964   -0.0156   -0.5441 H   0  0  0  0  0  0  0  0  0  0  0  0
  1  6  1  0  0  0  0
  2  1  2  0  0  0  0
  2  3  1  0  0  0  0
  3  4  2  0  0  0  0
  4  5  1  0  0  0  0
  4  8  1  0  0  0  0
  5  9  1  0  0  0  0
  6 12  1  0  0  0  0
  6  5  2  0  0  0  0
  7  1  1  0  0  0  0
 10  3  1  0  0  0  0
 11 10  1  0  0  0  0
 12 14  1  0  0  0  0
 13 12  2  0  0  0  0
 15 14  1  0  0  0  0
M  RAD  3   2   2  10   2  11   3
M  END
