Coordinates from ORCA-job 4-HOOC-C6H3-N2-B3LYPG-aug-cc-pVDZ-scan-d09-49-n400
 OpenBabel11091809033D

 15 15  0  0  0  0  0  0  0  0999 V2000
   -1.4242   -1.4715   -1.0588 C   0  0  0  0  0  0  0  0  0  0  0  0
   -0.0348   -1.1994   -1.0956 C   0  0  0  0  0  0  0  0  0  0  0  0
    0.2285    0.0708   -0.8814 C   0  0  0  0  0  0  0  0  0  0  0  0
   -0.5446    1.1961   -0.6292 C   0  0  0  0  0  0  0  0  0  0  0  0
   -1.9062    0.8991   -0.5986 C   0  0  0  0  0  0  0  0  0  0  0  0
   -2.3422   -0.4321   -0.8130 C   0  0  0  0  0  0  0  0  0  0  0  0
   -1.8175   -2.4767   -1.2167 H   0  0  0  0  0  0  0  0  0  0  0  0
   -0.1488    2.1994   -0.4717 H   0  0  0  0  0  0  0  0  0  0  0  0
   -2.6315    1.6869   -0.4105 H   0  0  0  0  0  0  0  0  0  0  0  0
    1.8715    0.4287   -0.9186 N   0  0  0  0  0  0  0  0  0  0  0  0
    2.9511    0.1855   -1.0300 N   0  0  0  0  0  0  0  0  0  0  0  0
   -3.7962   -0.7725   -0.7842 C   0  0  0  0  0  0  0  0  0  0  0  0
   -4.2570   -1.8805   -0.9607 O   0  0  0  0  0  0  0  0  0  0  0  0
   -4.5942    0.3058   -0.5438 O   0  0  0  0  0  0  0  0  0  0  0  0
   -5.5064   -0.0258   -0.5504 H   0  0  0  0  0  0  0  0  0  0  0  0
  1  6  1  0  0  0  0
  2  1  2  0  0  0  0
  2  3  1  0  0  0  0
  3  4  2  0  0  0  0
  4  5  1  0  0  0  0
  4  8  1  0  0  0  0
  5  9  1  0  0  0  0
  6 12  1  0  0  0  0
  6  5  2  0  0  0  0
  7  1  1  0  0  0  0
 10  3  1  0  0  0  0
 11 10  2  0  0  0  0
 12 14  1  0  0  0  0
 13 12  2  0  0  0  0
 15 14  1  0  0  0  0
M  RAD  2   2   2  11   2
M  END
