Coordinates from ORCA-job 4-HOOC-C6H3-N2-B3LYPG-aug-cc-pVDZ-scan-d09-49-n400
 OpenBabel11091809033D

 15 14  0  0  0  0  0  0  0  0999 V2000
   -1.5734   -1.5838   -1.0711 C   0  0  0  0  0  0  0  0  0  0  0  0
   -0.2406   -1.1991   -1.0826 C   0  0  0  0  0  0  0  0  0  0  0  0
    0.1595   -0.0252   -0.8942 C   0  0  0  0  0  0  0  0  0  0  0  0
   -0.5602    1.1257   -0.6417 C   0  0  0  0  0  0  0  0  0  0  0  0
   -1.9398    0.8272   -0.6118 C   0  0  0  0  0  0  0  0  0  0  0  0
   -2.4363   -0.4823   -0.8190 C   0  0  0  0  0  0  0  0  0  0  0  0
   -1.9754   -2.5823   -1.2276 H   0  0  0  0  0  0  0  0  0  0  0  0
   -0.1680    2.1280   -0.4839 H   0  0  0  0  0  0  0  0  0  0  0  0
   -2.6469    1.6334   -0.4226 H   0  0  0  0  0  0  0  0  0  0  0  0
    2.4949    0.8207   -0.8834 N   0  0  0  0  0  0  0  0  0  0  0  0
    3.4681    0.3196   -1.0349 N   0  0  0  0  0  0  0  0  0  0  0  0
   -3.8993   -0.7687   -0.7821 C   0  0  0  0  0  0  0  0  0  0  0  0
   -4.3955   -1.8640   -0.9471 O   0  0  0  0  0  0  0  0  0  0  0  0
   -4.6584    0.3333   -0.5326 O   0  0  0  0  0  0  0  0  0  0  0  0
   -5.5810    0.0315   -0.5287 H   0  0  0  0  0  0  0  0  0  0  0  0
  1  6  1  0  0  0  0
  2  1  2  0  0  0  0
  2  3  1  0  0  0  0
  3  4  2  0  0  0  0
  4  5  1  0  0  0  0
  4  8  1  0  0  0  0
  5  9  1  0  0  0  0
  6 12  1  0  0  0  0
  6  5  2  0  0  0  0
  7  1  1  0  0  0  0
 11 10  3  0  0  0  0
 12 14  1  0  0  0  0
 13 12  2  0  0  0  0
 14 15  1  0  0  0  0
M  RAD  2   2   2   3   2
M  END
