Coordinates from ORCA-job 4-HOOC-C6H3-N2-B3LYPG-aug-cc-pVDZ-scan-d09-49-n400
 OpenBabel11091809033D

 15 14  0  0  0  0  0  0  0  0999 V2000
   -2.1096   -1.9761   -1.1083 C   0  0  0  0  0  0  0  0  0  0  0  0
   -0.7329   -1.9098   -1.1807 C   0  0  0  0  0  0  0  0  0  0  0  0
   -0.0044   -0.8995   -1.0423 C   0  0  0  0  0  0  0  0  0  0  0  0
   -0.4225    0.3991   -0.7813 C   0  0  0  0  0  0  0  0  0  0  0  0
   -1.8301    0.4546   -0.6849 C   0  0  0  0  0  0  0  0  0  0  0  0
   -2.6514   -0.6874   -0.8415 C   0  0  0  0  0  0  0  0  0  0  0  0
   -2.7522   -2.8449   -1.2264 H   0  0  0  0  0  0  0  0  0  0  0  0
    0.2029    1.2809   -0.6597 H   0  0  0  0  0  0  0  0  0  0  0  0
   -2.3028    1.4145   -0.4820 H   0  0  0  0  0  0  0  0  0  0  0  0
    3.3638    2.2553   -0.6783 N   0  0  0  0  0  0  0  0  0  0  0  0
    4.4517    2.0932   -0.7759 N   0  0  0  0  0  0  0  0  0  0  0  0
   -4.1360   -0.5973   -0.7342 C   0  0  0  0  0  0  0  0  0  0  0  0
   -4.8971   -1.5348   -0.8575 O   0  0  0  0  0  0  0  0  0  0  0  0
   -4.5819    0.6626   -0.4792 O   0  0  0  0  0  0  0  0  0  0  0  0
   -5.5497    0.6034   -0.4309 H   0  0  0  0  0  0  0  0  0  0  0  0
  1  6  1  0  0  0  0
  2  1  2  0  0  0  0
  2  3  1  0  0  0  0
  3  4  2  0  0  0  0
  4  5  1  0  0  0  0
  4  8  1  0  0  0  0
  5  9  1  0  0  0  0
  6 12  1  0  0  0  0
  6  5  2  0  0  0  0
  7  1  1  0  0  0  0
 11 10  3  0  0  0  0
 12 14  1  0  0  0  0
 13 12  2  0  0  0  0
 14 15  1  0  0  0  0
M  RAD  2   2   2   3   2
M  END
