Coordinates from ORCA-job 4-HOOC-C6H3-N2-B3LYPG-aug-cc-pVDZ-scan-d09-49-n400
 OpenBabel11091809033D

 15 14  0  0  0  0  0  0  0  0999 V2000
   -1.5525   -1.5697   -1.0691 C   0  0  0  0  0  0  0  0  0  0  0  0
   -0.2188   -1.1826   -1.0810 C   0  0  0  0  0  0  0  0  0  0  0  0
    0.1649   -0.0026   -0.8905 C   0  0  0  0  0  0  0  0  0  0  0  0
   -0.5594    1.1440   -0.6379 C   0  0  0  0  0  0  0  0  0  0  0  0
   -1.9369    0.8375   -0.6088 C   0  0  0  0  0  0  0  0  0  0  0  0
   -2.4238   -0.4755   -0.8170 C   0  0  0  0  0  0  0  0  0  0  0  0
   -1.9487   -2.5706   -1.2263 H   0  0  0  0  0  0  0  0  0  0  0  0
   -0.1716    2.1481   -0.4796 H   0  0  0  0  0  0  0  0  0  0  0  0
   -2.6491    1.6391   -0.4195 H   0  0  0  0  0  0  0  0  0  0  0  0
    2.4287    0.7752   -0.8889 N   0  0  0  0  0  0  0  0  0  0  0  0
    3.3984    0.2671   -1.0420 N   0  0  0  0  0  0  0  0  0  0  0  0
   -3.8849   -0.7716   -0.7807 C   0  0  0  0  0  0  0  0  0  0  0  0
   -4.3743   -1.8693   -0.9506 O   0  0  0  0  0  0  0  0  0  0  0  0
   -4.6518    0.3261   -0.5357 O   0  0  0  0  0  0  0  0  0  0  0  0
   -5.5726    0.0187   -0.5355 H   0  0  0  0  0  0  0  0  0  0  0  0
  1  6  1  0  0  0  0
  2  1  2  0  0  0  0
  2  3  1  0  0  0  0
  3  4  2  0  0  0  0
  4  5  1  0  0  0  0
  4  8  1  0  0  0  0
  5  9  1  0  0  0  0
  6 12  1  0  0  0  0
  6  5  2  0  0  0  0
  7  1  1  0  0  0  0
 11 10  3  0  0  0  0
 12 14  1  0  0  0  0
 13 12  2  0  0  0  0
 14 15  1  0  0  0  0
M  RAD  2   2   2   3   2
M  END
