Coordinates from ORCA-job 4-HOOC-C6H3-N2-B3LYPG-aug-cc-pVDZ-scan-d09-49-n400
 OpenBabel11081810443D

 15 15  0  0  0  0  0  0  0  0999 V2000
   -1.3982   -1.4702   -1.0617 C   0  0  0  0  0  0  0  0  0  0  0  0
    0.0172   -1.3587   -1.1280 C   0  0  0  0  0  0  0  0  0  0  0  0
    0.4636    0.0786   -0.8966 C   0  0  0  0  0  0  0  0  0  0  0  0
   -0.5005    1.1486   -0.6422 C   0  0  0  0  0  0  0  0  0  0  0  0
   -1.8393    0.8913   -0.6074 C   0  0  0  0  0  0  0  0  0  0  0  0
   -2.2993   -0.4374   -0.8204 C   0  0  0  0  0  0  0  0  0  0  0  0
   -1.8185   -2.4670   -1.2161 H   0  0  0  0  0  0  0  0  0  0  0  0
   -0.1041    2.1533   -0.4833 H   0  0  0  0  0  0  0  0  0  0  0  0
   -2.5461    1.6951   -0.4182 H   0  0  0  0  0  0  0  0  0  0  0  0
    1.4650    0.2729   -0.9196 N   0  0  0  0  0  0  0  0  0  0  0  0
    2.5981    0.4567   -0.9518 N   0  0  0  0  0  0  0  0  0  0  0  0
   -3.7654   -0.7566   -0.7896 C   0  0  0  0  0  0  0  0  0  0  0  0
   -4.2340   -1.8600   -0.9562 O   0  0  0  0  0  0  0  0  0  0  0  0
   -4.5342    0.3352   -0.5386 O   0  0  0  0  0  0  0  0  0  0  0  0
   -5.4568    0.0321   -0.5335 H   0  0  0  0  0  0  0  0  0  0  0  0
  1  6  1  0  0  0  0
  2  1  2  0  0  0  0
  2  3  1  0  0  0  0
  3  4  2  0  0  0  0
  4  5  1  0  0  0  0
  4  8  1  0  0  0  0
  5  9  1  0  0  0  0
  6 12  1  0  0  0  0
  6  5  2  0  0  0  0
  7  1  1  0  0  0  0
 10  3  1  0  0  0  0
 11 10  1  0  0  0  0
 12 14  1  0  0  0  0
 13 12  2  0  0  0  0
 14 15  1  0  0  0  0
M  RAD  3   2   2  10   2  11   3
M  END
