Coordinates from ORCA-job 4-HOOC-C6H3-N2-B3LYPG-aug-cc-pVDZ-scan-d09-49-n400
 OpenBabel11091809033D

 15 15  0  0  0  0  0  0  0  0999 V2000
   -1.4164   -1.4682   -1.0595 C   0  0  0  0  0  0  0  0  0  0  0  0
   -0.0102   -1.2464   -1.1056 C   0  0  0  0  0  0  0  0  0  0  0  0
    0.2553    0.0603   -0.8849 C   0  0  0  0  0  0  0  0  0  0  0  0
   -0.5389    1.1868   -0.6318 C   0  0  0  0  0  0  0  0  0  0  0  0
   -1.8959    0.9027   -0.6001 C   0  0  0  0  0  0  0  0  0  0  0  0
   -2.3312   -0.4312   -0.8153 C   0  0  0  0  0  0  0  0  0  0  0  0
   -1.8235   -2.4687   -1.2161 H   0  0  0  0  0  0  0  0  0  0  0  0
   -0.1417    2.1896   -0.4743 H   0  0  0  0  0  0  0  0  0  0  0  0
   -2.6193    1.6919   -0.4125 H   0  0  0  0  0  0  0  0  0  0  0  0
    1.7889    0.3523   -0.9260 N   0  0  0  0  0  0  0  0  0  0  0  0
    2.8965    0.2859   -1.0059 N   0  0  0  0  0  0  0  0  0  0  0  0
   -3.7880   -0.7672   -0.7869 C   0  0  0  0  0  0  0  0  0  0  0  0
   -4.2526   -1.8738   -0.9586 O   0  0  0  0  0  0  0  0  0  0  0  0
   -4.5808    0.3138   -0.5414 O   0  0  0  0  0  0  0  0  0  0  0  0
   -5.4945   -0.0138   -0.5443 H   0  0  0  0  0  0  0  0  0  0  0  0
  1  6  1  0  0  0  0
  2  1  2  0  0  0  0
  2  3  1  0  0  0  0
  3  4  2  0  0  0  0
  4  5  1  0  0  0  0
  4  8  1  0  0  0  0
  5  9  1  0  0  0  0
  6 12  1  0  0  0  0
  6  5  2  0  0  0  0
  7  1  1  0  0  0  0
 10  3  1  0  0  0  0
 11 10  1  0  0  0  0
 12 14  1  0  0  0  0
 13 12  2  0  0  0  0
 15 14  1  0  0  0  0
M  RAD  3   2   2  10   2  11   3
M  END
