Coordinates from ORCA-job 4-HOOC-C6H3-N2-B3LYPG-aug-cc-pVDZ-scan-d09-49-n400
 OpenBabel11091809033D

 15 14  0  0  0  0  0  0  0  0999 V2000
   -1.8797   -1.8075   -1.0915 C   0  0  0  0  0  0  0  0  0  0  0  0
   -0.5199   -1.5704   -1.1325 C   0  0  0  0  0  0  0  0  0  0  0  0
    0.0667   -0.4752   -0.9696 C   0  0  0  0  0  0  0  0  0  0  0  0
   -0.5130    0.7586   -0.7095 C   0  0  0  0  0  0  0  0  0  0  0  0
   -1.9185    0.6352   -0.6449 C   0  0  0  0  0  0  0  0  0  0  0  0
   -2.5852   -0.5998   -0.8280 C   0  0  0  0  0  0  0  0  0  0  0  0
   -2.4057   -2.7487   -1.2299 H   0  0  0  0  0  0  0  0  0  0  0  0
   -0.0042    1.7094   -0.5681 H   0  0  0  0  0  0  0  0  0  0  0  0
   -2.5131    1.5256   -0.4461 H   0  0  0  0  0  0  0  0  0  0  0  0
    3.2091    1.6833   -0.7730 N   0  0  0  0  0  0  0  0  0  0  0  0
    4.1984    1.2164   -0.9225 N   0  0  0  0  0  0  0  0  0  0  0  0
   -4.0714   -0.6983   -0.7535 C   0  0  0  0  0  0  0  0  0  0  0  0
   -4.7057   -1.7219   -0.9058 O   0  0  0  0  0  0  0  0  0  0  0  0
   -4.6783    0.4938   -0.5052 O   0  0  0  0  0  0  0  0  0  0  0  0
   -5.6319    0.3134   -0.4831 H   0  0  0  0  0  0  0  0  0  0  0  0
  1  6  1  0  0  0  0
  2  1  2  0  0  0  0
  2  3  1  0  0  0  0
  3  4  2  0  0  0  0
  4  5  1  0  0  0  0
  4  8  1  0  0  0  0
  5  9  1  0  0  0  0
  6 12  1  0  0  0  0
  6  5  2  0  0  0  0
  7  1  1  0  0  0  0
 11 10  3  0  0  0  0
 12 14  1  0  0  0  0
 13 12  2  0  0  0  0
 14 15  1  0  0  0  0
M  RAD  2   2   2   3   2
M  END
