Coordinates from ORCA-job 4-HOOC-C6H3-N2-B3LYPG-aug-cc-pVDZ-scan-d09-49-n400
 OpenBabel11091809033D

 15 14  0  0  0  0  0  0  0  0999 V2000
   -1.4929   -1.5274   -1.0656 C   0  0  0  0  0  0  0  0  0  0  0  0
   -0.1505   -1.1482   -1.0785 C   0  0  0  0  0  0  0  0  0  0  0  0
    0.1865    0.0521   -0.8815 C   0  0  0  0  0  0  0  0  0  0  0  0
   -0.5548    1.1866   -0.6307 C   0  0  0  0  0  0  0  0  0  0  0  0
   -1.9258    0.8662   -0.6054 C   0  0  0  0  0  0  0  0  0  0  0  0
   -2.3876   -0.4555   -0.8170 C   0  0  0  0  0  0  0  0  0  0  0  0
   -1.8756   -2.5341   -1.2248 H   0  0  0  0  0  0  0  0  0  0  0  0
   -0.1719    2.1931   -0.4715 H   0  0  0  0  0  0  0  0  0  0  0  0
   -2.6495    1.6575   -0.4180 H   0  0  0  0  0  0  0  0  0  0  0  0
    2.2143    0.6458   -0.8976 N   0  0  0  0  0  0  0  0  0  0  0  0
    3.1890    0.1424   -1.0511 N   0  0  0  0  0  0  0  0  0  0  0  0
   -3.8439   -0.7762   -0.7869 C   0  0  0  0  0  0  0  0  0  0  0  0
   -4.3151   -1.8818   -0.9557 O   0  0  0  0  0  0  0  0  0  0  0  0
   -4.6296    0.3082   -0.5391 O   0  0  0  0  0  0  0  0  0  0  0  0
   -5.5449   -0.0149   -0.5398 H   0  0  0  0  0  0  0  0  0  0  0  0
  1  6  1  0  0  0  0
  2  1  2  0  0  0  0
  2  3  1  0  0  0  0
  3  4  2  0  0  0  0
  4  5  1  0  0  0  0
  4  8  1  0  0  0  0
  5  9  1  0  0  0  0
  6 12  1  0  0  0  0
  6  5  2  0  0  0  0
  7  1  1  0  0  0  0
 11 10  3  0  0  0  0
 12 14  1  0  0  0  0
 13 12  2  0  0  0  0
 15 14  1  0  0  0  0
M  RAD  2   2   2   3   2
M  END
