12
Coordinates from ORCA-job Pyridine-4-N2+-scan-d09-160-n800
  C   -4.44722966959640      0.25104432598087     -1.26365245367471
  C   -2.98969271173387      0.15800184602293     -1.16062579180820
  C   -2.63542107645083      0.99131835619156     -0.19462095711504
  C   -3.18384519982596      1.83993206080142      0.66105001115091
  C   -4.62557389694451      1.79598013434830      0.40964541799970
  H   -4.90627007253445     -0.38110594743011     -2.02329343587162
  H   -2.42949769481691     -0.50442817592995     -1.80998812733494
  N   14.18134824360389      0.14760548783603      1.25258992429665
  N   15.28104051904628      0.09896510676518      1.35450286416966
  H   -5.23263191539294      2.44620903005390      1.03898717987128
  H   -2.77478316016128      2.48595859081486      1.42891227581800
  N   -5.16804336519301      1.03421918454505     -0.50420690750171
