Coordinates from ORCA-job Ph-N2+-scan-d09-169-n800
 OpenBabel09191813423D

 13 12  0  0  0  0  0  0  0  0999 V2000
   -3.6307    0.1205   -1.2767 C   0  0  0  0  0  0  0  0  0  0  0  0
   -2.1953    0.0353   -1.2767 C   0  0  0  0  0  0  0  0  0  0  0  0
   -1.8234    0.8847   -0.3248 C   0  0  0  0  0  0  0  0  0  0  0  0
   -2.1964    1.7574    0.6052 C   0  0  0  0  0  0  0  0  0  0  0  0
   -3.6318    1.7642    0.5188 C   0  0  0  0  0  0  0  0  0  0  0  0
   -4.3149    0.9645   -0.3996 C   0  0  0  0  0  0  0  0  0  0  0  0
   -4.1424   -0.5135   -2.0045 H   0  0  0  0  0  0  0  0  0  0  0  0
   -1.6143   -0.6023   -1.9397 H   0  0  0  0  0  0  0  0  0  0  0  0
   10.4950    0.5811    1.3426 N   0  0  0  0  0  0  0  0  0  0  0  0
   11.5858    0.5779    1.5149 N   0  0  0  0  0  0  0  0  0  0  0  0
   -5.4040    0.9992   -0.4319 H   0  0  0  0  0  0  0  0  0  0  0  0
   -4.1446    2.4303    1.2166 H   0  0  0  0  0  0  0  0  0  0  0  0
   -1.6166    2.3583    1.3026 H   0  0  0  0  0  0  0  0  0  0  0  0
  1  6  1  0  0  0  0
  2  1  2  0  0  0  0
  2  3  1  0  0  0  0
  3  4  2  0  0  0  0
  4 13  1  0  0  0  0
  5  4  1  0  0  0  0
  5 12  1  0  0  0  0
  6  5  2  0  0  0  0
  7  1  1  0  0  0  0
  8  2  1  0  0  0  0
  9 10  3  0  0  0  0
 11  6  1  0  0  0  0
M  RAD  1   3   2
M  END
