Coordinates from ORCA-job Ph-N2+-scan-d09-169-n800
 OpenBabel09191813423D

 13 12  0  0  0  0  0  0  0  0999 V2000
   -2.6868    0.1101   -1.1656 C   0  0  0  0  0  0  0  0  0  0  0  0
   -1.2552   -0.0229   -1.1489 C   0  0  0  0  0  0  0  0  0  0  0  0
   -0.8666    0.8106   -0.1897 C   0  0  0  0  0  0  0  0  0  0  0  0
   -1.2214    1.6925    0.7387 C   0  0  0  0  0  0  0  0  0  0  0  0
   -2.6545    1.7474    0.6354 C   0  0  0  0  0  0  0  0  0  0  0  0
   -3.3529    0.9739   -0.2939 C   0  0  0  0  0  0  0  0  0  0  0  0
   -3.2106   -0.5047   -1.9013 H   0  0  0  0  0  0  0  0  0  0  0  0
   -0.6873   -0.6772   -1.8070 H   0  0  0  0  0  0  0  0  0  0  0  0
    5.2153    0.7507    0.6973 N   0  0  0  0  0  0  0  0  0  0  0  0
    6.3094    0.7325    0.8462 N   0  0  0  0  0  0  0  0  0  0  0  0
   -4.4397    1.0451   -0.3389 H   0  0  0  0  0  0  0  0  0  0  0  0
   -3.1534    2.4277    1.3296 H   0  0  0  0  0  0  0  0  0  0  0  0
   -0.6300    2.2718    1.4447 H   0  0  0  0  0  0  0  0  0  0  0  0
  1  2  2  0  0  0  0
  1  6  1  0  0  0  0
  2  3  1  0  0  0  0
  3  4  2  0  0  0  0
  4 13  1  0  0  0  0
  5  4  1  0  0  0  0
  5 12  1  0  0  0  0
  6  5  2  0  0  0  0
  7  1  1  0  0  0  0
  8  2  1  0  0  0  0
  9 10  3  0  0  0  0
 11  6  1  0  0  0  0
M  RAD  1   3   2
M  END
