Coordinates from ORCA-job Ph-N2+-scan-d09-169-n800
 OpenBabel09191813423D

 13 12  0  0  0  0  0  0  0  0999 V2000
   -2.2585    0.1055   -1.1127 C   0  0  0  0  0  0  0  0  0  0  0  0
   -0.8271   -0.0043   -1.0438 C   0  0  0  0  0  0  0  0  0  0  0  0
   -0.4847    0.8378   -0.0744 C   0  0  0  0  0  0  0  0  0  0  0  0
   -0.8891    1.7165    0.8371 C   0  0  0  0  0  0  0  0  0  0  0  0
   -2.3175    1.7485    0.6828 C   0  0  0  0  0  0  0  0  0  0  0  0
   -2.9696    0.9610   -0.2684 C   0  0  0  0  0  0  0  0  0  0  0  0
   -2.7468   -0.5189   -1.8642 H   0  0  0  0  0  0  0  0  0  0  0  0
   -0.2250   -0.6509   -1.6783 H   0  0  0  0  0  0  0  0  0  0  0  0
    3.1134    0.7262    0.3376 N   0  0  0  0  0  0  0  0  0  0  0  0
    4.2091    0.6932    0.4677 N   0  0  0  0  0  0  0  0  0  0  0  0
   -4.0550    1.0141   -0.3526 H   0  0  0  0  0  0  0  0  0  0  0  0
   -2.8524    2.4226    1.3556 H   0  0  0  0  0  0  0  0  0  0  0  0
   -0.3305    2.3064    1.5604 H   0  0  0  0  0  0  0  0  0  0  0  0
  1  2  2  0  0  0  0
  1  6  1  0  0  0  0
  2  3  1  0  0  0  0
  3  4  2  0  0  0  0
  4 13  1  0  0  0  0
  5  4  1  0  0  0  0
  5 12  1  0  0  0  0
  6  5  2  0  0  0  0
  7  1  1  0  0  0  0
  8  2  1  0  0  0  0
  9 10  3  0  0  0  0
 11  6  1  0  0  0  0
M  RAD  1   3   2
M  END
