Coordinates from ORCA-job Ph-N2+-scan-d09-169-n800
 OpenBabel09191813423D

 13 12  0  0  0  0  0  0  0  0999 V2000
   -3.8329    0.1233   -1.3000 C   0  0  0  0  0  0  0  0  0  0  0  0
   -2.3971    0.0452   -1.3074 C   0  0  0  0  0  0  0  0  0  0  0  0
   -2.0245    0.8967   -0.3577 C   0  0  0  0  0  0  0  0  0  0  0  0
   -2.3971    1.7679    0.5739 C   0  0  0  0  0  0  0  0  0  0  0  0
   -3.8329    1.7675    0.4950 C   0  0  0  0  0  0  0  0  0  0  0  0
   -4.5167    0.9641   -0.4196 C   0  0  0  0  0  0  0  0  0  0  0  0
   -4.3452   -0.5134   -2.0251 H   0  0  0  0  0  0  0  0  0  0  0  0
   -1.8163   -0.5897   -1.9731 H   0  0  0  0  0  0  0  0  0  0  0  0
   11.6036    0.5507    1.4826 N   0  0  0  0  0  0  0  0  0  0  0  0
   12.6934    0.5485    1.6614 N   0  0  0  0  0  0  0  0  0  0  0  0
   -5.6061    0.9935   -0.4464 H   0  0  0  0  0  0  0  0  0  0  0  0
   -4.3454    2.4314    1.1951 H   0  0  0  0  0  0  0  0  0  0  0  0
   -1.8166    2.3719    1.2682 H   0  0  0  0  0  0  0  0  0  0  0  0
  1  6  1  0  0  0  0
  2  1  2  0  0  0  0
  2  3  1  0  0  0  0
  3  4  2  0  0  0  0
  4 13  1  0  0  0  0
  5  4  1  0  0  0  0
  5 12  1  0  0  0  0
  6  5  2  0  0  0  0
  7  1  1  0  0  0  0
  8  2  1  0  0  0  0
  9 10  3  0  0  0  0
 11  6  1  0  0  0  0
M  RAD  1   3   2
M  END
