Coordinates from ORCA-job Ph-N2+-scan-d09-169-n800
 OpenBabel09191813423D

 13 12  0  0  0  0  0  0  0  0999 V2000
   -3.7533    0.1221   -1.2907 C   0  0  0  0  0  0  0  0  0  0  0  0
   -2.3176    0.0415   -1.2955 C   0  0  0  0  0  0  0  0  0  0  0  0
   -1.9452    0.8922   -0.3450 C   0  0  0  0  0  0  0  0  0  0  0  0
   -2.3180    1.7639    0.5860 C   0  0  0  0  0  0  0  0  0  0  0  0
   -3.7536    1.7662    0.5044 C   0  0  0  0  0  0  0  0  0  0  0  0
   -4.4372    0.9641   -0.4115 C   0  0  0  0  0  0  0  0  0  0  0  0
   -4.2654   -0.5136   -2.0168 H   0  0  0  0  0  0  0  0  0  0  0  0
   -1.7367   -0.5944   -1.9603 H   0  0  0  0  0  0  0  0  0  0  0  0
   11.1669    0.5625    1.4273 N   0  0  0  0  0  0  0  0  0  0  0  0
   12.2570    0.5601    1.6040 N   0  0  0  0  0  0  0  0  0  0  0  0
   -5.5265    0.9954   -0.4403 H   0  0  0  0  0  0  0  0  0  0  0  0
   -4.2662    2.4309    1.2038 H   0  0  0  0  0  0  0  0  0  0  0  0
   -1.7377    2.3668    1.2814 H   0  0  0  0  0  0  0  0  0  0  0  0
  1  6  1  0  0  0  0
  2  1  2  0  0  0  0
  2  3  1  0  0  0  0
  3  4  2  0  0  0  0
  4 13  1  0  0  0  0
  5  4  1  0  0  0  0
  5 12  1  0  0  0  0
  6  5  2  0  0  0  0
  7  1  1  0  0  0  0
  8  2  1  0  0  0  0
  9 10  3  0  0  0  0
 11  6  1  0  0  0  0
M  RAD  1   3   2
M  END
