Coordinates from ORCA-job Ph-N2+-scan-d09-169-n800
 OpenBabel09191813423D

 13 12  0  0  0  0  0  0  0  0999 V2000
   -3.5290    0.1196   -1.2656 C   0  0  0  0  0  0  0  0  0  0  0  0
   -2.0940    0.0293   -1.2594 C   0  0  0  0  0  0  0  0  0  0  0  0
   -1.7231    0.8771   -0.3058 C   0  0  0  0  0  0  0  0  0  0  0  0
   -2.0970    1.7509    0.6228 C   0  0  0  0  0  0  0  0  0  0  0  0
   -3.5319    1.7630    0.5302 C   0  0  0  0  0  0  0  0  0  0  0  0
   -4.2139    0.9659   -0.3913 C   0  0  0  0  0  0  0  0  0  0  0  0
   -4.0399   -0.5125   -1.9957 H   0  0  0  0  0  0  0  0  0  0  0  0
   -1.5124   -0.6102   -1.9201 H   0  0  0  0  0  0  0  0  0  0  0  0
    9.9410    0.5965    1.2717 N   0  0  0  0  0  0  0  0  0  0  0  0
   11.0325    0.5929    1.4397 N   0  0  0  0  0  0  0  0  0  0  0  0
   -5.3028    1.0046   -0.4283 H   0  0  0  0  0  0  0  0  0  0  0  0
   -4.0453    2.4308    1.2259 H   0  0  0  0  0  0  0  0  0  0  0  0
   -1.5180    2.3497    1.3227 H   0  0  0  0  0  0  0  0  0  0  0  0
  1  2  2  0  0  0  0
  1  6  1  0  0  0  0
  2  3  1  0  0  0  0
  3  4  2  0  0  0  0
  4 13  1  0  0  0  0
  5  4  1  0  0  0  0
  5 12  1  0  0  0  0
  6  5  2  0  0  0  0
  7  1  1  0  0  0  0
  8  2  1  0  0  0  0
  9 10  3  0  0  0  0
 11  6  1  0  0  0  0
M  RAD  1   3   2
M  END
