Coordinates from ORCA-job Ph-N2+-scan-d09-169-n800
 OpenBabel09191813423D

 13 12  0  0  0  0  0  0  0  0999 V2000
   -3.9374    0.1250   -1.3121 C   0  0  0  0  0  0  0  0  0  0  0  0
   -2.5016    0.0497   -1.3233 C   0  0  0  0  0  0  0  0  0  0  0  0
   -2.1281    0.9020   -0.3747 C   0  0  0  0  0  0  0  0  0  0  0  0
   -2.4999    1.7726    0.5578 C   0  0  0  0  0  0  0  0  0  0  0  0
   -3.9359    1.7694    0.4827 C   0  0  0  0  0  0  0  0  0  0  0  0
   -4.6206    0.9645   -0.4300 C   0  0  0  0  0  0  0  0  0  0  0  0
   -4.4504   -0.5128   -2.0359 H   0  0  0  0  0  0  0  0  0  0  0  0
   -1.9213   -0.5841   -1.9905 H   0  0  0  0  0  0  0  0  0  0  0  0
   12.1745    0.5358    1.5556 N   0  0  0  0  0  0  0  0  0  0  0  0
   13.2640    0.5338    1.7364 N   0  0  0  0  0  0  0  0  0  0  0  0
   -5.7102    0.9918   -0.4539 H   0  0  0  0  0  0  0  0  0  0  0  0
   -4.4479    2.4323    1.1842 H   0  0  0  0  0  0  0  0  0  0  0  0
   -1.9189    2.3777    1.2506 H   0  0  0  0  0  0  0  0  0  0  0  0
  1  6  1  0  0  0  0
  2  1  2  0  0  0  0
  2  3  1  0  0  0  0
  3  4  2  0  0  0  0
  4 13  1  0  0  0  0
  5  4  1  0  0  0  0
  5 12  1  0  0  0  0
  6  5  2  0  0  0  0
  7  1  1  0  0  0  0
  8  2  1  0  0  0  0
  9 10  3  0  0  0  0
 11  6  1  0  0  0  0
M  RAD  1   3   2
M  END
