Coordinates from ORCA-job Ph-N2+-scan-d09-169-n800
 OpenBabel09191813423D

 13 12  0  0  0  0  0  0  0  0999 V2000
   -2.7415    0.1104   -1.1723 C   0  0  0  0  0  0  0  0  0  0  0  0
   -1.3095   -0.0178   -1.1542 C   0  0  0  0  0  0  0  0  0  0  0  0
   -0.9246    0.8175   -0.1951 C   0  0  0  0  0  0  0  0  0  0  0  0
   -1.2831    1.6986    0.7327 C   0  0  0  0  0  0  0  0  0  0  0  0
   -2.7164    1.7486    0.6280 C   0  0  0  0  0  0  0  0  0  0  0  0
   -3.4113    0.9724   -0.3016 C   0  0  0  0  0  0  0  0  0  0  0  0
   -3.2626   -0.5064   -1.9082 H   0  0  0  0  0  0  0  0  0  0  0  0
   -0.7389   -0.6704   -1.8116 H   0  0  0  0  0  0  0  0  0  0  0  0
    5.5356    0.7369    0.7331 N   0  0  0  0  0  0  0  0  0  0  0  0
    6.6295    0.7202    0.8833 N   0  0  0  0  0  0  0  0  0  0  0  0
   -4.4983    1.0399   -0.3476 H   0  0  0  0  0  0  0  0  0  0  0  0
   -3.2182    2.4276    1.3214 H   0  0  0  0  0  0  0  0  0  0  0  0
   -0.6944    2.2802    1.4389 H   0  0  0  0  0  0  0  0  0  0  0  0
  1  2  2  0  0  0  0
  1  6  1  0  0  0  0
  2  3  1  0  0  0  0
  3  4  2  0  0  0  0
  4 13  1  0  0  0  0
  5  4  1  0  0  0  0
  5 12  1  0  0  0  0
  6  5  2  0  0  0  0
  7  1  1  0  0  0  0
  8  2  1  0  0  0  0
  9 10  3  0  0  0  0
 11  6  1  0  0  0  0
M  RAD  1   3   2
M  END
