Coordinates from ORCA-job Ph-N2+-scan-d09-169-n800
 OpenBabel09191813423D

 13 12  0  0  0  0  0  0  0  0999 V2000
   -2.5262    0.1088   -1.1458 C   0  0  0  0  0  0  0  0  0  0  0  0
   -1.0956   -0.0332   -1.1287 C   0  0  0  0  0  0  0  0  0  0  0  0
   -0.7021    0.7971   -0.1688 C   0  0  0  0  0  0  0  0  0  0  0  0
   -1.0516    1.6805    0.7602 C   0  0  0  0  0  0  0  0  0  0  0  0
   -2.4843    1.7445    0.6565 C   0  0  0  0  0  0  0  0  0  0  0  0
   -3.1872    0.9762   -0.2737 C   0  0  0  0  0  0  0  0  0  0  0  0
   -3.0537   -0.5021   -1.8821 H   0  0  0  0  0  0  0  0  0  0  0  0
   -0.5312   -0.6904   -1.7869 H   0  0  0  0  0  0  0  0  0  0  0  0
    4.3066    0.7799    0.5858 N   0  0  0  0  0  0  0  0  0  0  0  0
    5.4008    0.7592    0.7323 N   0  0  0  0  0  0  0  0  0  0  0  0
   -4.2735    1.0542   -0.3191 H   0  0  0  0  0  0  0  0  0  0  0  0
   -2.9793    2.4274    1.3508 H   0  0  0  0  0  0  0  0  0  0  0  0
   -0.4564    2.2555    1.4663 H   0  0  0  0  0  0  0  0  0  0  0  0
  1  2  2  0  0  0  0
  1  6  1  0  0  0  0
  2  3  1  0  0  0  0
  3  4  2  0  0  0  0
  4 13  1  0  0  0  0
  5  4  1  0  0  0  0
  5 12  1  0  0  0  0
  6  5  2  0  0  0  0
  7  1  1  0  0  0  0
  8  2  1  0  0  0  0
  9 10  3  0  0  0  0
 11  6  1  0  0  0  0
M  RAD  1   3   2
M  END
