Coordinates from ORCA-job Ph-N2+-scan-d09-169-n800
 OpenBabel09191813423D

 13 12  0  0  0  0  0  0  0  0999 V2000
   -4.1187    0.1285   -1.3338 C   0  0  0  0  0  0  0  0  0  0  0  0
   -2.6826    0.0564   -1.3495 C   0  0  0  0  0  0  0  0  0  0  0  0
   -2.3081    0.9095   -0.4020 C   0  0  0  0  0  0  0  0  0  0  0  0
   -2.6789    1.7794    0.5316 C   0  0  0  0  0  0  0  0  0  0  0  0
   -4.1151    1.7730    0.4609 C   0  0  0  0  0  0  0  0  0  0  0  0
   -4.8009    0.9666   -0.4496 C   0  0  0  0  0  0  0  0  0  0  0  0
   -4.6325   -0.5105   -2.0559 H   0  0  0  0  0  0  0  0  0  0  0  0
   -2.1030   -0.5763   -2.0184 H   0  0  0  0  0  0  0  0  0  0  0  0
   13.1655    0.5102    1.6816 N   0  0  0  0  0  0  0  0  0  0  0  0
   14.2545    0.5088    1.8655 N   0  0  0  0  0  0  0  0  0  0  0  0
   -5.8906    0.9915   -0.4701 H   0  0  0  0  0  0  0  0  0  0  0  0
   -4.6264    2.4349    1.1639 H   0  0  0  0  0  0  0  0  0  0  0  0
   -2.0970    2.3858    1.2225 H   0  0  0  0  0  0  0  0  0  0  0  0
  1  6  1  0  0  0  0
  2  1  2  0  0  0  0
  2  3  1  0  0  0  0
  3  4  2  0  0  0  0
  4 13  1  0  0  0  0
  5  4  1  0  0  0  0
  5 12  1  0  0  0  0
  6  5  2  0  0  0  0
  7  1  1  0  0  0  0
  8  2  1  0  0  0  0
  9 10  3  0  0  0  0
 11  6  1  0  0  0  0
M  RAD  1   3   2
M  END
