Coordinates from ORCA-job Ph-N2+-scan-d09-169-n800
 OpenBabel09191813423D

 13 12  0  0  0  0  0  0  0  0999 V2000
   -3.9764    0.1257   -1.3171 C   0  0  0  0  0  0  0  0  0  0  0  0
   -2.5404    0.0514   -1.3278 C   0  0  0  0  0  0  0  0  0  0  0  0
   -2.1678    0.9040   -0.3792 C   0  0  0  0  0  0  0  0  0  0  0  0
   -2.5405    1.7744    0.5531 C   0  0  0  0  0  0  0  0  0  0  0  0
   -3.9765    1.7703    0.4775 C   0  0  0  0  0  0  0  0  0  0  0  0
   -4.6604    0.9649   -0.4353 C   0  0  0  0  0  0  0  0  0  0  0  0
   -4.4887   -0.5125   -2.0409 H   0  0  0  0  0  0  0  0  0  0  0  0
   -1.9595   -0.5822   -1.9948 H   0  0  0  0  0  0  0  0  0  0  0  0
   12.3931    0.5295    1.5823 N   0  0  0  0  0  0  0  0  0  0  0  0
   13.4825    0.5279    1.7640 N   0  0  0  0  0  0  0  0  0  0  0  0
   -5.7499    0.9914   -0.4596 H   0  0  0  0  0  0  0  0  0  0  0  0
   -4.4891    2.4330    1.1787 H   0  0  0  0  0  0  0  0  0  0  0  0
   -1.9600    2.3800    1.2459 H   0  0  0  0  0  0  0  0  0  0  0  0
  1  6  1  0  0  0  0
  2  1  2  0  0  0  0
  2  3  1  0  0  0  0
  3  4  2  0  0  0  0
  4 13  1  0  0  0  0
  5  4  1  0  0  0  0
  5 12  1  0  0  0  0
  6  5  2  0  0  0  0
  7  1  1  0  0  0  0
  8  2  1  0  0  0  0
  9 10  3  0  0  0  0
 11  6  1  0  0  0  0
M  RAD  1   3   2
M  END
