Coordinates from ORCA-job Ph-N2+-scan-d09-169-n800
 OpenBabel09191813423D

 13 12  0  0  0  0  0  0  0  0999 V2000
   -3.3051    0.1185   -1.2415 C   0  0  0  0  0  0  0  0  0  0  0  0
   -1.8712    0.0139   -1.2212 C   0  0  0  0  0  0  0  0  0  0  0  0
   -1.5014    0.8574   -0.2633 C   0  0  0  0  0  0  0  0  0  0  0  0
   -1.8759    1.7343    0.6622 C   0  0  0  0  0  0  0  0  0  0  0  0
   -3.3096    1.7607    0.5553 C   0  0  0  0  0  0  0  0  0  0  0  0
   -3.9903    0.9710   -0.3735 C   0  0  0  0  0  0  0  0  0  0  0  0
   -3.8149   -0.5081   -1.9771 H   0  0  0  0  0  0  0  0  0  0  0  0
   -1.2894   -0.6308   -1.8767 H   0  0  0  0  0  0  0  0  0  0  0  0
    8.7153    0.6342    1.1156 N   0  0  0  0  0  0  0  0  0  0  0  0
    9.8083    0.6263    1.2736 N   0  0  0  0  0  0  0  0  0  0  0  0
   -5.0782    1.0205   -0.4213 H   0  0  0  0  0  0  0  0  0  0  0  0
   -3.8233    2.4330    1.2465 H   0  0  0  0  0  0  0  0  0  0  0  0
   -1.2980    2.3269    1.3682 H   0  0  0  0  0  0  0  0  0  0  0  0
  1  2  2  0  0  0  0
  1  6  1  0  0  0  0
  2  3  1  0  0  0  0
  3  4  2  0  0  0  0
  4 13  1  0  0  0  0
  5  4  1  0  0  0  0
  5 12  1  0  0  0  0
  6  5  2  0  0  0  0
  7  1  1  0  0  0  0
  8  2  1  0  0  0  0
  9 10  3  0  0  0  0
 11  6  1  0  0  0  0
M  RAD  1   3   2
M  END
