Coordinates from ORCA-job Ph-N2+-scan-d09-169-n800
 OpenBabel09191813423D

 13 12  0  0  0  0  0  0  0  0999 V2000
   -4.1217    0.1285   -1.3342 C   0  0  0  0  0  0  0  0  0  0  0  0
   -2.6856    0.0565   -1.3498 C   0  0  0  0  0  0  0  0  0  0  0  0
   -2.3112    0.9097   -0.4024 C   0  0  0  0  0  0  0  0  0  0  0  0
   -2.6820    1.7795    0.5312 C   0  0  0  0  0  0  0  0  0  0  0  0
   -4.1182    1.7731    0.4605 C   0  0  0  0  0  0  0  0  0  0  0  0
   -4.8039    0.9666   -0.4500 C   0  0  0  0  0  0  0  0  0  0  0  0
   -4.6355   -0.5104   -2.0563 H   0  0  0  0  0  0  0  0  0  0  0  0
   -2.1060   -0.5761   -2.0187 H   0  0  0  0  0  0  0  0  0  0  0  0
   13.1823    0.5097    1.6837 N   0  0  0  0  0  0  0  0  0  0  0  0
   14.2713    0.5084    1.8677 N   0  0  0  0  0  0  0  0  0  0  0  0
   -5.8936    0.9915   -0.4705 H   0  0  0  0  0  0  0  0  0  0  0  0
   -4.6295    2.4349    1.1635 H   0  0  0  0  0  0  0  0  0  0  0  0
   -2.1001    2.3859    1.2221 H   0  0  0  0  0  0  0  0  0  0  0  0
  1  6  1  0  0  0  0
  2  1  2  0  0  0  0
  2  3  1  0  0  0  0
  3  4  2  0  0  0  0
  4 13  1  0  0  0  0
  5  4  1  0  0  0  0
  5 12  1  0  0  0  0
  6  5  2  0  0  0  0
  7  1  1  0  0  0  0
  8  2  1  0  0  0  0
  9 10  3  0  0  0  0
 11  6  1  0  0  0  0
M  RAD  1   3   2
M  END
