Coordinates from ORCA-job Ph-N2+-scan-d09-169-n800
 OpenBabel09191813433D

 13 12  0  0  0  0  0  0  0  0999 V2000
   -4.3084    0.1323   -1.3569 C   0  0  0  0  0  0  0  0  0  0  0  0
   -2.8723    0.0629   -1.3756 C   0  0  0  0  0  0  0  0  0  0  0  0
   -2.4974    0.9168   -0.4291 C   0  0  0  0  0  0  0  0  0  0  0  0
   -2.8677    1.7861    0.5053 C   0  0  0  0  0  0  0  0  0  0  0  0
   -4.3041    1.7770    0.4376 C   0  0  0  0  0  0  0  0  0  0  0  0
   -4.9903    0.9692   -0.4714 C   0  0  0  0  0  0  0  0  0  0  0  0
   -4.8227   -0.5076   -2.0779 H   0  0  0  0  0  0  0  0  0  0  0  0
   -2.2929   -0.5688   -2.0457 H   0  0  0  0  0  0  0  0  0  0  0  0
   14.2072    0.4833    1.8135 N   0  0  0  0  0  0  0  0  0  0  0  0
   15.2956    0.4826    2.0003 N   0  0  0  0  0  0  0  0  0  0  0  0
   -6.0801    0.9922   -0.4896 H   0  0  0  0  0  0  0  0  0  0  0  0
   -4.8151    2.4381    1.1415 H   0  0  0  0  0  0  0  0  0  0  0  0
   -2.2855    2.3936    1.1949 H   0  0  0  0  0  0  0  0  0  0  0  0
  1  6  1  0  0  0  0
  2  1  2  0  0  0  0
  2  3  1  0  0  0  0
  3  4  2  0  0  0  0
  4 13  1  0  0  0  0
  5  4  1  0  0  0  0
  5 12  1  0  0  0  0
  6  5  2  0  0  0  0
  7  1  1  0  0  0  0
  8  2  1  0  0  0  0
  9 10  3  0  0  0  0
 11  6  1  0  0  0  0
M  RAD  1   3   2
M  END
