Coordinates from ORCA-job Ph-N2+-scan-d09-169-n800
 OpenBabel09191813423D

 13 12  0  0  0  0  0  0  0  0999 V2000
   -3.8784    0.1240   -1.3055 C   0  0  0  0  0  0  0  0  0  0  0  0
   -2.4426    0.0472   -1.3136 C   0  0  0  0  0  0  0  0  0  0  0  0
   -2.0702    0.8991   -0.3641 C   0  0  0  0  0  0  0  0  0  0  0  0
   -2.4431    1.7700    0.5676 C   0  0  0  0  0  0  0  0  0  0  0  0
   -3.8790    1.7685    0.4893 C   0  0  0  0  0  0  0  0  0  0  0  0
   -4.5626    0.9644   -0.4249 C   0  0  0  0  0  0  0  0  0  0  0  0
   -4.3905   -0.5132   -2.0303 H   0  0  0  0  0  0  0  0  0  0  0  0
   -1.8616   -0.5873   -1.9796 H   0  0  0  0  0  0  0  0  0  0  0  0
   11.8556    0.5437    1.5140 N   0  0  0  0  0  0  0  0  0  0  0  0
   12.9453    0.5419    1.6939 N   0  0  0  0  0  0  0  0  0  0  0  0
   -5.6520    0.9928   -0.4512 H   0  0  0  0  0  0  0  0  0  0  0  0
   -4.3917    2.4320    1.1897 H   0  0  0  0  0  0  0  0  0  0  0  0
   -1.8629    2.3746    1.2615 H   0  0  0  0  0  0  0  0  0  0  0  0
  1  6  1  0  0  0  0
  2  1  2  0  0  0  0
  2  3  1  0  0  0  0
  3  4  2  0  0  0  0
  4 13  1  0  0  0  0
  5  4  1  0  0  0  0
  5 12  1  0  0  0  0
  6  5  2  0  0  0  0
  7  1  1  0  0  0  0
  8  2  1  0  0  0  0
  9 10  3  0  0  0  0
 11  6  1  0  0  0  0
M  RAD  1   3   2
M  END
