Coordinates from ORCA-job Ph-N2+-scan-d09-169-n800
 OpenBabel09191813433D

 13 12  0  0  0  0  0  0  0  0999 V2000
   -4.2904    0.1320   -1.3546 C   0  0  0  0  0  0  0  0  0  0  0  0
   -2.8542    0.0622   -1.3735 C   0  0  0  0  0  0  0  0  0  0  0  0
   -2.4790    0.9161   -0.4269 C   0  0  0  0  0  0  0  0  0  0  0  0
   -2.8491    1.7853    0.5075 C   0  0  0  0  0  0  0  0  0  0  0  0
   -4.2855    1.7766    0.4400 C   0  0  0  0  0  0  0  0  0  0  0  0
   -4.9720    0.9690   -0.4689 C   0  0  0  0  0  0  0  0  0  0  0  0
   -4.8048   -0.5078   -2.0755 H   0  0  0  0  0  0  0  0  0  0  0  0
   -2.2751   -0.5695   -2.0436 H   0  0  0  0  0  0  0  0  0  0  0  0
   14.1063    0.4860    1.8010 N   0  0  0  0  0  0  0  0  0  0  0  0
   15.1948    0.4852    1.9874 N   0  0  0  0  0  0  0  0  0  0  0  0
   -6.0617    0.9921   -0.4870 H   0  0  0  0  0  0  0  0  0  0  0  0
   -4.7963    2.4377    1.1440 H   0  0  0  0  0  0  0  0  0  0  0  0
   -2.2667    2.3928    1.1970 H   0  0  0  0  0  0  0  0  0  0  0  0
  1  6  1  0  0  0  0
  2  1  2  0  0  0  0
  2  3  1  0  0  0  0
  3  4  2  0  0  0  0
  4 13  1  0  0  0  0
  5  4  1  0  0  0  0
  5 12  1  0  0  0  0
  6  5  2  0  0  0  0
  7  1  1  0  0  0  0
  8  2  1  0  0  0  0
  9 10  3  0  0  0  0
 11  6  1  0  0  0  0
M  RAD  1   3   2
M  END
