Coordinates from ORCA-job Ph-N2+-scan-d09-169-n800
 OpenBabel09191813423D

 13 12  0  0  0  0  0  0  0  0999 V2000
   -3.7897    0.1227   -1.2951 C   0  0  0  0  0  0  0  0  0  0  0  0
   -2.3540    0.0432   -1.3006 C   0  0  0  0  0  0  0  0  0  0  0  0
   -1.9818    0.8943   -0.3504 C   0  0  0  0  0  0  0  0  0  0  0  0
   -2.3548    1.7658    0.5808 C   0  0  0  0  0  0  0  0  0  0  0  0
   -3.7905    1.7669    0.4999 C   0  0  0  0  0  0  0  0  0  0  0  0
   -4.4739    0.9641   -0.4156 C   0  0  0  0  0  0  0  0  0  0  0  0
   -4.3017   -0.5136   -2.0208 H   0  0  0  0  0  0  0  0  0  0  0  0
   -1.7730   -0.5922   -1.9656 H   0  0  0  0  0  0  0  0  0  0  0  0
   11.3685    0.5569    1.4525 N   0  0  0  0  0  0  0  0  0  0  0  0
   12.4585    0.5546    1.6302 N   0  0  0  0  0  0  0  0  0  0  0  0
   -5.5633    0.9945   -0.4438 H   0  0  0  0  0  0  0  0  0  0  0  0
   -4.3033    2.4312    1.1995 H   0  0  0  0  0  0  0  0  0  0  0  0
   -1.7747    2.3692    1.2758 H   0  0  0  0  0  0  0  0  0  0  0  0
  1  6  1  0  0  0  0
  2  1  2  0  0  0  0
  2  3  1  0  0  0  0
  3  4  2  0  0  0  0
  4 13  1  0  0  0  0
  5  4  1  0  0  0  0
  5 12  1  0  0  0  0
  6  5  2  0  0  0  0
  7  1  1  0  0  0  0
  8  2  1  0  0  0  0
  9 10  3  0  0  0  0
 11  6  1  0  0  0  0
M  RAD  1   3   2
M  END
