Coordinates from ORCA-job Ph-N2+-scan-d09-169-n800
 OpenBabel09191813423D

 13 12  0  0  0  0  0  0  0  0999 V2000
   -4.2351    0.1308   -1.3479 C   0  0  0  0  0  0  0  0  0  0  0  0
   -2.7990    0.0604   -1.3657 C   0  0  0  0  0  0  0  0  0  0  0  0
   -2.4241    0.9141   -0.4189 C   0  0  0  0  0  0  0  0  0  0  0  0
   -2.7945    1.7835    0.5153 C   0  0  0  0  0  0  0  0  0  0  0  0
   -4.2308    1.7754    0.4467 C   0  0  0  0  0  0  0  0  0  0  0  0
   -4.9170    0.9681   -0.4627 C   0  0  0  0  0  0  0  0  0  0  0  0
   -4.7493   -0.5088   -2.0692 H   0  0  0  0  0  0  0  0  0  0  0  0
   -2.2196   -0.5716   -2.0355 H   0  0  0  0  0  0  0  0  0  0  0  0
   13.8039    0.4937    1.7625 N   0  0  0  0  0  0  0  0  0  0  0  0
   14.8926    0.4928    1.9483 N   0  0  0  0  0  0  0  0  0  0  0  0
   -6.0067    0.9917   -0.4816 H   0  0  0  0  0  0  0  0  0  0  0  0
   -4.7418    2.4368    1.1504 H   0  0  0  0  0  0  0  0  0  0  0  0
   -2.2123    2.3907    1.2053 H   0  0  0  0  0  0  0  0  0  0  0  0
  1  6  1  0  0  0  0
  2  1  2  0  0  0  0
  2  3  1  0  0  0  0
  3  4  2  0  0  0  0
  4 13  1  0  0  0  0
  5  4  1  0  0  0  0
  5 12  1  0  0  0  0
  6  5  2  0  0  0  0
  7  1  1  0  0  0  0
  8  2  1  0  0  0  0
  9 10  3  0  0  0  0
 11  6  1  0  0  0  0
M  RAD  1   3   2
M  END
