Coordinates from ORCA-job Ph-N2+-scan-d09-169-n800
 OpenBabel09191813433D

 13 12  0  0  0  0  0  0  0  0999 V2000
   -4.2627    0.1314   -1.3513 C   0  0  0  0  0  0  0  0  0  0  0  0
   -2.8266    0.0613   -1.3696 C   0  0  0  0  0  0  0  0  0  0  0  0
   -2.4516    0.9151   -0.4229 C   0  0  0  0  0  0  0  0  0  0  0  0
   -2.8218    1.7844    0.5114 C   0  0  0  0  0  0  0  0  0  0  0  0
   -4.2582    1.7760    0.4433 C   0  0  0  0  0  0  0  0  0  0  0  0
   -4.9445    0.9685   -0.4658 C   0  0  0  0  0  0  0  0  0  0  0  0
   -4.7770   -0.5083   -2.0724 H   0  0  0  0  0  0  0  0  0  0  0  0
   -2.2473   -0.5706   -2.0396 H   0  0  0  0  0  0  0  0  0  0  0  0
   13.9551    0.4899    1.7818 N   0  0  0  0  0  0  0  0  0  0  0  0
   15.0437    0.4890    1.9679 N   0  0  0  0  0  0  0  0  0  0  0  0
   -6.0342    0.9919   -0.4843 H   0  0  0  0  0  0  0  0  0  0  0  0
   -4.7691    2.4372    1.1472 H   0  0  0  0  0  0  0  0  0  0  0  0
   -2.2395    2.3917    1.2011 H   0  0  0  0  0  0  0  0  0  0  0  0
  1  6  1  0  0  0  0
  2  1  2  0  0  0  0
  2  3  1  0  0  0  0
  3  4  2  0  0  0  0
  4 13  1  0  0  0  0
  5  4  1  0  0  0  0
  5 12  1  0  0  0  0
  6  5  2  0  0  0  0
  7  1  1  0  0  0  0
  8  2  1  0  0  0  0
  9 10  3  0  0  0  0
 11  6  1  0  0  0  0
M  RAD  1   3   2
M  END
