Coordinates from ORCA-job Ph-N2+-scan-d09-169-n800
 OpenBabel09191813423D

 13 12  0  0  0  0  0  0  0  0999 V2000
   -4.1553    0.1292   -1.3383 C   0  0  0  0  0  0  0  0  0  0  0  0
   -2.7192    0.0577   -1.3544 C   0  0  0  0  0  0  0  0  0  0  0  0
   -2.3447    0.9111   -0.4071 C   0  0  0  0  0  0  0  0  0  0  0  0
   -2.7156    1.7807    0.5266 C   0  0  0  0  0  0  0  0  0  0  0  0
   -4.1518    1.7738    0.4563 C   0  0  0  0  0  0  0  0  0  0  0  0
   -4.8375    0.9670   -0.4539 C   0  0  0  0  0  0  0  0  0  0  0  0
   -4.6691   -0.5100   -2.0602 H   0  0  0  0  0  0  0  0  0  0  0  0
   -2.1395   -0.5747   -2.0235 H   0  0  0  0  0  0  0  0  0  0  0  0
   13.3672    0.5048    1.7070 N   0  0  0  0  0  0  0  0  0  0  0  0
   14.4560    0.5037    1.8916 N   0  0  0  0  0  0  0  0  0  0  0  0
   -5.9272    0.9915   -0.4740 H   0  0  0  0  0  0  0  0  0  0  0  0
   -4.6631    2.4355    1.1594 H   0  0  0  0  0  0  0  0  0  0  0  0
   -2.1337    2.3874    1.2173 H   0  0  0  0  0  0  0  0  0  0  0  0
  1  6  1  0  0  0  0
  2  1  2  0  0  0  0
  2  3  1  0  0  0  0
  3  4  2  0  0  0  0
  4 13  1  0  0  0  0
  5  4  1  0  0  0  0
  5 12  1  0  0  0  0
  6  5  2  0  0  0  0
  7  1  1  0  0  0  0
  8  2  1  0  0  0  0
  9 10  3  0  0  0  0
 11  6  1  0  0  0  0
M  RAD  1   3   2
M  END
