Coordinates from ORCA-job Ph-N2+-scan-d09-169-n800
 OpenBabel09191813423D

 13 12  0  0  0  0  0  0  0  0999 V2000
   -3.8358    0.1233   -1.3004 C   0  0  0  0  0  0  0  0  0  0  0  0
   -2.4001    0.0454   -1.3077 C   0  0  0  0  0  0  0  0  0  0  0  0
   -2.0275    0.8969   -0.3580 C   0  0  0  0  0  0  0  0  0  0  0  0
   -2.4002    1.7681    0.5736 C   0  0  0  0  0  0  0  0  0  0  0  0
   -3.8360    1.7676    0.4946 C   0  0  0  0  0  0  0  0  0  0  0  0
   -4.5198    0.9641   -0.4200 C   0  0  0  0  0  0  0  0  0  0  0  0
   -4.3481   -0.5134   -2.0255 H   0  0  0  0  0  0  0  0  0  0  0  0
   -1.8192   -0.5895   -1.9735 H   0  0  0  0  0  0  0  0  0  0  0  0
   11.6204    0.5502    1.4846 N   0  0  0  0  0  0  0  0  0  0  0  0
   12.7102    0.5481    1.6635 N   0  0  0  0  0  0  0  0  0  0  0  0
   -5.6092    0.9935   -0.4468 H   0  0  0  0  0  0  0  0  0  0  0  0
   -4.3486    2.4315    1.1947 H   0  0  0  0  0  0  0  0  0  0  0  0
   -1.8198    2.3721    1.2678 H   0  0  0  0  0  0  0  0  0  0  0  0
  1  6  1  0  0  0  0
  2  1  2  0  0  0  0
  2  3  1  0  0  0  0
  3  4  2  0  0  0  0
  4 13  1  0  0  0  0
  5  4  1  0  0  0  0
  5 12  1  0  0  0  0
  6  5  2  0  0  0  0
  7  1  1  0  0  0  0
  8  2  1  0  0  0  0
  9 10  3  0  0  0  0
 11  6  1  0  0  0  0
M  RAD  1   3   2
M  END
