Coordinates from ORCA-job Ph-N2+-scan-d09-169-n800
 OpenBabel09191813423D

 13 12  0  0  0  0  0  0  0  0999 V2000
   -2.3597    0.1064   -1.1253 C   0  0  0  0  0  0  0  0  0  0  0  0
   -0.9283   -0.0176   -1.0801 C   0  0  0  0  0  0  0  0  0  0  0  0
   -0.5633    0.8194   -0.1147 C   0  0  0  0  0  0  0  0  0  0  0  0
   -0.9424    1.7004    0.8049 C   0  0  0  0  0  0  0  0  0  0  0  0
   -2.3732    1.7465    0.6736 C   0  0  0  0  0  0  0  0  0  0  0  0
   -3.0484    0.9673   -0.2682 C   0  0  0  0  0  0  0  0  0  0  0  0
   -2.8658   -0.5122   -1.8700 H   0  0  0  0  0  0  0  0  0  0  0  0
   -0.3429   -0.6690   -1.7255 H   0  0  0  0  0  0  0  0  0  0  0  0
    3.5436    0.7518    0.4351 N   0  0  0  0  0  0  0  0  0  0  0  0
    4.6384    0.7249    0.5747 N   0  0  0  0  0  0  0  0  0  0  0  0
   -4.1345    1.0314   -0.3346 H   0  0  0  0  0  0  0  0  0  0  0  0
   -2.8902    2.4246    1.3565 H   0  0  0  0  0  0  0  0  0  0  0  0
   -0.3671    2.2839    1.5204 H   0  0  0  0  0  0  0  0  0  0  0  0
  1  2  2  0  0  0  0
  1  6  1  0  0  0  0
  2  3  1  0  0  0  0
  3  4  2  0  0  0  0
  4 13  1  0  0  0  0
  5  4  1  0  0  0  0
  5 12  1  0  0  0  0
  6  5  2  0  0  0  0
  7  1  1  0  0  0  0
  8  2  1  0  0  0  0
  9 10  3  0  0  0  0
 11  6  1  0  0  0  0
M  RAD  1   3   2
M  END
