Coordinates from ORCA-job Ph-N2+-scan-d09-169-n800
 OpenBabel09191813423D

 13 12  0  0  0  0  0  0  0  0999 V2000
   -3.8113    0.1230   -1.2975 C   0  0  0  0  0  0  0  0  0  0  0  0
   -2.3756    0.0442   -1.3040 C   0  0  0  0  0  0  0  0  0  0  0  0
   -2.0031    0.8955   -0.3540 C   0  0  0  0  0  0  0  0  0  0  0  0
   -2.3759    1.7669    0.5774 C   0  0  0  0  0  0  0  0  0  0  0  0
   -3.8117    1.7672    0.4974 C   0  0  0  0  0  0  0  0  0  0  0  0
   -4.4953    0.9641   -0.4176 C   0  0  0  0  0  0  0  0  0  0  0  0
   -4.3234   -0.5135   -2.0230 H   0  0  0  0  0  0  0  0  0  0  0  0
   -1.7946   -0.5909   -1.9694 H   0  0  0  0  0  0  0  0  0  0  0  0
   11.4860    0.5538    1.4675 N   0  0  0  0  0  0  0  0  0  0  0  0
   12.5759    0.5516    1.6458 N   0  0  0  0  0  0  0  0  0  0  0  0
   -5.5847    0.9940   -0.4451 H   0  0  0  0  0  0  0  0  0  0  0  0
   -4.3243    2.4313    1.1973 H   0  0  0  0  0  0  0  0  0  0  0  0
   -1.7957    2.3706    1.2720 H   0  0  0  0  0  0  0  0  0  0  0  0
  1  6  1  0  0  0  0
  2  1  2  0  0  0  0
  2  3  1  0  0  0  0
  3  4  2  0  0  0  0
  4 13  1  0  0  0  0
  5  4  1  0  0  0  0
  5 12  1  0  0  0  0
  6  5  2  0  0  0  0
  7  1  1  0  0  0  0
  8  2  1  0  0  0  0
  9 10  3  0  0  0  0
 11  6  1  0  0  0  0
M  RAD  1   3   2
M  END
