Coordinates from ORCA-job Ph-N2+-scan-d09-169-n800
 OpenBabel09191813423D

 13 12  0  0  0  0  0  0  0  0999 V2000
   -4.0232    0.1266   -1.3224 C   0  0  0  0  0  0  0  0  0  0  0  0
   -2.5873    0.0530   -1.3355 C   0  0  0  0  0  0  0  0  0  0  0  0
   -2.2135    0.9058   -0.3874 C   0  0  0  0  0  0  0  0  0  0  0  0
   -2.5851    1.7759    0.5456 C   0  0  0  0  0  0  0  0  0  0  0  0
   -4.0212    1.7711    0.4723 C   0  0  0  0  0  0  0  0  0  0  0  0
   -4.7062    0.9654   -0.4395 C   0  0  0  0  0  0  0  0  0  0  0  0
   -4.5364   -0.5118   -2.0455 H   0  0  0  0  0  0  0  0  0  0  0  0
   -2.0071   -0.5803   -2.0034 H   0  0  0  0  0  0  0  0  0  0  0  0
   12.6449    0.5235    1.6152 N   0  0  0  0  0  0  0  0  0  0  0  0
   13.7341    0.5218    1.7975 N   0  0  0  0  0  0  0  0  0  0  0  0
   -5.7958    0.9914   -0.4620 H   0  0  0  0  0  0  0  0  0  0  0  0
   -4.5330    2.4335    1.1744 H   0  0  0  0  0  0  0  0  0  0  0  0
   -2.0038    2.3818    1.2375 H   0  0  0  0  0  0  0  0  0  0  0  0
  1  6  1  0  0  0  0
  2  1  2  0  0  0  0
  2  3  1  0  0  0  0
  3  4  2  0  0  0  0
  4 13  1  0  0  0  0
  5  4  1  0  0  0  0
  5 12  1  0  0  0  0
  6  5  2  0  0  0  0
  7  1  1  0  0  0  0
  8  2  1  0  0  0  0
  9 10  3  0  0  0  0
 11  6  1  0  0  0  0
M  RAD  1   3   2
M  END
