Coordinates from ORCA-job Ph-N2+-scan-d09-169-n800
 OpenBabel09191813423D

 13 12  0  0  0  0  0  0  0  0999 V2000
   -3.1777    0.1160   -1.2258 C   0  0  0  0  0  0  0  0  0  0  0  0
   -1.7440    0.0091   -1.2051 C   0  0  0  0  0  0  0  0  0  0  0  0
   -1.3732    0.8519   -0.2469 C   0  0  0  0  0  0  0  0  0  0  0  0
   -1.7465    1.7292    0.6786 C   0  0  0  0  0  0  0  0  0  0  0  0
   -3.1802    1.7579    0.5713 C   0  0  0  0  0  0  0  0  0  0  0  0
   -3.8618    0.9695   -0.3579 C   0  0  0  0  0  0  0  0  0  0  0  0
   -3.6883   -0.5097   -1.9616 H   0  0  0  0  0  0  0  0  0  0  0  0
   -1.1630   -0.6364   -1.8604 H   0  0  0  0  0  0  0  0  0  0  0  0
    8.0091    0.6538    1.0288 N   0  0  0  0  0  0  0  0  0  0  0  0
    9.1024    0.6439    1.1842 N   0  0  0  0  0  0  0  0  0  0  0  0
   -4.9497    1.0207   -0.4059 H   0  0  0  0  0  0  0  0  0  0  0  0
   -3.6930    2.4309    1.2625 H   0  0  0  0  0  0  0  0  0  0  0  0
   -1.1679    2.3208    1.3849 H   0  0  0  0  0  0  0  0  0  0  0  0
  1  2  2  0  0  0  0
  1  6  1  0  0  0  0
  2  3  1  0  0  0  0
  3  4  2  0  0  0  0
  4 13  1  0  0  0  0
  5  4  1  0  0  0  0
  5 12  1  0  0  0  0
  6  5  2  0  0  0  0
  7  1  1  0  0  0  0
  8  2  1  0  0  0  0
  9 10  3  0  0  0  0
 11  6  1  0  0  0  0
M  RAD  1   3   2
M  END
