Coordinates from ORCA-job Ph-N2+-scan-d09-169-n800
 OpenBabel09191813423D

 13 12  0  0  0  0  0  0  0  0999 V2000
   -3.7473    0.1220   -1.2900 C   0  0  0  0  0  0  0  0  0  0  0  0
   -2.3117    0.0412   -1.2948 C   0  0  0  0  0  0  0  0  0  0  0  0
   -1.9391    0.8918   -0.3443 C   0  0  0  0  0  0  0  0  0  0  0  0
   -2.3117    1.7636    0.5868 C   0  0  0  0  0  0  0  0  0  0  0  0
   -3.7474    1.7660    0.5052 C   0  0  0  0  0  0  0  0  0  0  0  0
   -4.4311    0.9641   -0.4107 C   0  0  0  0  0  0  0  0  0  0  0  0
   -4.2595   -0.5136   -2.0160 H   0  0  0  0  0  0  0  0  0  0  0  0
   -1.7309   -0.5947   -1.9596 H   0  0  0  0  0  0  0  0  0  0  0  0
   11.1332    0.5635    1.4233 N   0  0  0  0  0  0  0  0  0  0  0  0
   12.2234    0.5610    1.5997 N   0  0  0  0  0  0  0  0  0  0  0  0
   -5.5204    0.9956   -0.4394 H   0  0  0  0  0  0  0  0  0  0  0  0
   -4.2599    2.4308    1.2046 H   0  0  0  0  0  0  0  0  0  0  0  0
   -1.7313    2.3664    1.2821 H   0  0  0  0  0  0  0  0  0  0  0  0
  1  6  1  0  0  0  0
  2  1  2  0  0  0  0
  2  3  1  0  0  0  0
  3  4  2  0  0  0  0
  4 13  1  0  0  0  0
  5  4  1  0  0  0  0
  5 12  1  0  0  0  0
  6  5  2  0  0  0  0
  7  1  1  0  0  0  0
  8  2  1  0  0  0  0
  9 10  3  0  0  0  0
 11  6  1  0  0  0  0
M  RAD  1   3   2
M  END
