Coordinates from ORCA-job Ph-N2+-scan-d09-169-n800
 OpenBabel09191813423D

 13 12  0  0  0  0  0  0  0  0999 V2000
   -3.4305    0.1194   -1.2543 C   0  0  0  0  0  0  0  0  0  0  0  0
   -1.9959    0.0215   -1.2454 C   0  0  0  0  0  0  0  0  0  0  0  0
   -1.6227    0.8669   -0.2906 C   0  0  0  0  0  0  0  0  0  0  0  0
   -1.9939    1.7423    0.6376 C   0  0  0  0  0  0  0  0  0  0  0  0
   -3.4286    1.7616    0.5425 C   0  0  0  0  0  0  0  0  0  0  0  0
   -4.1128    0.9686   -0.3808 C   0  0  0  0  0  0  0  0  0  0  0  0
   -3.9432   -0.5097   -1.9858 H   0  0  0  0  0  0  0  0  0  0  0  0
   -1.4164   -0.6206   -1.9053 H   0  0  0  0  0  0  0  0  0  0  0  0
    9.3861    0.6159    1.2054 N   0  0  0  0  0  0  0  0  0  0  0  0
   10.4786    0.6097    1.3668 N   0  0  0  0  0  0  0  0  0  0  0  0
   -5.2014    1.0128   -0.4199 H   0  0  0  0  0  0  0  0  0  0  0  0
   -3.9399    2.4315    1.2378 H   0  0  0  0  0  0  0  0  0  0  0  0
   -1.4131    2.3378    1.3389 H   0  0  0  0  0  0  0  0  0  0  0  0
  1  2  2  0  0  0  0
  1  6  1  0  0  0  0
  2  3  1  0  0  0  0
  3  4  2  0  0  0  0
  4 13  1  0  0  0  0
  5  4  1  0  0  0  0
  5 12  1  0  0  0  0
  6  5  2  0  0  0  0
  7  1  1  0  0  0  0
  8  2  1  0  0  0  0
  9 10  3  0  0  0  0
 11  6  1  0  0  0  0
M  RAD  1   3   2
M  END
