Coordinates from ORCA-job Ph-N2+-scan-d09-169-n800
 OpenBabel09191813423D

 13 12  0  0  0  0  0  0  0  0999 V2000
   -3.0810    0.1143   -1.2139 C   0  0  0  0  0  0  0  0  0  0  0  0
   -1.6474    0.0051   -1.1928 C   0  0  0  0  0  0  0  0  0  0  0  0
   -1.2755    0.8470   -0.2344 C   0  0  0  0  0  0  0  0  0  0  0  0
   -1.6476    1.7248    0.6911 C   0  0  0  0  0  0  0  0  0  0  0  0
   -3.0812    1.7558    0.5835 C   0  0  0  0  0  0  0  0  0  0  0  0
   -3.7639    0.9688   -0.3460 C   0  0  0  0  0  0  0  0  0  0  0  0
   -3.5925   -0.5104   -1.9500 H   0  0  0  0  0  0  0  0  0  0  0  0
   -1.0674   -0.6412   -1.8482 H   0  0  0  0  0  0  0  0  0  0  0  0
    7.4711    0.6693    0.9629 N   0  0  0  0  0  0  0  0  0  0  0  0
    8.5646    0.6576    1.1165 N   0  0  0  0  0  0  0  0  0  0  0  0
   -4.8517    1.0218   -0.3943 H   0  0  0  0  0  0  0  0  0  0  0  0
   -3.5931    2.4295    1.2747 H   0  0  0  0  0  0  0  0  0  0  0  0
   -1.0681    2.3153    1.3977 H   0  0  0  0  0  0  0  0  0  0  0  0
  1  2  2  0  0  0  0
  1  6  1  0  0  0  0
  2  3  1  0  0  0  0
  3  4  2  0  0  0  0
  4 13  1  0  0  0  0
  5  4  1  0  0  0  0
  5 12  1  0  0  0  0
  6  5  2  0  0  0  0
  7  1  1  0  0  0  0
  8  2  1  0  0  0  0
  9 10  3  0  0  0  0
 11  6  1  0  0  0  0
M  RAD  1   3   2
M  END
