Coordinates from ORCA-job Ph-N2+-scan-d09-169-n800
 OpenBabel09191813423D

 13 12  0  0  0  0  0  0  0  0999 V2000
   -3.4586    0.1189   -1.2567 C   0  0  0  0  0  0  0  0  0  0  0  0
   -2.0238    0.0246   -1.2518 C   0  0  0  0  0  0  0  0  0  0  0  0
   -1.6498    0.8709   -0.2981 C   0  0  0  0  0  0  0  0  0  0  0  0
   -2.0205    1.7455    0.6311 C   0  0  0  0  0  0  0  0  0  0  0  0
   -3.4555    1.7615    0.5398 C   0  0  0  0  0  0  0  0  0  0  0  0
   -4.1404    0.9668   -0.3815 C   0  0  0  0  0  0  0  0  0  0  0  0
   -3.9718   -0.5114   -1.9867 H   0  0  0  0  0  0  0  0  0  0  0  0
   -1.4445   -0.6163   -1.9132 H   0  0  0  0  0  0  0  0  0  0  0  0
    9.5369    0.6108    1.2256 N   0  0  0  0  0  0  0  0  0  0  0  0
   10.6292    0.6051    1.3888 N   0  0  0  0  0  0  0  0  0  0  0  0
   -5.2292    1.0085   -0.4176 H   0  0  0  0  0  0  0  0  0  0  0  0
   -3.9665    2.4304    1.2363 H   0  0  0  0  0  0  0  0  0  0  0  0
   -1.4393    2.3423    1.3309 H   0  0  0  0  0  0  0  0  0  0  0  0
  1  2  2  0  0  0  0
  1  6  1  0  0  0  0
  2  3  1  0  0  0  0
  3  4  2  0  0  0  0
  4 13  1  0  0  0  0
  5  4  1  0  0  0  0
  5 12  1  0  0  0  0
  6  5  2  0  0  0  0
  7  1  1  0  0  0  0
  8  2  1  0  0  0  0
  9 10  3  0  0  0  0
 11  6  1  0  0  0  0
M  RAD  1   3   2
M  END
