Coordinates from ORCA-job Ph-N2+-scan-d09-169-n800
 OpenBabel09191813423D

 13 12  0  0  0  0  0  0  0  0999 V2000
   -3.6833    0.1212   -1.2824 C   0  0  0  0  0  0  0  0  0  0  0  0
   -2.2477    0.0379   -1.2854 C   0  0  0  0  0  0  0  0  0  0  0  0
   -1.8751    0.8879   -0.3344 C   0  0  0  0  0  0  0  0  0  0  0  0
   -2.2475    1.7603    0.5961 C   0  0  0  0  0  0  0  0  0  0  0  0
   -3.6831    1.7649    0.5130 C   0  0  0  0  0  0  0  0  0  0  0  0
   -4.3669    0.9642   -0.4039 C   0  0  0  0  0  0  0  0  0  0  0  0
   -4.1956   -0.5135   -2.0093 H   0  0  0  0  0  0  0  0  0  0  0  0
   -1.6672   -0.5988   -1.9496 H   0  0  0  0  0  0  0  0  0  0  0  0
   10.7804    0.5733    1.3791 N   0  0  0  0  0  0  0  0  0  0  0  0
   11.8709    0.5705    1.5535 N   0  0  0  0  0  0  0  0  0  0  0  0
   -5.4561    0.9973   -0.4341 H   0  0  0  0  0  0  0  0  0  0  0  0
   -4.1954    2.4303    1.2119 H   0  0  0  0  0  0  0  0  0  0  0  0
   -1.6671    2.3621    1.2923 H   0  0  0  0  0  0  0  0  0  0  0  0
  1  6  1  0  0  0  0
  2  1  2  0  0  0  0
  2  3  1  0  0  0  0
  3  4  2  0  0  0  0
  4 13  1  0  0  0  0
  5  4  1  0  0  0  0
  5 12  1  0  0  0  0
  6  5  2  0  0  0  0
  7  1  1  0  0  0  0
  8  2  1  0  0  0  0
  9 10  3  0  0  0  0
 11  6  1  0  0  0  0
M  RAD  1   3   2
M  END
