Coordinates from ORCA-job Ph-N2+-scan-d09-169-n800
 OpenBabel09191813423D

 13 12  0  0  0  0  0  0  0  0999 V2000
   -2.1150    0.1026   -1.0969 C   0  0  0  0  0  0  0  0  0  0  0  0
   -0.6874    0.0017   -1.0077 C   0  0  0  0  0  0  0  0  0  0  0  0
   -0.3463    0.8445   -0.0342 C   0  0  0  0  0  0  0  0  0  0  0  0
   -0.7838    1.7217    0.8680 C   0  0  0  0  0  0  0  0  0  0  0  0
   -2.2070    1.7473    0.6962 C   0  0  0  0  0  0  0  0  0  0  0  0
   -2.8422    0.9553   -0.2632 C   0  0  0  0  0  0  0  0  0  0  0  0
   -2.5932   -0.5237   -1.8530 H   0  0  0  0  0  0  0  0  0  0  0  0
   -0.0747   -0.6426   -1.6331 H   0  0  0  0  0  0  0  0  0  0  0  0
    2.4207    0.7270    0.2329 N   0  0  0  0  0  0  0  0  0  0  0  0
    3.5178    0.6872    0.3431 N   0  0  0  0  0  0  0  0  0  0  0  0
   -3.9265    1.0026   -0.3620 H   0  0  0  0  0  0  0  0  0  0  0  0
   -2.7572    2.4185    1.3591 H   0  0  0  0  0  0  0  0  0  0  0  0
   -0.2390    2.3156    1.5975 H   0  0  0  0  0  0  0  0  0  0  0  0
  1  2  2  0  0  0  0
  1  6  1  0  0  0  0
  2  3  1  0  0  0  0
  3  4  2  0  0  0  0
  4 13  1  0  0  0  0
  5  4  1  0  0  0  0
  5 12  1  0  0  0  0
  6  5  2  0  0  0  0
  7  1  1  0  0  0  0
  8  2  1  0  0  0  0
  9 10  3  0  0  0  0
 11  6  1  0  0  0  0
M  RAD  1   3   2
M  END
