Coordinates from ORCA-job Ph-N2+-scan-d09-169-n800
 OpenBabel09191813423D

 13 12  0  0  0  0  0  0  0  0999 V2000
   -2.3478    0.1063   -1.1238 C   0  0  0  0  0  0  0  0  0  0  0  0
   -0.9163   -0.0158   -1.0757 C   0  0  0  0  0  0  0  0  0  0  0  0
   -0.5543    0.8219   -0.1098 C   0  0  0  0  0  0  0  0  0  0  0  0
   -0.9366    1.7027    0.8088 C   0  0  0  0  0  0  0  0  0  0  0  0
   -2.3671    1.7468    0.6747 C   0  0  0  0  0  0  0  0  0  0  0  0
   -3.0393    0.9664   -0.2682 C   0  0  0  0  0  0  0  0  0  0  0  0
   -2.8516   -0.5132   -1.8693 H   0  0  0  0  0  0  0  0  0  0  0  0
   -0.3287   -0.6665   -1.7198 H   0  0  0  0  0  0  0  0  0  0  0  0
    3.4941    0.7482    0.4231 N   0  0  0  0  0  0  0  0  0  0  0  0
    4.5890    0.7205    0.5619 N   0  0  0  0  0  0  0  0  0  0  0  0
   -4.1254    1.0290   -0.3369 H   0  0  0  0  0  0  0  0  0  0  0  0
   -2.8864    2.4243    1.3563 H   0  0  0  0  0  0  0  0  0  0  0  0
   -0.3633    2.2870    1.5253 H   0  0  0  0  0  0  0  0  0  0  0  0
  1  2  2  0  0  0  0
  1  6  1  0  0  0  0
  2  3  1  0  0  0  0
  3  4  2  0  0  0  0
  4 13  1  0  0  0  0
  5  4  1  0  0  0  0
  5 12  1  0  0  0  0
  6  5  2  0  0  0  0
  7  1  1  0  0  0  0
  8  2  1  0  0  0  0
  9 10  3  0  0  0  0
 11  6  1  0  0  0  0
M  RAD  1   3   2
M  END
