Coordinates from ORCA-job Ph-N2+-scan-d09-169-n800
 OpenBabel09191813423D

 13 12  0  0  0  0  0  0  0  0999 V2000
   -3.6700    0.1211   -1.2813 C   0  0  0  0  0  0  0  0  0  0  0  0
   -2.2345    0.0372   -1.2820 C   0  0  0  0  0  0  0  0  0  0  0  0
   -1.8630    0.8871   -0.3305 C   0  0  0  0  0  0  0  0  0  0  0  0
   -2.2366    1.7597    0.5994 C   0  0  0  0  0  0  0  0  0  0  0  0
   -3.6720    1.7649    0.5140 C   0  0  0  0  0  0  0  0  0  0  0  0
   -4.3547    0.9644   -0.4040 C   0  0  0  0  0  0  0  0  0  0  0  0
   -4.1815   -0.5134   -2.0090 H   0  0  0  0  0  0  0  0  0  0  0  0
   -1.6532   -0.5999   -1.9453 H   0  0  0  0  0  0  0  0  0  0  0  0
   10.7135    0.5747    1.3693 N   0  0  0  0  0  0  0  0  0  0  0  0
   11.8041    0.5720    1.5434 N   0  0  0  0  0  0  0  0  0  0  0  0
   -5.4438    0.9981   -0.4358 H   0  0  0  0  0  0  0  0  0  0  0  0
   -4.1851    2.4306    1.2121 H   0  0  0  0  0  0  0  0  0  0  0  0
   -1.6570    2.3612    1.2965 H   0  0  0  0  0  0  0  0  0  0  0  0
  1  6  1  0  0  0  0
  2  1  2  0  0  0  0
  2  3  1  0  0  0  0
  3  4  2  0  0  0  0
  4 13  1  0  0  0  0
  5  4  1  0  0  0  0
  5 12  1  0  0  0  0
  6  5  2  0  0  0  0
  7  1  1  0  0  0  0
  8  2  1  0  0  0  0
  9 10  3  0  0  0  0
 11  6  1  0  0  0  0
M  RAD  1   3   2
M  END
