Coordinates from ORCA-job Ph-N2+-scan-d09-169-n800
 OpenBabel09191813423D

 13 12  0  0  0  0  0  0  0  0999 V2000
   -2.8871    0.1116   -1.1902 C   0  0  0  0  0  0  0  0  0  0  0  0
   -1.4542   -0.0059   -1.1695 C   0  0  0  0  0  0  0  0  0  0  0  0
   -1.0771    0.8331   -0.2106 C   0  0  0  0  0  0  0  0  0  0  0  0
   -1.4439    1.7124    0.7157 C   0  0  0  0  0  0  0  0  0  0  0  0
   -2.8773    1.7518    0.6085 C   0  0  0  0  0  0  0  0  0  0  0  0
   -3.5648    0.9694   -0.3215 C   0  0  0  0  0  0  0  0  0  0  0  0
   -3.4023   -0.5097   -1.9265 H   0  0  0  0  0  0  0  0  0  0  0  0
   -0.8779   -0.6551   -1.8255 H   0  0  0  0  0  0  0  0  0  0  0  0
    6.3777    0.7047    0.8303 N   0  0  0  0  0  0  0  0  0  0  0  0
    7.4714    0.6898    0.9826 N   0  0  0  0  0  0  0  0  0  0  0  0
   -4.6522    1.0287   -0.3694 H   0  0  0  0  0  0  0  0  0  0  0  0
   -3.3851    2.4278    1.3004 H   0  0  0  0  0  0  0  0  0  0  0  0
   -0.8608    2.2991    1.4224 H   0  0  0  0  0  0  0  0  0  0  0  0
  1  2  2  0  0  0  0
  1  6  1  0  0  0  0
  2  3  1  0  0  0  0
  3  4  2  0  0  0  0
  4 13  1  0  0  0  0
  5  4  1  0  0  0  0
  5 12  1  0  0  0  0
  6  5  2  0  0  0  0
  7  1  1  0  0  0  0
  8  2  1  0  0  0  0
  9 10  3  0  0  0  0
 11  6  1  0  0  0  0
M  RAD  1   3   2
M  END
