Coordinates from ORCA-job Ph-N2+-scan-d09-169-n800
 OpenBabel09191813423D

 13 12  0  0  0  0  0  0  0  0999 V2000
   -4.2261    0.1306   -1.3468 C   0  0  0  0  0  0  0  0  0  0  0  0
   -2.7900    0.0601   -1.3646 C   0  0  0  0  0  0  0  0  0  0  0  0
   -2.4149    0.9137   -0.4178 C   0  0  0  0  0  0  0  0  0  0  0  0
   -2.7852    1.7831    0.5164 C   0  0  0  0  0  0  0  0  0  0  0  0
   -4.2215    1.7752    0.4479 C   0  0  0  0  0  0  0  0  0  0  0  0
   -4.9078    0.9680   -0.4615 C   0  0  0  0  0  0  0  0  0  0  0  0
   -4.7403   -0.5088   -2.0680 H   0  0  0  0  0  0  0  0  0  0  0  0
   -2.2107   -0.5720   -2.0345 H   0  0  0  0  0  0  0  0  0  0  0  0
   13.7535    0.4951    1.7563 N   0  0  0  0  0  0  0  0  0  0  0  0
   14.8421    0.4941    1.9419 N   0  0  0  0  0  0  0  0  0  0  0  0
   -5.9976    0.9918   -0.4804 H   0  0  0  0  0  0  0  0  0  0  0  0
   -4.7324    2.4366    1.1516 H   0  0  0  0  0  0  0  0  0  0  0  0
   -2.2028    2.3902    1.2063 H   0  0  0  0  0  0  0  0  0  0  0  0
  1  6  1  0  0  0  0
  2  1  2  0  0  0  0
  2  3  1  0  0  0  0
  3  4  2  0  0  0  0
  4 13  1  0  0  0  0
  5  4  1  0  0  0  0
  5 12  1  0  0  0  0
  6  5  2  0  0  0  0
  7  1  1  0  0  0  0
  8  2  1  0  0  0  0
  9 10  3  0  0  0  0
 11  6  1  0  0  0  0
M  RAD  1   3   2
M  END
