Coordinates from ORCA-job Ph-N2+-scan-d09-169-n800
 OpenBabel09191813423D

 13 12  0  0  0  0  0  0  0  0999 V2000
   -4.0352    0.1268   -1.3240 C   0  0  0  0  0  0  0  0  0  0  0  0
   -2.5992    0.0535   -1.3368 C   0  0  0  0  0  0  0  0  0  0  0  0
   -2.2257    0.9064   -0.3887 C   0  0  0  0  0  0  0  0  0  0  0  0
   -2.5976    1.7765    0.5441 C   0  0  0  0  0  0  0  0  0  0  0  0
   -4.0337    1.7714    0.4707 C   0  0  0  0  0  0  0  0  0  0  0  0
   -4.7184    0.9655   -0.4411 C   0  0  0  0  0  0  0  0  0  0  0  0
   -4.5482   -0.5117   -2.0470 H   0  0  0  0  0  0  0  0  0  0  0  0
   -2.0188   -0.5797   -2.0047 H   0  0  0  0  0  0  0  0  0  0  0  0
   12.7122    0.5215    1.6234 N   0  0  0  0  0  0  0  0  0  0  0  0
   13.8013    0.5199    1.8060 N   0  0  0  0  0  0  0  0  0  0  0  0
   -5.8080    0.9913   -0.4637 H   0  0  0  0  0  0  0  0  0  0  0  0
   -4.5458    2.4337    1.1727 H   0  0  0  0  0  0  0  0  0  0  0  0
   -2.0166    2.3825    1.2361 H   0  0  0  0  0  0  0  0  0  0  0  0
  1  6  1  0  0  0  0
  2  1  2  0  0  0  0
  2  3  1  0  0  0  0
  3  4  2  0  0  0  0
  4 13  1  0  0  0  0
  5  4  1  0  0  0  0
  5 12  1  0  0  0  0
  6  5  2  0  0  0  0
  7  1  1  0  0  0  0
  8  2  1  0  0  0  0
  9 10  3  0  0  0  0
 11  6  1  0  0  0  0
M  RAD  1   3   2
M  END
