Coordinates from ORCA-job Ph-N2+-scan-d09-169-n800
 OpenBabel09191813423D

 13 12  0  0  0  0  0  0  0  0999 V2000
   -2.6582    0.1100   -1.1620 C   0  0  0  0  0  0  0  0  0  0  0  0
   -1.2269   -0.0258   -1.1462 C   0  0  0  0  0  0  0  0  0  0  0  0
   -0.8361    0.8067   -0.1871 C   0  0  0  0  0  0  0  0  0  0  0  0
   -1.1886    1.6890    0.7418 C   0  0  0  0  0  0  0  0  0  0  0  0
   -2.6217    1.7468    0.6394 C   0  0  0  0  0  0  0  0  0  0  0  0
   -3.3221    0.9749   -0.2897 C   0  0  0  0  0  0  0  0  0  0  0  0
   -3.1836   -0.5036   -1.8976 H   0  0  0  0  0  0  0  0  0  0  0  0
   -0.6606   -0.6810   -1.8049 H   0  0  0  0  0  0  0  0  0  0  0  0
    5.0467    0.7582    0.6787 N   0  0  0  0  0  0  0  0  0  0  0  0
    6.1407    0.7396    0.8272 N   0  0  0  0  0  0  0  0  0  0  0  0
   -4.4088    1.0482   -0.3341 H   0  0  0  0  0  0  0  0  0  0  0  0
   -3.1188    2.4278    1.3340 H   0  0  0  0  0  0  0  0  0  0  0  0
   -0.5957    2.2670    1.4475 H   0  0  0  0  0  0  0  0  0  0  0  0
  1  2  2  0  0  0  0
  1  6  1  0  0  0  0
  2  3  1  0  0  0  0
  3  4  2  0  0  0  0
  4 13  1  0  0  0  0
  5  4  1  0  0  0  0
  5 12  1  0  0  0  0
  6  5  2  0  0  0  0
  7  1  1  0  0  0  0
  8  2  1  0  0  0  0
  9 10  3  0  0  0  0
 11  6  1  0  0  0  0
M  RAD  1   3   2
M  END
