Coordinates from ORCA-job Ph-N2+-scan-d09-169-n800
 OpenBabel09191813423D

 13 12  0  0  0  0  0  0  0  0999 V2000
   -3.8982    0.1244   -1.3073 C   0  0  0  0  0  0  0  0  0  0  0  0
   -2.4624    0.0478   -1.3181 C   0  0  0  0  0  0  0  0  0  0  0  0
   -2.0884    0.8996   -0.3693 C   0  0  0  0  0  0  0  0  0  0  0  0
   -2.4597    1.7704    0.5632 C   0  0  0  0  0  0  0  0  0  0  0  0
   -3.8957    1.7686    0.4877 C   0  0  0  0  0  0  0  0  0  0  0  0
   -4.5809    0.9645   -0.4253 C   0  0  0  0  0  0  0  0  0  0  0  0
   -4.4116   -0.5128   -2.0313 H   0  0  0  0  0  0  0  0  0  0  0  0
   -1.8825   -0.5865   -1.9853 H   0  0  0  0  0  0  0  0  0  0  0  0
   11.9560    0.5420    1.5284 N   0  0  0  0  0  0  0  0  0  0  0  0
   13.0456    0.5399    1.7085 N   0  0  0  0  0  0  0  0  0  0  0  0
   -5.6704    0.9928   -0.4496 H   0  0  0  0  0  0  0  0  0  0  0  0
   -4.4072    2.4319    1.1891 H   0  0  0  0  0  0  0  0  0  0  0  0
   -1.8782    2.3750    1.2561 H   0  0  0  0  0  0  0  0  0  0  0  0
  1  6  1  0  0  0  0
  2  1  2  0  0  0  0
  2  3  1  0  0  0  0
  3  4  2  0  0  0  0
  4 13  1  0  0  0  0
  5  4  1  0  0  0  0
  5 12  1  0  0  0  0
  6  5  2  0  0  0  0
  7  1  1  0  0  0  0
  8  2  1  0  0  0  0
  9 10  3  0  0  0  0
 11  6  1  0  0  0  0
M  RAD  1   3   2
M  END
