Coordinates from ORCA-job Ph-N2+-scan-d09-169-n800
 OpenBabel09191813423D

 13 12  0  0  0  0  0  0  0  0999 V2000
   -3.5594    0.1202   -1.2692 C   0  0  0  0  0  0  0  0  0  0  0  0
   -2.1243    0.0307   -1.2638 C   0  0  0  0  0  0  0  0  0  0  0  0
   -1.7535    0.8789   -0.3105 C   0  0  0  0  0  0  0  0  0  0  0  0
   -2.1276    1.7526    0.6181 C   0  0  0  0  0  0  0  0  0  0  0  0
   -3.5626    1.7635    0.5266 C   0  0  0  0  0  0  0  0  0  0  0  0
   -4.2445    0.9659   -0.3945 C   0  0  0  0  0  0  0  0  0  0  0  0
   -4.0703   -0.5122   -1.9991 H   0  0  0  0  0  0  0  0  0  0  0  0
   -1.5427   -0.6086   -1.9247 H   0  0  0  0  0  0  0  0  0  0  0  0
   10.1091    0.5917    1.2923 N   0  0  0  0  0  0  0  0  0  0  0  0
   11.2003    0.5886    1.4620 N   0  0  0  0  0  0  0  0  0  0  0  0
   -5.3334    1.0038   -0.4309 H   0  0  0  0  0  0  0  0  0  0  0  0
   -4.0761    2.4309    1.2227 H   0  0  0  0  0  0  0  0  0  0  0  0
   -1.5486    2.3518    1.3177 H   0  0  0  0  0  0  0  0  0  0  0  0
  1  2  2  0  0  0  0
  1  6  1  0  0  0  0
  2  3  1  0  0  0  0
  3  4  2  0  0  0  0
  4 13  1  0  0  0  0
  5  4  1  0  0  0  0
  5 12  1  0  0  0  0
  6  5  2  0  0  0  0
  7  1  1  0  0  0  0
  8  2  1  0  0  0  0
  9 10  3  0  0  0  0
 11  6  1  0  0  0  0
M  RAD  1   3   2
M  END
