Coordinates from ORCA-job Ph-N2+-scan-d09-169-n800
 OpenBabel09191813423D

 13 12  0  0  0  0  0  0  0  0999 V2000
   -2.1433    0.1035   -1.0997 C   0  0  0  0  0  0  0  0  0  0  0  0
   -0.7142    0.0021   -1.0129 C   0  0  0  0  0  0  0  0  0  0  0  0
   -0.3787    0.8456   -0.0400 C   0  0  0  0  0  0  0  0  0  0  0  0
   -0.8080    1.7229    0.8640 C   0  0  0  0  0  0  0  0  0  0  0  0
   -2.2327    1.7480    0.6935 C   0  0  0  0  0  0  0  0  0  0  0  0
   -2.8692    0.9560   -0.2649 C   0  0  0  0  0  0  0  0  0  0  0  0
   -2.6212   -0.5233   -1.8556 H   0  0  0  0  0  0  0  0  0  0  0  0
   -0.1016   -0.6420   -1.6391 H   0  0  0  0  0  0  0  0  0  0  0  0
    2.5671    0.7224    0.2497 N   0  0  0  0  0  0  0  0  0  0  0  0
    3.6640    0.6829    0.3634 N   0  0  0  0  0  0  0  0  0  0  0  0
   -3.9537    1.0033   -0.3622 H   0  0  0  0  0  0  0  0  0  0  0  0
   -2.7808    2.4196    1.3580 H   0  0  0  0  0  0  0  0  0  0  0  0
   -0.2613    2.3166    1.5925 H   0  0  0  0  0  0  0  0  0  0  0  0
  1  2  2  0  0  0  0
  1  6  1  0  0  0  0
  2  3  1  0  0  0  0
  3  4  2  0  0  0  0
  4 13  1  0  0  0  0
  5  4  1  0  0  0  0
  5 12  1  0  0  0  0
  6  5  2  0  0  0  0
  7  1  1  0  0  0  0
  8  2  1  0  0  0  0
  9 10  3  0  0  0  0
 11  6  1  0  0  0  0
M  RAD  1   3   2
M  END
