Coordinates from ORCA-job Ph-N2+-scan-d09-169-n800
 OpenBabel09191813423D

 13 13  0  0  0  0  0  0  0  0999 V2000
   -1.8926    0.0879   -1.0817 C   0  0  0  0  0  0  0  0  0  0  0  0
   -0.5232    0.0138   -0.9711 C   0  0  0  0  0  0  0  0  0  0  0  0
    0.1856    0.8231    0.0192 C   0  0  0  0  0  0  0  0  0  0  0  0
   -0.6216    1.6991    0.8674 C   0  0  0  0  0  0  0  0  0  0  0  0
   -1.9891    1.7440    0.7229 C   0  0  0  0  0  0  0  0  0  0  0  0
   -2.6288    0.9458   -0.2435 C   0  0  0  0  0  0  0  0  0  0  0  0
   -2.4042   -0.5230   -1.8250 H   0  0  0  0  0  0  0  0  0  0  0  0
    0.0812   -0.6370   -1.6040 H   0  0  0  0  0  0  0  0  0  0  0  0
    1.2004    0.7790    0.1146 N   0  0  0  0  0  0  0  0  0  0  0  0
    2.3363    0.7298    0.2219 N   0  0  0  0  0  0  0  0  0  0  0  0
   -3.7142    0.9922   -0.3440 H   0  0  0  0  0  0  0  0  0  0  0  0
   -2.5737    2.4025    1.3649 H   0  0  0  0  0  0  0  0  0  0  0  0
   -0.0899    2.3006    1.6053 H   0  0  0  0  0  0  0  0  0  0  0  0
  1  2  2  0  0  0  0
  1  6  1  0  0  0  0
  2  3  1  0  0  0  0
  3  9  1  0  0  0  0
  3  4  2  0  0  0  0
  4 13  1  0  0  0  0
  5  4  1  0  0  0  0
  5 12  1  0  0  0  0
  6  5  2  0  0  0  0
  7  1  1  0  0  0  0
  8  2  1  0  0  0  0
  9 10  1  0  0  0  0
 11  6  1  0  0  0  0
M  RAD  2   9   2  10   3
M  END
