Coordinates from ORCA-job Ph-N2+-scan-d09-169-n800
 OpenBabel09191813433D

 13 12  0  0  0  0  0  0  0  0999 V2000
   -4.2808    0.1317   -1.3536 C   0  0  0  0  0  0  0  0  0  0  0  0
   -2.8447    0.0620   -1.3717 C   0  0  0  0  0  0  0  0  0  0  0  0
   -2.4699    0.9159   -0.4251 C   0  0  0  0  0  0  0  0  0  0  0  0
   -2.8404    1.7852    0.5091 C   0  0  0  0  0  0  0  0  0  0  0  0
   -4.2768    1.7764    0.4409 C   0  0  0  0  0  0  0  0  0  0  0  0
   -4.9628    0.9688   -0.4683 C   0  0  0  0  0  0  0  0  0  0  0  0
   -4.7949   -0.5081   -2.0747 H   0  0  0  0  0  0  0  0  0  0  0  0
   -2.2652   -0.5698   -2.0416 H   0  0  0  0  0  0  0  0  0  0  0  0
   14.0560    0.4871    1.7942 N   0  0  0  0  0  0  0  0  0  0  0  0
   15.1445    0.4864    1.9807 N   0  0  0  0  0  0  0  0  0  0  0  0
   -6.0526    0.9920   -0.4869 H   0  0  0  0  0  0  0  0  0  0  0  0
   -4.7879    2.4376    1.1447 H   0  0  0  0  0  0  0  0  0  0  0  0
   -2.2583    2.3926    1.1990 H   0  0  0  0  0  0  0  0  0  0  0  0
  1  6  1  0  0  0  0
  2  1  2  0  0  0  0
  2  3  1  0  0  0  0
  3  4  2  0  0  0  0
  4 13  1  0  0  0  0
  5  4  1  0  0  0  0
  5 12  1  0  0  0  0
  6  5  2  0  0  0  0
  7  1  1  0  0  0  0
  8  2  1  0  0  0  0
  9 10  3  0  0  0  0
 11  6  1  0  0  0  0
M  RAD  1   3   2
M  END
