Coordinates from ORCA-job Ph-N2+-scan-d09-169-n800
 OpenBabel09191813423D

 13 12  0  0  0  0  0  0  0  0999 V2000
   -2.4509    0.1077   -1.1367 C   0  0  0  0  0  0  0  0  0  0  0  0
   -1.0201   -0.0294   -1.1102 C   0  0  0  0  0  0  0  0  0  0  0  0
   -0.6355    0.8028   -0.1483 C   0  0  0  0  0  0  0  0  0  0  0  0
   -0.9942    1.6857    0.7777 C   0  0  0  0  0  0  0  0  0  0  0  0
   -2.4263    1.7448    0.6647 C   0  0  0  0  0  0  0  0  0  0  0  0
   -3.1205    0.9734   -0.2695 C   0  0  0  0  0  0  0  0  0  0  0  0
   -2.9718   -0.5054   -1.8759 H   0  0  0  0  0  0  0  0  0  0  0  0
   -0.4491   -0.6851   -1.7642 H   0  0  0  0  0  0  0  0  0  0  0  0
    3.9401    0.7749    0.5229 N   0  0  0  0  0  0  0  0  0  0  0  0
    5.0347    0.7513    0.6658 N   0  0  0  0  0  0  0  0  0  0  0  0
   -4.2068    1.0476   -0.3219 H   0  0  0  0  0  0  0  0  0  0  0  0
   -2.9282    2.4264    1.3553 H   0  0  0  0  0  0  0  0  0  0  0  0
   -0.4051    2.2631    1.4870 H   0  0  0  0  0  0  0  0  0  0  0  0
  1  2  2  0  0  0  0
  1  6  1  0  0  0  0
  2  3  1  0  0  0  0
  3  4  2  0  0  0  0
  4 13  1  0  0  0  0
  5  4  1  0  0  0  0
  5 12  1  0  0  0  0
  6  5  2  0  0  0  0
  7  1  1  0  0  0  0
  8  2  1  0  0  0  0
  9 10  3  0  0  0  0
 11  6  1  0  0  0  0
M  RAD  1   3   2
M  END
