Coordinates from ORCA-job Ph-N2+-scan-d09-169-n800
 OpenBabel09191813423D

 13 12  0  0  0  0  0  0  0  0999 V2000
   -2.9341    0.1121   -1.1959 C   0  0  0  0  0  0  0  0  0  0  0  0
   -1.5010   -0.0026   -1.1748 C   0  0  0  0  0  0  0  0  0  0  0  0
   -1.1260    0.8375   -0.2159 C   0  0  0  0  0  0  0  0  0  0  0  0
   -1.4948    1.7163    0.7100 C   0  0  0  0  0  0  0  0  0  0  0  0
   -2.9283    1.7528    0.6023 C   0  0  0  0  0  0  0  0  0  0  0  0
   -3.6139    0.9687   -0.3277 C   0  0  0  0  0  0  0  0  0  0  0  0
   -3.4478   -0.5104   -1.9323 H   0  0  0  0  0  0  0  0  0  0  0  0
   -0.9232   -0.6507   -1.8303 H   0  0  0  0  0  0  0  0  0  0  0  0
    6.6470    0.6952    0.8626 N   0  0  0  0  0  0  0  0  0  0  0  0
    7.7407    0.6805    1.0143 N   0  0  0  0  0  0  0  0  0  0  0  0
   -4.7014    1.0259   -0.3761 H   0  0  0  0  0  0  0  0  0  0  0  0
   -3.4377    2.4280    1.2938 H   0  0  0  0  0  0  0  0  0  0  0  0
   -0.9132    2.3043    1.4168 H   0  0  0  0  0  0  0  0  0  0  0  0
  1  2  2  0  0  0  0
  1  6  1  0  0  0  0
  2  3  1  0  0  0  0
  3  4  2  0  0  0  0
  4 13  1  0  0  0  0
  5  4  1  0  0  0  0
  5 12  1  0  0  0  0
  6  5  2  0  0  0  0
  7  1  1  0  0  0  0
  8  2  1  0  0  0  0
  9 10  3  0  0  0  0
 11  6  1  0  0  0  0
M  RAD  1   3   2
M  END
