Coordinates from ORCA-job Ph-N2+-scan-d09-169-n800
 OpenBabel09191813423D

 13 12  0  0  0  0  0  0  0  0999 V2000
   -3.2444    0.1173   -1.2340 C   0  0  0  0  0  0  0  0  0  0  0  0
   -1.8105    0.0117   -1.2135 C   0  0  0  0  0  0  0  0  0  0  0  0
   -1.4403    0.8549   -0.2555 C   0  0  0  0  0  0  0  0  0  0  0  0
   -1.8143    1.7320    0.6700 C   0  0  0  0  0  0  0  0  0  0  0  0
   -3.2480    1.7593    0.5629 C   0  0  0  0  0  0  0  0  0  0  0  0
   -3.9291    0.9703   -0.3661 C   0  0  0  0  0  0  0  0  0  0  0  0
   -3.7546   -0.5089   -1.9697 H   0  0  0  0  0  0  0  0  0  0  0  0
   -1.2291   -0.6333   -1.8689 H   0  0  0  0  0  0  0  0  0  0  0  0
    8.3790    0.6434    1.0742 N   0  0  0  0  0  0  0  0  0  0  0  0
    9.4722    0.6346    1.2310 N   0  0  0  0  0  0  0  0  0  0  0  0
   -5.0170    1.0204   -0.4140 H   0  0  0  0  0  0  0  0  0  0  0  0
   -3.7613    2.4320    1.2541 H   0  0  0  0  0  0  0  0  0  0  0  0
   -1.2361    2.3242    1.3761 H   0  0  0  0  0  0  0  0  0  0  0  0
  1  2  2  0  0  0  0
  1  6  1  0  0  0  0
  2  3  1  0  0  0  0
  3  4  2  0  0  0  0
  4 13  1  0  0  0  0
  5  4  1  0  0  0  0
  5 12  1  0  0  0  0
  6  5  2  0  0  0  0
  7  1  1  0  0  0  0
  8  2  1  0  0  0  0
  9 10  3  0  0  0  0
 11  6  1  0  0  0  0
M  RAD  1   3   2
M  END
