Coordinates from ORCA-job Ph-N2+-scan-d09-169-n800
 OpenBabel09191813433D

 13 12  0  0  0  0  0  0  0  0999 V2000
   -4.3115    0.1324   -1.3573 C   0  0  0  0  0  0  0  0  0  0  0  0
   -2.8753    0.0630   -1.3760 C   0  0  0  0  0  0  0  0  0  0  0  0
   -2.5004    0.9170   -0.4294 C   0  0  0  0  0  0  0  0  0  0  0  0
   -2.8708    1.7862    0.5049 C   0  0  0  0  0  0  0  0  0  0  0  0
   -4.3072    1.7771    0.4372 C   0  0  0  0  0  0  0  0  0  0  0  0
   -4.9934    0.9693   -0.4718 C   0  0  0  0  0  0  0  0  0  0  0  0
   -4.8256   -0.5076   -2.0783 H   0  0  0  0  0  0  0  0  0  0  0  0
   -2.2959   -0.5687   -2.0460 H   0  0  0  0  0  0  0  0  0  0  0  0
   14.2240    0.4828    1.8155 N   0  0  0  0  0  0  0  0  0  0  0  0
   15.3124    0.4822    2.0024 N   0  0  0  0  0  0  0  0  0  0  0  0
   -6.0831    0.9922   -0.4900 H   0  0  0  0  0  0  0  0  0  0  0  0
   -4.8182    2.4381    1.1411 H   0  0  0  0  0  0  0  0  0  0  0  0
   -2.2886    2.3938    1.1945 H   0  0  0  0  0  0  0  0  0  0  0  0
  1  6  1  0  0  0  0
  2  1  2  0  0  0  0
  2  3  1  0  0  0  0
  3  4  2  0  0  0  0
  4 13  1  0  0  0  0
  5  4  1  0  0  0  0
  5 12  1  0  0  0  0
  6  5  2  0  0  0  0
  7  1  1  0  0  0  0
  8  2  1  0  0  0  0
  9 10  3  0  0  0  0
 11  6  1  0  0  0  0
M  RAD  1   3   2
M  END
