Coordinates from ORCA-job Ph-N2+-scan-d09-169-n800
 OpenBabel09191813423D

 13 13  0  0  0  0  0  0  0  0999 V2000
   -1.9220    0.0892   -1.0848 C   0  0  0  0  0  0  0  0  0  0  0  0
   -0.5420    0.0151   -0.9724 C   0  0  0  0  0  0  0  0  0  0  0  0
    0.0808    0.8278    0.0089 C   0  0  0  0  0  0  0  0  0  0  0  0
   -0.6401    1.6994    0.8647 C   0  0  0  0  0  0  0  0  0  0  0  0
   -2.0184    1.7451    0.7203 C   0  0  0  0  0  0  0  0  0  0  0  0
   -2.6537    0.9470   -0.2460 C   0  0  0  0  0  0  0  0  0  0  0  0
   -2.4357   -0.5203   -1.8268 H   0  0  0  0  0  0  0  0  0  0  0  0
    0.0562   -0.6374   -1.6070 H   0  0  0  0  0  0  0  0  0  0  0  0
    1.3943    0.7707    0.1328 N   0  0  0  0  0  0  0  0  0  0  0  0
    2.5054    0.7228    0.2387 N   0  0  0  0  0  0  0  0  0  0  0  0
   -3.7389    0.9934   -0.3463 H   0  0  0  0  0  0  0  0  0  0  0  0
   -2.6048    2.4021    1.3612 H   0  0  0  0  0  0  0  0  0  0  0  0
   -0.1147    2.3026    1.6035 H   0  0  0  0  0  0  0  0  0  0  0  0
  1  2  2  0  0  0  0
  1  6  1  0  0  0  0
  2  3  1  0  0  0  0
  3  9  1  0  0  0  0
  3  4  2  0  0  0  0
  4 13  1  0  0  0  0
  5  4  1  0  0  0  0
  5 12  1  0  0  0  0
  6  5  2  0  0  0  0
  7  1  1  0  0  0  0
  8  2  1  0  0  0  0
  9 10  1  0  0  0  0
 11  6  1  0  0  0  0
M  RAD  2   9   2  10   3
M  END
