Coordinates from ORCA-job Ph-N2+-scan-d09-169-n800
 OpenBabel09191813423D

 13 12  0  0  0  0  0  0  0  0999 V2000
   -2.6496    0.1099   -1.1610 C   0  0  0  0  0  0  0  0  0  0  0  0
   -1.2184   -0.0267   -1.1455 C   0  0  0  0  0  0  0  0  0  0  0  0
   -0.8269    0.8055   -0.1863 C   0  0  0  0  0  0  0  0  0  0  0  0
   -1.1787    1.6880    0.7427 C   0  0  0  0  0  0  0  0  0  0  0  0
   -2.6118    1.7465    0.6405 C   0  0  0  0  0  0  0  0  0  0  0  0
   -3.3129    0.9752   -0.2885 C   0  0  0  0  0  0  0  0  0  0  0  0
   -3.1755   -0.5033   -1.8965 H   0  0  0  0  0  0  0  0  0  0  0  0
   -0.6526   -0.6821   -1.8042 H   0  0  0  0  0  0  0  0  0  0  0  0
    4.9961    0.7605    0.6731 N   0  0  0  0  0  0  0  0  0  0  0  0
    6.0901    0.7417    0.8215 N   0  0  0  0  0  0  0  0  0  0  0  0
   -4.3996    1.0491   -0.3326 H   0  0  0  0  0  0  0  0  0  0  0  0
   -3.1084    2.4279    1.3353 H   0  0  0  0  0  0  0  0  0  0  0  0
   -0.5853    2.2656    1.4483 H   0  0  0  0  0  0  0  0  0  0  0  0
  1  2  2  0  0  0  0
  1  6  1  0  0  0  0
  2  3  1  0  0  0  0
  3  4  2  0  0  0  0
  4 13  1  0  0  0  0
  5  4  1  0  0  0  0
  5 12  1  0  0  0  0
  6  5  2  0  0  0  0
  7  1  1  0  0  0  0
  8  2  1  0  0  0  0
  9 10  3  0  0  0  0
 11  6  1  0  0  0  0
M  RAD  1   3   2
M  END
