Coordinates from ORCA-job Ph-N2+-scan-d09-169-n800
 OpenBabel09191813423D

 13 12  0  0  0  0  0  0  0  0999 V2000
   -2.7939    0.1108   -1.1787 C   0  0  0  0  0  0  0  0  0  0  0  0
   -1.3616   -0.0135   -1.1598 C   0  0  0  0  0  0  0  0  0  0  0  0
   -0.9795    0.8231   -0.2007 C   0  0  0  0  0  0  0  0  0  0  0  0
   -1.3410    1.7036    0.7265 C   0  0  0  0  0  0  0  0  0  0  0  0
   -2.7743    1.7498    0.6210 C   0  0  0  0  0  0  0  0  0  0  0  0
   -3.4666    0.9713   -0.3087 C   0  0  0  0  0  0  0  0  0  0  0  0
   -3.3129   -0.5076   -1.9148 H   0  0  0  0  0  0  0  0  0  0  0  0
   -0.7890   -0.6649   -1.8167 H   0  0  0  0  0  0  0  0  0  0  0  0
    5.8389    0.7247    0.7675 N   0  0  0  0  0  0  0  0  0  0  0  0
    6.9326    0.7097    0.9196 N   0  0  0  0  0  0  0  0  0  0  0  0
   -4.5538    1.0358   -0.3554 H   0  0  0  0  0  0  0  0  0  0  0  0
   -3.2783    2.4277    1.3139 H   0  0  0  0  0  0  0  0  0  0  0  0
   -0.7543    2.2871    1.4329 H   0  0  0  0  0  0  0  0  0  0  0  0
  1  2  2  0  0  0  0
  1  6  1  0  0  0  0
  2  3  1  0  0  0  0
  3  4  2  0  0  0  0
  4 13  1  0  0  0  0
  5  4  1  0  0  0  0
  5 12  1  0  0  0  0
  6  5  2  0  0  0  0
  7  1  1  0  0  0  0
  8  2  1  0  0  0  0
  9 10  3  0  0  0  0
 11  6  1  0  0  0  0
M  RAD  1   3   2
M  END
