Coordinates from ORCA-job Ph-N2+-scan-d09-169-n800
 OpenBabel09191813423D

 13 12  0  0  0  0  0  0  0  0999 V2000
   -2.9908    0.1129   -1.2029 C   0  0  0  0  0  0  0  0  0  0  0  0
   -1.5574    0.0007   -1.1816 C   0  0  0  0  0  0  0  0  0  0  0  0
   -1.1839    0.8416   -0.2229 C   0  0  0  0  0  0  0  0  0  0  0  0
   -1.5544    1.7200    0.7028 C   0  0  0  0  0  0  0  0  0  0  0  0
   -2.9879    1.7539    0.5950 C   0  0  0  0  0  0  0  0  0  0  0  0
   -3.6721    0.9685   -0.3349 C   0  0  0  0  0  0  0  0  0  0  0  0
   -3.5034   -0.5107   -1.9391 H   0  0  0  0  0  0  0  0  0  0  0  0
   -0.9785   -0.6466   -1.8370 H   0  0  0  0  0  0  0  0  0  0  0  0
    6.9666    0.6848    0.9013 N   0  0  0  0  0  0  0  0  0  0  0  0
    8.0603    0.6711    1.0534 N   0  0  0  0  0  0  0  0  0  0  0  0
   -4.7597    1.0237   -0.3833 H   0  0  0  0  0  0  0  0  0  0  0  0
   -3.4986    2.4285    1.2863 H   0  0  0  0  0  0  0  0  0  0  0  0
   -0.9739    2.3092    1.4096 H   0  0  0  0  0  0  0  0  0  0  0  0
  1  2  2  0  0  0  0
  1  6  1  0  0  0  0
  2  3  1  0  0  0  0
  3  4  2  0  0  0  0
  4 13  1  0  0  0  0
  5  4  1  0  0  0  0
  5 12  1  0  0  0  0
  6  5  2  0  0  0  0
  7  1  1  0  0  0  0
  8  2  1  0  0  0  0
  9 10  3  0  0  0  0
 11  6  1  0  0  0  0
M  RAD  1   3   2
M  END
