Coordinates from ORCA-job Ph-N2+-scan-d09-169-n800
 OpenBabel09191813423D

 13 12  0  0  0  0  0  0  0  0999 V2000
   -2.0272    0.0984   -1.0894 C   0  0  0  0  0  0  0  0  0  0  0  0
   -0.6110    0.0036   -0.9944 C   0  0  0  0  0  0  0  0  0  0  0  0
   -0.2101    0.8402   -0.0191 C   0  0  0  0  0  0  0  0  0  0  0  0
   -0.7100    1.7159    0.8727 C   0  0  0  0  0  0  0  0  0  0  0  0
   -2.1221    1.7448    0.7054 C   0  0  0  0  0  0  0  0  0  0  0  0
   -2.7559    0.9516   -0.2556 C   0  0  0  0  0  0  0  0  0  0  0  0
   -2.5156   -0.5232   -1.8413 H   0  0  0  0  0  0  0  0  0  0  0  0
   -0.0022   -0.6423   -1.6207 H   0  0  0  0  0  0  0  0  0  0  0  0
    1.9599    0.7462    0.1859 N   0  0  0  0  0  0  0  0  0  0  0  0
    3.0565    0.7013    0.2933 N   0  0  0  0  0  0  0  0  0  0  0  0
   -3.8401    0.9983   -0.3556 H   0  0  0  0  0  0  0  0  0  0  0  0
   -2.6842    2.4115    1.3613 H   0  0  0  0  0  0  0  0  0  0  0  0
   -0.1717    2.3115    1.6044 H   0  0  0  0  0  0  0  0  0  0  0  0
  1  2  2  0  0  0  0
  1  6  1  0  0  0  0
  2  3  1  0  0  0  0
  3  4  2  0  0  0  0
  4 13  1  0  0  0  0
  5  4  1  0  0  0  0
  5 12  1  0  0  0  0
  6  5  2  0  0  0  0
  7  1  1  0  0  0  0
  8  2  1  0  0  0  0
  9 10  3  0  0  0  0
 11  6  1  0  0  0  0
M  RAD  1   3   2
M  END
