Coordinates from ORCA-job Ph-N2+-scan-d09-169-n800
 OpenBabel09191813423D

 13 12  0  0  0  0  0  0  0  0999 V2000
   -2.1401    0.1035   -1.0993 C   0  0  0  0  0  0  0  0  0  0  0  0
   -0.7112    0.0020   -1.0123 C   0  0  0  0  0  0  0  0  0  0  0  0
   -0.3753    0.8455   -0.0393 C   0  0  0  0  0  0  0  0  0  0  0  0
   -0.8053    1.7228    0.8645 C   0  0  0  0  0  0  0  0  0  0  0  0
   -2.2299    1.7479    0.6938 C   0  0  0  0  0  0  0  0  0  0  0  0
   -2.8662    0.9560   -0.2647 C   0  0  0  0  0  0  0  0  0  0  0  0
   -2.6180   -0.5234   -1.8553 H   0  0  0  0  0  0  0  0  0  0  0  0
   -0.0985   -0.6420   -1.6383 H   0  0  0  0  0  0  0  0  0  0  0  0
    2.5507    0.7229    0.2477 N   0  0  0  0  0  0  0  0  0  0  0  0
    3.6477    0.6833    0.3610 N   0  0  0  0  0  0  0  0  0  0  0  0
   -3.9507    1.0032   -0.3622 H   0  0  0  0  0  0  0  0  0  0  0  0
   -2.7782    2.4195    1.3581 H   0  0  0  0  0  0  0  0  0  0  0  0
   -0.2588    2.3165    1.5932 H   0  0  0  0  0  0  0  0  0  0  0  0
  1  2  2  0  0  0  0
  1  6  1  0  0  0  0
  2  3  1  0  0  0  0
  3  4  2  0  0  0  0
  4 13  1  0  0  0  0
  5  4  1  0  0  0  0
  5 12  1  0  0  0  0
  6  5  2  0  0  0  0
  7  1  1  0  0  0  0
  8  2  1  0  0  0  0
  9 10  3  0  0  0  0
 11  6  1  0  0  0  0
M  RAD  1   3   2
M  END
