Coordinates from ORCA-job Ph-N2+-scan-d09-169-n800
 OpenBabel09191813423D

 13 12  0  0  0  0  0  0  0  0999 V2000
   -2.5579    0.1092   -1.1497 C   0  0  0  0  0  0  0  0  0  0  0  0
   -1.1273   -0.0330   -1.1344 C   0  0  0  0  0  0  0  0  0  0  0  0
   -0.7325    0.7972   -0.1749 C   0  0  0  0  0  0  0  0  0  0  0  0
   -1.0807    1.6806    0.7546 C   0  0  0  0  0  0  0  0  0  0  0  0
   -2.5135    1.7448    0.6526 C   0  0  0  0  0  0  0  0  0  0  0  0
   -3.2177    0.9767   -0.2768 C   0  0  0  0  0  0  0  0  0  0  0  0
   -3.0864   -0.5016   -1.8854 H   0  0  0  0  0  0  0  0  0  0  0  0
   -0.5638   -0.6903   -1.7933 H   0  0  0  0  0  0  0  0  0  0  0  0
    4.4741    0.7779    0.6098 N   0  0  0  0  0  0  0  0  0  0  0  0
    5.5683    0.7581    0.7571 N   0  0  0  0  0  0  0  0  0  0  0  0
   -4.3040    1.0549   -0.3208 H   0  0  0  0  0  0  0  0  0  0  0  0
   -3.0076    2.4277    1.3477 H   0  0  0  0  0  0  0  0  0  0  0  0
   -0.4847    2.2555    1.4602 H   0  0  0  0  0  0  0  0  0  0  0  0
  1  2  2  0  0  0  0
  1  6  1  0  0  0  0
  2  3  1  0  0  0  0
  3  4  2  0  0  0  0
  4 13  1  0  0  0  0
  5  4  1  0  0  0  0
  5 12  1  0  0  0  0
  6  5  2  0  0  0  0
  7  1  1  0  0  0  0
  8  2  1  0  0  0  0
  9 10  3  0  0  0  0
 11  6  1  0  0  0  0
M  RAD  1   3   2
M  END
