Coordinates from ORCA-job Ph-N2+-scan-d09-169-n800
 OpenBabel09191813423D

 13 12  0  0  0  0  0  0  0  0999 V2000
   -2.7357    0.1104   -1.1715 C   0  0  0  0  0  0  0  0  0  0  0  0
   -1.3037   -0.0183   -1.1536 C   0  0  0  0  0  0  0  0  0  0  0  0
   -0.9185    0.8168   -0.1944 C   0  0  0  0  0  0  0  0  0  0  0  0
   -1.2767    1.6980    0.7333 C   0  0  0  0  0  0  0  0  0  0  0  0
   -2.7099    1.7485    0.6288 C   0  0  0  0  0  0  0  0  0  0  0  0
   -3.4052    0.9725   -0.3008 C   0  0  0  0  0  0  0  0  0  0  0  0
   -3.2570   -0.5063   -1.9075 H   0  0  0  0  0  0  0  0  0  0  0  0
   -0.7334   -0.6711   -1.8111 H   0  0  0  0  0  0  0  0  0  0  0  0
    5.5019    0.7383    0.7293 N   0  0  0  0  0  0  0  0  0  0  0  0
    6.5958    0.7214    0.8793 N   0  0  0  0  0  0  0  0  0  0  0  0
   -4.4922    1.0403   -0.3468 H   0  0  0  0  0  0  0  0  0  0  0  0
   -3.2114    2.4276    1.3223 H   0  0  0  0  0  0  0  0  0  0  0  0
   -0.6878    2.2794    1.4396 H   0  0  0  0  0  0  0  0  0  0  0  0
  1  2  2  0  0  0  0
  1  6  1  0  0  0  0
  2  3  1  0  0  0  0
  3  4  2  0  0  0  0
  4 13  1  0  0  0  0
  5  4  1  0  0  0  0
  5 12  1  0  0  0  0
  6  5  2  0  0  0  0
  7  1  1  0  0  0  0
  8  2  1  0  0  0  0
  9 10  3  0  0  0  0
 11  6  1  0  0  0  0
M  RAD  1   3   2
M  END
