Coordinates from ORCA-job Ph-N2+-scan-d09-169-n800
 OpenBabel09191813423D

 13 12  0  0  0  0  0  0  0  0999 V2000
   -3.5052    0.1193   -1.2626 C   0  0  0  0  0  0  0  0  0  0  0  0
   -2.0703    0.0280   -1.2567 C   0  0  0  0  0  0  0  0  0  0  0  0
   -1.6986    0.8755   -0.3031 C   0  0  0  0  0  0  0  0  0  0  0  0
   -2.0718    1.7495    0.6257 C   0  0  0  0  0  0  0  0  0  0  0  0
   -3.5068    1.7625    0.5333 C   0  0  0  0  0  0  0  0  0  0  0  0
   -4.1895    0.9659   -0.3881 C   0  0  0  0  0  0  0  0  0  0  0  0
   -4.0167   -0.5124   -1.9927 H   0  0  0  0  0  0  0  0  0  0  0  0
   -1.4892   -0.6118   -1.9176 H   0  0  0  0  0  0  0  0  0  0  0  0
    9.8064    0.6009    1.2561 N   0  0  0  0  0  0  0  0  0  0  0  0
   10.8981    0.5967    1.4225 N   0  0  0  0  0  0  0  0  0  0  0  0
   -5.2783    1.0053   -0.4249 H   0  0  0  0  0  0  0  0  0  0  0  0
   -4.0196    2.4305    1.2293 H   0  0  0  0  0  0  0  0  0  0  0  0
   -1.4923    2.3478    1.3256 H   0  0  0  0  0  0  0  0  0  0  0  0
  1  2  2  0  0  0  0
  1  6  1  0  0  0  0
  2  3  1  0  0  0  0
  3  4  2  0  0  0  0
  4 13  1  0  0  0  0
  5  4  1  0  0  0  0
  5 12  1  0  0  0  0
  6  5  2  0  0  0  0
  7  1  1  0  0  0  0
  8  2  1  0  0  0  0
  9 10  3  0  0  0  0
 11  6  1  0  0  0  0
M  RAD  1   3   2
M  END
