Coordinates from ORCA-job Ph-N2+-scan-d09-169-n800
 OpenBabel09191813423D

 13 12  0  0  0  0  0  0  0  0999 V2000
   -2.0847    0.1014   -1.0941 C   0  0  0  0  0  0  0  0  0  0  0  0
   -0.6595    0.0018   -1.0032 C   0  0  0  0  0  0  0  0  0  0  0  0
   -0.3067    0.8434   -0.0292 C   0  0  0  0  0  0  0  0  0  0  0  0
   -0.7573    1.7203    0.8707 C   0  0  0  0  0  0  0  0  0  0  0  0
   -2.1781    1.7463    0.6992 C   0  0  0  0  0  0  0  0  0  0  0  0
   -2.8126    0.9541   -0.2607 C   0  0  0  0  0  0  0  0  0  0  0  0
   -2.5645   -0.5240   -1.8495 H   0  0  0  0  0  0  0  0  0  0  0  0
   -0.0476   -0.6429   -1.6285 H   0  0  0  0  0  0  0  0  0  0  0  0
    2.2613    0.7330    0.2160 N   0  0  0  0  0  0  0  0  0  0  0  0
    3.3584    0.6918    0.3250 N   0  0  0  0  0  0  0  0  0  0  0  0
   -3.8969    1.0012   -0.3602 H   0  0  0  0  0  0  0  0  0  0  0  0
   -2.7310    2.4166    1.3605 H   0  0  0  0  0  0  0  0  0  0  0  0
   -0.2145    2.3146    1.6009 H   0  0  0  0  0  0  0  0  0  0  0  0
  1  2  2  0  0  0  0
  1  6  1  0  0  0  0
  2  3  1  0  0  0  0
  3  4  2  0  0  0  0
  4 13  1  0  0  0  0
  5  4  1  0  0  0  0
  5 12  1  0  0  0  0
  6  5  2  0  0  0  0
  7  1  1  0  0  0  0
  8  2  1  0  0  0  0
  9 10  3  0  0  0  0
 11  6  1  0  0  0  0
M  RAD  1   3   2
M  END
