Coordinates from ORCA-job Ph-N2+-scan-d09-169-n800
 OpenBabel09191813423D

 13 12  0  0  0  0  0  0  0  0999 V2000
   -3.4017    0.1198   -1.2521 C   0  0  0  0  0  0  0  0  0  0  0  0
   -1.9674    0.0184   -1.2378 C   0  0  0  0  0  0  0  0  0  0  0  0
   -1.5956    0.8628   -0.2816 C   0  0  0  0  0  0  0  0  0  0  0  0
   -1.9682    1.7391    0.6452 C   0  0  0  0  0  0  0  0  0  0  0  0
   -3.4024    1.7619    0.5449 C   0  0  0  0  0  0  0  0  0  0  0  0
   -4.0852    0.9706   -0.3811 C   0  0  0  0  0  0  0  0  0  0  0  0
   -3.9132   -0.5080   -1.9855 H   0  0  0  0  0  0  0  0  0  0  0  0
   -1.3870   -0.6251   -1.8957 H   0  0  0  0  0  0  0  0  0  0  0  0
    9.2356    0.6205    1.1836 N   0  0  0  0  0  0  0  0  0  0  0  0
   10.3282    0.6141    1.3441 N   0  0  0  0  0  0  0  0  0  0  0  0
   -5.1735    1.0175   -0.4242 H   0  0  0  0  0  0  0  0  0  0  0  0
   -3.9147    2.4329    1.2383 H   0  0  0  0  0  0  0  0  0  0  0  0
   -1.3886    2.3331    1.3487 H   0  0  0  0  0  0  0  0  0  0  0  0
  1  2  2  0  0  0  0
  1  6  1  0  0  0  0
  2  3  1  0  0  0  0
  3  4  2  0  0  0  0
  4 13  1  0  0  0  0
  5  4  1  0  0  0  0
  5 12  1  0  0  0  0
  6  5  2  0  0  0  0
  7  1  1  0  0  0  0
  8  2  1  0  0  0  0
  9 10  3  0  0  0  0
 11  6  1  0  0  0  0
M  RAD  1   3   2
M  END
