Coordinates from ORCA-job Ph-N2+-scan-d09-169-n800
 OpenBabel09191813423D

 13 12  0  0  0  0  0  0  0  0999 V2000
   -3.4527    0.1190   -1.2560 C   0  0  0  0  0  0  0  0  0  0  0  0
   -2.0179    0.0240   -1.2510 C   0  0  0  0  0  0  0  0  0  0  0  0
   -1.6437    0.8702   -0.2973 C   0  0  0  0  0  0  0  0  0  0  0  0
   -2.0142    1.7450    0.6318 C   0  0  0  0  0  0  0  0  0  0  0  0
   -3.4491    1.7614    0.5407 C   0  0  0  0  0  0  0  0  0  0  0  0
   -4.1343    0.9670   -0.3808 C   0  0  0  0  0  0  0  0  0  0  0  0
   -3.9661   -0.5111   -1.9861 H   0  0  0  0  0  0  0  0  0  0  0  0
   -1.4388   -0.6171   -1.9124 H   0  0  0  0  0  0  0  0  0  0  0  0
    9.5032    0.6120    1.2217 N   0  0  0  0  0  0  0  0  0  0  0  0
   10.5955    0.6062    1.3844 N   0  0  0  0  0  0  0  0  0  0  0  0
   -5.2230    1.0090   -0.4170 H   0  0  0  0  0  0  0  0  0  0  0  0
   -3.9600    2.4304    1.2372 H   0  0  0  0  0  0  0  0  0  0  0  0
   -1.4327    2.3416    1.3316 H   0  0  0  0  0  0  0  0  0  0  0  0
  1  2  2  0  0  0  0
  1  6  1  0  0  0  0
  2  3  1  0  0  0  0
  3  4  2  0  0  0  0
  4 13  1  0  0  0  0
  5  4  1  0  0  0  0
  5 12  1  0  0  0  0
  6  5  2  0  0  0  0
  7  1  1  0  0  0  0
  8  2  1  0  0  0  0
  9 10  3  0  0  0  0
 11  6  1  0  0  0  0
M  RAD  1   3   2
M  END
