Coordinates from ORCA-job Ph-N2+-scan-d09-169-n800
 OpenBabel09191813423D

 13 13  0  0  0  0  0  0  0  0999 V2000
   -1.8995    0.0882   -1.0825 C   0  0  0  0  0  0  0  0  0  0  0  0
   -0.5272    0.0149   -0.9706 C   0  0  0  0  0  0  0  0  0  0  0  0
    0.1566    0.8244    0.0164 C   0  0  0  0  0  0  0  0  0  0  0  0
   -0.6254    1.6984    0.8659 C   0  0  0  0  0  0  0  0  0  0  0  0
   -1.9960    1.7443    0.7223 C   0  0  0  0  0  0  0  0  0  0  0  0
   -2.6344    0.9460   -0.2440 C   0  0  0  0  0  0  0  0  0  0  0  0
   -2.4117   -0.5222   -1.8253 H   0  0  0  0  0  0  0  0  0  0  0  0
    0.0733   -0.6371   -1.6052 H   0  0  0  0  0  0  0  0  0  0  0  0
    1.2510    0.7767    0.1194 N   0  0  0  0  0  0  0  0  0  0  0  0
    2.3782    0.7279    0.2262 N   0  0  0  0  0  0  0  0  0  0  0  0
   -3.7198    0.9924   -0.3444 H   0  0  0  0  0  0  0  0  0  0  0  0
   -2.5811    2.4023    1.3639 H   0  0  0  0  0  0  0  0  0  0  0  0
   -0.0977    2.3015    1.6048 H   0  0  0  0  0  0  0  0  0  0  0  0
  1  2  2  0  0  0  0
  1  6  1  0  0  0  0
  2  3  1  0  0  0  0
  3  9  1  0  0  0  0
  3  4  2  0  0  0  0
  4 13  1  0  0  0  0
  5  4  1  0  0  0  0
  5 12  1  0  0  0  0
  6  5  2  0  0  0  0
  7  1  1  0  0  0  0
  8  2  1  0  0  0  0
  9 10  1  0  0  0  0
 11  6  1  0  0  0  0
M  RAD  2   9   2  10   3
M  END
