Coordinates from ORCA-job Ph-N2+-scan-d09-169-n800
 OpenBabel09191813423D

 13 13  0  0  0  0  0  0  0  0999 V2000
   -1.9199    0.0891   -1.0846 C   0  0  0  0  0  0  0  0  0  0  0  0
   -0.5405    0.0152   -0.9721 C   0  0  0  0  0  0  0  0  0  0  0  0
    0.0876    0.8275    0.0096 C   0  0  0  0  0  0  0  0  0  0  0  0
   -0.6387    1.6992    0.8647 C   0  0  0  0  0  0  0  0  0  0  0  0
   -2.0162    1.7451    0.7206 C   0  0  0  0  0  0  0  0  0  0  0  0
   -2.6518    0.9469   -0.2458 C   0  0  0  0  0  0  0  0  0  0  0  0
   -2.4335   -0.5204   -1.8266 H   0  0  0  0  0  0  0  0  0  0  0  0
    0.0575   -0.6373   -1.6069 H   0  0  0  0  0  0  0  0  0  0  0  0
    1.3812    0.7712    0.1315 N   0  0  0  0  0  0  0  0  0  0  0  0
    2.4934    0.7233    0.2375 N   0  0  0  0  0  0  0  0  0  0  0  0
   -3.7370    0.9933   -0.3461 H   0  0  0  0  0  0  0  0  0  0  0  0
   -2.6026    2.4021    1.3614 H   0  0  0  0  0  0  0  0  0  0  0  0
   -0.1133    2.3026    1.6036 H   0  0  0  0  0  0  0  0  0  0  0  0
  1  2  2  0  0  0  0
  1  6  1  0  0  0  0
  2  3  1  0  0  0  0
  3  9  1  0  0  0  0
  3  4  2  0  0  0  0
  4 13  1  0  0  0  0
  5  4  1  0  0  0  0
  5 12  1  0  0  0  0
  6  5  2  0  0  0  0
  7  1  1  0  0  0  0
  8  2  1  0  0  0  0
  9 10  1  0  0  0  0
 11  6  1  0  0  0  0
M  RAD  2   9   2  10   3
M  END
