Coordinates from ORCA-job Ph-N2+-scan-d09-169-n800
 OpenBabel09191813423D

 13 12  0  0  0  0  0  0  0  0999 V2000
   -3.1656    0.1158   -1.2243 C   0  0  0  0  0  0  0  0  0  0  0  0
   -1.7319    0.0087   -1.2035 C   0  0  0  0  0  0  0  0  0  0  0  0
   -1.3610    0.8513   -0.2453 C   0  0  0  0  0  0  0  0  0  0  0  0
   -1.7342    1.7287    0.6802 C   0  0  0  0  0  0  0  0  0  0  0  0
   -3.1678    1.7576    0.5729 C   0  0  0  0  0  0  0  0  0  0  0  0
   -3.8496    0.9694   -0.3564 C   0  0  0  0  0  0  0  0  0  0  0  0
   -3.6763   -0.5098   -1.9601 H   0  0  0  0  0  0  0  0  0  0  0  0
   -1.1510   -0.6369   -1.8589 H   0  0  0  0  0  0  0  0  0  0  0  0
    7.9419    0.6557    1.0206 N   0  0  0  0  0  0  0  0  0  0  0  0
    9.0352    0.6455    1.1757 N   0  0  0  0  0  0  0  0  0  0  0  0
   -4.9374    1.0208   -0.4045 H   0  0  0  0  0  0  0  0  0  0  0  0
   -3.6806    2.4307    1.2640 H   0  0  0  0  0  0  0  0  0  0  0  0
   -1.1554    2.3202    1.3865 H   0  0  0  0  0  0  0  0  0  0  0  0
  1  2  2  0  0  0  0
  1  6  1  0  0  0  0
  2  3  1  0  0  0  0
  3  4  2  0  0  0  0
  4 13  1  0  0  0  0
  5  4  1  0  0  0  0
  5 12  1  0  0  0  0
  6  5  2  0  0  0  0
  7  1  1  0  0  0  0
  8  2  1  0  0  0  0
  9 10  3  0  0  0  0
 11  6  1  0  0  0  0
M  RAD  1   3   2
M  END
