Coordinates from ORCA-job Ph-N2+-scan-d09-169-n800
 OpenBabel09191813423D

 13 12  0  0  0  0  0  0  0  0999 V2000
   -2.6982    0.1101   -1.1670 C   0  0  0  0  0  0  0  0  0  0  0  0
   -1.2666   -0.0218   -1.1499 C   0  0  0  0  0  0  0  0  0  0  0  0
   -0.8788    0.8121   -0.1908 C   0  0  0  0  0  0  0  0  0  0  0  0
   -1.2345    1.6938    0.7375 C   0  0  0  0  0  0  0  0  0  0  0  0
   -2.6676    1.7477    0.6339 C   0  0  0  0  0  0  0  0  0  0  0  0
   -3.3652    0.9736   -0.2955 C   0  0  0  0  0  0  0  0  0  0  0  0
   -3.2214   -0.5051   -1.9028 H   0  0  0  0  0  0  0  0  0  0  0  0
   -0.6981   -0.6757   -1.8079 H   0  0  0  0  0  0  0  0  0  0  0  0
    5.2828    0.7477    0.7048 N   0  0  0  0  0  0  0  0  0  0  0  0
    6.3768    0.7298    0.8538 N   0  0  0  0  0  0  0  0  0  0  0  0
   -4.4521    1.0439   -0.3408 H   0  0  0  0  0  0  0  0  0  0  0  0
   -3.1672    2.4277    1.3278 H   0  0  0  0  0  0  0  0  0  0  0  0
   -0.6437    2.2737    1.4435 H   0  0  0  0  0  0  0  0  0  0  0  0
  1  2  2  0  0  0  0
  1  6  1  0  0  0  0
  2  3  1  0  0  0  0
  3  4  2  0  0  0  0
  4 13  1  0  0  0  0
  5  4  1  0  0  0  0
  5 12  1  0  0  0  0
  6  5  2  0  0  0  0
  7  1  1  0  0  0  0
  8  2  1  0  0  0  0
  9 10  3  0  0  0  0
 11  6  1  0  0  0  0
M  RAD  1   3   2
M  END
