Coordinates from ORCA-job Ph-N2+-scan-d09-169-n800
 OpenBabel09191813423D

 13 12  0  0  0  0  0  0  0  0999 V2000
   -3.2839    0.1181   -1.2389 C   0  0  0  0  0  0  0  0  0  0  0  0
   -1.8499    0.0131   -1.2185 C   0  0  0  0  0  0  0  0  0  0  0  0
   -1.4800    0.8565   -0.2606 C   0  0  0  0  0  0  0  0  0  0  0  0
   -1.8543    1.7335    0.6649 C   0  0  0  0  0  0  0  0  0  0  0  0
   -3.2881    1.7602    0.5580 C   0  0  0  0  0  0  0  0  0  0  0  0
   -3.9689    0.9708   -0.3709 C   0  0  0  0  0  0  0  0  0  0  0  0
   -3.7938   -0.5084   -1.9745 H   0  0  0  0  0  0  0  0  0  0  0  0
   -1.2683   -0.6317   -1.8740 H   0  0  0  0  0  0  0  0  0  0  0  0
    8.5976    0.6374    1.1011 N   0  0  0  0  0  0  0  0  0  0  0  0
    9.6906    0.6292    1.2587 N   0  0  0  0  0  0  0  0  0  0  0  0
   -5.0568    1.0205   -0.4187 H   0  0  0  0  0  0  0  0  0  0  0  0
   -3.8016    2.4326    1.2492 H   0  0  0  0  0  0  0  0  0  0  0  0
   -1.2763    2.3260    1.3710 H   0  0  0  0  0  0  0  0  0  0  0  0
  1  2  2  0  0  0  0
  1  6  1  0  0  0  0
  2  3  1  0  0  0  0
  3  4  2  0  0  0  0
  4 13  1  0  0  0  0
  5  4  1  0  0  0  0
  5 12  1  0  0  0  0
  6  5  2  0  0  0  0
  7  1  1  0  0  0  0
  8  2  1  0  0  0  0
  9 10  3  0  0  0  0
 11  6  1  0  0  0  0
M  RAD  1   3   2
M  END
