Coordinates from ORCA-job Ph-N2+-scan-d09-169-n800
 OpenBabel09191813423D

 13 12  0  0  0  0  0  0  0  0999 V2000
   -2.1828    0.1045   -1.1038 C   0  0  0  0  0  0  0  0  0  0  0  0
   -0.7525    0.0015   -1.0216 C   0  0  0  0  0  0  0  0  0  0  0  0
   -0.4189    0.8454   -0.0497 C   0  0  0  0  0  0  0  0  0  0  0  0
   -0.8395    1.7229    0.8566 C   0  0  0  0  0  0  0  0  0  0  0  0
   -2.2657    1.7487    0.6897 C   0  0  0  0  0  0  0  0  0  0  0  0
   -2.9056    0.9574   -0.2668 C   0  0  0  0  0  0  0  0  0  0  0  0
   -2.6624   -0.5223   -1.8588 H   0  0  0  0  0  0  0  0  0  0  0  0
   -0.1418   -0.6429   -1.6497 H   0  0  0  0  0  0  0  0  0  0  0  0
    2.7649    0.7193    0.2758 N   0  0  0  0  0  0  0  0  0  0  0  0
    3.8613    0.6813    0.3954 N   0  0  0  0  0  0  0  0  0  0  0  0
   -3.9904    1.0055   -0.3609 H   0  0  0  0  0  0  0  0  0  0  0  0
   -2.8105    2.4208    1.3566 H   0  0  0  0  0  0  0  0  0  0  0  0
   -0.2898    2.3157    1.5839 H   0  0  0  0  0  0  0  0  0  0  0  0
  1  2  2  0  0  0  0
  1  6  1  0  0  0  0
  2  3  1  0  0  0  0
  3  4  2  0  0  0  0
  4 13  1  0  0  0  0
  5  4  1  0  0  0  0
  5 12  1  0  0  0  0
  6  5  2  0  0  0  0
  7  1  1  0  0  0  0
  8  2  1  0  0  0  0
  9 10  3  0  0  0  0
 11  6  1  0  0  0  0
M  RAD  1   3   2
M  END
