Coordinates from ORCA-job Ph-N2+-scan-d09-169-n800
 OpenBabel09191813423D

 13 12  0  0  0  0  0  0  0  0999 V2000
   -3.3628    0.1196   -1.2486 C   0  0  0  0  0  0  0  0  0  0  0  0
   -1.9288    0.0159   -1.2285 C   0  0  0  0  0  0  0  0  0  0  0  0
   -1.5594    0.8597   -0.2707 C   0  0  0  0  0  0  0  0  0  0  0  0
   -1.9344    1.7365    0.6548 C   0  0  0  0  0  0  0  0  0  0  0  0
   -3.3681    1.7619    0.5481 C   0  0  0  0  0  0  0  0  0  0  0  0
   -4.0484    0.9718   -0.3807 C   0  0  0  0  0  0  0  0  0  0  0  0
   -3.8723   -0.5074   -1.9841 H   0  0  0  0  0  0  0  0  0  0  0  0
   -1.3467   -0.6285   -1.8839 H   0  0  0  0  0  0  0  0  0  0  0  0
    9.0348    0.6255    1.1548 N   0  0  0  0  0  0  0  0  0  0  0  0
   10.1276    0.6184    1.3140 N   0  0  0  0  0  0  0  0  0  0  0  0
   -5.1364    1.0206   -0.4283 H   0  0  0  0  0  0  0  0  0  0  0  0
   -3.8821    2.4340    1.2393 H   0  0  0  0  0  0  0  0  0  0  0  0
   -1.3567    2.3295    1.3607 H   0  0  0  0  0  0  0  0  0  0  0  0
  1  2  2  0  0  0  0
  1  6  1  0  0  0  0
  2  3  1  0  0  0  0
  3  4  2  0  0  0  0
  4 13  1  0  0  0  0
  5  4  1  0  0  0  0
  5 12  1  0  0  0  0
  6  5  2  0  0  0  0
  7  1  1  0  0  0  0
  8  2  1  0  0  0  0
  9 10  3  0  0  0  0
 11  6  1  0  0  0  0
M  RAD  1   3   2
M  END
