Coordinates from ORCA-job Ph-N2+-scan-d09-169-n800
 OpenBabel09191813423D

 13 12  0  0  0  0  0  0  0  0999 V2000
   -4.0724    0.1275   -1.3283 C   0  0  0  0  0  0  0  0  0  0  0  0
   -2.6364    0.0548   -1.3426 C   0  0  0  0  0  0  0  0  0  0  0  0
   -2.2623    0.9077   -0.3949 C   0  0  0  0  0  0  0  0  0  0  0  0
   -2.6336    1.7777    0.5384 C   0  0  0  0  0  0  0  0  0  0  0  0
   -4.0697    1.7721    0.4664 C   0  0  0  0  0  0  0  0  0  0  0  0
   -4.7551    0.9660   -0.4447 C   0  0  0  0  0  0  0  0  0  0  0  0
   -4.5859   -0.5111   -2.0509 H   0  0  0  0  0  0  0  0  0  0  0  0
   -2.0565   -0.5782   -2.0111 H   0  0  0  0  0  0  0  0  0  0  0  0
   12.9136    0.5166    1.6494 N   0  0  0  0  0  0  0  0  0  0  0  0
   14.0027    0.5150    1.8326 N   0  0  0  0  0  0  0  0  0  0  0  0
   -5.8447    0.9914   -0.4662 H   0  0  0  0  0  0  0  0  0  0  0  0
   -4.5813    2.4342    1.1689 H   0  0  0  0  0  0  0  0  0  0  0  0
   -2.0520    2.3839    1.2298 H   0  0  0  0  0  0  0  0  0  0  0  0
  1  6  1  0  0  0  0
  2  1  2  0  0  0  0
  2  3  1  0  0  0  0
  3  4  2  0  0  0  0
  4 13  1  0  0  0  0
  5  4  1  0  0  0  0
  5 12  1  0  0  0  0
  6  5  2  0  0  0  0
  7  1  1  0  0  0  0
  8  2  1  0  0  0  0
  9 10  3  0  0  0  0
 11  6  1  0  0  0  0
M  RAD  1   3   2
M  END
