Coordinates from ORCA-job Ph-N2+-scan-d09-169-n800
 OpenBabel09191813423D

 13 12  0  0  0  0  0  0  0  0999 V2000
   -3.8143    0.1230   -1.2979 C   0  0  0  0  0  0  0  0  0  0  0  0
   -2.3785    0.0444   -1.3043 C   0  0  0  0  0  0  0  0  0  0  0  0
   -2.0062    0.8957   -0.3544 C   0  0  0  0  0  0  0  0  0  0  0  0
   -2.3790    1.7670    0.5770 C   0  0  0  0  0  0  0  0  0  0  0  0
   -3.8148    1.7673    0.4970 C   0  0  0  0  0  0  0  0  0  0  0  0
   -4.4984    0.9641   -0.4180 C   0  0  0  0  0  0  0  0  0  0  0  0
   -4.3264   -0.5135   -2.0233 H   0  0  0  0  0  0  0  0  0  0  0  0
   -1.7976   -0.5908   -1.9697 H   0  0  0  0  0  0  0  0  0  0  0  0
   11.5029    0.5533    1.4695 N   0  0  0  0  0  0  0  0  0  0  0  0
   12.5927    0.5511    1.6479 N   0  0  0  0  0  0  0  0  0  0  0  0
   -5.5878    0.9940   -0.4455 H   0  0  0  0  0  0  0  0  0  0  0  0
   -4.3275    2.4313    1.1969 H   0  0  0  0  0  0  0  0  0  0  0  0
   -1.7988    2.3708    1.2716 H   0  0  0  0  0  0  0  0  0  0  0  0
  1  6  1  0  0  0  0
  2  1  2  0  0  0  0
  2  3  1  0  0  0  0
  3  4  2  0  0  0  0
  4 13  1  0  0  0  0
  5  4  1  0  0  0  0
  5 12  1  0  0  0  0
  6  5  2  0  0  0  0
  7  1  1  0  0  0  0
  8  2  1  0  0  0  0
  9 10  3  0  0  0  0
 11  6  1  0  0  0  0
M  RAD  1   3   2
M  END
