Coordinates from ORCA-job Ph-N2+-scan-d09-169-n800
 OpenBabel09191813423D

 13 12  0  0  0  0  0  0  0  0999 V2000
   -2.5548    0.1092   -1.1493 C   0  0  0  0  0  0  0  0  0  0  0  0
   -1.1242   -0.0331   -1.1338 C   0  0  0  0  0  0  0  0  0  0  0  0
   -0.7295    0.7971   -0.1743 C   0  0  0  0  0  0  0  0  0  0  0  0
   -1.0777    1.6805    0.7551 C   0  0  0  0  0  0  0  0  0  0  0  0
   -2.5105    1.7448    0.6530 C   0  0  0  0  0  0  0  0  0  0  0  0
   -3.2146    0.9766   -0.2764 C   0  0  0  0  0  0  0  0  0  0  0  0
   -3.0832   -0.5016   -1.8851 H   0  0  0  0  0  0  0  0  0  0  0  0
   -0.5606   -0.6903   -1.7927 H   0  0  0  0  0  0  0  0  0  0  0  0
    4.4574    0.7782    0.6074 N   0  0  0  0  0  0  0  0  0  0  0  0
    5.5515    0.7583    0.7547 N   0  0  0  0  0  0  0  0  0  0  0  0
   -4.3010    1.0549   -0.3206 H   0  0  0  0  0  0  0  0  0  0  0  0
   -3.0047    2.4277    1.3480 H   0  0  0  0  0  0  0  0  0  0  0  0
   -0.4818    2.2554    1.4608 H   0  0  0  0  0  0  0  0  0  0  0  0
  1  2  2  0  0  0  0
  1  6  1  0  0  0  0
  2  3  1  0  0  0  0
  3  4  2  0  0  0  0
  4 13  1  0  0  0  0
  5  4  1  0  0  0  0
  5 12  1  0  0  0  0
  6  5  2  0  0  0  0
  7  1  1  0  0  0  0
  8  2  1  0  0  0  0
  9 10  3  0  0  0  0
 11  6  1  0  0  0  0
M  RAD  1   3   2
M  END
