Coordinates from ORCA-job Ph-N2+-scan-d09-169-n800
 OpenBabel09191813423D

 13 12  0  0  0  0  0  0  0  0999 V2000
   -2.8929    0.1117   -1.1909 C   0  0  0  0  0  0  0  0  0  0  0  0
   -1.4600   -0.0055   -1.1702 C   0  0  0  0  0  0  0  0  0  0  0  0
   -1.0832    0.8337   -0.2112 C   0  0  0  0  0  0  0  0  0  0  0  0
   -1.4503    1.7129    0.7150 C   0  0  0  0  0  0  0  0  0  0  0  0
   -2.8837    1.7519    0.6077 C   0  0  0  0  0  0  0  0  0  0  0  0
   -3.5709    0.9693   -0.3222 C   0  0  0  0  0  0  0  0  0  0  0  0
   -3.4079   -0.5098   -1.9272 H   0  0  0  0  0  0  0  0  0  0  0  0
   -0.8835   -0.6545   -1.8260 H   0  0  0  0  0  0  0  0  0  0  0  0
    6.4114    0.7035    0.8344 N   0  0  0  0  0  0  0  0  0  0  0  0
    7.5051    0.6885    0.9865 N   0  0  0  0  0  0  0  0  0  0  0  0
   -4.6584    1.0283   -0.3703 H   0  0  0  0  0  0  0  0  0  0  0  0
   -3.3918    2.4278    1.2995 H   0  0  0  0  0  0  0  0  0  0  0  0
   -0.8674    2.2998    1.4218 H   0  0  0  0  0  0  0  0  0  0  0  0
  1  2  2  0  0  0  0
  1  6  1  0  0  0  0
  2  3  1  0  0  0  0
  3  4  2  0  0  0  0
  4 13  1  0  0  0  0
  5  4  1  0  0  0  0
  5 12  1  0  0  0  0
  6  5  2  0  0  0  0
  7  1  1  0  0  0  0
  8  2  1  0  0  0  0
  9 10  3  0  0  0  0
 11  6  1  0  0  0  0
M  RAD  1   3   2
M  END
