Coordinates from ORCA-job Ph-N2+-scan-d09-169-n800
 OpenBabel09191813433D

 13 12  0  0  0  0  0  0  0  0999 V2000
   -4.2597    0.1313   -1.3509 C   0  0  0  0  0  0  0  0  0  0  0  0
   -2.8236    0.0612   -1.3692 C   0  0  0  0  0  0  0  0  0  0  0  0
   -2.4485    0.9149   -0.4225 C   0  0  0  0  0  0  0  0  0  0  0  0
   -2.8187    1.7843    0.5117 C   0  0  0  0  0  0  0  0  0  0  0  0
   -4.2551    1.7760    0.4437 C   0  0  0  0  0  0  0  0  0  0  0  0
   -4.9414    0.9685   -0.4654 C   0  0  0  0  0  0  0  0  0  0  0  0
   -4.7740   -0.5083   -2.0720 H   0  0  0  0  0  0  0  0  0  0  0  0
   -2.2443   -0.5707   -2.0392 H   0  0  0  0  0  0  0  0  0  0  0  0
   13.9383    0.4903    1.7797 N   0  0  0  0  0  0  0  0  0  0  0  0
   15.0269    0.4894    1.9657 N   0  0  0  0  0  0  0  0  0  0  0  0
   -6.0312    0.9919   -0.4839 H   0  0  0  0  0  0  0  0  0  0  0  0
   -4.7659    2.4372    1.1476 H   0  0  0  0  0  0  0  0  0  0  0  0
   -2.2364    2.3916    1.2015 H   0  0  0  0  0  0  0  0  0  0  0  0
  1  6  1  0  0  0  0
  2  1  2  0  0  0  0
  2  3  1  0  0  0  0
  3  4  2  0  0  0  0
  4 13  1  0  0  0  0
  5  4  1  0  0  0  0
  5 12  1  0  0  0  0
  6  5  2  0  0  0  0
  7  1  1  0  0  0  0
  8  2  1  0  0  0  0
  9 10  3  0  0  0  0
 11  6  1  0  0  0  0
M  RAD  1   3   2
M  END
