Coordinates from ORCA-job Ph-N2+-scan-d09-169-n800
 OpenBabel09191813423D

 13 12  0  0  0  0  0  0  0  0999 V2000
   -2.0611    0.1004   -1.0920 C   0  0  0  0  0  0  0  0  0  0  0  0
   -0.6387    0.0022   -0.9998 C   0  0  0  0  0  0  0  0  0  0  0  0
   -0.2713    0.8423   -0.0254 C   0  0  0  0  0  0  0  0  0  0  0  0
   -0.7371    1.7188    0.8721 C   0  0  0  0  0  0  0  0  0  0  0  0
   -2.1553    1.7456    0.7016 C   0  0  0  0  0  0  0  0  0  0  0  0
   -2.7895    0.9531   -0.2587 C   0  0  0  0  0  0  0  0  0  0  0  0
   -2.5434   -0.5240   -1.8464 H   0  0  0  0  0  0  0  0  0  0  0  0
   -0.0282   -0.6431   -1.6254 H   0  0  0  0  0  0  0  0  0  0  0  0
    2.1376    0.7383    0.2032 N   0  0  0  0  0  0  0  0  0  0  0  0
    3.2345    0.6957    0.3118 N   0  0  0  0  0  0  0  0  0  0  0  0
   -3.8737    1.0000   -0.3584 H   0  0  0  0  0  0  0  0  0  0  0  0
   -2.7110    2.4148    1.3612 H   0  0  0  0  0  0  0  0  0  0  0  0
   -0.1964    2.3137    1.6029 H   0  0  0  0  0  0  0  0  0  0  0  0
  1  2  2  0  0  0  0
  1  6  1  0  0  0  0
  2  3  1  0  0  0  0
  3  4  2  0  0  0  0
  4 13  1  0  0  0  0
  5  4  1  0  0  0  0
  5 12  1  0  0  0  0
  6  5  2  0  0  0  0
  7  1  1  0  0  0  0
  8  2  1  0  0  0  0
  9 10  3  0  0  0  0
 11  6  1  0  0  0  0
M  RAD  1   3   2
M  END
