Coordinates from ORCA-job Ph-N2+-scan-d09-169-n800
 OpenBabel09191813423D

 13 12  0  0  0  0  0  0  0  0999 V2000
   -2.5977    0.1097   -1.1546 C   0  0  0  0  0  0  0  0  0  0  0  0
   -1.1669   -0.0315   -1.1403 C   0  0  0  0  0  0  0  0  0  0  0  0
   -0.7721    0.7990   -0.1811 C   0  0  0  0  0  0  0  0  0  0  0  0
   -1.1202    1.6822    0.7485 C   0  0  0  0  0  0  0  0  0  0  0  0
   -2.5532    1.7454    0.6476 C   0  0  0  0  0  0  0  0  0  0  0  0
   -3.2575    0.9767   -0.2812 C   0  0  0  0  0  0  0  0  0  0  0  0
   -3.1262   -0.5016   -1.8899 H   0  0  0  0  0  0  0  0  0  0  0  0
   -0.6036   -0.6884   -1.7997 H   0  0  0  0  0  0  0  0  0  0  0  0
    4.6925    0.7728    0.6384 N   0  0  0  0  0  0  0  0  0  0  0  0
    5.7866    0.7539    0.7867 N   0  0  0  0  0  0  0  0  0  0  0  0
   -4.3439    1.0541   -0.3244 H   0  0  0  0  0  0  0  0  0  0  0  0
   -3.0472    2.4279    1.3430 H   0  0  0  0  0  0  0  0  0  0  0  0
   -0.5243    2.2576    1.4538 H   0  0  0  0  0  0  0  0  0  0  0  0
  1  2  2  0  0  0  0
  1  6  1  0  0  0  0
  2  3  1  0  0  0  0
  3  4  2  0  0  0  0
  4 13  1  0  0  0  0
  5  4  1  0  0  0  0
  5 12  1  0  0  0  0
  6  5  2  0  0  0  0
  7  1  1  0  0  0  0
  8  2  1  0  0  0  0
  9 10  3  0  0  0  0
 11  6  1  0  0  0  0
M  RAD  1   3   2
M  END
