Coordinates from ORCA-job Ph-N2+-scan-d09-169-n800
 OpenBabel09191813423D

 13 12  0  0  0  0  0  0  0  0999 V2000
   -3.6864    0.1212   -1.2828 C   0  0  0  0  0  0  0  0  0  0  0  0
   -2.2509    0.0381   -1.2859 C   0  0  0  0  0  0  0  0  0  0  0  0
   -1.8781    0.8880   -0.3349 C   0  0  0  0  0  0  0  0  0  0  0  0
   -2.2505    1.7603    0.5958 C   0  0  0  0  0  0  0  0  0  0  0  0
   -3.6860    1.7650    0.5126 C   0  0  0  0  0  0  0  0  0  0  0  0
   -4.3699    0.9642   -0.4043 C   0  0  0  0  0  0  0  0  0  0  0  0
   -4.1988   -0.5135   -2.0096 H   0  0  0  0  0  0  0  0  0  0  0  0
   -1.6704   -0.5986   -1.9502 H   0  0  0  0  0  0  0  0  0  0  0  0
   10.7972    0.5729    1.3812 N   0  0  0  0  0  0  0  0  0  0  0  0
   11.8877    0.5702    1.5558 N   0  0  0  0  0  0  0  0  0  0  0  0
   -5.4592    0.9974   -0.4343 H   0  0  0  0  0  0  0  0  0  0  0  0
   -4.1983    2.4304    1.2115 H   0  0  0  0  0  0  0  0  0  0  0  0
   -1.6700    2.3621    1.2919 H   0  0  0  0  0  0  0  0  0  0  0  0
  1  6  1  0  0  0  0
  2  1  2  0  0  0  0
  2  3  1  0  0  0  0
  3  4  2  0  0  0  0
  4 13  1  0  0  0  0
  5  4  1  0  0  0  0
  5 12  1  0  0  0  0
  6  5  2  0  0  0  0
  7  1  1  0  0  0  0
  8  2  1  0  0  0  0
  9 10  3  0  0  0  0
 11  6  1  0  0  0  0
M  RAD  1   3   2
M  END
