Coordinates from ORCA-job Ph-N2+-scan-d09-169-n800
 OpenBabel09191813423D

 13 12  0  0  0  0  0  0  0  0999 V2000
   -3.9986    0.1262   -1.3195 C   0  0  0  0  0  0  0  0  0  0  0  0
   -2.5626    0.0520   -1.3319 C   0  0  0  0  0  0  0  0  0  0  0  0
   -2.1891    0.9046   -0.3836 C   0  0  0  0  0  0  0  0  0  0  0  0
   -2.5609    1.7750    0.5491 C   0  0  0  0  0  0  0  0  0  0  0  0
   -3.9970    1.7706    0.4753 C   0  0  0  0  0  0  0  0  0  0  0  0
   -4.6817    0.9652   -0.4368 C   0  0  0  0  0  0  0  0  0  0  0  0
   -4.5116   -0.5119   -2.0428 H   0  0  0  0  0  0  0  0  0  0  0  0
   -1.9824   -0.5815   -1.9995 H   0  0  0  0  0  0  0  0  0  0  0  0
   12.5105    0.5269    1.5980 N   0  0  0  0  0  0  0  0  0  0  0  0
   13.5998    0.5252    1.7800 N   0  0  0  0  0  0  0  0  0  0  0  0
   -5.7713    0.9915   -0.4599 H   0  0  0  0  0  0  0  0  0  0  0  0
   -4.5089    2.4331    1.1772 H   0  0  0  0  0  0  0  0  0  0  0  0
   -1.9798    2.3807    1.2413 H   0  0  0  0  0  0  0  0  0  0  0  0
  1  6  1  0  0  0  0
  2  1  2  0  0  0  0
  2  3  1  0  0  0  0
  3  4  2  0  0  0  0
  4 13  1  0  0  0  0
  5  4  1  0  0  0  0
  5 12  1  0  0  0  0
  6  5  2  0  0  0  0
  7  1  1  0  0  0  0
  8  2  1  0  0  0  0
  9 10  3  0  0  0  0
 11  6  1  0  0  0  0
M  RAD  1   3   2
M  END
