Coordinates from ORCA-job Ph-N2+-scan-d09-169-n800
 OpenBabel09191813423D

 13 12  0  0  0  0  0  0  0  0999 V2000
   -3.3849    0.1200   -1.2509 C   0  0  0  0  0  0  0  0  0  0  0  0
   -1.9507    0.0170   -1.2327 C   0  0  0  0  0  0  0  0  0  0  0  0
   -1.5806    0.8610   -0.2755 C   0  0  0  0  0  0  0  0  0  0  0  0
   -1.9549    1.7377    0.6503 C   0  0  0  0  0  0  0  0  0  0  0  0
   -3.3888    1.7621    0.5460 C   0  0  0  0  0  0  0  0  0  0  0  0
   -4.0698    0.9716   -0.3819 C   0  0  0  0  0  0  0  0  0  0  0  0
   -3.8950   -0.5072   -1.9858 H   0  0  0  0  0  0  0  0  0  0  0  0
   -1.3693   -0.6272   -1.8890 H   0  0  0  0  0  0  0  0  0  0  0  0
    9.1522    0.6225    1.1706 N   0  0  0  0  0  0  0  0  0  0  0  0
   10.2449    0.6158    1.3304 N   0  0  0  0  0  0  0  0  0  0  0  0
   -5.1579    1.0196   -0.4280 H   0  0  0  0  0  0  0  0  0  0  0  0
   -3.9023    2.4337    1.2380 H   0  0  0  0  0  0  0  0  0  0  0  0
   -1.3766    2.3311    1.3554 H   0  0  0  0  0  0  0  0  0  0  0  0
  1  2  2  0  0  0  0
  1  6  1  0  0  0  0
  2  3  1  0  0  0  0
  3  4  2  0  0  0  0
  4 13  1  0  0  0  0
  5  4  1  0  0  0  0
  5 12  1  0  0  0  0
  6  5  2  0  0  0  0
  7  1  1  0  0  0  0
  8  2  1  0  0  0  0
  9 10  3  0  0  0  0
 11  6  1  0  0  0  0
M  RAD  1   3   2
M  END
