Coordinates from ORCA-job Ph-N2+-scan-d09-169-n800
 OpenBabel09191813423D

 13 12  0  0  0  0  0  0  0  0999 V2000
   -3.0961    0.1146   -1.2158 C   0  0  0  0  0  0  0  0  0  0  0  0
   -1.6625    0.0057   -1.1948 C   0  0  0  0  0  0  0  0  0  0  0  0
   -1.2907    0.8478   -0.2364 C   0  0  0  0  0  0  0  0  0  0  0  0
   -1.6631    1.7255    0.6892 C   0  0  0  0  0  0  0  0  0  0  0  0
   -3.0967    1.7561    0.5816 C   0  0  0  0  0  0  0  0  0  0  0  0
   -3.7792    0.9689   -0.3479 C   0  0  0  0  0  0  0  0  0  0  0  0
   -3.6074   -0.5103   -1.9518 H   0  0  0  0  0  0  0  0  0  0  0  0
   -1.0823   -0.6404   -1.8501 H   0  0  0  0  0  0  0  0  0  0  0  0
    7.5551    0.6669    0.9732 N   0  0  0  0  0  0  0  0  0  0  0  0
    8.6486    0.6555    1.1271 N   0  0  0  0  0  0  0  0  0  0  0  0
   -4.8670    1.0216   -0.3961 H   0  0  0  0  0  0  0  0  0  0  0  0
   -3.6087    2.4297    1.2728 H   0  0  0  0  0  0  0  0  0  0  0  0
   -1.0837    2.3162    1.3957 H   0  0  0  0  0  0  0  0  0  0  0  0
  1  2  2  0  0  0  0
  1  6  1  0  0  0  0
  2  3  1  0  0  0  0
  3  4  2  0  0  0  0
  4 13  1  0  0  0  0
  5  4  1  0  0  0  0
  5 12  1  0  0  0  0
  6  5  2  0  0  0  0
  7  1  1  0  0  0  0
  8  2  1  0  0  0  0
  9 10  3  0  0  0  0
 11  6  1  0  0  0  0
M  RAD  1   3   2
M  END
