Coordinates from ORCA-job Ph-N2+-scan-d09-169-n800
 OpenBabel09191813423D

 13 12  0  0  0  0  0  0  0  0999 V2000
   -4.1402    0.1289   -1.3364 C   0  0  0  0  0  0  0  0  0  0  0  0
   -2.7042    0.0571   -1.3526 C   0  0  0  0  0  0  0  0  0  0  0  0
   -2.3295    0.9104   -0.4054 C   0  0  0  0  0  0  0  0  0  0  0  0
   -2.7000    1.7801    0.5284 C   0  0  0  0  0  0  0  0  0  0  0  0
   -4.1363    1.7734    0.4583 C   0  0  0  0  0  0  0  0  0  0  0  0
   -4.8223    0.9668   -0.4518 C   0  0  0  0  0  0  0  0  0  0  0  0
   -4.6543   -0.5101   -2.0582 H   0  0  0  0  0  0  0  0  0  0  0  0
   -2.1247   -0.5754   -2.0218 H   0  0  0  0  0  0  0  0  0  0  0  0
   13.2831    0.5072    1.6967 N   0  0  0  0  0  0  0  0  0  0  0  0
   14.3720    0.5059    1.8809 N   0  0  0  0  0  0  0  0  0  0  0  0
   -5.9120    0.9915   -0.4719 H   0  0  0  0  0  0  0  0  0  0  0  0
   -4.6474    2.4352    1.1615 H   0  0  0  0  0  0  0  0  0  0  0  0
   -2.1180    2.3867    1.2191 H   0  0  0  0  0  0  0  0  0  0  0  0
  1  6  1  0  0  0  0
  2  1  2  0  0  0  0
  2  3  1  0  0  0  0
  3  4  2  0  0  0  0
  4 13  1  0  0  0  0
  5  4  1  0  0  0  0
  5 12  1  0  0  0  0
  6  5  2  0  0  0  0
  7  1  1  0  0  0  0
  8  2  1  0  0  0  0
  9 10  3  0  0  0  0
 11  6  1  0  0  0  0
M  RAD  1   3   2
M  END
