Coordinates from ORCA-job Ph-N2+-scan-d09-169-n800
 OpenBabel09191813423D

 13 12  0  0  0  0  0  0  0  0999 V2000
   -3.6071    0.1202   -1.2737 C   0  0  0  0  0  0  0  0  0  0  0  0
   -2.1718    0.0339   -1.2740 C   0  0  0  0  0  0  0  0  0  0  0  0
   -1.7989    0.8829   -0.3222 C   0  0  0  0  0  0  0  0  0  0  0  0
   -2.1711    1.7557    0.6080 C   0  0  0  0  0  0  0  0  0  0  0  0
   -3.6065    1.7637    0.5220 C   0  0  0  0  0  0  0  0  0  0  0  0
   -4.2904    0.9647   -0.3963 C   0  0  0  0  0  0  0  0  0  0  0  0
   -4.1195   -0.5133   -2.0015 H   0  0  0  0  0  0  0  0  0  0  0  0
   -1.5914   -0.6041   -1.9373 H   0  0  0  0  0  0  0  0  0  0  0  0
   10.3604    0.5855    1.3268 N   0  0  0  0  0  0  0  0  0  0  0  0
   11.4514    0.5819    1.4980 N   0  0  0  0  0  0  0  0  0  0  0  0
   -5.3795    1.0003   -0.4284 H   0  0  0  0  0  0  0  0  0  0  0  0
   -4.1186    2.4302    1.2200 H   0  0  0  0  0  0  0  0  0  0  0  0
   -1.5906    2.3561    1.3054 H   0  0  0  0  0  0  0  0  0  0  0  0
  1  6  1  0  0  0  0
  2  1  2  0  0  0  0
  2  3  1  0  0  0  0
  3  4  2  0  0  0  0
  4 13  1  0  0  0  0
  5  4  1  0  0  0  0
  5 12  1  0  0  0  0
  6  5  2  0  0  0  0
  7  1  1  0  0  0  0
  8  2  1  0  0  0  0
  9 10  3  0  0  0  0
 11  6  1  0  0  0  0
M  RAD  1   3   2
M  END
