Coordinates from ORCA-job Ph-N2+-scan-d09-169-n800
 OpenBabel09191813423D

 13 12  0  0  0  0  0  0  0  0999 V2000
   -4.0172    0.1265   -1.3217 C   0  0  0  0  0  0  0  0  0  0  0  0
   -2.5813    0.0527   -1.3348 C   0  0  0  0  0  0  0  0  0  0  0  0
   -2.2074    0.9054   -0.3867 C   0  0  0  0  0  0  0  0  0  0  0  0
   -2.5788    1.7756    0.5463 C   0  0  0  0  0  0  0  0  0  0  0  0
   -4.0150    1.7710    0.4731 C   0  0  0  0  0  0  0  0  0  0  0  0
   -4.7001    0.9654   -0.4387 C   0  0  0  0  0  0  0  0  0  0  0  0
   -4.5306   -0.5118   -2.0447 H   0  0  0  0  0  0  0  0  0  0  0  0
   -2.0013   -0.5806   -2.0028 H   0  0  0  0  0  0  0  0  0  0  0  0
   12.6113    0.5244    1.6111 N   0  0  0  0  0  0  0  0  0  0  0  0
   13.7005    0.5227    1.7933 N   0  0  0  0  0  0  0  0  0  0  0  0
   -5.7897    0.9915   -0.4611 H   0  0  0  0  0  0  0  0  0  0  0  0
   -4.5267    2.4334    1.1752 H   0  0  0  0  0  0  0  0  0  0  0  0
   -1.9975    2.3814    1.2382 H   0  0  0  0  0  0  0  0  0  0  0  0
  1  6  1  0  0  0  0
  2  1  2  0  0  0  0
  2  3  1  0  0  0  0
  3  4  2  0  0  0  0
  4 13  1  0  0  0  0
  5  4  1  0  0  0  0
  5 12  1  0  0  0  0
  6  5  2  0  0  0  0
  7  1  1  0  0  0  0
  8  2  1  0  0  0  0
  9 10  3  0  0  0  0
 11  6  1  0  0  0  0
M  RAD  1   3   2
M  END
