Coordinates from ORCA-job Ph-N2+-scan-d09-169-n800
 OpenBabel09191813423D

 13 12  0  0  0  0  0  0  0  0999 V2000
   -3.4049    0.1198   -1.2523 C   0  0  0  0  0  0  0  0  0  0  0  0
   -1.9706    0.0187   -1.2387 C   0  0  0  0  0  0  0  0  0  0  0  0
   -1.5986    0.8632   -0.2826 C   0  0  0  0  0  0  0  0  0  0  0  0
   -1.9710    1.7394    0.6444 C   0  0  0  0  0  0  0  0  0  0  0  0
   -3.4053    1.7618    0.5446 C   0  0  0  0  0  0  0  0  0  0  0  0
   -4.0882    0.9704   -0.3811 C   0  0  0  0  0  0  0  0  0  0  0  0
   -3.9166   -0.5081   -1.9855 H   0  0  0  0  0  0  0  0  0  0  0  0
   -1.3903   -0.6246   -1.8968 H   0  0  0  0  0  0  0  0  0  0  0  0
    9.2523    0.6200    1.1861 N   0  0  0  0  0  0  0  0  0  0  0  0
   10.3449    0.6136    1.3466 N   0  0  0  0  0  0  0  0  0  0  0  0
   -5.1765    1.0170   -0.4237 H   0  0  0  0  0  0  0  0  0  0  0  0
   -3.9175    2.4328    1.2383 H   0  0  0  0  0  0  0  0  0  0  0  0
   -1.3912    2.3336    1.3476 H   0  0  0  0  0  0  0  0  0  0  0  0
  1  2  2  0  0  0  0
  1  6  1  0  0  0  0
  2  3  1  0  0  0  0
  3  4  2  0  0  0  0
  4 13  1  0  0  0  0
  5  4  1  0  0  0  0
  5 12  1  0  0  0  0
  6  5  2  0  0  0  0
  7  1  1  0  0  0  0
  8  2  1  0  0  0  0
  9 10  3  0  0  0  0
 11  6  1  0  0  0  0
M  RAD  1   3   2
M  END
