Coordinates from ORCA-job Ph-N2+-scan-d09-169-n800
 OpenBabel09191813423D

 13 12  0  0  0  0  0  0  0  0999 V2000
   -2.9105    0.1118   -1.1930 C   0  0  0  0  0  0  0  0  0  0  0  0
   -1.4775   -0.0041   -1.1721 C   0  0  0  0  0  0  0  0  0  0  0  0
   -1.1015    0.8355   -0.2132 C   0  0  0  0  0  0  0  0  0  0  0  0
   -1.4695    1.7145    0.7129 C   0  0  0  0  0  0  0  0  0  0  0  0
   -2.9029    1.7523    0.6054 C   0  0  0  0  0  0  0  0  0  0  0  0
   -3.5893    0.9690   -0.3246 C   0  0  0  0  0  0  0  0  0  0  0  0
   -3.4249   -0.5101   -1.9294 H   0  0  0  0  0  0  0  0  0  0  0  0
   -0.9003   -0.6527   -1.8278 H   0  0  0  0  0  0  0  0  0  0  0  0
    6.5124    0.6999    0.8464 N   0  0  0  0  0  0  0  0  0  0  0  0
    7.6061    0.6849    0.9982 N   0  0  0  0  0  0  0  0  0  0  0  0
   -4.6768    1.0271   -0.3728 H   0  0  0  0  0  0  0  0  0  0  0  0
   -3.4117    2.4279    1.2970 H   0  0  0  0  0  0  0  0  0  0  0  0
   -0.8872    2.3019    1.4197 H   0  0  0  0  0  0  0  0  0  0  0  0
  1  2  2  0  0  0  0
  1  6  1  0  0  0  0
  2  3  1  0  0  0  0
  3  4  2  0  0  0  0
  4 13  1  0  0  0  0
  5  4  1  0  0  0  0
  5 12  1  0  0  0  0
  6  5  2  0  0  0  0
  7  1  1  0  0  0  0
  8  2  1  0  0  0  0
  9 10  3  0  0  0  0
 11  6  1  0  0  0  0
M  RAD  1   3   2
M  END
