Coordinates from ORCA-job Ph-N2+-scan-d09-169-n800
 OpenBabel09191813423D

 13 12  0  0  0  0  0  0  0  0999 V2000
   -2.8086    0.1110   -1.1805 C   0  0  0  0  0  0  0  0  0  0  0  0
   -1.3761   -0.0123   -1.1614 C   0  0  0  0  0  0  0  0  0  0  0  0
   -0.9948    0.8246   -0.2023 C   0  0  0  0  0  0  0  0  0  0  0  0
   -1.3570    1.7049    0.7248 C   0  0  0  0  0  0  0  0  0  0  0  0
   -2.7903    1.7501    0.6191 C   0  0  0  0  0  0  0  0  0  0  0  0
   -3.4819    0.9710   -0.3106 C   0  0  0  0  0  0  0  0  0  0  0  0
   -3.3270   -0.5079   -1.9166 H   0  0  0  0  0  0  0  0  0  0  0  0
   -0.8029   -0.6634   -1.8181 H   0  0  0  0  0  0  0  0  0  0  0  0
    5.9231    0.7214    0.7771 N   0  0  0  0  0  0  0  0  0  0  0  0
    7.0167    0.7069    0.9298 N   0  0  0  0  0  0  0  0  0  0  0  0
   -4.5691    1.0348   -0.3575 H   0  0  0  0  0  0  0  0  0  0  0  0
   -3.2949    2.4277    1.3118 H   0  0  0  0  0  0  0  0  0  0  0  0
   -0.7708    2.2889    1.4312 H   0  0  0  0  0  0  0  0  0  0  0  0
  1  2  2  0  0  0  0
  1  6  1  0  0  0  0
  2  3  1  0  0  0  0
  3  4  2  0  0  0  0
  4 13  1  0  0  0  0
  5  4  1  0  0  0  0
  5 12  1  0  0  0  0
  6  5  2  0  0  0  0
  7  1  1  0  0  0  0
  8  2  1  0  0  0  0
  9 10  3  0  0  0  0
 11  6  1  0  0  0  0
M  RAD  1   3   2
M  END
