Coordinates from ORCA-job Ph-N2+-scan-d09-169-n800
 OpenBabel09191813423D

 13 12  0  0  0  0  0  0  0  0999 V2000
   -2.1660    0.1042   -1.1020 C   0  0  0  0  0  0  0  0  0  0  0  0
   -0.7361    0.0020   -1.0177 C   0  0  0  0  0  0  0  0  0  0  0  0
   -0.4025    0.8459   -0.0453 C   0  0  0  0  0  0  0  0  0  0  0  0
   -0.8266    1.7233    0.8600 C   0  0  0  0  0  0  0  0  0  0  0  0
   -2.2523    1.7484    0.6913 C   0  0  0  0  0  0  0  0  0  0  0  0
   -2.8904    0.9567   -0.2660 C   0  0  0  0  0  0  0  0  0  0  0  0
   -2.6446   -0.5228   -1.8575 H   0  0  0  0  0  0  0  0  0  0  0  0
   -0.1244   -0.6422   -1.6448 H   0  0  0  0  0  0  0  0  0  0  0  0
    2.6822    0.7199    0.2642 N   0  0  0  0  0  0  0  0  0  0  0  0
    3.7789    0.6811    0.3812 N   0  0  0  0  0  0  0  0  0  0  0  0
   -3.9751    1.0043   -0.3617 H   0  0  0  0  0  0  0  0  0  0  0  0
   -2.7986    2.4203    1.3571 H   0  0  0  0  0  0  0  0  0  0  0  0
   -0.2784    2.3165    1.5879 H   0  0  0  0  0  0  0  0  0  0  0  0
  1  2  2  0  0  0  0
  1  6  1  0  0  0  0
  2  3  1  0  0  0  0
  3  4  2  0  0  0  0
  4 13  1  0  0  0  0
  5  4  1  0  0  0  0
  5 12  1  0  0  0  0
  6  5  2  0  0  0  0
  7  1  1  0  0  0  0
  8  2  1  0  0  0  0
  9 10  3  0  0  0  0
 11  6  1  0  0  0  0
M  RAD  1   3   2
M  END
