Coordinates from ORCA-job Ph-N2+-scan-d09-169-n800
 OpenBabel09191813423D

 13 12  0  0  0  0  0  0  0  0999 V2000
   -3.8885    0.1243   -1.3064 C   0  0  0  0  0  0  0  0  0  0  0  0
   -2.4527    0.0475   -1.3162 C   0  0  0  0  0  0  0  0  0  0  0  0
   -2.0793    0.8993   -0.3671 C   0  0  0  0  0  0  0  0  0  0  0  0
   -2.4512    1.7703    0.5650 C   0  0  0  0  0  0  0  0  0  0  0  0
   -3.8871    1.7685    0.4887 C   0  0  0  0  0  0  0  0  0  0  0  0
   -4.5717    0.9644   -0.4248 C   0  0  0  0  0  0  0  0  0  0  0  0
   -4.4015   -0.5128   -2.0306 H   0  0  0  0  0  0  0  0  0  0  0  0
   -1.8725   -0.5870   -1.9829 H   0  0  0  0  0  0  0  0  0  0  0  0
   11.9058    0.5430    1.5215 N   0  0  0  0  0  0  0  0  0  0  0  0
   12.9954    0.5409    1.7015 N   0  0  0  0  0  0  0  0  0  0  0  0
   -5.6612    0.9928   -0.4498 H   0  0  0  0  0  0  0  0  0  0  0  0
   -4.3990    2.4318    1.1898 H   0  0  0  0  0  0  0  0  0  0  0  0
   -1.8701    2.3748    1.2582 H   0  0  0  0  0  0  0  0  0  0  0  0
  1  6  1  0  0  0  0
  2  1  2  0  0  0  0
  2  3  1  0  0  0  0
  3  4  2  0  0  0  0
  4 13  1  0  0  0  0
  5  4  1  0  0  0  0
  5 12  1  0  0  0  0
  6  5  2  0  0  0  0
  7  1  1  0  0  0  0
  8  2  1  0  0  0  0
  9 10  3  0  0  0  0
 11  6  1  0  0  0  0
M  RAD  1   3   2
M  END
