Coordinates from ORCA-job Ph-N2+-scan-d09-169-n800
 OpenBabel09191813423D

 13 12  0  0  0  0  0  0  0  0999 V2000
   -2.4029    0.1070   -1.1308 C   0  0  0  0  0  0  0  0  0  0  0  0
   -0.9718   -0.0242   -1.0955 C   0  0  0  0  0  0  0  0  0  0  0  0
   -0.5963    0.8103   -0.1320 C   0  0  0  0  0  0  0  0  0  0  0  0
   -0.9645    1.6923    0.7911 C   0  0  0  0  0  0  0  0  0  0  0  0
   -2.3960    1.7455    0.6696 C   0  0  0  0  0  0  0  0  0  0  0  0
   -3.0814    0.9705   -0.2682 C   0  0  0  0  0  0  0  0  0  0  0  0
   -2.9169   -0.5086   -1.8725 H   0  0  0  0  0  0  0  0  0  0  0  0
   -0.3941   -0.6779   -1.7455 H   0  0  0  0  0  0  0  0  0  0  0  0
    3.7249    0.7648    0.4780 N   0  0  0  0  0  0  0  0  0  0  0  0
    4.8196    0.7400    0.6200 N   0  0  0  0  0  0  0  0  0  0  0  0
   -4.1676    1.0401   -0.3272 H   0  0  0  0  0  0  0  0  0  0  0  0
   -2.9049    2.4255    1.3566 H   0  0  0  0  0  0  0  0  0  0  0  0
   -0.3816    2.2725    1.5032 H   0  0  0  0  0  0  0  0  0  0  0  0
  1  2  2  0  0  0  0
  1  6  1  0  0  0  0
  2  3  1  0  0  0  0
  3  4  2  0  0  0  0
  4 13  1  0  0  0  0
  5  4  1  0  0  0  0
  5 12  1  0  0  0  0
  6  5  2  0  0  0  0
  7  1  1  0  0  0  0
  8  2  1  0  0  0  0
  9 10  3  0  0  0  0
 11  6  1  0  0  0  0
M  RAD  1   3   2
M  END
