Coordinates from ORCA-job Ph-N2+-scan-d09-169-n800
 OpenBabel09191813423D

 13 12  0  0  0  0  0  0  0  0999 V2000
   -2.0670    0.1006   -1.0925 C   0  0  0  0  0  0  0  0  0  0  0  0
   -0.6438    0.0020   -1.0007 C   0  0  0  0  0  0  0  0  0  0  0  0
   -0.2805    0.8425   -0.0264 C   0  0  0  0  0  0  0  0  0  0  0  0
   -0.7420    1.7192    0.8717 C   0  0  0  0  0  0  0  0  0  0  0  0
   -2.1609    1.7457    0.7010 C   0  0  0  0  0  0  0  0  0  0  0  0
   -2.7952    0.9534   -0.2592 C   0  0  0  0  0  0  0  0  0  0  0  0
   -2.5487   -0.5240   -1.8472 H   0  0  0  0  0  0  0  0  0  0  0  0
   -0.0329   -0.6431   -1.6262 H   0  0  0  0  0  0  0  0  0  0  0  0
    2.1681    0.7371    0.2065 N   0  0  0  0  0  0  0  0  0  0  0  0
    3.2651    0.6949    0.3153 N   0  0  0  0  0  0  0  0  0  0  0  0
   -3.8795    1.0003   -0.3588 H   0  0  0  0  0  0  0  0  0  0  0  0
   -2.7158    2.4153    1.3611 H   0  0  0  0  0  0  0  0  0  0  0  0
   -0.2005    2.3138    1.6023 H   0  0  0  0  0  0  0  0  0  0  0  0
  1  2  2  0  0  0  0
  1  6  1  0  0  0  0
  2  3  1  0  0  0  0
  3  4  2  0  0  0  0
  4 13  1  0  0  0  0
  5  4  1  0  0  0  0
  5 12  1  0  0  0  0
  6  5  2  0  0  0  0
  7  1  1  0  0  0  0
  8  2  1  0  0  0  0
  9 10  3  0  0  0  0
 11  6  1  0  0  0  0
M  RAD  1   3   2
M  END
