Coordinates from ORCA-job Ph-N2+-scan-d09-169-n800
 OpenBabel09191813423D

 13 12  0  0  0  0  0  0  0  0999 V2000
   -2.0135    0.0974   -1.0886 C   0  0  0  0  0  0  0  0  0  0  0  0
   -0.6008    0.0045   -0.9920 C   0  0  0  0  0  0  0  0  0  0  0  0
   -0.1812    0.8390   -0.0162 C   0  0  0  0  0  0  0  0  0  0  0  0
   -0.6999    1.7142    0.8725 C   0  0  0  0  0  0  0  0  0  0  0  0
   -2.1088    1.7446    0.7072 C   0  0  0  0  0  0  0  0  0  0  0  0
   -2.7423    0.9510   -0.2544 C   0  0  0  0  0  0  0  0  0  0  0  0
   -2.5056   -0.5225   -1.8391 H   0  0  0  0  0  0  0  0  0  0  0  0
    0.0071   -0.6418   -1.6187 H   0  0  0  0  0  0  0  0  0  0  0  0
    1.8891    0.7493    0.1791 N   0  0  0  0  0  0  0  0  0  0  0  0
    2.9857    0.7039    0.2859 N   0  0  0  0  0  0  0  0  0  0  0  0
   -3.8265    0.9977   -0.3545 H   0  0  0  0  0  0  0  0  0  0  0  0
   -2.6743    2.4100    1.3609 H   0  0  0  0  0  0  0  0  0  0  0  0
   -0.1628    2.3104    1.6047 H   0  0  0  0  0  0  0  0  0  0  0  0
  1  2  2  0  0  0  0
  1  6  1  0  0  0  0
  2  3  1  0  0  0  0
  3  4  2  0  0  0  0
  4 13  1  0  0  0  0
  5  4  1  0  0  0  0
  5 12  1  0  0  0  0
  6  5  2  0  0  0  0
  7  1  1  0  0  0  0
  8  2  1  0  0  0  0
  9 10  3  0  0  0  0
 11  6  1  0  0  0  0
M  RAD  1   3   2
M  END
