Coordinates from ORCA-job Ph-N2+-scan-d09-169-n800
 OpenBabel09191813423D

 13 12  0  0  0  0  0  0  0  0999 V2000
   -2.9639    0.1125   -1.1996 C   0  0  0  0  0  0  0  0  0  0  0  0
   -1.5306   -0.0008   -1.1783 C   0  0  0  0  0  0  0  0  0  0  0  0
   -1.1565    0.8398   -0.2195 C   0  0  0  0  0  0  0  0  0  0  0  0
   -1.5263    1.7183    0.7062 C   0  0  0  0  0  0  0  0  0  0  0  0
   -2.9597    1.7534    0.5985 C   0  0  0  0  0  0  0  0  0  0  0  0
   -3.6445    0.9686   -0.3315 C   0  0  0  0  0  0  0  0  0  0  0  0
   -3.4770   -0.5106   -1.9359 H   0  0  0  0  0  0  0  0  0  0  0  0
   -0.9522   -0.6485   -1.8338 H   0  0  0  0  0  0  0  0  0  0  0  0
    6.8152    0.6897    0.8829 N   0  0  0  0  0  0  0  0  0  0  0  0
    7.9089    0.6755    1.0348 N   0  0  0  0  0  0  0  0  0  0  0  0
   -4.7321    1.0246   -0.3799 H   0  0  0  0  0  0  0  0  0  0  0  0
   -3.4699    2.4282    1.2898 H   0  0  0  0  0  0  0  0  0  0  0  0
   -0.9452    2.3070    1.4130 H   0  0  0  0  0  0  0  0  0  0  0  0
  1  2  2  0  0  0  0
  1  6  1  0  0  0  0
  2  3  1  0  0  0  0
  3  4  2  0  0  0  0
  4 13  1  0  0  0  0
  5  4  1  0  0  0  0
  5 12  1  0  0  0  0
  6  5  2  0  0  0  0
  7  1  1  0  0  0  0
  8  2  1  0  0  0  0
  9 10  3  0  0  0  0
 11  6  1  0  0  0  0
M  RAD  1   3   2
M  END
