Coordinates from ORCA-job Ph-N2+-scan-d09-169-n800
 OpenBabel09191813423D

 13 12  0  0  0  0  0  0  0  0999 V2000
   -2.9848    0.1128   -1.2021 C   0  0  0  0  0  0  0  0  0  0  0  0
   -1.5515    0.0004   -1.1809 C   0  0  0  0  0  0  0  0  0  0  0  0
   -1.1778    0.8412   -0.2221 C   0  0  0  0  0  0  0  0  0  0  0  0
   -1.5482    1.7196    0.7036 C   0  0  0  0  0  0  0  0  0  0  0  0
   -2.9817    1.7538    0.5958 C   0  0  0  0  0  0  0  0  0  0  0  0
   -3.6659    0.9685   -0.3341 C   0  0  0  0  0  0  0  0  0  0  0  0
   -3.4975   -0.5106   -1.9384 H   0  0  0  0  0  0  0  0  0  0  0  0
   -0.9726   -0.6470   -1.8363 H   0  0  0  0  0  0  0  0  0  0  0  0
    6.9329    0.6858    0.8972 N   0  0  0  0  0  0  0  0  0  0  0  0
    8.0266    0.6721    1.0493 N   0  0  0  0  0  0  0  0  0  0  0  0
   -4.7536    1.0239   -0.3826 H   0  0  0  0  0  0  0  0  0  0  0  0
   -3.4922    2.4284    1.2871 H   0  0  0  0  0  0  0  0  0  0  0  0
   -0.9675    2.3087    1.4103 H   0  0  0  0  0  0  0  0  0  0  0  0
  1  2  2  0  0  0  0
  1  6  1  0  0  0  0
  2  3  1  0  0  0  0
  3  4  2  0  0  0  0
  4 13  1  0  0  0  0
  5  4  1  0  0  0  0
  5 12  1  0  0  0  0
  6  5  2  0  0  0  0
  7  1  1  0  0  0  0
  8  2  1  0  0  0  0
  9 10  3  0  0  0  0
 11  6  1  0  0  0  0
M  RAD  1   3   2
M  END
