Coordinates from ORCA-job Ph-N2+-scan-d09-169-n800
 OpenBabel09191813423D

 13 12  0  0  0  0  0  0  0  0999 V2000
   -2.8497    0.1114   -1.1855 C   0  0  0  0  0  0  0  0  0  0  0  0
   -1.4170   -0.0094   -1.1660 C   0  0  0  0  0  0  0  0  0  0  0  0
   -1.0375    0.8286   -0.2070 C   0  0  0  0  0  0  0  0  0  0  0  0
   -1.4016    1.7084    0.7198 C   0  0  0  0  0  0  0  0  0  0  0  0
   -2.8350    1.7509    0.6136 C   0  0  0  0  0  0  0  0  0  0  0  0
   -3.5249    0.9704   -0.3161 C   0  0  0  0  0  0  0  0  0  0  0  0
   -3.3668   -0.5086   -1.9217 H   0  0  0  0  0  0  0  0  0  0  0  0
   -0.8425   -0.6595   -1.8224 H   0  0  0  0  0  0  0  0  0  0  0  0
    6.1588    0.7128    0.8045 N   0  0  0  0  0  0  0  0  0  0  0  0
    7.2522    0.6991    0.9584 N   0  0  0  0  0  0  0  0  0  0  0  0
   -4.6122    1.0322   -0.3633 H   0  0  0  0  0  0  0  0  0  0  0  0
   -3.3409    2.4279    1.3061 H   0  0  0  0  0  0  0  0  0  0  0  0
   -0.8167    2.2936    1.4263 H   0  0  0  0  0  0  0  0  0  0  0  0
  1  2  2  0  0  0  0
  1  6  1  0  0  0  0
  2  3  1  0  0  0  0
  3  4  2  0  0  0  0
  4 13  1  0  0  0  0
  5  4  1  0  0  0  0
  5 12  1  0  0  0  0
  6  5  2  0  0  0  0
  7  1  1  0  0  0  0
  8  2  1  0  0  0  0
  9 10  3  0  0  0  0
 11  6  1  0  0  0  0
M  RAD  1   3   2
M  END
