Coordinates from ORCA-job Ph-N2+-scan-d09-169-n800
 OpenBabel09191813423D

 13 12  0  0  0  0  0  0  0  0999 V2000
   -3.8604    0.1237   -1.3032 C   0  0  0  0  0  0  0  0  0  0  0  0
   -2.4246    0.0465   -1.3115 C   0  0  0  0  0  0  0  0  0  0  0  0
   -2.0519    0.8982   -0.3620 C   0  0  0  0  0  0  0  0  0  0  0  0
   -2.4244    1.7692    0.5698 C   0  0  0  0  0  0  0  0  0  0  0  0
   -3.8603    1.7680    0.4917 C   0  0  0  0  0  0  0  0  0  0  0  0
   -4.5442    0.9642   -0.4225 C   0  0  0  0  0  0  0  0  0  0  0  0
   -4.3729   -0.5133   -2.0280 H   0  0  0  0  0  0  0  0  0  0  0  0
   -1.8439   -0.5882   -1.9776 H   0  0  0  0  0  0  0  0  0  0  0  0
   11.7547    0.5466    1.5017 N   0  0  0  0  0  0  0  0  0  0  0  0
   12.8444    0.5446    1.6812 N   0  0  0  0  0  0  0  0  0  0  0  0
   -5.6337    0.9930   -0.4486 H   0  0  0  0  0  0  0  0  0  0  0  0
   -4.3727    2.4317    1.1921 H   0  0  0  0  0  0  0  0  0  0  0  0
   -1.8439    2.3735    1.2637 H   0  0  0  0  0  0  0  0  0  0  0  0
  1  6  1  0  0  0  0
  2  1  2  0  0  0  0
  2  3  1  0  0  0  0
  3  4  2  0  0  0  0
  4 13  1  0  0  0  0
  5  4  1  0  0  0  0
  5 12  1  0  0  0  0
  6  5  2  0  0  0  0
  7  1  1  0  0  0  0
  8  2  1  0  0  0  0
  9 10  3  0  0  0  0
 11  6  1  0  0  0  0
M  RAD  1   3   2
M  END
