Coordinates from ORCA-job Ph-N2+-scan-d09-169-n800
 OpenBabel09191813423D

 13 12  0  0  0  0  0  0  0  0999 V2000
   -2.9223    0.1120   -1.1945 C   0  0  0  0  0  0  0  0  0  0  0  0
   -1.4892   -0.0033   -1.1734 C   0  0  0  0  0  0  0  0  0  0  0  0
   -1.1138    0.8365   -0.2145 C   0  0  0  0  0  0  0  0  0  0  0  0
   -1.4822    1.7154    0.7115 C   0  0  0  0  0  0  0  0  0  0  0  0
   -2.9156    1.7525    0.6038 C   0  0  0  0  0  0  0  0  0  0  0  0
   -3.6016    0.9689   -0.3262 C   0  0  0  0  0  0  0  0  0  0  0  0
   -3.4363   -0.5103   -1.9308 H   0  0  0  0  0  0  0  0  0  0  0  0
   -0.9117   -0.6517   -1.8290 H   0  0  0  0  0  0  0  0  0  0  0  0
    6.5797    0.6975    0.8545 N   0  0  0  0  0  0  0  0  0  0  0  0
    7.6734    0.6827    1.0062 N   0  0  0  0  0  0  0  0  0  0  0  0
   -4.6891    1.0264   -0.3745 H   0  0  0  0  0  0  0  0  0  0  0  0
   -3.4247    2.4279    1.2954 H   0  0  0  0  0  0  0  0  0  0  0  0
   -0.9003    2.3032    1.4183 H   0  0  0  0  0  0  0  0  0  0  0  0
  1  2  2  0  0  0  0
  1  6  1  0  0  0  0
  2  3  1  0  0  0  0
  3  4  2  0  0  0  0
  4 13  1  0  0  0  0
  5  4  1  0  0  0  0
  5 12  1  0  0  0  0
  6  5  2  0  0  0  0
  7  1  1  0  0  0  0
  8  2  1  0  0  0  0
  9 10  3  0  0  0  0
 11  6  1  0  0  0  0
M  RAD  1   3   2
M  END
