Coordinates from ORCA-job Ph-N2+-scan-d09-169-n800
 OpenBabel09191813423D

 13 12  0  0  0  0  0  0  0  0999 V2000
   -2.2001    0.1048   -1.1057 C   0  0  0  0  0  0  0  0  0  0  0  0
   -0.7695    0.0007   -1.0261 C   0  0  0  0  0  0  0  0  0  0  0  0
   -0.4350    0.8444   -0.0548 C   0  0  0  0  0  0  0  0  0  0  0  0
   -0.8520    1.7221    0.8527 C   0  0  0  0  0  0  0  0  0  0  0  0
   -2.2788    1.7488    0.6881 C   0  0  0  0  0  0  0  0  0  0  0  0
   -2.9208    0.9581   -0.2674 C   0  0  0  0  0  0  0  0  0  0  0  0
   -2.6812   -0.5217   -1.8601 H   0  0  0  0  0  0  0  0  0  0  0  0
   -0.1602   -0.6441   -1.6554 H   0  0  0  0  0  0  0  0  0  0  0  0
    2.8477    0.7197    0.2886 N   0  0  0  0  0  0  0  0  0  0  0  0
    3.9440    0.6824    0.4111 N   0  0  0  0  0  0  0  0  0  0  0  0
   -4.0057    1.0070   -0.3596 H   0  0  0  0  0  0  0  0  0  0  0  0
   -2.8216    2.4213    1.3562 H   0  0  0  0  0  0  0  0  0  0  0  0
   -0.3005    2.3143    1.5792 H   0  0  0  0  0  0  0  0  0  0  0  0
  1  2  2  0  0  0  0
  1  6  1  0  0  0  0
  2  3  1  0  0  0  0
  3  4  2  0  0  0  0
  4 13  1  0  0  0  0
  5  4  1  0  0  0  0
  5 12  1  0  0  0  0
  6  5  2  0  0  0  0
  7  1  1  0  0  0  0
  8  2  1  0  0  0  0
  9 10  3  0  0  0  0
 11  6  1  0  0  0  0
M  RAD  1   3   2
M  END
