Coordinates from ORCA-job Ph-N2+-scan-d09-169-n800
 OpenBabel09191813423D

 13 12  0  0  0  0  0  0  0  0999 V2000
   -4.0819    0.1278   -1.3293 C   0  0  0  0  0  0  0  0  0  0  0  0
   -2.6458    0.0551   -1.3443 C   0  0  0  0  0  0  0  0  0  0  0  0
   -2.2714    0.9081   -0.3967 C   0  0  0  0  0  0  0  0  0  0  0  0
   -2.6424    1.7781    0.5366 C   0  0  0  0  0  0  0  0  0  0  0  0
   -4.0786    1.7722    0.4655 C   0  0  0  0  0  0  0  0  0  0  0  0
   -4.7642    0.9661   -0.4454 C   0  0  0  0  0  0  0  0  0  0  0  0
   -4.5956   -0.5109   -2.0517 H   0  0  0  0  0  0  0  0  0  0  0  0
   -2.0662   -0.5779   -2.0130 H   0  0  0  0  0  0  0  0  0  0  0  0
   12.9639    0.5154    1.6562 N   0  0  0  0  0  0  0  0  0  0  0  0
   14.0530    0.5138    1.8394 N   0  0  0  0  0  0  0  0  0  0  0  0
   -5.8539    0.9913   -0.4664 H   0  0  0  0  0  0  0  0  0  0  0  0
   -4.5899    2.4342    1.1683 H   0  0  0  0  0  0  0  0  0  0  0  0
   -2.0606    2.3844    1.2277 H   0  0  0  0  0  0  0  0  0  0  0  0
  1  6  1  0  0  0  0
  2  1  2  0  0  0  0
  2  3  1  0  0  0  0
  3  4  2  0  0  0  0
  4 13  1  0  0  0  0
  5  4  1  0  0  0  0
  5 12  1  0  0  0  0
  6  5  2  0  0  0  0
  7  1  1  0  0  0  0
  8  2  1  0  0  0  0
  9 10  3  0  0  0  0
 11  6  1  0  0  0  0
M  RAD  1   3   2
M  END
