Coordinates from ORCA-job Ph-N2+-scan-d09-169-n800
 OpenBabel09191813423D

 13 12  0  0  0  0  0  0  0  0999 V2000
   -2.0327    0.0987   -1.0898 C   0  0  0  0  0  0  0  0  0  0  0  0
   -0.6153    0.0033   -0.9953 C   0  0  0  0  0  0  0  0  0  0  0  0
   -0.2210    0.8406   -0.0202 C   0  0  0  0  0  0  0  0  0  0  0  0
   -0.7142    1.7164    0.8727 C   0  0  0  0  0  0  0  0  0  0  0  0
   -2.1276    1.7449    0.7048 C   0  0  0  0  0  0  0  0  0  0  0  0
   -2.7614    0.9518   -0.2561 C   0  0  0  0  0  0  0  0  0  0  0  0
   -2.5199   -0.5234   -1.8422 H   0  0  0  0  0  0  0  0  0  0  0  0
   -0.0062   -0.6424   -1.6215 H   0  0  0  0  0  0  0  0  0  0  0  0
    1.9887    0.7450    0.1886 N   0  0  0  0  0  0  0  0  0  0  0  0
    3.0854    0.7003    0.2964 N   0  0  0  0  0  0  0  0  0  0  0  0
   -3.8456    0.9985   -0.3561 H   0  0  0  0  0  0  0  0  0  0  0  0
   -2.6884    2.4121    1.3614 H   0  0  0  0  0  0  0  0  0  0  0  0
   -0.1755    2.3119    1.6043 H   0  0  0  0  0  0  0  0  0  0  0  0
  1  2  2  0  0  0  0
  1  6  1  0  0  0  0
  2  3  1  0  0  0  0
  3  4  2  0  0  0  0
  4 13  1  0  0  0  0
  5  4  1  0  0  0  0
  5 12  1  0  0  0  0
  6  5  2  0  0  0  0
  7  1  1  0  0  0  0
  8  2  1  0  0  0  0
  9 10  3  0  0  0  0
 11  6  1  0  0  0  0
M  RAD  1   3   2
M  END
