Coordinates from ORCA-job Ph-N2+-scan-d09-169-n800
 OpenBabel09191813423D

 13 12  0  0  0  0  0  0  0  0999 V2000
   -3.0871    0.1144   -1.2147 C   0  0  0  0  0  0  0  0  0  0  0  0
   -1.6535    0.0053   -1.1936 C   0  0  0  0  0  0  0  0  0  0  0  0
   -1.2816    0.8473   -0.2352 C   0  0  0  0  0  0  0  0  0  0  0  0
   -1.6538    1.7251    0.6904 C   0  0  0  0  0  0  0  0  0  0  0  0
   -3.0874    1.7559    0.5828 C   0  0  0  0  0  0  0  0  0  0  0  0
   -3.7700    0.9688   -0.3468 C   0  0  0  0  0  0  0  0  0  0  0  0
   -3.5985   -0.5104   -1.9507 H   0  0  0  0  0  0  0  0  0  0  0  0
   -1.0733   -0.6409   -1.8490 H   0  0  0  0  0  0  0  0  0  0  0  0
    7.5047    0.6684    0.9670 N   0  0  0  0  0  0  0  0  0  0  0  0
    8.5982    0.6568    1.1207 N   0  0  0  0  0  0  0  0  0  0  0  0
   -4.8578    1.0217   -0.3950 H   0  0  0  0  0  0  0  0  0  0  0  0
   -3.5993    2.4296    1.2740 H   0  0  0  0  0  0  0  0  0  0  0  0
   -1.0744    2.3157    1.3969 H   0  0  0  0  0  0  0  0  0  0  0  0
  1  2  2  0  0  0  0
  1  6  1  0  0  0  0
  2  3  1  0  0  0  0
  3  4  2  0  0  0  0
  4 13  1  0  0  0  0
  5  4  1  0  0  0  0
  5 12  1  0  0  0  0
  6  5  2  0  0  0  0
  7  1  1  0  0  0  0
  8  2  1  0  0  0  0
  9 10  3  0  0  0  0
 11  6  1  0  0  0  0
M  RAD  1   3   2
M  END
