Coordinates from ORCA-job Ph-N2+-scan-d09-169-n800
 OpenBabel09191813423D

 13 12  0  0  0  0  0  0  0  0999 V2000
   -2.0162    0.0976   -1.0888 C   0  0  0  0  0  0  0  0  0  0  0  0
   -0.6028    0.0043   -0.9925 C   0  0  0  0  0  0  0  0  0  0  0  0
   -0.1872    0.8392   -0.0168 C   0  0  0  0  0  0  0  0  0  0  0  0
   -0.7018    1.7146    0.8726 C   0  0  0  0  0  0  0  0  0  0  0  0
   -2.1114    1.7446    0.7068 C   0  0  0  0  0  0  0  0  0  0  0  0
   -2.7450    0.9511   -0.2546 C   0  0  0  0  0  0  0  0  0  0  0  0
   -2.5075   -0.5227   -1.8396 H   0  0  0  0  0  0  0  0  0  0  0  0
    0.0053   -0.6419   -1.6191 H   0  0  0  0  0  0  0  0  0  0  0  0
    1.9031    0.7487    0.1805 N   0  0  0  0  0  0  0  0  0  0  0  0
    2.9997    0.7035    0.2874 N   0  0  0  0  0  0  0  0  0  0  0  0
   -3.8292    0.9979   -0.3547 H   0  0  0  0  0  0  0  0  0  0  0  0
   -2.6762    2.4103    1.3610 H   0  0  0  0  0  0  0  0  0  0  0  0
   -0.1645    2.3106    1.6047 H   0  0  0  0  0  0  0  0  0  0  0  0
  1  2  2  0  0  0  0
  1  6  1  0  0  0  0
  2  3  1  0  0  0  0
  3  4  2  0  0  0  0
  4 13  1  0  0  0  0
  5  4  1  0  0  0  0
  5 12  1  0  0  0  0
  6  5  2  0  0  0  0
  7  1  1  0  0  0  0
  8  2  1  0  0  0  0
  9 10  3  0  0  0  0
 11  6  1  0  0  0  0
M  RAD  1   3   2
M  END
