Coordinates from ORCA-job Ph-N2+-scan-d09-169-n800
 OpenBabel09191813423D

 13 12  0  0  0  0  0  0  0  0999 V2000
   -3.4369    0.1193   -1.2548 C   0  0  0  0  0  0  0  0  0  0  0  0
   -2.0023    0.0222   -1.2471 C   0  0  0  0  0  0  0  0  0  0  0  0
   -1.6286    0.8678   -0.2926 C   0  0  0  0  0  0  0  0  0  0  0  0
   -1.9996    1.7431    0.6358 C   0  0  0  0  0  0  0  0  0  0  0  0
   -3.4344    1.7615    0.5420 C   0  0  0  0  0  0  0  0  0  0  0  0
   -4.1190    0.9681   -0.3807 C   0  0  0  0  0  0  0  0  0  0  0  0
   -3.9498   -0.5101   -1.9858 H   0  0  0  0  0  0  0  0  0  0  0  0
   -1.4229   -0.6196   -1.9075 H   0  0  0  0  0  0  0  0  0  0  0  0
    9.4196    0.6148    1.2101 N   0  0  0  0  0  0  0  0  0  0  0  0
   10.5120    0.6087    1.3719 N   0  0  0  0  0  0  0  0  0  0  0  0
   -5.2076    1.0117   -0.4189 H   0  0  0  0  0  0  0  0  0  0  0  0
   -3.9455    2.4312    1.2377 H   0  0  0  0  0  0  0  0  0  0  0  0
   -1.4186    2.3389    1.3367 H   0  0  0  0  0  0  0  0  0  0  0  0
  1  2  2  0  0  0  0
  1  6  1  0  0  0  0
  2  3  1  0  0  0  0
  3  4  2  0  0  0  0
  4 13  1  0  0  0  0
  5  4  1  0  0  0  0
  5 12  1  0  0  0  0
  6  5  2  0  0  0  0
  7  1  1  0  0  0  0
  8  2  1  0  0  0  0
  9 10  3  0  0  0  0
 11  6  1  0  0  0  0
M  RAD  1   3   2
M  END
