Coordinates from ORCA-job Ph-N2+-scan-d09-169-n800
 OpenBabel09191813423D

 13 12  0  0  0  0  0  0  0  0999 V2000
   -2.6668    0.1100   -1.1631 C   0  0  0  0  0  0  0  0  0  0  0  0
   -1.2354   -0.0249   -1.1470 C   0  0  0  0  0  0  0  0  0  0  0  0
   -0.8452    0.8079   -0.1879 C   0  0  0  0  0  0  0  0  0  0  0  0
   -1.1984    1.6901    0.7409 C   0  0  0  0  0  0  0  0  0  0  0  0
   -2.6315    1.7470    0.6382 C   0  0  0  0  0  0  0  0  0  0  0  0
   -3.3314    0.9746   -0.2910 C   0  0  0  0  0  0  0  0  0  0  0  0
   -3.1917   -0.5040   -1.8987 H   0  0  0  0  0  0  0  0  0  0  0  0
   -0.6686   -0.6798   -1.8055 H   0  0  0  0  0  0  0  0  0  0  0  0
    5.0973    0.7560    0.6843 N   0  0  0  0  0  0  0  0  0  0  0  0
    6.1913    0.7374    0.8328 N   0  0  0  0  0  0  0  0  0  0  0  0
   -4.4181    1.0472   -0.3355 H   0  0  0  0  0  0  0  0  0  0  0  0
   -3.1292    2.4278    1.3327 H   0  0  0  0  0  0  0  0  0  0  0  0
   -0.6060    2.2685    1.4467 H   0  0  0  0  0  0  0  0  0  0  0  0
  1  2  2  0  0  0  0
  1  6  1  0  0  0  0
  2  3  1  0  0  0  0
  3  4  2  0  0  0  0
  4 13  1  0  0  0  0
  5  4  1  0  0  0  0
  5 12  1  0  0  0  0
  6  5  2  0  0  0  0
  7  1  1  0  0  0  0
  8  2  1  0  0  0  0
  9 10  3  0  0  0  0
 11  6  1  0  0  0  0
M  RAD  1   3   2
M  END
