Coordinates from ORCA-job Ph-N2+-scan-d09-169-n800
 OpenBabel09191813423D

 13 12  0  0  0  0  0  0  0  0999 V2000
   -2.2037    0.1049   -1.1061 C   0  0  0  0  0  0  0  0  0  0  0  0
   -0.7729    0.0005   -1.0271 C   0  0  0  0  0  0  0  0  0  0  0  0
   -0.4382    0.8441   -0.0559 C   0  0  0  0  0  0  0  0  0  0  0  0
   -0.8544    1.7219    0.8518 C   0  0  0  0  0  0  0  0  0  0  0  0
   -2.2813    1.7488    0.6878 C   0  0  0  0  0  0  0  0  0  0  0  0
   -2.9238    0.9582   -0.2675 C   0  0  0  0  0  0  0  0  0  0  0  0
   -2.6851   -0.5216   -1.8603 H   0  0  0  0  0  0  0  0  0  0  0  0
   -0.1640   -0.6444   -1.6567 H   0  0  0  0  0  0  0  0  0  0  0  0
    2.8643    0.7199    0.2913 N   0  0  0  0  0  0  0  0  0  0  0  0
    3.9605    0.6828    0.4144 N   0  0  0  0  0  0  0  0  0  0  0  0
   -4.0088    1.0073   -0.3592 H   0  0  0  0  0  0  0  0  0  0  0  0
   -2.8237    2.4214    1.3561 H   0  0  0  0  0  0  0  0  0  0  0  0
   -0.3026    2.3140    1.5782 H   0  0  0  0  0  0  0  0  0  0  0  0
  1  2  2  0  0  0  0
  1  6  1  0  0  0  0
  2  3  1  0  0  0  0
  3  4  2  0  0  0  0
  4 13  1  0  0  0  0
  5  4  1  0  0  0  0
  5 12  1  0  0  0  0
  6  5  2  0  0  0  0
  7  1  1  0  0  0  0
  8  2  1  0  0  0  0
  9 10  3  0  0  0  0
 11  6  1  0  0  0  0
M  RAD  1   3   2
M  END
