Coordinates from ORCA-job Ph-N2+-scan-d09-169-n800
 OpenBabel09191813423D

 13 12  0  0  0  0  0  0  0  0999 V2000
   -3.6953    0.1213   -1.2839 C   0  0  0  0  0  0  0  0  0  0  0  0
   -2.2598    0.0386   -1.2870 C   0  0  0  0  0  0  0  0  0  0  0  0
   -1.8873    0.8886   -0.3359 C   0  0  0  0  0  0  0  0  0  0  0  0
   -2.2599    1.7608    0.5947 C   0  0  0  0  0  0  0  0  0  0  0  0
   -3.6955    1.7652    0.5114 C   0  0  0  0  0  0  0  0  0  0  0  0
   -4.3791    0.9642   -0.4055 C   0  0  0  0  0  0  0  0  0  0  0  0
   -4.2075   -0.5136   -2.0107 H   0  0  0  0  0  0  0  0  0  0  0  0
   -1.6791   -0.5980   -1.9512 H   0  0  0  0  0  0  0  0  0  0  0  0
   10.8477    0.5714    1.3873 N   0  0  0  0  0  0  0  0  0  0  0  0
   11.9381    0.5687    1.5621 N   0  0  0  0  0  0  0  0  0  0  0  0
   -5.4684    0.9971   -0.4356 H   0  0  0  0  0  0  0  0  0  0  0  0
   -4.2079    2.4305    1.2102 H   0  0  0  0  0  0  0  0  0  0  0  0
   -1.6796    2.3628    1.2909 H   0  0  0  0  0  0  0  0  0  0  0  0
  1  6  1  0  0  0  0
  2  1  2  0  0  0  0
  2  3  1  0  0  0  0
  3  4  2  0  0  0  0
  4 13  1  0  0  0  0
  5  4  1  0  0  0  0
  5 12  1  0  0  0  0
  6  5  2  0  0  0  0
  7  1  1  0  0  0  0
  8  2  1  0  0  0  0
  9 10  3  0  0  0  0
 11  6  1  0  0  0  0
M  RAD  1   3   2
M  END
