Coordinates from ORCA-job Ph-N2+-scan-d09-169-n800
 OpenBabel09191813423D

 13 12  0  0  0  0  0  0  0  0999 V2000
   -2.6124    0.1098   -1.1564 C   0  0  0  0  0  0  0  0  0  0  0  0
   -1.1815   -0.0304   -1.1420 C   0  0  0  0  0  0  0  0  0  0  0  0
   -0.7873    0.8005   -0.1828 C   0  0  0  0  0  0  0  0  0  0  0  0
   -1.1362    1.6835    0.7467 C   0  0  0  0  0  0  0  0  0  0  0  0
   -2.5692    1.7457    0.6457 C   0  0  0  0  0  0  0  0  0  0  0  0
   -3.2729    0.9764   -0.2831 C   0  0  0  0  0  0  0  0  0  0  0  0
   -3.1404   -0.5020   -1.8917 H   0  0  0  0  0  0  0  0  0  0  0  0
   -0.6177   -0.6870   -1.8013 H   0  0  0  0  0  0  0  0  0  0  0  0
    4.7768    0.7698    0.6485 N   0  0  0  0  0  0  0  0  0  0  0  0
    5.8709    0.7510    0.7968 N   0  0  0  0  0  0  0  0  0  0  0  0
   -4.3594    1.0530   -0.3265 H   0  0  0  0  0  0  0  0  0  0  0  0
   -3.0637    2.4280    1.3410 H   0  0  0  0  0  0  0  0  0  0  0  0
   -0.5407    2.2594    1.4520 H   0  0  0  0  0  0  0  0  0  0  0  0
  1  2  2  0  0  0  0
  1  6  1  0  0  0  0
  2  3  1  0  0  0  0
  3  4  2  0  0  0  0
  4 13  1  0  0  0  0
  5  4  1  0  0  0  0
  5 12  1  0  0  0  0
  6  5  2  0  0  0  0
  7  1  1  0  0  0  0
  8  2  1  0  0  0  0
  9 10  3  0  0  0  0
 11  6  1  0  0  0  0
M  RAD  1   3   2
M  END
