Coordinates from ORCA-job Ph-N2+-scan-d09-169-n800
 OpenBabel09191813423D

 13 12  0  0  0  0  0  0  0  0999 V2000
   -4.0412    0.1269   -1.3248 C   0  0  0  0  0  0  0  0  0  0  0  0
   -2.6052    0.0537   -1.3375 C   0  0  0  0  0  0  0  0  0  0  0  0
   -2.2318    0.9067   -0.3894 C   0  0  0  0  0  0  0  0  0  0  0  0
   -2.6039    1.7768    0.5434 C   0  0  0  0  0  0  0  0  0  0  0  0
   -4.0400    1.7715    0.4699 C   0  0  0  0  0  0  0  0  0  0  0  0
   -4.7245    0.9656   -0.4419 C   0  0  0  0  0  0  0  0  0  0  0  0
   -4.5540   -0.5117   -2.0478 H   0  0  0  0  0  0  0  0  0  0  0  0
   -2.0247   -0.5794   -2.0053 H   0  0  0  0  0  0  0  0  0  0  0  0
   12.7458    0.5206    1.6275 N   0  0  0  0  0  0  0  0  0  0  0  0
   13.8349    0.5190    1.8102 N   0  0  0  0  0  0  0  0  0  0  0  0
   -5.8141    0.9913   -0.4646 H   0  0  0  0  0  0  0  0  0  0  0  0
   -4.5521    2.4338    1.1718 H   0  0  0  0  0  0  0  0  0  0  0  0
   -2.0229    2.3829    1.2354 H   0  0  0  0  0  0  0  0  0  0  0  0
  1  6  1  0  0  0  0
  2  1  2  0  0  0  0
  2  3  1  0  0  0  0
  3  4  2  0  0  0  0
  4 13  1  0  0  0  0
  5  4  1  0  0  0  0
  5 12  1  0  0  0  0
  6  5  2  0  0  0  0
  7  1  1  0  0  0  0
  8  2  1  0  0  0  0
  9 10  3  0  0  0  0
 11  6  1  0  0  0  0
M  RAD  1   3   2
M  END
