Coordinates from ORCA-job Ph-N2+-scan-d09-169-n800
 OpenBabel09191813423D

 13 12  0  0  0  0  0  0  0  0999 V2000
   -4.2441    0.1310   -1.3491 C   0  0  0  0  0  0  0  0  0  0  0  0
   -2.8080    0.0607   -1.3668 C   0  0  0  0  0  0  0  0  0  0  0  0
   -2.4333    0.9145   -0.4200 C   0  0  0  0  0  0  0  0  0  0  0  0
   -2.8038    1.7839    0.5142 C   0  0  0  0  0  0  0  0  0  0  0  0
   -4.2401    1.7756    0.4455 C   0  0  0  0  0  0  0  0  0  0  0  0
   -4.9262    0.9682   -0.4639 C   0  0  0  0  0  0  0  0  0  0  0  0
   -4.7582   -0.5087   -2.0704 H   0  0  0  0  0  0  0  0  0  0  0  0
   -2.2285   -0.5712   -2.0365 H   0  0  0  0  0  0  0  0  0  0  0  0
   13.8544    0.4923    1.7688 N   0  0  0  0  0  0  0  0  0  0  0  0
   14.9430    0.4915    1.9547 N   0  0  0  0  0  0  0  0  0  0  0  0
   -6.0159    0.9917   -0.4829 H   0  0  0  0  0  0  0  0  0  0  0  0
   -4.7512    2.4369    1.1491 H   0  0  0  0  0  0  0  0  0  0  0  0
   -2.2217    2.3911    1.2042 H   0  0  0  0  0  0  0  0  0  0  0  0
  1  6  1  0  0  0  0
  2  1  2  0  0  0  0
  2  3  1  0  0  0  0
  3  4  2  0  0  0  0
  4 13  1  0  0  0  0
  5  4  1  0  0  0  0
  5 12  1  0  0  0  0
  6  5  2  0  0  0  0
  7  1  1  0  0  0  0
  8  2  1  0  0  0  0
  9 10  3  0  0  0  0
 11  6  1  0  0  0  0
M  RAD  1   3   2
M  END
