Coordinates from ORCA-job Ph-N2+-scan-d09-169-n800
 OpenBabel09191813423D

 13 12  0  0  0  0  0  0  0  0999 V2000
   -3.6426    0.1207   -1.2782 C   0  0  0  0  0  0  0  0  0  0  0  0
   -2.2072    0.0360   -1.2780 C   0  0  0  0  0  0  0  0  0  0  0  0
   -1.8356    0.8855   -0.3262 C   0  0  0  0  0  0  0  0  0  0  0  0
   -2.2090    1.7581    0.6038 C   0  0  0  0  0  0  0  0  0  0  0  0
   -3.6444    1.7645    0.5172 C   0  0  0  0  0  0  0  0  0  0  0  0
   -4.3271    0.9645   -0.4012 C   0  0  0  0  0  0  0  0  0  0  0  0
   -4.1540   -0.5135   -2.0060 H   0  0  0  0  0  0  0  0  0  0  0  0
   -1.6259   -0.6015   -1.9409 H   0  0  0  0  0  0  0  0  0  0  0  0
   10.5623    0.5790    1.3505 N   0  0  0  0  0  0  0  0  0  0  0  0
   11.6530    0.5759    1.5234 N   0  0  0  0  0  0  0  0  0  0  0  0
   -5.4163    0.9989   -0.4336 H   0  0  0  0  0  0  0  0  0  0  0  0
   -4.1575    2.4305    1.2149 H   0  0  0  0  0  0  0  0  0  0  0  0
   -1.6295    2.3593    1.3012 H   0  0  0  0  0  0  0  0  0  0  0  0
  1  2  2  0  0  0  0
  1  6  1  0  0  0  0
  2  3  1  0  0  0  0
  3  4  2  0  0  0  0
  4 13  1  0  0  0  0
  5  4  1  0  0  0  0
  5 12  1  0  0  0  0
  6  5  2  0  0  0  0
  7  1  1  0  0  0  0
  8  2  1  0  0  0  0
  9 10  3  0  0  0  0
 11  6  1  0  0  0  0
M  RAD  1   3   2
M  END
