Coordinates from ORCA-job Ph-N2+-scan-d09-169-n800
 OpenBabel09191813423D

 13 12  0  0  0  0  0  0  0  0999 V2000
   -2.5132    0.1086   -1.1443 C   0  0  0  0  0  0  0  0  0  0  0  0
   -1.0826   -0.0330   -1.1262 C   0  0  0  0  0  0  0  0  0  0  0  0
   -0.6899    0.7974   -0.1660 C   0  0  0  0  0  0  0  0  0  0  0  0
   -1.0404    1.6808    0.7626 C   0  0  0  0  0  0  0  0  0  0  0  0
   -2.4729    1.7445    0.6580 C   0  0  0  0  0  0  0  0  0  0  0  0
   -3.1750    0.9759   -0.2726 C   0  0  0  0  0  0  0  0  0  0  0  0
   -3.0401   -0.5025   -1.8808 H   0  0  0  0  0  0  0  0  0  0  0  0
   -0.5176   -0.6902   -1.7839 H   0  0  0  0  0  0  0  0  0  0  0  0
    4.2397    0.7802    0.5758 N   0  0  0  0  0  0  0  0  0  0  0  0
    5.3340    0.7591    0.7218 N   0  0  0  0  0  0  0  0  0  0  0  0
   -4.2613    1.0537   -0.3188 H   0  0  0  0  0  0  0  0  0  0  0  0
   -2.9686    2.4272    1.3520 H   0  0  0  0  0  0  0  0  0  0  0  0
   -0.4456    2.2559    1.4691 H   0  0  0  0  0  0  0  0  0  0  0  0
  1  2  2  0  0  0  0
  1  6  1  0  0  0  0
  2  3  1  0  0  0  0
  3  4  2  0  0  0  0
  4 13  1  0  0  0  0
  5  4  1  0  0  0  0
  5 12  1  0  0  0  0
  6  5  2  0  0  0  0
  7  1  1  0  0  0  0
  8  2  1  0  0  0  0
  9 10  3  0  0  0  0
 11  6  1  0  0  0  0
M  RAD  1   3   2
M  END
