Coordinates from ORCA-job Ph-N2+-scan-d09-169-n800
 OpenBabel09191813423D

 13 12  0  0  0  0  0  0  0  0999 V2000
   -2.8698    0.1115   -1.1880 C   0  0  0  0  0  0  0  0  0  0  0  0
   -1.4369   -0.0074   -1.1678 C   0  0  0  0  0  0  0  0  0  0  0  0
   -1.0588    0.8311   -0.2088 C   0  0  0  0  0  0  0  0  0  0  0  0
   -1.4245    1.7106    0.7176 C   0  0  0  0  0  0  0  0  0  0  0  0
   -2.8579    1.7514    0.6109 C   0  0  0  0  0  0  0  0  0  0  0  0
   -3.5464    0.9698   -0.3190 C   0  0  0  0  0  0  0  0  0  0  0  0
   -3.3858   -0.5092   -1.9243 H   0  0  0  0  0  0  0  0  0  0  0  0
   -0.8614   -0.6570   -1.8239 H   0  0  0  0  0  0  0  0  0  0  0  0
    6.2767    0.7084    0.8184 N   0  0  0  0  0  0  0  0  0  0  0  0
    7.3703    0.6939    0.9712 N   0  0  0  0  0  0  0  0  0  0  0  0
   -4.6338    1.0302   -0.3667 H   0  0  0  0  0  0  0  0  0  0  0  0
   -3.3649    2.4278    1.3030 H   0  0  0  0  0  0  0  0  0  0  0  0
   -0.8406    2.2967    1.4243 H   0  0  0  0  0  0  0  0  0  0  0  0
  1  2  2  0  0  0  0
  1  6  1  0  0  0  0
  2  3  1  0  0  0  0
  3  4  2  0  0  0  0
  4 13  1  0  0  0  0
  5  4  1  0  0  0  0
  5 12  1  0  0  0  0
  6  5  2  0  0  0  0
  7  1  1  0  0  0  0
  8  2  1  0  0  0  0
  9 10  3  0  0  0  0
 11  6  1  0  0  0  0
M  RAD  1   3   2
M  END
