Coordinates from ORCA-job Ph-N2+-scan-d09-169-n800
 OpenBabel09191813423D

 13 12  0  0  0  0  0  0  0  0999 V2000
   -3.6456    0.1207   -1.2785 C   0  0  0  0  0  0  0  0  0  0  0  0
   -2.2101    0.0361   -1.2784 C   0  0  0  0  0  0  0  0  0  0  0  0
   -1.8387    0.8857   -0.3266 C   0  0  0  0  0  0  0  0  0  0  0  0
   -2.2122    1.7583    0.6034 C   0  0  0  0  0  0  0  0  0  0  0  0
   -3.6475    1.7645    0.5168 C   0  0  0  0  0  0  0  0  0  0  0  0
   -4.3302    0.9645   -0.4016 C   0  0  0  0  0  0  0  0  0  0  0  0
   -4.1570   -0.5135   -2.0064 H   0  0  0  0  0  0  0  0  0  0  0  0
   -1.6288   -0.6013   -1.9413 H   0  0  0  0  0  0  0  0  0  0  0  0
   10.5791    0.5784    1.3525 N   0  0  0  0  0  0  0  0  0  0  0  0
   11.6698    0.5755    1.5255 N   0  0  0  0  0  0  0  0  0  0  0  0
   -5.4193    0.9988   -0.4341 H   0  0  0  0  0  0  0  0  0  0  0  0
   -4.1607    2.4305    1.2145 H   0  0  0  0  0  0  0  0  0  0  0  0
   -1.6327    2.3595    1.3008 H   0  0  0  0  0  0  0  0  0  0  0  0
  1  2  2  0  0  0  0
  1  6  1  0  0  0  0
  2  3  1  0  0  0  0
  3  4  2  0  0  0  0
  4 13  1  0  0  0  0
  5  4  1  0  0  0  0
  5 12  1  0  0  0  0
  6  5  2  0  0  0  0
  7  1  1  0  0  0  0
  8  2  1  0  0  0  0
  9 10  3  0  0  0  0
 11  6  1  0  0  0  0
M  RAD  1   3   2
M  END
