Coordinates from ORCA-job Ph-N2+-scan-d09-169-n800
 OpenBabel09191813423D

 13 12  0  0  0  0  0  0  0  0999 V2000
   -3.0358    0.1136   -1.2084 C   0  0  0  0  0  0  0  0  0  0  0  0
   -1.6023    0.0030   -1.1872 C   0  0  0  0  0  0  0  0  0  0  0  0
   -1.2297    0.8445   -0.2286 C   0  0  0  0  0  0  0  0  0  0  0  0
   -1.6011    1.7225    0.6970 C   0  0  0  0  0  0  0  0  0  0  0  0
   -3.0347    1.7549    0.5893 C   0  0  0  0  0  0  0  0  0  0  0  0
   -3.7180    0.9686   -0.3405 C   0  0  0  0  0  0  0  0  0  0  0  0
   -3.5478   -0.5106   -1.9445 H   0  0  0  0  0  0  0  0  0  0  0  0
   -1.0228   -0.6438   -1.8425 H   0  0  0  0  0  0  0  0  0  0  0  0
    7.2188    0.6769    0.9321 N   0  0  0  0  0  0  0  0  0  0  0  0
    8.3125    0.6643    1.0848 N   0  0  0  0  0  0  0  0  0  0  0  0
   -4.8057    1.0226   -0.3889 H   0  0  0  0  0  0  0  0  0  0  0  0
   -3.5460    2.4290    1.2805 H   0  0  0  0  0  0  0  0  0  0  0  0
   -1.0212    2.3124    1.4037 H   0  0  0  0  0  0  0  0  0  0  0  0
  1  2  2  0  0  0  0
  1  6  1  0  0  0  0
  2  3  1  0  0  0  0
  3  4  2  0  0  0  0
  4 13  1  0  0  0  0
  5  4  1  0  0  0  0
  5 12  1  0  0  0  0
  6  5  2  0  0  0  0
  7  1  1  0  0  0  0
  8  2  1  0  0  0  0
  9 10  3  0  0  0  0
 11  6  1  0  0  0  0
M  RAD  1   3   2
M  END
