Coordinates from ORCA-job Ph-N2+-scan-d09-169-n800
 OpenBabel09191813433D

 13 12  0  0  0  0  0  0  0  0999 V2000
   -4.2872    0.1320   -1.3543 C   0  0  0  0  0  0  0  0  0  0  0  0
   -2.8510    0.0621   -1.3730 C   0  0  0  0  0  0  0  0  0  0  0  0
   -2.4759    0.9160   -0.4264 C   0  0  0  0  0  0  0  0  0  0  0  0
   -2.8463    1.7854    0.5078 C   0  0  0  0  0  0  0  0  0  0  0  0
   -4.2826    1.7765    0.4404 C   0  0  0  0  0  0  0  0  0  0  0  0
   -4.9689    0.9689   -0.4686 C   0  0  0  0  0  0  0  0  0  0  0  0
   -4.8014   -0.5078   -2.0752 H   0  0  0  0  0  0  0  0  0  0  0  0
   -2.2718   -0.5697   -2.0430 H   0  0  0  0  0  0  0  0  0  0  0  0
   14.0895    0.4864    1.7988 N   0  0  0  0  0  0  0  0  0  0  0  0
   15.1781    0.4856    1.9852 N   0  0  0  0  0  0  0  0  0  0  0  0
   -6.0587    0.9919   -0.4869 H   0  0  0  0  0  0  0  0  0  0  0  0
   -4.7935    2.4376    1.1445 H   0  0  0  0  0  0  0  0  0  0  0  0
   -2.2639    2.3929    1.1974 H   0  0  0  0  0  0  0  0  0  0  0  0
  1  6  1  0  0  0  0
  2  1  2  0  0  0  0
  2  3  1  0  0  0  0
  3  4  2  0  0  0  0
  4 13  1  0  0  0  0
  5  4  1  0  0  0  0
  5 12  1  0  0  0  0
  6  5  2  0  0  0  0
  7  1  1  0  0  0  0
  8  2  1  0  0  0  0
  9 10  3  0  0  0  0
 11  6  1  0  0  0  0
M  RAD  1   3   2
M  END
