Coordinates from ORCA-job Ph-N2+-scan-d09-169-n800
 OpenBabel09191813423D

 13 13  0  0  0  0  0  0  0  0999 V2000
   -1.8895    0.0877   -1.0815 C   0  0  0  0  0  0  0  0  0  0  0  0
   -0.5217    0.0129   -0.9720 C   0  0  0  0  0  0  0  0  0  0  0  0
    0.2007    0.8225    0.0207 C   0  0  0  0  0  0  0  0  0  0  0  0
   -0.6203    1.6999    0.8685 C   0  0  0  0  0  0  0  0  0  0  0  0
   -1.9860    1.7440    0.7232 C   0  0  0  0  0  0  0  0  0  0  0  0
   -2.6263    0.9456   -0.2432 C   0  0  0  0  0  0  0  0  0  0  0  0
   -2.4009   -0.5234   -1.8249 H   0  0  0  0  0  0  0  0  0  0  0  0
    0.0858   -0.6367   -1.6035 H   0  0  0  0  0  0  0  0  0  0  0  0
    1.1756    0.7799    0.1124 N   0  0  0  0  0  0  0  0  0  0  0  0
    2.3166    0.7305    0.2200 N   0  0  0  0  0  0  0  0  0  0  0  0
   -3.7118    0.9920   -0.3437 H   0  0  0  0  0  0  0  0  0  0  0  0
   -2.5706    2.4026    1.3653 H   0  0  0  0  0  0  0  0  0  0  0  0
   -0.0854    2.3002    1.6055 H   0  0  0  0  0  0  0  0  0  0  0  0
  1  2  2  0  0  0  0
  1  6  1  0  0  0  0
  2  3  1  0  0  0  0
  3  9  1  0  0  0  0
  3  4  2  0  0  0  0
  4 13  1  0  0  0  0
  5  4  1  0  0  0  0
  5 12  1  0  0  0  0
  6  5  2  0  0  0  0
  7  1  1  0  0  0  0
  8  2  1  0  0  0  0
  9 10  1  0  0  0  0
 11  6  1  0  0  0  0
M  RAD  2   9   2  10   3
M  END
