Coordinates from ORCA-job Ph-N2+-scan-d09-169-n800
 OpenBabel09191813433D

 13 12  0  0  0  0  0  0  0  0999 V2000
   -4.2718    0.1316   -1.3524 C   0  0  0  0  0  0  0  0  0  0  0  0
   -2.8357    0.0616   -1.3707 C   0  0  0  0  0  0  0  0  0  0  0  0
   -2.4607    0.9155   -0.4240 C   0  0  0  0  0  0  0  0  0  0  0  0
   -2.8311    1.7848    0.5103 C   0  0  0  0  0  0  0  0  0  0  0  0
   -4.2675    1.7762    0.4421 C   0  0  0  0  0  0  0  0  0  0  0  0
   -4.9536    0.9687   -0.4670 C   0  0  0  0  0  0  0  0  0  0  0  0
   -4.7860   -0.5082   -2.0735 H   0  0  0  0  0  0  0  0  0  0  0  0
   -2.2563   -0.5702   -2.0406 H   0  0  0  0  0  0  0  0  0  0  0  0
   14.0055    0.4885    1.7880 N   0  0  0  0  0  0  0  0  0  0  0  0
   15.0941    0.4877    1.9743 N   0  0  0  0  0  0  0  0  0  0  0  0
   -6.0434    0.9919   -0.4856 H   0  0  0  0  0  0  0  0  0  0  0  0
   -4.7785    2.4374    1.1459 H   0  0  0  0  0  0  0  0  0  0  0  0
   -2.2489    2.3922    1.2001 H   0  0  0  0  0  0  0  0  0  0  0  0
  1  6  1  0  0  0  0
  2  1  2  0  0  0  0
  2  3  1  0  0  0  0
  3  4  2  0  0  0  0
  4 13  1  0  0  0  0
  5  4  1  0  0  0  0
  5 12  1  0  0  0  0
  6  5  2  0  0  0  0
  7  1  1  0  0  0  0
  8  2  1  0  0  0  0
  9 10  3  0  0  0  0
 11  6  1  0  0  0  0
M  RAD  1   3   2
M  END
