Coordinates from ORCA-job Ph-N2+-scan-d09-169-n800
 OpenBabel09191813423D

 13 13  0  0  0  0  0  0  0  0999 V2000
   -1.9399    0.0905   -1.0860 C   0  0  0  0  0  0  0  0  0  0  0  0
   -0.5537    0.0135   -0.9755 C   0  0  0  0  0  0  0  0  0  0  0  0
    0.0253    0.8302    0.0036 C   0  0  0  0  0  0  0  0  0  0  0  0
   -0.6521    1.7016    0.8657 C   0  0  0  0  0  0  0  0  0  0  0  0
   -2.0361    1.7454    0.7183 C   0  0  0  0  0  0  0  0  0  0  0  0
   -2.6700    0.9478   -0.2476 C   0  0  0  0  0  0  0  0  0  0  0  0
   -2.4528   -0.5194   -1.8282 H   0  0  0  0  0  0  0  0  0  0  0  0
    0.0463   -0.6377   -1.6082 H   0  0  0  0  0  0  0  0  0  0  0  0
    1.4982    0.7663    0.1424 N   0  0  0  0  0  0  0  0  0  0  0  0
    2.6020    0.7191    0.2479 N   0  0  0  0  0  0  0  0  0  0  0  0
   -3.7549    0.9944   -0.3480 H   0  0  0  0  0  0  0  0  0  0  0  0
   -2.6218    2.4026    1.3596 H   0  0  0  0  0  0  0  0  0  0  0  0
   -0.1242    2.3033    1.6030 H   0  0  0  0  0  0  0  0  0  0  0  0
  1  2  2  0  0  0  0
  1  6  1  0  0  0  0
  2  3  1  0  0  0  0
  3  9  1  0  0  0  0
  3  4  2  0  0  0  0
  4 13  1  0  0  0  0
  5  4  1  0  0  0  0
  5 12  1  0  0  0  0
  6  5  2  0  0  0  0
  7  1  1  0  0  0  0
  8  2  1  0  0  0  0
  9 10  1  0  0  0  0
 11  6  1  0  0  0  0
M  RAD  2   9   2  10   3
M  END
