Coordinates from ORCA-job Ph-N2+-scan-d09-169-n800
 OpenBabel09191813423D

 13 12  0  0  0  0  0  0  0  0999 V2000
   -2.6611    0.1100   -1.1624 C   0  0  0  0  0  0  0  0  0  0  0  0
   -1.2297   -0.0255   -1.1465 C   0  0  0  0  0  0  0  0  0  0  0  0
   -0.8391    0.8071   -0.1874 C   0  0  0  0  0  0  0  0  0  0  0  0
   -1.1919    1.6894    0.7415 C   0  0  0  0  0  0  0  0  0  0  0  0
   -2.6249    1.7468    0.6390 C   0  0  0  0  0  0  0  0  0  0  0  0
   -3.3252    0.9748   -0.2901 C   0  0  0  0  0  0  0  0  0  0  0  0
   -3.1863   -0.5037   -1.8980 H   0  0  0  0  0  0  0  0  0  0  0  0
   -0.6633   -0.6806   -1.8051 H   0  0  0  0  0  0  0  0  0  0  0  0
    5.0635    0.7575    0.6806 N   0  0  0  0  0  0  0  0  0  0  0  0
    6.1576    0.7389    0.8291 N   0  0  0  0  0  0  0  0  0  0  0  0
   -4.4119    1.0479   -0.3346 H   0  0  0  0  0  0  0  0  0  0  0  0
   -3.1223    2.4278    1.3336 H   0  0  0  0  0  0  0  0  0  0  0  0
   -0.5991    2.2675    1.4472 H   0  0  0  0  0  0  0  0  0  0  0  0
  1  2  2  0  0  0  0
  1  6  1  0  0  0  0
  2  3  1  0  0  0  0
  3  4  2  0  0  0  0
  4 13  1  0  0  0  0
  5  4  1  0  0  0  0
  5 12  1  0  0  0  0
  6  5  2  0  0  0  0
  7  1  1  0  0  0  0
  8  2  1  0  0  0  0
  9 10  3  0  0  0  0
 11  6  1  0  0  0  0
M  RAD  1   3   2
M  END
