Coordinates from ORCA-job Ph-N2+-scan-d09-169-n800
 OpenBabel09191813423D

 13 12  0  0  0  0  0  0  0  0999 V2000
   -2.5326    0.1089   -1.1466 C   0  0  0  0  0  0  0  0  0  0  0  0
   -1.1019   -0.0332   -1.1299 C   0  0  0  0  0  0  0  0  0  0  0  0
   -0.7082    0.7971   -0.1700 C   0  0  0  0  0  0  0  0  0  0  0  0
   -1.0574    1.6805    0.7590 C   0  0  0  0  0  0  0  0  0  0  0  0
   -2.4901    1.7446    0.6557 C   0  0  0  0  0  0  0  0  0  0  0  0
   -3.1933    0.9763   -0.2743 C   0  0  0  0  0  0  0  0  0  0  0  0
   -3.0603   -0.5020   -1.8827 H   0  0  0  0  0  0  0  0  0  0  0  0
   -0.5377   -0.6904   -1.7882 H   0  0  0  0  0  0  0  0  0  0  0  0
    4.3401    0.7796    0.5906 N   0  0  0  0  0  0  0  0  0  0  0  0
    5.4343    0.7590    0.7373 N   0  0  0  0  0  0  0  0  0  0  0  0
   -4.2796    1.0544   -0.3194 H   0  0  0  0  0  0  0  0  0  0  0  0
   -2.9849    2.4274    1.3502 H   0  0  0  0  0  0  0  0  0  0  0  0
   -0.4620    2.2555    1.4651 H   0  0  0  0  0  0  0  0  0  0  0  0
  1  2  2  0  0  0  0
  1  6  1  0  0  0  0
  2  3  1  0  0  0  0
  3  4  2  0  0  0  0
  4 13  1  0  0  0  0
  5  4  1  0  0  0  0
  5 12  1  0  0  0  0
  6  5  2  0  0  0  0
  7  1  1  0  0  0  0
  8  2  1  0  0  0  0
  9 10  3  0  0  0  0
 11  6  1  0  0  0  0
M  RAD  1   3   2
M  END
