Coordinates from ORCA-job Ph-N2+-scan-d09-169-n800
 OpenBabel09191813423D

 13 12  0  0  0  0  0  0  0  0999 V2000
   -3.8819    0.1242   -1.3058 C   0  0  0  0  0  0  0  0  0  0  0  0
   -2.4461    0.0473   -1.3147 C   0  0  0  0  0  0  0  0  0  0  0  0
   -2.0732    0.8991   -0.3654 C   0  0  0  0  0  0  0  0  0  0  0  0
   -2.4457    1.7701    0.5664 C   0  0  0  0  0  0  0  0  0  0  0  0
   -3.8815    1.7684    0.4892 C   0  0  0  0  0  0  0  0  0  0  0  0
   -4.5656    0.9644   -0.4246 C   0  0  0  0  0  0  0  0  0  0  0  0
   -4.3944   -0.5130   -2.0303 H   0  0  0  0  0  0  0  0  0  0  0  0
   -1.8655   -0.5872   -1.9810 H   0  0  0  0  0  0  0  0  0  0  0  0
   11.8723    0.5435    1.5167 N   0  0  0  0  0  0  0  0  0  0  0  0
   12.9619    0.5416    1.6966 N   0  0  0  0  0  0  0  0  0  0  0  0
   -5.6551    0.9927   -0.4503 H   0  0  0  0  0  0  0  0  0  0  0  0
   -4.3939    2.4318    1.1900 H   0  0  0  0  0  0  0  0  0  0  0  0
   -1.8650    2.3747    1.2600 H   0  0  0  0  0  0  0  0  0  0  0  0
  1  6  1  0  0  0  0
  2  1  2  0  0  0  0
  2  3  1  0  0  0  0
  3  4  2  0  0  0  0
  4 13  1  0  0  0  0
  5  4  1  0  0  0  0
  5 12  1  0  0  0  0
  6  5  2  0  0  0  0
  7  1  1  0  0  0  0
  8  2  1  0  0  0  0
  9 10  3  0  0  0  0
 11  6  1  0  0  0  0
M  RAD  1   3   2
M  END
