Coordinates from ORCA-job Ph-N2+-scan-d09-169-n800
 OpenBabel09191813423D

 13 12  0  0  0  0  0  0  0  0999 V2000
   -4.1678    0.1294   -1.3397 C   0  0  0  0  0  0  0  0  0  0  0  0
   -2.7318    0.0581   -1.3565 C   0  0  0  0  0  0  0  0  0  0  0  0
   -2.3569    0.9115   -0.4094 C   0  0  0  0  0  0  0  0  0  0  0  0
   -2.7274    1.7811    0.5245 C   0  0  0  0  0  0  0  0  0  0  0  0
   -4.1637    1.7740    0.4550 C   0  0  0  0  0  0  0  0  0  0  0  0
   -4.8498    0.9672   -0.4549 C   0  0  0  0  0  0  0  0  0  0  0  0
   -4.6819   -0.5098   -2.0613 H   0  0  0  0  0  0  0  0  0  0  0  0
   -2.1523   -0.5743   -2.0259 H   0  0  0  0  0  0  0  0  0  0  0  0
   13.4343    0.5033    1.7159 N   0  0  0  0  0  0  0  0  0  0  0  0
   14.5231    0.5021    1.9005 N   0  0  0  0  0  0  0  0  0  0  0  0
   -5.9395    0.9915   -0.4746 H   0  0  0  0  0  0  0  0  0  0  0  0
   -4.6747    2.4356    1.1583 H   0  0  0  0  0  0  0  0  0  0  0  0
   -2.1452    2.3878    1.2149 H   0  0  0  0  0  0  0  0  0  0  0  0
  1  6  1  0  0  0  0
  2  1  2  0  0  0  0
  2  3  1  0  0  0  0
  3  4  2  0  0  0  0
  4 13  1  0  0  0  0
  5  4  1  0  0  0  0
  5 12  1  0  0  0  0
  6  5  2  0  0  0  0
  7  1  1  0  0  0  0
  8  2  1  0  0  0  0
  9 10  3  0  0  0  0
 11  6  1  0  0  0  0
M  RAD  1   3   2
M  END
