Coordinates from ORCA-job Ph-N2+-scan-d09-169-n800
 OpenBabel09191813423D

 13 12  0  0  0  0  0  0  0  0999 V2000
   -3.5923    0.1202   -1.2718 C   0  0  0  0  0  0  0  0  0  0  0  0
   -2.1570    0.0329   -1.2723 C   0  0  0  0  0  0  0  0  0  0  0  0
   -1.7837    0.8815   -0.3204 C   0  0  0  0  0  0  0  0  0  0  0  0
   -2.1553    1.7547    0.6098 C   0  0  0  0  0  0  0  0  0  0  0  0
   -3.5907    1.7634    0.5241 C   0  0  0  0  0  0  0  0  0  0  0  0
   -4.2751    0.9649   -0.3943 C   0  0  0  0  0  0  0  0  0  0  0  0
   -4.1051   -0.5129   -1.9997 H   0  0  0  0  0  0  0  0  0  0  0  0
   -1.5771   -0.6055   -1.9356 H   0  0  0  0  0  0  0  0  0  0  0  0
   10.2762    0.5882    1.3168 N   0  0  0  0  0  0  0  0  0  0  0  0
   11.3673    0.5845    1.4874 N   0  0  0  0  0  0  0  0  0  0  0  0
   -5.3642    1.0011   -0.4264 H   0  0  0  0  0  0  0  0  0  0  0  0
   -4.1024    2.4300    1.2223 H   0  0  0  0  0  0  0  0  0  0  0  0
   -1.5744    2.3547    1.3071 H   0  0  0  0  0  0  0  0  0  0  0  0
  1  6  1  0  0  0  0
  2  1  2  0  0  0  0
  2  3  1  0  0  0  0
  3  4  2  0  0  0  0
  4 13  1  0  0  0  0
  5  4  1  0  0  0  0
  5 12  1  0  0  0  0
  6  5  2  0  0  0  0
  7  1  1  0  0  0  0
  8  2  1  0  0  0  0
  9 10  3  0  0  0  0
 11  6  1  0  0  0  0
M  RAD  1   3   2
M  END
