Coordinates from ORCA-job Ph-N2+-scan-d09-169-n800
 OpenBabel09191813423D

 13 12  0  0  0  0  0  0  0  0999 V2000
   -2.4329    0.1074   -1.1345 C   0  0  0  0  0  0  0  0  0  0  0  0
   -1.0020   -0.0278   -1.1051 C   0  0  0  0  0  0  0  0  0  0  0  0
   -0.6204    0.8052   -0.1426 C   0  0  0  0  0  0  0  0  0  0  0  0
   -0.9822    1.6878    0.7824 C   0  0  0  0  0  0  0  0  0  0  0  0
   -2.4141    1.7450    0.6666 C   0  0  0  0  0  0  0  0  0  0  0  0
   -3.1055    0.9724   -0.2688 C   0  0  0  0  0  0  0  0  0  0  0  0
   -2.9516   -0.5064   -1.8746 H   0  0  0  0  0  0  0  0  0  0  0  0
   -0.4288   -0.6828   -1.7577 H   0  0  0  0  0  0  0  0  0  0  0  0
    3.8572    0.7718    0.5065 N   0  0  0  0  0  0  0  0  0  0  0  0
    4.9518    0.7480    0.6492 N   0  0  0  0  0  0  0  0  0  0  0  0
   -4.1917    1.0452   -0.3234 H   0  0  0  0  0  0  0  0  0  0  0  0
   -2.9183    2.4261    1.3560 H   0  0  0  0  0  0  0  0  0  0  0  0
   -0.3952    2.2660    1.4927 H   0  0  0  0  0  0  0  0  0  0  0  0
  1  2  2  0  0  0  0
  1  6  1  0  0  0  0
  2  3  1  0  0  0  0
  3  4  2  0  0  0  0
  4 13  1  0  0  0  0
  5  4  1  0  0  0  0
  5 12  1  0  0  0  0
  6  5  2  0  0  0  0
  7  1  1  0  0  0  0
  8  2  1  0  0  0  0
  9 10  3  0  0  0  0
 11  6  1  0  0  0  0
M  RAD  1   3   2
M  END
