Coordinates from ORCA-job Ph-N2+-scan-d09-169-n800
 OpenBabel09191813423D

 13 12  0  0  0  0  0  0  0  0999 V2000
   -2.5066    0.1085   -1.1435 C   0  0  0  0  0  0  0  0  0  0  0  0
   -1.0760   -0.0328   -1.1247 C   0  0  0  0  0  0  0  0  0  0  0  0
   -0.6838    0.7977   -0.1644 C   0  0  0  0  0  0  0  0  0  0  0  0
   -1.0349    1.6810    0.7640 C   0  0  0  0  0  0  0  0  0  0  0  0
   -2.4674    1.7445    0.6587 C   0  0  0  0  0  0  0  0  0  0  0  0
   -3.1690    0.9757   -0.2722 C   0  0  0  0  0  0  0  0  0  0  0  0
   -3.0331   -0.5027   -1.8802 H   0  0  0  0  0  0  0  0  0  0  0  0
   -0.5106   -0.6899   -1.7822 H   0  0  0  0  0  0  0  0  0  0  0  0
    4.2063    0.7801    0.5705 N   0  0  0  0  0  0  0  0  0  0  0  0
    5.3006    0.7588    0.7162 N   0  0  0  0  0  0  0  0  0  0  0  0
   -4.2552    1.0533   -0.3187 H   0  0  0  0  0  0  0  0  0  0  0  0
   -2.9635    2.4271    1.3525 H   0  0  0  0  0  0  0  0  0  0  0  0
   -0.4405    2.2563    1.4707 H   0  0  0  0  0  0  0  0  0  0  0  0
  1  2  2  0  0  0  0
  1  6  1  0  0  0  0
  2  3  1  0  0  0  0
  3  4  2  0  0  0  0
  4 13  1  0  0  0  0
  5  4  1  0  0  0  0
  5 12  1  0  0  0  0
  6  5  2  0  0  0  0
  7  1  1  0  0  0  0
  8  2  1  0  0  0  0
  9 10  3  0  0  0  0
 11  6  1  0  0  0  0
M  RAD  1   3   2
M  END
