Coordinates from ORCA-job Ph-N2+-scan-d09-169-n800
 OpenBabel09191813423D

 13 12  0  0  0  0  0  0  0  0999 V2000
   -2.6782    0.1100   -1.1645 C   0  0  0  0  0  0  0  0  0  0  0  0
   -1.2467   -0.0238   -1.1480 C   0  0  0  0  0  0  0  0  0  0  0  0
   -0.8574    0.8094   -0.1889 C   0  0  0  0  0  0  0  0  0  0  0  0
   -1.2116    1.6915    0.7397 C   0  0  0  0  0  0  0  0  0  0  0  0
   -2.6447    1.7472    0.6366 C   0  0  0  0  0  0  0  0  0  0  0  0
   -3.3437    0.9742   -0.2926 C   0  0  0  0  0  0  0  0  0  0  0  0
   -3.2024   -0.5044   -1.9002 H   0  0  0  0  0  0  0  0  0  0  0  0
   -0.6793   -0.6783   -1.8063 H   0  0  0  0  0  0  0  0  0  0  0  0
    5.1647    0.7530    0.6917 N   0  0  0  0  0  0  0  0  0  0  0  0
    6.2588    0.7346    0.8404 N   0  0  0  0  0  0  0  0  0  0  0  0
   -4.4305    1.0460   -0.3375 H   0  0  0  0  0  0  0  0  0  0  0  0
   -3.1431    2.4278    1.3309 H   0  0  0  0  0  0  0  0  0  0  0  0
   -0.6198    2.2704    1.4456 H   0  0  0  0  0  0  0  0  0  0  0  0
  1  2  2  0  0  0  0
  1  6  1  0  0  0  0
  2  3  1  0  0  0  0
  3  4  2  0  0  0  0
  4 13  1  0  0  0  0
  5  4  1  0  0  0  0
  5 12  1  0  0  0  0
  6  5  2  0  0  0  0
  7  1  1  0  0  0  0
  8  2  1  0  0  0  0
  9 10  3  0  0  0  0
 11  6  1  0  0  0  0
M  RAD  1   3   2
M  END
