Coordinates from ORCA-job Ph-N2+-scan-d09-169-n800
 OpenBabel09191813423D

 13 12  0  0  0  0  0  0  0  0999 V2000
   -3.1203    0.1150   -1.2187 C   0  0  0  0  0  0  0  0  0  0  0  0
   -1.6866    0.0068   -1.1978 C   0  0  0  0  0  0  0  0  0  0  0  0
   -1.3152    0.8490   -0.2395 C   0  0  0  0  0  0  0  0  0  0  0  0
   -1.6878    1.7266    0.6860 C   0  0  0  0  0  0  0  0  0  0  0  0
   -3.1214    1.7567    0.5786 C   0  0  0  0  0  0  0  0  0  0  0  0
   -3.8037    0.9690   -0.3508 C   0  0  0  0  0  0  0  0  0  0  0  0
   -3.6314   -0.5101   -1.9547 H   0  0  0  0  0  0  0  0  0  0  0  0
   -1.1062   -0.6392   -1.8532 H   0  0  0  0  0  0  0  0  0  0  0  0
    7.6897    0.6630    0.9897 N   0  0  0  0  0  0  0  0  0  0  0  0
    8.7831    0.6520    1.1440 N   0  0  0  0  0  0  0  0  0  0  0  0
   -4.8915    1.0213   -0.3990 H   0  0  0  0  0  0  0  0  0  0  0  0
   -3.6337    2.4301    1.2698 H   0  0  0  0  0  0  0  0  0  0  0  0
   -1.1087    2.3176    1.3925 H   0  0  0  0  0  0  0  0  0  0  0  0
  1  2  2  0  0  0  0
  1  6  1  0  0  0  0
  2  3  1  0  0  0  0
  3  4  2  0  0  0  0
  4 13  1  0  0  0  0
  5  4  1  0  0  0  0
  5 12  1  0  0  0  0
  6  5  2  0  0  0  0
  7  1  1  0  0  0  0
  8  2  1  0  0  0  0
  9 10  3  0  0  0  0
 11  6  1  0  0  0  0
M  RAD  1   3   2
M  END
