Coordinates from ORCA-job Ph-N2+-scan-d09-169-n800
 OpenBabel09191813423D

 13 12  0  0  0  0  0  0  0  0999 V2000
   -4.0501    0.1271   -1.3259 C   0  0  0  0  0  0  0  0  0  0  0  0
   -2.6142    0.0541   -1.3386 C   0  0  0  0  0  0  0  0  0  0  0  0
   -2.2410    0.9071   -0.3905 C   0  0  0  0  0  0  0  0  0  0  0  0
   -2.6132    1.7772    0.5423 C   0  0  0  0  0  0  0  0  0  0  0  0
   -4.0493    1.7717    0.4687 C   0  0  0  0  0  0  0  0  0  0  0  0
   -4.7337    0.9657   -0.4432 C   0  0  0  0  0  0  0  0  0  0  0  0
   -4.5629   -0.5116   -2.0490 H   0  0  0  0  0  0  0  0  0  0  0  0
   -2.0336   -0.5790   -2.0063 H   0  0  0  0  0  0  0  0  0  0  0  0
   12.7963    0.5191    1.6337 N   0  0  0  0  0  0  0  0  0  0  0  0
   13.8854    0.5177    1.8166 N   0  0  0  0  0  0  0  0  0  0  0  0
   -5.8233    0.9912   -0.4659 H   0  0  0  0  0  0  0  0  0  0  0  0
   -4.5616    2.4340    1.1706 H   0  0  0  0  0  0  0  0  0  0  0  0
   -2.0324    2.3834    1.2343 H   0  0  0  0  0  0  0  0  0  0  0  0
  1  6  1  0  0  0  0
  2  1  2  0  0  0  0
  2  3  1  0  0  0  0
  3  4  2  0  0  0  0
  4 13  1  0  0  0  0
  5  4  1  0  0  0  0
  5 12  1  0  0  0  0
  6  5  2  0  0  0  0
  7  1  1  0  0  0  0
  8  2  1  0  0  0  0
  9 10  3  0  0  0  0
 11  6  1  0  0  0  0
M  RAD  1   3   2
M  END
