Coordinates from ORCA-job Ph-N2+-scan-d09-169-n800
 OpenBabel09191813423D

 13 12  0  0  0  0  0  0  0  0999 V2000
   -3.6894    0.1212   -1.2832 C   0  0  0  0  0  0  0  0  0  0  0  0
   -2.2539    0.0383   -1.2863 C   0  0  0  0  0  0  0  0  0  0  0  0
   -1.8812    0.8882   -0.3353 C   0  0  0  0  0  0  0  0  0  0  0  0
   -2.2536    1.7605    0.5954 C   0  0  0  0  0  0  0  0  0  0  0  0
   -3.6892    1.7651    0.5122 C   0  0  0  0  0  0  0  0  0  0  0  0
   -4.3730    0.9642   -0.4047 C   0  0  0  0  0  0  0  0  0  0  0  0
   -4.2017   -0.5136   -2.0099 H   0  0  0  0  0  0  0  0  0  0  0  0
   -1.6733   -0.5984   -1.9506 H   0  0  0  0  0  0  0  0  0  0  0  0
   10.8140    0.5724    1.3833 N   0  0  0  0  0  0  0  0  0  0  0  0
   11.9045    0.5697    1.5579 N   0  0  0  0  0  0  0  0  0  0  0  0
   -5.4622    0.9973   -0.4347 H   0  0  0  0  0  0  0  0  0  0  0  0
   -4.2015    2.4305    1.2110 H   0  0  0  0  0  0  0  0  0  0  0  0
   -1.6732    2.3623    1.2916 H   0  0  0  0  0  0  0  0  0  0  0  0
  1  6  1  0  0  0  0
  2  1  2  0  0  0  0
  2  3  1  0  0  0  0
  3  4  2  0  0  0  0
  4 13  1  0  0  0  0
  5  4  1  0  0  0  0
  5 12  1  0  0  0  0
  6  5  2  0  0  0  0
  7  1  1  0  0  0  0
  8  2  1  0  0  0  0
  9 10  3  0  0  0  0
 11  6  1  0  0  0  0
M  RAD  1   3   2
M  END
