Coordinates from ORCA-job Ph-N2+-scan-d09-169-n800
 OpenBabel09191813423D

 13 12  0  0  0  0  0  0  0  0999 V2000
   -2.9818    0.1127   -1.2018 C   0  0  0  0  0  0  0  0  0  0  0  0
   -1.5485    0.0002   -1.1805 C   0  0  0  0  0  0  0  0  0  0  0  0
   -1.1748    0.8410   -0.2218 C   0  0  0  0  0  0  0  0  0  0  0  0
   -1.5450    1.7194    0.7040 C   0  0  0  0  0  0  0  0  0  0  0  0
   -2.9785    1.7537    0.5962 C   0  0  0  0  0  0  0  0  0  0  0  0
   -3.6629    0.9685   -0.3337 C   0  0  0  0  0  0  0  0  0  0  0  0
   -3.4946   -0.5106   -1.9380 H   0  0  0  0  0  0  0  0  0  0  0  0
   -0.9697   -0.6472   -1.8359 H   0  0  0  0  0  0  0  0  0  0  0  0
    6.9161    0.6864    0.8952 N   0  0  0  0  0  0  0  0  0  0  0  0
    8.0098    0.6726    1.0472 N   0  0  0  0  0  0  0  0  0  0  0  0
   -4.7505    1.0240   -0.3822 H   0  0  0  0  0  0  0  0  0  0  0  0
   -3.4890    2.4284    1.2875 H   0  0  0  0  0  0  0  0  0  0  0  0
   -0.9643    2.3084    1.4107 H   0  0  0  0  0  0  0  0  0  0  0  0
  1  2  2  0  0  0  0
  1  6  1  0  0  0  0
  2  3  1  0  0  0  0
  3  4  2  0  0  0  0
  4 13  1  0  0  0  0
  5  4  1  0  0  0  0
  5 12  1  0  0  0  0
  6  5  2  0  0  0  0
  7  1  1  0  0  0  0
  8  2  1  0  0  0  0
  9 10  3  0  0  0  0
 11  6  1  0  0  0  0
M  RAD  1   3   2
M  END
