Coordinates from ORCA-job Ph-N2+-scan-d09-169-n800
 OpenBabel09191813423D

 13 12  0  0  0  0  0  0  0  0999 V2000
   -2.8842    0.1116   -1.1898 C   0  0  0  0  0  0  0  0  0  0  0  0
   -1.4513   -0.0062   -1.1692 C   0  0  0  0  0  0  0  0  0  0  0  0
   -1.0741    0.8328   -0.2103 C   0  0  0  0  0  0  0  0  0  0  0  0
   -1.4407    1.7121    0.7160 C   0  0  0  0  0  0  0  0  0  0  0  0
   -2.8741    1.7517    0.6089 C   0  0  0  0  0  0  0  0  0  0  0  0
   -3.5617    0.9695   -0.3210 C   0  0  0  0  0  0  0  0  0  0  0  0
   -3.3996   -0.5096   -1.9261 H   0  0  0  0  0  0  0  0  0  0  0  0
   -0.8751   -0.6554   -1.8252 H   0  0  0  0  0  0  0  0  0  0  0  0
    6.3609    0.7053    0.8283 N   0  0  0  0  0  0  0  0  0  0  0  0
    7.4546    0.6904    0.9807 N   0  0  0  0  0  0  0  0  0  0  0  0
   -4.6492    1.0290   -0.3690 H   0  0  0  0  0  0  0  0  0  0  0  0
   -3.3818    2.4278    1.3008 H   0  0  0  0  0  0  0  0  0  0  0  0
   -0.8575    2.2987    1.4228 H   0  0  0  0  0  0  0  0  0  0  0  0
  1  2  2  0  0  0  0
  1  6  1  0  0  0  0
  2  3  1  0  0  0  0
  3  4  2  0  0  0  0
  4 13  1  0  0  0  0
  5  4  1  0  0  0  0
  5 12  1  0  0  0  0
  6  5  2  0  0  0  0
  7  1  1  0  0  0  0
  8  2  1  0  0  0  0
  9 10  3  0  0  0  0
 11  6  1  0  0  0  0
M  RAD  1   3   2
M  END
