Coordinates from ORCA-job Ph-N2+-scan-d09-169-n800
 OpenBabel09191813423D

 13 13  0  0  0  0  0  0  0  0999 V2000
   -1.9750    0.0939   -1.0870 C   0  0  0  0  0  0  0  0  0  0  0  0
   -0.5752    0.0086   -0.9837 C   0  0  0  0  0  0  0  0  0  0  0  0
   -0.0827    0.8348   -0.0065 C   0  0  0  0  0  0  0  0  0  0  0  0
   -0.6741    1.7081    0.8698 C   0  0  0  0  0  0  0  0  0  0  0  0
   -2.0709    1.7448    0.7128 C   0  0  0  0  0  0  0  0  0  0  0  0
   -2.7040    0.9494   -0.2509 C   0  0  0  0  0  0  0  0  0  0  0  0
   -2.4796   -0.5200   -1.8327 H   0  0  0  0  0  0  0  0  0  0  0  0
    0.0299   -0.6395   -1.6123 H   0  0  0  0  0  0  0  0  0  0  0  0
    1.6890    0.7581    0.1602 N   0  0  0  0  0  0  0  0  0  0  0  0
    2.7863    0.7118    0.2655 N   0  0  0  0  0  0  0  0  0  0  0  0
   -3.7883    0.9962   -0.3513 H   0  0  0  0  0  0  0  0  0  0  0  0
   -2.6485    2.4053    1.3591 H   0  0  0  0  0  0  0  0  0  0  0  0
   -0.1405    2.3061    1.6038 H   0  0  0  0  0  0  0  0  0  0  0  0
  1  2  2  0  0  0  0
  1  6  1  0  0  0  0
  2  3  1  0  0  0  0
  3  9  1  0  0  0  0
  3  4  2  0  0  0  0
  4 13  1  0  0  0  0
  5  4  1  0  0  0  0
  5 12  1  0  0  0  0
  6  5  2  0  0  0  0
  7  1  1  0  0  0  0
  8  2  1  0  0  0  0
  9 10  1  0  0  0  0
 11  6  1  0  0  0  0
M  RAD  2   9   2  10   3
M  END
