Coordinates from ORCA-job Ph-N2+-scan-d09-169-n800
 OpenBabel09191813423D

 13 12  0  0  0  0  0  0  0  0999 V2000
   -2.5796    0.1095   -1.1524 C   0  0  0  0  0  0  0  0  0  0  0  0
   -1.1489   -0.0324   -1.1378 C   0  0  0  0  0  0  0  0  0  0  0  0
   -0.7538    0.7979   -0.1785 C   0  0  0  0  0  0  0  0  0  0  0  0
   -1.1017    1.6812    0.7511 C   0  0  0  0  0  0  0  0  0  0  0  0
   -2.5346    1.7451    0.6499 C   0  0  0  0  0  0  0  0  0  0  0  0
   -3.2391    0.9768   -0.2791 C   0  0  0  0  0  0  0  0  0  0  0  0
   -3.1082   -0.5015   -1.8878 H   0  0  0  0  0  0  0  0  0  0  0  0
   -0.5857   -0.6895   -1.7970 H   0  0  0  0  0  0  0  0  0  0  0  0
    4.5917    0.7755    0.6256 N   0  0  0  0  0  0  0  0  0  0  0  0
    5.6858    0.7563    0.7734 N   0  0  0  0  0  0  0  0  0  0  0  0
   -4.3255    1.0547   -0.3225 H   0  0  0  0  0  0  0  0  0  0  0  0
   -3.0284    2.4278    1.3453 H   0  0  0  0  0  0  0  0  0  0  0  0
   -0.5056    2.2563    1.4565 H   0  0  0  0  0  0  0  0  0  0  0  0
  1  2  2  0  0  0  0
  1  6  1  0  0  0  0
  2  3  1  0  0  0  0
  3  4  2  0  0  0  0
  4 13  1  0  0  0  0
  5  4  1  0  0  0  0
  5 12  1  0  0  0  0
  6  5  2  0  0  0  0
  7  1  1  0  0  0  0
  8  2  1  0  0  0  0
  9 10  3  0  0  0  0
 11  6  1  0  0  0  0
M  RAD  1   3   2
M  END
