Coordinates from ORCA-job Ph-N2+-scan-d09-169-n800
 OpenBabel09191813423D

 13 12  0  0  0  0  0  0  0  0999 V2000
   -2.0299    0.0985   -1.0896 C   0  0  0  0  0  0  0  0  0  0  0  0
   -0.6132    0.0035   -0.9949 C   0  0  0  0  0  0  0  0  0  0  0  0
   -0.2156    0.8404   -0.0197 C   0  0  0  0  0  0  0  0  0  0  0  0
   -0.7121    1.7161    0.8727 C   0  0  0  0  0  0  0  0  0  0  0  0
   -2.1248    1.7448    0.7051 C   0  0  0  0  0  0  0  0  0  0  0  0
   -2.7587    0.9517   -0.2559 C   0  0  0  0  0  0  0  0  0  0  0  0
   -2.5178   -0.5233   -1.8418 H   0  0  0  0  0  0  0  0  0  0  0  0
   -0.0042   -0.6423   -1.6211 H   0  0  0  0  0  0  0  0  0  0  0  0
    1.9743    0.7456    0.1872 N   0  0  0  0  0  0  0  0  0  0  0  0
    3.0709    0.7008    0.2949 N   0  0  0  0  0  0  0  0  0  0  0  0
   -3.8428    0.9984   -0.3558 H   0  0  0  0  0  0  0  0  0  0  0  0
   -2.6863    2.4118    1.3613 H   0  0  0  0  0  0  0  0  0  0  0  0
   -0.1736    2.3117    1.6044 H   0  0  0  0  0  0  0  0  0  0  0  0
  1  2  2  0  0  0  0
  1  6  1  0  0  0  0
  2  3  1  0  0  0  0
  3  4  2  0  0  0  0
  4 13  1  0  0  0  0
  5  4  1  0  0  0  0
  5 12  1  0  0  0  0
  6  5  2  0  0  0  0
  7  1  1  0  0  0  0
  8  2  1  0  0  0  0
  9 10  3  0  0  0  0
 11  6  1  0  0  0  0
M  RAD  1   3   2
M  END
