Coordinates from ORCA-job Ph-N2+-scan-d09-169-n800
 OpenBabel09191813423D

 13 12  0  0  0  0  0  0  0  0999 V2000
   -3.0298    0.1135   -1.2076 C   0  0  0  0  0  0  0  0  0  0  0  0
   -1.5963    0.0027   -1.1864 C   0  0  0  0  0  0  0  0  0  0  0  0
   -1.2236    0.8441   -0.2278 C   0  0  0  0  0  0  0  0  0  0  0  0
   -1.5949    1.7222    0.6978 C   0  0  0  0  0  0  0  0  0  0  0  0
   -3.0284    1.7547    0.5900 C   0  0  0  0  0  0  0  0  0  0  0  0
   -3.7119    0.9686   -0.3397 C   0  0  0  0  0  0  0  0  0  0  0  0
   -3.5418   -0.5106   -1.9438 H   0  0  0  0  0  0  0  0  0  0  0  0
   -1.0169   -0.6441   -1.8418 H   0  0  0  0  0  0  0  0  0  0  0  0
    7.1852    0.6780    0.9280 N   0  0  0  0  0  0  0  0  0  0  0  0
    8.2788    0.6652    1.0806 N   0  0  0  0  0  0  0  0  0  0  0  0
   -4.7996    1.0227   -0.3881 H   0  0  0  0  0  0  0  0  0  0  0  0
   -3.5397    2.4289    1.2813 H   0  0  0  0  0  0  0  0  0  0  0  0
   -1.0149    2.3120    1.4044 H   0  0  0  0  0  0  0  0  0  0  0  0
  1  2  2  0  0  0  0
  1  6  1  0  0  0  0
  2  3  1  0  0  0  0
  3  4  2  0  0  0  0
  4 13  1  0  0  0  0
  5  4  1  0  0  0  0
  5 12  1  0  0  0  0
  6  5  2  0  0  0  0
  7  1  1  0  0  0  0
  8  2  1  0  0  0  0
  9 10  3  0  0  0  0
 11  6  1  0  0  0  0
M  RAD  1   3   2
M  END
