Coordinates from ORCA-job Ph-N2+-scan-d09-169-n800
 OpenBabel09191813423D

 13 12  0  0  0  0  0  0  0  0999 V2000
   -4.0531    0.1271   -1.3263 C   0  0  0  0  0  0  0  0  0  0  0  0
   -2.6171    0.0542   -1.3389 C   0  0  0  0  0  0  0  0  0  0  0  0
   -2.2441    0.9072   -0.3908 C   0  0  0  0  0  0  0  0  0  0  0  0
   -2.6163    1.7773    0.5420 C   0  0  0  0  0  0  0  0  0  0  0  0
   -4.0524    1.7718    0.4683 C   0  0  0  0  0  0  0  0  0  0  0  0
   -4.7368    0.9657   -0.4436 C   0  0  0  0  0  0  0  0  0  0  0  0
   -4.5658   -0.5116   -2.0494 H   0  0  0  0  0  0  0  0  0  0  0  0
   -2.0365   -0.5788   -2.0067 H   0  0  0  0  0  0  0  0  0  0  0  0
   12.8131    0.5187    1.6357 N   0  0  0  0  0  0  0  0  0  0  0  0
   13.9022    0.5172    1.8187 N   0  0  0  0  0  0  0  0  0  0  0  0
   -5.8264    0.9912   -0.4664 H   0  0  0  0  0  0  0  0  0  0  0  0
   -4.5647    2.4340    1.1702 H   0  0  0  0  0  0  0  0  0  0  0  0
   -2.0355    2.3835    1.2340 H   0  0  0  0  0  0  0  0  0  0  0  0
  1  6  1  0  0  0  0
  2  1  2  0  0  0  0
  2  3  1  0  0  0  0
  3  4  2  0  0  0  0
  4 13  1  0  0  0  0
  5  4  1  0  0  0  0
  5 12  1  0  0  0  0
  6  5  2  0  0  0  0
  7  1  1  0  0  0  0
  8  2  1  0  0  0  0
  9 10  3  0  0  0  0
 11  6  1  0  0  0  0
M  RAD  1   3   2
M  END
