Coordinates from ORCA-job Ph-N2+-scan-d09-169-n800
 OpenBabel09191813423D

 13 12  0  0  0  0  0  0  0  0999 V2000
   -2.1027    0.1022   -1.0958 C   0  0  0  0  0  0  0  0  0  0  0  0
   -0.6760    0.0017   -1.0057 C   0  0  0  0  0  0  0  0  0  0  0  0
   -0.3310    0.8440   -0.0320 C   0  0  0  0  0  0  0  0  0  0  0  0
   -0.7731    1.7212    0.8693 C   0  0  0  0  0  0  0  0  0  0  0  0
   -2.1954    1.7469    0.6973 C   0  0  0  0  0  0  0  0  0  0  0  0
   -2.8303    0.9548   -0.2622 C   0  0  0  0  0  0  0  0  0  0  0  0
   -2.5814   -0.5238   -1.8516 H   0  0  0  0  0  0  0  0  0  0  0  0
   -0.0635   -0.6428   -1.6311 H   0  0  0  0  0  0  0  0  0  0  0  0
    2.3564    0.7293    0.2260 N   0  0  0  0  0  0  0  0  0  0  0  0
    3.4536    0.6891    0.3354 N   0  0  0  0  0  0  0  0  0  0  0  0
   -3.9146    1.0021   -0.3615 H   0  0  0  0  0  0  0  0  0  0  0  0
   -2.7466    2.4179    1.3596 H   0  0  0  0  0  0  0  0  0  0  0  0
   -0.2291    2.3152    1.5991 H   0  0  0  0  0  0  0  0  0  0  0  0
  1  2  2  0  0  0  0
  1  6  1  0  0  0  0
  2  3  1  0  0  0  0
  3  4  2  0  0  0  0
  4 13  1  0  0  0  0
  5  4  1  0  0  0  0
  5 12  1  0  0  0  0
  6  5  2  0  0  0  0
  7  1  1  0  0  0  0
  8  2  1  0  0  0  0
  9 10  3  0  0  0  0
 11  6  1  0  0  0  0
M  RAD  1   3   2
M  END
