Coordinates from ORCA-job Ph-N2+-scan-d09-169-n800
 OpenBabel09191813423D

 13 12  0  0  0  0  0  0  0  0999 V2000
   -2.9193    0.1119   -1.1941 C   0  0  0  0  0  0  0  0  0  0  0  0
   -1.4863   -0.0035   -1.1731 C   0  0  0  0  0  0  0  0  0  0  0  0
   -1.1107    0.8363   -0.2142 C   0  0  0  0  0  0  0  0  0  0  0  0
   -1.4790    1.7152    0.7118 C   0  0  0  0  0  0  0  0  0  0  0  0
   -2.9125    1.7524    0.6042 C   0  0  0  0  0  0  0  0  0  0  0  0
   -3.5985    0.9689   -0.3258 C   0  0  0  0  0  0  0  0  0  0  0  0
   -3.4334   -0.5102   -1.9305 H   0  0  0  0  0  0  0  0  0  0  0  0
   -0.9089   -0.6519   -1.8287 H   0  0  0  0  0  0  0  0  0  0  0  0
    6.5629    0.6981    0.8524 N   0  0  0  0  0  0  0  0  0  0  0  0
    7.6566    0.6832    1.0042 N   0  0  0  0  0  0  0  0  0  0  0  0
   -4.6861    1.0266   -0.3741 H   0  0  0  0  0  0  0  0  0  0  0  0
   -3.4215    2.4279    1.2958 H   0  0  0  0  0  0  0  0  0  0  0  0
   -0.8970    2.3029    1.4187 H   0  0  0  0  0  0  0  0  0  0  0  0
  1  2  2  0  0  0  0
  1  6  1  0  0  0  0
  2  3  1  0  0  0  0
  3  4  2  0  0  0  0
  4 13  1  0  0  0  0
  5  4  1  0  0  0  0
  5 12  1  0  0  0  0
  6  5  2  0  0  0  0
  7  1  1  0  0  0  0
  8  2  1  0  0  0  0
  9 10  3  0  0  0  0
 11  6  1  0  0  0  0
M  RAD  1   3   2
M  END
