Coordinates from ORCA-job Ph-N2+-scan-d09-169-n800
 OpenBabel09191813423D

 13 13  0  0  0  0  0  0  0  0999 V2000
   -1.9376    0.0903   -1.0858 C   0  0  0  0  0  0  0  0  0  0  0  0
   -0.5523    0.0138   -0.9751 C   0  0  0  0  0  0  0  0  0  0  0  0
    0.0324    0.8299    0.0043 C   0  0  0  0  0  0  0  0  0  0  0  0
   -0.6506    1.7013    0.8655 C   0  0  0  0  0  0  0  0  0  0  0  0
   -2.0339    1.7454    0.7186 C   0  0  0  0  0  0  0  0  0  0  0  0
   -2.6679    0.9477   -0.2474 C   0  0  0  0  0  0  0  0  0  0  0  0
   -2.4508   -0.5195   -1.8280 H   0  0  0  0  0  0  0  0  0  0  0  0
    0.0475   -0.6376   -1.6081 H   0  0  0  0  0  0  0  0  0  0  0  0
    1.4853    0.7669    0.1412 N   0  0  0  0  0  0  0  0  0  0  0  0
    2.5899    0.7196    0.2467 N   0  0  0  0  0  0  0  0  0  0  0  0
   -3.7528    0.9943   -0.3478 H   0  0  0  0  0  0  0  0  0  0  0  0
   -2.6198    2.4025    1.3598 H   0  0  0  0  0  0  0  0  0  0  0  0
   -0.1231    2.3032    1.6030 H   0  0  0  0  0  0  0  0  0  0  0  0
  1  2  2  0  0  0  0
  1  6  1  0  0  0  0
  2  3  1  0  0  0  0
  3  9  1  0  0  0  0
  3  4  2  0  0  0  0
  4 13  1  0  0  0  0
  5  4  1  0  0  0  0
  5 12  1  0  0  0  0
  6  5  2  0  0  0  0
  7  1  1  0  0  0  0
  8  2  1  0  0  0  0
  9 10  1  0  0  0  0
 11  6  1  0  0  0  0
M  RAD  2   9   2  10   3
M  END
