Coordinates from ORCA-job Ph-N2+-scan-d09-169-n800
 OpenBabel09191813423D

 13 12  0  0  0  0  0  0  0  0999 V2000
   -1.9977    0.0961   -1.0878 C   0  0  0  0  0  0  0  0  0  0  0  0
   -0.5898    0.0058   -0.9888 C   0  0  0  0  0  0  0  0  0  0  0  0
   -0.1438    0.8374   -0.0125 C   0  0  0  0  0  0  0  0  0  0  0  0
   -0.6888    1.7120    0.8718 C   0  0  0  0  0  0  0  0  0  0  0  0
   -2.0932    1.7446    0.7093 C   0  0  0  0  0  0  0  0  0  0  0  0
   -2.7265    0.9504   -0.2530 C   0  0  0  0  0  0  0  0  0  0  0  0
   -2.4946   -0.5215   -1.8364 H   0  0  0  0  0  0  0  0  0  0  0  0
    0.0172   -0.6410   -1.6161 H   0  0  0  0  0  0  0  0  0  0  0  0
    1.8070    0.7529    0.1713 N   0  0  0  0  0  0  0  0  0  0  0  0
    2.9036    0.7071    0.2774 N   0  0  0  0  0  0  0  0  0  0  0  0
   -3.8107    0.9971   -0.3532 H   0  0  0  0  0  0  0  0  0  0  0  0
   -2.6635    2.4081    1.3602 H   0  0  0  0  0  0  0  0  0  0  0  0
   -0.1530    2.3087    1.6046 H   0  0  0  0  0  0  0  0  0  0  0  0
  1  2  2  0  0  0  0
  1  6  1  0  0  0  0
  2  3  1  0  0  0  0
  3  4  2  0  0  0  0
  4 13  1  0  0  0  0
  5  4  1  0  0  0  0
  5 12  1  0  0  0  0
  6  5  2  0  0  0  0
  7  1  1  0  0  0  0
  8  2  1  0  0  0  0
  9 10  3  0  0  0  0
 11  6  1  0  0  0  0
M  RAD  1   3   2
M  END
