Coordinates from ORCA-job Ph-N2+-scan-d09-169-n800
 OpenBabel09191813423D

 13 12  0  0  0  0  0  0  0  0999 V2000
   -3.1929    0.1163   -1.2277 C   0  0  0  0  0  0  0  0  0  0  0  0
   -1.7591    0.0097   -1.2070 C   0  0  0  0  0  0  0  0  0  0  0  0
   -1.3884    0.8526   -0.2489 C   0  0  0  0  0  0  0  0  0  0  0  0
   -1.7619    1.7298    0.6766 C   0  0  0  0  0  0  0  0  0  0  0  0
   -3.1956    1.7582    0.5694 C   0  0  0  0  0  0  0  0  0  0  0  0
   -3.8771    0.9697   -0.3597 C   0  0  0  0  0  0  0  0  0  0  0  0
   -3.7034   -0.5095   -1.9634 H   0  0  0  0  0  0  0  0  0  0  0  0
   -1.1780   -0.6357   -1.8624 H   0  0  0  0  0  0  0  0  0  0  0  0
    8.0932    0.6514    1.0392 N   0  0  0  0  0  0  0  0  0  0  0  0
    9.1865    0.6418    1.1949 N   0  0  0  0  0  0  0  0  0  0  0  0
   -4.9650    1.0206   -0.4078 H   0  0  0  0  0  0  0  0  0  0  0  0
   -3.7085    2.4311    1.2606 H   0  0  0  0  0  0  0  0  0  0  0  0
   -1.1834    2.3216    1.3829 H   0  0  0  0  0  0  0  0  0  0  0  0
  1  2  2  0  0  0  0
  1  6  1  0  0  0  0
  2  3  1  0  0  0  0
  3  4  2  0  0  0  0
  4 13  1  0  0  0  0
  5  4  1  0  0  0  0
  5 12  1  0  0  0  0
  6  5  2  0  0  0  0
  7  1  1  0  0  0  0
  8  2  1  0  0  0  0
  9 10  3  0  0  0  0
 11  6  1  0  0  0  0
M  RAD  1   3   2
M  END
