Coordinates from ORCA-job Ph-N2+-scan-d09-169-n800
 OpenBabel09191813423D

 13 12  0  0  0  0  0  0  0  0999 V2000
   -2.0082    0.0970   -1.0883 C   0  0  0  0  0  0  0  0  0  0  0  0
   -0.5970    0.0049   -0.9909 C   0  0  0  0  0  0  0  0  0  0  0  0
   -0.1691    0.8384   -0.0150 C   0  0  0  0  0  0  0  0  0  0  0  0
   -0.6960    1.7135    0.8723 C   0  0  0  0  0  0  0  0  0  0  0  0
   -2.1035    1.7446    0.7079 C   0  0  0  0  0  0  0  0  0  0  0  0
   -2.7370    0.9508   -0.2539 C   0  0  0  0  0  0  0  0  0  0  0  0
   -2.5018   -0.5222   -1.8382 H   0  0  0  0  0  0  0  0  0  0  0  0
    0.0106   -0.6416   -1.6178 H   0  0  0  0  0  0  0  0  0  0  0  0
    1.8614    0.7505    0.1765 N   0  0  0  0  0  0  0  0  0  0  0  0
    2.9580    0.7050    0.2830 N   0  0  0  0  0  0  0  0  0  0  0  0
   -3.8212    0.9975   -0.3541 H   0  0  0  0  0  0  0  0  0  0  0  0
   -2.6706    2.4094    1.3607 H   0  0  0  0  0  0  0  0  0  0  0  0
   -0.1594    2.3098    1.6047 H   0  0  0  0  0  0  0  0  0  0  0  0
  1  2  2  0  0  0  0
  1  6  1  0  0  0  0
  2  3  1  0  0  0  0
  3  4  2  0  0  0  0
  4 13  1  0  0  0  0
  5  4  1  0  0  0  0
  5 12  1  0  0  0  0
  6  5  2  0  0  0  0
  7  1  1  0  0  0  0
  8  2  1  0  0  0  0
  9 10  3  0  0  0  0
 11  6  1  0  0  0  0
M  RAD  1   3   2
M  END
