Coordinates from ORCA-job Ph-N2+-scan-d09-169-n800
 OpenBabel09191813423D

 13 12  0  0  0  0  0  0  0  0999 V2000
   -3.3749    0.1199   -1.2501 C   0  0  0  0  0  0  0  0  0  0  0  0
   -1.9409    0.0164   -1.2300 C   0  0  0  0  0  0  0  0  0  0  0  0
   -1.5716    0.8602   -0.2722 C   0  0  0  0  0  0  0  0  0  0  0  0
   -1.9467    1.7369    0.6532 C   0  0  0  0  0  0  0  0  0  0  0  0
   -3.3804    1.7622    0.5465 C   0  0  0  0  0  0  0  0  0  0  0  0
   -4.0606    0.9720   -0.3822 C   0  0  0  0  0  0  0  0  0  0  0  0
   -3.8844   -0.5072   -1.9856 H   0  0  0  0  0  0  0  0  0  0  0  0
   -1.3587   -0.6280   -1.8855 H   0  0  0  0  0  0  0  0  0  0  0  0
    9.1020    0.6237    1.1631 N   0  0  0  0  0  0  0  0  0  0  0  0
   10.1948    0.6168    1.3225 N   0  0  0  0  0  0  0  0  0  0  0  0
   -5.1486    1.0206   -0.4298 H   0  0  0  0  0  0  0  0  0  0  0  0
   -3.8945    2.4342    1.2377 H   0  0  0  0  0  0  0  0  0  0  0  0
   -1.3691    2.3301    1.3591 H   0  0  0  0  0  0  0  0  0  0  0  0
  1  2  2  0  0  0  0
  1  6  1  0  0  0  0
  2  3  1  0  0  0  0
  3  4  2  0  0  0  0
  4 13  1  0  0  0  0
  5  4  1  0  0  0  0
  5 12  1  0  0  0  0
  6  5  2  0  0  0  0
  7  1  1  0  0  0  0
  8  2  1  0  0  0  0
  9 10  3  0  0  0  0
 11  6  1  0  0  0  0
M  RAD  1   3   2
M  END
