Coordinates from ORCA-job Ph-N2+-scan-d09-169-n800
 OpenBabel09191813423D

 13 12  0  0  0  0  0  0  0  0999 V2000
   -2.0937    0.1018   -1.0949 C   0  0  0  0  0  0  0  0  0  0  0  0
   -0.6676    0.0017   -1.0044 C   0  0  0  0  0  0  0  0  0  0  0  0
   -0.3191    0.8437   -0.0306 C   0  0  0  0  0  0  0  0  0  0  0  0
   -0.7651    1.7207    0.8701 C   0  0  0  0  0  0  0  0  0  0  0  0
   -2.1868    1.7466    0.6982 C   0  0  0  0  0  0  0  0  0  0  0  0
   -2.8214    0.9545   -0.2615 C   0  0  0  0  0  0  0  0  0  0  0  0
   -2.5728   -0.5240   -1.8506 H   0  0  0  0  0  0  0  0  0  0  0  0
   -0.0555   -0.6429   -1.6297 H   0  0  0  0  0  0  0  0  0  0  0  0
    2.3087    0.7311    0.2209 N   0  0  0  0  0  0  0  0  0  0  0  0
    3.4058    0.6905    0.3300 N   0  0  0  0  0  0  0  0  0  0  0  0
   -3.9057    1.0017   -0.3609 H   0  0  0  0  0  0  0  0  0  0  0  0
   -2.7388    2.4173    1.3601 H   0  0  0  0  0  0  0  0  0  0  0  0
   -0.2218    2.3149    1.6000 H   0  0  0  0  0  0  0  0  0  0  0  0
  1  2  2  0  0  0  0
  1  6  1  0  0  0  0
  2  3  1  0  0  0  0
  3  4  2  0  0  0  0
  4 13  1  0  0  0  0
  5  4  1  0  0  0  0
  5 12  1  0  0  0  0
  6  5  2  0  0  0  0
  7  1  1  0  0  0  0
  8  2  1  0  0  0  0
  9 10  3  0  0  0  0
 11  6  1  0  0  0  0
M  RAD  1   3   2
M  END
