Coordinates from ORCA-job Ph-N2+-scan-d09-169-n800
 OpenBabel09191813423D

 13 12  0  0  0  0  0  0  0  0999 V2000
   -3.2930    0.1182   -1.2400 C   0  0  0  0  0  0  0  0  0  0  0  0
   -1.8590    0.0135   -1.2197 C   0  0  0  0  0  0  0  0  0  0  0  0
   -1.4892    0.8569   -0.2617 C   0  0  0  0  0  0  0  0  0  0  0  0
   -1.8636    1.7338    0.6637 C   0  0  0  0  0  0  0  0  0  0  0  0
   -3.2973    1.7604    0.5568 C   0  0  0  0  0  0  0  0  0  0  0  0
   -3.9781    0.9709   -0.3721 C   0  0  0  0  0  0  0  0  0  0  0  0
   -3.8029   -0.5083   -1.9756 H   0  0  0  0  0  0  0  0  0  0  0  0
   -1.2774   -0.6313   -1.8751 H   0  0  0  0  0  0  0  0  0  0  0  0
    8.6481    0.6360    1.1073 N   0  0  0  0  0  0  0  0  0  0  0  0
    9.7411    0.6280    1.2650 N   0  0  0  0  0  0  0  0  0  0  0  0
   -5.0660    1.0205   -0.4198 H   0  0  0  0  0  0  0  0  0  0  0  0
   -3.8109    2.4328    1.2480 H   0  0  0  0  0  0  0  0  0  0  0  0
   -1.2856    2.3264    1.3698 H   0  0  0  0  0  0  0  0  0  0  0  0
  1  2  2  0  0  0  0
  1  6  1  0  0  0  0
  2  3  1  0  0  0  0
  3  4  2  0  0  0  0
  4 13  1  0  0  0  0
  5  4  1  0  0  0  0
  5 12  1  0  0  0  0
  6  5  2  0  0  0  0
  7  1  1  0  0  0  0
  8  2  1  0  0  0  0
  9 10  3  0  0  0  0
 11  6  1  0  0  0  0
M  RAD  1   3   2
M  END
