Coordinates from ORCA-job Ph-N2+-scan-d09-169-n800
 OpenBabel09191813423D

 13 12  0  0  0  0  0  0  0  0999 V2000
   -3.1082    0.1148   -1.2172 C   0  0  0  0  0  0  0  0  0  0  0  0
   -1.6746    0.0063   -1.1963 C   0  0  0  0  0  0  0  0  0  0  0  0
   -1.3030    0.8484   -0.2379 C   0  0  0  0  0  0  0  0  0  0  0  0
   -1.6755    1.7261    0.6876 C   0  0  0  0  0  0  0  0  0  0  0  0
   -3.1091    1.7564    0.5801 C   0  0  0  0  0  0  0  0  0  0  0  0
   -3.7914    0.9690   -0.3493 C   0  0  0  0  0  0  0  0  0  0  0  0
   -3.6194   -0.5102   -1.9532 H   0  0  0  0  0  0  0  0  0  0  0  0
   -1.0942   -0.6398   -1.8516 H   0  0  0  0  0  0  0  0  0  0  0  0
    7.6224    0.6649    0.9814 N   0  0  0  0  0  0  0  0  0  0  0  0
    8.7159    0.6537    1.1355 N   0  0  0  0  0  0  0  0  0  0  0  0
   -4.8792    1.0214   -0.3976 H   0  0  0  0  0  0  0  0  0  0  0  0
   -3.6212    2.4299    1.2713 H   0  0  0  0  0  0  0  0  0  0  0  0
   -1.0962    2.3169    1.3941 H   0  0  0  0  0  0  0  0  0  0  0  0
  1  2  2  0  0  0  0
  1  6  1  0  0  0  0
  2  3  1  0  0  0  0
  3  4  2  0  0  0  0
  4 13  1  0  0  0  0
  5  4  1  0  0  0  0
  5 12  1  0  0  0  0
  6  5  2  0  0  0  0
  7  1  1  0  0  0  0
  8  2  1  0  0  0  0
  9 10  3  0  0  0  0
 11  6  1  0  0  0  0
M  RAD  1   3   2
M  END
