Coordinates from ORCA-job Ph-N2+-scan-d09-169-n800
 OpenBabel09191813423D

 13 12  0  0  0  0  0  0  0  0999 V2000
   -2.0582    0.1002   -1.0918 C   0  0  0  0  0  0  0  0  0  0  0  0
   -0.6362    0.0023   -0.9993 C   0  0  0  0  0  0  0  0  0  0  0  0
   -0.2666    0.8422   -0.0249 C   0  0  0  0  0  0  0  0  0  0  0  0
   -0.7347    1.7186    0.8722 C   0  0  0  0  0  0  0  0  0  0  0  0
   -2.1525    1.7455    0.7019 C   0  0  0  0  0  0  0  0  0  0  0  0
   -2.7866    0.9530   -0.2584 C   0  0  0  0  0  0  0  0  0  0  0  0
   -2.5409   -0.5240   -1.8460 H   0  0  0  0  0  0  0  0  0  0  0  0
   -0.0259   -0.6430   -1.6250 H   0  0  0  0  0  0  0  0  0  0  0  0
    2.1224    0.7390    0.2017 N   0  0  0  0  0  0  0  0  0  0  0  0
    3.2193    0.6961    0.3103 N   0  0  0  0  0  0  0  0  0  0  0  0
   -3.8709    0.9999   -0.3582 H   0  0  0  0  0  0  0  0  0  0  0  0
   -2.7086    2.4145    1.3613 H   0  0  0  0  0  0  0  0  0  0  0  0
   -0.1942    2.3135    1.6031 H   0  0  0  0  0  0  0  0  0  0  0  0
  1  2  2  0  0  0  0
  1  6  1  0  0  0  0
  2  3  1  0  0  0  0
  3  4  2  0  0  0  0
  4 13  1  0  0  0  0
  5  4  1  0  0  0  0
  5 12  1  0  0  0  0
  6  5  2  0  0  0  0
  7  1  1  0  0  0  0
  8  2  1  0  0  0  0
  9 10  3  0  0  0  0
 11  6  1  0  0  0  0
M  RAD  1   3   2
M  END
