Coordinates from ORCA-job Ph-N2+-scan-d09-169-n800
 OpenBabel09191813423D

 13 12  0  0  0  0  0  0  0  0999 V2000
   -2.0997    0.1021   -1.0955 C   0  0  0  0  0  0  0  0  0  0  0  0
   -0.6732    0.0017   -1.0053 C   0  0  0  0  0  0  0  0  0  0  0  0
   -0.3271    0.8439   -0.0315 C   0  0  0  0  0  0  0  0  0  0  0  0
   -0.7704    1.7210    0.8696 C   0  0  0  0  0  0  0  0  0  0  0  0
   -2.1925    1.7468    0.6976 C   0  0  0  0  0  0  0  0  0  0  0  0
   -2.8273    0.9547   -0.2620 C   0  0  0  0  0  0  0  0  0  0  0  0
   -2.5785   -0.5239   -1.8513 H   0  0  0  0  0  0  0  0  0  0  0  0
   -0.0608   -0.6428   -1.6306 H   0  0  0  0  0  0  0  0  0  0  0  0
    2.3405    0.7299    0.2243 N   0  0  0  0  0  0  0  0  0  0  0  0
    3.4377    0.6896    0.3335 N   0  0  0  0  0  0  0  0  0  0  0  0
   -3.9116    1.0020   -0.3613 H   0  0  0  0  0  0  0  0  0  0  0  0
   -2.7440    2.4177    1.3598 H   0  0  0  0  0  0  0  0  0  0  0  0
   -0.2266    2.3151    1.5994 H   0  0  0  0  0  0  0  0  0  0  0  0
  1  2  2  0  0  0  0
  1  6  1  0  0  0  0
  2  3  1  0  0  0  0
  3  4  2  0  0  0  0
  4 13  1  0  0  0  0
  5  4  1  0  0  0  0
  5 12  1  0  0  0  0
  6  5  2  0  0  0  0
  7  1  1  0  0  0  0
  8  2  1  0  0  0  0
  9 10  3  0  0  0  0
 11  6  1  0  0  0  0
M  RAD  1   3   2
M  END
