Coordinates from ORCA-job Ph-N2+-scan-d09-169-n800
 OpenBabel09191813423D

 13 13  0  0  0  0  0  0  0  0999 V2000
   -1.9014    0.0883   -1.0827 C   0  0  0  0  0  0  0  0  0  0  0  0
   -0.5283    0.0151   -0.9706 C   0  0  0  0  0  0  0  0  0  0  0  0
    0.1496    0.8248    0.0156 C   0  0  0  0  0  0  0  0  0  0  0  0
   -0.6266    1.6983    0.8656 C   0  0  0  0  0  0  0  0  0  0  0  0
   -1.9979    1.7443    0.7221 C   0  0  0  0  0  0  0  0  0  0  0  0
   -2.6360    0.9461   -0.2442 C   0  0  0  0  0  0  0  0  0  0  0  0
   -2.4137   -0.5221   -1.8254 H   0  0  0  0  0  0  0  0  0  0  0  0
    0.0715   -0.6372   -1.6054 H   0  0  0  0  0  0  0  0  0  0  0  0
    1.2639    0.7763    0.1206 N   0  0  0  0  0  0  0  0  0  0  0  0
    2.3892    0.7275    0.2273 N   0  0  0  0  0  0  0  0  0  0  0  0
   -3.7213    0.9925   -0.3446 H   0  0  0  0  0  0  0  0  0  0  0  0
   -2.5831    2.4022    1.3637 H   0  0  0  0  0  0  0  0  0  0  0  0
   -0.0995    2.3016    1.6047 H   0  0  0  0  0  0  0  0  0  0  0  0
  1  2  2  0  0  0  0
  1  6  1  0  0  0  0
  2  3  1  0  0  0  0
  3  9  1  0  0  0  0
  3  4  2  0  0  0  0
  4 13  1  0  0  0  0
  5  4  1  0  0  0  0
  5 12  1  0  0  0  0
  6  5  2  0  0  0  0
  7  1  1  0  0  0  0
  8  2  1  0  0  0  0
  9 10  1  0  0  0  0
 11  6  1  0  0  0  0
M  RAD  2   9   2  10   3
M  END
