Coordinates from ORCA-job Ph-N2+-scan-d09-169-n800
 OpenBabel09191813423D

 13 12  0  0  0  0  0  0  0  0999 V2000
   -3.1142    0.1149   -1.2180 C   0  0  0  0  0  0  0  0  0  0  0  0
   -1.6806    0.0065   -1.1970 C   0  0  0  0  0  0  0  0  0  0  0  0
   -1.3091    0.8487   -0.2387 C   0  0  0  0  0  0  0  0  0  0  0  0
   -1.6816    1.7264    0.6868 C   0  0  0  0  0  0  0  0  0  0  0  0
   -3.1153    1.7565    0.5793 C   0  0  0  0  0  0  0  0  0  0  0  0
   -3.7976    0.9690   -0.3501 C   0  0  0  0  0  0  0  0  0  0  0  0
   -3.6254   -0.5102   -1.9539 H   0  0  0  0  0  0  0  0  0  0  0  0
   -1.1002   -0.6395   -1.8524 H   0  0  0  0  0  0  0  0  0  0  0  0
    7.6560    0.6639    0.9856 N   0  0  0  0  0  0  0  0  0  0  0  0
    8.7495    0.6529    1.1397 N   0  0  0  0  0  0  0  0  0  0  0  0
   -4.8854    1.0213   -0.3983 H   0  0  0  0  0  0  0  0  0  0  0  0
   -3.6275    2.4300    1.2705 H   0  0  0  0  0  0  0  0  0  0  0  0
   -1.1025    2.3173    1.3933 H   0  0  0  0  0  0  0  0  0  0  0  0
  1  2  2  0  0  0  0
  1  6  1  0  0  0  0
  2  3  1  0  0  0  0
  3  4  2  0  0  0  0
  4 13  1  0  0  0  0
  5  4  1  0  0  0  0
  5 12  1  0  0  0  0
  6  5  2  0  0  0  0
  7  1  1  0  0  0  0
  8  2  1  0  0  0  0
  9 10  3  0  0  0  0
 11  6  1  0  0  0  0
M  RAD  1   3   2
M  END
