Coordinates from ORCA-job Ph-N2+-scan-d09-169-n800
 OpenBabel09191813423D

 13 12  0  0  0  0  0  0  0  0999 V2000
   -2.2324    0.1052   -1.1095 C   0  0  0  0  0  0  0  0  0  0  0  0
   -0.8013   -0.0016   -1.0356 C   0  0  0  0  0  0  0  0  0  0  0  0
   -0.4632    0.8415   -0.0653 C   0  0  0  0  0  0  0  0  0  0  0  0
   -0.8734    1.7197    0.8443 C   0  0  0  0  0  0  0  0  0  0  0  0
   -2.3011    1.7487    0.6852 C   0  0  0  0  0  0  0  0  0  0  0  0
   -2.9482    0.9595   -0.2680 C   0  0  0  0  0  0  0  0  0  0  0  0
   -2.7171   -0.5204   -1.8623 H   0  0  0  0  0  0  0  0  0  0  0  0
   -0.1955   -0.6471   -1.6676 H   0  0  0  0  0  0  0  0  0  0  0  0
    2.9972    0.7222    0.3148 N   0  0  0  0  0  0  0  0  0  0  0  0
    4.0930    0.6869    0.4419 N   0  0  0  0  0  0  0  0  0  0  0  0
   -4.0335    1.0103   -0.3560 H   0  0  0  0  0  0  0  0  0  0  0  0
   -2.8399    2.4220    1.3558 H   0  0  0  0  0  0  0  0  0  0  0  0
   -0.3182    2.3108    1.5691 H   0  0  0  0  0  0  0  0  0  0  0  0
  1  2  2  0  0  0  0
  1  6  1  0  0  0  0
  2  3  1  0  0  0  0
  3  4  2  0  0  0  0
  4 13  1  0  0  0  0
  5  4  1  0  0  0  0
  5 12  1  0  0  0  0
  6  5  2  0  0  0  0
  7  1  1  0  0  0  0
  8  2  1  0  0  0  0
  9 10  3  0  0  0  0
 11  6  1  0  0  0  0
M  RAD  1   3   2
M  END
