Coordinates from ORCA-job Ph-N2+-scan-d09-169-n800
 OpenBabel09191813423D

 13 12  0  0  0  0  0  0  0  0999 V2000
   -3.3719    0.1198   -1.2498 C   0  0  0  0  0  0  0  0  0  0  0  0
   -1.9378    0.0163   -1.2296 C   0  0  0  0  0  0  0  0  0  0  0  0
   -1.5686    0.8601   -0.2718 C   0  0  0  0  0  0  0  0  0  0  0  0
   -1.9436    1.7368    0.6536 C   0  0  0  0  0  0  0  0  0  0  0  0
   -3.3774    1.7621    0.5469 C   0  0  0  0  0  0  0  0  0  0  0  0
   -4.0576    0.9719   -0.3818 C   0  0  0  0  0  0  0  0  0  0  0  0
   -3.8813   -0.5072   -1.9852 H   0  0  0  0  0  0  0  0  0  0  0  0
   -1.3557   -0.6281   -1.8851 H   0  0  0  0  0  0  0  0  0  0  0  0
    9.0852    0.6241    1.1610 N   0  0  0  0  0  0  0  0  0  0  0  0
   10.1780    0.6172    1.3203 N   0  0  0  0  0  0  0  0  0  0  0  0
   -5.1456    1.0206   -0.4294 H   0  0  0  0  0  0  0  0  0  0  0  0
   -3.8914    2.4342    1.2381 H   0  0  0  0  0  0  0  0  0  0  0  0
   -1.3660    2.3299    1.3595 H   0  0  0  0  0  0  0  0  0  0  0  0
  1  2  2  0  0  0  0
  1  6  1  0  0  0  0
  2  3  1  0  0  0  0
  3  4  2  0  0  0  0
  4 13  1  0  0  0  0
  5  4  1  0  0  0  0
  5 12  1  0  0  0  0
  6  5  2  0  0  0  0
  7  1  1  0  0  0  0
  8  2  1  0  0  0  0
  9 10  3  0  0  0  0
 11  6  1  0  0  0  0
M  RAD  1   3   2
M  END
