Coordinates from ORCA-job Ph-N2+-scan-d09-169-n800
 OpenBabel09191813423D

 13 12  0  0  0  0  0  0  0  0999 V2000
   -3.7258    0.1217   -1.2875 C   0  0  0  0  0  0  0  0  0  0  0  0
   -2.2902    0.0401   -1.2914 C   0  0  0  0  0  0  0  0  0  0  0  0
   -1.9178    0.8905   -0.3406 C   0  0  0  0  0  0  0  0  0  0  0  0
   -2.2905    1.7625    0.5902 C   0  0  0  0  0  0  0  0  0  0  0  0
   -3.7261    1.7657    0.5077 C   0  0  0  0  0  0  0  0  0  0  0  0
   -4.4097    0.9641   -0.4087 C   0  0  0  0  0  0  0  0  0  0  0  0
   -4.2379   -0.5136   -2.0139 H   0  0  0  0  0  0  0  0  0  0  0  0
   -1.7093   -0.5961   -1.9559 H   0  0  0  0  0  0  0  0  0  0  0  0
   11.0157    0.5667    1.4083 N   0  0  0  0  0  0  0  0  0  0  0  0
   12.1059    0.5641    1.5841 N   0  0  0  0  0  0  0  0  0  0  0  0
   -5.4990    0.9962   -0.4381 H   0  0  0  0  0  0  0  0  0  0  0  0
   -4.2387    2.4307    1.2068 H   0  0  0  0  0  0  0  0  0  0  0  0
   -1.7103    2.3650    1.2860 H   0  0  0  0  0  0  0  0  0  0  0  0
  1  6  1  0  0  0  0
  2  1  2  0  0  0  0
  2  3  1  0  0  0  0
  3  4  2  0  0  0  0
  4 13  1  0  0  0  0
  5  4  1  0  0  0  0
  5 12  1  0  0  0  0
  6  5  2  0  0  0  0
  7  1  1  0  0  0  0
  8  2  1  0  0  0  0
  9 10  3  0  0  0  0
 11  6  1  0  0  0  0
M  RAD  1   3   2
M  END
