Coordinates from ORCA-job Ph-N2+-scan-d09-169-n800
 OpenBabel09191813423D

 13 12  0  0  0  0  0  0  0  0999 V2000
   -3.4701    0.1190   -1.2582 C   0  0  0  0  0  0  0  0  0  0  0  0
   -2.0353    0.0256   -1.2529 C   0  0  0  0  0  0  0  0  0  0  0  0
   -1.6620    0.8723   -0.2993 C   0  0  0  0  0  0  0  0  0  0  0  0
   -2.0335    1.7467    0.6298 C   0  0  0  0  0  0  0  0  0  0  0  0
   -3.4684    1.7617    0.5382 C   0  0  0  0  0  0  0  0  0  0  0  0
   -4.1527    0.9664   -0.3832 C   0  0  0  0  0  0  0  0  0  0  0  0
   -3.9828   -0.5118   -1.9882 H   0  0  0  0  0  0  0  0  0  0  0  0
   -1.4554   -0.6149   -1.9142 H   0  0  0  0  0  0  0  0  0  0  0  0
    9.6043    0.6081    1.2331 N   0  0  0  0  0  0  0  0  0  0  0  0
   10.6964    0.6028    1.3971 N   0  0  0  0  0  0  0  0  0  0  0  0
   -5.2415    1.0074   -0.4195 H   0  0  0  0  0  0  0  0  0  0  0  0
   -3.9800    2.4304    1.2345 H   0  0  0  0  0  0  0  0  0  0  0  0
   -1.4528    2.3440    1.3296 H   0  0  0  0  0  0  0  0  0  0  0  0
  1  2  2  0  0  0  0
  1  6  1  0  0  0  0
  2  3  1  0  0  0  0
  3  4  2  0  0  0  0
  4 13  1  0  0  0  0
  5  4  1  0  0  0  0
  5 12  1  0  0  0  0
  6  5  2  0  0  0  0
  7  1  1  0  0  0  0
  8  2  1  0  0  0  0
  9 10  3  0  0  0  0
 11  6  1  0  0  0  0
M  RAD  1   3   2
M  END
