Coordinates from ORCA-job Ph-N2+-scan-d09-169-n800
 OpenBabel09191813423D

 13 12  0  0  0  0  0  0  0  0999 V2000
   -3.6130    0.1203   -1.2744 C   0  0  0  0  0  0  0  0  0  0  0  0
   -2.1777    0.0343   -1.2747 C   0  0  0  0  0  0  0  0  0  0  0  0
   -1.8050    0.8834   -0.3229 C   0  0  0  0  0  0  0  0  0  0  0  0
   -2.1774    1.7562    0.6073 C   0  0  0  0  0  0  0  0  0  0  0  0
   -3.6128    1.7638    0.5212 C   0  0  0  0  0  0  0  0  0  0  0  0
   -4.2965    0.9646   -0.3971 C   0  0  0  0  0  0  0  0  0  0  0  0
   -4.1252   -0.5134   -2.0022 H   0  0  0  0  0  0  0  0  0  0  0  0
   -1.5971   -0.6036   -1.9379 H   0  0  0  0  0  0  0  0  0  0  0  0
   10.3940    0.5843    1.3307 N   0  0  0  0  0  0  0  0  0  0  0  0
   11.4850    0.5809    1.5022 N   0  0  0  0  0  0  0  0  0  0  0  0
   -5.3856    1.0000   -0.4293 H   0  0  0  0  0  0  0  0  0  0  0  0
   -4.1251    2.4302    1.2192 H   0  0  0  0  0  0  0  0  0  0  0  0
   -1.5971    2.3567    1.3047 H   0  0  0  0  0  0  0  0  0  0  0  0
  1  6  1  0  0  0  0
  2  1  2  0  0  0  0
  2  3  1  0  0  0  0
  3  4  2  0  0  0  0
  4 13  1  0  0  0  0
  5  4  1  0  0  0  0
  5 12  1  0  0  0  0
  6  5  2  0  0  0  0
  7  1  1  0  0  0  0
  8  2  1  0  0  0  0
  9 10  3  0  0  0  0
 11  6  1  0  0  0  0
M  RAD  1   3   2
M  END
