Coordinates from ORCA-job Ph-N2+-scan-d09-169-n800
 OpenBabel09191813423D

 13 12  0  0  0  0  0  0  0  0999 V2000
   -2.7648    0.1106   -1.1751 C   0  0  0  0  0  0  0  0  0  0  0  0
   -1.3326   -0.0158   -1.1567 C   0  0  0  0  0  0  0  0  0  0  0  0
   -0.9490    0.8200   -0.1976 C   0  0  0  0  0  0  0  0  0  0  0  0
   -1.3089    1.7009    0.7299 C   0  0  0  0  0  0  0  0  0  0  0  0
   -2.7422    1.7492    0.6249 C   0  0  0  0  0  0  0  0  0  0  0  0
   -3.4359    0.9719   -0.3047 C   0  0  0  0  0  0  0  0  0  0  0  0
   -3.2849   -0.5070   -1.9111 H   0  0  0  0  0  0  0  0  0  0  0  0
   -0.7611   -0.6679   -1.8138 H   0  0  0  0  0  0  0  0  0  0  0  0
    5.6704    0.7314    0.7483 N   0  0  0  0  0  0  0  0  0  0  0  0
    6.7642    0.7155    0.8994 N   0  0  0  0  0  0  0  0  0  0  0  0
   -4.5230    1.0380   -0.3511 H   0  0  0  0  0  0  0  0  0  0  0  0
   -3.2449    2.4277    1.3181 H   0  0  0  0  0  0  0  0  0  0  0  0
   -0.7211    2.2833    1.4363 H   0  0  0  0  0  0  0  0  0  0  0  0
  1  2  2  0  0  0  0
  1  6  1  0  0  0  0
  2  3  1  0  0  0  0
  3  4  2  0  0  0  0
  4 13  1  0  0  0  0
  5  4  1  0  0  0  0
  5 12  1  0  0  0  0
  6  5  2  0  0  0  0
  7  1  1  0  0  0  0
  8  2  1  0  0  0  0
  9 10  3  0  0  0  0
 11  6  1  0  0  0  0
M  RAD  1   3   2
M  END
