Coordinates from ORCA-job Ph-N2+-scan-d09-169-n800
 OpenBabel09191813423D

 13 12  0  0  0  0  0  0  0  0999 V2000
   -2.2547    0.1055   -1.1122 C   0  0  0  0  0  0  0  0  0  0  0  0
   -0.8234   -0.0038   -1.0426 C   0  0  0  0  0  0  0  0  0  0  0  0
   -0.4817    0.8384   -0.0730 C   0  0  0  0  0  0  0  0  0  0  0  0
   -0.8869    1.7170    0.8382 C   0  0  0  0  0  0  0  0  0  0  0  0
   -2.3152    1.7485    0.6831 C   0  0  0  0  0  0  0  0  0  0  0  0
   -2.9665    0.9607   -0.2684 C   0  0  0  0  0  0  0  0  0  0  0  0
   -2.7424   -0.5191   -1.8639 H   0  0  0  0  0  0  0  0  0  0  0  0
   -0.2206   -0.6503   -1.6767 H   0  0  0  0  0  0  0  0  0  0  0  0
    3.0968    0.7254    0.3342 N   0  0  0  0  0  0  0  0  0  0  0  0
    4.1925    0.6921    0.4639 N   0  0  0  0  0  0  0  0  0  0  0  0
   -4.0519    1.0135   -0.3531 H   0  0  0  0  0  0  0  0  0  0  0  0
   -2.8507    2.4226    1.3556 H   0  0  0  0  0  0  0  0  0  0  0  0
   -0.3289    2.3071    1.5617 H   0  0  0  0  0  0  0  0  0  0  0  0
  1  2  2  0  0  0  0
  1  6  1  0  0  0  0
  2  3  1  0  0  0  0
  3  4  2  0  0  0  0
  4 13  1  0  0  0  0
  5  4  1  0  0  0  0
  5 12  1  0  0  0  0
  6  5  2  0  0  0  0
  7  1  1  0  0  0  0
  8  2  1  0  0  0  0
  9 10  3  0  0  0  0
 11  6  1  0  0  0  0
M  RAD  1   3   2
M  END
