Coordinates from ORCA-job Ph-N2+-scan-d09-169-n800
 OpenBabel09191813423D

 13 12  0  0  0  0  0  0  0  0999 V2000
   -3.2323    0.1170   -1.2325 C   0  0  0  0  0  0  0  0  0  0  0  0
   -1.7984    0.0113   -1.2120 C   0  0  0  0  0  0  0  0  0  0  0  0
   -1.4281    0.8543   -0.2539 C   0  0  0  0  0  0  0  0  0  0  0  0
   -1.8020    1.7315    0.6716 C   0  0  0  0  0  0  0  0  0  0  0  0
   -3.2357    1.7591    0.5645 C   0  0  0  0  0  0  0  0  0  0  0  0
   -3.9169    0.9701   -0.3646 C   0  0  0  0  0  0  0  0  0  0  0  0
   -3.7425   -0.5091   -1.9682 H   0  0  0  0  0  0  0  0  0  0  0  0
   -1.2171   -0.6339   -1.8674 H   0  0  0  0  0  0  0  0  0  0  0  0
    8.3118    0.6453    1.0660 N   0  0  0  0  0  0  0  0  0  0  0  0
    9.4050    0.6363    1.2225 N   0  0  0  0  0  0  0  0  0  0  0  0
   -5.0048    1.0205   -0.4125 H   0  0  0  0  0  0  0  0  0  0  0  0
   -3.7489    2.4318    1.2557 H   0  0  0  0  0  0  0  0  0  0  0  0
   -1.2237    2.3236    1.3777 H   0  0  0  0  0  0  0  0  0  0  0  0
  1  2  2  0  0  0  0
  1  6  1  0  0  0  0
  2  3  1  0  0  0  0
  3  4  2  0  0  0  0
  4 13  1  0  0  0  0
  5  4  1  0  0  0  0
  5 12  1  0  0  0  0
  6  5  2  0  0  0  0
  7  1  1  0  0  0  0
  8  2  1  0  0  0  0
  9 10  3  0  0  0  0
 11  6  1  0  0  0  0
M  RAD  1   3   2
M  END
