Coordinates from ORCA-job Ph-N2+-scan-d09-169-n800
 OpenBabel09191813423D

 13 13  0  0  0  0  0  0  0  0999 V2000
   -1.9264    0.0895   -1.0851 C   0  0  0  0  0  0  0  0  0  0  0  0
   -0.5449    0.0148   -0.9731 C   0  0  0  0  0  0  0  0  0  0  0  0
    0.0672    0.8284    0.0076 C   0  0  0  0  0  0  0  0  0  0  0  0
   -0.6431    1.6998    0.8648 C   0  0  0  0  0  0  0  0  0  0  0  0
   -2.0228    1.7452    0.7199 C   0  0  0  0  0  0  0  0  0  0  0  0
   -2.6577    0.9472   -0.2464 C   0  0  0  0  0  0  0  0  0  0  0  0
   -2.4402   -0.5200   -1.8271 H   0  0  0  0  0  0  0  0  0  0  0  0
    0.0535   -0.6374   -1.6073 H   0  0  0  0  0  0  0  0  0  0  0  0
    1.4205    0.7696    0.1352 N   0  0  0  0  0  0  0  0  0  0  0  0
    2.5295    0.7219    0.2410 N   0  0  0  0  0  0  0  0  0  0  0  0
   -3.7427    0.9937   -0.3467 H   0  0  0  0  0  0  0  0  0  0  0  0
   -2.6092    2.4022    1.3608 H   0  0  0  0  0  0  0  0  0  0  0  0
   -0.1173    2.3028    1.6033 H   0  0  0  0  0  0  0  0  0  0  0  0
  1  2  2  0  0  0  0
  1  6  1  0  0  0  0
  2  3  1  0  0  0  0
  3  9  1  0  0  0  0
  3  4  2  0  0  0  0
  4 13  1  0  0  0  0
  5  4  1  0  0  0  0
  5 12  1  0  0  0  0
  6  5  2  0  0  0  0
  7  1  1  0  0  0  0
  8  2  1  0  0  0  0
  9 10  1  0  0  0  0
 11  6  1  0  0  0  0
M  RAD  2   9   2  10   3
M  END
