Coordinates from ORCA-job Ph-N2+-scan-d09-169-n800
 OpenBabel09191813423D

 13 12  0  0  0  0  0  0  0  0999 V2000
   -3.1475    0.1155   -1.2221 C   0  0  0  0  0  0  0  0  0  0  0  0
   -1.7137    0.0079   -1.2012 C   0  0  0  0  0  0  0  0  0  0  0  0
   -1.3426    0.8504   -0.2430 C   0  0  0  0  0  0  0  0  0  0  0  0
   -1.7157    1.7279    0.6825 C   0  0  0  0  0  0  0  0  0  0  0  0
   -3.1493    1.7572    0.5751 C   0  0  0  0  0  0  0  0  0  0  0  0
   -3.8312    0.9692   -0.3542 C   0  0  0  0  0  0  0  0  0  0  0  0
   -3.6583   -0.5099   -1.9580 H   0  0  0  0  0  0  0  0  0  0  0  0
   -1.1330   -0.6378   -1.8566 H   0  0  0  0  0  0  0  0  0  0  0  0
    7.8410    0.6586    1.0082 N   0  0  0  0  0  0  0  0  0  0  0  0
    8.9344    0.6481    1.1630 N   0  0  0  0  0  0  0  0  0  0  0  0
   -4.9191    1.0209   -0.4023 H   0  0  0  0  0  0  0  0  0  0  0  0
   -3.6619    2.4304    1.2663 H   0  0  0  0  0  0  0  0  0  0  0  0
   -1.1368    2.3192    1.3889 H   0  0  0  0  0  0  0  0  0  0  0  0
  1  2  2  0  0  0  0
  1  6  1  0  0  0  0
  2  3  1  0  0  0  0
  3  4  2  0  0  0  0
  4 13  1  0  0  0  0
  5  4  1  0  0  0  0
  5 12  1  0  0  0  0
  6  5  2  0  0  0  0
  7  1  1  0  0  0  0
  8  2  1  0  0  0  0
  9 10  3  0  0  0  0
 11  6  1  0  0  0  0
M  RAD  1   3   2
M  END
