Coordinates from ORCA-job Ph-N2+-scan-d09-169-n800
 OpenBabel09191813423D

 13 12  0  0  0  0  0  0  0  0999 V2000
   -2.1306    0.1032   -1.0984 C   0  0  0  0  0  0  0  0  0  0  0  0
   -0.7021    0.0019   -1.0104 C   0  0  0  0  0  0  0  0  0  0  0  0
   -0.3647    0.8452   -0.0373 C   0  0  0  0  0  0  0  0  0  0  0  0
   -0.7972    1.7224    0.8659 C   0  0  0  0  0  0  0  0  0  0  0  0
   -2.2213    1.7477    0.6947 C   0  0  0  0  0  0  0  0  0  0  0  0
   -2.8571    0.9557   -0.2642 C   0  0  0  0  0  0  0  0  0  0  0  0
   -2.6085   -0.5235   -1.8545 H   0  0  0  0  0  0  0  0  0  0  0  0
   -0.0893   -0.6423   -1.6362 H   0  0  0  0  0  0  0  0  0  0  0  0
    2.5017    0.7243    0.2420 N   0  0  0  0  0  0  0  0  0  0  0  0
    3.5988    0.6847    0.3540 N   0  0  0  0  0  0  0  0  0  0  0  0
   -3.9416    1.0030   -0.3623 H   0  0  0  0  0  0  0  0  0  0  0  0
   -2.7703    2.4192    1.3585 H   0  0  0  0  0  0  0  0  0  0  0  0
   -0.2514    2.3162    1.5949 H   0  0  0  0  0  0  0  0  0  0  0  0
  1  2  2  0  0  0  0
  1  6  1  0  0  0  0
  2  3  1  0  0  0  0
  3  4  2  0  0  0  0
  4 13  1  0  0  0  0
  5  4  1  0  0  0  0
  5 12  1  0  0  0  0
  6  5  2  0  0  0  0
  7  1  1  0  0  0  0
  8  2  1  0  0  0  0
  9 10  3  0  0  0  0
 11  6  1  0  0  0  0
M  RAD  1   3   2
M  END
