Coordinates from ORCA-job Ph-N2+-scan-d09-169-n800
 OpenBabel09191813423D

 13 12  0  0  0  0  0  0  0  0999 V2000
   -2.1727    0.1043   -1.1027 C   0  0  0  0  0  0  0  0  0  0  0  0
   -0.7426    0.0019   -1.0192 C   0  0  0  0  0  0  0  0  0  0  0  0
   -0.4091    0.8458   -0.0470 C   0  0  0  0  0  0  0  0  0  0  0  0
   -0.8318    1.7232    0.8587 C   0  0  0  0  0  0  0  0  0  0  0  0
   -2.2577    1.7485    0.6907 C   0  0  0  0  0  0  0  0  0  0  0  0
   -2.8965    0.9570   -0.2664 C   0  0  0  0  0  0  0  0  0  0  0  0
   -2.6516   -0.5226   -1.8580 H   0  0  0  0  0  0  0  0  0  0  0  0
   -0.1312   -0.6424   -1.6466 H   0  0  0  0  0  0  0  0  0  0  0  0
    2.7152    0.7195    0.2687 N   0  0  0  0  0  0  0  0  0  0  0  0
    3.8119    0.6810    0.3867 N   0  0  0  0  0  0  0  0  0  0  0  0
   -3.9812    1.0047   -0.3614 H   0  0  0  0  0  0  0  0  0  0  0  0
   -2.8034    2.4205    1.3569 H   0  0  0  0  0  0  0  0  0  0  0  0
   -0.2831    2.3163    1.5864 H   0  0  0  0  0  0  0  0  0  0  0  0
  1  2  2  0  0  0  0
  1  6  1  0  0  0  0
  2  3  1  0  0  0  0
  3  4  2  0  0  0  0
  4 13  1  0  0  0  0
  5  4  1  0  0  0  0
  5 12  1  0  0  0  0
  6  5  2  0  0  0  0
  7  1  1  0  0  0  0
  8  2  1  0  0  0  0
  9 10  3  0  0  0  0
 11  6  1  0  0  0  0
M  RAD  1   3   2
M  END
