Coordinates from ORCA-job Ph-N2+-scan-d09-169-n800
 OpenBabel09191813423D

 13 12  0  0  0  0  0  0  0  0999 V2000
   -3.6924    0.1213   -1.2836 C   0  0  0  0  0  0  0  0  0  0  0  0
   -2.2569    0.0384   -1.2866 C   0  0  0  0  0  0  0  0  0  0  0  0
   -1.8843    0.8884   -0.3356 C   0  0  0  0  0  0  0  0  0  0  0  0
   -2.2568    1.7606    0.5951 C   0  0  0  0  0  0  0  0  0  0  0  0
   -3.6923    1.7651    0.5118 C   0  0  0  0  0  0  0  0  0  0  0  0
   -4.3761    0.9642   -0.4051 C   0  0  0  0  0  0  0  0  0  0  0  0
   -4.2046   -0.5136   -2.0103 H   0  0  0  0  0  0  0  0  0  0  0  0
   -1.6762   -0.5982   -1.9509 H   0  0  0  0  0  0  0  0  0  0  0  0
   10.8308    0.5719    1.3853 N   0  0  0  0  0  0  0  0  0  0  0  0
   11.9213    0.5692    1.5600 N   0  0  0  0  0  0  0  0  0  0  0  0
   -5.4653    0.9972   -0.4351 H   0  0  0  0  0  0  0  0  0  0  0  0
   -4.2047    2.4305    1.2106 H   0  0  0  0  0  0  0  0  0  0  0  0
   -1.6764    2.3626    1.2912 H   0  0  0  0  0  0  0  0  0  0  0  0
  1  6  1  0  0  0  0
  2  1  2  0  0  0  0
  2  3  1  0  0  0  0
  3  4  2  0  0  0  0
  4 13  1  0  0  0  0
  5  4  1  0  0  0  0
  5 12  1  0  0  0  0
  6  5  2  0  0  0  0
  7  1  1  0  0  0  0
  8  2  1  0  0  0  0
  9 10  3  0  0  0  0
 11  6  1  0  0  0  0
M  RAD  1   3   2
M  END
