Coordinates from ORCA-job Ph-N2+-scan-d09-169-n800
 OpenBabel09191813423D

 13 12  0  0  0  0  0  0  0  0999 V2000
   -3.6635    0.1210   -1.2808 C   0  0  0  0  0  0  0  0  0  0  0  0
   -2.2281    0.0369   -1.2804 C   0  0  0  0  0  0  0  0  0  0  0  0
   -1.8570    0.8866   -0.3286 C   0  0  0  0  0  0  0  0  0  0  0  0
   -2.2309    1.7592    0.6012 C   0  0  0  0  0  0  0  0  0  0  0  0
   -3.6663    1.7649    0.5145 C   0  0  0  0  0  0  0  0  0  0  0  0
   -4.3485    0.9646   -0.4040 C   0  0  0  0  0  0  0  0  0  0  0  0
   -4.1746   -0.5134   -2.0087 H   0  0  0  0  0  0  0  0  0  0  0  0
   -1.6464   -0.6003   -1.9433 H   0  0  0  0  0  0  0  0  0  0  0  0
   10.6801    0.5754    1.3645 N   0  0  0  0  0  0  0  0  0  0  0  0
   11.7707    0.5727    1.5383 N   0  0  0  0  0  0  0  0  0  0  0  0
   -5.4377    0.9986   -0.4366 H   0  0  0  0  0  0  0  0  0  0  0  0
   -4.1798    2.4308    1.2120 H   0  0  0  0  0  0  0  0  0  0  0  0
   -1.6517    2.3606    1.2987 H   0  0  0  0  0  0  0  0  0  0  0  0
  1  2  2  0  0  0  0
  1  6  1  0  0  0  0
  2  3  1  0  0  0  0
  3  4  2  0  0  0  0
  4 13  1  0  0  0  0
  5  4  1  0  0  0  0
  5 12  1  0  0  0  0
  6  5  2  0  0  0  0
  7  1  1  0  0  0  0
  8  2  1  0  0  0  0
  9 10  3  0  0  0  0
 11  6  1  0  0  0  0
M  RAD  1   3   2
M  END
