Coordinates from ORCA-job Ph-N2+-scan-d09-169-n800
 OpenBabel09191813423D

 13 12  0  0  0  0  0  0  0  0999 V2000
   -3.1052    0.1147   -1.2169 C   0  0  0  0  0  0  0  0  0  0  0  0
   -1.6715    0.0061   -1.1959 C   0  0  0  0  0  0  0  0  0  0  0  0
   -1.2999    0.8483   -0.2375 C   0  0  0  0  0  0  0  0  0  0  0  0
   -1.6724    1.7259    0.6880 C   0  0  0  0  0  0  0  0  0  0  0  0
   -3.1060    1.7563    0.5805 C   0  0  0  0  0  0  0  0  0  0  0  0
   -3.7884    0.9689   -0.3490 C   0  0  0  0  0  0  0  0  0  0  0  0
   -3.6164   -0.5102   -1.9529 H   0  0  0  0  0  0  0  0  0  0  0  0
   -1.0912   -0.6400   -1.8513 H   0  0  0  0  0  0  0  0  0  0  0  0
    7.6056    0.6654    0.9794 N   0  0  0  0  0  0  0  0  0  0  0  0
    8.6991    0.6542    1.1334 N   0  0  0  0  0  0  0  0  0  0  0  0
   -4.8762    1.0214   -0.3972 H   0  0  0  0  0  0  0  0  0  0  0  0
   -3.6181    2.4298    1.2717 H   0  0  0  0  0  0  0  0  0  0  0  0
   -1.0931    2.3167    1.3945 H   0  0  0  0  0  0  0  0  0  0  0  0
  1  2  2  0  0  0  0
  1  6  1  0  0  0  0
  2  3  1  0  0  0  0
  3  4  2  0  0  0  0
  4 13  1  0  0  0  0
  5  4  1  0  0  0  0
  5 12  1  0  0  0  0
  6  5  2  0  0  0  0
  7  1  1  0  0  0  0
  8  2  1  0  0  0  0
  9 10  3  0  0  0  0
 11  6  1  0  0  0  0
M  RAD  1   3   2
M  END
