Coordinates from ORCA-job Ph-N2+-scan-d09-169-n800
 OpenBabel09191813423D

 13 12  0  0  0  0  0  0  0  0999 V2000
   -3.7013    0.1214   -1.2847 C   0  0  0  0  0  0  0  0  0  0  0  0
   -2.2657    0.0389   -1.2876 C   0  0  0  0  0  0  0  0  0  0  0  0
   -1.8934    0.8890   -0.3366 C   0  0  0  0  0  0  0  0  0  0  0  0
   -2.2662    1.7612    0.5940 C   0  0  0  0  0  0  0  0  0  0  0  0
   -3.7017    1.7653    0.5106 C   0  0  0  0  0  0  0  0  0  0  0  0
   -4.3852    0.9642   -0.4063 C   0  0  0  0  0  0  0  0  0  0  0  0
   -4.2133   -0.5136   -2.0115 H   0  0  0  0  0  0  0  0  0  0  0  0
   -1.6849   -0.5976   -1.9518 H   0  0  0  0  0  0  0  0  0  0  0  0
   10.8813    0.5704    1.3913 N   0  0  0  0  0  0  0  0  0  0  0  0
   11.9717    0.5677    1.5663 N   0  0  0  0  0  0  0  0  0  0  0  0
   -5.4745    0.9970   -0.4364 H   0  0  0  0  0  0  0  0  0  0  0  0
   -4.2144    2.4306    1.2094 H   0  0  0  0  0  0  0  0  0  0  0  0
   -1.6860    2.3633    1.2902 H   0  0  0  0  0  0  0  0  0  0  0  0
  1  6  1  0  0  0  0
  2  1  2  0  0  0  0
  2  3  1  0  0  0  0
  3  4  2  0  0  0  0
  4 13  1  0  0  0  0
  5  4  1  0  0  0  0
  5 12  1  0  0  0  0
  6  5  2  0  0  0  0
  7  1  1  0  0  0  0
  8  2  1  0  0  0  0
  9 10  3  0  0  0  0
 11  6  1  0  0  0  0
M  RAD  1   3   2
M  END
