Coordinates from ORCA-job Ph-N2+-scan-d09-169-n800
 OpenBabel09191813423D

 13 12  0  0  0  0  0  0  0  0999 V2000
   -3.7562    0.1222   -1.2911 C   0  0  0  0  0  0  0  0  0  0  0  0
   -2.3206    0.0416   -1.2958 C   0  0  0  0  0  0  0  0  0  0  0  0
   -1.9483    0.8924   -0.3453 C   0  0  0  0  0  0  0  0  0  0  0  0
   -2.3211    1.7641    0.5857 C   0  0  0  0  0  0  0  0  0  0  0  0
   -3.7568    1.7662    0.5040 C   0  0  0  0  0  0  0  0  0  0  0  0
   -4.4403    0.9641   -0.4119 C   0  0  0  0  0  0  0  0  0  0  0  0
   -4.2683   -0.5136   -2.0172 H   0  0  0  0  0  0  0  0  0  0  0  0
   -1.7397   -0.5942   -1.9606 H   0  0  0  0  0  0  0  0  0  0  0  0
   11.1837    0.5620    1.4293 N   0  0  0  0  0  0  0  0  0  0  0  0
   12.2738    0.5596    1.6061 N   0  0  0  0  0  0  0  0  0  0  0  0
   -5.5296    0.9954   -0.4407 H   0  0  0  0  0  0  0  0  0  0  0  0
   -4.2694    2.4309    1.2033 H   0  0  0  0  0  0  0  0  0  0  0  0
   -1.7409    2.3670    1.2811 H   0  0  0  0  0  0  0  0  0  0  0  0
  1  6  1  0  0  0  0
  2  1  2  0  0  0  0
  2  3  1  0  0  0  0
  3  4  2  0  0  0  0
  4 13  1  0  0  0  0
  5  4  1  0  0  0  0
  5 12  1  0  0  0  0
  6  5  2  0  0  0  0
  7  1  1  0  0  0  0
  8  2  1  0  0  0  0
  9 10  3  0  0  0  0
 11  6  1  0  0  0  0
M  RAD  1   3   2
M  END
