Coordinates from ORCA-job Ph-N2+-scan-d09-169-n800
 OpenBabel09191813423D

 13 12  0  0  0  0  0  0  0  0999 V2000
   -4.1586    0.1293   -1.3386 C   0  0  0  0  0  0  0  0  0  0  0  0
   -2.7226    0.0578   -1.3553 C   0  0  0  0  0  0  0  0  0  0  0  0
   -2.3477    0.9111   -0.4082 C   0  0  0  0  0  0  0  0  0  0  0  0
   -2.7183    1.7808    0.5256 C   0  0  0  0  0  0  0  0  0  0  0  0
   -4.1546    1.7738    0.4562 C   0  0  0  0  0  0  0  0  0  0  0  0
   -4.8406    0.9670   -0.4538 C   0  0  0  0  0  0  0  0  0  0  0  0
   -4.6727   -0.5098   -2.0603 H   0  0  0  0  0  0  0  0  0  0  0  0
   -2.1432   -0.5747   -2.0246 H   0  0  0  0  0  0  0  0  0  0  0  0
   13.3839    0.5046    1.7095 N   0  0  0  0  0  0  0  0  0  0  0  0
   14.4727    0.5033    1.8940 N   0  0  0  0  0  0  0  0  0  0  0  0
   -5.9303    0.9914   -0.4735 H   0  0  0  0  0  0  0  0  0  0  0  0
   -4.6656    2.4354    1.1597 H   0  0  0  0  0  0  0  0  0  0  0  0
   -2.1361    2.3876    1.2160 H   0  0  0  0  0  0  0  0  0  0  0  0
  1  6  1  0  0  0  0
  2  1  2  0  0  0  0
  2  3  1  0  0  0  0
  3  4  2  0  0  0  0
  4 13  1  0  0  0  0
  5  4  1  0  0  0  0
  5 12  1  0  0  0  0
  6  5  2  0  0  0  0
  7  1  1  0  0  0  0
  8  2  1  0  0  0  0
  9 10  3  0  0  0  0
 11  6  1  0  0  0  0
M  RAD  1   3   2
M  END
