Coordinates from ORCA-job Ph-N2+-scan-d09-169-n800
 OpenBabel09191813423D

 13 13  0  0  0  0  0  0  0  0999 V2000
   -1.9726    0.0937   -1.0870 C   0  0  0  0  0  0  0  0  0  0  0  0
   -0.5737    0.0089   -0.9831 C   0  0  0  0  0  0  0  0  0  0  0  0
   -0.0756    0.8345   -0.0059 C   0  0  0  0  0  0  0  0  0  0  0  0
   -0.6726    1.7076    0.8695 C   0  0  0  0  0  0  0  0  0  0  0  0
   -2.0685    1.7449    0.7132 C   0  0  0  0  0  0  0  0  0  0  0  0
   -2.7016    0.9493   -0.2507 C   0  0  0  0  0  0  0  0  0  0  0  0
   -2.4780   -0.5198   -1.8323 H   0  0  0  0  0  0  0  0  0  0  0  0
    0.0311   -0.6393   -1.6120 H   0  0  0  0  0  0  0  0  0  0  0  0
    1.6761    0.7587    0.1590 N   0  0  0  0  0  0  0  0  0  0  0  0
    2.7736    0.7123    0.2643 N   0  0  0  0  0  0  0  0  0  0  0  0
   -3.7859    0.9961   -0.3511 H   0  0  0  0  0  0  0  0  0  0  0  0
   -2.6469    2.4051    1.3590 H   0  0  0  0  0  0  0  0  0  0  0  0
   -0.1393    2.3059    1.6037 H   0  0  0  0  0  0  0  0  0  0  0  0
  1  2  2  0  0  0  0
  1  6  1  0  0  0  0
  2  3  1  0  0  0  0
  3  9  1  0  0  0  0
  3  4  2  0  0  0  0
  4 13  1  0  0  0  0
  5  4  1  0  0  0  0
  5 12  1  0  0  0  0
  6  5  2  0  0  0  0
  7  1  1  0  0  0  0
  8  2  1  0  0  0  0
  9 10  1  0  0  0  0
 11  6  1  0  0  0  0
M  RAD  2   9   2  10   3
M  END
