Coordinates from ORCA-job Ph-N2+-scan-d09-169-n800
 OpenBabel09191813423D

 13 12  0  0  0  0  0  0  0  0999 V2000
   -4.2135    0.1303   -1.3454 C   0  0  0  0  0  0  0  0  0  0  0  0
   -2.7774    0.0597   -1.3625 C   0  0  0  0  0  0  0  0  0  0  0  0
   -2.4027    0.9133   -0.4156 C   0  0  0  0  0  0  0  0  0  0  0  0
   -2.7734    1.7828    0.5184 C   0  0  0  0  0  0  0  0  0  0  0  0
   -4.2097    1.7750    0.4492 C   0  0  0  0  0  0  0  0  0  0  0  0
   -4.8956    0.9678   -0.4605 C   0  0  0  0  0  0  0  0  0  0  0  0
   -4.7275   -0.5091   -2.0668 H   0  0  0  0  0  0  0  0  0  0  0  0
   -2.1978   -0.5724   -2.0320 H   0  0  0  0  0  0  0  0  0  0  0  0
   13.6864    0.4966    1.7475 N   0  0  0  0  0  0  0  0  0  0  0  0
   14.7750    0.4957    1.9329 N   0  0  0  0  0  0  0  0  0  0  0  0
   -5.9853    0.9916   -0.4798 H   0  0  0  0  0  0  0  0  0  0  0  0
   -4.7208    2.4364    1.1527 H   0  0  0  0  0  0  0  0  0  0  0  0
   -2.1913    2.3899    1.2087 H   0  0  0  0  0  0  0  0  0  0  0  0
  1  6  1  0  0  0  0
  2  1  2  0  0  0  0
  2  3  1  0  0  0  0
  3  4  2  0  0  0  0
  4 13  1  0  0  0  0
  5  4  1  0  0  0  0
  5 12  1  0  0  0  0
  6  5  2  0  0  0  0
  7  1  1  0  0  0  0
  8  2  1  0  0  0  0
  9 10  3  0  0  0  0
 11  6  1  0  0  0  0
M  RAD  1   3   2
M  END
