Coordinates from ORCA-job Ph-N2+-scan-d09-169-n800
 OpenBabel09191813423D

 13 12  0  0  0  0  0  0  0  0999 V2000
   -3.9285    0.1248   -1.3110 C   0  0  0  0  0  0  0  0  0  0  0  0
   -2.4926    0.0493   -1.3223 C   0  0  0  0  0  0  0  0  0  0  0  0
   -2.1189    0.9015   -0.3736 C   0  0  0  0  0  0  0  0  0  0  0  0
   -2.4905    1.7721    0.5589 C   0  0  0  0  0  0  0  0  0  0  0  0
   -3.9265    1.7692    0.4839 C   0  0  0  0  0  0  0  0  0  0  0  0
   -4.6114    0.9645   -0.4288 C   0  0  0  0  0  0  0  0  0  0  0  0
   -4.4417   -0.5128   -2.0347 H   0  0  0  0  0  0  0  0  0  0  0  0
   -1.9125   -0.5846   -1.9896 H   0  0  0  0  0  0  0  0  0  0  0  0
   12.1241    0.5373    1.5495 N   0  0  0  0  0  0  0  0  0  0  0  0
   13.2136    0.5352    1.7301 N   0  0  0  0  0  0  0  0  0  0  0  0
   -5.7010    0.9920   -0.4526 H   0  0  0  0  0  0  0  0  0  0  0  0
   -4.4383    2.4322    1.1854 H   0  0  0  0  0  0  0  0  0  0  0  0
   -1.9093    2.3771    1.2516 H   0  0  0  0  0  0  0  0  0  0  0  0
  1  6  1  0  0  0  0
  2  1  2  0  0  0  0
  2  3  1  0  0  0  0
  3  4  2  0  0  0  0
  4 13  1  0  0  0  0
  5  4  1  0  0  0  0
  5 12  1  0  0  0  0
  6  5  2  0  0  0  0
  7  1  1  0  0  0  0
  8  2  1  0  0  0  0
  9 10  3  0  0  0  0
 11  6  1  0  0  0  0
M  RAD  1   3   2
M  END
