Coordinates from ORCA-job Ph-N2+-scan-d09-169-n800
 OpenBabel09191813423D

 13 12  0  0  0  0  0  0  0  0999 V2000
   -2.0468    0.0996   -1.0909 C   0  0  0  0  0  0  0  0  0  0  0  0
   -0.6267    0.0027   -0.9976 C   0  0  0  0  0  0  0  0  0  0  0  0
   -0.2471    0.8415   -0.0229 C   0  0  0  0  0  0  0  0  0  0  0  0
   -0.7253    1.7177    0.8725 C   0  0  0  0  0  0  0  0  0  0  0  0
   -2.1413    1.7452    0.7032 C   0  0  0  0  0  0  0  0  0  0  0  0
   -2.7753    0.9524   -0.2574 C   0  0  0  0  0  0  0  0  0  0  0  0
   -2.5313   -0.5239   -1.8444 H   0  0  0  0  0  0  0  0  0  0  0  0
   -0.0166   -0.6427   -1.6234 H   0  0  0  0  0  0  0  0  0  0  0  0
    2.0622    0.7418    0.1957 N   0  0  0  0  0  0  0  0  0  0  0  0
    3.1589    0.6979    0.3042 N   0  0  0  0  0  0  0  0  0  0  0  0
   -3.8595    0.9992   -0.3572 H   0  0  0  0  0  0  0  0  0  0  0  0
   -2.6994    2.4135    1.3615 H   0  0  0  0  0  0  0  0  0  0  0  0
   -0.1853    2.3128    1.6036 H   0  0  0  0  0  0  0  0  0  0  0  0
  1  2  2  0  0  0  0
  1  6  1  0  0  0  0
  2  3  1  0  0  0  0
  3  4  2  0  0  0  0
  4 13  1  0  0  0  0
  5  4  1  0  0  0  0
  5 12  1  0  0  0  0
  6  5  2  0  0  0  0
  7  1  1  0  0  0  0
  8  2  1  0  0  0  0
  9 10  3  0  0  0  0
 11  6  1  0  0  0  0
M  RAD  1   3   2
M  END
