Coordinates from ORCA-job Ph-N2+-scan-d09-169-n800
 OpenBabel09191813423D

 13 12  0  0  0  0  0  0  0  0999 V2000
   -4.2471    0.1310   -1.3495 C   0  0  0  0  0  0  0  0  0  0  0  0
   -2.8110    0.0609   -1.3671 C   0  0  0  0  0  0  0  0  0  0  0  0
   -2.4363    0.9146   -0.4203 C   0  0  0  0  0  0  0  0  0  0  0  0
   -2.8069    1.7840    0.5138 C   0  0  0  0  0  0  0  0  0  0  0  0
   -4.2432    1.7757    0.4451 C   0  0  0  0  0  0  0  0  0  0  0  0
   -4.9292    0.9683   -0.4644 C   0  0  0  0  0  0  0  0  0  0  0  0
   -4.7612   -0.5086   -2.0708 H   0  0  0  0  0  0  0  0  0  0  0  0
   -2.2315   -0.5711   -2.0368 H   0  0  0  0  0  0  0  0  0  0  0  0
   13.8712    0.4918    1.7708 N   0  0  0  0  0  0  0  0  0  0  0  0
   14.9598    0.4910    1.9568 N   0  0  0  0  0  0  0  0  0  0  0  0
   -6.0190    0.9918   -0.4833 H   0  0  0  0  0  0  0  0  0  0  0  0
   -4.7544    2.4370    1.1487 H   0  0  0  0  0  0  0  0  0  0  0  0
   -2.2248    2.3913    1.2038 H   0  0  0  0  0  0  0  0  0  0  0  0
  1  6  1  0  0  0  0
  2  1  2  0  0  0  0
  2  3  1  0  0  0  0
  3  4  2  0  0  0  0
  4 13  1  0  0  0  0
  5  4  1  0  0  0  0
  5 12  1  0  0  0  0
  6  5  2  0  0  0  0
  7  1  1  0  0  0  0
  8  2  1  0  0  0  0
  9 10  3  0  0  0  0
 11  6  1  0  0  0  0
M  RAD  1   3   2
M  END
