Coordinates from ORCA-job Ph-N2+-scan-d09-169-n800
 OpenBabel09191813423D

 13 12  0  0  0  0  0  0  0  0999 V2000
   -3.1899    0.1163   -1.2273 C   0  0  0  0  0  0  0  0  0  0  0  0
   -1.7561    0.0096   -1.2066 C   0  0  0  0  0  0  0  0  0  0  0  0
   -1.3854    0.8524   -0.2485 C   0  0  0  0  0  0  0  0  0  0  0  0
   -1.7588    1.7297    0.6770 C   0  0  0  0  0  0  0  0  0  0  0  0
   -3.1925    1.7581    0.5698 C   0  0  0  0  0  0  0  0  0  0  0  0
   -3.8741    0.9697   -0.3594 C   0  0  0  0  0  0  0  0  0  0  0  0
   -3.7004   -0.5095   -1.9631 H   0  0  0  0  0  0  0  0  0  0  0  0
   -1.1750   -0.6358   -1.8620 H   0  0  0  0  0  0  0  0  0  0  0  0
    8.0764    0.6519    1.0371 N   0  0  0  0  0  0  0  0  0  0  0  0
    9.1697    0.6422    1.1927 N   0  0  0  0  0  0  0  0  0  0  0  0
   -4.9619    1.0207   -0.4074 H   0  0  0  0  0  0  0  0  0  0  0  0
   -3.7054    2.4311    1.2610 H   0  0  0  0  0  0  0  0  0  0  0  0
   -1.1803    2.3214    1.3833 H   0  0  0  0  0  0  0  0  0  0  0  0
  1  2  2  0  0  0  0
  1  6  1  0  0  0  0
  2  3  1  0  0  0  0
  3  4  2  0  0  0  0
  4 13  1  0  0  0  0
  5  4  1  0  0  0  0
  5 12  1  0  0  0  0
  6  5  2  0  0  0  0
  7  1  1  0  0  0  0
  8  2  1  0  0  0  0
  9 10  3  0  0  0  0
 11  6  1  0  0  0  0
M  RAD  1   3   2
M  END
