Coordinates from ORCA-job Ph-N2+-scan-d09-169-n800
 OpenBabel09191813423D

 13 12  0  0  0  0  0  0  0  0999 V2000
   -2.3243    0.1060   -1.1208 C   0  0  0  0  0  0  0  0  0  0  0  0
   -0.8928   -0.0127   -1.0672 C   0  0  0  0  0  0  0  0  0  0  0  0
   -0.5363    0.8263   -0.1003 C   0  0  0  0  0  0  0  0  0  0  0  0
   -0.9244    1.7066    0.8164 C   0  0  0  0  0  0  0  0  0  0  0  0
   -2.3544    1.7473    0.6768 C   0  0  0  0  0  0  0  0  0  0  0  0
   -3.0212    0.9649   -0.2683 C   0  0  0  0  0  0  0  0  0  0  0  0
   -2.8239   -0.5148   -1.8680 H   0  0  0  0  0  0  0  0  0  0  0  0
   -0.3012   -0.6621   -1.7088 H   0  0  0  0  0  0  0  0  0  0  0  0
    3.3949    0.7422    0.4000 N   0  0  0  0  0  0  0  0  0  0  0  0
    4.4900    0.7127    0.5372 N   0  0  0  0  0  0  0  0  0  0  0  0
   -4.1071    1.0249   -0.3412 H   0  0  0  0  0  0  0  0  0  0  0  0
   -2.8780    2.4239    1.3562 H   0  0  0  0  0  0  0  0  0  0  0  0
   -0.3551    2.2925    1.5348 H   0  0  0  0  0  0  0  0  0  0  0  0
  1  2  2  0  0  0  0
  1  6  1  0  0  0  0
  2  3  1  0  0  0  0
  3  4  2  0  0  0  0
  4 13  1  0  0  0  0
  5  4  1  0  0  0  0
  5 12  1  0  0  0  0
  6  5  2  0  0  0  0
  7  1  1  0  0  0  0
  8  2  1  0  0  0  0
  9 10  3  0  0  0  0
 11  6  1  0  0  0  0
M  RAD  1   3   2
M  END
