Coordinates from ORCA-job Ph-N2+-scan-d09-169-n800
 OpenBabel09191813423D

 13 12  0  0  0  0  0  0  0  0999 V2000
   -3.5529    0.1200   -1.2686 C   0  0  0  0  0  0  0  0  0  0  0  0
   -2.1179    0.0304   -1.2622 C   0  0  0  0  0  0  0  0  0  0  0  0
   -1.7475    0.8784   -0.3086 C   0  0  0  0  0  0  0  0  0  0  0  0
   -2.1220    1.7522    0.6199 C   0  0  0  0  0  0  0  0  0  0  0  0
   -3.5569    1.7635    0.5270 C   0  0  0  0  0  0  0  0  0  0  0  0
   -4.2384    0.9661   -0.3945 C   0  0  0  0  0  0  0  0  0  0  0  0
   -4.0634   -0.5123   -1.9988 H   0  0  0  0  0  0  0  0  0  0  0  0
   -1.5359   -0.6089   -1.9228 H   0  0  0  0  0  0  0  0  0  0  0  0
   10.0756    0.5925    1.2876 N   0  0  0  0  0  0  0  0  0  0  0  0
   11.1669    0.5893    1.4570 N   0  0  0  0  0  0  0  0  0  0  0  0
   -5.3272    1.0042   -0.4316 H   0  0  0  0  0  0  0  0  0  0  0  0
   -4.0707    2.4312    1.2227 H   0  0  0  0  0  0  0  0  0  0  0  0
   -1.5434    2.3512    1.3199 H   0  0  0  0  0  0  0  0  0  0  0  0
  1  2  2  0  0  0  0
  1  6  1  0  0  0  0
  2  3  1  0  0  0  0
  3  4  2  0  0  0  0
  4 13  1  0  0  0  0
  5  4  1  0  0  0  0
  5 12  1  0  0  0  0
  6  5  2  0  0  0  0
  7  1  1  0  0  0  0
  8  2  1  0  0  0  0
  9 10  3  0  0  0  0
 11  6  1  0  0  0  0
M  RAD  1   3   2
M  END
