Coordinates from ORCA-job Ph-N2+-scan-d09-169-n800
 OpenBabel09191813423D

 13 12  0  0  0  0  0  0  0  0999 V2000
   -3.4817    0.1190   -1.2596 C   0  0  0  0  0  0  0  0  0  0  0  0
   -2.0468    0.0265   -1.2542 C   0  0  0  0  0  0  0  0  0  0  0  0
   -1.6742    0.8735   -0.3005 C   0  0  0  0  0  0  0  0  0  0  0  0
   -2.0463    1.7477    0.6284 C   0  0  0  0  0  0  0  0  0  0  0  0
   -3.4813    1.7620    0.5365 C   0  0  0  0  0  0  0  0  0  0  0  0
   -4.1650    0.9662   -0.3849 C   0  0  0  0  0  0  0  0  0  0  0  0
   -3.9939   -0.5121   -1.9897 H   0  0  0  0  0  0  0  0  0  0  0  0
   -1.4665   -0.6138   -1.9152 H   0  0  0  0  0  0  0  0  0  0  0  0
    9.6717    0.6056    1.2407 N   0  0  0  0  0  0  0  0  0  0  0  0
   10.7636    0.6007    1.4055 N   0  0  0  0  0  0  0  0  0  0  0  0
   -5.2537    1.0066   -0.4213 H   0  0  0  0  0  0  0  0  0  0  0  0
   -3.9934    2.4304    1.2327 H   0  0  0  0  0  0  0  0  0  0  0  0
   -1.4661    2.3454    1.3283 H   0  0  0  0  0  0  0  0  0  0  0  0
  1  2  2  0  0  0  0
  1  6  1  0  0  0  0
  2  3  1  0  0  0  0
  3  4  2  0  0  0  0
  4 13  1  0  0  0  0
  5  4  1  0  0  0  0
  5 12  1  0  0  0  0
  6  5  2  0  0  0  0
  7  1  1  0  0  0  0
  8  2  1  0  0  0  0
  9 10  3  0  0  0  0
 11  6  1  0  0  0  0
M  RAD  1   3   2
M  END
