Coordinates from ORCA-job Ph-N2+-scan-d09-169-n800
 OpenBabel09191813423D

 13 12  0  0  0  0  0  0  0  0999 V2000
   -2.2893    0.1058   -1.1165 C   0  0  0  0  0  0  0  0  0  0  0  0
   -0.8579   -0.0083   -1.0546 C   0  0  0  0  0  0  0  0  0  0  0  0
   -0.5091    0.8324   -0.0863 C   0  0  0  0  0  0  0  0  0  0  0  0
   -0.9058    1.7119    0.8276 C   0  0  0  0  0  0  0  0  0  0  0  0
   -2.3350    1.7480    0.6800 C   0  0  0  0  0  0  0  0  0  0  0  0
   -2.9939    0.9629   -0.2685 C   0  0  0  0  0  0  0  0  0  0  0  0
   -2.7828   -0.5170   -1.8660 H   0  0  0  0  0  0  0  0  0  0  0  0
   -0.2606   -0.6562   -1.6924 H   0  0  0  0  0  0  0  0  0  0  0  0
    3.2460    0.7336    0.3664 N   0  0  0  0  0  0  0  0  0  0  0  0
    4.3413    0.7022    0.5001 N   0  0  0  0  0  0  0  0  0  0  0  0
   -4.0795    1.0193   -0.3475 H   0  0  0  0  0  0  0  0  0  0  0  0
   -2.8647    2.4233    1.3558 H   0  0  0  0  0  0  0  0  0  0  0  0
   -0.3423    2.2999    1.5487 H   0  0  0  0  0  0  0  0  0  0  0  0
  1  2  2  0  0  0  0
  1  6  1  0  0  0  0
  2  3  1  0  0  0  0
  3  4  2  0  0  0  0
  4 13  1  0  0  0  0
  5  4  1  0  0  0  0
  5 12  1  0  0  0  0
  6  5  2  0  0  0  0
  7  1  1  0  0  0  0
  8  2  1  0  0  0  0
  9 10  3  0  0  0  0
 11  6  1  0  0  0  0
M  RAD  1   3   2
M  END
