Coordinates from ORCA-job Ph-N2+-scan-d09-169-n800
 OpenBabel09191813423D

 13 12  0  0  0  0  0  0  0  0999 V2000
   -2.9076    0.1118   -1.1927 C   0  0  0  0  0  0  0  0  0  0  0  0
   -1.4745   -0.0044   -1.1717 C   0  0  0  0  0  0  0  0  0  0  0  0
   -1.0985    0.8352   -0.2128 C   0  0  0  0  0  0  0  0  0  0  0  0
   -1.4663    1.7142    0.7133 C   0  0  0  0  0  0  0  0  0  0  0  0
   -2.8997    1.7522    0.6058 C   0  0  0  0  0  0  0  0  0  0  0  0
   -3.5863    0.9690   -0.3242 C   0  0  0  0  0  0  0  0  0  0  0  0
   -3.4220   -0.5101   -1.9290 H   0  0  0  0  0  0  0  0  0  0  0  0
   -0.8975   -0.6530   -1.8275 H   0  0  0  0  0  0  0  0  0  0  0  0
    6.4955    0.7004    0.8444 N   0  0  0  0  0  0  0  0  0  0  0  0
    7.5893    0.6855    0.9962 N   0  0  0  0  0  0  0  0  0  0  0  0
   -4.6738    1.0273   -0.3724 H   0  0  0  0  0  0  0  0  0  0  0  0
   -3.4084    2.4279    1.2974 H   0  0  0  0  0  0  0  0  0  0  0  0
   -0.8839    2.3016    1.4201 H   0  0  0  0  0  0  0  0  0  0  0  0
  1  2  2  0  0  0  0
  1  6  1  0  0  0  0
  2  3  1  0  0  0  0
  3  4  2  0  0  0  0
  4 13  1  0  0  0  0
  5  4  1  0  0  0  0
  5 12  1  0  0  0  0
  6  5  2  0  0  0  0
  7  1  1  0  0  0  0
  8  2  1  0  0  0  0
  9 10  3  0  0  0  0
 11  6  1  0  0  0  0
M  RAD  1   3   2
M  END
