Coordinates from ORCA-job Ph-N2+-scan-d09-169-n800
 OpenBabel09191813423D

 13 12  0  0  0  0  0  0  0  0999 V2000
   -3.1747    0.1160   -1.2254 C   0  0  0  0  0  0  0  0  0  0  0  0
   -1.7409    0.0090   -1.2047 C   0  0  0  0  0  0  0  0  0  0  0  0
   -1.3701    0.8517   -0.2465 C   0  0  0  0  0  0  0  0  0  0  0  0
   -1.7434    1.7291    0.6790 C   0  0  0  0  0  0  0  0  0  0  0  0
   -3.1771    1.7578    0.5717 C   0  0  0  0  0  0  0  0  0  0  0  0
   -3.8588    0.9695   -0.3575 C   0  0  0  0  0  0  0  0  0  0  0  0
   -3.6853   -0.5097   -1.9612 H   0  0  0  0  0  0  0  0  0  0  0  0
   -1.1600   -0.6365   -1.8601 H   0  0  0  0  0  0  0  0  0  0  0  0
    7.9923    0.6542    1.0268 N   0  0  0  0  0  0  0  0  0  0  0  0
    9.0856    0.6443    1.1821 N   0  0  0  0  0  0  0  0  0  0  0  0
   -4.9466    1.0207   -0.4056 H   0  0  0  0  0  0  0  0  0  0  0  0
   -3.6899    2.4308    1.2629 H   0  0  0  0  0  0  0  0  0  0  0  0
   -1.1648    2.3207    1.3853 H   0  0  0  0  0  0  0  0  0  0  0  0
  1  2  2  0  0  0  0
  1  6  1  0  0  0  0
  2  3  1  0  0  0  0
  3  4  2  0  0  0  0
  4 13  1  0  0  0  0
  5  4  1  0  0  0  0
  5 12  1  0  0  0  0
  6  5  2  0  0  0  0
  7  1  1  0  0  0  0
  8  2  1  0  0  0  0
  9 10  3  0  0  0  0
 11  6  1  0  0  0  0
M  RAD  1   3   2
M  END
