Coordinates from ORCA-job Ph-N2+-scan-d09-169-n800
 OpenBabel09191813423D

 13 12  0  0  0  0  0  0  0  0999 V2000
   -3.3081    0.1185   -1.2419 C   0  0  0  0  0  0  0  0  0  0  0  0
   -1.8742    0.0140   -1.2216 C   0  0  0  0  0  0  0  0  0  0  0  0
   -1.5045    0.8575   -0.2637 C   0  0  0  0  0  0  0  0  0  0  0  0
   -1.8790    1.7344    0.6618 C   0  0  0  0  0  0  0  0  0  0  0  0
   -3.3127    1.7607    0.5549 C   0  0  0  0  0  0  0  0  0  0  0  0
   -3.9933    0.9711   -0.3739 C   0  0  0  0  0  0  0  0  0  0  0  0
   -3.8180   -0.5081   -1.9774 H   0  0  0  0  0  0  0  0  0  0  0  0
   -1.2924   -0.6307   -1.8770 H   0  0  0  0  0  0  0  0  0  0  0  0
    8.7321    0.6337    1.1176 N   0  0  0  0  0  0  0  0  0  0  0  0
    9.8251    0.6259    1.2757 N   0  0  0  0  0  0  0  0  0  0  0  0
   -5.0813    1.0205   -0.4216 H   0  0  0  0  0  0  0  0  0  0  0  0
   -3.8264    2.4331    1.2461 H   0  0  0  0  0  0  0  0  0  0  0  0
   -1.3010    2.3271    1.3678 H   0  0  0  0  0  0  0  0  0  0  0  0
  1  2  2  0  0  0  0
  1  6  1  0  0  0  0
  2  3  1  0  0  0  0
  3  4  2  0  0  0  0
  4 13  1  0  0  0  0
  5  4  1  0  0  0  0
  5 12  1  0  0  0  0
  6  5  2  0  0  0  0
  7  1  1  0  0  0  0
  8  2  1  0  0  0  0
  9 10  3  0  0  0  0
 11  6  1  0  0  0  0
M  RAD  1   3   2
M  END
