Coordinates from ORCA-job Ph-N2+-scan-d09-169-n800
 OpenBabel09191813423D

 13 12  0  0  0  0  0  0  0  0999 V2000
   -2.5887    0.1096   -1.1535 C   0  0  0  0  0  0  0  0  0  0  0  0
   -1.1580   -0.0320   -1.1391 C   0  0  0  0  0  0  0  0  0  0  0  0
   -0.7629    0.7984   -0.1798 C   0  0  0  0  0  0  0  0  0  0  0  0
   -1.1109    1.6817    0.7498 C   0  0  0  0  0  0  0  0  0  0  0  0
   -2.5438    1.7452    0.6488 C   0  0  0  0  0  0  0  0  0  0  0  0
   -3.2483    0.9767   -0.2801 C   0  0  0  0  0  0  0  0  0  0  0  0
   -3.1173   -0.5015   -1.8888 H   0  0  0  0  0  0  0  0  0  0  0  0
   -0.5947   -0.6890   -1.7984 H   0  0  0  0  0  0  0  0  0  0  0  0
    4.6421    0.7742    0.6321 N   0  0  0  0  0  0  0  0  0  0  0  0
    5.7362    0.7552    0.7801 N   0  0  0  0  0  0  0  0  0  0  0  0
   -4.3347    1.0545   -0.3234 H   0  0  0  0  0  0  0  0  0  0  0  0
   -3.0377    2.4279    1.3442 H   0  0  0  0  0  0  0  0  0  0  0  0
   -0.5148    2.2569    1.4551 H   0  0  0  0  0  0  0  0  0  0  0  0
  1  2  2  0  0  0  0
  1  6  1  0  0  0  0
  2  3  1  0  0  0  0
  3  4  2  0  0  0  0
  4 13  1  0  0  0  0
  5  4  1  0  0  0  0
  5 12  1  0  0  0  0
  6  5  2  0  0  0  0
  7  1  1  0  0  0  0
  8  2  1  0  0  0  0
  9 10  3  0  0  0  0
 11  6  1  0  0  0  0
M  RAD  1   3   2
M  END
