Coordinates from ORCA-job Ph-N2+-scan-d09-169-n800
 OpenBabel09191813423D

 13 12  0  0  0  0  0  0  0  0999 V2000
   -3.1989    0.1164   -1.2284 C   0  0  0  0  0  0  0  0  0  0  0  0
   -1.7651    0.0100   -1.2077 C   0  0  0  0  0  0  0  0  0  0  0  0
   -1.3945    0.8528   -0.2496 C   0  0  0  0  0  0  0  0  0  0  0  0
   -1.7681    1.7301    0.6759 C   0  0  0  0  0  0  0  0  0  0  0  0
   -3.2018    1.7583    0.5687 C   0  0  0  0  0  0  0  0  0  0  0  0
   -3.8832    0.9697   -0.3605 C   0  0  0  0  0  0  0  0  0  0  0  0
   -3.7094   -0.5094   -1.9642 H   0  0  0  0  0  0  0  0  0  0  0  0
   -1.1840   -0.6354   -1.8632 H   0  0  0  0  0  0  0  0  0  0  0  0
    8.1268    0.6505    1.0433 N   0  0  0  0  0  0  0  0  0  0  0  0
    9.2201    0.6409    1.1991 N   0  0  0  0  0  0  0  0  0  0  0  0
   -4.9711    1.0206   -0.4085 H   0  0  0  0  0  0  0  0  0  0  0  0
   -3.7147    2.4312    1.2599 H   0  0  0  0  0  0  0  0  0  0  0  0
   -1.1896    2.3219    1.3821 H   0  0  0  0  0  0  0  0  0  0  0  0
  1  2  2  0  0  0  0
  1  6  1  0  0  0  0
  2  3  1  0  0  0  0
  3  4  2  0  0  0  0
  4 13  1  0  0  0  0
  5  4  1  0  0  0  0
  5 12  1  0  0  0  0
  6  5  2  0  0  0  0
  7  1  1  0  0  0  0
  8  2  1  0  0  0  0
  9 10  3  0  0  0  0
 11  6  1  0  0  0  0
M  RAD  1   3   2
M  END
