Coordinates from ORCA-job Ph-N2+-scan-d09-169-n800
 OpenBabel09191813423D

 13 13  0  0  0  0  0  0  0  0999 V2000
   -1.9513    0.0915   -1.0864 C   0  0  0  0  0  0  0  0  0  0  0  0
   -0.5609    0.0120   -0.9781 C   0  0  0  0  0  0  0  0  0  0  0  0
   -0.0105    0.8317    0.0003 C   0  0  0  0  0  0  0  0  0  0  0  0
   -0.6594    1.7036    0.8669 C   0  0  0  0  0  0  0  0  0  0  0  0
   -2.0474    1.7453    0.7166 C   0  0  0  0  0  0  0  0  0  0  0  0
   -2.6808    0.9484   -0.2487 C   0  0  0  0  0  0  0  0  0  0  0  0
   -2.4625   -0.5192   -1.8294 H   0  0  0  0  0  0  0  0  0  0  0  0
    0.0410   -0.6381   -1.6093 H   0  0  0  0  0  0  0  0  0  0  0  0
    1.5619    0.7636    0.1483 N   0  0  0  0  0  0  0  0  0  0  0  0
    2.6626    0.7168    0.2536 N   0  0  0  0  0  0  0  0  0  0  0  0
   -3.7655    0.9951   -0.3491 H   0  0  0  0  0  0  0  0  0  0  0  0
   -2.6314    2.4032    1.3590 H   0  0  0  0  0  0  0  0  0  0  0  0
   -0.1295    2.3040    1.6030 H   0  0  0  0  0  0  0  0  0  0  0  0
  1  2  2  0  0  0  0
  1  6  1  0  0  0  0
  2  3  1  0  0  0  0
  3  9  1  0  0  0  0
  3  4  2  0  0  0  0
  4 13  1  0  0  0  0
  5  4  1  0  0  0  0
  5 12  1  0  0  0  0
  6  5  2  0  0  0  0
  7  1  1  0  0  0  0
  8  2  1  0  0  0  0
  9 10  1  0  0  0  0
 11  6  1  0  0  0  0
M  RAD  2   9   2  10   3
M  END
