Coordinates from ORCA-job Ph-N2+-scan-d09-169-n800
 OpenBabel09191813423D

 13 12  0  0  0  0  0  0  0  0999 V2000
   -3.6189    0.1204   -1.2752 C   0  0  0  0  0  0  0  0  0  0  0  0
   -2.1835    0.0346   -1.2753 C   0  0  0  0  0  0  0  0  0  0  0  0
   -1.8112    0.8838   -0.3235 C   0  0  0  0  0  0  0  0  0  0  0  0
   -2.1838    1.7566    0.6066 C   0  0  0  0  0  0  0  0  0  0  0  0
   -3.6192    1.7639    0.5204 C   0  0  0  0  0  0  0  0  0  0  0  0
   -4.3027    0.9645   -0.3980 C   0  0  0  0  0  0  0  0  0  0  0  0
   -4.1309   -0.5134   -2.0030 H   0  0  0  0  0  0  0  0  0  0  0  0
   -1.6028   -0.6031   -1.9385 H   0  0  0  0  0  0  0  0  0  0  0  0
   10.4277    0.5832    1.3346 N   0  0  0  0  0  0  0  0  0  0  0  0
   11.5186    0.5799    1.5064 N   0  0  0  0  0  0  0  0  0  0  0  0
   -5.3918    0.9997   -0.4302 H   0  0  0  0  0  0  0  0  0  0  0  0
   -4.1317    2.4302    1.2183 H   0  0  0  0  0  0  0  0  0  0  0  0
   -1.6037    2.3573    1.3040 H   0  0  0  0  0  0  0  0  0  0  0  0
  1  6  1  0  0  0  0
  2  1  2  0  0  0  0
  2  3  1  0  0  0  0
  3  4  2  0  0  0  0
  4 13  1  0  0  0  0
  5  4  1  0  0  0  0
  5 12  1  0  0  0  0
  6  5  2  0  0  0  0
  7  1  1  0  0  0  0
  8  2  1  0  0  0  0
  9 10  3  0  0  0  0
 11  6  1  0  0  0  0
M  RAD  1   3   2
M  END
