Coordinates from ORCA-job Ph-N2+-scan-d09-169-n800
 OpenBabel09191813423D

 13 12  0  0  0  0  0  0  0  0999 V2000
   -2.0907    0.1017   -1.0946 C   0  0  0  0  0  0  0  0  0  0  0  0
   -0.6649    0.0017   -1.0040 C   0  0  0  0  0  0  0  0  0  0  0  0
   -0.3150    0.8436   -0.0301 C   0  0  0  0  0  0  0  0  0  0  0  0
   -0.7625    1.7206    0.8703 C   0  0  0  0  0  0  0  0  0  0  0  0
   -2.1839    1.7465    0.6986 C   0  0  0  0  0  0  0  0  0  0  0  0
   -2.8185    0.9543   -0.2612 C   0  0  0  0  0  0  0  0  0  0  0  0
   -2.5701   -0.5240   -1.8502 H   0  0  0  0  0  0  0  0  0  0  0  0
   -0.0528   -0.6429   -1.6293 H   0  0  0  0  0  0  0  0  0  0  0  0
    2.2929    0.7317    0.2193 N   0  0  0  0  0  0  0  0  0  0  0  0
    3.3900    0.6909    0.3283 N   0  0  0  0  0  0  0  0  0  0  0  0
   -3.9028    1.0015   -0.3607 H   0  0  0  0  0  0  0  0  0  0  0  0
   -2.7362    2.4171    1.3602 H   0  0  0  0  0  0  0  0  0  0  0  0
   -0.2193    2.3148    1.6003 H   0  0  0  0  0  0  0  0  0  0  0  0
  1  2  2  0  0  0  0
  1  6  1  0  0  0  0
  2  3  1  0  0  0  0
  3  4  2  0  0  0  0
  4 13  1  0  0  0  0
  5  4  1  0  0  0  0
  5 12  1  0  0  0  0
  6  5  2  0  0  0  0
  7  1  1  0  0  0  0
  8  2  1  0  0  0  0
  9 10  3  0  0  0  0
 11  6  1  0  0  0  0
M  RAD  1   3   2
M  END
