Coordinates from ORCA-job Ph-N2+-scan-d09-169-n800
 OpenBabel09191813423D

 13 12  0  0  0  0  0  0  0  0999 V2000
   -3.1112    0.1148   -1.2176 C   0  0  0  0  0  0  0  0  0  0  0  0
   -1.6776    0.0064   -1.1967 C   0  0  0  0  0  0  0  0  0  0  0  0
   -1.3060    0.8486   -0.2383 C   0  0  0  0  0  0  0  0  0  0  0  0
   -1.6785    1.7262    0.6872 C   0  0  0  0  0  0  0  0  0  0  0  0
   -3.1122    1.7565    0.5797 C   0  0  0  0  0  0  0  0  0  0  0  0
   -3.7945    0.9690   -0.3497 C   0  0  0  0  0  0  0  0  0  0  0  0
   -3.6224   -0.5102   -1.9536 H   0  0  0  0  0  0  0  0  0  0  0  0
   -1.0972   -0.6397   -1.8520 H   0  0  0  0  0  0  0  0  0  0  0  0
    7.6392    0.6644    0.9835 N   0  0  0  0  0  0  0  0  0  0  0  0
    8.7327    0.6533    1.1376 N   0  0  0  0  0  0  0  0  0  0  0  0
   -4.8823    1.0214   -0.3979 H   0  0  0  0  0  0  0  0  0  0  0  0
   -3.6244    2.4299    1.2709 H   0  0  0  0  0  0  0  0  0  0  0  0
   -1.0993    2.3171    1.3937 H   0  0  0  0  0  0  0  0  0  0  0  0
  1  2  2  0  0  0  0
  1  6  1  0  0  0  0
  2  3  1  0  0  0  0
  3  4  2  0  0  0  0
  4 13  1  0  0  0  0
  5  4  1  0  0  0  0
  5 12  1  0  0  0  0
  6  5  2  0  0  0  0
  7  1  1  0  0  0  0
  8  2  1  0  0  0  0
  9 10  3  0  0  0  0
 11  6  1  0  0  0  0
M  RAD  1   3   2
M  END
