Coordinates from ORCA-job Ph-N2+-scan-d09-169-n800
 OpenBabel09191813423D

 13 12  0  0  0  0  0  0  0  0999 V2000
   -3.9464    0.1251   -1.3133 C   0  0  0  0  0  0  0  0  0  0  0  0
   -2.5105    0.0501   -1.3243 C   0  0  0  0  0  0  0  0  0  0  0  0
   -2.1373    0.9025   -0.3757 C   0  0  0  0  0  0  0  0  0  0  0  0
   -2.5093    1.7730    0.5568 C   0  0  0  0  0  0  0  0  0  0  0  0
   -3.9453    1.7696    0.4815 C   0  0  0  0  0  0  0  0  0  0  0  0
   -4.6298    0.9646   -0.4312 C   0  0  0  0  0  0  0  0  0  0  0  0
   -4.4592   -0.5127   -2.0370 H   0  0  0  0  0  0  0  0  0  0  0  0
   -1.9300   -0.5836   -1.9915 H   0  0  0  0  0  0  0  0  0  0  0  0
   12.2250    0.5343    1.5618 N   0  0  0  0  0  0  0  0  0  0  0  0
   13.3144    0.5324    1.7428 N   0  0  0  0  0  0  0  0  0  0  0  0
   -5.7193    0.9916   -0.4552 H   0  0  0  0  0  0  0  0  0  0  0  0
   -4.4575    2.4324    1.1829 H   0  0  0  0  0  0  0  0  0  0  0  0
   -1.9284    2.3783    1.2495 H   0  0  0  0  0  0  0  0  0  0  0  0
  1  6  1  0  0  0  0
  2  1  2  0  0  0  0
  2  3  1  0  0  0  0
  3  4  2  0  0  0  0
  4 13  1  0  0  0  0
  5  4  1  0  0  0  0
  5 12  1  0  0  0  0
  6  5  2  0  0  0  0
  7  1  1  0  0  0  0
  8  2  1  0  0  0  0
  9 10  3  0  0  0  0
 11  6  1  0  0  0  0
M  RAD  1   3   2
M  END
