Coordinates from ORCA-job Ph-N2+-scan-d09-169-n800
 OpenBabel09191813423D

 13 12  0  0  0  0  0  0  0  0999 V2000
   -2.2144    0.1050   -1.1074 C   0  0  0  0  0  0  0  0  0  0  0  0
   -0.7835   -0.0003   -1.0303 C   0  0  0  0  0  0  0  0  0  0  0  0
   -0.4476    0.8432   -0.0594 C   0  0  0  0  0  0  0  0  0  0  0  0
   -0.8615    1.7211    0.8490 C   0  0  0  0  0  0  0  0  0  0  0  0
   -2.2888    1.7488    0.6868 C   0  0  0  0  0  0  0  0  0  0  0  0
   -2.9330    0.9587   -0.2677 C   0  0  0  0  0  0  0  0  0  0  0  0
   -2.6970   -0.5212   -1.8611 H   0  0  0  0  0  0  0  0  0  0  0  0
   -0.1758   -0.6453   -1.6607 H   0  0  0  0  0  0  0  0  0  0  0  0
    2.9141    0.7207    0.2999 N   0  0  0  0  0  0  0  0  0  0  0  0
    4.0101    0.6842    0.4247 N   0  0  0  0  0  0  0  0  0  0  0  0
   -4.0181    1.0084   -0.3580 H   0  0  0  0  0  0  0  0  0  0  0  0
   -2.8298    2.4216    1.3560 H   0  0  0  0  0  0  0  0  0  0  0  0
   -0.3085    2.3129    1.5748 H   0  0  0  0  0  0  0  0  0  0  0  0
  1  2  2  0  0  0  0
  1  6  1  0  0  0  0
  2  3  1  0  0  0  0
  3  4  2  0  0  0  0
  4 13  1  0  0  0  0
  5  4  1  0  0  0  0
  5 12  1  0  0  0  0
  6  5  2  0  0  0  0
  7  1  1  0  0  0  0
  8  2  1  0  0  0  0
  9 10  3  0  0  0  0
 11  6  1  0  0  0  0
M  RAD  1   3   2
M  END
