Coordinates from ORCA-job Ph-N2+-scan-d09-169-n800
 OpenBabel09191813423D

 13 12  0  0  0  0  0  0  0  0999 V2000
   -2.5032    0.1085   -1.1431 C   0  0  0  0  0  0  0  0  0  0  0  0
   -1.0726   -0.0327   -1.1240 C   0  0  0  0  0  0  0  0  0  0  0  0
   -0.6808    0.7979   -0.1636 C   0  0  0  0  0  0  0  0  0  0  0  0
   -1.0322    1.6812    0.7648 C   0  0  0  0  0  0  0  0  0  0  0  0
   -2.4647    1.7445    0.6591 C   0  0  0  0  0  0  0  0  0  0  0  0
   -3.1659    0.9756   -0.2719 C   0  0  0  0  0  0  0  0  0  0  0  0
   -3.0294   -0.5028   -1.8799 H   0  0  0  0  0  0  0  0  0  0  0  0
   -0.5069   -0.6897   -1.7812 H   0  0  0  0  0  0  0  0  0  0  0  0
    4.1896    0.7800    0.5678 N   0  0  0  0  0  0  0  0  0  0  0  0
    5.2839    0.7586    0.7133 N   0  0  0  0  0  0  0  0  0  0  0  0
   -4.2522    1.0530   -0.3188 H   0  0  0  0  0  0  0  0  0  0  0  0
   -2.9611    2.4271    1.3527 H   0  0  0  0  0  0  0  0  0  0  0  0
   -0.4381    2.2566    1.4716 H   0  0  0  0  0  0  0  0  0  0  0  0
  1  2  2  0  0  0  0
  1  6  1  0  0  0  0
  2  3  1  0  0  0  0
  3  4  2  0  0  0  0
  4 13  1  0  0  0  0
  5  4  1  0  0  0  0
  5 12  1  0  0  0  0
  6  5  2  0  0  0  0
  7  1  1  0  0  0  0
  8  2  1  0  0  0  0
  9 10  3  0  0  0  0
 11  6  1  0  0  0  0
M  RAD  1   3   2
M  END
