Coordinates from ORCA-job Ph-N2+-scan-d09-169-n800
 OpenBabel09191813423D

 13 12  0  0  0  0  0  0  0  0999 V2000
   -3.5380    0.1198   -1.2667 C   0  0  0  0  0  0  0  0  0  0  0  0
   -2.1029    0.0297   -1.2605 C   0  0  0  0  0  0  0  0  0  0  0  0
   -1.7322    0.8776   -0.3069 C   0  0  0  0  0  0  0  0  0  0  0  0
   -2.1064    1.7514    0.6217 C   0  0  0  0  0  0  0  0  0  0  0  0
   -3.5413    1.7632    0.5290 C   0  0  0  0  0  0  0  0  0  0  0  0
   -4.2231    0.9660   -0.3925 C   0  0  0  0  0  0  0  0  0  0  0  0
   -4.0487   -0.5124   -1.9969 H   0  0  0  0  0  0  0  0  0  0  0  0
   -1.5211   -0.6097   -1.9211 H   0  0  0  0  0  0  0  0  0  0  0  0
    9.9915    0.5950    1.2776 N   0  0  0  0  0  0  0  0  0  0  0  0
   11.0829    0.5915    1.4462 N   0  0  0  0  0  0  0  0  0  0  0  0
   -5.3119    1.0044   -0.4296 H   0  0  0  0  0  0  0  0  0  0  0  0
   -4.0549    2.4309    1.2247 H   0  0  0  0  0  0  0  0  0  0  0  0
   -1.5275    2.3503    1.3217 H   0  0  0  0  0  0  0  0  0  0  0  0
  1  2  2  0  0  0  0
  1  6  1  0  0  0  0
  2  3  1  0  0  0  0
  3  4  2  0  0  0  0
  4 13  1  0  0  0  0
  5  4  1  0  0  0  0
  5 12  1  0  0  0  0
  6  5  2  0  0  0  0
  7  1  1  0  0  0  0
  8  2  1  0  0  0  0
  9 10  3  0  0  0  0
 11  6  1  0  0  0  0
M  RAD  1   3   2
M  END
