Coordinates from ORCA-job Ph-N2+-scan-d09-169-n800
 OpenBabel09191813423D

 13 13  0  0  0  0  0  0  0  0999 V2000
   -1.9177    0.0890   -1.0844 C   0  0  0  0  0  0  0  0  0  0  0  0
   -0.5390    0.0152   -0.9718 C   0  0  0  0  0  0  0  0  0  0  0  0
    0.0944    0.8272    0.0102 C   0  0  0  0  0  0  0  0  0  0  0  0
   -0.6372    1.6990    0.8647 C   0  0  0  0  0  0  0  0  0  0  0  0
   -2.0141    1.7450    0.7208 C   0  0  0  0  0  0  0  0  0  0  0  0
   -2.6499    0.9468   -0.2456 C   0  0  0  0  0  0  0  0  0  0  0  0
   -2.4313   -0.5206   -1.8265 H   0  0  0  0  0  0  0  0  0  0  0  0
    0.0589   -0.6373   -1.6068 H   0  0  0  0  0  0  0  0  0  0  0  0
    1.3681    0.7718    0.1303 N   0  0  0  0  0  0  0  0  0  0  0  0
    2.4815    0.7238    0.2364 N   0  0  0  0  0  0  0  0  0  0  0  0
   -3.7351    0.9932   -0.3459 H   0  0  0  0  0  0  0  0  0  0  0  0
   -2.6004    2.4021    1.3617 H   0  0  0  0  0  0  0  0  0  0  0  0
   -0.1119    2.3025    1.6037 H   0  0  0  0  0  0  0  0  0  0  0  0
  1  2  2  0  0  0  0
  1  6  1  0  0  0  0
  2  3  1  0  0  0  0
  3  9  1  0  0  0  0
  3  4  2  0  0  0  0
  4 13  1  0  0  0  0
  5  4  1  0  0  0  0
  5 12  1  0  0  0  0
  6  5  2  0  0  0  0
  7  1  1  0  0  0  0
  8  2  1  0  0  0  0
  9 10  1  0  0  0  0
 11  6  1  0  0  0  0
M  RAD  2   9   2  10   3
M  END
