Coordinates from ORCA-job Ph-N2+-scan-d09-169-n800
 OpenBabel09191813423D

 13 13  0  0  0  0  0  0  0  0999 V2000
   -1.9824    0.0947   -1.0873 C   0  0  0  0  0  0  0  0  0  0  0  0
   -0.5798    0.0076   -0.9854 C   0  0  0  0  0  0  0  0  0  0  0  0
   -0.1036    0.8357   -0.0085 C   0  0  0  0  0  0  0  0  0  0  0  0
   -0.6788    1.7094    0.8706 C   0  0  0  0  0  0  0  0  0  0  0  0
   -2.0782    1.7447    0.7116 C   0  0  0  0  0  0  0  0  0  0  0  0
   -2.7113    0.9497   -0.2516 C   0  0  0  0  0  0  0  0  0  0  0  0
   -2.4845   -0.5204   -1.8339 H   0  0  0  0  0  0  0  0  0  0  0  0
    0.0260   -0.6400   -1.6135 H   0  0  0  0  0  0  0  0  0  0  0  0
    1.7277    0.7564    0.1638 N   0  0  0  0  0  0  0  0  0  0  0  0
    2.8246    0.7103    0.2694 N   0  0  0  0  0  0  0  0  0  0  0  0
   -3.7956    0.9965   -0.3520 H   0  0  0  0  0  0  0  0  0  0  0  0
   -2.6534    2.4062    1.3594 H   0  0  0  0  0  0  0  0  0  0  0  0
   -0.1444    2.3070    1.6042 H   0  0  0  0  0  0  0  0  0  0  0  0
  1  2  2  0  0  0  0
  1  6  1  0  0  0  0
  2  3  1  0  0  0  0
  3  9  1  0  0  0  0
  3  4  2  0  0  0  0
  4 13  1  0  0  0  0
  5  4  1  0  0  0  0
  5 12  1  0  0  0  0
  6  5  2  0  0  0  0
  7  1  1  0  0  0  0
  8  2  1  0  0  0  0
  9 10  1  0  0  0  0
 11  6  1  0  0  0  0
M  RAD  2   9   2  10   3
M  END
