Coordinates from ORCA-job Ph-N2+-scan-d09-169-n800
 OpenBabel09191813423D

 13 12  0  0  0  0  0  0  0  0999 V2000
   -2.5294    0.1089   -1.1462 C   0  0  0  0  0  0  0  0  0  0  0  0
   -1.0988   -0.0332   -1.1293 C   0  0  0  0  0  0  0  0  0  0  0  0
   -0.7051    0.7971   -0.1694 C   0  0  0  0  0  0  0  0  0  0  0  0
   -1.0546    1.6805    0.7596 C   0  0  0  0  0  0  0  0  0  0  0  0
   -2.4872    1.7446    0.6561 C   0  0  0  0  0  0  0  0  0  0  0  0
   -3.1903    0.9762   -0.2740 C   0  0  0  0  0  0  0  0  0  0  0  0
   -3.0569   -0.5021   -1.8824 H   0  0  0  0  0  0  0  0  0  0  0  0
   -0.5345   -0.6904   -1.7875 H   0  0  0  0  0  0  0  0  0  0  0  0
    4.3234    0.7797    0.5882 N   0  0  0  0  0  0  0  0  0  0  0  0
    5.4176    0.7591    0.7348 N   0  0  0  0  0  0  0  0  0  0  0  0
   -4.2766    1.0543   -0.3193 H   0  0  0  0  0  0  0  0  0  0  0  0
   -2.9822    2.4274    1.3505 H   0  0  0  0  0  0  0  0  0  0  0  0
   -0.4593    2.2555    1.4657 H   0  0  0  0  0  0  0  0  0  0  0  0
  1  2  2  0  0  0  0
  1  6  1  0  0  0  0
  2  3  1  0  0  0  0
  3  4  2  0  0  0  0
  4 13  1  0  0  0  0
  5  4  1  0  0  0  0
  5 12  1  0  0  0  0
  6  5  2  0  0  0  0
  7  1  1  0  0  0  0
  8  2  1  0  0  0  0
  9 10  3  0  0  0  0
 11  6  1  0  0  0  0
M  RAD  1   3   2
M  END
