Coordinates from ORCA-job Ph-N2+-scan-d09-169-n800
 OpenBabel09191813423D

 13 12  0  0  0  0  0  0  0  0999 V2000
   -2.5099    0.1086   -1.1439 C   0  0  0  0  0  0  0  0  0  0  0  0
   -1.0793   -0.0330   -1.1255 C   0  0  0  0  0  0  0  0  0  0  0  0
   -0.6869    0.7975   -0.1652 C   0  0  0  0  0  0  0  0  0  0  0  0
   -1.0376    1.6809    0.7633 C   0  0  0  0  0  0  0  0  0  0  0  0
   -2.4701    1.7445    0.6584 C   0  0  0  0  0  0  0  0  0  0  0  0
   -3.1720    0.9758   -0.2724 C   0  0  0  0  0  0  0  0  0  0  0  0
   -3.0366   -0.5026   -1.8805 H   0  0  0  0  0  0  0  0  0  0  0  0
   -0.5141   -0.6900   -1.7830 H   0  0  0  0  0  0  0  0  0  0  0  0
    4.2230    0.7802    0.5732 N   0  0  0  0  0  0  0  0  0  0  0  0
    5.3173    0.7590    0.7190 N   0  0  0  0  0  0  0  0  0  0  0  0
   -4.2583    1.0535   -0.3187 H   0  0  0  0  0  0  0  0  0  0  0  0
   -2.9660    2.4272    1.3522 H   0  0  0  0  0  0  0  0  0  0  0  0
   -0.4430    2.2561    1.4699 H   0  0  0  0  0  0  0  0  0  0  0  0
  1  2  2  0  0  0  0
  1  6  1  0  0  0  0
  2  3  1  0  0  0  0
  3  4  2  0  0  0  0
  4 13  1  0  0  0  0
  5  4  1  0  0  0  0
  5 12  1  0  0  0  0
  6  5  2  0  0  0  0
  7  1  1  0  0  0  0
  8  2  1  0  0  0  0
  9 10  3  0  0  0  0
 11  6  1  0  0  0  0
M  RAD  1   3   2
M  END
