Coordinates from ORCA-job Ph-N2+-scan-d09-169-n800
 OpenBabel09191813423D

 13 12  0  0  0  0  0  0  0  0999 V2000
   -4.0262    0.1266   -1.3228 C   0  0  0  0  0  0  0  0  0  0  0  0
   -2.5902    0.0531   -1.3358 C   0  0  0  0  0  0  0  0  0  0  0  0
   -2.2166    0.9059   -0.3877 C   0  0  0  0  0  0  0  0  0  0  0  0
   -2.5882    1.7761    0.5452 C   0  0  0  0  0  0  0  0  0  0  0  0
   -4.0244    1.7712    0.4719 C   0  0  0  0  0  0  0  0  0  0  0  0
   -4.7092    0.9654   -0.4399 C   0  0  0  0  0  0  0  0  0  0  0  0
   -4.5393   -0.5118   -2.0459 H   0  0  0  0  0  0  0  0  0  0  0  0
   -2.0100   -0.5801   -2.0037 H   0  0  0  0  0  0  0  0  0  0  0  0
   12.6617    0.5230    1.6172 N   0  0  0  0  0  0  0  0  0  0  0  0
   13.7509    0.5213    1.7996 N   0  0  0  0  0  0  0  0  0  0  0  0
   -5.7989    0.9914   -0.4624 H   0  0  0  0  0  0  0  0  0  0  0  0
   -4.5362    2.4336    1.1739 H   0  0  0  0  0  0  0  0  0  0  0  0
   -2.0070    2.3820    1.2371 H   0  0  0  0  0  0  0  0  0  0  0  0
  1  6  1  0  0  0  0
  2  1  2  0  0  0  0
  2  3  1  0  0  0  0
  3  4  2  0  0  0  0
  4 13  1  0  0  0  0
  5  4  1  0  0  0  0
  5 12  1  0  0  0  0
  6  5  2  0  0  0  0
  7  1  1  0  0  0  0
  8  2  1  0  0  0  0
  9 10  3  0  0  0  0
 11  6  1  0  0  0  0
M  RAD  1   3   2
M  END
