Coordinates from ORCA-job Ph-N2+-scan-d09-169-n800
 OpenBabel09191813423D

 13 12  0  0  0  0  0  0  0  0999 V2000
   -2.7852    0.1108   -1.1776 C   0  0  0  0  0  0  0  0  0  0  0  0
   -1.3529   -0.0142   -1.1588 C   0  0  0  0  0  0  0  0  0  0  0  0
   -0.9703    0.8222   -0.1998 C   0  0  0  0  0  0  0  0  0  0  0  0
   -1.3314    1.7028    0.7275 C   0  0  0  0  0  0  0  0  0  0  0  0
   -2.7647    1.7496    0.6222 C   0  0  0  0  0  0  0  0  0  0  0  0
   -3.4574    0.9715   -0.3075 C   0  0  0  0  0  0  0  0  0  0  0  0
   -3.3045   -0.5074   -1.9137 H   0  0  0  0  0  0  0  0  0  0  0  0
   -0.7806   -0.6658   -1.8158 H   0  0  0  0  0  0  0  0  0  0  0  0
    5.7884    0.7267    0.7617 N   0  0  0  0  0  0  0  0  0  0  0  0
    6.8821    0.7115    0.9136 N   0  0  0  0  0  0  0  0  0  0  0  0
   -4.5445    1.0364   -0.3541 H   0  0  0  0  0  0  0  0  0  0  0  0
   -3.2683    2.4277    1.3151 H   0  0  0  0  0  0  0  0  0  0  0  0
   -0.7444    2.2860    1.4339 H   0  0  0  0  0  0  0  0  0  0  0  0
  1  2  2  0  0  0  0
  1  6  1  0  0  0  0
  2  3  1  0  0  0  0
  3  4  2  0  0  0  0
  4 13  1  0  0  0  0
  5  4  1  0  0  0  0
  5 12  1  0  0  0  0
  6  5  2  0  0  0  0
  7  1  1  0  0  0  0
  8  2  1  0  0  0  0
  9 10  3  0  0  0  0
 11  6  1  0  0  0  0
M  RAD  1   3   2
M  END
