Coordinates from ORCA-job Ph-N2+-scan-d09-169-n800
 OpenBabel09191813423D

 13 12  0  0  0  0  0  0  0  0999 V2000
   -2.2252    0.1052   -1.1086 C   0  0  0  0  0  0  0  0  0  0  0  0
   -0.7941   -0.0010   -1.0334 C   0  0  0  0  0  0  0  0  0  0  0  0
   -0.4570    0.8423   -0.0629 C   0  0  0  0  0  0  0  0  0  0  0  0
   -0.8687    1.7203    0.8462 C   0  0  0  0  0  0  0  0  0  0  0  0
   -2.2962    1.7487    0.6858 C   0  0  0  0  0  0  0  0  0  0  0  0
   -2.9421    0.9591   -0.2679 C   0  0  0  0  0  0  0  0  0  0  0  0
   -2.7089   -0.5207   -1.8618 H   0  0  0  0  0  0  0  0  0  0  0  0
   -0.1875   -0.6463   -1.6648 H   0  0  0  0  0  0  0  0  0  0  0  0
    2.9639    0.7215    0.3087 N   0  0  0  0  0  0  0  0  0  0  0  0
    4.0599    0.6857    0.4349 N   0  0  0  0  0  0  0  0  0  0  0  0
   -4.0273    1.0095   -0.3568 H   0  0  0  0  0  0  0  0  0  0  0  0
   -2.8360    2.4218    1.3559 H   0  0  0  0  0  0  0  0  0  0  0  0
   -0.3144    2.3117    1.5715 H   0  0  0  0  0  0  0  0  0  0  0  0
  1  2  2  0  0  0  0
  1  6  1  0  0  0  0
  2  3  1  0  0  0  0
  3  4  2  0  0  0  0
  4 13  1  0  0  0  0
  5  4  1  0  0  0  0
  5 12  1  0  0  0  0
  6  5  2  0  0  0  0
  7  1  1  0  0  0  0
  8  2  1  0  0  0  0
  9 10  3  0  0  0  0
 11  6  1  0  0  0  0
M  RAD  1   3   2
M  END
