Coordinates from ORCA-job Ph-N2+-scan-d09-169-n800
 OpenBabel09191813423D

 13 12  0  0  0  0  0  0  0  0999 V2000
   -2.6954    0.1101   -1.1666 C   0  0  0  0  0  0  0  0  0  0  0  0
   -1.2637   -0.0221   -1.1496 C   0  0  0  0  0  0  0  0  0  0  0  0
   -0.8758    0.8117   -0.1905 C   0  0  0  0  0  0  0  0  0  0  0  0
   -1.2312    1.6935    0.7378 C   0  0  0  0  0  0  0  0  0  0  0  0
   -2.6643    1.7476    0.6343 C   0  0  0  0  0  0  0  0  0  0  0  0
   -3.3621    0.9737   -0.2951 C   0  0  0  0  0  0  0  0  0  0  0  0
   -3.2187   -0.5050   -1.9024 H   0  0  0  0  0  0  0  0  0  0  0  0
   -0.6954   -0.6760   -1.8077 H   0  0  0  0  0  0  0  0  0  0  0  0
    5.2659    0.7485    0.7029 N   0  0  0  0  0  0  0  0  0  0  0  0
    6.3599    0.7305    0.8519 N   0  0  0  0  0  0  0  0  0  0  0  0
   -4.4490    1.0442   -0.3403 H   0  0  0  0  0  0  0  0  0  0  0  0
   -3.1637    2.4277    1.3283 H   0  0  0  0  0  0  0  0  0  0  0  0
   -0.6403    2.2732    1.4438 H   0  0  0  0  0  0  0  0  0  0  0  0
  1  2  2  0  0  0  0
  1  6  1  0  0  0  0
  2  3  1  0  0  0  0
  3  4  2  0  0  0  0
  4 13  1  0  0  0  0
  5  4  1  0  0  0  0
  5 12  1  0  0  0  0
  6  5  2  0  0  0  0
  7  1  1  0  0  0  0
  8  2  1  0  0  0  0
  9 10  3  0  0  0  0
 11  6  1  0  0  0  0
M  RAD  1   3   2
M  END
