Coordinates from ORCA-job Ph-N2+-scan-d09-169-n800
 OpenBabel09191813423D

 13 12  0  0  0  0  0  0  0  0999 V2000
   -3.7072    0.1215   -1.2854 C   0  0  0  0  0  0  0  0  0  0  0  0
   -2.2717    0.0392   -1.2883 C   0  0  0  0  0  0  0  0  0  0  0  0
   -1.8995    0.8894   -0.3373 C   0  0  0  0  0  0  0  0  0  0  0  0
   -2.2725    1.7615    0.5933 C   0  0  0  0  0  0  0  0  0  0  0  0
   -3.7080    1.7654    0.5098 C   0  0  0  0  0  0  0  0  0  0  0  0
   -4.3914    0.9642   -0.4071 C   0  0  0  0  0  0  0  0  0  0  0  0
   -4.2192   -0.5136   -2.0122 H   0  0  0  0  0  0  0  0  0  0  0  0
   -1.6907   -0.5973   -1.9524 H   0  0  0  0  0  0  0  0  0  0  0  0
   10.9149    0.5694    1.3953 N   0  0  0  0  0  0  0  0  0  0  0  0
   12.0053    0.5667    1.5706 N   0  0  0  0  0  0  0  0  0  0  0  0
   -5.4806    0.9968   -0.4373 H   0  0  0  0  0  0  0  0  0  0  0  0
   -4.2208    2.4307    1.2085 H   0  0  0  0  0  0  0  0  0  0  0  0
   -1.6924    2.3637    1.2895 H   0  0  0  0  0  0  0  0  0  0  0  0
  1  6  1  0  0  0  0
  2  1  2  0  0  0  0
  2  3  1  0  0  0  0
  3  4  2  0  0  0  0
  4 13  1  0  0  0  0
  5  4  1  0  0  0  0
  5 12  1  0  0  0  0
  6  5  2  0  0  0  0
  7  1  1  0  0  0  0
  8  2  1  0  0  0  0
  9 10  3  0  0  0  0
 11  6  1  0  0  0  0
M  RAD  1   3   2
M  END
