Coordinates from ORCA-job Ph-N2+-scan-d09-169-n800
 OpenBabel09191813423D

 13 12  0  0  0  0  0  0  0  0999 V2000
   -3.4177    0.1196   -1.2533 C   0  0  0  0  0  0  0  0  0  0  0  0
   -1.9833    0.0201   -1.2421 C   0  0  0  0  0  0  0  0  0  0  0  0
   -1.6106    0.8650   -0.2866 C   0  0  0  0  0  0  0  0  0  0  0  0
   -1.9824    1.7409    0.6410 C   0  0  0  0  0  0  0  0  0  0  0  0
   -3.4169    1.7617    0.5436 C   0  0  0  0  0  0  0  0  0  0  0  0
   -4.1005    0.9695   -0.3809 C   0  0  0  0  0  0  0  0  0  0  0  0
   -3.9299   -0.5089   -1.9856 H   0  0  0  0  0  0  0  0  0  0  0  0
   -1.4034   -0.6227   -1.9011 H   0  0  0  0  0  0  0  0  0  0  0  0
    9.3192    0.6180    1.1958 N   0  0  0  0  0  0  0  0  0  0  0  0
   10.4117    0.6117    1.3566 N   0  0  0  0  0  0  0  0  0  0  0  0
   -5.1890    1.0150   -0.4218 H   0  0  0  0  0  0  0  0  0  0  0  0
   -3.9287    2.4322    1.2380 H   0  0  0  0  0  0  0  0  0  0  0  0
   -1.4022    2.3356    1.3433 H   0  0  0  0  0  0  0  0  0  0  0  0
  1  2  2  0  0  0  0
  1  6  1  0  0  0  0
  2  3  1  0  0  0  0
  3  4  2  0  0  0  0
  4 13  1  0  0  0  0
  5  4  1  0  0  0  0
  5 12  1  0  0  0  0
  6  5  2  0  0  0  0
  7  1  1  0  0  0  0
  8  2  1  0  0  0  0
  9 10  3  0  0  0  0
 11  6  1  0  0  0  0
M  RAD  1   3   2
M  END
