Coordinates from ORCA-job Ph-N2+-scan-d09-169-n800
 OpenBabel09191813423D

 13 12  0  0  0  0  0  0  0  0999 V2000
   -2.0525    0.0999   -1.0913 C   0  0  0  0  0  0  0  0  0  0  0  0
   -0.6314    0.0025   -0.9985 C   0  0  0  0  0  0  0  0  0  0  0  0
   -0.2570    0.8419   -0.0240 C   0  0  0  0  0  0  0  0  0  0  0  0
   -0.7300    1.7182    0.8723 C   0  0  0  0  0  0  0  0  0  0  0  0
   -2.1469    1.7453    0.7025 C   0  0  0  0  0  0  0  0  0  0  0  0
   -2.7810    0.9527   -0.2579 C   0  0  0  0  0  0  0  0  0  0  0  0
   -2.5361   -0.5240   -1.8452 H   0  0  0  0  0  0  0  0  0  0  0  0
   -0.0210   -0.6428   -1.6242 H   0  0  0  0  0  0  0  0  0  0  0  0
    2.0921    0.7405    0.1986 N   0  0  0  0  0  0  0  0  0  0  0  0
    3.1889    0.6968    0.3074 N   0  0  0  0  0  0  0  0  0  0  0  0
   -3.8652    0.9995   -0.3576 H   0  0  0  0  0  0  0  0  0  0  0  0
   -2.7040    2.4140    1.3614 H   0  0  0  0  0  0  0  0  0  0  0  0
   -0.1895    2.3131    1.6032 H   0  0  0  0  0  0  0  0  0  0  0  0
  1  2  2  0  0  0  0
  1  6  1  0  0  0  0
  2  3  1  0  0  0  0
  3  4  2  0  0  0  0
  4 13  1  0  0  0  0
  5  4  1  0  0  0  0
  5 12  1  0  0  0  0
  6  5  2  0  0  0  0
  7  1  1  0  0  0  0
  8  2  1  0  0  0  0
  9 10  3  0  0  0  0
 11  6  1  0  0  0  0
M  RAD  1   3   2
M  END
