Coordinates from ORCA-job Ph-N2+-scan-d09-169-n800
 OpenBabel09191813423D

 13 12  0  0  0  0  0  0  0  0999 V2000
   -2.8115    0.1110   -1.1808 C   0  0  0  0  0  0  0  0  0  0  0  0
   -1.3790   -0.0121   -1.1617 C   0  0  0  0  0  0  0  0  0  0  0  0
   -0.9978    0.8249   -0.2027 C   0  0  0  0  0  0  0  0  0  0  0  0
   -1.3602    1.7052    0.7244 C   0  0  0  0  0  0  0  0  0  0  0  0
   -2.7935    1.7501    0.6187 C   0  0  0  0  0  0  0  0  0  0  0  0
   -3.4850    0.9710   -0.3110 C   0  0  0  0  0  0  0  0  0  0  0  0
   -3.3299   -0.5079   -1.9169 H   0  0  0  0  0  0  0  0  0  0  0  0
   -0.8058   -0.6631   -1.8184 H   0  0  0  0  0  0  0  0  0  0  0  0
    5.9399    0.7208    0.7791 N   0  0  0  0  0  0  0  0  0  0  0  0
    7.0335    0.7064    0.9319 N   0  0  0  0  0  0  0  0  0  0  0  0
   -4.5722    1.0346   -0.3579 H   0  0  0  0  0  0  0  0  0  0  0  0
   -3.2981    2.4277    1.3114 H   0  0  0  0  0  0  0  0  0  0  0  0
   -0.7741    2.2892    1.4309 H   0  0  0  0  0  0  0  0  0  0  0  0
  1  2  2  0  0  0  0
  1  6  1  0  0  0  0
  2  3  1  0  0  0  0
  3  4  2  0  0  0  0
  4 13  1  0  0  0  0
  5  4  1  0  0  0  0
  5 12  1  0  0  0  0
  6  5  2  0  0  0  0
  7  1  1  0  0  0  0
  8  2  1  0  0  0  0
  9 10  3  0  0  0  0
 11  6  1  0  0  0  0
M  RAD  1   3   2
M  END
