Coordinates from ORCA-job Ph-N2+-scan-d09-169-n800
 OpenBabel09191813423D

 13 12  0  0  0  0  0  0  0  0999 V2000
   -4.1312    0.1287   -1.3352 C   0  0  0  0  0  0  0  0  0  0  0  0
   -2.6951    0.0568   -1.3515 C   0  0  0  0  0  0  0  0  0  0  0  0
   -2.3203    0.9100   -0.4042 C   0  0  0  0  0  0  0  0  0  0  0  0
   -2.6908    1.7798    0.5295 C   0  0  0  0  0  0  0  0  0  0  0  0
   -4.1271    1.7732    0.4595 C   0  0  0  0  0  0  0  0  0  0  0  0
   -4.8131    0.9667   -0.4507 C   0  0  0  0  0  0  0  0  0  0  0  0
   -4.6452   -0.5102   -2.0571 H   0  0  0  0  0  0  0  0  0  0  0  0
   -2.1158   -0.5758   -2.0207 H   0  0  0  0  0  0  0  0  0  0  0  0
   13.2327    0.5086    1.6904 N   0  0  0  0  0  0  0  0  0  0  0  0
   14.3216    0.5072    1.8744 N   0  0  0  0  0  0  0  0  0  0  0  0
   -5.9028    0.9915   -0.4707 H   0  0  0  0  0  0  0  0  0  0  0  0
   -4.6381    2.4350    1.1628 H   0  0  0  0  0  0  0  0  0  0  0  0
   -2.1087    2.3863    1.2202 H   0  0  0  0  0  0  0  0  0  0  0  0
  1  6  1  0  0  0  0
  2  1  2  0  0  0  0
  2  3  1  0  0  0  0
  3  4  2  0  0  0  0
  4 13  1  0  0  0  0
  5  4  1  0  0  0  0
  5 12  1  0  0  0  0
  6  5  2  0  0  0  0
  7  1  1  0  0  0  0
  8  2  1  0  0  0  0
  9 10  3  0  0  0  0
 11  6  1  0  0  0  0
M  RAD  1   3   2
M  END
