Coordinates from ORCA-job Ph-N2+-scan-d09-169-n800
 OpenBabel09191813423D

 13 12  0  0  0  0  0  0  0  0999 V2000
   -3.1293    0.1152   -1.2198 C   0  0  0  0  0  0  0  0  0  0  0  0
   -1.6957    0.0072   -1.1989 C   0  0  0  0  0  0  0  0  0  0  0  0
   -1.3243    0.8495   -0.2407 C   0  0  0  0  0  0  0  0  0  0  0  0
   -1.6971    1.7271    0.6849 C   0  0  0  0  0  0  0  0  0  0  0  0
   -3.1307    1.7568    0.5774 C   0  0  0  0  0  0  0  0  0  0  0  0
   -3.8129    0.9691   -0.3519 C   0  0  0  0  0  0  0  0  0  0  0  0
   -3.6403   -0.5101   -1.9558 H   0  0  0  0  0  0  0  0  0  0  0  0
   -1.1151   -0.6387   -1.8543 H   0  0  0  0  0  0  0  0  0  0  0  0
    7.7401    0.6615    0.9958 N   0  0  0  0  0  0  0  0  0  0  0  0
    8.8335    0.6507    1.1503 N   0  0  0  0  0  0  0  0  0  0  0  0
   -4.9007    1.0211   -0.4001 H   0  0  0  0  0  0  0  0  0  0  0  0
   -3.6431    2.4302    1.2686 H   0  0  0  0  0  0  0  0  0  0  0  0
   -1.1181    2.3182    1.3913 H   0  0  0  0  0  0  0  0  0  0  0  0
  1  2  2  0  0  0  0
  1  6  1  0  0  0  0
  2  3  1  0  0  0  0
  3  4  2  0  0  0  0
  4 13  1  0  0  0  0
  5  4  1  0  0  0  0
  5 12  1  0  0  0  0
  6  5  2  0  0  0  0
  7  1  1  0  0  0  0
  8  2  1  0  0  0  0
  9 10  3  0  0  0  0
 11  6  1  0  0  0  0
M  RAD  1   3   2
M  END
