Coordinates from ORCA-job Ph-N2+-scan-d09-169-n800
 OpenBabel09191813423D

 13 12  0  0  0  0  0  0  0  0999 V2000
   -2.7213    0.1103   -1.1698 C   0  0  0  0  0  0  0  0  0  0  0  0
   -1.2894   -0.0196   -1.1522 C   0  0  0  0  0  0  0  0  0  0  0  0
   -0.9032    0.8150   -0.1930 C   0  0  0  0  0  0  0  0  0  0  0  0
   -1.2604    1.6964    0.7349 C   0  0  0  0  0  0  0  0  0  0  0  0
   -2.6936    1.7482    0.6307 C   0  0  0  0  0  0  0  0  0  0  0  0
   -3.3898    0.9729   -0.2987 C   0  0  0  0  0  0  0  0  0  0  0  0
   -3.2433   -0.5058   -1.9057 H   0  0  0  0  0  0  0  0  0  0  0  0
   -0.7198   -0.6729   -1.8099 H   0  0  0  0  0  0  0  0  0  0  0  0
    5.4176    0.7420    0.7199 N   0  0  0  0  0  0  0  0  0  0  0  0
    6.5116    0.7246    0.8695 N   0  0  0  0  0  0  0  0  0  0  0  0
   -4.4767    1.0417   -0.3445 H   0  0  0  0  0  0  0  0  0  0  0  0
   -3.1944    2.4277    1.3244 H   0  0  0  0  0  0  0  0  0  0  0  0
   -0.6708    2.2772    1.4411 H   0  0  0  0  0  0  0  0  0  0  0  0
  1  2  2  0  0  0  0
  1  6  1  0  0  0  0
  2  3  1  0  0  0  0
  3  4  2  0  0  0  0
  4 13  1  0  0  0  0
  5  4  1  0  0  0  0
  5 12  1  0  0  0  0
  6  5  2  0  0  0  0
  7  1  1  0  0  0  0
  8  2  1  0  0  0  0
  9 10  3  0  0  0  0
 11  6  1  0  0  0  0
M  RAD  1   3   2
M  END
