Coordinates from ORCA-job Ph-N2+-scan-d09-169-n800
 OpenBabel09191813423D

 13 12  0  0  0  0  0  0  0  0999 V2000
   -4.0292    0.1267   -1.3232 C   0  0  0  0  0  0  0  0  0  0  0  0
   -2.5932    0.0532   -1.3362 C   0  0  0  0  0  0  0  0  0  0  0  0
   -2.2196    0.9061   -0.3881 C   0  0  0  0  0  0  0  0  0  0  0  0
   -2.5914    1.7762    0.5448 C   0  0  0  0  0  0  0  0  0  0  0  0
   -4.0275    1.7712    0.4715 C   0  0  0  0  0  0  0  0  0  0  0  0
   -4.7123    0.9654   -0.4403 C   0  0  0  0  0  0  0  0  0  0  0  0
   -4.5423   -0.5118   -2.0462 H   0  0  0  0  0  0  0  0  0  0  0  0
   -2.0130   -0.5800   -2.0040 H   0  0  0  0  0  0  0  0  0  0  0  0
   12.6785    0.5225    1.6193 N   0  0  0  0  0  0  0  0  0  0  0  0
   13.7677    0.5209    1.8018 N   0  0  0  0  0  0  0  0  0  0  0  0
   -5.8019    0.9914   -0.4629 H   0  0  0  0  0  0  0  0  0  0  0  0
   -4.5394    2.4336    1.1735 H   0  0  0  0  0  0  0  0  0  0  0  0
   -2.0102    2.3822    1.2368 H   0  0  0  0  0  0  0  0  0  0  0  0
  1  6  1  0  0  0  0
  2  1  2  0  0  0  0
  2  3  1  0  0  0  0
  3  4  2  0  0  0  0
  4 13  1  0  0  0  0
  5  4  1  0  0  0  0
  5 12  1  0  0  0  0
  6  5  2  0  0  0  0
  7  1  1  0  0  0  0
  8  2  1  0  0  0  0
  9 10  3  0  0  0  0
 11  6  1  0  0  0  0
M  RAD  1   3   2
M  END
