Coordinates from ORCA-job Ph-N2+-scan-d09-169-n800
 OpenBabel09191813423D

 13 12  0  0  0  0  0  0  0  0999 V2000
   -3.2111    0.1166   -1.2299 C   0  0  0  0  0  0  0  0  0  0  0  0
   -1.7772    0.0104   -1.2093 C   0  0  0  0  0  0  0  0  0  0  0  0
   -1.4067    0.8534   -0.2512 C   0  0  0  0  0  0  0  0  0  0  0  0
   -1.7804    1.7306    0.6743 C   0  0  0  0  0  0  0  0  0  0  0  0
   -3.2141    1.7586    0.5671 C   0  0  0  0  0  0  0  0  0  0  0  0
   -3.8955    0.9699   -0.3620 C   0  0  0  0  0  0  0  0  0  0  0  0
   -3.7214   -0.5093   -1.9656 H   0  0  0  0  0  0  0  0  0  0  0  0
   -1.1961   -0.6348   -1.8647 H   0  0  0  0  0  0  0  0  0  0  0  0
    8.1941    0.6486    1.0515 N   0  0  0  0  0  0  0  0  0  0  0  0
    9.2873    0.6392    1.2076 N   0  0  0  0  0  0  0  0  0  0  0  0
   -4.9834    1.0205   -0.4099 H   0  0  0  0  0  0  0  0  0  0  0  0
   -3.7272    2.4314    1.2583 H   0  0  0  0  0  0  0  0  0  0  0  0
   -1.2020    2.3225    1.3805 H   0  0  0  0  0  0  0  0  0  0  0  0
  1  2  2  0  0  0  0
  1  6  1  0  0  0  0
  2  3  1  0  0  0  0
  3  4  2  0  0  0  0
  4 13  1  0  0  0  0
  5  4  1  0  0  0  0
  5 12  1  0  0  0  0
  6  5  2  0  0  0  0
  7  1  1  0  0  0  0
  8  2  1  0  0  0  0
  9 10  3  0  0  0  0
 11  6  1  0  0  0  0
M  RAD  1   3   2
M  END
