Coordinates from ORCA-job Ph-N2+-scan-d09-169-n800
 OpenBabel09191813423D

 13 12  0  0  0  0  0  0  0  0999 V2000
   -4.1799    0.1297   -1.3412 C   0  0  0  0  0  0  0  0  0  0  0  0
   -2.7438    0.0585   -1.3579 C   0  0  0  0  0  0  0  0  0  0  0  0
   -2.3692    0.9120   -0.4108 C   0  0  0  0  0  0  0  0  0  0  0  0
   -2.7398    1.7816    0.5231 C   0  0  0  0  0  0  0  0  0  0  0  0
   -4.1761    1.7743    0.4534 C   0  0  0  0  0  0  0  0  0  0  0  0
   -4.8620    0.9673   -0.4566 C   0  0  0  0  0  0  0  0  0  0  0  0
   -4.6938   -0.5096   -2.0629 H   0  0  0  0  0  0  0  0  0  0  0  0
   -2.1642   -0.5738   -2.0273 H   0  0  0  0  0  0  0  0  0  0  0  0
   13.5015    0.5014    1.7241 N   0  0  0  0  0  0  0  0  0  0  0  0
   14.5903    0.5004    1.9091 N   0  0  0  0  0  0  0  0  0  0  0  0
   -5.9517    0.9915   -0.4763 H   0  0  0  0  0  0  0  0  0  0  0  0
   -4.6873    2.4359    1.1567 H   0  0  0  0  0  0  0  0  0  0  0  0
   -2.1578    2.3885    1.2135 H   0  0  0  0  0  0  0  0  0  0  0  0
  1  6  1  0  0  0  0
  2  1  2  0  0  0  0
  2  3  1  0  0  0  0
  3  4  2  0  0  0  0
  4 13  1  0  0  0  0
  5  4  1  0  0  0  0
  5 12  1  0  0  0  0
  6  5  2  0  0  0  0
  7  1  1  0  0  0  0
  8  2  1  0  0  0  0
  9 10  3  0  0  0  0
 11  6  1  0  0  0  0
M  RAD  1   3   2
M  END
