Coordinates from ORCA-job Ph-N2+-scan-d09-169-n800
 OpenBabel09191813423D

 13 12  0  0  0  0  0  0  0  0999 V2000
   -2.7271    0.1103   -1.1705 C   0  0  0  0  0  0  0  0  0  0  0  0
   -1.2952   -0.0191   -1.1528 C   0  0  0  0  0  0  0  0  0  0  0  0
   -0.9093    0.8157   -0.1936 C   0  0  0  0  0  0  0  0  0  0  0  0
   -1.2669    1.6970    0.7343 C   0  0  0  0  0  0  0  0  0  0  0  0
   -2.7002    1.7483    0.6300 C   0  0  0  0  0  0  0  0  0  0  0  0
   -3.3959    0.9728   -0.2996 C   0  0  0  0  0  0  0  0  0  0  0  0
   -3.2488   -0.5060   -1.9064 H   0  0  0  0  0  0  0  0  0  0  0  0
   -0.7253   -0.6721   -1.8104 H   0  0  0  0  0  0  0  0  0  0  0  0
    5.4513    0.7405    0.7237 N   0  0  0  0  0  0  0  0  0  0  0  0
    6.5453    0.7233    0.8734 N   0  0  0  0  0  0  0  0  0  0  0  0
   -4.4829    1.0412   -0.3454 H   0  0  0  0  0  0  0  0  0  0  0  0
   -3.2012    2.4277    1.3236 H   0  0  0  0  0  0  0  0  0  0  0  0
   -0.6776    2.2781    1.4405 H   0  0  0  0  0  0  0  0  0  0  0  0
  1  2  2  0  0  0  0
  1  6  1  0  0  0  0
  2  3  1  0  0  0  0
  3  4  2  0  0  0  0
  4 13  1  0  0  0  0
  5  4  1  0  0  0  0
  5 12  1  0  0  0  0
  6  5  2  0  0  0  0
  7  1  1  0  0  0  0
  8  2  1  0  0  0  0
  9 10  3  0  0  0  0
 11  6  1  0  0  0  0
M  RAD  1   3   2
M  END
