Coordinates from ORCA-job Ph-N2+-scan-d09-169-n800
 OpenBabel09191813423D

 13 12  0  0  0  0  0  0  0  0999 V2000
   -3.4730    0.1190   -1.2585 C   0  0  0  0  0  0  0  0  0  0  0  0
   -2.0381    0.0258   -1.2532 C   0  0  0  0  0  0  0  0  0  0  0  0
   -1.6650    0.8726   -0.2996 C   0  0  0  0  0  0  0  0  0  0  0  0
   -2.0367    1.7469    0.6295 C   0  0  0  0  0  0  0  0  0  0  0  0
   -3.4717    1.7618    0.5377 C   0  0  0  0  0  0  0  0  0  0  0  0
   -4.1558    0.9664   -0.3836 C   0  0  0  0  0  0  0  0  0  0  0  0
   -3.9855   -0.5119   -1.9886 H   0  0  0  0  0  0  0  0  0  0  0  0
   -1.4582   -0.6146   -1.9144 H   0  0  0  0  0  0  0  0  0  0  0  0
    9.6212    0.6075    1.2350 N   0  0  0  0  0  0  0  0  0  0  0  0
   10.7132    0.6023    1.3992 N   0  0  0  0  0  0  0  0  0  0  0  0
   -5.2445    1.0072   -0.4200 H   0  0  0  0  0  0  0  0  0  0  0  0
   -3.9834    2.4304    1.2340 H   0  0  0  0  0  0  0  0  0  0  0  0
   -1.4561    2.3444    1.3293 H   0  0  0  0  0  0  0  0  0  0  0  0
  1  2  2  0  0  0  0
  1  6  1  0  0  0  0
  2  3  1  0  0  0  0
  3  4  2  0  0  0  0
  4 13  1  0  0  0  0
  5  4  1  0  0  0  0
  5 12  1  0  0  0  0
  6  5  2  0  0  0  0
  7  1  1  0  0  0  0
  8  2  1  0  0  0  0
  9 10  3  0  0  0  0
 11  6  1  0  0  0  0
M  RAD  1   3   2
M  END
