Coordinates from ORCA-job Ph-N2+-scan-d09-169-n800
 OpenBabel09191813423D

 13 12  0  0  0  0  0  0  0  0999 V2000
   -3.6277    0.1205   -1.2763 C   0  0  0  0  0  0  0  0  0  0  0  0
   -2.1924    0.0352   -1.2763 C   0  0  0  0  0  0  0  0  0  0  0  0
   -1.8203    0.8845   -0.3245 C   0  0  0  0  0  0  0  0  0  0  0  0
   -2.1933    1.7572    0.6056 C   0  0  0  0  0  0  0  0  0  0  0  0
   -3.6287    1.7641    0.5192 C   0  0  0  0  0  0  0  0  0  0  0  0
   -4.3118    0.9645   -0.3992 C   0  0  0  0  0  0  0  0  0  0  0  0
   -4.1396   -0.5135   -2.0041 H   0  0  0  0  0  0  0  0  0  0  0  0
   -1.6114   -0.6025   -1.9394 H   0  0  0  0  0  0  0  0  0  0  0  0
   10.4782    0.5816    1.3406 N   0  0  0  0  0  0  0  0  0  0  0  0
   11.5690    0.5784    1.5127 N   0  0  0  0  0  0  0  0  0  0  0  0
   -5.4010    0.9994   -0.4315 H   0  0  0  0  0  0  0  0  0  0  0  0
   -4.1414    2.4303    1.2170 H   0  0  0  0  0  0  0  0  0  0  0  0
   -1.6134    2.3581    1.3029 H   0  0  0  0  0  0  0  0  0  0  0  0
  1  6  1  0  0  0  0
  2  1  2  0  0  0  0
  2  3  1  0  0  0  0
  3  4  2  0  0  0  0
  4 13  1  0  0  0  0
  5  4  1  0  0  0  0
  5 12  1  0  0  0  0
  6  5  2  0  0  0  0
  7  1  1  0  0  0  0
  8  2  1  0  0  0  0
  9 10  3  0  0  0  0
 11  6  1  0  0  0  0
M  RAD  1   3   2
M  END
