Coordinates from ORCA-job Ph-N2+-scan-d09-169-n800
 OpenBabel09191813423D

 13 12  0  0  0  0  0  0  0  0999 V2000
   -3.7198    0.1216   -1.2867 C   0  0  0  0  0  0  0  0  0  0  0  0
   -2.2842    0.0398   -1.2907 C   0  0  0  0  0  0  0  0  0  0  0  0
   -1.9117    0.8901   -0.3399 C   0  0  0  0  0  0  0  0  0  0  0  0
   -2.2843    1.7622    0.5909 C   0  0  0  0  0  0  0  0  0  0  0  0
   -3.7199    1.7656    0.5085 C   0  0  0  0  0  0  0  0  0  0  0  0
   -4.4036    0.9641   -0.4079 C   0  0  0  0  0  0  0  0  0  0  0  0
   -4.2320   -0.5136   -2.0132 H   0  0  0  0  0  0  0  0  0  0  0  0
   -1.7035   -0.5964   -1.9553 H   0  0  0  0  0  0  0  0  0  0  0  0
   10.9820    0.5677    1.4042 N   0  0  0  0  0  0  0  0  0  0  0  0
   12.0723    0.5651    1.5799 N   0  0  0  0  0  0  0  0  0  0  0  0
   -5.4929    0.9963   -0.4373 H   0  0  0  0  0  0  0  0  0  0  0  0
   -4.2323    2.4306    1.2076 H   0  0  0  0  0  0  0  0  0  0  0  0
   -1.7039    2.3645    1.2867 H   0  0  0  0  0  0  0  0  0  0  0  0
  1  6  1  0  0  0  0
  2  1  2  0  0  0  0
  2  3  1  0  0  0  0
  3  4  2  0  0  0  0
  4 13  1  0  0  0  0
  5  4  1  0  0  0  0
  5 12  1  0  0  0  0
  6  5  2  0  0  0  0
  7  1  1  0  0  0  0
  8  2  1  0  0  0  0
  9 10  3  0  0  0  0
 11  6  1  0  0  0  0
M  RAD  1   3   2
M  END
