Coordinates from ORCA-job Ph-N2+-scan-d09-169-n800
 OpenBabel09191813423D

 13 12  0  0  0  0  0  0  0  0999 V2000
   -3.0901    0.1145   -1.2150 C   0  0  0  0  0  0  0  0  0  0  0  0
   -1.6565    0.0055   -1.1940 C   0  0  0  0  0  0  0  0  0  0  0  0
   -1.2846    0.8475   -0.2356 C   0  0  0  0  0  0  0  0  0  0  0  0
   -1.6569    1.7252    0.6900 C   0  0  0  0  0  0  0  0  0  0  0  0
   -3.0905    1.7560    0.5824 C   0  0  0  0  0  0  0  0  0  0  0  0
   -3.7731    0.9688   -0.3471 C   0  0  0  0  0  0  0  0  0  0  0  0
   -3.6014   -0.5103   -1.9510 H   0  0  0  0  0  0  0  0  0  0  0  0
   -1.0763   -0.6408   -1.8494 H   0  0  0  0  0  0  0  0  0  0  0  0
    7.5215    0.6679    0.9691 N   0  0  0  0  0  0  0  0  0  0  0  0
    8.6150    0.6563    1.1228 N   0  0  0  0  0  0  0  0  0  0  0  0
   -4.8609    1.0216   -0.3954 H   0  0  0  0  0  0  0  0  0  0  0  0
   -3.6025    2.4296    1.2736 H   0  0  0  0  0  0  0  0  0  0  0  0
   -1.0775    2.3159    1.3965 H   0  0  0  0  0  0  0  0  0  0  0  0
  1  2  2  0  0  0  0
  1  6  1  0  0  0  0
  2  3  1  0  0  0  0
  3  4  2  0  0  0  0
  4 13  1  0  0  0  0
  5  4  1  0  0  0  0
  5 12  1  0  0  0  0
  6  5  2  0  0  0  0
  7  1  1  0  0  0  0
  8  2  1  0  0  0  0
  9 10  3  0  0  0  0
 11  6  1  0  0  0  0
M  RAD  1   3   2
M  END
