Coordinates from ORCA-job Ph-N2+-scan-d09-169-n800
 OpenBabel09191813423D

 13 12  0  0  0  0  0  0  0  0999 V2000
   -2.2288    0.1052   -1.1090 C   0  0  0  0  0  0  0  0  0  0  0  0
   -0.7977   -0.0013   -1.0345 C   0  0  0  0  0  0  0  0  0  0  0  0
   -0.4601    0.8419   -0.0641 C   0  0  0  0  0  0  0  0  0  0  0  0
   -0.8711    1.7200    0.8453 C   0  0  0  0  0  0  0  0  0  0  0  0
   -2.2987    1.7487    0.6855 C   0  0  0  0  0  0  0  0  0  0  0  0
   -2.9452    0.9593   -0.2680 C   0  0  0  0  0  0  0  0  0  0  0  0
   -2.7130   -0.5206   -1.8621 H   0  0  0  0  0  0  0  0  0  0  0  0
   -0.1915   -0.6467   -1.6662 H   0  0  0  0  0  0  0  0  0  0  0  0
    2.9805    0.7218    0.3117 N   0  0  0  0  0  0  0  0  0  0  0  0
    4.0764    0.6862    0.4384 N   0  0  0  0  0  0  0  0  0  0  0  0
   -4.0304    1.0099   -0.3564 H   0  0  0  0  0  0  0  0  0  0  0  0
   -2.8380    2.4219    1.3558 H   0  0  0  0  0  0  0  0  0  0  0  0
   -0.3163    2.3113    1.5703 H   0  0  0  0  0  0  0  0  0  0  0  0
  1  2  2  0  0  0  0
  1  6  1  0  0  0  0
  2  3  1  0  0  0  0
  3  4  2  0  0  0  0
  4 13  1  0  0  0  0
  5  4  1  0  0  0  0
  5 12  1  0  0  0  0
  6  5  2  0  0  0  0
  7  1  1  0  0  0  0
  8  2  1  0  0  0  0
  9 10  3  0  0  0  0
 11  6  1  0  0  0  0
M  RAD  1   3   2
M  END
