Coordinates from ORCA-job Ph-N2+-scan-d09-169-n800
 OpenBabel09191813423D

 13 12  0  0  0  0  0  0  0  0999 V2000
   -3.2565    0.1175   -1.2355 C   0  0  0  0  0  0  0  0  0  0  0  0
   -1.8227    0.0121   -1.2150 C   0  0  0  0  0  0  0  0  0  0  0  0
   -1.4525    0.8554   -0.2571 C   0  0  0  0  0  0  0  0  0  0  0  0
   -1.8266    1.7324    0.6684 C   0  0  0  0  0  0  0  0  0  0  0  0
   -3.2604    1.7596    0.5614 C   0  0  0  0  0  0  0  0  0  0  0  0
   -3.9414    0.9704   -0.3676 C   0  0  0  0  0  0  0  0  0  0  0  0
   -3.7666   -0.5088   -1.9711 H   0  0  0  0  0  0  0  0  0  0  0  0
   -1.2412   -0.6328   -1.8705 H   0  0  0  0  0  0  0  0  0  0  0  0
    8.4463    0.6416    1.0825 N   0  0  0  0  0  0  0  0  0  0  0  0
    9.5394    0.6330    1.2395 N   0  0  0  0  0  0  0  0  0  0  0  0
   -5.0293    1.0204   -0.4154 H   0  0  0  0  0  0  0  0  0  0  0  0
   -3.7737    2.4322    1.2526 H   0  0  0  0  0  0  0  0  0  0  0  0
   -1.2485    2.3247    1.3745 H   0  0  0  0  0  0  0  0  0  0  0  0
  1  2  2  0  0  0  0
  1  6  1  0  0  0  0
  2  3  1  0  0  0  0
  3  4  2  0  0  0  0
  4 13  1  0  0  0  0
  5  4  1  0  0  0  0
  5 12  1  0  0  0  0
  6  5  2  0  0  0  0
  7  1  1  0  0  0  0
  8  2  1  0  0  0  0
  9 10  3  0  0  0  0
 11  6  1  0  0  0  0
M  RAD  1   3   2
M  END
