Coordinates from ORCA-job Ph-N2+-scan-d09-169-n800
 OpenBabel09191813423D

 13 12  0  0  0  0  0  0  0  0999 V2000
   -3.2474    0.1173   -1.2344 C   0  0  0  0  0  0  0  0  0  0  0  0
   -1.8136    0.0118   -1.2139 C   0  0  0  0  0  0  0  0  0  0  0  0
   -1.4434    0.8550   -0.2559 C   0  0  0  0  0  0  0  0  0  0  0  0
   -1.8174    1.7321    0.6696 C   0  0  0  0  0  0  0  0  0  0  0  0
   -3.2511    1.7594    0.5626 C   0  0  0  0  0  0  0  0  0  0  0  0
   -3.9322    0.9703   -0.3665 C   0  0  0  0  0  0  0  0  0  0  0  0
   -3.7576   -0.5089   -1.9700 H   0  0  0  0  0  0  0  0  0  0  0  0
   -1.2321   -0.6332   -1.8693 H   0  0  0  0  0  0  0  0  0  0  0  0
    8.3959    0.6429    1.0763 N   0  0  0  0  0  0  0  0  0  0  0  0
    9.4890    0.6342    1.2331 N   0  0  0  0  0  0  0  0  0  0  0  0
   -5.0201    1.0204   -0.4143 H   0  0  0  0  0  0  0  0  0  0  0  0
   -3.7644    2.4320    1.2538 H   0  0  0  0  0  0  0  0  0  0  0  0
   -1.2392    2.3243    1.3757 H   0  0  0  0  0  0  0  0  0  0  0  0
  1  2  2  0  0  0  0
  1  6  1  0  0  0  0
  2  3  1  0  0  0  0
  3  4  2  0  0  0  0
  4 13  1  0  0  0  0
  5  4  1  0  0  0  0
  5 12  1  0  0  0  0
  6  5  2  0  0  0  0
  7  1  1  0  0  0  0
  8  2  1  0  0  0  0
  9 10  3  0  0  0  0
 11  6  1  0  0  0  0
M  RAD  1   3   2
M  END
