Coordinates from ORCA-job Ph-N2+-scan-d09-169-n800
 OpenBabel09191813423D

 13 12  0  0  0  0  0  0  0  0999 V2000
   -3.5499    0.1200   -1.2682 C   0  0  0  0  0  0  0  0  0  0  0  0
   -2.1149    0.0302   -1.2619 C   0  0  0  0  0  0  0  0  0  0  0  0
   -1.7444    0.8783   -0.3083 C   0  0  0  0  0  0  0  0  0  0  0  0
   -2.1189    1.7520    0.6202 C   0  0  0  0  0  0  0  0  0  0  0  0
   -3.5538    1.7635    0.5274 C   0  0  0  0  0  0  0  0  0  0  0  0
   -4.2353    0.9660   -0.3941 C   0  0  0  0  0  0  0  0  0  0  0  0
   -4.0605   -0.5124   -1.9984 H   0  0  0  0  0  0  0  0  0  0  0  0
   -1.5329   -0.6091   -1.9224 H   0  0  0  0  0  0  0  0  0  0  0  0
   10.0588    0.5930    1.2856 N   0  0  0  0  0  0  0  0  0  0  0  0
   11.1501    0.5897    1.4548 N   0  0  0  0  0  0  0  0  0  0  0  0
   -5.3242    1.0043   -0.4312 H   0  0  0  0  0  0  0  0  0  0  0  0
   -4.0676    2.4311    1.2231 H   0  0  0  0  0  0  0  0  0  0  0  0
   -1.5402    2.3511    1.3202 H   0  0  0  0  0  0  0  0  0  0  0  0
  1  2  2  0  0  0  0
  1  6  1  0  0  0  0
  2  3  1  0  0  0  0
  3  4  2  0  0  0  0
  4 13  1  0  0  0  0
  5  4  1  0  0  0  0
  5 12  1  0  0  0  0
  6  5  2  0  0  0  0
  7  1  1  0  0  0  0
  8  2  1  0  0  0  0
  9 10  3  0  0  0  0
 11  6  1  0  0  0  0
M  RAD  1   3   2
M  END
