Coordinates from ORCA-job Ph-N2+-scan-d09-169-n800
 OpenBabel09191813423D

 13 12  0  0  0  0  0  0  0  0999 V2000
   -2.8784    0.1115   -1.1891 C   0  0  0  0  0  0  0  0  0  0  0  0
   -1.4455   -0.0067   -1.1687 C   0  0  0  0  0  0  0  0  0  0  0  0
   -1.0680    0.8321   -0.2097 C   0  0  0  0  0  0  0  0  0  0  0  0
   -1.4342    1.7115    0.7167 C   0  0  0  0  0  0  0  0  0  0  0  0
   -2.8676    1.7516    0.6097 C   0  0  0  0  0  0  0  0  0  0  0  0
   -3.5556    0.9696   -0.3202 C   0  0  0  0  0  0  0  0  0  0  0  0
   -3.3940   -0.5095   -1.9254 H   0  0  0  0  0  0  0  0  0  0  0  0
   -0.8696   -0.6560   -1.8247 H   0  0  0  0  0  0  0  0  0  0  0  0
    6.3272    0.7065    0.8244 N   0  0  0  0  0  0  0  0  0  0  0  0
    7.4209    0.6918    0.9768 N   0  0  0  0  0  0  0  0  0  0  0  0
   -4.6430    1.0294   -0.3681 H   0  0  0  0  0  0  0  0  0  0  0  0
   -3.3751    2.4278    1.3017 H   0  0  0  0  0  0  0  0  0  0  0  0
   -0.8508    2.2979    1.4234 H   0  0  0  0  0  0  0  0  0  0  0  0
  1  2  2  0  0  0  0
  1  6  1  0  0  0  0
  2  3  1  0  0  0  0
  3  4  2  0  0  0  0
  4 13  1  0  0  0  0
  5  4  1  0  0  0  0
  5 12  1  0  0  0  0
  6  5  2  0  0  0  0
  7  1  1  0  0  0  0
  8  2  1  0  0  0  0
  9 10  3  0  0  0  0
 11  6  1  0  0  0  0
M  RAD  1   3   2
M  END
