Coordinates from ORCA-job Ph-N2+-scan-d09-169-n800
 OpenBabel09191813423D

 13 12  0  0  0  0  0  0  0  0999 V2000
   -2.5917    0.1096   -1.1539 C   0  0  0  0  0  0  0  0  0  0  0  0
   -1.1610   -0.0318   -1.1395 C   0  0  0  0  0  0  0  0  0  0  0  0
   -0.7660    0.7986   -0.1803 C   0  0  0  0  0  0  0  0  0  0  0  0
   -1.1140    1.6818    0.7494 C   0  0  0  0  0  0  0  0  0  0  0  0
   -2.5469    1.7453    0.6484 C   0  0  0  0  0  0  0  0  0  0  0  0
   -3.2514    0.9767   -0.2805 C   0  0  0  0  0  0  0  0  0  0  0  0
   -3.1203   -0.5016   -1.8892 H   0  0  0  0  0  0  0  0  0  0  0  0
   -0.5977   -0.6888   -1.7989 H   0  0  0  0  0  0  0  0  0  0  0  0
    4.6589    0.7737    0.6342 N   0  0  0  0  0  0  0  0  0  0  0  0
    5.7530    0.7548    0.7823 N   0  0  0  0  0  0  0  0  0  0  0  0
   -4.3378    1.0544   -0.3238 H   0  0  0  0  0  0  0  0  0  0  0  0
   -3.0409    2.4279    1.3438 H   0  0  0  0  0  0  0  0  0  0  0  0
   -0.5180    2.2571    1.4546 H   0  0  0  0  0  0  0  0  0  0  0  0
  1  2  2  0  0  0  0
  1  6  1  0  0  0  0
  2  3  1  0  0  0  0
  3  4  2  0  0  0  0
  4 13  1  0  0  0  0
  5  4  1  0  0  0  0
  5 12  1  0  0  0  0
  6  5  2  0  0  0  0
  7  1  1  0  0  0  0
  8  2  1  0  0  0  0
  9 10  3  0  0  0  0
 11  6  1  0  0  0  0
M  RAD  1   3   2
M  END
