Coordinates from ORCA-job Ph-N2+-scan-d09-169-n800
 OpenBabel09191813423D

 13 12  0  0  0  0  0  0  0  0999 V2000
   -3.0931    0.1145   -1.2154 C   0  0  0  0  0  0  0  0  0  0  0  0
   -1.6595    0.0056   -1.1944 C   0  0  0  0  0  0  0  0  0  0  0  0
   -1.2877    0.8476   -0.2360 C   0  0  0  0  0  0  0  0  0  0  0  0
   -1.6600    1.7254    0.6896 C   0  0  0  0  0  0  0  0  0  0  0  0
   -3.0936    1.7561    0.5820 C   0  0  0  0  0  0  0  0  0  0  0  0
   -3.7761    0.9689   -0.3475 C   0  0  0  0  0  0  0  0  0  0  0  0
   -3.6044   -0.5103   -1.9514 H   0  0  0  0  0  0  0  0  0  0  0  0
   -1.0793   -0.6406   -1.8497 H   0  0  0  0  0  0  0  0  0  0  0  0
    7.5383    0.6674    0.9711 N   0  0  0  0  0  0  0  0  0  0  0  0
    8.6318    0.6559    1.1249 N   0  0  0  0  0  0  0  0  0  0  0  0
   -4.8639    1.0216   -0.3958 H   0  0  0  0  0  0  0  0  0  0  0  0
   -3.6056    2.4297    1.2732 H   0  0  0  0  0  0  0  0  0  0  0  0
   -1.0806    2.3160    1.3961 H   0  0  0  0  0  0  0  0  0  0  0  0
  1  2  2  0  0  0  0
  1  6  1  0  0  0  0
  2  3  1  0  0  0  0
  3  4  2  0  0  0  0
  4 13  1  0  0  0  0
  5  4  1  0  0  0  0
  5 12  1  0  0  0  0
  6  5  2  0  0  0  0
  7  1  1  0  0  0  0
  8  2  1  0  0  0  0
  9 10  3  0  0  0  0
 11  6  1  0  0  0  0
M  RAD  1   3   2
M  END
