Coordinates from ORCA-job Ph-N2+-scan-d09-169-n800
 OpenBabel09191813423D

 13 12  0  0  0  0  0  0  0  0999 V2000
   -3.3021    0.1184   -1.2411 C   0  0  0  0  0  0  0  0  0  0  0  0
   -1.8681    0.0138   -1.2208 C   0  0  0  0  0  0  0  0  0  0  0  0
   -1.4984    0.8572   -0.2629 C   0  0  0  0  0  0  0  0  0  0  0  0
   -1.8728    1.7342    0.6626 C   0  0  0  0  0  0  0  0  0  0  0  0
   -3.3065    1.7606    0.5557 C   0  0  0  0  0  0  0  0  0  0  0  0
   -3.9872    0.9710   -0.3732 C   0  0  0  0  0  0  0  0  0  0  0  0
   -3.8119   -0.5082   -1.9767 H   0  0  0  0  0  0  0  0  0  0  0  0
   -1.2864   -0.6309   -1.8763 H   0  0  0  0  0  0  0  0  0  0  0  0
    8.6985    0.6347    1.1135 N   0  0  0  0  0  0  0  0  0  0  0  0
    9.7915    0.6267    1.2714 N   0  0  0  0  0  0  0  0  0  0  0  0
   -5.0752    1.0205   -0.4209 H   0  0  0  0  0  0  0  0  0  0  0  0
   -3.8202    2.4329    1.2469 H   0  0  0  0  0  0  0  0  0  0  0  0
   -1.2949    2.3268    1.3686 H   0  0  0  0  0  0  0  0  0  0  0  0
  1  2  2  0  0  0  0
  1  6  1  0  0  0  0
  2  3  1  0  0  0  0
  3  4  2  0  0  0  0
  4 13  1  0  0  0  0
  5  4  1  0  0  0  0
  5 12  1  0  0  0  0
  6  5  2  0  0  0  0
  7  1  1  0  0  0  0
  8  2  1  0  0  0  0
  9 10  3  0  0  0  0
 11  6  1  0  0  0  0
M  RAD  1   3   2
M  END
