Coordinates from ORCA-job Ph-N2+-scan-d09-169-n800
 OpenBabel09191813423D

 13 12  0  0  0  0  0  0  0  0999 V2000
   -3.2353    0.1171   -1.2329 C   0  0  0  0  0  0  0  0  0  0  0  0
   -1.8014    0.0114   -1.2123 C   0  0  0  0  0  0  0  0  0  0  0  0
   -1.4312    0.8545   -0.2543 C   0  0  0  0  0  0  0  0  0  0  0  0
   -1.8051    1.7316    0.6712 C   0  0  0  0  0  0  0  0  0  0  0  0
   -3.2388    1.7591    0.5641 C   0  0  0  0  0  0  0  0  0  0  0  0
   -3.9199    0.9701   -0.3650 C   0  0  0  0  0  0  0  0  0  0  0  0
   -3.7455   -0.5090   -1.9686 H   0  0  0  0  0  0  0  0  0  0  0  0
   -1.2201   -0.6337   -1.8678 H   0  0  0  0  0  0  0  0  0  0  0  0
    8.3286    0.6448    1.0681 N   0  0  0  0  0  0  0  0  0  0  0  0
    9.4218    0.6359    1.2246 N   0  0  0  0  0  0  0  0  0  0  0  0
   -5.0079    1.0205   -0.4129 H   0  0  0  0  0  0  0  0  0  0  0  0
   -3.7520    2.4318    1.2553 H   0  0  0  0  0  0  0  0  0  0  0  0
   -1.2268    2.3237    1.3773 H   0  0  0  0  0  0  0  0  0  0  0  0
  1  2  2  0  0  0  0
  1  6  1  0  0  0  0
  2  3  1  0  0  0  0
  3  4  2  0  0  0  0
  4 13  1  0  0  0  0
  5  4  1  0  0  0  0
  5 12  1  0  0  0  0
  6  5  2  0  0  0  0
  7  1  1  0  0  0  0
  8  2  1  0  0  0  0
  9 10  3  0  0  0  0
 11  6  1  0  0  0  0
M  RAD  1   3   2
M  END
