Coordinates from ORCA-job Ph-N2+-scan-d09-169-n800
 OpenBabel09191813423D

 13 13  0  0  0  0  0  0  0  0999 V2000
   -1.9606    0.0924   -1.0867 C   0  0  0  0  0  0  0  0  0  0  0  0
   -0.5665    0.0107   -0.9802 C   0  0  0  0  0  0  0  0  0  0  0  0
   -0.0396    0.8329   -0.0024 C   0  0  0  0  0  0  0  0  0  0  0  0
   -0.6652    1.7053    0.8680 C   0  0  0  0  0  0  0  0  0  0  0  0
   -2.0567    1.7451    0.7152 C   0  0  0  0  0  0  0  0  0  0  0  0
   -2.6899    0.9488   -0.2496 C   0  0  0  0  0  0  0  0  0  0  0  0
   -2.4696   -0.5193   -1.8305 H   0  0  0  0  0  0  0  0  0  0  0  0
    0.0368   -0.6385   -1.6103 H   0  0  0  0  0  0  0  0  0  0  0  0
    1.6125    0.7614    0.1530 N   0  0  0  0  0  0  0  0  0  0  0  0
    2.7114    0.7149    0.2583 N   0  0  0  0  0  0  0  0  0  0  0  0
   -3.7743    0.9955   -0.3500 H   0  0  0  0  0  0  0  0  0  0  0  0
   -2.6385    2.4039    1.3589 H   0  0  0  0  0  0  0  0  0  0  0  0
   -0.1336    2.3046    1.6032 H   0  0  0  0  0  0  0  0  0  0  0  0
  1  2  2  0  0  0  0
  1  6  1  0  0  0  0
  2  3  1  0  0  0  0
  3  9  1  0  0  0  0
  3  4  2  0  0  0  0
  4 13  1  0  0  0  0
  5  4  1  0  0  0  0
  5 12  1  0  0  0  0
  6  5  2  0  0  0  0
  7  1  1  0  0  0  0
  8  2  1  0  0  0  0
  9 10  1  0  0  0  0
 11  6  1  0  0  0  0
M  RAD  2   9   2  10   3
M  END
