Coordinates from ORCA-job Ph-N2+-scan-d09-169-n800
 OpenBabel09191813423D

 13 12  0  0  0  0  0  0  0  0999 V2000
   -3.5230    0.1195   -1.2648 C   0  0  0  0  0  0  0  0  0  0  0  0
   -2.0880    0.0290   -1.2587 C   0  0  0  0  0  0  0  0  0  0  0  0
   -1.7169    0.8767   -0.3051 C   0  0  0  0  0  0  0  0  0  0  0  0
   -2.0907    1.7506    0.6235 C   0  0  0  0  0  0  0  0  0  0  0  0
   -3.5257    1.7628    0.5310 C   0  0  0  0  0  0  0  0  0  0  0  0
   -4.2078    0.9659   -0.3905 C   0  0  0  0  0  0  0  0  0  0  0  0
   -4.0340   -0.5125   -1.9950 H   0  0  0  0  0  0  0  0  0  0  0  0
   -1.5065   -0.6106   -1.9195 H   0  0  0  0  0  0  0  0  0  0  0  0
    9.9073    0.5976    1.2678 N   0  0  0  0  0  0  0  0  0  0  0  0
   10.9989    0.5938    1.4354 N   0  0  0  0  0  0  0  0  0  0  0  0
   -5.2966    1.0048   -0.4275 H   0  0  0  0  0  0  0  0  0  0  0  0
   -4.0389    2.4307    1.2268 H   0  0  0  0  0  0  0  0  0  0  0  0
   -1.5116    2.3493    1.3235 H   0  0  0  0  0  0  0  0  0  0  0  0
  1  2  2  0  0  0  0
  1  6  1  0  0  0  0
  2  3  1  0  0  0  0
  3  4  2  0  0  0  0
  4 13  1  0  0  0  0
  5  4  1  0  0  0  0
  5 12  1  0  0  0  0
  6  5  2  0  0  0  0
  7  1  1  0  0  0  0
  8  2  1  0  0  0  0
  9 10  3  0  0  0  0
 11  6  1  0  0  0  0
M  RAD  1   3   2
M  END
