Coordinates from ORCA-job Ph-N2+-scan-d09-169-n800
 OpenBabel09191813423D

 13 12  0  0  0  0  0  0  0  0999 V2000
   -2.7764    0.1107   -1.1765 C   0  0  0  0  0  0  0  0  0  0  0  0
   -1.3442   -0.0149   -1.1579 C   0  0  0  0  0  0  0  0  0  0  0  0
   -0.9612    0.8213   -0.1988 C   0  0  0  0  0  0  0  0  0  0  0  0
   -1.3218    1.7020    0.7286 C   0  0  0  0  0  0  0  0  0  0  0  0
   -2.7551    1.7494    0.6233 C   0  0  0  0  0  0  0  0  0  0  0  0
   -3.4482    0.9716   -0.3063 C   0  0  0  0  0  0  0  0  0  0  0  0
   -3.2961   -0.5072   -1.9126 H   0  0  0  0  0  0  0  0  0  0  0  0
   -0.7722   -0.6667   -1.8150 H   0  0  0  0  0  0  0  0  0  0  0  0
    5.7378    0.7287    0.7560 N   0  0  0  0  0  0  0  0  0  0  0  0
    6.8316    0.7132    0.9075 N   0  0  0  0  0  0  0  0  0  0  0  0
   -4.5353    1.0371   -0.3528 H   0  0  0  0  0  0  0  0  0  0  0  0
   -3.2583    2.4277    1.3164 H   0  0  0  0  0  0  0  0  0  0  0  0
   -0.7344    2.2848    1.4349 H   0  0  0  0  0  0  0  0  0  0  0  0
  1  2  2  0  0  0  0
  1  6  1  0  0  0  0
  2  3  1  0  0  0  0
  3  4  2  0  0  0  0
  4 13  1  0  0  0  0
  5  4  1  0  0  0  0
  5 12  1  0  0  0  0
  6  5  2  0  0  0  0
  7  1  1  0  0  0  0
  8  2  1  0  0  0  0
  9 10  3  0  0  0  0
 11  6  1  0  0  0  0
M  RAD  1   3   2
M  END
