Coordinates from ORCA-job Ph-N2+-scan-d09-169-n800
 OpenBabel09191813423D

 13 12  0  0  0  0  0  0  0  0999 V2000
   -3.6545    0.1209   -1.2797 C   0  0  0  0  0  0  0  0  0  0  0  0
   -2.2191    0.0365   -1.2794 C   0  0  0  0  0  0  0  0  0  0  0  0
   -1.8478    0.8862   -0.3276 C   0  0  0  0  0  0  0  0  0  0  0  0
   -2.2216    1.7588    0.6023 C   0  0  0  0  0  0  0  0  0  0  0  0
   -3.6569    1.7647    0.5156 C   0  0  0  0  0  0  0  0  0  0  0  0
   -4.3394    0.9645   -0.4028 C   0  0  0  0  0  0  0  0  0  0  0  0
   -4.1657   -0.5135   -2.0076 H   0  0  0  0  0  0  0  0  0  0  0  0
   -1.6375   -0.6008   -1.9422 H   0  0  0  0  0  0  0  0  0  0  0  0
   10.6296    0.5769    1.3585 N   0  0  0  0  0  0  0  0  0  0  0  0
   11.7203    0.5741    1.5319 N   0  0  0  0  0  0  0  0  0  0  0  0
   -5.4285    0.9986   -0.4353 H   0  0  0  0  0  0  0  0  0  0  0  0
   -4.1703    2.4306    1.2133 H   0  0  0  0  0  0  0  0  0  0  0  0
   -1.6422    2.3601    1.2998 H   0  0  0  0  0  0  0  0  0  0  0  0
  1  2  2  0  0  0  0
  1  6  1  0  0  0  0
  2  3  1  0  0  0  0
  3  4  2  0  0  0  0
  4 13  1  0  0  0  0
  5  4  1  0  0  0  0
  5 12  1  0  0  0  0
  6  5  2  0  0  0  0
  7  1  1  0  0  0  0
  8  2  1  0  0  0  0
  9 10  3  0  0  0  0
 11  6  1  0  0  0  0
M  RAD  1   3   2
M  END
