Coordinates from ORCA-job Ph-N2+-scan-d09-169-n800
 OpenBabel09191813423D

 13 12  0  0  0  0  0  0  0  0999 V2000
   -2.0440    0.0994   -1.0907 C   0  0  0  0  0  0  0  0  0  0  0  0
   -0.6244    0.0028   -0.9972 C   0  0  0  0  0  0  0  0  0  0  0  0
   -0.2421    0.8413   -0.0224 C   0  0  0  0  0  0  0  0  0  0  0  0
   -0.7231    1.7175    0.8726 C   0  0  0  0  0  0  0  0  0  0  0  0
   -2.1386    1.7451    0.7035 C   0  0  0  0  0  0  0  0  0  0  0  0
   -2.7725    0.9523   -0.2571 C   0  0  0  0  0  0  0  0  0  0  0  0
   -2.5290   -0.5238   -1.8439 H   0  0  0  0  0  0  0  0  0  0  0  0
   -0.0145   -0.6427   -1.6230 H   0  0  0  0  0  0  0  0  0  0  0  0
    2.0473    0.7424    0.1942 N   0  0  0  0  0  0  0  0  0  0  0  0
    3.1441    0.6984    0.3026 N   0  0  0  0  0  0  0  0  0  0  0  0
   -3.8567    0.9991   -0.3570 H   0  0  0  0  0  0  0  0  0  0  0  0
   -2.6971    2.4132    1.3615 H   0  0  0  0  0  0  0  0  0  0  0  0
   -0.1833    2.3126    1.6038 H   0  0  0  0  0  0  0  0  0  0  0  0
  1  2  2  0  0  0  0
  1  6  1  0  0  0  0
  2  3  1  0  0  0  0
  3  4  2  0  0  0  0
  4 13  1  0  0  0  0
  5  4  1  0  0  0  0
  5 12  1  0  0  0  0
  6  5  2  0  0  0  0
  7  1  1  0  0  0  0
  8  2  1  0  0  0  0
  9 10  3  0  0  0  0
 11  6  1  0  0  0  0
M  RAD  1   3   2
M  END
