Coordinates from ORCA-job Ph-N2+-scan-d09-169-n800
 OpenBabel09191813423D

 13 12  0  0  0  0  0  0  0  0999 V2000
   -4.2015    0.1301   -1.3438 C   0  0  0  0  0  0  0  0  0  0  0  0
   -2.7654    0.0593   -1.3611 C   0  0  0  0  0  0  0  0  0  0  0  0
   -2.3905    0.9128   -0.4141 C   0  0  0  0  0  0  0  0  0  0  0  0
   -2.7609    1.7823    0.5199 C   0  0  0  0  0  0  0  0  0  0  0  0
   -4.1973    1.7747    0.4508 C   0  0  0  0  0  0  0  0  0  0  0  0
   -4.8834    0.9676   -0.4588 C   0  0  0  0  0  0  0  0  0  0  0  0
   -4.7156   -0.5093   -2.0653 H   0  0  0  0  0  0  0  0  0  0  0  0
   -2.1860   -0.5729   -2.0307 H   0  0  0  0  0  0  0  0  0  0  0  0
   13.6191    0.4985    1.7392 N   0  0  0  0  0  0  0  0  0  0  0  0
   14.7078    0.4974    1.9244 N   0  0  0  0  0  0  0  0  0  0  0  0
   -5.9731    0.9916   -0.4781 H   0  0  0  0  0  0  0  0  0  0  0  0
   -4.7083    2.4362    1.1544 H   0  0  0  0  0  0  0  0  0  0  0  0
   -2.1788    2.3893    1.2101 H   0  0  0  0  0  0  0  0  0  0  0  0
  1  6  1  0  0  0  0
  2  1  2  0  0  0  0
  2  3  1  0  0  0  0
  3  4  2  0  0  0  0
  4 13  1  0  0  0  0
  5  4  1  0  0  0  0
  5 12  1  0  0  0  0
  6  5  2  0  0  0  0
  7  1  1  0  0  0  0
  8  2  1  0  0  0  0
  9 10  3  0  0  0  0
 11  6  1  0  0  0  0
M  RAD  1   3   2
M  END
