Coordinates from ORCA-job Ph-N2+-scan-d09-169-n800
 OpenBabel09191813423D

 13 12  0  0  0  0  0  0  0  0999 V2000
   -2.1794    0.1045   -1.1034 C   0  0  0  0  0  0  0  0  0  0  0  0
   -0.7492    0.0016   -1.0208 C   0  0  0  0  0  0  0  0  0  0  0  0
   -0.4157    0.8455   -0.0488 C   0  0  0  0  0  0  0  0  0  0  0  0
   -0.8370    1.7230    0.8573 C   0  0  0  0  0  0  0  0  0  0  0  0
   -2.2631    1.7486    0.6901 C   0  0  0  0  0  0  0  0  0  0  0  0
   -2.9025    0.9573   -0.2666 C   0  0  0  0  0  0  0  0  0  0  0  0
   -2.6587   -0.5224   -1.8586 H   0  0  0  0  0  0  0  0  0  0  0  0
   -0.1383   -0.6427   -1.6486 H   0  0  0  0  0  0  0  0  0  0  0  0
    2.7483    0.7194    0.2734 N   0  0  0  0  0  0  0  0  0  0  0  0
    3.8448    0.6812    0.3925 N   0  0  0  0  0  0  0  0  0  0  0  0
   -3.9873    1.0052   -0.3611 H   0  0  0  0  0  0  0  0  0  0  0  0
   -2.8081    2.4207    1.3567 H   0  0  0  0  0  0  0  0  0  0  0  0
   -0.2876    2.3159    1.5848 H   0  0  0  0  0  0  0  0  0  0  0  0
  1  2  2  0  0  0  0
  1  6  1  0  0  0  0
  2  3  1  0  0  0  0
  3  4  2  0  0  0  0
  4 13  1  0  0  0  0
  5  4  1  0  0  0  0
  5 12  1  0  0  0  0
  6  5  2  0  0  0  0
  7  1  1  0  0  0  0
  8  2  1  0  0  0  0
  9 10  3  0  0  0  0
 11  6  1  0  0  0  0
M  RAD  1   3   2
M  END
