Coordinates from ORCA-job Ph-N2+-scan-d09-169-n800
 OpenBabel09191813423D

 13 12  0  0  0  0  0  0  0  0999 V2000
   -3.0629    0.1140   -1.2117 C   0  0  0  0  0  0  0  0  0  0  0  0
   -1.6294    0.0043   -1.1906 C   0  0  0  0  0  0  0  0  0  0  0  0
   -1.2572    0.8460   -0.2321 C   0  0  0  0  0  0  0  0  0  0  0  0
   -1.6290    1.7239    0.6935 C   0  0  0  0  0  0  0  0  0  0  0  0
   -3.0626    1.7554    0.5858 C   0  0  0  0  0  0  0  0  0  0  0  0
   -3.7455    0.9687   -0.3438 C   0  0  0  0  0  0  0  0  0  0  0  0
   -3.5745   -0.5105   -1.9478 H   0  0  0  0  0  0  0  0  0  0  0  0
   -1.0495   -0.6422   -1.8459 H   0  0  0  0  0  0  0  0  0  0  0  0
    7.3702    0.6723    0.9505 N   0  0  0  0  0  0  0  0  0  0  0  0
    8.4638    0.6602    1.1038 N   0  0  0  0  0  0  0  0  0  0  0  0
   -4.8333    1.0220   -0.3922 H   0  0  0  0  0  0  0  0  0  0  0  0
   -3.5743    2.4293    1.2770 H   0  0  0  0  0  0  0  0  0  0  0  0
   -1.0494    2.3142    1.4001 H   0  0  0  0  0  0  0  0  0  0  0  0
  1  2  2  0  0  0  0
  1  6  1  0  0  0  0
  2  3  1  0  0  0  0
  3  4  2  0  0  0  0
  4 13  1  0  0  0  0
  5  4  1  0  0  0  0
  5 12  1  0  0  0  0
  6  5  2  0  0  0  0
  7  1  1  0  0  0  0
  8  2  1  0  0  0  0
  9 10  3  0  0  0  0
 11  6  1  0  0  0  0
M  RAD  1   3   2
M  END
