Coordinates from ORCA-job Ph-N2+-scan-d09-169-n800
 OpenBabel09191813423D

 13 12  0  0  0  0  0  0  0  0999 V2000
   -3.4993    0.1192   -1.2618 C   0  0  0  0  0  0  0  0  0  0  0  0
   -2.0644    0.0276   -1.2561 C   0  0  0  0  0  0  0  0  0  0  0  0
   -1.6925    0.8750   -0.3024 C   0  0  0  0  0  0  0  0  0  0  0  0
   -2.0655    1.7491    0.6264 C   0  0  0  0  0  0  0  0  0  0  0  0
   -3.5004    1.7623    0.5341 C   0  0  0  0  0  0  0  0  0  0  0  0
   -4.1833    0.9660   -0.3873 C   0  0  0  0  0  0  0  0  0  0  0  0
   -4.0109   -0.5123   -1.9919 H   0  0  0  0  0  0  0  0  0  0  0  0
   -1.4835   -0.6123   -1.9170 H   0  0  0  0  0  0  0  0  0  0  0  0
    9.7727    0.6020    1.2522 N   0  0  0  0  0  0  0  0  0  0  0  0
   10.8645    0.5977    1.4183 N   0  0  0  0  0  0  0  0  0  0  0  0
   -5.2721    1.0056   -0.4240 H   0  0  0  0  0  0  0  0  0  0  0  0
   -4.0131    2.4305    1.2301 H   0  0  0  0  0  0  0  0  0  0  0  0
   -1.4858    2.3473    1.3263 H   0  0  0  0  0  0  0  0  0  0  0  0
  1  2  2  0  0  0  0
  1  6  1  0  0  0  0
  2  3  1  0  0  0  0
  3  4  2  0  0  0  0
  4 13  1  0  0  0  0
  5  4  1  0  0  0  0
  5 12  1  0  0  0  0
  6  5  2  0  0  0  0
  7  1  1  0  0  0  0
  8  2  1  0  0  0  0
  9 10  3  0  0  0  0
 11  6  1  0  0  0  0
M  RAD  1   3   2
M  END
