Coordinates from ORCA-job Ph-N2+-scan-d09-169-n800
 OpenBabel09191813423D

 13 12  0  0  0  0  0  0  0  0999 V2000
   -2.2971    0.1058   -1.1174 C   0  0  0  0  0  0  0  0  0  0  0  0
   -0.8656   -0.0093   -1.0574 C   0  0  0  0  0  0  0  0  0  0  0  0
   -0.5152    0.8310   -0.0894 C   0  0  0  0  0  0  0  0  0  0  0  0
   -0.9099    1.7107    0.8251 C   0  0  0  0  0  0  0  0  0  0  0  0
   -2.3393    1.7478    0.6793 C   0  0  0  0  0  0  0  0  0  0  0  0
   -3.0000    0.9633   -0.2685 C   0  0  0  0  0  0  0  0  0  0  0  0
   -2.7920   -0.5165   -1.8665 H   0  0  0  0  0  0  0  0  0  0  0  0
   -0.2696   -0.6575   -1.6961 H   0  0  0  0  0  0  0  0  0  0  0  0
    3.2791    0.7356    0.3739 N   0  0  0  0  0  0  0  0  0  0  0  0
    4.3744    0.7045    0.5084 N   0  0  0  0  0  0  0  0  0  0  0  0
   -4.0857    1.0206   -0.3461 H   0  0  0  0  0  0  0  0  0  0  0  0
   -2.8676    2.4235    1.3559 H   0  0  0  0  0  0  0  0  0  0  0  0
   -0.3451    2.2982    1.5456 H   0  0  0  0  0  0  0  0  0  0  0  0
  1  2  2  0  0  0  0
  1  6  1  0  0  0  0
  2  3  1  0  0  0  0
  3  4  2  0  0  0  0
  4 13  1  0  0  0  0
  5  4  1  0  0  0  0
  5 12  1  0  0  0  0
  6  5  2  0  0  0  0
  7  1  1  0  0  0  0
  8  2  1  0  0  0  0
  9 10  3  0  0  0  0
 11  6  1  0  0  0  0
M  RAD  1   3   2
M  END
