Coordinates from ORCA-job Ph-N2+-scan-d09-169-n800
 OpenBabel09191813423D

 13 12  0  0  0  0  0  0  0  0999 V2000
   -2.2777    0.1057   -1.1150 C   0  0  0  0  0  0  0  0  0  0  0  0
   -0.8462   -0.0067   -1.0504 C   0  0  0  0  0  0  0  0  0  0  0  0
   -0.5000    0.8345   -0.0817 C   0  0  0  0  0  0  0  0  0  0  0  0
   -0.8997    1.7137    0.8313 C   0  0  0  0  0  0  0  0  0  0  0  0
   -2.3286    1.7482    0.6810 C   0  0  0  0  0  0  0  0  0  0  0  0
   -2.9848    0.9622   -0.2685 C   0  0  0  0  0  0  0  0  0  0  0  0
   -2.7692   -0.5177   -1.8654 H   0  0  0  0  0  0  0  0  0  0  0  0
   -0.2471   -0.6542   -1.6869 H   0  0  0  0  0  0  0  0  0  0  0  0
    3.1963    0.7306    0.3554 N   0  0  0  0  0  0  0  0  0  0  0  0
    4.2918    0.6987    0.4877 N   0  0  0  0  0  0  0  0  0  0  0  0
   -4.0703    1.0173   -0.3496 H   0  0  0  0  0  0  0  0  0  0  0  0
   -2.8602    2.4231    1.3557 H   0  0  0  0  0  0  0  0  0  0  0  0
   -0.3380    2.3024    1.5532 H   0  0  0  0  0  0  0  0  0  0  0  0
  1  2  2  0  0  0  0
  1  6  1  0  0  0  0
  2  3  1  0  0  0  0
  3  4  2  0  0  0  0
  4 13  1  0  0  0  0
  5  4  1  0  0  0  0
  5 12  1  0  0  0  0
  6  5  2  0  0  0  0
  7  1  1  0  0  0  0
  8  2  1  0  0  0  0
  9 10  3  0  0  0  0
 11  6  1  0  0  0  0
M  RAD  1   3   2
M  END
