Coordinates from ORCA-job Ph-N2+-scan-d09-169-n800
 OpenBabel09191813423D

 13 12  0  0  0  0  0  0  0  0999 V2000
   -2.1862    0.1046   -1.1042 C   0  0  0  0  0  0  0  0  0  0  0  0
   -0.7558    0.0014   -1.0225 C   0  0  0  0  0  0  0  0  0  0  0  0
   -0.4222    0.8452   -0.0507 C   0  0  0  0  0  0  0  0  0  0  0  0
   -0.8420    1.7228    0.8559 C   0  0  0  0  0  0  0  0  0  0  0  0
   -2.2684    1.7487    0.6894 C   0  0  0  0  0  0  0  0  0  0  0  0
   -2.9086    0.9575   -0.2669 C   0  0  0  0  0  0  0  0  0  0  0  0
   -2.6661   -0.5222   -1.8591 H   0  0  0  0  0  0  0  0  0  0  0  0
   -0.1454   -0.6431   -1.6507 H   0  0  0  0  0  0  0  0  0  0  0  0
    2.7814    0.7193    0.2782 N   0  0  0  0  0  0  0  0  0  0  0  0
    3.8779    0.6814    0.3984 N   0  0  0  0  0  0  0  0  0  0  0  0
   -3.9934    1.0057   -0.3607 H   0  0  0  0  0  0  0  0  0  0  0  0
   -2.8128    2.4209    1.3565 H   0  0  0  0  0  0  0  0  0  0  0  0
   -0.2920    2.3155    1.5831 H   0  0  0  0  0  0  0  0  0  0  0  0
  1  2  2  0  0  0  0
  1  6  1  0  0  0  0
  2  3  1  0  0  0  0
  3  4  2  0  0  0  0
  4 13  1  0  0  0  0
  5  4  1  0  0  0  0
  5 12  1  0  0  0  0
  6  5  2  0  0  0  0
  7  1  1  0  0  0  0
  8  2  1  0  0  0  0
  9 10  3  0  0  0  0
 11  6  1  0  0  0  0
M  RAD  1   3   2
M  END
