Coordinates from ORCA-job Ph-N2+-scan-d09-169-n800
 OpenBabel09191813423D

 13 13  0  0  0  0  0  0  0  0999 V2000
   -1.8880    0.0876   -1.0814 C   0  0  0  0  0  0  0  0  0  0  0  0
   -0.5211    0.0124   -0.9725 C   0  0  0  0  0  0  0  0  0  0  0  0
    0.2084    0.8221    0.0215 C   0  0  0  0  0  0  0  0  0  0  0  0
   -0.6197    1.7005    0.8691 C   0  0  0  0  0  0  0  0  0  0  0  0
   -1.9846    1.7440    0.7233 C   0  0  0  0  0  0  0  0  0  0  0  0
   -2.6252    0.9455   -0.2431 C   0  0  0  0  0  0  0  0  0  0  0  0
   -2.3995   -0.5235   -1.8249 H   0  0  0  0  0  0  0  0  0  0  0  0
    0.0882   -0.6365   -1.6031 H   0  0  0  0  0  0  0  0  0  0  0  0
    1.1634    0.7804    0.1113 N   0  0  0  0  0  0  0  0  0  0  0  0
    2.3073    0.7307    0.2191 N   0  0  0  0  0  0  0  0  0  0  0  0
   -3.7107    0.9918   -0.3435 H   0  0  0  0  0  0  0  0  0  0  0  0
   -2.5692    2.4027    1.3655 H   0  0  0  0  0  0  0  0  0  0  0  0
   -0.0830    2.3000    1.6055 H   0  0  0  0  0  0  0  0  0  0  0  0
  1  2  2  0  0  0  0
  1  6  1  0  0  0  0
  2  3  1  0  0  0  0
  3  9  1  0  0  0  0
  3  4  2  0  0  0  0
  4 13  1  0  0  0  0
  5  4  1  0  0  0  0
  5 12  1  0  0  0  0
  6  5  2  0  0  0  0
  7  1  1  0  0  0  0
  8  2  1  0  0  0  0
  9 10  1  0  0  0  0
 11  6  1  0  0  0  0
M  RAD  2   9   2  10   3
M  END
