Coordinates from ORCA-job Ph-N2+-scan-d09-169-n800
 OpenBabel09191813423D

 13 12  0  0  0  0  0  0  0  0999 V2000
   -2.7443    0.1104   -1.1726 C   0  0  0  0  0  0  0  0  0  0  0  0
   -1.3123   -0.0175   -1.1545 C   0  0  0  0  0  0  0  0  0  0  0  0
   -0.9276    0.8179   -0.1953 C   0  0  0  0  0  0  0  0  0  0  0  0
   -1.2865    1.6989    0.7324 C   0  0  0  0  0  0  0  0  0  0  0  0
   -2.7197    1.7487    0.6276 C   0  0  0  0  0  0  0  0  0  0  0  0
   -3.4144    0.9723   -0.3020 C   0  0  0  0  0  0  0  0  0  0  0  0
   -3.2652   -0.5065   -1.9086 H   0  0  0  0  0  0  0  0  0  0  0  0
   -0.7416   -0.6700   -1.8118 H   0  0  0  0  0  0  0  0  0  0  0  0
    5.5525    0.7362    0.7349 N   0  0  0  0  0  0  0  0  0  0  0  0
    6.6464    0.7195    0.8852 N   0  0  0  0  0  0  0  0  0  0  0  0
   -4.5014    1.0395   -0.3481 H   0  0  0  0  0  0  0  0  0  0  0  0
   -3.2216    2.4276    1.3210 H   0  0  0  0  0  0  0  0  0  0  0  0
   -0.6979    2.2807    1.4386 H   0  0  0  0  0  0  0  0  0  0  0  0
  1  2  2  0  0  0  0
  1  6  1  0  0  0  0
  2  3  1  0  0  0  0
  3  4  2  0  0  0  0
  4 13  1  0  0  0  0
  5  4  1  0  0  0  0
  5 12  1  0  0  0  0
  6  5  2  0  0  0  0
  7  1  1  0  0  0  0
  8  2  1  0  0  0  0
  9 10  3  0  0  0  0
 11  6  1  0  0  0  0
M  RAD  1   3   2
M  END
