Coordinates from ORCA-job Ph-N2+-scan-d09-169-n800
 OpenBabel09191813423D

 13 12  0  0  0  0  0  0  0  0999 V2000
   -3.2687    0.1178   -1.2370 C   0  0  0  0  0  0  0  0  0  0  0  0
   -1.8348    0.0126   -1.2166 C   0  0  0  0  0  0  0  0  0  0  0  0
   -1.4648    0.8559   -0.2586 C   0  0  0  0  0  0  0  0  0  0  0  0
   -1.8389    1.7329    0.6669 C   0  0  0  0  0  0  0  0  0  0  0  0
   -3.2727    1.7599    0.5599 C   0  0  0  0  0  0  0  0  0  0  0  0
   -3.9536    0.9706   -0.3691 C   0  0  0  0  0  0  0  0  0  0  0  0
   -3.7787   -0.5086   -1.9726 H   0  0  0  0  0  0  0  0  0  0  0  0
   -1.2532   -0.6323   -1.8720 H   0  0  0  0  0  0  0  0  0  0  0  0
    8.5136    0.6397    1.0908 N   0  0  0  0  0  0  0  0  0  0  0  0
    9.6066    0.6313    1.2480 N   0  0  0  0  0  0  0  0  0  0  0  0
   -5.0415    1.0205   -0.4169 H   0  0  0  0  0  0  0  0  0  0  0  0
   -3.7861    2.4324    1.2511 H   0  0  0  0  0  0  0  0  0  0  0  0
   -1.2608    2.3253    1.3729 H   0  0  0  0  0  0  0  0  0  0  0  0
  1  2  2  0  0  0  0
  1  6  1  0  0  0  0
  2  3  1  0  0  0  0
  3  4  2  0  0  0  0
  4 13  1  0  0  0  0
  5  4  1  0  0  0  0
  5 12  1  0  0  0  0
  6  5  2  0  0  0  0
  7  1  1  0  0  0  0
  8  2  1  0  0  0  0
  9 10  3  0  0  0  0
 11  6  1  0  0  0  0
M  RAD  1   3   2
M  END
