Coordinates from ORCA-job Ph-N2+-scan-d09-169-n800
 OpenBabel09191813423D

 13 12  0  0  0  0  0  0  0  0999 V2000
   -3.5112    0.1194   -1.2633 C   0  0  0  0  0  0  0  0  0  0  0  0
   -2.0762    0.0283   -1.2574 C   0  0  0  0  0  0  0  0  0  0  0  0
   -1.7047    0.8759   -0.3038 C   0  0  0  0  0  0  0  0  0  0  0  0
   -2.0781    1.7499    0.6249 C   0  0  0  0  0  0  0  0  0  0  0  0
   -3.5131    1.7626    0.5326 C   0  0  0  0  0  0  0  0  0  0  0  0
   -4.1956    0.9659   -0.3889 C   0  0  0  0  0  0  0  0  0  0  0  0
   -4.0224   -0.5124   -1.9934 H   0  0  0  0  0  0  0  0  0  0  0  0
   -1.4950   -0.6114   -1.9182 H   0  0  0  0  0  0  0  0  0  0  0  0
    9.8400    0.5998    1.2600 N   0  0  0  0  0  0  0  0  0  0  0  0
   10.9317    0.5957    1.4268 N   0  0  0  0  0  0  0  0  0  0  0  0
   -5.2844    1.0051   -0.4258 H   0  0  0  0  0  0  0  0  0  0  0  0
   -4.0261    2.4306    1.2284 H   0  0  0  0  0  0  0  0  0  0  0  0
   -1.4987    2.3483    1.3249 H   0  0  0  0  0  0  0  0  0  0  0  0
  1  2  2  0  0  0  0
  1  6  1  0  0  0  0
  2  3  1  0  0  0  0
  3  4  2  0  0  0  0
  4 13  1  0  0  0  0
  5  4  1  0  0  0  0
  5 12  1  0  0  0  0
  6  5  2  0  0  0  0
  7  1  1  0  0  0  0
  8  2  1  0  0  0  0
  9 10  3  0  0  0  0
 11  6  1  0  0  0  0
M  RAD  1   3   2
M  END
