Coordinates from ORCA-job Ph-N2+-scan-d09-169-n800
 OpenBabel09191813423D

 13 12  0  0  0  0  0  0  0  0999 V2000
   -3.6983    0.1214   -1.2843 C   0  0  0  0  0  0  0  0  0  0  0  0
   -2.2628    0.0388   -1.2873 C   0  0  0  0  0  0  0  0  0  0  0  0
   -1.8904    0.8888   -0.3363 C   0  0  0  0  0  0  0  0  0  0  0  0
   -2.2630    1.7610    0.5944 C   0  0  0  0  0  0  0  0  0  0  0  0
   -3.6986    1.7652    0.5110 C   0  0  0  0  0  0  0  0  0  0  0  0
   -4.3822    0.9642   -0.4059 C   0  0  0  0  0  0  0  0  0  0  0  0
   -4.2104   -0.5136   -2.0111 H   0  0  0  0  0  0  0  0  0  0  0  0
   -1.6820   -0.5978   -1.9515 H   0  0  0  0  0  0  0  0  0  0  0  0
   10.8645    0.5709    1.3893 N   0  0  0  0  0  0  0  0  0  0  0  0
   11.9549    0.5682    1.5642 N   0  0  0  0  0  0  0  0  0  0  0  0
   -5.4714    0.9971   -0.4360 H   0  0  0  0  0  0  0  0  0  0  0  0
   -4.2112    2.4306    1.2098 H   0  0  0  0  0  0  0  0  0  0  0  0
   -1.6828    2.3630    1.2905 H   0  0  0  0  0  0  0  0  0  0  0  0
  1  6  1  0  0  0  0
  2  1  2  0  0  0  0
  2  3  1  0  0  0  0
  3  4  2  0  0  0  0
  4 13  1  0  0  0  0
  5  4  1  0  0  0  0
  5 12  1  0  0  0  0
  6  5  2  0  0  0  0
  7  1  1  0  0  0  0
  8  2  1  0  0  0  0
  9 10  3  0  0  0  0
 11  6  1  0  0  0  0
M  RAD  1   3   2
M  END
