Coordinates from ORCA-job Ph-N2+-scan-d09-169-n800
 OpenBabel09191813423D

 13 12  0  0  0  0  0  0  0  0999 V2000
   -3.3446    0.1193   -1.2464 C   0  0  0  0  0  0  0  0  0  0  0  0
   -1.9106    0.0153   -1.2262 C   0  0  0  0  0  0  0  0  0  0  0  0
   -1.5411    0.8590   -0.2683 C   0  0  0  0  0  0  0  0  0  0  0  0
   -1.9159    1.7358    0.6571 C   0  0  0  0  0  0  0  0  0  0  0  0
   -3.3497    1.7615    0.5503 C   0  0  0  0  0  0  0  0  0  0  0  0
   -4.0300    0.9716   -0.3784 C   0  0  0  0  0  0  0  0  0  0  0  0
   -3.8542   -0.5076   -1.9819 H   0  0  0  0  0  0  0  0  0  0  0  0
   -1.3286   -0.6292   -1.8816 H   0  0  0  0  0  0  0  0  0  0  0  0
    8.9339    0.6282    1.1424 N   0  0  0  0  0  0  0  0  0  0  0  0
   10.0267    0.6209    1.3012 N   0  0  0  0  0  0  0  0  0  0  0  0
   -5.1180    1.0205   -0.4261 H   0  0  0  0  0  0  0  0  0  0  0  0
   -3.8636    2.4337    1.2416 H   0  0  0  0  0  0  0  0  0  0  0  0
   -1.3382    2.3287    1.3631 H   0  0  0  0  0  0  0  0  0  0  0  0
  1  2  2  0  0  0  0
  1  6  1  0  0  0  0
  2  3  1  0  0  0  0
  3  4  2  0  0  0  0
  4 13  1  0  0  0  0
  5  4  1  0  0  0  0
  5 12  1  0  0  0  0
  6  5  2  0  0  0  0
  7  1  1  0  0  0  0
  8  2  1  0  0  0  0
  9 10  3  0  0  0  0
 11  6  1  0  0  0  0
M  RAD  1   3   2
M  END
