Coordinates from ORCA-job Ph-N2+-scan-d09-169-n800
 OpenBabel09191813423D

 13 13  0  0  0  0  0  0  0  0999 V2000
   -1.9849    0.0949   -1.0873 C   0  0  0  0  0  0  0  0  0  0  0  0
   -0.5814    0.0073   -0.9860 C   0  0  0  0  0  0  0  0  0  0  0  0
   -0.1105    0.8360   -0.0092 C   0  0  0  0  0  0  0  0  0  0  0  0
   -0.6804    1.7099    0.8708 C   0  0  0  0  0  0  0  0  0  0  0  0
   -2.0806    1.7446    0.7113 C   0  0  0  0  0  0  0  0  0  0  0  0
   -2.7138    0.9498   -0.2519 C   0  0  0  0  0  0  0  0  0  0  0  0
   -2.4861   -0.5206   -1.8343 H   0  0  0  0  0  0  0  0  0  0  0  0
    0.0246   -0.6402   -1.6140 H   0  0  0  0  0  0  0  0  0  0  0  0
    1.7408    0.7558    0.1650 N   0  0  0  0  0  0  0  0  0  0  0  0
    2.8376    0.7098    0.2707 N   0  0  0  0  0  0  0  0  0  0  0  0
   -3.7980    0.9966   -0.3522 H   0  0  0  0  0  0  0  0  0  0  0  0
   -2.6551    2.4065    1.3595 H   0  0  0  0  0  0  0  0  0  0  0  0
   -0.1458    2.3073    1.6043 H   0  0  0  0  0  0  0  0  0  0  0  0
  1  2  2  0  0  0  0
  1  6  1  0  0  0  0
  2  3  1  0  0  0  0
  3  9  1  0  0  0  0
  3  4  2  0  0  0  0
  4 13  1  0  0  0  0
  5  4  1  0  0  0  0
  5 12  1  0  0  0  0
  6  5  2  0  0  0  0
  7  1  1  0  0  0  0
  8  2  1  0  0  0  0
  9 10  1  0  0  0  0
 11  6  1  0  0  0  0
M  RAD  2   9   2  10   3
M  END
