Coordinates from ORCA-job Ph-N2+-scan-d09-169-n800
 OpenBabel09191813423D

 13 12  0  0  0  0  0  0  0  0999 V2000
   -3.7622    0.1223   -1.2919 C   0  0  0  0  0  0  0  0  0  0  0  0
   -2.3266    0.0419   -1.2965 C   0  0  0  0  0  0  0  0  0  0  0  0
   -1.9544    0.8927   -0.3460 C   0  0  0  0  0  0  0  0  0  0  0  0
   -2.3274    1.7644    0.5850 C   0  0  0  0  0  0  0  0  0  0  0  0
   -3.7630    1.7664    0.5032 C   0  0  0  0  0  0  0  0  0  0  0  0
   -4.4464    0.9641   -0.4128 C   0  0  0  0  0  0  0  0  0  0  0  0
   -4.2742   -0.5136   -2.0180 H   0  0  0  0  0  0  0  0  0  0  0  0
   -1.7455   -0.5939   -1.9612 H   0  0  0  0  0  0  0  0  0  0  0  0
   11.2173    0.5610    1.4334 N   0  0  0  0  0  0  0  0  0  0  0  0
   12.3074    0.5586    1.6103 N   0  0  0  0  0  0  0  0  0  0  0  0
   -5.5357    0.9953   -0.4416 H   0  0  0  0  0  0  0  0  0  0  0  0
   -4.2758    2.4310    1.2025 H   0  0  0  0  0  0  0  0  0  0  0  0
   -1.7473    2.3674    1.2804 H   0  0  0  0  0  0  0  0  0  0  0  0
  1  6  1  0  0  0  0
  2  1  2  0  0  0  0
  2  3  1  0  0  0  0
  3  4  2  0  0  0  0
  4 13  1  0  0  0  0
  5  4  1  0  0  0  0
  5 12  1  0  0  0  0
  6  5  2  0  0  0  0
  7  1  1  0  0  0  0
  8  2  1  0  0  0  0
  9 10  3  0  0  0  0
 11  6  1  0  0  0  0
M  RAD  1   3   2
M  END
