Coordinates from ORCA-job Ph-N2+-scan-d09-169-n800
 OpenBabel09191813423D

 13 12  0  0  0  0  0  0  0  0999 V2000
   -3.3597    0.1196   -1.2483 C   0  0  0  0  0  0  0  0  0  0  0  0
   -1.9257    0.0158   -1.2281 C   0  0  0  0  0  0  0  0  0  0  0  0
   -1.5564    0.8596   -0.2703 C   0  0  0  0  0  0  0  0  0  0  0  0
   -1.9313    1.7364    0.6552 C   0  0  0  0  0  0  0  0  0  0  0  0
   -3.3651    1.7619    0.5484 C   0  0  0  0  0  0  0  0  0  0  0  0
   -4.0453    0.9718   -0.3803 C   0  0  0  0  0  0  0  0  0  0  0  0
   -3.8693   -0.5074   -1.9837 H   0  0  0  0  0  0  0  0  0  0  0  0
   -1.3437   -0.6286   -1.8836 H   0  0  0  0  0  0  0  0  0  0  0  0
    9.0180    0.6259    1.1527 N   0  0  0  0  0  0  0  0  0  0  0  0
   10.1108    0.6189    1.3118 N   0  0  0  0  0  0  0  0  0  0  0  0
   -5.1333    1.0206   -0.4279 H   0  0  0  0  0  0  0  0  0  0  0  0
   -3.8790    2.4340    1.2396 H   0  0  0  0  0  0  0  0  0  0  0  0
   -1.3536    2.3294    1.3611 H   0  0  0  0  0  0  0  0  0  0  0  0
  1  2  2  0  0  0  0
  1  6  1  0  0  0  0
  2  3  1  0  0  0  0
  3  4  2  0  0  0  0
  4 13  1  0  0  0  0
  5  4  1  0  0  0  0
  5 12  1  0  0  0  0
  6  5  2  0  0  0  0
  7  1  1  0  0  0  0
  8  2  1  0  0  0  0
  9 10  3  0  0  0  0
 11  6  1  0  0  0  0
M  RAD  1   3   2
M  END
