Coordinates from ORCA-job Ph-N2+-scan-d09-169-n800
 OpenBabel09191813423D

 13 12  0  0  0  0  0  0  0  0999 V2000
   -2.7011    0.1102   -1.1673 C   0  0  0  0  0  0  0  0  0  0  0  0
   -1.2694   -0.0215   -1.1502 C   0  0  0  0  0  0  0  0  0  0  0  0
   -0.8819    0.8125   -0.1910 C   0  0  0  0  0  0  0  0  0  0  0  0
   -1.2377    1.6942    0.7372 C   0  0  0  0  0  0  0  0  0  0  0  0
   -2.6709    1.7478    0.6335 C   0  0  0  0  0  0  0  0  0  0  0  0
   -3.3683    0.9735   -0.2959 C   0  0  0  0  0  0  0  0  0  0  0  0
   -3.2241   -0.5052   -1.9031 H   0  0  0  0  0  0  0  0  0  0  0  0
   -0.7007   -0.6753   -1.8081 H   0  0  0  0  0  0  0  0  0  0  0  0
    5.2996    0.7470    0.7067 N   0  0  0  0  0  0  0  0  0  0  0  0
    6.3936    0.7291    0.8558 N   0  0  0  0  0  0  0  0  0  0  0  0
   -4.4552    1.0436   -0.3413 H   0  0  0  0  0  0  0  0  0  0  0  0
   -3.1706    2.4277    1.3274 H   0  0  0  0  0  0  0  0  0  0  0  0
   -0.6472    2.2742    1.4433 H   0  0  0  0  0  0  0  0  0  0  0  0
  1  2  2  0  0  0  0
  1  6  1  0  0  0  0
  2  3  1  0  0  0  0
  3  4  2  0  0  0  0
  4 13  1  0  0  0  0
  5  4  1  0  0  0  0
  5 12  1  0  0  0  0
  6  5  2  0  0  0  0
  7  1  1  0  0  0  0
  8  2  1  0  0  0  0
  9 10  3  0  0  0  0
 11  6  1  0  0  0  0
M  RAD  1   3   2
M  END
