Coordinates from ORCA-job Ph-N2+-scan-d09-169-n800
 OpenBabel09191813423D

 13 12  0  0  0  0  0  0  0  0999 V2000
   -3.6013    0.1202   -1.2729 C   0  0  0  0  0  0  0  0  0  0  0  0
   -2.1660    0.0335   -1.2734 C   0  0  0  0  0  0  0  0  0  0  0  0
   -1.7928    0.8823   -0.3216 C   0  0  0  0  0  0  0  0  0  0  0  0
   -2.1647    1.7552    0.6087 C   0  0  0  0  0  0  0  0  0  0  0  0
   -3.6001    1.7636    0.5228 C   0  0  0  0  0  0  0  0  0  0  0  0
   -4.2843    0.9648   -0.3955 C   0  0  0  0  0  0  0  0  0  0  0  0
   -4.1139   -0.5132   -2.0007 H   0  0  0  0  0  0  0  0  0  0  0  0
   -1.5858   -0.6046   -1.9367 H   0  0  0  0  0  0  0  0  0  0  0  0
   10.3267    0.5866    1.3228 N   0  0  0  0  0  0  0  0  0  0  0  0
   11.4178    0.5830    1.4938 N   0  0  0  0  0  0  0  0  0  0  0  0
   -5.3734    1.0007   -0.4275 H   0  0  0  0  0  0  0  0  0  0  0  0
   -4.1120    2.4301    1.2209 H   0  0  0  0  0  0  0  0  0  0  0  0
   -1.5840    2.3555    1.3060 H   0  0  0  0  0  0  0  0  0  0  0  0
  1  6  1  0  0  0  0
  2  1  2  0  0  0  0
  2  3  1  0  0  0  0
  3  4  2  0  0  0  0
  4 13  1  0  0  0  0
  5  4  1  0  0  0  0
  5 12  1  0  0  0  0
  6  5  2  0  0  0  0
  7  1  1  0  0  0  0
  8  2  1  0  0  0  0
  9 10  3  0  0  0  0
 11  6  1  0  0  0  0
M  RAD  1   3   2
M  END
