Coordinates from ORCA-job Ph-N2+-scan-d09-169-n800
 OpenBabel09191813423D

 13 12  0  0  0  0  0  0  0  0999 V2000
   -3.2535    0.1175   -1.2351 C   0  0  0  0  0  0  0  0  0  0  0  0
   -1.8196    0.0120   -1.2147 C   0  0  0  0  0  0  0  0  0  0  0  0
   -1.4495    0.8552   -0.2567 C   0  0  0  0  0  0  0  0  0  0  0  0
   -1.8236    1.7323    0.6688 C   0  0  0  0  0  0  0  0  0  0  0  0
   -3.2573    1.7595    0.5618 C   0  0  0  0  0  0  0  0  0  0  0  0
   -3.9383    0.9704   -0.3672 C   0  0  0  0  0  0  0  0  0  0  0  0
   -3.7636   -0.5088   -1.9708 H   0  0  0  0  0  0  0  0  0  0  0  0
   -1.2382   -0.6330   -1.8701 H   0  0  0  0  0  0  0  0  0  0  0  0
    8.4295    0.6420    1.0805 N   0  0  0  0  0  0  0  0  0  0  0  0
    9.5226    0.6334    1.2374 N   0  0  0  0  0  0  0  0  0  0  0  0
   -5.0262    1.0204   -0.4151 H   0  0  0  0  0  0  0  0  0  0  0  0
   -3.7706    2.4321    1.2530 H   0  0  0  0  0  0  0  0  0  0  0  0
   -1.2454    2.3246    1.3749 H   0  0  0  0  0  0  0  0  0  0  0  0
  1  2  2  0  0  0  0
  1  6  1  0  0  0  0
  2  3  1  0  0  0  0
  3  4  2  0  0  0  0
  4 13  1  0  0  0  0
  5  4  1  0  0  0  0
  5 12  1  0  0  0  0
  6  5  2  0  0  0  0
  7  1  1  0  0  0  0
  8  2  1  0  0  0  0
  9 10  3  0  0  0  0
 11  6  1  0  0  0  0
M  RAD  1   3   2
M  END
