Coordinates from ORCA-job Ph-N2+-scan-d09-169-n800
 OpenBabel09191813423D

 13 12  0  0  0  0  0  0  0  0999 V2000
   -3.2657    0.1177   -1.2366 C   0  0  0  0  0  0  0  0  0  0  0  0
   -1.8318    0.0125   -1.2162 C   0  0  0  0  0  0  0  0  0  0  0  0
   -1.4617    0.8557   -0.2582 C   0  0  0  0  0  0  0  0  0  0  0  0
   -1.8359    1.7328    0.6672 C   0  0  0  0  0  0  0  0  0  0  0  0
   -3.2696    1.7598    0.5603 C   0  0  0  0  0  0  0  0  0  0  0  0
   -3.9505    0.9705   -0.3687 C   0  0  0  0  0  0  0  0  0  0  0  0
   -3.7757   -0.5087   -1.9723 H   0  0  0  0  0  0  0  0  0  0  0  0
   -1.2502   -0.6325   -1.8716 H   0  0  0  0  0  0  0  0  0  0  0  0
    8.4967    0.6402    1.0887 N   0  0  0  0  0  0  0  0  0  0  0  0
    9.5898    0.6317    1.2459 N   0  0  0  0  0  0  0  0  0  0  0  0
   -5.0385    1.0204   -0.4165 H   0  0  0  0  0  0  0  0  0  0  0  0
   -3.7830    2.4323    1.2515 H   0  0  0  0  0  0  0  0  0  0  0  0
   -1.2577    2.3251    1.3733 H   0  0  0  0  0  0  0  0  0  0  0  0
  1  2  2  0  0  0  0
  1  6  1  0  0  0  0
  2  3  1  0  0  0  0
  3  4  2  0  0  0  0
  4 13  1  0  0  0  0
  5  4  1  0  0  0  0
  5 12  1  0  0  0  0
  6  5  2  0  0  0  0
  7  1  1  0  0  0  0
  8  2  1  0  0  0  0
  9 10  3  0  0  0  0
 11  6  1  0  0  0  0
M  RAD  1   3   2
M  END
