Coordinates from ORCA-job Ph-N2+-scan-d09-169-n800
 OpenBabel09191813423D

 13 13  0  0  0  0  0  0  0  0999 V2000
   -1.9677    0.0932   -1.0869 C   0  0  0  0  0  0  0  0  0  0  0  0
   -0.5708    0.0096   -0.9820 C   0  0  0  0  0  0  0  0  0  0  0  0
   -0.0612    0.8339   -0.0045 C   0  0  0  0  0  0  0  0  0  0  0  0
   -0.6696    1.7067    0.8689 C   0  0  0  0  0  0  0  0  0  0  0  0
   -2.0637    1.7449    0.7140 C   0  0  0  0  0  0  0  0  0  0  0  0
   -2.6968    0.9491   -0.2503 C   0  0  0  0  0  0  0  0  0  0  0  0
   -2.4747   -0.5196   -1.8315 H   0  0  0  0  0  0  0  0  0  0  0  0
    0.0335   -0.6390   -1.6112 H   0  0  0  0  0  0  0  0  0  0  0  0
    1.6506    0.7598    0.1566 N   0  0  0  0  0  0  0  0  0  0  0  0
    2.7486    0.7133    0.2619 N   0  0  0  0  0  0  0  0  0  0  0  0
   -3.7812    0.9959   -0.3507 H   0  0  0  0  0  0  0  0  0  0  0  0
   -2.6436    2.4046    1.3589 H   0  0  0  0  0  0  0  0  0  0  0  0
   -0.1369    2.3053    1.6035 H   0  0  0  0  0  0  0  0  0  0  0  0
  1  2  2  0  0  0  0
  1  6  1  0  0  0  0
  2  3  1  0  0  0  0
  3  9  1  0  0  0  0
  3  4  2  0  0  0  0
  4 13  1  0  0  0  0
  5  4  1  0  0  0  0
  5 12  1  0  0  0  0
  6  5  2  0  0  0  0
  7  1  1  0  0  0  0
  8  2  1  0  0  0  0
  9 10  1  0  0  0  0
 11  6  1  0  0  0  0
M  RAD  2   9   2  10   3
M  END
