Coordinates from ORCA-job Ph-N2+-scan-d09-169-n800
 OpenBabel09191813423D

 13 12  0  0  0  0  0  0  0  0999 V2000
   -3.5983    0.1202   -1.2726 C   0  0  0  0  0  0  0  0  0  0  0  0
   -2.1631    0.0333   -1.2731 C   0  0  0  0  0  0  0  0  0  0  0  0
   -1.7898    0.8820   -0.3212 C   0  0  0  0  0  0  0  0  0  0  0  0
   -2.1615    1.7550    0.6091 C   0  0  0  0  0  0  0  0  0  0  0  0
   -3.5969    1.7635    0.5232 C   0  0  0  0  0  0  0  0  0  0  0  0
   -4.2812    0.9648   -0.3951 C   0  0  0  0  0  0  0  0  0  0  0  0
   -4.1111   -0.5131   -2.0004 H   0  0  0  0  0  0  0  0  0  0  0  0
   -1.5830   -0.6049   -1.9364 H   0  0  0  0  0  0  0  0  0  0  0  0
   10.3099    0.5872    1.3209 N   0  0  0  0  0  0  0  0  0  0  0  0
   11.4009    0.5835    1.4917 N   0  0  0  0  0  0  0  0  0  0  0  0
   -5.3703    1.0009   -0.4270 H   0  0  0  0  0  0  0  0  0  0  0  0
   -4.1087    2.4301    1.2213 H   0  0  0  0  0  0  0  0  0  0  0  0
   -1.5807    2.3551    1.3064 H   0  0  0  0  0  0  0  0  0  0  0  0
  1  6  1  0  0  0  0
  2  1  2  0  0  0  0
  2  3  1  0  0  0  0
  3  4  2  0  0  0  0
  4 13  1  0  0  0  0
  5  4  1  0  0  0  0
  5 12  1  0  0  0  0
  6  5  2  0  0  0  0
  7  1  1  0  0  0  0
  8  2  1  0  0  0  0
  9 10  3  0  0  0  0
 11  6  1  0  0  0  0
M  RAD  1   3   2
M  END
