Coordinates from ORCA-job Ph-N2+-scan-d09-169-n800
 OpenBabel09191813423D

 13 12  0  0  0  0  0  0  0  0999 V2000
   -3.9584    0.1253   -1.3148 C   0  0  0  0  0  0  0  0  0  0  0  0
   -2.5224    0.0507   -1.3257 C   0  0  0  0  0  0  0  0  0  0  0  0
   -2.1495    0.9032   -0.3771 C   0  0  0  0  0  0  0  0  0  0  0  0
   -2.5218    1.7736    0.5553 C   0  0  0  0  0  0  0  0  0  0  0  0
   -3.9578    1.7699    0.4799 C   0  0  0  0  0  0  0  0  0  0  0  0
   -4.6420    0.9647   -0.4329 C   0  0  0  0  0  0  0  0  0  0  0  0
   -4.4710   -0.5127   -2.0386 H   0  0  0  0  0  0  0  0  0  0  0  0
   -1.9418   -0.5830   -1.9928 H   0  0  0  0  0  0  0  0  0  0  0  0
   12.2922    0.5323    1.5700 N   0  0  0  0  0  0  0  0  0  0  0  0
   13.3816    0.5306    1.7513 N   0  0  0  0  0  0  0  0  0  0  0  0
   -5.7316    0.9915   -0.4570 H   0  0  0  0  0  0  0  0  0  0  0  0
   -4.4702    2.4326    1.1812 H   0  0  0  0  0  0  0  0  0  0  0  0
   -1.9411    2.3791    1.2481 H   0  0  0  0  0  0  0  0  0  0  0  0
  1  6  1  0  0  0  0
  2  1  2  0  0  0  0
  2  3  1  0  0  0  0
  3  4  2  0  0  0  0
  4 13  1  0  0  0  0
  5  4  1  0  0  0  0
  5 12  1  0  0  0  0
  6  5  2  0  0  0  0
  7  1  1  0  0  0  0
  8  2  1  0  0  0  0
  9 10  3  0  0  0  0
 11  6  1  0  0  0  0
M  RAD  1   3   2
M  END
