Coordinates from ORCA-job Ph-N2+-scan-d09-169-n800
 OpenBabel09191813423D

 13 12  0  0  0  0  0  0  0  0999 V2000
   -2.6753    0.1100   -1.1641 C   0  0  0  0  0  0  0  0  0  0  0  0
   -1.2439   -0.0241   -1.1478 C   0  0  0  0  0  0  0  0  0  0  0  0
   -0.8544    0.8090   -0.1886 C   0  0  0  0  0  0  0  0  0  0  0  0
   -1.2083    1.6911    0.7400 C   0  0  0  0  0  0  0  0  0  0  0  0
   -2.6414    1.7472    0.6370 C   0  0  0  0  0  0  0  0  0  0  0  0
   -3.3406    0.9743   -0.2922 C   0  0  0  0  0  0  0  0  0  0  0  0
   -3.1997   -0.5043   -1.8998 H   0  0  0  0  0  0  0  0  0  0  0  0
   -0.6766   -0.6786   -1.8061 H   0  0  0  0  0  0  0  0  0  0  0  0
    5.1479    0.7537    0.6899 N   0  0  0  0  0  0  0  0  0  0  0  0
    6.2419    0.7353    0.8385 N   0  0  0  0  0  0  0  0  0  0  0  0
   -4.4274    1.0463   -0.3370 H   0  0  0  0  0  0  0  0  0  0  0  0
   -3.1396    2.4278    1.3313 H   0  0  0  0  0  0  0  0  0  0  0  0
   -0.6163    2.2700    1.4458 H   0  0  0  0  0  0  0  0  0  0  0  0
  1  2  2  0  0  0  0
  1  6  1  0  0  0  0
  2  3  1  0  0  0  0
  3  4  2  0  0  0  0
  4 13  1  0  0  0  0
  5  4  1  0  0  0  0
  5 12  1  0  0  0  0
  6  5  2  0  0  0  0
  7  1  1  0  0  0  0
  8  2  1  0  0  0  0
  9 10  3  0  0  0  0
 11  6  1  0  0  0  0
M  RAD  1   3   2
M  END
