Coordinates from ORCA-job Ph-N2+-scan-d09-169-n800
 OpenBabel09191813423D

 13 12  0  0  0  0  0  0  0  0999 V2000
   -3.2171    0.1168   -1.2306 C   0  0  0  0  0  0  0  0  0  0  0  0
   -1.7833    0.0107   -1.2100 C   0  0  0  0  0  0  0  0  0  0  0  0
   -1.4129    0.8537   -0.2520 C   0  0  0  0  0  0  0  0  0  0  0  0
   -1.7866    1.7309    0.6735 C   0  0  0  0  0  0  0  0  0  0  0  0
   -3.2203    1.7587    0.5664 C   0  0  0  0  0  0  0  0  0  0  0  0
   -3.9016    0.9699   -0.3627 C   0  0  0  0  0  0  0  0  0  0  0  0
   -3.7275   -0.5092   -1.9664 H   0  0  0  0  0  0  0  0  0  0  0  0
   -1.2021   -0.6346   -1.8655 H   0  0  0  0  0  0  0  0  0  0  0  0
    8.2277    0.6476    1.0557 N   0  0  0  0  0  0  0  0  0  0  0  0
    9.3209    0.6384    1.2119 N   0  0  0  0  0  0  0  0  0  0  0  0
   -4.9895    1.0205   -0.4107 H   0  0  0  0  0  0  0  0  0  0  0  0
   -3.7334    2.4315    1.2576 H   0  0  0  0  0  0  0  0  0  0  0  0
   -1.2082    2.3228    1.3797 H   0  0  0  0  0  0  0  0  0  0  0  0
  1  2  2  0  0  0  0
  1  6  1  0  0  0  0
  2  3  1  0  0  0  0
  3  4  2  0  0  0  0
  4 13  1  0  0  0  0
  5  4  1  0  0  0  0
  5 12  1  0  0  0  0
  6  5  2  0  0  0  0
  7  1  1  0  0  0  0
  8  2  1  0  0  0  0
  9 10  3  0  0  0  0
 11  6  1  0  0  0  0
M  RAD  1   3   2
M  END
