Coordinates from ORCA-job Ph-N2+-scan-d09-169-n800
 OpenBabel09191813423D

 13 12  0  0  0  0  0  0  0  0999 V2000
   -4.1463    0.1290   -1.3371 C   0  0  0  0  0  0  0  0  0  0  0  0
   -2.7102    0.0574   -1.3533 C   0  0  0  0  0  0  0  0  0  0  0  0
   -2.3356    0.9107   -0.4061 C   0  0  0  0  0  0  0  0  0  0  0  0
   -2.7062    1.7804    0.5277 C   0  0  0  0  0  0  0  0  0  0  0  0
   -4.1425    1.7736    0.4575 C   0  0  0  0  0  0  0  0  0  0  0  0
   -4.8284    0.9669   -0.4527 C   0  0  0  0  0  0  0  0  0  0  0  0
   -4.6602   -0.5101   -2.0590 H   0  0  0  0  0  0  0  0  0  0  0  0
   -2.1306   -0.5751   -2.0225 H   0  0  0  0  0  0  0  0  0  0  0  0
   13.3167    0.5063    1.7008 N   0  0  0  0  0  0  0  0  0  0  0  0
   14.4056    0.5050    1.8852 N   0  0  0  0  0  0  0  0  0  0  0  0
   -5.9181    0.9915   -0.4728 H   0  0  0  0  0  0  0  0  0  0  0  0
   -4.6537    2.4353    1.1607 H   0  0  0  0  0  0  0  0  0  0  0  0
   -2.1243    2.3870    1.2184 H   0  0  0  0  0  0  0  0  0  0  0  0
  1  6  1  0  0  0  0
  2  1  2  0  0  0  0
  2  3  1  0  0  0  0
  3  4  2  0  0  0  0
  4 13  1  0  0  0  0
  5  4  1  0  0  0  0
  5 12  1  0  0  0  0
  6  5  2  0  0  0  0
  7  1  1  0  0  0  0
  8  2  1  0  0  0  0
  9 10  3  0  0  0  0
 11  6  1  0  0  0  0
M  RAD  1   3   2
M  END
