Coordinates from ORCA-job Ph-N2+-scan-d09-169-n800
 OpenBabel09191813423D

 13 12  0  0  0  0  0  0  0  0999 V2000
   -3.8207    0.1231   -1.2985 C   0  0  0  0  0  0  0  0  0  0  0  0
   -2.3849    0.0447   -1.3058 C   0  0  0  0  0  0  0  0  0  0  0  0
   -2.0122    0.8961   -0.3561 C   0  0  0  0  0  0  0  0  0  0  0  0
   -2.3848    1.7675    0.5754 C   0  0  0  0  0  0  0  0  0  0  0  0
   -3.8206    1.7673    0.4966 C   0  0  0  0  0  0  0  0  0  0  0  0
   -4.5045    0.9640   -0.4181 C   0  0  0  0  0  0  0  0  0  0  0  0
   -4.3331   -0.5134   -2.0237 H   0  0  0  0  0  0  0  0  0  0  0  0
   -1.8043   -0.5904   -1.9716 H   0  0  0  0  0  0  0  0  0  0  0  0
   11.5363    0.5525    1.4743 N   0  0  0  0  0  0  0  0  0  0  0  0
   12.6262    0.5503    1.6527 N   0  0  0  0  0  0  0  0  0  0  0  0
   -5.5939    0.9935   -0.4449 H   0  0  0  0  0  0  0  0  0  0  0  0
   -4.3330    2.4312    1.1969 H   0  0  0  0  0  0  0  0  0  0  0  0
   -1.8042    2.3713    1.2697 H   0  0  0  0  0  0  0  0  0  0  0  0
  1  6  1  0  0  0  0
  2  1  2  0  0  0  0
  2  3  1  0  0  0  0
  3  4  2  0  0  0  0
  4 13  1  0  0  0  0
  5  4  1  0  0  0  0
  5 12  1  0  0  0  0
  6  5  2  0  0  0  0
  7  1  1  0  0  0  0
  8  2  1  0  0  0  0
  9 10  3  0  0  0  0
 11  6  1  0  0  0  0
M  RAD  1   3   2
M  END
