Coordinates from ORCA-job Ph-N2+-scan-d09-169-n800
 OpenBabel09191813423D

 13 12  0  0  0  0  0  0  0  0999 V2000
   -2.3676    0.1065   -1.1263 C   0  0  0  0  0  0  0  0  0  0  0  0
   -0.9362   -0.0189   -1.0830 C   0  0  0  0  0  0  0  0  0  0  0  0
   -0.5693    0.8177   -0.1180 C   0  0  0  0  0  0  0  0  0  0  0  0
   -0.9464    1.6989    0.8023 C   0  0  0  0  0  0  0  0  0  0  0  0
   -2.3773    1.7463    0.6729 C   0  0  0  0  0  0  0  0  0  0  0  0
   -3.0544    0.9679   -0.2681 C   0  0  0  0  0  0  0  0  0  0  0  0
   -2.8752   -0.5115   -1.8705 H   0  0  0  0  0  0  0  0  0  0  0  0
   -0.3524   -0.6707   -1.7293 H   0  0  0  0  0  0  0  0  0  0  0  0
    3.5765    0.7542    0.4431 N   0  0  0  0  0  0  0  0  0  0  0  0
    4.6714    0.7278    0.5831 N   0  0  0  0  0  0  0  0  0  0  0  0
   -4.1405    1.0330   -0.3332 H   0  0  0  0  0  0  0  0  0  0  0  0
   -2.8928    2.4248    1.3565 H   0  0  0  0  0  0  0  0  0  0  0  0
   -0.3695    2.2818    1.5172 H   0  0  0  0  0  0  0  0  0  0  0  0
  1  2  2  0  0  0  0
  1  6  1  0  0  0  0
  2  3  1  0  0  0  0
  3  4  2  0  0  0  0
  4 13  1  0  0  0  0
  5  4  1  0  0  0  0
  5 12  1  0  0  0  0
  6  5  2  0  0  0  0
  7  1  1  0  0  0  0
  8  2  1  0  0  0  0
  9 10  3  0  0  0  0
 11  6  1  0  0  0  0
M  RAD  1   3   2
M  END
