Coordinates from ORCA-job Ph-N2+-scan-d09-169-n800
 OpenBabel09191813423D

 13 12  0  0  0  0  0  0  0  0999 V2000
   -2.2699    0.1056   -1.1141 C   0  0  0  0  0  0  0  0  0  0  0  0
   -0.8386   -0.0057   -1.0477 C   0  0  0  0  0  0  0  0  0  0  0  0
   -0.4939    0.8359   -0.0787 C   0  0  0  0  0  0  0  0  0  0  0  0
   -0.8955    1.7149    0.8337 C   0  0  0  0  0  0  0  0  0  0  0  0
   -2.3242    1.7483    0.6817 C   0  0  0  0  0  0  0  0  0  0  0  0
   -2.9787    0.9617   -0.2685 C   0  0  0  0  0  0  0  0  0  0  0  0
   -2.7601   -0.5182   -1.8649 H   0  0  0  0  0  0  0  0  0  0  0  0
   -0.2382   -0.6528   -1.6834 H   0  0  0  0  0  0  0  0  0  0  0  0
    3.1632    0.7287    0.3482 N   0  0  0  0  0  0  0  0  0  0  0  0
    4.2587    0.6964    0.4796 N   0  0  0  0  0  0  0  0  0  0  0  0
   -4.0642    1.0160   -0.3508 H   0  0  0  0  0  0  0  0  0  0  0  0
   -2.8572    2.4229    1.3557 H   0  0  0  0  0  0  0  0  0  0  0  0
   -0.3351    2.3040    1.5562 H   0  0  0  0  0  0  0  0  0  0  0  0
  1  2  2  0  0  0  0
  1  6  1  0  0  0  0
  2  3  1  0  0  0  0
  3  4  2  0  0  0  0
  4 13  1  0  0  0  0
  5  4  1  0  0  0  0
  5 12  1  0  0  0  0
  6  5  2  0  0  0  0
  7  1  1  0  0  0  0
  8  2  1  0  0  0  0
  9 10  3  0  0  0  0
 11  6  1  0  0  0  0
M  RAD  1   3   2
M  END
