Coordinates from ORCA-job Ph-N2+-scan-d09-169-n800
 OpenBabel09191813423D

 13 12  0  0  0  0  0  0  0  0999 V2000
   -2.5389    0.1090   -1.1474 C   0  0  0  0  0  0  0  0  0  0  0  0
   -1.1083   -0.0332   -1.1310 C   0  0  0  0  0  0  0  0  0  0  0  0
   -0.7142    0.7971   -0.1713 C   0  0  0  0  0  0  0  0  0  0  0  0
   -1.0632    1.6805    0.7579 C   0  0  0  0  0  0  0  0  0  0  0  0
   -2.4959    1.7447    0.6549 C   0  0  0  0  0  0  0  0  0  0  0  0
   -3.1994    0.9764   -0.2749 C   0  0  0  0  0  0  0  0  0  0  0  0
   -3.0668   -0.5019   -1.8834 H   0  0  0  0  0  0  0  0  0  0  0  0
   -0.5443   -0.6904   -1.7895 H   0  0  0  0  0  0  0  0  0  0  0  0
    4.3736    0.7792    0.5955 N   0  0  0  0  0  0  0  0  0  0  0  0
    5.4678    0.7589    0.7423 N   0  0  0  0  0  0  0  0  0  0  0  0
   -4.2857    1.0545   -0.3197 H   0  0  0  0  0  0  0  0  0  0  0  0
   -2.9905    2.4275    1.3496 H   0  0  0  0  0  0  0  0  0  0  0  0
   -0.4677    2.2555    1.4639 H   0  0  0  0  0  0  0  0  0  0  0  0
  1  2  2  0  0  0  0
  1  6  1  0  0  0  0
  2  3  1  0  0  0  0
  3  4  2  0  0  0  0
  4 13  1  0  0  0  0
  5  4  1  0  0  0  0
  5 12  1  0  0  0  0
  6  5  2  0  0  0  0
  7  1  1  0  0  0  0
  8  2  1  0  0  0  0
  9 10  3  0  0  0  0
 11  6  1  0  0  0  0
M  RAD  1   3   2
M  END
