Coordinates from ORCA-job Ph-N2+-scan-d09-169-n800
 OpenBabel09191813423D

 13 12  0  0  0  0  0  0  0  0999 V2000
   -3.6575    0.1209   -1.2800 C   0  0  0  0  0  0  0  0  0  0  0  0
   -2.2221    0.0367   -1.2797 C   0  0  0  0  0  0  0  0  0  0  0  0
   -1.8509    0.8864   -0.3279 C   0  0  0  0  0  0  0  0  0  0  0  0
   -2.2247    1.7589    0.6019 C   0  0  0  0  0  0  0  0  0  0  0  0
   -3.6601    1.7648    0.5152 C   0  0  0  0  0  0  0  0  0  0  0  0
   -4.3424    0.9645   -0.4032 C   0  0  0  0  0  0  0  0  0  0  0  0
   -4.1687   -0.5135   -2.0079 H   0  0  0  0  0  0  0  0  0  0  0  0
   -1.6405   -0.6006   -1.9426 H   0  0  0  0  0  0  0  0  0  0  0  0
   10.6464    0.5764    1.3605 N   0  0  0  0  0  0  0  0  0  0  0  0
   11.7371    0.5736    1.5340 N   0  0  0  0  0  0  0  0  0  0  0  0
   -5.4316    0.9986   -0.4358 H   0  0  0  0  0  0  0  0  0  0  0  0
   -4.1735    2.4307    1.2129 H   0  0  0  0  0  0  0  0  0  0  0  0
   -1.6454    2.3603    1.2994 H   0  0  0  0  0  0  0  0  0  0  0  0
  1  2  2  0  0  0  0
  1  6  1  0  0  0  0
  2  3  1  0  0  0  0
  3  4  2  0  0  0  0
  4 13  1  0  0  0  0
  5  4  1  0  0  0  0
  5 12  1  0  0  0  0
  6  5  2  0  0  0  0
  7  1  1  0  0  0  0
  8  2  1  0  0  0  0
  9 10  3  0  0  0  0
 11  6  1  0  0  0  0
M  RAD  1   3   2
M  END
