Coordinates from ORCA-job Ph-N2+-scan-d09-169-n800
 OpenBabel09191813423D

 13 12  0  0  0  0  0  0  0  0999 V2000
   -3.9434    0.1251   -1.3129 C   0  0  0  0  0  0  0  0  0  0  0  0
   -2.5075    0.0500   -1.3240 C   0  0  0  0  0  0  0  0  0  0  0  0
   -2.1342    0.9024   -0.3754 C   0  0  0  0  0  0  0  0  0  0  0  0
   -2.5062    1.7729    0.5571 C   0  0  0  0  0  0  0  0  0  0  0  0
   -3.9422    1.7695    0.4819 C   0  0  0  0  0  0  0  0  0  0  0  0
   -4.6267    0.9646   -0.4308 C   0  0  0  0  0  0  0  0  0  0  0  0
   -4.4563   -0.5128   -2.0366 H   0  0  0  0  0  0  0  0  0  0  0  0
   -1.9271   -0.5838   -1.9912 H   0  0  0  0  0  0  0  0  0  0  0  0
   12.2082    0.5348    1.5597 N   0  0  0  0  0  0  0  0  0  0  0  0
   13.2976    0.5328    1.7407 N   0  0  0  0  0  0  0  0  0  0  0  0
   -5.7163    0.9917   -0.4548 H   0  0  0  0  0  0  0  0  0  0  0  0
   -4.4543    2.4324    1.1833 H   0  0  0  0  0  0  0  0  0  0  0  0
   -1.9252    2.3781    1.2498 H   0  0  0  0  0  0  0  0  0  0  0  0
  1  6  1  0  0  0  0
  2  1  2  0  0  0  0
  2  3  1  0  0  0  0
  3  4  2  0  0  0  0
  4 13  1  0  0  0  0
  5  4  1  0  0  0  0
  5 12  1  0  0  0  0
  6  5  2  0  0  0  0
  7  1  1  0  0  0  0
  8  2  1  0  0  0  0
  9 10  3  0  0  0  0
 11  6  1  0  0  0  0
M  RAD  1   3   2
M  END
