Coordinates from ORCA-job Ph-N2+-scan-d09-169-n800
 OpenBabel09191813423D

 13 12  0  0  0  0  0  0  0  0999 V2000
   -3.5827    0.1202   -1.2710 C   0  0  0  0  0  0  0  0  0  0  0  0
   -2.1475    0.0321   -1.2701 C   0  0  0  0  0  0  0  0  0  0  0  0
   -1.7747    0.8806   -0.3179 C   0  0  0  0  0  0  0  0  0  0  0  0
   -2.1466    1.7540    0.6120 C   0  0  0  0  0  0  0  0  0  0  0  0
   -3.5819    1.7634    0.5250 C   0  0  0  0  0  0  0  0  0  0  0  0
   -4.2659    0.9652   -0.3941 C   0  0  0  0  0  0  0  0  0  0  0  0
   -4.0952   -0.5127   -1.9993 H   0  0  0  0  0  0  0  0  0  0  0  0
   -1.5673   -0.6065   -1.9329 H   0  0  0  0  0  0  0  0  0  0  0  0
   10.2260    0.5894    1.3098 N   0  0  0  0  0  0  0  0  0  0  0  0
   11.3171    0.5859    1.4801 N   0  0  0  0  0  0  0  0  0  0  0  0
   -5.3549    1.0020   -0.4272 H   0  0  0  0  0  0  0  0  0  0  0  0
   -4.0940    2.4303    1.2227 H   0  0  0  0  0  0  0  0  0  0  0  0
   -1.5660    2.3536    1.3098 H   0  0  0  0  0  0  0  0  0  0  0  0
  1  2  2  0  0  0  0
  1  6  1  0  0  0  0
  2  3  1  0  0  0  0
  3  4  2  0  0  0  0
  4 13  1  0  0  0  0
  5  4  1  0  0  0  0
  5 12  1  0  0  0  0
  6  5  2  0  0  0  0
  7  1  1  0  0  0  0
  8  2  1  0  0  0  0
  9 10  3  0  0  0  0
 11  6  1  0  0  0  0
M  RAD  1   3   2
M  END
