Coordinates from ORCA-job Ph-N2+-scan-d09-169-n800
 OpenBabel09191813423D

 13 12  0  0  0  0  0  0  0  0999 V2000
   -2.4615    0.1078   -1.1380 C   0  0  0  0  0  0  0  0  0  0  0  0
   -1.0307   -0.0301   -1.1131 C   0  0  0  0  0  0  0  0  0  0  0  0
   -0.6445    0.8017   -0.1515 C   0  0  0  0  0  0  0  0  0  0  0  0
   -1.0017    1.6847    0.7750 C   0  0  0  0  0  0  0  0  0  0  0  0
   -2.4338    1.7447    0.6636 C   0  0  0  0  0  0  0  0  0  0  0  0
   -3.1296    0.9738   -0.2699 C   0  0  0  0  0  0  0  0  0  0  0  0
   -2.9835   -0.5049   -1.8767 H   0  0  0  0  0  0  0  0  0  0  0  0
   -0.4608   -0.6860   -1.7678 H   0  0  0  0  0  0  0  0  0  0  0  0
    3.9900    0.7762    0.5323 N   0  0  0  0  0  0  0  0  0  0  0  0
    5.0846    0.7527    0.6753 N   0  0  0  0  0  0  0  0  0  0  0  0
   -4.2159    1.0487   -0.3211 H   0  0  0  0  0  0  0  0  0  0  0  0
   -2.9346    2.4265    1.3548 H   0  0  0  0  0  0  0  0  0  0  0  0
   -0.4116    2.2617    1.4838 H   0  0  0  0  0  0  0  0  0  0  0  0
  1  2  2  0  0  0  0
  1  6  1  0  0  0  0
  2  3  1  0  0  0  0
  3  4  2  0  0  0  0
  4 13  1  0  0  0  0
  5  4  1  0  0  0  0
  5 12  1  0  0  0  0
  6  5  2  0  0  0  0
  7  1  1  0  0  0  0
  8  2  1  0  0  0  0
  9 10  3  0  0  0  0
 11  6  1  0  0  0  0
M  RAD  1   3   2
M  END
