Coordinates from ORCA-job Ph-N2+-scan-d09-169-n800
 OpenBabel09191813433D

 13 12  0  0  0  0  0  0  0  0999 V2000
   -4.2688    0.1315   -1.3520 C   0  0  0  0  0  0  0  0  0  0  0  0
   -2.8326    0.0615   -1.3703 C   0  0  0  0  0  0  0  0  0  0  0  0
   -2.4577    0.9153   -0.4236 C   0  0  0  0  0  0  0  0  0  0  0  0
   -2.8280    1.7847    0.5106 C   0  0  0  0  0  0  0  0  0  0  0  0
   -4.2644    1.7762    0.4425 C   0  0  0  0  0  0  0  0  0  0  0  0
   -4.9506    0.9686   -0.4666 C   0  0  0  0  0  0  0  0  0  0  0  0
   -4.7830   -0.5082   -2.0732 H   0  0  0  0  0  0  0  0  0  0  0  0
   -2.2533   -0.5703   -2.0402 H   0  0  0  0  0  0  0  0  0  0  0  0
   13.9887    0.4890    1.7859 N   0  0  0  0  0  0  0  0  0  0  0  0
   15.0773    0.4881    1.9721 N   0  0  0  0  0  0  0  0  0  0  0  0
   -6.0403    0.9919   -0.4852 H   0  0  0  0  0  0  0  0  0  0  0  0
   -4.7753    2.4374    1.1464 H   0  0  0  0  0  0  0  0  0  0  0  0
   -2.2458    2.3920    1.2004 H   0  0  0  0  0  0  0  0  0  0  0  0
  1  6  1  0  0  0  0
  2  1  2  0  0  0  0
  2  3  1  0  0  0  0
  3  4  2  0  0  0  0
  4 13  1  0  0  0  0
  5  4  1  0  0  0  0
  5 12  1  0  0  0  0
  6  5  2  0  0  0  0
  7  1  1  0  0  0  0
  8  2  1  0  0  0  0
  9 10  3  0  0  0  0
 11  6  1  0  0  0  0
M  RAD  1   3   2
M  END
