Coordinates from ORCA-job Ph-N2+-scan-d09-169-n800
 OpenBabel09191813423D

 13 12  0  0  0  0  0  0  0  0999 V2000
   -3.0840    0.1144   -1.2143 C   0  0  0  0  0  0  0  0  0  0  0  0
   -1.6505    0.0052   -1.1932 C   0  0  0  0  0  0  0  0  0  0  0  0
   -1.2785    0.8471   -0.2348 C   0  0  0  0  0  0  0  0  0  0  0  0
   -1.6507    1.7249    0.6908 C   0  0  0  0  0  0  0  0  0  0  0  0
   -3.0843    1.7559    0.5832 C   0  0  0  0  0  0  0  0  0  0  0  0
   -3.7670    0.9688   -0.3464 C   0  0  0  0  0  0  0  0  0  0  0  0
   -3.5955   -0.5104   -1.9503 H   0  0  0  0  0  0  0  0  0  0  0  0
   -1.0703   -0.6411   -1.8486 H   0  0  0  0  0  0  0  0  0  0  0  0
    7.4879    0.6689    0.9650 N   0  0  0  0  0  0  0  0  0  0  0  0
    8.5814    0.6572    1.1186 N   0  0  0  0  0  0  0  0  0  0  0  0
   -4.8547    1.0217   -0.3947 H   0  0  0  0  0  0  0  0  0  0  0  0
   -3.5962    2.4296    1.2744 H   0  0  0  0  0  0  0  0  0  0  0  0
   -1.0713    2.3155    1.3973 H   0  0  0  0  0  0  0  0  0  0  0  0
  1  2  2  0  0  0  0
  1  6  1  0  0  0  0
  2  3  1  0  0  0  0
  3  4  2  0  0  0  0
  4 13  1  0  0  0  0
  5  4  1  0  0  0  0
  5 12  1  0  0  0  0
  6  5  2  0  0  0  0
  7  1  1  0  0  0  0
  8  2  1  0  0  0  0
  9 10  3  0  0  0  0
 11  6  1  0  0  0  0
M  RAD  1   3   2
M  END
