Coordinates from ORCA-job Ph-N2+-scan-d09-169-n800
 OpenBabel09191813423D

 13 12  0  0  0  0  0  0  0  0999 V2000
   -3.3142    0.1187   -1.2426 C   0  0  0  0  0  0  0  0  0  0  0  0
   -1.8803    0.0142   -1.2223 C   0  0  0  0  0  0  0  0  0  0  0  0
   -1.5106    0.8577   -0.2645 C   0  0  0  0  0  0  0  0  0  0  0  0
   -1.8851    1.7346    0.6610 C   0  0  0  0  0  0  0  0  0  0  0  0
   -3.3189    1.7609    0.5542 C   0  0  0  0  0  0  0  0  0  0  0  0
   -3.9995    0.9712   -0.3747 C   0  0  0  0  0  0  0  0  0  0  0  0
   -3.8240   -0.5080   -1.9782 H   0  0  0  0  0  0  0  0  0  0  0  0
   -1.2985   -0.6304   -1.8778 H   0  0  0  0  0  0  0  0  0  0  0  0
    8.7658    0.6328    1.1218 N   0  0  0  0  0  0  0  0  0  0  0  0
    9.8587    0.6251    1.2799 N   0  0  0  0  0  0  0  0  0  0  0  0
   -5.0874    1.0205   -0.4224 H   0  0  0  0  0  0  0  0  0  0  0  0
   -3.8326    2.4332    1.2454 H   0  0  0  0  0  0  0  0  0  0  0  0
   -1.3072    2.3274    1.3670 H   0  0  0  0  0  0  0  0  0  0  0  0
  1  2  2  0  0  0  0
  1  6  1  0  0  0  0
  2  3  1  0  0  0  0
  3  4  2  0  0  0  0
  4 13  1  0  0  0  0
  5  4  1  0  0  0  0
  5 12  1  0  0  0  0
  6  5  2  0  0  0  0
  7  1  1  0  0  0  0
  8  2  1  0  0  0  0
  9 10  3  0  0  0  0
 11  6  1  0  0  0  0
M  RAD  1   3   2
M  END
