Coordinates from ORCA-job Ph-N2+-scan-d09-169-n800
 OpenBabel09191813423D

 13 12  0  0  0  0  0  0  0  0999 V2000
   -2.9017    0.1117   -1.1919 C   0  0  0  0  0  0  0  0  0  0  0  0
   -1.4687   -0.0048   -1.1711 C   0  0  0  0  0  0  0  0  0  0  0  0
   -1.0924    0.8346   -0.2122 C   0  0  0  0  0  0  0  0  0  0  0  0
   -1.4599    1.7137    0.7140 C   0  0  0  0  0  0  0  0  0  0  0  0
   -2.8933    1.7521    0.6066 C   0  0  0  0  0  0  0  0  0  0  0  0
   -3.5801    0.9691   -0.3234 C   0  0  0  0  0  0  0  0  0  0  0  0
   -3.4164   -0.5100   -1.9283 H   0  0  0  0  0  0  0  0  0  0  0  0
   -0.8919   -0.6536   -1.8269 H   0  0  0  0  0  0  0  0  0  0  0  0
    6.4619    0.7016    0.8404 N   0  0  0  0  0  0  0  0  0  0  0  0
    7.5556    0.6867    0.9923 N   0  0  0  0  0  0  0  0  0  0  0  0
   -4.6676    1.0277   -0.3716 H   0  0  0  0  0  0  0  0  0  0  0  0
   -3.4018    2.4278    1.2983 H   0  0  0  0  0  0  0  0  0  0  0  0
   -0.8774    2.3009    1.4208 H   0  0  0  0  0  0  0  0  0  0  0  0
  1  2  2  0  0  0  0
  1  6  1  0  0  0  0
  2  3  1  0  0  0  0
  3  4  2  0  0  0  0
  4 13  1  0  0  0  0
  5  4  1  0  0  0  0
  5 12  1  0  0  0  0
  6  5  2  0  0  0  0
  7  1  1  0  0  0  0
  8  2  1  0  0  0  0
  9 10  3  0  0  0  0
 11  6  1  0  0  0  0
M  RAD  1   3   2
M  END
