Coordinates from ORCA-job Ph-N2+-scan-d09-169-n800
 OpenBabel09191813423D

 13 13  0  0  0  0  0  0  0  0999 V2000
   -1.9354    0.0901   -1.0857 C   0  0  0  0  0  0  0  0  0  0  0  0
   -0.5508    0.0140   -0.9746 C   0  0  0  0  0  0  0  0  0  0  0  0
    0.0394    0.8296    0.0050 C   0  0  0  0  0  0  0  0  0  0  0  0
   -0.6491    1.7010    0.8653 C   0  0  0  0  0  0  0  0  0  0  0  0
   -2.0316    1.7453    0.7188 C   0  0  0  0  0  0  0  0  0  0  0  0
   -2.6658    0.9476   -0.2472 C   0  0  0  0  0  0  0  0  0  0  0  0
   -2.4487   -0.5195   -1.8278 H   0  0  0  0  0  0  0  0  0  0  0  0
    0.0486   -0.6376   -1.6079 H   0  0  0  0  0  0  0  0  0  0  0  0
    1.4724    0.7674    0.1400 N   0  0  0  0  0  0  0  0  0  0  0  0
    2.5778    0.7201    0.2456 N   0  0  0  0  0  0  0  0  0  0  0  0
   -3.7508    0.9942   -0.3476 H   0  0  0  0  0  0  0  0  0  0  0  0
   -2.6177    2.4024    1.3599 H   0  0  0  0  0  0  0  0  0  0  0  0
   -0.1220    2.3031    1.6030 H   0  0  0  0  0  0  0  0  0  0  0  0
  1  2  2  0  0  0  0
  1  6  1  0  0  0  0
  2  3  1  0  0  0  0
  3  9  1  0  0  0  0
  3  4  2  0  0  0  0
  4 13  1  0  0  0  0
  5  4  1  0  0  0  0
  5 12  1  0  0  0  0
  6  5  2  0  0  0  0
  7  1  1  0  0  0  0
  8  2  1  0  0  0  0
  9 10  1  0  0  0  0
 11  6  1  0  0  0  0
M  RAD  2   9   2  10   3
M  END
