Coordinates from ORCA-job Ph-N2+-scan-d09-169-n800
 OpenBabel09191813423D

 13 12  0  0  0  0  0  0  0  0999 V2000
   -2.6525    0.1099   -1.1613 C   0  0  0  0  0  0  0  0  0  0  0  0
   -1.2212   -0.0264   -1.1457 C   0  0  0  0  0  0  0  0  0  0  0  0
   -0.8300    0.8059   -0.1866 C   0  0  0  0  0  0  0  0  0  0  0  0
   -1.1820    1.6883    0.7424 C   0  0  0  0  0  0  0  0  0  0  0  0
   -2.6151    1.7466    0.6401 C   0  0  0  0  0  0  0  0  0  0  0  0
   -3.3160    0.9751   -0.2889 C   0  0  0  0  0  0  0  0  0  0  0  0
   -3.1782   -0.5034   -1.8969 H   0  0  0  0  0  0  0  0  0  0  0  0
   -0.6553   -0.6817   -1.8044 H   0  0  0  0  0  0  0  0  0  0  0  0
    5.0129    0.7597    0.6750 N   0  0  0  0  0  0  0  0  0  0  0  0
    6.1070    0.7410    0.8234 N   0  0  0  0  0  0  0  0  0  0  0  0
   -4.4026    1.0488   -0.3331 H   0  0  0  0  0  0  0  0  0  0  0  0
   -3.1119    2.4278    1.3349 H   0  0  0  0  0  0  0  0  0  0  0  0
   -0.5888    2.2661    1.4480 H   0  0  0  0  0  0  0  0  0  0  0  0
  1  2  2  0  0  0  0
  1  6  1  0  0  0  0
  2  3  1  0  0  0  0
  3  4  2  0  0  0  0
  4 13  1  0  0  0  0
  5  4  1  0  0  0  0
  5 12  1  0  0  0  0
  6  5  2  0  0  0  0
  7  1  1  0  0  0  0
  8  2  1  0  0  0  0
  9 10  3  0  0  0  0
 11  6  1  0  0  0  0
M  RAD  1   3   2
M  END
