Coordinates from ORCA-job Ph-N2+-scan-d09-169-n800
 OpenBabel09191813423D

 13 12  0  0  0  0  0  0  0  0999 V2000
   -2.8440    0.1113   -1.1848 C   0  0  0  0  0  0  0  0  0  0  0  0
   -1.4113   -0.0099   -1.1654 C   0  0  0  0  0  0  0  0  0  0  0  0
   -1.0314    0.8278   -0.2065 C   0  0  0  0  0  0  0  0  0  0  0  0
   -1.3950    1.7078    0.7204 C   0  0  0  0  0  0  0  0  0  0  0  0
   -2.8284    1.7508    0.6144 C   0  0  0  0  0  0  0  0  0  0  0  0
   -3.5187    0.9706   -0.3153 C   0  0  0  0  0  0  0  0  0  0  0  0
   -3.3614   -0.5084   -1.9209 H   0  0  0  0  0  0  0  0  0  0  0  0
   -0.8371   -0.6602   -1.8220 H   0  0  0  0  0  0  0  0  0  0  0  0
    6.1251    0.7140    0.8005 N   0  0  0  0  0  0  0  0  0  0  0  0
    7.2185    0.7007    0.9547 N   0  0  0  0  0  0  0  0  0  0  0  0
   -4.6060    1.0327   -0.3623 H   0  0  0  0  0  0  0  0  0  0  0  0
   -3.3341    2.4279    1.3069 H   0  0  0  0  0  0  0  0  0  0  0  0
   -0.8098    2.2927    1.4269 H   0  0  0  0  0  0  0  0  0  0  0  0
  1  2  2  0  0  0  0
  1  6  1  0  0  0  0
  2  3  1  0  0  0  0
  3  4  2  0  0  0  0
  4 13  1  0  0  0  0
  5  4  1  0  0  0  0
  5 12  1  0  0  0  0
  6  5  2  0  0  0  0
  7  1  1  0  0  0  0
  8  2  1  0  0  0  0
  9 10  3  0  0  0  0
 11  6  1  0  0  0  0
M  RAD  1   3   2
M  END
