Coordinates from ORCA-job Ph-N2+-scan-d09-169-n800
 OpenBabel09191813423D

 13 12  0  0  0  0  0  0  0  0999 V2000
   -2.4685    0.1079   -1.1389 C   0  0  0  0  0  0  0  0  0  0  0  0
   -1.0377   -0.0305   -1.1149 C   0  0  0  0  0  0  0  0  0  0  0  0
   -0.6506    0.8011   -0.1536 C   0  0  0  0  0  0  0  0  0  0  0  0
   -1.0067    1.6841    0.7732 C   0  0  0  0  0  0  0  0  0  0  0  0
   -2.4390    1.7446    0.6628 C   0  0  0  0  0  0  0  0  0  0  0  0
   -3.1357    0.9741   -0.2702 C   0  0  0  0  0  0  0  0  0  0  0  0
   -2.9912   -0.5045   -1.8772 H   0  0  0  0  0  0  0  0  0  0  0  0
   -0.4686   -0.6867   -1.7701 H   0  0  0  0  0  0  0  0  0  0  0  0
    4.0232    0.7770    0.5385 N   0  0  0  0  0  0  0  0  0  0  0  0
    5.1178    0.7536    0.6816 N   0  0  0  0  0  0  0  0  0  0  0  0
   -4.2219    1.0494   -0.3207 H   0  0  0  0  0  0  0  0  0  0  0  0
   -2.9390    2.4266    1.3545 H   0  0  0  0  0  0  0  0  0  0  0  0
   -0.4159    2.2609    1.4817 H   0  0  0  0  0  0  0  0  0  0  0  0
  1  2  2  0  0  0  0
  1  6  1  0  0  0  0
  2  3  1  0  0  0  0
  3  4  2  0  0  0  0
  4 13  1  0  0  0  0
  5  4  1  0  0  0  0
  5 12  1  0  0  0  0
  6  5  2  0  0  0  0
  7  1  1  0  0  0  0
  8  2  1  0  0  0  0
  9 10  3  0  0  0  0
 11  6  1  0  0  0  0
M  RAD  1   3   2
M  END
