Coordinates from ORCA-job Ph-N2+-scan-d09-169-n800
 OpenBabel09191813423D

 13 12  0  0  0  0  0  0  0  0999 V2000
   -2.7242    0.1103   -1.1701 C   0  0  0  0  0  0  0  0  0  0  0  0
   -1.2923   -0.0194   -1.1525 C   0  0  0  0  0  0  0  0  0  0  0  0
   -0.9063    0.8153   -0.1933 C   0  0  0  0  0  0  0  0  0  0  0  0
   -1.2637    1.6967    0.7346 C   0  0  0  0  0  0  0  0  0  0  0  0
   -2.6969    1.7483    0.6303 C   0  0  0  0  0  0  0  0  0  0  0  0
   -3.3929    0.9728   -0.2992 C   0  0  0  0  0  0  0  0  0  0  0  0
   -3.2461   -0.5059   -1.9061 H   0  0  0  0  0  0  0  0  0  0  0  0
   -0.7225   -0.6725   -1.8101 H   0  0  0  0  0  0  0  0  0  0  0  0
    5.4345    0.7412    0.7218 N   0  0  0  0  0  0  0  0  0  0  0  0
    6.5284    0.7240    0.8715 N   0  0  0  0  0  0  0  0  0  0  0  0
   -4.4798    1.0415   -0.3449 H   0  0  0  0  0  0  0  0  0  0  0  0
   -3.1978    2.4277    1.3240 H   0  0  0  0  0  0  0  0  0  0  0  0
   -0.6742    2.2776    1.4408 H   0  0  0  0  0  0  0  0  0  0  0  0
  1  2  2  0  0  0  0
  1  6  1  0  0  0  0
  2  3  1  0  0  0  0
  3  4  2  0  0  0  0
  4 13  1  0  0  0  0
  5  4  1  0  0  0  0
  5 12  1  0  0  0  0
  6  5  2  0  0  0  0
  7  1  1  0  0  0  0
  8  2  1  0  0  0  0
  9 10  3  0  0  0  0
 11  6  1  0  0  0  0
M  RAD  1   3   2
M  END
