Coordinates from ORCA-job Ph-N2+-scan-d09-169-n800
 OpenBabel09191813423D

 13 12  0  0  0  0  0  0  0  0999 V2000
   -3.7592    0.1222   -1.2915 C   0  0  0  0  0  0  0  0  0  0  0  0
   -2.3236    0.0418   -1.2962 C   0  0  0  0  0  0  0  0  0  0  0  0
   -1.9513    0.8925   -0.3457 C   0  0  0  0  0  0  0  0  0  0  0  0
   -2.3242    1.7643    0.5853 C   0  0  0  0  0  0  0  0  0  0  0  0
   -3.7599    1.7663    0.5036 C   0  0  0  0  0  0  0  0  0  0  0  0
   -4.4433    0.9641   -0.4123 C   0  0  0  0  0  0  0  0  0  0  0  0
   -4.2712   -0.5136   -2.0176 H   0  0  0  0  0  0  0  0  0  0  0  0
   -1.7426   -0.5940   -1.9609 H   0  0  0  0  0  0  0  0  0  0  0  0
   11.2005    0.5615    1.4314 N   0  0  0  0  0  0  0  0  0  0  0  0
   12.2906    0.5591    1.6082 N   0  0  0  0  0  0  0  0  0  0  0  0
   -5.5327    0.9953   -0.4412 H   0  0  0  0  0  0  0  0  0  0  0  0
   -4.2726    2.4310    1.2029 H   0  0  0  0  0  0  0  0  0  0  0  0
   -1.7441    2.3672    1.2807 H   0  0  0  0  0  0  0  0  0  0  0  0
  1  6  1  0  0  0  0
  2  1  2  0  0  0  0
  2  3  1  0  0  0  0
  3  4  2  0  0  0  0
  4 13  1  0  0  0  0
  5  4  1  0  0  0  0
  5 12  1  0  0  0  0
  6  5  2  0  0  0  0
  7  1  1  0  0  0  0
  8  2  1  0  0  0  0
  9 10  3  0  0  0  0
 11  6  1  0  0  0  0
M  RAD  1   3   2
M  END
