Coordinates from ORCA-job Ph-N2+-scan-d09-169-n800
 OpenBabel09191813423D

 13 12  0  0  0  0  0  0  0  0999 V2000
   -3.7043    0.1215   -1.2851 C   0  0  0  0  0  0  0  0  0  0  0  0
   -2.2687    0.0391   -1.2880 C   0  0  0  0  0  0  0  0  0  0  0  0
   -1.8965    0.8892   -0.3370 C   0  0  0  0  0  0  0  0  0  0  0  0
   -2.2693    1.7613    0.5937 C   0  0  0  0  0  0  0  0  0  0  0  0
   -3.7049    1.7654    0.5102 C   0  0  0  0  0  0  0  0  0  0  0  0
   -4.3883    0.9642   -0.4067 C   0  0  0  0  0  0  0  0  0  0  0  0
   -4.2162   -0.5136   -2.0119 H   0  0  0  0  0  0  0  0  0  0  0  0
   -1.6878   -0.5975   -1.9521 H   0  0  0  0  0  0  0  0  0  0  0  0
   10.8981    0.5699    1.3933 N   0  0  0  0  0  0  0  0  0  0  0  0
   11.9885    0.5672    1.5685 N   0  0  0  0  0  0  0  0  0  0  0  0
   -5.4775    0.9969   -0.4369 H   0  0  0  0  0  0  0  0  0  0  0  0
   -4.2176    2.4306    1.2089 H   0  0  0  0  0  0  0  0  0  0  0  0
   -1.6893    2.3635    1.2898 H   0  0  0  0  0  0  0  0  0  0  0  0
  1  6  1  0  0  0  0
  2  1  2  0  0  0  0
  2  3  1  0  0  0  0
  3  4  2  0  0  0  0
  4 13  1  0  0  0  0
  5  4  1  0  0  0  0
  5 12  1  0  0  0  0
  6  5  2  0  0  0  0
  7  1  1  0  0  0  0
  8  2  1  0  0  0  0
  9 10  3  0  0  0  0
 11  6  1  0  0  0  0
M  RAD  1   3   2
M  END
