Coordinates from ORCA-job Ph-N2+-scan-d09-169-n800
 OpenBabel09191813423D

 13 12  0  0  0  0  0  0  0  0999 V2000
   -2.1627    0.1041   -1.1016 C   0  0  0  0  0  0  0  0  0  0  0  0
   -0.7329    0.0021   -1.0169 C   0  0  0  0  0  0  0  0  0  0  0  0
   -0.3992    0.8459   -0.0445 C   0  0  0  0  0  0  0  0  0  0  0  0
   -0.8240    1.7233    0.8606 C   0  0  0  0  0  0  0  0  0  0  0  0
   -2.2495    1.7484    0.6917 C   0  0  0  0  0  0  0  0  0  0  0  0
   -2.8874    0.9566   -0.2659 C   0  0  0  0  0  0  0  0  0  0  0  0
   -2.6411   -0.5229   -1.8572 H   0  0  0  0  0  0  0  0  0  0  0  0
   -0.1210   -0.6421   -1.6439 H   0  0  0  0  0  0  0  0  0  0  0  0
    2.6657    0.7202    0.2620 N   0  0  0  0  0  0  0  0  0  0  0  0
    3.7624    0.6812    0.3785 N   0  0  0  0  0  0  0  0  0  0  0  0
   -3.9720    1.0041   -0.3618 H   0  0  0  0  0  0  0  0  0  0  0  0
   -2.7961    2.4202    1.3572 H   0  0  0  0  0  0  0  0  0  0  0  0
   -0.2760    2.3166    1.5886 H   0  0  0  0  0  0  0  0  0  0  0  0
  1  2  2  0  0  0  0
  1  6  1  0  0  0  0
  2  3  1  0  0  0  0
  3  4  2  0  0  0  0
  4 13  1  0  0  0  0
  5  4  1  0  0  0  0
  5 12  1  0  0  0  0
  6  5  2  0  0  0  0
  7  1  1  0  0  0  0
  8  2  1  0  0  0  0
  9 10  3  0  0  0  0
 11  6  1  0  0  0  0
M  RAD  1   3   2
M  END
