Coordinates from ORCA-job Ph-N2+-scan-d09-169-n800
 OpenBabel09191813423D

 13 12  0  0  0  0  0  0  0  0999 V2000
   -4.2075    0.1302   -1.3446 C   0  0  0  0  0  0  0  0  0  0  0  0
   -2.7714    0.0595   -1.3618 C   0  0  0  0  0  0  0  0  0  0  0  0
   -2.3966    0.9131   -0.4149 C   0  0  0  0  0  0  0  0  0  0  0  0
   -2.7671    1.7826    0.5192 C   0  0  0  0  0  0  0  0  0  0  0  0
   -4.2035    1.7749    0.4500 C   0  0  0  0  0  0  0  0  0  0  0  0
   -4.8895    0.9677   -0.4596 C   0  0  0  0  0  0  0  0  0  0  0  0
   -4.7215   -0.5092   -2.0661 H   0  0  0  0  0  0  0  0  0  0  0  0
   -2.1919   -0.5727   -2.0314 H   0  0  0  0  0  0  0  0  0  0  0  0
   13.6527    0.4976    1.7433 N   0  0  0  0  0  0  0  0  0  0  0  0
   14.7414    0.4966    1.9287 N   0  0  0  0  0  0  0  0  0  0  0  0
   -5.9792    0.9916   -0.4789 H   0  0  0  0  0  0  0  0  0  0  0  0
   -4.7146    2.4363    1.1535 H   0  0  0  0  0  0  0  0  0  0  0  0
   -2.1851    2.3896    1.2094 H   0  0  0  0  0  0  0  0  0  0  0  0
  1  6  1  0  0  0  0
  2  1  2  0  0  0  0
  2  3  1  0  0  0  0
  3  4  2  0  0  0  0
  4 13  1  0  0  0  0
  5  4  1  0  0  0  0
  5 12  1  0  0  0  0
  6  5  2  0  0  0  0
  7  1  1  0  0  0  0
  8  2  1  0  0  0  0
  9 10  3  0  0  0  0
 11  6  1  0  0  0  0
M  RAD  1   3   2
M  END
