Coordinates from ORCA-job Ph-N2+-scan-d09-169-n800
 OpenBabel09191813423D

 13 12  0  0  0  0  0  0  0  0999 V2000
   -3.0178    0.1133   -1.2062 C   0  0  0  0  0  0  0  0  0  0  0  0
   -1.5843    0.0021   -1.1849 C   0  0  0  0  0  0  0  0  0  0  0  0
   -1.2114    0.8434   -0.2263 C   0  0  0  0  0  0  0  0  0  0  0  0
   -1.5825    1.7215    0.6993 C   0  0  0  0  0  0  0  0  0  0  0  0
   -3.0160    1.7545    0.5916 C   0  0  0  0  0  0  0  0  0  0  0  0
   -3.6996    0.9685   -0.3382 C   0  0  0  0  0  0  0  0  0  0  0  0
   -3.5300   -0.5106   -1.9424 H   0  0  0  0  0  0  0  0  0  0  0  0
   -1.0050   -0.6449   -1.8403 H   0  0  0  0  0  0  0  0  0  0  0  0
    7.1179    0.6800    0.9197 N   0  0  0  0  0  0  0  0  0  0  0  0
    8.2116    0.6670    1.0723 N   0  0  0  0  0  0  0  0  0  0  0  0
   -4.7873    1.0230   -0.3867 H   0  0  0  0  0  0  0  0  0  0  0  0
   -3.5271    2.4287    1.2828 H   0  0  0  0  0  0  0  0  0  0  0  0
   -1.0023    2.3112    1.4060 H   0  0  0  0  0  0  0  0  0  0  0  0
  1  2  2  0  0  0  0
  1  6  1  0  0  0  0
  2  3  1  0  0  0  0
  3  4  2  0  0  0  0
  4 13  1  0  0  0  0
  5  4  1  0  0  0  0
  5 12  1  0  0  0  0
  6  5  2  0  0  0  0
  7  1  1  0  0  0  0
  8  2  1  0  0  0  0
  9 10  3  0  0  0  0
 11  6  1  0  0  0  0
M  RAD  1   3   2
M  END
