Coordinates from ORCA-job Ph-N2+-scan-d09-169-n800
 OpenBabel09191813423D

 13 12  0  0  0  0  0  0  0  0999 V2000
   -2.8612    0.1114   -1.1870 C   0  0  0  0  0  0  0  0  0  0  0  0
   -1.4284   -0.0083   -1.1670 C   0  0  0  0  0  0  0  0  0  0  0  0
   -1.0497    0.8300   -0.2081 C   0  0  0  0  0  0  0  0  0  0  0  0
   -1.4147    1.7097    0.7185 C   0  0  0  0  0  0  0  0  0  0  0  0
   -2.8480    1.7512    0.6121 C   0  0  0  0  0  0  0  0  0  0  0  0
   -3.5372    0.9701   -0.3178 C   0  0  0  0  0  0  0  0  0  0  0  0
   -3.3777   -0.5089   -1.9232 H   0  0  0  0  0  0  0  0  0  0  0  0
   -0.8534   -0.6581   -1.8233 H   0  0  0  0  0  0  0  0  0  0  0  0
    6.2262    0.7103    0.8125 N   0  0  0  0  0  0  0  0  0  0  0  0
    7.3197    0.6961    0.9657 N   0  0  0  0  0  0  0  0  0  0  0  0
   -4.6245    1.0311   -0.3652 H   0  0  0  0  0  0  0  0  0  0  0  0
   -3.3546    2.4278    1.3043 H   0  0  0  0  0  0  0  0  0  0  0  0
   -0.8304    2.2953    1.4252 H   0  0  0  0  0  0  0  0  0  0  0  0
  1  2  2  0  0  0  0
  1  6  1  0  0  0  0
  2  3  1  0  0  0  0
  3  4  2  0  0  0  0
  4 13  1  0  0  0  0
  5  4  1  0  0  0  0
  5 12  1  0  0  0  0
  6  5  2  0  0  0  0
  7  1  1  0  0  0  0
  8  2  1  0  0  0  0
  9 10  3  0  0  0  0
 11  6  1  0  0  0  0
M  RAD  1   3   2
M  END
