Coordinates from ORCA-job Ph-N2+-scan-d09-169-n800
 OpenBabel09191813423D

 13 12  0  0  0  0  0  0  0  0999 V2000
   -2.8640    0.1115   -1.1873 C   0  0  0  0  0  0  0  0  0  0  0  0
   -1.4313   -0.0080   -1.1673 C   0  0  0  0  0  0  0  0  0  0  0  0
   -1.0527    0.8304   -0.2083 C   0  0  0  0  0  0  0  0  0  0  0  0
   -1.4179    1.7100    0.7182 C   0  0  0  0  0  0  0  0  0  0  0  0
   -2.8513    1.7513    0.6117 C   0  0  0  0  0  0  0  0  0  0  0  0
   -3.5402    0.9700   -0.3182 C   0  0  0  0  0  0  0  0  0  0  0  0
   -3.3803   -0.5090   -1.9235 H   0  0  0  0  0  0  0  0  0  0  0  0
   -0.8560   -0.6577   -1.8235 H   0  0  0  0  0  0  0  0  0  0  0  0
    6.2430    0.7097    0.8144 N   0  0  0  0  0  0  0  0  0  0  0  0
    7.3366    0.6953    0.9675 N   0  0  0  0  0  0  0  0  0  0  0  0
   -4.6276    1.0308   -0.3657 H   0  0  0  0  0  0  0  0  0  0  0  0
   -3.3580    2.4278    1.3038 H   0  0  0  0  0  0  0  0  0  0  0  0
   -0.8338    2.2958    1.4249 H   0  0  0  0  0  0  0  0  0  0  0  0
  1  2  2  0  0  0  0
  1  6  1  0  0  0  0
  2  3  1  0  0  0  0
  3  4  2  0  0  0  0
  4 13  1  0  0  0  0
  5  4  1  0  0  0  0
  5 12  1  0  0  0  0
  6  5  2  0  0  0  0
  7  1  1  0  0  0  0
  8  2  1  0  0  0  0
  9 10  3  0  0  0  0
 11  6  1  0  0  0  0
M  RAD  1   3   2
M  END
