Coordinates from ORCA-job Ph-N2+-scan-d09-169-n800
 OpenBabel09191813423D

 13 13  0  0  0  0  0  0  0  0999 V2000
   -1.9114    0.0887   -1.0838 C   0  0  0  0  0  0  0  0  0  0  0  0
   -0.5348    0.0154   -0.9712 C   0  0  0  0  0  0  0  0  0  0  0  0
    0.1149    0.8264    0.0122 C   0  0  0  0  0  0  0  0  0  0  0  0
   -0.6329    1.6986    0.8648 C   0  0  0  0  0  0  0  0  0  0  0  0
   -2.0078    1.7448    0.7213 C   0  0  0  0  0  0  0  0  0  0  0  0
   -2.6444    0.9465   -0.2450 C   0  0  0  0  0  0  0  0  0  0  0  0
   -2.4246   -0.5211   -1.8260 H   0  0  0  0  0  0  0  0  0  0  0  0
    0.0634   -0.6372   -1.6063 H   0  0  0  0  0  0  0  0  0  0  0  0
    1.3288    0.7734    0.1267 N   0  0  0  0  0  0  0  0  0  0  0  0
    2.4460    0.7251    0.2329 N   0  0  0  0  0  0  0  0  0  0  0  0
   -3.7296    0.9928   -0.3453 H   0  0  0  0  0  0  0  0  0  0  0  0
   -2.5938    2.4021    1.3624 H   0  0  0  0  0  0  0  0  0  0  0  0
   -0.1075    2.3023    1.6040 H   0  0  0  0  0  0  0  0  0  0  0  0
  1  2  2  0  0  0  0
  1  6  1  0  0  0  0
  2  3  1  0  0  0  0
  3  9  1  0  0  0  0
  3  4  2  0  0  0  0
  4 13  1  0  0  0  0
  5  4  1  0  0  0  0
  5 12  1  0  0  0  0
  6  5  2  0  0  0  0
  7  1  1  0  0  0  0
  8  2  1  0  0  0  0
  9 10  1  0  0  0  0
 11  6  1  0  0  0  0
M  RAD  2   9   2  10   3
M  END
