Coordinates from ORCA-job Ph-N2+-scan-d09-169-n800
 OpenBabel09191813423D

 13 12  0  0  0  0  0  0  0  0999 V2000
   -3.7377    0.1219   -1.2890 C   0  0  0  0  0  0  0  0  0  0  0  0
   -2.3021    0.0407   -1.2928 C   0  0  0  0  0  0  0  0  0  0  0  0
   -1.9300    0.8912   -0.3420 C   0  0  0  0  0  0  0  0  0  0  0  0
   -2.3031    1.7631    0.5888 C   0  0  0  0  0  0  0  0  0  0  0  0
   -3.7387    1.7660    0.5061 C   0  0  0  0  0  0  0  0  0  0  0  0
   -4.4219    0.9642   -0.4103 C   0  0  0  0  0  0  0  0  0  0  0  0
   -4.2496   -0.5136   -2.0155 H   0  0  0  0  0  0  0  0  0  0  0  0
   -1.7210   -0.5954   -1.9572 H   0  0  0  0  0  0  0  0  0  0  0  0
   11.0830    0.5647    1.4164 N   0  0  0  0  0  0  0  0  0  0  0  0
   12.1732    0.5622    1.5926 N   0  0  0  0  0  0  0  0  0  0  0  0
   -5.5112    0.9960   -0.4399 H   0  0  0  0  0  0  0  0  0  0  0  0
   -4.2515    2.4309    1.2051 H   0  0  0  0  0  0  0  0  0  0  0  0
   -1.7231    2.3658    1.2845 H   0  0  0  0  0  0  0  0  0  0  0  0
  1  6  1  0  0  0  0
  2  1  2  0  0  0  0
  2  3  1  0  0  0  0
  3  4  2  0  0  0  0
  4 13  1  0  0  0  0
  5  4  1  0  0  0  0
  5 12  1  0  0  0  0
  6  5  2  0  0  0  0
  7  1  1  0  0  0  0
  8  2  1  0  0  0  0
  9 10  3  0  0  0  0
 11  6  1  0  0  0  0
M  RAD  1   3   2
M  END
