Coordinates from ORCA-job Ph-N2+-scan-d09-169-n800
 OpenBabel09191813423D

 13 12  0  0  0  0  0  0  0  0999 V2000
   -4.2501    0.1311   -1.3499 C   0  0  0  0  0  0  0  0  0  0  0  0
   -2.8140    0.0610   -1.3675 C   0  0  0  0  0  0  0  0  0  0  0  0
   -2.4394    0.9147   -0.4207 C   0  0  0  0  0  0  0  0  0  0  0  0
   -2.8100    1.7841    0.5134 C   0  0  0  0  0  0  0  0  0  0  0  0
   -4.2463    1.7758    0.4447 C   0  0  0  0  0  0  0  0  0  0  0  0
   -4.9323    0.9683   -0.4648 C   0  0  0  0  0  0  0  0  0  0  0  0
   -4.7641   -0.5086   -2.0712 H   0  0  0  0  0  0  0  0  0  0  0  0
   -2.2345   -0.5710   -2.0372 H   0  0  0  0  0  0  0  0  0  0  0  0
   13.8880    0.4914    1.7729 N   0  0  0  0  0  0  0  0  0  0  0  0
   14.9766    0.4906    1.9589 N   0  0  0  0  0  0  0  0  0  0  0  0
   -6.0220    0.9918   -0.4838 H   0  0  0  0  0  0  0  0  0  0  0  0
   -4.7575    2.4371    1.1483 H   0  0  0  0  0  0  0  0  0  0  0  0
   -2.2280    2.3914    1.2035 H   0  0  0  0  0  0  0  0  0  0  0  0
  1  6  1  0  0  0  0
  2  1  2  0  0  0  0
  2  3  1  0  0  0  0
  3  4  2  0  0  0  0
  4 13  1  0  0  0  0
  5  4  1  0  0  0  0
  5 12  1  0  0  0  0
  6  5  2  0  0  0  0
  7  1  1  0  0  0  0
  8  2  1  0  0  0  0
  9 10  3  0  0  0  0
 11  6  1  0  0  0  0
M  RAD  1   3   2
M  END
