Coordinates from ORCA-job Ph-N2+-scan-d09-169-n800
 OpenBabel09191813423D

 13 12  0  0  0  0  0  0  0  0999 V2000
   -2.5857    0.1096   -1.1531 C   0  0  0  0  0  0  0  0  0  0  0  0
   -1.1549   -0.0321   -1.1387 C   0  0  0  0  0  0  0  0  0  0  0  0
   -0.7599    0.7982   -0.1794 C   0  0  0  0  0  0  0  0  0  0  0  0
   -1.1079    1.6815    0.7502 C   0  0  0  0  0  0  0  0  0  0  0  0
   -2.5407    1.7452    0.6491 C   0  0  0  0  0  0  0  0  0  0  0  0
   -3.2452    0.9767   -0.2798 C   0  0  0  0  0  0  0  0  0  0  0  0
   -3.1143   -0.5015   -1.8885 H   0  0  0  0  0  0  0  0  0  0  0  0
   -0.5917   -0.6892   -1.7980 H   0  0  0  0  0  0  0  0  0  0  0  0
    4.6253    0.7747    0.6299 N   0  0  0  0  0  0  0  0  0  0  0  0
    5.7194    0.7556    0.7779 N   0  0  0  0  0  0  0  0  0  0  0  0
   -4.3316    1.0546   -0.3231 H   0  0  0  0  0  0  0  0  0  0  0  0
   -3.0346    2.4279    1.3445 H   0  0  0  0  0  0  0  0  0  0  0  0
   -0.5117    2.2567    1.4556 H   0  0  0  0  0  0  0  0  0  0  0  0
  1  2  2  0  0  0  0
  1  6  1  0  0  0  0
  2  3  1  0  0  0  0
  3  4  2  0  0  0  0
  4 13  1  0  0  0  0
  5  4  1  0  0  0  0
  5 12  1  0  0  0  0
  6  5  2  0  0  0  0
  7  1  1  0  0  0  0
  8  2  1  0  0  0  0
  9 10  3  0  0  0  0
 11  6  1  0  0  0  0
M  RAD  1   3   2
M  END
