Coordinates from ORCA-job Ph-N2+-scan-d09-169-n800
 OpenBabel09191813423D

 13 12  0  0  0  0  0  0  0  0999 V2000
   -2.1497    0.1037   -1.1003 C   0  0  0  0  0  0  0  0  0  0  0  0
   -0.7204    0.0021   -1.0142 C   0  0  0  0  0  0  0  0  0  0  0  0
   -0.3856    0.8458   -0.0415 C   0  0  0  0  0  0  0  0  0  0  0  0
   -0.8133    1.7231    0.8629 C   0  0  0  0  0  0  0  0  0  0  0  0
   -2.2384    1.7481    0.6929 C   0  0  0  0  0  0  0  0  0  0  0  0
   -2.8752    0.9562   -0.2652 C   0  0  0  0  0  0  0  0  0  0  0  0
   -2.6277   -0.5232   -1.8561 H   0  0  0  0  0  0  0  0  0  0  0  0
   -0.1079   -0.6419   -1.6406 H   0  0  0  0  0  0  0  0  0  0  0  0
    2.5999    0.7216    0.2537 N   0  0  0  0  0  0  0  0  0  0  0  0
    3.6967    0.6822    0.3683 N   0  0  0  0  0  0  0  0  0  0  0  0
   -3.9598    1.0035   -0.3620 H   0  0  0  0  0  0  0  0  0  0  0  0
   -2.7860    2.4198    1.3577 H   0  0  0  0  0  0  0  0  0  0  0  0
   -0.2662    2.3167    1.5913 H   0  0  0  0  0  0  0  0  0  0  0  0
  1  2  2  0  0  0  0
  1  6  1  0  0  0  0
  2  3  1  0  0  0  0
  3  4  2  0  0  0  0
  4 13  1  0  0  0  0
  5  4  1  0  0  0  0
  5 12  1  0  0  0  0
  6  5  2  0  0  0  0
  7  1  1  0  0  0  0
  8  2  1  0  0  0  0
  9 10  3  0  0  0  0
 11  6  1  0  0  0  0
M  RAD  1   3   2
M  END
