Coordinates from ORCA-job Ph-N2+-scan-d09-169-n800
 OpenBabel09191813423D

 13 12  0  0  0  0  0  0  0  0999 V2000
   -2.7969    0.1109   -1.1790 C   0  0  0  0  0  0  0  0  0  0  0  0
   -1.3645   -0.0132   -1.1601 C   0  0  0  0  0  0  0  0  0  0  0  0
   -0.9825    0.8235   -0.2010 C   0  0  0  0  0  0  0  0  0  0  0  0
   -1.3442    1.7039    0.7262 C   0  0  0  0  0  0  0  0  0  0  0  0
   -2.7775    1.7498    0.6206 C   0  0  0  0  0  0  0  0  0  0  0  0
   -3.4697    0.9712   -0.3091 C   0  0  0  0  0  0  0  0  0  0  0  0
   -3.3157   -0.5077   -1.9151 H   0  0  0  0  0  0  0  0  0  0  0  0
   -0.7918   -0.6646   -1.8170 H   0  0  0  0  0  0  0  0  0  0  0  0
    5.8557    0.7240    0.7694 N   0  0  0  0  0  0  0  0  0  0  0  0
    6.9494    0.7092    0.9217 N   0  0  0  0  0  0  0  0  0  0  0  0
   -4.5569    1.0356   -0.3558 H   0  0  0  0  0  0  0  0  0  0  0  0
   -3.2816    2.4277    1.3135 H   0  0  0  0  0  0  0  0  0  0  0  0
   -0.7576    2.2874    1.4326 H   0  0  0  0  0  0  0  0  0  0  0  0
  1  2  2  0  0  0  0
  1  6  1  0  0  0  0
  2  3  1  0  0  0  0
  3  4  2  0  0  0  0
  4 13  1  0  0  0  0
  5  4  1  0  0  0  0
  5 12  1  0  0  0  0
  6  5  2  0  0  0  0
  7  1  1  0  0  0  0
  8  2  1  0  0  0  0
  9 10  3  0  0  0  0
 11  6  1  0  0  0  0
M  RAD  1   3   2
M  END
