Coordinates from ORCA-job Ph-N2+-scan-d09-169-n800
 OpenBabel09191813423D

 13 12  0  0  0  0  0  0  0  0999 V2000
   -3.0750    0.1142   -1.2132 C   0  0  0  0  0  0  0  0  0  0  0  0
   -1.6414    0.0048   -1.1921 C   0  0  0  0  0  0  0  0  0  0  0  0
   -1.2694    0.8467   -0.2336 C   0  0  0  0  0  0  0  0  0  0  0  0
   -1.6414    1.7245    0.6919 C   0  0  0  0  0  0  0  0  0  0  0  0
   -3.0750    1.7557    0.5843 C   0  0  0  0  0  0  0  0  0  0  0  0
   -3.7578    0.9687   -0.3453 C   0  0  0  0  0  0  0  0  0  0  0  0
   -3.5865   -0.5104   -1.9492 H   0  0  0  0  0  0  0  0  0  0  0  0
   -1.0614   -0.6416   -1.8474 H   0  0  0  0  0  0  0  0  0  0  0  0
    7.4374    0.6703    0.9588 N   0  0  0  0  0  0  0  0  0  0  0  0
    8.5310    0.6585    1.1122 N   0  0  0  0  0  0  0  0  0  0  0  0
   -4.8455    1.0218   -0.3936 H   0  0  0  0  0  0  0  0  0  0  0  0
   -3.5868    2.4294    1.2755 H   0  0  0  0  0  0  0  0  0  0  0  0
   -1.0619    2.3149    1.3985 H   0  0  0  0  0  0  0  0  0  0  0  0
  1  2  2  0  0  0  0
  1  6  1  0  0  0  0
  2  3  1  0  0  0  0
  3  4  2  0  0  0  0
  4 13  1  0  0  0  0
  5  4  1  0  0  0  0
  5 12  1  0  0  0  0
  6  5  2  0  0  0  0
  7  1  1  0  0  0  0
  8  2  1  0  0  0  0
  9 10  3  0  0  0  0
 11  6  1  0  0  0  0
M  RAD  1   3   2
M  END
