Coordinates from ORCA-job Ph-N2+-scan-d09-169-n800
 OpenBabel09191813423D

 13 12  0  0  0  0  0  0  0  0999 V2000
   -2.0817    0.1013   -1.0938 C   0  0  0  0  0  0  0  0  0  0  0  0
   -0.6568    0.0019   -1.0027 C   0  0  0  0  0  0  0  0  0  0  0  0
   -0.3025    0.8433   -0.0287 C   0  0  0  0  0  0  0  0  0  0  0  0
   -0.7547    1.7201    0.8709 C   0  0  0  0  0  0  0  0  0  0  0  0
   -2.1753    1.7462    0.6995 C   0  0  0  0  0  0  0  0  0  0  0  0
   -2.8097    0.9539   -0.2604 C   0  0  0  0  0  0  0  0  0  0  0  0
   -2.5618   -0.5241   -1.8491 H   0  0  0  0  0  0  0  0  0  0  0  0
   -0.0451   -0.6429   -1.6281 H   0  0  0  0  0  0  0  0  0  0  0  0
    2.2457    0.7337    0.2143 N   0  0  0  0  0  0  0  0  0  0  0  0
    3.3427    0.6923    0.3233 N   0  0  0  0  0  0  0  0  0  0  0  0
   -3.8940    1.0010   -0.3600 H   0  0  0  0  0  0  0  0  0  0  0  0
   -2.7284    2.4164    1.3606 H   0  0  0  0  0  0  0  0  0  0  0  0
   -0.2122    2.3145    1.6011 H   0  0  0  0  0  0  0  0  0  0  0  0
  1  2  2  0  0  0  0
  1  6  1  0  0  0  0
  2  3  1  0  0  0  0
  3  4  2  0  0  0  0
  4 13  1  0  0  0  0
  5  4  1  0  0  0  0
  5 12  1  0  0  0  0
  6  5  2  0  0  0  0
  7  1  1  0  0  0  0
  8  2  1  0  0  0  0
  9 10  3  0  0  0  0
 11  6  1  0  0  0  0
M  RAD  1   3   2
M  END
