Coordinates from ORCA-job Ph-N2+-scan-d09-169-n800
 OpenBabel09191813423D

 13 12  0  0  0  0  0  0  0  0999 V2000
   -3.8388    0.1234   -1.3008 C   0  0  0  0  0  0  0  0  0  0  0  0
   -2.4031    0.0455   -1.3081 C   0  0  0  0  0  0  0  0  0  0  0  0
   -2.0306    0.8970   -0.3584 C   0  0  0  0  0  0  0  0  0  0  0  0
   -2.4033    1.7682    0.5732 C   0  0  0  0  0  0  0  0  0  0  0  0
   -3.8391    1.7677    0.4942 C   0  0  0  0  0  0  0  0  0  0  0  0
   -4.5228    0.9642   -0.4204 C   0  0  0  0  0  0  0  0  0  0  0  0
   -4.3510   -0.5134   -2.0259 H   0  0  0  0  0  0  0  0  0  0  0  0
   -1.8222   -0.5894   -1.9738 H   0  0  0  0  0  0  0  0  0  0  0  0
   11.6372    0.5497    1.4866 N   0  0  0  0  0  0  0  0  0  0  0  0
   12.7270    0.5476    1.6656 N   0  0  0  0  0  0  0  0  0  0  0  0
   -5.6122    0.9934   -0.4473 H   0  0  0  0  0  0  0  0  0  0  0  0
   -4.3518    2.4315    1.1943 H   0  0  0  0  0  0  0  0  0  0  0  0
   -1.8230    2.3723    1.2675 H   0  0  0  0  0  0  0  0  0  0  0  0
  1  6  1  0  0  0  0
  2  1  2  0  0  0  0
  2  3  1  0  0  0  0
  3  4  2  0  0  0  0
  4 13  1  0  0  0  0
  5  4  1  0  0  0  0
  5 12  1  0  0  0  0
  6  5  2  0  0  0  0
  7  1  1  0  0  0  0
  8  2  1  0  0  0  0
  9 10  3  0  0  0  0
 11  6  1  0  0  0  0
M  RAD  1   3   2
M  END
