Coordinates from ORCA-job Ph-N2+-scan-d09-169-n800
 OpenBabel09191813423D

 13 12  0  0  0  0  0  0  0  0999 V2000
   -3.0599    0.1140   -1.2113 C   0  0  0  0  0  0  0  0  0  0  0  0
   -1.6264    0.0041   -1.1902 C   0  0  0  0  0  0  0  0  0  0  0  0
   -1.2541    0.8459   -0.2317 C   0  0  0  0  0  0  0  0  0  0  0  0
   -1.6259    1.7238    0.6939 C   0  0  0  0  0  0  0  0  0  0  0  0
   -3.0595    1.7554    0.5862 C   0  0  0  0  0  0  0  0  0  0  0  0
   -3.7425    0.9687   -0.3434 C   0  0  0  0  0  0  0  0  0  0  0  0
   -3.5715   -0.5105   -1.9474 H   0  0  0  0  0  0  0  0  0  0  0  0
   -1.0465   -0.6424   -1.8455 H   0  0  0  0  0  0  0  0  0  0  0  0
    7.3534    0.6728    0.9485 N   0  0  0  0  0  0  0  0  0  0  0  0
    8.4469    0.6607    1.1017 N   0  0  0  0  0  0  0  0  0  0  0  0
   -4.8302    1.0221   -0.3918 H   0  0  0  0  0  0  0  0  0  0  0  0
   -3.5712    2.4292    1.2774 H   0  0  0  0  0  0  0  0  0  0  0  0
   -1.0463    2.3140    1.4005 H   0  0  0  0  0  0  0  0  0  0  0  0
  1  2  2  0  0  0  0
  1  6  1  0  0  0  0
  2  3  1  0  0  0  0
  3  4  2  0  0  0  0
  4 13  1  0  0  0  0
  5  4  1  0  0  0  0
  5 12  1  0  0  0  0
  6  5  2  0  0  0  0
  7  1  1  0  0  0  0
  8  2  1  0  0  0  0
  9 10  3  0  0  0  0
 11  6  1  0  0  0  0
M  RAD  1   3   2
M  END
