Coordinates from ORCA-job Ph-N2+-scan-d09-169-n800
 OpenBabel09191813423D

 13 12  0  0  0  0  0  0  0  0999 V2000
   -3.4464    0.1191   -1.2555 C   0  0  0  0  0  0  0  0  0  0  0  0
   -2.0117    0.0233   -1.2495 C   0  0  0  0  0  0  0  0  0  0  0  0
   -1.6376    0.8693   -0.2955 C   0  0  0  0  0  0  0  0  0  0  0  0
   -2.0083    1.7442    0.6333 C   0  0  0  0  0  0  0  0  0  0  0  0
   -3.4432    1.7615    0.5412 C   0  0  0  0  0  0  0  0  0  0  0  0
   -4.1282    0.9674   -0.3807 C   0  0  0  0  0  0  0  0  0  0  0  0
   -3.9596   -0.5107   -1.9860 H   0  0  0  0  0  0  0  0  0  0  0  0
   -1.4326   -0.6181   -1.9105 H   0  0  0  0  0  0  0  0  0  0  0  0
    9.4698    0.6131    1.2171 N   0  0  0  0  0  0  0  0  0  0  0  0
   10.5621    0.6072    1.3795 N   0  0  0  0  0  0  0  0  0  0  0  0
   -5.2169    1.0101   -0.4176 H   0  0  0  0  0  0  0  0  0  0  0  0
   -3.9541    2.4307    1.2375 H   0  0  0  0  0  0  0  0  0  0  0  0
   -1.4270    2.3405    1.3335 H   0  0  0  0  0  0  0  0  0  0  0  0
  1  2  2  0  0  0  0
  1  6  1  0  0  0  0
  2  3  1  0  0  0  0
  3  4  2  0  0  0  0
  4 13  1  0  0  0  0
  5  4  1  0  0  0  0
  5 12  1  0  0  0  0
  6  5  2  0  0  0  0
  7  1  1  0  0  0  0
  8  2  1  0  0  0  0
  9 10  3  0  0  0  0
 11  6  1  0  0  0  0
M  RAD  1   3   2
M  END
