Coordinates from ORCA-job Ph-N2+-scan-d09-169-n800
 OpenBabel09191813423D

 13 12  0  0  0  0  0  0  0  0999 V2000
   -3.3355    0.1191   -1.2453 C   0  0  0  0  0  0  0  0  0  0  0  0
   -1.9015    0.0150   -1.2250 C   0  0  0  0  0  0  0  0  0  0  0  0
   -1.5319    0.8586   -0.2672 C   0  0  0  0  0  0  0  0  0  0  0  0
   -1.9067    1.7354    0.6583 C   0  0  0  0  0  0  0  0  0  0  0  0
   -3.3404    1.7613    0.5515 C   0  0  0  0  0  0  0  0  0  0  0  0
   -4.0209    0.9714   -0.3773 C   0  0  0  0  0  0  0  0  0  0  0  0
   -3.8451   -0.5077   -1.9808 H   0  0  0  0  0  0  0  0  0  0  0  0
   -1.3195   -0.6296   -1.8805 H   0  0  0  0  0  0  0  0  0  0  0  0
    8.8835    0.6296    1.1362 N   0  0  0  0  0  0  0  0  0  0  0  0
    9.9763    0.6222    1.2948 N   0  0  0  0  0  0  0  0  0  0  0  0
   -5.1088    1.0205   -0.4250 H   0  0  0  0  0  0  0  0  0  0  0  0
   -3.8543    2.4335    1.2427 H   0  0  0  0  0  0  0  0  0  0  0  0
   -1.3289    2.3283    1.3642 H   0  0  0  0  0  0  0  0  0  0  0  0
  1  2  2  0  0  0  0
  1  6  1  0  0  0  0
  2  3  1  0  0  0  0
  3  4  2  0  0  0  0
  4 13  1  0  0  0  0
  5  4  1  0  0  0  0
  5 12  1  0  0  0  0
  6  5  2  0  0  0  0
  7  1  1  0  0  0  0
  8  2  1  0  0  0  0
  9 10  3  0  0  0  0
 11  6  1  0  0  0  0
M  RAD  1   3   2
M  END
