Coordinates from ORCA-job Ph-N2+-scan-d09-169-n800
 OpenBabel09191813423D

 13 12  0  0  0  0  0  0  0  0999 V2000
   -2.7155    0.1103   -1.1691 C   0  0  0  0  0  0  0  0  0  0  0  0
   -1.2837   -0.0202   -1.1516 C   0  0  0  0  0  0  0  0  0  0  0  0
   -0.8971    0.8143   -0.1925 C   0  0  0  0  0  0  0  0  0  0  0  0
   -1.2539    1.6957    0.7356 C   0  0  0  0  0  0  0  0  0  0  0  0
   -2.6871    1.7481    0.6315 C   0  0  0  0  0  0  0  0  0  0  0  0
   -3.3836    0.9731   -0.2979 C   0  0  0  0  0  0  0  0  0  0  0  0
   -3.2378   -0.5056   -1.9050 H   0  0  0  0  0  0  0  0  0  0  0  0
   -0.7144   -0.6736   -1.8094 H   0  0  0  0  0  0  0  0  0  0  0  0
    5.3839    0.7434    0.7161 N   0  0  0  0  0  0  0  0  0  0  0  0
    6.4779    0.7259    0.8656 N   0  0  0  0  0  0  0  0  0  0  0  0
   -4.4706    1.0423   -0.3435 H   0  0  0  0  0  0  0  0  0  0  0  0
   -3.1876    2.4277    1.3253 H   0  0  0  0  0  0  0  0  0  0  0  0
   -0.6640    2.2763    1.4417 H   0  0  0  0  0  0  0  0  0  0  0  0
  1  2  2  0  0  0  0
  1  6  1  0  0  0  0
  2  3  1  0  0  0  0
  3  4  2  0  0  0  0
  4 13  1  0  0  0  0
  5  4  1  0  0  0  0
  5 12  1  0  0  0  0
  6  5  2  0  0  0  0
  7  1  1  0  0  0  0
  8  2  1  0  0  0  0
  9 10  3  0  0  0  0
 11  6  1  0  0  0  0
M  RAD  1   3   2
M  END
