Coordinates from ORCA-job Ph-N2+-scan-d09-169-n800
 OpenBabel09191813423D

 13 12  0  0  0  0  0  0  0  0999 V2000
   -2.3756    0.1066   -1.1273 C   0  0  0  0  0  0  0  0  0  0  0  0
   -0.9442   -0.0201   -1.0859 C   0  0  0  0  0  0  0  0  0  0  0  0
   -0.5753    0.8160   -0.1212 C   0  0  0  0  0  0  0  0  0  0  0  0
   -0.9503    1.6974    0.7998 C   0  0  0  0  0  0  0  0  0  0  0  0
   -2.3814    1.7461    0.6722 C   0  0  0  0  0  0  0  0  0  0  0  0
   -3.0604    0.9684   -0.2681 C   0  0  0  0  0  0  0  0  0  0  0  0
   -2.8846   -0.5109   -1.8709 H   0  0  0  0  0  0  0  0  0  0  0  0
   -0.3618   -0.6723   -1.7331 H   0  0  0  0  0  0  0  0  0  0  0  0
    3.6095    0.7566    0.4511 N   0  0  0  0  0  0  0  0  0  0  0  0
    4.7043    0.7307    0.5915 N   0  0  0  0  0  0  0  0  0  0  0  0
   -4.1466    1.0346   -0.3317 H   0  0  0  0  0  0  0  0  0  0  0  0
   -2.8953    2.4249    1.3566 H   0  0  0  0  0  0  0  0  0  0  0  0
   -0.3721    2.2796    1.5140 H   0  0  0  0  0  0  0  0  0  0  0  0
  1  2  2  0  0  0  0
  1  6  1  0  0  0  0
  2  3  1  0  0  0  0
  3  4  2  0  0  0  0
  4 13  1  0  0  0  0
  5  4  1  0  0  0  0
  5 12  1  0  0  0  0
  6  5  2  0  0  0  0
  7  1  1  0  0  0  0
  8  2  1  0  0  0  0
  9 10  3  0  0  0  0
 11  6  1  0  0  0  0
M  RAD  1   3   2
M  END
