Coordinates from ORCA-job Ph-N2+-scan-d09-169-n800
 OpenBabel09191813423D

 13 12  0  0  0  0  0  0  0  0999 V2000
   -2.4580    0.1078   -1.1376 C   0  0  0  0  0  0  0  0  0  0  0  0
   -1.0271   -0.0299   -1.1121 C   0  0  0  0  0  0  0  0  0  0  0  0
   -0.6415    0.8021   -0.1504 C   0  0  0  0  0  0  0  0  0  0  0  0
   -0.9992    1.6850    0.7759 C   0  0  0  0  0  0  0  0  0  0  0  0
   -2.4313    1.7447    0.6640 C   0  0  0  0  0  0  0  0  0  0  0  0
   -3.1266    0.9737   -0.2698 C   0  0  0  0  0  0  0  0  0  0  0  0
   -2.9796   -0.5050   -1.8764 H   0  0  0  0  0  0  0  0  0  0  0  0
   -0.4569   -0.6857   -1.7666 H   0  0  0  0  0  0  0  0  0  0  0  0
    3.9733    0.7758    0.5292 N   0  0  0  0  0  0  0  0  0  0  0  0
    5.0679    0.7522    0.6721 N   0  0  0  0  0  0  0  0  0  0  0  0
   -4.2128    1.0484   -0.3214 H   0  0  0  0  0  0  0  0  0  0  0  0
   -2.9325    2.4265    1.3550 H   0  0  0  0  0  0  0  0  0  0  0  0
   -0.4094    2.2622    1.4849 H   0  0  0  0  0  0  0  0  0  0  0  0
  1  2  2  0  0  0  0
  1  6  1  0  0  0  0
  2  3  1  0  0  0  0
  3  4  2  0  0  0  0
  4 13  1  0  0  0  0
  5  4  1  0  0  0  0
  5 12  1  0  0  0  0
  6  5  2  0  0  0  0
  7  1  1  0  0  0  0
  8  2  1  0  0  0  0
  9 10  3  0  0  0  0
 11  6  1  0  0  0  0
M  RAD  1   3   2
M  END
