Coordinates from ORCA-job Ph-N2+-scan-d09-169-n800
 OpenBabel09191813423D

 13 12  0  0  0  0  0  0  0  0999 V2000
   -4.1859    0.1298   -1.3420 C   0  0  0  0  0  0  0  0  0  0  0  0
   -2.7498    0.0588   -1.3586 C   0  0  0  0  0  0  0  0  0  0  0  0
   -2.3753    0.9123   -0.4115 C   0  0  0  0  0  0  0  0  0  0  0  0
   -2.7460    1.7819    0.5223 C   0  0  0  0  0  0  0  0  0  0  0  0
   -4.1823    1.7744    0.4526 C   0  0  0  0  0  0  0  0  0  0  0  0
   -4.8681    0.9674   -0.4574 C   0  0  0  0  0  0  0  0  0  0  0  0
   -4.6998   -0.5095   -2.0637 H   0  0  0  0  0  0  0  0  0  0  0  0
   -2.1701   -0.5735   -2.0279 H   0  0  0  0  0  0  0  0  0  0  0  0
   13.5352    0.5005    1.7282 N   0  0  0  0  0  0  0  0  0  0  0  0
   14.6239    0.4995    1.9133 N   0  0  0  0  0  0  0  0  0  0  0  0
   -5.9578    0.9915   -0.4771 H   0  0  0  0  0  0  0  0  0  0  0  0
   -4.6936    2.4360    1.1559 H   0  0  0  0  0  0  0  0  0  0  0  0
   -2.1641    2.3887    1.2128 H   0  0  0  0  0  0  0  0  0  0  0  0
  1  6  1  0  0  0  0
  2  1  2  0  0  0  0
  2  3  1  0  0  0  0
  3  4  2  0  0  0  0
  4 13  1  0  0  0  0
  5  4  1  0  0  0  0
  5 12  1  0  0  0  0
  6  5  2  0  0  0  0
  7  1  1  0  0  0  0
  8  2  1  0  0  0  0
  9 10  3  0  0  0  0
 11  6  1  0  0  0  0
M  RAD  1   3   2
M  END
