Coordinates from ORCA-job Ph-N2+-scan-d09-169-n800
 OpenBabel09191813423D

 13 12  0  0  0  0  0  0  0  0999 V2000
   -2.8351    0.1112   -1.1837 C   0  0  0  0  0  0  0  0  0  0  0  0
   -1.4025   -0.0105   -1.1644 C   0  0  0  0  0  0  0  0  0  0  0  0
   -1.0222    0.8271   -0.2054 C   0  0  0  0  0  0  0  0  0  0  0  0
   -1.3855    1.7071    0.7215 C   0  0  0  0  0  0  0  0  0  0  0  0
   -2.8189    1.7506    0.6156 C   0  0  0  0  0  0  0  0  0  0  0  0
   -3.5095    0.9707   -0.3141 C   0  0  0  0  0  0  0  0  0  0  0  0
   -3.3528   -0.5083   -1.9198 H   0  0  0  0  0  0  0  0  0  0  0  0
   -0.8286   -0.6610   -1.8210 H   0  0  0  0  0  0  0  0  0  0  0  0
    6.0746    0.7158    0.7947 N   0  0  0  0  0  0  0  0  0  0  0  0
    7.1681    0.7022    0.9485 N   0  0  0  0  0  0  0  0  0  0  0  0
   -4.5968    1.0332   -0.3611 H   0  0  0  0  0  0  0  0  0  0  0  0
   -3.3243    2.4278    1.3082 H   0  0  0  0  0  0  0  0  0  0  0  0
   -0.8001    2.2917    1.4280 H   0  0  0  0  0  0  0  0  0  0  0  0
  1  2  2  0  0  0  0
  1  6  1  0  0  0  0
  2  3  1  0  0  0  0
  3  4  2  0  0  0  0
  4 13  1  0  0  0  0
  5  4  1  0  0  0  0
  5 12  1  0  0  0  0
  6  5  2  0  0  0  0
  7  1  1  0  0  0  0
  8  2  1  0  0  0  0
  9 10  3  0  0  0  0
 11  6  1  0  0  0  0
M  RAD  1   3   2
M  END
