Coordinates from ORCA-job Ph-N2+-scan-d09-169-n800
 OpenBabel09191813423D

 13 12  0  0  0  0  0  0  0  0999 V2000
   -4.1157    0.1284   -1.3334 C   0  0  0  0  0  0  0  0  0  0  0  0
   -2.6796    0.0563   -1.3491 C   0  0  0  0  0  0  0  0  0  0  0  0
   -2.3051    0.9094   -0.4017 C   0  0  0  0  0  0  0  0  0  0  0  0
   -2.6757    1.7792    0.5320 C   0  0  0  0  0  0  0  0  0  0  0  0
   -4.1120    1.7729    0.4613 C   0  0  0  0  0  0  0  0  0  0  0  0
   -4.7978    0.9665   -0.4492 C   0  0  0  0  0  0  0  0  0  0  0  0
   -4.6296   -0.5105   -2.0555 H   0  0  0  0  0  0  0  0  0  0  0  0
   -2.1000   -0.5764   -2.0181 H   0  0  0  0  0  0  0  0  0  0  0  0
   13.1487    0.5107    1.6796 N   0  0  0  0  0  0  0  0  0  0  0  0
   14.2377    0.5093    1.8634 N   0  0  0  0  0  0  0  0  0  0  0  0
   -5.8875    0.9915   -0.4696 H   0  0  0  0  0  0  0  0  0  0  0  0
   -4.6232    2.4348    1.1643 H   0  0  0  0  0  0  0  0  0  0  0  0
   -2.0938    2.3856    1.2229 H   0  0  0  0  0  0  0  0  0  0  0  0
  1  6  1  0  0  0  0
  2  1  2  0  0  0  0
  2  3  1  0  0  0  0
  3  4  2  0  0  0  0
  4 13  1  0  0  0  0
  5  4  1  0  0  0  0
  5 12  1  0  0  0  0
  6  5  2  0  0  0  0
  7  1  1  0  0  0  0
  8  2  1  0  0  0  0
  9 10  3  0  0  0  0
 11  6  1  0  0  0  0
M  RAD  1   3   2
M  END
