Coordinates from ORCA-job Ph-N2+-scan-d09-169-n800
 OpenBabel09191813423D

 13 12  0  0  0  0  0  0  0  0999 V2000
   -2.4106    0.1071   -1.1317 C   0  0  0  0  0  0  0  0  0  0  0  0
   -0.9795   -0.0252   -1.0981 C   0  0  0  0  0  0  0  0  0  0  0  0
   -0.6023    0.8088   -0.1349 C   0  0  0  0  0  0  0  0  0  0  0  0
   -0.9687    1.6910    0.7888 C   0  0  0  0  0  0  0  0  0  0  0  0
   -2.4003    1.7453    0.6689 C   0  0  0  0  0  0  0  0  0  0  0  0
   -3.0874    0.9710   -0.2683 C   0  0  0  0  0  0  0  0  0  0  0  0
   -2.9259   -0.5080   -1.8730 H   0  0  0  0  0  0  0  0  0  0  0  0
   -0.4031   -0.6793   -1.7489 H   0  0  0  0  0  0  0  0  0  0  0  0
    3.7579    0.7668    0.4854 N   0  0  0  0  0  0  0  0  0  0  0  0
    4.8526    0.7424    0.6278 N   0  0  0  0  0  0  0  0  0  0  0  0
   -4.1736    1.0415   -0.3260 H   0  0  0  0  0  0  0  0  0  0  0  0
   -2.9079    2.4257    1.3565 H   0  0  0  0  0  0  0  0  0  0  0  0
   -0.3846    2.2706    1.5004 H   0  0  0  0  0  0  0  0  0  0  0  0
  1  2  2  0  0  0  0
  1  6  1  0  0  0  0
  2  3  1  0  0  0  0
  3  4  2  0  0  0  0
  4 13  1  0  0  0  0
  5  4  1  0  0  0  0
  5 12  1  0  0  0  0
  6  5  2  0  0  0  0
  7  1  1  0  0  0  0
  8  2  1  0  0  0  0
  9 10  3  0  0  0  0
 11  6  1  0  0  0  0
M  RAD  1   3   2
M  END
