Coordinates from ORCA-job Ph-N2+-scan-d09-169-n800
 OpenBabel09191813423D

 13 13  0  0  0  0  0  0  0  0999 V2000
   -1.9242    0.0894   -1.0849 C   0  0  0  0  0  0  0  0  0  0  0  0
   -0.5434    0.0149   -0.9727 C   0  0  0  0  0  0  0  0  0  0  0  0
    0.0740    0.8281    0.0082 C   0  0  0  0  0  0  0  0  0  0  0  0
   -0.6416    1.6996    0.8647 C   0  0  0  0  0  0  0  0  0  0  0  0
   -2.0206    1.7452    0.7201 C   0  0  0  0  0  0  0  0  0  0  0  0
   -2.6557    0.9471   -0.2462 C   0  0  0  0  0  0  0  0  0  0  0  0
   -2.4380   -0.5201   -1.8269 H   0  0  0  0  0  0  0  0  0  0  0  0
    0.0548   -0.6374   -1.6072 H   0  0  0  0  0  0  0  0  0  0  0  0
    1.4074    0.7701    0.1340 N   0  0  0  0  0  0  0  0  0  0  0  0
    2.5174    0.7224    0.2398 N   0  0  0  0  0  0  0  0  0  0  0  0
   -3.7408    0.9936   -0.3465 H   0  0  0  0  0  0  0  0  0  0  0  0
   -2.6070    2.4022    1.3610 H   0  0  0  0  0  0  0  0  0  0  0  0
   -0.1160    2.3027    1.6034 H   0  0  0  0  0  0  0  0  0  0  0  0
  1  2  2  0  0  0  0
  1  6  1  0  0  0  0
  2  3  1  0  0  0  0
  3  9  1  0  0  0  0
  3  4  2  0  0  0  0
  4 13  1  0  0  0  0
  5  4  1  0  0  0  0
  5 12  1  0  0  0  0
  6  5  2  0  0  0  0
  7  1  1  0  0  0  0
  8  2  1  0  0  0  0
  9 10  1  0  0  0  0
 11  6  1  0  0  0  0
M  RAD  2   9   2  10   3
M  END
