Coordinates from ORCA-job Ph-N2+-scan-d09-169-n800
 OpenBabel09191813423D

 13 12  0  0  0  0  0  0  0  0999 V2000
   -2.7589    0.1105   -1.1744 C   0  0  0  0  0  0  0  0  0  0  0  0
   -1.3268   -0.0163   -1.1560 C   0  0  0  0  0  0  0  0  0  0  0  0
   -0.9429    0.8194   -0.1969 C   0  0  0  0  0  0  0  0  0  0  0  0
   -1.3025    1.7003    0.7306 C   0  0  0  0  0  0  0  0  0  0  0  0
   -2.7358    1.7490    0.6257 C   0  0  0  0  0  0  0  0  0  0  0  0
   -3.4297    0.9720   -0.3040 C   0  0  0  0  0  0  0  0  0  0  0  0
   -3.2793   -0.5068   -1.9104 H   0  0  0  0  0  0  0  0  0  0  0  0
   -0.7555   -0.6685   -1.8132 H   0  0  0  0  0  0  0  0  0  0  0  0
    5.6367    0.7327    0.7445 N   0  0  0  0  0  0  0  0  0  0  0  0
    6.7305    0.7166    0.8953 N   0  0  0  0  0  0  0  0  0  0  0  0
   -4.5168    1.0384   -0.3502 H   0  0  0  0  0  0  0  0  0  0  0  0
   -3.2383    2.4276    1.3189 H   0  0  0  0  0  0  0  0  0  0  0  0
   -0.7145    2.2826    1.4370 H   0  0  0  0  0  0  0  0  0  0  0  0
  1  2  2  0  0  0  0
  1  6  1  0  0  0  0
  2  3  1  0  0  0  0
  3  4  2  0  0  0  0
  4 13  1  0  0  0  0
  5  4  1  0  0  0  0
  5 12  1  0  0  0  0
  6  5  2  0  0  0  0
  7  1  1  0  0  0  0
  8  2  1  0  0  0  0
  9 10  3  0  0  0  0
 11  6  1  0  0  0  0
M  RAD  1   3   2
M  END
