Coordinates from ORCA-job Ph-N2+-scan-d09-169-n800
 OpenBabel09191813423D

 13 12  0  0  0  0  0  0  0  0999 V2000
   -3.3415    0.1192   -1.2460 C   0  0  0  0  0  0  0  0  0  0  0  0
   -1.9075    0.0152   -1.2258 C   0  0  0  0  0  0  0  0  0  0  0  0
   -1.5380    0.8589   -0.2680 C   0  0  0  0  0  0  0  0  0  0  0  0
   -1.9128    1.7357    0.6575 C   0  0  0  0  0  0  0  0  0  0  0  0
   -3.3466    1.7615    0.5507 C   0  0  0  0  0  0  0  0  0  0  0  0
   -4.0270    0.9715   -0.3780 C   0  0  0  0  0  0  0  0  0  0  0  0
   -3.8512   -0.5077   -1.9815 H   0  0  0  0  0  0  0  0  0  0  0  0
   -1.3256   -0.6293   -1.8813 H   0  0  0  0  0  0  0  0  0  0  0  0
    8.9171    0.6287    1.1404 N   0  0  0  0  0  0  0  0  0  0  0  0
   10.0099    0.6213    1.2991 N   0  0  0  0  0  0  0  0  0  0  0  0
   -5.1150    1.0205   -0.4257 H   0  0  0  0  0  0  0  0  0  0  0  0
   -3.8605    2.4336    1.2419 H   0  0  0  0  0  0  0  0  0  0  0  0
   -1.3351    2.3286    1.3634 H   0  0  0  0  0  0  0  0  0  0  0  0
  1  2  2  0  0  0  0
  1  6  1  0  0  0  0
  2  3  1  0  0  0  0
  3  4  2  0  0  0  0
  4 13  1  0  0  0  0
  5  4  1  0  0  0  0
  5 12  1  0  0  0  0
  6  5  2  0  0  0  0
  7  1  1  0  0  0  0
  8  2  1  0  0  0  0
  9 10  3  0  0  0  0
 11  6  1  0  0  0  0
M  RAD  1   3   2
M  END
