Coordinates from ORCA-job Ph-N2+-scan-d09-169-n800
 OpenBabel09191813423D

 13 12  0  0  0  0  0  0  0  0999 V2000
   -3.7837    0.1226   -1.2943 C   0  0  0  0  0  0  0  0  0  0  0  0
   -2.3480    0.0430   -1.2999 C   0  0  0  0  0  0  0  0  0  0  0  0
   -1.9757    0.8940   -0.3497 C   0  0  0  0  0  0  0  0  0  0  0  0
   -2.3485    1.7655    0.5815 C   0  0  0  0  0  0  0  0  0  0  0  0
   -3.7843    1.7667    0.5007 C   0  0  0  0  0  0  0  0  0  0  0  0
   -4.4678    0.9641   -0.4148 C   0  0  0  0  0  0  0  0  0  0  0  0
   -4.2958   -0.5136   -2.0201 H   0  0  0  0  0  0  0  0  0  0  0  0
   -1.7671   -0.5925   -1.9650 H   0  0  0  0  0  0  0  0  0  0  0  0
   11.3349    0.5579    1.4484 N   0  0  0  0  0  0  0  0  0  0  0  0
   12.4249    0.5556    1.6259 N   0  0  0  0  0  0  0  0  0  0  0  0
   -5.5572    0.9946   -0.4429 H   0  0  0  0  0  0  0  0  0  0  0  0
   -4.2969    2.4311    1.2003 H   0  0  0  0  0  0  0  0  0  0  0  0
   -1.7683    2.3689    1.2765 H   0  0  0  0  0  0  0  0  0  0  0  0
  1  6  1  0  0  0  0
  2  1  2  0  0  0  0
  2  3  1  0  0  0  0
  3  4  2  0  0  0  0
  4 13  1  0  0  0  0
  5  4  1  0  0  0  0
  5 12  1  0  0  0  0
  6  5  2  0  0  0  0
  7  1  1  0  0  0  0
  8  2  1  0  0  0  0
  9 10  3  0  0  0  0
 11  6  1  0  0  0  0
M  RAD  1   3   2
M  END
