Coordinates from ORCA-job Ph-N2+-scan-d09-169-n800
 OpenBabel09191813423D

 13 12  0  0  0  0  0  0  0  0999 V2000
   -4.0143    0.1264   -1.3213 C   0  0  0  0  0  0  0  0  0  0  0  0
   -2.5783    0.0526   -1.3344 C   0  0  0  0  0  0  0  0  0  0  0  0
   -2.2043    0.9052   -0.3864 C   0  0  0  0  0  0  0  0  0  0  0  0
   -2.5757    1.7755    0.5466 C   0  0  0  0  0  0  0  0  0  0  0  0
   -4.0118    1.7709    0.4735 C   0  0  0  0  0  0  0  0  0  0  0  0
   -4.6970    0.9654   -0.4382 C   0  0  0  0  0  0  0  0  0  0  0  0
   -4.5276   -0.5118   -2.0443 H   0  0  0  0  0  0  0  0  0  0  0  0
   -1.9983   -0.5808   -2.0025 H   0  0  0  0  0  0  0  0  0  0  0  0
   12.5944    0.5249    1.6090 N   0  0  0  0  0  0  0  0  0  0  0  0
   13.6837    0.5232    1.7912 N   0  0  0  0  0  0  0  0  0  0  0  0
   -5.7866    0.9916   -0.4607 H   0  0  0  0  0  0  0  0  0  0  0  0
   -4.5235    2.4334    1.1756 H   0  0  0  0  0  0  0  0  0  0  0  0
   -1.9943    2.3812    1.2385 H   0  0  0  0  0  0  0  0  0  0  0  0
  1  6  1  0  0  0  0
  2  1  2  0  0  0  0
  2  3  1  0  0  0  0
  3  4  2  0  0  0  0
  4 13  1  0  0  0  0
  5  4  1  0  0  0  0
  5 12  1  0  0  0  0
  6  5  2  0  0  0  0
  7  1  1  0  0  0  0
  8  2  1  0  0  0  0
  9 10  3  0  0  0  0
 11  6  1  0  0  0  0
M  RAD  1   3   2
M  END
