Coordinates from ORCA-job Ph-N2+-scan-d09-169-n800
 OpenBabel09191813423D

 13 12  0  0  0  0  0  0  0  0999 V2000
   -3.9854    0.1258   -1.3183 C   0  0  0  0  0  0  0  0  0  0  0  0
   -2.5494    0.0517   -1.3289 C   0  0  0  0  0  0  0  0  0  0  0  0
   -2.1770    0.9044   -0.3802 C   0  0  0  0  0  0  0  0  0  0  0  0
   -2.5498    1.7748    0.5520 C   0  0  0  0  0  0  0  0  0  0  0  0
   -3.9858    1.7705    0.4763 C   0  0  0  0  0  0  0  0  0  0  0  0
   -4.6695    0.9650   -0.4365 C   0  0  0  0  0  0  0  0  0  0  0  0
   -4.4976   -0.5124   -2.0421 H   0  0  0  0  0  0  0  0  0  0  0  0
   -1.9684   -0.5818   -1.9958 H   0  0  0  0  0  0  0  0  0  0  0  0
   12.4436    0.5280    1.5884 N   0  0  0  0  0  0  0  0  0  0  0  0
   13.5329    0.5265    1.7704 N   0  0  0  0  0  0  0  0  0  0  0  0
   -5.7591    0.9914   -0.4609 H   0  0  0  0  0  0  0  0  0  0  0  0
   -4.4986    2.4332    1.1775 H   0  0  0  0  0  0  0  0  0  0  0  0
   -1.9695    2.3805    1.2449 H   0  0  0  0  0  0  0  0  0  0  0  0
  1  6  1  0  0  0  0
  2  1  2  0  0  0  0
  2  3  1  0  0  0  0
  3  4  2  0  0  0  0
  4 13  1  0  0  0  0
  5  4  1  0  0  0  0
  5 12  1  0  0  0  0
  6  5  2  0  0  0  0
  7  1  1  0  0  0  0
  8  2  1  0  0  0  0
  9 10  3  0  0  0  0
 11  6  1  0  0  0  0
M  RAD  1   3   2
M  END
