Coordinates from ORCA-job Ph-N2+-scan-d09-169-n800
 OpenBabel09191813423D

 13 12  0  0  0  0  0  0  0  0999 V2000
   -3.0088    0.1131   -1.2051 C   0  0  0  0  0  0  0  0  0  0  0  0
   -1.5754    0.0017   -1.1838 C   0  0  0  0  0  0  0  0  0  0  0  0
   -1.2022    0.8428   -0.2252 C   0  0  0  0  0  0  0  0  0  0  0  0
   -1.5731    1.7210    0.7005 C   0  0  0  0  0  0  0  0  0  0  0  0
   -3.0066    1.7543    0.5927 C   0  0  0  0  0  0  0  0  0  0  0  0
   -3.6904    0.9685   -0.3371 C   0  0  0  0  0  0  0  0  0  0  0  0
   -3.5211   -0.5107   -1.9413 H   0  0  0  0  0  0  0  0  0  0  0  0
   -0.9962   -0.6454   -1.8392 H   0  0  0  0  0  0  0  0  0  0  0  0
    7.0675    0.6816    0.9136 N   0  0  0  0  0  0  0  0  0  0  0  0
    8.1612    0.6684    1.0660 N   0  0  0  0  0  0  0  0  0  0  0  0
   -4.7781    1.0232   -0.3856 H   0  0  0  0  0  0  0  0  0  0  0  0
   -3.5176    2.4286    1.2840 H   0  0  0  0  0  0  0  0  0  0  0  0
   -0.9928    2.3105    1.4072 H   0  0  0  0  0  0  0  0  0  0  0  0
  1  2  2  0  0  0  0
  1  6  1  0  0  0  0
  2  3  1  0  0  0  0
  3  4  2  0  0  0  0
  4 13  1  0  0  0  0
  5  4  1  0  0  0  0
  5 12  1  0  0  0  0
  6  5  2  0  0  0  0
  7  1  1  0  0  0  0
  8  2  1  0  0  0  0
  9 10  3  0  0  0  0
 11  6  1  0  0  0  0
M  RAD  1   3   2
M  END
