Coordinates from ORCA-job Ph-N2+-scan-d09-169-n800
 OpenBabel09191813423D

 13 13  0  0  0  0  0  0  0  0999 V2000
   -1.9536    0.0917   -1.0865 C   0  0  0  0  0  0  0  0  0  0  0  0
   -0.5623    0.0116   -0.9786 C   0  0  0  0  0  0  0  0  0  0  0  0
   -0.0178    0.8320   -0.0004 C   0  0  0  0  0  0  0  0  0  0  0  0
   -0.6608    1.7040    0.8672 C   0  0  0  0  0  0  0  0  0  0  0  0
   -2.0497    1.7452    0.7163 C   0  0  0  0  0  0  0  0  0  0  0  0
   -2.6830    0.9485   -0.2489 C   0  0  0  0  0  0  0  0  0  0  0  0
   -2.4643   -0.5192   -1.8297 H   0  0  0  0  0  0  0  0  0  0  0  0
    0.0399   -0.6382   -1.6095 H   0  0  0  0  0  0  0  0  0  0  0  0
    1.5746    0.7631    0.1495 N   0  0  0  0  0  0  0  0  0  0  0  0
    2.6747    0.7163    0.2548 N   0  0  0  0  0  0  0  0  0  0  0  0
   -3.7676    0.9952   -0.3493 H   0  0  0  0  0  0  0  0  0  0  0  0
   -2.6332    2.4033    1.3589 H   0  0  0  0  0  0  0  0  0  0  0  0
   -0.1305    2.3041    1.6031 H   0  0  0  0  0  0  0  0  0  0  0  0
  1  2  2  0  0  0  0
  1  6  1  0  0  0  0
  2  3  1  0  0  0  0
  3  9  1  0  0  0  0
  3  4  2  0  0  0  0
  4 13  1  0  0  0  0
  5  4  1  0  0  0  0
  5 12  1  0  0  0  0
  6  5  2  0  0  0  0
  7  1  1  0  0  0  0
  8  2  1  0  0  0  0
  9 10  1  0  0  0  0
 11  6  1  0  0  0  0
M  RAD  2   9   2  10   3
M  END
