Coordinates from ORCA-job Ph-N2+-scan-d09-169-n800
 OpenBabel09191813423D

 13 12  0  0  0  0  0  0  0  0999 V2000
   -2.8027    0.1109   -1.1798 C   0  0  0  0  0  0  0  0  0  0  0  0
   -1.3703   -0.0128   -1.1607 C   0  0  0  0  0  0  0  0  0  0  0  0
   -0.9886    0.8241   -0.2017 C   0  0  0  0  0  0  0  0  0  0  0  0
   -1.3506    1.7044    0.7255 C   0  0  0  0  0  0  0  0  0  0  0  0
   -2.7840    1.7500    0.6199 C   0  0  0  0  0  0  0  0  0  0  0  0
   -3.4758    0.9711   -0.3099 C   0  0  0  0  0  0  0  0  0  0  0  0
   -3.3213   -0.5078   -1.9158 H   0  0  0  0  0  0  0  0  0  0  0  0
   -0.7974   -0.6640   -1.8175 H   0  0  0  0  0  0  0  0  0  0  0  0
    5.8894    0.7227    0.7733 N   0  0  0  0  0  0  0  0  0  0  0  0
    6.9831    0.7080    0.9257 N   0  0  0  0  0  0  0  0  0  0  0  0
   -4.5630    1.0351   -0.3567 H   0  0  0  0  0  0  0  0  0  0  0  0
   -3.2882    2.4277    1.3126 H   0  0  0  0  0  0  0  0  0  0  0  0
   -0.7642    2.2882    1.4319 H   0  0  0  0  0  0  0  0  0  0  0  0
  1  2  2  0  0  0  0
  1  6  1  0  0  0  0
  2  3  1  0  0  0  0
  3  4  2  0  0  0  0
  4 13  1  0  0  0  0
  5  4  1  0  0  0  0
  5 12  1  0  0  0  0
  6  5  2  0  0  0  0
  7  1  1  0  0  0  0
  8  2  1  0  0  0  0
  9 10  3  0  0  0  0
 11  6  1  0  0  0  0
M  RAD  1   3   2
M  END
