Coordinates from ORCA-job Ph-N2+-scan-d09-169-n800
 OpenBabel09191813423D

 13 12  0  0  0  0  0  0  0  0999 V2000
   -2.8959    0.1117   -1.1912 C   0  0  0  0  0  0  0  0  0  0  0  0
   -1.4629   -0.0052   -1.1705 C   0  0  0  0  0  0  0  0  0  0  0  0
   -1.0863    0.8340   -0.2115 C   0  0  0  0  0  0  0  0  0  0  0  0
   -1.4535    1.7132    0.7146 C   0  0  0  0  0  0  0  0  0  0  0  0
   -2.8869    1.7520    0.6073 C   0  0  0  0  0  0  0  0  0  0  0  0
   -3.5740    0.9692   -0.3226 C   0  0  0  0  0  0  0  0  0  0  0  0
   -3.4107   -0.5099   -1.9276 H   0  0  0  0  0  0  0  0  0  0  0  0
   -0.8863   -0.6542   -1.8263 H   0  0  0  0  0  0  0  0  0  0  0  0
    6.4282    0.7029    0.8364 N   0  0  0  0  0  0  0  0  0  0  0  0
    7.5219    0.6879    0.9884 N   0  0  0  0  0  0  0  0  0  0  0  0
   -4.6615    1.0281   -0.3707 H   0  0  0  0  0  0  0  0  0  0  0  0
   -3.3951    2.4278    1.2991 H   0  0  0  0  0  0  0  0  0  0  0  0
   -0.8708    2.3002    1.4214 H   0  0  0  0  0  0  0  0  0  0  0  0
  1  2  2  0  0  0  0
  1  6  1  0  0  0  0
  2  3  1  0  0  0  0
  3  4  2  0  0  0  0
  4 13  1  0  0  0  0
  5  4  1  0  0  0  0
  5 12  1  0  0  0  0
  6  5  2  0  0  0  0
  7  1  1  0  0  0  0
  8  2  1  0  0  0  0
  9 10  3  0  0  0  0
 11  6  1  0  0  0  0
M  RAD  1   3   2
M  END
