Coordinates from ORCA-job Ph-N2+-scan-d09-169-n800
 OpenBabel09191813423D

 13 12  0  0  0  0  0  0  0  0999 V2000
   -3.0418    0.1137   -1.2091 C   0  0  0  0  0  0  0  0  0  0  0  0
   -1.6083    0.0033   -1.1879 C   0  0  0  0  0  0  0  0  0  0  0  0
   -1.2358    0.8448   -0.2294 C   0  0  0  0  0  0  0  0  0  0  0  0
   -1.6073    1.7228    0.6962 C   0  0  0  0  0  0  0  0  0  0  0  0
   -3.0409    1.7550    0.5885 C   0  0  0  0  0  0  0  0  0  0  0  0
   -3.7241    0.9686   -0.3412 C   0  0  0  0  0  0  0  0  0  0  0  0
   -3.5537   -0.5106   -1.9453 H   0  0  0  0  0  0  0  0  0  0  0  0
   -1.0287   -0.6434   -1.8433 H   0  0  0  0  0  0  0  0  0  0  0  0
    7.2525    0.6759    0.9362 N   0  0  0  0  0  0  0  0  0  0  0  0
    8.3461    0.6634    1.0890 N   0  0  0  0  0  0  0  0  0  0  0  0
   -4.8118    1.0224   -0.3896 H   0  0  0  0  0  0  0  0  0  0  0  0
   -3.5523    2.4290    1.2797 H   0  0  0  0  0  0  0  0  0  0  0  0
   -1.0274    2.3128    1.4029 H   0  0  0  0  0  0  0  0  0  0  0  0
  1  2  2  0  0  0  0
  1  6  1  0  0  0  0
  2  3  1  0  0  0  0
  3  4  2  0  0  0  0
  4 13  1  0  0  0  0
  5  4  1  0  0  0  0
  5 12  1  0  0  0  0
  6  5  2  0  0  0  0
  7  1  1  0  0  0  0
  8  2  1  0  0  0  0
  9 10  3  0  0  0  0
 11  6  1  0  0  0  0
M  RAD  1   3   2
M  END
