Coordinates from ORCA-job Ph-N2+-scan-d09-169-n800
 OpenBabel09191813423D

 13 12  0  0  0  0  0  0  0  0999 V2000
   -2.2932    0.1058   -1.1170 C   0  0  0  0  0  0  0  0  0  0  0  0
   -0.8617   -0.0088   -1.0560 C   0  0  0  0  0  0  0  0  0  0  0  0
   -0.5122    0.8317   -0.0879 C   0  0  0  0  0  0  0  0  0  0  0  0
   -0.9079    1.7113    0.8263 C   0  0  0  0  0  0  0  0  0  0  0  0
   -2.3372    1.7479    0.6796 C   0  0  0  0  0  0  0  0  0  0  0  0
   -2.9969    0.9631   -0.2685 C   0  0  0  0  0  0  0  0  0  0  0  0
   -2.7874   -0.5168   -1.8663 H   0  0  0  0  0  0  0  0  0  0  0  0
   -0.2651   -0.6569   -1.6942 H   0  0  0  0  0  0  0  0  0  0  0  0
    3.2625    0.7346    0.3702 N   0  0  0  0  0  0  0  0  0  0  0  0
    4.3578    0.7033    0.5043 N   0  0  0  0  0  0  0  0  0  0  0  0
   -4.0826    1.0199   -0.3468 H   0  0  0  0  0  0  0  0  0  0  0  0
   -2.8661    2.4234    1.3559 H   0  0  0  0  0  0  0  0  0  0  0  0
   -0.3437    2.2990    1.5472 H   0  0  0  0  0  0  0  0  0  0  0  0
  1  2  2  0  0  0  0
  1  6  1  0  0  0  0
  2  3  1  0  0  0  0
  3  4  2  0  0  0  0
  4 13  1  0  0  0  0
  5  4  1  0  0  0  0
  5 12  1  0  0  0  0
  6  5  2  0  0  0  0
  7  1  1  0  0  0  0
  8  2  1  0  0  0  0
  9 10  3  0  0  0  0
 11  6  1  0  0  0  0
M  RAD  1   3   2
M  END
