Coordinates from ORCA-job Ph-N2+-scan-d09-169-n800
 OpenBabel09191813423D

 13 12  0  0  0  0  0  0  0  0999 V2000
   -2.0699    0.1008   -1.0928 C   0  0  0  0  0  0  0  0  0  0  0  0
   -0.6464    0.0020   -1.0011 C   0  0  0  0  0  0  0  0  0  0  0  0
   -0.2850    0.8427   -0.0269 C   0  0  0  0  0  0  0  0  0  0  0  0
   -0.7445    1.7194    0.8716 C   0  0  0  0  0  0  0  0  0  0  0  0
   -2.1638    1.7458    0.7007 C   0  0  0  0  0  0  0  0  0  0  0  0
   -2.7981    0.9535   -0.2594 C   0  0  0  0  0  0  0  0  0  0  0  0
   -2.5512   -0.5241   -1.8476 H   0  0  0  0  0  0  0  0  0  0  0  0
   -0.0352   -0.6430   -1.6266 H   0  0  0  0  0  0  0  0  0  0  0  0
    2.1835    0.7364    0.2080 N   0  0  0  0  0  0  0  0  0  0  0  0
    3.2805    0.6943    0.3168 N   0  0  0  0  0  0  0  0  0  0  0  0
   -3.8824    1.0004   -0.3591 H   0  0  0  0  0  0  0  0  0  0  0  0
   -2.7183    2.4155    1.3610 H   0  0  0  0  0  0  0  0  0  0  0  0
   -0.2028    2.3140    1.6021 H   0  0  0  0  0  0  0  0  0  0  0  0
  1  2  2  0  0  0  0
  1  6  1  0  0  0  0
  2  3  1  0  0  0  0
  3  4  2  0  0  0  0
  4 13  1  0  0  0  0
  5  4  1  0  0  0  0
  5 12  1  0  0  0  0
  6  5  2  0  0  0  0
  7  1  1  0  0  0  0
  8  2  1  0  0  0  0
  9 10  3  0  0  0  0
 11  6  1  0  0  0  0
M  RAD  1   3   2
M  END
