Coordinates from ORCA-job Ph-N2+-scan-d09-169-n800
 OpenBabel09191813423D

 13 12  0  0  0  0  0  0  0  0999 V2000
   -3.4672    0.1190   -1.2578 C   0  0  0  0  0  0  0  0  0  0  0  0
   -2.0324    0.0253   -1.2526 C   0  0  0  0  0  0  0  0  0  0  0  0
   -1.6589    0.8720   -0.2990 C   0  0  0  0  0  0  0  0  0  0  0  0
   -2.0302    1.7464    0.6301 C   0  0  0  0  0  0  0  0  0  0  0  0
   -3.4652    1.7617    0.5386 C   0  0  0  0  0  0  0  0  0  0  0  0
   -4.1496    0.9665   -0.3828 C   0  0  0  0  0  0  0  0  0  0  0  0
   -3.9800   -0.5117   -1.9878 H   0  0  0  0  0  0  0  0  0  0  0  0
   -1.4527   -0.6153   -1.9139 H   0  0  0  0  0  0  0  0  0  0  0  0
    9.5875    0.6088    1.2312 N   0  0  0  0  0  0  0  0  0  0  0  0
   10.6796    0.6034    1.3950 N   0  0  0  0  0  0  0  0  0  0  0  0
   -5.2384    1.0077   -0.4190 H   0  0  0  0  0  0  0  0  0  0  0  0
   -3.9766    2.4304    1.2349 H   0  0  0  0  0  0  0  0  0  0  0  0
   -1.4494    2.3436    1.3299 H   0  0  0  0  0  0  0  0  0  0  0  0
  1  2  2  0  0  0  0
  1  6  1  0  0  0  0
  2  3  1  0  0  0  0
  3  4  2  0  0  0  0
  4 13  1  0  0  0  0
  5  4  1  0  0  0  0
  5 12  1  0  0  0  0
  6  5  2  0  0  0  0
  7  1  1  0  0  0  0
  8  2  1  0  0  0  0
  9 10  3  0  0  0  0
 11  6  1  0  0  0  0
M  RAD  1   3   2
M  END
