Coordinates from ORCA-job Ph-N2+-scan-d09-169-n800
 OpenBabel09191813423D

 13 12  0  0  0  0  0  0  0  0999 V2000
   -2.9164    0.1119   -1.1938 C   0  0  0  0  0  0  0  0  0  0  0  0
   -1.4833   -0.0037   -1.1727 C   0  0  0  0  0  0  0  0  0  0  0  0
   -1.1076    0.8360   -0.2138 C   0  0  0  0  0  0  0  0  0  0  0  0
   -1.4759    1.7150    0.7122 C   0  0  0  0  0  0  0  0  0  0  0  0
   -2.9093    1.7524    0.6046 C   0  0  0  0  0  0  0  0  0  0  0  0
   -3.5955    0.9689   -0.3254 C   0  0  0  0  0  0  0  0  0  0  0  0
   -3.4306   -0.5102   -1.9301 H   0  0  0  0  0  0  0  0  0  0  0  0
   -0.9060   -0.6522   -1.8284 H   0  0  0  0  0  0  0  0  0  0  0  0
    6.5460    0.6987    0.8504 N   0  0  0  0  0  0  0  0  0  0  0  0
    7.6398    0.6838    1.0022 N   0  0  0  0  0  0  0  0  0  0  0  0
   -4.6830    1.0268   -0.3737 H   0  0  0  0  0  0  0  0  0  0  0  0
   -3.4182    2.4279    1.2962 H   0  0  0  0  0  0  0  0  0  0  0  0
   -0.8938    2.3025    1.4190 H   0  0  0  0  0  0  0  0  0  0  0  0
  1  2  2  0  0  0  0
  1  6  1  0  0  0  0
  2  3  1  0  0  0  0
  3  4  2  0  0  0  0
  4 13  1  0  0  0  0
  5  4  1  0  0  0  0
  5 12  1  0  0  0  0
  6  5  2  0  0  0  0
  7  1  1  0  0  0  0
  8  2  1  0  0  0  0
  9 10  3  0  0  0  0
 11  6  1  0  0  0  0
M  RAD  1   3   2
M  END
