Coordinates from ORCA-job Ph-N2+-scan-d09-169-n800
 OpenBabel09191813423D

 13 12  0  0  0  0  0  0  0  0999 V2000
   -2.5358    0.1089   -1.1470 C   0  0  0  0  0  0  0  0  0  0  0  0
   -1.1051   -0.0332   -1.1305 C   0  0  0  0  0  0  0  0  0  0  0  0
   -0.7112    0.7971   -0.1707 C   0  0  0  0  0  0  0  0  0  0  0  0
   -1.0603    1.6805    0.7584 C   0  0  0  0  0  0  0  0  0  0  0  0
   -2.4930    1.7446    0.6553 C   0  0  0  0  0  0  0  0  0  0  0  0
   -3.1963    0.9763   -0.2746 C   0  0  0  0  0  0  0  0  0  0  0  0
   -3.0636   -0.5020   -1.8831 H   0  0  0  0  0  0  0  0  0  0  0  0
   -0.5410   -0.6904   -1.7889 H   0  0  0  0  0  0  0  0  0  0  0  0
    4.3568    0.7794    0.5931 N   0  0  0  0  0  0  0  0  0  0  0  0
    5.4510    0.7589    0.7399 N   0  0  0  0  0  0  0  0  0  0  0  0
   -4.2827    1.0545   -0.3196 H   0  0  0  0  0  0  0  0  0  0  0  0
   -2.9877    2.4275    1.3499 H   0  0  0  0  0  0  0  0  0  0  0  0
   -0.4648    2.2555    1.4645 H   0  0  0  0  0  0  0  0  0  0  0  0
  1  2  2  0  0  0  0
  1  6  1  0  0  0  0
  2  3  1  0  0  0  0
  3  4  2  0  0  0  0
  4 13  1  0  0  0  0
  5  4  1  0  0  0  0
  5 12  1  0  0  0  0
  6  5  2  0  0  0  0
  7  1  1  0  0  0  0
  8  2  1  0  0  0  0
  9 10  3  0  0  0  0
 11  6  1  0  0  0  0
M  RAD  1   3   2
M  END
