Coordinates from ORCA-job Ph-N2+-scan-d09-169-n800
 OpenBabel09191813423D

 13 12  0  0  0  0  0  0  0  0999 V2000
   -3.6396    0.1206   -1.2778 C   0  0  0  0  0  0  0  0  0  0  0  0
   -2.2042    0.0358   -1.2777 C   0  0  0  0  0  0  0  0  0  0  0  0
   -1.8325    0.8853   -0.3259 C   0  0  0  0  0  0  0  0  0  0  0  0
   -2.2059    1.7579    0.6041 C   0  0  0  0  0  0  0  0  0  0  0  0
   -3.6413    1.7644    0.5176 C   0  0  0  0  0  0  0  0  0  0  0  0
   -4.3241    0.9645   -0.4008 C   0  0  0  0  0  0  0  0  0  0  0  0
   -4.1511   -0.5135   -2.0057 H   0  0  0  0  0  0  0  0  0  0  0  0
   -1.6229   -0.6017   -1.9406 H   0  0  0  0  0  0  0  0  0  0  0  0
   10.5455    0.5795    1.3485 N   0  0  0  0  0  0  0  0  0  0  0  0
   11.6362    0.5764    1.5212 N   0  0  0  0  0  0  0  0  0  0  0  0
   -5.4132    0.9990   -0.4332 H   0  0  0  0  0  0  0  0  0  0  0  0
   -4.1543    2.4304    1.2154 H   0  0  0  0  0  0  0  0  0  0  0  0
   -1.6263    2.3590    1.3015 H   0  0  0  0  0  0  0  0  0  0  0  0
  1  2  2  0  0  0  0
  1  6  1  0  0  0  0
  2  3  1  0  0  0  0
  3  4  2  0  0  0  0
  4 13  1  0  0  0  0
  5  4  1  0  0  0  0
  5 12  1  0  0  0  0
  6  5  2  0  0  0  0
  7  1  1  0  0  0  0
  8  2  1  0  0  0  0
  9 10  3  0  0  0  0
 11  6  1  0  0  0  0
M  RAD  1   3   2
M  END
