Coordinates from ORCA-job Ph-N2+-scan-d09-169-n800
 OpenBabel09191813423D

 13 12  0  0  0  0  0  0  0  0999 V2000
   -3.8851    0.1242   -1.3061 C   0  0  0  0  0  0  0  0  0  0  0  0
   -2.4492    0.0474   -1.3152 C   0  0  0  0  0  0  0  0  0  0  0  0
   -2.0763    0.8992   -0.3659 C   0  0  0  0  0  0  0  0  0  0  0  0
   -2.4486    1.7701    0.5661 C   0  0  0  0  0  0  0  0  0  0  0  0
   -3.8845    1.7685    0.4888 C   0  0  0  0  0  0  0  0  0  0  0  0
   -4.5687    0.9644   -0.4250 C   0  0  0  0  0  0  0  0  0  0  0  0
   -4.3977   -0.5130   -2.0306 H   0  0  0  0  0  0  0  0  0  0  0  0
   -1.8687   -0.5871   -1.9816 H   0  0  0  0  0  0  0  0  0  0  0  0
   11.8891    0.5432    1.5188 N   0  0  0  0  0  0  0  0  0  0  0  0
   12.9787    0.5412    1.6989 N   0  0  0  0  0  0  0  0  0  0  0  0
   -5.6581    0.9929   -0.4505 H   0  0  0  0  0  0  0  0  0  0  0  0
   -4.3968    2.4320    1.1895 H   0  0  0  0  0  0  0  0  0  0  0  0
   -1.8679    2.3747    1.2596 H   0  0  0  0  0  0  0  0  0  0  0  0
  1  6  1  0  0  0  0
  2  1  2  0  0  0  0
  2  3  1  0  0  0  0
  3  4  2  0  0  0  0
  4 13  1  0  0  0  0
  5  4  1  0  0  0  0
  5 12  1  0  0  0  0
  6  5  2  0  0  0  0
  7  1  1  0  0  0  0
  8  2  1  0  0  0  0
  9 10  3  0  0  0  0
 11  6  1  0  0  0  0
M  RAD  1   3   2
M  END
