Coordinates from ORCA-job Ph-N2+-scan-d09-169-n800
 OpenBabel09191813423D

 13 12  0  0  0  0  0  0  0  0999 V2000
   -3.7317    0.1218   -1.2883 C   0  0  0  0  0  0  0  0  0  0  0  0
   -2.2961    0.0404   -1.2921 C   0  0  0  0  0  0  0  0  0  0  0  0
   -1.9239    0.8909   -0.3413 C   0  0  0  0  0  0  0  0  0  0  0  0
   -2.2968    1.7628    0.5895 C   0  0  0  0  0  0  0  0  0  0  0  0
   -3.7324    1.7658    0.5069 C   0  0  0  0  0  0  0  0  0  0  0  0
   -4.4158    0.9642   -0.4095 C   0  0  0  0  0  0  0  0  0  0  0  0
   -4.2437   -0.5136   -2.0147 H   0  0  0  0  0  0  0  0  0  0  0  0
   -1.7152   -0.5957   -1.9565 H   0  0  0  0  0  0  0  0  0  0  0  0
   11.0493    0.5657    1.4123 N   0  0  0  0  0  0  0  0  0  0  0  0
   12.1396    0.5632    1.5883 N   0  0  0  0  0  0  0  0  0  0  0  0
   -5.5051    0.9961   -0.4390 H   0  0  0  0  0  0  0  0  0  0  0  0
   -4.2451    2.4308    1.2059 H   0  0  0  0  0  0  0  0  0  0  0  0
   -1.7167    2.3654    1.2853 H   0  0  0  0  0  0  0  0  0  0  0  0
  1  6  1  0  0  0  0
  2  1  2  0  0  0  0
  2  3  1  0  0  0  0
  3  4  2  0  0  0  0
  4 13  1  0  0  0  0
  5  4  1  0  0  0  0
  5 12  1  0  0  0  0
  6  5  2  0  0  0  0
  7  1  1  0  0  0  0
  8  2  1  0  0  0  0
  9 10  3  0  0  0  0
 11  6  1  0  0  0  0
M  RAD  1   3   2
M  END
