Coordinates from ORCA-job Ph-N2+-scan-d09-169-n800
 OpenBabel09191813423D

 13 12  0  0  0  0  0  0  0  0999 V2000
   -2.7706    0.1106   -1.1758 C   0  0  0  0  0  0  0  0  0  0  0  0
   -1.3384   -0.0153   -1.1573 C   0  0  0  0  0  0  0  0  0  0  0  0
   -0.9551    0.8207   -0.1982 C   0  0  0  0  0  0  0  0  0  0  0  0
   -1.3154    1.7014    0.7293 C   0  0  0  0  0  0  0  0  0  0  0  0
   -2.7486    1.7493    0.6241 C   0  0  0  0  0  0  0  0  0  0  0  0
   -3.4420    0.9717   -0.3055 C   0  0  0  0  0  0  0  0  0  0  0  0
   -3.2904   -0.5071   -1.9119 H   0  0  0  0  0  0  0  0  0  0  0  0
   -0.7666   -0.6673   -1.8144 H   0  0  0  0  0  0  0  0  0  0  0  0
    5.7041    0.7300    0.7521 N   0  0  0  0  0  0  0  0  0  0  0  0
    6.7979    0.7143    0.9034 N   0  0  0  0  0  0  0  0  0  0  0  0
   -4.5291    1.0375   -0.3520 H   0  0  0  0  0  0  0  0  0  0  0  0
   -3.2516    2.4277    1.3172 H   0  0  0  0  0  0  0  0  0  0  0  0
   -0.7278    2.2841    1.4356 H   0  0  0  0  0  0  0  0  0  0  0  0
  1  2  2  0  0  0  0
  1  6  1  0  0  0  0
  2  3  1  0  0  0  0
  3  4  2  0  0  0  0
  4 13  1  0  0  0  0
  5  4  1  0  0  0  0
  5 12  1  0  0  0  0
  6  5  2  0  0  0  0
  7  1  1  0  0  0  0
  8  2  1  0  0  0  0
  9 10  3  0  0  0  0
 11  6  1  0  0  0  0
M  RAD  1   3   2
M  END
