Coordinates from ORCA-job Ph-N2+-scan-d09-169-n800
 OpenBabel09191813423D

 13 12  0  0  0  0  0  0  0  0999 V2000
   -4.0941    0.1280   -1.3309 C   0  0  0  0  0  0  0  0  0  0  0  0
   -2.6581    0.0555   -1.3459 C   0  0  0  0  0  0  0  0  0  0  0  0
   -2.2837    0.9086   -0.3983 C   0  0  0  0  0  0  0  0  0  0  0  0
   -2.6546    1.7785    0.5352 C   0  0  0  0  0  0  0  0  0  0  0  0
   -4.0908    1.7725    0.4638 C   0  0  0  0  0  0  0  0  0  0  0  0
   -4.7764    0.9662   -0.4469 C   0  0  0  0  0  0  0  0  0  0  0  0
   -4.6078   -0.5108   -2.0531 H   0  0  0  0  0  0  0  0  0  0  0  0
   -2.0783   -0.5773   -2.0146 H   0  0  0  0  0  0  0  0  0  0  0  0
   13.0311    0.5136    1.6645 N   0  0  0  0  0  0  0  0  0  0  0  0
   14.1202    0.5122    1.8480 N   0  0  0  0  0  0  0  0  0  0  0  0
   -5.8661    0.9915   -0.4679 H   0  0  0  0  0  0  0  0  0  0  0  0
   -4.6022    2.4345    1.1666 H   0  0  0  0  0  0  0  0  0  0  0  0
   -2.0728    2.3847    1.2263 H   0  0  0  0  0  0  0  0  0  0  0  0
  1  6  1  0  0  0  0
  2  1  2  0  0  0  0
  2  3  1  0  0  0  0
  3  4  2  0  0  0  0
  4 13  1  0  0  0  0
  5  4  1  0  0  0  0
  5 12  1  0  0  0  0
  6  5  2  0  0  0  0
  7  1  1  0  0  0  0
  8  2  1  0  0  0  0
  9 10  3  0  0  0  0
 11  6  1  0  0  0  0
M  RAD  1   3   2
M  END
