Coordinates from ORCA-job Ph-N2+-scan-d09-169-n800
 OpenBabel09191813423D

 13 12  0  0  0  0  0  0  0  0999 V2000
   -2.6897    0.1101   -1.1659 C   0  0  0  0  0  0  0  0  0  0  0  0
   -1.2581   -0.0226   -1.1491 C   0  0  0  0  0  0  0  0  0  0  0  0
   -0.8697    0.8109   -0.1900 C   0  0  0  0  0  0  0  0  0  0  0  0
   -1.2246    1.6928    0.7384 C   0  0  0  0  0  0  0  0  0  0  0  0
   -2.6578    1.7475    0.6350 C   0  0  0  0  0  0  0  0  0  0  0  0
   -3.3560    0.9738   -0.2943 C   0  0  0  0  0  0  0  0  0  0  0  0
   -3.2133   -0.5048   -1.9017 H   0  0  0  0  0  0  0  0  0  0  0  0
   -0.6900   -0.6768   -1.8072 H   0  0  0  0  0  0  0  0  0  0  0  0
    5.2322    0.7500    0.6992 N   0  0  0  0  0  0  0  0  0  0  0  0
    6.3262    0.7319    0.8481 N   0  0  0  0  0  0  0  0  0  0  0  0
   -4.4428    1.0448   -0.3394 H   0  0  0  0  0  0  0  0  0  0  0  0
   -3.1568    2.4277    1.3292 H   0  0  0  0  0  0  0  0  0  0  0  0
   -0.6334    2.2723    1.4444 H   0  0  0  0  0  0  0  0  0  0  0  0
  1  2  2  0  0  0  0
  1  6  1  0  0  0  0
  2  3  1  0  0  0  0
  3  4  2  0  0  0  0
  4 13  1  0  0  0  0
  5  4  1  0  0  0  0
  5 12  1  0  0  0  0
  6  5  2  0  0  0  0
  7  1  1  0  0  0  0
  8  2  1  0  0  0  0
  9 10  3  0  0  0  0
 11  6  1  0  0  0  0
M  RAD  1   3   2
M  END
