Coordinates from ORCA-job Ph-N2+-scan-d09-169-n800
 OpenBabel09191813423D

 13 12  0  0  0  0  0  0  0  0999 V2000
   -2.6211    0.1098   -1.1575 C   0  0  0  0  0  0  0  0  0  0  0  0
   -1.1901   -0.0296   -1.1429 C   0  0  0  0  0  0  0  0  0  0  0  0
   -0.7964    0.8015   -0.1837 C   0  0  0  0  0  0  0  0  0  0  0  0
   -1.1459    1.6845    0.7457 C   0  0  0  0  0  0  0  0  0  0  0  0
   -2.5789    1.7459    0.6445 C   0  0  0  0  0  0  0  0  0  0  0  0
   -3.2821    0.9761   -0.2843 C   0  0  0  0  0  0  0  0  0  0  0  0
   -3.1486   -0.5022   -1.8928 H   0  0  0  0  0  0  0  0  0  0  0  0
   -0.6259   -0.6859   -1.8021 H   0  0  0  0  0  0  0  0  0  0  0  0
    4.8274    0.7678    0.6543 N   0  0  0  0  0  0  0  0  0  0  0  0
    5.9214    0.7489    0.8026 N   0  0  0  0  0  0  0  0  0  0  0  0
   -4.3686    1.0522   -0.3278 H   0  0  0  0  0  0  0  0  0  0  0  0
   -3.0739    2.4279    1.3397 H   0  0  0  0  0  0  0  0  0  0  0  0
   -0.5509    2.2607    1.4510 H   0  0  0  0  0  0  0  0  0  0  0  0
  1  2  2  0  0  0  0
  1  6  1  0  0  0  0
  2  3  1  0  0  0  0
  3  4  2  0  0  0  0
  4 13  1  0  0  0  0
  5  4  1  0  0  0  0
  5 12  1  0  0  0  0
  6  5  2  0  0  0  0
  7  1  1  0  0  0  0
  8  2  1  0  0  0  0
  9 10  3  0  0  0  0
 11  6  1  0  0  0  0
M  RAD  1   3   2
M  END
