Coordinates from ORCA-job Ph-N2+-scan-d09-169-n800
 OpenBabel09191813423D

 13 12  0  0  0  0  0  0  0  0999 V2000
   -2.1089    0.1024   -1.0963 C   0  0  0  0  0  0  0  0  0  0  0  0
   -0.6817    0.0017   -1.0067 C   0  0  0  0  0  0  0  0  0  0  0  0
   -0.3388    0.8443   -0.0331 C   0  0  0  0  0  0  0  0  0  0  0  0
   -0.7784    1.7214    0.8687 C   0  0  0  0  0  0  0  0  0  0  0  0
   -2.2012    1.7471    0.6967 C   0  0  0  0  0  0  0  0  0  0  0  0
   -2.8362    0.9551   -0.2627 C   0  0  0  0  0  0  0  0  0  0  0  0
   -2.5872   -0.5238   -1.8523 H   0  0  0  0  0  0  0  0  0  0  0  0
   -0.0691   -0.6427   -1.6320 H   0  0  0  0  0  0  0  0  0  0  0  0
    2.3885    0.7281    0.2294 N   0  0  0  0  0  0  0  0  0  0  0  0
    3.4857    0.6882    0.3391 N   0  0  0  0  0  0  0  0  0  0  0  0
   -3.9205    1.0024   -0.3618 H   0  0  0  0  0  0  0  0  0  0  0  0
   -2.7519    2.4182    1.3594 H   0  0  0  0  0  0  0  0  0  0  0  0
   -0.2340    2.3154    1.5983 H   0  0  0  0  0  0  0  0  0  0  0  0
  1  2  2  0  0  0  0
  1  6  1  0  0  0  0
  2  3  1  0  0  0  0
  3  4  2  0  0  0  0
  4 13  1  0  0  0  0
  5  4  1  0  0  0  0
  5 12  1  0  0  0  0
  6  5  2  0  0  0  0
  7  1  1  0  0  0  0
  8  2  1  0  0  0  0
  9 10  3  0  0  0  0
 11  6  1  0  0  0  0
M  RAD  1   3   2
M  END
