Coordinates from ORCA-job C6H6+HOTf+NH2--N2+-scan
 OpenBabel10191813343D

 26 24  0  0  1  0  0  0  0  0999 V2000
    2.6482   -5.0085   -1.5642 N   0  0  0  0  0  0  0  0  0  0  0  0
    3.5374   -5.3396   -2.1168 N   0  0  0  0  0  0  0  0  0  0  0  0
    1.5683   -3.1824   -1.8592 N   0  0  0  0  0  0  0  0  0  0  0  0
    0.7973   -3.8420   -1.8054 H   0  0  0  0  0  0  0  0  0  0  0  0
    3.1619   -0.7406    2.8817 H   0  0  0  0  0  0  0  0  0  0  0  0
   -1.1561   -0.7422   -2.5130 C   0  0  0  0  0  0  0  0  0  0  0  0
   -1.0368   -0.7128   -3.9141 C   0  0  0  0  0  0  0  0  0  0  0  0
    0.0690   -1.2625   -4.6000 C   0  0  0  0  0  0  0  0  0  0  0  0
    1.0553   -1.8804   -3.8841 C   0  0  0  0  0  0  0  0  0  0  0  0
    1.0484   -1.8933   -2.4052 C   0  0  1  0  0  0  0  0  0  0  0  0
   -0.1547   -1.3120   -1.7671 C   0  0  0  0  0  0  0  0  0  0  0  0
   -2.0343   -0.3225   -2.0375 H   0  0  0  0  0  0  0  0  0  0  0  0
   -1.8338   -0.2584   -4.4954 H   0  0  0  0  0  0  0  0  0  0  0  0
    0.1017   -1.2279   -5.6820 H   0  0  0  0  0  0  0  0  0  0  0  0
    1.8955   -2.3671   -4.3681 H   0  0  0  0  0  0  0  0  0  0  0  0
    1.8399   -1.1395   -2.1696 H   0  0  0  0  0  0  0  0  0  0  0  0
   -0.2035   -1.3259   -0.6812 H   0  0  0  0  0  0  0  0  0  0  0  0
    1.5096   -1.8026    1.9866 S   0  0  0  0  0  0  0  0  0  0  0  0
    0.2298   -1.3152    1.5221 O   0  0  0  0  0  0  0  0  0  0  0  0
    2.4637   -2.3881    1.0556 O   0  0  0  0  0  0  0  0  0  0  0  0
    2.2026   -0.6021    2.8039 O   0  0  0  0  0  0  0  0  0  0  0  0
    1.2061   -3.0520    3.3752 C   0  0  0  0  0  0  0  0  0  0  0  0
    2.3680   -3.3078    3.9623 F   0  0  0  0  0  0  0  0  0  0  0  0
    0.3509   -2.5447    4.2394 F   0  0  0  0  0  0  0  0  0  0  0  0
    0.7162   -4.1514    2.8235 F   0  0  0  0  0  0  0  0  0  0  0  0
    1.8987   -3.0305   -0.9072 H   0  0  0  0  0  0  0  0  0  0  0  0
  2  1  3  0  0  0  0
  3  4  1  0  0  0  0
  3 26  1  0  0  0  0
  6 12  1  0  0  0  0
  6 11  2  0  0  0  0
  7  6  1  0  0  0  0
  8  7  1  0  0  0  0
  8  9  2  0  0  0  0
  9 10  1  0  0  0  0
 10 16  1  1  0  0  0
 10  3  1  0  0  0  0
 10 11  1  0  0  0  0
 11 17  1  0  0  0  0
 13  7  1  0  0  0  0
 14  8  1  0  0  0  0
 15  9  1  0  0  0  0
 18 21  1  0  0  0  0
 18 22  1  0  0  0  0
 19 18  2  0  0  0  0
 20 18  2  0  0  0  0
 21  5  1  0  0  0  0
 22 23  1  0  0  0  0
 22 24  1  0  0  0  0
 25 22  1  0  0  0  0
M  RAD  1   7   2
M  END
