Coordinates from ORCA-job C6H6+HOTf+NH2--N2+-scan
 OpenBabel10191813343D

 26 24  0  0  1  0  0  0  0  0999 V2000
    1.6372   -5.8745   -1.9762 N   0  0  0  0  0  0  0  0  0  0  0  0
    1.8541   -6.9479   -1.9666 N   0  0  0  0  0  0  0  0  0  0  0  0
    2.1139   -2.6776   -1.8763 N   0  0  0  0  0  0  0  0  0  0  0  0
    1.7498   -3.6215   -1.9401 H   0  0  0  0  0  0  0  0  0  0  0  0
    2.6723   -0.1585    3.0616 H   0  0  0  0  0  0  0  0  0  0  0  0
   -1.2287   -1.0941   -2.5153 C   0  0  0  0  0  0  0  0  0  0  0  0
   -1.0870   -0.9208   -3.9051 C   0  0  0  0  0  0  0  0  0  0  0  0
    0.1248   -1.1556   -4.5823 C   0  0  0  0  0  0  0  0  0  0  0  0
    1.2152   -1.5867   -3.8718 C   0  0  0  0  0  0  0  0  0  0  0  0
    1.1788   -1.7102   -2.4007 C   0  0  1  0  0  0  0  0  0  0  0  0
   -0.1544   -1.5197   -1.7752 C   0  0  0  0  0  0  0  0  0  0  0  0
   -2.1898   -0.9205   -2.0464 H   0  0  0  0  0  0  0  0  0  0  0  0
   -1.9505   -0.6001   -4.4802 H   0  0  0  0  0  0  0  0  0  0  0  0
    0.1765   -1.0277   -5.6565 H   0  0  0  0  0  0  0  0  0  0  0  0
    2.1650   -1.8098   -4.3460 H   0  0  0  0  0  0  0  0  0  0  0  0
    1.6024   -0.6857   -2.1708 H   0  0  0  0  0  0  0  0  0  0  0  0
   -0.2282   -1.6607   -0.7001 H   0  0  0  0  0  0  0  0  0  0  0  0
    1.5011   -1.6510    2.0336 S   0  0  0  0  0  0  0  0  0  0  0  0
    0.1593   -1.5743    1.4993 O   0  0  0  0  0  0  0  0  0  0  0  0
    2.6434   -1.8589    1.1572 O   0  0  0  0  0  0  0  0  0  0  0  0
    1.7248   -0.3326    2.9298 O   0  0  0  0  0  0  0  0  0  0  0  0
    1.5336   -2.9937    3.3655 C   0  0  0  0  0  0  0  0  0  0  0  0
    2.6802   -2.8958    4.0257 F   0  0  0  0  0  0  0  0  0  0  0  0
    0.5127   -2.8257    4.1816 F   0  0  0  0  0  0  0  0  0  0  0  0
    1.4533   -4.1663    2.7540 F   0  0  0  0  0  0  0  0  0  0  0  0
    2.3895   -2.4822   -0.9184 H   0  0  0  0  0  0  0  0  0  0  0  0
  1  2  3  0  0  0  0
  3 26  1  0  0  0  0
  4  3  1  0  0  0  0
  6 12  1  0  0  0  0
  6 11  2  0  0  0  0
  7  6  1  0  0  0  0
  8  7  1  0  0  0  0
  8  9  2  0  0  0  0
  9 10  1  0  0  0  0
 10 16  1  1  0  0  0
 10  3  1  0  0  0  0
 10 11  1  0  0  0  0
 11 17  1  0  0  0  0
 13  7  1  0  0  0  0
 14  8  1  0  0  0  0
 15  9  1  0  0  0  0
 18 21  1  0  0  0  0
 18 22  1  0  0  0  0
 19 18  2  0  0  0  0
 20 18  2  0  0  0  0
 21  5  1  0  0  0  0
 22 23  1  0  0  0  0
 22 24  1  0  0  0  0
 25 22  1  0  0  0  0
M  RAD  1   7   2
M  END
