Coordinates from ORCA-job C6H6+HOTf+NH2--N2+-scan
 OpenBabel10191813343D

 26 24  0  0  1  0  0  0  0  0999 V2000
    0.5848   -8.7218   -2.8616 N   0  0  0  0  0  0  0  0  0  0  0  0
    0.5514   -9.8126   -2.9583 N   0  0  0  0  0  0  0  0  0  0  0  0
    2.4124   -2.0959   -1.7673 N   0  0  0  0  0  0  0  0  0  0  0  0
    2.2416   -3.0918   -1.8544 H   0  0  0  0  0  0  0  0  0  0  0  0
    2.2890    0.2530    3.2706 H   0  0  0  0  0  0  0  0  0  0  0  0
   -1.1660   -1.2304   -2.4934 C   0  0  0  0  0  0  0  0  0  0  0  0
   -1.0206   -0.9942   -3.8737 C   0  0  0  0  0  0  0  0  0  0  0  0
    0.2341   -0.9497   -4.5118 C   0  0  0  0  0  0  0  0  0  0  0  0
    1.3681   -1.1602   -3.7715 C   0  0  0  0  0  0  0  0  0  0  0  0
    1.3122   -1.3254   -2.3044 C   0  0  1  0  0  0  0  0  0  0  0  0
   -0.0498   -1.4376   -1.7230 C   0  0  0  0  0  0  0  0  0  0  0  0
   -2.1563   -1.2771   -2.0566 H   0  0  0  0  0  0  0  0  0  0  0  0
   -1.9142   -0.8492   -4.4736 H   0  0  0  0  0  0  0  0  0  0  0  0
    0.2905   -0.7864   -5.5810 H   0  0  0  0  0  0  0  0  0  0  0  0
    2.3577   -1.1679   -4.2159 H   0  0  0  0  0  0  0  0  0  0  0  0
    1.5111   -0.2454   -2.0347 H   0  0  0  0  0  0  0  0  0  0  0  0
   -0.1258   -1.6202   -0.6542 H   0  0  0  0  0  0  0  0  0  0  0  0
    1.4778   -1.3936    2.1360 S   0  0  0  0  0  0  0  0  0  0  0  0
    0.1642   -1.5661    1.5558 O   0  0  0  0  0  0  0  0  0  0  0  0
    2.6612   -1.3204    1.2925 O   0  0  0  0  0  0  0  0  0  0  0  0
    1.4015   -0.1029    3.0942 O   0  0  0  0  0  0  0  0  0  0  0  0
    1.7505   -2.7661    3.4094 C   0  0  0  0  0  0  0  0  0  0  0  0
    2.8336   -2.4675    4.1149 F   0  0  0  0  0  0  0  0  0  0  0  0
    0.6949   -2.8509    4.1934 F   0  0  0  0  0  0  0  0  0  0  0  0
    1.9307   -3.8977    2.7453 F   0  0  0  0  0  0  0  0  0  0  0  0
    2.6149   -1.8742   -0.7965 H   0  0  0  0  0  0  0  0  0  0  0  0
  2  1  3  0  0  0  0
  3 26  1  0  0  0  0
  4  3  1  0  0  0  0
  6 12  1  0  0  0  0
  6 11  2  0  0  0  0
  7  6  1  0  0  0  0
  8  7  1  0  0  0  0
  8  9  2  0  0  0  0
  9 10  1  0  0  0  0
 10 16  1  1  0  0  0
 10  3  1  0  0  0  0
 10 11  1  0  0  0  0
 11 17  1  0  0  0  0
 13  7  1  0  0  0  0
 14  8  1  0  0  0  0
 15  9  1  0  0  0  0
 18 21  1  0  0  0  0
 18 22  1  0  0  0  0
 19 18  2  0  0  0  0
 20 18  2  0  0  0  0
 21  5  1  0  0  0  0
 22 23  1  0  0  0  0
 22 24  1  0  0  0  0
 25 22  1  0  0  0  0
M  RAD  1   7   2
M  END
