Coordinates from ORCA-job C6H6+HOTf+NH2--N2+-scan
 OpenBabel10191813343D

 26 24  0  0  1  0  0  0  0  0999 V2000
    0.5808   -8.7474   -2.8679 N   0  0  0  0  0  0  0  0  0  0  0  0
    0.5479   -9.8382   -2.9649 N   0  0  0  0  0  0  0  0  0  0  0  0
    2.4133   -2.0924   -1.7667 N   0  0  0  0  0  0  0  0  0  0  0  0
    2.2432   -3.0884   -1.8539 H   0  0  0  0  0  0  0  0  0  0  0  0
    2.2877    0.2553    3.2717 H   0  0  0  0  0  0  0  0  0  0  0  0
   -1.1656   -1.2294   -2.4930 C   0  0  0  0  0  0  0  0  0  0  0  0
   -1.0203   -0.9929   -3.8733 C   0  0  0  0  0  0  0  0  0  0  0  0
    0.2344   -0.9475   -4.5113 C   0  0  0  0  0  0  0  0  0  0  0  0
    1.3685   -1.1573   -3.7709 C   0  0  0  0  0  0  0  0  0  0  0  0
    1.3126   -1.3227   -2.3038 C   0  0  1  0  0  0  0  0  0  0  0  0
   -0.0494   -1.4358   -1.7226 C   0  0  0  0  0  0  0  0  0  0  0  0
   -2.1560   -1.2768   -2.0563 H   0  0  0  0  0  0  0  0  0  0  0  0
   -1.9139   -0.8484   -4.4732 H   0  0  0  0  0  0  0  0  0  0  0  0
    0.2908   -0.7840   -5.5804 H   0  0  0  0  0  0  0  0  0  0  0  0
    2.3582   -1.1642   -4.2152 H   0  0  0  0  0  0  0  0  0  0  0  0
    1.5107   -0.2426   -2.0339 H   0  0  0  0  0  0  0  0  0  0  0  0
   -0.1254   -1.6187   -0.6537 H   0  0  0  0  0  0  0  0  0  0  0  0
    1.4778   -1.3917    2.1366 S   0  0  0  0  0  0  0  0  0  0  0  0
    0.1643   -1.5649    1.5562 O   0  0  0  0  0  0  0  0  0  0  0  0
    2.6612   -1.3175    1.2933 O   0  0  0  0  0  0  0  0  0  0  0  0
    1.4004   -0.1012    3.0951 O   0  0  0  0  0  0  0  0  0  0  0  0
    1.7512   -2.7643    3.4098 C   0  0  0  0  0  0  0  0  0  0  0  0
    2.8340   -2.4651    4.1154 F   0  0  0  0  0  0  0  0  0  0  0  0
    0.6955   -2.8499    4.1936 F   0  0  0  0  0  0  0  0  0  0  0  0
    1.9322   -3.8956    2.7454 F   0  0  0  0  0  0  0  0  0  0  0  0
    2.6155   -1.8708   -0.7958 H   0  0  0  0  0  0  0  0  0  0  0  0
  2  1  3  0  0  0  0
  3 26  1  0  0  0  0
  4  3  1  0  0  0  0
  6 12  1  0  0  0  0
  6 11  2  0  0  0  0
  7  6  1  0  0  0  0
  8  7  1  0  0  0  0
  8  9  2  0  0  0  0
  9 10  1  0  0  0  0
 10 16  1  1  0  0  0
 10  3  1  0  0  0  0
 10 11  1  0  0  0  0
 11 17  1  0  0  0  0
 13  7  1  0  0  0  0
 14  8  1  0  0  0  0
 15  9  1  0  0  0  0
 18 21  1  0  0  0  0
 18 22  1  0  0  0  0
 19 18  2  0  0  0  0
 20 18  2  0  0  0  0
 21  5  1  0  0  0  0
 22 23  1  0  0  0  0
 22 24  1  0  0  0  0
 25 22  1  0  0  0  0
M  RAD  1   7   2
M  END
