Coordinates from ORCA-job C6H6+HOTf+NH2--N2+-scan
 OpenBabel10191813343D

 26 25  0  0  1  0  0  0  0  0999 V2000
    2.5652   -4.5855   -1.7447 N   0  0  0  0  0  0  0  0  0  0  0  0
    3.4987   -4.9308   -2.2250 N   0  0  0  0  0  0  0  0  0  0  0  0
    1.6790   -3.0276   -1.9244 N   0  0  0  0  0  0  0  0  0  0  0  0
    0.7844   -3.5108   -2.0441 H   0  0  0  0  0  0  0  0  0  0  0  0
    3.4968   -1.5413    2.8645 H   0  0  0  0  0  0  0  0  0  0  0  0
   -1.0602   -1.0848   -2.3514 C   0  0  0  0  0  0  0  0  0  0  0  0
   -1.1866   -1.2987   -3.7228 C   0  0  0  0  0  0  0  0  0  0  0  0
   -0.0575   -1.5477   -4.5463 C   0  0  0  0  0  0  0  0  0  0  0  0
    1.1878   -1.6029   -3.9932 C   0  0  0  0  0  0  0  0  0  0  0  0
    1.3709   -1.4506   -2.5509 C   0  0  1  0  0  0  0  0  0  0  0  0
    0.2009   -1.0929   -1.7745 C   0  0  0  0  0  0  0  0  0  0  0  0
   -1.9346   -0.8754   -1.7477 H   0  0  0  0  0  0  0  0  0  0  0  0
   -2.1709   -1.2653   -4.1780 H   0  0  0  0  0  0  0  0  0  0  0  0
   -0.1944   -1.6797   -5.6127 H   0  0  0  0  0  0  0  0  0  0  0  0
    2.0629   -1.7924   -4.6045 H   0  0  0  0  0  0  0  0  0  0  0  0
    2.3008   -0.9662   -2.2597 H   0  0  0  0  0  0  0  0  0  0  0  0
    0.3197   -0.8639   -0.7203 H   0  0  0  0  0  0  0  0  0  0  0  0
    1.5249   -1.8110    2.0239 S   0  0  0  0  0  0  0  0  0  0  0  0
    0.5306   -0.8401    1.6357 O   0  0  0  0  0  0  0  0  0  0  0  0
    2.1363   -2.6849    1.0260 O   0  0  0  0  0  0  0  0  0  0  0  0
    2.6708   -1.0290    2.8355 O   0  0  0  0  0  0  0  0  0  0  0  0
    0.8076   -2.9171    3.3833 C   0  0  0  0  0  0  0  0  0  0  0  0
    1.7992   -3.6307    3.9007 F   0  0  0  0  0  0  0  0  0  0  0  0
    0.2454   -2.1639    4.3047 F   0  0  0  0  0  0  0  0  0  0  0  0
   -0.0870   -3.7131    2.8181 F   0  0  0  0  0  0  0  0  0  0  0  0
    1.7588   -2.8460   -0.9120 H   0  0  0  0  0  0  0  0  0  0  0  0
  2  1  2  0  0  0  0
  3  1  1  0  0  0  0
  3 26  1  0  0  0  0
  4  3  1  0  0  0  0
  6 11  2  0  0  0  0
  6 12  1  0  0  0  0
  7  6  1  0  0  0  0
  8  9  2  0  0  0  0
  8  7  1  0  0  0  0
  9 10  1  0  0  0  0
 10 16  1  1  0  0  0
 10  3  1  0  0  0  0
 10 11  1  0  0  0  0
 11 17  1  0  0  0  0
 13  7  1  0  0  0  0
 14  8  1  0  0  0  0
 15  9  1  0  0  0  0
 18 21  1  0  0  0  0
 18 22  1  0  0  0  0
 19 18  2  0  0  0  0
 20 18  2  0  0  0  0
 21  5  1  0  0  0  0
 22 23  1  0  0  0  0
 22 24  1  0  0  0  0
 25 22  1  0  0  0  0
M  RAD  2   2   2   7   2
M  END
