Coordinates from ORCA-job C6H6+HOTf+NH2--N2+-scan
 OpenBabel10191813343D

 26 24  0  0  1  0  0  0  0  0999 V2000
    1.1983   -6.1250   -2.1537 N   0  0  0  0  0  0  0  0  0  0  0  0
    1.1316   -7.2173   -2.1971 N   0  0  0  0  0  0  0  0  0  0  0  0
    2.2600   -2.5160   -1.8445 N   0  0  0  0  0  0  0  0  0  0  0  0
    1.9703   -3.4868   -1.9116 H   0  0  0  0  0  0  0  0  0  0  0  0
    2.5021   -0.0306    3.1323 H   0  0  0  0  0  0  0  0  0  0  0  0
   -1.2051   -1.2456   -2.5249 C   0  0  0  0  0  0  0  0  0  0  0  0
   -1.0578   -1.0439   -3.9103 C   0  0  0  0  0  0  0  0  0  0  0  0
    0.1815   -1.1557   -4.5694 C   0  0  0  0  0  0  0  0  0  0  0  0
    1.2960   -1.4902   -3.8449 C   0  0  0  0  0  0  0  0  0  0  0  0
    1.2476   -1.6307   -2.3752 C   0  0  1  0  0  0  0  0  0  0  0  0
   -0.1073   -1.5745   -1.7704 C   0  0  0  0  0  0  0  0  0  0  0  0
   -2.1860   -1.1696   -2.0711 H   0  0  0  0  0  0  0  0  0  0  0  0
   -1.9385   -0.8004   -4.4972 H   0  0  0  0  0  0  0  0  0  0  0  0
    0.2378   -1.0124   -5.6415 H   0  0  0  0  0  0  0  0  0  0  0  0
    2.2698   -1.6194   -4.3050 H   0  0  0  0  0  0  0  0  0  0  0  0
    1.5740   -0.5766   -2.1259 H   0  0  0  0  0  0  0  0  0  0  0  0
   -0.1847   -1.7344   -0.6982 H   0  0  0  0  0  0  0  0  0  0  0  0
    1.4922   -1.6079    2.0606 S   0  0  0  0  0  0  0  0  0  0  0  0
    0.1560   -1.6496    1.5085 O   0  0  0  0  0  0  0  0  0  0  0  0
    2.6597   -1.6884    1.1963 O   0  0  0  0  0  0  0  0  0  0  0  0
    1.5774   -0.2916    2.9832 O   0  0  0  0  0  0  0  0  0  0  0  0
    1.6372   -2.9671    3.3683 C   0  0  0  0  0  0  0  0  0  0  0  0
    2.7610   -2.7725    4.0460 F   0  0  0  0  0  0  0  0  0  0  0  0
    0.5950   -2.9131    4.1729 F   0  0  0  0  0  0  0  0  0  0  0  0
    1.6772   -4.1296    2.7345 F   0  0  0  0  0  0  0  0  0  0  0  0
    2.5043   -2.3034   -0.8815 H   0  0  0  0  0  0  0  0  0  0  0  0
  2  1  3  0  0  0  0
  3 26  1  0  0  0  0
  4  3  1  0  0  0  0
  6 12  1  0  0  0  0
  6 11  2  0  0  0  0
  7  6  1  0  0  0  0
  8  7  1  0  0  0  0
  8  9  2  0  0  0  0
  9 10  1  0  0  0  0
 10 16  1  1  0  0  0
 10  3  1  0  0  0  0
 10 11  1  0  0  0  0
 11 17  1  0  0  0  0
 13  7  1  0  0  0  0
 14  8  1  0  0  0  0
 15  9  1  0  0  0  0
 18 21  1  0  0  0  0
 18 22  1  0  0  0  0
 19 18  2  0  0  0  0
 20 18  2  0  0  0  0
 21  5  1  0  0  0  0
 22 23  1  0  0  0  0
 22 24  1  0  0  0  0
 25 22  1  0  0  0  0
M  RAD  1   7   2
M  END
