Coordinates from ORCA-job C6H6+HOTf+NH2--N2+-scan
 OpenBabel10191813343D

 26 24  0  0  1  0  0  0  0  0999 V2000
    1.3174   -5.9134   -2.0729 N   0  0  0  0  0  0  0  0  0  0  0  0
    1.3007   -7.0083   -2.0929 N   0  0  0  0  0  0  0  0  0  0  0  0
    2.2212   -2.5763   -1.8568 N   0  0  0  0  0  0  0  0  0  0  0  0
    1.9091   -3.5399   -1.9223 H   0  0  0  0  0  0  0  0  0  0  0  0
    2.5446   -0.0710    3.1097 H   0  0  0  0  0  0  0  0  0  0  0  0
   -1.2118   -1.2151   -2.5258 C   0  0  0  0  0  0  0  0  0  0  0  0
   -1.0649   -1.0193   -3.9120 C   0  0  0  0  0  0  0  0  0  0  0  0
    0.1682   -1.1656   -4.5757 C   0  0  0  0  0  0  0  0  0  0  0  0
    1.2763   -1.5290   -3.8551 C   0  0  0  0  0  0  0  0  0  0  0  0
    1.2302   -1.6670   -2.3854 C   0  0  1  0  0  0  0  0  0  0  0  0
   -0.1202   -1.5732   -1.7754 C   0  0  0  0  0  0  0  0  0  0  0  0
   -2.1883   -1.1118   -2.0680 H   0  0  0  0  0  0  0  0  0  0  0  0
   -1.9410   -0.7525   -4.4955 H   0  0  0  0  0  0  0  0  0  0  0  0
    0.2241   -1.0248   -5.6482 H   0  0  0  0  0  0  0  0  0  0  0  0
    2.2446   -1.6842   -4.3190 H   0  0  0  0  0  0  0  0  0  0  0  0
    1.5836   -0.6202   -2.1402 H   0  0  0  0  0  0  0  0  0  0  0  0
   -0.1975   -1.7293   -0.7026 H   0  0  0  0  0  0  0  0  0  0  0  0
    1.4952   -1.6305    2.0502 S   0  0  0  0  0  0  0  0  0  0  0  0
    0.1567   -1.6444    1.5026 O   0  0  0  0  0  0  0  0  0  0  0  0
    2.6580   -1.7427    1.1831 O   0  0  0  0  0  0  0  0  0  0  0  0
    1.6137   -0.3117    2.9655 O   0  0  0  0  0  0  0  0  0  0  0  0
    1.6128   -2.9856    3.3648 C   0  0  0  0  0  0  0  0  0  0  0  0
    2.7430   -2.8138    4.0379 F   0  0  0  0  0  0  0  0  0  0  0  0
    0.5748   -2.9031    4.1725 F   0  0  0  0  0  0  0  0  0  0  0  0
    1.6235   -4.1522    2.7373 F   0  0  0  0  0  0  0  0  0  0  0  0
    2.4757   -2.3671   -0.8959 H   0  0  0  0  0  0  0  0  0  0  0  0
  2  1  3  0  0  0  0
  3 26  1  0  0  0  0
  4  3  1  0  0  0  0
  6 12  1  0  0  0  0
  6 11  2  0  0  0  0
  7  6  1  0  0  0  0
  8  7  1  0  0  0  0
  8  9  2  0  0  0  0
  9 10  1  0  0  0  0
 10 16  1  1  0  0  0
 10  3  1  0  0  0  0
 10 11  1  0  0  0  0
 11 17  1  0  0  0  0
 13  7  1  0  0  0  0
 14  8  1  0  0  0  0
 15  9  1  0  0  0  0
 18 21  1  0  0  0  0
 18 22  1  0  0  0  0
 19 18  2  0  0  0  0
 20 18  2  0  0  0  0
 21  5  1  0  0  0  0
 22 23  1  0  0  0  0
 22 24  1  0  0  0  0
 25 22  1  0  0  0  0
M  RAD  1   7   2
M  END
