Coordinates from ORCA-job C6H6+HOTf+NH2--N2+-scan
 OpenBabel10191813343D

 26 24  0  0  1  0  0  0  0  0999 V2000
    1.1070   -6.3638   -2.2188 N   0  0  0  0  0  0  0  0  0  0  0  0
    1.0222   -7.4546   -2.2715 N   0  0  0  0  0  0  0  0  0  0  0  0
    2.2881   -2.4614   -1.8360 N   0  0  0  0  0  0  0  0  0  0  0  0
    2.0180   -3.4374   -1.9065 H   0  0  0  0  0  0  0  0  0  0  0  0
    2.4703    0.0012    3.1513 H   0  0  0  0  0  0  0  0  0  0  0  0
   -1.2000   -1.2596   -2.5235 C   0  0  0  0  0  0  0  0  0  0  0  0
   -1.0530   -1.0532   -3.9083 C   0  0  0  0  0  0  0  0  0  0  0  0
    0.1901   -1.1390   -4.5643 C   0  0  0  0  0  0  0  0  0  0  0  0
    1.3091   -1.4518   -3.8373 C   0  0  0  0  0  0  0  0  0  0  0  0
    1.2596   -1.5950   -2.3679 C   0  0  1  0  0  0  0  0  0  0  0  0
   -0.0978   -1.5672   -1.7665 C   0  0  0  0  0  0  0  0  0  0  0  0
   -2.1834   -1.2043   -2.0723 H   0  0  0  0  0  0  0  0  0  0  0  0
   -1.9370   -0.8270   -4.4972 H   0  0  0  0  0  0  0  0  0  0  0  0
    0.2462   -0.9932   -5.6360 H   0  0  0  0  0  0  0  0  0  0  0  0
    2.2865   -1.5610   -4.2951 H   0  0  0  0  0  0  0  0  0  0  0  0
    1.5650   -0.5355   -2.1155 H   0  0  0  0  0  0  0  0  0  0  0  0
   -0.1749   -1.7302   -0.6947 H   0  0  0  0  0  0  0  0  0  0  0  0
    1.4896   -1.5873    2.0689 S   0  0  0  0  0  0  0  0  0  0  0  0
    0.1558   -1.6486    1.5129 O   0  0  0  0  0  0  0  0  0  0  0  0
    2.6605   -1.6439    1.2070 O   0  0  0  0  0  0  0  0  0  0  0  0
    1.5505   -0.2744    2.9980 O   0  0  0  0  0  0  0  0  0  0  0  0
    1.6544   -2.9505    3.3702 C   0  0  0  0  0  0  0  0  0  0  0  0
    2.7728   -2.7400    4.0519 F   0  0  0  0  0  0  0  0  0  0  0  0
    0.6092   -2.9183    4.1721 F   0  0  0  0  0  0  0  0  0  0  0  0
    1.7159   -4.1088    2.7307 F   0  0  0  0  0  0  0  0  0  0  0  0
    2.5246   -2.2474   -0.8713 H   0  0  0  0  0  0  0  0  0  0  0  0
  2  1  3  0  0  0  0
  3 26  1  0  0  0  0
  4  3  1  0  0  0  0
  6 12  1  0  0  0  0
  6 11  2  0  0  0  0
  7  6  1  0  0  0  0
  8  7  1  0  0  0  0
  8  9  2  0  0  0  0
  9 10  1  0  0  0  0
 10 16  1  1  0  0  0
 10  3  1  0  0  0  0
 10 11  1  0  0  0  0
 11 17  1  0  0  0  0
 13  7  1  0  0  0  0
 14  8  1  0  0  0  0
 15  9  1  0  0  0  0
 18 21  1  0  0  0  0
 18 22  1  0  0  0  0
 19 18  2  0  0  0  0
 20 18  2  0  0  0  0
 21  5  1  0  0  0  0
 22 23  1  0  0  0  0
 22 24  1  0  0  0  0
 25 22  1  0  0  0  0
M  RAD  1   7   2
M  END
