Coordinates from ORCA-job C6H6+HOTf+NH2--N2+-scan
 OpenBabel10191813343D

 26 24  0  0  1  0  0  0  0  0999 V2000
    0.6259   -8.4756   -2.7982 N   0  0  0  0  0  0  0  0  0  0  0  0
    0.5877   -9.5664   -2.8921 N   0  0  0  0  0  0  0  0  0  0  0  0
    2.4035   -2.1296   -1.7736 N   0  0  0  0  0  0  0  0  0  0  0  0
    2.2253   -3.1243   -1.8593 H   0  0  0  0  0  0  0  0  0  0  0  0
    2.3028    0.2304    3.2598 H   0  0  0  0  0  0  0  0  0  0  0  0
   -1.1692   -1.2392   -2.4969 C   0  0  0  0  0  0  0  0  0  0  0  0
   -1.0236   -1.0056   -3.8777 C   0  0  0  0  0  0  0  0  0  0  0  0
    0.2307   -0.9710   -4.5171 C   0  0  0  0  0  0  0  0  0  0  0  0
    1.3639   -1.1888   -3.7778 C   0  0  0  0  0  0  0  0  0  0  0  0
    1.3084   -1.3518   -2.3104 C   0  0  1  0  0  0  0  0  0  0  0  0
   -0.0538   -1.4534   -1.7274 C   0  0  0  0  0  0  0  0  0  0  0  0
   -2.1594   -1.2782   -2.0590 H   0  0  0  0  0  0  0  0  0  0  0  0
   -1.9168   -0.8549   -4.4768 H   0  0  0  0  0  0  0  0  0  0  0  0
    0.2872   -0.8094   -5.5866 H   0  0  0  0  0  0  0  0  0  0  0  0
    2.3530   -1.2041   -4.2232 H   0  0  0  0  0  0  0  0  0  0  0  0
    1.5154   -0.2729   -2.0421 H   0  0  0  0  0  0  0  0  0  0  0  0
   -0.1300   -1.6342   -0.6583 H   0  0  0  0  0  0  0  0  0  0  0  0
    1.4785   -1.4128    2.1296 S   0  0  0  0  0  0  0  0  0  0  0  0
    0.1629   -1.5772    1.5514 O   0  0  0  0  0  0  0  0  0  0  0  0
    2.6613   -1.3497    1.2845 O   0  0  0  0  0  0  0  0  0  0  0  0
    1.4125   -0.1195    3.0853 O   0  0  0  0  0  0  0  0  0  0  0  0
    1.7432   -2.7845    3.4056 C   0  0  0  0  0  0  0  0  0  0  0  0
    2.8292   -2.4921    4.1090 F   0  0  0  0  0  0  0  0  0  0  0  0
    0.6879   -2.8602    4.1910 F   0  0  0  0  0  0  0  0  0  0  0  0
    1.9145   -3.9188    2.7436 F   0  0  0  0  0  0  0  0  0  0  0  0
    2.6085   -1.9083   -0.8031 H   0  0  0  0  0  0  0  0  0  0  0  0
  2  1  3  0  0  0  0
  3 26  1  0  0  0  0
  4  3  1  0  0  0  0
  6 12  1  0  0  0  0
  6 11  2  0  0  0  0
  7  6  1  0  0  0  0
  8  7  1  0  0  0  0
  8  9  2  0  0  0  0
  9 10  1  0  0  0  0
 10 16  1  1  0  0  0
 10  3  1  0  0  0  0
 10 11  1  0  0  0  0
 11 17  1  0  0  0  0
 13  7  1  0  0  0  0
 14  8  1  0  0  0  0
 15  9  1  0  0  0  0
 18 21  1  0  0  0  0
 18 22  1  0  0  0  0
 19 18  2  0  0  0  0
 20 18  2  0  0  0  0
 21  5  1  0  0  0  0
 22 23  1  0  0  0  0
 22 24  1  0  0  0  0
 25 22  1  0  0  0  0
M  RAD  1   7   2
M  END
