Coordinates from ORCA-job C6H6+HOTf+NH2--N2+-scan
 OpenBabel10191813343D

 26 24  0  0  1  0  0  0  0  0999 V2000
    0.6289   -8.4587   -2.7937 N   0  0  0  0  0  0  0  0  0  0  0  0
    0.5904   -9.5496   -2.8874 N   0  0  0  0  0  0  0  0  0  0  0  0
    2.4029   -2.1319   -1.7740 N   0  0  0  0  0  0  0  0  0  0  0  0
    2.2241   -3.1266   -1.8597 H   0  0  0  0  0  0  0  0  0  0  0  0
    2.3038    0.2288    3.2590 H   0  0  0  0  0  0  0  0  0  0  0  0
   -1.1695   -1.2397   -2.4972 C   0  0  0  0  0  0  0  0  0  0  0  0
   -1.0238   -1.0063   -3.8780 C   0  0  0  0  0  0  0  0  0  0  0  0
    0.2304   -0.9724   -4.5175 C   0  0  0  0  0  0  0  0  0  0  0  0
    1.3636   -1.1907   -3.7782 C   0  0  0  0  0  0  0  0  0  0  0  0
    1.3081   -1.3536   -2.3108 C   0  0  1  0  0  0  0  0  0  0  0  0
   -0.0541   -1.4545   -1.7278 C   0  0  0  0  0  0  0  0  0  0  0  0
   -2.1597   -1.2782   -2.0592 H   0  0  0  0  0  0  0  0  0  0  0  0
   -1.9170   -0.8551   -4.4770 H   0  0  0  0  0  0  0  0  0  0  0  0
    0.2869   -0.8109   -5.5870 H   0  0  0  0  0  0  0  0  0  0  0  0
    2.3526   -1.2066   -4.2237 H   0  0  0  0  0  0  0  0  0  0  0  0
    1.5157   -0.2748   -2.0427 H   0  0  0  0  0  0  0  0  0  0  0  0
   -0.1303   -1.6352   -0.6586 H   0  0  0  0  0  0  0  0  0  0  0  0
    1.4786   -1.4142    2.1292 S   0  0  0  0  0  0  0  0  0  0  0  0
    0.1628   -1.5779    1.5511 O   0  0  0  0  0  0  0  0  0  0  0  0
    2.6613   -1.3518    1.2839 O   0  0  0  0  0  0  0  0  0  0  0  0
    1.4134   -0.1207    3.0846 O   0  0  0  0  0  0  0  0  0  0  0  0
    1.7426   -2.7858    3.4053 C   0  0  0  0  0  0  0  0  0  0  0  0
    2.8289   -2.4939    4.1086 F   0  0  0  0  0  0  0  0  0  0  0  0
    0.6874   -2.8609    4.1908 F   0  0  0  0  0  0  0  0  0  0  0  0
    1.9133   -3.9203    2.7434 F   0  0  0  0  0  0  0  0  0  0  0  0
    2.6080   -1.9107   -0.8036 H   0  0  0  0  0  0  0  0  0  0  0  0
  2  1  3  0  0  0  0
  3 26  1  0  0  0  0
  4  3  1  0  0  0  0
  6 12  1  0  0  0  0
  6 11  2  0  0  0  0
  7  6  1  0  0  0  0
  8  7  1  0  0  0  0
  8  9  2  0  0  0  0
  9 10  1  0  0  0  0
 10 16  1  1  0  0  0
 10  3  1  0  0  0  0
 10 11  1  0  0  0  0
 11 17  1  0  0  0  0
 13  7  1  0  0  0  0
 14  8  1  0  0  0  0
 15  9  1  0  0  0  0
 18 21  1  0  0  0  0
 18 22  1  0  0  0  0
 19 18  2  0  0  0  0
 20 18  2  0  0  0  0
 21  5  1  0  0  0  0
 22 23  1  0  0  0  0
 22 24  1  0  0  0  0
 25 22  1  0  0  0  0
M  RAD  1   7   2
M  END
