Coordinates from ORCA-job C6H6+HOTf+NH2--N2+-scan
 OpenBabel10191813343D

 26 24  0  0  1  0  0  0  0  0999 V2000
    0.5875   -8.7047   -2.8573 N   0  0  0  0  0  0  0  0  0  0  0  0
    0.5538   -9.7955   -2.9539 N   0  0  0  0  0  0  0  0  0  0  0  0
    2.4118   -2.0982   -1.7677 N   0  0  0  0  0  0  0  0  0  0  0  0
    2.2405   -3.0940   -1.8547 H   0  0  0  0  0  0  0  0  0  0  0  0
    2.2899    0.2515    3.2698 H   0  0  0  0  0  0  0  0  0  0  0  0
   -1.1662   -1.2311   -2.4936 C   0  0  0  0  0  0  0  0  0  0  0  0
   -1.0208   -0.9951   -3.8740 C   0  0  0  0  0  0  0  0  0  0  0  0
    0.2338   -0.9512   -4.5122 C   0  0  0  0  0  0  0  0  0  0  0  0
    1.3678   -1.1622   -3.7719 C   0  0  0  0  0  0  0  0  0  0  0  0
    1.3119   -1.3272   -2.3048 C   0  0  1  0  0  0  0  0  0  0  0  0
   -0.0501   -1.4387   -1.7233 C   0  0  0  0  0  0  0  0  0  0  0  0
   -2.1565   -1.2773   -2.0567 H   0  0  0  0  0  0  0  0  0  0  0  0
   -1.9144   -0.8497   -4.4738 H   0  0  0  0  0  0  0  0  0  0  0  0
    0.2903   -0.7881   -5.5814 H   0  0  0  0  0  0  0  0  0  0  0  0
    2.3574   -1.1704   -4.2164 H   0  0  0  0  0  0  0  0  0  0  0  0
    1.5114   -0.2473   -2.0352 H   0  0  0  0  0  0  0  0  0  0  0  0
   -0.1261   -1.6212   -0.6544 H   0  0  0  0  0  0  0  0  0  0  0  0
    1.4779   -1.3949    2.1356 S   0  0  0  0  0  0  0  0  0  0  0  0
    0.1641   -1.5669    1.5555 O   0  0  0  0  0  0  0  0  0  0  0  0
    2.6612   -1.3224    1.2920 O   0  0  0  0  0  0  0  0  0  0  0  0
    1.4022   -0.1040    3.0936 O   0  0  0  0  0  0  0  0  0  0  0  0
    1.7501   -2.7674    3.4092 C   0  0  0  0  0  0  0  0  0  0  0  0
    2.8333   -2.4691    4.1145 F   0  0  0  0  0  0  0  0  0  0  0  0
    0.6944   -2.8515    4.1932 F   0  0  0  0  0  0  0  0  0  0  0  0
    1.9296   -3.8992    2.7452 F   0  0  0  0  0  0  0  0  0  0  0  0
    2.6145   -1.8765   -0.7969 H   0  0  0  0  0  0  0  0  0  0  0  0
  2  1  3  0  0  0  0
  3 26  1  0  0  0  0
  4  3  1  0  0  0  0
  6 12  1  0  0  0  0
  6 11  2  0  0  0  0
  7  6  1  0  0  0  0
  8  7  1  0  0  0  0
  8  9  2  0  0  0  0
  9 10  1  0  0  0  0
 10 16  1  1  0  0  0
 10  3  1  0  0  0  0
 10 11  1  0  0  0  0
 11 17  1  0  0  0  0
 13  7  1  0  0  0  0
 14  8  1  0  0  0  0
 15  9  1  0  0  0  0
 18 21  1  0  0  0  0
 18 22  1  0  0  0  0
 19 18  2  0  0  0  0
 20 18  2  0  0  0  0
 21  5  1  0  0  0  0
 22 23  1  0  0  0  0
 22 24  1  0  0  0  0
 25 22  1  0  0  0  0
M  RAD  1   7   2
M  END
