Coordinates from ORCA-job C6H6+HOTf+NH2--N2+-scan
 OpenBabel10191813343D

 26 24  0  0  1  0  0  0  0  0999 V2000
    2.6267   -4.9825   -1.6044 N   0  0  0  0  0  0  0  0  0  0  0  0
    3.5092   -5.3104   -2.1707 N   0  0  0  0  0  0  0  0  0  0  0  0
    1.5692   -3.1843   -1.8611 N   0  0  0  0  0  0  0  0  0  0  0  0
    0.7858   -3.8300   -1.8118 H   0  0  0  0  0  0  0  0  0  0  0  0
    3.1901   -0.7700    2.8693 H   0  0  0  0  0  0  0  0  0  0  0  0
   -1.1643   -0.7711   -2.5134 C   0  0  0  0  0  0  0  0  0  0  0  0
   -1.0426   -0.7378   -3.9137 C   0  0  0  0  0  0  0  0  0  0  0  0
    0.0780   -1.2614   -4.5976 C   0  0  0  0  0  0  0  0  0  0  0  0
    1.0750   -1.8588   -3.8802 C   0  0  0  0  0  0  0  0  0  0  0  0
    1.0627   -1.8779   -2.4012 C   0  0  1  0  0  0  0  0  0  0  0  0
   -0.1493   -1.3149   -1.7657 C   0  0  0  0  0  0  0  0  0  0  0  0
   -2.0525   -0.3714   -2.0393 H   0  0  0  0  0  0  0  0  0  0  0  0
   -1.8484   -0.3014   -4.4966 H   0  0  0  0  0  0  0  0  0  0  0  0
    0.1132   -1.2233   -5.6794 H   0  0  0  0  0  0  0  0  0  0  0  0
    1.9257   -2.3274   -4.3637 H   0  0  0  0  0  0  0  0  0  0  0  0
    1.8586   -1.1381   -2.1465 H   0  0  0  0  0  0  0  0  0  0  0  0
   -0.1985   -1.3270   -0.6799 H   0  0  0  0  0  0  0  0  0  0  0  0
    1.5158   -1.8099    1.9883 S   0  0  0  0  0  0  0  0  0  0  0  0
    0.2454   -1.3034    1.5193 O   0  0  0  0  0  0  0  0  0  0  0  0
    2.4564   -2.4252    1.0625 O   0  0  0  0  0  0  0  0  0  0  0  0
    2.2338   -0.6132    2.7894 O   0  0  0  0  0  0  0  0  0  0  0  0
    1.1909   -3.0359    3.3931 C   0  0  0  0  0  0  0  0  0  0  0  0
    2.3485   -3.3057    3.9822 F   0  0  0  0  0  0  0  0  0  0  0  0
    0.3464   -2.5013    4.2514 F   0  0  0  0  0  0  0  0  0  0  0  0
    0.6798   -4.1328    2.8560 F   0  0  0  0  0  0  0  0  0  0  0  0
    1.8938   -3.0369   -0.9059 H   0  0  0  0  0  0  0  0  0  0  0  0
  2  1  3  0  0  0  0
  3  4  1  0  0  0  0
  3 26  1  0  0  0  0
  6 12  1  0  0  0  0
  6 11  2  0  0  0  0
  7  6  1  0  0  0  0
  8  7  1  0  0  0  0
  8  9  2  0  0  0  0
  9 10  1  0  0  0  0
 10 16  1  1  0  0  0
 10  3  1  0  0  0  0
 10 11  1  0  0  0  0
 11 17  1  0  0  0  0
 13  7  1  0  0  0  0
 14  8  1  0  0  0  0
 15  9  1  0  0  0  0
 18 21  1  0  0  0  0
 18 22  1  0  0  0  0
 19 18  2  0  0  0  0
 20 18  2  0  0  0  0
 21  5  1  0  0  0  0
 22 23  1  0  0  0  0
 22 24  1  0  0  0  0
 25 22  1  0  0  0  0
M  RAD  1   7   2
M  END
