Coordinates from ORCA-job C6H6+HOTf+NH2--N2+-scan
 OpenBabel10191813343D

 26 24  0  0  1  0  0  0  0  0999 V2000
    0.9901   -6.8336   -2.3294 N   0  0  0  0  0  0  0  0  0  0  0  0
    0.9122   -7.9246   -2.3903 N   0  0  0  0  0  0  0  0  0  0  0  0
    2.3198   -2.3791   -1.8239 N   0  0  0  0  0  0  0  0  0  0  0  0
    2.0746   -3.3608   -1.8998 H   0  0  0  0  0  0  0  0  0  0  0  0
    2.4309    0.0499    3.1783 H   0  0  0  0  0  0  0  0  0  0  0  0
   -1.1936   -1.2589   -2.5190 C   0  0  0  0  0  0  0  0  0  0  0  0
   -1.0473   -1.0457   -3.9029 C   0  0  0  0  0  0  0  0  0  0  0  0
    0.1996   -1.0999   -4.5552 C   0  0  0  0  0  0  0  0  0  0  0  0
    1.3235   -1.3875   -3.8254 C   0  0  0  0  0  0  0  0  0  0  0  0
    1.2728   -1.5354   -2.3564 C   0  0  1  0  0  0  0  0  0  0  0  0
   -0.0868   -1.5417   -1.7592 C   0  0  0  0  0  0  0  0  0  0  0  0
   -2.1795   -1.2284   -2.0708 H   0  0  0  0  0  0  0  0  0  0  0  0
   -1.9347   -0.8398   -4.4942 H   0  0  0  0  0  0  0  0  0  0  0  0
    0.2555   -0.9504   -5.6264 H   0  0  0  0  0  0  0  0  0  0  0  0
    2.3046   -1.4721   -4.2805 H   0  0  0  0  0  0  0  0  0  0  0  0
    1.5528   -0.4701   -2.0998 H   0  0  0  0  0  0  0  0  0  0  0  0
   -0.1635   -1.7091   -0.6879 H   0  0  0  0  0  0  0  0  0  0  0  0
    1.4866   -1.5507    2.0816 S   0  0  0  0  0  0  0  0  0  0  0  0
    0.1563   -1.6354    1.5202 O   0  0  0  0  0  0  0  0  0  0  0  0
    2.6612   -1.5777    1.2233 O   0  0  0  0  0  0  0  0  0  0  0  0
    1.5175   -0.2429    3.0192 O   0  0  0  0  0  0  0  0  0  0  0  0
    1.6747   -2.9190    3.3744 C   0  0  0  0  0  0  0  0  0  0  0  0
    2.7860   -2.6898    4.0618 F   0  0  0  0  0  0  0  0  0  0  0  0
    0.6261   -2.9137    4.1724 F   0  0  0  0  0  0  0  0  0  0  0  0
    1.7626   -4.0714    2.7274 F   0  0  0  0  0  0  0  0  0  0  0  0
    2.5477   -2.1644   -0.8572 H   0  0  0  0  0  0  0  0  0  0  0  0
  2  1  3  0  0  0  0
  3 26  1  0  0  0  0
  4  3  1  0  0  0  0
  6 12  1  0  0  0  0
  6 11  2  0  0  0  0
  7  6  1  0  0  0  0
  8  7  1  0  0  0  0
  8  9  2  0  0  0  0
  9 10  1  0  0  0  0
 10 16  1  1  0  0  0
 10  3  1  0  0  0  0
 10 11  1  0  0  0  0
 11 17  1  0  0  0  0
 13  7  1  0  0  0  0
 14  8  1  0  0  0  0
 15  9  1  0  0  0  0
 18 21  1  0  0  0  0
 18 22  1  0  0  0  0
 19 18  2  0  0  0  0
 20 18  2  0  0  0  0
 21  5  1  0  0  0  0
 22 23  1  0  0  0  0
 22 24  1  0  0  0  0
 25 22  1  0  0  0  0
M  RAD  1   7   2
M  END
