Coordinates from ORCA-job C6H6+HOTf+NH2--N2+-scan
 OpenBabel10191813343D

 26 24  0  0  1  0  0  0  0  0999 V2000
    0.6552   -8.3158   -2.7547 N   0  0  0  0  0  0  0  0  0  0  0  0
    0.6138   -9.4067   -2.8464 N   0  0  0  0  0  0  0  0  0  0  0  0
    2.3971   -2.1521   -1.7780 N   0  0  0  0  0  0  0  0  0  0  0  0
    2.2136   -3.1460   -1.8629 H   0  0  0  0  0  0  0  0  0  0  0  0
    2.3128    0.2147    3.2525 H   0  0  0  0  0  0  0  0  0  0  0  0
   -1.1715   -1.2436   -2.4992 C   0  0  0  0  0  0  0  0  0  0  0  0
   -1.0257   -1.0118   -3.8803 C   0  0  0  0  0  0  0  0  0  0  0  0
    0.2282   -0.9842   -4.5207 C   0  0  0  0  0  0  0  0  0  0  0  0
    1.3609   -1.2073   -3.7820 C   0  0  0  0  0  0  0  0  0  0  0  0
    1.3056   -1.3690   -2.3145 C   0  0  1  0  0  0  0  0  0  0  0  0
   -0.0566   -1.4631   -1.7305 C   0  0  0  0  0  0  0  0  0  0  0  0
   -2.1616   -1.2772   -2.0605 H   0  0  0  0  0  0  0  0  0  0  0  0
   -1.9186   -0.8568   -4.4788 H   0  0  0  0  0  0  0  0  0  0  0  0
    0.2847   -0.8236   -5.5903 H   0  0  0  0  0  0  0  0  0  0  0  0
    2.3495   -1.2282   -4.2282 H   0  0  0  0  0  0  0  0  0  0  0  0
    1.5185   -0.2911   -2.0472 H   0  0  0  0  0  0  0  0  0  0  0  0
   -0.1329   -1.6428   -0.6611 H   0  0  0  0  0  0  0  0  0  0  0  0
    1.4791   -1.4257    2.1253 S   0  0  0  0  0  0  0  0  0  0  0  0
    0.1621   -1.5840    1.5485 O   0  0  0  0  0  0  0  0  0  0  0  0
    2.6614   -1.3698    1.2790 O   0  0  0  0  0  0  0  0  0  0  0  0
    1.4206   -0.1309    3.0793 O   0  0  0  0  0  0  0  0  0  0  0  0
    1.7378   -2.7971    3.4027 C   0  0  0  0  0  0  0  0  0  0  0  0
    2.8259   -2.5093    4.1049 F   0  0  0  0  0  0  0  0  0  0  0  0
    0.6829   -2.8664    4.1892 F   0  0  0  0  0  0  0  0  0  0  0  0
    1.9027   -3.9331    2.7421 F   0  0  0  0  0  0  0  0  0  0  0  0
    2.6039   -1.9313   -0.8078 H   0  0  0  0  0  0  0  0  0  0  0  0
  2  1  3  0  0  0  0
  3 26  1  0  0  0  0
  4  3  1  0  0  0  0
  6 12  1  0  0  0  0
  6 11  2  0  0  0  0
  7  6  1  0  0  0  0
  8  7  1  0  0  0  0
  8  9  2  0  0  0  0
  9 10  1  0  0  0  0
 10 16  1  1  0  0  0
 10  3  1  0  0  0  0
 10 11  1  0  0  0  0
 11 17  1  0  0  0  0
 13  7  1  0  0  0  0
 14  8  1  0  0  0  0
 15  9  1  0  0  0  0
 18 21  1  0  0  0  0
 18 22  1  0  0  0  0
 19 18  2  0  0  0  0
 20 18  2  0  0  0  0
 21  5  1  0  0  0  0
 22 23  1  0  0  0  0
 22 24  1  0  0  0  0
 25 22  1  0  0  0  0
M  RAD  1   7   2
M  END
