Coordinates from ORCA-job C6H6+HOTf+NH2--N2+-scan
 OpenBabel10191813343D

 26 24  0  0  0  0  0  0  0  0999 V2000
    1.0976   -4.5087   -1.7818 N   0  0  0  0  0  0  0  0  0  0  0  0
    0.7657   -5.5206   -2.0678 N   0  0  0  0  0  0  0  0  0  0  0  0
    1.7131   -3.1998   -1.5777 N   0  0  0  0  0  0  0  0  0  0  0  0
    0.9646   -2.5156   -1.8418 H   0  0  0  0  0  0  0  0  0  0  0  0
    3.9147   -1.9024    2.6623 H   0  0  0  0  0  0  0  0  0  0  0  0
   -1.0258   -1.7514   -2.7662 C   0  0  0  0  0  0  0  0  0  0  0  0
   -0.6191   -2.1220   -4.0512 C   0  0  0  0  0  0  0  0  0  0  0  0
    0.5079   -1.5294   -4.6250 C   0  0  0  0  0  0  0  0  0  0  0  0
    1.2300   -0.5669   -3.9185 C   0  0  0  0  0  0  0  0  0  0  0  0
    0.8288   -0.1952   -2.6341 C   0  0  0  0  0  0  0  0  0  0  0  0
   -0.2994   -0.7880   -2.0532 C   0  0  0  0  0  0  0  0  0  0  0  0
   -1.9226   -2.1818   -2.3331 H   0  0  0  0  0  0  0  0  0  0  0  0
   -1.1967   -2.8464   -4.6147 H   0  0  0  0  0  0  0  0  0  0  0  0
    0.8119   -1.8050   -5.6283 H   0  0  0  0  0  0  0  0  0  0  0  0
    2.0950   -0.0974   -4.3723 H   0  0  0  0  0  0  0  0  0  0  0  0
    1.3762    0.5676   -2.0921 H   0  0  0  0  0  0  0  0  0  0  0  0
   -0.6278   -0.4771   -1.0673 H   0  0  0  0  0  0  0  0  0  0  0  0
    1.8311   -2.0544    2.1036 S   0  0  0  0  0  0  0  0  0  0  0  0
    0.8670   -1.0491    1.7499 O   0  0  0  0  0  0  0  0  0  0  0  0
    2.2394   -3.0772    1.1278 O   0  0  0  0  0  0  0  0  0  0  0  0
    3.1396   -1.3146    2.6609 O   0  0  0  0  0  0  0  0  0  0  0  0
    1.2505   -2.9994    3.6414 C   0  0  0  0  0  0  0  0  0  0  0  0
    2.2732   -3.7138    4.0921 F   0  0  0  0  0  0  0  0  0  0  0  0
    0.8459   -2.1374    4.5470 F   0  0  0  0  0  0  0  0  0  0  0  0
    0.2601   -3.7936    3.2687 F   0  0  0  0  0  0  0  0  0  0  0  0
    1.9284   -3.1724   -0.5486 H   0  0  0  0  0  0  0  0  0  0  0  0
  1  3  1  0  0  0  0
  2  1  1  0  0  0  0
  3 26  1  0  0  0  0
  4  3  1  0  0  0  0
  6 12  1  0  0  0  0
  6 11  2  0  0  0  0
  7  6  1  0  0  0  0
  8  7  2  0  0  0  0
  8  9  1  0  0  0  0
  9 10  2  0  0  0  0
 10 16  1  0  0  0  0
 10 11  1  0  0  0  0
 11 17  1  0  0  0  0
 13  7  1  0  0  0  0
 14  8  1  0  0  0  0
 15  9  1  0  0  0  0
 18 21  1  0  0  0  0
 18 22  1  0  0  0  0
 19 18  2  0  0  0  0
 20 18  2  0  0  0  0
 21  5  1  0  0  0  0
 22 23  1  0  0  0  0
 22 24  1  0  0  0  0
 25 22  1  0  0  0  0
M  RAD  2   1   2   2   3
M  END
