Coordinates from ORCA-job C6H6+HOTf+NH2--N2+-scan
 OpenBabel10191813343D

 26 24  0  0  1  0  0  0  0  0999 V2000
    0.6084   -8.5771   -2.8249 N   0  0  0  0  0  0  0  0  0  0  0  0
    0.5722   -9.6679   -2.9200 N   0  0  0  0  0  0  0  0  0  0  0  0
    2.4073   -2.1155   -1.7709 N   0  0  0  0  0  0  0  0  0  0  0  0
    2.2323   -3.1108   -1.8572 H   0  0  0  0  0  0  0  0  0  0  0  0
    2.2969    0.2400    3.2643 H   0  0  0  0  0  0  0  0  0  0  0  0
   -1.1678   -1.2358   -2.4955 C   0  0  0  0  0  0  0  0  0  0  0  0
   -1.0223   -1.0012   -3.8761 C   0  0  0  0  0  0  0  0  0  0  0  0
    0.2321   -0.9624   -4.5149 C   0  0  0  0  0  0  0  0  0  0  0  0
    1.3657   -1.1770   -3.7751 C   0  0  0  0  0  0  0  0  0  0  0  0
    1.3100   -1.3409   -2.3079 C   0  0  1  0  0  0  0  0  0  0  0  0
   -0.0521   -1.4470   -1.7256 C   0  0  0  0  0  0  0  0  0  0  0  0
   -2.1581   -1.2782   -2.0580 H   0  0  0  0  0  0  0  0  0  0  0  0
   -1.9157   -0.8529   -4.4755 H   0  0  0  0  0  0  0  0  0  0  0  0
    0.2886   -0.8001   -5.5843 H   0  0  0  0  0  0  0  0  0  0  0  0
    2.3550   -1.1891   -4.2201 H   0  0  0  0  0  0  0  0  0  0  0  0
    1.5136   -0.2615   -2.0390 H   0  0  0  0  0  0  0  0  0  0  0  0
   -0.1282   -1.6286   -0.6566 H   0  0  0  0  0  0  0  0  0  0  0  0
    1.4782   -1.4048    2.1323 S   0  0  0  0  0  0  0  0  0  0  0  0
    0.1635   -1.5727    1.5533 O   0  0  0  0  0  0  0  0  0  0  0  0
    2.6613   -1.3374    1.2879 O   0  0  0  0  0  0  0  0  0  0  0  0
    1.4078   -0.1126    3.0890 O   0  0  0  0  0  0  0  0  0  0  0  0
    1.7463   -2.7768    3.4072 C   0  0  0  0  0  0  0  0  0  0  0  0
    2.8311   -2.4817    4.1115 F   0  0  0  0  0  0  0  0  0  0  0  0
    0.6909   -2.8564    4.1920 F   0  0  0  0  0  0  0  0  0  0  0  0
    1.9214   -3.9100    2.7444 F   0  0  0  0  0  0  0  0  0  0  0  0
    2.6112   -1.8941   -0.8003 H   0  0  0  0  0  0  0  0  0  0  0  0
  2  1  3  0  0  0  0
  3 26  1  0  0  0  0
  4  3  1  0  0  0  0
  6 12  1  0  0  0  0
  6 11  2  0  0  0  0
  7  6  1  0  0  0  0
  8  7  1  0  0  0  0
  8  9  2  0  0  0  0
  9 10  1  0  0  0  0
 10 16  1  1  0  0  0
 10  3  1  0  0  0  0
 10 11  1  0  0  0  0
 11 17  1  0  0  0  0
 13  7  1  0  0  0  0
 14  8  1  0  0  0  0
 15  9  1  0  0  0  0
 18 21  1  0  0  0  0
 18 22  1  0  0  0  0
 19 18  2  0  0  0  0
 20 18  2  0  0  0  0
 21  5  1  0  0  0  0
 22 23  1  0  0  0  0
 22 24  1  0  0  0  0
 25 22  1  0  0  0  0
M  RAD  1   7   2
M  END
