Coordinates from ORCA-job C6H6+HOTf+NH2--N2+-scan
 OpenBabel10191813343D

 26 24  0  0  0  0  0  0  0  0999 V2000
    1.0829   -4.4701   -1.7923 N   0  0  0  0  0  0  0  0  0  0  0  0
    0.8004   -5.4884   -2.1180 N   0  0  0  0  0  0  0  0  0  0  0  0
    1.5756   -3.2012   -1.5077 N   0  0  0  0  0  0  0  0  0  0  0  0
    0.8545   -2.5035   -1.8083 H   0  0  0  0  0  0  0  0  0  0  0  0
    3.9905   -2.0257    2.6431 H   0  0  0  0  0  0  0  0  0  0  0  0
   -1.0573   -1.7742   -2.8580 C   0  0  0  0  0  0  0  0  0  0  0  0
   -0.5763   -2.1425   -4.1177 C   0  0  0  0  0  0  0  0  0  0  0  0
    0.5682   -1.5308   -4.6338 C   0  0  0  0  0  0  0  0  0  0  0  0
    1.2339   -0.5515   -3.8951 C   0  0  0  0  0  0  0  0  0  0  0  0
    0.7587   -0.1820   -2.6360 C   0  0  0  0  0  0  0  0  0  0  0  0
   -0.3869   -0.7945   -2.1124 C   0  0  0  0  0  0  0  0  0  0  0  0
   -1.9677   -2.2194   -2.4706 H   0  0  0  0  0  0  0  0  0  0  0  0
   -1.1097   -2.8799   -4.7073 H   0  0  0  0  0  0  0  0  0  0  0  0
    0.9300   -1.8046   -5.6182 H   0  0  0  0  0  0  0  0  0  0  0  0
    2.1125   -0.0676   -4.3053 H   0  0  0  0  0  0  0  0  0  0  0  0
    1.2626    0.5926   -2.0692 H   0  0  0  0  0  0  0  0  0  0  0  0
   -0.7746   -0.4836   -1.1482 H   0  0  0  0  0  0  0  0  0  0  0  0
    1.8872   -2.0526    2.1411 S   0  0  0  0  0  0  0  0  0  0  0  0
    0.9738   -0.9921    1.8165 O   0  0  0  0  0  0  0  0  0  0  0  0
    2.2108   -3.0927    1.1506 O   0  0  0  0  0  0  0  0  0  0  0  0
    3.2512   -1.3939    2.6652 O   0  0  0  0  0  0  0  0  0  0  0  0
    1.2952   -2.9730    3.6897 C   0  0  0  0  0  0  0  0  0  0  0  0
    2.2873   -3.7480    4.1077 F   0  0  0  0  0  0  0  0  0  0  0  0
    0.9670   -2.0946    4.6103 F   0  0  0  0  0  0  0  0  0  0  0  0
    0.2507   -3.7059    3.3411 F   0  0  0  0  0  0  0  0  0  0  0  0
    1.8292   -3.1726   -0.4871 H   0  0  0  0  0  0  0  0  0  0  0  0
  1  3  1  0  0  0  0
  2  1  1  0  0  0  0
  3 26  1  0  0  0  0
  4  3  1  0  0  0  0
  5 21  1  0  0  0  0
  6 12  1  0  0  0  0
  6 11  2  0  0  0  0
  7  6  1  0  0  0  0
  8  7  2  0  0  0  0
  8  9  1  0  0  0  0
  9 10  2  0  0  0  0
 10 11  1  0  0  0  0
 10 16  1  0  0  0  0
 11 17  1  0  0  0  0
 13  7  1  0  0  0  0
 14  8  1  0  0  0  0
 15  9  1  0  0  0  0
 18 21  1  0  0  0  0
 18 22  1  0  0  0  0
 19 18  2  0  0  0  0
 20 18  2  0  0  0  0
 22 23  1  0  0  0  0
 22 24  1  0  0  0  0
 25 22  1  0  0  0  0
M  RAD  2   1   2   2   3
M  END
