Coordinates from ORCA-job C6H6+HOTf+NH2--N2+-scan
 OpenBabel10191813343D

 26 24  0  0  1  0  0  0  0  0999 V2000
    1.0628   -6.5036   -2.2548 N   0  0  0  0  0  0  0  0  0  0  0  0
    0.9757   -7.5941   -2.3109 N   0  0  0  0  0  0  0  0  0  0  0  0
    2.3008   -2.4332   -1.8318 N   0  0  0  0  0  0  0  0  0  0  0  0
    2.0402   -3.4115   -1.9041 H   0  0  0  0  0  0  0  0  0  0  0  0
    2.4553    0.0175    3.1609 H   0  0  0  0  0  0  0  0  0  0  0  0
   -1.1974   -1.2634   -2.5224 C   0  0  0  0  0  0  0  0  0  0  0  0
   -1.0508   -1.0547   -3.9069 C   0  0  0  0  0  0  0  0  0  0  0  0
    0.1938   -1.1284   -4.5615 C   0  0  0  0  0  0  0  0  0  0  0  0
    1.3149   -1.4312   -3.8334 C   0  0  0  0  0  0  0  0  0  0  0  0
    1.2650   -1.5758   -2.3641 C   0  0  1  0  0  0  0  0  0  0  0  0
   -0.0933   -1.5611   -1.7642 C   0  0  0  0  0  0  0  0  0  0  0  0
   -2.1819   -1.2177   -2.0723 H   0  0  0  0  0  0  0  0  0  0  0  0
   -1.9362   -0.8365   -4.4967 H   0  0  0  0  0  0  0  0  0  0  0  0
    0.2498   -0.9814   -5.6331 H   0  0  0  0  0  0  0  0  0  0  0  0
    2.2938   -1.5310   -4.2901 H   0  0  0  0  0  0  0  0  0  0  0  0
    1.5605   -0.5139   -2.1104 H   0  0  0  0  0  0  0  0  0  0  0  0
   -0.1703   -1.7256   -0.6926 H   0  0  0  0  0  0  0  0  0  0  0  0
    1.4885   -1.5758    2.0733 S   0  0  0  0  0  0  0  0  0  0  0  0
    0.1560   -1.6462    1.5153 O   0  0  0  0  0  0  0  0  0  0  0  0
    2.6608   -1.6213    1.2127 O   0  0  0  0  0  0  0  0  0  0  0  0
    1.5379   -0.2647    3.0054 O   0  0  0  0  0  0  0  0  0  0  0  0
    1.6622   -2.9409    3.3715 C   0  0  0  0  0  0  0  0  0  0  0  0
    2.7780   -2.7231    4.0553 F   0  0  0  0  0  0  0  0  0  0  0  0
    0.6157   -2.9188    4.1720 F   0  0  0  0  0  0  0  0  0  0  0  0
    1.7338   -4.0971    2.7293 F   0  0  0  0  0  0  0  0  0  0  0  0
    2.5339   -2.2187   -0.8664 H   0  0  0  0  0  0  0  0  0  0  0  0
  2  1  3  0  0  0  0
  3 26  1  0  0  0  0
  4  3  1  0  0  0  0
  6 12  1  0  0  0  0
  6 11  2  0  0  0  0
  7  6  1  0  0  0  0
  8  7  1  0  0  0  0
  8  9  2  0  0  0  0
  9 10  1  0  0  0  0
 10 16  1  1  0  0  0
 10  3  1  0  0  0  0
 10 11  1  0  0  0  0
 11 17  1  0  0  0  0
 13  7  1  0  0  0  0
 14  8  1  0  0  0  0
 15  9  1  0  0  0  0
 18 21  1  0  0  0  0
 18 22  1  0  0  0  0
 19 18  2  0  0  0  0
 20 18  2  0  0  0  0
 21  5  1  0  0  0  0
 22 23  1  0  0  0  0
 22 24  1  0  0  0  0
 25 22  1  0  0  0  0
M  RAD  1   7   2
M  END
