Coordinates from ORCA-job C6H6+HOTf+NH2--N2+-scan
 OpenBabel10191813343D

 26 24  0  0  1  0  0  0  0  0999 V2000
    1.1250   -6.3102   -2.2050 N   0  0  0  0  0  0  0  0  0  0  0  0
    1.0422   -7.4012   -2.2562 N   0  0  0  0  0  0  0  0  0  0  0  0
    2.2827   -2.4727   -1.8377 N   0  0  0  0  0  0  0  0  0  0  0  0
    2.0086   -3.4478   -1.9074 H   0  0  0  0  0  0  0  0  0  0  0  0
    2.4764   -0.0053    3.1475 H   0  0  0  0  0  0  0  0  0  0  0  0
   -1.2010   -1.2576   -2.5239 C   0  0  0  0  0  0  0  0  0  0  0  0
   -1.0539   -1.0521   -3.9088 C   0  0  0  0  0  0  0  0  0  0  0  0
    0.1885   -1.1430   -4.5654 C   0  0  0  0  0  0  0  0  0  0  0  0
    1.3067   -1.4600   -3.8388 C   0  0  0  0  0  0  0  0  0  0  0  0
    1.2574   -1.6026   -2.3694 C   0  0  1  0  0  0  0  0  0  0  0  0
   -0.0996   -1.5693   -1.7674 C   0  0  0  0  0  0  0  0  0  0  0  0
   -2.1839   -1.1983   -2.0722 H   0  0  0  0  0  0  0  0  0  0  0  0
   -1.9373   -0.8226   -4.4974 H   0  0  0  0  0  0  0  0  0  0  0  0
    0.2447   -0.9977   -5.6372 H   0  0  0  0  0  0  0  0  0  0  0  0
    2.2834   -1.5732   -4.2971 H   0  0  0  0  0  0  0  0  0  0  0  0
    1.5669   -0.5442   -2.1176 H   0  0  0  0  0  0  0  0  0  0  0  0
   -0.1768   -1.7317   -0.6954 H   0  0  0  0  0  0  0  0  0  0  0  0
    1.4901   -1.5917    2.0672 S   0  0  0  0  0  0  0  0  0  0  0  0
    0.1558   -1.6493    1.5120 O   0  0  0  0  0  0  0  0  0  0  0  0
    2.6603   -1.6529    1.2048 O   0  0  0  0  0  0  0  0  0  0  0  0
    1.5557   -0.2781    2.9950 O   0  0  0  0  0  0  0  0  0  0  0  0
    1.6511   -2.9542    3.3697 C   0  0  0  0  0  0  0  0  0  0  0  0
    2.7707   -2.7467    4.0506 F   0  0  0  0  0  0  0  0  0  0  0  0
    0.6066   -2.9177    4.1722 F   0  0  0  0  0  0  0  0  0  0  0  0
    1.7085   -4.1133    2.7313 F   0  0  0  0  0  0  0  0  0  0  0  0
    2.5208   -2.2589   -0.8733 H   0  0  0  0  0  0  0  0  0  0  0  0
  2  1  3  0  0  0  0
  3 26  1  0  0  0  0
  4  3  1  0  0  0  0
  6 12  1  0  0  0  0
  6 11  2  0  0  0  0
  7  6  1  0  0  0  0
  8  7  1  0  0  0  0
  8  9  2  0  0  0  0
  9 10  1  0  0  0  0
 10 16  1  1  0  0  0
 10  3  1  0  0  0  0
 10 11  1  0  0  0  0
 11 17  1  0  0  0  0
 13  7  1  0  0  0  0
 14  8  1  0  0  0  0
 15  9  1  0  0  0  0
 18 21  1  0  0  0  0
 18 22  1  0  0  0  0
 19 18  2  0  0  0  0
 20 18  2  0  0  0  0
 21  5  1  0  0  0  0
 22 23  1  0  0  0  0
 22 24  1  0  0  0  0
 25 22  1  0  0  0  0
M  RAD  1   7   2
M  END
