Coordinates from ORCA-job C6H6+HOTf+NH2--N2+-scan
 OpenBabel10191813343D

 26 24  0  0  1  0  0  0  0  0999 V2000
    1.1950   -6.1321   -2.1560 N   0  0  0  0  0  0  0  0  0  0  0  0
    1.1273   -7.2244   -2.1997 N   0  0  0  0  0  0  0  0  0  0  0  0
    2.2610   -2.5141   -1.8442 N   0  0  0  0  0  0  0  0  0  0  0  0
    1.9720   -3.4852   -1.9114 H   0  0  0  0  0  0  0  0  0  0  0  0
    2.5009   -0.0295    3.1330 H   0  0  0  0  0  0  0  0  0  0  0  0
   -1.2049   -1.2462   -2.5249 C   0  0  0  0  0  0  0  0  0  0  0  0
   -1.0576   -1.0444   -3.9103 C   0  0  0  0  0  0  0  0  0  0  0  0
    0.1819   -1.1553   -4.5692 C   0  0  0  0  0  0  0  0  0  0  0  0
    1.2965   -1.4890   -3.8446 C   0  0  0  0  0  0  0  0  0  0  0  0
    1.2481   -1.6296   -2.3750 C   0  0  1  0  0  0  0  0  0  0  0  0
   -0.1070   -1.5744   -1.7703 C   0  0  0  0  0  0  0  0  0  0  0  0
   -2.1859   -1.1711   -2.0712 H   0  0  0  0  0  0  0  0  0  0  0  0
   -1.9384   -0.8015   -4.4972 H   0  0  0  0  0  0  0  0  0  0  0  0
    0.2381   -1.0118   -5.6413 H   0  0  0  0  0  0  0  0  0  0  0  0
    2.2705   -1.6175   -4.3047 H   0  0  0  0  0  0  0  0  0  0  0  0
    1.5737   -0.5752   -2.1255 H   0  0  0  0  0  0  0  0  0  0  0  0
   -0.1844   -1.7344   -0.6981 H   0  0  0  0  0  0  0  0  0  0  0  0
    1.4921   -1.6072    2.0609 S   0  0  0  0  0  0  0  0  0  0  0  0
    0.1560   -1.6497    1.5086 O   0  0  0  0  0  0  0  0  0  0  0  0
    2.6598   -1.6869    1.1967 O   0  0  0  0  0  0  0  0  0  0  0  0
    1.5764   -0.2910    2.9837 O   0  0  0  0  0  0  0  0  0  0  0  0
    1.6379   -2.9666    3.3684 C   0  0  0  0  0  0  0  0  0  0  0  0
    2.7615   -2.7713    4.0462 F   0  0  0  0  0  0  0  0  0  0  0  0
    0.5955   -2.9134    4.1729 F   0  0  0  0  0  0  0  0  0  0  0  0
    1.6787   -4.1289    2.7343 F   0  0  0  0  0  0  0  0  0  0  0  0
    2.5050   -2.3015   -0.8811 H   0  0  0  0  0  0  0  0  0  0  0  0
  2  1  3  0  0  0  0
  3 26  1  0  0  0  0
  4  3  1  0  0  0  0
  6 12  1  0  0  0  0
  6 11  2  0  0  0  0
  7  6  1  0  0  0  0
  8  7  1  0  0  0  0
  8  9  2  0  0  0  0
  9 10  1  0  0  0  0
 10 16  1  1  0  0  0
 10  3  1  0  0  0  0
 10 11  1  0  0  0  0
 11 17  1  0  0  0  0
 13  7  1  0  0  0  0
 14  8  1  0  0  0  0
 15  9  1  0  0  0  0
 18 21  1  0  0  0  0
 18 22  1  0  0  0  0
 19 18  2  0  0  0  0
 20 18  2  0  0  0  0
 21  5  1  0  0  0  0
 22 23  1  0  0  0  0
 22 24  1  0  0  0  0
 25 22  1  0  0  0  0
M  RAD  1   7   2
M  END
