Coordinates from ORCA-job C6H6+HOTf+NH2--N2+-scan
 OpenBabel10191813343D

 26 24  0  0  1  0  0  0  0  0999 V2000
    0.7703   -7.7687   -2.5954 N   0  0  0  0  0  0  0  0  0  0  0  0
    0.7164   -8.8599   -2.6776 N   0  0  0  0  0  0  0  0  0  0  0  0
    2.3714   -2.2330   -1.7948 N   0  0  0  0  0  0  0  0  0  0  0  0
    2.1670   -3.2230   -1.8770 H   0  0  0  0  0  0  0  0  0  0  0  0
    2.3529    0.1558    3.2262 H   0  0  0  0  0  0  0  0  0  0  0  0
   -1.1799   -1.2526   -2.5071 C   0  0  0  0  0  0  0  0  0  0  0  0
   -1.0337   -1.0269   -3.8891 C   0  0  0  0  0  0  0  0  0  0  0  0
    0.2185   -1.0267   -4.5335 C   0  0  0  0  0  0  0  0  0  0  0  0
    1.3486   -1.2717   -3.7978 C   0  0  0  0  0  0  0  0  0  0  0  0
    1.2946   -1.4288   -2.3298 C   0  0  1  0  0  0  0  0  0  0  0  0
   -0.0674   -1.4934   -1.7413 C   0  0  0  0  0  0  0  0  0  0  0  0
   -2.1691   -1.2646   -2.0653 H   0  0  0  0  0  0  0  0  0  0  0  0
   -1.9250   -0.8548   -4.4852 H   0  0  0  0  0  0  0  0  0  0  0  0
    0.2749   -0.8698   -5.6037 H   0  0  0  0  0  0  0  0  0  0  0  0
    2.3352   -1.3140   -4.2470 H   0  0  0  0  0  0  0  0  0  0  0  0
    1.5304   -0.3548   -2.0658 H   0  0  0  0  0  0  0  0  0  0  0  0
   -0.1440   -1.6690   -0.6714 H   0  0  0  0  0  0  0  0  0  0  0  0
    1.4814   -1.4718    2.1091 S   0  0  0  0  0  0  0  0  0  0  0  0
    0.1593   -1.6054    1.5378 O   0  0  0  0  0  0  0  0  0  0  0  0
    2.6616   -1.4440    1.2585 O   0  0  0  0  0  0  0  0  0  0  0  0
    1.4531   -0.1720    3.0577 O   0  0  0  0  0  0  0  0  0  0  0  0
    1.7163   -2.8427    3.3918 C   0  0  0  0  0  0  0  0  0  0  0  0
    2.8127   -2.5744    4.0889 F   0  0  0  0  0  0  0  0  0  0  0  0
    0.6630   -2.8868    4.1822 F   0  0  0  0  0  0  0  0  0  0  0  0
    1.8555   -3.9847    2.7356 F   0  0  0  0  0  0  0  0  0  0  0  0
    2.5854   -2.0143   -0.8257 H   0  0  0  0  0  0  0  0  0  0  0  0
  2  1  3  0  0  0  0
  3 26  1  0  0  0  0
  4  3  1  0  0  0  0
  6 12  1  0  0  0  0
  6 11  2  0  0  0  0
  7  6  1  0  0  0  0
  8  7  1  0  0  0  0
  8  9  2  0  0  0  0
  9 10  1  0  0  0  0
 10 16  1  1  0  0  0
 10  3  1  0  0  0  0
 10 11  1  0  0  0  0
 11 17  1  0  0  0  0
 13  7  1  0  0  0  0
 14  8  1  0  0  0  0
 15  9  1  0  0  0  0
 18 21  1  0  0  0  0
 18 22  1  0  0  0  0
 19 18  2  0  0  0  0
 20 18  2  0  0  0  0
 21  5  1  0  0  0  0
 22 23  1  0  0  0  0
 22 24  1  0  0  0  0
 25 22  1  0  0  0  0
M  RAD  1   7   2
M  END
