Coordinates from ORCA-job C6H6+HOTf+NH2--N2+-scan
 OpenBabel10191813343D

 26 24  0  0  1  0  0  0  0  0999 V2000
    0.7796   -7.7276   -2.5831 N   0  0  0  0  0  0  0  0  0  0  0  0
    0.7247   -8.8188   -2.6645 N   0  0  0  0  0  0  0  0  0  0  0  0
    2.3693   -2.2392   -1.7961 N   0  0  0  0  0  0  0  0  0  0  0  0
    2.1632   -3.2290   -1.8781 H   0  0  0  0  0  0  0  0  0  0  0  0
    2.3562    0.1512    3.2242 H   0  0  0  0  0  0  0  0  0  0  0  0
   -1.1806   -1.2530   -2.5077 C   0  0  0  0  0  0  0  0  0  0  0  0
   -1.0344   -1.0278   -3.8898 C   0  0  0  0  0  0  0  0  0  0  0  0
    0.2177   -1.0299   -4.5345 C   0  0  0  0  0  0  0  0  0  0  0  0
    1.3476   -1.2766   -3.7991 C   0  0  0  0  0  0  0  0  0  0  0  0
    1.2937   -1.4334   -2.3310 C   0  0  1  0  0  0  0  0  0  0  0  0
   -0.0682   -1.4956   -1.7422 C   0  0  0  0  0  0  0  0  0  0  0  0
   -2.1696   -1.2633   -2.0656 H   0  0  0  0  0  0  0  0  0  0  0  0
   -1.9255   -0.8543   -4.4857 H   0  0  0  0  0  0  0  0  0  0  0  0
    0.2741   -0.8733   -5.6047 H   0  0  0  0  0  0  0  0  0  0  0  0
    2.3340   -1.3207   -4.2485 H   0  0  0  0  0  0  0  0  0  0  0  0
    1.5314   -0.3597   -2.0672 H   0  0  0  0  0  0  0  0  0  0  0  0
   -0.1449   -1.6708   -0.6722 H   0  0  0  0  0  0  0  0  0  0  0  0
    1.4816   -1.4754    2.1079 S   0  0  0  0  0  0  0  0  0  0  0  0
    0.1592   -1.6069    1.5370 O   0  0  0  0  0  0  0  0  0  0  0  0
    2.6616   -1.4498    1.2570 O   0  0  0  0  0  0  0  0  0  0  0  0
    1.4558   -0.1751    3.0560 O   0  0  0  0  0  0  0  0  0  0  0  0
    1.7146   -2.8462    3.3909 C   0  0  0  0  0  0  0  0  0  0  0  0
    2.8116   -2.5795    4.0876 F   0  0  0  0  0  0  0  0  0  0  0  0
    0.6614   -2.8883    4.1817 F   0  0  0  0  0  0  0  0  0  0  0  0
    1.8516   -3.9887    2.7351 F   0  0  0  0  0  0  0  0  0  0  0  0
    2.5838   -2.0208   -0.8271 H   0  0  0  0  0  0  0  0  0  0  0  0
  2  1  3  0  0  0  0
  3 26  1  0  0  0  0
  4  3  1  0  0  0  0
  6 12  1  0  0  0  0
  6 11  2  0  0  0  0
  7  6  1  0  0  0  0
  8  7  1  0  0  0  0
  8  9  2  0  0  0  0
  9 10  1  0  0  0  0
 10 16  1  1  0  0  0
 10  3  1  0  0  0  0
 10 11  1  0  0  0  0
 11 17  1  0  0  0  0
 13  7  1  0  0  0  0
 14  8  1  0  0  0  0
 15  9  1  0  0  0  0
 18 21  1  0  0  0  0
 18 22  1  0  0  0  0
 19 18  2  0  0  0  0
 20 18  2  0  0  0  0
 21  5  1  0  0  0  0
 22 23  1  0  0  0  0
 22 24  1  0  0  0  0
 25 22  1  0  0  0  0
M  RAD  1   7   2
M  END
