Coordinates from ORCA-job C6H6+HOTf+NH2--N2+-scan
 OpenBabel10191813343D

 26 24  0  0  1  0  0  0  0  0999 V2000
    0.7053   -8.0659   -2.6834 N   0  0  0  0  0  0  0  0  0  0  0  0
    0.6584   -9.1569   -2.7711 N   0  0  0  0  0  0  0  0  0  0  0  0
    2.3860   -2.1884   -1.7854 N   0  0  0  0  0  0  0  0  0  0  0  0
    2.1934   -3.1807   -1.8691 H   0  0  0  0  0  0  0  0  0  0  0  0
    2.3301    0.1886    3.2407 H   0  0  0  0  0  0  0  0  0  0  0  0
   -1.1753   -1.2487   -2.5029 C   0  0  0  0  0  0  0  0  0  0  0  0
   -1.0293   -1.0197   -3.8843 C   0  0  0  0  0  0  0  0  0  0  0  0
    0.2240   -1.0040   -4.5265 C   0  0  0  0  0  0  0  0  0  0  0  0
    1.3556   -1.2365   -3.7891 C   0  0  0  0  0  0  0  0  0  0  0  0
    1.3009   -1.3962   -2.3213 C   0  0  1  0  0  0  0  0  0  0  0  0
   -0.0613   -1.4774   -1.7354 C   0  0  0  0  0  0  0  0  0  0  0  0
   -2.1650   -1.2729   -2.0628 H   0  0  0  0  0  0  0  0  0  0  0  0
   -1.9215   -0.8573   -4.4818 H   0  0  0  0  0  0  0  0  0  0  0  0
    0.2805   -0.8451   -5.5963 H   0  0  0  0  0  0  0  0  0  0  0  0
    2.3434   -1.2667   -4.2365 H   0  0  0  0  0  0  0  0  0  0  0  0
    1.5237   -0.3199   -2.0554 H   0  0  0  0  0  0  0  0  0  0  0  0
   -0.1378   -1.6553   -0.6658 H   0  0  0  0  0  0  0  0  0  0  0  0
    1.4800   -1.4465    2.1181 S   0  0  0  0  0  0  0  0  0  0  0  0
    0.1608   -1.5942    1.5437 O   0  0  0  0  0  0  0  0  0  0  0  0
    2.6615   -1.4028    1.2699 O   0  0  0  0  0  0  0  0  0  0  0  0
    1.4346   -0.1493    3.0696 O   0  0  0  0  0  0  0  0  0  0  0  0
    1.7285   -2.8176    3.3979 C   0  0  0  0  0  0  0  0  0  0  0  0
    2.8203   -2.5381    4.0978 F   0  0  0  0  0  0  0  0  0  0  0  0
    0.6742   -2.8759    4.1861 F   0  0  0  0  0  0  0  0  0  0  0  0
    1.8823   -3.9563    2.7393 F   0  0  0  0  0  0  0  0  0  0  0  0
    2.5959   -1.9685   -0.8157 H   0  0  0  0  0  0  0  0  0  0  0  0
  2  1  3  0  0  0  0
  3 26  1  0  0  0  0
  4  3  1  0  0  0  0
  6 12  1  0  0  0  0
  6 11  2  0  0  0  0
  7  6  1  0  0  0  0
  8  7  1  0  0  0  0
  8  9  2  0  0  0  0
  9 10  1  0  0  0  0
 10 16  1  1  0  0  0
 10  3  1  0  0  0  0
 10 11  1  0  0  0  0
 11 17  1  0  0  0  0
 13  7  1  0  0  0  0
 14  8  1  0  0  0  0
 15  9  1  0  0  0  0
 18 21  1  0  0  0  0
 18 22  1  0  0  0  0
 19 18  2  0  0  0  0
 20 18  2  0  0  0  0
 21  5  1  0  0  0  0
 22 23  1  0  0  0  0
 22 24  1  0  0  0  0
 25 22  1  0  0  0  0
M  RAD  1   7   2
M  END
