Coordinates from ORCA-job C6H6+HOTf+NH2--N2+-scan
 OpenBabel10191813343D

 26 24  0  0  1  0  0  0  0  0999 V2000
    0.8743   -7.3356   -2.4640 N   0  0  0  0  0  0  0  0  0  0  0  0
    0.8098   -8.4268   -2.5361 N   0  0  0  0  0  0  0  0  0  0  0  0
    2.3476   -2.3003   -1.8092 N   0  0  0  0  0  0  0  0  0  0  0  0
    2.1243   -3.2866   -1.8890 H   0  0  0  0  0  0  0  0  0  0  0  0
    2.3898    0.1053    3.2040 H   0  0  0  0  0  0  0  0  0  0  0  0
   -1.1868   -1.2545   -2.5131 C   0  0  0  0  0  0  0  0  0  0  0  0
   -1.0406   -1.0343   -3.8960 C   0  0  0  0  0  0  0  0  0  0  0  0
    0.2095   -1.0592   -4.5440 C   0  0  0  0  0  0  0  0  0  0  0  0
    1.3370   -1.3241   -3.8112 C   0  0  0  0  0  0  0  0  0  0  0  0
    1.2844   -1.4773   -2.3428 C   0  0  1  0  0  0  0  0  0  0  0  0
   -0.0767   -1.5150   -1.7502 C   0  0  0  0  0  0  0  0  0  0  0  0
   -2.1747   -1.2470   -2.0683 H   0  0  0  0  0  0  0  0  0  0  0  0
   -1.9302   -0.8464   -4.4897 H   0  0  0  0  0  0  0  0  0  0  0  0
    0.2657   -0.9054   -5.6146 H   0  0  0  0  0  0  0  0  0  0  0  0
    2.3212   -1.3860   -4.2632 H   0  0  0  0  0  0  0  0  0  0  0  0
    1.5410   -0.4073   -2.0818 H   0  0  0  0  0  0  0  0  0  0  0  0
   -0.1534   -1.6871   -0.6796 H   0  0  0  0  0  0  0  0  0  0  0  0
    1.4837   -1.5095    2.0957 S   0  0  0  0  0  0  0  0  0  0  0  0
    0.1575   -1.6198    1.5290 O   0  0  0  0  0  0  0  0  0  0  0  0
    2.6615   -1.5072    1.2414 O   0  0  0  0  0  0  0  0  0  0  0  0
    1.4833   -0.2060    3.0397 O   0  0  0  0  0  0  0  0  0  0  0  0
    1.6965   -2.8800    3.3825 C   0  0  0  0  0  0  0  0  0  0  0  0
    2.8001   -2.6302    4.0752 F   0  0  0  0  0  0  0  0  0  0  0  0
    0.6451   -2.9011    4.1765 F   0  0  0  0  0  0  0  0  0  0  0  0
    1.8117   -4.0268    2.7301 F   0  0  0  0  0  0  0  0  0  0  0  0
    2.5679   -2.0839   -0.8411 H   0  0  0  0  0  0  0  0  0  0  0  0
  2  1  3  0  0  0  0
  3 26  1  0  0  0  0
  4  3  1  0  0  0  0
  6 12  1  0  0  0  0
  6 11  2  0  0  0  0
  7  6  1  0  0  0  0
  8  7  1  0  0  0  0
  8  9  2  0  0  0  0
  9 10  1  0  0  0  0
 10 16  1  1  0  0  0
 10  3  1  0  0  0  0
 10 11  1  0  0  0  0
 11 17  1  0  0  0  0
 13  7  1  0  0  0  0
 14  8  1  0  0  0  0
 15  9  1  0  0  0  0
 18 21  1  0  0  0  0
 18 22  1  0  0  0  0
 19 18  2  0  0  0  0
 20 18  2  0  0  0  0
 21  5  1  0  0  0  0
 22 23  1  0  0  0  0
 22 24  1  0  0  0  0
 25 22  1  0  0  0  0
M  RAD  1   7   2
M  END
