Coordinates from ORCA-job C6H6+HOTf+NH2--N2+-scan
 OpenBabel10191813343D

 26 24  0  0  1  0  0  0  0  0999 V2000
    0.6847   -8.1655   -2.7123 N   0  0  0  0  0  0  0  0  0  0  0  0
    0.6401   -9.2565   -2.8017 N   0  0  0  0  0  0  0  0  0  0  0  0
    2.3906   -2.1738   -1.7824 N   0  0  0  0  0  0  0  0  0  0  0  0
    2.2017   -3.1667   -1.8666 H   0  0  0  0  0  0  0  0  0  0  0  0
    2.3230    0.1992    3.2455 H   0  0  0  0  0  0  0  0  0  0  0  0
   -1.1737   -1.2469   -2.5014 C   0  0  0  0  0  0  0  0  0  0  0  0
   -1.0278   -1.0168   -3.8827 C   0  0  0  0  0  0  0  0  0  0  0  0
    0.2257   -0.9962   -4.5241 C   0  0  0  0  0  0  0  0  0  0  0  0
    1.3578   -1.2249   -3.7862 C   0  0  0  0  0  0  0  0  0  0  0  0
    1.3028   -1.3853   -2.3186 C   0  0  1  0  0  0  0  0  0  0  0  0
   -0.0594   -1.4719   -1.7334 C   0  0  0  0  0  0  0  0  0  0  0  0
   -2.1636   -1.2750   -2.0619 H   0  0  0  0  0  0  0  0  0  0  0  0
   -1.9203   -0.8575   -4.4806 H   0  0  0  0  0  0  0  0  0  0  0  0
    0.2823   -0.8366   -5.5939 H   0  0  0  0  0  0  0  0  0  0  0  0
    2.3459   -1.2512   -4.2331 H   0  0  0  0  0  0  0  0  0  0  0  0
    1.5216   -0.3083   -2.0521 H   0  0  0  0  0  0  0  0  0  0  0  0
   -0.1358   -1.6504   -0.6639 H   0  0  0  0  0  0  0  0  0  0  0  0
    1.4796   -1.4381    2.1210 S   0  0  0  0  0  0  0  0  0  0  0  0
    0.1613   -1.5902    1.5456 O   0  0  0  0  0  0  0  0  0  0  0  0
    2.6615   -1.3894    1.2736 O   0  0  0  0  0  0  0  0  0  0  0  0
    1.4288   -0.1419    3.0735 O   0  0  0  0  0  0  0  0  0  0  0  0
    1.7323   -2.8093    3.3999 C   0  0  0  0  0  0  0  0  0  0  0  0
    2.8226   -2.5264    4.1007 F   0  0  0  0  0  0  0  0  0  0  0  0
    0.6778   -2.8721    4.1874 F   0  0  0  0  0  0  0  0  0  0  0  0
    1.8907   -3.9469    2.7405 F   0  0  0  0  0  0  0  0  0  0  0  0
    2.5992   -1.9535   -0.8125 H   0  0  0  0  0  0  0  0  0  0  0  0
  2  1  3  0  0  0  0
  3 26  1  0  0  0  0
  4  3  1  0  0  0  0
  6 12  1  0  0  0  0
  6 11  2  0  0  0  0
  7  6  1  0  0  0  0
  8  7  1  0  0  0  0
  8  9  2  0  0  0  0
  9 10  1  0  0  0  0
 10 16  1  1  0  0  0
 10  3  1  0  0  0  0
 10 11  1  0  0  0  0
 11 17  1  0  0  0  0
 13  7  1  0  0  0  0
 14  8  1  0  0  0  0
 15  9  1  0  0  0  0
 18 21  1  0  0  0  0
 18 22  1  0  0  0  0
 19 18  2  0  0  0  0
 20 18  2  0  0  0  0
 21  5  1  0  0  0  0
 22 23  1  0  0  0  0
 22 24  1  0  0  0  0
 25 22  1  0  0  0  0
M  RAD  1   7   2
M  END
