Coordinates from ORCA-job C6H6+HOTf+NH2--N2+-scan
 OpenBabel10191813343D

 26 24  0  0  1  0  0  0  0  0999 V2000
    0.7001   -8.0908   -2.6906 N   0  0  0  0  0  0  0  0  0  0  0  0
    0.6538   -9.1818   -2.7788 N   0  0  0  0  0  0  0  0  0  0  0  0
    2.3872   -2.1848   -1.7846 N   0  0  0  0  0  0  0  0  0  0  0  0
    2.1955   -3.1772   -1.8685 H   0  0  0  0  0  0  0  0  0  0  0  0
    2.3283    0.1913    3.2419 H   0  0  0  0  0  0  0  0  0  0  0  0
   -1.1749   -1.2483   -2.5025 C   0  0  0  0  0  0  0  0  0  0  0  0
   -1.0289   -1.0190   -3.8839 C   0  0  0  0  0  0  0  0  0  0  0  0
    0.2244   -1.0020   -4.5259 C   0  0  0  0  0  0  0  0  0  0  0  0
    1.3562   -1.2336   -3.7884 C   0  0  0  0  0  0  0  0  0  0  0  0
    1.3014   -1.3935   -2.3206 C   0  0  1  0  0  0  0  0  0  0  0  0
   -0.0609   -1.4761   -1.7349 C   0  0  0  0  0  0  0  0  0  0  0  0
   -2.1646   -1.2735   -2.0626 H   0  0  0  0  0  0  0  0  0  0  0  0
   -1.9212   -0.8574   -4.4815 H   0  0  0  0  0  0  0  0  0  0  0  0
    0.2810   -0.8430   -5.5957 H   0  0  0  0  0  0  0  0  0  0  0  0
    2.3441   -1.2628   -4.2357 H   0  0  0  0  0  0  0  0  0  0  0  0
    1.5232   -0.3170   -2.0546 H   0  0  0  0  0  0  0  0  0  0  0  0
   -0.1373   -1.6541   -0.6653 H   0  0  0  0  0  0  0  0  0  0  0  0
    1.4799   -1.4444    2.1188 S   0  0  0  0  0  0  0  0  0  0  0  0
    0.1609   -1.5932    1.5442 O   0  0  0  0  0  0  0  0  0  0  0  0
    2.6615   -1.3994    1.2708 O   0  0  0  0  0  0  0  0  0  0  0  0
    1.4332   -0.1474    3.0706 O   0  0  0  0  0  0  0  0  0  0  0  0
    1.7295   -2.8155    3.3984 C   0  0  0  0  0  0  0  0  0  0  0  0
    2.8209   -2.5351    4.0985 F   0  0  0  0  0  0  0  0  0  0  0  0
    0.6751   -2.8750    4.1864 F   0  0  0  0  0  0  0  0  0  0  0  0
    1.8845   -3.9540    2.7396 F   0  0  0  0  0  0  0  0  0  0  0  0
    2.5968   -1.9647   -0.8149 H   0  0  0  0  0  0  0  0  0  0  0  0
  2  1  3  0  0  0  0
  3 26  1  0  0  0  0
  4  3  1  0  0  0  0
  6 12  1  0  0  0  0
  6 11  2  0  0  0  0
  7  6  1  0  0  0  0
  8  7  1  0  0  0  0
  8  9  2  0  0  0  0
  9 10  1  0  0  0  0
 10 16  1  1  0  0  0
 10  3  1  0  0  0  0
 10 11  1  0  0  0  0
 11 17  1  0  0  0  0
 13  7  1  0  0  0  0
 14  8  1  0  0  0  0
 15  9  1  0  0  0  0
 18 21  1  0  0  0  0
 18 22  1  0  0  0  0
 19 18  2  0  0  0  0
 20 18  2  0  0  0  0
 21  5  1  0  0  0  0
 22 23  1  0  0  0  0
 22 24  1  0  0  0  0
 25 22  1  0  0  0  0
M  RAD  1   7   2
M  END
