Coordinates from ORCA-job C6H6+HOTf+NH2--N2+-scan
 OpenBabel10191813343D

 26 24  0  0  1  0  0  0  0  0999 V2000
    0.6334   -8.4334   -2.7869 N   0  0  0  0  0  0  0  0  0  0  0  0
    0.5944   -9.5243   -2.8803 N   0  0  0  0  0  0  0  0  0  0  0  0
    2.4019   -2.1355   -1.7747 N   0  0  0  0  0  0  0  0  0  0  0  0
    2.2223   -3.1300   -1.8602 H   0  0  0  0  0  0  0  0  0  0  0  0
    2.3054    0.2263    3.2579 H   0  0  0  0  0  0  0  0  0  0  0  0
   -1.1698   -1.2404   -2.4975 C   0  0  0  0  0  0  0  0  0  0  0  0
   -1.0242   -1.0074   -3.8784 C   0  0  0  0  0  0  0  0  0  0  0  0
    0.2300   -0.9745   -4.5180 C   0  0  0  0  0  0  0  0  0  0  0  0
    1.3631   -1.1937   -3.7789 C   0  0  0  0  0  0  0  0  0  0  0  0
    1.3077   -1.3563   -2.3115 C   0  0  1  0  0  0  0  0  0  0  0  0
   -0.0545   -1.4560   -1.7282 C   0  0  0  0  0  0  0  0  0  0  0  0
   -2.1600   -1.2781   -2.0594 H   0  0  0  0  0  0  0  0  0  0  0  0
   -1.9172   -0.8555   -4.4773 H   0  0  0  0  0  0  0  0  0  0  0  0
    0.2865   -0.8132   -5.5875 H   0  0  0  0  0  0  0  0  0  0  0  0
    2.3521   -1.2104   -4.2245 H   0  0  0  0  0  0  0  0  0  0  0  0
    1.5162   -0.2777   -2.0435 H   0  0  0  0  0  0  0  0  0  0  0  0
   -0.1308   -1.6365   -0.6590 H   0  0  0  0  0  0  0  0  0  0  0  0
    1.4787   -1.4162    2.1285 S   0  0  0  0  0  0  0  0  0  0  0  0
    0.1627   -1.5790    1.5507 O   0  0  0  0  0  0  0  0  0  0  0  0
    2.6614   -1.3549    1.2831 O   0  0  0  0  0  0  0  0  0  0  0  0
    1.4146   -0.1225    3.0837 O   0  0  0  0  0  0  0  0  0  0  0  0
    1.7418   -2.7878    3.4048 C   0  0  0  0  0  0  0  0  0  0  0  0
    2.8284   -2.4966    4.1079 F   0  0  0  0  0  0  0  0  0  0  0  0
    0.6866   -2.8618    4.1906 F   0  0  0  0  0  0  0  0  0  0  0  0
    1.9114   -3.9225    2.7432 F   0  0  0  0  0  0  0  0  0  0  0  0
    2.6073   -1.9143   -0.8044 H   0  0  0  0  0  0  0  0  0  0  0  0
  2  1  3  0  0  0  0
  3 26  1  0  0  0  0
  4  3  1  0  0  0  0
  6 12  1  0  0  0  0
  6 11  2  0  0  0  0
  7  6  1  0  0  0  0
  8  7  1  0  0  0  0
  8  9  2  0  0  0  0
  9 10  1  0  0  0  0
 10 16  1  1  0  0  0
 10  3  1  0  0  0  0
 10 11  1  0  0  0  0
 11 17  1  0  0  0  0
 13  7  1  0  0  0  0
 14  8  1  0  0  0  0
 15  9  1  0  0  0  0
 18 21  1  0  0  0  0
 18 22  1  0  0  0  0
 19 18  2  0  0  0  0
 20 18  2  0  0  0  0
 21  5  1  0  0  0  0
 22 23  1  0  0  0  0
 22 24  1  0  0  0  0
 25 22  1  0  0  0  0
M  RAD  1   7   2
M  END
