Coordinates from ORCA-job C6H6+HOTf+NH2--N2+-scan
 OpenBabel10191813343D

 26 24  0  0  1  0  0  0  0  0999 V2000
    0.9602   -6.9749   -2.3636 N   0  0  0  0  0  0  0  0  0  0  0  0
    0.8867   -8.0661   -2.4270 N   0  0  0  0  0  0  0  0  0  0  0  0
    2.3272   -2.3572   -1.8203 N   0  0  0  0  0  0  0  0  0  0  0  0
    2.0879   -3.3401   -1.8975 H   0  0  0  0  0  0  0  0  0  0  0  0
    2.4205    0.0643    3.1854 H   0  0  0  0  0  0  0  0  0  0  0  0
   -1.1920   -1.2566   -2.5175 C   0  0  0  0  0  0  0  0  0  0  0  0
   -1.0458   -1.0415   -3.9011 C   0  0  0  0  0  0  0  0  0  0  0  0
    0.2020   -1.0878   -4.5523 C   0  0  0  0  0  0  0  0  0  0  0  0
    1.3270   -1.3694   -3.8218 C   0  0  0  0  0  0  0  0  0  0  0  0
    1.2758   -1.5188   -2.3529 C   0  0  1  0  0  0  0  0  0  0  0  0
   -0.0842   -1.5335   -1.7568 C   0  0  0  0  0  0  0  0  0  0  0  0
   -2.1784   -1.2322   -2.0701 H   0  0  0  0  0  0  0  0  0  0  0  0
   -1.9338   -0.8402   -4.4929 H   0  0  0  0  0  0  0  0  0  0  0  0
    0.2580   -0.9371   -5.6233 H   0  0  0  0  0  0  0  0  0  0  0  0
    2.3090   -1.4481   -4.2761 H   0  0  0  0  0  0  0  0  0  0  0  0
    1.5497   -0.4523   -2.0951 H   0  0  0  0  0  0  0  0  0  0  0  0
   -0.1609   -1.7022   -0.6858 H   0  0  0  0  0  0  0  0  0  0  0  0
    1.4858   -1.5396    2.0852 S   0  0  0  0  0  0  0  0  0  0  0  0
    0.1565   -1.6306    1.5225 O   0  0  0  0  0  0  0  0  0  0  0  0
    2.6613   -1.5590    1.2279 O   0  0  0  0  0  0  0  0  0  0  0  0
    1.5088   -0.2331    3.0248 O   0  0  0  0  0  0  0  0  0  0  0  0
    1.6802   -2.9089    3.3761 C   0  0  0  0  0  0  0  0  0  0  0  0
    2.7895   -2.6747    4.0649 F   0  0  0  0  0  0  0  0  0  0  0  0
    0.6308   -2.9105    4.1731 F   0  0  0  0  0  0  0  0  0  0  0  0
    1.7750   -4.0597    2.7274 F   0  0  0  0  0  0  0  0  0  0  0  0
    2.5530   -2.1422   -0.8531 H   0  0  0  0  0  0  0  0  0  0  0  0
  2  1  3  0  0  0  0
  3 26  1  0  0  0  0
  4  3  1  0  0  0  0
  6 12  1  0  0  0  0
  6 11  2  0  0  0  0
  7  6  1  0  0  0  0
  8  7  1  0  0  0  0
  8  9  2  0  0  0  0
  9 10  1  0  0  0  0
 10 16  1  1  0  0  0
 10  3  1  0  0  0  0
 10 11  1  0  0  0  0
 11 17  1  0  0  0  0
 13  7  1  0  0  0  0
 14  8  1  0  0  0  0
 15  9  1  0  0  0  0
 18 21  1  0  0  0  0
 18 22  1  0  0  0  0
 19 18  2  0  0  0  0
 20 18  2  0  0  0  0
 21  5  1  0  0  0  0
 22 23  1  0  0  0  0
 22 24  1  0  0  0  0
 25 22  1  0  0  0  0
M  RAD  1   7   2
M  END
