Coordinates from ORCA-job C6H6+HOTf+NH2--N2+-scan
 OpenBabel10191813343D

 26 24  0  0  0  0  0  0  0  0999 V2000
    1.0996   -4.5149   -1.7812 N   0  0  0  0  0  0  0  0  0  0  0  0
    0.7637   -5.5260   -2.0641 N   0  0  0  0  0  0  0  0  0  0  0  0
    1.7288   -3.1999   -1.5862 N   0  0  0  0  0  0  0  0  0  0  0  0
    0.9763   -2.5185   -1.8464 H   0  0  0  0  0  0  0  0  0  0  0  0
    3.9065   -1.8902    2.6643 H   0  0  0  0  0  0  0  0  0  0  0  0
   -1.0226   -1.7494   -2.7556 C   0  0  0  0  0  0  0  0  0  0  0  0
   -0.6240   -2.1190   -4.0434 C   0  0  0  0  0  0  0  0  0  0  0  0
    0.5010   -1.5283   -4.6228 C   0  0  0  0  0  0  0  0  0  0  0  0
    1.2294   -0.5685   -3.9189 C   0  0  0  0  0  0  0  0  0  0  0  0
    0.8363   -0.1978   -2.6317 C   0  0  0  0  0  0  0  0  0  0  0  0
   -0.2901   -0.7887   -2.0454 C   0  0  0  0  0  0  0  0  0  0  0  0
   -1.9178   -2.1784   -2.3181 H   0  0  0  0  0  0  0  0  0  0  0  0
   -1.2065   -2.8414   -4.6047 H   0  0  0  0  0  0  0  0  0  0  0  0
    0.7988   -1.8031   -5.6281 H   0  0  0  0  0  0  0  0  0  0  0  0
    2.0930   -0.1004   -4.3768 H   0  0  0  0  0  0  0  0  0  0  0  0
    1.3884    0.5632   -2.0918 H   0  0  0  0  0  0  0  0  0  0  0  0
   -0.6120   -0.4787   -1.0570 H   0  0  0  0  0  0  0  0  0  0  0  0
    1.8259   -2.0542    2.0980 S   0  0  0  0  0  0  0  0  0  0  0  0
    0.8577   -1.0543    1.7397 O   0  0  0  0  0  0  0  0  0  0  0  0
    2.2430   -3.0758    1.1249 O   0  0  0  0  0  0  0  0  0  0  0  0
    3.1283   -1.3066    2.6592 O   0  0  0  0  0  0  0  0  0  0  0  0
    1.2445   -3.0002    3.6348 C   0  0  0  0  0  0  0  0  0  0  0  0
    2.2694   -3.7085    4.0904 F   0  0  0  0  0  0  0  0  0  0  0  0
    0.8319   -2.1392    4.5378 F   0  0  0  0  0  0  0  0  0  0  0  0
    0.2598   -3.8002    3.2595 F   0  0  0  0  0  0  0  0  0  0  0  0
    1.9401   -3.1732   -0.5564 H   0  0  0  0  0  0  0  0  0  0  0  0
  1  3  1  0  0  0  0
  2  1  1  0  0  0  0
  3 26  1  0  0  0  0
  4  3  1  0  0  0  0
  6 12  1  0  0  0  0
  6 11  2  0  0  0  0
  7  6  1  0  0  0  0
  8  7  2  0  0  0  0
  8  9  1  0  0  0  0
  9 10  2  0  0  0  0
 10 16  1  0  0  0  0
 10 11  1  0  0  0  0
 11 17  1  0  0  0  0
 13  7  1  0  0  0  0
 14  8  1  0  0  0  0
 15  9  1  0  0  0  0
 18 21  1  0  0  0  0
 18 22  1  0  0  0  0
 19 18  2  0  0  0  0
 20 18  2  0  0  0  0
 21  5  1  0  0  0  0
 22 23  1  0  0  0  0
 22 24  1  0  0  0  0
 25 22  1  0  0  0  0
M  RAD  2   1   2   2   3
M  END
