Coordinates from ORCA-job C6H6+HOTf+NH2--N2+-scan
 OpenBabel10191813343D

 26 24  0  0  1  0  0  0  0  0999 V2000
    2.7203   -5.4136   -1.1438 N   0  0  0  0  0  0  0  0  0  0  0  0
    3.7033   -5.8717   -1.2987 N   0  0  0  0  0  0  0  0  0  0  0  0
    1.6206   -3.0649   -1.9399 N   0  0  0  0  0  0  0  0  0  0  0  0
    1.0016   -3.8664   -1.9479 H   0  0  0  0  0  0  0  0  0  0  0  0
    3.0785   -0.6490    2.8707 H   0  0  0  0  0  0  0  0  0  0  0  0
   -1.1995   -0.6611   -2.5206 C   0  0  0  0  0  0  0  0  0  0  0  0
   -1.0805   -0.5760   -3.9207 C   0  0  0  0  0  0  0  0  0  0  0  0
   -0.0028   -1.1408   -4.6305 C   0  0  0  0  0  0  0  0  0  0  0  0
    0.9675   -1.8203   -3.9418 C   0  0  0  0  0  0  0  0  0  0  0  0
    0.9671   -1.8826   -2.4659 C   0  0  1  0  0  0  0  0  0  0  0  0
   -0.2381   -1.3250   -1.8014 C   0  0  0  0  0  0  0  0  0  0  0  0
   -2.0604   -0.2273   -2.0262 H   0  0  0  0  0  0  0  0  0  0  0  0
   -1.8569   -0.0607   -4.4785 H   0  0  0  0  0  0  0  0  0  0  0  0
    0.0308   -1.0654   -5.7104 H   0  0  0  0  0  0  0  0  0  0  0  0
    1.8009   -2.3034   -4.4406 H   0  0  0  0  0  0  0  0  0  0  0  0
    1.6707   -1.0175   -2.2821 H   0  0  0  0  0  0  0  0  0  0  0  0
   -0.2948   -1.4033   -0.7187 H   0  0  0  0  0  0  0  0  0  0  0  0
    1.5302   -1.8239    1.9330 S   0  0  0  0  0  0  0  0  0  0  0  0
    0.2250   -1.4283    1.4516 O   0  0  0  0  0  0  0  0  0  0  0  0
    2.5439   -2.3217    1.0155 O   0  0  0  0  0  0  0  0  0  0  0  0
    2.1125   -0.5855    2.7805 O   0  0  0  0  0  0  0  0  0  0  0  0
    1.2946   -3.1098    3.3007 C   0  0  0  0  0  0  0  0  0  0  0  0
    2.4608   -3.2854    3.9089 F   0  0  0  0  0  0  0  0  0  0  0  0
    0.3870   -2.6795    4.1535 F   0  0  0  0  0  0  0  0  0  0  0  0
    0.8997   -4.2364    2.7277 F   0  0  0  0  0  0  0  0  0  0  0  0
    1.9676   -2.9327   -0.9945 H   0  0  0  0  0  0  0  0  0  0  0  0
  2  1  3  0  0  0  0
  3 26  1  0  0  0  0
  4  3  1  0  0  0  0
  6 12  1  0  0  0  0
  6 11  2  0  0  0  0
  7  6  1  0  0  0  0
  8  9  2  0  0  0  0
  8  7  1  0  0  0  0
  9 10  1  0  0  0  0
 10 16  1  1  0  0  0
 10  3  1  0  0  0  0
 10 11  1  0  0  0  0
 11 17  1  0  0  0  0
 13  7  1  0  0  0  0
 14  8  1  0  0  0  0
 15  9  1  0  0  0  0
 18 21  1  0  0  0  0
 18 22  1  0  0  0  0
 19 18  2  0  0  0  0
 20 18  2  0  0  0  0
 21  5  1  0  0  0  0
 22 23  1  0  0  0  0
 22 24  1  0  0  0  0
 25 22  1  0  0  0  0
M  RAD  1   7   2
M  END
