Coordinates from ORCA-job C6H6+HOTf+NH2--N2+-scan
 OpenBabel10191813343D

 26 24  0  0  1  0  0  0  0  0999 V2000
    0.8722   -7.3437   -2.4665 N   0  0  0  0  0  0  0  0  0  0  0  0
    0.8080   -8.4350   -2.5388 N   0  0  0  0  0  0  0  0  0  0  0  0
    2.3481   -2.2990   -1.8089 N   0  0  0  0  0  0  0  0  0  0  0  0
    2.1252   -3.2854   -1.8888 H   0  0  0  0  0  0  0  0  0  0  0  0
    2.3890    0.1062    3.2044 H   0  0  0  0  0  0  0  0  0  0  0  0
   -1.1867   -1.2545   -2.5130 C   0  0  0  0  0  0  0  0  0  0  0  0
   -1.0404   -1.0342   -3.8958 C   0  0  0  0  0  0  0  0  0  0  0  0
    0.2096   -1.0586   -4.5438 C   0  0  0  0  0  0  0  0  0  0  0  0
    1.3372   -1.3231   -3.8110 C   0  0  0  0  0  0  0  0  0  0  0  0
    1.2847   -1.4764   -2.3425 C   0  0  1  0  0  0  0  0  0  0  0  0
   -0.0766   -1.5146   -1.7500 C   0  0  0  0  0  0  0  0  0  0  0  0
   -2.1746   -1.2474   -2.0682 H   0  0  0  0  0  0  0  0  0  0  0  0
   -1.9301   -0.8466   -4.4896 H   0  0  0  0  0  0  0  0  0  0  0  0
    0.2659   -0.9048   -5.6144 H   0  0  0  0  0  0  0  0  0  0  0  0
    2.3215   -1.3846   -4.2629 H   0  0  0  0  0  0  0  0  0  0  0  0
    1.5408   -0.4063   -2.0814 H   0  0  0  0  0  0  0  0  0  0  0  0
   -0.1533   -1.6868   -0.6795 H   0  0  0  0  0  0  0  0  0  0  0  0
    1.4836   -1.5088    2.0959 S   0  0  0  0  0  0  0  0  0  0  0  0
    0.1575   -1.6195    1.5292 O   0  0  0  0  0  0  0  0  0  0  0  0
    2.6615   -1.5060    1.2417 O   0  0  0  0  0  0  0  0  0  0  0  0
    1.4827   -0.2053    3.0400 O   0  0  0  0  0  0  0  0  0  0  0  0
    1.6969   -2.8793    3.3827 C   0  0  0  0  0  0  0  0  0  0  0  0
    2.8003   -2.6291    4.0754 F   0  0  0  0  0  0  0  0  0  0  0  0
    0.6455   -2.9009    4.1766 F   0  0  0  0  0  0  0  0  0  0  0  0
    1.8126   -4.0260    2.7302 F   0  0  0  0  0  0  0  0  0  0  0  0
    2.5683   -2.0825   -0.8408 H   0  0  0  0  0  0  0  0  0  0  0  0
  2  1  3  0  0  0  0
  3 26  1  0  0  0  0
  4  3  1  0  0  0  0
  6 12  1  0  0  0  0
  6 11  2  0  0  0  0
  7  6  1  0  0  0  0
  8  7  1  0  0  0  0
  8  9  2  0  0  0  0
  9 10  1  0  0  0  0
 10 16  1  1  0  0  0
 10  3  1  0  0  0  0
 10 11  1  0  0  0  0
 11 17  1  0  0  0  0
 13  7  1  0  0  0  0
 14  8  1  0  0  0  0
 15  9  1  0  0  0  0
 18 21  1  0  0  0  0
 18 22  1  0  0  0  0
 19 18  2  0  0  0  0
 20 18  2  0  0  0  0
 21  5  1  0  0  0  0
 22 23  1  0  0  0  0
 22 24  1  0  0  0  0
 25 22  1  0  0  0  0
M  RAD  1   7   2
M  END
