Coordinates from ORCA-job C6H6+HOTf+NH2--N2+-scan
 OpenBabel10191813343D

 26 24  0  0  1  0  0  0  0  0999 V2000
    2.6983   -5.1068   -1.4440 N   0  0  0  0  0  0  0  0  0  0  0  0
    3.6097   -5.4591   -1.9424 N   0  0  0  0  0  0  0  0  0  0  0  0
    1.5572   -3.1754   -1.8635 N   0  0  0  0  0  0  0  0  0  0  0  0
    0.8259   -3.8770   -1.8113 H   0  0  0  0  0  0  0  0  0  0  0  0
    3.0907   -0.6648    2.8872 H   0  0  0  0  0  0  0  0  0  0  0  0
   -1.1485   -0.6800   -2.5175 C   0  0  0  0  0  0  0  0  0  0  0  0
   -1.0224   -0.6409   -3.9186 C   0  0  0  0  0  0  0  0  0  0  0  0
    0.0556   -1.2367   -4.6061 C   0  0  0  0  0  0  0  0  0  0  0  0
    1.0113   -1.9073   -3.8924 C   0  0  0  0  0  0  0  0  0  0  0  0
    1.0030   -1.9268   -2.4142 C   0  0  1  0  0  0  0  0  0  0  0  0
   -0.1868   -1.3160   -1.7736 C   0  0  0  0  0  0  0  0  0  0  0  0
   -2.0077   -0.2236   -2.0409 H   0  0  0  0  0  0  0  0  0  0  0  0
   -1.7933   -0.1400   -4.4967 H   0  0  0  0  0  0  0  0  0  0  0  0
    0.0937   -1.1949   -5.6877 H   0  0  0  0  0  0  0  0  0  0  0  0
    1.8337   -2.4243   -4.3754 H   0  0  0  0  0  0  0  0  0  0  0  0
    1.7749   -1.1356   -2.2116 H   0  0  0  0  0  0  0  0  0  0  0  0
   -0.2451   -1.3473   -0.6884 H   0  0  0  0  0  0  0  0  0  0  0  0
    1.5009   -1.8022    1.9722 S   0  0  0  0  0  0  0  0  0  0  0  0
    0.1993   -1.3771    1.5069 O   0  0  0  0  0  0  0  0  0  0  0  0
    2.4890   -2.3260    1.0404 O   0  0  0  0  0  0  0  0  0  0  0  0
    2.1256   -0.5766    2.8074 O   0  0  0  0  0  0  0  0  0  0  0  0
    1.2553   -3.0809    3.3453 C   0  0  0  0  0  0  0  0  0  0  0  0
    2.4258   -3.2832    3.9361 F   0  0  0  0  0  0  0  0  0  0  0  0
    0.3708   -2.6281    4.2105 F   0  0  0  0  0  0  0  0  0  0  0  0
    0.8255   -4.1980    2.7791 F   0  0  0  0  0  0  0  0  0  0  0  0
    1.9072   -3.0236   -0.9205 H   0  0  0  0  0  0  0  0  0  0  0  0
  2  1  3  0  0  0  0
  3  4  1  0  0  0  0
  3 26  1  0  0  0  0
  6 12  1  0  0  0  0
  6 11  2  0  0  0  0
  7  6  1  0  0  0  0
  8  7  1  0  0  0  0
  8  9  2  0  0  0  0
  9 10  1  0  0  0  0
 10 16  1  1  0  0  0
 10  3  1  0  0  0  0
 10 11  1  0  0  0  0
 11 17  1  0  0  0  0
 13  7  1  0  0  0  0
 14  8  1  0  0  0  0
 15  9  1  0  0  0  0
 18 21  1  0  0  0  0
 18 22  1  0  0  0  0
 19 18  2  0  0  0  0
 20 18  2  0  0  0  0
 21  5  1  0  0  0  0
 22 23  1  0  0  0  0
 22 24  1  0  0  0  0
 25 22  1  0  0  0  0
M  RAD  1   7   2
M  END
