Coordinates from ORCA-job C6H6+HOTf+NH2--N2+-scan
 OpenBabel10191813343D

 26 24  0  0  1  0  0  0  0  0999 V2000
    0.6319   -8.4418   -2.7892 N   0  0  0  0  0  0  0  0  0  0  0  0
    0.5931   -9.5327   -2.8826 N   0  0  0  0  0  0  0  0  0  0  0  0
    2.4022   -2.1343   -1.7745 N   0  0  0  0  0  0  0  0  0  0  0  0
    2.2229   -3.1288   -1.8600 H   0  0  0  0  0  0  0  0  0  0  0  0
    2.3049    0.2272    3.2582 H   0  0  0  0  0  0  0  0  0  0  0  0
   -1.1697   -1.2402   -2.4974 C   0  0  0  0  0  0  0  0  0  0  0  0
   -1.0241   -1.0070   -3.8782 C   0  0  0  0  0  0  0  0  0  0  0  0
    0.2302   -0.9738   -4.5179 C   0  0  0  0  0  0  0  0  0  0  0  0
    1.3633   -1.1927   -3.7786 C   0  0  0  0  0  0  0  0  0  0  0  0
    1.3078   -1.3554   -2.3112 C   0  0  1  0  0  0  0  0  0  0  0  0
   -0.0544   -1.4555   -1.7281 C   0  0  0  0  0  0  0  0  0  0  0  0
   -2.1599   -1.2781   -2.0593 H   0  0  0  0  0  0  0  0  0  0  0  0
   -1.9171   -0.8554   -4.4772 H   0  0  0  0  0  0  0  0  0  0  0  0
    0.2867   -0.8124   -5.5874 H   0  0  0  0  0  0  0  0  0  0  0  0
    2.3523   -1.2092   -4.2242 H   0  0  0  0  0  0  0  0  0  0  0  0
    1.5160   -0.2767   -2.0432 H   0  0  0  0  0  0  0  0  0  0  0  0
   -0.1306   -1.6361   -0.6589 H   0  0  0  0  0  0  0  0  0  0  0  0
    1.4786   -1.4155    2.1287 S   0  0  0  0  0  0  0  0  0  0  0  0
    0.1628   -1.5786    1.5508 O   0  0  0  0  0  0  0  0  0  0  0  0
    2.6613   -1.3539    1.2834 O   0  0  0  0  0  0  0  0  0  0  0  0
    1.4142   -0.1219    3.0840 O   0  0  0  0  0  0  0  0  0  0  0  0
    1.7421   -2.7871    3.4050 C   0  0  0  0  0  0  0  0  0  0  0  0
    2.8285   -2.4957    4.1082 F   0  0  0  0  0  0  0  0  0  0  0  0
    0.6869   -2.8615    4.1906 F   0  0  0  0  0  0  0  0  0  0  0  0
    1.9121   -3.9218    2.7433 F   0  0  0  0  0  0  0  0  0  0  0  0
    2.6076   -1.9131   -0.8041 H   0  0  0  0  0  0  0  0  0  0  0  0
  2  1  3  0  0  0  0
  3 26  1  0  0  0  0
  4  3  1  0  0  0  0
  6 12  1  0  0  0  0
  6 11  2  0  0  0  0
  7  6  1  0  0  0  0
  8  7  1  0  0  0  0
  8  9  2  0  0  0  0
  9 10  1  0  0  0  0
 10 16  1  1  0  0  0
 10  3  1  0  0  0  0
 10 11  1  0  0  0  0
 11 17  1  0  0  0  0
 13  7  1  0  0  0  0
 14  8  1  0  0  0  0
 15  9  1  0  0  0  0
 18 21  1  0  0  0  0
 18 22  1  0  0  0  0
 19 18  2  0  0  0  0
 20 18  2  0  0  0  0
 21  5  1  0  0  0  0
 22 23  1  0  0  0  0
 22 24  1  0  0  0  0
 25 22  1  0  0  0  0
M  RAD  1   7   2
M  END
