Coordinates from ORCA-job C6H6+HOTf+NH2--N2+-scan
 OpenBabel10191813343D

 26 24  0  0  0  0  0  0  0  0999 V2000
    1.0796   -4.4653   -1.7935 N   0  0  0  0  0  0  0  0  0  0  0  0
    0.8063   -5.4844   -2.1261 N   0  0  0  0  0  0  0  0  0  0  0  0
    1.5518   -3.2024   -1.4964 N   0  0  0  0  0  0  0  0  0  0  0  0
    0.8355   -2.5025   -1.8032 H   0  0  0  0  0  0  0  0  0  0  0  0
    4.0004   -2.0402    2.6383 H   0  0  0  0  0  0  0  0  0  0  0  0
   -1.0623   -1.7763   -2.8721 C   0  0  0  0  0  0  0  0  0  0  0  0
   -0.5698   -2.1445   -4.1274 C   0  0  0  0  0  0  0  0  0  0  0  0
    0.5781   -1.5312   -4.6339 C   0  0  0  0  0  0  0  0  0  0  0  0
    1.2358   -0.5504   -3.8900 C   0  0  0  0  0  0  0  0  0  0  0  0
    0.7492   -0.1810   -2.6353 C   0  0  0  0  0  0  0  0  0  0  0  0
   -0.3998   -0.7951   -2.1213 C   0  0  0  0  0  0  0  0  0  0  0  0
   -1.9752   -2.2227   -2.4923 H   0  0  0  0  0  0  0  0  0  0  0  0
   -1.0970   -2.8831   -4.7212 H   0  0  0  0  0  0  0  0  0  0  0  0
    0.9488   -1.8048   -5.6150 H   0  0  0  0  0  0  0  0  0  0  0  0
    2.1172   -0.0653   -4.2929 H   0  0  0  0  0  0  0  0  0  0  0  0
    1.2470    0.5946   -2.0644 H   0  0  0  0  0  0  0  0  0  0  0  0
   -0.7966   -0.4842   -1.1608 H   0  0  0  0  0  0  0  0  0  0  0  0
    1.8947   -2.0522    2.1457 S   0  0  0  0  0  0  0  0  0  0  0  0
    0.9872   -0.9854    1.8255 O   0  0  0  0  0  0  0  0  0  0  0  0
    2.2070   -3.0941    1.1533 O   0  0  0  0  0  0  0  0  0  0  0  0
    3.2656   -1.4033    2.6639 O   0  0  0  0  0  0  0  0  0  0  0  0
    1.3034   -2.9695    3.6964 C   0  0  0  0  0  0  0  0  0  0  0  0
    2.2922   -3.7513    4.1096 F   0  0  0  0  0  0  0  0  0  0  0  0
    0.9851   -2.0895    4.6189 F   0  0  0  0  0  0  0  0  0  0  0  0
    0.2526   -3.6953    3.3521 F   0  0  0  0  0  0  0  0  0  0  0  0
    1.8128   -3.1731   -0.4776 H   0  0  0  0  0  0  0  0  0  0  0  0
  1  3  1  0  0  0  0
  2  1  1  0  0  0  0
  3 26  1  0  0  0  0
  4  3  1  0  0  0  0
  5 21  1  0  0  0  0
  6 12  1  0  0  0  0
  6 11  2  0  0  0  0
  7  6  1  0  0  0  0
  8  7  2  0  0  0  0
  8  9  1  0  0  0  0
  9 10  2  0  0  0  0
 10 11  1  0  0  0  0
 10 16  1  0  0  0  0
 11 17  1  0  0  0  0
 13  7  1  0  0  0  0
 14  8  1  0  0  0  0
 15  9  1  0  0  0  0
 18 21  1  0  0  0  0
 18 22  1  0  0  0  0
 19 18  2  0  0  0  0
 20 18  2  0  0  0  0
 22 23  1  0  0  0  0
 22 24  1  0  0  0  0
 25 22  1  0  0  0  0
M  RAD  2   1   2   2   3
M  END
