Coordinates from ORCA-job C6H6+HOTf+NH2--N2+-scan
 OpenBabel10191813343D

 26 24  0  0  1  0  0  0  0  0999 V2000
    1.1357   -6.2798   -2.1971 N   0  0  0  0  0  0  0  0  0  0  0  0
    1.0544   -7.3709   -2.2473 N   0  0  0  0  0  0  0  0  0  0  0  0
    2.2795   -2.4793   -1.8387 N   0  0  0  0  0  0  0  0  0  0  0  0
    2.0031   -3.4538   -1.9079 H   0  0  0  0  0  0  0  0  0  0  0  0
    2.4800   -0.0091    3.1452 H   0  0  0  0  0  0  0  0  0  0  0  0
   -1.2016   -1.2562   -2.5241 C   0  0  0  0  0  0  0  0  0  0  0  0
   -1.0544   -1.0513   -3.9091 C   0  0  0  0  0  0  0  0  0  0  0  0
    0.1875   -1.1452   -4.5660 C   0  0  0  0  0  0  0  0  0  0  0  0
    1.3052   -1.4648   -3.8397 C   0  0  0  0  0  0  0  0  0  0  0  0
    1.2560   -1.6070   -2.3702 C   0  0  1  0  0  0  0  0  0  0  0  0
   -0.1007   -1.5704   -1.7678 C   0  0  0  0  0  0  0  0  0  0  0  0
   -2.1843   -1.1945   -2.0721 H   0  0  0  0  0  0  0  0  0  0  0  0
   -1.9374   -0.8198   -4.4974 H   0  0  0  0  0  0  0  0  0  0  0  0
    0.2437   -1.0003   -5.6379 H   0  0  0  0  0  0  0  0  0  0  0  0
    2.2815   -1.5802   -4.2982 H   0  0  0  0  0  0  0  0  0  0  0  0
    1.5679   -0.5492   -2.1188 H   0  0  0  0  0  0  0  0  0  0  0  0
   -0.1780   -1.7324   -0.6959 H   0  0  0  0  0  0  0  0  0  0  0  0
    1.4904   -1.5942    2.0662 S   0  0  0  0  0  0  0  0  0  0  0  0
    0.1558   -1.6496    1.5115 O   0  0  0  0  0  0  0  0  0  0  0  0
    2.6602   -1.6582    1.2035 O   0  0  0  0  0  0  0  0  0  0  0  0
    1.5587   -0.2802    2.9932 O   0  0  0  0  0  0  0  0  0  0  0  0
    1.6492   -2.9562    3.3695 C   0  0  0  0  0  0  0  0  0  0  0  0
    2.7694   -2.7505    4.0499 F   0  0  0  0  0  0  0  0  0  0  0  0
    0.6050   -2.9173    4.1723 F   0  0  0  0  0  0  0  0  0  0  0  0
    1.7041   -4.1159    2.7317 F   0  0  0  0  0  0  0  0  0  0  0  0
    2.5184   -2.2657   -0.8745 H   0  0  0  0  0  0  0  0  0  0  0  0
  2  1  3  0  0  0  0
  3 26  1  0  0  0  0
  4  3  1  0  0  0  0
  6 12  1  0  0  0  0
  6 11  2  0  0  0  0
  7  6  1  0  0  0  0
  8  7  1  0  0  0  0
  8  9  2  0  0  0  0
  9 10  1  0  0  0  0
 10 16  1  1  0  0  0
 10  3  1  0  0  0  0
 10 11  1  0  0  0  0
 11 17  1  0  0  0  0
 13  7  1  0  0  0  0
 14  8  1  0  0  0  0
 15  9  1  0  0  0  0
 18 21  1  0  0  0  0
 18 22  1  0  0  0  0
 19 18  2  0  0  0  0
 20 18  2  0  0  0  0
 21  5  1  0  0  0  0
 22 23  1  0  0  0  0
 22 24  1  0  0  0  0
 25 22  1  0  0  0  0
M  RAD  1   7   2
M  END
