Coordinates from ORCA-job C6H6+HOTf+NH2--N2+-scan
 OpenBabel10191813343D

 26 24  0  0  1  0  0  0  0  0999 V2000
    2.7525   -5.2291   -1.2896 N   0  0  0  0  0  0  0  0  0  0  0  0
    3.7016   -5.6066   -1.6869 N   0  0  0  0  0  0  0  0  0  0  0  0
    1.5595   -3.1476   -1.8872 N   0  0  0  0  0  0  0  0  0  0  0  0
    0.8719   -3.8917   -1.8544 H   0  0  0  0  0  0  0  0  0  0  0  0
    3.0597   -0.6381    2.8840 H   0  0  0  0  0  0  0  0  0  0  0  0
   -1.1545   -0.6405   -2.5180 C   0  0  0  0  0  0  0  0  0  0  0  0
   -1.0321   -0.5896   -3.9194 C   0  0  0  0  0  0  0  0  0  0  0  0
    0.0285   -1.2029   -4.6158 C   0  0  0  0  0  0  0  0  0  0  0  0
    0.9743   -1.8993   -3.9115 C   0  0  0  0  0  0  0  0  0  0  0  0
    0.9717   -1.9302   -2.4340 C   0  0  1  0  0  0  0  0  0  0  0  0
   -0.2113   -1.3134   -1.7833 C   0  0  0  0  0  0  0  0  0  0  0  0
   -2.0018   -0.1696   -2.0342 H   0  0  0  0  0  0  0  0  0  0  0  0
   -1.7924   -0.0638   -4.4894 H   0  0  0  0  0  0  0  0  0  0  0  0
    0.0646   -1.1521   -5.6971 H   0  0  0  0  0  0  0  0  0  0  0  0
    1.7887   -2.4238   -4.3998 H   0  0  0  0  0  0  0  0  0  0  0  0
    1.7231   -1.1087   -2.2539 H   0  0  0  0  0  0  0  0  0  0  0  0
   -0.2706   -1.3614   -0.6989 H   0  0  0  0  0  0  0  0  0  0  0  0
    1.5029   -1.8084    1.9543 S   0  0  0  0  0  0  0  0  0  0  0  0
    0.1930   -1.4119    1.4868 O   0  0  0  0  0  0  0  0  0  0  0  0
    2.5080   -2.3002    1.0238 O   0  0  0  0  0  0  0  0  0  0  0  0
    2.0929   -0.5742    2.8024 O   0  0  0  0  0  0  0  0  0  0  0  0
    1.2820   -3.1026    3.3167 C   0  0  0  0  0  0  0  0  0  0  0  0
    2.4543   -3.2810    3.9119 F   0  0  0  0  0  0  0  0  0  0  0  0
    0.3827   -2.6780    4.1811 F   0  0  0  0  0  0  0  0  0  0  0  0
    0.8820   -4.2258    2.7406 F   0  0  0  0  0  0  0  0  0  0  0  0
    1.9184   -3.0016   -0.9479 H   0  0  0  0  0  0  0  0  0  0  0  0
  2  1  3  0  0  0  0
  3  4  1  0  0  0  0
  3 26  1  0  0  0  0
  6 12  1  0  0  0  0
  6 11  2  0  0  0  0
  7  6  1  0  0  0  0
  8  7  1  0  0  0  0
  8  9  2  0  0  0  0
  9 10  1  0  0  0  0
 10 16  1  1  0  0  0
 10  3  1  0  0  0  0
 10 11  1  0  0  0  0
 11 17  1  0  0  0  0
 13  7  1  0  0  0  0
 14  8  1  0  0  0  0
 15  9  1  0  0  0  0
 18 21  1  0  0  0  0
 18 22  1  0  0  0  0
 19 18  2  0  0  0  0
 20 18  2  0  0  0  0
 21  5  1  0  0  0  0
 22 23  1  0  0  0  0
 22 24  1  0  0  0  0
 25 22  1  0  0  0  0
M  RAD  1   7   2
M  END
