Coordinates from ORCA-job C6H6+HOTf+NH2--N2+-scan
 OpenBabel10191813343D

 26 24  0  0  1  0  0  0  0  0999 V2000
    1.3260   -5.9003   -2.0669 N   0  0  0  0  0  0  0  0  0  0  0  0
    1.3135   -6.9952   -2.0848 N   0  0  0  0  0  0  0  0  0  0  0  0
    2.2183   -2.5804   -1.8577 N   0  0  0  0  0  0  0  0  0  0  0  0
    1.9049   -3.5434   -1.9233 H   0  0  0  0  0  0  0  0  0  0  0  0
    2.5477   -0.0739    3.1082 H   0  0  0  0  0  0  0  0  0  0  0  0
   -1.2123   -1.2127   -2.5258 C   0  0  0  0  0  0  0  0  0  0  0  0
   -1.0654   -1.0173   -3.9121 C   0  0  0  0  0  0  0  0  0  0  0  0
    0.1672   -1.1660   -4.5762 C   0  0  0  0  0  0  0  0  0  0  0  0
    1.2748   -1.5315   -3.8559 C   0  0  0  0  0  0  0  0  0  0  0  0
    1.2289   -1.6694   -2.3861 C   0  0  1  0  0  0  0  0  0  0  0  0
   -0.1212   -1.5729   -1.7757 C   0  0  0  0  0  0  0  0  0  0  0  0
   -2.1884   -1.1073   -2.0677 H   0  0  0  0  0  0  0  0  0  0  0  0
   -1.9412   -0.7488   -4.4954 H   0  0  0  0  0  0  0  0  0  0  0  0
    0.2231   -1.0255   -5.6487 H   0  0  0  0  0  0  0  0  0  0  0  0
    2.2426   -1.6886   -4.3200 H   0  0  0  0  0  0  0  0  0  0  0  0
    1.5842   -0.6231   -2.1413 H   0  0  0  0  0  0  0  0  0  0  0  0
   -0.1984   -1.7287   -0.7029 H   0  0  0  0  0  0  0  0  0  0  0  0
    1.4954   -1.6321    2.0494 S   0  0  0  0  0  0  0  0  0  0  0  0
    0.1567   -1.6439    1.5022 O   0  0  0  0  0  0  0  0  0  0  0  0
    2.6578   -1.7466    1.1821 O   0  0  0  0  0  0  0  0  0  0  0  0
    1.6163   -0.3132    2.9643 O   0  0  0  0  0  0  0  0  0  0  0  0
    1.6110   -2.9869    3.3645 C   0  0  0  0  0  0  0  0  0  0  0  0
    2.7417   -2.8169    4.0373 F   0  0  0  0  0  0  0  0  0  0  0  0
    0.5733   -2.9023    4.1724 F   0  0  0  0  0  0  0  0  0  0  0  0
    1.6195   -4.1538    2.7373 F   0  0  0  0  0  0  0  0  0  0  0  0
    2.4736   -2.3715   -0.8969 H   0  0  0  0  0  0  0  0  0  0  0  0
  2  1  3  0  0  0  0
  3 26  1  0  0  0  0
  4  3  1  0  0  0  0
  6 12  1  0  0  0  0
  6 11  2  0  0  0  0
  7  6  1  0  0  0  0
  8  7  1  0  0  0  0
  8  9  2  0  0  0  0
  9 10  1  0  0  0  0
 10 16  1  1  0  0  0
 10  3  1  0  0  0  0
 10 11  1  0  0  0  0
 11 17  1  0  0  0  0
 13  7  1  0  0  0  0
 14  8  1  0  0  0  0
 15  9  1  0  0  0  0
 18 21  1  0  0  0  0
 18 22  1  0  0  0  0
 19 18  2  0  0  0  0
 20 18  2  0  0  0  0
 21  5  1  0  0  0  0
 22 23  1  0  0  0  0
 22 24  1  0  0  0  0
 25 22  1  0  0  0  0
M  RAD  1   7   2
M  END
