Coordinates from ORCA-job C6H6+HOTf+NH2--N2+-scan
 OpenBabel10191813343D

 26 24  0  0  1  0  0  0  0  0999 V2000
    0.8763   -7.3275   -2.4616 N   0  0  0  0  0  0  0  0  0  0  0  0
    0.8117   -8.4187   -2.5334 N   0  0  0  0  0  0  0  0  0  0  0  0
    2.3471   -2.3016   -1.8095 N   0  0  0  0  0  0  0  0  0  0  0  0
    2.1235   -3.2878   -1.8893 H   0  0  0  0  0  0  0  0  0  0  0  0
    2.3905    0.1043    3.2036 H   0  0  0  0  0  0  0  0  0  0  0  0
   -1.1870   -1.2545   -2.5132 C   0  0  0  0  0  0  0  0  0  0  0  0
   -1.0407   -1.0345   -3.8961 C   0  0  0  0  0  0  0  0  0  0  0  0
    0.2093   -1.0598   -4.5442 C   0  0  0  0  0  0  0  0  0  0  0  0
    1.3367   -1.3251   -3.8115 C   0  0  0  0  0  0  0  0  0  0  0  0
    1.2842   -1.4783   -2.3430 C   0  0  1  0  0  0  0  0  0  0  0  0
   -0.0769   -1.5154   -1.7503 C   0  0  0  0  0  0  0  0  0  0  0  0
   -2.1748   -1.2466   -2.0683 H   0  0  0  0  0  0  0  0  0  0  0  0
   -1.9303   -0.8462   -4.4898 H   0  0  0  0  0  0  0  0  0  0  0  0
    0.2655   -0.9061   -5.6148 H   0  0  0  0  0  0  0  0  0  0  0  0
    2.3209   -1.3874   -4.2635 H   0  0  0  0  0  0  0  0  0  0  0  0
    1.5412   -0.4083   -2.0821 H   0  0  0  0  0  0  0  0  0  0  0  0
   -0.1536   -1.6874   -0.6798 H   0  0  0  0  0  0  0  0  0  0  0  0
    1.4837   -1.5102    2.0954 S   0  0  0  0  0  0  0  0  0  0  0  0
    0.1575   -1.6200    1.5289 O   0  0  0  0  0  0  0  0  0  0  0  0
    2.6615   -1.5085    1.2410 O   0  0  0  0  0  0  0  0  0  0  0  0
    1.4839   -0.2066    3.0393 O   0  0  0  0  0  0  0  0  0  0  0  0
    1.6962   -2.8807    3.3823 C   0  0  0  0  0  0  0  0  0  0  0  0
    2.7998   -2.6313    4.0749 F   0  0  0  0  0  0  0  0  0  0  0  0
    0.6448   -2.9014    4.1764 F   0  0  0  0  0  0  0  0  0  0  0  0
    1.8108   -4.0276    2.7300 F   0  0  0  0  0  0  0  0  0  0  0  0
    2.5676   -2.0852   -0.8414 H   0  0  0  0  0  0  0  0  0  0  0  0
  2  1  3  0  0  0  0
  3 26  1  0  0  0  0
  4  3  1  0  0  0  0
  6 12  1  0  0  0  0
  6 11  2  0  0  0  0
  7  6  1  0  0  0  0
  8  7  1  0  0  0  0
  8  9  2  0  0  0  0
  9 10  1  0  0  0  0
 10 16  1  1  0  0  0
 10  3  1  0  0  0  0
 10 11  1  0  0  0  0
 11 17  1  0  0  0  0
 13  7  1  0  0  0  0
 14  8  1  0  0  0  0
 15  9  1  0  0  0  0
 18 21  1  0  0  0  0
 18 22  1  0  0  0  0
 19 18  2  0  0  0  0
 20 18  2  0  0  0  0
 21  5  1  0  0  0  0
 22 23  1  0  0  0  0
 22 24  1  0  0  0  0
 25 22  1  0  0  0  0
M  RAD  1   7   2
M  END
