Coordinates from ORCA-job C6H6+HOTf+NH2--N2+-scan
 OpenBabel10191813343D

 26 24  0  0  1  0  0  0  0  0999 V2000
    0.8681   -7.3600   -2.4715 N   0  0  0  0  0  0  0  0  0  0  0  0
    0.8043   -8.4512   -2.5442 N   0  0  0  0  0  0  0  0  0  0  0  0
    2.3490   -2.2964   -1.8084 N   0  0  0  0  0  0  0  0  0  0  0  0
    2.1269   -3.2830   -1.8883 H   0  0  0  0  0  0  0  0  0  0  0  0
    2.3876    0.1082    3.2053 H   0  0  0  0  0  0  0  0  0  0  0  0
   -1.1865   -1.2545   -2.5128 C   0  0  0  0  0  0  0  0  0  0  0  0
   -1.0402   -1.0340   -3.8956 C   0  0  0  0  0  0  0  0  0  0  0  0
    0.2100   -1.0574   -4.5434 C   0  0  0  0  0  0  0  0  0  0  0  0
    1.3377   -1.3211   -3.8104 C   0  0  0  0  0  0  0  0  0  0  0  0
    1.2851   -1.4746   -2.3420 C   0  0  1  0  0  0  0  0  0  0  0  0
   -0.0762   -1.5139   -1.7497 C   0  0  0  0  0  0  0  0  0  0  0  0
   -2.1744   -1.2481   -2.0681 H   0  0  0  0  0  0  0  0  0  0  0  0
   -1.9299   -0.8470   -4.4895 H   0  0  0  0  0  0  0  0  0  0  0  0
    0.2663   -0.9034   -5.6140 H   0  0  0  0  0  0  0  0  0  0  0  0
    2.3221   -1.3818   -4.2622 H   0  0  0  0  0  0  0  0  0  0  0  0
    1.5403   -0.4043   -2.0808 H   0  0  0  0  0  0  0  0  0  0  0  0
   -0.1529   -1.6861   -0.6792 H   0  0  0  0  0  0  0  0  0  0  0  0
    1.4835   -1.5074    2.0965 S   0  0  0  0  0  0  0  0  0  0  0  0
    0.1576   -1.6190    1.5295 O   0  0  0  0  0  0  0  0  0  0  0  0
    2.6615   -1.5036    1.2423 O   0  0  0  0  0  0  0  0  0  0  0  0
    1.4815   -0.2040    3.0407 O   0  0  0  0  0  0  0  0  0  0  0  0
    1.6977   -2.8778    3.3830 C   0  0  0  0  0  0  0  0  0  0  0  0
    2.8008   -2.6270    4.0760 F   0  0  0  0  0  0  0  0  0  0  0  0
    0.6462   -2.9004    4.1768 F   0  0  0  0  0  0  0  0  0  0  0  0
    1.8143   -4.0244    2.7304 F   0  0  0  0  0  0  0  0  0  0  0  0
    2.5690   -2.0799   -0.8402 H   0  0  0  0  0  0  0  0  0  0  0  0
  2  1  3  0  0  0  0
  3 26  1  0  0  0  0
  4  3  1  0  0  0  0
  6 12  1  0  0  0  0
  6 11  2  0  0  0  0
  7  6  1  0  0  0  0
  8  7  1  0  0  0  0
  8  9  2  0  0  0  0
  9 10  1  0  0  0  0
 10 16  1  1  0  0  0
 10  3  1  0  0  0  0
 10 11  1  0  0  0  0
 11 17  1  0  0  0  0
 13  7  1  0  0  0  0
 14  8  1  0  0  0  0
 15  9  1  0  0  0  0
 18 21  1  0  0  0  0
 18 22  1  0  0  0  0
 19 18  2  0  0  0  0
 20 18  2  0  0  0  0
 21  5  1  0  0  0  0
 22 23  1  0  0  0  0
 22 24  1  0  0  0  0
 25 22  1  0  0  0  0
M  RAD  1   7   2
M  END
