Coordinates from ORCA-job C6H6+HOTf+NH2--N2+-scan
 OpenBabel10191813343D

 26 24  0  0  1  0  0  0  0  0999 V2000
    0.8987   -7.2379   -2.4348 N   0  0  0  0  0  0  0  0  0  0  0  0
    0.8321   -8.3292   -2.5041 N   0  0  0  0  0  0  0  0  0  0  0  0
    2.3419   -2.3158   -1.8125 N   0  0  0  0  0  0  0  0  0  0  0  0
    2.1142   -3.3012   -1.8917 H   0  0  0  0  0  0  0  0  0  0  0  0
    2.3985    0.0936    3.1989 H   0  0  0  0  0  0  0  0  0  0  0  0
   -1.1884   -1.2546   -2.5144 C   0  0  0  0  0  0  0  0  0  0  0  0
   -1.0421   -1.0357   -3.8974 C   0  0  0  0  0  0  0  0  0  0  0  0
    0.2073   -1.0665   -4.5464 C   0  0  0  0  0  0  0  0  0  0  0  0
    1.3341   -1.3362   -3.8143 C   0  0  0  0  0  0  0  0  0  0  0  0
    1.2820   -1.4884   -2.3457 C   0  0  1  0  0  0  0  0  0  0  0  0
   -0.0789   -1.5197   -1.7521 C   0  0  0  0  0  0  0  0  0  0  0  0
   -2.1759   -1.2423   -2.0688 H   0  0  0  0  0  0  0  0  0  0  0  0
   -1.9313   -0.8440   -4.4906 H   0  0  0  0  0  0  0  0  0  0  0  0
    0.2635   -0.9136   -5.6171 H   0  0  0  0  0  0  0  0  0  0  0  0
    2.3178   -1.4027   -4.2669 H   0  0  0  0  0  0  0  0  0  0  0  0
    1.5434   -0.4194   -2.0855 H   0  0  0  0  0  0  0  0  0  0  0  0
   -0.1556   -1.6909   -0.6815 H   0  0  0  0  0  0  0  0  0  0  0  0
    1.4843   -1.5180    2.0927 S   0  0  0  0  0  0  0  0  0  0  0  0
    0.1572   -1.6227    1.5271 O   0  0  0  0  0  0  0  0  0  0  0  0
    2.6615   -1.5218    1.2375 O   0  0  0  0  0  0  0  0  0  0  0  0
    1.4906   -0.2137    3.0356 O   0  0  0  0  0  0  0  0  0  0  0  0
    1.6918   -2.8883    3.3805 C   0  0  0  0  0  0  0  0  0  0  0  0
    2.7970   -2.6430    4.0721 F   0  0  0  0  0  0  0  0  0  0  0  0
    0.6409   -2.9040    4.1753 F   0  0  0  0  0  0  0  0  0  0  0  0
    1.8012   -4.0362    2.7290 F   0  0  0  0  0  0  0  0  0  0  0  0
    2.5638   -2.0999   -0.8446 H   0  0  0  0  0  0  0  0  0  0  0  0
  2  1  3  0  0  0  0
  3 26  1  0  0  0  0
  4  3  1  0  0  0  0
  6 12  1  0  0  0  0
  6 11  2  0  0  0  0
  7  6  1  0  0  0  0
  8  7  1  0  0  0  0
  8  9  2  0  0  0  0
  9 10  1  0  0  0  0
 10 16  1  1  0  0  0
 10  3  1  0  0  0  0
 10 11  1  0  0  0  0
 11 17  1  0  0  0  0
 13  7  1  0  0  0  0
 14  8  1  0  0  0  0
 15  9  1  0  0  0  0
 18 21  1  0  0  0  0
 18 22  1  0  0  0  0
 19 18  2  0  0  0  0
 20 18  2  0  0  0  0
 21  5  1  0  0  0  0
 22 23  1  0  0  0  0
 22 24  1  0  0  0  0
 25 22  1  0  0  0  0
M  RAD  1   7   2
M  END
