Coordinates from ORCA-job C6H6+HOTf+NH2--N2+-scan
 OpenBabel10191813343D

 26 24  0  0  1  0  0  0  0  0999 V2000
    0.6600   -8.2907   -2.7477 N   0  0  0  0  0  0  0  0  0  0  0  0
    0.6181   -9.3816   -2.8391 N   0  0  0  0  0  0  0  0  0  0  0  0
    2.3961   -2.1557   -1.7787 N   0  0  0  0  0  0  0  0  0  0  0  0
    2.2117   -3.1494   -1.8635 H   0  0  0  0  0  0  0  0  0  0  0  0
    2.3145    0.2122    3.2513 H   0  0  0  0  0  0  0  0  0  0  0  0
   -1.1719   -1.2442   -2.4996 C   0  0  0  0  0  0  0  0  0  0  0  0
   -1.0261   -1.0127   -3.8807 C   0  0  0  0  0  0  0  0  0  0  0  0
    0.2278   -0.9862   -4.5213 C   0  0  0  0  0  0  0  0  0  0  0  0
    1.3604   -1.2103   -3.7827 C   0  0  0  0  0  0  0  0  0  0  0  0
    1.3052   -1.3717   -2.3152 C   0  0  1  0  0  0  0  0  0  0  0  0
   -0.0571   -1.4646   -1.7309 C   0  0  0  0  0  0  0  0  0  0  0  0
   -2.1619   -1.2769   -2.0608 H   0  0  0  0  0  0  0  0  0  0  0  0
   -1.9188   -0.8570   -4.4791 H   0  0  0  0  0  0  0  0  0  0  0  0
    0.2843   -0.8258   -5.5909 H   0  0  0  0  0  0  0  0  0  0  0  0
    2.3489   -1.2320   -4.2290 H   0  0  0  0  0  0  0  0  0  0  0  0
    1.5190   -0.2939   -2.0480 H   0  0  0  0  0  0  0  0  0  0  0  0
   -0.1334   -1.6441   -0.6616 H   0  0  0  0  0  0  0  0  0  0  0  0
    1.4791   -1.4278    2.1246 S   0  0  0  0  0  0  0  0  0  0  0  0
    0.1620   -1.5851    1.5480 O   0  0  0  0  0  0  0  0  0  0  0  0
    2.6614   -1.3730    1.2781 O   0  0  0  0  0  0  0  0  0  0  0  0
    1.4220   -0.1327    3.0783 O   0  0  0  0  0  0  0  0  0  0  0  0
    1.7369   -2.7991    3.4023 C   0  0  0  0  0  0  0  0  0  0  0  0
    2.8254   -2.5121    4.1042 F   0  0  0  0  0  0  0  0  0  0  0  0
    0.6820   -2.8673    4.1889 F   0  0  0  0  0  0  0  0  0  0  0  0
    1.9007   -3.9354    2.7418 F   0  0  0  0  0  0  0  0  0  0  0  0
    2.6031   -1.9349   -0.8086 H   0  0  0  0  0  0  0  0  0  0  0  0
  2  1  3  0  0  0  0
  3 26  1  0  0  0  0
  4  3  1  0  0  0  0
  6 12  1  0  0  0  0
  6 11  2  0  0  0  0
  7  6  1  0  0  0  0
  8  7  1  0  0  0  0
  8  9  2  0  0  0  0
  9 10  1  0  0  0  0
 10 16  1  1  0  0  0
 10  3  1  0  0  0  0
 10 11  1  0  0  0  0
 11 17  1  0  0  0  0
 13  7  1  0  0  0  0
 14  8  1  0  0  0  0
 15  9  1  0  0  0  0
 18 21  1  0  0  0  0
 18 22  1  0  0  0  0
 19 18  2  0  0  0  0
 20 18  2  0  0  0  0
 21  5  1  0  0  0  0
 22 23  1  0  0  0  0
 22 24  1  0  0  0  0
 25 22  1  0  0  0  0
M  RAD  1   7   2
M  END
