Coordinates from ORCA-job C6H6+HOTf+NH2--N2+-scan
 OpenBabel10191813343D

 26 24  0  0  1  0  0  0  0  0999 V2000
    0.5985   -8.6366   -2.8402 N   0  0  0  0  0  0  0  0  0  0  0  0
    0.5635   -9.7274   -2.9359 N   0  0  0  0  0  0  0  0  0  0  0  0
    2.4095   -2.1074   -1.7694 N   0  0  0  0  0  0  0  0  0  0  0  0
    2.2362   -3.1029   -1.8560 H   0  0  0  0  0  0  0  0  0  0  0  0
    2.2935    0.2454    3.2669 H   0  0  0  0  0  0  0  0  0  0  0  0
   -1.1671   -1.2337   -2.4946 C   0  0  0  0  0  0  0  0  0  0  0  0
   -1.0216   -0.9984   -3.8751 C   0  0  0  0  0  0  0  0  0  0  0  0
    0.2329   -0.9572   -4.5136 C   0  0  0  0  0  0  0  0  0  0  0  0
    1.3667   -1.1701   -3.7736 C   0  0  0  0  0  0  0  0  0  0  0  0
    1.3109   -1.3345   -2.3064 C   0  0  1  0  0  0  0  0  0  0  0  0
   -0.0511   -1.4432   -1.7245 C   0  0  0  0  0  0  0  0  0  0  0  0
   -2.1574   -1.2779   -2.0574 H   0  0  0  0  0  0  0  0  0  0  0  0
   -1.9151   -0.8515   -4.4747 H   0  0  0  0  0  0  0  0  0  0  0  0
    0.2894   -0.7945   -5.5829 H   0  0  0  0  0  0  0  0  0  0  0  0
    2.3562   -1.1803   -4.2183 H   0  0  0  0  0  0  0  0  0  0  0  0
    1.5126   -0.2549   -2.0372 H   0  0  0  0  0  0  0  0  0  0  0  0
   -0.1272   -1.6252   -0.6556 H   0  0  0  0  0  0  0  0  0  0  0  0
    1.4780   -1.4002    2.1338 S   0  0  0  0  0  0  0  0  0  0  0  0
    0.1638   -1.5700    1.5543 O   0  0  0  0  0  0  0  0  0  0  0  0
    2.6613   -1.3303    1.2898 O   0  0  0  0  0  0  0  0  0  0  0  0
    1.4051   -0.1085    3.0911 O   0  0  0  0  0  0  0  0  0  0  0  0
    1.7481   -2.7724    3.4082 C   0  0  0  0  0  0  0  0  0  0  0  0
    2.8322   -2.4758    4.1129 F   0  0  0  0  0  0  0  0  0  0  0  0
    0.6926   -2.8541    4.1926 F   0  0  0  0  0  0  0  0  0  0  0  0
    1.9253   -3.9049    2.7448 F   0  0  0  0  0  0  0  0  0  0  0  0
    2.6128   -1.8858   -0.7987 H   0  0  0  0  0  0  0  0  0  0  0  0
  2  1  3  0  0  0  0
  3 26  1  0  0  0  0
  4  3  1  0  0  0  0
  6 12  1  0  0  0  0
  6 11  2  0  0  0  0
  7  6  1  0  0  0  0
  8  7  1  0  0  0  0
  8  9  2  0  0  0  0
  9 10  1  0  0  0  0
 10 16  1  1  0  0  0
 10  3  1  0  0  0  0
 10 11  1  0  0  0  0
 11 17  1  0  0  0  0
 13  7  1  0  0  0  0
 14  8  1  0  0  0  0
 15  9  1  0  0  0  0
 18 21  1  0  0  0  0
 18 22  1  0  0  0  0
 19 18  2  0  0  0  0
 20 18  2  0  0  0  0
 21  5  1  0  0  0  0
 22 23  1  0  0  0  0
 22 24  1  0  0  0  0
 25 22  1  0  0  0  0
M  RAD  1   7   2
M  END
