Coordinates from ORCA-job C6H6+HOTf+NH2--N2+-scan
 OpenBabel10191813343D

 26 24  0  0  1  0  0  0  0  0999 V2000
    0.9088   -7.1971   -2.4229 N   0  0  0  0  0  0  0  0  0  0  0  0
    0.8412   -8.2884   -2.4912 N   0  0  0  0  0  0  0  0  0  0  0  0
    2.3395   -2.3223   -1.8138 N   0  0  0  0  0  0  0  0  0  0  0  0
    2.1099   -3.3073   -1.8928 H   0  0  0  0  0  0  0  0  0  0  0  0
    2.4022    0.0888    3.1967 H   0  0  0  0  0  0  0  0  0  0  0  0
   -1.1890   -1.2546   -2.5149 C   0  0  0  0  0  0  0  0  0  0  0  0
   -1.0427   -1.0364   -3.8980 C   0  0  0  0  0  0  0  0  0  0  0  0
    0.2064   -1.0697   -4.5474 C   0  0  0  0  0  0  0  0  0  0  0  0
    1.3330   -1.3413   -3.8155 C   0  0  0  0  0  0  0  0  0  0  0  0
    1.2810   -1.4931   -2.3469 C   0  0  1  0  0  0  0  0  0  0  0  0
   -0.0798   -1.5217   -1.7529 C   0  0  0  0  0  0  0  0  0  0  0  0
   -2.1763   -1.2404   -2.0690 H   0  0  0  0  0  0  0  0  0  0  0  0
   -1.9318   -0.8431   -4.4910 H   0  0  0  0  0  0  0  0  0  0  0  0
    0.2625   -0.9171   -5.6182 H   0  0  0  0  0  0  0  0  0  0  0  0
    2.3163   -1.4098   -4.2684 H   0  0  0  0  0  0  0  0  0  0  0  0
    1.5444   -0.4244   -2.0871 H   0  0  0  0  0  0  0  0  0  0  0  0
   -0.1565   -1.6925   -0.6822 H   0  0  0  0  0  0  0  0  0  0  0  0
    1.4845   -1.5215    2.0914 S   0  0  0  0  0  0  0  0  0  0  0  0
    0.1570   -1.6238    1.5263 O   0  0  0  0  0  0  0  0  0  0  0  0
    2.6615   -1.5278    1.2359 O   0  0  0  0  0  0  0  0  0  0  0  0
    1.4936   -0.2168    3.0339 O   0  0  0  0  0  0  0  0  0  0  0  0
    1.6899   -2.8917    3.3797 C   0  0  0  0  0  0  0  0  0  0  0  0
    2.7958   -2.6483    4.0709 F   0  0  0  0  0  0  0  0  0  0  0  0
    0.6392   -2.9051    4.1749 F   0  0  0  0  0  0  0  0  0  0  0  0
    1.7969   -4.0401    2.7286 F   0  0  0  0  0  0  0  0  0  0  0  0
    2.5620   -2.1066   -0.8460 H   0  0  0  0  0  0  0  0  0  0  0  0
  2  1  3  0  0  0  0
  3 26  1  0  0  0  0
  4  3  1  0  0  0  0
  6 12  1  0  0  0  0
  6 11  2  0  0  0  0
  7  6  1  0  0  0  0
  8  7  1  0  0  0  0
  8  9  2  0  0  0  0
  9 10  1  0  0  0  0
 10 16  1  1  0  0  0
 10  3  1  0  0  0  0
 10 11  1  0  0  0  0
 11 17  1  0  0  0  0
 13  7  1  0  0  0  0
 14  8  1  0  0  0  0
 15  9  1  0  0  0  0
 18 21  1  0  0  0  0
 18 22  1  0  0  0  0
 19 18  2  0  0  0  0
 20 18  2  0  0  0  0
 21  5  1  0  0  0  0
 22 23  1  0  0  0  0
 22 24  1  0  0  0  0
 25 22  1  0  0  0  0
M  RAD  1   7   2
M  END
