Coordinates from ORCA-job C6H6+HOTf+NH2--N2+-scan
 OpenBabel10191813343D

 26 24  0  0  1  0  0  0  0  0999 V2000
    0.5889   -8.6962   -2.8552 N   0  0  0  0  0  0  0  0  0  0  0  0
    0.5550   -9.7870   -2.9516 N   0  0  0  0  0  0  0  0  0  0  0  0
    2.4116   -2.0993   -1.7679 N   0  0  0  0  0  0  0  0  0  0  0  0
    2.2400   -3.0951   -1.8548 H   0  0  0  0  0  0  0  0  0  0  0  0
    2.2903    0.2508    3.2695 H   0  0  0  0  0  0  0  0  0  0  0  0
   -1.1663   -1.2314   -2.4938 C   0  0  0  0  0  0  0  0  0  0  0  0
   -1.0209   -0.9955   -3.8742 C   0  0  0  0  0  0  0  0  0  0  0  0
    0.2337   -0.9520   -4.5123 C   0  0  0  0  0  0  0  0  0  0  0  0
    1.3677   -1.1632   -3.7721 C   0  0  0  0  0  0  0  0  0  0  0  0
    1.3118   -1.3281   -2.3050 C   0  0  1  0  0  0  0  0  0  0  0  0
   -0.0502   -1.4393   -1.7235 C   0  0  0  0  0  0  0  0  0  0  0  0
   -2.1566   -1.2774   -2.0568 H   0  0  0  0  0  0  0  0  0  0  0  0
   -1.9144   -0.8499   -4.4739 H   0  0  0  0  0  0  0  0  0  0  0  0
    0.2902   -0.7889   -5.5816 H   0  0  0  0  0  0  0  0  0  0  0  0
    2.3573   -1.1716   -4.2166 H   0  0  0  0  0  0  0  0  0  0  0  0
    1.5116   -0.2482   -2.0354 H   0  0  0  0  0  0  0  0  0  0  0  0
   -0.1263   -1.6217   -0.6546 H   0  0  0  0  0  0  0  0  0  0  0  0
    1.4779   -1.3956    2.1354 S   0  0  0  0  0  0  0  0  0  0  0  0
    0.1641   -1.5673    1.5553 O   0  0  0  0  0  0  0  0  0  0  0  0
    2.6612   -1.3234    1.2917 O   0  0  0  0  0  0  0  0  0  0  0  0
    1.4025   -0.1046    3.0933 O   0  0  0  0  0  0  0  0  0  0  0  0
    1.7498   -2.7680    3.4090 C   0  0  0  0  0  0  0  0  0  0  0  0
    2.8332   -2.4700    4.1143 F   0  0  0  0  0  0  0  0  0  0  0  0
    0.6942   -2.8519    4.1931 F   0  0  0  0  0  0  0  0  0  0  0  0
    1.9291   -3.8999    2.7451 F   0  0  0  0  0  0  0  0  0  0  0  0
    2.6142   -1.8777   -0.7971 H   0  0  0  0  0  0  0  0  0  0  0  0
  2  1  3  0  0  0  0
  3 26  1  0  0  0  0
  4  3  1  0  0  0  0
  6 12  1  0  0  0  0
  6 11  2  0  0  0  0
  7  6  1  0  0  0  0
  8  7  1  0  0  0  0
  8  9  2  0  0  0  0
  9 10  1  0  0  0  0
 10 16  1  1  0  0  0
 10  3  1  0  0  0  0
 10 11  1  0  0  0  0
 11 17  1  0  0  0  0
 13  7  1  0  0  0  0
 14  8  1  0  0  0  0
 15  9  1  0  0  0  0
 18 21  1  0  0  0  0
 18 22  1  0  0  0  0
 19 18  2  0  0  0  0
 20 18  2  0  0  0  0
 21  5  1  0  0  0  0
 22 23  1  0  0  0  0
 22 24  1  0  0  0  0
 25 22  1  0  0  0  0
M  RAD  1   7   2
M  END
