Coordinates from ORCA-job C6H6+HOTf+NH2--N2+-scan
 OpenBabel10191813343D

 26 24  0  0  0  0  0  0  0  0999 V2000
    1.1071   -4.5253   -1.7830 N   0  0  0  0  0  0  0  0  0  0  0  0
    0.7682   -5.5362   -2.0615 N   0  0  0  0  0  0  0  0  0  0  0  0
    1.7473   -3.2029   -1.5983 N   0  0  0  0  0  0  0  0  0  0  0  0
    0.9899   -2.5245   -1.8524 H   0  0  0  0  0  0  0  0  0  0  0  0
    3.8953   -1.8748    2.6634 H   0  0  0  0  0  0  0  0  0  0  0  0
   -1.0185   -1.7469   -2.7394 C   0  0  0  0  0  0  0  0  0  0  0  0
   -0.6311   -2.1140   -4.0314 C   0  0  0  0  0  0  0  0  0  0  0  0
    0.4917   -1.5258   -4.6176 C   0  0  0  0  0  0  0  0  0  0  0  0
    1.2291   -0.5710   -3.9164 C   0  0  0  0  0  0  0  0  0  0  0  0
    0.8471   -0.2028   -2.6249 C   0  0  0  0  0  0  0  0  0  0  0  0
   -0.2771   -0.7911   -2.0319 C   0  0  0  0  0  0  0  0  0  0  0  0
   -1.9119   -2.1741   -2.2964 H   0  0  0  0  0  0  0  0  0  0  0  0
   -1.2204   -2.8326   -4.5904 H   0  0  0  0  0  0  0  0  0  0  0  0
    0.7808   -1.7986   -5.6260 H   0  0  0  0  0  0  0  0  0  0  0  0
    2.0909   -0.1047   -4.3794 H   0  0  0  0  0  0  0  0  0  0  0  0
    1.4062    0.5545   -2.0870 H   0  0  0  0  0  0  0  0  0  0  0  0
   -0.5898   -0.4835   -1.0398 H   0  0  0  0  0  0  0  0  0  0  0  0
    1.8185   -2.0528    2.0875 S   0  0  0  0  0  0  0  0  0  0  0  0
    0.8461   -1.0594    1.7223 O   0  0  0  0  0  0  0  0  0  0  0  0
    2.2462   -3.0740    1.1187 O   0  0  0  0  0  0  0  0  0  0  0  0
    3.1136   -1.2959    2.6532 O   0  0  0  0  0  0  0  0  0  0  0  0
    1.2351   -2.9983    3.6238 C   0  0  0  0  0  0  0  0  0  0  0  0
    2.2616   -3.6996    4.0862 F   0  0  0  0  0  0  0  0  0  0  0  0
    0.8129   -2.1376    4.5226 F   0  0  0  0  0  0  0  0  0  0  0  0
    0.2568   -3.8050    3.2456 F   0  0  0  0  0  0  0  0  0  0  0  0
    1.9539   -3.1754   -0.5674 H   0  0  0  0  0  0  0  0  0  0  0  0
  1  3  1  0  0  0  0
  2  1  1  0  0  0  0
  3 26  1  0  0  0  0
  4  3  1  0  0  0  0
  6 12  1  0  0  0  0
  6 11  2  0  0  0  0
  7  6  1  0  0  0  0
  8  7  2  0  0  0  0
  8  9  1  0  0  0  0
  9 10  2  0  0  0  0
 10 16  1  0  0  0  0
 10 11  1  0  0  0  0
 11 17  1  0  0  0  0
 13  7  1  0  0  0  0
 14  8  1  0  0  0  0
 15  9  1  0  0  0  0
 18 21  1  0  0  0  0
 18 22  1  0  0  0  0
 19 18  2  0  0  0  0
 20 18  2  0  0  0  0
 21  5  1  0  0  0  0
 22 23  1  0  0  0  0
 22 24  1  0  0  0  0
 25 22  1  0  0  0  0
M  RAD  2   1   2   2   3
M  END
