Coordinates from ORCA-job C6H6+HOTf+NH2--N2+-scan
 OpenBabel10191813343D

 26 24  0  0  1  0  0  0  0  0999 V2000
    0.9321   -7.0987   -2.3960 N   0  0  0  0  0  0  0  0  0  0  0  0
    0.8620   -8.1899   -2.4620 N   0  0  0  0  0  0  0  0  0  0  0  0
    2.3339   -2.3378   -1.8168 N   0  0  0  0  0  0  0  0  0  0  0  0
    2.1000   -3.3219   -1.8950 H   0  0  0  0  0  0  0  0  0  0  0  0
    2.4105    0.0777    3.1917 H   0  0  0  0  0  0  0  0  0  0  0  0
   -1.1904   -1.2553   -2.5160 C   0  0  0  0  0  0  0  0  0  0  0  0
   -1.0441   -1.0384   -3.8994 C   0  0  0  0  0  0  0  0  0  0  0  0
    0.2044   -1.0776   -4.5496 C   0  0  0  0  0  0  0  0  0  0  0  0
    1.3303   -1.3537   -3.8184 C   0  0  0  0  0  0  0  0  0  0  0  0
    1.2787   -1.5045   -2.3496 C   0  0  1  0  0  0  0  0  0  0  0  0
   -0.0818   -1.5268   -1.7547 C   0  0  0  0  0  0  0  0  0  0  0  0
   -2.1773   -1.2365   -2.0695 H   0  0  0  0  0  0  0  0  0  0  0  0
   -1.9327   -0.8416   -4.4919 H   0  0  0  0  0  0  0  0  0  0  0  0
    0.2604   -0.9258   -5.6205 H   0  0  0  0  0  0  0  0  0  0  0  0
    2.3130   -1.4268   -4.2719 H   0  0  0  0  0  0  0  0  0  0  0  0
    1.5468   -0.4368   -2.0907 H   0  0  0  0  0  0  0  0  0  0  0  0
   -0.1585   -1.6967   -0.6838 H   0  0  0  0  0  0  0  0  0  0  0  0
    1.4851   -1.5296    2.0886 S   0  0  0  0  0  0  0  0  0  0  0  0
    0.1568   -1.6268    1.5246 O   0  0  0  0  0  0  0  0  0  0  0  0
    2.6614   -1.5419    1.2323 O   0  0  0  0  0  0  0  0  0  0  0  0
    1.5005   -0.2241    3.0298 O   0  0  0  0  0  0  0  0  0  0  0  0
    1.6854   -2.8995    3.3781 C   0  0  0  0  0  0  0  0  0  0  0  0
    2.7929   -2.6603    4.0682 F   0  0  0  0  0  0  0  0  0  0  0  0
    0.6353   -2.9075    4.1740 F   0  0  0  0  0  0  0  0  0  0  0  0
    1.7869   -4.0490    2.7280 F   0  0  0  0  0  0  0  0  0  0  0  0
    2.5580   -2.1225   -0.8493 H   0  0  0  0  0  0  0  0  0  0  0  0
  2  1  3  0  0  0  0
  3 26  1  0  0  0  0
  4  3  1  0  0  0  0
  6 12  1  0  0  0  0
  6 11  2  0  0  0  0
  7  6  1  0  0  0  0
  8  7  1  0  0  0  0
  8  9  2  0  0  0  0
  9 10  1  0  0  0  0
 10 16  1  1  0  0  0
 10  3  1  0  0  0  0
 10 11  1  0  0  0  0
 11 17  1  0  0  0  0
 13  7  1  0  0  0  0
 14  8  1  0  0  0  0
 15  9  1  0  0  0  0
 18 21  1  0  0  0  0
 18 22  1  0  0  0  0
 19 18  2  0  0  0  0
 20 18  2  0  0  0  0
 21  5  1  0  0  0  0
 22 23  1  0  0  0  0
 22 24  1  0  0  0  0
 25 22  1  0  0  0  0
M  RAD  1   7   2
M  END
