Coordinates from ORCA-job C6H6+HOTf+NH2--N2+-scan
 OpenBabel10191813343D

 26 24  0  0  1  0  0  0  0  0999 V2000
    0.5929   -8.6706   -2.8488 N   0  0  0  0  0  0  0  0  0  0  0  0
    0.5586   -9.7614   -2.9449 N   0  0  0  0  0  0  0  0  0  0  0  0
    2.4107   -2.1028   -1.7686 N   0  0  0  0  0  0  0  0  0  0  0  0
    2.2384   -3.0984   -1.8553 H   0  0  0  0  0  0  0  0  0  0  0  0
    2.2917    0.2485    3.2684 H   0  0  0  0  0  0  0  0  0  0  0  0
   -1.1666   -1.2324   -2.4941 C   0  0  0  0  0  0  0  0  0  0  0  0
   -1.0212   -0.9968   -3.8746 C   0  0  0  0  0  0  0  0  0  0  0  0
    0.2334   -0.9542   -4.5129 C   0  0  0  0  0  0  0  0  0  0  0  0
    1.3673   -1.1662   -3.7728 C   0  0  0  0  0  0  0  0  0  0  0  0
    1.3114   -1.3309   -2.3056 C   0  0  1  0  0  0  0  0  0  0  0  0
   -0.0506   -1.4409   -1.7239 C   0  0  0  0  0  0  0  0  0  0  0  0
   -2.1569   -1.2776   -2.0571 H   0  0  0  0  0  0  0  0  0  0  0  0
   -1.9147   -0.8506   -4.4742 H   0  0  0  0  0  0  0  0  0  0  0  0
    0.2899   -0.7913   -5.5822 H   0  0  0  0  0  0  0  0  0  0  0  0
    2.3568   -1.1753   -4.2174 H   0  0  0  0  0  0  0  0  0  0  0  0
    1.5120   -0.2511   -2.0362 H   0  0  0  0  0  0  0  0  0  0  0  0
   -0.1267   -1.6232   -0.6550 H   0  0  0  0  0  0  0  0  0  0  0  0
    1.4780   -1.3976    2.1347 S   0  0  0  0  0  0  0  0  0  0  0  0
    0.1639   -1.5685    1.5549 O   0  0  0  0  0  0  0  0  0  0  0  0
    2.6612   -1.3263    1.2909 O   0  0  0  0  0  0  0  0  0  0  0  0
    1.4036   -0.1063    3.0924 O   0  0  0  0  0  0  0  0  0  0  0  0
    1.7491   -2.7698    3.4087 C   0  0  0  0  0  0  0  0  0  0  0  0
    2.8328   -2.4724    4.1137 F   0  0  0  0  0  0  0  0  0  0  0  0
    0.6935   -2.8528    4.1929 F   0  0  0  0  0  0  0  0  0  0  0  0
    1.9275   -3.9020    2.7450 F   0  0  0  0  0  0  0  0  0  0  0  0
    2.6136   -1.8812   -0.7978 H   0  0  0  0  0  0  0  0  0  0  0  0
  2  1  3  0  0  0  0
  3 26  1  0  0  0  0
  4  3  1  0  0  0  0
  6 12  1  0  0  0  0
  6 11  2  0  0  0  0
  7  6  1  0  0  0  0
  8  7  1  0  0  0  0
  8  9  2  0  0  0  0
  9 10  1  0  0  0  0
 10 16  1  1  0  0  0
 10  3  1  0  0  0  0
 10 11  1  0  0  0  0
 11 17  1  0  0  0  0
 13  7  1  0  0  0  0
 14  8  1  0  0  0  0
 15  9  1  0  0  0  0
 18 21  1  0  0  0  0
 18 22  1  0  0  0  0
 19 18  2  0  0  0  0
 20 18  2  0  0  0  0
 21  5  1  0  0  0  0
 22 23  1  0  0  0  0
 22 24  1  0  0  0  0
 25 22  1  0  0  0  0
M  RAD  1   7   2
M  END
