Coordinates from ORCA-job C6H6+HOTf+NH2--N2+-scan
 OpenBabel10191813343D

 26 24  0  0  1  0  0  0  0  0999 V2000
    2.7188   -5.1455   -1.3947 N   0  0  0  0  0  0  0  0  0  0  0  0
    3.6418   -5.5051   -1.8649 N   0  0  0  0  0  0  0  0  0  0  0  0
    1.5566   -3.1681   -1.8693 N   0  0  0  0  0  0  0  0  0  0  0  0
    0.8407   -3.8852   -1.8212 H   0  0  0  0  0  0  0  0  0  0  0  0
    3.0751   -0.6507    2.8878 H   0  0  0  0  0  0  0  0  0  0  0  0
   -1.1482   -0.6628   -2.5178 C   0  0  0  0  0  0  0  0  0  0  0  0
   -1.0228   -0.6205   -3.9190 C   0  0  0  0  0  0  0  0  0  0  0  0
    0.0469   -1.2268   -4.6092 C   0  0  0  0  0  0  0  0  0  0  0  0
    0.9965   -1.9097   -3.8982 C   0  0  0  0  0  0  0  0  0  0  0  0
    0.9901   -1.9320   -2.4203 C   0  0  1  0  0  0  0  0  0  0  0  0
   -0.1958   -1.3156   -1.7766 C   0  0  0  0  0  0  0  0  0  0  0  0
   -2.0016   -0.1979   -2.0390 H   0  0  0  0  0  0  0  0  0  0  0  0
   -1.7880   -0.1079   -4.4947 H   0  0  0  0  0  0  0  0  0  0  0  0
    0.0847   -1.1824   -5.6906 H   0  0  0  0  0  0  0  0  0  0  0  0
    1.8144   -2.4325   -4.3825 H   0  0  0  0  0  0  0  0  0  0  0  0
    1.7550   -1.1291   -2.2281 H   0  0  0  0  0  0  0  0  0  0  0  0
   -0.2550   -1.3525   -0.6916 H   0  0  0  0  0  0  0  0  0  0  0  0
    1.5003   -1.8037    1.9666 S   0  0  0  0  0  0  0  0  0  0  0  0
    0.1947   -1.3920    1.5003 O   0  0  0  0  0  0  0  0  0  0  0  0
    2.4962   -2.3132    1.0355 O   0  0  0  0  0  0  0  0  0  0  0  0
    2.1092   -0.5737    2.8072 O   0  0  0  0  0  0  0  0  0  0  0  0
    1.2663   -3.0892    3.3353 C   0  0  0  0  0  0  0  0  0  0  0  0
    2.4378   -3.2802    3.9281 F   0  0  0  0  0  0  0  0  0  0  0  0
    0.3749   -2.6490    4.2001 F   0  0  0  0  0  0  0  0  0  0  0  0
    0.8502   -4.2094    2.7650 F   0  0  0  0  0  0  0  0  0  0  0  0
    1.9108   -3.0174   -0.9281 H   0  0  0  0  0  0  0  0  0  0  0  0
  2  1  3  0  0  0  0
  3  4  1  0  0  0  0
  3 26  1  0  0  0  0
  6 12  1  0  0  0  0
  6 11  2  0  0  0  0
  7  6  1  0  0  0  0
  8  7  1  0  0  0  0
  8  9  2  0  0  0  0
  9 10  1  0  0  0  0
 10 16  1  1  0  0  0
 10  3  1  0  0  0  0
 10 11  1  0  0  0  0
 11 17  1  0  0  0  0
 13  7  1  0  0  0  0
 14  8  1  0  0  0  0
 15  9  1  0  0  0  0
 18 21  1  0  0  0  0
 18 22  1  0  0  0  0
 19 18  2  0  0  0  0
 20 18  2  0  0  0  0
 21  5  1  0  0  0  0
 22 23  1  0  0  0  0
 22 24  1  0  0  0  0
 25 22  1  0  0  0  0
M  RAD  1   7   2
M  END
