Coordinates from ORCA-job C6H6+HOTf+NH2--N2+-scan
 OpenBabel10191813343D

 26 24  0  0  0  0  0  0  0  0999 V2000
    2.2290   -4.7360   -1.6132 N   0  0  0  0  0  0  0  0  0  0  0  0
    2.9886   -5.5110   -1.8211 N   0  0  0  0  0  0  0  0  0  0  0  0
    1.7250   -3.2254   -1.8570 N   0  0  0  0  0  0  0  0  0  0  0  0
    0.7420   -3.4155   -2.0856 H   0  0  0  0  0  0  0  0  0  0  0  0
    3.5944   -1.5943    2.6775 H   0  0  0  0  0  0  0  0  0  0  0  0
   -1.1373   -1.1691   -2.4772 C   0  0  0  0  0  0  0  0  0  0  0  0
   -1.1305   -1.4736   -3.8418 C   0  0  0  0  0  0  0  0  0  0  0  0
    0.0723   -1.5160   -4.5604 C   0  0  0  0  0  0  0  0  0  0  0  0
    1.2712   -1.2554   -3.9160 C   0  0  0  0  0  0  0  0  0  0  0  0
    1.2781   -0.9616   -2.5336 C   0  0  0  0  0  0  0  0  0  0  0  0
    0.0601   -0.8991   -1.8211 C   0  0  0  0  0  0  0  0  0  0  0  0
   -2.0755   -1.1173   -1.9376 H   0  0  0  0  0  0  0  0  0  0  0  0
   -2.0670   -1.6668   -4.3529 H   0  0  0  0  0  0  0  0  0  0  0  0
    0.0602   -1.7368   -5.6211 H   0  0  0  0  0  0  0  0  0  0  0  0
    2.2056   -1.2704   -4.4645 H   0  0  0  0  0  0  0  0  0  0  0  0
    2.1993   -0.6408   -2.0606 H   0  0  0  0  0  0  0  0  0  0  0  0
    0.0593   -0.6195   -0.7733 H   0  0  0  0  0  0  0  0  0  0  0  0
    1.5606   -1.8400    1.9834 S   0  0  0  0  0  0  0  0  0  0  0  0
    0.5482   -0.8678    1.6683 O   0  0  0  0  0  0  0  0  0  0  0  0
    2.0900   -2.7374    0.9518 O   0  0  0  0  0  0  0  0  0  0  0  0
    2.7787   -1.0653    2.6867 O   0  0  0  0  0  0  0  0  0  0  0  0
    0.9577   -2.9415    3.4014 C   0  0  0  0  0  0  0  0  0  0  0  0
    1.9956   -3.6389    3.8486 F   0  0  0  0  0  0  0  0  0  0  0  0
    0.4574   -2.1870    4.3546 F   0  0  0  0  0  0  0  0  0  0  0  0
    0.0354   -3.7545    2.9104 F   0  0  0  0  0  0  0  0  0  0  0  0
    1.7509   -2.9115   -0.8653 H   0  0  0  0  0  0  0  0  0  0  0  0
  2  1  2  0  0  0  0
  3  1  1  0  0  0  0
  3 26  1  0  0  0  0
  4  3  1  0  0  0  0
  5 21  1  0  0  0  0
  6 12  1  0  0  0  0
  6 11  1  0  0  0  0
  7  6  2  0  0  0  0
  8  9  2  0  0  0  0
  8  7  1  0  0  0  0
  9 10  1  0  0  0  0
 10 16  1  0  0  0  0
 10 11  2  0  0  0  0
 11 17  1  0  0  0  0
 13  7  1  0  0  0  0
 14  8  1  0  0  0  0
 15  9  1  0  0  0  0
 18 21  1  0  0  0  0
 18 22  1  0  0  0  0
 19 18  2  0  0  0  0
 20 18  2  0  0  0  0
 22 23  1  0  0  0  0
 22 24  1  0  0  0  0
 25 22  1  0  0  0  0
M  RAD  1   2   2
M  END
