Coordinates from ORCA-job C6H6+HOTf+NH2--N2+-scan
 OpenBabel10191813343D

 26 24  0  0  1  0  0  0  0  0999 V2000
    1.0332   -6.6065   -2.2811 N   0  0  0  0  0  0  0  0  0  0  0  0
    0.9467   -7.6969   -2.3393 N   0  0  0  0  0  0  0  0  0  0  0  0
    2.3089   -2.4139   -1.8288 N   0  0  0  0  0  0  0  0  0  0  0  0
    2.0547   -3.3936   -1.9024 H   0  0  0  0  0  0  0  0  0  0  0  0
    2.4455    0.0290    3.1674 H   0  0  0  0  0  0  0  0  0  0  0  0
   -1.1957   -1.2648   -2.5214 C   0  0  0  0  0  0  0  0  0  0  0  0
   -1.0493   -1.0546   -3.9057 C   0  0  0  0  0  0  0  0  0  0  0  0
    0.1962   -1.1203   -4.5594 C   0  0  0  0  0  0  0  0  0  0  0  0
    1.3186   -1.4167   -3.8306 C   0  0  0  0  0  0  0  0  0  0  0  0
    1.2684   -1.5623   -2.3614 C   0  0  1  0  0  0  0  0  0  0  0  0
   -0.0905   -1.5562   -1.7625 C   0  0  0  0  0  0  0  0  0  0  0  0
   -2.1808   -1.2253   -2.0721 H   0  0  0  0  0  0  0  0  0  0  0  0
   -1.9355   -0.8416   -4.4961 H   0  0  0  0  0  0  0  0  0  0  0  0
    0.2522   -0.9726   -5.6309 H   0  0  0  0  0  0  0  0  0  0  0  0
    2.2984   -1.5103   -4.2867 H   0  0  0  0  0  0  0  0  0  0  0  0
    1.5575   -0.4988   -2.1068 H   0  0  0  0  0  0  0  0  0  0  0  0
   -0.1673   -1.7216   -0.6910 H   0  0  0  0  0  0  0  0  0  0  0  0
    1.4878   -1.5675    2.0763 S   0  0  0  0  0  0  0  0  0  0  0  0
    0.1561   -1.6438    1.5170 O   0  0  0  0  0  0  0  0  0  0  0  0
    2.6611   -1.6057    1.2167 O   0  0  0  0  0  0  0  0  0  0  0  0
    1.5296   -0.2576    3.0105 O   0  0  0  0  0  0  0  0  0  0  0  0
    1.6673   -2.9337    3.3727 C   0  0  0  0  0  0  0  0  0  0  0  0
    2.7813   -2.7112    4.0578 F   0  0  0  0  0  0  0  0  0  0  0  0
    0.6199   -2.9182    4.1721 F   0  0  0  0  0  0  0  0  0  0  0  0
    1.7455   -4.0885    2.7287 F   0  0  0  0  0  0  0  0  0  0  0  0
    2.5398   -2.1990   -0.8629 H   0  0  0  0  0  0  0  0  0  0  0  0
  2  1  3  0  0  0  0
  3 26  1  0  0  0  0
  4  3  1  0  0  0  0
  6 12  1  0  0  0  0
  6 11  2  0  0  0  0
  7  6  1  0  0  0  0
  8  7  1  0  0  0  0
  8  9  2  0  0  0  0
  9 10  1  0  0  0  0
 10 16  1  1  0  0  0
 10  3  1  0  0  0  0
 10 11  1  0  0  0  0
 11 17  1  0  0  0  0
 13  7  1  0  0  0  0
 14  8  1  0  0  0  0
 15  9  1  0  0  0  0
 18 21  1  0  0  0  0
 18 22  1  0  0  0  0
 19 18  2  0  0  0  0
 20 18  2  0  0  0  0
 21  5  1  0  0  0  0
 22 23  1  0  0  0  0
 22 24  1  0  0  0  0
 25 22  1  0  0  0  0
M  RAD  1   7   2
M  END
