Coordinates from ORCA-job C6H6+HOTf+NH2--N2+-scan
 OpenBabel10191813343D

 26 24  0  0  1  0  0  0  0  0999 V2000
    0.7282   -7.9583   -2.6518 N   0  0  0  0  0  0  0  0  0  0  0  0
    0.6789   -9.0494   -2.7376 N   0  0  0  0  0  0  0  0  0  0  0  0
    2.3809   -2.2044   -1.7887 N   0  0  0  0  0  0  0  0  0  0  0  0
    2.1841   -3.1959   -1.8719 H   0  0  0  0  0  0  0  0  0  0  0  0
    2.3381    0.1769    3.2355 H   0  0  0  0  0  0  0  0  0  0  0  0
   -1.1769   -1.2503   -2.5044 C   0  0  0  0  0  0  0  0  0  0  0  0
   -1.0309   -1.0225   -3.8861 C   0  0  0  0  0  0  0  0  0  0  0  0
    0.2221   -1.0123   -4.5290 C   0  0  0  0  0  0  0  0  0  0  0  0
    1.3532   -1.2492   -3.7922 C   0  0  0  0  0  0  0  0  0  0  0  0
    1.2987   -1.4079   -2.3244 C   0  0  1  0  0  0  0  0  0  0  0  0
   -0.0635   -1.4833   -1.7375 C   0  0  0  0  0  0  0  0  0  0  0  0
   -2.1665   -1.2703   -2.0638 H   0  0  0  0  0  0  0  0  0  0  0  0
   -1.9228   -0.8567   -4.4831 H   0  0  0  0  0  0  0  0  0  0  0  0
    0.2786   -0.8541   -5.5990 H   0  0  0  0  0  0  0  0  0  0  0  0
    2.3406   -1.2837   -4.2403 H   0  0  0  0  0  0  0  0  0  0  0  0
    1.5261   -0.3324   -2.0591 H   0  0  0  0  0  0  0  0  0  0  0  0
   -0.1400   -1.6604   -0.6678 H   0  0  0  0  0  0  0  0  0  0  0  0
    1.4805   -1.4556    2.1149 S   0  0  0  0  0  0  0  0  0  0  0  0
    0.1603   -1.5984    1.5415 O   0  0  0  0  0  0  0  0  0  0  0  0
    2.6616   -1.4175    1.2658 O   0  0  0  0  0  0  0  0  0  0  0  0
    1.4411   -0.1575    3.0653 O   0  0  0  0  0  0  0  0  0  0  0  0
    1.7243   -2.8266    3.3957 C   0  0  0  0  0  0  0  0  0  0  0  0
    2.8176   -2.5510    4.0946 F   0  0  0  0  0  0  0  0  0  0  0  0
    0.6703   -2.8800    4.1847 F   0  0  0  0  0  0  0  0  0  0  0  0
    1.8729   -3.9665    2.7380 F   0  0  0  0  0  0  0  0  0  0  0  0
    2.5922   -1.9849   -0.8193 H   0  0  0  0  0  0  0  0  0  0  0  0
  2  1  3  0  0  0  0
  3 26  1  0  0  0  0
  4  3  1  0  0  0  0
  6 12  1  0  0  0  0
  6 11  2  0  0  0  0
  7  6  1  0  0  0  0
  8  7  1  0  0  0  0
  8  9  2  0  0  0  0
  9 10  1  0  0  0  0
 10 16  1  1  0  0  0
 10  3  1  0  0  0  0
 10 11  1  0  0  0  0
 11 17  1  0  0  0  0
 13  7  1  0  0  0  0
 14  8  1  0  0  0  0
 15  9  1  0  0  0  0
 18 21  1  0  0  0  0
 18 22  1  0  0  0  0
 19 18  2  0  0  0  0
 20 18  2  0  0  0  0
 21  5  1  0  0  0  0
 22 23  1  0  0  0  0
 22 24  1  0  0  0  0
 25 22  1  0  0  0  0
M  RAD  1   7   2
M  END
