Coordinates from ORCA-job C6H6+HOTf+NH2--N2+-scan
 OpenBabel10191813343D

 26 24  0  0  0  0  0  0  0  0999 V2000
    2.2804   -4.7262   -1.6143 N   0  0  0  0  0  0  0  0  0  0  0  0
    3.0748   -5.4590   -1.8441 N   0  0  0  0  0  0  0  0  0  0  0  0
    1.7317   -3.2113   -1.8681 N   0  0  0  0  0  0  0  0  0  0  0  0
    0.7528   -3.4392   -2.0790 H   0  0  0  0  0  0  0  0  0  0  0  0
    3.5800   -1.5840    2.7012 H   0  0  0  0  0  0  0  0  0  0  0  0
   -1.1320   -1.1491   -2.4619 C   0  0  0  0  0  0  0  0  0  0  0  0
   -1.1466   -1.4444   -3.8284 C   0  0  0  0  0  0  0  0  0  0  0  0
    0.0476   -1.5169   -4.5609 C   0  0  0  0  0  0  0  0  0  0  0  0
    1.2588   -1.2945   -3.9287 C   0  0  0  0  0  0  0  0  0  0  0  0
    1.2892   -1.0116   -2.5418 C   0  0  0  0  0  0  0  0  0  0  0  0
    0.0782   -0.9167   -1.8168 C   0  0  0  0  0  0  0  0  0  0  0  0
   -2.0630   -1.0749   -1.9127 H   0  0  0  0  0  0  0  0  0  0  0  0
   -2.0931   -1.6083   -4.3312 H   0  0  0  0  0  0  0  0  0  0  0  0
    0.0174   -1.7308   -5.6226 H   0  0  0  0  0  0  0  0  0  0  0  0
    2.1872   -1.3327   -4.4861 H   0  0  0  0  0  0  0  0  0  0  0  0
    2.2197   -0.6975   -2.0832 H   0  0  0  0  0  0  0  0  0  0  0  0
    0.0956   -0.6425   -0.7677 H   0  0  0  0  0  0  0  0  0  0  0  0
    1.5538   -1.8344    1.9873 S   0  0  0  0  0  0  0  0  0  0  0  0
    0.5415   -0.8635    1.6664 O   0  0  0  0  0  0  0  0  0  0  0  0
    2.0956   -2.7250    0.9572 O   0  0  0  0  0  0  0  0  0  0  0  0
    2.7620   -1.0585    2.7068 O   0  0  0  0  0  0  0  0  0  0  0  0
    0.9390   -2.9421    3.3953 C   0  0  0  0  0  0  0  0  0  0  0  0
    1.9732   -3.6402    3.8498 F   0  0  0  0  0  0  0  0  0  0  0  0
    0.4286   -2.1919    4.3469 F   0  0  0  0  0  0  0  0  0  0  0  0
    0.0220   -3.7540    2.8925 F   0  0  0  0  0  0  0  0  0  0  0  0
    1.7550   -2.9029   -0.8755 H   0  0  0  0  0  0  0  0  0  0  0  0
  2  1  2  0  0  0  0
  3  1  1  0  0  0  0
  3 26  1  0  0  0  0
  4  3  1  0  0  0  0
  5 21  1  0  0  0  0
  6 12  1  0  0  0  0
  6 11  1  0  0  0  0
  7  6  2  0  0  0  0
  8  9  2  0  0  0  0
  8  7  1  0  0  0  0
  9 10  1  0  0  0  0
 10 16  1  0  0  0  0
 10 11  2  0  0  0  0
 11 17  1  0  0  0  0
 13  7  1  0  0  0  0
 14  8  1  0  0  0  0
 15  9  1  0  0  0  0
 18 21  1  0  0  0  0
 18 22  1  0  0  0  0
 19 18  2  0  0  0  0
 20 18  2  0  0  0  0
 22 23  1  0  0  0  0
 22 24  1  0  0  0  0
 25 22  1  0  0  0  0
M  RAD  1   2   2
M  END
