Coordinates from ORCA-job C6H6+HOTf+NH2--N2+-scan
 OpenBabel10191813343D

 26 24  0  0  1  0  0  0  0  0999 V2000
    1.2367   -6.0476   -2.1278 N   0  0  0  0  0  0  0  0  0  0  0  0
    1.1836   -7.1409   -2.1652 N   0  0  0  0  0  0  0  0  0  0  0  0
    2.2477   -2.5365   -1.8482 N   0  0  0  0  0  0  0  0  0  0  0  0
    1.9502   -3.5051   -1.9144 H   0  0  0  0  0  0  0  0  0  0  0  0
    2.5158   -0.0435    3.1248 H   0  0  0  0  0  0  0  0  0  0  0  0
   -1.2073   -1.2369   -2.5252 C   0  0  0  0  0  0  0  0  0  0  0  0
   -1.0600   -1.0371   -3.9109 C   0  0  0  0  0  0  0  0  0  0  0  0
    0.1775   -1.1600   -4.5714 C   0  0  0  0  0  0  0  0  0  0  0  0
    1.2899   -1.5038   -3.8481 C   0  0  0  0  0  0  0  0  0  0  0  0
    1.2422   -1.6434   -2.3784 C   0  0  1  0  0  0  0  0  0  0  0  0
   -0.1115   -1.5751   -1.7720 C   0  0  0  0  0  0  0  0  0  0  0  0
   -2.1869   -1.1522   -2.0702 H   0  0  0  0  0  0  0  0  0  0  0  0
   -1.9393   -0.7862   -4.4968 H   0  0  0  0  0  0  0  0  0  0  0  0
    0.2337   -1.0176   -5.6436 H   0  0  0  0  0  0  0  0  0  0  0  0
    2.2621   -1.6415   -4.3094 H   0  0  0  0  0  0  0  0  0  0  0  0
    1.5773   -0.5916   -2.1303 H   0  0  0  0  0  0  0  0  0  0  0  0
   -0.1889   -1.7338   -0.6996 H   0  0  0  0  0  0  0  0  0  0  0  0
    1.4932   -1.6155    2.0572 S   0  0  0  0  0  0  0  0  0  0  0  0
    0.1562   -1.6485    1.5066 O   0  0  0  0  0  0  0  0  0  0  0  0
    2.6593   -1.7063    1.1920 O   0  0  0  0  0  0  0  0  0  0  0  0
    1.5890   -0.2982    2.9773 O   0  0  0  0  0  0  0  0  0  0  0  0
    1.6295   -2.9732    3.3674 C   0  0  0  0  0  0  0  0  0  0  0  0
    2.7555   -2.7857    4.0435 F   0  0  0  0  0  0  0  0  0  0  0  0
    0.5886   -2.9100    4.1730 F   0  0  0  0  0  0  0  0  0  0  0  0
    1.6601   -4.1372    2.7357 F   0  0  0  0  0  0  0  0  0  0  0  0
    2.4952   -2.3249   -0.8859 H   0  0  0  0  0  0  0  0  0  0  0  0
  2  1  3  0  0  0  0
  3 26  1  0  0  0  0
  4  3  1  0  0  0  0
  6 12  1  0  0  0  0
  6 11  2  0  0  0  0
  7  6  1  0  0  0  0
  8  7  1  0  0  0  0
  8  9  2  0  0  0  0
  9 10  1  0  0  0  0
 10 16  1  1  0  0  0
 10  3  1  0  0  0  0
 10 11  1  0  0  0  0
 11 17  1  0  0  0  0
 13  7  1  0  0  0  0
 14  8  1  0  0  0  0
 15  9  1  0  0  0  0
 18 21  1  0  0  0  0
 18 22  1  0  0  0  0
 19 18  2  0  0  0  0
 20 18  2  0  0  0  0
 21  5  1  0  0  0  0
 22 23  1  0  0  0  0
 22 24  1  0  0  0  0
 25 22  1  0  0  0  0
M  RAD  1   7   2
M  END
