Coordinates from ORCA-job C6H6+HOTf+NH2--N2+-scan
 OpenBabel10191813343D

 26 24  0  0  1  0  0  0  0  0999 V2000
    2.4823   -5.6655   -1.2160 N   0  0  0  0  0  0  0  0  0  0  0  0
    3.3390   -6.3387   -1.1043 N   0  0  0  0  0  0  0  0  0  0  0  0
    1.7576   -2.9475   -1.9737 N   0  0  0  0  0  0  0  0  0  0  0  0
    1.2162   -3.8024   -2.0133 H   0  0  0  0  0  0  0  0  0  0  0  0
    3.0014   -0.5341    2.8832 H   0  0  0  0  0  0  0  0  0  0  0  0
   -1.2431   -0.7622   -2.5197 C   0  0  0  0  0  0  0  0  0  0  0  0
   -1.1149   -0.6213   -3.9145 C   0  0  0  0  0  0  0  0  0  0  0  0
    0.0112   -1.0775   -4.6265 C   0  0  0  0  0  0  0  0  0  0  0  0
    1.0239   -1.7021   -3.9462 C   0  0  0  0  0  0  0  0  0  0  0  0
    1.0111   -1.8135   -2.4734 C   0  0  1  0  0  0  0  0  0  0  0  0
   -0.2426   -1.3757   -1.8089 C   0  0  0  0  0  0  0  0  0  0  0  0
   -2.1406   -0.4128   -2.0235 H   0  0  0  0  0  0  0  0  0  0  0  0
   -1.9222   -0.1485   -4.4661 H   0  0  0  0  0  0  0  0  0  0  0  0
    0.0517   -0.9638   -5.7028 H   0  0  0  0  0  0  0  0  0  0  0  0
    1.8992   -2.1007   -4.4478 H   0  0  0  0  0  0  0  0  0  0  0  0
    1.6335   -0.8940   -2.2579 H   0  0  0  0  0  0  0  0  0  0  0  0
   -0.3068   -1.4961   -0.7307 H   0  0  0  0  0  0  0  0  0  0  0  0
    1.5287   -1.7927    1.9322 S   0  0  0  0  0  0  0  0  0  0  0  0
    0.2047   -1.4718    1.4468 O   0  0  0  0  0  0  0  0  0  0  0  0
    2.5740   -2.2269    1.0181 O   0  0  0  0  0  0  0  0  0  0  0  0
    2.0338   -0.5258    2.7873 O   0  0  0  0  0  0  0  0  0  0  0  0
    1.3631   -3.0955    3.2939 C   0  0  0  0  0  0  0  0  0  0  0  0
    2.5339   -3.2025    3.9093 F   0  0  0  0  0  0  0  0  0  0  0  0
    0.4254   -2.7249    4.1422 F   0  0  0  0  0  0  0  0  0  0  0  0
    1.0413   -4.2422    2.7145 F   0  0  0  0  0  0  0  0  0  0  0  0
    2.0877   -2.8136   -1.0222 H   0  0  0  0  0  0  0  0  0  0  0  0
  1  2  3  0  0  0  0
  3 26  1  0  0  0  0
  4  3  1  0  0  0  0
  6 12  1  0  0  0  0
  6 11  2  0  0  0  0
  7  6  1  0  0  0  0
  8  9  2  0  0  0  0
  8  7  1  0  0  0  0
  9 10  1  0  0  0  0
 10 16  1  1  0  0  0
 10  3  1  0  0  0  0
 10 11  1  0  0  0  0
 11 17  1  0  0  0  0
 13  7  1  0  0  0  0
 14  8  1  0  0  0  0
 15  9  1  0  0  0  0
 18 21  1  0  0  0  0
 18 22  1  0  0  0  0
 19 18  2  0  0  0  0
 20 18  2  0  0  0  0
 21  5  1  0  0  0  0
 22 23  1  0  0  0  0
 22 24  1  0  0  0  0
 25 22  1  0  0  0  0
M  RAD  1   7   2
M  END
