Coordinates from ORCA-job C6H6+HOTf+NH2--N2+-scan
 OpenBabel10191813343D

 26 24  0  0  0  0  0  0  0  0999 V2000
    2.0179   -4.7883   -1.6205 N   0  0  0  0  0  0  0  0  0  0  0  0
    2.6574   -5.6668   -1.8174 N   0  0  0  0  0  0  0  0  0  0  0  0
    1.6427   -3.2658   -1.8221 N   0  0  0  0  0  0  0  0  0  0  0  0
    0.6415   -3.3492   -2.0408 H   0  0  0  0  0  0  0  0  0  0  0  0
    3.6376   -1.5469    2.5922 H   0  0  0  0  0  0  0  0  0  0  0  0
   -1.1593   -1.2446   -2.5549 C   0  0  0  0  0  0  0  0  0  0  0  0
   -1.0565   -1.5340   -3.9190 C   0  0  0  0  0  0  0  0  0  0  0  0
    0.1834   -1.4807   -4.5669 C   0  0  0  0  0  0  0  0  0  0  0  0
    1.3249   -1.1446   -3.8520 C   0  0  0  0  0  0  0  0  0  0  0  0
    1.2328   -0.8654   -2.4743 C   0  0  0  0  0  0  0  0  0  0  0  0
   -0.0204   -0.8976   -1.8306 C   0  0  0  0  0  0  0  0  0  0  0  0
   -2.1271   -1.2637   -2.0677 H   0  0  0  0  0  0  0  0  0  0  0  0
   -1.9470   -1.7865   -4.4835 H   0  0  0  0  0  0  0  0  0  0  0  0
    0.2474   -1.6882   -5.6285 H   0  0  0  0  0  0  0  0  0  0  0  0
    2.2863   -1.0880   -4.3487 H   0  0  0  0  0  0  0  0  0  0  0  0
    2.1090   -0.5193   -1.9372 H   0  0  0  0  0  0  0  0  0  0  0  0
   -0.0963   -0.6316   -0.7820 H   0  0  0  0  0  0  0  0  0  0  0  0
    1.5881   -1.8516    1.9711 S   0  0  0  0  0  0  0  0  0  0  0  0
    0.5439   -0.9109    1.6666 O   0  0  0  0  0  0  0  0  0  0  0  0
    2.1042   -2.7633    0.9438 O   0  0  0  0  0  0  0  0  0  0  0  0
    2.8117   -1.0342    2.6127 O   0  0  0  0  0  0  0  0  0  0  0  0
    1.0595   -2.9339    3.4333 C   0  0  0  0  0  0  0  0  0  0  0  0
    2.1290   -3.5935    3.8628 F   0  0  0  0  0  0  0  0  0  0  0  0
    0.5700   -2.1693    4.3839 F   0  0  0  0  0  0  0  0  0  0  0  0
    0.1438   -3.7814    2.9908 F   0  0  0  0  0  0  0  0  0  0  0  0
    1.7250   -2.9529   -0.8309 H   0  0  0  0  0  0  0  0  0  0  0  0
  2  1  2  0  0  0  0
  3  1  1  0  0  0  0
  3 26  1  0  0  0  0
  4  3  1  0  0  0  0
  5 21  1  0  0  0  0
  6 12  1  0  0  0  0
  6 11  2  0  0  0  0
  7  6  1  0  0  0  0
  8  7  2  0  0  0  0
  8  9  1  0  0  0  0
  9 10  2  0  0  0  0
 10 16  1  0  0  0  0
 10 11  1  0  0  0  0
 11 17  1  0  0  0  0
 13  7  1  0  0  0  0
 14  8  1  0  0  0  0
 15  9  1  0  0  0  0
 18 21  1  0  0  0  0
 18 22  1  0  0  0  0
 19 18  2  0  0  0  0
 20 18  2  0  0  0  0
 22 23  1  0  0  0  0
 22 24  1  0  0  0  0
 25 22  1  0  0  0  0
M  RAD  1   2   2
M  END
