Coordinates from ORCA-job C6H6+HOTf+NH2--N2+-scan
 OpenBabel10191813343D

 26 24  0  0  1  0  0  0  0  0999 V2000
    0.8117   -7.5879   -2.5419 N   0  0  0  0  0  0  0  0  0  0  0  0
    0.7531   -8.6790   -2.6205 N   0  0  0  0  0  0  0  0  0  0  0  0
    2.3620   -2.2606   -1.8006 N   0  0  0  0  0  0  0  0  0  0  0  0
    2.1502   -3.2492   -1.8818 H   0  0  0  0  0  0  0  0  0  0  0  0
    2.3675    0.1354    3.2171 H   0  0  0  0  0  0  0  0  0  0  0  0
   -1.1827   -1.2543   -2.5096 C   0  0  0  0  0  0  0  0  0  0  0  0
   -1.0365   -1.0309   -3.8920 C   0  0  0  0  0  0  0  0  0  0  0  0
    0.2149   -1.0406   -4.5378 C   0  0  0  0  0  0  0  0  0  0  0  0
    1.3441   -1.2934   -3.8033 C   0  0  0  0  0  0  0  0  0  0  0  0
    1.2906   -1.4489   -2.3350 C   0  0  1  0  0  0  0  0  0  0  0  0
   -0.0711   -1.5029   -1.7450 C   0  0  0  0  0  0  0  0  0  0  0  0
   -2.1714   -1.2586   -2.0666 H   0  0  0  0  0  0  0  0  0  0  0  0
   -1.9271   -0.8525   -4.4872 H   0  0  0  0  0  0  0  0  0  0  0  0
    0.2713   -0.8850   -5.6082 H   0  0  0  0  0  0  0  0  0  0  0  0
    2.3298   -1.3435   -4.2535 H   0  0  0  0  0  0  0  0  0  0  0  0
    1.5347   -0.3764   -2.0722 H   0  0  0  0  0  0  0  0  0  0  0  0
   -0.1478   -1.6770   -0.6748 H   0  0  0  0  0  0  0  0  0  0  0  0
    1.4823   -1.4873    2.1037 S   0  0  0  0  0  0  0  0  0  0  0  0
    0.1585   -1.6117    1.5342 O   0  0  0  0  0  0  0  0  0  0  0  0
    2.6616   -1.4697    1.2516 O   0  0  0  0  0  0  0  0  0  0  0  0
    1.4651   -0.1858    3.0503 O   0  0  0  0  0  0  0  0  0  0  0  0
    1.7085   -2.8579    3.3881 C   0  0  0  0  0  0  0  0  0  0  0  0
    2.8078   -2.5968    4.0834 F   0  0  0  0  0  0  0  0  0  0  0  0
    0.6559   -2.8929    4.1800 F   0  0  0  0  0  0  0  0  0  0  0  0
    1.8383   -4.0020    2.7335 F   0  0  0  0  0  0  0  0  0  0  0  0
    2.5785   -2.0427   -0.8319 H   0  0  0  0  0  0  0  0  0  0  0  0
  2  1  3  0  0  0  0
  3 26  1  0  0  0  0
  4  3  1  0  0  0  0
  6 12  1  0  0  0  0
  6 11  2  0  0  0  0
  7  6  1  0  0  0  0
  8  7  1  0  0  0  0
  8  9  2  0  0  0  0
  9 10  1  0  0  0  0
 10 16  1  1  0  0  0
 10  3  1  0  0  0  0
 10 11  1  0  0  0  0
 11 17  1  0  0  0  0
 13  7  1  0  0  0  0
 14  8  1  0  0  0  0
 15  9  1  0  0  0  0
 18 21  1  0  0  0  0
 18 22  1  0  0  0  0
 19 18  2  0  0  0  0
 20 18  2  0  0  0  0
 21  5  1  0  0  0  0
 22 23  1  0  0  0  0
 22 24  1  0  0  0  0
 25 22  1  0  0  0  0
M  RAD  1   7   2
M  END
