Coordinates from ORCA-job C6H6+HOTf+NH2--N2+-scan
 OpenBabel10191813343D

 26 24  0  0  1  0  0  0  0  0999 V2000
    0.8293   -7.5143   -2.5196 N   0  0  0  0  0  0  0  0  0  0  0  0
    0.7689   -8.6055   -2.5964 N   0  0  0  0  0  0  0  0  0  0  0  0
    2.3580   -2.2720   -1.8030 N   0  0  0  0  0  0  0  0  0  0  0  0
    2.1429   -3.2600   -1.8838 H   0  0  0  0  0  0  0  0  0  0  0  0
    2.3737    0.1269    3.2134 H   0  0  0  0  0  0  0  0  0  0  0  0
   -1.1839   -1.2546   -2.5107 C   0  0  0  0  0  0  0  0  0  0  0  0
   -1.0376   -1.0321   -3.8932 C   0  0  0  0  0  0  0  0  0  0  0  0
    0.2134   -1.0461   -4.5396 C   0  0  0  0  0  0  0  0  0  0  0  0
    1.3421   -1.3023   -3.8055 C   0  0  0  0  0  0  0  0  0  0  0  0
    1.2889   -1.4572   -2.3372 C   0  0  1  0  0  0  0  0  0  0  0  0
   -0.0727   -1.5065   -1.7465 C   0  0  0  0  0  0  0  0  0  0  0  0
   -2.1724   -1.2556   -2.0672 H   0  0  0  0  0  0  0  0  0  0  0  0
   -1.9280   -0.8511   -4.4879 H   0  0  0  0  0  0  0  0  0  0  0  0
    0.2698   -0.8910   -5.6100 H   0  0  0  0  0  0  0  0  0  0  0  0
    2.3274   -1.3557   -4.2562 H   0  0  0  0  0  0  0  0  0  0  0  0
    1.5364   -0.3854   -2.0749 H   0  0  0  0  0  0  0  0  0  0  0  0
   -0.1494   -1.6801   -0.6762 H   0  0  0  0  0  0  0  0  0  0  0  0
    1.4827   -1.4937    2.1014 S   0  0  0  0  0  0  0  0  0  0  0  0
    0.1582   -1.6142    1.5327 O   0  0  0  0  0  0  0  0  0  0  0  0
    2.6616   -1.4804    1.2487 O   0  0  0  0  0  0  0  0  0  0  0  0
    1.4702   -0.1916    3.0473 O   0  0  0  0  0  0  0  0  0  0  0  0
    1.7052   -2.8643    3.3865 C   0  0  0  0  0  0  0  0  0  0  0  0
    2.8056   -2.6063    4.0811 F   0  0  0  0  0  0  0  0  0  0  0  0
    0.6529   -2.8954    4.1790 F   0  0  0  0  0  0  0  0  0  0  0  0
    1.8308   -4.0091    2.7326 F   0  0  0  0  0  0  0  0  0  0  0  0
    2.5756   -2.0546   -0.8345 H   0  0  0  0  0  0  0  0  0  0  0  0
  2  1  3  0  0  0  0
  3 26  1  0  0  0  0
  4  3  1  0  0  0  0
  6 12  1  0  0  0  0
  6 11  2  0  0  0  0
  7  6  1  0  0  0  0
  8  7  1  0  0  0  0
  8  9  2  0  0  0  0
  9 10  1  0  0  0  0
 10 16  1  1  0  0  0
 10  3  1  0  0  0  0
 10 11  1  0  0  0  0
 11 17  1  0  0  0  0
 13  7  1  0  0  0  0
 14  8  1  0  0  0  0
 15  9  1  0  0  0  0
 18 21  1  0  0  0  0
 18 22  1  0  0  0  0
 19 18  2  0  0  0  0
 20 18  2  0  0  0  0
 21  5  1  0  0  0  0
 22 23  1  0  0  0  0
 22 24  1  0  0  0  0
 25 22  1  0  0  0  0
M  RAD  1   7   2
M  END
