Coordinates from ORCA-job C6H6+HOTf+NH2--N2+-scan
 OpenBabel10191813343D

 26 25  0  0  1  0  0  0  0  0999 V2000
    2.6077   -4.6025   -1.7619 N   0  0  0  0  0  0  0  0  0  0  0  0
    3.5456   -4.8882   -2.2690 N   0  0  0  0  0  0  0  0  0  0  0  0
    1.6588   -3.0092   -1.9229 N   0  0  0  0  0  0  0  0  0  0  0  0
    0.7870   -3.5318   -2.0326 H   0  0  0  0  0  0  0  0  0  0  0  0
    3.4809   -1.4953    2.8835 H   0  0  0  0  0  0  0  0  0  0  0  0
   -1.0628   -1.0576   -2.3528 C   0  0  0  0  0  0  0  0  0  0  0  0
   -1.1855   -1.2522   -3.7272 C   0  0  0  0  0  0  0  0  0  0  0  0
   -0.0608   -1.5370   -4.5505 C   0  0  0  0  0  0  0  0  0  0  0  0
    1.1746   -1.6533   -3.9929 C   0  0  0  0  0  0  0  0  0  0  0  0
    1.3650   -1.5159   -2.5395 C   0  0  1  0  0  0  0  0  0  0  0  0
    0.1934   -1.1125   -1.7708 C   0  0  0  0  0  0  0  0  0  0  0  0
   -1.9345   -0.8281   -1.7526 H   0  0  0  0  0  0  0  0  0  0  0  0
   -2.1651   -1.1792   -4.1882 H   0  0  0  0  0  0  0  0  0  0  0  0
   -0.1996   -1.6540   -5.6184 H   0  0  0  0  0  0  0  0  0  0  0  0
    2.0440   -1.8799   -4.6001 H   0  0  0  0  0  0  0  0  0  0  0  0
    2.2826   -0.9881   -2.2769 H   0  0  0  0  0  0  0  0  0  0  0  0
    0.3151   -0.9000   -0.7131 H   0  0  0  0  0  0  0  0  0  0  0  0
    1.5235   -1.8157    2.0280 S   0  0  0  0  0  0  0  0  0  0  0  0
    0.5132   -0.8682    1.6210 O   0  0  0  0  0  0  0  0  0  0  0  0
    2.1622   -2.6844    1.0440 O   0  0  0  0  0  0  0  0  0  0  0  0
    2.6436   -1.0022    2.8451 O   0  0  0  0  0  0  0  0  0  0  0  0
    0.8129   -2.9219    3.3907 C   0  0  0  0  0  0  0  0  0  0  0  0
    1.8115   -3.6135    3.9238 F   0  0  0  0  0  0  0  0  0  0  0  0
    0.2292   -2.1701    4.3002 F   0  0  0  0  0  0  0  0  0  0  0  0
   -0.0629   -3.7380    2.8249 F   0  0  0  0  0  0  0  0  0  0  0  0
    1.7699   -2.8532   -0.9117 H   0  0  0  0  0  0  0  0  0  0  0  0
  2  1  2  0  0  0  0
  3  1  1  0  0  0  0
  3 26  1  0  0  0  0
  4  3  1  0  0  0  0
  6 11  2  0  0  0  0
  6 12  1  0  0  0  0
  7  6  1  0  0  0  0
  8  9  2  0  0  0  0
  8  7  1  0  0  0  0
  9 10  1  0  0  0  0
 10 16  1  1  0  0  0
 10  3  1  0  0  0  0
 10 11  1  0  0  0  0
 11 17  1  0  0  0  0
 13  7  1  0  0  0  0
 14  8  1  0  0  0  0
 15  9  1  0  0  0  0
 18 21  1  0  0  0  0
 18 22  1  0  0  0  0
 19 18  2  0  0  0  0
 20 18  2  0  0  0  0
 21  5  1  0  0  0  0
 22 23  1  0  0  0  0
 22 24  1  0  0  0  0
 25 22  1  0  0  0  0
M  RAD  2   2   2   7   2
M  END
