Coordinates from ORCA-job C6H6+HOTf+NH2--N2+-scan
 OpenBabel10191813343D

 26 24  0  0  1  0  0  0  0  0999 V2000
    2.7560   -5.2353   -1.2842 N   0  0  0  0  0  0  0  0  0  0  0  0
    3.7056   -5.6142   -1.6789 N   0  0  0  0  0  0  0  0  0  0  0  0
    1.5595   -3.1457   -1.8882 N   0  0  0  0  0  0  0  0  0  0  0  0
    0.8741   -3.8920   -1.8545 H   0  0  0  0  0  0  0  0  0  0  0  0
    3.0598   -0.6383    2.8837 H   0  0  0  0  0  0  0  0  0  0  0  0
   -1.1555   -0.6397   -2.5181 C   0  0  0  0  0  0  0  0  0  0  0  0
   -1.0333   -0.5885   -3.9195 C   0  0  0  0  0  0  0  0  0  0  0  0
    0.0273   -1.2014   -4.6163 C   0  0  0  0  0  0  0  0  0  0  0  0
    0.9734   -1.8978   -3.9123 C   0  0  0  0  0  0  0  0  0  0  0  0
    0.9710   -1.9289   -2.4349 C   0  0  1  0  0  0  0  0  0  0  0  0
   -0.2119   -1.3127   -1.7838 C   0  0  0  0  0  0  0  0  0  0  0  0
   -2.0028   -0.1691   -2.0340 H   0  0  0  0  0  0  0  0  0  0  0  0
   -1.7938   -0.0626   -4.4892 H   0  0  0  0  0  0  0  0  0  0  0  0
    0.0632   -1.1502   -5.6976 H   0  0  0  0  0  0  0  0  0  0  0  0
    1.7879   -2.4219   -4.4009 H   0  0  0  0  0  0  0  0  0  0  0  0
    1.7221   -1.1070   -2.2550 H   0  0  0  0  0  0  0  0  0  0  0  0
   -0.2710   -1.3611   -0.6993 H   0  0  0  0  0  0  0  0  0  0  0  0
    1.5031   -1.8086    1.9537 S   0  0  0  0  0  0  0  0  0  0  0  0
    0.1932   -1.4120    1.4861 O   0  0  0  0  0  0  0  0  0  0  0  0
    2.5084   -2.3003    1.0233 O   0  0  0  0  0  0  0  0  0  0  0  0
    2.0930   -0.5744    2.8020 O   0  0  0  0  0  0  0  0  0  0  0  0
    1.2820   -3.1029    3.3159 C   0  0  0  0  0  0  0  0  0  0  0  0
    2.4543   -3.2814    3.9113 F   0  0  0  0  0  0  0  0  0  0  0  0
    0.3826   -2.6784    4.1802 F   0  0  0  0  0  0  0  0  0  0  0  0
    0.8822   -4.2261    2.7397 F   0  0  0  0  0  0  0  0  0  0  0  0
    1.9192   -3.0016   -0.9488 H   0  0  0  0  0  0  0  0  0  0  0  0
  2  1  3  0  0  0  0
  3  4  1  0  0  0  0
  3 26  1  0  0  0  0
  6 12  1  0  0  0  0
  6 11  2  0  0  0  0
  7  6  1  0  0  0  0
  8  7  1  0  0  0  0
  8  9  2  0  0  0  0
  9 10  1  0  0  0  0
 10 16  1  1  0  0  0
 10  3  1  0  0  0  0
 10 11  1  0  0  0  0
 11 17  1  0  0  0  0
 13  7  1  0  0  0  0
 14  8  1  0  0  0  0
 15  9  1  0  0  0  0
 18 21  1  0  0  0  0
 18 22  1  0  0  0  0
 19 18  2  0  0  0  0
 20 18  2  0  0  0  0
 21  5  1  0  0  0  0
 22 23  1  0  0  0  0
 22 24  1  0  0  0  0
 25 22  1  0  0  0  0
M  RAD  1   7   2
M  END
