Coordinates from ORCA-job C6H6+HOTf+NH2--N2+-scan
 OpenBabel10191813343D

 26 24  0  0  1  0  0  0  0  0999 V2000
    2.1634   -5.8361   -1.6876 N   0  0  0  0  0  0  0  0  0  0  0  0
    2.7816   -6.7374   -1.6174 N   0  0  0  0  0  0  0  0  0  0  0  0
    1.9183   -2.8317   -1.9207 N   0  0  0  0  0  0  0  0  0  0  0  0
    1.4619   -3.7339   -1.9766 H   0  0  0  0  0  0  0  0  0  0  0  0
    2.8901   -0.3595    2.9697 H   0  0  0  0  0  0  0  0  0  0  0  0
   -1.2453   -0.8977   -2.5073 C   0  0  0  0  0  0  0  0  0  0  0  0
   -1.1147   -0.7522   -3.9013 C   0  0  0  0  0  0  0  0  0  0  0  0
    0.0503   -1.1224   -4.5998 C   0  0  0  0  0  0  0  0  0  0  0  0
    1.1022   -1.6631   -3.9067 C   0  0  0  0  0  0  0  0  0  0  0  0
    1.0831   -1.7706   -2.4341 C   0  0  1  0  0  0  0  0  0  0  0  0
   -0.2082   -1.4313   -1.7841 C   0  0  0  0  0  0  0  0  0  0  0  0
   -2.1718   -0.6167   -2.0210 H   0  0  0  0  0  0  0  0  0  0  0  0
   -1.9502   -0.3447   -4.4626 H   0  0  0  0  0  0  0  0  0  0  0  0
    0.0933   -1.0094   -5.6761 H   0  0  0  0  0  0  0  0  0  0  0  0
    2.0120   -1.9918   -4.3975 H   0  0  0  0  0  0  0  0  0  0  0  0
    1.6202   -0.7970   -2.2213 H   0  0  0  0  0  0  0  0  0  0  0  0
   -0.2741   -1.5530   -0.7062 H   0  0  0  0  0  0  0  0  0  0  0  0
    1.5192   -1.7079    1.9903 S   0  0  0  0  0  0  0  0  0  0  0  0
    0.1881   -1.4696    1.4775 O   0  0  0  0  0  0  0  0  0  0  0  0
    2.6084   -2.0749    1.0986 O   0  0  0  0  0  0  0  0  0  0  0  0
    1.9259   -0.4133    2.8564 O   0  0  0  0  0  0  0  0  0  0  0  0
    1.4064   -3.0203    3.3479 C   0  0  0  0  0  0  0  0  0  0  0  0
    2.5691   -3.0573    3.9862 F   0  0  0  0  0  0  0  0  0  0  0  0
    0.4314   -2.7090    4.1779 F   0  0  0  0  0  0  0  0  0  0  0  0
    1.1661   -4.1836    2.7617 F   0  0  0  0  0  0  0  0  0  0  0  0
    2.2229   -2.6679   -0.9654 H   0  0  0  0  0  0  0  0  0  0  0  0
  1  2  3  0  0  0  0
  3 26  1  0  0  0  0
  4  3  1  0  0  0  0
  6 12  1  0  0  0  0
  6 11  2  0  0  0  0
  7  6  1  0  0  0  0
  8  9  2  0  0  0  0
  8  7  1  0  0  0  0
  9 10  1  0  0  0  0
 10 16  1  1  0  0  0
 10  3  1  0  0  0  0
 10 11  1  0  0  0  0
 11 17  1  0  0  0  0
 13  7  1  0  0  0  0
 14  8  1  0  0  0  0
 15  9  1  0  0  0  0
 18 21  1  0  0  0  0
 18 22  1  0  0  0  0
 19 18  2  0  0  0  0
 20 18  2  0  0  0  0
 21  5  1  0  0  0  0
 22 23  1  0  0  0  0
 22 24  1  0  0  0  0
 25 22  1  0  0  0  0
M  RAD  1   7   2
M  END
