Coordinates from ORCA-job C6H6+HOTf+NH2--N2+-scan
 OpenBabel10191813343D

 26 24  0  0  1  0  0  0  0  0999 V2000
    1.1045   -6.3715   -2.2208 N   0  0  0  0  0  0  0  0  0  0  0  0
    1.0194   -7.4623   -2.2737 N   0  0  0  0  0  0  0  0  0  0  0  0
    2.2888   -2.4598   -1.8358 N   0  0  0  0  0  0  0  0  0  0  0  0
    2.0192   -3.4359   -1.9064 H   0  0  0  0  0  0  0  0  0  0  0  0
    2.4694    0.0021    3.1519 H   0  0  0  0  0  0  0  0  0  0  0  0
   -1.1998   -1.2599   -2.5235 C   0  0  0  0  0  0  0  0  0  0  0  0
   -1.0529   -1.0533   -3.9083 C   0  0  0  0  0  0  0  0  0  0  0  0
    0.1903   -1.1384   -4.5641 C   0  0  0  0  0  0  0  0  0  0  0  0
    1.3095   -1.4506   -3.8371 C   0  0  0  0  0  0  0  0  0  0  0  0
    1.2599   -1.5939   -2.3677 C   0  0  1  0  0  0  0  0  0  0  0  0
   -0.0975   -1.5669   -1.7664 C   0  0  0  0  0  0  0  0  0  0  0  0
   -2.1833   -1.2051   -2.0723 H   0  0  0  0  0  0  0  0  0  0  0  0
   -1.9369   -0.8276   -4.4972 H   0  0  0  0  0  0  0  0  0  0  0  0
    0.2464   -0.9926   -5.6359 H   0  0  0  0  0  0  0  0  0  0  0  0
    2.2870   -1.5593   -4.2948 H   0  0  0  0  0  0  0  0  0  0  0  0
    1.5648   -0.5343   -2.1152 H   0  0  0  0  0  0  0  0  0  0  0  0
   -0.1747   -1.7299   -0.6945 H   0  0  0  0  0  0  0  0  0  0  0  0
    1.4896   -1.5867    2.0691 S   0  0  0  0  0  0  0  0  0  0  0  0
    0.1558   -1.6485    1.5131 O   0  0  0  0  0  0  0  0  0  0  0  0
    2.6605   -1.6426    1.2073 O   0  0  0  0  0  0  0  0  0  0  0  0
    1.5497   -0.2738    2.9984 O   0  0  0  0  0  0  0  0  0  0  0  0
    1.6548   -2.9500    3.3703 C   0  0  0  0  0  0  0  0  0  0  0  0
    2.7731   -2.7390    4.0521 F   0  0  0  0  0  0  0  0  0  0  0  0
    0.6096   -2.9183    4.1721 F   0  0  0  0  0  0  0  0  0  0  0  0
    1.7170   -4.1082    2.7306 F   0  0  0  0  0  0  0  0  0  0  0  0
    2.5252   -2.2457   -0.8711 H   0  0  0  0  0  0  0  0  0  0  0  0
  2  1  3  0  0  0  0
  3 26  1  0  0  0  0
  4  3  1  0  0  0  0
  6 12  1  0  0  0  0
  6 11  2  0  0  0  0
  7  6  1  0  0  0  0
  8  7  1  0  0  0  0
  8  9  2  0  0  0  0
  9 10  1  0  0  0  0
 10 16  1  1  0  0  0
 10  3  1  0  0  0  0
 10 11  1  0  0  0  0
 11 17  1  0  0  0  0
 13  7  1  0  0  0  0
 14  8  1  0  0  0  0
 15  9  1  0  0  0  0
 18 21  1  0  0  0  0
 18 22  1  0  0  0  0
 19 18  2  0  0  0  0
 20 18  2  0  0  0  0
 21  5  1  0  0  0  0
 22 23  1  0  0  0  0
 22 24  1  0  0  0  0
 25 22  1  0  0  0  0
M  RAD  1   7   2
M  END
