Coordinates from ORCA-job C6H6+HOTf+NH2--N2+-scan
 OpenBabel10191813343D

 26 24  0  0  1  0  0  0  0  0999 V2000
    2.0353   -5.8831   -1.7953 N   0  0  0  0  0  0  0  0  0  0  0  0
    2.6104   -6.8143   -1.7547 N   0  0  0  0  0  0  0  0  0  0  0  0
    1.9601   -2.8025   -1.9032 N   0  0  0  0  0  0  0  0  0  0  0  0
    1.5170   -3.7119   -1.9524 H   0  0  0  0  0  0  0  0  0  0  0  0
    2.8321   -0.2996    2.9970 H   0  0  0  0  0  0  0  0  0  0  0  0
   -1.2373   -0.9308   -2.5039 C   0  0  0  0  0  0  0  0  0  0  0  0
   -1.1068   -0.7883   -3.8982 C   0  0  0  0  0  0  0  0  0  0  0  0
    0.0663   -1.1391   -4.5933 C   0  0  0  0  0  0  0  0  0  0  0  0
    1.1269   -1.6573   -3.8962 C   0  0  0  0  0  0  0  0  0  0  0  0
    1.1071   -1.7590   -2.4232 C   0  0  1  0  0  0  0  0  0  0  0  0
   -0.1915   -1.4415   -1.7769 C   0  0  0  0  0  0  0  0  0  0  0  0
   -2.1701   -0.6660   -2.0206 H   0  0  0  0  0  0  0  0  0  0  0  0
   -1.9489   -0.3989   -4.4626 H   0  0  0  0  0  0  0  0  0  0  0  0
    0.1090   -1.0296   -5.6700 H   0  0  0  0  0  0  0  0  0  0  0  0
    2.0436   -1.9709   -4.3841 H   0  0  0  0  0  0  0  0  0  0  0  0
    1.6266   -0.7753   -2.2135 H   0  0  0  0  0  0  0  0  0  0  0  0
   -0.2576   -1.5616   -0.6987 H   0  0  0  0  0  0  0  0  0  0  0  0
    1.5059   -1.6835    2.0058 S   0  0  0  0  0  0  0  0  0  0  0  0
    0.1683   -1.4843    1.4931 O   0  0  0  0  0  0  0  0  0  0  0  0
    2.6074   -2.0084    1.1128 O   0  0  0  0  0  0  0  0  0  0  0  0
    1.8702   -0.3835    2.8825 O   0  0  0  0  0  0  0  0  0  0  0  0
    1.4342   -3.0097    3.3527 C   0  0  0  0  0  0  0  0  0  0  0  0
    2.5964   -3.0140    3.9929 F   0  0  0  0  0  0  0  0  0  0  0  0
    0.4482   -2.7374    4.1834 F   0  0  0  0  0  0  0  0  0  0  0  0
    1.2330   -4.1755    2.7565 F   0  0  0  0  0  0  0  0  0  0  0  0
    2.2637   -2.6261   -0.9498 H   0  0  0  0  0  0  0  0  0  0  0  0
  1  2  3  0  0  0  0
  3 26  1  0  0  0  0
  4  3  1  0  0  0  0
  6 12  1  0  0  0  0
  6 11  2  0  0  0  0
  7  6  1  0  0  0  0
  8  7  1  0  0  0  0
  8  9  2  0  0  0  0
  9 10  1  0  0  0  0
 10 16  1  1  0  0  0
 10  3  1  0  0  0  0
 10 11  1  0  0  0  0
 11 17  1  0  0  0  0
 13  7  1  0  0  0  0
 14  8  1  0  0  0  0
 15  9  1  0  0  0  0
 18 21  1  0  0  0  0
 18 22  1  0  0  0  0
 19 18  2  0  0  0  0
 20 18  2  0  0  0  0
 21  5  1  0  0  0  0
 22 23  1  0  0  0  0
 22 24  1  0  0  0  0
 25 22  1  0  0  0  0
M  RAD  1   7   2
M  END
