Coordinates from ORCA-job C6H6+HOTf+NH2--N2+-scan
 OpenBabel10191813343D

 26 24  0  0  1  0  0  0  0  0999 V2000
    0.7740   -7.7523   -2.5905 N   0  0  0  0  0  0  0  0  0  0  0  0
    0.7197   -8.8434   -2.6724 N   0  0  0  0  0  0  0  0  0  0  0  0
    2.3706   -2.2355   -1.7953 N   0  0  0  0  0  0  0  0  0  0  0  0
    2.1655   -3.2254   -1.8775 H   0  0  0  0  0  0  0  0  0  0  0  0
    2.3542    0.1540    3.2254 H   0  0  0  0  0  0  0  0  0  0  0  0
   -1.1802   -1.2527   -2.5074 C   0  0  0  0  0  0  0  0  0  0  0  0
   -1.0340   -1.0273   -3.8894 C   0  0  0  0  0  0  0  0  0  0  0  0
    0.2182   -1.0280   -4.5339 C   0  0  0  0  0  0  0  0  0  0  0  0
    1.3482   -1.2736   -3.7983 C   0  0  0  0  0  0  0  0  0  0  0  0
    1.2943   -1.4306   -2.3303 C   0  0  1  0  0  0  0  0  0  0  0  0
   -0.0677   -1.4943   -1.7417 C   0  0  0  0  0  0  0  0  0  0  0  0
   -2.1693   -1.2641   -2.0654 H   0  0  0  0  0  0  0  0  0  0  0  0
   -1.9252   -0.8546   -4.4854 H   0  0  0  0  0  0  0  0  0  0  0  0
    0.2746   -0.8712   -5.6041 H   0  0  0  0  0  0  0  0  0  0  0  0
    2.3347   -1.3167   -4.2476 H   0  0  0  0  0  0  0  0  0  0  0  0
    1.5308   -0.3568   -2.0663 H   0  0  0  0  0  0  0  0  0  0  0  0
   -0.1444   -1.6698   -0.6717 H   0  0  0  0  0  0  0  0  0  0  0  0
    1.4814   -1.4733    2.1086 S   0  0  0  0  0  0  0  0  0  0  0  0
    0.1593   -1.6060    1.5374 O   0  0  0  0  0  0  0  0  0  0  0  0
    2.6616   -1.4464    1.2579 O   0  0  0  0  0  0  0  0  0  0  0  0
    1.4542   -0.1732    3.0570 O   0  0  0  0  0  0  0  0  0  0  0  0
    1.7156   -2.8441    3.3914 C   0  0  0  0  0  0  0  0  0  0  0  0
    2.8122   -2.5764    4.0883 F   0  0  0  0  0  0  0  0  0  0  0  0
    0.6624   -2.8874    4.1820 F   0  0  0  0  0  0  0  0  0  0  0  0
    1.8539   -3.9863    2.7354 F   0  0  0  0  0  0  0  0  0  0  0  0
    2.5847   -2.0169   -0.8263 H   0  0  0  0  0  0  0  0  0  0  0  0
  2  1  3  0  0  0  0
  3 26  1  0  0  0  0
  4  3  1  0  0  0  0
  6 12  1  0  0  0  0
  6 11  2  0  0  0  0
  7  6  1  0  0  0  0
  8  7  1  0  0  0  0
  8  9  2  0  0  0  0
  9 10  1  0  0  0  0
 10 16  1  1  0  0  0
 10  3  1  0  0  0  0
 10 11  1  0  0  0  0
 11 17  1  0  0  0  0
 13  7  1  0  0  0  0
 14  8  1  0  0  0  0
 15  9  1  0  0  0  0
 18 21  1  0  0  0  0
 18 22  1  0  0  0  0
 19 18  2  0  0  0  0
 20 18  2  0  0  0  0
 21  5  1  0  0  0  0
 22 23  1  0  0  0  0
 22 24  1  0  0  0  0
 25 22  1  0  0  0  0
M  RAD  1   7   2
M  END
