Coordinates from ORCA-job C6H6+HOTf+NH2--N2+-scan
 OpenBabel10191813343D

 26 24  0  0  1  0  0  0  0  0999 V2000
    1.1095   -6.3561   -2.2168 N   0  0  0  0  0  0  0  0  0  0  0  0
    1.0250   -7.4469   -2.2693 N   0  0  0  0  0  0  0  0  0  0  0  0
    2.2873   -2.4630   -1.8363 N   0  0  0  0  0  0  0  0  0  0  0  0
    2.0166   -3.4389   -1.9066 H   0  0  0  0  0  0  0  0  0  0  0  0
    2.4711    0.0002    3.1508 H   0  0  0  0  0  0  0  0  0  0  0  0
   -1.2001   -1.2594   -2.5236 C   0  0  0  0  0  0  0  0  0  0  0  0
   -1.0531   -1.0530   -3.9084 C   0  0  0  0  0  0  0  0  0  0  0  0
    0.1899   -1.1395   -4.5644 C   0  0  0  0  0  0  0  0  0  0  0  0
    1.3088   -1.4530   -3.8375 C   0  0  0  0  0  0  0  0  0  0  0  0
    1.2593   -1.5961   -2.3681 C   0  0  1  0  0  0  0  0  0  0  0  0
   -0.0980   -1.5675   -1.7666 C   0  0  0  0  0  0  0  0  0  0  0  0
   -2.1835   -1.2035   -2.0723 H   0  0  0  0  0  0  0  0  0  0  0  0
   -1.9370   -0.8264   -4.4973 H   0  0  0  0  0  0  0  0  0  0  0  0
    0.2460   -0.9939   -5.6362 H   0  0  0  0  0  0  0  0  0  0  0  0
    2.2861   -1.5627   -4.2954 H   0  0  0  0  0  0  0  0  0  0  0  0
    1.5653   -0.5367   -2.1158 H   0  0  0  0  0  0  0  0  0  0  0  0
   -0.1752   -1.7304   -0.6948 H   0  0  0  0  0  0  0  0  0  0  0  0
    1.4897   -1.5879    2.0687 S   0  0  0  0  0  0  0  0  0  0  0  0
    0.1558   -1.6488    1.5128 O   0  0  0  0  0  0  0  0  0  0  0  0
    2.6604   -1.6452    1.2067 O   0  0  0  0  0  0  0  0  0  0  0  0
    1.5512   -0.2749    2.9975 O   0  0  0  0  0  0  0  0  0  0  0  0
    1.6539   -2.9510    3.3701 C   0  0  0  0  0  0  0  0  0  0  0  0
    2.7725   -2.7409    4.0518 F   0  0  0  0  0  0  0  0  0  0  0  0
    0.6089   -2.9182    4.1721 F   0  0  0  0  0  0  0  0  0  0  0  0
    1.7149   -4.1095    2.7308 F   0  0  0  0  0  0  0  0  0  0  0  0
    2.5241   -2.2490   -0.8716 H   0  0  0  0  0  0  0  0  0  0  0  0
  2  1  3  0  0  0  0
  3 26  1  0  0  0  0
  4  3  1  0  0  0  0
  6 12  1  0  0  0  0
  6 11  2  0  0  0  0
  7  6  1  0  0  0  0
  8  7  1  0  0  0  0
  8  9  2  0  0  0  0
  9 10  1  0  0  0  0
 10 16  1  1  0  0  0
 10  3  1  0  0  0  0
 10 11  1  0  0  0  0
 11 17  1  0  0  0  0
 13  7  1  0  0  0  0
 14  8  1  0  0  0  0
 15  9  1  0  0  0  0
 18 21  1  0  0  0  0
 18 22  1  0  0  0  0
 19 18  2  0  0  0  0
 20 18  2  0  0  0  0
 21  5  1  0  0  0  0
 22 23  1  0  0  0  0
 22 24  1  0  0  0  0
 25 22  1  0  0  0  0
M  RAD  1   7   2
M  END
