Coordinates from ORCA-job C6H6+HOTf+NH2--N2+-scan
 OpenBabel10191813343D

 26 24  0  0  1  0  0  0  0  0999 V2000
    2.7388   -5.4521   -1.1273 N   0  0  0  0  0  0  0  0  0  0  0  0
    3.7249   -5.9118   -1.2546 N   0  0  0  0  0  0  0  0  0  0  0  0
    1.6188   -3.0615   -1.9424 N   0  0  0  0  0  0  0  0  0  0  0  0
    1.0033   -3.8666   -1.9550 H   0  0  0  0  0  0  0  0  0  0  0  0
    3.0727   -0.6429    2.8664 H   0  0  0  0  0  0  0  0  0  0  0  0
   -1.2018   -0.6551   -2.5208 C   0  0  0  0  0  0  0  0  0  0  0  0
   -1.0820   -0.5667   -3.9206 C   0  0  0  0  0  0  0  0  0  0  0  0
   -0.0055   -1.1326   -4.6310 C   0  0  0  0  0  0  0  0  0  0  0  0
    0.9632   -1.8156   -3.9432 C   0  0  0  0  0  0  0  0  0  0  0  0
    0.9618   -1.8817   -2.4676 C   0  0  1  0  0  0  0  0  0  0  0  0
   -0.2432   -1.3244   -1.8025 C   0  0  0  0  0  0  0  0  0  0  0  0
   -2.0617   -0.2203   -2.0256 H   0  0  0  0  0  0  0  0  0  0  0  0
   -1.8566   -0.0478   -4.4774 H   0  0  0  0  0  0  0  0  0  0  0  0
    0.0292   -1.0547   -5.7107 H   0  0  0  0  0  0  0  0  0  0  0  0
    1.7966   -2.2983   -4.4425 H   0  0  0  0  0  0  0  0  0  0  0  0
    1.6622   -1.0133   -2.2842 H   0  0  0  0  0  0  0  0  0  0  0  0
   -0.3021   -1.4063   -0.7202 H   0  0  0  0  0  0  0  0  0  0  0  0
    1.5276   -1.8226    1.9294 S   0  0  0  0  0  0  0  0  0  0  0  0
    0.2200   -1.4317    1.4507 O   0  0  0  0  0  0  0  0  0  0  0  0
    2.5419   -2.3148    1.0094 O   0  0  0  0  0  0  0  0  0  0  0  0
    2.1063   -0.5830    2.7777 O   0  0  0  0  0  0  0  0  0  0  0  0
    1.2997   -3.1113    3.2956 C   0  0  0  0  0  0  0  0  0  0  0  0
    2.4676   -3.2829    3.9017 F   0  0  0  0  0  0  0  0  0  0  0  0
    0.3916   -2.6862    4.1505 F   0  0  0  0  0  0  0  0  0  0  0  0
    0.9088   -4.2389    2.7217 F   0  0  0  0  0  0  0  0  0  0  0  0
    1.9674   -2.9290   -0.9975 H   0  0  0  0  0  0  0  0  0  0  0  0
  2  1  3  0  0  0  0
  3 26  1  0  0  0  0
  4  3  1  0  0  0  0
  6 12  1  0  0  0  0
  6 11  2  0  0  0  0
  7  6  1  0  0  0  0
  8  9  2  0  0  0  0
  8  7  1  0  0  0  0
  9 10  1  0  0  0  0
 10 16  1  1  0  0  0
 10  3  1  0  0  0  0
 10 11  1  0  0  0  0
 11 17  1  0  0  0  0
 13  7  1  0  0  0  0
 14  8  1  0  0  0  0
 15  9  1  0  0  0  0
 18 21  1  0  0  0  0
 18 22  1  0  0  0  0
 19 18  2  0  0  0  0
 20 18  2  0  0  0  0
 21  5  1  0  0  0  0
 22 23  1  0  0  0  0
 22 24  1  0  0  0  0
 25 22  1  0  0  0  0
M  RAD  1   7   2
M  END
