Coordinates from ORCA-job C6H6+HOTf+NH2--N2+-scan
 OpenBabel10191813343D

 26 24  0  0  1  0  0  0  0  0999 V2000
    2.7881   -5.3341   -1.1517 N   0  0  0  0  0  0  0  0  0  0  0  0
    3.7633   -5.7393   -1.4435 N   0  0  0  0  0  0  0  0  0  0  0  0
    1.5655   -3.1189   -1.9149 N   0  0  0  0  0  0  0  0  0  0  0  0
    0.9073   -3.8893   -1.9000 H   0  0  0  0  0  0  0  0  0  0  0  0
    3.0544   -0.6354    2.8724 H   0  0  0  0  0  0  0  0  0  0  0  0
   -1.1698   -0.6253   -2.5189 C   0  0  0  0  0  0  0  0  0  0  0  0
   -1.0510   -0.5610   -3.9202 C   0  0  0  0  0  0  0  0  0  0  0  0
    0.0068   -1.1685   -4.6248 C   0  0  0  0  0  0  0  0  0  0  0  0
    0.9554   -1.8710   -3.9294 C   0  0  0  0  0  0  0  0  0  0  0  0
    0.9565   -1.9156   -2.4526 C   0  0  1  0  0  0  0  0  0  0  0  0
   -0.2278   -1.3095   -1.7930 C   0  0  0  0  0  0  0  0  0  0  0  0
   -2.0155   -0.1584   -2.0284 H   0  0  0  0  0  0  0  0  0  0  0  0
   -1.8119   -0.0282   -4.4829 H   0  0  0  0  0  0  0  0  0  0  0  0
    0.0405   -1.1074   -5.7057 H   0  0  0  0  0  0  0  0  0  0  0  0
    1.7707   -2.3883   -4.4240 H   0  0  0  0  0  0  0  0  0  0  0  0
    1.6936   -1.0783   -2.2765 H   0  0  0  0  0  0  0  0  0  0  0  0
   -0.2857   -1.3711   -0.7092 H   0  0  0  0  0  0  0  0  0  0  0  0
    1.5088   -1.8159    1.9369 S   0  0  0  0  0  0  0  0  0  0  0  0
    0.1958   -1.4288    1.4703 O   0  0  0  0  0  0  0  0  0  0  0  0
    2.5192   -2.2949    1.0056 O   0  0  0  0  0  0  0  0  0  0  0  0
    2.0871   -0.5802    2.7910 O   0  0  0  0  0  0  0  0  0  0  0  0
    1.2977   -3.1173    3.2939 C   0  0  0  0  0  0  0  0  0  0  0  0
    2.4710   -3.2882    3.8895 F   0  0  0  0  0  0  0  0  0  0  0  0
    0.3942   -2.7040    4.1592 F   0  0  0  0  0  0  0  0  0  0  0  0
    0.9079   -4.2417    2.7131 F   0  0  0  0  0  0  0  0  0  0  0  0
    1.9277   -2.9818   -0.9761 H   0  0  0  0  0  0  0  0  0  0  0  0
  2  1  3  0  0  0  0
  3  4  1  0  0  0  0
  3 26  1  0  0  0  0
  6 12  1  0  0  0  0
  6 11  2  0  0  0  0
  7  6  1  0  0  0  0
  8  9  2  0  0  0  0
  8  7  1  0  0  0  0
  9 10  1  0  0  0  0
 10 16  1  1  0  0  0
 10  3  1  0  0  0  0
 10 11  1  0  0  0  0
 11 17  1  0  0  0  0
 13  7  1  0  0  0  0
 14  8  1  0  0  0  0
 15  9  1  0  0  0  0
 18 21  1  0  0  0  0
 18 22  1  0  0  0  0
 19 18  2  0  0  0  0
 20 18  2  0  0  0  0
 21  5  1  0  0  0  0
 22 23  1  0  0  0  0
 22 24  1  0  0  0  0
 25 22  1  0  0  0  0
M  RAD  1   7   2
M  END
