Coordinates from ORCA-job C6H6+HOTf+NH2--N2+-scan
 OpenBabel10191813343D

 26 24  0  0  0  0  0  0  0  0999 V2000
    1.1571   -5.2057   -1.7144 N   0  0  0  0  0  0  0  0  0  0  0  0
    1.1097   -6.1256   -2.3791 N   0  0  0  0  0  0  0  0  0  0  0  0
    1.1556   -4.2497   -1.1306 N   0  0  0  0  0  0  0  0  0  0  0  0
    0.3011   -2.6958   -1.7308 H   0  0  0  0  0  0  0  0  0  0  0  0
    4.2123   -2.2721    2.4720 H   0  0  0  0  0  0  0  0  0  0  0  0
   -0.9755   -2.1138   -3.2673 C   0  0  0  0  0  0  0  0  0  0  0  0
   -0.5839   -1.5771   -4.4686 C   0  0  0  0  0  0  0  0  0  0  0  0
    0.4421   -0.6135   -4.4877 C   0  0  0  0  0  0  0  0  0  0  0  0
    1.0864   -0.1729   -3.3195 C   0  0  0  0  0  0  0  0  0  0  0  0
    0.7107   -0.6986   -2.1059 C   0  0  0  0  0  0  0  0  0  0  0  0
   -0.2951   -1.7457   -2.0354 C   0  0  0  0  0  0  0  0  0  0  0  0
   -1.7692   -2.8520   -3.2228 H   0  0  0  0  0  0  0  0  0  0  0  0
   -1.0629   -1.8731   -5.3936 H   0  0  0  0  0  0  0  0  0  0  0  0
    0.7421   -0.1909   -5.4416 H   0  0  0  0  0  0  0  0  0  0  0  0
    1.8585    0.5840   -3.3820 H   0  0  0  0  0  0  0  0  0  0  0  0
    1.1812   -0.3862   -1.1802 H   0  0  0  0  0  0  0  0  0  0  0  0
   -0.9424   -1.6892   -1.1512 H   0  0  0  0  0  0  0  0  0  0  0  0
    2.1435   -2.1500    1.8692 S   0  0  0  0  0  0  0  0  0  0  0  0
    1.4838   -1.1967    1.0054 O   0  0  0  0  0  0  0  0  0  0  0  0
    2.2383   -3.5573    1.5033 O   0  0  0  0  0  0  0  0  0  0  0  0
    3.6102   -1.5671    2.1778 O   0  0  0  0  0  0  0  0  0  0  0  0
    1.3473   -2.0568    3.5846 C   0  0  0  0  0  0  0  0  0  0  0  0
    2.1068   -2.7389    4.4296 F   0  0  0  0  0  0  0  0  0  0  0  0
    1.2600   -0.7939    3.9518 F   0  0  0  0  0  0  0  0  0  0  0  0
    0.1450   -2.6021    3.4972 F   0  0  0  0  0  0  0  0  0  0  0  0
    1.5870   -4.2116   -0.1998 H   0  0  0  0  0  0  0  0  0  0  0  0
  1  3  2  0  0  0  0
  2  1  2  0  0  0  0
  3 26  1  0  0  0  0
  6 12  1  0  0  0  0
  6 11  1  0  0  0  0
  7  6  2  0  0  0  0
  8  7  1  0  0  0  0
  8  9  1  0  0  0  0
  9 10  2  0  0  0  0
 10 11  1  0  0  0  0
 10 16  1  0  0  0  0
 11  4  1  0  0  0  0
 11 17  1  0  0  0  0
 13  7  1  0  0  0  0
 14  8  1  0  0  0  0
 15  9  1  0  0  0  0
 18 21  1  0  0  0  0
 18 22  1  0  0  0  0
 19 18  2  0  0  0  0
 20 18  2  0  0  0  0
 21  5  1  0  0  0  0
 22 24  1  0  0  0  0
 22 23  1  0  0  0  0
 25 22  1  0  0  0  0
M  RAD  2   2   2   8   2
M  END
