Coordinates from ORCA-job C6H6+HOTf+NH2--N2+-scan
 OpenBabel10191813343D

 26 24  0  0  1  0  0  0  0  0999 V2000
    0.7909   -7.6783   -2.5685 N   0  0  0  0  0  0  0  0  0  0  0  0
    0.7347   -8.7694   -2.6489 N   0  0  0  0  0  0  0  0  0  0  0  0
    2.3668   -2.2467   -1.7977 N   0  0  0  0  0  0  0  0  0  0  0  0
    2.1586   -3.2361   -1.8794 H   0  0  0  0  0  0  0  0  0  0  0  0
    2.3602    0.1456    3.2217 H   0  0  0  0  0  0  0  0  0  0  0  0
   -1.1813   -1.2534   -2.5084 C   0  0  0  0  0  0  0  0  0  0  0  0
   -1.0351   -1.0289   -3.8906 C   0  0  0  0  0  0  0  0  0  0  0  0
    0.2167   -1.0337   -4.5357 C   0  0  0  0  0  0  0  0  0  0  0  0
    1.3463   -1.2825   -3.8006 C   0  0  0  0  0  0  0  0  0  0  0  0
    1.2926   -1.4389   -2.3324 C   0  0  1  0  0  0  0  0  0  0  0  0
   -0.0693   -1.4981   -1.7432 C   0  0  0  0  0  0  0  0  0  0  0  0
   -2.1703   -1.2616   -2.0660 H   0  0  0  0  0  0  0  0  0  0  0  0
   -1.9261   -0.8536   -4.4862 H   0  0  0  0  0  0  0  0  0  0  0  0
    0.2731   -0.8774   -5.6059 H   0  0  0  0  0  0  0  0  0  0  0  0
    2.3325   -1.3287   -4.2503 H   0  0  0  0  0  0  0  0  0  0  0  0
    1.5325   -0.3656   -2.0690 H   0  0  0  0  0  0  0  0  0  0  0  0
   -0.1459   -1.6730   -0.6731 H   0  0  0  0  0  0  0  0  0  0  0  0
    1.4818   -1.4796    2.1064 S   0  0  0  0  0  0  0  0  0  0  0  0
    0.1589   -1.6086    1.5360 O   0  0  0  0  0  0  0  0  0  0  0  0
    2.6616   -1.4568    1.2551 O   0  0  0  0  0  0  0  0  0  0  0  0
    1.4591   -0.1789    3.0540 O   0  0  0  0  0  0  0  0  0  0  0  0
    1.7125   -2.8504    3.3899 C   0  0  0  0  0  0  0  0  0  0  0  0
    2.8102   -2.5856    4.0861 F   0  0  0  0  0  0  0  0  0  0  0  0
    0.6595   -2.8899    4.1811 F   0  0  0  0  0  0  0  0  0  0  0  0
    1.8469   -3.9934    2.7345 F   0  0  0  0  0  0  0  0  0  0  0  0
    2.5820   -2.0285   -0.8288 H   0  0  0  0  0  0  0  0  0  0  0  0
  2  1  3  0  0  0  0
  3 26  1  0  0  0  0
  4  3  1  0  0  0  0
  6 12  1  0  0  0  0
  6 11  2  0  0  0  0
  7  6  1  0  0  0  0
  8  7  1  0  0  0  0
  8  9  2  0  0  0  0
  9 10  1  0  0  0  0
 10 16  1  1  0  0  0
 10  3  1  0  0  0  0
 10 11  1  0  0  0  0
 11 17  1  0  0  0  0
 13  7  1  0  0  0  0
 14  8  1  0  0  0  0
 15  9  1  0  0  0  0
 18 21  1  0  0  0  0
 18 22  1  0  0  0  0
 19 18  2  0  0  0  0
 20 18  2  0  0  0  0
 21  5  1  0  0  0  0
 22 23  1  0  0  0  0
 22 24  1  0  0  0  0
 25 22  1  0  0  0  0
M  RAD  1   7   2
M  END
