Coordinates from ORCA-job C6H6+HOTf+NH2--N2+-scan
 OpenBabel10191813343D

 26 24  0  0  1  0  0  0  0  0999 V2000
    0.8060   -7.6125   -2.5491 N   0  0  0  0  0  0  0  0  0  0  0  0
    0.7481   -8.7037   -2.6282 N   0  0  0  0  0  0  0  0  0  0  0  0
    2.3633   -2.2568   -1.7998 N   0  0  0  0  0  0  0  0  0  0  0  0
    2.1525   -3.2456   -1.8812 H   0  0  0  0  0  0  0  0  0  0  0  0
    2.3655    0.1382    3.2184 H   0  0  0  0  0  0  0  0  0  0  0  0
   -1.1824   -1.2540   -2.5093 C   0  0  0  0  0  0  0  0  0  0  0  0
   -1.0361   -1.0303   -3.8916 C   0  0  0  0  0  0  0  0  0  0  0  0
    0.2154   -1.0387   -4.5372 C   0  0  0  0  0  0  0  0  0  0  0  0
    1.3447   -1.2904   -3.8025 C   0  0  0  0  0  0  0  0  0  0  0  0
    1.2912   -1.4462   -2.3343 C   0  0  1  0  0  0  0  0  0  0  0  0
   -0.0706   -1.5016   -1.7445 C   0  0  0  0  0  0  0  0  0  0  0  0
   -2.1711   -1.2594   -2.0665 H   0  0  0  0  0  0  0  0  0  0  0  0
   -1.9269   -0.8528   -4.4869 H   0  0  0  0  0  0  0  0  0  0  0  0
    0.2718   -0.8829   -5.6075 H   0  0  0  0  0  0  0  0  0  0  0  0
    2.3305   -1.3395   -4.2526 H   0  0  0  0  0  0  0  0  0  0  0  0
    1.5341   -0.3735   -2.0713 H   0  0  0  0  0  0  0  0  0  0  0  0
   -0.1473   -1.6759   -0.6743 H   0  0  0  0  0  0  0  0  0  0  0  0
    1.4821   -1.4852    2.1044 S   0  0  0  0  0  0  0  0  0  0  0  0
    0.1586   -1.6109    1.5347 O   0  0  0  0  0  0  0  0  0  0  0  0
    2.6616   -1.4662    1.2525 O   0  0  0  0  0  0  0  0  0  0  0  0
    1.4634   -0.1840    3.0513 O   0  0  0  0  0  0  0  0  0  0  0  0
    1.7096   -2.8559    3.3886 C   0  0  0  0  0  0  0  0  0  0  0  0
    2.8084   -2.5938    4.0841 F   0  0  0  0  0  0  0  0  0  0  0  0
    0.6569   -2.8921    4.1802 F   0  0  0  0  0  0  0  0  0  0  0  0
    1.8406   -3.9996    2.7338 F   0  0  0  0  0  0  0  0  0  0  0  0
    2.5795   -2.0389   -0.8310 H   0  0  0  0  0  0  0  0  0  0  0  0
  2  1  3  0  0  0  0
  3 26  1  0  0  0  0
  4  3  1  0  0  0  0
  6 12  1  0  0  0  0
  6 11  2  0  0  0  0
  7  6  1  0  0  0  0
  8  7  1  0  0  0  0
  8  9  2  0  0  0  0
  9 10  1  0  0  0  0
 10 16  1  1  0  0  0
 10  3  1  0  0  0  0
 10 11  1  0  0  0  0
 11 17  1  0  0  0  0
 13  7  1  0  0  0  0
 14  8  1  0  0  0  0
 15  9  1  0  0  0  0
 18 21  1  0  0  0  0
 18 22  1  0  0  0  0
 19 18  2  0  0  0  0
 20 18  2  0  0  0  0
 21  5  1  0  0  0  0
 22 23  1  0  0  0  0
 22 24  1  0  0  0  0
 25 22  1  0  0  0  0
M  RAD  1   7   2
M  END
