Coordinates from ORCA-job C6H6+HOTf+NH2--N2+-scan
 OpenBabel10191813343D

 26 24  0  0  1  0  0  0  0  0999 V2000
    2.6457   -5.0011   -1.5675 N   0  0  0  0  0  0  0  0  0  0  0  0
    3.5343   -5.3299   -2.1228 N   0  0  0  0  0  0  0  0  0  0  0  0
    1.5692   -3.1840   -1.8579 N   0  0  0  0  0  0  0  0  0  0  0  0
    0.7964   -3.8415   -1.8032 H   0  0  0  0  0  0  0  0  0  0  0  0
    3.1636   -0.7431    2.8821 H   0  0  0  0  0  0  0  0  0  0  0  0
   -1.1554   -0.7432   -2.5131 C   0  0  0  0  0  0  0  0  0  0  0  0
   -1.0365   -0.7145   -3.9142 C   0  0  0  0  0  0  0  0  0  0  0  0
    0.0692   -1.2644   -4.6000 C   0  0  0  0  0  0  0  0  0  0  0  0
    1.0559   -1.8817   -3.8839 C   0  0  0  0  0  0  0  0  0  0  0  0
    1.0493   -1.8938   -2.4051 C   0  0  1  0  0  0  0  0  0  0  0  0
   -0.1535   -1.3122   -1.7671 C   0  0  0  0  0  0  0  0  0  0  0  0
   -2.0335   -0.3234   -2.0375 H   0  0  0  0  0  0  0  0  0  0  0  0
   -1.8338   -0.2606   -4.4955 H   0  0  0  0  0  0  0  0  0  0  0  0
    0.1017   -1.2303   -5.6820 H   0  0  0  0  0  0  0  0  0  0  0  0
    1.8962   -2.3682   -4.3680 H   0  0  0  0  0  0  0  0  0  0  0  0
    1.8412   -1.1402   -2.1699 H   0  0  0  0  0  0  0  0  0  0  0  0
   -0.2021   -1.3255   -0.6812 H   0  0  0  0  0  0  0  0  0  0  0  0
    1.5098   -1.8029    1.9870 S   0  0  0  0  0  0  0  0  0  0  0  0
    0.2307   -1.3140    1.5225 O   0  0  0  0  0  0  0  0  0  0  0  0
    2.4630   -2.3899    1.0560 O   0  0  0  0  0  0  0  0  0  0  0  0
    2.2045   -0.6033    2.8041 O   0  0  0  0  0  0  0  0  0  0  0  0
    1.2049   -3.0518    3.3759 C   0  0  0  0  0  0  0  0  0  0  0  0
    2.3665   -3.3089    3.9629 F   0  0  0  0  0  0  0  0  0  0  0  0
    0.3505   -2.5431    4.2401 F   0  0  0  0  0  0  0  0  0  0  0  0
    0.7135   -4.1506    2.8245 F   0  0  0  0  0  0  0  0  0  0  0  0
    1.8984   -3.0301   -0.9059 H   0  0  0  0  0  0  0  0  0  0  0  0
  2  1  3  0  0  0  0
  3  4  1  0  0  0  0
  3 26  1  0  0  0  0
  6 12  1  0  0  0  0
  6 11  2  0  0  0  0
  7  6  1  0  0  0  0
  8  7  1  0  0  0  0
  8  9  2  0  0  0  0
  9 10  1  0  0  0  0
 10 16  1  1  0  0  0
 10  3  1  0  0  0  0
 10 11  1  0  0  0  0
 11 17  1  0  0  0  0
 13  7  1  0  0  0  0
 14  8  1  0  0  0  0
 15  9  1  0  0  0  0
 18 21  1  0  0  0  0
 18 22  1  0  0  0  0
 19 18  2  0  0  0  0
 20 18  2  0  0  0  0
 21  5  1  0  0  0  0
 22 23  1  0  0  0  0
 22 24  1  0  0  0  0
 25 22  1  0  0  0  0
M  RAD  1   7   2
M  END
