Coordinates from ORCA-job C6H6+HOTf+NH2--N2+-scan
 OpenBabel10191813343D

 26 24  0  0  1  0  0  0  0  0999 V2000
    1.1551   -6.2272   -2.1832 N   0  0  0  0  0  0  0  0  0  0  0  0
    1.0773   -7.3187   -2.2316 N   0  0  0  0  0  0  0  0  0  0  0  0
    2.2735   -2.4912   -1.8405 N   0  0  0  0  0  0  0  0  0  0  0  0
    1.9929   -3.4645   -1.9089 H   0  0  0  0  0  0  0  0  0  0  0  0
    2.4868   -0.0159    3.1411 H   0  0  0  0  0  0  0  0  0  0  0  0
   -1.2027   -1.2534   -2.5244 C   0  0  0  0  0  0  0  0  0  0  0  0
   -1.0554   -1.0495   -3.9096 C   0  0  0  0  0  0  0  0  0  0  0  0
    0.1858   -1.1490   -4.5671 C   0  0  0  0  0  0  0  0  0  0  0  0
    1.3024   -1.4731   -3.8413 C   0  0  0  0  0  0  0  0  0  0  0  0
    1.2535   -1.6148   -2.3718 C   0  0  1  0  0  0  0  0  0  0  0  0
   -0.1027   -1.5722   -1.7687 C   0  0  0  0  0  0  0  0  0  0  0  0
   -2.1848   -1.1873   -2.0719 H   0  0  0  0  0  0  0  0  0  0  0  0
   -1.9377   -0.8143   -4.4974 H   0  0  0  0  0  0  0  0  0  0  0  0
    0.2420   -1.0045   -5.6390 H   0  0  0  0  0  0  0  0  0  0  0  0
    2.2780   -1.5929   -4.3004 H   0  0  0  0  0  0  0  0  0  0  0  0
    1.5699   -0.5581   -2.1210 H   0  0  0  0  0  0  0  0  0  0  0  0
   -0.1801   -1.7335   -0.6966 H   0  0  0  0  0  0  0  0  0  0  0  0
    1.4910   -1.5987    2.0644 S   0  0  0  0  0  0  0  0  0  0  0  0
    0.1559   -1.6500    1.5105 O   0  0  0  0  0  0  0  0  0  0  0  0
    2.6601   -1.6677    1.2012 O   0  0  0  0  0  0  0  0  0  0  0  0
    1.5644   -0.2839    2.9900 O   0  0  0  0  0  0  0  0  0  0  0  0
    1.6456   -2.9598    3.3691 C   0  0  0  0  0  0  0  0  0  0  0  0
    2.7669   -2.7575    4.0487 F   0  0  0  0  0  0  0  0  0  0  0  0
    0.6020   -2.9163    4.1725 F   0  0  0  0  0  0  0  0  0  0  0  0
    1.6959   -4.1204    2.7326 F   0  0  0  0  0  0  0  0  0  0  0  0
    2.5141   -2.2778   -0.8767 H   0  0  0  0  0  0  0  0  0  0  0  0
  2  1  3  0  0  0  0
  3 26  1  0  0  0  0
  4  3  1  0  0  0  0
  6 12  1  0  0  0  0
  6 11  2  0  0  0  0
  7  6  1  0  0  0  0
  8  7  1  0  0  0  0
  8  9  2  0  0  0  0
  9 10  1  0  0  0  0
 10 16  1  1  0  0  0
 10  3  1  0  0  0  0
 10 11  1  0  0  0  0
 11 17  1  0  0  0  0
 13  7  1  0  0  0  0
 14  8  1  0  0  0  0
 15  9  1  0  0  0  0
 18 21  1  0  0  0  0
 18 22  1  0  0  0  0
 19 18  2  0  0  0  0
 20 18  2  0  0  0  0
 21  5  1  0  0  0  0
 22 23  1  0  0  0  0
 22 24  1  0  0  0  0
 25 22  1  0  0  0  0
M  RAD  1   7   2
M  END
