Coordinates from ORCA-job C6H6+HOTf+NH2--N2+-scan
 OpenBabel10191813343D

 26 24  0  0  1  0  0  0  0  0999 V2000
    1.1277   -6.3025   -2.2030 N   0  0  0  0  0  0  0  0  0  0  0  0
    1.0452   -7.3936   -2.2540 N   0  0  0  0  0  0  0  0  0  0  0  0
    2.2819   -2.4744   -1.8380 N   0  0  0  0  0  0  0  0  0  0  0  0
    2.0073   -3.4493   -1.9075 H   0  0  0  0  0  0  0  0  0  0  0  0
    2.4773   -0.0063    3.1469 H   0  0  0  0  0  0  0  0  0  0  0  0
   -1.2011   -1.2573   -2.5240 C   0  0  0  0  0  0  0  0  0  0  0  0
   -1.0540   -1.0519   -3.9089 C   0  0  0  0  0  0  0  0  0  0  0  0
    0.1883   -1.1435   -4.5655 C   0  0  0  0  0  0  0  0  0  0  0  0
    1.3063   -1.4612   -3.8390 C   0  0  0  0  0  0  0  0  0  0  0  0
    1.2570   -1.6037   -2.3696 C   0  0  1  0  0  0  0  0  0  0  0  0
   -0.0999   -1.5696   -1.7675 C   0  0  0  0  0  0  0  0  0  0  0  0
   -2.1840   -1.1974   -2.0722 H   0  0  0  0  0  0  0  0  0  0  0  0
   -1.9373   -0.8219   -4.4974 H   0  0  0  0  0  0  0  0  0  0  0  0
    0.2444   -0.9984   -5.6374 H   0  0  0  0  0  0  0  0  0  0  0  0
    2.2830   -1.5749   -4.2974 H   0  0  0  0  0  0  0  0  0  0  0  0
    1.5671   -0.5454   -2.1179 H   0  0  0  0  0  0  0  0  0  0  0  0
   -0.1771   -1.7319   -0.6955 H   0  0  0  0  0  0  0  0  0  0  0  0
    1.4902   -1.5923    2.0669 S   0  0  0  0  0  0  0  0  0  0  0  0
    0.1558   -1.6494    1.5119 O   0  0  0  0  0  0  0  0  0  0  0  0
    2.6603   -1.6542    1.2045 O   0  0  0  0  0  0  0  0  0  0  0  0
    1.5564   -0.2786    2.9945 O   0  0  0  0  0  0  0  0  0  0  0  0
    1.6507   -2.9547    3.3697 C   0  0  0  0  0  0  0  0  0  0  0  0
    2.7703   -2.7476    4.0505 F   0  0  0  0  0  0  0  0  0  0  0  0
    0.6062   -2.9176    4.1722 F   0  0  0  0  0  0  0  0  0  0  0  0
    1.7074   -4.1140    2.7314 F   0  0  0  0  0  0  0  0  0  0  0  0
    2.5202   -2.2606   -0.8736 H   0  0  0  0  0  0  0  0  0  0  0  0
  2  1  3  0  0  0  0
  3 26  1  0  0  0  0
  4  3  1  0  0  0  0
  6 12  1  0  0  0  0
  6 11  2  0  0  0  0
  7  6  1  0  0  0  0
  8  7  1  0  0  0  0
  8  9  2  0  0  0  0
  9 10  1  0  0  0  0
 10 16  1  1  0  0  0
 10  3  1  0  0  0  0
 10 11  1  0  0  0  0
 11 17  1  0  0  0  0
 13  7  1  0  0  0  0
 14  8  1  0  0  0  0
 15  9  1  0  0  0  0
 18 21  1  0  0  0  0
 18 22  1  0  0  0  0
 19 18  2  0  0  0  0
 20 18  2  0  0  0  0
 21  5  1  0  0  0  0
 22 23  1  0  0  0  0
 22 24  1  0  0  0  0
 25 22  1  0  0  0  0
M  RAD  1   7   2
M  END
