Coordinates from ORCA-job C6H6+HOTf+NH2--N2+-scan
 OpenBabel10191813343D

 26 24  0  0  1  0  0  0  0  0999 V2000
    0.7665   -7.7852   -2.6003 N   0  0  0  0  0  0  0  0  0  0  0  0
    0.7131   -8.8763   -2.6829 N   0  0  0  0  0  0  0  0  0  0  0  0
    2.3723   -2.2305   -1.7943 N   0  0  0  0  0  0  0  0  0  0  0  0
    2.1686   -3.2207   -1.8766 H   0  0  0  0  0  0  0  0  0  0  0  0
    2.3516    0.1577    3.2270 H   0  0  0  0  0  0  0  0  0  0  0  0
   -1.1797   -1.2524   -2.5069 C   0  0  0  0  0  0  0  0  0  0  0  0
   -1.0335   -1.0266   -3.8889 C   0  0  0  0  0  0  0  0  0  0  0  0
    0.2188   -1.0255   -4.5331 C   0  0  0  0  0  0  0  0  0  0  0  0
    1.3490   -1.2697   -3.7974 C   0  0  0  0  0  0  0  0  0  0  0  0
    1.2950   -1.4270   -2.3293 C   0  0  1  0  0  0  0  0  0  0  0  0
   -0.0670   -1.4926   -1.7410 C   0  0  0  0  0  0  0  0  0  0  0  0
   -2.1689   -1.2652   -2.0652 H   0  0  0  0  0  0  0  0  0  0  0  0
   -1.9248   -0.8550   -4.4850 H   0  0  0  0  0  0  0  0  0  0  0  0
    0.2753   -0.8685   -5.6033 H   0  0  0  0  0  0  0  0  0  0  0  0
    2.3357   -1.3114   -4.2464 H   0  0  0  0  0  0  0  0  0  0  0  0
    1.5301   -0.3529   -2.0652 H   0  0  0  0  0  0  0  0  0  0  0  0
   -0.1437   -1.6683   -0.6711 H   0  0  0  0  0  0  0  0  0  0  0  0
    1.4813   -1.4704    2.1096 S   0  0  0  0  0  0  0  0  0  0  0  0
    0.1594   -1.6048    1.5381 O   0  0  0  0  0  0  0  0  0  0  0  0
    2.6616   -1.4417    1.2592 O   0  0  0  0  0  0  0  0  0  0  0  0
    1.4521   -0.1707    3.0584 O   0  0  0  0  0  0  0  0  0  0  0  0
    1.7170   -2.8413    3.3921 C   0  0  0  0  0  0  0  0  0  0  0  0
    2.8131   -2.5723    4.0894 F   0  0  0  0  0  0  0  0  0  0  0  0
    0.6637   -2.8862    4.1824 F   0  0  0  0  0  0  0  0  0  0  0  0
    1.8570   -3.9831    2.7358 F   0  0  0  0  0  0  0  0  0  0  0  0
    2.5860   -2.0117   -0.8252 H   0  0  0  0  0  0  0  0  0  0  0  0
  2  1  3  0  0  0  0
  3 26  1  0  0  0  0
  4  3  1  0  0  0  0
  6 12  1  0  0  0  0
  6 11  2  0  0  0  0
  7  6  1  0  0  0  0
  8  7  1  0  0  0  0
  8  9  2  0  0  0  0
  9 10  1  0  0  0  0
 10 16  1  1  0  0  0
 10  3  1  0  0  0  0
 10 11  1  0  0  0  0
 11 17  1  0  0  0  0
 13  7  1  0  0  0  0
 14  8  1  0  0  0  0
 15  9  1  0  0  0  0
 18 21  1  0  0  0  0
 18 22  1  0  0  0  0
 19 18  2  0  0  0  0
 20 18  2  0  0  0  0
 21  5  1  0  0  0  0
 22 23  1  0  0  0  0
 22 24  1  0  0  0  0
 25 22  1  0  0  0  0
M  RAD  1   7   2
M  END
