Coordinates from ORCA-job C6H6+HOTf+NH2--N2+-scan
 OpenBabel10191813343D

 26 24  0  0  1  0  0  0  0  0999 V2000
    0.9416   -7.0575   -2.3850 N   0  0  0  0  0  0  0  0  0  0  0  0
    0.8704   -8.1487   -2.4501 N   0  0  0  0  0  0  0  0  0  0  0  0
    2.3316   -2.3443   -1.8179 N   0  0  0  0  0  0  0  0  0  0  0  0
    2.0959   -3.3280   -1.8959 H   0  0  0  0  0  0  0  0  0  0  0  0
    2.4139    0.0732    3.1896 H   0  0  0  0  0  0  0  0  0  0  0  0
   -1.1909   -1.2556   -2.5165 C   0  0  0  0  0  0  0  0  0  0  0  0
   -1.0447   -1.0394   -3.9000 C   0  0  0  0  0  0  0  0  0  0  0  0
    0.2036   -1.0810   -4.5505 C   0  0  0  0  0  0  0  0  0  0  0  0
    1.3292   -1.3589   -3.8195 C   0  0  0  0  0  0  0  0  0  0  0  0
    1.2777   -1.5092   -2.3508 C   0  0  1  0  0  0  0  0  0  0  0  0
   -0.0826   -1.5290   -1.7554 C   0  0  0  0  0  0  0  0  0  0  0  0
   -2.1777   -1.2350   -2.0697 H   0  0  0  0  0  0  0  0  0  0  0  0
   -1.9331   -0.8410   -4.4922 H   0  0  0  0  0  0  0  0  0  0  0  0
    0.2596   -0.9295   -5.6215 H   0  0  0  0  0  0  0  0  0  0  0  0
    2.3117   -1.4339   -4.2733 H   0  0  0  0  0  0  0  0  0  0  0  0
    1.5478   -0.4419   -2.0921 H   0  0  0  0  0  0  0  0  0  0  0  0
   -0.1593   -1.6985   -0.6845 H   0  0  0  0  0  0  0  0  0  0  0  0
    1.4853   -1.5330    2.0875 S   0  0  0  0  0  0  0  0  0  0  0  0
    0.1567   -1.6280    1.5239 O   0  0  0  0  0  0  0  0  0  0  0  0
    2.6614   -1.5477    1.2308 O   0  0  0  0  0  0  0  0  0  0  0  0
    1.5033   -0.2272    3.0282 O   0  0  0  0  0  0  0  0  0  0  0  0
    1.6836   -2.9027    3.3774 C   0  0  0  0  0  0  0  0  0  0  0  0
    2.7917   -2.6652    4.0671 F   0  0  0  0  0  0  0  0  0  0  0  0
    0.6338   -2.9085    4.1737 F   0  0  0  0  0  0  0  0  0  0  0  0
    1.7829   -4.0526    2.7278 F   0  0  0  0  0  0  0  0  0  0  0  0
    2.5563   -2.1291   -0.8506 H   0  0  0  0  0  0  0  0  0  0  0  0
  2  1  3  0  0  0  0
  3 26  1  0  0  0  0
  4  3  1  0  0  0  0
  6 12  1  0  0  0  0
  6 11  2  0  0  0  0
  7  6  1  0  0  0  0
  8  7  1  0  0  0  0
  8  9  2  0  0  0  0
  9 10  1  0  0  0  0
 10 16  1  1  0  0  0
 10  3  1  0  0  0  0
 10 11  1  0  0  0  0
 11 17  1  0  0  0  0
 13  7  1  0  0  0  0
 14  8  1  0  0  0  0
 15  9  1  0  0  0  0
 18 21  1  0  0  0  0
 18 22  1  0  0  0  0
 19 18  2  0  0  0  0
 20 18  2  0  0  0  0
 21  5  1  0  0  0  0
 22 23  1  0  0  0  0
 22 24  1  0  0  0  0
 25 22  1  0  0  0  0
M  RAD  1   7   2
M  END
