Coordinates from ORCA-job C6H6+HOTf+NH2--N2+-scan
 OpenBabel10191813343D

 26 24  0  0  1  0  0  0  0  0999 V2000
    1.0164   -6.6995   -2.2998 N   0  0  0  0  0  0  0  0  0  0  0  0
    0.9338   -7.7902   -2.3589 N   0  0  0  0  0  0  0  0  0  0  0  0
    2.3131   -2.3998   -1.8269 N   0  0  0  0  0  0  0  0  0  0  0  0
    2.0626   -3.3803   -1.9015 H   0  0  0  0  0  0  0  0  0  0  0  0
    2.4399    0.0372    3.1718 H   0  0  0  0  0  0  0  0  0  0  0  0
   -1.1950   -1.2620   -2.5205 C   0  0  0  0  0  0  0  0  0  0  0  0
   -1.0486   -1.0506   -3.9046 C   0  0  0  0  0  0  0  0  0  0  0  0
    0.1975   -1.1118   -4.5577 C   0  0  0  0  0  0  0  0  0  0  0  0
    1.3205   -1.4047   -3.8286 C   0  0  0  0  0  0  0  0  0  0  0  0
    1.2701   -1.5512   -2.3594 C   0  0  1  0  0  0  0  0  0  0  0  0
   -0.0891   -1.5500   -1.7612 C   0  0  0  0  0  0  0  0  0  0  0  0
   -2.1804   -1.2260   -2.0716 H   0  0  0  0  0  0  0  0  0  0  0  0
   -1.9353   -0.8404   -4.4953 H   0  0  0  0  0  0  0  0  0  0  0  0
    0.2534   -0.9633   -5.6291 H   0  0  0  0  0  0  0  0  0  0  0  0
    2.3008   -1.4948   -4.2843 H   0  0  0  0  0  0  0  0  0  0  0  0
    1.5556   -0.4871   -2.1040 H   0  0  0  0  0  0  0  0  0  0  0  0
   -0.1658   -1.7163   -0.6898 H   0  0  0  0  0  0  0  0  0  0  0  0
    1.4873   -1.5608    2.0784 S   0  0  0  0  0  0  0  0  0  0  0  0
    0.1561   -1.6403    1.5183 O   0  0  0  0  0  0  0  0  0  0  0  0
    2.6611   -1.5946    1.2192 O   0  0  0  0  0  0  0  0  0  0  0  0
    1.5250   -0.2517    3.0140 O   0  0  0  0  0  0  0  0  0  0  0  0
    1.6701   -2.9279    3.3732 C   0  0  0  0  0  0  0  0  0  0  0  0
    2.7831   -2.7029    4.0593 F   0  0  0  0  0  0  0  0  0  0  0  0
    0.6223   -2.9164    4.1721 F   0  0  0  0  0  0  0  0  0  0  0  0
    1.7521   -4.0817    2.7280 F   0  0  0  0  0  0  0  0  0  0  0  0
    2.5429   -2.1850   -0.8607 H   0  0  0  0  0  0  0  0  0  0  0  0
  2  1  3  0  0  0  0
  3 26  1  0  0  0  0
  4  3  1  0  0  0  0
  6 12  1  0  0  0  0
  6 11  2  0  0  0  0
  7  6  1  0  0  0  0
  8  7  1  0  0  0  0
  8  9  2  0  0  0  0
  9 10  1  0  0  0  0
 10 16  1  1  0  0  0
 10  3  1  0  0  0  0
 10 11  1  0  0  0  0
 11 17  1  0  0  0  0
 13  7  1  0  0  0  0
 14  8  1  0  0  0  0
 15  9  1  0  0  0  0
 18 21  1  0  0  0  0
 18 22  1  0  0  0  0
 19 18  2  0  0  0  0
 20 18  2  0  0  0  0
 21  5  1  0  0  0  0
 22 23  1  0  0  0  0
 22 24  1  0  0  0  0
 25 22  1  0  0  0  0
M  RAD  1   7   2
M  END
