Coordinates from ORCA-job C6H6+HOTf+NH2--N2+-scan
 OpenBabel10191813343D

 26 24  0  0  1  0  0  0  0  0999 V2000
    1.6880   -5.8365   -1.9590 N   0  0  0  0  0  0  0  0  0  0  0  0
    1.9429   -6.9014   -1.9444 N   0  0  0  0  0  0  0  0  0  0  0  0
    2.0935   -2.7000   -1.8792 N   0  0  0  0  0  0  0  0  0  0  0  0
    1.7203   -3.6397   -1.9420 H   0  0  0  0  0  0  0  0  0  0  0  0
    2.6940   -0.1760    3.0521 H   0  0  0  0  0  0  0  0  0  0  0  0
   -1.2301   -1.0755   -2.5141 C   0  0  0  0  0  0  0  0  0  0  0  0
   -1.0891   -0.9063   -3.9044 C   0  0  0  0  0  0  0  0  0  0  0  0
    0.1182   -1.1574   -4.5836 C   0  0  0  0  0  0  0  0  0  0  0  0
    1.2047   -1.6008   -3.8746 C   0  0  0  0  0  0  0  0  0  0  0  0
    1.1697   -1.7218   -2.4033 C   0  0  1  0  0  0  0  0  0  0  0  0
   -0.1597   -1.5133   -1.7754 C   0  0  0  0  0  0  0  0  0  0  0  0
   -2.1880   -0.8890   -2.0435 H   0  0  0  0  0  0  0  0  0  0  0  0
   -1.9496   -0.5757   -4.4784 H   0  0  0  0  0  0  0  0  0  0  0  0
    0.1695   -1.0317   -5.6582 H   0  0  0  0  0  0  0  0  0  0  0  0
    2.1507   -1.8363   -4.3502 H   0  0  0  0  0  0  0  0  0  0  0  0
    1.6063   -0.7021   -2.1760 H   0  0  0  0  0  0  0  0  0  0  0  0
   -0.2332   -1.6515   -0.6999 H   0  0  0  0  0  0  0  0  0  0  0  0
    1.5025   -1.6568    2.0305 S   0  0  0  0  0  0  0  0  0  0  0  0
    0.1607   -1.5650    1.4987 O   0  0  0  0  0  0  0  0  0  0  0  0
    2.6405   -1.8814    1.1527 O   0  0  0  0  0  0  0  0  0  0  0  0
    1.7442   -0.3388    2.9226 O   0  0  0  0  0  0  0  0  0  0  0  0
    1.5209   -2.9960    3.3662 C   0  0  0  0  0  0  0  0  0  0  0  0
    2.6699   -2.9104    4.0240 F   0  0  0  0  0  0  0  0  0  0  0  0
    0.5037   -2.8132    4.1838 F   0  0  0  0  0  0  0  0  0  0  0  0
    1.4251   -4.1692    2.7582 F   0  0  0  0  0  0  0  0  0  0  0  0
    2.3738   -2.5064   -0.9224 H   0  0  0  0  0  0  0  0  0  0  0  0
  1  2  3  0  0  0  0
  3 26  1  0  0  0  0
  4  3  1  0  0  0  0
  6 12  1  0  0  0  0
  6 11  2  0  0  0  0
  7  6  1  0  0  0  0
  8  7  1  0  0  0  0
  8  9  2  0  0  0  0
  9 10  1  0  0  0  0
 10 16  1  1  0  0  0
 10  3  1  0  0  0  0
 10 11  1  0  0  0  0
 11 17  1  0  0  0  0
 13  7  1  0  0  0  0
 14  8  1  0  0  0  0
 15  9  1  0  0  0  0
 18 21  1  0  0  0  0
 18 22  1  0  0  0  0
 19 18  2  0  0  0  0
 20 18  2  0  0  0  0
 21  5  1  0  0  0  0
 22 23  1  0  0  0  0
 22 24  1  0  0  0  0
 25 22  1  0  0  0  0
M  RAD  1   7   2
M  END
