Coordinates from ORCA-job C6H6+HOTf+NH2--N2+-scan
 OpenBabel10191813343D

 26 24  0  0  1  0  0  0  0  0999 V2000
    1.2186   -6.0824   -2.1398 N   0  0  0  0  0  0  0  0  0  0  0  0
    1.1588   -7.1753   -2.1801 N   0  0  0  0  0  0  0  0  0  0  0  0
    2.2535   -2.5270   -1.8465 N   0  0  0  0  0  0  0  0  0  0  0  0
    1.9596   -3.4967   -1.9130 H   0  0  0  0  0  0  0  0  0  0  0  0
    2.5093   -0.0375    3.1283 H   0  0  0  0  0  0  0  0  0  0  0  0
   -1.2063   -1.2411   -2.5251 C   0  0  0  0  0  0  0  0  0  0  0  0
   -1.0589   -1.0405   -3.9107 C   0  0  0  0  0  0  0  0  0  0  0  0
    0.1794   -1.1582   -4.5705 C   0  0  0  0  0  0  0  0  0  0  0  0
    1.2928   -1.4976   -3.8465 C   0  0  0  0  0  0  0  0  0  0  0  0
    1.2448   -1.6376   -2.3769 C   0  0  1  0  0  0  0  0  0  0  0  0
   -0.1095   -1.5750   -1.7713 C   0  0  0  0  0  0  0  0  0  0  0  0
   -2.1865   -1.1606   -2.0707 H   0  0  0  0  0  0  0  0  0  0  0  0
   -1.9389   -0.7930   -4.4970 H   0  0  0  0  0  0  0  0  0  0  0  0
    0.2357   -1.0153   -5.6426 H   0  0  0  0  0  0  0  0  0  0  0  0
    2.2658   -1.6313   -4.3073 H   0  0  0  0  0  0  0  0  0  0  0  0
    1.5758   -0.5847   -2.1282 H   0  0  0  0  0  0  0  0  0  0  0  0
   -0.1870   -1.7342   -0.6989 H   0  0  0  0  0  0  0  0  0  0  0  0
    1.4927   -1.6120    2.0588 S   0  0  0  0  0  0  0  0  0  0  0  0
    0.1561   -1.6491    1.5075 O   0  0  0  0  0  0  0  0  0  0  0  0
    2.6595   -1.6979    1.1940 O   0  0  0  0  0  0  0  0  0  0  0  0
    1.5835   -0.2951    2.9800 O   0  0  0  0  0  0  0  0  0  0  0  0
    1.6332   -2.9704    3.3678 C   0  0  0  0  0  0  0  0  0  0  0  0
    2.7581   -2.7795    4.0447 F   0  0  0  0  0  0  0  0  0  0  0  0
    0.5917   -2.9116    4.1729 F   0  0  0  0  0  0  0  0  0  0  0  0
    1.6683   -4.1337    2.7351 F   0  0  0  0  0  0  0  0  0  0  0  0
    2.4995   -2.3149   -0.8838 H   0  0  0  0  0  0  0  0  0  0  0  0
  2  1  3  0  0  0  0
  3 26  1  0  0  0  0
  4  3  1  0  0  0  0
  6 12  1  0  0  0  0
  6 11  2  0  0  0  0
  7  6  1  0  0  0  0
  8  7  1  0  0  0  0
  8  9  2  0  0  0  0
  9 10  1  0  0  0  0
 10 16  1  1  0  0  0
 10  3  1  0  0  0  0
 10 11  1  0  0  0  0
 11 17  1  0  0  0  0
 13  7  1  0  0  0  0
 14  8  1  0  0  0  0
 15  9  1  0  0  0  0
 18 21  1  0  0  0  0
 18 22  1  0  0  0  0
 19 18  2  0  0  0  0
 20 18  2  0  0  0  0
 21  5  1  0  0  0  0
 22 23  1  0  0  0  0
 22 24  1  0  0  0  0
 25 22  1  0  0  0  0
M  RAD  1   7   2
M  END
