Coordinates from ORCA-job C6H6+HOTf+NH2--N2+-scan
 OpenBabel10191813343D

 26 24  0  0  1  0  0  0  0  0999 V2000
    1.1918   -6.1393   -2.1582 N   0  0  0  0  0  0  0  0  0  0  0  0
    1.1231   -7.2316   -2.2024 N   0  0  0  0  0  0  0  0  0  0  0  0
    2.2620   -2.5123   -1.8439 N   0  0  0  0  0  0  0  0  0  0  0  0
    1.9737   -3.4836   -1.9111 H   0  0  0  0  0  0  0  0  0  0  0  0
    2.4997   -0.0284    3.1336 H   0  0  0  0  0  0  0  0  0  0  0  0
   -1.2048   -1.2469   -2.5249 C   0  0  0  0  0  0  0  0  0  0  0  0
   -1.0574   -1.0449   -3.9102 C   0  0  0  0  0  0  0  0  0  0  0  0
    0.1822   -1.1548   -4.5690 C   0  0  0  0  0  0  0  0  0  0  0  0
    1.2970   -1.4877   -3.8443 C   0  0  0  0  0  0  0  0  0  0  0  0
    1.2485   -1.6284   -2.3747 C   0  0  1  0  0  0  0  0  0  0  0  0
   -0.1066   -1.5743   -1.7702 C   0  0  0  0  0  0  0  0  0  0  0  0
   -2.1858   -1.1725   -2.0712 H   0  0  0  0  0  0  0  0  0  0  0  0
   -1.9384   -0.8026   -4.4972 H   0  0  0  0  0  0  0  0  0  0  0  0
    0.2385   -1.0113   -5.6411 H   0  0  0  0  0  0  0  0  0  0  0  0
    2.2711   -1.6155   -4.3043 H   0  0  0  0  0  0  0  0  0  0  0  0
    1.5734   -0.5739   -2.1251 H   0  0  0  0  0  0  0  0  0  0  0  0
   -0.1840   -1.7344   -0.6979 H   0  0  0  0  0  0  0  0  0  0  0  0
    1.4920   -1.6065    2.0612 S   0  0  0  0  0  0  0  0  0  0  0  0
    0.1560   -1.6497    1.5088 O   0  0  0  0  0  0  0  0  0  0  0  0
    2.6598   -1.6853    1.1971 O   0  0  0  0  0  0  0  0  0  0  0  0
    1.5754   -0.2905    2.9842 O   0  0  0  0  0  0  0  0  0  0  0  0
    1.6385   -2.9660    3.3684 C   0  0  0  0  0  0  0  0  0  0  0  0
    2.7619   -2.7702    4.0464 F   0  0  0  0  0  0  0  0  0  0  0  0
    0.5961   -2.9136    4.1728 F   0  0  0  0  0  0  0  0  0  0  0  0
    1.6801   -4.1282    2.7342 F   0  0  0  0  0  0  0  0  0  0  0  0
    2.5058   -2.2996   -0.8807 H   0  0  0  0  0  0  0  0  0  0  0  0
  2  1  3  0  0  0  0
  3 26  1  0  0  0  0
  4  3  1  0  0  0  0
  6 12  1  0  0  0  0
  6 11  2  0  0  0  0
  7  6  1  0  0  0  0
  8  7  1  0  0  0  0
  8  9  2  0  0  0  0
  9 10  1  0  0  0  0
 10 16  1  1  0  0  0
 10  3  1  0  0  0  0
 10 11  1  0  0  0  0
 11 17  1  0  0  0  0
 13  7  1  0  0  0  0
 14  8  1  0  0  0  0
 15  9  1  0  0  0  0
 18 21  1  0  0  0  0
 18 22  1  0  0  0  0
 19 18  2  0  0  0  0
 20 18  2  0  0  0  0
 21  5  1  0  0  0  0
 22 23  1  0  0  0  0
 22 24  1  0  0  0  0
 25 22  1  0  0  0  0
M  RAD  1   7   2
M  END
