Coordinates from ORCA-job C6H6+HOTf+NH2--N2+-scan
 OpenBabel10191813343D

 26 24  0  0  1  0  0  0  0  0999 V2000
    1.0346   -6.5980   -2.2795 N   0  0  0  0  0  0  0  0  0  0  0  0
    0.9476   -7.6884   -2.3377 N   0  0  0  0  0  0  0  0  0  0  0  0
    2.3086   -2.4152   -1.8290 N   0  0  0  0  0  0  0  0  0  0  0  0
    2.0539   -3.3948   -1.9024 H   0  0  0  0  0  0  0  0  0  0  0  0
    2.4459    0.0283    3.1670 H   0  0  0  0  0  0  0  0  0  0  0  0
   -1.1958   -1.2651   -2.5215 C   0  0  0  0  0  0  0  0  0  0  0  0
   -1.0494   -1.0550   -3.9058 C   0  0  0  0  0  0  0  0  0  0  0  0
    0.1961   -1.1212   -4.5595 C   0  0  0  0  0  0  0  0  0  0  0  0
    1.3184   -1.4178   -3.8308 C   0  0  0  0  0  0  0  0  0  0  0  0
    1.2683   -1.5633   -2.3615 C   0  0  1  0  0  0  0  0  0  0  0  0
   -0.0906   -1.5568   -1.7627 C   0  0  0  0  0  0  0  0  0  0  0  0
   -2.1808   -1.2253   -2.0721 H   0  0  0  0  0  0  0  0  0  0  0  0
   -1.9356   -0.8418   -4.4962 H   0  0  0  0  0  0  0  0  0  0  0  0
    0.2521   -0.9735   -5.6310 H   0  0  0  0  0  0  0  0  0  0  0  0
    2.2982   -1.5117   -4.2869 H   0  0  0  0  0  0  0  0  0  0  0  0
    1.5577   -0.4999   -2.1070 H   0  0  0  0  0  0  0  0  0  0  0  0
   -0.1674   -1.7221   -0.6911 H   0  0  0  0  0  0  0  0  0  0  0  0
    1.4878   -1.5681    2.0762 S   0  0  0  0  0  0  0  0  0  0  0  0
    0.1561   -1.6442    1.5169 O   0  0  0  0  0  0  0  0  0  0  0  0
    2.6610   -1.6066    1.2165 O   0  0  0  0  0  0  0  0  0  0  0  0
    1.5300   -0.2581    3.0102 O   0  0  0  0  0  0  0  0  0  0  0  0
    1.6671   -2.9342    3.3726 C   0  0  0  0  0  0  0  0  0  0  0  0
    2.7812   -2.7118    4.0578 F   0  0  0  0  0  0  0  0  0  0  0  0
    0.6198   -2.9184    4.1721 F   0  0  0  0  0  0  0  0  0  0  0  0
    1.7451   -4.0891    2.7288 F   0  0  0  0  0  0  0  0  0  0  0  0
    2.5395   -2.2002   -0.8631 H   0  0  0  0  0  0  0  0  0  0  0  0
  2  1  3  0  0  0  0
  3 26  1  0  0  0  0
  4  3  1  0  0  0  0
  6 12  1  0  0  0  0
  6 11  2  0  0  0  0
  7  6  1  0  0  0  0
  8  7  1  0  0  0  0
  8  9  2  0  0  0  0
  9 10  1  0  0  0  0
 10 16  1  1  0  0  0
 10  3  1  0  0  0  0
 10 11  1  0  0  0  0
 11 17  1  0  0  0  0
 13  7  1  0  0  0  0
 14  8  1  0  0  0  0
 15  9  1  0  0  0  0
 18 21  1  0  0  0  0
 18 22  1  0  0  0  0
 19 18  2  0  0  0  0
 20 18  2  0  0  0  0
 21  5  1  0  0  0  0
 22 23  1  0  0  0  0
 22 24  1  0  0  0  0
 25 22  1  0  0  0  0
M  RAD  1   7   2
M  END
