Coordinates from ORCA-job C6H6+HOTf+NH2--N2+-scan
 OpenBabel10191813343D

 26 24  0  0  1  0  0  0  0  0999 V2000
    2.7125   -5.3984   -1.1511 N   0  0  0  0  0  0  0  0  0  0  0  0
    3.6940   -5.8570   -1.3137 N   0  0  0  0  0  0  0  0  0  0  0  0
    1.6233   -3.0651   -1.9389 N   0  0  0  0  0  0  0  0  0  0  0  0
    1.0009   -3.8642   -1.9441 H   0  0  0  0  0  0  0  0  0  0  0  0
    3.0826   -0.6533    2.8729 H   0  0  0  0  0  0  0  0  0  0  0  0
   -1.1989   -0.6645   -2.5206 C   0  0  0  0  0  0  0  0  0  0  0  0
   -1.0808   -0.5810   -3.9209 C   0  0  0  0  0  0  0  0  0  0  0  0
   -0.0024   -1.1446   -4.6306 C   0  0  0  0  0  0  0  0  0  0  0  0
    0.9695   -1.8215   -3.9417 C   0  0  0  0  0  0  0  0  0  0  0  0
    0.9700   -1.8819   -2.4657 C   0  0  1  0  0  0  0  0  0  0  0  0
   -0.2353   -1.3252   -1.8012 C   0  0  0  0  0  0  0  0  0  0  0  0
   -2.0603   -0.2318   -2.0262 H   0  0  0  0  0  0  0  0  0  0  0  0
   -1.8586   -0.0680   -4.4789 H   0  0  0  0  0  0  0  0  0  0  0  0
    0.0304   -1.0705   -5.7106 H   0  0  0  0  0  0  0  0  0  0  0  0
    1.8033   -2.3041   -4.4405 H   0  0  0  0  0  0  0  0  0  0  0  0
    1.6743   -1.0176   -2.2822 H   0  0  0  0  0  0  0  0  0  0  0  0
   -0.2907   -1.4021   -0.7183 H   0  0  0  0  0  0  0  0  0  0  0  0
    1.5315   -1.8242    1.9347 S   0  0  0  0  0  0  0  0  0  0  0  0
    0.2276   -1.4250    1.4526 O   0  0  0  0  0  0  0  0  0  0  0  0
    2.5444   -2.3248    1.0178 O   0  0  0  0  0  0  0  0  0  0  0  0
    2.1168   -0.5873    2.7826 O   0  0  0  0  0  0  0  0  0  0  0  0
    1.2917   -3.1094    3.3023 C   0  0  0  0  0  0  0  0  0  0  0  0
    2.4570   -3.2884    3.9111 F   0  0  0  0  0  0  0  0  0  0  0  0
    0.3848   -2.6765    4.1547 F   0  0  0  0  0  0  0  0  0  0  0  0
    0.8938   -4.2349    2.7292 F   0  0  0  0  0  0  0  0  0  0  0  0
    1.9680   -2.9311   -0.9927 H   0  0  0  0  0  0  0  0  0  0  0  0
  2  1  3  0  0  0  0
  3 26  1  0  0  0  0
  4  3  1  0  0  0  0
  6 12  1  0  0  0  0
  6 11  2  0  0  0  0
  7  6  1  0  0  0  0
  8  9  2  0  0  0  0
  8  7  1  0  0  0  0
  9 10  1  0  0  0  0
 10 16  1  1  0  0  0
 10  3  1  0  0  0  0
 10 11  1  0  0  0  0
 11 17  1  0  0  0  0
 13  7  1  0  0  0  0
 14  8  1  0  0  0  0
 15  9  1  0  0  0  0
 18 21  1  0  0  0  0
 18 22  1  0  0  0  0
 19 18  2  0  0  0  0
 20 18  2  0  0  0  0
 21  5  1  0  0  0  0
 22 23  1  0  0  0  0
 22 24  1  0  0  0  0
 25 22  1  0  0  0  0
M  RAD  1   7   2
M  END
