Coordinates from ORCA-job C6H6+HOTf+NH2--N2+-scan
 OpenBabel10191813343D

 26 24  0  0  0  0  0  0  0  0999 V2000
    0.8263   -4.8379   -1.7847 N   0  0  0  0  0  0  0  0  0  0  0  0
    0.5495   -5.4126   -2.7401 N   0  0  0  0  0  0  0  0  0  0  0  0
    1.0293   -4.2477   -0.9653 N   0  0  0  0  0  0  0  0  0  0  0  0
    0.2409   -2.4458   -1.3986 H   0  0  0  0  0  0  0  0  0  0  0  0
    4.2660   -2.2367    2.3027 H   0  0  0  0  0  0  0  0  0  0  0  0
   -0.7580   -2.3100   -3.2308 C   0  0  0  0  0  0  0  0  0  0  0  0
   -0.2609   -1.8653   -4.4307 C   0  0  0  0  0  0  0  0  0  0  0  0
    0.5944   -0.7491   -4.4473 C   0  0  0  0  0  0  0  0  0  0  0  0
    0.9747   -0.0639   -3.2771 C   0  0  0  0  0  0  0  0  0  0  0  0
    0.4991   -0.4930   -2.0646 C   0  0  0  0  0  0  0  0  0  0  0  0
   -0.3588   -1.6712   -1.9776 C   0  0  0  0  0  0  0  0  0  0  0  0
   -1.4322   -3.1585   -3.1924 H   0  0  0  0  0  0  0  0  0  0  0  0
   -0.5285   -2.3553   -5.3585 H   0  0  0  0  0  0  0  0  0  0  0  0
    0.9748   -0.3996   -5.4023 H   0  0  0  0  0  0  0  0  0  0  0  0
    1.6300    0.7955   -3.3458 H   0  0  0  0  0  0  0  0  0  0  0  0
    0.7835   -0.0052   -1.1393 H   0  0  0  0  0  0  0  0  0  0  0  0
   -1.1898   -1.5483   -1.2674 H   0  0  0  0  0  0  0  0  0  0  0  0
    2.1635   -2.2624    1.8164 S   0  0  0  0  0  0  0  0  0  0  0  0
    1.4055   -1.3940    0.9433 O   0  0  0  0  0  0  0  0  0  0  0  0
    2.3260   -3.6806    1.5229 O   0  0  0  0  0  0  0  0  0  0  0  0
    3.6081   -1.5818    2.0122 O   0  0  0  0  0  0  0  0  0  0  0  0
    1.4539   -2.1200    3.5664 C   0  0  0  0  0  0  0  0  0  0  0  0
    2.2960   -2.7086    4.4031 F   0  0  0  0  0  0  0  0  0  0  0  0
    1.3098   -0.8450    3.8700 F   0  0  0  0  0  0  0  0  0  0  0  0
    0.2838   -2.7369    3.5746 F   0  0  0  0  0  0  0  0  0  0  0  0
    1.5623   -4.4180   -0.1088 H   0  0  0  0  0  0  0  0  0  0  0  0
  1  3  2  0  0  0  0
  2  1  2  0  0  0  0
  3 26  1  0  0  0  0
  6 12  1  0  0  0  0
  6 11  1  0  0  0  0
  7  6  2  0  0  0  0
  8  7  1  0  0  0  0
  8  9  1  0  0  0  0
  9 10  2  0  0  0  0
 10 11  1  0  0  0  0
 10 16  1  0  0  0  0
 11  4  1  0  0  0  0
 11 17  1  0  0  0  0
 13  7  1  0  0  0  0
 14  8  1  0  0  0  0
 15  9  1  0  0  0  0
 18 21  1  0  0  0  0
 18 22  1  0  0  0  0
 19 18  2  0  0  0  0
 20 18  2  0  0  0  0
 21  5  1  0  0  0  0
 22 25  1  0  0  0  0
 22 24  1  0  0  0  0
 22 23  1  0  0  0  0
M  RAD  2   2   2   8   2
M  END
