Coordinates from ORCA-job C6H6+HOTf+NH2--N2+-scan
 OpenBabel10191813343D

 26 24  0  0  1  0  0  0  0  0999 V2000
    0.6041   -8.6026   -2.8315 N   0  0  0  0  0  0  0  0  0  0  0  0
    0.5684   -9.6934   -2.9269 N   0  0  0  0  0  0  0  0  0  0  0  0
    2.4083   -2.1120   -1.7703 N   0  0  0  0  0  0  0  0  0  0  0  0
    2.2340   -3.1074   -1.8567 H   0  0  0  0  0  0  0  0  0  0  0  0
    2.2954    0.2423    3.2654 H   0  0  0  0  0  0  0  0  0  0  0  0
   -1.1675   -1.2349   -2.4951 C   0  0  0  0  0  0  0  0  0  0  0  0
   -1.0220   -1.0000   -3.8757 C   0  0  0  0  0  0  0  0  0  0  0  0
    0.2325   -0.9602   -4.5143 C   0  0  0  0  0  0  0  0  0  0  0  0
    1.3661   -1.1740   -3.7745 C   0  0  0  0  0  0  0  0  0  0  0  0
    1.3104   -1.3382   -2.3072 C   0  0  1  0  0  0  0  0  0  0  0  0
   -0.0517   -1.4454   -1.7251 C   0  0  0  0  0  0  0  0  0  0  0  0
   -2.1578   -1.2781   -2.0578 H   0  0  0  0  0  0  0  0  0  0  0  0
   -1.9154   -0.8523   -4.4751 H   0  0  0  0  0  0  0  0  0  0  0  0
    0.2890   -0.7977   -5.5837 H   0  0  0  0  0  0  0  0  0  0  0  0
    2.3555   -1.1853   -4.2193 H   0  0  0  0  0  0  0  0  0  0  0  0
    1.5131   -0.2587   -2.0382 H   0  0  0  0  0  0  0  0  0  0  0  0
   -0.1278   -1.6271   -0.6561 H   0  0  0  0  0  0  0  0  0  0  0  0
    1.4781   -1.4028    2.1330 S   0  0  0  0  0  0  0  0  0  0  0  0
    0.1636   -1.5715    1.5537 O   0  0  0  0  0  0  0  0  0  0  0  0
    2.6613   -1.3343    1.2887 O   0  0  0  0  0  0  0  0  0  0  0  0
    1.4066   -0.1108    3.0899 O   0  0  0  0  0  0  0  0  0  0  0  0
    1.7471   -2.7749    3.4076 C   0  0  0  0  0  0  0  0  0  0  0  0
    2.8316   -2.4791    4.1121 F   0  0  0  0  0  0  0  0  0  0  0  0
    0.6916   -2.8554    4.1923 F   0  0  0  0  0  0  0  0  0  0  0  0
    1.9231   -3.9078    2.7445 F   0  0  0  0  0  0  0  0  0  0  0  0
    2.6119   -1.8905   -0.7996 H   0  0  0  0  0  0  0  0  0  0  0  0
  2  1  3  0  0  0  0
  3 26  1  0  0  0  0
  4  3  1  0  0  0  0
  6 12  1  0  0  0  0
  6 11  2  0  0  0  0
  7  6  1  0  0  0  0
  8  7  1  0  0  0  0
  8  9  2  0  0  0  0
  9 10  1  0  0  0  0
 10 16  1  1  0  0  0
 10  3  1  0  0  0  0
 10 11  1  0  0  0  0
 11 17  1  0  0  0  0
 13  7  1  0  0  0  0
 14  8  1  0  0  0  0
 15  9  1  0  0  0  0
 18 21  1  0  0  0  0
 18 22  1  0  0  0  0
 19 18  2  0  0  0  0
 20 18  2  0  0  0  0
 21  5  1  0  0  0  0
 22 23  1  0  0  0  0
 22 24  1  0  0  0  0
 25 22  1  0  0  0  0
M  RAD  1   7   2
M  END
