Coordinates from ORCA-job C6H6+HOTf+NH2--N2+-scan
 OpenBabel10191813343D

 26 24  0  0  1  0  0  0  0  0999 V2000
    0.6681   -8.2489   -2.7360 N   0  0  0  0  0  0  0  0  0  0  0  0
    0.6253   -9.3398   -2.8267 N   0  0  0  0  0  0  0  0  0  0  0  0
    2.3943   -2.1617   -1.7799 N   0  0  0  0  0  0  0  0  0  0  0  0
    2.2084   -3.1552   -1.8645 H   0  0  0  0  0  0  0  0  0  0  0  0
    2.3173    0.2079    3.2494 H   0  0  0  0  0  0  0  0  0  0  0  0
   -1.1725   -1.2452   -2.5002 C   0  0  0  0  0  0  0  0  0  0  0  0
   -1.0267   -1.0141   -3.8814 C   0  0  0  0  0  0  0  0  0  0  0  0
    0.2271   -0.9896   -4.5222 C   0  0  0  0  0  0  0  0  0  0  0  0
    1.3595   -1.2151   -3.7839 C   0  0  0  0  0  0  0  0  0  0  0  0
    1.3044   -1.3763   -2.3163 C   0  0  1  0  0  0  0  0  0  0  0  0
   -0.0578   -1.4671   -1.7318 C   0  0  0  0  0  0  0  0  0  0  0  0
   -2.1625   -1.2764   -2.0612 H   0  0  0  0  0  0  0  0  0  0  0  0
   -1.9193   -0.8572   -4.4796 H   0  0  0  0  0  0  0  0  0  0  0  0
    0.2836   -0.8295   -5.5919 H   0  0  0  0  0  0  0  0  0  0  0  0
    2.3480   -1.2384   -4.2304 H   0  0  0  0  0  0  0  0  0  0  0  0
    1.5198   -0.2987   -2.0494 H   0  0  0  0  0  0  0  0  0  0  0  0
   -0.1342   -1.6462   -0.6624 H   0  0  0  0  0  0  0  0  0  0  0  0
    1.4793   -1.4312    2.1234 S   0  0  0  0  0  0  0  0  0  0  0  0
    0.1618   -1.5868    1.5472 O   0  0  0  0  0  0  0  0  0  0  0  0
    2.6614   -1.3784    1.2766 O   0  0  0  0  0  0  0  0  0  0  0  0
    1.4242   -0.1357    3.0767 O   0  0  0  0  0  0  0  0  0  0  0  0
    1.7354   -2.8025    3.4015 C   0  0  0  0  0  0  0  0  0  0  0  0
    2.8245   -2.5168    4.1030 F   0  0  0  0  0  0  0  0  0  0  0  0
    0.6806   -2.8689    4.1884 F   0  0  0  0  0  0  0  0  0  0  0  0
    1.8975   -3.9392    2.7414 F   0  0  0  0  0  0  0  0  0  0  0  0
    2.6019   -1.9411   -0.8099 H   0  0  0  0  0  0  0  0  0  0  0  0
  2  1  3  0  0  0  0
  3 26  1  0  0  0  0
  4  3  1  0  0  0  0
  6 12  1  0  0  0  0
  6 11  2  0  0  0  0
  7  6  1  0  0  0  0
  8  7  1  0  0  0  0
  8  9  2  0  0  0  0
  9 10  1  0  0  0  0
 10 16  1  1  0  0  0
 10  3  1  0  0  0  0
 10 11  1  0  0  0  0
 11 17  1  0  0  0  0
 13  7  1  0  0  0  0
 14  8  1  0  0  0  0
 15  9  1  0  0  0  0
 18 21  1  0  0  0  0
 18 22  1  0  0  0  0
 19 18  2  0  0  0  0
 20 18  2  0  0  0  0
 21  5  1  0  0  0  0
 22 23  1  0  0  0  0
 22 24  1  0  0  0  0
 25 22  1  0  0  0  0
M  RAD  1   7   2
M  END
