Coordinates from ORCA-job C6H6+HOTf+NH2--N2+-scan
 OpenBabel10191813343D

 26 24  0  0  1  0  0  0  0  0999 V2000
    0.9068   -7.2053   -2.4252 N   0  0  0  0  0  0  0  0  0  0  0  0
    0.8395   -8.2966   -2.4936 N   0  0  0  0  0  0  0  0  0  0  0  0
    2.3399   -2.3210   -1.8135 N   0  0  0  0  0  0  0  0  0  0  0  0
    2.1107   -3.3061   -1.8926 H   0  0  0  0  0  0  0  0  0  0  0  0
    2.4015    0.0897    3.1972 H   0  0  0  0  0  0  0  0  0  0  0  0
   -1.1889   -1.2546   -2.5148 C   0  0  0  0  0  0  0  0  0  0  0  0
   -1.0426   -1.0362   -3.8979 C   0  0  0  0  0  0  0  0  0  0  0  0
    0.2066   -1.0690   -4.5472 C   0  0  0  0  0  0  0  0  0  0  0  0
    1.3332   -1.3403   -3.8153 C   0  0  0  0  0  0  0  0  0  0  0  0
    1.2812   -1.4922   -2.3467 C   0  0  1  0  0  0  0  0  0  0  0  0
   -0.0796   -1.5213   -1.7528 C   0  0  0  0  0  0  0  0  0  0  0  0
   -2.1762   -1.2408   -2.0690 H   0  0  0  0  0  0  0  0  0  0  0  0
   -1.9317   -0.8432   -4.4909 H   0  0  0  0  0  0  0  0  0  0  0  0
    0.2627   -0.9163   -5.6180 H   0  0  0  0  0  0  0  0  0  0  0  0
    2.3166   -1.4084   -4.2681 H   0  0  0  0  0  0  0  0  0  0  0  0
    1.5442   -0.4234   -2.0867 H   0  0  0  0  0  0  0  0  0  0  0  0
   -0.1563   -1.6922   -0.6821 H   0  0  0  0  0  0  0  0  0  0  0  0
    1.4845   -1.5208    2.0917 S   0  0  0  0  0  0  0  0  0  0  0  0
    0.1571   -1.6236    1.5265 O   0  0  0  0  0  0  0  0  0  0  0  0
    2.6615   -1.5267    1.2362 O   0  0  0  0  0  0  0  0  0  0  0  0
    1.4930   -0.2162    3.0342 O   0  0  0  0  0  0  0  0  0  0  0  0
    1.6902   -2.8910    3.3799 C   0  0  0  0  0  0  0  0  0  0  0  0
    2.7960   -2.6473    4.0711 F   0  0  0  0  0  0  0  0  0  0  0  0
    0.6396   -2.9049    4.1749 F   0  0  0  0  0  0  0  0  0  0  0  0
    1.7977   -4.0393    2.7287 F   0  0  0  0  0  0  0  0  0  0  0  0
    2.5624   -2.1052   -0.8458 H   0  0  0  0  0  0  0  0  0  0  0  0
  2  1  3  0  0  0  0
  3 26  1  0  0  0  0
  4  3  1  0  0  0  0
  6 12  1  0  0  0  0
  6 11  2  0  0  0  0
  7  6  1  0  0  0  0
  8  7  1  0  0  0  0
  8  9  2  0  0  0  0
  9 10  1  0  0  0  0
 10 16  1  1  0  0  0
 10  3  1  0  0  0  0
 10 11  1  0  0  0  0
 11 17  1  0  0  0  0
 13  7  1  0  0  0  0
 14  8  1  0  0  0  0
 15  9  1  0  0  0  0
 18 21  1  0  0  0  0
 18 22  1  0  0  0  0
 19 18  2  0  0  0  0
 20 18  2  0  0  0  0
 21  5  1  0  0  0  0
 22 23  1  0  0  0  0
 22 24  1  0  0  0  0
 25 22  1  0  0  0  0
M  RAD  1   7   2
M  END
