Coordinates from ORCA-job C6H6+HOTf+NH2--N2+-scan
 OpenBabel10191813343D

 26 24  0  0  1  0  0  0  0  0999 V2000
    2.7354   -5.4433   -1.1299 N   0  0  0  0  0  0  0  0  0  0  0  0
    3.7206   -5.9019   -1.2677 N   0  0  0  0  0  0  0  0  0  0  0  0
    1.6175   -3.0622   -1.9420 N   0  0  0  0  0  0  0  0  0  0  0  0
    1.0036   -3.8677   -1.9535 H   0  0  0  0  0  0  0  0  0  0  0  0
    3.0736   -0.6438    2.8676 H   0  0  0  0  0  0  0  0  0  0  0  0
   -1.2015   -0.6560   -2.5208 C   0  0  0  0  0  0  0  0  0  0  0  0
   -1.0816   -0.5685   -3.9207 C   0  0  0  0  0  0  0  0  0  0  0  0
   -0.0047   -1.1343   -4.6307 C   0  0  0  0  0  0  0  0  0  0  0  0
    0.9641   -1.8168   -3.9427 C   0  0  0  0  0  0  0  0  0  0  0  0
    0.9627   -1.8818   -2.4670 C   0  0  1  0  0  0  0  0  0  0  0  0
   -0.2423   -1.3239   -1.8022 C   0  0  0  0  0  0  0  0  0  0  0  0
   -2.0618   -0.2214   -2.0260 H   0  0  0  0  0  0  0  0  0  0  0  0
   -1.8566   -0.0505   -4.4778 H   0  0  0  0  0  0  0  0  0  0  0  0
    0.0298   -1.0570   -5.7105 H   0  0  0  0  0  0  0  0  0  0  0  0
    1.7972   -2.3001   -4.4418 H   0  0  0  0  0  0  0  0  0  0  0  0
    1.6648   -1.0151   -2.2832 H   0  0  0  0  0  0  0  0  0  0  0  0
   -0.3002   -1.4046   -0.7197 H   0  0  0  0  0  0  0  0  0  0  0  0
    1.5284   -1.8231    1.9302 S   0  0  0  0  0  0  0  0  0  0  0  0
    0.2214   -1.4315    1.4503 O   0  0  0  0  0  0  0  0  0  0  0  0
    2.5430   -2.3167    1.0115 O   0  0  0  0  0  0  0  0  0  0  0  0
    2.1073   -0.5833    2.7781 O   0  0  0  0  0  0  0  0  0  0  0  0
    1.2985   -3.1107    3.2971 C   0  0  0  0  0  0  0  0  0  0  0  0
    2.4657   -3.2827    3.9043 F   0  0  0  0  0  0  0  0  0  0  0  0
    0.3900   -2.6843    4.1510 F   0  0  0  0  0  0  0  0  0  0  0  0
    0.9071   -4.2384    2.7237 F   0  0  0  0  0  0  0  0  0  0  0  0
    1.9673   -2.9325   -0.9974 H   0  0  0  0  0  0  0  0  0  0  0  0
  2  1  3  0  0  0  0
  3 26  1  0  0  0  0
  4  3  1  0  0  0  0
  6 12  1  0  0  0  0
  6 11  2  0  0  0  0
  7  6  1  0  0  0  0
  8  9  2  0  0  0  0
  8  7  1  0  0  0  0
  9 10  1  0  0  0  0
 10 16  1  1  0  0  0
 10  3  1  0  0  0  0
 10 11  1  0  0  0  0
 11 17  1  0  0  0  0
 13  7  1  0  0  0  0
 14  8  1  0  0  0  0
 15  9  1  0  0  0  0
 18 21  1  0  0  0  0
 18 22  1  0  0  0  0
 19 18  2  0  0  0  0
 20 18  2  0  0  0  0
 21  5  1  0  0  0  0
 22 23  1  0  0  0  0
 22 24  1  0  0  0  0
 25 22  1  0  0  0  0
M  RAD  1   7   2
M  END
