Coordinates from ORCA-job C6H6+HOTf+NH2--N2+-scan
 OpenBabel10191813343D

 26 24  0  0  1  0  0  0  0  0999 V2000
    0.9225   -7.1397   -2.4071 N   0  0  0  0  0  0  0  0  0  0  0  0
    0.8534   -8.2310   -2.4741 N   0  0  0  0  0  0  0  0  0  0  0  0
    2.3362   -2.3313   -1.8155 N   0  0  0  0  0  0  0  0  0  0  0  0
    2.1041   -3.3158   -1.8941 H   0  0  0  0  0  0  0  0  0  0  0  0
    2.4071    0.0823    3.1938 H   0  0  0  0  0  0  0  0  0  0  0  0
   -1.1898   -1.2550   -2.5156 C   0  0  0  0  0  0  0  0  0  0  0  0
   -1.0436   -1.0375   -3.8988 C   0  0  0  0  0  0  0  0  0  0  0  0
    0.2052   -1.0743   -4.5487 C   0  0  0  0  0  0  0  0  0  0  0  0
    1.3314   -1.3485   -3.8172 C   0  0  0  0  0  0  0  0  0  0  0  0
    1.2796   -1.4997   -2.3485 C   0  0  1  0  0  0  0  0  0  0  0  0
   -0.0810   -1.5247   -1.7539 C   0  0  0  0  0  0  0  0  0  0  0  0
   -2.1769   -1.2381   -2.0693 H   0  0  0  0  0  0  0  0  0  0  0  0
   -1.9323   -0.8421   -4.4915 H   0  0  0  0  0  0  0  0  0  0  0  0
    0.2613   -0.9222   -5.6195 H   0  0  0  0  0  0  0  0  0  0  0  0
    2.3144   -1.4197   -4.2705 H   0  0  0  0  0  0  0  0  0  0  0  0
    1.5458   -0.4316   -2.0892 H   0  0  0  0  0  0  0  0  0  0  0  0
   -0.1577   -1.6950   -0.6832 H   0  0  0  0  0  0  0  0  0  0  0  0
    1.4849   -1.5262    2.0898 S   0  0  0  0  0  0  0  0  0  0  0  0
    0.1569   -1.6255    1.5253 O   0  0  0  0  0  0  0  0  0  0  0  0
    2.6614   -1.5361    1.2338 O   0  0  0  0  0  0  0  0  0  0  0  0
    1.4977   -0.2211    3.0315 O   0  0  0  0  0  0  0  0  0  0  0  0
    1.6873   -2.8963    3.3787 C   0  0  0  0  0  0  0  0  0  0  0  0
    2.7941   -2.6553    4.0693 F   0  0  0  0  0  0  0  0  0  0  0  0
    0.6369   -2.9065    4.1744 F   0  0  0  0  0  0  0  0  0  0  0  0
    1.7910   -4.0453    2.7283 F   0  0  0  0  0  0  0  0  0  0  0  0
    2.5596   -2.1159   -0.8479 H   0  0  0  0  0  0  0  0  0  0  0  0
  2  1  3  0  0  0  0
  3 26  1  0  0  0  0
  4  3  1  0  0  0  0
  6 12  1  0  0  0  0
  6 11  2  0  0  0  0
  7  6  1  0  0  0  0
  8  7  1  0  0  0  0
  8  9  2  0  0  0  0
  9 10  1  0  0  0  0
 10 16  1  1  0  0  0
 10  3  1  0  0  0  0
 10 11  1  0  0  0  0
 11 17  1  0  0  0  0
 13  7  1  0  0  0  0
 14  8  1  0  0  0  0
 15  9  1  0  0  0  0
 18 21  1  0  0  0  0
 18 22  1  0  0  0  0
 19 18  2  0  0  0  0
 20 18  2  0  0  0  0
 21  5  1  0  0  0  0
 22 23  1  0  0  0  0
 22 24  1  0  0  0  0
 25 22  1  0  0  0  0
M  RAD  1   7   2
M  END
