Coordinates from ORCA-job C6H6+HOTf+NH2--N2+-scan
 OpenBabel10191813343D

 26 24  0  0  1  0  0  0  0  0999 V2000
    0.6830   -8.1739   -2.7147 N   0  0  0  0  0  0  0  0  0  0  0  0
    0.6386   -9.2648   -2.8042 N   0  0  0  0  0  0  0  0  0  0  0  0
    2.3910   -2.1726   -1.7821 N   0  0  0  0  0  0  0  0  0  0  0  0
    2.2024   -3.1656   -1.8664 H   0  0  0  0  0  0  0  0  0  0  0  0
    2.3224    0.2001    3.2459 H   0  0  0  0  0  0  0  0  0  0  0  0
   -1.1736   -1.2468   -2.5013 C   0  0  0  0  0  0  0  0  0  0  0  0
   -1.0277   -1.0165   -3.8826 C   0  0  0  0  0  0  0  0  0  0  0  0
    0.2259   -0.9955   -4.5239 C   0  0  0  0  0  0  0  0  0  0  0  0
    1.3580   -1.2239   -3.7860 C   0  0  0  0  0  0  0  0  0  0  0  0
    1.3030   -1.3844   -2.3183 C   0  0  1  0  0  0  0  0  0  0  0  0
   -0.0592   -1.4714   -1.7332 C   0  0  0  0  0  0  0  0  0  0  0  0
   -2.1635   -1.2752   -2.0618 H   0  0  0  0  0  0  0  0  0  0  0  0
   -1.9202   -0.8574   -4.4805 H   0  0  0  0  0  0  0  0  0  0  0  0
    0.2824   -0.8359   -5.5937 H   0  0  0  0  0  0  0  0  0  0  0  0
    2.3462   -1.2499   -4.2328 H   0  0  0  0  0  0  0  0  0  0  0  0
    1.5214   -0.3074   -2.0518 H   0  0  0  0  0  0  0  0  0  0  0  0
   -0.1357   -1.6500   -0.6637 H   0  0  0  0  0  0  0  0  0  0  0  0
    1.4796   -1.4374    2.1212 S   0  0  0  0  0  0  0  0  0  0  0  0
    0.1614   -1.5899    1.5458 O   0  0  0  0  0  0  0  0  0  0  0  0
    2.6615   -1.3883    1.2739 O   0  0  0  0  0  0  0  0  0  0  0  0
    1.4284   -0.1413    3.0738 O   0  0  0  0  0  0  0  0  0  0  0  0
    1.7327   -2.8086    3.4000 C   0  0  0  0  0  0  0  0  0  0  0  0
    2.8228   -2.5254    4.1009 F   0  0  0  0  0  0  0  0  0  0  0  0
    0.6781   -2.8718    4.1875 F   0  0  0  0  0  0  0  0  0  0  0  0
    1.8914   -3.9462    2.7406 F   0  0  0  0  0  0  0  0  0  0  0  0
    2.5995   -1.9522   -0.8123 H   0  0  0  0  0  0  0  0  0  0  0  0
  2  1  3  0  0  0  0
  3 26  1  0  0  0  0
  4  3  1  0  0  0  0
  6 12  1  0  0  0  0
  6 11  2  0  0  0  0
  7  6  1  0  0  0  0
  8  7  1  0  0  0  0
  8  9  2  0  0  0  0
  9 10  1  0  0  0  0
 10 16  1  1  0  0  0
 10  3  1  0  0  0  0
 10 11  1  0  0  0  0
 11 17  1  0  0  0  0
 13  7  1  0  0  0  0
 14  8  1  0  0  0  0
 15  9  1  0  0  0  0
 18 21  1  0  0  0  0
 18 22  1  0  0  0  0
 19 18  2  0  0  0  0
 20 18  2  0  0  0  0
 21  5  1  0  0  0  0
 22 23  1  0  0  0  0
 22 24  1  0  0  0  0
 25 22  1  0  0  0  0
M  RAD  1   7   2
M  END
