Coordinates from ORCA-job C6H6+HOTf+NH2--N2+-scan
 OpenBabel10191813343D

 26 24  0  0  1  0  0  0  0  0999 V2000
    2.6802   -5.5987   -1.1642 N   0  0  0  0  0  0  0  0  0  0  0  0
    3.6291   -6.1457   -1.1461 N   0  0  0  0  0  0  0  0  0  0  0  0
    1.6830   -3.0045   -1.9679 N   0  0  0  0  0  0  0  0  0  0  0  0
    1.1121   -3.8404   -2.0025 H   0  0  0  0  0  0  0  0  0  0  0  0
    3.0671   -0.6187    2.8650 H   0  0  0  0  0  0  0  0  0  0  0  0
   -1.2280   -0.7004   -2.5149 C   0  0  0  0  0  0  0  0  0  0  0  0
   -1.1071   -0.5821   -3.9124 C   0  0  0  0  0  0  0  0  0  0  0  0
   -0.0089   -1.0959   -4.6287 C   0  0  0  0  0  0  0  0  0  0  0  0
    0.9824   -1.7556   -3.9500 C   0  0  0  0  0  0  0  0  0  0  0  0
    0.9787   -1.8482   -2.4759 C   0  0  1  0  0  0  0  0  0  0  0  0
   -0.2488   -1.3490   -1.8056 C   0  0  0  0  0  0  0  0  0  0  0  0
   -2.1047   -0.3062   -2.0150 H   0  0  0  0  0  0  0  0  0  0  0  0
   -1.8980   -0.0810   -4.4625 H   0  0  0  0  0  0  0  0  0  0  0  0
    0.0263   -0.9971   -5.7067 H   0  0  0  0  0  0  0  0  0  0  0  0
    1.8351   -2.1974   -4.4545 H   0  0  0  0  0  0  0  0  0  0  0  0
    1.6405   -0.9523   -2.2783 H   0  0  0  0  0  0  0  0  0  0  0  0
   -0.3074   -1.4546   -0.7255 H   0  0  0  0  0  0  0  0  0  0  0  0
    1.5310   -1.8099    1.9277 S   0  0  0  0  0  0  0  0  0  0  0  0
    0.2231   -1.4270    1.4433 O   0  0  0  0  0  0  0  0  0  0  0  0
    2.5506   -2.3019    1.0137 O   0  0  0  0  0  0  0  0  0  0  0  0
    2.1008   -0.5635    2.7721 O   0  0  0  0  0  0  0  0  0  0  0  0
    1.3049   -3.0932    3.2993 C   0  0  0  0  0  0  0  0  0  0  0  0
    2.4712   -3.2552    3.9110 F   0  0  0  0  0  0  0  0  0  0  0  0
    0.3908   -2.6692    4.1484 F   0  0  0  0  0  0  0  0  0  0  0  0
    0.9227   -4.2258    2.7294 F   0  0  0  0  0  0  0  0  0  0  0  0
    2.0228   -2.8786   -1.0189 H   0  0  0  0  0  0  0  0  0  0  0  0
  1  2  3  0  0  0  0
  3 26  1  0  0  0  0
  4  3  1  0  0  0  0
  6 12  1  0  0  0  0
  6 11  2  0  0  0  0
  7  6  1  0  0  0  0
  8  9  2  0  0  0  0
  8  7  1  0  0  0  0
  9 10  1  0  0  0  0
 10 16  1  1  0  0  0
 10  3  1  0  0  0  0
 10 11  1  0  0  0  0
 11 17  1  0  0  0  0
 13  7  1  0  0  0  0
 14  8  1  0  0  0  0
 15  9  1  0  0  0  0
 18 21  1  0  0  0  0
 18 22  1  0  0  0  0
 19 18  2  0  0  0  0
 20 18  2  0  0  0  0
 21  5  1  0  0  0  0
 22 23  1  0  0  0  0
 22 24  1  0  0  0  0
 25 22  1  0  0  0  0
M  RAD  1   7   2
M  END
