Coordinates from ORCA-job C6H6+HOTf+NH2--N2+-scan
 OpenBabel10191813343D

 26 24  0  0  1  0  0  0  0  0999 V2000
    2.7571   -5.2418   -1.2738 N   0  0  0  0  0  0  0  0  0  0  0  0
    3.7097   -5.6223   -1.6593 N   0  0  0  0  0  0  0  0  0  0  0  0
    1.5602   -3.1442   -1.8902 N   0  0  0  0  0  0  0  0  0  0  0  0
    0.8764   -3.8919   -1.8596 H   0  0  0  0  0  0  0  0  0  0  0  0
    3.0586   -0.6374    2.8830 H   0  0  0  0  0  0  0  0  0  0  0  0
   -1.1561   -0.6381   -2.5181 C   0  0  0  0  0  0  0  0  0  0  0  0
   -1.0341   -0.5859   -3.9195 C   0  0  0  0  0  0  0  0  0  0  0  0
    0.0258   -1.1991   -4.6169 C   0  0  0  0  0  0  0  0  0  0  0  0
    0.9717   -1.8966   -3.9136 C   0  0  0  0  0  0  0  0  0  0  0  0
    0.9696   -1.9289   -2.4362 C   0  0  1  0  0  0  0  0  0  0  0  0
   -0.2133   -1.3130   -1.7844 C   0  0  0  0  0  0  0  0  0  0  0  0
   -2.0029   -0.1673   -2.0334 H   0  0  0  0  0  0  0  0  0  0  0  0
   -1.7942   -0.0589   -4.4886 H   0  0  0  0  0  0  0  0  0  0  0  0
    0.0616   -1.1471   -5.6981 H   0  0  0  0  0  0  0  0  0  0  0  0
    1.7860   -2.4206   -4.4026 H   0  0  0  0  0  0  0  0  0  0  0  0
    1.7192   -1.1052   -2.2570 H   0  0  0  0  0  0  0  0  0  0  0  0
   -0.2725   -1.3625   -0.7000 H   0  0  0  0  0  0  0  0  0  0  0  0
    1.5035   -1.8092    1.9524 S   0  0  0  0  0  0  0  0  0  0  0  0
    0.1932   -1.4141    1.4849 O   0  0  0  0  0  0  0  0  0  0  0  0
    2.5095   -2.2992    1.0219 O   0  0  0  0  0  0  0  0  0  0  0  0
    2.0917   -0.5747    2.8013 O   0  0  0  0  0  0  0  0  0  0  0  0
    1.2839   -3.1043    3.3141 C   0  0  0  0  0  0  0  0  0  0  0  0
    2.4562   -3.2816    3.9095 F   0  0  0  0  0  0  0  0  0  0  0  0
    0.3838   -2.6813    4.1785 F   0  0  0  0  0  0  0  0  0  0  0  0
    0.8854   -4.2278    2.7373 F   0  0  0  0  0  0  0  0  0  0  0  0
    1.9195   -2.9993   -0.9511 H   0  0  0  0  0  0  0  0  0  0  0  0
  2  1  3  0  0  0  0
  3  4  1  0  0  0  0
  3 26  1  0  0  0  0
  6 12  1  0  0  0  0
  6 11  2  0  0  0  0
  7  6  1  0  0  0  0
  8  7  1  0  0  0  0
  8  9  2  0  0  0  0
  9 10  1  0  0  0  0
 10 16  1  1  0  0  0
 10  3  1  0  0  0  0
 10 11  1  0  0  0  0
 11 17  1  0  0  0  0
 13  7  1  0  0  0  0
 14  8  1  0  0  0  0
 15  9  1  0  0  0  0
 18 21  1  0  0  0  0
 18 22  1  0  0  0  0
 19 18  2  0  0  0  0
 20 18  2  0  0  0  0
 21  5  1  0  0  0  0
 22 23  1  0  0  0  0
 22 24  1  0  0  0  0
 25 22  1  0  0  0  0
M  RAD  1   7   2
M  END
