Coordinates from ORCA-job C6H6+HOTf+NH2--N2+-scan
 OpenBabel10191813343D

 26 24  0  0  1  0  0  0  0  0999 V2000
    0.7759   -7.7441   -2.5880 N   0  0  0  0  0  0  0  0  0  0  0  0
    0.7214   -8.8352   -2.6698 N   0  0  0  0  0  0  0  0  0  0  0  0
    2.3702   -2.2367   -1.7956 N   0  0  0  0  0  0  0  0  0  0  0  0
    2.1648   -3.2266   -1.8777 H   0  0  0  0  0  0  0  0  0  0  0  0
    2.3549    0.1531    3.2250 H   0  0  0  0  0  0  0  0  0  0  0  0
   -1.1803   -1.2528   -2.5075 C   0  0  0  0  0  0  0  0  0  0  0  0
   -1.0341   -1.0275   -3.8895 C   0  0  0  0  0  0  0  0  0  0  0  0
    0.2180   -1.0286   -4.5341 C   0  0  0  0  0  0  0  0  0  0  0  0
    1.3480   -1.2746   -3.7986 C   0  0  0  0  0  0  0  0  0  0  0  0
    1.2941   -1.4316   -2.3305 C   0  0  1  0  0  0  0  0  0  0  0  0
   -0.0679   -1.4947   -1.7418 C   0  0  0  0  0  0  0  0  0  0  0  0
   -2.1694   -1.2638   -2.0655 H   0  0  0  0  0  0  0  0  0  0  0  0
   -1.9253   -0.8545   -4.4855 H   0  0  0  0  0  0  0  0  0  0  0  0
    0.2745   -0.8719   -5.6043 H   0  0  0  0  0  0  0  0  0  0  0  0
    2.3345   -1.3180   -4.2479 H   0  0  0  0  0  0  0  0  0  0  0  0
    1.5310   -0.3577   -2.0666 H   0  0  0  0  0  0  0  0  0  0  0  0
   -0.1445   -1.6701   -0.6719 H   0  0  0  0  0  0  0  0  0  0  0  0
    1.4815   -1.4740    2.1084 S   0  0  0  0  0  0  0  0  0  0  0  0
    0.1592   -1.6063    1.5373 O   0  0  0  0  0  0  0  0  0  0  0  0
    2.6616   -1.4475    1.2576 O   0  0  0  0  0  0  0  0  0  0  0  0
    1.4547   -0.1739    3.0567 O   0  0  0  0  0  0  0  0  0  0  0  0
    1.7153   -2.8448    3.3913 C   0  0  0  0  0  0  0  0  0  0  0  0
    2.8120   -2.5774    4.0881 F   0  0  0  0  0  0  0  0  0  0  0  0
    0.6621   -2.8877    4.1819 F   0  0  0  0  0  0  0  0  0  0  0  0
    1.8532   -3.9871    2.7353 F   0  0  0  0  0  0  0  0  0  0  0  0
    2.5844   -2.0182   -0.8266 H   0  0  0  0  0  0  0  0  0  0  0  0
  2  1  3  0  0  0  0
  3 26  1  0  0  0  0
  4  3  1  0  0  0  0
  6 12  1  0  0  0  0
  6 11  2  0  0  0  0
  7  6  1  0  0  0  0
  8  7  1  0  0  0  0
  8  9  2  0  0  0  0
  9 10  1  0  0  0  0
 10 16  1  1  0  0  0
 10  3  1  0  0  0  0
 10 11  1  0  0  0  0
 11 17  1  0  0  0  0
 13  7  1  0  0  0  0
 14  8  1  0  0  0  0
 15  9  1  0  0  0  0
 18 21  1  0  0  0  0
 18 22  1  0  0  0  0
 19 18  2  0  0  0  0
 20 18  2  0  0  0  0
 21  5  1  0  0  0  0
 22 23  1  0  0  0  0
 22 24  1  0  0  0  0
 25 22  1  0  0  0  0
M  RAD  1   7   2
M  END
