Coordinates from ORCA-job C6H6+HOTf+NH2--N2+-scan
 OpenBabel10191813343D

 26 24  0  0  1  0  0  0  0  0999 V2000
    2.6508   -5.0163   -1.5591 N   0  0  0  0  0  0  0  0  0  0  0  0
    3.5411   -5.3495   -2.1085 N   0  0  0  0  0  0  0  0  0  0  0  0
    1.5673   -3.1815   -1.8600 N   0  0  0  0  0  0  0  0  0  0  0  0
    0.7983   -3.8433   -1.8076 H   0  0  0  0  0  0  0  0  0  0  0  0
    3.1583   -0.7361    2.8817 H   0  0  0  0  0  0  0  0  0  0  0  0
   -1.1562   -0.7397   -2.5131 C   0  0  0  0  0  0  0  0  0  0  0  0
   -1.0363   -0.7095   -3.9142 C   0  0  0  0  0  0  0  0  0  0  0  0
    0.0687   -1.2605   -4.6001 C   0  0  0  0  0  0  0  0  0  0  0  0
    1.0539   -1.8806   -3.8842 C   0  0  0  0  0  0  0  0  0  0  0  0
    1.0467   -1.8942   -2.4053 C   0  0  1  0  0  0  0  0  0  0  0  0
   -0.1563   -1.3121   -1.7672 C   0  0  0  0  0  0  0  0  0  0  0  0
   -2.0340   -0.3189   -2.0376 H   0  0  0  0  0  0  0  0  0  0  0  0
   -1.8324   -0.2535   -4.4954 H   0  0  0  0  0  0  0  0  0  0  0  0
    0.1017   -1.2254   -5.6821 H   0  0  0  0  0  0  0  0  0  0  0  0
    1.8934   -2.3683   -4.3682 H   0  0  0  0  0  0  0  0  0  0  0  0
    1.8374   -1.1390   -2.1704 H   0  0  0  0  0  0  0  0  0  0  0  0
   -0.2056   -1.3268   -0.6813 H   0  0  0  0  0  0  0  0  0  0  0  0
    1.5089   -1.8022    1.9859 S   0  0  0  0  0  0  0  0  0  0  0  0
    0.2279   -1.3182    1.5215 O   0  0  0  0  0  0  0  0  0  0  0  0
    2.4647   -2.3847    1.0548 O   0  0  0  0  0  0  0  0  0  0  0  0
    2.1986   -0.6003    2.8039 O   0  0  0  0  0  0  0  0  0  0  0  0
    1.2087   -3.0531    3.3740 C   0  0  0  0  0  0  0  0  0  0  0  0
    2.3712   -3.3061    3.9611 F   0  0  0  0  0  0  0  0  0  0  0  0
    0.3521   -2.5484    4.2384 F   0  0  0  0  0  0  0  0  0  0  0  0
    0.7217   -4.1535    2.8218 F   0  0  0  0  0  0  0  0  0  0  0  0
    1.8991   -3.0307   -0.9084 H   0  0  0  0  0  0  0  0  0  0  0  0
  2  1  3  0  0  0  0
  3  4  1  0  0  0  0
  3 26  1  0  0  0  0
  6 12  1  0  0  0  0
  6 11  2  0  0  0  0
  7  6  1  0  0  0  0
  8  7  1  0  0  0  0
  8  9  2  0  0  0  0
  9 10  1  0  0  0  0
 10 16  1  1  0  0  0
 10  3  1  0  0  0  0
 10 11  1  0  0  0  0
 11 17  1  0  0  0  0
 13  7  1  0  0  0  0
 14  8  1  0  0  0  0
 15  9  1  0  0  0  0
 18 21  1  0  0  0  0
 18 22  1  0  0  0  0
 19 18  2  0  0  0  0
 20 18  2  0  0  0  0
 21  5  1  0  0  0  0
 22 23  1  0  0  0  0
 22 24  1  0  0  0  0
 25 22  1  0  0  0  0
M  RAD  1   7   2
M  END
