Coordinates from ORCA-job C6H6+HOTf+NH2--N2+-scan
 OpenBabel10191813343D

 26 24  0  0  1  0  0  0  0  0999 V2000
    1.3779   -5.8117   -2.0450 N   0  0  0  0  0  0  0  0  0  0  0  0
    1.3892   -6.9067   -2.0549 N   0  0  0  0  0  0  0  0  0  0  0  0
    2.2003   -2.6068   -1.8612 N   0  0  0  0  0  0  0  0  0  0  0  0
    1.8791   -3.5664   -1.9274 H   0  0  0  0  0  0  0  0  0  0  0  0
    2.5695   -0.0914    3.0986 H   0  0  0  0  0  0  0  0  0  0  0  0
   -1.2150   -1.1997   -2.5255 C   0  0  0  0  0  0  0  0  0  0  0  0
   -1.0683   -1.0084   -3.9124 C   0  0  0  0  0  0  0  0  0  0  0  0
    0.1613   -1.1726   -4.5783 C   0  0  0  0  0  0  0  0  0  0  0  0
    1.2659   -1.5498   -3.8592 C   0  0  0  0  0  0  0  0  0  0  0  0
    1.2211   -1.6854   -2.3893 C   0  0  1  0  0  0  0  0  0  0  0  0
   -0.1268   -1.5717   -1.7768 C   0  0  0  0  0  0  0  0  0  0  0  0
   -2.1890   -1.0820   -2.0658 H   0  0  0  0  0  0  0  0  0  0  0  0
   -1.9418   -0.7304   -4.4945 H   0  0  0  0  0  0  0  0  0  0  0  0
    0.2170   -1.0342   -5.6510 H   0  0  0  0  0  0  0  0  0  0  0  0
    2.2311   -1.7184   -4.3248 H   0  0  0  0  0  0  0  0  0  0  0  0
    1.5884   -0.6426   -2.1469 H   0  0  0  0  0  0  0  0  0  0  0  0
   -0.2040   -1.7246   -0.7035 H   0  0  0  0  0  0  0  0  0  0  0  0
    1.4969   -1.6401    2.0465 S   0  0  0  0  0  0  0  0  0  0  0  0
    0.1571   -1.6376    1.5020 O   0  0  0  0  0  0  0  0  0  0  0  0
    2.6562   -1.7707    1.1775 O   0  0  0  0  0  0  0  0  0  0  0  0
    1.6351   -0.3203    2.9577 O   0  0  0  0  0  0  0  0  0  0  0  0
    1.5989   -2.9925    3.3650 C   0  0  0  0  0  0  0  0  0  0  0  0
    2.7329   -2.8342    4.0352 F   0  0  0  0  0  0  0  0  0  0  0  0
    0.5639   -2.8936    4.1747 F   0  0  0  0  0  0  0  0  0  0  0  0
    1.5924   -4.1612    2.7410 F   0  0  0  0  0  0  0  0  0  0  0  0
    2.4602   -2.3993   -0.9015 H   0  0  0  0  0  0  0  0  0  0  0  0
  2  1  3  0  0  0  0
  3 26  1  0  0  0  0
  4  3  1  0  0  0  0
  6 12  1  0  0  0  0
  6 11  2  0  0  0  0
  7  6  1  0  0  0  0
  8  7  1  0  0  0  0
  8  9  2  0  0  0  0
  9 10  1  0  0  0  0
 10 16  1  1  0  0  0
 10  3  1  0  0  0  0
 10 11  1  0  0  0  0
 11 17  1  0  0  0  0
 13  7  1  0  0  0  0
 14  8  1  0  0  0  0
 15  9  1  0  0  0  0
 18 21  1  0  0  0  0
 18 22  1  0  0  0  0
 19 18  2  0  0  0  0
 20 18  2  0  0  0  0
 21  5  1  0  0  0  0
 22 23  1  0  0  0  0
 22 24  1  0  0  0  0
 25 22  1  0  0  0  0
M  RAD  1   7   2
M  END
