Coordinates from ORCA-job C6H6+HOTf+NH2--N2+-scan
 OpenBabel10191813343D

 26 24  0  0  1  0  0  0  0  0999 V2000
    2.6125   -4.6093   -1.7621 N   0  0  0  0  0  0  0  0  0  0  0  0
    3.5502   -4.8912   -2.2712 N   0  0  0  0  0  0  0  0  0  0  0  0
    1.6572   -3.0081   -1.9230 N   0  0  0  0  0  0  0  0  0  0  0  0
    0.7881   -3.5352   -2.0303 H   0  0  0  0  0  0  0  0  0  0  0  0
    3.4775   -1.4842    2.8862 H   0  0  0  0  0  0  0  0  0  0  0  0
   -1.0639   -1.0524   -2.3538 C   0  0  0  0  0  0  0  0  0  0  0  0
   -1.1853   -1.2440   -3.7287 C   0  0  0  0  0  0  0  0  0  0  0  0
   -0.0612   -1.5341   -4.5515 C   0  0  0  0  0  0  0  0  0  0  0  0
    1.1724   -1.6591   -3.9925 C   0  0  0  0  0  0  0  0  0  0  0  0
    1.3629   -1.5233   -2.5378 C   0  0  1  0  0  0  0  0  0  0  0  0
    0.1912   -1.1143   -1.7705 C   0  0  0  0  0  0  0  0  0  0  0  0
   -1.9354   -0.8200   -1.7545 H   0  0  0  0  0  0  0  0  0  0  0  0
   -2.1639   -1.1653   -4.1909 H   0  0  0  0  0  0  0  0  0  0  0  0
   -0.1998   -1.6492   -5.6196 H   0  0  0  0  0  0  0  0  0  0  0  0
    2.0411   -1.8916   -4.5986 H   0  0  0  0  0  0  0  0  0  0  0  0
    2.2790   -0.9903   -2.2787 H   0  0  0  0  0  0  0  0  0  0  0  0
    0.3127   -0.9047   -0.7121 H   0  0  0  0  0  0  0  0  0  0  0  0
    1.5231   -1.8162    2.0283 S   0  0  0  0  0  0  0  0  0  0  0  0
    0.5086   -0.8742    1.6184 O   0  0  0  0  0  0  0  0  0  0  0  0
    2.1679   -2.6827    1.0465 O   0  0  0  0  0  0  0  0  0  0  0  0
    2.6375   -0.9958    2.8464 O   0  0  0  0  0  0  0  0  0  0  0  0
    0.8156   -2.9239    3.3913 C   0  0  0  0  0  0  0  0  0  0  0  0
    1.8166   -3.6098    3.9271 F   0  0  0  0  0  0  0  0  0  0  0  0
    0.2266   -2.1737    4.2988 F   0  0  0  0  0  0  0  0  0  0  0  0
   -0.0553   -3.7450    2.8251 F   0  0  0  0  0  0  0  0  0  0  0  0
    1.7735   -2.8547   -0.9122 H   0  0  0  0  0  0  0  0  0  0  0  0
  2  1  3  0  0  0  0
  3 26  1  0  0  0  0
  4  3  1  0  0  0  0
  6 11  2  0  0  0  0
  6 12  1  0  0  0  0
  7  6  1  0  0  0  0
  8  9  2  0  0  0  0
  8  7  1  0  0  0  0
  9 10  1  0  0  0  0
 10 16  1  1  0  0  0
 10  3  1  0  0  0  0
 10 11  1  0  0  0  0
 11 17  1  0  0  0  0
 13  7  1  0  0  0  0
 14  8  1  0  0  0  0
 15  9  1  0  0  0  0
 18 21  1  0  0  0  0
 18 22  1  0  0  0  0
 19 18  2  0  0  0  0
 20 18  2  0  0  0  0
 21  5  1  0  0  0  0
 22 23  1  0  0  0  0
 22 24  1  0  0  0  0
 25 22  1  0  0  0  0
M  RAD  1   7   2
M  END
