Coordinates from ORCA-job C6H6+HOTf+NH2--N2+-scan
 OpenBabel10191813343D

 26 24  0  0  1  0  0  0  0  0999 V2000
    1.2518   -6.0202   -2.1177 N   0  0  0  0  0  0  0  0  0  0  0  0
    1.2048   -7.1139   -2.1523 N   0  0  0  0  0  0  0  0  0  0  0  0
    2.2428   -2.5443   -1.8498 N   0  0  0  0  0  0  0  0  0  0  0  0
    1.9424   -3.5119   -1.9157 H   0  0  0  0  0  0  0  0  0  0  0  0
    2.5212   -0.0486    3.1219 H   0  0  0  0  0  0  0  0  0  0  0  0
   -1.2082   -1.2331   -2.5253 C   0  0  0  0  0  0  0  0  0  0  0  0
   -1.0609   -1.0341   -3.9111 C   0  0  0  0  0  0  0  0  0  0  0  0
    0.1758   -1.1614   -4.5722 C   0  0  0  0  0  0  0  0  0  0  0  0
    1.2875   -1.5088   -3.8493 C   0  0  0  0  0  0  0  0  0  0  0  0
    1.2400   -1.6480   -2.3796 C   0  0  1  0  0  0  0  0  0  0  0  0
   -0.1131   -1.5750   -1.7726 C   0  0  0  0  0  0  0  0  0  0  0  0
   -2.1872   -1.1449   -2.0698 H   0  0  0  0  0  0  0  0  0  0  0  0
   -1.9396   -0.7802   -4.4966 H   0  0  0  0  0  0  0  0  0  0  0  0
    0.2320   -1.0193   -5.6444 H   0  0  0  0  0  0  0  0  0  0  0  0
    2.2589   -1.6498   -4.3111 H   0  0  0  0  0  0  0  0  0  0  0  0
    1.5786   -0.5972   -2.1321 H   0  0  0  0  0  0  0  0  0  0  0  0
   -0.1905   -1.7332   -0.7001 H   0  0  0  0  0  0  0  0  0  0  0  0
    1.4936   -1.6183    2.0559 S   0  0  0  0  0  0  0  0  0  0  0  0
    0.1563   -1.6478    1.5059 O   0  0  0  0  0  0  0  0  0  0  0  0
    2.6591   -1.7132    1.1904 O   0  0  0  0  0  0  0  0  0  0  0  0
    1.5937   -0.3007    2.9750 O   0  0  0  0  0  0  0  0  0  0  0  0
    1.6264   -2.9755    3.3670 C   0  0  0  0  0  0  0  0  0  0  0  0
    2.7532   -2.7910    4.0425 F   0  0  0  0  0  0  0  0  0  0  0  0
    0.5860   -2.9086    4.1730 F   0  0  0  0  0  0  0  0  0  0  0  0
    1.6533   -4.1401    2.7362 F   0  0  0  0  0  0  0  0  0  0  0  0
    2.4916   -2.3330   -0.8877 H   0  0  0  0  0  0  0  0  0  0  0  0
  2  1  3  0  0  0  0
  3 26  1  0  0  0  0
  4  3  1  0  0  0  0
  6 12  1  0  0  0  0
  6 11  2  0  0  0  0
  7  6  1  0  0  0  0
  8  7  1  0  0  0  0
  8  9  2  0  0  0  0
  9 10  1  0  0  0  0
 10 16  1  1  0  0  0
 10  3  1  0  0  0  0
 10 11  1  0  0  0  0
 11 17  1  0  0  0  0
 13  7  1  0  0  0  0
 14  8  1  0  0  0  0
 15  9  1  0  0  0  0
 18 21  1  0  0  0  0
 18 22  1  0  0  0  0
 19 18  2  0  0  0  0
 20 18  2  0  0  0  0
 21  5  1  0  0  0  0
 22 23  1  0  0  0  0
 22 24  1  0  0  0  0
 25 22  1  0  0  0  0
M  RAD  1   7   2
M  END
