Coordinates from ORCA-job C6H6+HOTf+NH2--N2+-scan
 OpenBabel10191813343D

 26 24  0  0  1  0  0  0  0  0999 V2000
    0.6411   -8.3913   -2.7755 N   0  0  0  0  0  0  0  0  0  0  0  0
    0.6012   -9.4822   -2.8683 N   0  0  0  0  0  0  0  0  0  0  0  0
    2.4002   -2.1414   -1.7759 N   0  0  0  0  0  0  0  0  0  0  0  0
    2.2193   -3.1357   -1.8612 H   0  0  0  0  0  0  0  0  0  0  0  0
    2.3080    0.2222    3.2560 H   0  0  0  0  0  0  0  0  0  0  0  0
   -1.1704   -1.2416   -2.4981 C   0  0  0  0  0  0  0  0  0  0  0  0
   -1.0247   -1.0090   -3.8790 C   0  0  0  0  0  0  0  0  0  0  0  0
    0.2294   -0.9780   -4.5190 C   0  0  0  0  0  0  0  0  0  0  0  0
    1.3623   -1.1986   -3.7800 C   0  0  0  0  0  0  0  0  0  0  0  0
    1.3069   -1.3609   -2.3125 C   0  0  1  0  0  0  0  0  0  0  0  0
   -0.0552   -1.4586   -1.7290 C   0  0  0  0  0  0  0  0  0  0  0  0
   -2.1605   -1.2778   -2.0598 H   0  0  0  0  0  0  0  0  0  0  0  0
   -1.9177   -0.8561   -4.4778 H   0  0  0  0  0  0  0  0  0  0  0  0
    0.2859   -0.8170   -5.5885 H   0  0  0  0  0  0  0  0  0  0  0  0
    2.3512   -1.2167   -4.2258 H   0  0  0  0  0  0  0  0  0  0  0  0
    1.5170   -0.2825   -2.0448 H   0  0  0  0  0  0  0  0  0  0  0  0
   -0.1315   -1.6388   -0.6598 H   0  0  0  0  0  0  0  0  0  0  0  0
    1.4788   -1.4196    2.1273 S   0  0  0  0  0  0  0  0  0  0  0  0
    0.1625   -1.5808    1.5499 O   0  0  0  0  0  0  0  0  0  0  0  0
    2.6614   -1.3602    1.2816 O   0  0  0  0  0  0  0  0  0  0  0  0
    1.4167   -0.1255    3.0821 O   0  0  0  0  0  0  0  0  0  0  0  0
    1.7404   -2.7911    3.4041 C   0  0  0  0  0  0  0  0  0  0  0  0
    2.8275   -2.5011    4.1069 F   0  0  0  0  0  0  0  0  0  0  0  0
    0.6853   -2.8635    4.1901 F   0  0  0  0  0  0  0  0  0  0  0  0
    1.9084   -3.9263    2.7428 F   0  0  0  0  0  0  0  0  0  0  0  0
    2.6061   -1.9203   -0.8056 H   0  0  0  0  0  0  0  0  0  0  0  0
  2  1  3  0  0  0  0
  3 26  1  0  0  0  0
  4  3  1  0  0  0  0
  6 12  1  0  0  0  0
  6 11  2  0  0  0  0
  7  6  1  0  0  0  0
  8  7  1  0  0  0  0
  8  9  2  0  0  0  0
  9 10  1  0  0  0  0
 10 16  1  1  0  0  0
 10  3  1  0  0  0  0
 10 11  1  0  0  0  0
 11 17  1  0  0  0  0
 13  7  1  0  0  0  0
 14  8  1  0  0  0  0
 15  9  1  0  0  0  0
 18 21  1  0  0  0  0
 18 22  1  0  0  0  0
 19 18  2  0  0  0  0
 20 18  2  0  0  0  0
 21  5  1  0  0  0  0
 22 23  1  0  0  0  0
 22 24  1  0  0  0  0
 25 22  1  0  0  0  0
M  RAD  1   7   2
M  END
