Coordinates from ORCA-job C6H6+HOTf+NH2--N2+-scan
 OpenBabel10191813343D

 26 24  0  0  1  0  0  0  0  0999 V2000
    2.7378   -5.1907   -1.3368 N   0  0  0  0  0  0  0  0  0  0  0  0
    3.6757   -5.5596   -1.7678 N   0  0  0  0  0  0  0  0  0  0  0  0
    1.5578   -3.1576   -1.8785 N   0  0  0  0  0  0  0  0  0  0  0  0
    0.8579   -3.8901   -1.8392 H   0  0  0  0  0  0  0  0  0  0  0  0
    3.0644   -0.6416    2.8865 H   0  0  0  0  0  0  0  0  0  0  0  0
   -1.1506   -0.6487   -2.5179 C   0  0  0  0  0  0  0  0  0  0  0  0
   -1.0267   -0.6019   -3.9192 C   0  0  0  0  0  0  0  0  0  0  0  0
    0.0367   -1.2141   -4.6127 C   0  0  0  0  0  0  0  0  0  0  0  0
    0.9830   -1.9063   -3.9053 C   0  0  0  0  0  0  0  0  0  0  0  0
    0.9788   -1.9330   -2.4277 C   0  0  1  0  0  0  0  0  0  0  0  0
   -0.2048   -1.3148   -1.7801 C   0  0  0  0  0  0  0  0  0  0  0  0
   -1.9997   -0.1788   -2.0363 H   0  0  0  0  0  0  0  0  0  0  0  0
   -1.7882   -0.0804   -4.4917 H   0  0  0  0  0  0  0  0  0  0  0  0
    0.0737   -1.1664   -5.6941 H   0  0  0  0  0  0  0  0  0  0  0  0
    1.7982   -2.4314   -4.3917 H   0  0  0  0  0  0  0  0  0  0  0  0
    1.7359   -1.1189   -2.2436 H   0  0  0  0  0  0  0  0  0  0  0  0
   -0.2644   -1.3580   -0.6955 H   0  0  0  0  0  0  0  0  0  0  0  0
    1.5013   -1.8062    1.9599 S   0  0  0  0  0  0  0  0  0  0  0  0
    0.1929   -1.4045    1.4927 O   0  0  0  0  0  0  0  0  0  0  0  0
    2.5033   -2.3042    1.0292 O   0  0  0  0  0  0  0  0  0  0  0  0
    2.0979   -0.5732    2.8051 O   0  0  0  0  0  0  0  0  0  0  0  0
    1.2759   -3.0971    3.3247 C   0  0  0  0  0  0  0  0  0  0  0  0
    2.4480   -3.2798    3.9191 F   0  0  0  0  0  0  0  0  0  0  0  0
    0.3794   -2.6670    4.1892 F   0  0  0  0  0  0  0  0  0  0  0  0
    0.8704   -4.2194    2.7508 F   0  0  0  0  0  0  0  0  0  0  0  0
    1.9148   -3.0086   -0.9388 H   0  0  0  0  0  0  0  0  0  0  0  0
  2  1  3  0  0  0  0
  3  4  1  0  0  0  0
  3 26  1  0  0  0  0
  6 12  1  0  0  0  0
  6 11  2  0  0  0  0
  7  6  1  0  0  0  0
  8  7  1  0  0  0  0
  8  9  2  0  0  0  0
  9 10  1  0  0  0  0
 10 16  1  1  0  0  0
 10  3  1  0  0  0  0
 10 11  1  0  0  0  0
 11 17  1  0  0  0  0
 13  7  1  0  0  0  0
 14  8  1  0  0  0  0
 15  9  1  0  0  0  0
 18 21  1  0  0  0  0
 18 22  1  0  0  0  0
 19 18  2  0  0  0  0
 20 18  2  0  0  0  0
 21  5  1  0  0  0  0
 22 23  1  0  0  0  0
 22 24  1  0  0  0  0
 25 22  1  0  0  0  0
M  RAD  1   7   2
M  END
