Coordinates from ORCA-job C6H6+HOTf+NH2--N2+-scan
 OpenBabel10191813343D

 26 24  0  0  1  0  0  0  0  0999 V2000
    1.3431   -5.8738   -2.0551 N   0  0  0  0  0  0  0  0  0  0  0  0
    1.3391   -6.9689   -2.0689 N   0  0  0  0  0  0  0  0  0  0  0  0
    2.2125   -2.5885   -1.8595 N   0  0  0  0  0  0  0  0  0  0  0  0
    1.8965   -3.5505   -1.9253 H   0  0  0  0  0  0  0  0  0  0  0  0
    2.5540   -0.0799    3.1051 H   0  0  0  0  0  0  0  0  0  0  0  0
   -1.2132   -1.2078   -2.5259 C   0  0  0  0  0  0  0  0  0  0  0  0
   -1.0664   -1.0133   -3.9124 C   0  0  0  0  0  0  0  0  0  0  0  0
    0.1651   -1.1670   -4.5772 C   0  0  0  0  0  0  0  0  0  0  0  0
    1.2718   -1.5367   -3.8574 C   0  0  0  0  0  0  0  0  0  0  0  0
    1.2263   -1.6742   -2.3877 C   0  0  1  0  0  0  0  0  0  0  0  0
   -0.1231   -1.5722   -1.7765 C   0  0  0  0  0  0  0  0  0  0  0  0
   -2.1886   -1.0984   -2.0672 H   0  0  0  0  0  0  0  0  0  0  0  0
   -1.9415   -0.7415   -4.4952 H   0  0  0  0  0  0  0  0  0  0  0  0
    0.2209   -1.0269   -5.6497 H   0  0  0  0  0  0  0  0  0  0  0  0
    2.2387   -1.6975   -4.3221 H   0  0  0  0  0  0  0  0  0  0  0  0
    1.5854   -0.6290   -2.1435 H   0  0  0  0  0  0  0  0  0  0  0  0
   -0.2002   -1.7274   -0.7035 H   0  0  0  0  0  0  0  0  0  0  0  0
    1.4958   -1.6352    2.0480 S   0  0  0  0  0  0  0  0  0  0  0  0
    0.1568   -1.6428    1.5015 O   0  0  0  0  0  0  0  0  0  0  0  0
    2.6574   -1.7543    1.1802 O   0  0  0  0  0  0  0  0  0  0  0  0
    1.6217   -0.3161    2.9620 O   0  0  0  0  0  0  0  0  0  0  0  0
    1.6073   -2.9895    3.3639 C   0  0  0  0  0  0  0  0  0  0  0  0
    2.7389   -2.8230    4.0360 F   0  0  0  0  0  0  0  0  0  0  0  0
    0.5703   -2.9009    4.1722 F   0  0  0  0  0  0  0  0  0  0  0  0
    1.6115   -4.1568    2.7375 F   0  0  0  0  0  0  0  0  0  0  0  0
    2.4694   -2.3802   -0.8991 H   0  0  0  0  0  0  0  0  0  0  0  0
  2  1  3  0  0  0  0
  3 26  1  0  0  0  0
  4  3  1  0  0  0  0
  6 12  1  0  0  0  0
  6 11  2  0  0  0  0
  7  6  1  0  0  0  0
  8  7  1  0  0  0  0
  8  9  2  0  0  0  0
  9 10  1  0  0  0  0
 10 16  1  1  0  0  0
 10  3  1  0  0  0  0
 10 11  1  0  0  0  0
 11 17  1  0  0  0  0
 13  7  1  0  0  0  0
 14  8  1  0  0  0  0
 15  9  1  0  0  0  0
 18 21  1  0  0  0  0
 18 22  1  0  0  0  0
 19 18  2  0  0  0  0
 20 18  2  0  0  0  0
 21  5  1  0  0  0  0
 22 23  1  0  0  0  0
 22 24  1  0  0  0  0
 25 22  1  0  0  0  0
M  RAD  1   7   2
M  END
