Coordinates from ORCA-job C6H6+HOTf+NH2--N2+-scan
 OpenBabel10191813343D

 26 24  0  0  1  0  0  0  0  0999 V2000
    0.9815   -6.8753   -2.3392 N   0  0  0  0  0  0  0  0  0  0  0  0
    0.9050   -7.9664   -2.4008 N   0  0  0  0  0  0  0  0  0  0  0  0
    2.3219   -2.3727   -1.8229 N   0  0  0  0  0  0  0  0  0  0  0  0
    2.0785   -3.3547   -1.8992 H   0  0  0  0  0  0  0  0  0  0  0  0
    2.4280    0.0541    3.1804 H   0  0  0  0  0  0  0  0  0  0  0  0
   -1.1932   -1.2581   -2.5186 C   0  0  0  0  0  0  0  0  0  0  0  0
   -1.0469   -1.0444   -3.9024 C   0  0  0  0  0  0  0  0  0  0  0  0
    0.2002   -1.0963   -4.5543 C   0  0  0  0  0  0  0  0  0  0  0  0
    1.3245   -1.3821   -3.8244 C   0  0  0  0  0  0  0  0  0  0  0  0
    1.2736   -1.5305   -2.3554 C   0  0  1  0  0  0  0  0  0  0  0  0
   -0.0861   -1.5392   -1.7585 C   0  0  0  0  0  0  0  0  0  0  0  0
   -2.1792   -1.2294   -2.0706 H   0  0  0  0  0  0  0  0  0  0  0  0
   -1.9344   -0.8398   -4.4938 H   0  0  0  0  0  0  0  0  0  0  0  0
    0.2561   -0.9464   -5.6255 H   0  0  0  0  0  0  0  0  0  0  0  0
    2.3059   -1.4651   -4.2792 H   0  0  0  0  0  0  0  0  0  0  0  0
    1.5519   -0.4648   -2.0985 H   0  0  0  0  0  0  0  0  0  0  0  0
   -0.1628   -1.7070   -0.6873 H   0  0  0  0  0  0  0  0  0  0  0  0
    1.4863   -1.5475    2.0826 S   0  0  0  0  0  0  0  0  0  0  0  0
    0.1563   -1.6339    1.5209 O   0  0  0  0  0  0  0  0  0  0  0  0
    2.6612   -1.5723    1.2246 O   0  0  0  0  0  0  0  0  0  0  0  0
    1.5150   -0.2401    3.0209 O   0  0  0  0  0  0  0  0  0  0  0  0
    1.6762   -2.9161    3.3749 C   0  0  0  0  0  0  0  0  0  0  0  0
    2.7870   -2.6855    4.0627 F   0  0  0  0  0  0  0  0  0  0  0  0
    0.6274   -2.9127    4.1726 F   0  0  0  0  0  0  0  0  0  0  0  0
    1.7661   -4.0680    2.7274 F   0  0  0  0  0  0  0  0  0  0  0  0
    2.5492   -2.1579   -0.8560 H   0  0  0  0  0  0  0  0  0  0  0  0
  2  1  3  0  0  0  0
  3 26  1  0  0  0  0
  4  3  1  0  0  0  0
  6 12  1  0  0  0  0
  6 11  2  0  0  0  0
  7  6  1  0  0  0  0
  8  7  1  0  0  0  0
  8  9  2  0  0  0  0
  9 10  1  0  0  0  0
 10 16  1  1  0  0  0
 10  3  1  0  0  0  0
 10 11  1  0  0  0  0
 11 17  1  0  0  0  0
 13  7  1  0  0  0  0
 14  8  1  0  0  0  0
 15  9  1  0  0  0  0
 18 21  1  0  0  0  0
 18 22  1  0  0  0  0
 19 18  2  0  0  0  0
 20 18  2  0  0  0  0
 21  5  1  0  0  0  0
 22 23  1  0  0  0  0
 22 24  1  0  0  0  0
 25 22  1  0  0  0  0
M  RAD  1   7   2
M  END
