Coordinates from ORCA-job C6H6+HOTf+NH2--N2+-scan
 OpenBabel10191813343D

 26 24  0  0  1  0  0  0  0  0999 V2000
    0.9674   -6.9418   -2.3553 N   0  0  0  0  0  0  0  0  0  0  0  0
    0.8929   -8.0329   -2.4181 N   0  0  0  0  0  0  0  0  0  0  0  0
    2.3254   -2.3623   -1.8211 N   0  0  0  0  0  0  0  0  0  0  0  0
    2.0847   -3.3450   -1.8981 H   0  0  0  0  0  0  0  0  0  0  0  0
    2.4230    0.0608    3.1837 H   0  0  0  0  0  0  0  0  0  0  0  0
   -1.1924   -1.2570   -2.5178 C   0  0  0  0  0  0  0  0  0  0  0  0
   -1.0462   -1.0424   -3.9015 C   0  0  0  0  0  0  0  0  0  0  0  0
    0.2014   -1.0906   -4.5530 C   0  0  0  0  0  0  0  0  0  0  0  0
    1.3261   -1.3737   -3.8227 C   0  0  0  0  0  0  0  0  0  0  0  0
    1.2751   -1.5227   -2.3538 C   0  0  1  0  0  0  0  0  0  0  0  0
   -0.0849   -1.5354   -1.7574 C   0  0  0  0  0  0  0  0  0  0  0  0
   -2.1787   -1.2312   -2.0703 H   0  0  0  0  0  0  0  0  0  0  0  0
   -1.9340   -0.8400   -4.4932 H   0  0  0  0  0  0  0  0  0  0  0  0
    0.2573   -0.9402   -5.6241 H   0  0  0  0  0  0  0  0  0  0  0  0
    2.3079   -1.4537   -4.2772 H   0  0  0  0  0  0  0  0  0  0  0  0
    1.5505   -0.4564   -2.0962 H   0  0  0  0  0  0  0  0  0  0  0  0
   -0.1615   -1.7038   -0.6863 H   0  0  0  0  0  0  0  0  0  0  0  0
    1.4860   -1.5422    2.0843 S   0  0  0  0  0  0  0  0  0  0  0  0
    0.1564   -1.6317    1.5219 O   0  0  0  0  0  0  0  0  0  0  0  0
    2.6613   -1.5635    1.2268 O   0  0  0  0  0  0  0  0  0  0  0  0
    1.5109   -0.2355    3.0235 O   0  0  0  0  0  0  0  0  0  0  0  0
    1.6788   -2.9114    3.3757 C   0  0  0  0  0  0  0  0  0  0  0  0
    2.7886   -2.6784    4.0642 F   0  0  0  0  0  0  0  0  0  0  0  0
    0.6296   -2.9113    4.1729 F   0  0  0  0  0  0  0  0  0  0  0  0
    1.7720   -4.0625    2.7274 F   0  0  0  0  0  0  0  0  0  0  0  0
    2.5517   -2.1474   -0.8541 H   0  0  0  0  0  0  0  0  0  0  0  0
  2  1  3  0  0  0  0
  3 26  1  0  0  0  0
  4  3  1  0  0  0  0
  6 12  1  0  0  0  0
  6 11  2  0  0  0  0
  7  6  1  0  0  0  0
  8  7  1  0  0  0  0
  8  9  2  0  0  0  0
  9 10  1  0  0  0  0
 10 16  1  1  0  0  0
 10  3  1  0  0  0  0
 10 11  1  0  0  0  0
 11 17  1  0  0  0  0
 13  7  1  0  0  0  0
 14  8  1  0  0  0  0
 15  9  1  0  0  0  0
 18 21  1  0  0  0  0
 18 22  1  0  0  0  0
 19 18  2  0  0  0  0
 20 18  2  0  0  0  0
 21  5  1  0  0  0  0
 22 23  1  0  0  0  0
 22 24  1  0  0  0  0
 25 22  1  0  0  0  0
M  RAD  1   7   2
M  END
