Coordinates from ORCA-job C6H6+HOTf+NH2--N2+-scan
 OpenBabel10191813343D

 26 24  0  0  1  0  0  0  0  0999 V2000
    2.6766   -5.5328   -1.1941 N   0  0  0  0  0  0  0  0  0  0  0  0
    3.6364   -6.0605   -1.1888 N   0  0  0  0  0  0  0  0  0  0  0  0
    1.6768   -3.0192   -1.9657 N   0  0  0  0  0  0  0  0  0  0  0  0
    1.0987   -3.8499   -1.9978 H   0  0  0  0  0  0  0  0  0  0  0  0
    3.0840   -0.6384    2.8580 H   0  0  0  0  0  0  0  0  0  0  0  0
   -1.2240   -0.7027   -2.5147 C   0  0  0  0  0  0  0  0  0  0  0  0
   -1.1021   -0.5857   -3.9122 C   0  0  0  0  0  0  0  0  0  0  0  0
   -0.0052   -1.1036   -4.6278 C   0  0  0  0  0  0  0  0  0  0  0  0
    0.9833   -1.7665   -3.9484 C   0  0  0  0  0  0  0  0  0  0  0  0
    0.9788   -1.8581   -2.4743 C   0  0  1  0  0  0  0  0  0  0  0  0
   -0.2468   -1.3537   -1.8047 C   0  0  0  0  0  0  0  0  0  0  0  0
   -2.0995   -0.3053   -2.0154 H   0  0  0  0  0  0  0  0  0  0  0  0
   -1.8911   -0.0824   -4.4630 H   0  0  0  0  0  0  0  0  0  0  0  0
    0.0307   -1.0055   -5.7059 H   0  0  0  0  0  0  0  0  0  0  0  0
    1.8344   -2.2120   -4.4524 H   0  0  0  0  0  0  0  0  0  0  0  0
    1.6458   -0.9664   -2.2759 H   0  0  0  0  0  0  0  0  0  0  0  0
   -0.3059   -1.4580   -0.7244 H   0  0  0  0  0  0  0  0  0  0  0  0
    1.5336   -1.8185    1.9301 S   0  0  0  0  0  0  0  0  0  0  0  0
    0.2299   -1.4240    1.4436 O   0  0  0  0  0  0  0  0  0  0  0  0
    2.5465   -2.3297    1.0193 O   0  0  0  0  0  0  0  0  0  0  0  0
    2.1186   -0.5719    2.7640 O   0  0  0  0  0  0  0  0  0  0  0  0
    1.2938   -3.0880    3.3121 C   0  0  0  0  0  0  0  0  0  0  0  0
    2.4586   -3.2581    3.9245 F   0  0  0  0  0  0  0  0  0  0  0  0
    0.3851   -2.6467    4.1582 F   0  0  0  0  0  0  0  0  0  0  0  0
    0.8985   -4.2208    2.7517 F   0  0  0  0  0  0  0  0  0  0  0  0
    2.0142   -2.8938   -1.0158 H   0  0  0  0  0  0  0  0  0  0  0  0
  1  2  3  0  0  0  0
  3 26  1  0  0  0  0
  4  3  1  0  0  0  0
  6 12  1  0  0  0  0
  6 11  2  0  0  0  0
  7  6  1  0  0  0  0
  8  9  2  0  0  0  0
  8  7  1  0  0  0  0
  9 10  1  0  0  0  0
 10 16  1  1  0  0  0
 10  3  1  0  0  0  0
 10 11  1  0  0  0  0
 11 17  1  0  0  0  0
 13  7  1  0  0  0  0
 14  8  1  0  0  0  0
 15  9  1  0  0  0  0
 18 21  1  0  0  0  0
 18 22  1  0  0  0  0
 19 18  2  0  0  0  0
 20 18  2  0  0  0  0
 21  5  1  0  0  0  0
 22 23  1  0  0  0  0
 22 24  1  0  0  0  0
 25 22  1  0  0  0  0
M  RAD  1   7   2
M  END
