Coordinates from ORCA-job C6H6+HOTf+NH2--N2+-scan
 OpenBabel10191813343D

 26 24  0  0  1  0  0  0  0  0999 V2000
    1.1639   -6.2049   -2.1772 N   0  0  0  0  0  0  0  0  0  0  0  0
    1.0879   -7.2966   -2.2247 N   0  0  0  0  0  0  0  0  0  0  0  0
    2.2708   -2.4963   -1.8413 N   0  0  0  0  0  0  0  0  0  0  0  0
    1.9883   -3.4692   -1.9094 H   0  0  0  0  0  0  0  0  0  0  0  0
    2.4899   -0.0189    3.1393 H   0  0  0  0  0  0  0  0  0  0  0  0
   -1.2032   -1.2520   -2.5245 C   0  0  0  0  0  0  0  0  0  0  0  0
   -1.0559   -1.0486   -3.9097 C   0  0  0  0  0  0  0  0  0  0  0  0
    0.1849   -1.1505   -4.5676 C   0  0  0  0  0  0  0  0  0  0  0  0
    1.3012   -1.4768   -3.8420 C   0  0  0  0  0  0  0  0  0  0  0  0
    1.2523   -1.6182   -2.3725 C   0  0  1  0  0  0  0  0  0  0  0  0
   -0.1037   -1.5728   -1.7690 C   0  0  0  0  0  0  0  0  0  0  0  0
   -2.1851   -1.1839   -2.0718 H   0  0  0  0  0  0  0  0  0  0  0  0
   -1.9379   -0.8117   -4.4974 H   0  0  0  0  0  0  0  0  0  0  0  0
    0.2412   -1.0063   -5.6395 H   0  0  0  0  0  0  0  0  0  0  0  0
    2.2764   -1.5984   -4.3013 H   0  0  0  0  0  0  0  0  0  0  0  0
    1.5707   -0.5620   -2.1220 H   0  0  0  0  0  0  0  0  0  0  0  0
   -0.1810   -1.7338   -0.6969 H   0  0  0  0  0  0  0  0  0  0  0  0
    1.4912   -1.6006    2.0636 S   0  0  0  0  0  0  0  0  0  0  0  0
    0.1559   -1.6500    1.5101 O   0  0  0  0  0  0  0  0  0  0  0  0
    2.6600   -1.6720    1.2002 O   0  0  0  0  0  0  0  0  0  0  0  0
    1.5670   -0.2855    2.9886 O   0  0  0  0  0  0  0  0  0  0  0  0
    1.6439   -2.9613    3.3690 C   0  0  0  0  0  0  0  0  0  0  0  0
    2.7657   -2.7605    4.0481 F   0  0  0  0  0  0  0  0  0  0  0  0
    0.6006   -2.9157    4.1726 F   0  0  0  0  0  0  0  0  0  0  0  0
    1.6922   -4.1223    2.7330 F   0  0  0  0  0  0  0  0  0  0  0  0
    2.5121   -2.2831   -0.8776 H   0  0  0  0  0  0  0  0  0  0  0  0
  2  1  3  0  0  0  0
  3 26  1  0  0  0  0
  4  3  1  0  0  0  0
  6 12  1  0  0  0  0
  6 11  2  0  0  0  0
  7  6  1  0  0  0  0
  8  7  1  0  0  0  0
  8  9  2  0  0  0  0
  9 10  1  0  0  0  0
 10 16  1  1  0  0  0
 10  3  1  0  0  0  0
 10 11  1  0  0  0  0
 11 17  1  0  0  0  0
 13  7  1  0  0  0  0
 14  8  1  0  0  0  0
 15  9  1  0  0  0  0
 18 21  1  0  0  0  0
 18 22  1  0  0  0  0
 19 18  2  0  0  0  0
 20 18  2  0  0  0  0
 21  5  1  0  0  0  0
 22 23  1  0  0  0  0
 22 24  1  0  0  0  0
 25 22  1  0  0  0  0
M  RAD  1   7   2
M  END
