Coordinates from ORCA-job C6H6+HOTf+NH2--N2+-scan
 OpenBabel10191813343D

 26 24  0  0  1  0  0  0  0  0999 V2000
    0.7647   -7.7934   -2.6028 N   0  0  0  0  0  0  0  0  0  0  0  0
    0.7114   -8.8845   -2.6855 N   0  0  0  0  0  0  0  0  0  0  0  0
    2.3727   -2.2292   -1.7940 N   0  0  0  0  0  0  0  0  0  0  0  0
    2.1693   -3.2195   -1.8763 H   0  0  0  0  0  0  0  0  0  0  0  0
    2.3510    0.1586    3.2274 H   0  0  0  0  0  0  0  0  0  0  0  0
   -1.1795   -1.2523   -2.5068 C   0  0  0  0  0  0  0  0  0  0  0  0
   -1.0334   -1.0264   -3.8888 C   0  0  0  0  0  0  0  0  0  0  0  0
    0.2189   -1.0249   -4.5329 C   0  0  0  0  0  0  0  0  0  0  0  0
    1.3492   -1.2687   -3.7971 C   0  0  0  0  0  0  0  0  0  0  0  0
    1.2952   -1.4261   -2.3291 C   0  0  1  0  0  0  0  0  0  0  0  0
   -0.0669   -1.4921   -1.7408 C   0  0  0  0  0  0  0  0  0  0  0  0
   -2.1687   -1.2654   -2.0651 H   0  0  0  0  0  0  0  0  0  0  0  0
   -1.9247   -0.8551   -4.4849 H   0  0  0  0  0  0  0  0  0  0  0  0
    0.2754   -0.8678   -5.6030 H   0  0  0  0  0  0  0  0  0  0  0  0
    2.3359   -1.3100   -4.2461 H   0  0  0  0  0  0  0  0  0  0  0  0
    1.5299   -0.3519   -2.0649 H   0  0  0  0  0  0  0  0  0  0  0  0
   -0.1435   -1.6679   -0.6709 H   0  0  0  0  0  0  0  0  0  0  0  0
    1.4812   -1.4697    2.1099 S   0  0  0  0  0  0  0  0  0  0  0  0
    0.1595   -1.6045    1.5383 O   0  0  0  0  0  0  0  0  0  0  0  0
    2.6616   -1.4405    1.2595 O   0  0  0  0  0  0  0  0  0  0  0  0
    1.4515   -0.1701    3.0587 O   0  0  0  0  0  0  0  0  0  0  0  0
    1.7174   -2.8406    3.3923 C   0  0  0  0  0  0  0  0  0  0  0  0
    2.8134   -2.5713    4.0896 F   0  0  0  0  0  0  0  0  0  0  0  0
    0.6640   -2.8859    4.1826 F   0  0  0  0  0  0  0  0  0  0  0  0
    1.8578   -3.9823    2.7359 F   0  0  0  0  0  0  0  0  0  0  0  0
    2.5863   -2.0105   -0.8249 H   0  0  0  0  0  0  0  0  0  0  0  0
  2  1  3  0  0  0  0
  3 26  1  0  0  0  0
  4  3  1  0  0  0  0
  6 12  1  0  0  0  0
  6 11  2  0  0  0  0
  7  6  1  0  0  0  0
  8  7  1  0  0  0  0
  8  9  2  0  0  0  0
  9 10  1  0  0  0  0
 10 16  1  1  0  0  0
 10  3  1  0  0  0  0
 10 11  1  0  0  0  0
 11 17  1  0  0  0  0
 13  7  1  0  0  0  0
 14  8  1  0  0  0  0
 15  9  1  0  0  0  0
 18 21  1  0  0  0  0
 18 22  1  0  0  0  0
 19 18  2  0  0  0  0
 20 18  2  0  0  0  0
 21  5  1  0  0  0  0
 22 23  1  0  0  0  0
 22 24  1  0  0  0  0
 25 22  1  0  0  0  0
M  RAD  1   7   2
M  END
