Coordinates from ORCA-job C6H6+HOTf+NH2--N2+-scan
 OpenBabel10191813343D

 26 24  0  0  1  0  0  0  0  0999 V2000
    0.6881   -8.1489   -2.7075 N   0  0  0  0  0  0  0  0  0  0  0  0
    0.6431   -9.2399   -2.7966 N   0  0  0  0  0  0  0  0  0  0  0  0
    2.3898   -2.1763   -1.7829 N   0  0  0  0  0  0  0  0  0  0  0  0
    2.2004   -3.1691   -1.8670 H   0  0  0  0  0  0  0  0  0  0  0  0
    2.3242    0.1975    3.2447 H   0  0  0  0  0  0  0  0  0  0  0  0
   -1.1740   -1.2472   -2.5017 C   0  0  0  0  0  0  0  0  0  0  0  0
   -1.0281   -1.0173   -3.8830 C   0  0  0  0  0  0  0  0  0  0  0  0
    0.2254   -0.9975   -4.5245 C   0  0  0  0  0  0  0  0  0  0  0  0
    1.3574   -1.2268   -3.7867 C   0  0  0  0  0  0  0  0  0  0  0  0
    1.3025   -1.3871   -2.3190 C   0  0  1  0  0  0  0  0  0  0  0  0
   -0.0597   -1.4728   -1.7337 C   0  0  0  0  0  0  0  0  0  0  0  0
   -2.1638   -1.2747   -2.0621 H   0  0  0  0  0  0  0  0  0  0  0  0
   -1.9205   -0.8575   -4.4808 H   0  0  0  0  0  0  0  0  0  0  0  0
    0.2820   -0.8381   -5.5943 H   0  0  0  0  0  0  0  0  0  0  0  0
    2.3455   -1.2538   -4.2337 H   0  0  0  0  0  0  0  0  0  0  0  0
    1.5219   -0.3102   -2.0527 H   0  0  0  0  0  0  0  0  0  0  0  0
   -0.1362   -1.6512   -0.6642 H   0  0  0  0  0  0  0  0  0  0  0  0
    1.4797   -1.4395    2.1205 S   0  0  0  0  0  0  0  0  0  0  0  0
    0.1612   -1.5909    1.5453 O   0  0  0  0  0  0  0  0  0  0  0  0
    2.6615   -1.3916    1.2730 O   0  0  0  0  0  0  0  0  0  0  0  0
    1.4298   -0.1431    3.0729 O   0  0  0  0  0  0  0  0  0  0  0  0
    1.7317   -2.8107    3.3995 C   0  0  0  0  0  0  0  0  0  0  0  0
    2.8222   -2.5283    4.1002 F   0  0  0  0  0  0  0  0  0  0  0  0
    0.6772   -2.8728    4.1872 F   0  0  0  0  0  0  0  0  0  0  0  0
    1.8893   -3.9485    2.7403 F   0  0  0  0  0  0  0  0  0  0  0  0
    2.5987   -1.9560   -0.8131 H   0  0  0  0  0  0  0  0  0  0  0  0
  2  1  3  0  0  0  0
  3 26  1  0  0  0  0
  4  3  1  0  0  0  0
  6 12  1  0  0  0  0
  6 11  2  0  0  0  0
  7  6  1  0  0  0  0
  8  7  1  0  0  0  0
  8  9  2  0  0  0  0
  9 10  1  0  0  0  0
 10 16  1  1  0  0  0
 10  3  1  0  0  0  0
 10 11  1  0  0  0  0
 11 17  1  0  0  0  0
 13  7  1  0  0  0  0
 14  8  1  0  0  0  0
 15  9  1  0  0  0  0
 18 21  1  0  0  0  0
 18 22  1  0  0  0  0
 19 18  2  0  0  0  0
 20 18  2  0  0  0  0
 21  5  1  0  0  0  0
 22 23  1  0  0  0  0
 22 24  1  0  0  0  0
 25 22  1  0  0  0  0
M  RAD  1   7   2
M  END
