Coordinates from ORCA-job C6H6+HOTf+NH2--N2+-scan
 OpenBabel10191813343D

 26 24  0  0  1  0  0  0  0  0999 V2000
    0.6112   -8.5601   -2.8205 N   0  0  0  0  0  0  0  0  0  0  0  0
    0.5747   -9.6510   -2.9154 N   0  0  0  0  0  0  0  0  0  0  0  0
    2.4067   -2.1179   -1.7713 N   0  0  0  0  0  0  0  0  0  0  0  0
    2.2312   -3.1130   -1.8575 H   0  0  0  0  0  0  0  0  0  0  0  0
    2.2978    0.2384    3.2635 H   0  0  0  0  0  0  0  0  0  0  0  0
   -1.1681   -1.2364   -2.4957 C   0  0  0  0  0  0  0  0  0  0  0  0
   -1.0225   -1.0020   -3.8763 C   0  0  0  0  0  0  0  0  0  0  0  0
    0.2319   -0.9638   -4.5153 C   0  0  0  0  0  0  0  0  0  0  0  0
    1.3654   -1.1790   -3.7756 C   0  0  0  0  0  0  0  0  0  0  0  0
    1.3097   -1.3427   -2.3083 C   0  0  1  0  0  0  0  0  0  0  0  0
   -0.0524   -1.4481   -1.7259 C   0  0  0  0  0  0  0  0  0  0  0  0
   -2.1583   -1.2782   -2.0582 H   0  0  0  0  0  0  0  0  0  0  0  0
   -1.9159   -0.8533   -4.4757 H   0  0  0  0  0  0  0  0  0  0  0  0
    0.2884   -0.8016   -5.5846 H   0  0  0  0  0  0  0  0  0  0  0  0
    2.3547   -1.1916   -4.2206 H   0  0  0  0  0  0  0  0  0  0  0  0
    1.5139   -0.2634   -2.0395 H   0  0  0  0  0  0  0  0  0  0  0  0
   -0.1285   -1.6295   -0.6569 H   0  0  0  0  0  0  0  0  0  0  0  0
    1.4783   -1.4061    2.1319 S   0  0  0  0  0  0  0  0  0  0  0  0
    0.1634   -1.5734    1.5530 O   0  0  0  0  0  0  0  0  0  0  0  0
    2.6613   -1.3394    1.2873 O   0  0  0  0  0  0  0  0  0  0  0  0
    1.4086   -0.1137    3.0884 O   0  0  0  0  0  0  0  0  0  0  0  0
    1.7458   -2.7781    3.4070 C   0  0  0  0  0  0  0  0  0  0  0  0
    2.8308   -2.4834    4.1111 F   0  0  0  0  0  0  0  0  0  0  0  0
    0.6904   -2.8570    4.1919 F   0  0  0  0  0  0  0  0  0  0  0  0
    1.9203   -3.9114    2.7442 F   0  0  0  0  0  0  0  0  0  0  0  0
    2.6108   -1.8964   -0.8008 H   0  0  0  0  0  0  0  0  0  0  0  0
  2  1  3  0  0  0  0
  3 26  1  0  0  0  0
  4  3  1  0  0  0  0
  6 12  1  0  0  0  0
  6 11  2  0  0  0  0
  7  6  1  0  0  0  0
  8  7  1  0  0  0  0
  8  9  2  0  0  0  0
  9 10  1  0  0  0  0
 10 16  1  1  0  0  0
 10  3  1  0  0  0  0
 10 11  1  0  0  0  0
 11 17  1  0  0  0  0
 13  7  1  0  0  0  0
 14  8  1  0  0  0  0
 15  9  1  0  0  0  0
 18 21  1  0  0  0  0
 18 22  1  0  0  0  0
 19 18  2  0  0  0  0
 20 18  2  0  0  0  0
 21  5  1  0  0  0  0
 22 23  1  0  0  0  0
 22 24  1  0  0  0  0
 25 22  1  0  0  0  0
M  RAD  1   7   2
M  END
