Coordinates from ORCA-job C6H6+HOTf+NH2--N2+-scan
 OpenBabel10191813343D

 26 24  0  0  1  0  0  0  0  0999 V2000
    0.6898   -8.1406   -2.7051 N   0  0  0  0  0  0  0  0  0  0  0  0
    0.6446   -9.2316   -2.7941 N   0  0  0  0  0  0  0  0  0  0  0  0
    2.3895   -2.1775   -1.7831 N   0  0  0  0  0  0  0  0  0  0  0  0
    2.1997   -3.1702   -1.8672 H   0  0  0  0  0  0  0  0  0  0  0  0
    2.3248    0.1966    3.2443 H   0  0  0  0  0  0  0  0  0  0  0  0
   -1.1741   -1.2474   -2.5018 C   0  0  0  0  0  0  0  0  0  0  0  0
   -1.0282   -1.0175   -3.8831 C   0  0  0  0  0  0  0  0  0  0  0  0
    0.2253   -0.9981   -4.5247 C   0  0  0  0  0  0  0  0  0  0  0  0
    1.3573   -1.2278   -3.7869 C   0  0  0  0  0  0  0  0  0  0  0  0
    1.3023   -1.3880   -2.3192 C   0  0  1  0  0  0  0  0  0  0  0  0
   -0.0599   -1.4733   -1.7339 C   0  0  0  0  0  0  0  0  0  0  0  0
   -2.1640   -1.2745   -2.0621 H   0  0  0  0  0  0  0  0  0  0  0  0
   -1.9206   -0.8574   -4.4809 H   0  0  0  0  0  0  0  0  0  0  0  0
    0.2818   -0.8388   -5.5945 H   0  0  0  0  0  0  0  0  0  0  0  0
    2.3453   -1.2551   -4.2340 H   0  0  0  0  0  0  0  0  0  0  0  0
    1.5221   -0.3112   -2.0529 H   0  0  0  0  0  0  0  0  0  0  0  0
   -0.1363   -1.6516   -0.6644 H   0  0  0  0  0  0  0  0  0  0  0  0
    1.4797   -1.4402    2.1203 S   0  0  0  0  0  0  0  0  0  0  0  0
    0.1612   -1.5912    1.5451 O   0  0  0  0  0  0  0  0  0  0  0  0
    2.6615   -1.3927    1.2727 O   0  0  0  0  0  0  0  0  0  0  0  0
    1.4303   -0.1437    3.0725 O   0  0  0  0  0  0  0  0  0  0  0  0
    1.7314   -2.8114    3.3994 C   0  0  0  0  0  0  0  0  0  0  0  0
    2.8221   -2.5293    4.1000 F   0  0  0  0  0  0  0  0  0  0  0  0
    0.6769   -2.8731    4.1871 F   0  0  0  0  0  0  0  0  0  0  0  0
    1.8886   -3.9493    2.7402 F   0  0  0  0  0  0  0  0  0  0  0  0
    2.5984   -1.9572   -0.8133 H   0  0  0  0  0  0  0  0  0  0  0  0
  2  1  3  0  0  0  0
  3 26  1  0  0  0  0
  4  3  1  0  0  0  0
  6 12  1  0  0  0  0
  6 11  2  0  0  0  0
  7  6  1  0  0  0  0
  8  7  1  0  0  0  0
  8  9  2  0  0  0  0
  9 10  1  0  0  0  0
 10 16  1  1  0  0  0
 10  3  1  0  0  0  0
 10 11  1  0  0  0  0
 11 17  1  0  0  0  0
 13  7  1  0  0  0  0
 14  8  1  0  0  0  0
 15  9  1  0  0  0  0
 18 21  1  0  0  0  0
 18 22  1  0  0  0  0
 19 18  2  0  0  0  0
 20 18  2  0  0  0  0
 21  5  1  0  0  0  0
 22 23  1  0  0  0  0
 22 24  1  0  0  0  0
 25 22  1  0  0  0  0
M  RAD  1   7   2
M  END
