Coordinates from ORCA-job C6H6+HOTf+NH2--N2+-scan
 OpenBabel10191813343D

 26 24  0  0  0  0  0  0  0  0999 V2000
    2.3018   -4.7199   -1.6136 N   0  0  0  0  0  0  0  0  0  0  0  0
    3.1118   -5.4307   -1.8571 N   0  0  0  0  0  0  0  0  0  0  0  0
    1.7360   -3.1919   -1.8806 N   0  0  0  0  0  0  0  0  0  0  0  0
    0.7599   -3.4417   -2.0790 H   0  0  0  0  0  0  0  0  0  0  0  0
    3.5671   -1.5728    2.7179 H   0  0  0  0  0  0  0  0  0  0  0  0
   -1.1226   -1.1409   -2.4472 C   0  0  0  0  0  0  0  0  0  0  0  0
   -1.1534   -1.4324   -3.8141 C   0  0  0  0  0  0  0  0  0  0  0  0
    0.0328   -1.5211   -4.5592 C   0  0  0  0  0  0  0  0  0  0  0  0
    1.2522   -1.3190   -3.9389 C   0  0  0  0  0  0  0  0  0  0  0  0
    1.3014   -1.0442   -2.5485 C   0  0  0  0  0  0  0  0  0  0  0  0
    0.0962   -0.9283   -1.8129 C   0  0  0  0  0  0  0  0  0  0  0  0
   -2.0474   -1.0535   -1.8897 H   0  0  0  0  0  0  0  0  0  0  0  0
   -2.1069   -1.5813   -4.3085 H   0  0  0  0  0  0  0  0  0  0  0  0
   -0.0117   -1.7307   -5.6212 H   0  0  0  0  0  0  0  0  0  0  0  0
    2.1749   -1.3689   -4.5048 H   0  0  0  0  0  0  0  0  0  0  0  0
    2.2370   -0.7256   -2.1038 H   0  0  0  0  0  0  0  0  0  0  0  0
    0.1271   -0.6550   -0.7638 H   0  0  0  0  0  0  0  0  0  0  0  0
    1.5472   -1.8307    1.9896 S   0  0  0  0  0  0  0  0  0  0  0  0
    0.5326   -0.8626    1.6652 O   0  0  0  0  0  0  0  0  0  0  0  0
    2.0996   -2.7139    0.9597 O   0  0  0  0  0  0  0  0  0  0  0  0
    2.7463   -1.0516    2.7214 O   0  0  0  0  0  0  0  0  0  0  0  0
    0.9265   -2.9450    3.3894 C   0  0  0  0  0  0  0  0  0  0  0  0
    1.9595   -3.6416    3.8486 F   0  0  0  0  0  0  0  0  0  0  0  0
    0.4072   -2.1999    4.3403 F   0  0  0  0  0  0  0  0  0  0  0  0
    0.0153   -3.7580    2.8777 F   0  0  0  0  0  0  0  0  0  0  0  0
    1.7591   -2.8909   -0.8865 H   0  0  0  0  0  0  0  0  0  0  0  0
  2  1  2  0  0  0  0
  3  1  1  0  0  0  0
  3 26  1  0  0  0  0
  4  3  1  0  0  0  0
  5 21  1  0  0  0  0
  6 12  1  0  0  0  0
  6 11  1  0  0  0  0
  7  6  2  0  0  0  0
  8  9  2  0  0  0  0
  8  7  1  0  0  0  0
  9 10  1  0  0  0  0
 10 16  1  0  0  0  0
 10 11  2  0  0  0  0
 11 17  1  0  0  0  0
 13  7  1  0  0  0  0
 14  8  1  0  0  0  0
 15  9  1  0  0  0  0
 18 21  1  0  0  0  0
 18 22  1  0  0  0  0
 19 18  2  0  0  0  0
 20 18  2  0  0  0  0
 22 23  1  0  0  0  0
 22 24  1  0  0  0  0
 25 22  1  0  0  0  0
M  RAD  1   2   2
M  END
