Coordinates from ORCA-job C6H6+HOTf+NH2--N2+-scan
 OpenBabel10191813343D

 26 24  0  0  1  0  0  0  0  0999 V2000
    1.0243   -6.6574   -2.2912 N   0  0  0  0  0  0  0  0  0  0  0  0
    0.9399   -7.7480   -2.3498 N   0  0  0  0  0  0  0  0  0  0  0  0
    2.3112   -2.4062   -1.8278 N   0  0  0  0  0  0  0  0  0  0  0  0
    2.0589   -3.3864   -1.9020 H   0  0  0  0  0  0  0  0  0  0  0  0
    2.4425    0.0334    3.1697 H   0  0  0  0  0  0  0  0  0  0  0  0
   -1.1953   -1.2632   -2.5209 C   0  0  0  0  0  0  0  0  0  0  0  0
   -1.0490   -1.0523   -3.9051 C   0  0  0  0  0  0  0  0  0  0  0  0
    0.1969   -1.1156   -4.5585 C   0  0  0  0  0  0  0  0  0  0  0  0
    1.3196   -1.4101   -3.8295 C   0  0  0  0  0  0  0  0  0  0  0  0
    1.2693   -1.5562   -2.3603 C   0  0  1  0  0  0  0  0  0  0  0  0
   -0.0897   -1.5528   -1.7618 C   0  0  0  0  0  0  0  0  0  0  0  0
   -2.1806   -1.2256   -2.0718 H   0  0  0  0  0  0  0  0  0  0  0  0
   -1.9354   -0.8408   -4.4957 H   0  0  0  0  0  0  0  0  0  0  0  0
    0.2528   -0.9675   -5.6299 H   0  0  0  0  0  0  0  0  0  0  0  0
    2.2997   -1.5019   -4.2854 H   0  0  0  0  0  0  0  0  0  0  0  0
    1.5565   -0.4924   -2.1053 H   0  0  0  0  0  0  0  0  0  0  0  0
   -0.1665   -1.7186   -0.6904 H   0  0  0  0  0  0  0  0  0  0  0  0
    1.4875   -1.5639    2.0774 S   0  0  0  0  0  0  0  0  0  0  0  0
    0.1561   -1.6418    1.5177 O   0  0  0  0  0  0  0  0  0  0  0  0
    2.6611   -1.5997    1.2181 O   0  0  0  0  0  0  0  0  0  0  0  0
    1.5272   -0.2544    3.0124 O   0  0  0  0  0  0  0  0  0  0  0  0
    1.6688   -2.9306    3.3729 C   0  0  0  0  0  0  0  0  0  0  0  0
    2.7822   -2.7068    4.0586 F   0  0  0  0  0  0  0  0  0  0  0  0
    0.6212   -2.9172    4.1721 F   0  0  0  0  0  0  0  0  0  0  0  0
    1.7489   -4.0848    2.7283 F   0  0  0  0  0  0  0  0  0  0  0  0
    2.5415   -2.1914   -0.8617 H   0  0  0  0  0  0  0  0  0  0  0  0
  2  1  3  0  0  0  0
  3 26  1  0  0  0  0
  4  3  1  0  0  0  0
  6 12  1  0  0  0  0
  6 11  2  0  0  0  0
  7  6  1  0  0  0  0
  8  7  1  0  0  0  0
  8  9  2  0  0  0  0
  9 10  1  0  0  0  0
 10 16  1  1  0  0  0
 10  3  1  0  0  0  0
 10 11  1  0  0  0  0
 11 17  1  0  0  0  0
 13  7  1  0  0  0  0
 14  8  1  0  0  0  0
 15  9  1  0  0  0  0
 18 21  1  0  0  0  0
 18 22  1  0  0  0  0
 19 18  2  0  0  0  0
 20 18  2  0  0  0  0
 21  5  1  0  0  0  0
 22 23  1  0  0  0  0
 22 24  1  0  0  0  0
 25 22  1  0  0  0  0
M  RAD  1   7   2
M  END
