Coordinates from ORCA-job C6H6+HOTf+NH2--N2+-scan
 OpenBabel10191813343D

 26 24  0  0  1  0  0  0  0  0999 V2000
    0.6156   -8.5347   -2.8139 N   0  0  0  0  0  0  0  0  0  0  0  0
    0.5786   -9.6256   -2.9085 N   0  0  0  0  0  0  0  0  0  0  0  0
    2.4058   -2.1214   -1.7720 N   0  0  0  0  0  0  0  0  0  0  0  0
    2.2294   -3.1164   -1.8580 H   0  0  0  0  0  0  0  0  0  0  0  0
    2.2993    0.2360    3.2624 H   0  0  0  0  0  0  0  0  0  0  0  0
   -1.1684   -1.2373   -2.4961 C   0  0  0  0  0  0  0  0  0  0  0  0
   -1.0229   -1.0031   -3.8767 C   0  0  0  0  0  0  0  0  0  0  0  0
    0.2315   -0.9660   -4.5158 C   0  0  0  0  0  0  0  0  0  0  0  0
    1.3650   -1.1819   -3.7762 C   0  0  0  0  0  0  0  0  0  0  0  0
    1.3093   -1.3454   -2.3089 C   0  0  1  0  0  0  0  0  0  0  0  0
   -0.0528   -1.4497   -1.7264 C   0  0  0  0  0  0  0  0  0  0  0  0
   -2.1587   -1.2782   -2.0584 H   0  0  0  0  0  0  0  0  0  0  0  0
   -1.9161   -0.8538   -4.4760 H   0  0  0  0  0  0  0  0  0  0  0  0
    0.2880   -0.8040   -5.5852 H   0  0  0  0  0  0  0  0  0  0  0  0
    2.3542   -1.1953   -4.2214 H   0  0  0  0  0  0  0  0  0  0  0  0
    1.5143   -0.2663   -2.0403 H   0  0  0  0  0  0  0  0  0  0  0  0
   -0.1290   -1.6310   -0.6573 H   0  0  0  0  0  0  0  0  0  0  0  0
    1.4783   -1.4081    2.1312 S   0  0  0  0  0  0  0  0  0  0  0  0
    0.1632   -1.5745    1.5525 O   0  0  0  0  0  0  0  0  0  0  0  0
    2.6613   -1.3425    1.2865 O   0  0  0  0  0  0  0  0  0  0  0  0
    1.4097   -0.1155    3.0874 O   0  0  0  0  0  0  0  0  0  0  0  0
    1.7450   -2.7800    3.4065 C   0  0  0  0  0  0  0  0  0  0  0  0
    2.8303   -2.4860    4.1105 F   0  0  0  0  0  0  0  0  0  0  0  0
    0.6896   -2.8580    4.1916 F   0  0  0  0  0  0  0  0  0  0  0  0
    1.9186   -3.9136    2.7440 F   0  0  0  0  0  0  0  0  0  0  0  0
    2.6101   -1.9000   -0.8015 H   0  0  0  0  0  0  0  0  0  0  0  0
  2  1  3  0  0  0  0
  3 26  1  0  0  0  0
  4  3  1  0  0  0  0
  6 12  1  0  0  0  0
  6 11  2  0  0  0  0
  7  6  1  0  0  0  0
  8  7  1  0  0  0  0
  8  9  2  0  0  0  0
  9 10  1  0  0  0  0
 10 16  1  1  0  0  0
 10  3  1  0  0  0  0
 10 11  1  0  0  0  0
 11 17  1  0  0  0  0
 13  7  1  0  0  0  0
 14  8  1  0  0  0  0
 15  9  1  0  0  0  0
 18 21  1  0  0  0  0
 18 22  1  0  0  0  0
 19 18  2  0  0  0  0
 20 18  2  0  0  0  0
 21  5  1  0  0  0  0
 22 23  1  0  0  0  0
 22 24  1  0  0  0  0
 25 22  1  0  0  0  0
M  RAD  1   7   2
M  END
