Coordinates from ORCA-job C6H6+HOTf+NH2--N2+-scan
 OpenBabel10191813343D

 26 24  0  0  1  0  0  0  0  0999 V2000
    2.4858   -5.6723   -1.2135 N   0  0  0  0  0  0  0  0  0  0  0  0
    3.3419   -6.3460   -1.1000 N   0  0  0  0  0  0  0  0  0  0  0  0
    1.7581   -2.9453   -1.9745 N   0  0  0  0  0  0  0  0  0  0  0  0
    1.2187   -3.8014   -2.0144 H   0  0  0  0  0  0  0  0  0  0  0  0
    3.0016   -0.5346    2.8843 H   0  0  0  0  0  0  0  0  0  0  0  0
   -1.2436   -0.7616   -2.5194 C   0  0  0  0  0  0  0  0  0  0  0  0
   -1.1161   -0.6210   -3.9143 C   0  0  0  0  0  0  0  0  0  0  0  0
    0.0098   -1.0770   -4.6267 C   0  0  0  0  0  0  0  0  0  0  0  0
    1.0231   -1.7011   -3.9469 C   0  0  0  0  0  0  0  0  0  0  0  0
    1.0111   -1.8121   -2.4741 C   0  0  1  0  0  0  0  0  0  0  0  0
   -0.2424   -1.3746   -1.8090 C   0  0  0  0  0  0  0  0  0  0  0  0
   -2.1410   -0.4125   -2.0228 H   0  0  0  0  0  0  0  0  0  0  0  0
   -1.9238   -0.1486   -4.4655 H   0  0  0  0  0  0  0  0  0  0  0  0
    0.0498   -0.9635   -5.7031 H   0  0  0  0  0  0  0  0  0  0  0  0
    1.8983   -2.0996   -4.4488 H   0  0  0  0  0  0  0  0  0  0  0  0
    1.6332   -0.8922   -2.2592 H   0  0  0  0  0  0  0  0  0  0  0  0
   -0.3057   -1.4947   -0.7306 H   0  0  0  0  0  0  0  0  0  0  0  0
    1.5290   -1.7924    1.9321 S   0  0  0  0  0  0  0  0  0  0  0  0
    0.2054   -1.4707    1.4460 O   0  0  0  0  0  0  0  0  0  0  0  0
    2.5747   -2.2267    1.0184 O   0  0  0  0  0  0  0  0  0  0  0  0
    2.0341   -0.5259    2.7879 O   0  0  0  0  0  0  0  0  0  0  0  0
    1.3621   -3.0955    3.2933 C   0  0  0  0  0  0  0  0  0  0  0  0
    2.5325   -3.2034    3.9091 F   0  0  0  0  0  0  0  0  0  0  0  0
    0.4243   -2.7247    4.1414 F   0  0  0  0  0  0  0  0  0  0  0  0
    1.0398   -4.2418    2.7133 F   0  0  0  0  0  0  0  0  0  0  0  0
    2.0889   -2.8128   -1.0230 H   0  0  0  0  0  0  0  0  0  0  0  0
  1  2  3  0  0  0  0
  3 26  1  0  0  0  0
  4  3  1  0  0  0  0
  6 12  1  0  0  0  0
  6 11  2  0  0  0  0
  7  6  1  0  0  0  0
  8  9  2  0  0  0  0
  8  7  1  0  0  0  0
  9 10  1  0  0  0  0
 10 16  1  1  0  0  0
 10  3  1  0  0  0  0
 10 11  1  0  0  0  0
 11 17  1  0  0  0  0
 13  7  1  0  0  0  0
 14  8  1  0  0  0  0
 15  9  1  0  0  0  0
 18 21  1  0  0  0  0
 18 22  1  0  0  0  0
 19 18  2  0  0  0  0
 20 18  2  0  0  0  0
 21  5  1  0  0  0  0
 22 23  1  0  0  0  0
 22 24  1  0  0  0  0
 25 22  1  0  0  0  0
M  RAD  1   7   2
M  END
