Coordinates from ORCA-job C6H6+HOTf+NH2--N2+-scan
 OpenBabel10191813343D

 26 24  0  0  1  0  0  0  0  0999 V2000
    2.6653   -5.0462   -1.5151 N   0  0  0  0  0  0  0  0  0  0  0  0
    3.5626   -5.3857   -2.0481 N   0  0  0  0  0  0  0  0  0  0  0  0
    1.5617   -3.1837   -1.8584 N   0  0  0  0  0  0  0  0  0  0  0  0
    0.8062   -3.8599   -1.8036 H   0  0  0  0  0  0  0  0  0  0  0  0
    3.1235   -0.6979    2.8852 H   0  0  0  0  0  0  0  0  0  0  0  0
   -1.1505   -0.7115   -2.5156 C   0  0  0  0  0  0  0  0  0  0  0  0
   -1.0263   -0.6778   -3.9167 C   0  0  0  0  0  0  0  0  0  0  0  0
    0.0658   -1.2522   -4.6021 C   0  0  0  0  0  0  0  0  0  0  0  0
    1.0354   -1.8979   -3.8861 C   0  0  0  0  0  0  0  0  0  0  0  0
    1.0267   -1.9134   -2.4074 C   0  0  1  0  0  0  0  0  0  0  0  0
   -0.1698   -1.3154   -1.7694 C   0  0  0  0  0  0  0  0  0  0  0  0
   -2.0194   -0.2722   -2.0407 H   0  0  0  0  0  0  0  0  0  0  0  0
   -1.8094   -0.1993   -4.4974 H   0  0  0  0  0  0  0  0  0  0  0  0
    0.1022   -1.2144   -5.6839 H   0  0  0  0  0  0  0  0  0  0  0  0
    1.8663   -2.4016   -4.3686 H   0  0  0  0  0  0  0  0  0  0  0  0
    1.8096   -1.1420   -2.1876 H   0  0  0  0  0  0  0  0  0  0  0  0
   -0.2243   -1.3373   -0.6839 H   0  0  0  0  0  0  0  0  0  0  0  0
    1.5040   -1.8013    1.9805 S   0  0  0  0  0  0  0  0  0  0  0  0
    0.2118   -1.3478    1.5162 O   0  0  0  0  0  0  0  0  0  0  0  0
    2.4763   -2.3537    1.0484 O   0  0  0  0  0  0  0  0  0  0  0  0
    2.1607   -0.5866    2.8068 O   0  0  0  0  0  0  0  0  0  0  0  0
    1.2326   -3.0668    3.3611 C   0  0  0  0  0  0  0  0  0  0  0  0
    2.3999   -3.2935    3.9494 F   0  0  0  0  0  0  0  0  0  0  0  0
    0.3618   -2.5886    4.2264 F   0  0  0  0  0  0  0  0  0  0  0  0
    0.7748   -4.1762    2.8021 F   0  0  0  0  0  0  0  0  0  0  0  0
    1.9020   -3.0292   -0.9112 H   0  0  0  0  0  0  0  0  0  0  0  0
  2  1  3  0  0  0  0
  3  4  1  0  0  0  0
  3 26  1  0  0  0  0
  6 12  1  0  0  0  0
  6 11  2  0  0  0  0
  7  6  1  0  0  0  0
  8  7  1  0  0  0  0
  8  9  2  0  0  0  0
  9 10  1  0  0  0  0
 10 16  1  1  0  0  0
 10  3  1  0  0  0  0
 10 11  1  0  0  0  0
 11 17  1  0  0  0  0
 13  7  1  0  0  0  0
 14  8  1  0  0  0  0
 15  9  1  0  0  0  0
 18 21  1  0  0  0  0
 18 22  1  0  0  0  0
 19 18  2  0  0  0  0
 20 18  2  0  0  0  0
 21  5  1  0  0  0  0
 22 23  1  0  0  0  0
 22 24  1  0  0  0  0
 25 22  1  0  0  0  0
M  RAD  1   7   2
M  END
