Coordinates from ORCA-job C6H6+HOTf+NH2--N2+-scan
 OpenBabel10191813343D

 26 24  0  0  0  0  0  0  0  0999 V2000
    1.1373   -5.1942   -1.7066 N   0  0  0  0  0  0  0  0  0  0  0  0
    1.0728   -6.1068   -2.3831 N   0  0  0  0  0  0  0  0  0  0  0  0
    1.1550   -4.2650   -1.1177 N   0  0  0  0  0  0  0  0  0  0  0  0
    0.3033   -2.6888   -1.7194 H   0  0  0  0  0  0  0  0  0  0  0  0
    4.2150   -2.2716    2.4632 H   0  0  0  0  0  0  0  0  0  0  0  0
   -0.9625   -2.1250   -3.2727 C   0  0  0  0  0  0  0  0  0  0  0  0
   -0.5703   -1.5859   -4.4724 C   0  0  0  0  0  0  0  0  0  0  0  0
    0.4455   -0.6113   -4.4873 C   0  0  0  0  0  0  0  0  0  0  0  0
    1.0793   -0.1620   -3.3164 C   0  0  0  0  0  0  0  0  0  0  0  0
    0.7032   -0.6898   -2.1042 C   0  0  0  0  0  0  0  0  0  0  0  0
   -0.2935   -1.7469   -2.0366 C   0  0  0  0  0  0  0  0  0  0  0  0
   -1.7484   -2.8717   -3.2314 H   0  0  0  0  0  0  0  0  0  0  0  0
   -1.0407   -1.8885   -5.3997 H   0  0  0  0  0  0  0  0  0  0  0  0
    0.7461   -0.1869   -5.4403 H   0  0  0  0  0  0  0  0  0  0  0  0
    1.8438    0.6027   -3.3764 H   0  0  0  0  0  0  0  0  0  0  0  0
    1.1662   -0.3717   -1.1767 H   0  0  0  0  0  0  0  0  0  0  0  0
   -0.9515   -1.6863   -1.1602 H   0  0  0  0  0  0  0  0  0  0  0  0
    2.1442   -2.1525    1.8667 S   0  0  0  0  0  0  0  0  0  0  0  0
    1.4807   -1.2013    1.0036 O   0  0  0  0  0  0  0  0  0  0  0  0
    2.2397   -3.5603    1.5022 O   0  0  0  0  0  0  0  0  0  0  0  0
    3.6111   -1.5678    2.1698 O   0  0  0  0  0  0  0  0  0  0  0  0
    1.3529   -2.0587    3.5845 C   0  0  0  0  0  0  0  0  0  0  0  0
    2.1162   -2.7386    4.4278 F   0  0  0  0  0  0  0  0  0  0  0  0
    1.2648   -0.7955    3.9502 F   0  0  0  0  0  0  0  0  0  0  0  0
    0.1514   -2.6060    3.5012 F   0  0  0  0  0  0  0  0  0  0  0  0
    1.5879   -4.2219   -0.1879 H   0  0  0  0  0  0  0  0  0  0  0  0
  1  3  2  0  0  0  0
  2  1  2  0  0  0  0
  3 26  1  0  0  0  0
  6 12  1  0  0  0  0
  6 11  1  0  0  0  0
  7  6  2  0  0  0  0
  8  7  1  0  0  0  0
  8  9  1  0  0  0  0
  9 10  2  0  0  0  0
 10 11  1  0  0  0  0
 10 16  1  0  0  0  0
 11  4  1  0  0  0  0
 11 17  1  0  0  0  0
 13  7  1  0  0  0  0
 14  8  1  0  0  0  0
 15  9  1  0  0  0  0
 18 21  1  0  0  0  0
 18 22  1  0  0  0  0
 19 18  2  0  0  0  0
 20 18  2  0  0  0  0
 21  5  1  0  0  0  0
 22 24  1  0  0  0  0
 22 23  1  0  0  0  0
 25 22  1  0  0  0  0
M  RAD  2   2   2   8   2
M  END
