Coordinates from ORCA-job C6H6+HOTf+NH2--N2+-scan
 OpenBabel10191813343D

 26 25  0  0  1  0  0  0  0  0999 V2000
    2.5520   -4.5906   -1.7342 N   0  0  0  0  0  0  0  0  0  0  0  0
    3.4837   -4.9590   -2.2008 N   0  0  0  0  0  0  0  0  0  0  0  0
    1.6863   -3.0342   -1.9260 N   0  0  0  0  0  0  0  0  0  0  0  0
    0.7851   -3.5055   -2.0473 H   0  0  0  0  0  0  0  0  0  0  0  0
    3.4992   -1.5449    2.8591 H   0  0  0  0  0  0  0  0  0  0  0  0
   -1.0612   -1.0887   -2.3526 C   0  0  0  0  0  0  0  0  0  0  0  0
   -1.1870   -1.3074   -3.7236 C   0  0  0  0  0  0  0  0  0  0  0  0
   -0.0567   -1.5477   -4.5462 C   0  0  0  0  0  0  0  0  0  0  0  0
    1.1904   -1.5872   -3.9928 C   0  0  0  0  0  0  0  0  0  0  0  0
    1.3701   -1.4293   -2.5541 C   0  0  1  0  0  0  0  0  0  0  0  0
    0.2002   -1.0851   -1.7761 C   0  0  0  0  0  0  0  0  0  0  0  0
   -1.9369   -0.8851   -1.7490 H   0  0  0  0  0  0  0  0  0  0  0  0
   -2.1718   -1.2842   -4.1781 H   0  0  0  0  0  0  0  0  0  0  0  0
   -0.1919   -1.6845   -5.6121 H   0  0  0  0  0  0  0  0  0  0  0  0
    2.0673   -1.7685   -4.6040 H   0  0  0  0  0  0  0  0  0  0  0  0
    2.3032   -0.9579   -2.2542 H   0  0  0  0  0  0  0  0  0  0  0  0
    0.3174   -0.8529   -0.7225 H   0  0  0  0  0  0  0  0  0  0  0  0
    1.5250   -1.8100    2.0221 S   0  0  0  0  0  0  0  0  0  0  0  0
    0.5310   -0.8373    1.6385 O   0  0  0  0  0  0  0  0  0  0  0  0
    2.1333   -2.6827    1.0208 O   0  0  0  0  0  0  0  0  0  0  0  0
    2.6739   -1.0312    2.8324 O   0  0  0  0  0  0  0  0  0  0  0  0
    0.8102   -2.9189    3.3805 C   0  0  0  0  0  0  0  0  0  0  0  0
    1.8027   -3.6340    3.8942 F   0  0  0  0  0  0  0  0  0  0  0  0
    0.2503   -2.1676    4.3048 F   0  0  0  0  0  0  0  0  0  0  0  0
   -0.0858   -3.7134    2.8155 F   0  0  0  0  0  0  0  0  0  0  0  0
    1.7594   -2.8445   -0.9140 H   0  0  0  0  0  0  0  0  0  0  0  0
  2  1  2  0  0  0  0
  3  1  1  0  0  0  0
  3 26  1  0  0  0  0
  4  3  1  0  0  0  0
  6 11  2  0  0  0  0
  6 12  1  0  0  0  0
  7  6  1  0  0  0  0
  8  9  2  0  0  0  0
  8  7  1  0  0  0  0
  9 10  1  0  0  0  0
 10 16  1  1  0  0  0
 10  3  1  0  0  0  0
 10 11  1  0  0  0  0
 11 17  1  0  0  0  0
 13  7  1  0  0  0  0
 14  8  1  0  0  0  0
 15  9  1  0  0  0  0
 18 21  1  0  0  0  0
 18 22  1  0  0  0  0
 19 18  2  0  0  0  0
 20 18  2  0  0  0  0
 21  5  1  0  0  0  0
 22 23  1  0  0  0  0
 22 24  1  0  0  0  0
 25 22  1  0  0  0  0
M  RAD  2   2   2   7   2
M  END
