Coordinates from ORCA-job C6H6+HOTf+NH2--N2+-scan
 OpenBabel10191813343D

 26 24  0  0  1  0  0  0  0  0999 V2000
    0.9510   -7.0163   -2.3742 N   0  0  0  0  0  0  0  0  0  0  0  0
    0.8787   -8.1075   -2.4384 N   0  0  0  0  0  0  0  0  0  0  0  0
    2.3294   -2.3507   -1.8191 N   0  0  0  0  0  0  0  0  0  0  0  0
    2.0919   -3.3341   -1.8967 H   0  0  0  0  0  0  0  0  0  0  0  0
    2.4173    0.0687    3.1875 H   0  0  0  0  0  0  0  0  0  0  0  0
   -1.1915   -1.2560   -2.5170 C   0  0  0  0  0  0  0  0  0  0  0  0
   -1.0452   -1.0404   -3.9005 C   0  0  0  0  0  0  0  0  0  0  0  0
    0.2028   -1.0844   -4.5514 C   0  0  0  0  0  0  0  0  0  0  0  0
    1.3281   -1.3642   -3.8207 C   0  0  0  0  0  0  0  0  0  0  0  0
    1.2767   -1.5140   -2.3519 C   0  0  1  0  0  0  0  0  0  0  0  0
   -0.0835   -1.5312   -1.7561 C   0  0  0  0  0  0  0  0  0  0  0  0
   -2.1781   -1.2335   -2.0699 H   0  0  0  0  0  0  0  0  0  0  0  0
   -1.9334   -0.8406   -4.4926 H   0  0  0  0  0  0  0  0  0  0  0  0
    0.2588   -0.9333   -5.6224 H   0  0  0  0  0  0  0  0  0  0  0  0
    2.3103   -1.4410   -4.2747 H   0  0  0  0  0  0  0  0  0  0  0  0
    1.5488   -0.4471   -2.0936 H   0  0  0  0  0  0  0  0  0  0  0  0
   -0.1601   -1.7003   -0.6852 H   0  0  0  0  0  0  0  0  0  0  0  0
    1.4856   -1.5363    2.0863 S   0  0  0  0  0  0  0  0  0  0  0  0
    0.1566   -1.6293    1.5232 O   0  0  0  0  0  0  0  0  0  0  0  0
    2.6613   -1.5534    1.2293 O   0  0  0  0  0  0  0  0  0  0  0  0
    1.5061   -0.2302    3.0265 O   0  0  0  0  0  0  0  0  0  0  0  0
    1.6819   -2.9058    3.3767 C   0  0  0  0  0  0  0  0  0  0  0  0
    2.7906   -2.6700    4.0660 F   0  0  0  0  0  0  0  0  0  0  0  0
    0.6322   -2.9095    4.1734 F   0  0  0  0  0  0  0  0  0  0  0  0
    1.7789   -4.0562    2.7276 F   0  0  0  0  0  0  0  0  0  0  0  0
    2.5546   -2.1356   -0.8519 H   0  0  0  0  0  0  0  0  0  0  0  0
  2  1  3  0  0  0  0
  3 26  1  0  0  0  0
  4  3  1  0  0  0  0
  6 12  1  0  0  0  0
  6 11  2  0  0  0  0
  7  6  1  0  0  0  0
  8  7  1  0  0  0  0
  8  9  2  0  0  0  0
  9 10  1  0  0  0  0
 10 16  1  1  0  0  0
 10  3  1  0  0  0  0
 10 11  1  0  0  0  0
 11 17  1  0  0  0  0
 13  7  1  0  0  0  0
 14  8  1  0  0  0  0
 15  9  1  0  0  0  0
 18 21  1  0  0  0  0
 18 22  1  0  0  0  0
 19 18  2  0  0  0  0
 20 18  2  0  0  0  0
 21  5  1  0  0  0  0
 22 23  1  0  0  0  0
 22 24  1  0  0  0  0
 25 22  1  0  0  0  0
M  RAD  1   7   2
M  END
