Coordinates from ORCA-job C6H6+HOTf+NH2--N2+-scan
 OpenBabel10191813343D

 26 24  0  0  0  0  0  0  0  0999 V2000
    1.1931   -5.2396   -1.7409 N   0  0  0  0  0  0  0  0  0  0  0  0
    1.1712   -6.1721   -2.3783 N   0  0  0  0  0  0  0  0  0  0  0  0
    1.1543   -4.1987   -1.1648 N   0  0  0  0  0  0  0  0  0  0  0  0
    0.3148   -2.7041   -1.7538 H   0  0  0  0  0  0  0  0  0  0  0  0
    4.2050   -2.2697    2.4966 H   0  0  0  0  0  0  0  0  0  0  0  0
   -0.9973   -2.0917   -3.2474 C   0  0  0  0  0  0  0  0  0  0  0  0
   -0.6124   -1.5634   -4.4552 C   0  0  0  0  0  0  0  0  0  0  0  0
    0.4315   -0.6202   -4.4905 C   0  0  0  0  0  0  0  0  0  0  0  0
    1.1002   -0.1926   -3.3321 C   0  0  0  0  0  0  0  0  0  0  0  0
    0.7302   -0.7106   -2.1123 C   0  0  0  0  0  0  0  0  0  0  0  0
   -0.2907   -1.7384   -2.0291 C   0  0  0  0  0  0  0  0  0  0  0  0
   -1.8051   -2.8135   -3.1906 H   0  0  0  0  0  0  0  0  0  0  0  0
   -1.1114   -1.8498   -5.3727 H   0  0  0  0  0  0  0  0  0  0  0  0
    0.7259   -0.2039   -5.4488 H   0  0  0  0  0  0  0  0  0  0  0  0
    1.8858    0.5492   -3.4050 H   0  0  0  0  0  0  0  0  0  0  0  0
    1.2194   -0.4076   -1.1933 H   0  0  0  0  0  0  0  0  0  0  0  0
   -0.9085   -1.6976   -1.1243 H   0  0  0  0  0  0  0  0  0  0  0  0
    2.1418   -2.1448    1.8763 S   0  0  0  0  0  0  0  0  0  0  0  0
    1.4902   -1.1874    1.0108 O   0  0  0  0  0  0  0  0  0  0  0  0
    2.2391   -3.5506    1.5072 O   0  0  0  0  0  0  0  0  0  0  0  0
    3.6059   -1.5630    2.2008 O   0  0  0  0  0  0  0  0  0  0  0  0
    1.3309   -2.0556    3.5845 C   0  0  0  0  0  0  0  0  0  0  0  0
    2.0816   -2.7417    4.4346 F   0  0  0  0  0  0  0  0  0  0  0  0
    1.2419   -0.7939    3.9557 F   0  0  0  0  0  0  0  0  0  0  0  0
    0.1284   -2.5988    3.4854 F   0  0  0  0  0  0  0  0  0  0  0  0
    1.5837   -4.1921   -0.2325 H   0  0  0  0  0  0  0  0  0  0  0  0
  1  3  2  0  0  0  0
  2  1  2  0  0  0  0
  3 26  1  0  0  0  0
  6 12  1  0  0  0  0
  6 11  1  0  0  0  0
  7  6  2  0  0  0  0
  8  7  1  0  0  0  0
  8  9  1  0  0  0  0
  9 10  2  0  0  0  0
 10 11  1  0  0  0  0
 10 16  1  0  0  0  0
 11  4  1  0  0  0  0
 11 17  1  0  0  0  0
 13  7  1  0  0  0  0
 14  8  1  0  0  0  0
 15  9  1  0  0  0  0
 18 21  1  0  0  0  0
 18 22  1  0  0  0  0
 19 18  2  0  0  0  0
 20 18  2  0  0  0  0
 21  5  1  0  0  0  0
 22 24  1  0  0  0  0
 22 23  1  0  0  0  0
 25 22  1  0  0  0  0
M  RAD  2   2   2   8   2
M  END
