Coordinates from ORCA-job C6H6+HOTf+NH2--N2+-scan
 OpenBabel10191813343D

 26 24  0  0  1  0  0  0  0  0999 V2000
    2.7240   -5.4211   -1.1401 N   0  0  0  0  0  0  0  0  0  0  0  0
    3.7076   -5.8791   -1.2911 N   0  0  0  0  0  0  0  0  0  0  0  0
    1.6196   -3.0644   -1.9403 N   0  0  0  0  0  0  0  0  0  0  0  0
    1.0020   -3.8671   -1.9495 H   0  0  0  0  0  0  0  0  0  0  0  0
    3.0769   -0.6473    2.8698 H   0  0  0  0  0  0  0  0  0  0  0  0
   -1.2000   -0.6596   -2.5207 C   0  0  0  0  0  0  0  0  0  0  0  0
   -1.0806   -0.5739   -3.9208 C   0  0  0  0  0  0  0  0  0  0  0  0
   -0.0032   -1.1391   -4.6305 C   0  0  0  0  0  0  0  0  0  0  0  0
    0.9666   -1.8195   -3.9419 C   0  0  0  0  0  0  0  0  0  0  0  0
    0.9659   -1.8826   -2.4660 C   0  0  1  0  0  0  0  0  0  0  0  0
   -0.2393   -1.3247   -1.8016 C   0  0  0  0  0  0  0  0  0  0  0  0
   -2.0607   -0.2255   -2.0262 H   0  0  0  0  0  0  0  0  0  0  0  0
   -1.8565   -0.0578   -4.4784 H   0  0  0  0  0  0  0  0  0  0  0  0
    0.0308   -1.0632   -5.7104 H   0  0  0  0  0  0  0  0  0  0  0  0
    1.8000   -2.3028   -4.4407 H   0  0  0  0  0  0  0  0  0  0  0  0
    1.6691   -1.0171   -2.2822 H   0  0  0  0  0  0  0  0  0  0  0  0
   -0.2964   -1.4037   -0.7189 H   0  0  0  0  0  0  0  0  0  0  0  0
    1.5297   -1.8238    1.9322 S   0  0  0  0  0  0  0  0  0  0  0  0
    0.2239   -1.4295    1.4512 O   0  0  0  0  0  0  0  0  0  0  0  0
    2.5437   -2.3203    1.0144 O   0  0  0  0  0  0  0  0  0  0  0  0
    2.1108   -0.5848    2.7798 O   0  0  0  0  0  0  0  0  0  0  0  0
    1.2959   -3.1100    3.2998 C   0  0  0  0  0  0  0  0  0  0  0  0
    2.4624   -3.2844    3.9077 F   0  0  0  0  0  0  0  0  0  0  0  0
    0.3879   -2.6810    4.1529 F   0  0  0  0  0  0  0  0  0  0  0  0
    0.9022   -4.2371    2.7268 F   0  0  0  0  0  0  0  0  0  0  0  0
    1.9674   -2.9330   -0.9952 H   0  0  0  0  0  0  0  0  0  0  0  0
  2  1  3  0  0  0  0
  3 26  1  0  0  0  0
  4  3  1  0  0  0  0
  6 12  1  0  0  0  0
  6 11  2  0  0  0  0
  7  6  1  0  0  0  0
  8  9  2  0  0  0  0
  8  7  1  0  0  0  0
  9 10  1  0  0  0  0
 10 16  1  1  0  0  0
 10  3  1  0  0  0  0
 10 11  1  0  0  0  0
 11 17  1  0  0  0  0
 13  7  1  0  0  0  0
 14  8  1  0  0  0  0
 15  9  1  0  0  0  0
 18 21  1  0  0  0  0
 18 22  1  0  0  0  0
 19 18  2  0  0  0  0
 20 18  2  0  0  0  0
 21  5  1  0  0  0  0
 22 23  1  0  0  0  0
 22 24  1  0  0  0  0
 25 22  1  0  0  0  0
M  RAD  1   7   2
M  END
