Coordinates from ORCA-job C6H6+HOTf+NH2--N2+-scan
 OpenBabel10191813343D

 26 24  0  0  0  0  0  0  0  0999 V2000
    2.1594   -4.7464   -1.6168 N   0  0  0  0  0  0  0  0  0  0  0  0
    2.8652   -5.5765   -1.7982 N   0  0  0  0  0  0  0  0  0  0  0  0
    1.7178   -3.2355   -1.8476 N   0  0  0  0  0  0  0  0  0  0  0  0
    0.7313   -3.3760   -2.0980 H   0  0  0  0  0  0  0  0  0  0  0  0
    3.6120   -1.6113    2.6486 H   0  0  0  0  0  0  0  0  0  0  0  0
   -1.1380   -1.2010   -2.4897 C   0  0  0  0  0  0  0  0  0  0  0  0
   -1.1059   -1.5193   -3.8508 C   0  0  0  0  0  0  0  0  0  0  0  0
    0.1048   -1.5195   -4.5553 C   0  0  0  0  0  0  0  0  0  0  0  0
    1.2865   -1.2046   -3.9000 C   0  0  0  0  0  0  0  0  0  0  0  0
    1.2662   -0.8961   -2.5237 C   0  0  0  0  0  0  0  0  0  0  0  0
    0.0418   -0.8769   -1.8243 C   0  0  0  0  0  0  0  0  0  0  0  0
   -2.0830   -1.1804   -1.9597 H   0  0  0  0  0  0  0  0  0  0  0  0
   -2.0286   -1.7543   -4.3693 H   0  0  0  0  0  0  0  0  0  0  0  0
    0.1139   -1.7502   -5.6140 H   0  0  0  0  0  0  0  0  0  0  0  0
    2.2260   -1.1873   -4.4397 H   0  0  0  0  0  0  0  0  0  0  0  0
    2.1738   -0.5564   -2.0375 H   0  0  0  0  0  0  0  0  0  0  0  0
    0.0194   -0.5892   -0.7790 H   0  0  0  0  0  0  0  0  0  0  0  0
    1.5690   -1.8457    1.9772 S   0  0  0  0  0  0  0  0  0  0  0  0
    0.5592   -0.8691    1.6696 O   0  0  0  0  0  0  0  0  0  0  0  0
    2.0819   -2.7515    0.9436 O   0  0  0  0  0  0  0  0  0  0  0  0
    2.8002   -1.0764    2.6627 O   0  0  0  0  0  0  0  0  0  0  0  0
    0.9767   -2.9398    3.4056 C   0  0  0  0  0  0  0  0  0  0  0  0
    2.0167   -3.6399    3.8440 F   0  0  0  0  0  0  0  0  0  0  0  0
    0.4899   -2.1799    4.3612 F   0  0  0  0  0  0  0  0  0  0  0  0
    0.0460   -3.7507    2.9273 F   0  0  0  0  0  0  0  0  0  0  0  0
    1.7474   -2.9183   -0.8559 H   0  0  0  0  0  0  0  0  0  0  0  0
  2  1  2  0  0  0  0
  3  1  1  0  0  0  0
  3 26  1  0  0  0  0
  4  3  1  0  0  0  0
  5 21  1  0  0  0  0
  6 12  1  0  0  0  0
  6 11  1  0  0  0  0
  7  6  2  0  0  0  0
  8  9  2  0  0  0  0
  8  7  1  0  0  0  0
  9 10  1  0  0  0  0
 10 16  1  0  0  0  0
 10 11  2  0  0  0  0
 11 17  1  0  0  0  0
 13  7  1  0  0  0  0
 14  8  1  0  0  0  0
 15  9  1  0  0  0  0
 18 21  1  0  0  0  0
 18 22  1  0  0  0  0
 19 18  2  0  0  0  0
 20 18  2  0  0  0  0
 22 23  1  0  0  0  0
 22 24  1  0  0  0  0
 25 22  1  0  0  0  0
M  RAD  1   2   2
M  END
