Coordinates from ORCA-job C6H6+HOTf+NH2--N2+-scan
 OpenBabel10191813343D

 26 24  0  0  1  0  0  0  0  0999 V2000
    1.5921   -5.8970   -1.9908 N   0  0  0  0  0  0  0  0  0  0  0  0
    1.7749   -6.9768   -1.9852 N   0  0  0  0  0  0  0  0  0  0  0  0
    2.1310   -2.6599   -1.8737 N   0  0  0  0  0  0  0  0  0  0  0  0
    1.7748   -3.6071   -1.9385 H   0  0  0  0  0  0  0  0  0  0  0  0
    2.6536   -0.1441    3.0692 H   0  0  0  0  0  0  0  0  0  0  0  0
   -1.2272   -1.1112   -2.5167 C   0  0  0  0  0  0  0  0  0  0  0  0
   -1.0847   -0.9343   -3.9059 C   0  0  0  0  0  0  0  0  0  0  0  0
    0.1308   -1.1550   -4.5812 C   0  0  0  0  0  0  0  0  0  0  0  0
    1.2244   -1.5754   -3.8694 C   0  0  0  0  0  0  0  0  0  0  0  0
    1.1866   -1.7014   -2.3985 C   0  0  1  0  0  0  0  0  0  0  0  0
   -0.1497   -1.5263   -1.7751 C   0  0  0  0  0  0  0  0  0  0  0  0
   -2.1910   -0.9488   -2.0493 H   0  0  0  0  0  0  0  0  0  0  0  0
   -1.9505   -0.6220   -4.4822 H   0  0  0  0  0  0  0  0  0  0  0  0
    0.1831   -1.0249   -5.6552 H   0  0  0  0  0  0  0  0  0  0  0  0
    2.1775   -1.7878   -4.3421 H   0  0  0  0  0  0  0  0  0  0  0  0
    1.5992   -0.6731   -2.1660 H   0  0  0  0  0  0  0  0  0  0  0  0
   -0.2240   -1.6698   -0.7004 H   0  0  0  0  0  0  0  0  0  0  0  0
    1.5001   -1.6468    2.0361 S   0  0  0  0  0  0  0  0  0  0  0  0
    0.1583   -1.5833    1.4999 O   0  0  0  0  0  0  0  0  0  0  0  0
    2.6458   -1.8406    1.1610 O   0  0  0  0  0  0  0  0  0  0  0  0
    1.7083   -0.3280    2.9355 O   0  0  0  0  0  0  0  0  0  0  0  0
    1.5449   -2.9920    3.3652 C   0  0  0  0  0  0  0  0  0  0  0  0
    2.6894   -2.8833    4.0273 F   0  0  0  0  0  0  0  0  0  0  0  0
    0.5211   -2.8366    4.1802 F   0  0  0  0  0  0  0  0  0  0  0  0
    1.4780   -4.1640    2.7511 F   0  0  0  0  0  0  0  0  0  0  0  0
    2.4027   -2.4629   -0.9151 H   0  0  0  0  0  0  0  0  0  0  0  0
  1  2  3  0  0  0  0
  3 26  1  0  0  0  0
  4  3  1  0  0  0  0
  6 12  1  0  0  0  0
  6 11  2  0  0  0  0
  7  6  1  0  0  0  0
  8  7  1  0  0  0  0
  8  9  2  0  0  0  0
  9 10  1  0  0  0  0
 10 16  1  1  0  0  0
 10  3  1  0  0  0  0
 10 11  1  0  0  0  0
 11 17  1  0  0  0  0
 13  7  1  0  0  0  0
 14  8  1  0  0  0  0
 15  9  1  0  0  0  0
 18 21  1  0  0  0  0
 18 22  1  0  0  0  0
 19 18  2  0  0  0  0
 20 18  2  0  0  0  0
 21  5  1  0  0  0  0
 22 23  1  0  0  0  0
 22 24  1  0  0  0  0
 25 22  1  0  0  0  0
M  RAD  1   7   2
M  END
