Coordinates from ORCA-job C6H6+HOTf+NH2--N2+-scan
 OpenBabel10191813343D

 26 24  0  0  1  0  0  0  0  0999 V2000
    0.6304   -8.4503   -2.7915 N   0  0  0  0  0  0  0  0  0  0  0  0
    0.5917   -9.5411   -2.8850 N   0  0  0  0  0  0  0  0  0  0  0  0
    2.4026   -2.1331   -1.7742 N   0  0  0  0  0  0  0  0  0  0  0  0
    2.2235   -3.1277   -1.8599 H   0  0  0  0  0  0  0  0  0  0  0  0
    2.3043    0.2280    3.2586 H   0  0  0  0  0  0  0  0  0  0  0  0
   -1.1696   -1.2399   -2.4973 C   0  0  0  0  0  0  0  0  0  0  0  0
   -1.0239   -1.0067   -3.8781 C   0  0  0  0  0  0  0  0  0  0  0  0
    0.2303   -0.9731   -4.5177 C   0  0  0  0  0  0  0  0  0  0  0  0
    1.3635   -1.1917   -3.7784 C   0  0  0  0  0  0  0  0  0  0  0  0
    1.3079   -1.3545   -2.3110 C   0  0  1  0  0  0  0  0  0  0  0  0
   -0.0542   -1.4550   -1.7279 C   0  0  0  0  0  0  0  0  0  0  0  0
   -2.1598   -1.2781   -2.0593 H   0  0  0  0  0  0  0  0  0  0  0  0
   -1.9170   -0.8553   -4.4771 H   0  0  0  0  0  0  0  0  0  0  0  0
    0.2868   -0.8117   -5.5872 H   0  0  0  0  0  0  0  0  0  0  0  0
    2.3525   -1.2079   -4.2239 H   0  0  0  0  0  0  0  0  0  0  0  0
    1.5159   -0.2758   -2.0429 H   0  0  0  0  0  0  0  0  0  0  0  0
   -0.1305   -1.6356   -0.6587 H   0  0  0  0  0  0  0  0  0  0  0  0
    1.4786   -1.4148    2.1289 S   0  0  0  0  0  0  0  0  0  0  0  0
    0.1628   -1.5783    1.5510 O   0  0  0  0  0  0  0  0  0  0  0  0
    2.6613   -1.3528    1.2836 O   0  0  0  0  0  0  0  0  0  0  0  0
    1.4138   -0.1213    3.0843 O   0  0  0  0  0  0  0  0  0  0  0  0
    1.7423   -2.7865    3.4051 C   0  0  0  0  0  0  0  0  0  0  0  0
    2.8287   -2.4948    4.1084 F   0  0  0  0  0  0  0  0  0  0  0  0
    0.6871   -2.8612    4.1907 F   0  0  0  0  0  0  0  0  0  0  0  0
    1.9127   -3.9210    2.7434 F   0  0  0  0  0  0  0  0  0  0  0  0
    2.6078   -1.9119   -0.8039 H   0  0  0  0  0  0  0  0  0  0  0  0
  2  1  3  0  0  0  0
  3 26  1  0  0  0  0
  4  3  1  0  0  0  0
  6 12  1  0  0  0  0
  6 11  2  0  0  0  0
  7  6  1  0  0  0  0
  8  7  1  0  0  0  0
  8  9  2  0  0  0  0
  9 10  1  0  0  0  0
 10 16  1  1  0  0  0
 10  3  1  0  0  0  0
 10 11  1  0  0  0  0
 11 17  1  0  0  0  0
 13  7  1  0  0  0  0
 14  8  1  0  0  0  0
 15  9  1  0  0  0  0
 18 21  1  0  0  0  0
 18 22  1  0  0  0  0
 19 18  2  0  0  0  0
 20 18  2  0  0  0  0
 21  5  1  0  0  0  0
 22 23  1  0  0  0  0
 22 24  1  0  0  0  0
 25 22  1  0  0  0  0
M  RAD  1   7   2
M  END
