Coordinates from ORCA-job C6H6+HOTf+NH2--N2+-scan
 OpenBabel10191813343D

 26 24  0  0  1  0  0  0  0  0999 V2000
    0.8416   -7.4657   -2.5042 N   0  0  0  0  0  0  0  0  0  0  0  0
    0.7801   -8.5568   -2.5798 N   0  0  0  0  0  0  0  0  0  0  0  0
    2.3552   -2.2797   -1.8047 N   0  0  0  0  0  0  0  0  0  0  0  0
    2.1379   -3.2672   -1.8853 H   0  0  0  0  0  0  0  0  0  0  0  0
    2.3781    0.1209    3.2108 H   0  0  0  0  0  0  0  0  0  0  0  0
   -1.1847   -1.2545   -2.5113 C   0  0  0  0  0  0  0  0  0  0  0  0
   -1.0384   -1.0327   -3.8939 C   0  0  0  0  0  0  0  0  0  0  0  0
    0.2123   -1.0496   -4.5408 C   0  0  0  0  0  0  0  0  0  0  0  0
    1.3407   -1.3082   -3.8071 C   0  0  0  0  0  0  0  0  0  0  0  0
    1.2877   -1.4626   -2.3388 C   0  0  1  0  0  0  0  0  0  0  0  0
   -0.0738   -1.5088   -1.7475 C   0  0  0  0  0  0  0  0  0  0  0  0
   -2.1731   -1.2532   -2.0675 H   0  0  0  0  0  0  0  0  0  0  0  0
   -1.9286   -0.8497   -4.4884 H   0  0  0  0  0  0  0  0  0  0  0  0
    0.2687   -0.8949   -5.6113 H   0  0  0  0  0  0  0  0  0  0  0  0
    2.3257   -1.3639   -4.2581 H   0  0  0  0  0  0  0  0  0  0  0  0
    1.5377   -0.3913   -2.0768 H   0  0  0  0  0  0  0  0  0  0  0  0
   -0.1505   -1.6820   -0.6771 H   0  0  0  0  0  0  0  0  0  0  0  0
    1.4829   -1.4980    2.0998 S   0  0  0  0  0  0  0  0  0  0  0  0
    0.1580   -1.6157    1.5317 O   0  0  0  0  0  0  0  0  0  0  0  0
    2.6616   -1.4877    1.2466 O   0  0  0  0  0  0  0  0  0  0  0  0
    1.4738   -0.1956    3.0452 O   0  0  0  0  0  0  0  0  0  0  0  0
    1.7028   -2.8686    3.3854 C   0  0  0  0  0  0  0  0  0  0  0  0
    2.8041   -2.6129    4.0794 F   0  0  0  0  0  0  0  0  0  0  0  0
    0.6508   -2.8970    4.1783 F   0  0  0  0  0  0  0  0  0  0  0  0
    1.8256   -4.0140    2.7319 F   0  0  0  0  0  0  0  0  0  0  0  0
    2.5735   -2.0625   -0.8363 H   0  0  0  0  0  0  0  0  0  0  0  0
  2  1  3  0  0  0  0
  3 26  1  0  0  0  0
  4  3  1  0  0  0  0
  6 12  1  0  0  0  0
  6 11  2  0  0  0  0
  7  6  1  0  0  0  0
  8  7  1  0  0  0  0
  8  9  2  0  0  0  0
  9 10  1  0  0  0  0
 10 16  1  1  0  0  0
 10  3  1  0  0  0  0
 10 11  1  0  0  0  0
 11 17  1  0  0  0  0
 13  7  1  0  0  0  0
 14  8  1  0  0  0  0
 15  9  1  0  0  0  0
 18 21  1  0  0  0  0
 18 22  1  0  0  0  0
 19 18  2  0  0  0  0
 20 18  2  0  0  0  0
 21  5  1  0  0  0  0
 22 23  1  0  0  0  0
 22 24  1  0  0  0  0
 25 22  1  0  0  0  0
M  RAD  1   7   2
M  END
