Coordinates from ORCA-job C6H6+HOTf+NH2--N2+-scan
 OpenBabel10191813343D

 26 24  0  0  1  0  0  0  0  0999 V2000
    0.6814   -8.1822   -2.7170 N   0  0  0  0  0  0  0  0  0  0  0  0
    0.6371   -9.2732   -2.8067 N   0  0  0  0  0  0  0  0  0  0  0  0
    2.3913   -2.1714   -1.7819 N   0  0  0  0  0  0  0  0  0  0  0  0
    2.2031   -3.1644   -1.8662 H   0  0  0  0  0  0  0  0  0  0  0  0
    2.3219    0.2010    3.2463 H   0  0  0  0  0  0  0  0  0  0  0  0
   -1.1735   -1.2466   -2.5012 C   0  0  0  0  0  0  0  0  0  0  0  0
   -1.0276   -1.0163   -3.8824 C   0  0  0  0  0  0  0  0  0  0  0  0
    0.2260   -0.9949   -4.5237 C   0  0  0  0  0  0  0  0  0  0  0  0
    1.3581   -1.2229   -3.7858 C   0  0  0  0  0  0  0  0  0  0  0  0
    1.3031   -1.3835   -2.3181 C   0  0  1  0  0  0  0  0  0  0  0  0
   -0.0591   -1.4709   -1.7331 C   0  0  0  0  0  0  0  0  0  0  0  0
   -2.1634   -1.2753   -2.0618 H   0  0  0  0  0  0  0  0  0  0  0  0
   -1.9201   -0.8574   -4.4804 H   0  0  0  0  0  0  0  0  0  0  0  0
    0.2825   -0.8352   -5.5935 H   0  0  0  0  0  0  0  0  0  0  0  0
    2.3464   -1.2486   -4.2326 H   0  0  0  0  0  0  0  0  0  0  0  0
    1.5212   -0.3064   -2.0515 H   0  0  0  0  0  0  0  0  0  0  0  0
   -0.1355   -1.6496   -0.6636 H   0  0  0  0  0  0  0  0  0  0  0  0
    1.4795   -1.4367    2.1215 S   0  0  0  0  0  0  0  0  0  0  0  0
    0.1614   -1.5895    1.5459 O   0  0  0  0  0  0  0  0  0  0  0  0
    2.6615   -1.3872    1.2742 O   0  0  0  0  0  0  0  0  0  0  0  0
    1.4279   -0.1406    3.0741 O   0  0  0  0  0  0  0  0  0  0  0  0
    1.7330   -2.8079    3.4002 C   0  0  0  0  0  0  0  0  0  0  0  0
    2.8230   -2.5245    4.1011 F   0  0  0  0  0  0  0  0  0  0  0  0
    0.6784   -2.8715    4.1876 F   0  0  0  0  0  0  0  0  0  0  0  0
    1.8921   -3.9454    2.7407 F   0  0  0  0  0  0  0  0  0  0  0  0
    2.5997   -1.9510   -0.8120 H   0  0  0  0  0  0  0  0  0  0  0  0
  2  1  3  0  0  0  0
  3 26  1  0  0  0  0
  4  3  1  0  0  0  0
  6 12  1  0  0  0  0
  6 11  2  0  0  0  0
  7  6  1  0  0  0  0
  8  7  1  0  0  0  0
  8  9  2  0  0  0  0
  9 10  1  0  0  0  0
 10 16  1  1  0  0  0
 10  3  1  0  0  0  0
 10 11  1  0  0  0  0
 11 17  1  0  0  0  0
 13  7  1  0  0  0  0
 14  8  1  0  0  0  0
 15  9  1  0  0  0  0
 18 21  1  0  0  0  0
 18 22  1  0  0  0  0
 19 18  2  0  0  0  0
 20 18  2  0  0  0  0
 21  5  1  0  0  0  0
 22 23  1  0  0  0  0
 22 24  1  0  0  0  0
 25 22  1  0  0  0  0
M  RAD  1   7   2
M  END
