Coordinates from ORCA-job C6H6+HOTf+NH2--N2+-scan
 OpenBabel10191813343D

 26 24  0  0  1  0  0  0  0  0999 V2000
    0.7890   -7.6865   -2.5709 N   0  0  0  0  0  0  0  0  0  0  0  0
    0.7330   -8.7777   -2.6515 N   0  0  0  0  0  0  0  0  0  0  0  0
    2.3672   -2.2455   -1.7974 N   0  0  0  0  0  0  0  0  0  0  0  0
    2.1594   -3.2349   -1.8792 H   0  0  0  0  0  0  0  0  0  0  0  0
    2.3595    0.1466    3.2221 H   0  0  0  0  0  0  0  0  0  0  0  0
   -1.1812   -1.2533   -2.5083 C   0  0  0  0  0  0  0  0  0  0  0  0
   -1.0350   -1.0287   -3.8905 C   0  0  0  0  0  0  0  0  0  0  0  0
    0.2169   -1.0330   -4.5355 C   0  0  0  0  0  0  0  0  0  0  0  0
    1.3466   -1.2815   -3.8003 C   0  0  0  0  0  0  0  0  0  0  0  0
    1.2928   -1.4379   -2.3322 C   0  0  1  0  0  0  0  0  0  0  0  0
   -0.0691   -1.4977   -1.7430 C   0  0  0  0  0  0  0  0  0  0  0  0
   -2.1702   -1.2619   -2.0659 H   0  0  0  0  0  0  0  0  0  0  0  0
   -1.9260   -0.8537   -4.4861 H   0  0  0  0  0  0  0  0  0  0  0  0
    0.2733   -0.8767   -5.6057 H   0  0  0  0  0  0  0  0  0  0  0  0
    2.3328   -1.3274   -4.2500 H   0  0  0  0  0  0  0  0  0  0  0  0
    1.5323   -0.3646   -2.0687 H   0  0  0  0  0  0  0  0  0  0  0  0
   -0.1457   -1.6727   -0.6729 H   0  0  0  0  0  0  0  0  0  0  0  0
    1.4818   -1.4789    2.1067 S   0  0  0  0  0  0  0  0  0  0  0  0
    0.1590   -1.6083    1.5361 O   0  0  0  0  0  0  0  0  0  0  0  0
    2.6616   -1.4557    1.2554 O   0  0  0  0  0  0  0  0  0  0  0  0
    1.4585   -0.1783    3.0543 O   0  0  0  0  0  0  0  0  0  0  0  0
    1.7128   -2.8497    3.3901 C   0  0  0  0  0  0  0  0  0  0  0  0
    2.8105   -2.5846    4.0864 F   0  0  0  0  0  0  0  0  0  0  0  0
    0.6598   -2.8897    4.1812 F   0  0  0  0  0  0  0  0  0  0  0  0
    1.8477   -3.9926    2.7346 F   0  0  0  0  0  0  0  0  0  0  0  0
    2.5823   -2.0272   -0.8285 H   0  0  0  0  0  0  0  0  0  0  0  0
  2  1  3  0  0  0  0
  3 26  1  0  0  0  0
  4  3  1  0  0  0  0
  6 12  1  0  0  0  0
  6 11  2  0  0  0  0
  7  6  1  0  0  0  0
  8  7  1  0  0  0  0
  8  9  2  0  0  0  0
  9 10  1  0  0  0  0
 10 16  1  1  0  0  0
 10  3  1  0  0  0  0
 10 11  1  0  0  0  0
 11 17  1  0  0  0  0
 13  7  1  0  0  0  0
 14  8  1  0  0  0  0
 15  9  1  0  0  0  0
 18 21  1  0  0  0  0
 18 22  1  0  0  0  0
 19 18  2  0  0  0  0
 20 18  2  0  0  0  0
 21  5  1  0  0  0  0
 22 23  1  0  0  0  0
 22 24  1  0  0  0  0
 25 22  1  0  0  0  0
M  RAD  1   7   2
M  END
