Coordinates from ORCA-job C6H6+HOTf+NH2--N2+-scan
 OpenBabel10191813343D

 26 25  0  0  1  0  0  0  0  0999 V2000
    2.4933   -4.6282   -1.6870 N   0  0  0  0  0  0  0  0  0  0  0  0
    3.4087   -5.0991   -2.0879 N   0  0  0  0  0  0  0  0  0  0  0  0
    1.7136   -3.0675   -1.9283 N   0  0  0  0  0  0  0  0  0  0  0  0
    0.7859   -3.4849   -2.0580 H   0  0  0  0  0  0  0  0  0  0  0  0
    3.5054   -1.5430    2.8338 H   0  0  0  0  0  0  0  0  0  0  0  0
   -1.0674   -1.0974   -2.3630 C   0  0  0  0  0  0  0  0  0  0  0  0
   -1.1864   -1.3389   -3.7323 C   0  0  0  0  0  0  0  0  0  0  0  0
   -0.0496   -1.5453   -4.5469 C   0  0  0  0  0  0  0  0  0  0  0  0
    1.2018   -1.5195   -3.9895 C   0  0  0  0  0  0  0  0  0  0  0  0
    1.3629   -1.3288   -2.5667 C   0  0  1  0  0  0  0  0  0  0  0  0
    0.1927   -1.0430   -1.7849 C   0  0  0  0  0  0  0  0  0  0  0  0
   -1.9503   -0.9186   -1.7617 H   0  0  0  0  0  0  0  0  0  0  0  0
   -2.1714   -1.3593   -4.1860 H   0  0  0  0  0  0  0  0  0  0  0  0
   -0.1750   -1.7061   -5.6107 H   0  0  0  0  0  0  0  0  0  0  0  0
    2.0863   -1.6696   -4.5976 H   0  0  0  0  0  0  0  0  0  0  0  0
    2.3089   -0.9169   -2.2301 H   0  0  0  0  0  0  0  0  0  0  0  0
    0.3003   -0.7974   -0.7336 H   0  0  0  0  0  0  0  0  0  0  0  0
    1.5236   -1.8075    2.0136 S   0  0  0  0  0  0  0  0  0  0  0  0
    0.5216   -0.8368    1.6494 O   0  0  0  0  0  0  0  0  0  0  0  0
    2.1261   -2.6710    0.9998 O   0  0  0  0  0  0  0  0  0  0  0  0
    2.6788   -1.0312    2.8171 O   0  0  0  0  0  0  0  0  0  0  0  0
    0.8305   -2.9326    3.3700 C   0  0  0  0  0  0  0  0  0  0  0  0
    1.8339   -3.6441    3.8682 F   0  0  0  0  0  0  0  0  0  0  0  0
    0.2740   -2.1934    4.3056 F   0  0  0  0  0  0  0  0  0  0  0  0
   -0.0645   -3.7300    2.8073 F   0  0  0  0  0  0  0  0  0  0  0  0
    1.7658   -2.8423   -0.9204 H   0  0  0  0  0  0  0  0  0  0  0  0
  2  1  2  0  0  0  0
  3  1  1  0  0  0  0
  3 26  1  0  0  0  0
  4  3  1  0  0  0  0
  6 11  2  0  0  0  0
  6 12  1  0  0  0  0
  7  6  1  0  0  0  0
  8  9  2  0  0  0  0
  8  7  1  0  0  0  0
  9 10  1  0  0  0  0
 10 16  1  1  0  0  0
 10  3  1  0  0  0  0
 10 11  1  0  0  0  0
 11 17  1  0  0  0  0
 13  7  1  0  0  0  0
 14  8  1  0  0  0  0
 15  9  1  0  0  0  0
 18 21  1  0  0  0  0
 18 22  1  0  0  0  0
 19 18  2  0  0  0  0
 20 18  2  0  0  0  0
 21  5  1  0  0  0  0
 22 23  1  0  0  0  0
 22 24  1  0  0  0  0
 25 22  1  0  0  0  0
M  RAD  2   2   2   7   2
M  END
