Coordinates from ORCA-job C6H6+HOTf+NH2--N2+-scan
 OpenBabel10191813343D

 26 24  0  0  1  0  0  0  0  0999 V2000
    1.2635   -5.9999   -2.1099 N   0  0  0  0  0  0  0  0  0  0  0  0
    1.2215   -7.0938   -2.1422 N   0  0  0  0  0  0  0  0  0  0  0  0
    2.2389   -2.5501   -1.8510 N   0  0  0  0  0  0  0  0  0  0  0  0
    1.9364   -3.5171   -1.9168 H   0  0  0  0  0  0  0  0  0  0  0  0
    2.5254   -0.0526    3.1197 H   0  0  0  0  0  0  0  0  0  0  0  0
   -1.2089   -1.2301   -2.5254 C   0  0  0  0  0  0  0  0  0  0  0  0
   -1.0616   -1.0317   -3.9113 C   0  0  0  0  0  0  0  0  0  0  0  0
    0.1745   -1.1623   -4.5728 C   0  0  0  0  0  0  0  0  0  0  0  0
    1.2855   -1.5126   -3.8503 C   0  0  0  0  0  0  0  0  0  0  0  0
    1.2383   -1.6516   -2.3806 C   0  0  1  0  0  0  0  0  0  0  0  0
   -0.1144   -1.5749   -1.7731 C   0  0  0  0  0  0  0  0  0  0  0  0
   -2.1875   -1.1392   -2.0695 H   0  0  0  0  0  0  0  0  0  0  0  0
   -1.9399   -0.7755   -4.4964 H   0  0  0  0  0  0  0  0  0  0  0  0
    0.2306   -1.0204   -5.6451 H   0  0  0  0  0  0  0  0  0  0  0  0
    2.2564   -1.6561   -4.3125 H   0  0  0  0  0  0  0  0  0  0  0  0
    1.5795   -0.6014   -2.1335 H   0  0  0  0  0  0  0  0  0  0  0  0
   -0.1918   -1.7326   -0.7005 H   0  0  0  0  0  0  0  0  0  0  0  0
    1.4939   -1.6205    2.0549 S   0  0  0  0  0  0  0  0  0  0  0  0
    0.1564   -1.6472    1.5053 O   0  0  0  0  0  0  0  0  0  0  0  0
    2.6589   -1.7185    1.1891 O   0  0  0  0  0  0  0  0  0  0  0  0
    1.5973   -0.3026    2.9733 O   0  0  0  0  0  0  0  0  0  0  0  0
    1.6240   -2.9773    3.3667 C   0  0  0  0  0  0  0  0  0  0  0  0
    2.7514   -2.7950    4.0418 F   0  0  0  0  0  0  0  0  0  0  0  0
    0.5840   -2.9076    4.1730 F   0  0  0  0  0  0  0  0  0  0  0  0
    1.6480   -4.1423    2.7365 F   0  0  0  0  0  0  0  0  0  0  0  0
    2.4888   -2.3393   -0.8891 H   0  0  0  0  0  0  0  0  0  0  0  0
  2  1  3  0  0  0  0
  3 26  1  0  0  0  0
  4  3  1  0  0  0  0
  6 12  1  0  0  0  0
  6 11  2  0  0  0  0
  7  6  1  0  0  0  0
  8  7  1  0  0  0  0
  8  9  2  0  0  0  0
  9 10  1  0  0  0  0
 10 16  1  1  0  0  0
 10  3  1  0  0  0  0
 10 11  1  0  0  0  0
 11 17  1  0  0  0  0
 13  7  1  0  0  0  0
 14  8  1  0  0  0  0
 15  9  1  0  0  0  0
 18 21  1  0  0  0  0
 18 22  1  0  0  0  0
 19 18  2  0  0  0  0
 20 18  2  0  0  0  0
 21  5  1  0  0  0  0
 22 23  1  0  0  0  0
 22 24  1  0  0  0  0
 25 22  1  0  0  0  0
M  RAD  1   7   2
M  END
