Coordinates from ORCA-job C6H6+HOTf+NH2--N2+-scan
 OpenBabel10191813343D

 26 24  0  0  1  0  0  0  0  0999 V2000
    0.8273   -7.5225   -2.5221 N   0  0  0  0  0  0  0  0  0  0  0  0
    0.7670   -8.6136   -2.5992 N   0  0  0  0  0  0  0  0  0  0  0  0
    2.3585   -2.2707   -1.8027 N   0  0  0  0  0  0  0  0  0  0  0  0
    2.1438   -3.2588   -1.8836 H   0  0  0  0  0  0  0  0  0  0  0  0
    2.3730    0.1279    3.2138 H   0  0  0  0  0  0  0  0  0  0  0  0
   -1.1838   -1.2546   -2.5105 C   0  0  0  0  0  0  0  0  0  0  0  0
   -1.0375   -1.0320   -3.8930 C   0  0  0  0  0  0  0  0  0  0  0  0
    0.2136   -1.0455   -4.5394 C   0  0  0  0  0  0  0  0  0  0  0  0
    1.3423   -1.3013   -3.8053 C   0  0  0  0  0  0  0  0  0  0  0  0
    1.2891   -1.4563   -2.3370 C   0  0  1  0  0  0  0  0  0  0  0  0
   -0.0725   -1.5062   -1.7463 C   0  0  0  0  0  0  0  0  0  0  0  0
   -2.1723   -1.2560   -2.0671 H   0  0  0  0  0  0  0  0  0  0  0  0
   -1.9279   -0.8513   -4.4879 H   0  0  0  0  0  0  0  0  0  0  0  0
    0.2700   -0.8904   -5.6098 H   0  0  0  0  0  0  0  0  0  0  0  0
    2.3277   -1.3544   -4.2559 H   0  0  0  0  0  0  0  0  0  0  0  0
    1.5362   -0.3844   -2.0746 H   0  0  0  0  0  0  0  0  0  0  0  0
   -0.1492   -1.6798   -0.6760 H   0  0  0  0  0  0  0  0  0  0  0  0
    1.4826   -1.4930    2.1017 S   0  0  0  0  0  0  0  0  0  0  0  0
    0.1583   -1.6139    1.5329 O   0  0  0  0  0  0  0  0  0  0  0  0
    2.6616   -1.4792    1.2490 O   0  0  0  0  0  0  0  0  0  0  0  0
    1.4696   -0.1910    3.0476 O   0  0  0  0  0  0  0  0  0  0  0  0
    1.7056   -2.8635    3.3867 C   0  0  0  0  0  0  0  0  0  0  0  0
    2.8059   -2.6052    4.0813 F   0  0  0  0  0  0  0  0  0  0  0  0
    0.6533   -2.8951    4.1791 F   0  0  0  0  0  0  0  0  0  0  0  0
    1.8317   -4.0083    2.7327 F   0  0  0  0  0  0  0  0  0  0  0  0
    2.5759   -2.0532   -0.8342 H   0  0  0  0  0  0  0  0  0  0  0  0
  2  1  3  0  0  0  0
  3 26  1  0  0  0  0
  4  3  1  0  0  0  0
  6 12  1  0  0  0  0
  6 11  2  0  0  0  0
  7  6  1  0  0  0  0
  8  7  1  0  0  0  0
  8  9  2  0  0  0  0
  9 10  1  0  0  0  0
 10 16  1  1  0  0  0
 10  3  1  0  0  0  0
 10 11  1  0  0  0  0
 11 17  1  0  0  0  0
 13  7  1  0  0  0  0
 14  8  1  0  0  0  0
 15  9  1  0  0  0  0
 18 21  1  0  0  0  0
 18 22  1  0  0  0  0
 19 18  2  0  0  0  0
 20 18  2  0  0  0  0
 21  5  1  0  0  0  0
 22 23  1  0  0  0  0
 22 24  1  0  0  0  0
 25 22  1  0  0  0  0
M  RAD  1   7   2
M  END
