Coordinates from ORCA-job C6H6+HOTf+NH2--N2+-scan
 OpenBabel10191813343D

 26 24  0  0  1  0  0  0  0  0999 V2000
    0.6200   -8.5094   -2.8072 N   0  0  0  0  0  0  0  0  0  0  0  0
    0.5825   -9.6002   -2.9015 N   0  0  0  0  0  0  0  0  0  0  0  0
    2.4048   -2.1249   -1.7727 N   0  0  0  0  0  0  0  0  0  0  0  0
    2.2277   -3.1198   -1.8586 H   0  0  0  0  0  0  0  0  0  0  0  0
    2.3008    0.2336    3.2613 H   0  0  0  0  0  0  0  0  0  0  0  0
   -1.1688   -1.2381   -2.4964 C   0  0  0  0  0  0  0  0  0  0  0  0
   -1.0232   -1.0042   -3.8771 C   0  0  0  0  0  0  0  0  0  0  0  0
    0.2311   -0.9681   -4.5164 C   0  0  0  0  0  0  0  0  0  0  0  0
    1.3645   -1.1848   -3.7769 C   0  0  0  0  0  0  0  0  0  0  0  0
    1.3089   -1.3482   -2.3095 C   0  0  1  0  0  0  0  0  0  0  0  0
   -0.0532   -1.4513   -1.7268 C   0  0  0  0  0  0  0  0  0  0  0  0
   -2.1590   -1.2783   -2.0587 H   0  0  0  0  0  0  0  0  0  0  0  0
   -1.9164   -0.8543   -4.4763 H   0  0  0  0  0  0  0  0  0  0  0  0
    0.2876   -0.8063   -5.5858 H   0  0  0  0  0  0  0  0  0  0  0  0
    2.3537   -1.1991   -4.2221 H   0  0  0  0  0  0  0  0  0  0  0  0
    1.5148   -0.2691   -2.0411 H   0  0  0  0  0  0  0  0  0  0  0  0
   -0.1294   -1.6324   -0.6577 H   0  0  0  0  0  0  0  0  0  0  0  0
    1.4784   -1.4101    2.1305 S   0  0  0  0  0  0  0  0  0  0  0  0
    0.1631   -1.5757    1.5521 O   0  0  0  0  0  0  0  0  0  0  0  0
    2.6613   -1.3456    1.2856 O   0  0  0  0  0  0  0  0  0  0  0  0
    1.4109   -0.1172    3.0865 O   0  0  0  0  0  0  0  0  0  0  0  0
    1.7442   -2.7819    3.4061 C   0  0  0  0  0  0  0  0  0  0  0  0
    2.8298   -2.4886    4.1099 F   0  0  0  0  0  0  0  0  0  0  0  0
    0.6889   -2.8589    4.1914 F   0  0  0  0  0  0  0  0  0  0  0  0
    1.9168   -3.9158    2.7438 F   0  0  0  0  0  0  0  0  0  0  0  0
    2.6094   -1.9035   -0.8022 H   0  0  0  0  0  0  0  0  0  0  0  0
  2  1  3  0  0  0  0
  3 26  1  0  0  0  0
  4  3  1  0  0  0  0
  6 12  1  0  0  0  0
  6 11  2  0  0  0  0
  7  6  1  0  0  0  0
  8  7  1  0  0  0  0
  8  9  2  0  0  0  0
  9 10  1  0  0  0  0
 10 16  1  1  0  0  0
 10  3  1  0  0  0  0
 10 11  1  0  0  0  0
 11 17  1  0  0  0  0
 13  7  1  0  0  0  0
 14  8  1  0  0  0  0
 15  9  1  0  0  0  0
 18 21  1  0  0  0  0
 18 22  1  0  0  0  0
 19 18  2  0  0  0  0
 20 18  2  0  0  0  0
 21  5  1  0  0  0  0
 22 23  1  0  0  0  0
 22 24  1  0  0  0  0
 25 22  1  0  0  0  0
M  RAD  1   7   2
M  END
