Coordinates from ORCA-job C6H6+HOTf+NH2--N2+-scan
 OpenBabel10191813343D

 26 24  0  0  1  0  0  0  0  0999 V2000
    1.0002   -6.7835   -2.3180 N   0  0  0  0  0  0  0  0  0  0  0  0
    0.9206   -7.8744   -2.3781 N   0  0  0  0  0  0  0  0  0  0  0  0
    2.3172   -2.3869   -1.8251 N   0  0  0  0  0  0  0  0  0  0  0  0
    2.0700   -3.3681   -1.9005 H   0  0  0  0  0  0  0  0  0  0  0  0
    2.4343    0.0451    3.1758 H   0  0  0  0  0  0  0  0  0  0  0  0
   -1.1941   -1.2600   -2.5196 C   0  0  0  0  0  0  0  0  0  0  0  0
   -1.0478   -1.0475   -3.9036 C   0  0  0  0  0  0  0  0  0  0  0  0
    0.1988   -1.1043   -4.5561 C   0  0  0  0  0  0  0  0  0  0  0  0
    1.3224   -1.3939   -3.8266 C   0  0  0  0  0  0  0  0  0  0  0  0
    1.2717   -1.5413   -2.3576 C   0  0  1  0  0  0  0  0  0  0  0  0
   -0.0877   -1.5448   -1.7600 C   0  0  0  0  0  0  0  0  0  0  0  0
   -2.1799   -1.2274   -2.0711 H   0  0  0  0  0  0  0  0  0  0  0  0
   -1.9349   -0.8399   -4.4946 H   0  0  0  0  0  0  0  0  0  0  0  0
    0.2547   -0.9551   -5.6274 H   0  0  0  0  0  0  0  0  0  0  0  0
    2.3032   -1.4806   -4.2819 H   0  0  0  0  0  0  0  0  0  0  0  0
    1.5539   -0.4764   -2.1014 H   0  0  0  0  0  0  0  0  0  0  0  0
   -0.1644   -1.7117   -0.6887 H   0  0  0  0  0  0  0  0  0  0  0  0
    1.4868   -1.5545    2.0803 S   0  0  0  0  0  0  0  0  0  0  0  0
    0.1562   -1.6372    1.5195 O   0  0  0  0  0  0  0  0  0  0  0  0
    2.6611   -1.5841    1.2217 O   0  0  0  0  0  0  0  0  0  0  0  0
    1.5203   -0.2463    3.0173 O   0  0  0  0  0  0  0  0  0  0  0  0
    1.6730   -2.9224    3.3739 C   0  0  0  0  0  0  0  0  0  0  0  0
    2.7849   -2.6948    4.0608 F   0  0  0  0  0  0  0  0  0  0  0  0
    0.6247   -2.9148    4.1722 F   0  0  0  0  0  0  0  0  0  0  0  0
    1.7586   -4.0753    2.7275 F   0  0  0  0  0  0  0  0  0  0  0  0
    2.5459   -2.1721   -0.8586 H   0  0  0  0  0  0  0  0  0  0  0  0
  2  1  3  0  0  0  0
  3 26  1  0  0  0  0
  4  3  1  0  0  0  0
  6 12  1  0  0  0  0
  6 11  2  0  0  0  0
  7  6  1  0  0  0  0
  8  7  1  0  0  0  0
  8  9  2  0  0  0  0
  9 10  1  0  0  0  0
 10 16  1  1  0  0  0
 10  3  1  0  0  0  0
 10 11  1  0  0  0  0
 11 17  1  0  0  0  0
 13  7  1  0  0  0  0
 14  8  1  0  0  0  0
 15  9  1  0  0  0  0
 18 21  1  0  0  0  0
 18 22  1  0  0  0  0
 19 18  2  0  0  0  0
 20 18  2  0  0  0  0
 21  5  1  0  0  0  0
 22 23  1  0  0  0  0
 22 24  1  0  0  0  0
 25 22  1  0  0  0  0
M  RAD  1   7   2
M  END
