Coordinates from ORCA-job C6H6+HOTf+NH2--N2+-scan
 OpenBabel10191813343D

 26 24  0  0  1  0  0  0  0  0999 V2000
    1.0772   -6.4567   -2.2427 N   0  0  0  0  0  0  0  0  0  0  0  0
    0.9904   -7.5473   -2.2978 N   0  0  0  0  0  0  0  0  0  0  0  0
    2.2967   -2.4425   -1.8332 N   0  0  0  0  0  0  0  0  0  0  0  0
    2.0330   -3.4200   -1.9049 H   0  0  0  0  0  0  0  0  0  0  0  0
    2.4601    0.0121    3.1577 H   0  0  0  0  0  0  0  0  0  0  0  0
   -1.1983   -1.2624   -2.5228 C   0  0  0  0  0  0  0  0  0  0  0  0
   -1.0515   -1.0544   -3.9074 C   0  0  0  0  0  0  0  0  0  0  0  0
    0.1926   -1.1319   -4.5624 C   0  0  0  0  0  0  0  0  0  0  0  0
    1.3131   -1.4380   -3.8347 C   0  0  0  0  0  0  0  0  0  0  0  0
    1.2633   -1.5821   -2.3653 C   0  0  1  0  0  0  0  0  0  0  0  0
   -0.0948   -1.5633   -1.7650 C   0  0  0  0  0  0  0  0  0  0  0  0
   -2.1824   -1.2136   -2.0724 H   0  0  0  0  0  0  0  0  0  0  0  0
   -1.9364   -0.8336   -4.4969 H   0  0  0  0  0  0  0  0  0  0  0  0
    0.2487   -0.9854   -5.6341 H   0  0  0  0  0  0  0  0  0  0  0  0
    2.2915   -1.5408   -4.2918 H   0  0  0  0  0  0  0  0  0  0  0  0
    1.5620   -0.5210   -2.1120 H   0  0  0  0  0  0  0  0  0  0  0  0
   -0.1718   -1.7273   -0.6933 H   0  0  0  0  0  0  0  0  0  0  0  0
    1.4889   -1.5797    2.0718 S   0  0  0  0  0  0  0  0  0  0  0  0
    0.1559   -1.6472    1.5145 O   0  0  0  0  0  0  0  0  0  0  0  0
    2.6607   -1.6287    1.2108 O   0  0  0  0  0  0  0  0  0  0  0  0
    1.5419   -0.2679    3.0030 O   0  0  0  0  0  0  0  0  0  0  0  0
    1.6597   -2.9441    3.3711 C   0  0  0  0  0  0  0  0  0  0  0  0
    2.7764   -2.7286    4.0542 F   0  0  0  0  0  0  0  0  0  0  0  0
    0.6136   -2.9187    4.1720 F   0  0  0  0  0  0  0  0  0  0  0  0
    1.7281   -4.1010    2.7298 F   0  0  0  0  0  0  0  0  0  0  0  0
    2.5309   -2.2281   -0.8680 H   0  0  0  0  0  0  0  0  0  0  0  0
  2  1  3  0  0  0  0
  3 26  1  0  0  0  0
  4  3  1  0  0  0  0
  6 12  1  0  0  0  0
  6 11  2  0  0  0  0
  7  6  1  0  0  0  0
  8  7  1  0  0  0  0
  8  9  2  0  0  0  0
  9 10  1  0  0  0  0
 10 16  1  1  0  0  0
 10  3  1  0  0  0  0
 10 11  1  0  0  0  0
 11 17  1  0  0  0  0
 13  7  1  0  0  0  0
 14  8  1  0  0  0  0
 15  9  1  0  0  0  0
 18 21  1  0  0  0  0
 18 22  1  0  0  0  0
 19 18  2  0  0  0  0
 20 18  2  0  0  0  0
 21  5  1  0  0  0  0
 22 23  1  0  0  0  0
 22 24  1  0  0  0  0
 25 22  1  0  0  0  0
M  RAD  1   7   2
M  END
