Coordinates from ORCA-job C6H6+HOTf+NH2--N2+-scan
 OpenBabel10191813343D

 26 24  0  0  0  0  0  0  0  0999 V2000
    1.1962   -5.2433   -1.7456 N   0  0  0  0  0  0  0  0  0  0  0  0
    1.1752   -6.1761   -2.3813 N   0  0  0  0  0  0  0  0  0  0  0  0
    1.1548   -4.1914   -1.1690 N   0  0  0  0  0  0  0  0  0  0  0  0
    0.3185   -2.7034   -1.7552 H   0  0  0  0  0  0  0  0  0  0  0  0
    4.2039   -2.2687    2.5000 H   0  0  0  0  0  0  0  0  0  0  0  0
   -0.9990   -2.0894   -3.2431 C   0  0  0  0  0  0  0  0  0  0  0  0
   -0.6154   -1.5632   -4.4524 C   0  0  0  0  0  0  0  0  0  0  0  0
    0.4302   -0.6219   -4.4908 C   0  0  0  0  0  0  0  0  0  0  0  0
    1.1017   -0.1944   -3.3342 C   0  0  0  0  0  0  0  0  0  0  0  0
    0.7329   -0.7104   -2.1131 C   0  0  0  0  0  0  0  0  0  0  0  0
   -0.2891   -1.7363   -2.0271 C   0  0  0  0  0  0  0  0  0  0  0  0
   -1.8081   -2.8096   -3.1841 H   0  0  0  0  0  0  0  0  0  0  0  0
   -1.1169   -1.8495   -5.3685 H   0  0  0  0  0  0  0  0  0  0  0  0
    0.7234   -0.2071   -5.4501 H   0  0  0  0  0  0  0  0  0  0  0  0
    1.8886    0.5458   -3.4093 H   0  0  0  0  0  0  0  0  0  0  0  0
    1.2244   -0.4075   -1.1953 H   0  0  0  0  0  0  0  0  0  0  0  0
   -0.9028   -1.6976   -1.1196 H   0  0  0  0  0  0  0  0  0  0  0  0
    2.1415   -2.1450    1.8768 S   0  0  0  0  0  0  0  0  0  0  0  0
    1.4908   -1.1879    1.0104 O   0  0  0  0  0  0  0  0  0  0  0  0
    2.2402   -3.5506    1.5081 O   0  0  0  0  0  0  0  0  0  0  0  0
    3.6048   -1.5622    2.2036 O   0  0  0  0  0  0  0  0  0  0  0  0
    1.3280   -2.0558    3.5837 C   0  0  0  0  0  0  0  0  0  0  0  0
    2.0776   -2.7416    4.4351 F   0  0  0  0  0  0  0  0  0  0  0  0
    1.2380   -0.7941    3.9548 F   0  0  0  0  0  0  0  0  0  0  0  0
    0.1258   -2.5994    3.4829 F   0  0  0  0  0  0  0  0  0  0  0  0
    1.5843   -4.1914   -0.2367 H   0  0  0  0  0  0  0  0  0  0  0  0
  1  3  2  0  0  0  0
  2  1  2  0  0  0  0
  3 26  1  0  0  0  0
  6 12  1  0  0  0  0
  6 11  1  0  0  0  0
  7  6  2  0  0  0  0
  8  7  1  0  0  0  0
  8  9  1  0  0  0  0
  9 10  2  0  0  0  0
 10 11  1  0  0  0  0
 10 16  1  0  0  0  0
 11  4  1  0  0  0  0
 11 17  1  0  0  0  0
 13  7  1  0  0  0  0
 14  8  1  0  0  0  0
 15  9  1  0  0  0  0
 18 21  1  0  0  0  0
 18 22  1  0  0  0  0
 19 18  2  0  0  0  0
 20 18  2  0  0  0  0
 21  5  1  0  0  0  0
 22 24  1  0  0  0  0
 22 23  1  0  0  0  0
 25 22  1  0  0  0  0
M  RAD  2   2   2   8   2
M  END
