Coordinates from ORCA-job C6H6+HOTf+NH2--N2+-scan
 OpenBabel10191813343D

 26 24  0  0  1  0  0  0  0  0999 V2000
    0.6458   -8.3661   -2.7686 N   0  0  0  0  0  0  0  0  0  0  0  0
    0.6054   -9.4570   -2.8610 N   0  0  0  0  0  0  0  0  0  0  0  0
    2.3992   -2.1450   -1.7766 N   0  0  0  0  0  0  0  0  0  0  0  0
    2.2174   -3.1391   -1.8617 H   0  0  0  0  0  0  0  0  0  0  0  0
    2.3096    0.2197    3.2548 H   0  0  0  0  0  0  0  0  0  0  0  0
   -1.1708   -1.2423   -2.4985 C   0  0  0  0  0  0  0  0  0  0  0  0
   -1.0251   -1.0100   -3.8795 C   0  0  0  0  0  0  0  0  0  0  0  0
    0.2290   -0.9801   -4.5195 C   0  0  0  0  0  0  0  0  0  0  0  0
    1.3619   -1.2015   -3.7807 C   0  0  0  0  0  0  0  0  0  0  0  0
    1.3065   -1.3636   -2.3132 C   0  0  1  0  0  0  0  0  0  0  0  0
   -0.0557   -1.4601   -1.7295 C   0  0  0  0  0  0  0  0  0  0  0  0
   -2.1609   -1.2776   -2.0600 H   0  0  0  0  0  0  0  0  0  0  0  0
   -1.9180   -0.8563   -4.4781 H   0  0  0  0  0  0  0  0  0  0  0  0
    0.2855   -0.8192   -5.5891 H   0  0  0  0  0  0  0  0  0  0  0  0
    2.3506   -1.2206   -4.2266 H   0  0  0  0  0  0  0  0  0  0  0  0
    1.5175   -0.2853   -2.0456 H   0  0  0  0  0  0  0  0  0  0  0  0
   -0.1320   -1.6401   -0.6602 H   0  0  0  0  0  0  0  0  0  0  0  0
    1.4789   -1.4216    2.1267 S   0  0  0  0  0  0  0  0  0  0  0  0
    0.1624   -1.5819    1.5494 O   0  0  0  0  0  0  0  0  0  0  0  0
    2.6614   -1.3634    1.2807 O   0  0  0  0  0  0  0  0  0  0  0  0
    1.4180   -0.1273    3.0812 O   0  0  0  0  0  0  0  0  0  0  0  0
    1.7395   -2.7931    3.4037 C   0  0  0  0  0  0  0  0  0  0  0  0
    2.8270   -2.5038    4.1062 F   0  0  0  0  0  0  0  0  0  0  0  0
    0.6845   -2.8644    4.1898 F   0  0  0  0  0  0  0  0  0  0  0  0
    1.9065   -3.9285    2.7426 F   0  0  0  0  0  0  0  0  0  0  0  0
    2.6054   -1.9240   -0.8063 H   0  0  0  0  0  0  0  0  0  0  0  0
  2  1  3  0  0  0  0
  3 26  1  0  0  0  0
  4  3  1  0  0  0  0
  6 12  1  0  0  0  0
  6 11  2  0  0  0  0
  7  6  1  0  0  0  0
  8  7  1  0  0  0  0
  8  9  2  0  0  0  0
  9 10  1  0  0  0  0
 10 16  1  1  0  0  0
 10  3  1  0  0  0  0
 10 11  1  0  0  0  0
 11 17  1  0  0  0  0
 13  7  1  0  0  0  0
 14  8  1  0  0  0  0
 15  9  1  0  0  0  0
 18 21  1  0  0  0  0
 18 22  1  0  0  0  0
 19 18  2  0  0  0  0
 20 18  2  0  0  0  0
 21  5  1  0  0  0  0
 22 23  1  0  0  0  0
 22 24  1  0  0  0  0
 25 22  1  0  0  0  0
M  RAD  1   7   2
M  END
