Coordinates from ORCA-job C6H6+HOTf+NH2--N2+-scan
 OpenBabel10191813343D

 26 24  0  0  1  0  0  0  0  0999 V2000
    1.0084   -6.7416   -2.3088 N   0  0  0  0  0  0  0  0  0  0  0  0
    0.9273   -7.8324   -2.3683 N   0  0  0  0  0  0  0  0  0  0  0  0
    2.3152   -2.3933   -1.8260 N   0  0  0  0  0  0  0  0  0  0  0  0
    2.0663   -3.3742   -1.9011 H   0  0  0  0  0  0  0  0  0  0  0  0
    2.4371    0.0411    3.1738 H   0  0  0  0  0  0  0  0  0  0  0  0
   -1.1946   -1.2610   -2.5200 C   0  0  0  0  0  0  0  0  0  0  0  0
   -1.0482   -1.0490   -3.9041 C   0  0  0  0  0  0  0  0  0  0  0  0
    0.1981   -1.1080   -4.5569 C   0  0  0  0  0  0  0  0  0  0  0  0
    1.3214   -1.3993   -3.8276 C   0  0  0  0  0  0  0  0  0  0  0  0
    1.2709   -1.5462   -2.3585 C   0  0  1  0  0  0  0  0  0  0  0  0
   -0.0884   -1.5474   -1.7606 C   0  0  0  0  0  0  0  0  0  0  0  0
   -2.1801   -1.2267   -2.0714 H   0  0  0  0  0  0  0  0  0  0  0  0
   -1.9351   -0.8401   -4.4950 H   0  0  0  0  0  0  0  0  0  0  0  0
    0.2540   -0.9592   -5.6283 H   0  0  0  0  0  0  0  0  0  0  0  0
    2.3020   -1.4877   -4.2831 H   0  0  0  0  0  0  0  0  0  0  0  0
    1.5548   -0.4817   -2.1027 H   0  0  0  0  0  0  0  0  0  0  0  0
   -0.1651   -1.7140   -0.6893 H   0  0  0  0  0  0  0  0  0  0  0  0
    1.4870   -1.5577    2.0793 S   0  0  0  0  0  0  0  0  0  0  0  0
    0.1562   -1.6387    1.5189 O   0  0  0  0  0  0  0  0  0  0  0  0
    2.6611   -1.5894    1.2205 O   0  0  0  0  0  0  0  0  0  0  0  0
    1.5227   -0.2490    3.0156 O   0  0  0  0  0  0  0  0  0  0  0  0
    1.6715   -2.9252    3.3735 C   0  0  0  0  0  0  0  0  0  0  0  0
    2.7840   -2.6989    4.0600 F   0  0  0  0  0  0  0  0  0  0  0  0
    0.6235   -2.9156    4.1722 F   0  0  0  0  0  0  0  0  0  0  0  0
    1.7553   -4.0786    2.7277 F   0  0  0  0  0  0  0  0  0  0  0  0
    2.5444   -2.1786   -0.8596 H   0  0  0  0  0  0  0  0  0  0  0  0
  2  1  3  0  0  0  0
  3 26  1  0  0  0  0
  4  3  1  0  0  0  0
  6 12  1  0  0  0  0
  6 11  2  0  0  0  0
  7  6  1  0  0  0  0
  8  7  1  0  0  0  0
  8  9  2  0  0  0  0
  9 10  1  0  0  0  0
 10 16  1  1  0  0  0
 10  3  1  0  0  0  0
 10 11  1  0  0  0  0
 11 17  1  0  0  0  0
 13  7  1  0  0  0  0
 14  8  1  0  0  0  0
 15  9  1  0  0  0  0
 18 21  1  0  0  0  0
 18 22  1  0  0  0  0
 19 18  2  0  0  0  0
 20 18  2  0  0  0  0
 21  5  1  0  0  0  0
 22 23  1  0  0  0  0
 22 24  1  0  0  0  0
 25 22  1  0  0  0  0
M  RAD  1   7   2
M  END
