Coordinates from ORCA-job C6H6+HOTf+NH2--N2+-scan
 OpenBabel10191813343D

 26 24  0  0  1  0  0  0  0  0999 V2000
    1.3303   -5.8937   -2.0639 N   0  0  0  0  0  0  0  0  0  0  0  0
    1.3199   -6.9887   -2.0808 N   0  0  0  0  0  0  0  0  0  0  0  0
    2.2169   -2.5824   -1.8582 N   0  0  0  0  0  0  0  0  0  0  0  0
    1.9027   -3.5452   -1.9238 H   0  0  0  0  0  0  0  0  0  0  0  0
    2.5493   -0.0754    3.1074 H   0  0  0  0  0  0  0  0  0  0  0  0
   -1.2125   -1.2114   -2.5258 C   0  0  0  0  0  0  0  0  0  0  0  0
   -1.0657   -1.0163   -3.9122 C   0  0  0  0  0  0  0  0  0  0  0  0
    0.1666   -1.1663   -4.5765 C   0  0  0  0  0  0  0  0  0  0  0  0
    1.2740   -1.5328   -3.8563 C   0  0  0  0  0  0  0  0  0  0  0  0
    1.2283   -1.6706   -2.3865 C   0  0  1  0  0  0  0  0  0  0  0  0
   -0.1216   -1.5727   -1.7759 C   0  0  0  0  0  0  0  0  0  0  0  0
   -2.1885   -1.1051   -2.0676 H   0  0  0  0  0  0  0  0  0  0  0  0
   -1.9413   -0.7470   -4.4953 H   0  0  0  0  0  0  0  0  0  0  0  0
    0.2225   -1.0258   -5.6489 H   0  0  0  0  0  0  0  0  0  0  0  0
    2.2417   -1.6909   -4.3206 H   0  0  0  0  0  0  0  0  0  0  0  0
    1.5845   -0.6246   -2.1419 H   0  0  0  0  0  0  0  0  0  0  0  0
   -0.1988   -1.7284   -0.7031 H   0  0  0  0  0  0  0  0  0  0  0  0
    1.4955   -1.6329    2.0491 S   0  0  0  0  0  0  0  0  0  0  0  0
    0.1567   -1.6436    1.5020 O   0  0  0  0  0  0  0  0  0  0  0  0
    2.6577   -1.7485    1.1817 O   0  0  0  0  0  0  0  0  0  0  0  0
    1.6177   -0.3139    2.9638 O   0  0  0  0  0  0  0  0  0  0  0  0
    1.6101   -2.9875    3.3643 C   0  0  0  0  0  0  0  0  0  0  0  0
    2.7410   -2.8184    4.0370 F   0  0  0  0  0  0  0  0  0  0  0  0
    0.5726   -2.9020    4.1723 F   0  0  0  0  0  0  0  0  0  0  0  0
    1.6175   -4.1545    2.7374 F   0  0  0  0  0  0  0  0  0  0  0  0
    2.4725   -2.3737   -0.8975 H   0  0  0  0  0  0  0  0  0  0  0  0
  2  1  3  0  0  0  0
  3 26  1  0  0  0  0
  4  3  1  0  0  0  0
  6 12  1  0  0  0  0
  6 11  2  0  0  0  0
  7  6  1  0  0  0  0
  8  7  1  0  0  0  0
  8  9  2  0  0  0  0
  9 10  1  0  0  0  0
 10 16  1  1  0  0  0
 10  3  1  0  0  0  0
 10 11  1  0  0  0  0
 11 17  1  0  0  0  0
 13  7  1  0  0  0  0
 14  8  1  0  0  0  0
 15  9  1  0  0  0  0
 18 21  1  0  0  0  0
 18 22  1  0  0  0  0
 19 18  2  0  0  0  0
 20 18  2  0  0  0  0
 21  5  1  0  0  0  0
 22 23  1  0  0  0  0
 22 24  1  0  0  0  0
 25 22  1  0  0  0  0
M  RAD  1   7   2
M  END
