Coordinates from ORCA-job C6H6+HOTf+NH2--N2+-scan
 OpenBabel10191813343D

 26 24  0  0  0  0  0  0  0  0999 V2000
    2.4061   -4.6823   -1.6357 N   0  0  0  0  0  0  0  0  0  0  0  0
    3.2787   -5.2858   -1.9423 N   0  0  0  0  0  0  0  0  0  0  0  0
    1.7386   -3.1312   -1.9127 N   0  0  0  0  0  0  0  0  0  0  0  0
    0.7815   -3.4662   -2.0729 H   0  0  0  0  0  0  0  0  0  0  0  0
    3.5329   -1.5592    2.7803 H   0  0  0  0  0  0  0  0  0  0  0  0
   -1.0934   -1.1152   -2.3980 C   0  0  0  0  0  0  0  0  0  0  0  0
   -1.1777   -1.3851   -3.7664 C   0  0  0  0  0  0  0  0  0  0  0  0
   -0.0194   -1.5337   -4.5523 C   0  0  0  0  0  0  0  0  0  0  0  0
    1.2235   -1.4138   -3.9703 C   0  0  0  0  0  0  0  0  0  0  0  0
    1.3354   -1.1736   -2.5672 C   0  0  0  0  0  0  0  0  0  0  0  0
    0.1521   -0.9800   -1.7987 C   0  0  0  0  0  0  0  0  0  0  0  0
   -1.9953   -0.9820   -1.8132 H   0  0  0  0  0  0  0  0  0  0  0  0
   -2.1520   -1.4725   -4.2344 H   0  0  0  0  0  0  0  0  0  0  0  0
   -0.1109   -1.7243   -5.6148 H   0  0  0  0  0  0  0  0  0  0  0  0
    2.1256   -1.5130   -4.5623 H   0  0  0  0  0  0  0  0  0  0  0  0
    2.2851   -0.8307   -2.1732 H   0  0  0  0  0  0  0  0  0  0  0  0
    0.2281   -0.7189   -0.7487 H   0  0  0  0  0  0  0  0  0  0  0  0
    1.5330   -1.8154    2.0003 S   0  0  0  0  0  0  0  0  0  0  0  0
    0.5259   -0.8435    1.6591 O   0  0  0  0  0  0  0  0  0  0  0  0
    2.1124   -2.6838    0.9750 O   0  0  0  0  0  0  0  0  0  0  0  0
    2.7094   -1.0424    2.7751 O   0  0  0  0  0  0  0  0  0  0  0  0
    0.8720   -2.9418    3.3714 C   0  0  0  0  0  0  0  0  0  0  0  0
    1.8890   -3.6489    3.8492 F   0  0  0  0  0  0  0  0  0  0  0  0
    0.3321   -2.2044    4.3175 F   0  0  0  0  0  0  0  0  0  0  0  0
   -0.0305   -3.7440    2.8279 F   0  0  0  0  0  0  0  0  0  0  0  0
    1.7674   -2.8605   -0.9125 H   0  0  0  0  0  0  0  0  0  0  0  0
  2  1  2  0  0  0  0
  3  1  1  0  0  0  0
  3 26  1  0  0  0  0
  4  3  1  0  0  0  0
  6 12  1  0  0  0  0
  6 11  1  0  0  0  0
  7  6  2  0  0  0  0
  8  9  2  0  0  0  0
  8  7  1  0  0  0  0
  9 10  1  0  0  0  0
 10 16  1  0  0  0  0
 10 11  2  0  0  0  0
 11 17  1  0  0  0  0
 13  7  1  0  0  0  0
 14  8  1  0  0  0  0
 15  9  1  0  0  0  0
 18 21  1  0  0  0  0
 18 22  1  0  0  0  0
 19 18  2  0  0  0  0
 20 18  2  0  0  0  0
 21  5  1  0  0  0  0
 22 23  1  0  0  0  0
 22 24  1  0  0  0  0
 25 22  1  0  0  0  0
M  RAD  1   2   2
M  END
