Coordinates from ORCA-job C6H6+HOTf+NH2--N2+-scan
 OpenBabel10191813343D

 26 24  0  0  0  0  0  0  0  0999 V2000
    1.3125   -4.7634   -1.8081 N   0  0  0  0  0  0  0  0  0  0  0  0
    1.2043   -5.8372   -2.0238 N   0  0  0  0  0  0  0  0  0  0  0  0
    1.6904   -3.2816   -1.7365 N   0  0  0  0  0  0  0  0  0  0  0  0
    0.7985   -2.8132   -2.0205 H   0  0  0  0  0  0  0  0  0  0  0  0
    3.8058   -1.7998    2.4993 H   0  0  0  0  0  0  0  0  0  0  0  0
   -0.9965   -1.6763   -2.5982 C   0  0  0  0  0  0  0  0  0  0  0  0
   -0.6646   -2.0265   -3.9123 C   0  0  0  0  0  0  0  0  0  0  0  0
    0.4698   -1.4798   -4.5159 C   0  0  0  0  0  0  0  0  0  0  0  0
    1.2754   -0.5872   -3.8084 C   0  0  0  0  0  0  0  0  0  0  0  0
    0.9492   -0.2370   -2.4958 C   0  0  0  0  0  0  0  0  0  0  0  0
   -0.1904   -0.7761   -1.8890 C   0  0  0  0  0  0  0  0  0  0  0  0
   -1.8980   -2.0714   -2.1420 H   0  0  0  0  0  0  0  0  0  0  0  0
   -1.3049   -2.7007   -4.4706 H   0  0  0  0  0  0  0  0  0  0  0  0
    0.7158   -1.7375   -5.5396 H   0  0  0  0  0  0  0  0  0  0  0  0
    2.1492   -0.1546   -4.2819 H   0  0  0  0  0  0  0  0  0  0  0  0
    1.5625    0.4749   -1.9551 H   0  0  0  0  0  0  0  0  0  0  0  0
   -0.4547   -0.4861   -0.8782 H   0  0  0  0  0  0  0  0  0  0  0  0
    1.7189   -1.9971    1.9652 S   0  0  0  0  0  0  0  0  0  0  0  0
    0.7317   -1.0120    1.6187 O   0  0  0  0  0  0  0  0  0  0  0  0
    2.1324   -3.0231    0.9963 O   0  0  0  0  0  0  0  0  0  0  0  0
    3.0209   -1.2254    2.4962 O   0  0  0  0  0  0  0  0  0  0  0  0
    1.1781   -2.9339    3.5218 C   0  0  0  0  0  0  0  0  0  0  0  0
    2.2211   -3.6236    3.9665 F   0  0  0  0  0  0  0  0  0  0  0  0
    0.7701   -2.0695    4.4236 F   0  0  0  0  0  0  0  0  0  0  0  0
    0.1982   -3.7520    3.1737 F   0  0  0  0  0  0  0  0  0  0  0  0
    1.8542   -3.1621   -0.7053 H   0  0  0  0  0  0  0  0  0  0  0  0
  1  3  1  0  0  0  0
  2  1  1  0  0  0  0
  3 26  1  0  0  0  0
  4  3  1  0  0  0  0
  6 12  1  0  0  0  0
  6 11  2  0  0  0  0
  7  6  1  0  0  0  0
  8  7  2  0  0  0  0
  8  9  1  0  0  0  0
  9 10  2  0  0  0  0
 10 16  1  0  0  0  0
 10 11  1  0  0  0  0
 11 17  1  0  0  0  0
 13  7  1  0  0  0  0
 14  8  1  0  0  0  0
 15  9  1  0  0  0  0
 18 21  1  0  0  0  0
 18 22  1  0  0  0  0
 19 18  2  0  0  0  0
 20 18  2  0  0  0  0
 21  5  1  0  0  0  0
 22 23  1  0  0  0  0
 22 24  1  0  0  0  0
 25 22  1  0  0  0  0
M  RAD  2   1   2   2   3
M  END
