Coordinates from ORCA-job C6H6+HOTf+NH2--N2+-scan
 OpenBabel10191813343D

 26 24  0  0  1  0  0  0  0  0999 V2000
    1.2442   -6.0339   -2.1228 N   0  0  0  0  0  0  0  0  0  0  0  0
    1.1940   -7.1274   -2.1589 N   0  0  0  0  0  0  0  0  0  0  0  0
    2.2452   -2.5404   -1.8490 N   0  0  0  0  0  0  0  0  0  0  0  0
    1.9463   -3.5085   -1.9150 H   0  0  0  0  0  0  0  0  0  0  0  0
    2.5185   -0.0461    3.1234 H   0  0  0  0  0  0  0  0  0  0  0  0
   -1.2078   -1.2350   -2.5253 C   0  0  0  0  0  0  0  0  0  0  0  0
   -1.0604   -1.0357   -3.9110 C   0  0  0  0  0  0  0  0  0  0  0  0
    0.1766   -1.1607   -4.5718 C   0  0  0  0  0  0  0  0  0  0  0  0
    1.2887   -1.5063   -3.8487 C   0  0  0  0  0  0  0  0  0  0  0  0
    1.2411   -1.6457   -2.3790 C   0  0  1  0  0  0  0  0  0  0  0  0
   -0.1123   -1.5751   -1.7723 C   0  0  0  0  0  0  0  0  0  0  0  0
   -2.1871   -1.1486   -2.0700 H   0  0  0  0  0  0  0  0  0  0  0  0
   -1.9394   -0.7833   -4.4967 H   0  0  0  0  0  0  0  0  0  0  0  0
    0.2329   -1.0184   -5.6440 H   0  0  0  0  0  0  0  0  0  0  0  0
    2.2605   -1.6456   -4.3102 H   0  0  0  0  0  0  0  0  0  0  0  0
    1.5780   -0.5944   -2.1312 H   0  0  0  0  0  0  0  0  0  0  0  0
   -0.1897   -1.7335   -0.6998 H   0  0  0  0  0  0  0  0  0  0  0  0
    1.4934   -1.6169    2.0566 S   0  0  0  0  0  0  0  0  0  0  0  0
    0.1563   -1.6481    1.5063 O   0  0  0  0  0  0  0  0  0  0  0  0
    2.6592   -1.7097    1.1912 O   0  0  0  0  0  0  0  0  0  0  0  0
    1.5913   -0.2994    2.9762 O   0  0  0  0  0  0  0  0  0  0  0  0
    1.6280   -2.9744    3.3672 C   0  0  0  0  0  0  0  0  0  0  0  0
    2.7543   -2.7883    4.0430 F   0  0  0  0  0  0  0  0  0  0  0  0
    0.5873   -2.9093    4.1730 F   0  0  0  0  0  0  0  0  0  0  0  0
    1.6568   -4.1386    2.7360 F   0  0  0  0  0  0  0  0  0  0  0  0
    2.4935   -2.3289   -0.8868 H   0  0  0  0  0  0  0  0  0  0  0  0
  2  1  3  0  0  0  0
  3 26  1  0  0  0  0
  4  3  1  0  0  0  0
  6 12  1  0  0  0  0
  6 11  2  0  0  0  0
  7  6  1  0  0  0  0
  8  7  1  0  0  0  0
  8  9  2  0  0  0  0
  9 10  1  0  0  0  0
 10 16  1  1  0  0  0
 10  3  1  0  0  0  0
 10 11  1  0  0  0  0
 11 17  1  0  0  0  0
 13  7  1  0  0  0  0
 14  8  1  0  0  0  0
 15  9  1  0  0  0  0
 18 21  1  0  0  0  0
 18 22  1  0  0  0  0
 19 18  2  0  0  0  0
 20 18  2  0  0  0  0
 21  5  1  0  0  0  0
 22 23  1  0  0  0  0
 22 24  1  0  0  0  0
 25 22  1  0  0  0  0
M  RAD  1   7   2
M  END
