Coordinates from ORCA-job C6H6+HOTf+NH2--N2+-scan
 OpenBabel10191813343D

 26 24  0  0  0  0  0  0  0  0999 V2000
    1.1118   -5.1690   -1.6945 N   0  0  0  0  0  0  0  0  0  0  0  0
    1.0238   -6.0699   -2.3891 N   0  0  0  0  0  0  0  0  0  0  0  0
    1.1548   -4.2803   -1.1000 N   0  0  0  0  0  0  0  0  0  0  0  0
    0.3074   -2.6784   -1.7055 H   0  0  0  0  0  0  0  0  0  0  0  0
    4.2176   -2.2762    2.4504 H   0  0  0  0  0  0  0  0  0  0  0  0
   -0.9447   -2.1416   -3.2809 C   0  0  0  0  0  0  0  0  0  0  0  0
   -0.5514   -1.6008   -4.4793 C   0  0  0  0  0  0  0  0  0  0  0  0
    0.4501   -0.6113   -4.4897 C   0  0  0  0  0  0  0  0  0  0  0  0
    1.0689   -0.1488   -3.3155 C   0  0  0  0  0  0  0  0  0  0  0  0
    0.6920   -0.6779   -2.1045 C   0  0  0  0  0  0  0  0  0  0  0  0
   -0.2920   -1.7483   -2.0398 C   0  0  0  0  0  0  0  0  0  0  0  0
   -1.7199   -2.8997   -3.2431 H   0  0  0  0  0  0  0  0  0  0  0  0
   -1.0096   -1.9140   -5.4091 H   0  0  0  0  0  0  0  0  0  0  0  0
    0.7516   -0.1858   -5.4419 H   0  0  0  0  0  0  0  0  0  0  0  0
    1.8231    0.6262   -3.3729 H   0  0  0  0  0  0  0  0  0  0  0  0
    1.1452   -0.3511   -1.1752 H   0  0  0  0  0  0  0  0  0  0  0  0
   -0.9638   -1.6829   -1.1739 H   0  0  0  0  0  0  0  0  0  0  0  0
    2.1433   -2.1556    1.8657 S   0  0  0  0  0  0  0  0  0  0  0  0
    1.4749   -1.2041    1.0069 O   0  0  0  0  0  0  0  0  0  0  0  0
    2.2363   -3.5637    1.4996 O   0  0  0  0  0  0  0  0  0  0  0  0
    3.6123   -1.5724    2.1597 O   0  0  0  0  0  0  0  0  0  0  0  0
    1.3625   -2.0642    3.5887 C   0  0  0  0  0  0  0  0  0  0  0  0
    2.1318   -2.7442    4.4263 F   0  0  0  0  0  0  0  0  0  0  0  0
    1.2758   -0.8015    3.9558 F   0  0  0  0  0  0  0  0  0  0  0  0
    0.1611   -2.6124    3.5121 F   0  0  0  0  0  0  0  0  0  0  0  0
    1.5867   -4.2243   -0.1702 H   0  0  0  0  0  0  0  0  0  0  0  0
  1  3  2  0  0  0  0
  2  1  2  0  0  0  0
  3 26  1  0  0  0  0
  6 12  1  0  0  0  0
  6 11  1  0  0  0  0
  7  6  2  0  0  0  0
  8  7  1  0  0  0  0
  8  9  1  0  0  0  0
  9 10  2  0  0  0  0
 10 11  1  0  0  0  0
 10 16  1  0  0  0  0
 11  4  1  0  0  0  0
 11 17  1  0  0  0  0
 13  7  1  0  0  0  0
 14  8  1  0  0  0  0
 15  9  1  0  0  0  0
 18 21  1  0  0  0  0
 18 22  1  0  0  0  0
 19 18  2  0  0  0  0
 20 18  2  0  0  0  0
 21  5  1  0  0  0  0
 22 24  1  0  0  0  0
 22 23  1  0  0  0  0
 25 22  1  0  0  0  0
M  RAD  2   2   2   8   2
M  END
