Coordinates from ORCA-job C6H6+HOTf+NH2--N2+-scan
 OpenBabel10191813343D

 26 24  0  0  1  0  0  0  0  0999 V2000
    1.0067   -6.7499   -2.3106 N   0  0  0  0  0  0  0  0  0  0  0  0
    0.9259   -7.8408   -2.3702 N   0  0  0  0  0  0  0  0  0  0  0  0
    2.3156   -2.3920   -1.8258 N   0  0  0  0  0  0  0  0  0  0  0  0
    2.0670   -3.3730   -1.9010 H   0  0  0  0  0  0  0  0  0  0  0  0
    2.4366    0.0419    3.1742 H   0  0  0  0  0  0  0  0  0  0  0  0
   -1.1945   -1.2608   -2.5199 C   0  0  0  0  0  0  0  0  0  0  0  0
   -1.0482   -1.0487   -3.9040 C   0  0  0  0  0  0  0  0  0  0  0  0
    0.1982   -1.1073   -4.5568 C   0  0  0  0  0  0  0  0  0  0  0  0
    1.3216   -1.3982   -3.8274 C   0  0  0  0  0  0  0  0  0  0  0  0
    1.2711   -1.5452   -2.3583 C   0  0  1  0  0  0  0  0  0  0  0  0
   -0.0883   -1.5468   -1.7605 C   0  0  0  0  0  0  0  0  0  0  0  0
   -2.1801   -1.2268   -2.0713 H   0  0  0  0  0  0  0  0  0  0  0  0
   -1.9351   -0.8400   -4.4949 H   0  0  0  0  0  0  0  0  0  0  0  0
    0.2541   -0.9584   -5.6281 H   0  0  0  0  0  0  0  0  0  0  0  0
    2.3022   -1.4863   -4.2829 H   0  0  0  0  0  0  0  0  0  0  0  0
    1.5546   -0.4807   -2.1024 H   0  0  0  0  0  0  0  0  0  0  0  0
   -0.1650   -1.7135   -0.6891 H   0  0  0  0  0  0  0  0  0  0  0  0
    1.4870   -1.5570    2.0795 S   0  0  0  0  0  0  0  0  0  0  0  0
    0.1562   -1.6384    1.5190 O   0  0  0  0  0  0  0  0  0  0  0  0
    2.6611   -1.5883    1.2207 O   0  0  0  0  0  0  0  0  0  0  0  0
    1.5222   -0.2485    3.0160 O   0  0  0  0  0  0  0  0  0  0  0  0
    1.6718   -2.9247    3.3736 C   0  0  0  0  0  0  0  0  0  0  0  0
    2.7842   -2.6981    4.0601 F   0  0  0  0  0  0  0  0  0  0  0  0
    0.6237   -2.9154    4.1722 F   0  0  0  0  0  0  0  0  0  0  0  0
    1.7559   -4.0779    2.7277 F   0  0  0  0  0  0  0  0  0  0  0  0
    2.5447   -2.1773   -0.8594 H   0  0  0  0  0  0  0  0  0  0  0  0
  2  1  3  0  0  0  0
  3 26  1  0  0  0  0
  4  3  1  0  0  0  0
  6 12  1  0  0  0  0
  6 11  2  0  0  0  0
  7  6  1  0  0  0  0
  8  7  1  0  0  0  0
  8  9  2  0  0  0  0
  9 10  1  0  0  0  0
 10 16  1  1  0  0  0
 10  3  1  0  0  0  0
 10 11  1  0  0  0  0
 11 17  1  0  0  0  0
 13  7  1  0  0  0  0
 14  8  1  0  0  0  0
 15  9  1  0  0  0  0
 18 21  1  0  0  0  0
 18 22  1  0  0  0  0
 19 18  2  0  0  0  0
 20 18  2  0  0  0  0
 21  5  1  0  0  0  0
 22 23  1  0  0  0  0
 22 24  1  0  0  0  0
 25 22  1  0  0  0  0
M  RAD  1   7   2
M  END
