Coordinates from ORCA-job C6H6+HOTf+NH2--N2+-scan
 OpenBabel10191813343D

 26 24  0  0  0  0  0  0  0  0999 V2000
    2.3436   -4.7075   -1.6190 N   0  0  0  0  0  0  0  0  0  0  0  0
    3.1783   -5.3814   -1.8825 N   0  0  0  0  0  0  0  0  0  0  0  0
    1.7389   -3.1736   -1.8912 N   0  0  0  0  0  0  0  0  0  0  0  0
    0.7687   -3.4547   -2.0763 H   0  0  0  0  0  0  0  0  0  0  0  0
    3.5560   -1.5700    2.7403 H   0  0  0  0  0  0  0  0  0  0  0  0
   -1.1141   -1.1299   -2.4306 C   0  0  0  0  0  0  0  0  0  0  0  0
   -1.1642   -1.4137   -3.7984 C   0  0  0  0  0  0  0  0  0  0  0  0
    0.0126   -1.5245   -4.5576 C   0  0  0  0  0  0  0  0  0  0  0  0
    1.2412   -1.3517   -3.9505 C   0  0  0  0  0  0  0  0  0  0  0  0
    1.3122   -1.0872   -2.5562 C   0  0  0  0  0  0  0  0  0  0  0  0
    0.1149   -0.9454   -1.8083 C   0  0  0  0  0  0  0  0  0  0  0  0
   -2.0312   -1.0262   -1.8633 H   0  0  0  0  0  0  0  0  0  0  0  0
   -2.1256   -1.5403   -4.2836 H   0  0  0  0  0  0  0  0  0  0  0  0
   -0.0485   -1.7282   -5.6199 H   0  0  0  0  0  0  0  0  0  0  0  0
    2.1571   -1.4197   -4.5255 H   0  0  0  0  0  0  0  0  0  0  0  0
    2.2544   -0.7669   -2.1272 H   0  0  0  0  0  0  0  0  0  0  0  0
    0.1619   -0.6767   -0.7587 H   0  0  0  0  0  0  0  0  0  0  0  0
    1.5427   -1.8247    1.9934 S   0  0  0  0  0  0  0  0  0  0  0  0
    0.5317   -0.8542    1.6638 O   0  0  0  0  0  0  0  0  0  0  0  0
    2.1038   -2.7028    0.9646 O   0  0  0  0  0  0  0  0  0  0  0  0
    2.7347   -1.0496    2.7410 O   0  0  0  0  0  0  0  0  0  0  0  0
    0.9066   -2.9437    3.3825 C   0  0  0  0  0  0  0  0  0  0  0  0
    1.9334   -3.6455    3.8477 F   0  0  0  0  0  0  0  0  0  0  0  0
    0.3810   -2.2016    4.3324 F   0  0  0  0  0  0  0  0  0  0  0  0
   -0.0025   -3.7516    2.8590 F   0  0  0  0  0  0  0  0  0  0  0  0
    1.7620   -2.8808   -0.8954 H   0  0  0  0  0  0  0  0  0  0  0  0
  2  1  2  0  0  0  0
  3  1  1  0  0  0  0
  3 26  1  0  0  0  0
  4  3  1  0  0  0  0
  5 21  1  0  0  0  0
  6 12  1  0  0  0  0
  6 11  1  0  0  0  0
  7  6  2  0  0  0  0
  8  9  2  0  0  0  0
  8  7  1  0  0  0  0
  9 10  1  0  0  0  0
 10 16  1  0  0  0  0
 10 11  2  0  0  0  0
 11 17  1  0  0  0  0
 13  7  1  0  0  0  0
 14  8  1  0  0  0  0
 15  9  1  0  0  0  0
 18 21  1  0  0  0  0
 18 22  1  0  0  0  0
 19 18  2  0  0  0  0
 20 18  2  0  0  0  0
 22 23  1  0  0  0  0
 22 24  1  0  0  0  0
 25 22  1  0  0  0  0
M  RAD  1   2   2
M  END
