Coordinates from ORCA-job C6H6+HOTf+NH2--N2+-scan
 OpenBabel10191813343D

 26 24  0  0  1  0  0  0  0  0999 V2000
    0.7390   -7.9088   -2.6371 N   0  0  0  0  0  0  0  0  0  0  0  0
    0.6885   -8.9998   -2.7221 N   0  0  0  0  0  0  0  0  0  0  0  0
    2.3785   -2.2118   -1.7903 N   0  0  0  0  0  0  0  0  0  0  0  0
    2.1798   -3.2030   -1.8732 H   0  0  0  0  0  0  0  0  0  0  0  0
    2.3419    0.1715    3.2331 H   0  0  0  0  0  0  0  0  0  0  0  0
   -1.1777   -1.2510   -2.5051 C   0  0  0  0  0  0  0  0  0  0  0  0
   -1.0316   -1.0237   -3.8869 C   0  0  0  0  0  0  0  0  0  0  0  0
    0.2211   -1.0161   -4.5302 C   0  0  0  0  0  0  0  0  0  0  0  0
    1.3520   -1.2550   -3.7937 C   0  0  0  0  0  0  0  0  0  0  0  0
    1.2976   -1.4134   -2.3258 C   0  0  1  0  0  0  0  0  0  0  0  0
   -0.0645   -1.4860   -1.7385 C   0  0  0  0  0  0  0  0  0  0  0  0
   -2.1672   -1.2689   -2.0642 H   0  0  0  0  0  0  0  0  0  0  0  0
   -1.9233   -0.8563   -4.4836 H   0  0  0  0  0  0  0  0  0  0  0  0
    0.2776   -0.8582   -5.6002 H   0  0  0  0  0  0  0  0  0  0  0  0
    2.3392   -1.2915   -4.2420 H   0  0  0  0  0  0  0  0  0  0  0  0
    1.5272   -0.3383   -2.0608 H   0  0  0  0  0  0  0  0  0  0  0  0
   -0.1411   -1.6627   -0.6687 H   0  0  0  0  0  0  0  0  0  0  0  0
    1.4807   -1.4599    2.1134 S   0  0  0  0  0  0  0  0  0  0  0  0
    0.1600   -1.6002    1.5406 O   0  0  0  0  0  0  0  0  0  0  0  0
    2.6616   -1.4244    1.2639 O   0  0  0  0  0  0  0  0  0  0  0  0
    1.4442   -0.1612    3.0633 O   0  0  0  0  0  0  0  0  0  0  0  0
    1.7222   -2.8308    3.3947 C   0  0  0  0  0  0  0  0  0  0  0  0
    2.8164   -2.5570    4.0931 F   0  0  0  0  0  0  0  0  0  0  0  0
    0.6684   -2.8818    4.1841 F   0  0  0  0  0  0  0  0  0  0  0  0
    1.8684   -3.9713    2.7374 F   0  0  0  0  0  0  0  0  0  0  0  0
    2.5905   -1.9925   -0.8210 H   0  0  0  0  0  0  0  0  0  0  0  0
  2  1  3  0  0  0  0
  3 26  1  0  0  0  0
  4  3  1  0  0  0  0
  6 12  1  0  0  0  0
  6 11  2  0  0  0  0
  7  6  1  0  0  0  0
  8  7  1  0  0  0  0
  8  9  2  0  0  0  0
  9 10  1  0  0  0  0
 10 16  1  1  0  0  0
 10  3  1  0  0  0  0
 10 11  1  0  0  0  0
 11 17  1  0  0  0  0
 13  7  1  0  0  0  0
 14  8  1  0  0  0  0
 15  9  1  0  0  0  0
 18 21  1  0  0  0  0
 18 22  1  0  0  0  0
 19 18  2  0  0  0  0
 20 18  2  0  0  0  0
 21  5  1  0  0  0  0
 22 23  1  0  0  0  0
 22 24  1  0  0  0  0
 25 22  1  0  0  0  0
M  RAD  1   7   2
M  END
