Coordinates from ORCA-job C6H6+HOTf+NH2--N2+-scan
 OpenBabel10191813343D

 26 24  0  0  1  0  0  0  0  0999 V2000
    2.5568   -4.7211   -1.7426 N   0  0  0  0  0  0  0  0  0  0  0  0
    3.5043   -5.0048   -2.2286 N   0  0  0  0  0  0  0  0  0  0  0  0
    1.6078   -3.0481   -1.9186 N   0  0  0  0  0  0  0  0  0  0  0  0
    0.7477   -3.5830   -2.0473 H   0  0  0  0  0  0  0  0  0  0  0  0
    3.4220   -1.2754    2.8601 H   0  0  0  0  0  0  0  0  0  0  0  0
   -1.0776   -1.0103   -2.3823 C   0  0  0  0  0  0  0  0  0  0  0  0
   -1.1555   -1.1541   -3.7675 C   0  0  0  0  0  0  0  0  0  0  0  0
   -0.0186   -1.4735   -4.5621 C   0  0  0  0  0  0  0  0  0  0  0  0
    1.1852   -1.6790   -3.9651 C   0  0  0  0  0  0  0  0  0  0  0  0
    1.3367   -1.5843   -2.4984 C   0  0  1  0  0  0  0  0  0  0  0  0
    0.1506   -1.1458   -1.7604 C   0  0  0  0  0  0  0  0  0  0  0  0
   -1.9610   -0.7613   -1.8076 H   0  0  0  0  0  0  0  0  0  0  0  0
   -2.1130   -1.0182   -4.2604 H   0  0  0  0  0  0  0  0  0  0  0  0
   -0.1271   -1.5545   -5.6367 H   0  0  0  0  0  0  0  0  0  0  0  0
    2.0612   -1.9470   -4.5458 H   0  0  0  0  0  0  0  0  0  0  0  0
    2.2444   -1.0429   -2.2194 H   0  0  0  0  0  0  0  0  0  0  0  0
    0.2460   -0.9794   -0.6917 H   0  0  0  0  0  0  0  0  0  0  0  0
    1.4976   -1.7885    2.0249 S   0  0  0  0  0  0  0  0  0  0  0  0
    0.3933   -0.9451    1.6317 O   0  0  0  0  0  0  0  0  0  0  0  0
    2.2109   -2.5844    1.0314 O   0  0  0  0  0  0  0  0  0  0  0  0
    2.5385   -0.8700    2.8358 O   0  0  0  0  0  0  0  0  0  0  0  0
    0.9123   -2.9633    3.3896 C   0  0  0  0  0  0  0  0  0  0  0  0
    1.9790   -3.5551    3.9110 F   0  0  0  0  0  0  0  0  0  0  0  0
    0.2659   -2.2758    4.3077 F   0  0  0  0  0  0  0  0  0  0  0  0
    0.1158   -3.8600    2.8284 F   0  0  0  0  0  0  0  0  0  0  0  0
    1.7262   -2.9274   -0.9057 H   0  0  0  0  0  0  0  0  0  0  0  0
  2  1  3  0  0  0  0
  3 26  1  0  0  0  0
  4  3  1  0  0  0  0
  6 12  1  0  0  0  0
  6 11  2  0  0  0  0
  7  6  1  0  0  0  0
  8  9  2  0  0  0  0
  8  7  1  0  0  0  0
  9 10  1  0  0  0  0
 10 16  1  1  0  0  0
 10  3  1  0  0  0  0
 10 11  1  0  0  0  0
 11 17  1  0  0  0  0
 13  7  1  0  0  0  0
 14  8  1  0  0  0  0
 15  9  1  0  0  0  0
 18 21  1  0  0  0  0
 18 22  1  0  0  0  0
 19 18  2  0  0  0  0
 20 18  2  0  0  0  0
 21  5  1  0  0  0  0
 22 23  1  0  0  0  0
 22 24  1  0  0  0  0
 25 22  1  0  0  0  0
M  RAD  1   7   2
M  END
