Coordinates from ORCA-job C6H6+HOTf+NH2--N2+-scan
 OpenBabel10191813343D

 26 24  0  0  1  0  0  0  0  0999 V2000
    0.7481   -7.8675   -2.6249 N   0  0  0  0  0  0  0  0  0  0  0  0
    0.6967   -8.9586   -2.7090 N   0  0  0  0  0  0  0  0  0  0  0  0
    2.3764   -2.2180   -1.7916 N   0  0  0  0  0  0  0  0  0  0  0  0
    2.1761   -3.2089   -1.8744 H   0  0  0  0  0  0  0  0  0  0  0  0
    2.3451    0.1669    3.2311 H   0  0  0  0  0  0  0  0  0  0  0  0
   -1.1784   -1.2515   -2.5057 C   0  0  0  0  0  0  0  0  0  0  0  0
   -1.0322   -1.0247   -3.8876 C   0  0  0  0  0  0  0  0  0  0  0  0
    0.2204   -1.0192   -4.5311 C   0  0  0  0  0  0  0  0  0  0  0  0
    1.3510   -1.2599   -3.7949 C   0  0  0  0  0  0  0  0  0  0  0  0
    1.2968   -1.4179   -2.3269 C   0  0  1  0  0  0  0  0  0  0  0  0
   -0.0653   -1.4882   -1.7394 C   0  0  0  0  0  0  0  0  0  0  0  0
   -2.1677   -1.2677   -2.0645 H   0  0  0  0  0  0  0  0  0  0  0  0
   -1.9238   -0.8559   -4.4841 H   0  0  0  0  0  0  0  0  0  0  0  0
    0.2769   -0.8616   -5.6012 H   0  0  0  0  0  0  0  0  0  0  0  0
    2.3380   -1.2981   -4.2435 H   0  0  0  0  0  0  0  0  0  0  0  0
    1.5282   -0.3431   -2.0623 H   0  0  0  0  0  0  0  0  0  0  0  0
   -0.1419   -1.6646   -0.6695 H   0  0  0  0  0  0  0  0  0  0  0  0
    1.4809   -1.4634    2.1121 S   0  0  0  0  0  0  0  0  0  0  0  0
    0.1598   -1.6018    1.5397 O   0  0  0  0  0  0  0  0  0  0  0  0
    2.6616   -1.4301    1.2624 O   0  0  0  0  0  0  0  0  0  0  0  0
    1.4468   -0.1644    3.0617 O   0  0  0  0  0  0  0  0  0  0  0  0
    1.7205   -2.8343    3.3938 C   0  0  0  0  0  0  0  0  0  0  0  0
    2.8153   -2.5621    4.0919 F   0  0  0  0  0  0  0  0  0  0  0  0
    0.6668   -2.8833    4.1835 F   0  0  0  0  0  0  0  0  0  0  0  0
    1.8647   -3.9752    2.7369 F   0  0  0  0  0  0  0  0  0  0  0  0
    2.5890   -1.9989   -0.8224 H   0  0  0  0  0  0  0  0  0  0  0  0
  2  1  3  0  0  0  0
  3 26  1  0  0  0  0
  4  3  1  0  0  0  0
  6 12  1  0  0  0  0
  6 11  2  0  0  0  0
  7  6  1  0  0  0  0
  8  7  1  0  0  0  0
  8  9  2  0  0  0  0
  9 10  1  0  0  0  0
 10 16  1  1  0  0  0
 10  3  1  0  0  0  0
 10 11  1  0  0  0  0
 11 17  1  0  0  0  0
 13  7  1  0  0  0  0
 14  8  1  0  0  0  0
 15  9  1  0  0  0  0
 18 21  1  0  0  0  0
 18 22  1  0  0  0  0
 19 18  2  0  0  0  0
 20 18  2  0  0  0  0
 21  5  1  0  0  0  0
 22 23  1  0  0  0  0
 22 24  1  0  0  0  0
 25 22  1  0  0  0  0
M  RAD  1   7   2
M  END
