Coordinates from ORCA-job C6H6+HOTf+NH2--N2+-scan
 OpenBabel10191813343D

 26 24  0  0  1  0  0  0  0  0999 V2000
    1.0051   -6.7583   -2.3124 N   0  0  0  0  0  0  0  0  0  0  0  0
    0.9246   -7.8492   -2.3722 N   0  0  0  0  0  0  0  0  0  0  0  0
    2.3160   -2.3907   -1.8256 N   0  0  0  0  0  0  0  0  0  0  0  0
    2.0678   -3.3718   -1.9009 H   0  0  0  0  0  0  0  0  0  0  0  0
    2.4360    0.0427    3.1746 H   0  0  0  0  0  0  0  0  0  0  0  0
   -1.1944   -1.2606   -2.5198 C   0  0  0  0  0  0  0  0  0  0  0  0
   -1.0481   -1.0484   -3.9039 C   0  0  0  0  0  0  0  0  0  0  0  0
    0.1984   -1.1065   -4.5566 C   0  0  0  0  0  0  0  0  0  0  0  0
    1.3218   -1.3971   -3.8272 C   0  0  0  0  0  0  0  0  0  0  0  0
    1.2712   -1.5443   -2.3581 C   0  0  1  0  0  0  0  0  0  0  0  0
   -0.0881   -1.5463   -1.7603 C   0  0  0  0  0  0  0  0  0  0  0  0
   -2.1800   -1.2270   -2.0713 H   0  0  0  0  0  0  0  0  0  0  0  0
   -1.9350   -0.8400   -4.4948 H   0  0  0  0  0  0  0  0  0  0  0  0
    0.2543   -0.9576   -5.6279 H   0  0  0  0  0  0  0  0  0  0  0  0
    2.3025   -1.4849   -4.2826 H   0  0  0  0  0  0  0  0  0  0  0  0
    1.5544   -0.4796   -2.1022 H   0  0  0  0  0  0  0  0  0  0  0  0
   -0.1648   -1.7131   -0.6890 H   0  0  0  0  0  0  0  0  0  0  0  0
    1.4870   -1.5564    2.0797 S   0  0  0  0  0  0  0  0  0  0  0  0
    0.1562   -1.6381    1.5191 O   0  0  0  0  0  0  0  0  0  0  0  0
    2.6611   -1.5873    1.2210 O   0  0  0  0  0  0  0  0  0  0  0  0
    1.5217   -0.2479    3.0163 O   0  0  0  0  0  0  0  0  0  0  0  0
    1.6721   -2.9241    3.3737 C   0  0  0  0  0  0  0  0  0  0  0  0
    2.7844   -2.6973    4.0603 F   0  0  0  0  0  0  0  0  0  0  0  0
    0.6239   -2.9153    4.1722 F   0  0  0  0  0  0  0  0  0  0  0  0
    1.7566   -4.0773    2.7276 F   0  0  0  0  0  0  0  0  0  0  0  0
    2.5450   -2.1760   -0.8592 H   0  0  0  0  0  0  0  0  0  0  0  0
  2  1  3  0  0  0  0
  3 26  1  0  0  0  0
  4  3  1  0  0  0  0
  6 12  1  0  0  0  0
  6 11  2  0  0  0  0
  7  6  1  0  0  0  0
  8  7  1  0  0  0  0
  8  9  2  0  0  0  0
  9 10  1  0  0  0  0
 10 16  1  1  0  0  0
 10  3  1  0  0  0  0
 10 11  1  0  0  0  0
 11 17  1  0  0  0  0
 13  7  1  0  0  0  0
 14  8  1  0  0  0  0
 15  9  1  0  0  0  0
 18 21  1  0  0  0  0
 18 22  1  0  0  0  0
 19 18  2  0  0  0  0
 20 18  2  0  0  0  0
 21  5  1  0  0  0  0
 22 23  1  0  0  0  0
 22 24  1  0  0  0  0
 25 22  1  0  0  0  0
M  RAD  1   7   2
M  END
