Coordinates from ORCA-job C6H6+HOTf+NH2--N2+-scan
 OpenBabel10191813343D

 26 24  0  0  0  0  0  0  0  0999 V2000
    2.3386   -4.7104   -1.6190 N   0  0  0  0  0  0  0  0  0  0  0  0
    3.1696   -5.3907   -1.8779 N   0  0  0  0  0  0  0  0  0  0  0  0
    1.7375   -3.1848   -1.8846 N   0  0  0  0  0  0  0  0  0  0  0  0
    0.7660   -3.4582   -2.0741 H   0  0  0  0  0  0  0  0  0  0  0  0
    3.5607   -1.5729    2.7335 H   0  0  0  0  0  0  0  0  0  0  0  0
   -1.1191   -1.1302   -2.4377 C   0  0  0  0  0  0  0  0  0  0  0  0
   -1.1628   -1.4151   -3.8056 C   0  0  0  0  0  0  0  0  0  0  0  0
    0.0175   -1.5217   -4.5592 C   0  0  0  0  0  0  0  0  0  0  0  0
    1.2433   -1.3433   -3.9466 C   0  0  0  0  0  0  0  0  0  0  0  0
    1.3065   -1.0750   -2.5540 C   0  0  0  0  0  0  0  0  0  0  0  0
    0.1069   -0.9404   -1.8105 C   0  0  0  0  0  0  0  0  0  0  0  0
   -2.0388   -1.0303   -1.8740 H   0  0  0  0  0  0  0  0  0  0  0  0
   -2.1217   -1.5456   -4.2946 H   0  0  0  0  0  0  0  0  0  0  0  0
   -0.0378   -1.7272   -5.6215 H   0  0  0  0  0  0  0  0  0  0  0  0
    2.1617   -1.4085   -4.5178 H   0  0  0  0  0  0  0  0  0  0  0  0
    2.2475   -0.7598   -2.1185 H   0  0  0  0  0  0  0  0  0  0  0  0
    0.1486   -0.6719   -0.7606 H   0  0  0  0  0  0  0  0  0  0  0  0
    1.5449   -1.8266    1.9928 S   0  0  0  0  0  0  0  0  0  0  0  0
    0.5340   -0.8558    1.6643 O   0  0  0  0  0  0  0  0  0  0  0  0
    2.1025   -2.7075    0.9641 O   0  0  0  0  0  0  0  0  0  0  0  0
    2.7401   -1.0514    2.7350 O   0  0  0  0  0  0  0  0  0  0  0  0
    0.9122   -2.9429    3.3857 C   0  0  0  0  0  0  0  0  0  0  0  0
    1.9402   -3.6439    3.8494 F   0  0  0  0  0  0  0  0  0  0  0  0
    0.3892   -2.1988    4.3355 F   0  0  0  0  0  0  0  0  0  0  0  0
    0.0017   -3.7517    2.8661 F   0  0  0  0  0  0  0  0  0  0  0  0
    1.7603   -2.8877   -0.8898 H   0  0  0  0  0  0  0  0  0  0  0  0
  2  1  2  0  0  0  0
  3  1  1  0  0  0  0
  3 26  1  0  0  0  0
  4  3  1  0  0  0  0
  5 21  1  0  0  0  0
  6 12  1  0  0  0  0
  6 11  1  0  0  0  0
  7  6  2  0  0  0  0
  8  9  2  0  0  0  0
  8  7  1  0  0  0  0
  9 10  1  0  0  0  0
 10 16  1  0  0  0  0
 10 11  2  0  0  0  0
 11 17  1  0  0  0  0
 13  7  1  0  0  0  0
 14  8  1  0  0  0  0
 15  9  1  0  0  0  0
 18 21  1  0  0  0  0
 18 22  1  0  0  0  0
 19 18  2  0  0  0  0
 20 18  2  0  0  0  0
 22 23  1  0  0  0  0
 22 24  1  0  0  0  0
 25 22  1  0  0  0  0
M  RAD  1   2   2
M  END
