Coordinates from ORCA-job C6H6+HOTf+NH2--N2+-scan
 OpenBabel10191813343D

 26 24  0  0  1  0  0  0  0  0999 V2000
    0.9359   -7.0822   -2.3916 N   0  0  0  0  0  0  0  0  0  0  0  0
    0.8653   -8.1735   -2.4573 N   0  0  0  0  0  0  0  0  0  0  0  0
    2.3330   -2.3404   -1.8172 N   0  0  0  0  0  0  0  0  0  0  0  0
    2.0984   -3.3243   -1.8954 H   0  0  0  0  0  0  0  0  0  0  0  0
    2.4119    0.0759    3.1908 H   0  0  0  0  0  0  0  0  0  0  0  0
   -1.1906   -1.2554   -2.5162 C   0  0  0  0  0  0  0  0  0  0  0  0
   -1.0444   -1.0388   -3.8996 C   0  0  0  0  0  0  0  0  0  0  0  0
    0.2041   -1.0790   -4.5499 C   0  0  0  0  0  0  0  0  0  0  0  0
    1.3298   -1.3558   -3.8188 C   0  0  0  0  0  0  0  0  0  0  0  0
    1.2783   -1.5064   -2.3501 C   0  0  1  0  0  0  0  0  0  0  0  0
   -0.0822   -1.5277   -1.7550 C   0  0  0  0  0  0  0  0  0  0  0  0
   -2.1775   -1.2359   -2.0696 H   0  0  0  0  0  0  0  0  0  0  0  0
   -1.9329   -0.8413   -4.4920 H   0  0  0  0  0  0  0  0  0  0  0  0
    0.2601   -0.9273   -5.6209 H   0  0  0  0  0  0  0  0  0  0  0  0
    2.3125   -1.4296   -4.2725 H   0  0  0  0  0  0  0  0  0  0  0  0
    1.5472   -0.4388   -2.0913 H   0  0  0  0  0  0  0  0  0  0  0  0
   -0.1588   -1.6974   -0.6841 H   0  0  0  0  0  0  0  0  0  0  0  0
    1.4852   -1.5309    2.0882 S   0  0  0  0  0  0  0  0  0  0  0  0
    0.1567   -1.6273    1.5243 O   0  0  0  0  0  0  0  0  0  0  0  0
    2.6614   -1.5442    1.2317 O   0  0  0  0  0  0  0  0  0  0  0  0
    1.5017   -0.2254    3.0292 O   0  0  0  0  0  0  0  0  0  0  0  0
    1.6847   -2.9008    3.3778 C   0  0  0  0  0  0  0  0  0  0  0  0
    2.7924   -2.6622    4.0677 F   0  0  0  0  0  0  0  0  0  0  0  0
    0.6347   -2.9079    4.1739 F   0  0  0  0  0  0  0  0  0  0  0  0
    1.7853   -4.0504    2.7279 F   0  0  0  0  0  0  0  0  0  0  0  0
    2.5573   -2.1251   -0.8498 H   0  0  0  0  0  0  0  0  0  0  0  0
  2  1  3  0  0  0  0
  3 26  1  0  0  0  0
  4  3  1  0  0  0  0
  6 12  1  0  0  0  0
  6 11  2  0  0  0  0
  7  6  1  0  0  0  0
  8  7  1  0  0  0  0
  8  9  2  0  0  0  0
  9 10  1  0  0  0  0
 10 16  1  1  0  0  0
 10  3  1  0  0  0  0
 10 11  1  0  0  0  0
 11 17  1  0  0  0  0
 13  7  1  0  0  0  0
 14  8  1  0  0  0  0
 15  9  1  0  0  0  0
 18 21  1  0  0  0  0
 18 22  1  0  0  0  0
 19 18  2  0  0  0  0
 20 18  2  0  0  0  0
 21  5  1  0  0  0  0
 22 23  1  0  0  0  0
 22 24  1  0  0  0  0
 25 22  1  0  0  0  0
M  RAD  1   7   2
M  END
