Coordinates from ORCA-job C6H6+HOTf+NH2--N2+-scan
 OpenBabel10191813343D

 26 24  0  0  1  0  0  0  0  0999 V2000
    1.6286   -5.8792   -1.9790 N   0  0  0  0  0  0  0  0  0  0  0  0
    1.8390   -6.9539   -1.9703 N   0  0  0  0  0  0  0  0  0  0  0  0
    2.1172   -2.6742   -1.8758 N   0  0  0  0  0  0  0  0  0  0  0  0
    1.7546   -3.6187   -1.9398 H   0  0  0  0  0  0  0  0  0  0  0  0
    2.6687   -0.1557    3.0631 H   0  0  0  0  0  0  0  0  0  0  0  0
   -1.2284   -1.0973   -2.5156 C   0  0  0  0  0  0  0  0  0  0  0  0
   -1.0865   -0.9233   -3.9052 C   0  0  0  0  0  0  0  0  0  0  0  0
    0.1259   -1.1555   -4.5821 C   0  0  0  0  0  0  0  0  0  0  0  0
    1.2170   -1.5845   -3.8714 C   0  0  0  0  0  0  0  0  0  0  0  0
    1.1803   -1.7084   -2.4003 C   0  0  1  0  0  0  0  0  0  0  0  0
   -0.1535   -1.5209   -1.7752 C   0  0  0  0  0  0  0  0  0  0  0  0
   -2.1901   -0.9259   -2.0469 H   0  0  0  0  0  0  0  0  0  0  0  0
   -1.9505   -0.6043   -4.4806 H   0  0  0  0  0  0  0  0  0  0  0  0
    0.1778   -1.0271   -5.6563 H   0  0  0  0  0  0  0  0  0  0  0  0
    2.1674   -1.8055   -4.3452 H   0  0  0  0  0  0  0  0  0  0  0  0
    1.6018   -0.6833   -2.1699 H   0  0  0  0  0  0  0  0  0  0  0  0
   -0.2274   -1.6624   -0.7001 H   0  0  0  0  0  0  0  0  0  0  0  0
    1.5009   -1.6502    2.0340 S   0  0  0  0  0  0  0  0  0  0  0  0
    0.1591   -1.5760    1.4994 O   0  0  0  0  0  0  0  0  0  0  0  0
    2.6439   -1.8554    1.1579 O   0  0  0  0  0  0  0  0  0  0  0  0
    1.7217   -0.3317    2.9309 O   0  0  0  0  0  0  0  0  0  0  0  0
    1.5357   -2.9934    3.3654 C   0  0  0  0  0  0  0  0  0  0  0  0
    2.6820   -2.8934    4.0260 F   0  0  0  0  0  0  0  0  0  0  0  0
    0.5143   -2.8277    4.1814 F   0  0  0  0  0  0  0  0  0  0  0  0
    1.4580   -4.1658    2.7534 F   0  0  0  0  0  0  0  0  0  0  0  0
    2.3921   -2.4785   -0.9178 H   0  0  0  0  0  0  0  0  0  0  0  0
  1  2  3  0  0  0  0
  3 26  1  0  0  0  0
  4  3  1  0  0  0  0
  6 12  1  0  0  0  0
  6 11  2  0  0  0  0
  7  6  1  0  0  0  0
  8  7  1  0  0  0  0
  8  9  2  0  0  0  0
  9 10  1  0  0  0  0
 10 16  1  1  0  0  0
 10  3  1  0  0  0  0
 10 11  1  0  0  0  0
 11 17  1  0  0  0  0
 13  7  1  0  0  0  0
 14  8  1  0  0  0  0
 15  9  1  0  0  0  0
 18 21  1  0  0  0  0
 18 22  1  0  0  0  0
 19 18  2  0  0  0  0
 20 18  2  0  0  0  0
 21  5  1  0  0  0  0
 22 23  1  0  0  0  0
 22 24  1  0  0  0  0
 25 22  1  0  0  0  0
M  RAD  1   7   2
M  END
