Coordinates from ORCA-job C6H6+HOTf+NH2--N2+-scan
 OpenBabel10191813343D

 26 24  0  0  1  0  0  0  0  0999 V2000
    0.8252   -7.5306   -2.5247 N   0  0  0  0  0  0  0  0  0  0  0  0
    0.7652   -8.6217   -2.6020 N   0  0  0  0  0  0  0  0  0  0  0  0
    2.3589   -2.2694   -1.8024 N   0  0  0  0  0  0  0  0  0  0  0  0
    2.1446   -3.2576   -1.8834 H   0  0  0  0  0  0  0  0  0  0  0  0
    2.3723    0.1288    3.2142 H   0  0  0  0  0  0  0  0  0  0  0  0
   -1.1837   -1.2546   -2.5104 C   0  0  0  0  0  0  0  0  0  0  0  0
   -1.0374   -1.0319   -3.8929 C   0  0  0  0  0  0  0  0  0  0  0  0
    0.2138   -1.0449   -4.5392 C   0  0  0  0  0  0  0  0  0  0  0  0
    1.3425   -1.3003   -3.8050 C   0  0  0  0  0  0  0  0  0  0  0  0
    1.2893   -1.4554   -2.3367 C   0  0  1  0  0  0  0  0  0  0  0  0
   -0.0724   -1.5058   -1.7461 C   0  0  0  0  0  0  0  0  0  0  0  0
   -2.1722   -1.2564   -2.0670 H   0  0  0  0  0  0  0  0  0  0  0  0
   -1.9278   -0.8515   -4.4878 H   0  0  0  0  0  0  0  0  0  0  0  0
    0.2701   -0.8898   -5.6096 H   0  0  0  0  0  0  0  0  0  0  0  0
    2.3280   -1.3530   -4.2556 H   0  0  0  0  0  0  0  0  0  0  0  0
    1.5360   -0.3834   -2.0743 H   0  0  0  0  0  0  0  0  0  0  0  0
   -0.1491   -1.6795   -0.6758 H   0  0  0  0  0  0  0  0  0  0  0  0
    1.4826   -1.4923    2.1019 S   0  0  0  0  0  0  0  0  0  0  0  0
    0.1583   -1.6137    1.5331 O   0  0  0  0  0  0  0  0  0  0  0  0
    2.6616   -1.4779    1.2493 O   0  0  0  0  0  0  0  0  0  0  0  0
    1.4690   -0.1903    3.0479 O   0  0  0  0  0  0  0  0  0  0  0  0
    1.7060   -2.8628    3.3869 C   0  0  0  0  0  0  0  0  0  0  0  0
    2.8061   -2.6041    4.0816 F   0  0  0  0  0  0  0  0  0  0  0  0
    0.6536   -2.8948    4.1792 F   0  0  0  0  0  0  0  0  0  0  0  0
    1.8326   -4.0075    2.7328 F   0  0  0  0  0  0  0  0  0  0  0  0
    2.5762   -2.0519   -0.8339 H   0  0  0  0  0  0  0  0  0  0  0  0
  2  1  3  0  0  0  0
  3 26  1  0  0  0  0
  4  3  1  0  0  0  0
  6 12  1  0  0  0  0
  6 11  2  0  0  0  0
  7  6  1  0  0  0  0
  8  7  1  0  0  0  0
  8  9  2  0  0  0  0
  9 10  1  0  0  0  0
 10 16  1  1  0  0  0
 10  3  1  0  0  0  0
 10 11  1  0  0  0  0
 11 17  1  0  0  0  0
 13  7  1  0  0  0  0
 14  8  1  0  0  0  0
 15  9  1  0  0  0  0
 18 21  1  0  0  0  0
 18 22  1  0  0  0  0
 19 18  2  0  0  0  0
 20 18  2  0  0  0  0
 21  5  1  0  0  0  0
 22 23  1  0  0  0  0
 22 24  1  0  0  0  0
 25 22  1  0  0  0  0
M  RAD  1   7   2
M  END
