Coordinates from ORCA-job C6H6+HOTf+NH2--N2+-scan
 OpenBabel10191813343D

 26 24  0  0  1  0  0  0  0  0999 V2000
    0.7928   -7.6701   -2.5661 N   0  0  0  0  0  0  0  0  0  0  0  0
    0.7364   -8.7612   -2.6463 N   0  0  0  0  0  0  0  0  0  0  0  0
    2.3663   -2.2480   -1.7979 N   0  0  0  0  0  0  0  0  0  0  0  0
    2.1579   -3.2373   -1.8797 H   0  0  0  0  0  0  0  0  0  0  0  0
    2.3608    0.1447    3.2213 H   0  0  0  0  0  0  0  0  0  0  0  0
   -1.1815   -1.2535   -2.5085 C   0  0  0  0  0  0  0  0  0  0  0  0
   -1.0352   -1.0291   -3.8907 C   0  0  0  0  0  0  0  0  0  0  0  0
    0.2165   -1.0343   -4.5359 C   0  0  0  0  0  0  0  0  0  0  0  0
    1.3461   -1.2835   -3.8008 C   0  0  0  0  0  0  0  0  0  0  0  0
    1.2925   -1.4398   -2.3327 C   0  0  1  0  0  0  0  0  0  0  0  0
   -0.0694   -1.4986   -1.7433 C   0  0  0  0  0  0  0  0  0  0  0  0
   -2.1704   -1.2614   -2.0660 H   0  0  0  0  0  0  0  0  0  0  0  0
   -1.9262   -0.8535   -4.4863 H   0  0  0  0  0  0  0  0  0  0  0  0
    0.2730   -0.8781   -5.6061 H   0  0  0  0  0  0  0  0  0  0  0  0
    2.3323   -1.3301   -4.2505 H   0  0  0  0  0  0  0  0  0  0  0  0
    1.5327   -0.3666   -2.0693 H   0  0  0  0  0  0  0  0  0  0  0  0
   -0.1461   -1.6734   -0.6732 H   0  0  0  0  0  0  0  0  0  0  0  0
    1.4818   -1.4803    2.1062 S   0  0  0  0  0  0  0  0  0  0  0  0
    0.1589   -1.6089    1.5358 O   0  0  0  0  0  0  0  0  0  0  0  0
    2.6616   -1.4580    1.2547 O   0  0  0  0  0  0  0  0  0  0  0  0
    1.4596   -0.1796    3.0537 O   0  0  0  0  0  0  0  0  0  0  0  0
    1.7121   -2.8510    3.3897 C   0  0  0  0  0  0  0  0  0  0  0  0
    2.8100   -2.5866    4.0859 F   0  0  0  0  0  0  0  0  0  0  0  0
    0.6592   -2.8902    4.1810 F   0  0  0  0  0  0  0  0  0  0  0  0
    1.8461   -3.9942    2.7344 F   0  0  0  0  0  0  0  0  0  0  0  0
    2.5816   -2.0298   -0.8291 H   0  0  0  0  0  0  0  0  0  0  0  0
  2  1  3  0  0  0  0
  3 26  1  0  0  0  0
  4  3  1  0  0  0  0
  6 12  1  0  0  0  0
  6 11  2  0  0  0  0
  7  6  1  0  0  0  0
  8  7  1  0  0  0  0
  8  9  2  0  0  0  0
  9 10  1  0  0  0  0
 10 16  1  1  0  0  0
 10  3  1  0  0  0  0
 10 11  1  0  0  0  0
 11 17  1  0  0  0  0
 13  7  1  0  0  0  0
 14  8  1  0  0  0  0
 15  9  1  0  0  0  0
 18 21  1  0  0  0  0
 18 22  1  0  0  0  0
 19 18  2  0  0  0  0
 20 18  2  0  0  0  0
 21  5  1  0  0  0  0
 22 23  1  0  0  0  0
 22 24  1  0  0  0  0
 25 22  1  0  0  0  0
M  RAD  1   7   2
M  END
