Coordinates from ORCA-job C6H6+HOTf+NH2--N2+-scan
 OpenBabel10191813343D

 26 24  0  0  1  0  0  0  0  0999 V2000
    0.9205   -7.1480   -2.4094 N   0  0  0  0  0  0  0  0  0  0  0  0
    0.8517   -8.2392   -2.4765 N   0  0  0  0  0  0  0  0  0  0  0  0
    2.3367   -2.3300   -1.8153 N   0  0  0  0  0  0  0  0  0  0  0  0
    2.1049   -3.3146   -1.8939 H   0  0  0  0  0  0  0  0  0  0  0  0
    2.4064    0.0832    3.1942 H   0  0  0  0  0  0  0  0  0  0  0  0
   -1.1897   -1.2549   -2.5155 C   0  0  0  0  0  0  0  0  0  0  0  0
   -1.0435   -1.0374   -3.8987 C   0  0  0  0  0  0  0  0  0  0  0  0
    0.2054   -1.0736   -4.5485 C   0  0  0  0  0  0  0  0  0  0  0  0
    1.3316   -1.3475   -3.8170 C   0  0  0  0  0  0  0  0  0  0  0  0
    1.2798   -1.4988   -2.3483 C   0  0  1  0  0  0  0  0  0  0  0  0
   -0.0808   -1.5242   -1.7538 C   0  0  0  0  0  0  0  0  0  0  0  0
   -2.1768   -1.2384   -2.0693 H   0  0  0  0  0  0  0  0  0  0  0  0
   -1.9323   -0.8423   -4.4914 H   0  0  0  0  0  0  0  0  0  0  0  0
    0.2615   -0.9214   -5.6193 H   0  0  0  0  0  0  0  0  0  0  0  0
    2.3147   -1.4183   -4.2702 H   0  0  0  0  0  0  0  0  0  0  0  0
    1.5456   -0.4306   -2.0889 H   0  0  0  0  0  0  0  0  0  0  0  0
   -0.1575   -1.6946   -0.6830 H   0  0  0  0  0  0  0  0  0  0  0  0
    1.4848   -1.5255    2.0900 S   0  0  0  0  0  0  0  0  0  0  0  0
    0.1569   -1.6253    1.5255 O   0  0  0  0  0  0  0  0  0  0  0  0
    2.6614   -1.5349    1.2341 O   0  0  0  0  0  0  0  0  0  0  0  0
    1.4971   -0.2205    3.0318 O   0  0  0  0  0  0  0  0  0  0  0  0
    1.6876   -2.8956    3.3789 C   0  0  0  0  0  0  0  0  0  0  0  0
    2.7943   -2.6543    4.0695 F   0  0  0  0  0  0  0  0  0  0  0  0
    0.6373   -2.9063    4.1744 F   0  0  0  0  0  0  0  0  0  0  0  0
    1.7918   -4.0446    2.7283 F   0  0  0  0  0  0  0  0  0  0  0  0
    2.5600   -2.1145   -0.8477 H   0  0  0  0  0  0  0  0  0  0  0  0
  2  1  3  0  0  0  0
  3 26  1  0  0  0  0
  4  3  1  0  0  0  0
  6 12  1  0  0  0  0
  6 11  2  0  0  0  0
  7  6  1  0  0  0  0
  8  7  1  0  0  0  0
  8  9  2  0  0  0  0
  9 10  1  0  0  0  0
 10 16  1  1  0  0  0
 10  3  1  0  0  0  0
 10 11  1  0  0  0  0
 11 17  1  0  0  0  0
 13  7  1  0  0  0  0
 14  8  1  0  0  0  0
 15  9  1  0  0  0  0
 18 21  1  0  0  0  0
 18 22  1  0  0  0  0
 19 18  2  0  0  0  0
 20 18  2  0  0  0  0
 21  5  1  0  0  0  0
 22 23  1  0  0  0  0
 22 24  1  0  0  0  0
 25 22  1  0  0  0  0
M  RAD  1   7   2
M  END
