Coordinates from ORCA-job C6H6+HOTf+NH2--N2+-scan
 OpenBabel10191813343D

 26 24  0  0  1  0  0  0  0  0999 V2000
    1.3557   -5.8538   -2.0499 N   0  0  0  0  0  0  0  0  0  0  0  0
    1.3578   -6.9489   -2.0619 N   0  0  0  0  0  0  0  0  0  0  0  0
    2.2082   -2.5948   -1.8604 N   0  0  0  0  0  0  0  0  0  0  0  0
    1.8902   -3.5560   -1.9261 H   0  0  0  0  0  0  0  0  0  0  0  0
    2.5589   -0.0839    3.1028 H   0  0  0  0  0  0  0  0  0  0  0  0
   -1.2138   -1.2044   -2.5258 C   0  0  0  0  0  0  0  0  0  0  0  0
   -1.0671   -1.0109   -3.9124 C   0  0  0  0  0  0  0  0  0  0  0  0
    0.1637   -1.1685   -4.5776 C   0  0  0  0  0  0  0  0  0  0  0  0
    1.2696   -1.5411   -3.8582 C   0  0  0  0  0  0  0  0  0  0  0  0
    1.2244   -1.6781   -2.3884 C   0  0  1  0  0  0  0  0  0  0  0  0
   -0.1244   -1.5718   -1.7767 C   0  0  0  0  0  0  0  0  0  0  0  0
   -2.1887   -1.0919   -2.0667 H   0  0  0  0  0  0  0  0  0  0  0  0
   -1.9416   -0.7366   -4.4948 H   0  0  0  0  0  0  0  0  0  0  0  0
    0.2194   -1.0288   -5.6502 H   0  0  0  0  0  0  0  0  0  0  0  0
    2.2359   -1.7048   -4.3233 H   0  0  0  0  0  0  0  0  0  0  0  0
    1.5863   -0.6337   -2.1450 H   0  0  0  0  0  0  0  0  0  0  0  0
   -0.2015   -1.7264   -0.7037 H   0  0  0  0  0  0  0  0  0  0  0  0
    1.4962   -1.6371    2.0472 S   0  0  0  0  0  0  0  0  0  0  0  0
    0.1569   -1.6414    1.5013 O   0  0  0  0  0  0  0  0  0  0  0  0
    2.6570   -1.7598    1.1792 O   0  0  0  0  0  0  0  0  0  0  0  0
    1.6260   -0.3178    2.9604 O   0  0  0  0  0  0  0  0  0  0  0  0
    1.6045   -2.9908    3.3640 C   0  0  0  0  0  0  0  0  0  0  0  0
    2.7368   -2.8269    4.0356 F   0  0  0  0  0  0  0  0  0  0  0  0
    0.5681   -2.8988    4.1727 F   0  0  0  0  0  0  0  0  0  0  0  0
    1.6052   -4.1586    2.7384 F   0  0  0  0  0  0  0  0  0  0  0  0
    2.4661   -2.3868   -0.9002 H   0  0  0  0  0  0  0  0  0  0  0  0
  2  1  3  0  0  0  0
  3 26  1  0  0  0  0
  4  3  1  0  0  0  0
  6 12  1  0  0  0  0
  6 11  2  0  0  0  0
  7  6  1  0  0  0  0
  8  7  1  0  0  0  0
  8  9  2  0  0  0  0
  9 10  1  0  0  0  0
 10 16  1  1  0  0  0
 10  3  1  0  0  0  0
 10 11  1  0  0  0  0
 11 17  1  0  0  0  0
 13  7  1  0  0  0  0
 14  8  1  0  0  0  0
 15  9  1  0  0  0  0
 18 21  1  0  0  0  0
 18 22  1  0  0  0  0
 19 18  2  0  0  0  0
 20 18  2  0  0  0  0
 21  5  1  0  0  0  0
 22 23  1  0  0  0  0
 22 24  1  0  0  0  0
 25 22  1  0  0  0  0
M  RAD  1   7   2
M  END
