Coordinates from ORCA-job C6H6+HOTf+NH2--N2+-scan
 OpenBabel10191813343D

 26 24  0  0  1  0  0  0  0  0999 V2000
    1.3004   -5.9398   -2.0847 N   0  0  0  0  0  0  0  0  0  0  0  0
    1.2754   -7.0345   -2.1088 N   0  0  0  0  0  0  0  0  0  0  0  0
    2.2268   -2.5682   -1.8549 N   0  0  0  0  0  0  0  0  0  0  0  0
    1.9176   -3.5328   -1.9205 H   0  0  0  0  0  0  0  0  0  0  0  0
    2.5386   -0.0651    3.1128 H   0  0  0  0  0  0  0  0  0  0  0  0
   -1.2109   -1.2200   -2.5256 C   0  0  0  0  0  0  0  0  0  0  0  0
   -1.0638   -1.0234   -3.9118 C   0  0  0  0  0  0  0  0  0  0  0  0
    0.1702   -1.1646   -4.5748 C   0  0  0  0  0  0  0  0  0  0  0  0
    1.2793   -1.5239   -3.8536 C   0  0  0  0  0  0  0  0  0  0  0  0
    1.2328   -1.6622   -2.3838 C   0  0  1  0  0  0  0  0  0  0  0  0
   -0.1184   -1.5738   -1.7746 C   0  0  0  0  0  0  0  0  0  0  0  0
   -2.1881   -1.1206   -2.0685 H   0  0  0  0  0  0  0  0  0  0  0  0
   -1.9407   -0.7599   -4.4958 H   0  0  0  0  0  0  0  0  0  0  0  0
    0.2262   -1.0236   -5.6472 H   0  0  0  0  0  0  0  0  0  0  0  0
    2.2484   -1.6755   -4.3169 H   0  0  0  0  0  0  0  0  0  0  0  0
    1.5824   -0.6144   -2.1380 H   0  0  0  0  0  0  0  0  0  0  0  0
   -0.1957   -1.7305   -0.7019 H   0  0  0  0  0  0  0  0  0  0  0  0
    1.4949   -1.6274    2.0517 S   0  0  0  0  0  0  0  0  0  0  0  0
    0.1566   -1.6453    1.5035 O   0  0  0  0  0  0  0  0  0  0  0  0
    2.6583   -1.7352    1.1850 O   0  0  0  0  0  0  0  0  0  0  0  0
    1.6085   -0.3088    2.9679 O   0  0  0  0  0  0  0  0  0  0  0  0
    1.6163   -2.9829    3.3655 C   0  0  0  0  0  0  0  0  0  0  0  0
    2.7457   -2.8079    4.0392 F   0  0  0  0  0  0  0  0  0  0  0  0
    0.5777   -2.9044    4.1727 F   0  0  0  0  0  0  0  0  0  0  0  0
    1.6311   -4.1491    2.7371 F   0  0  0  0  0  0  0  0  0  0  0  0
    2.4799   -2.3584   -0.8937 H   0  0  0  0  0  0  0  0  0  0  0  0
  2  1  3  0  0  0  0
  3 26  1  0  0  0  0
  4  3  1  0  0  0  0
  6 12  1  0  0  0  0
  6 11  2  0  0  0  0
  7  6  1  0  0  0  0
  8  7  1  0  0  0  0
  8  9  2  0  0  0  0
  9 10  1  0  0  0  0
 10 16  1  1  0  0  0
 10  3  1  0  0  0  0
 10 11  1  0  0  0  0
 11 17  1  0  0  0  0
 13  7  1  0  0  0  0
 14  8  1  0  0  0  0
 15  9  1  0  0  0  0
 18 21  1  0  0  0  0
 18 22  1  0  0  0  0
 19 18  2  0  0  0  0
 20 18  2  0  0  0  0
 21  5  1  0  0  0  0
 22 23  1  0  0  0  0
 22 24  1  0  0  0  0
 25 22  1  0  0  0  0
M  RAD  1   7   2
M  END
