Coordinates from ORCA-job C6H6+HOTf+NH2--N2+-scan
 OpenBabel10191813343D

 26 24  0  0  1  0  0  0  0  0999 V2000
    0.6764   -8.2072   -2.7242 N   0  0  0  0  0  0  0  0  0  0  0  0
    0.6326   -9.2981   -2.8143 N   0  0  0  0  0  0  0  0  0  0  0  0
    2.3924   -2.1678   -1.7811 N   0  0  0  0  0  0  0  0  0  0  0  0
    2.2051   -3.1609   -1.8655 H   0  0  0  0  0  0  0  0  0  0  0  0
    2.3201    0.2036    3.2475 H   0  0  0  0  0  0  0  0  0  0  0  0
   -1.1731   -1.2461   -2.5008 C   0  0  0  0  0  0  0  0  0  0  0  0
   -1.0272   -1.0155   -3.8820 C   0  0  0  0  0  0  0  0  0  0  0  0
    0.2264   -0.9929   -4.5232 C   0  0  0  0  0  0  0  0  0  0  0  0
    1.3587   -1.2200   -3.7850 C   0  0  0  0  0  0  0  0  0  0  0  0
    1.3036   -1.3808   -2.3174 C   0  0  1  0  0  0  0  0  0  0  0  0
   -0.0586   -1.4695   -1.7326 C   0  0  0  0  0  0  0  0  0  0  0  0
   -2.1630   -1.2757   -2.0615 H   0  0  0  0  0  0  0  0  0  0  0  0
   -1.9198   -0.8574   -4.4801 H   0  0  0  0  0  0  0  0  0  0  0  0
    0.2830   -0.8331   -5.5929 H   0  0  0  0  0  0  0  0  0  0  0  0
    2.3470   -1.2448   -4.2317 H   0  0  0  0  0  0  0  0  0  0  0  0
    1.5207   -0.3035   -2.0507 H   0  0  0  0  0  0  0  0  0  0  0  0
   -0.1350   -1.6483   -0.6631 H   0  0  0  0  0  0  0  0  0  0  0  0
    1.4795   -1.4347    2.1222 S   0  0  0  0  0  0  0  0  0  0  0  0
    0.1615   -1.5885    1.5464 O   0  0  0  0  0  0  0  0  0  0  0  0
    2.6615   -1.3839    1.2751 O   0  0  0  0  0  0  0  0  0  0  0  0
    1.4265   -0.1388    3.0751 O   0  0  0  0  0  0  0  0  0  0  0  0
    1.7339   -2.8059    3.4007 C   0  0  0  0  0  0  0  0  0  0  0  0
    2.8236   -2.5216    4.1019 F   0  0  0  0  0  0  0  0  0  0  0  0
    0.6792   -2.8705    4.1879 F   0  0  0  0  0  0  0  0  0  0  0  0
    1.8941   -3.9431    2.7409 F   0  0  0  0  0  0  0  0  0  0  0  0
    2.6005   -1.9473   -0.8112 H   0  0  0  0  0  0  0  0  0  0  0  0
  2  1  3  0  0  0  0
  3 26  1  0  0  0  0
  4  3  1  0  0  0  0
  6 12  1  0  0  0  0
  6 11  2  0  0  0  0
  7  6  1  0  0  0  0
  8  7  1  0  0  0  0
  8  9  2  0  0  0  0
  9 10  1  0  0  0  0
 10 16  1  1  0  0  0
 10  3  1  0  0  0  0
 10 11  1  0  0  0  0
 11 17  1  0  0  0  0
 13  7  1  0  0  0  0
 14  8  1  0  0  0  0
 15  9  1  0  0  0  0
 18 21  1  0  0  0  0
 18 22  1  0  0  0  0
 19 18  2  0  0  0  0
 20 18  2  0  0  0  0
 21  5  1  0  0  0  0
 22 23  1  0  0  0  0
 22 24  1  0  0  0  0
 25 22  1  0  0  0  0
M  RAD  1   7   2
M  END
