Coordinates from ORCA-job C6H6+HOTf+NH2--N2+-scan
 OpenBabel10191813343D

 26 24  0  0  0  0  0  0  0  0999 V2000
    1.0913   -4.4957   -1.7831 N   0  0  0  0  0  0  0  0  0  0  0  0
    0.7699   -5.5092   -2.0784 N   0  0  0  0  0  0  0  0  0  0  0  0
    1.6772   -3.1989   -1.5580 N   0  0  0  0  0  0  0  0  0  0  0  0
    0.9367   -2.5102   -1.8321 H   0  0  0  0  0  0  0  0  0  0  0  0
    3.9350   -1.9331    2.6586 H   0  0  0  0  0  0  0  0  0  0  0  0
   -1.0337   -1.7570   -2.7920 C   0  0  0  0  0  0  0  0  0  0  0  0
   -0.6074   -2.1285   -4.0703 C   0  0  0  0  0  0  0  0  0  0  0  0
    0.5241   -1.5309   -4.6299 C   0  0  0  0  0  0  0  0  0  0  0  0
    1.2310   -0.5625   -3.9160 C   0  0  0  0  0  0  0  0  0  0  0  0
    0.8102   -0.1900   -2.6383 C   0  0  0  0  0  0  0  0  0  0  0  0
   -0.3223   -0.7879   -2.0715 C   0  0  0  0  0  0  0  0  0  0  0  0
   -1.9341   -2.1912   -2.3702 H   0  0  0  0  0  0  0  0  0  0  0  0
   -1.1732   -2.8575   -4.6399 H   0  0  0  0  0  0  0  0  0  0  0  0
    0.8434   -1.8072   -5.6283 H   0  0  0  0  0  0  0  0  0  0  0  0
    2.0995   -0.0893   -4.3591 H   0  0  0  0  0  0  0  0  0  0  0  0
    1.3459    0.5771   -2.0905 H   0  0  0  0  0  0  0  0  0  0  0  0
   -0.6666   -0.4758   -1.0913 H   0  0  0  0  0  0  0  0  0  0  0  0
    1.8451   -2.0548    2.1165 S   0  0  0  0  0  0  0  0  0  0  0  0
    0.8922   -1.0357    1.7724 O   0  0  0  0  0  0  0  0  0  0  0  0
    2.2319   -3.0812    1.1354 O   0  0  0  0  0  0  0  0  0  0  0  0
    3.1682   -1.3347    2.6648 O   0  0  0  0  0  0  0  0  0  0  0  0
    1.2640   -2.9957    3.6567 C   0  0  0  0  0  0  0  0  0  0  0  0
    2.2805   -3.7252    4.0972 F   0  0  0  0  0  0  0  0  0  0  0  0
    0.8790   -2.1303    4.5677 F   0  0  0  0  0  0  0  0  0  0  0  0
    0.2597   -3.7751    3.2904 F   0  0  0  0  0  0  0  0  0  0  0  0
    1.9020   -3.1715   -0.5309 H   0  0  0  0  0  0  0  0  0  0  0  0
  1  3  1  0  0  0  0
  2  1  1  0  0  0  0
  3 26  1  0  0  0  0
  4  3  1  0  0  0  0
  5 21  1  0  0  0  0
  6 12  1  0  0  0  0
  6 11  2  0  0  0  0
  7  6  1  0  0  0  0
  8  7  2  0  0  0  0
  8  9  1  0  0  0  0
  9 10  2  0  0  0  0
 10 16  1  0  0  0  0
 10 11  1  0  0  0  0
 11 17  1  0  0  0  0
 13  7  1  0  0  0  0
 14  8  1  0  0  0  0
 15  9  1  0  0  0  0
 18 21  1  0  0  0  0
 18 22  1  0  0  0  0
 19 18  2  0  0  0  0
 20 18  2  0  0  0  0
 22 23  1  0  0  0  0
 22 24  1  0  0  0  0
 25 22  1  0  0  0  0
M  RAD  2   1   2   2   3
M  END
