Coordinates from ORCA-job C6H6+HOTf+NH2--N2+-scan
 OpenBabel10191813343D

 26 24  0  0  0  0  0  0  0  0999 V2000
    1.1271   -5.1877   -1.7025 N   0  0  0  0  0  0  0  0  0  0  0  0
    1.0536   -6.0963   -2.3852 N   0  0  0  0  0  0  0  0  0  0  0  0
    1.1547   -4.2722   -1.1113 N   0  0  0  0  0  0  0  0  0  0  0  0
    0.3048   -2.6851   -1.7137 H   0  0  0  0  0  0  0  0  0  0  0  0
    4.2163   -2.2716    2.4587 H   0  0  0  0  0  0  0  0  0  0  0  0
   -0.9557   -2.1308   -3.2754 C   0  0  0  0  0  0  0  0  0  0  0  0
   -0.5633   -1.5906   -4.4744 C   0  0  0  0  0  0  0  0  0  0  0  0
    0.4472   -0.6105   -4.4875 C   0  0  0  0  0  0  0  0  0  0  0  0
    1.0756   -0.1566   -3.3152 C   0  0  0  0  0  0  0  0  0  0  0  0
    0.6993   -0.6854   -2.1036 C   0  0  0  0  0  0  0  0  0  0  0  0
   -0.2926   -1.7475   -2.0374 C   0  0  0  0  0  0  0  0  0  0  0  0
   -1.7376   -2.8818   -3.2356 H   0  0  0  0  0  0  0  0  0  0  0  0
   -1.0293   -1.8969   -5.4028 H   0  0  0  0  0  0  0  0  0  0  0  0
    0.7481   -0.1853   -5.4400 H   0  0  0  0  0  0  0  0  0  0  0  0
    1.8362    0.6120   -3.3741 H   0  0  0  0  0  0  0  0  0  0  0  0
    1.1586   -0.3643   -1.1753 H   0  0  0  0  0  0  0  0  0  0  0  0
   -0.9559   -1.6849   -1.1648 H   0  0  0  0  0  0  0  0  0  0  0  0
    2.1443   -2.1536    1.8657 S   0  0  0  0  0  0  0  0  0  0  0  0
    1.4789   -1.2030    1.0033 O   0  0  0  0  0  0  0  0  0  0  0  0
    2.2400   -3.5615    1.5013 O   0  0  0  0  0  0  0  0  0  0  0  0
    3.6115   -1.5682    2.1659 O   0  0  0  0  0  0  0  0  0  0  0  0
    1.3560   -2.0601    3.5849 C   0  0  0  0  0  0  0  0  0  0  0  0
    2.1213   -2.7392    4.4269 F   0  0  0  0  0  0  0  0  0  0  0  0
    1.2676   -0.7969    3.9504 F   0  0  0  0  0  0  0  0  0  0  0  0
    0.1548   -2.6083    3.5037 F   0  0  0  0  0  0  0  0  0  0  0  0
    1.5881   -4.2260   -0.1819 H   0  0  0  0  0  0  0  0  0  0  0  0
  1  3  2  0  0  0  0
  2  1  2  0  0  0  0
  3 26  1  0  0  0  0
  6 12  1  0  0  0  0
  6 11  1  0  0  0  0
  7  6  2  0  0  0  0
  8  7  1  0  0  0  0
  8  9  1  0  0  0  0
  9 10  2  0  0  0  0
 10 11  1  0  0  0  0
 10 16  1  0  0  0  0
 11  4  1  0  0  0  0
 11 17  1  0  0  0  0
 13  7  1  0  0  0  0
 14  8  1  0  0  0  0
 15  9  1  0  0  0  0
 18 21  1  0  0  0  0
 18 22  1  0  0  0  0
 19 18  2  0  0  0  0
 20 18  2  0  0  0  0
 21  5  1  0  0  0  0
 22 24  1  0  0  0  0
 22 23  1  0  0  0  0
 25 22  1  0  0  0  0
M  RAD  2   2   2   8   2
M  END
