Coordinates from ORCA-job C6H6+HOTf+NH2--N2+-scan
 OpenBabel10191813343D

 26 24  0  0  1  0  0  0  0  0999 V2000
    2.7657   -5.2670   -1.2417 N   0  0  0  0  0  0  0  0  0  0  0  0
    3.7252   -5.6537   -1.6030 N   0  0  0  0  0  0  0  0  0  0  0  0
    1.5616   -3.1374   -1.8965 N   0  0  0  0  0  0  0  0  0  0  0  0
    0.8853   -3.8918   -1.8702 H   0  0  0  0  0  0  0  0  0  0  0  0
    3.0568   -0.6363    2.8807 H   0  0  0  0  0  0  0  0  0  0  0  0
   -1.1594   -0.6340   -2.5183 C   0  0  0  0  0  0  0  0  0  0  0  0
   -1.0383   -0.5788   -3.9197 C   0  0  0  0  0  0  0  0  0  0  0  0
    0.0205   -1.1912   -4.6190 C   0  0  0  0  0  0  0  0  0  0  0  0
    0.9668   -1.8905   -3.9178 C   0  0  0  0  0  0  0  0  0  0  0  0
    0.9657   -1.9259   -2.4405 C   0  0  1  0  0  0  0  0  0  0  0  0
   -0.2173   -1.3120   -1.7866 C   0  0  0  0  0  0  0  0  0  0  0  0
   -2.0056   -0.1636   -2.0320 H   0  0  0  0  0  0  0  0  0  0  0  0
   -1.7984   -0.0497   -4.4871 H   0  0  0  0  0  0  0  0  0  0  0  0
    0.0557   -1.1370   -5.7001 H   0  0  0  0  0  0  0  0  0  0  0  0
    1.7811   -2.4132   -4.4083 H   0  0  0  0  0  0  0  0  0  0  0  0
    1.7118   -1.0981   -2.2629 H   0  0  0  0  0  0  0  0  0  0  0  0
   -0.2762   -1.3648   -0.7024 H   0  0  0  0  0  0  0  0  0  0  0  0
    1.5048   -1.8109    1.9484 S   0  0  0  0  0  0  0  0  0  0  0  0
    0.1937   -1.4182    1.4810 O   0  0  0  0  0  0  0  0  0  0  0  0
    2.5123   -2.2975    1.0178 O   0  0  0  0  0  0  0  0  0  0  0  0
    2.0898   -0.5759    2.7990 O   0  0  0  0  0  0  0  0  0  0  0  0
    1.2876   -3.1078    3.3087 C   0  0  0  0  0  0  0  0  0  0  0  0
    2.4602   -3.2831    3.9044 F   0  0  0  0  0  0  0  0  0  0  0  0
    0.3863   -2.6877    4.1732 F   0  0  0  0  0  0  0  0  0  0  0  0
    0.8919   -4.2316    2.7308 F   0  0  0  0  0  0  0  0  0  0  0  0
    1.9218   -2.9944   -0.9576 H   0  0  0  0  0  0  0  0  0  0  0  0
  2  1  3  0  0  0  0
  3  4  1  0  0  0  0
  3 26  1  0  0  0  0
  6 12  1  0  0  0  0
  6 11  2  0  0  0  0
  7  6  1  0  0  0  0
  8  7  1  0  0  0  0
  8  9  2  0  0  0  0
  9 10  1  0  0  0  0
 10 16  1  1  0  0  0
 10  3  1  0  0  0  0
 10 11  1  0  0  0  0
 11 17  1  0  0  0  0
 13  7  1  0  0  0  0
 14  8  1  0  0  0  0
 15  9  1  0  0  0  0
 18 21  1  0  0  0  0
 18 22  1  0  0  0  0
 19 18  2  0  0  0  0
 20 18  2  0  0  0  0
 21  5  1  0  0  0  0
 22 23  1  0  0  0  0
 22 24  1  0  0  0  0
 25 22  1  0  0  0  0
M  RAD  1   7   2
M  END
