Coordinates from ORCA-job C6H6+HOTf+NH2--N2+-scan
 OpenBabel10191813343D

 26 24  0  0  0  0  0  0  0  0999 V2000
    2.2888   -4.7238   -1.6133 N   0  0  0  0  0  0  0  0  0  0  0  0
    3.0884   -5.4491   -1.8483 N   0  0  0  0  0  0  0  0  0  0  0  0
    1.7349   -3.2013   -1.8746 N   0  0  0  0  0  0  0  0  0  0  0  0
    0.7571   -3.4387   -2.0799 H   0  0  0  0  0  0  0  0  0  0  0  0
    3.5742   -1.5801    2.7092 H   0  0  0  0  0  0  0  0  0  0  0  0
   -1.1268   -1.1472   -2.4539 C   0  0  0  0  0  0  0  0  0  0  0  0
   -1.1495   -1.4410   -3.8205 C   0  0  0  0  0  0  0  0  0  0  0  0
    0.0407   -1.5191   -4.5596 C   0  0  0  0  0  0  0  0  0  0  0  0
    1.2558   -1.3039   -3.9337 C   0  0  0  0  0  0  0  0  0  0  0  0
    1.2954   -1.0249   -2.5453 C   0  0  0  0  0  0  0  0  0  0  0  0
    0.0875   -0.9218   -1.8146 C   0  0  0  0  0  0  0  0  0  0  0  0
   -2.0547   -1.0682   -1.9002 H   0  0  0  0  0  0  0  0  0  0  0  0
   -2.0994   -1.5997   -4.3187 H   0  0  0  0  0  0  0  0  0  0  0  0
    0.0034   -1.7310   -5.6215 H   0  0  0  0  0  0  0  0  0  0  0  0
    2.1812   -1.3457   -4.4958 H   0  0  0  0  0  0  0  0  0  0  0  0
    2.2283   -0.7076   -2.0936 H   0  0  0  0  0  0  0  0  0  0  0  0
    0.1114   -0.6476   -0.7657 H   0  0  0  0  0  0  0  0  0  0  0  0
    1.5510   -1.8324    1.9878 S   0  0  0  0  0  0  0  0  0  0  0  0
    0.5384   -0.8620    1.6653 O   0  0  0  0  0  0  0  0  0  0  0  0
    2.0974   -2.7197    0.9577 O   0  0  0  0  0  0  0  0  0  0  0  0
    2.7552   -1.0561    2.7137 O   0  0  0  0  0  0  0  0  0  0  0  0
    0.9322   -2.9431    3.3915 C   0  0  0  0  0  0  0  0  0  0  0  0
    1.9652   -3.6416    3.8481 F   0  0  0  0  0  0  0  0  0  0  0  0
    0.4182   -2.1952    4.3430 F   0  0  0  0  0  0  0  0  0  0  0  0
    0.0173   -3.7546    2.8841 F   0  0  0  0  0  0  0  0  0  0  0  0
    1.7577   -2.8966   -0.8811 H   0  0  0  0  0  0  0  0  0  0  0  0
  2  1  2  0  0  0  0
  3  1  1  0  0  0  0
  3 26  1  0  0  0  0
  4  3  1  0  0  0  0
  5 21  1  0  0  0  0
  6 12  1  0  0  0  0
  6 11  1  0  0  0  0
  7  6  2  0  0  0  0
  8  9  2  0  0  0  0
  8  7  1  0  0  0  0
  9 10  1  0  0  0  0
 10 16  1  0  0  0  0
 10 11  2  0  0  0  0
 11 17  1  0  0  0  0
 13  7  1  0  0  0  0
 14  8  1  0  0  0  0
 15  9  1  0  0  0  0
 18 21  1  0  0  0  0
 18 22  1  0  0  0  0
 19 18  2  0  0  0  0
 20 18  2  0  0  0  0
 22 23  1  0  0  0  0
 22 24  1  0  0  0  0
 25 22  1  0  0  0  0
M  RAD  1   2   2
M  END
