Coordinates from ORCA-job C6H6+HOTf+NH2--N2+-scan
 OpenBabel10191813343D

 26 24  0  0  1  0  0  0  0  0999 V2000
    2.6944   -5.1003   -1.4490 N   0  0  0  0  0  0  0  0  0  0  0  0
    3.6052   -5.4510   -1.9496 N   0  0  0  0  0  0  0  0  0  0  0  0
    1.5574   -3.1772   -1.8628 N   0  0  0  0  0  0  0  0  0  0  0  0
    0.8238   -3.8764   -1.8115 H   0  0  0  0  0  0  0  0  0  0  0  0
    3.0912   -0.6653    2.8873 H   0  0  0  0  0  0  0  0  0  0  0  0
   -1.1477   -0.6813   -2.5172 C   0  0  0  0  0  0  0  0  0  0  0  0
   -1.0214   -0.6425   -3.9184 C   0  0  0  0  0  0  0  0  0  0  0  0
    0.0567   -1.2382   -4.6057 C   0  0  0  0  0  0  0  0  0  0  0  0
    1.0124   -1.9084   -3.8917 C   0  0  0  0  0  0  0  0  0  0  0  0
    1.0041   -1.9277   -2.4135 C   0  0  1  0  0  0  0  0  0  0  0  0
   -0.1859   -1.3167   -1.7731 C   0  0  0  0  0  0  0  0  0  0  0  0
   -2.0071   -0.2250   -2.0409 H   0  0  0  0  0  0  0  0  0  0  0  0
   -1.7925   -0.1420   -4.4967 H   0  0  0  0  0  0  0  0  0  0  0  0
    0.0948   -1.1966   -5.6873 H   0  0  0  0  0  0  0  0  0  0  0  0
    1.8349   -2.4254   -4.3745 H   0  0  0  0  0  0  0  0  0  0  0  0
    1.7765   -1.1372   -2.2104 H   0  0  0  0  0  0  0  0  0  0  0  0
   -0.2443   -1.3475   -0.6880 H   0  0  0  0  0  0  0  0  0  0  0  0
    1.5008   -1.8021    1.9727 S   0  0  0  0  0  0  0  0  0  0  0  0
    0.1994   -1.3765    1.5074 O   0  0  0  0  0  0  0  0  0  0  0  0
    2.4885   -2.3264    1.0408 O   0  0  0  0  0  0  0  0  0  0  0  0
    2.1262   -0.5767    2.8077 O   0  0  0  0  0  0  0  0  0  0  0  0
    1.2549   -3.0804    3.3460 C   0  0  0  0  0  0  0  0  0  0  0  0
    2.4254   -3.2831    3.9368 F   0  0  0  0  0  0  0  0  0  0  0  0
    0.3706   -2.6272    4.2112 F   0  0  0  0  0  0  0  0  0  0  0  0
    0.8246   -4.1975    2.7801 F   0  0  0  0  0  0  0  0  0  0  0  0
    1.9066   -3.0234   -0.9197 H   0  0  0  0  0  0  0  0  0  0  0  0
  2  1  3  0  0  0  0
  3  4  1  0  0  0  0
  3 26  1  0  0  0  0
  6 12  1  0  0  0  0
  6 11  2  0  0  0  0
  7  6  1  0  0  0  0
  8  7  1  0  0  0  0
  8  9  2  0  0  0  0
  9 10  1  0  0  0  0
 10 16  1  1  0  0  0
 10  3  1  0  0  0  0
 10 11  1  0  0  0  0
 11 17  1  0  0  0  0
 13  7  1  0  0  0  0
 14  8  1  0  0  0  0
 15  9  1  0  0  0  0
 18 21  1  0  0  0  0
 18 22  1  0  0  0  0
 19 18  2  0  0  0  0
 20 18  2  0  0  0  0
 21  5  1  0  0  0  0
 22 23  1  0  0  0  0
 22 24  1  0  0  0  0
 25 22  1  0  0  0  0
M  RAD  1   7   2
M  END
