Coordinates from ORCA-job C6H6+HOTf+NH2--N2+-scan
 OpenBabel10191813343D

 26 24  0  0  1  0  0  0  0  0999 V2000
    0.8098   -7.5961   -2.5443 N   0  0  0  0  0  0  0  0  0  0  0  0
    0.7514   -8.6873   -2.6230 N   0  0  0  0  0  0  0  0  0  0  0  0
    2.3625   -2.2593   -1.8003 N   0  0  0  0  0  0  0  0  0  0  0  0
    2.1509   -3.2480   -1.8816 H   0  0  0  0  0  0  0  0  0  0  0  0
    2.3668    0.1364    3.2176 H   0  0  0  0  0  0  0  0  0  0  0  0
   -1.1826   -1.2542   -2.5095 C   0  0  0  0  0  0  0  0  0  0  0  0
   -1.0364   -1.0307   -3.8919 C   0  0  0  0  0  0  0  0  0  0  0  0
    0.2151   -1.0400   -4.5376 C   0  0  0  0  0  0  0  0  0  0  0  0
    1.3443   -1.2924   -3.8030 C   0  0  0  0  0  0  0  0  0  0  0  0
    1.2908   -1.4480   -2.3348 C   0  0  1  0  0  0  0  0  0  0  0  0
   -0.0710   -1.5024   -1.7448 C   0  0  0  0  0  0  0  0  0  0  0  0
   -2.1713   -1.2588   -2.0666 H   0  0  0  0  0  0  0  0  0  0  0  0
   -1.9271   -0.8526   -4.4871 H   0  0  0  0  0  0  0  0  0  0  0  0
    0.2715   -0.8843   -5.6080 H   0  0  0  0  0  0  0  0  0  0  0  0
    2.3300   -1.3422   -4.2532 H   0  0  0  0  0  0  0  0  0  0  0  0
    1.5345   -0.3755   -2.0719 H   0  0  0  0  0  0  0  0  0  0  0  0
   -0.1477   -1.6767   -0.6746 H   0  0  0  0  0  0  0  0  0  0  0  0
    1.4822   -1.4866    2.1039 S   0  0  0  0  0  0  0  0  0  0  0  0
    0.1586   -1.6115    1.5344 O   0  0  0  0  0  0  0  0  0  0  0  0
    2.6616   -1.4685    1.2519 O   0  0  0  0  0  0  0  0  0  0  0  0
    1.4645   -0.1852    3.0507 O   0  0  0  0  0  0  0  0  0  0  0  0
    1.7089   -2.8572    3.3883 C   0  0  0  0  0  0  0  0  0  0  0  0
    2.8080   -2.5958    4.0836 F   0  0  0  0  0  0  0  0  0  0  0  0
    0.6563   -2.8927    4.1801 F   0  0  0  0  0  0  0  0  0  0  0  0
    1.8390   -4.0012    2.7336 F   0  0  0  0  0  0  0  0  0  0  0  0
    2.5788   -2.0414   -0.8316 H   0  0  0  0  0  0  0  0  0  0  0  0
  2  1  3  0  0  0  0
  3 26  1  0  0  0  0
  4  3  1  0  0  0  0
  6 12  1  0  0  0  0
  6 11  2  0  0  0  0
  7  6  1  0  0  0  0
  8  7  1  0  0  0  0
  8  9  2  0  0  0  0
  9 10  1  0  0  0  0
 10 16  1  1  0  0  0
 10  3  1  0  0  0  0
 10 11  1  0  0  0  0
 11 17  1  0  0  0  0
 13  7  1  0  0  0  0
 14  8  1  0  0  0  0
 15  9  1  0  0  0  0
 18 21  1  0  0  0  0
 18 22  1  0  0  0  0
 19 18  2  0  0  0  0
 20 18  2  0  0  0  0
 21  5  1  0  0  0  0
 22 23  1  0  0  0  0
 22 24  1  0  0  0  0
 25 22  1  0  0  0  0
M  RAD  1   7   2
M  END
