Coordinates from ORCA-job C6H6+HOTf+NH2--N2+-scan
 OpenBabel10191813343D

 26 24  0  0  1  0  0  0  0  0999 V2000
    0.9985   -6.7919   -2.3198 N   0  0  0  0  0  0  0  0  0  0  0  0
    0.9192   -7.8828   -2.3800 N   0  0  0  0  0  0  0  0  0  0  0  0
    2.3177   -2.3856   -1.8249 N   0  0  0  0  0  0  0  0  0  0  0  0
    2.0708   -3.3669   -1.9004 H   0  0  0  0  0  0  0  0  0  0  0  0
    2.4338    0.0459    3.1763 H   0  0  0  0  0  0  0  0  0  0  0  0
   -1.1941   -1.2598   -2.5195 C   0  0  0  0  0  0  0  0  0  0  0  0
   -1.0478   -1.0472   -3.9035 C   0  0  0  0  0  0  0  0  0  0  0  0
    0.1989   -1.1035   -4.5560 C   0  0  0  0  0  0  0  0  0  0  0  0
    1.3225   -1.3928   -3.8264 C   0  0  0  0  0  0  0  0  0  0  0  0
    1.2719   -1.5403   -2.3574 C   0  0  1  0  0  0  0  0  0  0  0  0
   -0.0876   -1.5442   -1.7598 C   0  0  0  0  0  0  0  0  0  0  0  0
   -2.1798   -1.2276   -2.0711 H   0  0  0  0  0  0  0  0  0  0  0  0
   -1.9349   -0.8398   -4.4945 H   0  0  0  0  0  0  0  0  0  0  0  0
    0.2548   -0.9543   -5.6273 H   0  0  0  0  0  0  0  0  0  0  0  0
    2.3034   -1.4792   -4.2817 H   0  0  0  0  0  0  0  0  0  0  0  0
    1.5537   -0.4754   -2.1011 H   0  0  0  0  0  0  0  0  0  0  0  0
   -0.1643   -1.7113   -0.6885 H   0  0  0  0  0  0  0  0  0  0  0  0
    1.4868   -1.5539    2.0805 S   0  0  0  0  0  0  0  0  0  0  0  0
    0.1562   -1.6369    1.5196 O   0  0  0  0  0  0  0  0  0  0  0  0
    2.6611   -1.5831    1.2220 O   0  0  0  0  0  0  0  0  0  0  0  0
    1.5198   -0.2457    3.0176 O   0  0  0  0  0  0  0  0  0  0  0  0
    1.6733   -2.9219    3.3740 C   0  0  0  0  0  0  0  0  0  0  0  0
    2.7851   -2.6940    4.0609 F   0  0  0  0  0  0  0  0  0  0  0  0
    0.6249   -2.9146    4.1723 F   0  0  0  0  0  0  0  0  0  0  0  0
    1.7593   -4.0747    2.7275 F   0  0  0  0  0  0  0  0  0  0  0  0
    2.5462   -2.1708   -0.8583 H   0  0  0  0  0  0  0  0  0  0  0  0
  2  1  3  0  0  0  0
  3 26  1  0  0  0  0
  4  3  1  0  0  0  0
  6 12  1  0  0  0  0
  6 11  2  0  0  0  0
  7  6  1  0  0  0  0
  8  7  1  0  0  0  0
  8  9  2  0  0  0  0
  9 10  1  0  0  0  0
 10 16  1  1  0  0  0
 10  3  1  0  0  0  0
 10 11  1  0  0  0  0
 11 17  1  0  0  0  0
 13  7  1  0  0  0  0
 14  8  1  0  0  0  0
 15  9  1  0  0  0  0
 18 21  1  0  0  0  0
 18 22  1  0  0  0  0
 19 18  2  0  0  0  0
 20 18  2  0  0  0  0
 21  5  1  0  0  0  0
 22 23  1  0  0  0  0
 22 24  1  0  0  0  0
 25 22  1  0  0  0  0
M  RAD  1   7   2
M  END
