Coordinates from ORCA-job C6H6+HOTf+NH2--N2+-scan
 OpenBabel10191813343D

 26 24  0  0  1  0  0  0  0  0999 V2000
    2.6914   -5.0932   -1.4612 N   0  0  0  0  0  0  0  0  0  0  0  0
    3.5993   -5.4427   -1.9682 N   0  0  0  0  0  0  0  0  0  0  0  0
    1.5581   -3.1770   -1.8623 N   0  0  0  0  0  0  0  0  0  0  0  0
    0.8218   -3.8735   -1.8085 H   0  0  0  0  0  0  0  0  0  0  0  0
    3.0986   -0.6724    2.8870 H   0  0  0  0  0  0  0  0  0  0  0  0
   -1.1493   -0.6873   -2.5171 C   0  0  0  0  0  0  0  0  0  0  0  0
   -1.0234   -0.6493   -3.9182 C   0  0  0  0  0  0  0  0  0  0  0  0
    0.0580   -1.2401   -4.6052 C   0  0  0  0  0  0  0  0  0  0  0  0
    1.0168   -1.9051   -3.8909 C   0  0  0  0  0  0  0  0  0  0  0  0
    1.0082   -1.9236   -2.4126 C   0  0  1  0  0  0  0  0  0  0  0  0
   -0.1832   -1.3159   -1.7726 C   0  0  0  0  0  0  0  0  0  0  0  0
   -2.0109   -0.2349   -2.0410 H   0  0  0  0  0  0  0  0  0  0  0  0
   -1.7972   -0.1536   -4.4971 H   0  0  0  0  0  0  0  0  0  0  0  0
    0.0958   -1.1992   -5.6868 H   0  0  0  0  0  0  0  0  0  0  0  0
    1.8411   -2.4191   -4.3737 H   0  0  0  0  0  0  0  0  0  0  0  0
    1.7828   -1.1370   -2.2058 H   0  0  0  0  0  0  0  0  0  0  0  0
   -0.2405   -1.3449   -0.6874 H   0  0  0  0  0  0  0  0  0  0  0  0
    1.5019   -1.8019    1.9742 S   0  0  0  0  0  0  0  0  0  0  0  0
    0.2026   -1.3699    1.5088 O   0  0  0  0  0  0  0  0  0  0  0  0
    2.4866   -2.3326    1.0427 O   0  0  0  0  0  0  0  0  0  0  0  0
    2.1341   -0.5788    2.8074 O   0  0  0  0  0  0  0  0  0  0  0  0
    1.2497   -3.0774    3.3490 C   0  0  0  0  0  0  0  0  0  0  0  0
    2.4193   -3.2857    3.9396 F   0  0  0  0  0  0  0  0  0  0  0  0
    0.3682   -2.6186    4.2140 F   0  0  0  0  0  0  0  0  0  0  0  0
    0.8133   -4.1928    2.7844 F   0  0  0  0  0  0  0  0  0  0  0  0
    1.9064   -3.0255   -0.9184 H   0  0  0  0  0  0  0  0  0  0  0  0
  2  1  3  0  0  0  0
  3  4  1  0  0  0  0
  3 26  1  0  0  0  0
  6 12  1  0  0  0  0
  6 11  2  0  0  0  0
  7  6  1  0  0  0  0
  8  7  1  0  0  0  0
  8  9  2  0  0  0  0
  9 10  1  0  0  0  0
 10 16  1  1  0  0  0
 10  3  1  0  0  0  0
 10 11  1  0  0  0  0
 11 17  1  0  0  0  0
 13  7  1  0  0  0  0
 14  8  1  0  0  0  0
 15  9  1  0  0  0  0
 18 21  1  0  0  0  0
 18 22  1  0  0  0  0
 19 18  2  0  0  0  0
 20 18  2  0  0  0  0
 21  5  1  0  0  0  0
 22 23  1  0  0  0  0
 22 24  1  0  0  0  0
 25 22  1  0  0  0  0
M  RAD  1   7   2
M  END
