Coordinates from ORCA-job C6H6+HOTf+NH2--N2+-scan
 OpenBabel10191813343D

 26 24  0  0  1  0  0  0  0  0999 V2000
    2.6768   -5.5665   -1.1745 N   0  0  0  0  0  0  0  0  0  0  0  0
    3.6310   -6.1044   -1.1639 N   0  0  0  0  0  0  0  0  0  0  0  0
    1.6795   -3.0132   -1.9658 N   0  0  0  0  0  0  0  0  0  0  0  0
    1.1026   -3.8455   -1.9995 H   0  0  0  0  0  0  0  0  0  0  0  0
    3.0725   -0.6253    2.8622 H   0  0  0  0  0  0  0  0  0  0  0  0
   -1.2251   -0.7003   -2.5150 C   0  0  0  0  0  0  0  0  0  0  0  0
   -1.1035   -0.5828   -3.9124 C   0  0  0  0  0  0  0  0  0  0  0  0
   -0.0066   -1.1000   -4.6283 C   0  0  0  0  0  0  0  0  0  0  0  0
    0.9826   -1.7621   -3.9488 C   0  0  0  0  0  0  0  0  0  0  0  0
    0.9783   -1.8542   -2.4747 C   0  0  1  0  0  0  0  0  0  0  0  0
   -0.2480   -1.3515   -1.8051 C   0  0  0  0  0  0  0  0  0  0  0  0
   -2.1007   -0.3033   -2.0154 H   0  0  0  0  0  0  0  0  0  0  0  0
   -1.8929   -0.0797   -4.4630 H   0  0  0  0  0  0  0  0  0  0  0  0
    0.0293   -1.0018   -5.7063 H   0  0  0  0  0  0  0  0  0  0  0  0
    1.8344   -2.2062   -4.4529 H   0  0  0  0  0  0  0  0  0  0  0  0
    1.6424   -0.9600   -2.2771 H   0  0  0  0  0  0  0  0  0  0  0  0
   -0.3079   -1.4565   -0.7249 H   0  0  0  0  0  0  0  0  0  0  0  0
    1.5314   -1.8130    1.9284 S   0  0  0  0  0  0  0  0  0  0  0  0
    0.2245   -1.4265    1.4442 O   0  0  0  0  0  0  0  0  0  0  0  0
    2.5484   -2.3105    1.0146 O   0  0  0  0  0  0  0  0  0  0  0  0
    2.1064   -0.5667    2.7696 O   0  0  0  0  0  0  0  0  0  0  0  0
    1.3021   -3.0924    3.3031 C   0  0  0  0  0  0  0  0  0  0  0  0
    2.4683   -3.2569    3.9142 F   0  0  0  0  0  0  0  0  0  0  0  0
    0.3901   -2.6633    4.1519 F   0  0  0  0  0  0  0  0  0  0  0  0
    0.9156   -4.2250    2.7360 F   0  0  0  0  0  0  0  0  0  0  0  0
    2.0179   -2.8846   -1.0165 H   0  0  0  0  0  0  0  0  0  0  0  0
  1  2  3  0  0  0  0
  3 26  1  0  0  0  0
  4  3  1  0  0  0  0
  6 12  1  0  0  0  0
  6 11  2  0  0  0  0
  7  6  1  0  0  0  0
  8  9  2  0  0  0  0
  8  7  1  0  0  0  0
  9 10  1  0  0  0  0
 10 16  1  1  0  0  0
 10  3  1  0  0  0  0
 10 11  1  0  0  0  0
 11 17  1  0  0  0  0
 13  7  1  0  0  0  0
 14  8  1  0  0  0  0
 15  9  1  0  0  0  0
 18 21  1  0  0  0  0
 18 22  1  0  0  0  0
 19 18  2  0  0  0  0
 20 18  2  0  0  0  0
 21  5  1  0  0  0  0
 22 23  1  0  0  0  0
 22 24  1  0  0  0  0
 25 22  1  0  0  0  0
M  RAD  1   7   2
M  END
