Coordinates from ORCA-job C6H6+HOTf+NH2--N2+-scan
 OpenBabel10191813343D

 26 24  0  0  1  0  0  0  0  0999 V2000
    1.0440   -6.5665   -2.2711 N   0  0  0  0  0  0  0  0  0  0  0  0
    0.9569   -7.6569   -2.3286 N   0  0  0  0  0  0  0  0  0  0  0  0
    2.3060   -2.4211   -1.8299 N   0  0  0  0  0  0  0  0  0  0  0  0
    2.0494   -3.4004   -1.9030 H   0  0  0  0  0  0  0  0  0  0  0  0
    2.4490    0.0247    3.1650 H   0  0  0  0  0  0  0  0  0  0  0  0
   -1.1963   -1.2646   -2.5218 C   0  0  0  0  0  0  0  0  0  0  0  0
   -1.0499   -1.0549   -3.9062 C   0  0  0  0  0  0  0  0  0  0  0  0
    0.1954   -1.1235   -4.5602 C   0  0  0  0  0  0  0  0  0  0  0  0
    1.3173   -1.4222   -3.8316 C   0  0  0  0  0  0  0  0  0  0  0  0
    1.2672   -1.5674   -2.3624 C   0  0  1  0  0  0  0  0  0  0  0  0
   -0.0915   -1.5582   -1.7632 C   0  0  0  0  0  0  0  0  0  0  0  0
   -2.1812   -1.2227   -2.0722 H   0  0  0  0  0  0  0  0  0  0  0  0
   -1.9358   -0.8400   -4.4964 H   0  0  0  0  0  0  0  0  0  0  0  0
    0.2513   -0.9761   -5.6317 H   0  0  0  0  0  0  0  0  0  0  0  0
    2.2968   -1.5181   -4.2880 H   0  0  0  0  0  0  0  0  0  0  0  0
    1.5586   -0.5045   -2.1081 H   0  0  0  0  0  0  0  0  0  0  0  0
   -0.1683   -1.7233   -0.6916 H   0  0  0  0  0  0  0  0  0  0  0  0
    1.4880   -1.5707    2.0752 S   0  0  0  0  0  0  0  0  0  0  0  0
    0.1561   -1.6449    1.5164 O   0  0  0  0  0  0  0  0  0  0  0  0
    2.6610   -1.6115    1.2152 O   0  0  0  0  0  0  0  0  0  0  0  0
    1.5326   -0.2603    3.0086 O   0  0  0  0  0  0  0  0  0  0  0  0
    1.6655   -2.9365    3.3722 C   0  0  0  0  0  0  0  0  0  0  0  0
    2.7801   -2.7156    4.0569 F   0  0  0  0  0  0  0  0  0  0  0  0
    0.6184   -2.9186    4.1720 F   0  0  0  0  0  0  0  0  0  0  0  0
    1.7413   -4.0918    2.7289 F   0  0  0  0  0  0  0  0  0  0  0  0
    2.5377   -2.2063   -0.8642 H   0  0  0  0  0  0  0  0  0  0  0  0
  2  1  3  0  0  0  0
  3 26  1  0  0  0  0
  4  3  1  0  0  0  0
  6 12  1  0  0  0  0
  6 11  2  0  0  0  0
  7  6  1  0  0  0  0
  8  7  1  0  0  0  0
  8  9  2  0  0  0  0
  9 10  1  0  0  0  0
 10 16  1  1  0  0  0
 10  3  1  0  0  0  0
 10 11  1  0  0  0  0
 11 17  1  0  0  0  0
 13  7  1  0  0  0  0
 14  8  1  0  0  0  0
 15  9  1  0  0  0  0
 18 21  1  0  0  0  0
 18 22  1  0  0  0  0
 19 18  2  0  0  0  0
 20 18  2  0  0  0  0
 21  5  1  0  0  0  0
 22 23  1  0  0  0  0
 22 24  1  0  0  0  0
 25 22  1  0  0  0  0
M  RAD  1   7   2
M  END
