Coordinates from ORCA-job C6H6+HOTf+NH2--N2+-scan
 OpenBabel10191813343D

 26 24  0  0  1  0  0  0  0  0999 V2000
    0.6714   -8.2322   -2.7313 N   0  0  0  0  0  0  0  0  0  0  0  0
    0.6282   -9.3232   -2.8217 N   0  0  0  0  0  0  0  0  0  0  0  0
    2.3935   -2.1641   -1.7804 N   0  0  0  0  0  0  0  0  0  0  0  0
    2.2071   -3.1575   -1.8649 H   0  0  0  0  0  0  0  0  0  0  0  0
    2.3184    0.2062    3.2486 H   0  0  0  0  0  0  0  0  0  0  0  0
   -1.1727   -1.2455   -2.5004 C   0  0  0  0  0  0  0  0  0  0  0  0
   -1.0269   -1.0147   -3.8816 C   0  0  0  0  0  0  0  0  0  0  0  0
    0.2268   -0.9909   -4.5226 C   0  0  0  0  0  0  0  0  0  0  0  0
    1.3592   -1.2171   -3.7843 C   0  0  0  0  0  0  0  0  0  0  0  0
    1.3041   -1.3781   -2.3167 C   0  0  1  0  0  0  0  0  0  0  0  0
   -0.0581   -1.4680   -1.7321 C   0  0  0  0  0  0  0  0  0  0  0  0
   -2.1627   -1.2761   -2.0613 H   0  0  0  0  0  0  0  0  0  0  0  0
   -1.9195   -0.8573   -4.4798 H   0  0  0  0  0  0  0  0  0  0  0  0
    0.2834   -0.8309   -5.5923 H   0  0  0  0  0  0  0  0  0  0  0  0
    2.3476   -1.2409   -4.2309 H   0  0  0  0  0  0  0  0  0  0  0  0
    1.5202   -0.3006   -2.0499 H   0  0  0  0  0  0  0  0  0  0  0  0
   -0.1345   -1.6471   -0.6627 H   0  0  0  0  0  0  0  0  0  0  0  0
    1.4794   -1.4326    2.1229 S   0  0  0  0  0  0  0  0  0  0  0  0
    0.1617   -1.5875    1.5469 O   0  0  0  0  0  0  0  0  0  0  0  0
    2.6614   -1.3806    1.2760 O   0  0  0  0  0  0  0  0  0  0  0  0
    1.4251   -0.1370    3.0761 O   0  0  0  0  0  0  0  0  0  0  0  0
    1.7348   -2.8038    3.4012 C   0  0  0  0  0  0  0  0  0  0  0  0
    2.8241   -2.5187    4.1026 F   0  0  0  0  0  0  0  0  0  0  0  0
    0.6801   -2.8696    4.1882 F   0  0  0  0  0  0  0  0  0  0  0  0
    1.8961   -3.9407    2.7412 F   0  0  0  0  0  0  0  0  0  0  0  0
    2.6013   -1.9436   -0.8104 H   0  0  0  0  0  0  0  0  0  0  0  0
  2  1  3  0  0  0  0
  3 26  1  0  0  0  0
  4  3  1  0  0  0  0
  6 12  1  0  0  0  0
  6 11  2  0  0  0  0
  7  6  1  0  0  0  0
  8  7  1  0  0  0  0
  8  9  2  0  0  0  0
  9 10  1  0  0  0  0
 10 16  1  1  0  0  0
 10  3  1  0  0  0  0
 10 11  1  0  0  0  0
 11 17  1  0  0  0  0
 13  7  1  0  0  0  0
 14  8  1  0  0  0  0
 15  9  1  0  0  0  0
 18 21  1  0  0  0  0
 18 22  1  0  0  0  0
 19 18  2  0  0  0  0
 20 18  2  0  0  0  0
 21  5  1  0  0  0  0
 22 23  1  0  0  0  0
 22 24  1  0  0  0  0
 25 22  1  0  0  0  0
M  RAD  1   7   2
M  END
