Coordinates from ORCA-job C6H6+HOTf+NH2--N2+-scan
 OpenBabel10191813343D

 26 24  0  0  1  0  0  0  0  0999 V2000
    0.6013   -8.6196   -2.8358 N   0  0  0  0  0  0  0  0  0  0  0  0
    0.5659   -9.7104   -2.9314 N   0  0  0  0  0  0  0  0  0  0  0  0
    2.4089   -2.1097   -1.7698 N   0  0  0  0  0  0  0  0  0  0  0  0
    2.2351   -3.1051   -1.8563 H   0  0  0  0  0  0  0  0  0  0  0  0
    2.2945    0.2439    3.2661 H   0  0  0  0  0  0  0  0  0  0  0  0
   -1.1673   -1.2343   -2.4949 C   0  0  0  0  0  0  0  0  0  0  0  0
   -1.0218   -0.9992   -3.8754 C   0  0  0  0  0  0  0  0  0  0  0  0
    0.2327   -0.9587   -4.5140 C   0  0  0  0  0  0  0  0  0  0  0  0
    1.3664   -1.1721   -3.7741 C   0  0  0  0  0  0  0  0  0  0  0  0
    1.3107   -1.3363   -2.3068 C   0  0  1  0  0  0  0  0  0  0  0  0
   -0.0514   -1.4443   -1.7248 C   0  0  0  0  0  0  0  0  0  0  0  0
   -2.1576   -1.2780   -2.0576 H   0  0  0  0  0  0  0  0  0  0  0  0
   -1.9152   -0.8519   -4.4749 H   0  0  0  0  0  0  0  0  0  0  0  0
    0.2892   -0.7961   -5.5833 H   0  0  0  0  0  0  0  0  0  0  0  0
    2.3558   -1.1828   -4.2188 H   0  0  0  0  0  0  0  0  0  0  0  0
    1.5128   -0.2568   -2.0377 H   0  0  0  0  0  0  0  0  0  0  0  0
   -0.1275   -1.6262   -0.6559 H   0  0  0  0  0  0  0  0  0  0  0  0
    1.4781   -1.4015    2.1334 S   0  0  0  0  0  0  0  0  0  0  0  0
    0.1637   -1.5708    1.5540 O   0  0  0  0  0  0  0  0  0  0  0  0
    2.6613   -1.3323    1.2893 O   0  0  0  0  0  0  0  0  0  0  0  0
    1.4059   -0.1097    3.0905 O   0  0  0  0  0  0  0  0  0  0  0  0
    1.7476   -2.7736    3.4079 C   0  0  0  0  0  0  0  0  0  0  0  0
    2.8319   -2.4774    4.1125 F   0  0  0  0  0  0  0  0  0  0  0  0
    0.6921   -2.8547    4.1925 F   0  0  0  0  0  0  0  0  0  0  0  0
    1.9242   -3.9063    2.7447 F   0  0  0  0  0  0  0  0  0  0  0  0
    2.6123   -1.8882   -0.7991 H   0  0  0  0  0  0  0  0  0  0  0  0
  2  1  3  0  0  0  0
  3 26  1  0  0  0  0
  4  3  1  0  0  0  0
  6 12  1  0  0  0  0
  6 11  2  0  0  0  0
  7  6  1  0  0  0  0
  8  7  1  0  0  0  0
  8  9  2  0  0  0  0
  9 10  1  0  0  0  0
 10 16  1  1  0  0  0
 10  3  1  0  0  0  0
 10 11  1  0  0  0  0
 11 17  1  0  0  0  0
 13  7  1  0  0  0  0
 14  8  1  0  0  0  0
 15  9  1  0  0  0  0
 18 21  1  0  0  0  0
 18 22  1  0  0  0  0
 19 18  2  0  0  0  0
 20 18  2  0  0  0  0
 21  5  1  0  0  0  0
 22 23  1  0  0  0  0
 22 24  1  0  0  0  0
 25 22  1  0  0  0  0
M  RAD  1   7   2
M  END
