Coordinates from ORCA-job C6H6+HOTf+NH2--N2+-scan
 OpenBabel10191813343D

 26 24  0  0  1  0  0  0  0  0999 V2000
    1.3811   -5.8042   -2.0447 N   0  0  0  0  0  0  0  0  0  0  0  0
    1.3934   -6.8992   -2.0542 N   0  0  0  0  0  0  0  0  0  0  0  0
    2.1992   -2.6085   -1.8613 N   0  0  0  0  0  0  0  0  0  0  0  0
    1.8775   -3.5679   -1.9276 H   0  0  0  0  0  0  0  0  0  0  0  0
    2.5716   -0.0927    3.0980 H   0  0  0  0  0  0  0  0  0  0  0  0
   -1.2152   -1.1994   -2.5255 C   0  0  0  0  0  0  0  0  0  0  0  0
   -1.0685   -1.0085   -3.9124 C   0  0  0  0  0  0  0  0  0  0  0  0
    0.1610   -1.1734   -4.5784 C   0  0  0  0  0  0  0  0  0  0  0  0
    1.2654   -1.5511   -3.8593 C   0  0  0  0  0  0  0  0  0  0  0  0
    1.2206   -1.6865   -2.3894 C   0  0  1  0  0  0  0  0  0  0  0  0
   -0.1272   -1.5718   -1.7768 C   0  0  0  0  0  0  0  0  0  0  0  0
   -2.1891   -1.0811   -2.0658 H   0  0  0  0  0  0  0  0  0  0  0  0
   -1.9419   -0.7302   -4.4946 H   0  0  0  0  0  0  0  0  0  0  0  0
    0.2167   -1.0352   -5.6512 H   0  0  0  0  0  0  0  0  0  0  0  0
    2.2305   -1.7203   -4.3249 H   0  0  0  0  0  0  0  0  0  0  0  0
    1.5888   -0.6439   -2.1471 H   0  0  0  0  0  0  0  0  0  0  0  0
   -0.2043   -1.7244   -0.7035 H   0  0  0  0  0  0  0  0  0  0  0  0
    1.4971   -1.6405    2.0465 S   0  0  0  0  0  0  0  0  0  0  0  0
    0.1571   -1.6367    1.5023 O   0  0  0  0  0  0  0  0  0  0  0  0
    2.6561   -1.7725    1.1772 O   0  0  0  0  0  0  0  0  0  0  0  0
    1.6369   -0.3206    2.9573 O   0  0  0  0  0  0  0  0  0  0  0  0
    1.5980   -2.9927    3.3653 C   0  0  0  0  0  0  0  0  0  0  0  0
    2.7323   -2.8355    4.0351 F   0  0  0  0  0  0  0  0  0  0  0  0
    0.5633   -2.8925    4.1752 F   0  0  0  0  0  0  0  0  0  0  0  0
    1.5901   -4.1615    2.7416 F   0  0  0  0  0  0  0  0  0  0  0  0
    2.4592   -2.4012   -0.9016 H   0  0  0  0  0  0  0  0  0  0  0  0
  2  1  3  0  0  0  0
  3 26  1  0  0  0  0
  4  3  1  0  0  0  0
  6 12  1  0  0  0  0
  6 11  2  0  0  0  0
  7  6  1  0  0  0  0
  8  7  1  0  0  0  0
  8  9  2  0  0  0  0
  9 10  1  0  0  0  0
 10 16  1  1  0  0  0
 10  3  1  0  0  0  0
 10 11  1  0  0  0  0
 11 17  1  0  0  0  0
 13  7  1  0  0  0  0
 14  8  1  0  0  0  0
 15  9  1  0  0  0  0
 18 21  1  0  0  0  0
 18 22  1  0  0  0  0
 19 18  2  0  0  0  0
 20 18  2  0  0  0  0
 21  5  1  0  0  0  0
 22 23  1  0  0  0  0
 22 24  1  0  0  0  0
 25 22  1  0  0  0  0
M  RAD  1   7   2
M  END
