Coordinates from ORCA-job C6H6+HOTf+NH2--N2+-scan
 OpenBabel10191813343D

 26 24  0  0  1  0  0  0  0  0999 V2000
    2.6783   -5.5918   -1.1675 N   0  0  0  0  0  0  0  0  0  0  0  0
    3.6281   -6.1372   -1.1509 N   0  0  0  0  0  0  0  0  0  0  0  0
    1.6826   -3.0070   -1.9673 N   0  0  0  0  0  0  0  0  0  0  0  0
    1.1097   -3.8416   -2.0032 H   0  0  0  0  0  0  0  0  0  0  0  0
    3.0675   -0.6191    2.8643 H   0  0  0  0  0  0  0  0  0  0  0  0
   -1.2272   -0.7006   -2.5147 C   0  0  0  0  0  0  0  0  0  0  0  0
   -1.1060   -0.5824   -3.9122 C   0  0  0  0  0  0  0  0  0  0  0  0
   -0.0080   -1.0969   -4.6283 C   0  0  0  0  0  0  0  0  0  0  0  0
    0.9828   -1.7570   -3.9494 C   0  0  0  0  0  0  0  0  0  0  0  0
    0.9788   -1.8498   -2.4753 C   0  0  1  0  0  0  0  0  0  0  0  0
   -0.2486   -1.3500   -1.8052 C   0  0  0  0  0  0  0  0  0  0  0  0
   -2.1037   -0.3058   -2.0150 H   0  0  0  0  0  0  0  0  0  0  0  0
   -1.8965   -0.0808   -4.4624 H   0  0  0  0  0  0  0  0  0  0  0  0
    0.0275   -0.9981   -5.7063 H   0  0  0  0  0  0  0  0  0  0  0  0
    1.8354   -2.1992   -4.4537 H   0  0  0  0  0  0  0  0  0  0  0  0
    1.6409   -0.9542   -2.2773 H   0  0  0  0  0  0  0  0  0  0  0  0
   -0.3078   -1.4554   -0.7251 H   0  0  0  0  0  0  0  0  0  0  0  0
    1.5309   -1.8102    1.9278 S   0  0  0  0  0  0  0  0  0  0  0  0
    0.2230   -1.4272    1.4436 O   0  0  0  0  0  0  0  0  0  0  0  0
    2.5500   -2.3029    1.0138 O   0  0  0  0  0  0  0  0  0  0  0  0
    2.1013   -0.5636    2.7716 O   0  0  0  0  0  0  0  0  0  0  0  0
    1.3047   -3.0928    3.3000 C   0  0  0  0  0  0  0  0  0  0  0  0
    2.4711   -3.2549    3.9115 F   0  0  0  0  0  0  0  0  0  0  0  0
    0.3910   -2.6682    4.1491 F   0  0  0  0  0  0  0  0  0  0  0  0
    0.9221   -4.2256    2.7306 F   0  0  0  0  0  0  0  0  0  0  0  0
    2.0217   -2.8796   -1.0183 H   0  0  0  0  0  0  0  0  0  0  0  0
  1  2  3  0  0  0  0
  3 26  1  0  0  0  0
  4  3  1  0  0  0  0
  6 12  1  0  0  0  0
  6 11  2  0  0  0  0
  7  6  1  0  0  0  0
  8  9  2  0  0  0  0
  8  7  1  0  0  0  0
  9 10  1  0  0  0  0
 10 16  1  1  0  0  0
 10  3  1  0  0  0  0
 10 11  1  0  0  0  0
 11 17  1  0  0  0  0
 13  7  1  0  0  0  0
 14  8  1  0  0  0  0
 15  9  1  0  0  0  0
 18 21  1  0  0  0  0
 18 22  1  0  0  0  0
 19 18  2  0  0  0  0
 20 18  2  0  0  0  0
 21  5  1  0  0  0  0
 22 23  1  0  0  0  0
 22 24  1  0  0  0  0
 25 22  1  0  0  0  0
M  RAD  1   7   2
M  END
