Coordinates from ORCA-job C6H6+HOTf+NH2--N2+-scan
 OpenBabel10191813343D

 26 24  0  0  1  0  0  0  0  0999 V2000
    0.7871   -7.6947   -2.5734 N   0  0  0  0  0  0  0  0  0  0  0  0
    0.7314   -8.7859   -2.6541 N   0  0  0  0  0  0  0  0  0  0  0  0
    2.3676   -2.2442   -1.7972 N   0  0  0  0  0  0  0  0  0  0  0  0
    2.1602   -3.2337   -1.8790 H   0  0  0  0  0  0  0  0  0  0  0  0
    2.3588    0.1475    3.2225 H   0  0  0  0  0  0  0  0  0  0  0  0
   -1.1811   -1.2533   -2.5082 C   0  0  0  0  0  0  0  0  0  0  0  0
   -1.0349   -1.0285   -3.8903 C   0  0  0  0  0  0  0  0  0  0  0  0
    0.2170   -1.0324   -4.5353 C   0  0  0  0  0  0  0  0  0  0  0  0
    1.3468   -1.2805   -3.8001 C   0  0  0  0  0  0  0  0  0  0  0  0
    1.2930   -1.4370   -2.3320 C   0  0  1  0  0  0  0  0  0  0  0  0
   -0.0689   -1.4973   -1.7428 C   0  0  0  0  0  0  0  0  0  0  0  0
   -2.1701   -1.2622   -2.0659 H   0  0  0  0  0  0  0  0  0  0  0  0
   -1.9259   -0.8539   -4.4860 H   0  0  0  0  0  0  0  0  0  0  0  0
    0.2735   -0.8760   -5.6055 H   0  0  0  0  0  0  0  0  0  0  0  0
    2.3330   -1.3260   -4.2497 H   0  0  0  0  0  0  0  0  0  0  0  0
    1.5322   -0.3636   -2.0684 H   0  0  0  0  0  0  0  0  0  0  0  0
   -0.1456   -1.6723   -0.6728 H   0  0  0  0  0  0  0  0  0  0  0  0
    1.4817   -1.4782    2.1069 S   0  0  0  0  0  0  0  0  0  0  0  0
    0.1590   -1.6080    1.5363 O   0  0  0  0  0  0  0  0  0  0  0  0
    2.6616   -1.4545    1.2557 O   0  0  0  0  0  0  0  0  0  0  0  0
    1.4580   -0.1777    3.0547 O   0  0  0  0  0  0  0  0  0  0  0  0
    1.7132   -2.8490    3.3902 C   0  0  0  0  0  0  0  0  0  0  0  0
    2.8107   -2.5836    4.0866 F   0  0  0  0  0  0  0  0  0  0  0  0
    0.6601   -2.8894    4.1813 F   0  0  0  0  0  0  0  0  0  0  0  0
    1.8485   -3.9918    2.7347 F   0  0  0  0  0  0  0  0  0  0  0  0
    2.5826   -2.0259   -0.8282 H   0  0  0  0  0  0  0  0  0  0  0  0
  2  1  3  0  0  0  0
  3 26  1  0  0  0  0
  4  3  1  0  0  0  0
  6 12  1  0  0  0  0
  6 11  2  0  0  0  0
  7  6  1  0  0  0  0
  8  7  1  0  0  0  0
  8  9  2  0  0  0  0
  9 10  1  0  0  0  0
 10 16  1  1  0  0  0
 10  3  1  0  0  0  0
 10 11  1  0  0  0  0
 11 17  1  0  0  0  0
 13  7  1  0  0  0  0
 14  8  1  0  0  0  0
 15  9  1  0  0  0  0
 18 21  1  0  0  0  0
 18 22  1  0  0  0  0
 19 18  2  0  0  0  0
 20 18  2  0  0  0  0
 21  5  1  0  0  0  0
 22 23  1  0  0  0  0
 22 24  1  0  0  0  0
 25 22  1  0  0  0  0
M  RAD  1   7   2
M  END
