Coordinates from ORCA-job C6H6+HOTf+NH2--N2+-scan
 OpenBabel10191813343D

 26 24  0  0  1  0  0  0  0  0999 V2000
    0.8478   -7.4413   -2.4965 N   0  0  0  0  0  0  0  0  0  0  0  0
    0.7857   -8.5325   -2.5715 N   0  0  0  0  0  0  0  0  0  0  0  0
    2.3537   -2.2835   -1.8056 N   0  0  0  0  0  0  0  0  0  0  0  0
    2.1353   -3.2709   -1.8860 H   0  0  0  0  0  0  0  0  0  0  0  0
    2.3803    0.1180    3.2095 H   0  0  0  0  0  0  0  0  0  0  0  0
   -1.1851   -1.2545   -2.5117 C   0  0  0  0  0  0  0  0  0  0  0  0
   -1.0389   -1.0330   -3.8943 C   0  0  0  0  0  0  0  0  0  0  0  0
    0.2118   -1.0514   -4.5414 C   0  0  0  0  0  0  0  0  0  0  0  0
    1.3400   -1.3112   -3.8079 C   0  0  0  0  0  0  0  0  0  0  0  0
    1.2871   -1.4654   -2.3395 C   0  0  1  0  0  0  0  0  0  0  0  0
   -0.0744   -1.5100   -1.7480 C   0  0  0  0  0  0  0  0  0  0  0  0
   -2.1734   -1.2520   -2.0676 H   0  0  0  0  0  0  0  0  0  0  0  0
   -1.9289   -0.8491   -4.4887 H   0  0  0  0  0  0  0  0  0  0  0  0
    0.2681   -0.8969   -5.6119 H   0  0  0  0  0  0  0  0  0  0  0  0
    2.3249   -1.3681   -4.2591 H   0  0  0  0  0  0  0  0  0  0  0  0
    1.5383   -0.3943   -2.0777 H   0  0  0  0  0  0  0  0  0  0  0  0
   -0.1511   -1.6829   -0.6776 H   0  0  0  0  0  0  0  0  0  0  0  0
    1.4831   -1.5002    2.0990 S   0  0  0  0  0  0  0  0  0  0  0  0
    0.1579   -1.6165    1.5312 O   0  0  0  0  0  0  0  0  0  0  0  0
    2.6616   -1.4914    1.2456 O   0  0  0  0  0  0  0  0  0  0  0  0
    1.4756   -0.1975    3.0442 O   0  0  0  0  0  0  0  0  0  0  0  0
    1.7016   -2.8708    3.3848 C   0  0  0  0  0  0  0  0  0  0  0  0
    2.8034   -2.6161    4.0786 F   0  0  0  0  0  0  0  0  0  0  0  0
    0.6497   -2.8978    4.1779 F   0  0  0  0  0  0  0  0  0  0  0  0
    1.8230   -4.0164    2.7315 F   0  0  0  0  0  0  0  0  0  0  0  0
    2.5725   -2.0665   -0.8372 H   0  0  0  0  0  0  0  0  0  0  0  0
  2  1  3  0  0  0  0
  3 26  1  0  0  0  0
  4  3  1  0  0  0  0
  6 12  1  0  0  0  0
  6 11  2  0  0  0  0
  7  6  1  0  0  0  0
  8  7  1  0  0  0  0
  8  9  2  0  0  0  0
  9 10  1  0  0  0  0
 10 16  1  1  0  0  0
 10  3  1  0  0  0  0
 10 11  1  0  0  0  0
 11 17  1  0  0  0  0
 13  7  1  0  0  0  0
 14  8  1  0  0  0  0
 15  9  1  0  0  0  0
 18 21  1  0  0  0  0
 18 22  1  0  0  0  0
 19 18  2  0  0  0  0
 20 18  2  0  0  0  0
 21  5  1  0  0  0  0
 22 23  1  0  0  0  0
 22 24  1  0  0  0  0
 25 22  1  0  0  0  0
M  RAD  1   7   2
M  END
