Coordinates from ORCA-job C6H6+HOTf+NH2--N2+-scan
 OpenBabel10191813343D

 26 24  0  0  1  0  0  0  0  0999 V2000
    2.7605   -5.2480   -1.2683 N   0  0  0  0  0  0  0  0  0  0  0  0
    3.7137   -5.6298   -1.6512 N   0  0  0  0  0  0  0  0  0  0  0  0
    1.5602   -3.1423   -1.8913 N   0  0  0  0  0  0  0  0  0  0  0  0
    0.8786   -3.8922   -1.8598 H   0  0  0  0  0  0  0  0  0  0  0  0
    3.0587   -0.6376    2.8827 H   0  0  0  0  0  0  0  0  0  0  0  0
   -1.1570   -0.6374   -2.5182 C   0  0  0  0  0  0  0  0  0  0  0  0
   -1.0353   -0.5848   -3.9196 C   0  0  0  0  0  0  0  0  0  0  0  0
    0.0246   -1.1975   -4.6174 C   0  0  0  0  0  0  0  0  0  0  0  0
    0.9708   -1.8950   -3.9144 C   0  0  0  0  0  0  0  0  0  0  0  0
    0.9689   -1.9276   -2.4371 C   0  0  1  0  0  0  0  0  0  0  0  0
   -0.2140   -1.3122   -1.7849 C   0  0  0  0  0  0  0  0  0  0  0  0
   -2.0038   -0.1669   -2.0332 H   0  0  0  0  0  0  0  0  0  0  0  0
   -1.7957   -0.0577   -4.4884 H   0  0  0  0  0  0  0  0  0  0  0  0
    0.0602   -1.1453   -5.6986 H   0  0  0  0  0  0  0  0  0  0  0  0
    1.7852   -2.4186   -4.4037 H   0  0  0  0  0  0  0  0  0  0  0  0
    1.7182   -1.1035   -2.2581 H   0  0  0  0  0  0  0  0  0  0  0  0
   -0.2728   -1.3622   -0.7005 H   0  0  0  0  0  0  0  0  0  0  0  0
    1.5037   -1.8094    1.9517 S   0  0  0  0  0  0  0  0  0  0  0  0
    0.1934   -1.4142    1.4841 O   0  0  0  0  0  0  0  0  0  0  0  0
    2.5099   -2.2993    1.0214 O   0  0  0  0  0  0  0  0  0  0  0  0
    2.0918   -0.5750    2.8009 O   0  0  0  0  0  0  0  0  0  0  0  0
    1.2839   -3.1047    3.3133 C   0  0  0  0  0  0  0  0  0  0  0  0
    2.4562   -3.2820    3.9088 F   0  0  0  0  0  0  0  0  0  0  0  0
    0.3838   -2.6817    4.1776 F   0  0  0  0  0  0  0  0  0  0  0  0
    0.8856   -4.2280    2.7363 F   0  0  0  0  0  0  0  0  0  0  0  0
    1.9203   -2.9992   -0.9520 H   0  0  0  0  0  0  0  0  0  0  0  0
  2  1  3  0  0  0  0
  3  4  1  0  0  0  0
  3 26  1  0  0  0  0
  6 12  1  0  0  0  0
  6 11  2  0  0  0  0
  7  6  1  0  0  0  0
  8  7  1  0  0  0  0
  8  9  2  0  0  0  0
  9 10  1  0  0  0  0
 10 16  1  1  0  0  0
 10  3  1  0  0  0  0
 10 11  1  0  0  0  0
 11 17  1  0  0  0  0
 13  7  1  0  0  0  0
 14  8  1  0  0  0  0
 15  9  1  0  0  0  0
 18 21  1  0  0  0  0
 18 22  1  0  0  0  0
 19 18  2  0  0  0  0
 20 18  2  0  0  0  0
 21  5  1  0  0  0  0
 22 23  1  0  0  0  0
 22 24  1  0  0  0  0
 25 22  1  0  0  0  0
M  RAD  1   7   2
M  END
