Coordinates from ORCA-job C6H6+HOTf+NH2--N2+-scan
 OpenBabel10191813343D

 26 24  0  0  1  0  0  0  0  0999 V2000
    0.7554   -7.8346   -2.6151 N   0  0  0  0  0  0  0  0  0  0  0  0
    0.7032   -8.9257   -2.6986 N   0  0  0  0  0  0  0  0  0  0  0  0
    2.3748   -2.2230   -1.7927 N   0  0  0  0  0  0  0  0  0  0  0  0
    2.1731   -3.2136   -1.8752 H   0  0  0  0  0  0  0  0  0  0  0  0
    2.3477    0.1632    3.2295 H   0  0  0  0  0  0  0  0  0  0  0  0
   -1.1789   -1.2519   -2.5062 C   0  0  0  0  0  0  0  0  0  0  0  0
   -1.0327   -1.0255   -3.8881 C   0  0  0  0  0  0  0  0  0  0  0  0
    0.2197   -1.0217   -4.5319 C   0  0  0  0  0  0  0  0  0  0  0  0
    1.3502   -1.2638   -3.7959 C   0  0  0  0  0  0  0  0  0  0  0  0
    1.2961   -1.4216   -2.3279 C   0  0  1  0  0  0  0  0  0  0  0  0
   -0.0660   -1.4900   -1.7400 C   0  0  0  0  0  0  0  0  0  0  0  0
   -2.1682   -1.2667   -2.0648 H   0  0  0  0  0  0  0  0  0  0  0  0
   -1.9242   -0.8556   -4.4845 H   0  0  0  0  0  0  0  0  0  0  0  0
    0.2762   -0.8644   -5.6020 H   0  0  0  0  0  0  0  0  0  0  0  0
    2.3371   -1.3034   -4.2446 H   0  0  0  0  0  0  0  0  0  0  0  0
    1.5289   -0.3470   -2.0634 H   0  0  0  0  0  0  0  0  0  0  0  0
   -0.1426   -1.6661   -0.6701 H   0  0  0  0  0  0  0  0  0  0  0  0
    1.4810   -1.4662    2.1111 S   0  0  0  0  0  0  0  0  0  0  0  0
    0.1597   -1.6030    1.5391 O   0  0  0  0  0  0  0  0  0  0  0  0
    2.6616   -1.4348    1.2611 O   0  0  0  0  0  0  0  0  0  0  0  0
    1.4489   -0.1669    3.0603 O   0  0  0  0  0  0  0  0  0  0  0  0
    1.7191   -2.8371    3.3931 C   0  0  0  0  0  0  0  0  0  0  0  0
    2.8144   -2.5662    4.0909 F   0  0  0  0  0  0  0  0  0  0  0  0
    0.6656   -2.8844    4.1831 F   0  0  0  0  0  0  0  0  0  0  0  0
    1.8616   -3.9784    2.7365 F   0  0  0  0  0  0  0  0  0  0  0  0
    2.5878   -2.0040   -0.8235 H   0  0  0  0  0  0  0  0  0  0  0  0
  2  1  3  0  0  0  0
  3 26  1  0  0  0  0
  4  3  1  0  0  0  0
  6 12  1  0  0  0  0
  6 11  2  0  0  0  0
  7  6  1  0  0  0  0
  8  7  1  0  0  0  0
  8  9  2  0  0  0  0
  9 10  1  0  0  0  0
 10 16  1  1  0  0  0
 10  3  1  0  0  0  0
 10 11  1  0  0  0  0
 11 17  1  0  0  0  0
 13  7  1  0  0  0  0
 14  8  1  0  0  0  0
 15  9  1  0  0  0  0
 18 21  1  0  0  0  0
 18 22  1  0  0  0  0
 19 18  2  0  0  0  0
 20 18  2  0  0  0  0
 21  5  1  0  0  0  0
 22 23  1  0  0  0  0
 22 24  1  0  0  0  0
 25 22  1  0  0  0  0
M  RAD  1   7   2
M  END
