Coordinates from ORCA-job C6H6+HOTf+NH2--N2+-scan
 OpenBabel10191813343D

 26 24  0  0  0  0  0  0  0  0999 V2000
    1.0678   -4.4285   -1.7991 N   0  0  0  0  0  0  0  0  0  0  0  0
    0.8610   -5.4526   -2.1714 N   0  0  0  0  0  0  0  0  0  0  0  0
    1.4074   -3.1963   -1.4291 N   0  0  0  0  0  0  0  0  0  0  0  0
    0.7179   -2.4894   -1.7767 H   0  0  0  0  0  0  0  0  0  0  0  0
    4.0659   -2.1622    2.6156 H   0  0  0  0  0  0  0  0  0  0  0  0
   -1.0959   -1.7924   -2.9626 C   0  0  0  0  0  0  0  0  0  0  0  0
   -0.5280   -2.1639   -4.1847 C   0  0  0  0  0  0  0  0  0  0  0  0
    0.6391   -1.5395   -4.6299 C   0  0  0  0  0  0  0  0  0  0  0  0
    1.2414   -0.5446   -3.8579 C   0  0  0  0  0  0  0  0  0  0  0  0
    0.6798   -0.1719   -2.6363 C   0  0  0  0  0  0  0  0  0  0  0  0
   -0.4889   -0.7973   -2.1834 C   0  0  0  0  0  0  0  0  0  0  0  0
   -2.0230   -2.2480   -2.6313 H   0  0  0  0  0  0  0  0  0  0  0  0
   -1.0113   -2.9136   -4.8014 H   0  0  0  0  0  0  0  0  0  0  0  0
    1.0683   -1.8154   -5.5863 H   0  0  0  0  0  0  0  0  0  0  0  0
    2.1380   -0.0512   -4.2143 H   0  0  0  0  0  0  0  0  0  0  0  0
    1.1348    0.6138   -2.0440 H   0  0  0  0  0  0  0  0  0  0  0  0
   -0.9451   -0.4829   -1.2508 H   0  0  0  0  0  0  0  0  0  0  0  0
    1.9510   -2.0464    2.1792 S   0  0  0  0  0  0  0  0  0  0  0  0
    1.0983   -0.9267    1.8931 O   0  0  0  0  0  0  0  0  0  0  0  0
    2.1781   -3.0946    1.1691 O   0  0  0  0  0  0  0  0  0  0  0  0
    3.3704   -1.4840    2.6660 O   0  0  0  0  0  0  0  0  0  0  0  0
    1.3497   -2.9475    3.7359 C   0  0  0  0  0  0  0  0  0  0  0  0
    2.3042   -3.7874    4.1145 F   0  0  0  0  0  0  0  0  0  0  0  0
    1.1056   -2.0616    4.6752 F   0  0  0  0  0  0  0  0  0  0  0  0
    0.2518   -3.6098    3.4126 F   0  0  0  0  0  0  0  0  0  0  0  0
    1.7110   -3.1584   -0.4218 H   0  0  0  0  0  0  0  0  0  0  0  0
  1  3  1  0  0  0  0
  2  1  1  0  0  0  0
  3 26  1  0  0  0  0
  4  3  1  0  0  0  0
  5 21  1  0  0  0  0
  6 12  1  0  0  0  0
  6 11  2  0  0  0  0
  7  6  1  0  0  0  0
  8  7  2  0  0  0  0
  8  9  1  0  0  0  0
  9 10  2  0  0  0  0
 10 11  1  0  0  0  0
 10 16  1  0  0  0  0
 11 17  1  0  0  0  0
 13  7  1  0  0  0  0
 14  8  1  0  0  0  0
 15  9  1  0  0  0  0
 18 21  1  0  0  0  0
 18 22  1  0  0  0  0
 19 18  2  0  0  0  0
 20 18  2  0  0  0  0
 22 23  1  0  0  0  0
 22 24  1  0  0  0  0
 25 22  1  0  0  0  0
M  RAD  2   1   2   2   3
M  END
