Coordinates from ORCA-job C6H6+HOTf+NH2--N2+-scan
 OpenBabel10191813343D

 26 24  0  0  1  0  0  0  0  0999 V2000
    0.9884   -6.8420   -2.3314 N   0  0  0  0  0  0  0  0  0  0  0  0
    0.9108   -7.9330   -2.3924 N   0  0  0  0  0  0  0  0  0  0  0  0
    2.3202   -2.3778   -1.8237 N   0  0  0  0  0  0  0  0  0  0  0  0
    2.0754   -3.3596   -1.8997 H   0  0  0  0  0  0  0  0  0  0  0  0
    2.4303    0.0507    3.1787 H   0  0  0  0  0  0  0  0  0  0  0  0
   -1.1935   -1.2588   -2.5189 C   0  0  0  0  0  0  0  0  0  0  0  0
   -1.0473   -1.0455   -3.9028 C   0  0  0  0  0  0  0  0  0  0  0  0
    0.1997   -1.0992   -4.5550 C   0  0  0  0  0  0  0  0  0  0  0  0
    1.3237   -1.3864   -3.8252 C   0  0  0  0  0  0  0  0  0  0  0  0
    1.2729   -1.5344   -2.3562 C   0  0  1  0  0  0  0  0  0  0  0  0
   -0.0867   -1.5412   -1.7590 C   0  0  0  0  0  0  0  0  0  0  0  0
   -2.1795   -1.2286   -2.0708 H   0  0  0  0  0  0  0  0  0  0  0  0
   -1.9346   -0.8398   -4.4941 H   0  0  0  0  0  0  0  0  0  0  0  0
    0.2556   -0.9496   -5.6262 H   0  0  0  0  0  0  0  0  0  0  0  0
    2.3049   -1.4707   -4.2802 H   0  0  0  0  0  0  0  0  0  0  0  0
    1.5526   -0.4690   -2.0995 H   0  0  0  0  0  0  0  0  0  0  0  0
   -0.1634   -1.7087   -0.6878 H   0  0  0  0  0  0  0  0  0  0  0  0
    1.4865   -1.5500    2.0818 S   0  0  0  0  0  0  0  0  0  0  0  0
    0.1563   -1.6351    1.5204 O   0  0  0  0  0  0  0  0  0  0  0  0
    2.6612   -1.5767    1.2235 O   0  0  0  0  0  0  0  0  0  0  0  0
    1.5170   -0.2424    3.0195 O   0  0  0  0  0  0  0  0  0  0  0  0
    1.6750   -2.9184    3.3745 C   0  0  0  0  0  0  0  0  0  0  0  0
    2.7862   -2.6889    4.0619 F   0  0  0  0  0  0  0  0  0  0  0  0
    0.6264   -2.9135    4.1724 F   0  0  0  0  0  0  0  0  0  0  0  0
    1.7633   -4.0707    2.7274 F   0  0  0  0  0  0  0  0  0  0  0  0
    2.5480   -2.1631   -0.8570 H   0  0  0  0  0  0  0  0  0  0  0  0
  2  1  3  0  0  0  0
  3 26  1  0  0  0  0
  4  3  1  0  0  0  0
  6 12  1  0  0  0  0
  6 11  2  0  0  0  0
  7  6  1  0  0  0  0
  8  7  1  0  0  0  0
  8  9  2  0  0  0  0
  9 10  1  0  0  0  0
 10 16  1  1  0  0  0
 10  3  1  0  0  0  0
 10 11  1  0  0  0  0
 11 17  1  0  0  0  0
 13  7  1  0  0  0  0
 14  8  1  0  0  0  0
 15  9  1  0  0  0  0
 18 21  1  0  0  0  0
 18 22  1  0  0  0  0
 19 18  2  0  0  0  0
 20 18  2  0  0  0  0
 21  5  1  0  0  0  0
 22 23  1  0  0  0  0
 22 24  1  0  0  0  0
 25 22  1  0  0  0  0
M  RAD  1   7   2
M  END
