Coordinates from ORCA-job C6H6+HOTf+NH2--N2+-scan
 OpenBabel10191813343D

 26 24  0  0  0  0  0  0  0  0999 V2000
    1.1852   -5.2255   -1.7296 N   0  0  0  0  0  0  0  0  0  0  0  0
    1.1593   -6.1550   -2.3755 N   0  0  0  0  0  0  0  0  0  0  0  0
    1.1559   -4.2192   -1.1526 N   0  0  0  0  0  0  0  0  0  0  0  0
    0.3044   -2.7045   -1.7483 H   0  0  0  0  0  0  0  0  0  0  0  0
    4.2074   -2.2717    2.4878 H   0  0  0  0  0  0  0  0  0  0  0  0
   -0.9932   -2.0974   -3.2561 C   0  0  0  0  0  0  0  0  0  0  0  0
   -0.6048   -1.5656   -4.4609 C   0  0  0  0  0  0  0  0  0  0  0  0
    0.4354   -0.6178   -4.4893 C   0  0  0  0  0  0  0  0  0  0  0  0
    1.0969   -0.1888   -3.3269 C   0  0  0  0  0  0  0  0  0  0  0  0
    0.7239   -0.7103   -2.1100 C   0  0  0  0  0  0  0  0  0  0  0  0
   -0.2945   -1.7425   -2.0324 C   0  0  0  0  0  0  0  0  0  0  0  0
   -1.7981   -2.8230   -3.2045 H   0  0  0  0  0  0  0  0  0  0  0  0
   -1.0977   -1.8528   -5.3814 H   0  0  0  0  0  0  0  0  0  0  0  0
    0.7327   -0.1987   -5.4455 H   0  0  0  0  0  0  0  0  0  0  0  0
    1.8796    0.5565   -3.3953 H   0  0  0  0  0  0  0  0  0  0  0  0
    1.2074   -0.4063   -1.1883 H   0  0  0  0  0  0  0  0  0  0  0  0
   -0.9228   -1.6950   -1.1348 H   0  0  0  0  0  0  0  0  0  0  0  0
    2.1423   -2.1455    1.8739 S   0  0  0  0  0  0  0  0  0  0  0  0
    1.4885   -1.1885    1.0098 O   0  0  0  0  0  0  0  0  0  0  0  0
    2.2374   -3.5517    1.5049 O   0  0  0  0  0  0  0  0  0  0  0  0
    3.6079   -1.5649    2.1928 O   0  0  0  0  0  0  0  0  0  0  0  0
    1.3369   -2.0555    3.5849 C   0  0  0  0  0  0  0  0  0  0  0  0
    2.0905   -2.7413    4.4326 F   0  0  0  0  0  0  0  0  0  0  0  0
    1.2497   -0.7936    3.9556 F   0  0  0  0  0  0  0  0  0  0  0  0
    0.1341   -2.5984    3.4898 F   0  0  0  0  0  0  0  0  0  0  0  0
    1.5850   -4.1954   -0.2204 H   0  0  0  0  0  0  0  0  0  0  0  0
  1  3  2  0  0  0  0
  2  1  2  0  0  0  0
  3 26  1  0  0  0  0
  6 12  1  0  0  0  0
  6 11  1  0  0  0  0
  7  6  2  0  0  0  0
  8  7  1  0  0  0  0
  8  9  1  0  0  0  0
  9 10  2  0  0  0  0
 10 11  1  0  0  0  0
 10 16  1  0  0  0  0
 11  4  1  0  0  0  0
 11 17  1  0  0  0  0
 13  7  1  0  0  0  0
 14  8  1  0  0  0  0
 15  9  1  0  0  0  0
 18 21  1  0  0  0  0
 18 22  1  0  0  0  0
 19 18  2  0  0  0  0
 20 18  2  0  0  0  0
 21  5  1  0  0  0  0
 22 24  1  0  0  0  0
 22 23  1  0  0  0  0
 25 22  1  0  0  0  0
M  RAD  2   2   2   8   2
M  END
