Coordinates from ORCA-job C6H6+HOTf+NH2--N2+-scan
 OpenBabel10191813343D

 26 24  0  0  1  0  0  0  0  0999 V2000
    1.0723   -6.4723   -2.2468 N   0  0  0  0  0  0  0  0  0  0  0  0
    0.9854   -7.5628   -2.3021 N   0  0  0  0  0  0  0  0  0  0  0  0
    2.2981   -2.4394   -1.8327 N   0  0  0  0  0  0  0  0  0  0  0  0
    2.0355   -3.4172   -1.9047 H   0  0  0  0  0  0  0  0  0  0  0  0
    2.4585    0.0139    3.1588 H   0  0  0  0  0  0  0  0  0  0  0  0
   -1.1980   -1.2628   -2.5227 C   0  0  0  0  0  0  0  0  0  0  0  0
   -1.0513   -1.0545   -3.9072 C   0  0  0  0  0  0  0  0  0  0  0  0
    0.1930   -1.1307   -4.5621 C   0  0  0  0  0  0  0  0  0  0  0  0
    1.3137   -1.4357   -3.8342 C   0  0  0  0  0  0  0  0  0  0  0  0
    1.2638   -1.5800   -2.3649 C   0  0  1  0  0  0  0  0  0  0  0  0
   -0.0943   -1.5626   -1.7647 C   0  0  0  0  0  0  0  0  0  0  0  0
   -2.1822   -1.2150   -2.0723 H   0  0  0  0  0  0  0  0  0  0  0  0
   -1.9363   -0.8347   -4.4969 H   0  0  0  0  0  0  0  0  0  0  0  0
    0.2491   -0.9841   -5.6337 H   0  0  0  0  0  0  0  0  0  0  0  0
    2.2923   -1.5375   -4.2912 H   0  0  0  0  0  0  0  0  0  0  0  0
    1.5615   -0.5186   -2.1115 H   0  0  0  0  0  0  0  0  0  0  0  0
   -0.1713   -1.7267   -0.6931 H   0  0  0  0  0  0  0  0  0  0  0  0
    1.4887   -1.5784    2.0723 S   0  0  0  0  0  0  0  0  0  0  0  0
    0.1559   -1.6469    1.5148 O   0  0  0  0  0  0  0  0  0  0  0  0
    2.6607   -1.6263    1.2115 O   0  0  0  0  0  0  0  0  0  0  0  0
    1.5406   -0.2668    3.0038 O   0  0  0  0  0  0  0  0  0  0  0  0
    1.6605   -2.9430    3.3712 C   0  0  0  0  0  0  0  0  0  0  0  0
    2.7769   -2.7268    4.0546 F   0  0  0  0  0  0  0  0  0  0  0  0
    0.6143   -2.9188    4.1720 F   0  0  0  0  0  0  0  0  0  0  0  0
    1.7300   -4.0997    2.7296 F   0  0  0  0  0  0  0  0  0  0  0  0
    2.5319   -2.2249   -0.8674 H   0  0  0  0  0  0  0  0  0  0  0  0
  2  1  3  0  0  0  0
  3 26  1  0  0  0  0
  4  3  1  0  0  0  0
  6 12  1  0  0  0  0
  6 11  2  0  0  0  0
  7  6  1  0  0  0  0
  8  7  1  0  0  0  0
  8  9  2  0  0  0  0
  9 10  1  0  0  0  0
 10 16  1  1  0  0  0
 10  3  1  0  0  0  0
 10 11  1  0  0  0  0
 11 17  1  0  0  0  0
 13  7  1  0  0  0  0
 14  8  1  0  0  0  0
 15  9  1  0  0  0  0
 18 21  1  0  0  0  0
 18 22  1  0  0  0  0
 19 18  2  0  0  0  0
 20 18  2  0  0  0  0
 21  5  1  0  0  0  0
 22 23  1  0  0  0  0
 22 24  1  0  0  0  0
 25 22  1  0  0  0  0
M  RAD  1   7   2
M  END
