Coordinates from ORCA-job C6H6+HOTf+NH2--N2+-scan
 OpenBabel10191813343D

 26 24  0  0  1  0  0  0  0  0999 V2000
    0.8641   -7.3763   -2.4765 N   0  0  0  0  0  0  0  0  0  0  0  0
    0.8006   -8.4675   -2.5497 N   0  0  0  0  0  0  0  0  0  0  0  0
    2.3500   -2.2938   -1.8078 N   0  0  0  0  0  0  0  0  0  0  0  0
    2.1286   -3.2806   -1.8879 H   0  0  0  0  0  0  0  0  0  0  0  0
    2.3861    0.1101    3.2061 H   0  0  0  0  0  0  0  0  0  0  0  0
   -1.1862   -1.2545   -2.5126 C   0  0  0  0  0  0  0  0  0  0  0  0
   -1.0399   -1.0338   -3.8953 C   0  0  0  0  0  0  0  0  0  0  0  0
    0.2104   -1.0562   -4.5430 C   0  0  0  0  0  0  0  0  0  0  0  0
    1.3381   -1.3191   -3.8099 C   0  0  0  0  0  0  0  0  0  0  0  0
    1.2855   -1.4727   -2.3415 C   0  0  1  0  0  0  0  0  0  0  0  0
   -0.0758   -1.5131   -1.7493 C   0  0  0  0  0  0  0  0  0  0  0  0
   -2.1742   -1.2489   -2.0680 H   0  0  0  0  0  0  0  0  0  0  0  0
   -1.9297   -0.8474   -4.4893 H   0  0  0  0  0  0  0  0  0  0  0  0
    0.2666   -0.9021   -5.6136 H   0  0  0  0  0  0  0  0  0  0  0  0
    2.3226   -1.3791   -4.2616 H   0  0  0  0  0  0  0  0  0  0  0  0
    1.5399   -0.4023   -2.0802 H   0  0  0  0  0  0  0  0  0  0  0  0
   -0.1525   -1.6855   -0.6789 H   0  0  0  0  0  0  0  0  0  0  0  0
    1.4834   -1.5059    2.0970 S   0  0  0  0  0  0  0  0  0  0  0  0
    0.1577   -1.6185    1.5299 O   0  0  0  0  0  0  0  0  0  0  0  0
    2.6615   -1.5011    1.2430 O   0  0  0  0  0  0  0  0  0  0  0  0
    1.4803   -0.2027    3.0414 O   0  0  0  0  0  0  0  0  0  0  0  0
    1.6985   -2.8764    3.3834 C   0  0  0  0  0  0  0  0  0  0  0  0
    2.8014   -2.6248    4.0765 F   0  0  0  0  0  0  0  0  0  0  0  0
    0.6469   -2.8999    4.1770 F   0  0  0  0  0  0  0  0  0  0  0  0
    1.8161   -4.0228    2.7307 F   0  0  0  0  0  0  0  0  0  0  0  0
    2.5697   -2.0772   -0.8396 H   0  0  0  0  0  0  0  0  0  0  0  0
  2  1  3  0  0  0  0
  3 26  1  0  0  0  0
  4  3  1  0  0  0  0
  6 12  1  0  0  0  0
  6 11  2  0  0  0  0
  7  6  1  0  0  0  0
  8  7  1  0  0  0  0
  8  9  2  0  0  0  0
  9 10  1  0  0  0  0
 10 16  1  1  0  0  0
 10  3  1  0  0  0  0
 10 11  1  0  0  0  0
 11 17  1  0  0  0  0
 13  7  1  0  0  0  0
 14  8  1  0  0  0  0
 15  9  1  0  0  0  0
 18 21  1  0  0  0  0
 18 22  1  0  0  0  0
 19 18  2  0  0  0  0
 20 18  2  0  0  0  0
 21  5  1  0  0  0  0
 22 23  1  0  0  0  0
 22 24  1  0  0  0  0
 25 22  1  0  0  0  0
M  RAD  1   7   2
M  END
