Coordinates from ORCA-job C6H6+HOTf+NH2--N2+-scan
 OpenBabel10191813343D

 26 24  0  0  1  0  0  0  0  0999 V2000
    0.6069   -8.5856   -2.8271 N   0  0  0  0  0  0  0  0  0  0  0  0
    0.5709   -9.6764   -2.9223 N   0  0  0  0  0  0  0  0  0  0  0  0
    2.4077   -2.1144   -1.7707 N   0  0  0  0  0  0  0  0  0  0  0  0
    2.2329   -3.1096   -1.8570 H   0  0  0  0  0  0  0  0  0  0  0  0
    2.2964    0.2407    3.2646 H   0  0  0  0  0  0  0  0  0  0  0  0
   -1.1677   -1.2355   -2.4953 C   0  0  0  0  0  0  0  0  0  0  0  0
   -1.0222   -1.0008   -3.8759 C   0  0  0  0  0  0  0  0  0  0  0  0
    0.2322   -0.9616   -4.5147 C   0  0  0  0  0  0  0  0  0  0  0  0
    1.3659   -1.1760   -3.7749 C   0  0  0  0  0  0  0  0  0  0  0  0
    1.3101   -1.3400   -2.3076 C   0  0  1  0  0  0  0  0  0  0  0  0
   -0.0520   -1.4465   -1.7254 C   0  0  0  0  0  0  0  0  0  0  0  0
   -2.1580   -1.2781   -2.0579 H   0  0  0  0  0  0  0  0  0  0  0  0
   -1.9156   -0.8527   -4.4754 H   0  0  0  0  0  0  0  0  0  0  0  0
    0.2887   -0.7993   -5.5841 H   0  0  0  0  0  0  0  0  0  0  0  0
    2.3552   -1.1878   -4.2198 H   0  0  0  0  0  0  0  0  0  0  0  0
    1.5134   -0.2606   -2.0388 H   0  0  0  0  0  0  0  0  0  0  0  0
   -0.1281   -1.6281   -0.6564 H   0  0  0  0  0  0  0  0  0  0  0  0
    1.4782   -1.4041    2.1325 S   0  0  0  0  0  0  0  0  0  0  0  0
    0.1635   -1.5723    1.5534 O   0  0  0  0  0  0  0  0  0  0  0  0
    2.6613   -1.3364    1.2882 O   0  0  0  0  0  0  0  0  0  0  0  0
    1.4074   -0.1120    3.0893 O   0  0  0  0  0  0  0  0  0  0  0  0
    1.7466   -2.7762    3.4074 C   0  0  0  0  0  0  0  0  0  0  0  0
    2.8313   -2.4808    4.1117 F   0  0  0  0  0  0  0  0  0  0  0  0
    0.6911   -2.8560    4.1921 F   0  0  0  0  0  0  0  0  0  0  0  0
    1.9220   -3.9092    2.7444 F   0  0  0  0  0  0  0  0  0  0  0  0
    2.6114   -1.8929   -0.8001 H   0  0  0  0  0  0  0  0  0  0  0  0
  2  1  3  0  0  0  0
  3 26  1  0  0  0  0
  4  3  1  0  0  0  0
  6 12  1  0  0  0  0
  6 11  2  0  0  0  0
  7  6  1  0  0  0  0
  8  7  1  0  0  0  0
  8  9  2  0  0  0  0
  9 10  1  0  0  0  0
 10 16  1  1  0  0  0
 10  3  1  0  0  0  0
 10 11  1  0  0  0  0
 11 17  1  0  0  0  0
 13  7  1  0  0  0  0
 14  8  1  0  0  0  0
 15  9  1  0  0  0  0
 18 21  1  0  0  0  0
 18 22  1  0  0  0  0
 19 18  2  0  0  0  0
 20 18  2  0  0  0  0
 21  5  1  0  0  0  0
 22 23  1  0  0  0  0
 22 24  1  0  0  0  0
 25 22  1  0  0  0  0
M  RAD  1   7   2
M  END
