Coordinates from ORCA-job C6H6+HOTf+NH2--N2+-scan
 OpenBabel10191813343D

 26 24  0  0  1  0  0  0  0  0999 V2000
    2.7306   -5.1713   -1.3630 N   0  0  0  0  0  0  0  0  0  0  0  0
    3.6614   -5.5362   -1.8129 N   0  0  0  0  0  0  0  0  0  0  0  0
    1.5570   -3.1621   -1.8742 N   0  0  0  0  0  0  0  0  0  0  0  0
    0.8504   -3.8884   -1.8299 H   0  0  0  0  0  0  0  0  0  0  0  0
    3.0689   -0.6454    2.8873 H   0  0  0  0  0  0  0  0  0  0  0  0
   -1.1495   -0.6546   -2.5179 C   0  0  0  0  0  0  0  0  0  0  0  0
   -1.0249   -0.6099   -3.9192 C   0  0  0  0  0  0  0  0  0  0  0  0
    0.0412   -1.2198   -4.6112 C   0  0  0  0  0  0  0  0  0  0  0  0
    0.9888   -1.9080   -3.9021 C   0  0  0  0  0  0  0  0  0  0  0  0
    0.9836   -1.9326   -2.4243 C   0  0  1  0  0  0  0  0  0  0  0  0
   -0.2008   -1.3149   -1.7785 C   0  0  0  0  0  0  0  0  0  0  0  0
   -2.0005   -0.1867   -2.0376 H   0  0  0  0  0  0  0  0  0  0  0  0
   -1.7879   -0.0923   -4.4931 H   0  0  0  0  0  0  0  0  0  0  0  0
    0.0785   -1.1737   -5.6926 H   0  0  0  0  0  0  0  0  0  0  0  0
    1.8051   -2.4323   -4.3875 H   0  0  0  0  0  0  0  0  0  0  0  0
    1.7443   -1.1234   -2.2368 H   0  0  0  0  0  0  0  0  0  0  0  0
   -0.2602   -1.3552   -0.6938 H   0  0  0  0  0  0  0  0  0  0  0  0
    1.5007   -1.8050    1.9630 S   0  0  0  0  0  0  0  0  0  0  0  0
    0.1935   -1.3990    1.4961 O   0  0  0  0  0  0  0  0  0  0  0  0
    2.5001   -2.3080    1.0321 O   0  0  0  0  0  0  0  0  0  0  0  0
    2.1026   -0.5732    2.8062 O   0  0  0  0  0  0  0  0  0  0  0  0
    1.2715   -3.0935    3.3295 C   0  0  0  0  0  0  0  0  0  0  0  0
    2.4433   -3.2798    3.9232 F   0  0  0  0  0  0  0  0  0  0  0  0
    0.3772   -2.6591    4.1941 F   0  0  0  0  0  0  0  0  0  0  0  0
    0.8615   -4.2149    2.7571 F   0  0  0  0  0  0  0  0  0  0  0  0
    1.9132   -3.0131   -0.9337 H   0  0  0  0  0  0  0  0  0  0  0  0
  2  1  3  0  0  0  0
  3  4  1  0  0  0  0
  3 26  1  0  0  0  0
  6 12  1  0  0  0  0
  6 11  2  0  0  0  0
  7  6  1  0  0  0  0
  8  7  1  0  0  0  0
  8  9  2  0  0  0  0
  9 10  1  0  0  0  0
 10 16  1  1  0  0  0
 10  3  1  0  0  0  0
 10 11  1  0  0  0  0
 11 17  1  0  0  0  0
 13  7  1  0  0  0  0
 14  8  1  0  0  0  0
 15  9  1  0  0  0  0
 18 21  1  0  0  0  0
 18 22  1  0  0  0  0
 19 18  2  0  0  0  0
 20 18  2  0  0  0  0
 21  5  1  0  0  0  0
 22 23  1  0  0  0  0
 22 24  1  0  0  0  0
 25 22  1  0  0  0  0
M  RAD  1   7   2
M  END
