Coordinates from ORCA-job C6H6+HOTf+NH2--N2+-scan
 OpenBabel10191813343D

 26 24  0  0  1  0  0  0  0  0999 V2000
    2.6565   -5.0243   -1.5337 N   0  0  0  0  0  0  0  0  0  0  0  0
    3.5502   -5.3579   -2.0772 N   0  0  0  0  0  0  0  0  0  0  0  0
    1.5640   -3.1868   -1.8560 N   0  0  0  0  0  0  0  0  0  0  0  0
    0.8018   -3.8556   -1.7973 H   0  0  0  0  0  0  0  0  0  0  0  0
    3.1337   -0.7095    2.8847 H   0  0  0  0  0  0  0  0  0  0  0  0
   -1.1502   -0.7197   -2.5153 C   0  0  0  0  0  0  0  0  0  0  0  0
   -1.0274   -0.6880   -3.9164 C   0  0  0  0  0  0  0  0  0  0  0  0
    0.0676   -1.2578   -4.6015 C   0  0  0  0  0  0  0  0  0  0  0  0
    1.0409   -1.8970   -3.8850 C   0  0  0  0  0  0  0  0  0  0  0  0
    1.0327   -1.9104   -2.4064 C   0  0  1  0  0  0  0  0  0  0  0  0
   -0.1644   -1.3151   -1.7688 C   0  0  0  0  0  0  0  0  0  0  0  0
   -2.0210   -0.2840   -2.0404 H   0  0  0  0  0  0  0  0  0  0  0  0
   -1.8137   -0.2150   -4.4975 H   0  0  0  0  0  0  0  0  0  0  0  0
    0.1032   -1.2216   -5.6833 H   0  0  0  0  0  0  0  0  0  0  0  0
    1.8738   -2.3973   -4.3677 H   0  0  0  0  0  0  0  0  0  0  0  0
    1.8187   -1.1441   -2.1835 H   0  0  0  0  0  0  0  0  0  0  0  0
   -0.2175   -1.3343   -0.6832 H   0  0  0  0  0  0  0  0  0  0  0  0
    1.5051   -1.8019    1.9828 S   0  0  0  0  0  0  0  0  0  0  0  0
    0.2160   -1.3392    1.5186 O   0  0  0  0  0  0  0  0  0  0  0  0
    2.4725   -2.3631    1.0507 O   0  0  0  0  0  0  0  0  0  0  0  0
    2.1717   -0.5910    2.8066 O   0  0  0  0  0  0  0  0  0  0  0  0
    1.2254   -3.0633    3.3655 C   0  0  0  0  0  0  0  0  0  0  0  0
    2.3913   -3.2977    3.9533 F   0  0  0  0  0  0  0  0  0  0  0  0
    0.3586   -2.5774    4.2305 F   0  0  0  0  0  0  0  0  0  0  0  0
    0.7590   -4.1702    2.8083 F   0  0  0  0  0  0  0  0  0  0  0  0
    1.9008   -3.0300   -0.9076 H   0  0  0  0  0  0  0  0  0  0  0  0
  2  1  3  0  0  0  0
  3  4  1  0  0  0  0
  3 26  1  0  0  0  0
  6 12  1  0  0  0  0
  6 11  2  0  0  0  0
  7  6  1  0  0  0  0
  8  7  1  0  0  0  0
  8  9  2  0  0  0  0
  9 10  1  0  0  0  0
 10 16  1  1  0  0  0
 10  3  1  0  0  0  0
 10 11  1  0  0  0  0
 11 17  1  0  0  0  0
 13  7  1  0  0  0  0
 14  8  1  0  0  0  0
 15  9  1  0  0  0  0
 18 21  1  0  0  0  0
 18 22  1  0  0  0  0
 19 18  2  0  0  0  0
 20 18  2  0  0  0  0
 21  5  1  0  0  0  0
 22 23  1  0  0  0  0
 22 24  1  0  0  0  0
 25 22  1  0  0  0  0
M  RAD  1   7   2
M  END
