Coordinates from ORCA-job C6H6+HOTf+NH2--N2+-scan
 OpenBabel10191813343D

 26 24  0  0  1  0  0  0  0  0999 V2000
    0.8212   -7.5468   -2.5299 N   0  0  0  0  0  0  0  0  0  0  0  0
    0.7614   -8.6380   -2.6076 N   0  0  0  0  0  0  0  0  0  0  0  0
    2.3599   -2.2669   -1.8019 N   0  0  0  0  0  0  0  0  0  0  0  0
    2.1463   -3.2552   -1.8829 H   0  0  0  0  0  0  0  0  0  0  0  0
    2.3709    0.1308    3.2151 H   0  0  0  0  0  0  0  0  0  0  0  0
   -1.1834   -1.2546   -2.5102 C   0  0  0  0  0  0  0  0  0  0  0  0
   -1.0371   -1.0317   -3.8926 C   0  0  0  0  0  0  0  0  0  0  0  0
    0.2141   -1.0438   -4.5388 C   0  0  0  0  0  0  0  0  0  0  0  0
    1.3430   -1.2984   -3.8045 C   0  0  0  0  0  0  0  0  0  0  0  0
    1.2897   -1.4535   -2.3362 C   0  0  1  0  0  0  0  0  0  0  0  0
   -0.0720   -1.5050   -1.7458 C   0  0  0  0  0  0  0  0  0  0  0  0
   -2.1720   -1.2571   -2.0669 H   0  0  0  0  0  0  0  0  0  0  0  0
   -1.9276   -0.8519   -4.4876 H   0  0  0  0  0  0  0  0  0  0  0  0
    0.2705   -0.8885   -5.6092 H   0  0  0  0  0  0  0  0  0  0  0  0
    2.3285   -1.3503   -4.2550 H   0  0  0  0  0  0  0  0  0  0  0  0
    1.5356   -0.3814   -2.0737 H   0  0  0  0  0  0  0  0  0  0  0  0
   -0.1487   -1.6788   -0.6755 H   0  0  0  0  0  0  0  0  0  0  0  0
    1.4825   -1.4908    2.1025 S   0  0  0  0  0  0  0  0  0  0  0  0
    0.1584   -1.6131    1.5334 O   0  0  0  0  0  0  0  0  0  0  0  0
    2.6616   -1.4755    1.2500 O   0  0  0  0  0  0  0  0  0  0  0  0
    1.4678   -0.1890    3.0486 O   0  0  0  0  0  0  0  0  0  0  0  0
    1.7068   -2.8614    3.3873 C   0  0  0  0  0  0  0  0  0  0  0  0
    2.8066   -2.6019    4.0822 F   0  0  0  0  0  0  0  0  0  0  0  0
    0.6543   -2.8943    4.1795 F   0  0  0  0  0  0  0  0  0  0  0  0
    1.8343   -4.0059    2.7331 F   0  0  0  0  0  0  0  0  0  0  0  0
    2.5769   -2.0492   -0.8333 H   0  0  0  0  0  0  0  0  0  0  0  0
  2  1  3  0  0  0  0
  3 26  1  0  0  0  0
  4  3  1  0  0  0  0
  6 12  1  0  0  0  0
  6 11  2  0  0  0  0
  7  6  1  0  0  0  0
  8  7  1  0  0  0  0
  8  9  2  0  0  0  0
  9 10  1  0  0  0  0
 10 16  1  1  0  0  0
 10  3  1  0  0  0  0
 10 11  1  0  0  0  0
 11 17  1  0  0  0  0
 13  7  1  0  0  0  0
 14  8  1  0  0  0  0
 15  9  1  0  0  0  0
 18 21  1  0  0  0  0
 18 22  1  0  0  0  0
 19 18  2  0  0  0  0
 20 18  2  0  0  0  0
 21  5  1  0  0  0  0
 22 23  1  0  0  0  0
 22 24  1  0  0  0  0
 25 22  1  0  0  0  0
M  RAD  1   7   2
M  END
