Coordinates from ORCA-job C6H6+HOTf+NH2--N2+-scan
 OpenBabel10191813343D

 26 24  0  0  1  0  0  0  0  0999 V2000
    1.0196   -6.6827   -2.2963 N   0  0  0  0  0  0  0  0  0  0  0  0
    0.9363   -7.7733   -2.3552 N   0  0  0  0  0  0  0  0  0  0  0  0
    2.3123   -2.4023   -1.8273 N   0  0  0  0  0  0  0  0  0  0  0  0
    2.0611   -3.3827   -1.9017 H   0  0  0  0  0  0  0  0  0  0  0  0
    2.4409    0.0357    3.1710 H   0  0  0  0  0  0  0  0  0  0  0  0
   -1.1951   -1.2625   -2.5206 C   0  0  0  0  0  0  0  0  0  0  0  0
   -1.0488   -1.0513   -3.9048 C   0  0  0  0  0  0  0  0  0  0  0  0
    0.1972   -1.1133   -4.5580 C   0  0  0  0  0  0  0  0  0  0  0  0
    1.3201   -1.4068   -3.8289 C   0  0  0  0  0  0  0  0  0  0  0  0
    1.2698   -1.5532   -2.3598 C   0  0  1  0  0  0  0  0  0  0  0  0
   -0.0894   -1.5511   -1.7615 C   0  0  0  0  0  0  0  0  0  0  0  0
   -2.1804   -1.2258   -2.0717 H   0  0  0  0  0  0  0  0  0  0  0  0
   -1.9353   -0.8405   -4.4955 H   0  0  0  0  0  0  0  0  0  0  0  0
    0.2531   -0.9650   -5.6294 H   0  0  0  0  0  0  0  0  0  0  0  0
    2.3004   -1.4976   -4.2847 H   0  0  0  0  0  0  0  0  0  0  0  0
    1.5560   -0.4892   -2.1045 H   0  0  0  0  0  0  0  0  0  0  0  0
   -0.1661   -1.7172   -0.6900 H   0  0  0  0  0  0  0  0  0  0  0  0
    1.4874   -1.5620    2.0780 S   0  0  0  0  0  0  0  0  0  0  0  0
    0.1561   -1.6409    1.5180 O   0  0  0  0  0  0  0  0  0  0  0  0
    2.6611   -1.5967    1.2188 O   0  0  0  0  0  0  0  0  0  0  0  0
    1.5259   -0.2528    3.0134 O   0  0  0  0  0  0  0  0  0  0  0  0
    1.6696   -2.9290    3.3731 C   0  0  0  0  0  0  0  0  0  0  0  0
    2.7828   -2.7045    4.0590 F   0  0  0  0  0  0  0  0  0  0  0  0
    0.6218   -2.9167    4.1721 F   0  0  0  0  0  0  0  0  0  0  0  0
    1.7508   -4.0830    2.7281 F   0  0  0  0  0  0  0  0  0  0  0  0
    2.5423   -2.1876   -0.8611 H   0  0  0  0  0  0  0  0  0  0  0  0
  2  1  3  0  0  0  0
  3 26  1  0  0  0  0
  4  3  1  0  0  0  0
  6 12  1  0  0  0  0
  6 11  2  0  0  0  0
  7  6  1  0  0  0  0
  8  7  1  0  0  0  0
  8  9  2  0  0  0  0
  9 10  1  0  0  0  0
 10 16  1  1  0  0  0
 10  3  1  0  0  0  0
 10 11  1  0  0  0  0
 11 17  1  0  0  0  0
 13  7  1  0  0  0  0
 14  8  1  0  0  0  0
 15  9  1  0  0  0  0
 18 21  1  0  0  0  0
 18 22  1  0  0  0  0
 19 18  2  0  0  0  0
 20 18  2  0  0  0  0
 21  5  1  0  0  0  0
 22 23  1  0  0  0  0
 22 24  1  0  0  0  0
 25 22  1  0  0  0  0
M  RAD  1   7   2
M  END
