Coordinates from ORCA-job C6H6+HOTf+NH2--N2+-scan
 OpenBabel10191813343D

 26 24  0  0  1  0  0  0  0  0999 V2000
    2.7151   -5.1391   -1.3997 N   0  0  0  0  0  0  0  0  0  0  0  0
    3.6374   -5.4972   -1.8724 N   0  0  0  0  0  0  0  0  0  0  0  0
    1.5567   -3.1699   -1.8685 N   0  0  0  0  0  0  0  0  0  0  0  0
    0.8386   -3.8847   -1.8211 H   0  0  0  0  0  0  0  0  0  0  0  0
    3.0753   -0.6508    2.8880 H   0  0  0  0  0  0  0  0  0  0  0  0
   -1.1473   -0.6638   -2.5176 C   0  0  0  0  0  0  0  0  0  0  0  0
   -1.0217   -0.6218   -3.9188 C   0  0  0  0  0  0  0  0  0  0  0  0
    0.0480   -1.2283   -4.6087 C   0  0  0  0  0  0  0  0  0  0  0  0
    0.9975   -1.9111   -3.8974 C   0  0  0  0  0  0  0  0  0  0  0  0
    0.9909   -1.9332   -2.4194 C   0  0  1  0  0  0  0  0  0  0  0  0
   -0.1950   -1.3163   -1.7761 C   0  0  0  0  0  0  0  0  0  0  0  0
   -2.0008   -0.1988   -2.0391 H   0  0  0  0  0  0  0  0  0  0  0  0
   -1.7868   -0.1095   -4.4947 H   0  0  0  0  0  0  0  0  0  0  0  0
    0.0860   -1.1842   -5.6902 H   0  0  0  0  0  0  0  0  0  0  0  0
    1.8155   -2.4341   -4.3815 H   0  0  0  0  0  0  0  0  0  0  0  0
    1.7563   -1.1308   -2.2269 H   0  0  0  0  0  0  0  0  0  0  0  0
   -0.2544   -1.3528   -0.6911 H   0  0  0  0  0  0  0  0  0  0  0  0
    1.5001   -1.8036    1.9671 S   0  0  0  0  0  0  0  0  0  0  0  0
    0.1946   -1.3917    1.5009 O   0  0  0  0  0  0  0  0  0  0  0  0
    2.4958   -2.3133    1.0358 O   0  0  0  0  0  0  0  0  0  0  0  0
    2.1094   -0.5736    2.8075 O   0  0  0  0  0  0  0  0  0  0  0  0
    1.2660   -3.0888    3.3360 C   0  0  0  0  0  0  0  0  0  0  0  0
    2.4376   -3.2799    3.9287 F   0  0  0  0  0  0  0  0  0  0  0  0
    0.3749   -2.6484    4.2009 F   0  0  0  0  0  0  0  0  0  0  0  0
    0.8497   -4.2090    2.7659 F   0  0  0  0  0  0  0  0  0  0  0  0
    1.9101   -3.0173   -0.9274 H   0  0  0  0  0  0  0  0  0  0  0  0
  2  1  3  0  0  0  0
  3  4  1  0  0  0  0
  3 26  1  0  0  0  0
  6 12  1  0  0  0  0
  6 11  2  0  0  0  0
  7  6  1  0  0  0  0
  8  7  1  0  0  0  0
  8  9  2  0  0  0  0
  9 10  1  0  0  0  0
 10 16  1  1  0  0  0
 10  3  1  0  0  0  0
 10 11  1  0  0  0  0
 11 17  1  0  0  0  0
 13  7  1  0  0  0  0
 14  8  1  0  0  0  0
 15  9  1  0  0  0  0
 18 21  1  0  0  0  0
 18 22  1  0  0  0  0
 19 18  2  0  0  0  0
 20 18  2  0  0  0  0
 21  5  1  0  0  0  0
 22 23  1  0  0  0  0
 22 24  1  0  0  0  0
 25 22  1  0  0  0  0
M  RAD  1   7   2
M  END
