Coordinates from ORCA-job C6H6+HOTf+NH2--N2+-scan
 OpenBabel10191813343D

 26 24  0  0  1  0  0  0  0  0999 V2000
    1.0116   -6.7248   -2.3052 N   0  0  0  0  0  0  0  0  0  0  0  0
    0.9299   -7.8155   -2.3645 N   0  0  0  0  0  0  0  0  0  0  0  0
    2.3144   -2.3959   -1.8264 N   0  0  0  0  0  0  0  0  0  0  0  0
    2.0648   -3.3767   -1.9013 H   0  0  0  0  0  0  0  0  0  0  0  0
    2.4382    0.0395    3.1730 H   0  0  0  0  0  0  0  0  0  0  0  0
   -1.1947   -1.2614   -2.5202 C   0  0  0  0  0  0  0  0  0  0  0  0
   -1.0484   -1.0496   -3.9043 C   0  0  0  0  0  0  0  0  0  0  0  0
    0.1979   -1.1095   -4.5573 C   0  0  0  0  0  0  0  0  0  0  0  0
    1.3210   -1.4014   -3.8280 C   0  0  0  0  0  0  0  0  0  0  0  0
    1.2706   -1.5482   -2.3589 C   0  0  1  0  0  0  0  0  0  0  0  0
   -0.0887   -1.5484   -1.7608 C   0  0  0  0  0  0  0  0  0  0  0  0
   -2.1802   -1.2264   -2.0714 H   0  0  0  0  0  0  0  0  0  0  0  0
   -1.9352   -0.8402   -4.4951 H   0  0  0  0  0  0  0  0  0  0  0  0
    0.2538   -0.9608   -5.6286 H   0  0  0  0  0  0  0  0  0  0  0  0
    2.3015   -1.4905   -4.2836 H   0  0  0  0  0  0  0  0  0  0  0  0
    1.5551   -0.4839   -2.1032 H   0  0  0  0  0  0  0  0  0  0  0  0
   -0.1654   -1.7149   -0.6895 H   0  0  0  0  0  0  0  0  0  0  0  0
    1.4871   -1.5589    2.0789 S   0  0  0  0  0  0  0  0  0  0  0  0
    0.1561   -1.6393    1.5186 O   0  0  0  0  0  0  0  0  0  0  0  0
    2.6611   -1.5915    1.2200 O   0  0  0  0  0  0  0  0  0  0  0  0
    1.5236   -0.2501    3.0150 O   0  0  0  0  0  0  0  0  0  0  0  0
    1.6710   -2.9263    3.3734 C   0  0  0  0  0  0  0  0  0  0  0  0
    2.7836   -2.7005    4.0597 F   0  0  0  0  0  0  0  0  0  0  0  0
    0.6230   -2.9159    4.1722 F   0  0  0  0  0  0  0  0  0  0  0  0
    1.7540   -4.0798    2.7278 F   0  0  0  0  0  0  0  0  0  0  0  0
    2.5438   -2.1812   -0.8601 H   0  0  0  0  0  0  0  0  0  0  0  0
  2  1  3  0  0  0  0
  3 26  1  0  0  0  0
  4  3  1  0  0  0  0
  6 12  1  0  0  0  0
  6 11  2  0  0  0  0
  7  6  1  0  0  0  0
  8  7  1  0  0  0  0
  8  9  2  0  0  0  0
  9 10  1  0  0  0  0
 10 16  1  1  0  0  0
 10  3  1  0  0  0  0
 10 11  1  0  0  0  0
 11 17  1  0  0  0  0
 13  7  1  0  0  0  0
 14  8  1  0  0  0  0
 15  9  1  0  0  0  0
 18 21  1  0  0  0  0
 18 22  1  0  0  0  0
 19 18  2  0  0  0  0
 20 18  2  0  0  0  0
 21  5  1  0  0  0  0
 22 23  1  0  0  0  0
 22 24  1  0  0  0  0
 25 22  1  0  0  0  0
M  RAD  1   7   2
M  END
