Coordinates from ORCA-job C6H6+HOTf+NH2--N2+-scan
 OpenBabel10191813343D

 26 24  0  0  1  0  0  0  0  0999 V2000
    0.7035   -8.0742   -2.6858 N   0  0  0  0  0  0  0  0  0  0  0  0
    0.6569   -9.1652   -2.7737 N   0  0  0  0  0  0  0  0  0  0  0  0
    2.3864   -2.1872   -1.7851 N   0  0  0  0  0  0  0  0  0  0  0  0
    2.1941   -3.1795   -1.8689 H   0  0  0  0  0  0  0  0  0  0  0  0
    2.3295    0.1895    3.2411 H   0  0  0  0  0  0  0  0  0  0  0  0
   -1.1751   -1.2486   -2.5027 C   0  0  0  0  0  0  0  0  0  0  0  0
   -1.0292   -1.0194   -3.8842 C   0  0  0  0  0  0  0  0  0  0  0  0
    0.2241   -1.0033   -4.5263 C   0  0  0  0  0  0  0  0  0  0  0  0
    1.3558   -1.2356   -3.7888 C   0  0  0  0  0  0  0  0  0  0  0  0
    1.3010   -1.3953   -2.3211 C   0  0  1  0  0  0  0  0  0  0  0  0
   -0.0612   -1.4770   -1.7352 C   0  0  0  0  0  0  0  0  0  0  0  0
   -2.1649   -1.2731   -2.0627 H   0  0  0  0  0  0  0  0  0  0  0  0
   -1.9214   -0.8573   -4.4817 H   0  0  0  0  0  0  0  0  0  0  0  0
    0.2807   -0.8444   -5.5961 H   0  0  0  0  0  0  0  0  0  0  0  0
    2.3436   -1.2654   -4.2362 H   0  0  0  0  0  0  0  0  0  0  0  0
    1.5235   -0.3189   -2.0552 H   0  0  0  0  0  0  0  0  0  0  0  0
   -0.1377   -1.6549   -0.6656 H   0  0  0  0  0  0  0  0  0  0  0  0
    1.4800   -1.4458    2.1183 S   0  0  0  0  0  0  0  0  0  0  0  0
    0.1609   -1.5939    1.5438 O   0  0  0  0  0  0  0  0  0  0  0  0
    2.6615   -1.4017    1.2702 O   0  0  0  0  0  0  0  0  0  0  0  0
    1.4341   -0.1487    3.0699 O   0  0  0  0  0  0  0  0  0  0  0  0
    1.7289   -2.8169    3.3981 C   0  0  0  0  0  0  0  0  0  0  0  0
    2.8205   -2.5371    4.0980 F   0  0  0  0  0  0  0  0  0  0  0  0
    0.6745   -2.8756    4.1862 F   0  0  0  0  0  0  0  0  0  0  0  0
    1.8830   -3.9555    2.7394 F   0  0  0  0  0  0  0  0  0  0  0  0
    2.5962   -1.9672   -0.8155 H   0  0  0  0  0  0  0  0  0  0  0  0
  2  1  3  0  0  0  0
  3 26  1  0  0  0  0
  4  3  1  0  0  0  0
  6 12  1  0  0  0  0
  6 11  2  0  0  0  0
  7  6  1  0  0  0  0
  8  7  1  0  0  0  0
  8  9  2  0  0  0  0
  9 10  1  0  0  0  0
 10 16  1  1  0  0  0
 10  3  1  0  0  0  0
 10 11  1  0  0  0  0
 11 17  1  0  0  0  0
 13  7  1  0  0  0  0
 14  8  1  0  0  0  0
 15  9  1  0  0  0  0
 18 21  1  0  0  0  0
 18 22  1  0  0  0  0
 19 18  2  0  0  0  0
 20 18  2  0  0  0  0
 21  5  1  0  0  0  0
 22 23  1  0  0  0  0
 22 24  1  0  0  0  0
 25 22  1  0  0  0  0
M  RAD  1   7   2
M  END
