Coordinates from ORCA-job C6H6+HOTf+NH2--N2+-scan
 OpenBabel10191813343D

 26 24  0  0  0  0  0  0  0  0999 V2000
    1.1664   -5.2109   -1.7185 N   0  0  0  0  0  0  0  0  0  0  0  0
    1.1265   -6.1338   -2.3778 N   0  0  0  0  0  0  0  0  0  0  0  0
    1.1560   -4.2420   -1.1367 N   0  0  0  0  0  0  0  0  0  0  0  0
    0.3003   -2.6989   -1.7361 H   0  0  0  0  0  0  0  0  0  0  0  0
    4.2109   -2.2723    2.4763 H   0  0  0  0  0  0  0  0  0  0  0  0
   -0.9814   -2.1086   -3.2645 C   0  0  0  0  0  0  0  0  0  0  0  0
   -0.5904   -1.5732   -4.4666 C   0  0  0  0  0  0  0  0  0  0  0  0
    0.4404   -0.6148   -4.4880 C   0  0  0  0  0  0  0  0  0  0  0  0
    1.0898   -0.1781   -3.3212 C   0  0  0  0  0  0  0  0  0  0  0  0
    0.7144   -0.7026   -2.1069 C   0  0  0  0  0  0  0  0  0  0  0  0
   -0.2957   -1.7450   -2.0347 C   0  0  0  0  0  0  0  0  0  0  0  0
   -1.7788   -2.8428   -3.2182 H   0  0  0  0  0  0  0  0  0  0  0  0
   -1.0734   -1.8662   -5.3905 H   0  0  0  0  0  0  0  0  0  0  0  0
    0.7400   -0.1931   -5.4424 H   0  0  0  0  0  0  0  0  0  0  0  0
    1.8653    0.5751   -3.3852 H   0  0  0  0  0  0  0  0  0  0  0  0
    1.1886   -0.3930   -1.1822 H   0  0  0  0  0  0  0  0  0  0  0  0
   -0.9378   -1.6905   -1.1468 H   0  0  0  0  0  0  0  0  0  0  0  0
    2.1431   -2.1487    1.8705 S   0  0  0  0  0  0  0  0  0  0  0  0
    1.4852   -1.1943    1.0065 O   0  0  0  0  0  0  0  0  0  0  0  0
    2.2377   -3.5557    1.5038 O   0  0  0  0  0  0  0  0  0  0  0  0
    3.6097   -1.5667    2.1818 O   0  0  0  0  0  0  0  0  0  0  0  0
    1.3444   -2.0561    3.5847 C   0  0  0  0  0  0  0  0  0  0  0  0
    2.1022   -2.7394    4.4304 F   0  0  0  0  0  0  0  0  0  0  0  0
    1.2575   -0.7935    3.9527 F   0  0  0  0  0  0  0  0  0  0  0  0
    0.1419   -2.6004    3.4952 F   0  0  0  0  0  0  0  0  0  0  0  0
    1.5865   -4.2066   -0.2055 H   0  0  0  0  0  0  0  0  0  0  0  0
  1  3  2  0  0  0  0
  2  1  2  0  0  0  0
  3 26  1  0  0  0  0
  6 12  1  0  0  0  0
  6 11  1  0  0  0  0
  7  6  2  0  0  0  0
  8  7  1  0  0  0  0
  8  9  1  0  0  0  0
  9 10  2  0  0  0  0
 10 11  1  0  0  0  0
 10 16  1  0  0  0  0
 11  4  1  0  0  0  0
 11 17  1  0  0  0  0
 13  7  1  0  0  0  0
 14  8  1  0  0  0  0
 15  9  1  0  0  0  0
 18 21  1  0  0  0  0
 18 22  1  0  0  0  0
 19 18  2  0  0  0  0
 20 18  2  0  0  0  0
 21  5  1  0  0  0  0
 22 24  1  0  0  0  0
 22 23  1  0  0  0  0
 25 22  1  0  0  0  0
M  RAD  2   2   2   8   2
M  END
