Coordinates from ORCA-job C6H6+HOTf+NH2--N2+-scan
 OpenBabel10191813343D

 26 24  0  0  1  0  0  0  0  0999 V2000
    2.7941   -5.3518   -1.1267 N   0  0  0  0  0  0  0  0  0  0  0  0
    3.7725   -5.7625   -1.3995 N   0  0  0  0  0  0  0  0  0  0  0  0
    1.5663   -3.1142   -1.9201 N   0  0  0  0  0  0  0  0  0  0  0  0
    0.9124   -3.8882   -1.9081 H   0  0  0  0  0  0  0  0  0  0  0  0
    3.0539   -0.6353    2.8697 H   0  0  0  0  0  0  0  0  0  0  0  0
   -1.1729   -0.6234   -2.5192 C   0  0  0  0  0  0  0  0  0  0  0  0
   -1.0545   -0.5563   -3.9203 C   0  0  0  0  0  0  0  0  0  0  0  0
    0.0034   -1.1620   -4.6264 C   0  0  0  0  0  0  0  0  0  0  0  0
    0.9527   -1.8652   -3.9325 C   0  0  0  0  0  0  0  0  0  0  0  0
    0.9542   -1.9125   -2.4558 C   0  0  1  0  0  0  0  0  0  0  0  0
   -0.2307   -1.3089   -1.7948 C   0  0  0  0  0  0  0  0  0  0  0  0
   -2.0186   -0.1577   -2.0275 H   0  0  0  0  0  0  0  0  0  0  0  0
   -1.8158   -0.0228   -4.4818 H   0  0  0  0  0  0  0  0  0  0  0  0
    0.0368   -1.0989   -5.7071 H   0  0  0  0  0  0  0  0  0  0  0  0
    1.7684   -2.3808   -4.4281 H   0  0  0  0  0  0  0  0  0  0  0  0
    1.6891   -1.0731   -2.2795 H   0  0  0  0  0  0  0  0  0  0  0  0
   -0.2884   -1.3729   -0.7111 H   0  0  0  0  0  0  0  0  0  0  0  0
    1.5099   -1.8174    1.9336 S   0  0  0  0  0  0  0  0  0  0  0  0
    0.1963   -1.4318    1.4675 O   0  0  0  0  0  0  0  0  0  0  0  0
    2.5208   -2.2944    1.0020 O   0  0  0  0  0  0  0  0  0  0  0  0
    2.0865   -0.5814    2.7885 O   0  0  0  0  0  0  0  0  0  0  0  0
    1.3008   -3.1199    3.2898 C   0  0  0  0  0  0  0  0  0  0  0  0
    2.4744   -3.2896    3.8852 F   0  0  0  0  0  0  0  0  0  0  0  0
    0.3967   -2.7083    4.1555 F   0  0  0  0  0  0  0  0  0  0  0  0
    0.9124   -4.2445    2.7084 F   0  0  0  0  0  0  0  0  0  0  0  0
    1.9290   -2.9787   -0.9813 H   0  0  0  0  0  0  0  0  0  0  0  0
  2  1  3  0  0  0  0
  3  4  1  0  0  0  0
  3 26  1  0  0  0  0
  6 12  1  0  0  0  0
  6 11  2  0  0  0  0
  7  6  1  0  0  0  0
  8  9  2  0  0  0  0
  8  7  1  0  0  0  0
  9 10  1  0  0  0  0
 10 16  1  1  0  0  0
 10  3  1  0  0  0  0
 10 11  1  0  0  0  0
 11 17  1  0  0  0  0
 13  7  1  0  0  0  0
 14  8  1  0  0  0  0
 15  9  1  0  0  0  0
 18 21  1  0  0  0  0
 18 22  1  0  0  0  0
 19 18  2  0  0  0  0
 20 18  2  0  0  0  0
 21  5  1  0  0  0  0
 22 23  1  0  0  0  0
 22 24  1  0  0  0  0
 25 22  1  0  0  0  0
M  RAD  1   7   2
M  END
