Coordinates from ORCA-job C6H6+HOTf+NH2--N2+-scan
 OpenBabel10191813343D

 26 24  0  0  1  0  0  0  0  0999 V2000
    2.2263   -5.7997   -1.5219 N   0  0  0  0  0  0  0  0  0  0  0  0
    2.8694   -6.6748   -1.3807 N   0  0  0  0  0  0  0  0  0  0  0  0
    1.8896   -2.8455   -1.9457 N   0  0  0  0  0  0  0  0  0  0  0  0
    1.4233   -3.7416   -2.0077 H   0  0  0  0  0  0  0  0  0  0  0  0
    2.9152   -0.4016    2.9419 H   0  0  0  0  0  0  0  0  0  0  0  0
   -1.2548   -0.8762   -2.5167 C   0  0  0  0  0  0  0  0  0  0  0  0
   -1.1208   -0.7178   -3.9089 C   0  0  0  0  0  0  0  0  0  0  0  0
    0.0419   -1.0911   -4.6096 C   0  0  0  0  0  0  0  0  0  0  0  0
    1.0876   -1.6488   -3.9206 C   0  0  0  0  0  0  0  0  0  0  0  0
    1.0654   -1.7711   -2.4491 C   0  0  1  0  0  0  0  0  0  0  0  0
   -0.2236   -1.4260   -1.7974 C   0  0  0  0  0  0  0  0  0  0  0  0
   -2.1796   -0.5917   -2.0292 H   0  0  0  0  0  0  0  0  0  0  0  0
   -1.9518   -0.2970   -4.4672 H   0  0  0  0  0  0  0  0  0  0  0  0
    0.0876   -0.9674   -5.6847 H   0  0  0  0  0  0  0  0  0  0  0  0
    1.9950   -1.9813   -4.4133 H   0  0  0  0  0  0  0  0  0  0  0  0
    1.6116   -0.8048   -2.2262 H   0  0  0  0  0  0  0  0  0  0  0  0
   -0.2916   -1.5570   -0.7207 H   0  0  0  0  0  0  0  0  0  0  0  0
    1.5279   -1.7373    1.9684 S   0  0  0  0  0  0  0  0  0  0  0  0
    0.1971   -1.4872    1.4607 O   0  0  0  0  0  0  0  0  0  0  0  0
    2.6100   -2.1152    1.0725 O   0  0  0  0  0  0  0  0  0  0  0  0
    1.9502   -0.4457    2.8315 O   0  0  0  0  0  0  0  0  0  0  0  0
    1.4090   -3.0476    3.3276 C   0  0  0  0  0  0  0  0  0  0  0  0
    2.5734   -3.0937    3.9620 F   0  0  0  0  0  0  0  0  0  0  0  0
    0.4394   -2.7278    4.1606 F   0  0  0  0  0  0  0  0  0  0  0  0
    1.1572   -4.2093    2.7430 F   0  0  0  0  0  0  0  0  0  0  0  0
    2.1948   -2.6950   -0.9884 H   0  0  0  0  0  0  0  0  0  0  0  0
  1  2  3  0  0  0  0
  3 26  1  0  0  0  0
  4  3  1  0  0  0  0
  6 12  1  0  0  0  0
  6 11  2  0  0  0  0
  7  6  1  0  0  0  0
  8  9  2  0  0  0  0
  8  7  1  0  0  0  0
  9 10  1  0  0  0  0
 10 16  1  1  0  0  0
 10  3  1  0  0  0  0
 10 11  1  0  0  0  0
 11 17  1  0  0  0  0
 13  7  1  0  0  0  0
 14  8  1  0  0  0  0
 15  9  1  0  0  0  0
 18 21  1  0  0  0  0
 18 22  1  0  0  0  0
 19 18  2  0  0  0  0
 20 18  2  0  0  0  0
 21  5  1  0  0  0  0
 22 23  1  0  0  0  0
 22 24  1  0  0  0  0
 25 22  1  0  0  0  0
M  RAD  1   7   2
M  END
