Coordinates from ORCA-job C6H6+HOTf+NH2--N2+-scan
 OpenBabel10191813343D

 26 24  0  0  1  0  0  0  0  0999 V2000
    2.7212   -5.1520   -1.3839 N   0  0  0  0  0  0  0  0  0  0  0  0
    3.6474   -5.5128   -1.8466 N   0  0  0  0  0  0  0  0  0  0  0  0
    1.5568   -3.1670   -1.8708 N   0  0  0  0  0  0  0  0  0  0  0  0
    0.8434   -3.8865   -1.8253 H   0  0  0  0  0  0  0  0  0  0  0  0
    3.0719   -0.6478    2.8879 H   0  0  0  0  0  0  0  0  0  0  0  0
   -1.1478   -0.6594   -2.5177 C   0  0  0  0  0  0  0  0  0  0  0  0
   -1.0226   -0.6163   -3.9190 C   0  0  0  0  0  0  0  0  0  0  0  0
    0.0452   -1.2248   -4.6097 C   0  0  0  0  0  0  0  0  0  0  0  0
    0.9935   -1.9105   -3.8993 C   0  0  0  0  0  0  0  0  0  0  0  0
    0.9875   -1.9337   -2.4215 C   0  0  1  0  0  0  0  0  0  0  0  0
   -0.1976   -1.3160   -1.7771 C   0  0  0  0  0  0  0  0  0  0  0  0
   -2.0000   -0.1927   -2.0384 H   0  0  0  0  0  0  0  0  0  0  0  0
   -1.7865   -0.1012   -4.4940 H   0  0  0  0  0  0  0  0  0  0  0  0
    0.0829   -1.1799   -5.6912 H   0  0  0  0  0  0  0  0  0  0  0  0
    1.8105   -2.4345   -4.3840 H   0  0  0  0  0  0  0  0  0  0  0  0
    1.7507   -1.1281   -2.2315 H   0  0  0  0  0  0  0  0  0  0  0  0
   -0.2572   -1.3542   -0.6922 H   0  0  0  0  0  0  0  0  0  0  0  0
    1.5003   -1.8042    1.9654 S   0  0  0  0  0  0  0  0  0  0  0  0
    0.1939   -1.3954    1.4988 O   0  0  0  0  0  0  0  0  0  0  0  0
    2.4978   -2.3105    1.0342 O   0  0  0  0  0  0  0  0  0  0  0  0
    2.1058   -0.5732    2.8071 O   0  0  0  0  0  0  0  0  0  0  0  0
    1.2688   -3.0910    3.3331 C   0  0  0  0  0  0  0  0  0  0  0  0
    2.4405   -3.2796    3.9263 F   0  0  0  0  0  0  0  0  0  0  0  0
    0.3761   -2.6537    4.1978 F   0  0  0  0  0  0  0  0  0  0  0  0
    0.8557   -4.2119    2.7619 F   0  0  0  0  0  0  0  0  0  0  0  0
    1.9113   -3.0152   -0.9301 H   0  0  0  0  0  0  0  0  0  0  0  0
  2  1  3  0  0  0  0
  3  4  1  0  0  0  0
  3 26  1  0  0  0  0
  6 12  1  0  0  0  0
  6 11  2  0  0  0  0
  7  6  1  0  0  0  0
  8  7  1  0  0  0  0
  8  9  2  0  0  0  0
  9 10  1  0  0  0  0
 10 16  1  1  0  0  0
 10  3  1  0  0  0  0
 10 11  1  0  0  0  0
 11 17  1  0  0  0  0
 13  7  1  0  0  0  0
 14  8  1  0  0  0  0
 15  9  1  0  0  0  0
 18 21  1  0  0  0  0
 18 22  1  0  0  0  0
 19 18  2  0  0  0  0
 20 18  2  0  0  0  0
 21  5  1  0  0  0  0
 22 23  1  0  0  0  0
 22 24  1  0  0  0  0
 25 22  1  0  0  0  0
M  RAD  1   7   2
M  END
