Coordinates from ORCA-job C6H6+HOTf+NH2--N2+-scan
 OpenBabel10191813343D

 26 24  0  0  1  0  0  0  0  0999 V2000
    1.3674   -5.8332   -2.0469 N   0  0  0  0  0  0  0  0  0  0  0  0
    1.3747   -6.9283   -2.0578 N   0  0  0  0  0  0  0  0  0  0  0  0
    2.2041   -2.6010   -1.8609 N   0  0  0  0  0  0  0  0  0  0  0  0
    1.8843   -3.5614   -1.9267 H   0  0  0  0  0  0  0  0  0  0  0  0
    2.5640   -0.0876    3.1007 H   0  0  0  0  0  0  0  0  0  0  0  0
   -1.2144   -1.2016   -2.5256 C   0  0  0  0  0  0  0  0  0  0  0  0
   -1.0677   -1.0092   -3.9123 C   0  0  0  0  0  0  0  0  0  0  0  0
    0.1624   -1.1704   -4.5780 C   0  0  0  0  0  0  0  0  0  0  0  0
    1.2676   -1.5456   -3.8588 C   0  0  0  0  0  0  0  0  0  0  0  0
    1.2226   -1.6819   -2.3889 C   0  0  1  0  0  0  0  0  0  0  0  0
   -0.1257   -1.5716   -1.7767 C   0  0  0  0  0  0  0  0  0  0  0  0
   -2.1888   -1.0862   -2.0661 H   0  0  0  0  0  0  0  0  0  0  0  0
   -1.9417   -0.7328   -4.4946 H   0  0  0  0  0  0  0  0  0  0  0  0
    0.2181   -1.0313   -5.6506 H   0  0  0  0  0  0  0  0  0  0  0  0
    2.2333   -1.7120   -4.3242 H   0  0  0  0  0  0  0  0  0  0  0  0
    1.5874   -0.6383   -2.1462 H   0  0  0  0  0  0  0  0  0  0  0  0
   -0.2028   -1.7254   -0.7036 H   0  0  0  0  0  0  0  0  0  0  0  0
    1.4965   -1.6386    2.0468 S   0  0  0  0  0  0  0  0  0  0  0  0
    0.1570   -1.6397    1.5015 O   0  0  0  0  0  0  0  0  0  0  0  0
    2.6567   -1.7652    1.1783 O   0  0  0  0  0  0  0  0  0  0  0  0
    1.6303   -0.3190    2.9589 O   0  0  0  0  0  0  0  0  0  0  0  0
    1.6017   -2.9917    3.3644 C   0  0  0  0  0  0  0  0  0  0  0  0
    2.7348   -2.8305    4.0354 F   0  0  0  0  0  0  0  0  0  0  0  0
    0.5659   -2.8963    4.1736 F   0  0  0  0  0  0  0  0  0  0  0  0
    1.5990   -4.1599    2.7396 F   0  0  0  0  0  0  0  0  0  0  0  0
    2.4631   -2.3933   -0.9010 H   0  0  0  0  0  0  0  0  0  0  0  0
  2  1  3  0  0  0  0
  3 26  1  0  0  0  0
  4  3  1  0  0  0  0
  6 12  1  0  0  0  0
  6 11  2  0  0  0  0
  7  6  1  0  0  0  0
  8  7  1  0  0  0  0
  8  9  2  0  0  0  0
  9 10  1  0  0  0  0
 10 16  1  1  0  0  0
 10  3  1  0  0  0  0
 10 11  1  0  0  0  0
 11 17  1  0  0  0  0
 13  7  1  0  0  0  0
 14  8  1  0  0  0  0
 15  9  1  0  0  0  0
 18 21  1  0  0  0  0
 18 22  1  0  0  0  0
 19 18  2  0  0  0  0
 20 18  2  0  0  0  0
 21  5  1  0  0  0  0
 22 23  1  0  0  0  0
 22 24  1  0  0  0  0
 25 22  1  0  0  0  0
M  RAD  1   7   2
M  END
