Coordinates from ORCA-job C6H6+HOTf+NH2--N2+-scan
 OpenBabel10191813343D

 26 24  0  0  1  0  0  0  0  0999 V2000
    0.7122   -8.0327   -2.6737 N   0  0  0  0  0  0  0  0  0  0  0  0
    0.6647   -9.1238   -2.7609 N   0  0  0  0  0  0  0  0  0  0  0  0
    2.3845   -2.1933   -1.7864 N   0  0  0  0  0  0  0  0  0  0  0  0
    2.1906   -3.1854   -1.8700 H   0  0  0  0  0  0  0  0  0  0  0  0
    2.3326    0.1851    3.2392 H   0  0  0  0  0  0  0  0  0  0  0  0
   -1.1758   -1.2492   -2.5034 C   0  0  0  0  0  0  0  0  0  0  0  0
   -1.0298   -1.0206   -3.8849 C   0  0  0  0  0  0  0  0  0  0  0  0
    0.2234   -1.0065   -4.5272 C   0  0  0  0  0  0  0  0  0  0  0  0
    1.3549   -1.2404   -3.7900 C   0  0  0  0  0  0  0  0  0  0  0  0
    1.3002   -1.3998   -2.3222 C   0  0  1  0  0  0  0  0  0  0  0  0
   -0.0620   -1.4793   -1.7360 C   0  0  0  0  0  0  0  0  0  0  0  0
   -2.1655   -1.2722   -2.0631 H   0  0  0  0  0  0  0  0  0  0  0  0
   -1.9219   -0.8571   -4.4822 H   0  0  0  0  0  0  0  0  0  0  0  0
    0.2799   -0.8479   -5.5971 H   0  0  0  0  0  0  0  0  0  0  0  0
    2.3426   -1.2719   -4.2377 H   0  0  0  0  0  0  0  0  0  0  0  0
    1.5244   -0.3237   -2.0566 H   0  0  0  0  0  0  0  0  0  0  0  0
   -0.1385   -1.6569   -0.6664 H   0  0  0  0  0  0  0  0  0  0  0  0
    1.4802   -1.4493    2.1171 S   0  0  0  0  0  0  0  0  0  0  0  0
    0.1606   -1.5955    1.5430 O   0  0  0  0  0  0  0  0  0  0  0  0
    2.6615   -1.4073    1.2686 O   0  0  0  0  0  0  0  0  0  0  0  0
    1.4366   -0.1518    3.0683 O   0  0  0  0  0  0  0  0  0  0  0  0
    1.7272   -2.8204    3.3972 C   0  0  0  0  0  0  0  0  0  0  0  0
    2.8195   -2.5420    4.0968 F   0  0  0  0  0  0  0  0  0  0  0  0
    0.6730   -2.8772    4.1857 F   0  0  0  0  0  0  0  0  0  0  0  0
    1.8795   -3.9594    2.7389 F   0  0  0  0  0  0  0  0  0  0  0  0
    2.5948   -1.9735   -0.8168 H   0  0  0  0  0  0  0  0  0  0  0  0
  2  1  3  0  0  0  0
  3 26  1  0  0  0  0
  4  3  1  0  0  0  0
  6 12  1  0  0  0  0
  6 11  2  0  0  0  0
  7  6  1  0  0  0  0
  8  7  1  0  0  0  0
  8  9  2  0  0  0  0
  9 10  1  0  0  0  0
 10 16  1  1  0  0  0
 10  3  1  0  0  0  0
 10 11  1  0  0  0  0
 11 17  1  0  0  0  0
 13  7  1  0  0  0  0
 14  8  1  0  0  0  0
 15  9  1  0  0  0  0
 18 21  1  0  0  0  0
 18 22  1  0  0  0  0
 19 18  2  0  0  0  0
 20 18  2  0  0  0  0
 21  5  1  0  0  0  0
 22 23  1  0  0  0  0
 22 24  1  0  0  0  0
 25 22  1  0  0  0  0
M  RAD  1   7   2
M  END
