Coordinates from ORCA-job C6H6+HOTf+NH2--N2+-scan
 OpenBabel10191813343D

 26 24  0  0  1  0  0  0  0  0999 V2000
    0.9282   -7.1151   -2.4004 N   0  0  0  0  0  0  0  0  0  0  0  0
    0.8586   -8.2064   -2.4668 N   0  0  0  0  0  0  0  0  0  0  0  0
    2.3348   -2.3352   -1.8163 N   0  0  0  0  0  0  0  0  0  0  0  0
    2.1016   -3.3195   -1.8947 H   0  0  0  0  0  0  0  0  0  0  0  0
    2.4092    0.0796    3.1925 H   0  0  0  0  0  0  0  0  0  0  0  0
   -1.1902   -1.2552   -2.5158 C   0  0  0  0  0  0  0  0  0  0  0  0
   -1.0439   -1.0381   -3.8992 C   0  0  0  0  0  0  0  0  0  0  0  0
    0.2047   -1.0763   -4.5492 C   0  0  0  0  0  0  0  0  0  0  0  0
    1.3307   -1.3516   -3.8179 C   0  0  0  0  0  0  0  0  0  0  0  0
    1.2790   -1.5026   -2.3492 C   0  0  1  0  0  0  0  0  0  0  0  0
   -0.0815   -1.5260   -1.7544 C   0  0  0  0  0  0  0  0  0  0  0  0
   -2.1772   -1.2371   -2.0694 H   0  0  0  0  0  0  0  0  0  0  0  0
   -1.9326   -0.8418   -4.4917 H   0  0  0  0  0  0  0  0  0  0  0  0
    0.2608   -0.9244   -5.6201 H   0  0  0  0  0  0  0  0  0  0  0  0
    2.3136   -1.4240   -4.2713 H   0  0  0  0  0  0  0  0  0  0  0  0
    1.5464   -0.4347   -2.0901 H   0  0  0  0  0  0  0  0  0  0  0  0
   -0.1582   -1.6960   -0.6836 H   0  0  0  0  0  0  0  0  0  0  0  0
    1.4850   -1.5283    2.0891 S   0  0  0  0  0  0  0  0  0  0  0  0
    0.1568   -1.6263    1.5249 O   0  0  0  0  0  0  0  0  0  0  0  0
    2.6614   -1.5396    1.2329 O   0  0  0  0  0  0  0  0  0  0  0  0
    1.4994   -0.2229    3.0305 O   0  0  0  0  0  0  0  0  0  0  0  0
    1.6862   -2.8982    3.3783 C   0  0  0  0  0  0  0  0  0  0  0  0
    2.7934   -2.6583    4.0686 F   0  0  0  0  0  0  0  0  0  0  0  0
    0.6360   -2.9071    4.1741 F   0  0  0  0  0  0  0  0  0  0  0  0
    1.7885   -4.0475    2.7281 F   0  0  0  0  0  0  0  0  0  0  0  0
    2.5586   -2.1198   -0.8487 H   0  0  0  0  0  0  0  0  0  0  0  0
  2  1  3  0  0  0  0
  3 26  1  0  0  0  0
  4  3  1  0  0  0  0
  6 12  1  0  0  0  0
  6 11  2  0  0  0  0
  7  6  1  0  0  0  0
  8  7  1  0  0  0  0
  8  9  2  0  0  0  0
  9 10  1  0  0  0  0
 10 16  1  1  0  0  0
 10  3  1  0  0  0  0
 10 11  1  0  0  0  0
 11 17  1  0  0  0  0
 13  7  1  0  0  0  0
 14  8  1  0  0  0  0
 15  9  1  0  0  0  0
 18 21  1  0  0  0  0
 18 22  1  0  0  0  0
 19 18  2  0  0  0  0
 20 18  2  0  0  0  0
 21  5  1  0  0  0  0
 22 23  1  0  0  0  0
 22 24  1  0  0  0  0
 25 22  1  0  0  0  0
M  RAD  1   7   2
M  END
