Coordinates from ORCA-job C6H6+HOTf+NH2--N2+-scan
 OpenBabel10191813343D

 26 24  0  0  1  0  0  0  0  0999 V2000
    2.6854   -5.0791   -1.4731 N   0  0  0  0  0  0  0  0  0  0  0  0
    3.5909   -5.4250   -1.9870 N   0  0  0  0  0  0  0  0  0  0  0  0
    1.5591   -3.1795   -1.8606 N   0  0  0  0  0  0  0  0  0  0  0  0
    0.8188   -3.8717   -1.8044 H   0  0  0  0  0  0  0  0  0  0  0  0
    3.1031   -0.6771    2.8874 H   0  0  0  0  0  0  0  0  0  0  0  0
   -1.1487   -0.6913   -2.5170 C   0  0  0  0  0  0  0  0  0  0  0  0
   -1.0231   -0.6545   -3.9181 C   0  0  0  0  0  0  0  0  0  0  0  0
    0.0595   -1.2437   -4.6046 C   0  0  0  0  0  0  0  0  0  0  0  0
    1.0197   -1.9060   -3.8898 C   0  0  0  0  0  0  0  0  0  0  0  0
    1.0112   -1.9233   -2.4116 C   0  0  1  0  0  0  0  0  0  0  0  0
   -0.1805   -1.3163   -1.7721 C   0  0  0  0  0  0  0  0  0  0  0  0
   -2.0110   -0.2402   -2.0411 H   0  0  0  0  0  0  0  0  0  0  0  0
   -1.7981   -0.1611   -4.4973 H   0  0  0  0  0  0  0  0  0  0  0  0
    0.0972   -1.2036   -5.6863 H   0  0  0  0  0  0  0  0  0  0  0  0
    1.8447   -2.4191   -4.3726 H   0  0  0  0  0  0  0  0  0  0  0  0
    1.7874   -1.1392   -2.2035 H   0  0  0  0  0  0  0  0  0  0  0  0
   -0.2372   -1.3438   -0.6867 H   0  0  0  0  0  0  0  0  0  0  0  0
    1.5025   -1.8019    1.9757 S   0  0  0  0  0  0  0  0  0  0  0  0
    0.2045   -1.3659    1.5101 O   0  0  0  0  0  0  0  0  0  0  0  0
    2.4853   -2.3365    1.0443 O   0  0  0  0  0  0  0  0  0  0  0  0
    2.1389   -0.5804    2.8080 O   0  0  0  0  0  0  0  0  0  0  0  0
    1.2463   -3.0758    3.3513 C   0  0  0  0  0  0  0  0  0  0  0  0
    2.4153   -3.2876    3.9417 F   0  0  0  0  0  0  0  0  0  0  0  0
    0.3665   -2.6134    4.2162 F   0  0  0  0  0  0  0  0  0  0  0  0
    0.8060   -4.1899    2.7874 F   0  0  0  0  0  0  0  0  0  0  0  0
    1.9058   -3.0261   -0.9161 H   0  0  0  0  0  0  0  0  0  0  0  0
  2  1  3  0  0  0  0
  3  4  1  0  0  0  0
  3 26  1  0  0  0  0
  6 12  1  0  0  0  0
  6 11  2  0  0  0  0
  7  6  1  0  0  0  0
  8  7  1  0  0  0  0
  8  9  2  0  0  0  0
  9 10  1  0  0  0  0
 10 16  1  1  0  0  0
 10  3  1  0  0  0  0
 10 11  1  0  0  0  0
 11 17  1  0  0  0  0
 13  7  1  0  0  0  0
 14  8  1  0  0  0  0
 15  9  1  0  0  0  0
 18 21  1  0  0  0  0
 18 22  1  0  0  0  0
 19 18  2  0  0  0  0
 20 18  2  0  0  0  0
 21  5  1  0  0  0  0
 22 23  1  0  0  0  0
 22 24  1  0  0  0  0
 25 22  1  0  0  0  0
M  RAD  1   7   2
M  END
