Coordinates from ORCA-job C6H6+HOTf+NH2--N2+-scan
 OpenBabel10191813343D

 26 24  0  0  1  0  0  0  0  0999 V2000
    2.6794   -5.5732   -1.1716 N   0  0  0  0  0  0  0  0  0  0  0  0
    3.6329   -6.1124   -1.1599 N   0  0  0  0  0  0  0  0  0  0  0  0
    1.6797   -3.0108   -1.9665 N   0  0  0  0  0  0  0  0  0  0  0  0
    1.1050   -3.8442   -1.9990 H   0  0  0  0  0  0  0  0  0  0  0  0
    3.0725   -0.6253    2.8630 H   0  0  0  0  0  0  0  0  0  0  0  0
   -1.2260   -0.7001   -2.5150 C   0  0  0  0  0  0  0  0  0  0  0  0
   -1.1047   -0.5827   -3.9125 C   0  0  0  0  0  0  0  0  0  0  0  0
   -0.0076   -1.0992   -4.6286 C   0  0  0  0  0  0  0  0  0  0  0  0
    0.9822   -1.7607   -3.9494 C   0  0  0  0  0  0  0  0  0  0  0  0
    0.9782   -1.8526   -2.4754 C   0  0  1  0  0  0  0  0  0  0  0  0
   -0.2481   -1.3504   -1.8053 C   0  0  0  0  0  0  0  0  0  0  0  0
   -2.1018   -0.3037   -2.0153 H   0  0  0  0  0  0  0  0  0  0  0  0
   -1.8946   -0.0801   -4.4629 H   0  0  0  0  0  0  0  0  0  0  0  0
    0.0280   -1.0009   -5.7066 H   0  0  0  0  0  0  0  0  0  0  0  0
    1.8339   -2.2046   -4.4537 H   0  0  0  0  0  0  0  0  0  0  0  0
    1.6423   -0.9583   -2.2780 H   0  0  0  0  0  0  0  0  0  0  0  0
   -0.3072   -1.4554   -0.7252 H   0  0  0  0  0  0  0  0  0  0  0  0
    1.5318   -1.8126    1.9283 S   0  0  0  0  0  0  0  0  0  0  0  0
    0.2250   -1.4259    1.4438 O   0  0  0  0  0  0  0  0  0  0  0  0
    2.5491   -2.3100    1.0148 O   0  0  0  0  0  0  0  0  0  0  0  0
    2.1064   -0.5667    2.7702 O   0  0  0  0  0  0  0  0  0  0  0  0
    1.3017   -3.0925    3.3025 C   0  0  0  0  0  0  0  0  0  0  0  0
    2.4677   -3.2573    3.9140 F   0  0  0  0  0  0  0  0  0  0  0  0
    0.3894   -2.6637    4.1511 F   0  0  0  0  0  0  0  0  0  0  0  0
    0.9154   -4.2249    2.7349 F   0  0  0  0  0  0  0  0  0  0  0  0
    2.0190   -2.8841   -1.0174 H   0  0  0  0  0  0  0  0  0  0  0  0
  1  2  3  0  0  0  0
  3 26  1  0  0  0  0
  4  3  1  0  0  0  0
  6 12  1  0  0  0  0
  6 11  2  0  0  0  0
  7  6  1  0  0  0  0
  8  9  2  0  0  0  0
  8  7  1  0  0  0  0
  9 10  1  0  0  0  0
 10 16  1  1  0  0  0
 10  3  1  0  0  0  0
 10 11  1  0  0  0  0
 11 17  1  0  0  0  0
 13  7  1  0  0  0  0
 14  8  1  0  0  0  0
 15  9  1  0  0  0  0
 18 21  1  0  0  0  0
 18 22  1  0  0  0  0
 19 18  2  0  0  0  0
 20 18  2  0  0  0  0
 21  5  1  0  0  0  0
 22 23  1  0  0  0  0
 22 24  1  0  0  0  0
 25 22  1  0  0  0  0
M  RAD  1   7   2
M  END
