Coordinates from ORCA-job C6H6+HOTf+NH2--N2+-scan
 OpenBabel10191813343D

 26 24  0  0  1  0  0  0  0  0999 V2000
    1.0100   -6.7332   -2.3070 N   0  0  0  0  0  0  0  0  0  0  0  0
    0.9286   -7.8239   -2.3664 N   0  0  0  0  0  0  0  0  0  0  0  0
    2.3148   -2.3946   -1.8262 N   0  0  0  0  0  0  0  0  0  0  0  0
    2.0655   -3.3754   -1.9012 H   0  0  0  0  0  0  0  0  0  0  0  0
    2.4377    0.0403    3.1734 H   0  0  0  0  0  0  0  0  0  0  0  0
   -1.1946   -1.2612   -2.5201 C   0  0  0  0  0  0  0  0  0  0  0  0
   -1.0483   -1.0493   -3.9042 C   0  0  0  0  0  0  0  0  0  0  0  0
    0.1980   -1.1088   -4.5571 C   0  0  0  0  0  0  0  0  0  0  0  0
    1.3212   -1.4003   -3.8278 C   0  0  0  0  0  0  0  0  0  0  0  0
    1.2707   -1.5472   -2.3587 C   0  0  1  0  0  0  0  0  0  0  0  0
   -0.0885   -1.5479   -1.7607 C   0  0  0  0  0  0  0  0  0  0  0  0
   -2.1802   -1.2265   -2.0714 H   0  0  0  0  0  0  0  0  0  0  0  0
   -1.9351   -0.8401   -4.4951 H   0  0  0  0  0  0  0  0  0  0  0  0
    0.2539   -0.9600   -5.6285 H   0  0  0  0  0  0  0  0  0  0  0  0
    2.3018   -1.4891   -4.2833 H   0  0  0  0  0  0  0  0  0  0  0  0
    1.5550   -0.4828   -2.1030 H   0  0  0  0  0  0  0  0  0  0  0  0
   -0.1653   -1.7144   -0.6894 H   0  0  0  0  0  0  0  0  0  0  0  0
    1.4871   -1.5583    2.0791 S   0  0  0  0  0  0  0  0  0  0  0  0
    0.1562   -1.6390    1.5188 O   0  0  0  0  0  0  0  0  0  0  0  0
    2.6611   -1.5904    1.2202 O   0  0  0  0  0  0  0  0  0  0  0  0
    1.5231   -0.2496    3.0153 O   0  0  0  0  0  0  0  0  0  0  0  0
    1.6712   -2.9258    3.3735 C   0  0  0  0  0  0  0  0  0  0  0  0
    2.7838   -2.6997    4.0598 F   0  0  0  0  0  0  0  0  0  0  0  0
    0.6232   -2.9158    4.1722 F   0  0  0  0  0  0  0  0  0  0  0  0
    1.7546   -4.0792    2.7278 F   0  0  0  0  0  0  0  0  0  0  0  0
    2.5441   -2.1799   -0.8599 H   0  0  0  0  0  0  0  0  0  0  0  0
  2  1  3  0  0  0  0
  3 26  1  0  0  0  0
  4  3  1  0  0  0  0
  6 12  1  0  0  0  0
  6 11  2  0  0  0  0
  7  6  1  0  0  0  0
  8  7  1  0  0  0  0
  8  9  2  0  0  0  0
  9 10  1  0  0  0  0
 10 16  1  1  0  0  0
 10  3  1  0  0  0  0
 10 11  1  0  0  0  0
 11 17  1  0  0  0  0
 13  7  1  0  0  0  0
 14  8  1  0  0  0  0
 15  9  1  0  0  0  0
 18 21  1  0  0  0  0
 18 22  1  0  0  0  0
 19 18  2  0  0  0  0
 20 18  2  0  0  0  0
 21  5  1  0  0  0  0
 22 23  1  0  0  0  0
 22 24  1  0  0  0  0
 25 22  1  0  0  0  0
M  RAD  1   7   2
M  END
