Coordinates from ORCA-job C6H6+HOTf+NH2--N2+-scan
 OpenBabel10191813343D

 26 24  0  0  1  0  0  0  0  0999 V2000
    2.6246   -4.6337   -1.7588 N   0  0  0  0  0  0  0  0  0  0  0  0
    3.5623   -4.9097   -2.2695 N   0  0  0  0  0  0  0  0  0  0  0  0
    1.6551   -3.0063   -1.9242 N   0  0  0  0  0  0  0  0  0  0  0  0
    0.7929   -3.5451   -2.0234 H   0  0  0  0  0  0  0  0  0  0  0  0
    3.4659   -1.4477    2.8943 H   0  0  0  0  0  0  0  0  0  0  0  0
   -1.0676   -1.0356   -2.3570 C   0  0  0  0  0  0  0  0  0  0  0  0
   -1.1848   -1.2187   -3.7340 C   0  0  0  0  0  0  0  0  0  0  0  0
   -0.0626   -1.5239   -4.5546 C   0  0  0  0  0  0  0  0  0  0  0  0
    1.1654   -1.6744   -3.9909 C   0  0  0  0  0  0  0  0  0  0  0  0
    1.3555   -1.5425   -2.5333 C   0  0  1  0  0  0  0  0  0  0  0  0
    0.1833   -1.1184   -1.7696 C   0  0  0  0  0  0  0  0  0  0  0  0
   -1.9391   -0.7951   -1.7609 H   0  0  0  0  0  0  0  0  0  0  0  0
   -2.1603   -1.1235   -4.1999 H   0  0  0  0  0  0  0  0  0  0  0  0
   -0.1999   -1.6341   -5.6233 H   0  0  0  0  0  0  0  0  0  0  0  0
    2.0319   -1.9245   -4.5932 H   0  0  0  0  0  0  0  0  0  0  0  0
    2.2668   -0.9951   -2.2831 H   0  0  0  0  0  0  0  0  0  0  0  0
    0.3041   -0.9181   -0.7093 H   0  0  0  0  0  0  0  0  0  0  0  0
    1.5219   -1.8170    2.0284 S   0  0  0  0  0  0  0  0  0  0  0  0
    0.4934   -0.8936    1.6104 O   0  0  0  0  0  0  0  0  0  0  0  0
    2.1865   -2.6751    1.0529 O   0  0  0  0  0  0  0  0  0  0  0  0
    2.6174   -0.9747    2.8501 O   0  0  0  0  0  0  0  0  0  0  0  0
    0.8254   -2.9313    3.3916 C   0  0  0  0  0  0  0  0  0  0  0  0
    1.8344   -3.5997    3.9346 F   0  0  0  0  0  0  0  0  0  0  0  0
    0.2203   -2.1876    4.2939 F   0  0  0  0  0  0  0  0  0  0  0  0
   -0.0297   -3.7679    2.8241 F   0  0  0  0  0  0  0  0  0  0  0  0
    1.7867   -2.8591   -0.9154 H   0  0  0  0  0  0  0  0  0  0  0  0
  2  1  3  0  0  0  0
  3 26  1  0  0  0  0
  4  3  1  0  0  0  0
  6 11  2  0  0  0  0
  6 12  1  0  0  0  0
  7  6  1  0  0  0  0
  8  9  2  0  0  0  0
  8  7  1  0  0  0  0
  9 10  1  0  0  0  0
 10 16  1  1  0  0  0
 10  3  1  0  0  0  0
 10 11  1  0  0  0  0
 11 17  1  0  0  0  0
 13  7  1  0  0  0  0
 14  8  1  0  0  0  0
 15  9  1  0  0  0  0
 18 21  1  0  0  0  0
 18 22  1  0  0  0  0
 19 18  2  0  0  0  0
 20 18  2  0  0  0  0
 21  5  1  0  0  0  0
 22 23  1  0  0  0  0
 22 24  1  0  0  0  0
 25 22  1  0  0  0  0
M  RAD  1   7   2
M  END
