Coordinates from ORCA-job C6H6+HOTf+NH2--N2+-scan
 OpenBabel10191813343D

 26 24  0  0  1  0  0  0  0  0999 V2000
    0.6616   -8.2823   -2.7454 N   0  0  0  0  0  0  0  0  0  0  0  0
    0.6195   -9.3733   -2.8366 N   0  0  0  0  0  0  0  0  0  0  0  0
    2.3957   -2.1569   -1.7789 N   0  0  0  0  0  0  0  0  0  0  0  0
    2.2110   -3.1506   -1.8637 H   0  0  0  0  0  0  0  0  0  0  0  0
    2.3150    0.2113    3.2510 H   0  0  0  0  0  0  0  0  0  0  0  0
   -1.1720   -1.2444   -2.4997 C   0  0  0  0  0  0  0  0  0  0  0  0
   -1.0262   -1.0130   -3.8808 C   0  0  0  0  0  0  0  0  0  0  0  0
    0.2277   -0.9869   -4.5214 C   0  0  0  0  0  0  0  0  0  0  0  0
    1.3602   -1.2112   -3.7830 C   0  0  0  0  0  0  0  0  0  0  0  0
    1.3050   -1.3726   -2.3154 C   0  0  1  0  0  0  0  0  0  0  0  0
   -0.0572   -1.4651   -1.7311 C   0  0  0  0  0  0  0  0  0  0  0  0
   -2.1620   -1.2768   -2.0608 H   0  0  0  0  0  0  0  0  0  0  0  0
   -1.9189   -0.8571   -4.4792 H   0  0  0  0  0  0  0  0  0  0  0  0
    0.2842   -0.8266   -5.5911 H   0  0  0  0  0  0  0  0  0  0  0  0
    2.3487   -1.2333   -4.2293 H   0  0  0  0  0  0  0  0  0  0  0  0
    1.5192   -0.2949   -2.0483 H   0  0  0  0  0  0  0  0  0  0  0  0
   -0.1336   -1.6445   -0.6617 H   0  0  0  0  0  0  0  0  0  0  0  0
    1.4792   -1.4284    2.1243 S   0  0  0  0  0  0  0  0  0  0  0  0
    0.1619   -1.5854    1.5479 O   0  0  0  0  0  0  0  0  0  0  0  0
    2.6614   -1.3741    1.2778 O   0  0  0  0  0  0  0  0  0  0  0  0
    1.4224   -0.1333    3.0780 O   0  0  0  0  0  0  0  0  0  0  0  0
    1.7366   -2.7998    3.4021 C   0  0  0  0  0  0  0  0  0  0  0  0
    2.8252   -2.5131    4.1039 F   0  0  0  0  0  0  0  0  0  0  0  0
    0.6818   -2.8677    4.1888 F   0  0  0  0  0  0  0  0  0  0  0  0
    1.9001   -3.9361    2.7417 F   0  0  0  0  0  0  0  0  0  0  0  0
    2.6029   -1.9362   -0.8089 H   0  0  0  0  0  0  0  0  0  0  0  0
  2  1  3  0  0  0  0
  3 26  1  0  0  0  0
  4  3  1  0  0  0  0
  6 12  1  0  0  0  0
  6 11  2  0  0  0  0
  7  6  1  0  0  0  0
  8  7  1  0  0  0  0
  8  9  2  0  0  0  0
  9 10  1  0  0  0  0
 10 16  1  1  0  0  0
 10  3  1  0  0  0  0
 10 11  1  0  0  0  0
 11 17  1  0  0  0  0
 13  7  1  0  0  0  0
 14  8  1  0  0  0  0
 15  9  1  0  0  0  0
 18 21  1  0  0  0  0
 18 22  1  0  0  0  0
 19 18  2  0  0  0  0
 20 18  2  0  0  0  0
 21  5  1  0  0  0  0
 22 23  1  0  0  0  0
 22 24  1  0  0  0  0
 25 22  1  0  0  0  0
M  RAD  1   7   2
M  END
