Coordinates from ORCA-job C6H6+HOTf+NH2--N2+-scan
 OpenBabel10191813343D

 26 25  0  0  1  0  0  0  0  0999 V2000
    2.6023   -4.5967   -1.7609 N   0  0  0  0  0  0  0  0  0  0  0  0
    3.5399   -4.8880   -2.2662 N   0  0  0  0  0  0  0  0  0  0  0  0
    1.6607   -3.0109   -1.9228 N   0  0  0  0  0  0  0  0  0  0  0  0
    0.7863   -3.5289   -2.0345 H   0  0  0  0  0  0  0  0  0  0  0  0
    3.4838   -1.5045    2.8809 H   0  0  0  0  0  0  0  0  0  0  0  0
   -1.0620   -1.0623   -2.3522 C   0  0  0  0  0  0  0  0  0  0  0  0
   -1.1856   -1.2595   -3.7260 C   0  0  0  0  0  0  0  0  0  0  0  0
   -0.0604   -1.5395   -4.5498 C   0  0  0  0  0  0  0  0  0  0  0  0
    1.1766   -1.6473   -3.9932 C   0  0  0  0  0  0  0  0  0  0  0  0
    1.3666   -1.5085   -2.5410 C   0  0  1  0  0  0  0  0  0  0  0  0
    0.1953   -1.1106   -1.7712 C   0  0  0  0  0  0  0  0  0  0  0  0
   -1.9338   -0.8354   -1.7512 H   0  0  0  0  0  0  0  0  0  0  0  0
   -2.1661   -1.1919   -4.1860 H   0  0  0  0  0  0  0  0  0  0  0  0
   -0.1993   -1.6582   -5.6174 H   0  0  0  0  0  0  0  0  0  0  0  0
    2.0468   -1.8684   -4.6014 H   0  0  0  0  0  0  0  0  0  0  0  0
    2.2859   -0.9859   -2.2751 H   0  0  0  0  0  0  0  0  0  0  0  0
    0.3168   -0.8955   -0.7141 H   0  0  0  0  0  0  0  0  0  0  0  0
    1.5237   -1.8152    2.0277 S   0  0  0  0  0  0  0  0  0  0  0  0
    0.5169   -0.8630    1.6234 O   0  0  0  0  0  0  0  0  0  0  0  0
    2.1574   -2.6855    1.0417 O   0  0  0  0  0  0  0  0  0  0  0  0
    2.6488   -1.0076    2.8439 O   0  0  0  0  0  0  0  0  0  0  0  0
    0.8110   -2.9204    3.3901 C   0  0  0  0  0  0  0  0  0  0  0  0
    1.8078   -3.6161    3.9211 F   0  0  0  0  0  0  0  0  0  0  0  0
    0.2311   -2.1676    4.3011 F   0  0  0  0  0  0  0  0  0  0  0  0
   -0.0684   -3.7328    2.8244 F   0  0  0  0  0  0  0  0  0  0  0  0
    1.7671   -2.8520   -0.9112 H   0  0  0  0  0  0  0  0  0  0  0  0
  2  1  2  0  0  0  0
  3  1  1  0  0  0  0
  3 26  1  0  0  0  0
  4  3  1  0  0  0  0
  6 11  2  0  0  0  0
  6 12  1  0  0  0  0
  7  6  1  0  0  0  0
  8  9  2  0  0  0  0
  8  7  1  0  0  0  0
  9 10  1  0  0  0  0
 10 16  1  1  0  0  0
 10  3  1  0  0  0  0
 10 11  1  0  0  0  0
 11 17  1  0  0  0  0
 13  7  1  0  0  0  0
 14  8  1  0  0  0  0
 15  9  1  0  0  0  0
 18 21  1  0  0  0  0
 18 22  1  0  0  0  0
 19 18  2  0  0  0  0
 20 18  2  0  0  0  0
 21  5  1  0  0  0  0
 22 23  1  0  0  0  0
 22 24  1  0  0  0  0
 25 22  1  0  0  0  0
M  RAD  2   2   2   7   2
M  END
