Coordinates from ORCA-job C6H6+HOTf+NH2--N2+-scan
 OpenBabel10191813343D

 26 24  0  0  1  0  0  0  0  0999 V2000
    0.9472   -7.0328   -2.3785 N   0  0  0  0  0  0  0  0  0  0  0  0
    0.8754   -8.1240   -2.4431 N   0  0  0  0  0  0  0  0  0  0  0  0
    2.3303   -2.3481   -1.8186 N   0  0  0  0  0  0  0  0  0  0  0  0
    2.0935   -3.3316   -1.8964 H   0  0  0  0  0  0  0  0  0  0  0  0
    2.4159    0.0705    3.1883 H   0  0  0  0  0  0  0  0  0  0  0  0
   -1.1913   -1.2559   -2.5168 C   0  0  0  0  0  0  0  0  0  0  0  0
   -1.0450   -1.0400   -3.9003 C   0  0  0  0  0  0  0  0  0  0  0  0
    0.2031   -1.0830   -4.5510 C   0  0  0  0  0  0  0  0  0  0  0  0
    1.3285   -1.3621   -3.8202 C   0  0  0  0  0  0  0  0  0  0  0  0
    1.2771   -1.5121   -2.3514 C   0  0  1  0  0  0  0  0  0  0  0  0
   -0.0831   -1.5303   -1.7559 C   0  0  0  0  0  0  0  0  0  0  0  0
   -2.1779   -1.2341   -2.0698 H   0  0  0  0  0  0  0  0  0  0  0  0
   -1.9333   -0.8408   -4.4924 H   0  0  0  0  0  0  0  0  0  0  0  0
    0.2591   -0.9318   -5.6220 H   0  0  0  0  0  0  0  0  0  0  0  0
    2.3108   -1.4381   -4.2742 H   0  0  0  0  0  0  0  0  0  0  0  0
    1.5484   -0.4450   -2.0930 H   0  0  0  0  0  0  0  0  0  0  0  0
   -0.1598   -1.6996   -0.6849 H   0  0  0  0  0  0  0  0  0  0  0  0
    1.4855   -1.5350    2.0868 S   0  0  0  0  0  0  0  0  0  0  0  0
    0.1566   -1.6288    1.5235 O   0  0  0  0  0  0  0  0  0  0  0  0
    2.6613   -1.5511    1.2299 O   0  0  0  0  0  0  0  0  0  0  0  0
    1.5050   -0.2290    3.0272 O   0  0  0  0  0  0  0  0  0  0  0  0
    1.6826   -2.9046    3.3770 C   0  0  0  0  0  0  0  0  0  0  0  0
    2.7911   -2.6681    4.0664 F   0  0  0  0  0  0  0  0  0  0  0  0
    0.6329   -2.9091    4.1735 F   0  0  0  0  0  0  0  0  0  0  0  0
    1.7805   -4.0548    2.7276 F   0  0  0  0  0  0  0  0  0  0  0  0
    2.5553   -2.1330   -0.8513 H   0  0  0  0  0  0  0  0  0  0  0  0
  2  1  3  0  0  0  0
  3 26  1  0  0  0  0
  4  3  1  0  0  0  0
  6 12  1  0  0  0  0
  6 11  2  0  0  0  0
  7  6  1  0  0  0  0
  8  7  1  0  0  0  0
  8  9  2  0  0  0  0
  9 10  1  0  0  0  0
 10 16  1  1  0  0  0
 10  3  1  0  0  0  0
 10 11  1  0  0  0  0
 11 17  1  0  0  0  0
 13  7  1  0  0  0  0
 14  8  1  0  0  0  0
 15  9  1  0  0  0  0
 18 21  1  0  0  0  0
 18 22  1  0  0  0  0
 19 18  2  0  0  0  0
 20 18  2  0  0  0  0
 21  5  1  0  0  0  0
 22 23  1  0  0  0  0
 22 24  1  0  0  0  0
 25 22  1  0  0  0  0
M  RAD  1   7   2
M  END
