Coordinates from ORCA-job C6H6+HOTf+NH2--N2+-scan
 OpenBabel10191813343D

 26 24  0  0  1  0  0  0  0  0999 V2000
    2.0441   -5.8766   -1.7906 N   0  0  0  0  0  0  0  0  0  0  0  0
    2.6272   -6.8027   -1.7487 N   0  0  0  0  0  0  0  0  0  0  0  0
    1.9559   -2.8065   -1.9037 N   0  0  0  0  0  0  0  0  0  0  0  0
    1.5108   -3.7150   -1.9524 H   0  0  0  0  0  0  0  0  0  0  0  0
    2.8361   -0.3039    2.9953 H   0  0  0  0  0  0  0  0  0  0  0  0
   -1.2370   -0.9271   -2.5037 C   0  0  0  0  0  0  0  0  0  0  0  0
   -1.1069   -0.7855   -3.8981 C   0  0  0  0  0  0  0  0  0  0  0  0
    0.0650   -1.1395   -4.5937 C   0  0  0  0  0  0  0  0  0  0  0  0
    1.1246   -1.6600   -3.8969 C   0  0  0  0  0  0  0  0  0  0  0  0
    1.1053   -1.7611   -2.4237 C   0  0  1  0  0  0  0  0  0  0  0  0
   -0.1922   -1.4401   -1.7770 C   0  0  0  0  0  0  0  0  0  0  0  0
   -2.1689   -0.6598   -2.0200 H   0  0  0  0  0  0  0  0  0  0  0  0
   -1.9483   -0.3943   -4.4623 H   0  0  0  0  0  0  0  0  0  0  0  0
    0.1075   -1.0305   -5.6704 H   0  0  0  0  0  0  0  0  0  0  0  0
    2.0404   -1.9761   -4.3850 H   0  0  0  0  0  0  0  0  0  0  0  0
    1.6274   -0.7786   -2.2148 H   0  0  0  0  0  0  0  0  0  0  0  0
   -0.2581   -1.5596   -0.6987 H   0  0  0  0  0  0  0  0  0  0  0  0
    1.5061   -1.6848    2.0051 S   0  0  0  0  0  0  0  0  0  0  0  0
    0.1688   -1.4825    1.4929 O   0  0  0  0  0  0  0  0  0  0  0  0
    2.6064   -2.0126    1.1116 O   0  0  0  0  0  0  0  0  0  0  0  0
    1.8740   -0.3855    2.8813 O   0  0  0  0  0  0  0  0  0  0  0  0
    1.4319   -3.0105    3.3524 C   0  0  0  0  0  0  0  0  0  0  0  0
    2.5943   -3.0173    3.9921 F   0  0  0  0  0  0  0  0  0  0  0  0
    0.4468   -2.7356    4.1834 F   0  0  0  0  0  0  0  0  0  0  0  0
    1.2277   -4.1760    2.7566 F   0  0  0  0  0  0  0  0  0  0  0  0
    2.2604   -2.6305   -0.9506 H   0  0  0  0  0  0  0  0  0  0  0  0
  1  2  3  0  0  0  0
  3 26  1  0  0  0  0
  4  3  1  0  0  0  0
  6 12  1  0  0  0  0
  6 11  2  0  0  0  0
  7  6  1  0  0  0  0
  8  7  1  0  0  0  0
  8  9  2  0  0  0  0
  9 10  1  0  0  0  0
 10 16  1  1  0  0  0
 10  3  1  0  0  0  0
 10 11  1  0  0  0  0
 11 17  1  0  0  0  0
 13  7  1  0  0  0  0
 14  8  1  0  0  0  0
 15  9  1  0  0  0  0
 18 21  1  0  0  0  0
 18 22  1  0  0  0  0
 19 18  2  0  0  0  0
 20 18  2  0  0  0  0
 21  5  1  0  0  0  0
 22 23  1  0  0  0  0
 22 24  1  0  0  0  0
 25 22  1  0  0  0  0
M  RAD  1   7   2
M  END
