Coordinates from ORCA-job C6H6+HOTf+NH2--N2+-scan
 OpenBabel10191813343D

 26 24  0  0  1  0  0  0  0  0999 V2000
    0.9435   -7.0493   -2.3828 N   0  0  0  0  0  0  0  0  0  0  0  0
    0.8720   -8.1405   -2.4478 N   0  0  0  0  0  0  0  0  0  0  0  0
    2.3312   -2.3456   -1.8182 N   0  0  0  0  0  0  0  0  0  0  0  0
    2.0951   -3.3292   -1.8960 H   0  0  0  0  0  0  0  0  0  0  0  0
    2.4146    0.0723    3.1892 H   0  0  0  0  0  0  0  0  0  0  0  0
   -1.1910   -1.2557   -2.5166 C   0  0  0  0  0  0  0  0  0  0  0  0
   -1.0448   -1.0396   -3.9001 C   0  0  0  0  0  0  0  0  0  0  0  0
    0.2034   -1.0817   -4.5507 C   0  0  0  0  0  0  0  0  0  0  0  0
    1.3289   -1.3600   -3.8198 C   0  0  0  0  0  0  0  0  0  0  0  0
    1.2775   -1.5102   -2.3510 C   0  0  1  0  0  0  0  0  0  0  0  0
   -0.0828   -1.5294   -1.7556 C   0  0  0  0  0  0  0  0  0  0  0  0
   -2.1778   -1.2347   -2.0698 H   0  0  0  0  0  0  0  0  0  0  0  0
   -1.9332   -0.8409   -4.4923 H   0  0  0  0  0  0  0  0  0  0  0  0
    0.2594   -0.9303   -5.6217 H   0  0  0  0  0  0  0  0  0  0  0  0
    2.3114   -1.4353   -4.2736 H   0  0  0  0  0  0  0  0  0  0  0  0
    1.5480   -0.4429   -2.0924 H   0  0  0  0  0  0  0  0  0  0  0  0
   -0.1595   -1.6988   -0.6846 H   0  0  0  0  0  0  0  0  0  0  0  0
    1.4854   -1.5336    2.0872 S   0  0  0  0  0  0  0  0  0  0  0  0
    0.1567   -1.6283    1.5237 O   0  0  0  0  0  0  0  0  0  0  0  0
    2.6613   -1.5488    1.2305 O   0  0  0  0  0  0  0  0  0  0  0  0
    1.5039   -0.2278    3.0278 O   0  0  0  0  0  0  0  0  0  0  0  0
    1.6833   -2.9033    3.3772 C   0  0  0  0  0  0  0  0  0  0  0  0
    2.7915   -2.6661    4.0668 F   0  0  0  0  0  0  0  0  0  0  0  0
    0.6335   -2.9087    4.1736 F   0  0  0  0  0  0  0  0  0  0  0  0
    1.7821   -4.0533    2.7277 F   0  0  0  0  0  0  0  0  0  0  0  0
    2.5560   -2.1304   -0.8508 H   0  0  0  0  0  0  0  0  0  0  0  0
  2  1  3  0  0  0  0
  3 26  1  0  0  0  0
  4  3  1  0  0  0  0
  6 12  1  0  0  0  0
  6 11  2  0  0  0  0
  7  6  1  0  0  0  0
  8  7  1  0  0  0  0
  8  9  2  0  0  0  0
  9 10  1  0  0  0  0
 10 16  1  1  0  0  0
 10  3  1  0  0  0  0
 10 11  1  0  0  0  0
 11 17  1  0  0  0  0
 13  7  1  0  0  0  0
 14  8  1  0  0  0  0
 15  9  1  0  0  0  0
 18 21  1  0  0  0  0
 18 22  1  0  0  0  0
 19 18  2  0  0  0  0
 20 18  2  0  0  0  0
 21  5  1  0  0  0  0
 22 23  1  0  0  0  0
 22 24  1  0  0  0  0
 25 22  1  0  0  0  0
M  RAD  1   7   2
M  END
