Coordinates from ORCA-job C6H6+HOTf+NH2--N2+-scan
 OpenBabel10191813343D

 26 24  0  0  1  0  0  0  0  0999 V2000
    0.8355   -7.4900   -2.5119 N   0  0  0  0  0  0  0  0  0  0  0  0
    0.7745   -8.5812   -2.5881 N   0  0  0  0  0  0  0  0  0  0  0  0
    2.3566   -2.2758   -1.8039 N   0  0  0  0  0  0  0  0  0  0  0  0
    2.1404   -3.2636   -1.8846 H   0  0  0  0  0  0  0  0  0  0  0  0
    2.3759    0.1239    3.2121 H   0  0  0  0  0  0  0  0  0  0  0  0
   -1.1843   -1.2546   -2.5110 C   0  0  0  0  0  0  0  0  0  0  0  0
   -1.0380   -1.0324   -3.8935 C   0  0  0  0  0  0  0  0  0  0  0  0
    0.2129   -1.0479   -4.5402 C   0  0  0  0  0  0  0  0  0  0  0  0
    1.3414   -1.3053   -3.8063 C   0  0  0  0  0  0  0  0  0  0  0  0
    1.2883   -1.4599   -2.3380 C   0  0  1  0  0  0  0  0  0  0  0  0
   -0.0733   -1.5077   -1.7470 C   0  0  0  0  0  0  0  0  0  0  0  0
   -2.1727   -1.2544   -2.0673 H   0  0  0  0  0  0  0  0  0  0  0  0
   -1.9283   -0.8504   -4.4882 H   0  0  0  0  0  0  0  0  0  0  0  0
    0.2692   -0.8930   -5.6107 H   0  0  0  0  0  0  0  0  0  0  0  0
    2.3266   -1.3598   -4.2572 H   0  0  0  0  0  0  0  0  0  0  0  0
    1.5371   -0.3883   -2.0758 H   0  0  0  0  0  0  0  0  0  0  0  0
   -0.1500   -1.6810   -0.6767 H   0  0  0  0  0  0  0  0  0  0  0  0
    1.4828   -1.4959    2.1006 S   0  0  0  0  0  0  0  0  0  0  0  0
    0.1581   -1.6150    1.5322 O   0  0  0  0  0  0  0  0  0  0  0  0
    2.6616   -1.4841    1.2477 O   0  0  0  0  0  0  0  0  0  0  0  0
    1.4720   -0.1936    3.0462 O   0  0  0  0  0  0  0  0  0  0  0  0
    1.7040   -2.8664    3.3859 C   0  0  0  0  0  0  0  0  0  0  0  0
    2.8049   -2.6096    4.0802 F   0  0  0  0  0  0  0  0  0  0  0  0
    0.6518   -2.8962    4.1786 F   0  0  0  0  0  0  0  0  0  0  0  0
    1.8282   -4.0116    2.7322 F   0  0  0  0  0  0  0  0  0  0  0  0
    2.5745   -2.0585   -0.8354 H   0  0  0  0  0  0  0  0  0  0  0  0
  2  1  3  0  0  0  0
  3 26  1  0  0  0  0
  4  3  1  0  0  0  0
  6 12  1  0  0  0  0
  6 11  2  0  0  0  0
  7  6  1  0  0  0  0
  8  7  1  0  0  0  0
  8  9  2  0  0  0  0
  9 10  1  0  0  0  0
 10 16  1  1  0  0  0
 10  3  1  0  0  0  0
 10 11  1  0  0  0  0
 11 17  1  0  0  0  0
 13  7  1  0  0  0  0
 14  8  1  0  0  0  0
 15  9  1  0  0  0  0
 18 21  1  0  0  0  0
 18 22  1  0  0  0  0
 19 18  2  0  0  0  0
 20 18  2  0  0  0  0
 21  5  1  0  0  0  0
 22 23  1  0  0  0  0
 22 24  1  0  0  0  0
 25 22  1  0  0  0  0
M  RAD  1   7   2
M  END
