Coordinates from ORCA-job C6H6+HOTf+NH2--N2+-scan
 OpenBabel10191813343D

 26 24  0  0  1  0  0  0  0  0999 V2000
    2.7056   -5.1197   -1.4269 N   0  0  0  0  0  0  0  0  0  0  0  0
    3.6208   -5.4744   -1.9163 N   0  0  0  0  0  0  0  0  0  0  0  0
    1.5568   -3.1734   -1.8652 N   0  0  0  0  0  0  0  0  0  0  0  0
    0.8308   -3.8804   -1.8139 H   0  0  0  0  0  0  0  0  0  0  0  0
    3.0841   -0.6587    2.8876 H   0  0  0  0  0  0  0  0  0  0  0  0
   -1.1479   -0.6732   -2.5176 C   0  0  0  0  0  0  0  0  0  0  0  0
   -1.0219   -0.6330   -3.9188 C   0  0  0  0  0  0  0  0  0  0  0  0
    0.0527   -1.2334   -4.6071 C   0  0  0  0  0  0  0  0  0  0  0  0
    1.0056   -1.9092   -3.8943 C   0  0  0  0  0  0  0  0  0  0  0  0
    0.9980   -1.9295   -2.4162 C   0  0  1  0  0  0  0  0  0  0  0  0
   -0.1902   -1.3160   -1.7746 C   0  0  0  0  0  0  0  0  0  0  0  0
   -2.0048   -0.2131   -2.0404 H   0  0  0  0  0  0  0  0  0  0  0  0
   -1.7903   -0.1274   -4.4961 H   0  0  0  0  0  0  0  0  0  0  0  0
    0.0908   -1.1908   -5.6887 H   0  0  0  0  0  0  0  0  0  0  0  0
    1.8262   -2.4288   -4.3776 H   0  0  0  0  0  0  0  0  0  0  0  0
    1.7674   -1.1339   -2.2178 H   0  0  0  0  0  0  0  0  0  0  0  0
   -0.2489   -1.3493   -0.6895 H   0  0  0  0  0  0  0  0  0  0  0  0
    1.5004   -1.8027    1.9703 S   0  0  0  0  0  0  0  0  0  0  0  0
    0.1970   -1.3831    1.5047 O   0  0  0  0  0  0  0  0  0  0  0  0
    2.4916   -2.3206    1.0386 O   0  0  0  0  0  0  0  0  0  0  0  0
    2.1187   -0.5752    2.8075 O   0  0  0  0  0  0  0  0  0  0  0  0
    1.2597   -3.0841    3.3416 C   0  0  0  0  0  0  0  0  0  0  0  0
    2.4308   -3.2817    3.9331 F   0  0  0  0  0  0  0  0  0  0  0  0
    0.3725   -2.6365    4.2068 F   0  0  0  0  0  0  0  0  0  0  0  0
    0.8355   -4.2025    2.7739 F   0  0  0  0  0  0  0  0  0  0  0  0
    1.9084   -3.0215   -0.9229 H   0  0  0  0  0  0  0  0  0  0  0  0
  2  1  3  0  0  0  0
  3  4  1  0  0  0  0
  3 26  1  0  0  0  0
  6 12  1  0  0  0  0
  6 11  2  0  0  0  0
  7  6  1  0  0  0  0
  8  7  1  0  0  0  0
  8  9  2  0  0  0  0
  9 10  1  0  0  0  0
 10 16  1  1  0  0  0
 10  3  1  0  0  0  0
 10 11  1  0  0  0  0
 11 17  1  0  0  0  0
 13  7  1  0  0  0  0
 14  8  1  0  0  0  0
 15  9  1  0  0  0  0
 18 21  1  0  0  0  0
 18 22  1  0  0  0  0
 19 18  2  0  0  0  0
 20 18  2  0  0  0  0
 21  5  1  0  0  0  0
 22 23  1  0  0  0  0
 22 24  1  0  0  0  0
 25 22  1  0  0  0  0
M  RAD  1   7   2
M  END
