Coordinates from ORCA-job C6H6+HOTf+NH2--N2+-scan
 OpenBabel10191813343D

 26 24  0  0  1  0  0  0  0  0999 V2000
    1.0870   -6.4256   -2.2347 N   0  0  0  0  0  0  0  0  0  0  0  0
    1.0006   -7.5162   -2.2890 N   0  0  0  0  0  0  0  0  0  0  0  0
    2.2939   -2.4487   -1.8342 N   0  0  0  0  0  0  0  0  0  0  0  0
    2.0281   -3.4258   -1.9054 H   0  0  0  0  0  0  0  0  0  0  0  0
    2.4634    0.0085    3.1556 H   0  0  0  0  0  0  0  0  0  0  0  0
   -1.1988   -1.2616   -2.5231 C   0  0  0  0  0  0  0  0  0  0  0  0
   -1.0520   -1.0541   -3.9077 C   0  0  0  0  0  0  0  0  0  0  0  0
    0.1918   -1.1343   -4.5630 C   0  0  0  0  0  0  0  0  0  0  0  0
    1.3118   -1.4425   -3.8355 C   0  0  0  0  0  0  0  0  0  0  0  0
    1.2621   -1.5864   -2.3662 C   0  0  1  0  0  0  0  0  0  0  0  0
   -0.0958   -1.5646   -1.7655 C   0  0  0  0  0  0  0  0  0  0  0  0
   -2.1827   -1.2106   -2.0724 H   0  0  0  0  0  0  0  0  0  0  0  0
   -1.9366   -0.8316   -4.4971 H   0  0  0  0  0  0  0  0  0  0  0  0
    0.2479   -0.9880   -5.6347 H   0  0  0  0  0  0  0  0  0  0  0  0
    2.2899   -1.5474   -4.2929 H   0  0  0  0  0  0  0  0  0  0  0  0
    1.5630   -0.5258   -2.1132 H   0  0  0  0  0  0  0  0  0  0  0  0
   -0.1728   -1.7283   -0.6938 H   0  0  0  0  0  0  0  0  0  0  0  0
    1.4891   -1.5822    2.0708 S   0  0  0  0  0  0  0  0  0  0  0  0
    0.1559   -1.6477    1.5140 O   0  0  0  0  0  0  0  0  0  0  0  0
    2.6606   -1.6338    1.2096 O   0  0  0  0  0  0  0  0  0  0  0  0
    1.5447   -0.2701    3.0013 O   0  0  0  0  0  0  0  0  0  0  0  0
    1.6580   -2.9463    3.3708 C   0  0  0  0  0  0  0  0  0  0  0  0
    2.7752   -2.7324    4.0535 F   0  0  0  0  0  0  0  0  0  0  0  0
    0.6122   -2.9186    4.1720 F   0  0  0  0  0  0  0  0  0  0  0  0
    1.7241   -4.1037    2.7300 F   0  0  0  0  0  0  0  0  0  0  0  0
    2.5289   -2.2344   -0.8691 H   0  0  0  0  0  0  0  0  0  0  0  0
  2  1  3  0  0  0  0
  3 26  1  0  0  0  0
  4  3  1  0  0  0  0
  6 12  1  0  0  0  0
  6 11  2  0  0  0  0
  7  6  1  0  0  0  0
  8  7  1  0  0  0  0
  8  9  2  0  0  0  0
  9 10  1  0  0  0  0
 10 16  1  1  0  0  0
 10  3  1  0  0  0  0
 10 11  1  0  0  0  0
 11 17  1  0  0  0  0
 13  7  1  0  0  0  0
 14  8  1  0  0  0  0
 15  9  1  0  0  0  0
 18 21  1  0  0  0  0
 18 22  1  0  0  0  0
 19 18  2  0  0  0  0
 20 18  2  0  0  0  0
 21  5  1  0  0  0  0
 22 23  1  0  0  0  0
 22 24  1  0  0  0  0
 25 22  1  0  0  0  0
M  RAD  1   7   2
M  END
