Coordinates from ORCA-job C6H6+HOTf+NH2--N2+-scan
 OpenBabel10191813343D

 26 24  0  0  1  0  0  0  0  0999 V2000
    0.9656   -6.9501   -2.3574 N   0  0  0  0  0  0  0  0  0  0  0  0
    0.8914   -8.0412   -2.4203 N   0  0  0  0  0  0  0  0  0  0  0  0
    2.3258   -2.3611   -1.8209 N   0  0  0  0  0  0  0  0  0  0  0  0
    2.0855   -3.3438   -1.8979 H   0  0  0  0  0  0  0  0  0  0  0  0
    2.4224    0.0617    3.1841 H   0  0  0  0  0  0  0  0  0  0  0  0
   -1.1923   -1.2569   -2.5177 C   0  0  0  0  0  0  0  0  0  0  0  0
   -1.0461   -1.0422   -3.9014 C   0  0  0  0  0  0  0  0  0  0  0  0
    0.2016   -1.0899   -4.5528 C   0  0  0  0  0  0  0  0  0  0  0  0
    1.3264   -1.3726   -3.8225 C   0  0  0  0  0  0  0  0  0  0  0  0
    1.2753   -1.5217   -2.3536 C   0  0  1  0  0  0  0  0  0  0  0  0
   -0.0847   -1.5349   -1.7573 C   0  0  0  0  0  0  0  0  0  0  0  0
   -2.1786   -1.2314   -2.0702 H   0  0  0  0  0  0  0  0  0  0  0  0
   -1.9339   -0.8401   -4.4931 H   0  0  0  0  0  0  0  0  0  0  0  0
    0.2575   -0.9394   -5.6239 H   0  0  0  0  0  0  0  0  0  0  0  0
    2.3082   -1.4523   -4.2769 H   0  0  0  0  0  0  0  0  0  0  0  0
    1.5503   -0.4554   -2.0959 H   0  0  0  0  0  0  0  0  0  0  0  0
   -0.1614   -1.7034   -0.6862 H   0  0  0  0  0  0  0  0  0  0  0  0
    1.4859   -1.5416    2.0845 S   0  0  0  0  0  0  0  0  0  0  0  0
    0.1564   -1.6314    1.5221 O   0  0  0  0  0  0  0  0  0  0  0  0
    2.6613   -1.5624    1.2271 O   0  0  0  0  0  0  0  0  0  0  0  0
    1.5104   -0.2349    3.0239 O   0  0  0  0  0  0  0  0  0  0  0  0
    1.6791   -2.9107    3.3758 C   0  0  0  0  0  0  0  0  0  0  0  0
    2.7889   -2.6774    4.0643 F   0  0  0  0  0  0  0  0  0  0  0  0
    0.6299   -2.9111    4.1729 F   0  0  0  0  0  0  0  0  0  0  0  0
    1.7727   -4.0618    2.7274 F   0  0  0  0  0  0  0  0  0  0  0  0
    2.5521   -2.1461   -0.8539 H   0  0  0  0  0  0  0  0  0  0  0  0
  2  1  3  0  0  0  0
  3 26  1  0  0  0  0
  4  3  1  0  0  0  0
  6 12  1  0  0  0  0
  6 11  2  0  0  0  0
  7  6  1  0  0  0  0
  8  7  1  0  0  0  0
  8  9  2  0  0  0  0
  9 10  1  0  0  0  0
 10 16  1  1  0  0  0
 10  3  1  0  0  0  0
 10 11  1  0  0  0  0
 11 17  1  0  0  0  0
 13  7  1  0  0  0  0
 14  8  1  0  0  0  0
 15  9  1  0  0  0  0
 18 21  1  0  0  0  0
 18 22  1  0  0  0  0
 19 18  2  0  0  0  0
 20 18  2  0  0  0  0
 21  5  1  0  0  0  0
 22 23  1  0  0  0  0
 22 24  1  0  0  0  0
 25 22  1  0  0  0  0
M  RAD  1   7   2
M  END
