Coordinates from ORCA-job C6H6+HOTf+NH2--N2+-scan
 OpenBabel10191813343D

 26 24  0  0  0  0  0  0  0  0999 V2000
    2.3749   -4.6960   -1.6258 N   0  0  0  0  0  0  0  0  0  0  0  0
    3.2287   -5.3367   -1.9092 N   0  0  0  0  0  0  0  0  0  0  0  0
    1.7396   -3.1532   -1.9021 N   0  0  0  0  0  0  0  0  0  0  0  0
    0.7754   -3.4607   -2.0750 H   0  0  0  0  0  0  0  0  0  0  0  0
    3.5448   -1.5651    2.7599 H   0  0  0  0  0  0  0  0  0  0  0  0
   -1.1045   -1.1222   -2.4148 C   0  0  0  0  0  0  0  0  0  0  0  0
   -1.1714   -1.3996   -3.7829 C   0  0  0  0  0  0  0  0  0  0  0  0
   -0.0036   -1.5289   -4.5553 C   0  0  0  0  0  0  0  0  0  0  0  0
    1.2325   -1.3814   -3.9605 C   0  0  0  0  0  0  0  0  0  0  0  0
    1.3234   -1.1277   -2.5621 C   0  0  0  0  0  0  0  0  0  0  0  0
    0.1329   -0.9616   -1.8038 C   0  0  0  0  0  0  0  0  0  0  0  0
   -2.0143   -1.0042   -1.8389 H   0  0  0  0  0  0  0  0  0  0  0  0
   -2.1394   -1.5074   -4.2597 H   0  0  0  0  0  0  0  0  0  0  0  0
   -0.0796   -1.7269   -5.6176 H   0  0  0  0  0  0  0  0  0  0  0  0
    2.1418   -1.4646   -4.5438 H   0  0  0  0  0  0  0  0  0  0  0  0
    2.2699   -0.7991   -2.1493 H   0  0  0  0  0  0  0  0  0  0  0  0
    0.1942   -0.6963   -0.7539 H   0  0  0  0  0  0  0  0  0  0  0  0
    1.5380   -1.8200    1.9968 S   0  0  0  0  0  0  0  0  0  0  0  0
    0.5289   -0.8486    1.6620 O   0  0  0  0  0  0  0  0  0  0  0  0
    2.1079   -2.6931    0.9693 O   0  0  0  0  0  0  0  0  0  0  0  0
    2.7226   -1.0463    2.7579 O   0  0  0  0  0  0  0  0  0  0  0  0
    0.8897   -2.9431    3.3768 C   0  0  0  0  0  0  0  0  0  0  0  0
    1.9116   -3.6478    3.8477 F   0  0  0  0  0  0  0  0  0  0  0  0
    0.3574   -2.2035    4.3253 F   0  0  0  0  0  0  0  0  0  0  0  0
   -0.0165   -3.7478    2.8433 F   0  0  0  0  0  0  0  0  0  0  0  0
    1.7646   -2.8704   -0.9043 H   0  0  0  0  0  0  0  0  0  0  0  0
  2  1  2  0  0  0  0
  3  1  1  0  0  0  0
  3 26  1  0  0  0  0
  4  3  1  0  0  0  0
  6 12  1  0  0  0  0
  6 11  1  0  0  0  0
  7  6  2  0  0  0  0
  8  9  2  0  0  0  0
  8  7  1  0  0  0  0
  9 10  1  0  0  0  0
 10 16  1  0  0  0  0
 10 11  2  0  0  0  0
 11 17  1  0  0  0  0
 13  7  1  0  0  0  0
 14  8  1  0  0  0  0
 15  9  1  0  0  0  0
 18 21  1  0  0  0  0
 18 22  1  0  0  0  0
 19 18  2  0  0  0  0
 20 18  2  0  0  0  0
 21  5  1  0  0  0  0
 22 23  1  0  0  0  0
 22 24  1  0  0  0  0
 25 22  1  0  0  0  0
M  RAD  1   2   2
M  END
