Coordinates from ORCA-job C6H6+HOTf+NH2--N2+-scan
 OpenBabel10191813343D

 26 24  0  0  1  0  0  0  0  0999 V2000
    1.0258   -6.6489   -2.2895 N   0  0  0  0  0  0  0  0  0  0  0  0
    0.9411   -7.7395   -2.3480 N   0  0  0  0  0  0  0  0  0  0  0  0
    2.3108   -2.4075   -1.8280 N   0  0  0  0  0  0  0  0  0  0  0  0
    2.0582   -3.3876   -1.9020 H   0  0  0  0  0  0  0  0  0  0  0  0
    2.4430    0.0327    3.1693 H   0  0  0  0  0  0  0  0  0  0  0  0
   -1.1954   -1.2634   -2.5210 C   0  0  0  0  0  0  0  0  0  0  0  0
   -1.0490   -1.0527   -3.9052 C   0  0  0  0  0  0  0  0  0  0  0  0
    0.1968   -1.1164   -4.5586 C   0  0  0  0  0  0  0  0  0  0  0  0
    1.3194   -1.4112   -3.8297 C   0  0  0  0  0  0  0  0  0  0  0  0
    1.2691   -1.5572   -2.3605 C   0  0  1  0  0  0  0  0  0  0  0  0
   -0.0899   -1.5533   -1.7619 C   0  0  0  0  0  0  0  0  0  0  0  0
   -2.1806   -1.2255   -2.0718 H   0  0  0  0  0  0  0  0  0  0  0  0
   -1.9355   -0.8409   -4.4958 H   0  0  0  0  0  0  0  0  0  0  0  0
    0.2527   -0.9683   -5.6301 H   0  0  0  0  0  0  0  0  0  0  0  0
    2.2995   -1.5033   -4.2856 H   0  0  0  0  0  0  0  0  0  0  0  0
    1.5567   -0.4935   -2.1055 H   0  0  0  0  0  0  0  0  0  0  0  0
   -0.1666   -1.7191   -0.6905 H   0  0  0  0  0  0  0  0  0  0  0  0
    1.4876   -1.5645    2.0772 S   0  0  0  0  0  0  0  0  0  0  0  0
    0.1561   -1.6421    1.5176 O   0  0  0  0  0  0  0  0  0  0  0  0
    2.6611   -1.6007    1.2178 O   0  0  0  0  0  0  0  0  0  0  0  0
    1.5276   -0.2549    3.0121 O   0  0  0  0  0  0  0  0  0  0  0  0
    1.6685   -2.9311    3.3729 C   0  0  0  0  0  0  0  0  0  0  0  0
    2.7821   -2.7075    4.0585 F   0  0  0  0  0  0  0  0  0  0  0  0
    0.6209   -2.9174    4.1721 F   0  0  0  0  0  0  0  0  0  0  0  0
    1.7483   -4.0855    2.7283 F   0  0  0  0  0  0  0  0  0  0  0  0
    2.5412   -2.1927   -0.8619 H   0  0  0  0  0  0  0  0  0  0  0  0
  2  1  3  0  0  0  0
  3 26  1  0  0  0  0
  4  3  1  0  0  0  0
  6 12  1  0  0  0  0
  6 11  2  0  0  0  0
  7  6  1  0  0  0  0
  8  7  1  0  0  0  0
  8  9  2  0  0  0  0
  9 10  1  0  0  0  0
 10 16  1  1  0  0  0
 10  3  1  0  0  0  0
 10 11  1  0  0  0  0
 11 17  1  0  0  0  0
 13  7  1  0  0  0  0
 14  8  1  0  0  0  0
 15  9  1  0  0  0  0
 18 21  1  0  0  0  0
 18 22  1  0  0  0  0
 19 18  2  0  0  0  0
 20 18  2  0  0  0  0
 21  5  1  0  0  0  0
 22 23  1  0  0  0  0
 22 24  1  0  0  0  0
 25 22  1  0  0  0  0
M  RAD  1   7   2
M  END
