Coordinates from ORCA-job C6H6+HOTf+NH2--N2+-scan
 OpenBabel10191813343D

 26 24  0  0  1  0  0  0  0  0999 V2000
    1.2796   -5.9730   -2.0990 N   0  0  0  0  0  0  0  0  0  0  0  0
    1.2449   -7.0673   -2.1279 N   0  0  0  0  0  0  0  0  0  0  0  0
    2.2337   -2.5581   -1.8527 N   0  0  0  0  0  0  0  0  0  0  0  0
    1.9282   -3.5240   -1.9183 H   0  0  0  0  0  0  0  0  0  0  0  0
    2.5312   -0.0580    3.1167 H   0  0  0  0  0  0  0  0  0  0  0  0
   -1.2098   -1.2258   -2.5255 C   0  0  0  0  0  0  0  0  0  0  0  0
   -1.0626   -1.0281   -3.9115 C   0  0  0  0  0  0  0  0  0  0  0  0
    0.1726   -1.1634   -4.5737 C   0  0  0  0  0  0  0  0  0  0  0  0
    1.2828   -1.5176   -3.8517 C   0  0  0  0  0  0  0  0  0  0  0  0
    1.2359   -1.6563   -2.3820 C   0  0  1  0  0  0  0  0  0  0  0  0
   -0.1161   -1.5745   -1.7737 C   0  0  0  0  0  0  0  0  0  0  0  0
   -2.1878   -1.1312   -2.0691 H   0  0  0  0  0  0  0  0  0  0  0  0
   -1.9402   -0.7688   -4.4961 H   0  0  0  0  0  0  0  0  0  0  0  0
    0.2287   -1.0219   -5.6460 H   0  0  0  0  0  0  0  0  0  0  0  0
    2.2529   -1.6646   -4.3144 H   0  0  0  0  0  0  0  0  0  0  0  0
    1.5808   -0.6072   -2.1354 H   0  0  0  0  0  0  0  0  0  0  0  0
   -0.1935   -1.7318   -0.7011 H   0  0  0  0  0  0  0  0  0  0  0  0
    1.4944   -1.6235    2.0535 S   0  0  0  0  0  0  0  0  0  0  0  0
    0.1565   -1.6464    1.5045 O   0  0  0  0  0  0  0  0  0  0  0  0
    2.6587   -1.7258    1.1873 O   0  0  0  0  0  0  0  0  0  0  0  0
    1.6022   -0.3053    2.9709 O   0  0  0  0  0  0  0  0  0  0  0  0
    1.6206   -2.9798    3.3662 C   0  0  0  0  0  0  0  0  0  0  0  0
    2.7489   -2.8006    4.0407 F   0  0  0  0  0  0  0  0  0  0  0  0
    0.5812   -2.9062    4.1729 F   0  0  0  0  0  0  0  0  0  0  0  0
    1.6406   -4.1453    2.7368 F   0  0  0  0  0  0  0  0  0  0  0  0
    2.4849   -2.3477   -0.8911 H   0  0  0  0  0  0  0  0  0  0  0  0
  2  1  3  0  0  0  0
  3 26  1  0  0  0  0
  4  3  1  0  0  0  0
  6 12  1  0  0  0  0
  6 11  2  0  0  0  0
  7  6  1  0  0  0  0
  8  7  1  0  0  0  0
  8  9  2  0  0  0  0
  9 10  1  0  0  0  0
 10 16  1  1  0  0  0
 10  3  1  0  0  0  0
 10 11  1  0  0  0  0
 11 17  1  0  0  0  0
 13  7  1  0  0  0  0
 14  8  1  0  0  0  0
 15  9  1  0  0  0  0
 18 21  1  0  0  0  0
 18 22  1  0  0  0  0
 19 18  2  0  0  0  0
 20 18  2  0  0  0  0
 21  5  1  0  0  0  0
 22 23  1  0  0  0  0
 22 24  1  0  0  0  0
 25 22  1  0  0  0  0
M  RAD  1   7   2
M  END
