Coordinates from ORCA-job C6H6+HOTf+NH2--N2+-scan
 OpenBabel10191813343D

 26 24  0  0  1  0  0  0  0  0999 V2000
    1.1198   -6.3254   -2.2090 N   0  0  0  0  0  0  0  0  0  0  0  0
    1.0363   -7.4164   -2.2606 N   0  0  0  0  0  0  0  0  0  0  0  0
    2.2843   -2.4695   -1.8372 N   0  0  0  0  0  0  0  0  0  0  0  0
    2.0113   -3.4448   -1.9071 H   0  0  0  0  0  0  0  0  0  0  0  0
    2.4746   -0.0035    3.1486 H   0  0  0  0  0  0  0  0  0  0  0  0
   -1.2007   -1.2582   -2.5238 C   0  0  0  0  0  0  0  0  0  0  0  0
   -1.0537   -1.0525   -3.9087 C   0  0  0  0  0  0  0  0  0  0  0  0
    0.1890   -1.1418   -4.5651 C   0  0  0  0  0  0  0  0  0  0  0  0
    1.3074   -1.4577   -3.8384 C   0  0  0  0  0  0  0  0  0  0  0  0
    1.2580   -1.6004   -2.3689 C   0  0  1  0  0  0  0  0  0  0  0  0
   -0.0991   -1.5687   -1.7671 C   0  0  0  0  0  0  0  0  0  0  0  0
   -2.1838   -1.2001   -2.0722 H   0  0  0  0  0  0  0  0  0  0  0  0
   -1.9372   -0.8239   -4.4973 H   0  0  0  0  0  0  0  0  0  0  0  0
    0.2451   -0.9965   -5.6369 H   0  0  0  0  0  0  0  0  0  0  0  0
    2.2843   -1.5697   -4.2965 H   0  0  0  0  0  0  0  0  0  0  0  0
    1.5663   -0.5417   -2.1170 H   0  0  0  0  0  0  0  0  0  0  0  0
   -0.1763   -1.7313   -0.6952 H   0  0  0  0  0  0  0  0  0  0  0  0
    1.4900   -1.5904    2.0677 S   0  0  0  0  0  0  0  0  0  0  0  0
    0.1558   -1.6492    1.5123 O   0  0  0  0  0  0  0  0  0  0  0  0
    2.6604   -1.6503    1.2054 O   0  0  0  0  0  0  0  0  0  0  0  0
    1.5542   -0.2770    2.9958 O   0  0  0  0  0  0  0  0  0  0  0  0
    1.6521   -2.9531    3.3699 C   0  0  0  0  0  0  0  0  0  0  0  0
    2.7713   -2.7447    4.0510 F   0  0  0  0  0  0  0  0  0  0  0  0
    0.6073   -2.9179    4.1722 F   0  0  0  0  0  0  0  0  0  0  0  0
    1.7107   -4.1120    2.7311 F   0  0  0  0  0  0  0  0  0  0  0  0
    2.5219   -2.2556   -0.8728 H   0  0  0  0  0  0  0  0  0  0  0  0
  2  1  3  0  0  0  0
  3 26  1  0  0  0  0
  4  3  1  0  0  0  0
  6 12  1  0  0  0  0
  6 11  2  0  0  0  0
  7  6  1  0  0  0  0
  8  7  1  0  0  0  0
  8  9  2  0  0  0  0
  9 10  1  0  0  0  0
 10 16  1  1  0  0  0
 10  3  1  0  0  0  0
 10 11  1  0  0  0  0
 11 17  1  0  0  0  0
 13  7  1  0  0  0  0
 14  8  1  0  0  0  0
 15  9  1  0  0  0  0
 18 21  1  0  0  0  0
 18 22  1  0  0  0  0
 19 18  2  0  0  0  0
 20 18  2  0  0  0  0
 21  5  1  0  0  0  0
 22 23  1  0  0  0  0
 22 24  1  0  0  0  0
 25 22  1  0  0  0  0
M  RAD  1   7   2
M  END
