Coordinates from ORCA-job C6H6+HOTf+NH2--N2+-scan
 OpenBabel10191813343D

 26 24  0  0  1  0  0  0  0  0999 V2000
    2.7080   -5.3912   -1.1545 N   0  0  0  0  0  0  0  0  0  0  0  0
    3.6887   -5.8504   -1.3202 N   0  0  0  0  0  0  0  0  0  0  0  0
    1.6248   -3.0651   -1.9378 N   0  0  0  0  0  0  0  0  0  0  0  0
    0.9999   -3.8626   -1.9434 H   0  0  0  0  0  0  0  0  0  0  0  0
    3.0846   -0.6553    2.8738 H   0  0  0  0  0  0  0  0  0  0  0  0
   -1.1987   -0.6663   -2.5207 C   0  0  0  0  0  0  0  0  0  0  0  0
   -1.0809   -0.5837   -3.9211 C   0  0  0  0  0  0  0  0  0  0  0  0
   -0.0020   -1.1466   -4.6306 C   0  0  0  0  0  0  0  0  0  0  0  0
    0.9708   -1.8219   -3.9414 C   0  0  0  0  0  0  0  0  0  0  0  0
    0.9716   -1.8813   -2.4654 C   0  0  1  0  0  0  0  0  0  0  0  0
   -0.2341   -1.3251   -1.8010 C   0  0  0  0  0  0  0  0  0  0  0  0
   -2.0606   -0.2341   -2.0265 H   0  0  0  0  0  0  0  0  0  0  0  0
   -1.8594   -0.0721   -4.4793 H   0  0  0  0  0  0  0  0  0  0  0  0
    0.0304   -1.0732   -5.7107 H   0  0  0  0  0  0  0  0  0  0  0  0
    1.8050   -2.3038   -4.4400 H   0  0  0  0  0  0  0  0  0  0  0  0
    1.6759   -1.0171   -2.2818 H   0  0  0  0  0  0  0  0  0  0  0  0
   -0.2890   -1.4016   -0.7181 H   0  0  0  0  0  0  0  0  0  0  0  0
    1.5322   -1.8243    1.9354 S   0  0  0  0  0  0  0  0  0  0  0  0
    0.2288   -1.4235    1.4533 O   0  0  0  0  0  0  0  0  0  0  0  0
    2.5447   -2.3260    1.0186 O   0  0  0  0  0  0  0  0  0  0  0  0
    2.1189   -0.5883    2.7835 O   0  0  0  0  0  0  0  0  0  0  0  0
    1.2906   -3.1094    3.3028 C   0  0  0  0  0  0  0  0  0  0  0  0
    2.4557   -3.2900    3.9115 F   0  0  0  0  0  0  0  0  0  0  0  0
    0.3843   -2.6754    4.1552 F   0  0  0  0  0  0  0  0  0  0  0  0
    0.8912   -4.2342    2.7295 F   0  0  0  0  0  0  0  0  0  0  0  0
    1.9682   -2.9295   -0.9911 H   0  0  0  0  0  0  0  0  0  0  0  0
  2  1  3  0  0  0  0
  3 26  1  0  0  0  0
  4  3  1  0  0  0  0
  6 12  1  0  0  0  0
  6 11  2  0  0  0  0
  7  6  1  0  0  0  0
  8  9  2  0  0  0  0
  8  7  1  0  0  0  0
  9 10  1  0  0  0  0
 10 16  1  1  0  0  0
 10  3  1  0  0  0  0
 10 11  1  0  0  0  0
 11 17  1  0  0  0  0
 13  7  1  0  0  0  0
 14  8  1  0  0  0  0
 15  9  1  0  0  0  0
 18 21  1  0  0  0  0
 18 22  1  0  0  0  0
 19 18  2  0  0  0  0
 20 18  2  0  0  0  0
 21  5  1  0  0  0  0
 22 23  1  0  0  0  0
 22 24  1  0  0  0  0
 25 22  1  0  0  0  0
M  RAD  1   7   2
M  END
