Coordinates from ORCA-job C6H6+HOTf+NH2--N2+-scan
 OpenBabel10191813343D

 26 24  0  0  1  0  0  0  0  0999 V2000
    2.7876   -5.3277   -1.1624 N   0  0  0  0  0  0  0  0  0  0  0  0
    3.7608   -5.7306   -1.4642 N   0  0  0  0  0  0  0  0  0  0  0  0
    1.5650   -3.1201   -1.9128 N   0  0  0  0  0  0  0  0  0  0  0  0
    0.9060   -3.8899   -1.8940 H   0  0  0  0  0  0  0  0  0  0  0  0
    3.0552   -0.6363    2.8738 H   0  0  0  0  0  0  0  0  0  0  0  0
   -1.1688   -0.6260   -2.5189 C   0  0  0  0  0  0  0  0  0  0  0  0
   -1.0501   -0.5631   -3.9202 C   0  0  0  0  0  0  0  0  0  0  0  0
    0.0078   -1.1712   -4.6244 C   0  0  0  0  0  0  0  0  0  0  0  0
    0.9563   -1.8732   -3.9284 C   0  0  0  0  0  0  0  0  0  0  0  0
    0.9575   -1.9161   -2.4515 C   0  0  1  0  0  0  0  0  0  0  0  0
   -0.2264   -1.3091   -1.7924 C   0  0  0  0  0  0  0  0  0  0  0  0
   -2.0144   -0.1587   -2.0287 H   0  0  0  0  0  0  0  0  0  0  0  0
   -1.8111   -0.0311   -4.4834 H   0  0  0  0  0  0  0  0  0  0  0  0
    0.0414   -1.1113   -5.7052 H   0  0  0  0  0  0  0  0  0  0  0  0
    1.7714   -2.3912   -4.4225 H   0  0  0  0  0  0  0  0  0  0  0  0
    1.6959   -1.0800   -2.2757 H   0  0  0  0  0  0  0  0  0  0  0  0
   -0.2840   -1.3695   -0.7085 H   0  0  0  0  0  0  0  0  0  0  0  0
    1.5085   -1.8152    1.9385 S   0  0  0  0  0  0  0  0  0  0  0  0
    0.1959   -1.4267    1.4715 O   0  0  0  0  0  0  0  0  0  0  0  0
    2.5185   -2.2958    1.0075 O   0  0  0  0  0  0  0  0  0  0  0  0
    2.0880   -0.5799    2.7922 O   0  0  0  0  0  0  0  0  0  0  0  0
    1.2956   -3.1160    3.2958 C   0  0  0  0  0  0  0  0  0  0  0  0
    2.4686   -3.2881    3.8916 F   0  0  0  0  0  0  0  0  0  0  0  0
    0.3923   -2.7014    4.1608 F   0  0  0  0  0  0  0  0  0  0  0  0
    0.9046   -4.2401    2.7152 F   0  0  0  0  0  0  0  0  0  0  0  0
    1.9276   -2.9839   -0.9737 H   0  0  0  0  0  0  0  0  0  0  0  0
  2  1  3  0  0  0  0
  3  4  1  0  0  0  0
  3 26  1  0  0  0  0
  6 12  1  0  0  0  0
  6 11  2  0  0  0  0
  7  6  1  0  0  0  0
  8  9  2  0  0  0  0
  8  7  1  0  0  0  0
  9 10  1  0  0  0  0
 10 16  1  1  0  0  0
 10  3  1  0  0  0  0
 10 11  1  0  0  0  0
 11 17  1  0  0  0  0
 13  7  1  0  0  0  0
 14  8  1  0  0  0  0
 15  9  1  0  0  0  0
 18 21  1  0  0  0  0
 18 22  1  0  0  0  0
 19 18  2  0  0  0  0
 20 18  2  0  0  0  0
 21  5  1  0  0  0  0
 22 23  1  0  0  0  0
 22 24  1  0  0  0  0
 25 22  1  0  0  0  0
M  RAD  1   7   2
M  END
