Coordinates from ORCA-job C6H6+HOTf+NH2--N2+-scan
 OpenBabel10191813343D

 26 24  0  0  0  0  0  0  0  0999 V2000
    1.1748   -5.2156   -1.7225 N   0  0  0  0  0  0  0  0  0  0  0  0
    1.1414   -6.1411   -2.3770 N   0  0  0  0  0  0  0  0  0  0  0  0
    1.1562   -4.2341   -1.1425 N   0  0  0  0  0  0  0  0  0  0  0  0
    0.3000   -2.7017   -1.7409 H   0  0  0  0  0  0  0  0  0  0  0  0
    4.2096   -2.2724    2.4805 H   0  0  0  0  0  0  0  0  0  0  0  0
   -0.9868   -2.1039   -3.2616 C   0  0  0  0  0  0  0  0  0  0  0  0
   -0.5962   -1.5699   -4.4646 C   0  0  0  0  0  0  0  0  0  0  0  0
    0.4387   -0.6161   -4.4884 C   0  0  0  0  0  0  0  0  0  0  0  0
    1.0928   -0.1829   -3.3231 C   0  0  0  0  0  0  0  0  0  0  0  0
    0.7179   -0.7063   -2.1079 C   0  0  0  0  0  0  0  0  0  0  0  0
   -0.2960   -1.7442   -2.0339 C   0  0  0  0  0  0  0  0  0  0  0  0
   -1.7874   -2.8343   -3.2136 H   0  0  0  0  0  0  0  0  0  0  0  0
   -1.0830   -1.8602   -5.3874 H   0  0  0  0  0  0  0  0  0  0  0  0
    0.7379   -0.1955   -5.4434 H   0  0  0  0  0  0  0  0  0  0  0  0
    1.8715    0.5668   -3.3885 H   0  0  0  0  0  0  0  0  0  0  0  0
    1.1957   -0.3990   -1.1842 H   0  0  0  0  0  0  0  0  0  0  0  0
   -0.9332   -1.6917   -1.1425 H   0  0  0  0  0  0  0  0  0  0  0  0
    2.1428   -2.1475    1.8718 S   0  0  0  0  0  0  0  0  0  0  0  0
    1.4866   -1.1921    1.0076 O   0  0  0  0  0  0  0  0  0  0  0  0
    2.2373   -3.5543    1.5043 O   0  0  0  0  0  0  0  0  0  0  0  0
    3.6092   -1.5663    2.1858 O   0  0  0  0  0  0  0  0  0  0  0  0
    1.3417   -2.0556    3.5848 C   0  0  0  0  0  0  0  0  0  0  0  0
    2.0979   -2.7398    4.4313 F   0  0  0  0  0  0  0  0  0  0  0  0
    1.2547   -0.7932    3.9536 F   0  0  0  0  0  0  0  0  0  0  0  0
    0.1391   -2.5994    3.4934 F   0  0  0  0  0  0  0  0  0  0  0  0
    1.5862   -4.2020   -0.2109 H   0  0  0  0  0  0  0  0  0  0  0  0
  1  3  2  0  0  0  0
  2  1  2  0  0  0  0
  3 26  1  0  0  0  0
  6 12  1  0  0  0  0
  6 11  1  0  0  0  0
  7  6  2  0  0  0  0
  8  7  1  0  0  0  0
  8  9  1  0  0  0  0
  9 10  2  0  0  0  0
 10 11  1  0  0  0  0
 10 16  1  0  0  0  0
 11  4  1  0  0  0  0
 11 17  1  0  0  0  0
 13  7  1  0  0  0  0
 14  8  1  0  0  0  0
 15  9  1  0  0  0  0
 18 21  1  0  0  0  0
 18 22  1  0  0  0  0
 19 18  2  0  0  0  0
 20 18  2  0  0  0  0
 21  5  1  0  0  0  0
 22 24  1  0  0  0  0
 22 23  1  0  0  0  0
 25 22  1  0  0  0  0
M  RAD  2   2   2   8   2
M  END
