Coordinates from ORCA-job C6H6+HOTf+NH2--N2+-scan
 OpenBabel10191813343D

 26 24  0  0  0  0  0  0  0  0999 V2000
    1.1994   -5.2466   -1.7508 N   0  0  0  0  0  0  0  0  0  0  0  0
    1.1788   -6.1794   -2.3850 N   0  0  0  0  0  0  0  0  0  0  0  0
    1.1557   -4.1838   -1.1732 N   0  0  0  0  0  0  0  0  0  0  0  0
    0.3224   -2.7026   -1.7563 H   0  0  0  0  0  0  0  0  0  0  0  0
    4.2027   -2.2675    2.5037 H   0  0  0  0  0  0  0  0  0  0  0  0
   -1.0006   -2.0871   -3.2386 C   0  0  0  0  0  0  0  0  0  0  0  0
   -0.6185   -1.5631   -4.4494 C   0  0  0  0  0  0  0  0  0  0  0  0
    0.4287   -0.6240   -4.4912 C   0  0  0  0  0  0  0  0  0  0  0  0
    1.1034   -0.1964   -3.3365 C   0  0  0  0  0  0  0  0  0  0  0  0
    0.7358   -0.7102   -2.1140 C   0  0  0  0  0  0  0  0  0  0  0  0
   -0.2875   -1.7341   -2.0249 C   0  0  0  0  0  0  0  0  0  0  0  0
   -1.8111   -2.8056   -3.1770 H   0  0  0  0  0  0  0  0  0  0  0  0
   -1.1226   -1.8496   -5.3641 H   0  0  0  0  0  0  0  0  0  0  0  0
    0.7208   -0.2109   -5.4516 H   0  0  0  0  0  0  0  0  0  0  0  0
    1.8915    0.5422   -3.4139 H   0  0  0  0  0  0  0  0  0  0  0  0
    1.2297   -0.4072   -1.1975 H   0  0  0  0  0  0  0  0  0  0  0  0
   -0.8968   -1.6973   -1.1146 H   0  0  0  0  0  0  0  0  0  0  0  0
    2.1412   -2.1453    1.8774 S   0  0  0  0  0  0  0  0  0  0  0  0
    1.4912   -1.1886    1.0100 O   0  0  0  0  0  0  0  0  0  0  0  0
    2.2414   -3.5509    1.5092 O   0  0  0  0  0  0  0  0  0  0  0  0
    3.6036   -1.5613    2.2066 O   0  0  0  0  0  0  0  0  0  0  0  0
    1.3250   -2.0561    3.5829 C   0  0  0  0  0  0  0  0  0  0  0  0
    2.0735   -2.7415    4.4358 F   0  0  0  0  0  0  0  0  0  0  0  0
    1.2338   -0.7944    3.9537 F   0  0  0  0  0  0  0  0  0  0  0  0
    0.1231   -2.6003    3.4804 F   0  0  0  0  0  0  0  0  0  0  0  0
    1.5852   -4.1909   -0.2409 H   0  0  0  0  0  0  0  0  0  0  0  0
  1  3  2  0  0  0  0
  2  1  2  0  0  0  0
  3 26  1  0  0  0  0
  6 12  1  0  0  0  0
  6 11  1  0  0  0  0
  7  6  2  0  0  0  0
  8  7  1  0  0  0  0
  8  9  1  0  0  0  0
  9 10  2  0  0  0  0
 10 11  1  0  0  0  0
 10 16  1  0  0  0  0
 11  4  1  0  0  0  0
 11 17  1  0  0  0  0
 13  7  1  0  0  0  0
 14  8  1  0  0  0  0
 15  9  1  0  0  0  0
 18 21  1  0  0  0  0
 18 22  1  0  0  0  0
 19 18  2  0  0  0  0
 20 18  2  0  0  0  0
 21  5  1  0  0  0  0
 22 24  1  0  0  0  0
 22 23  1  0  0  0  0
 25 22  1  0  0  0  0
M  RAD  2   2   2   8   2
M  END
