Coordinates from ORCA-job C6H6+HOTf+NH2--N2+-scan
 OpenBabel10191813343D

 26 24  0  0  0  0  0  0  0  0999 V2000
    1.3088   -4.7586   -1.8068 N   0  0  0  0  0  0  0  0  0  0  0  0
    1.2047   -5.8336   -2.0194 N   0  0  0  0  0  0  0  0  0  0  0  0
    1.6781   -3.2852   -1.7305 N   0  0  0  0  0  0  0  0  0  0  0  0
    0.7897   -2.8138   -2.0201 H   0  0  0  0  0  0  0  0  0  0  0  0
    3.8076   -1.8015    2.4961 H   0  0  0  0  0  0  0  0  0  0  0  0
   -0.9979   -1.6757   -2.6052 C   0  0  0  0  0  0  0  0  0  0  0  0
   -0.6611   -2.0270   -3.9178 C   0  0  0  0  0  0  0  0  0  0  0  0
    0.4753   -1.4803   -4.5174 C   0  0  0  0  0  0  0  0  0  0  0  0
    1.2773   -0.5857   -3.8080 C   0  0  0  0  0  0  0  0  0  0  0  0
    0.9459   -0.2340   -2.4974 C   0  0  0  0  0  0  0  0  0  0  0  0
   -0.1950   -0.7742   -1.8940 C   0  0  0  0  0  0  0  0  0  0  0  0
   -1.9015   -2.0694   -2.1520 H   0  0  0  0  0  0  0  0  0  0  0  0
   -1.2994   -2.7010   -4.4785 H   0  0  0  0  0  0  0  0  0  0  0  0
    0.7256   -1.7388   -5.5398 H   0  0  0  0  0  0  0  0  0  0  0  0
    2.1522   -0.1528   -4.2791 H   0  0  0  0  0  0  0  0  0  0  0  0
    1.5563    0.4794   -1.9554 H   0  0  0  0  0  0  0  0  0  0  0  0
   -0.4630   -0.4838   -0.8842 H   0  0  0  0  0  0  0  0  0  0  0  0
    1.7194   -2.0003    1.9672 S   0  0  0  0  0  0  0  0  0  0  0  0
    0.7308   -1.0160    1.6220 O   0  0  0  0  0  0  0  0  0  0  0  0
    2.1301   -3.0281    0.9987 O   0  0  0  0  0  0  0  0  0  0  0  0
    3.0227   -1.2271    2.4928 O   0  0  0  0  0  0  0  0  0  0  0  0
    1.1844   -2.9352    3.5272 C   0  0  0  0  0  0  0  0  0  0  0  0
    2.2300   -3.6227    3.9694 F   0  0  0  0  0  0  0  0  0  0  0  0
    0.7784   -2.0698    4.4289 F   0  0  0  0  0  0  0  0  0  0  0  0
    0.2046   -3.7551    3.1838 F   0  0  0  0  0  0  0  0  0  0  0  0
    1.8454   -3.1617   -0.7004 H   0  0  0  0  0  0  0  0  0  0  0  0
  1  3  1  0  0  0  0
  2  1  1  0  0  0  0
  3 26  1  0  0  0  0
  4  3  1  0  0  0  0
  6 12  1  0  0  0  0
  6 11  2  0  0  0  0
  7  6  1  0  0  0  0
  8  7  2  0  0  0  0
  8  9  1  0  0  0  0
  9 10  2  0  0  0  0
 10 16  1  0  0  0  0
 10 11  1  0  0  0  0
 11 17  1  0  0  0  0
 13  7  1  0  0  0  0
 14  8  1  0  0  0  0
 15  9  1  0  0  0  0
 18 21  1  0  0  0  0
 18 22  1  0  0  0  0
 19 18  2  0  0  0  0
 20 18  2  0  0  0  0
 21  5  1  0  0  0  0
 22 23  1  0  0  0  0
 22 24  1  0  0  0  0
 25 22  1  0  0  0  0
M  RAD  2   1   2   2   3
M  END
