Coordinates from ORCA-job C6H6+HOTf+NH2--N2+-scan
 OpenBabel10191813343D

 26 24  0  0  1  0  0  0  0  0999 V2000
    1.1523   -6.2347   -2.1852 N   0  0  0  0  0  0  0  0  0  0  0  0
    1.0739   -7.3261   -2.2338 N   0  0  0  0  0  0  0  0  0  0  0  0
    2.2744   -2.4895   -1.8402 N   0  0  0  0  0  0  0  0  0  0  0  0
    1.9944   -3.4630   -1.9088 H   0  0  0  0  0  0  0  0  0  0  0  0
    2.4858   -0.0149    3.1417 H   0  0  0  0  0  0  0  0  0  0  0  0
   -1.2025   -1.2539   -2.5244 C   0  0  0  0  0  0  0  0  0  0  0  0
   -1.0553   -1.0498   -3.9095 C   0  0  0  0  0  0  0  0  0  0  0  0
    0.1860   -1.1484   -4.5669 C   0  0  0  0  0  0  0  0  0  0  0  0
    1.3029   -1.4719   -3.8411 C   0  0  0  0  0  0  0  0  0  0  0  0
    1.2538   -1.6137   -2.3716 C   0  0  1  0  0  0  0  0  0  0  0  0
   -0.1024   -1.5720   -1.7686 C   0  0  0  0  0  0  0  0  0  0  0  0
   -2.1847   -1.1884   -2.0719 H   0  0  0  0  0  0  0  0  0  0  0  0
   -1.9377   -0.8151   -4.4974 H   0  0  0  0  0  0  0  0  0  0  0  0
    0.2423   -1.0039   -5.6388 H   0  0  0  0  0  0  0  0  0  0  0  0
    2.2786   -1.5911   -4.3000 H   0  0  0  0  0  0  0  0  0  0  0  0
    1.5696   -0.5568   -2.1207 H   0  0  0  0  0  0  0  0  0  0  0  0
   -0.1798   -1.7334   -0.6965 H   0  0  0  0  0  0  0  0  0  0  0  0
    1.4909   -1.5981    2.0647 S   0  0  0  0  0  0  0  0  0  0  0  0
    0.1559   -1.6499    1.5107 O   0  0  0  0  0  0  0  0  0  0  0  0
    2.6601   -1.6663    1.2015 O   0  0  0  0  0  0  0  0  0  0  0  0
    1.5636   -0.2834    2.9905 O   0  0  0  0  0  0  0  0  0  0  0  0
    1.6461   -2.9593    3.3691 C   0  0  0  0  0  0  0  0  0  0  0  0
    2.7673   -2.7564    4.0488 F   0  0  0  0  0  0  0  0  0  0  0  0
    0.6024   -2.9165    4.1724 F   0  0  0  0  0  0  0  0  0  0  0  0
    1.6972   -4.1197    2.7325 F   0  0  0  0  0  0  0  0  0  0  0  0
    2.5147   -2.2760   -0.8764 H   0  0  0  0  0  0  0  0  0  0  0  0
  2  1  3  0  0  0  0
  3 26  1  0  0  0  0
  4  3  1  0  0  0  0
  6 12  1  0  0  0  0
  6 11  2  0  0  0  0
  7  6  1  0  0  0  0
  8  7  1  0  0  0  0
  8  9  2  0  0  0  0
  9 10  1  0  0  0  0
 10 16  1  1  0  0  0
 10  3  1  0  0  0  0
 10 11  1  0  0  0  0
 11 17  1  0  0  0  0
 13  7  1  0  0  0  0
 14  8  1  0  0  0  0
 15  9  1  0  0  0  0
 18 21  1  0  0  0  0
 18 22  1  0  0  0  0
 19 18  2  0  0  0  0
 20 18  2  0  0  0  0
 21  5  1  0  0  0  0
 22 23  1  0  0  0  0
 22 24  1  0  0  0  0
 25 22  1  0  0  0  0
M  RAD  1   7   2
M  END
