Coordinates from ORCA-job C6H6+HOTf+NH2--N2+-scan
 OpenBabel10191813343D

 26 24  0  0  1  0  0  0  0  0999 V2000
    0.7684   -7.7770   -2.5978 N   0  0  0  0  0  0  0  0  0  0  0  0
    0.7147   -8.8681   -2.6802 N   0  0  0  0  0  0  0  0  0  0  0  0
    2.3718   -2.2317   -1.7945 N   0  0  0  0  0  0  0  0  0  0  0  0
    2.1678   -3.2219   -1.8768 H   0  0  0  0  0  0  0  0  0  0  0  0
    2.3523    0.1568    3.2266 H   0  0  0  0  0  0  0  0  0  0  0  0
   -1.1798   -1.2525   -2.5070 C   0  0  0  0  0  0  0  0  0  0  0  0
   -1.0336   -1.0268   -3.8890 C   0  0  0  0  0  0  0  0  0  0  0  0
    0.2186   -1.0261   -4.5333 C   0  0  0  0  0  0  0  0  0  0  0  0
    1.3488   -1.2707   -3.7976 C   0  0  0  0  0  0  0  0  0  0  0  0
    1.2948   -1.4279   -2.3296 C   0  0  1  0  0  0  0  0  0  0  0  0
   -0.0672   -1.4930   -1.7412 C   0  0  0  0  0  0  0  0  0  0  0  0
   -2.1690   -1.2649   -2.0652 H   0  0  0  0  0  0  0  0  0  0  0  0
   -1.9249   -0.8549   -4.4851 H   0  0  0  0  0  0  0  0  0  0  0  0
    0.2751   -0.8692   -5.6035 H   0  0  0  0  0  0  0  0  0  0  0  0
    2.3354   -1.3127   -4.2467 H   0  0  0  0  0  0  0  0  0  0  0  0
    1.5302   -0.3538   -2.0655 H   0  0  0  0  0  0  0  0  0  0  0  0
   -0.1438   -1.6687   -0.6712 H   0  0  0  0  0  0  0  0  0  0  0  0
    1.4813   -1.4711    2.1094 S   0  0  0  0  0  0  0  0  0  0  0  0
    0.1594   -1.6051    1.5379 O   0  0  0  0  0  0  0  0  0  0  0  0
    2.6616   -1.4429    1.2589 O   0  0  0  0  0  0  0  0  0  0  0  0
    1.4526   -0.1713    3.0580 O   0  0  0  0  0  0  0  0  0  0  0  0
    1.7167   -2.8420    3.3919 C   0  0  0  0  0  0  0  0  0  0  0  0
    2.8129   -2.5733    4.0891 F   0  0  0  0  0  0  0  0  0  0  0  0
    0.6633   -2.8865    4.1823 F   0  0  0  0  0  0  0  0  0  0  0  0
    1.8563   -3.9839    2.7357 F   0  0  0  0  0  0  0  0  0  0  0  0
    2.5857   -2.0130   -0.8254 H   0  0  0  0  0  0  0  0  0  0  0  0
  2  1  3  0  0  0  0
  3 26  1  0  0  0  0
  4  3  1  0  0  0  0
  6 12  1  0  0  0  0
  6 11  2  0  0  0  0
  7  6  1  0  0  0  0
  8  7  1  0  0  0  0
  8  9  2  0  0  0  0
  9 10  1  0  0  0  0
 10 16  1  1  0  0  0
 10  3  1  0  0  0  0
 10 11  1  0  0  0  0
 11 17  1  0  0  0  0
 13  7  1  0  0  0  0
 14  8  1  0  0  0  0
 15  9  1  0  0  0  0
 18 21  1  0  0  0  0
 18 22  1  0  0  0  0
 19 18  2  0  0  0  0
 20 18  2  0  0  0  0
 21  5  1  0  0  0  0
 22 23  1  0  0  0  0
 22 24  1  0  0  0  0
 25 22  1  0  0  0  0
M  RAD  1   7   2
M  END
