Coordinates from ORCA-job C6H6+HOTf+NH2--N2+-scan
 OpenBabel10191813343D

 26 24  0  0  1  0  0  0  0  0999 V2000
    0.7965   -7.6536   -2.5612 N   0  0  0  0  0  0  0  0  0  0  0  0
    0.7397   -8.7448   -2.6411 N   0  0  0  0  0  0  0  0  0  0  0  0
    2.3655   -2.2505   -1.7985 N   0  0  0  0  0  0  0  0  0  0  0  0
    2.1563   -3.2397   -1.8801 H   0  0  0  0  0  0  0  0  0  0  0  0
    2.3622    0.1429    3.2205 H   0  0  0  0  0  0  0  0  0  0  0  0
   -1.1817   -1.2537   -2.5087 C   0  0  0  0  0  0  0  0  0  0  0  0
   -1.0355   -1.0294   -3.8910 C   0  0  0  0  0  0  0  0  0  0  0  0
    0.2162   -1.0355   -4.5362 C   0  0  0  0  0  0  0  0  0  0  0  0
    1.3457   -1.2855   -3.8013 C   0  0  0  0  0  0  0  0  0  0  0  0
    1.2921   -1.4416   -2.3331 C   0  0  1  0  0  0  0  0  0  0  0  0
   -0.0698   -1.4994   -1.7437 C   0  0  0  0  0  0  0  0  0  0  0  0
   -2.1706   -1.2608   -2.0662 H   0  0  0  0  0  0  0  0  0  0  0  0
   -1.9264   -0.8533   -4.4865 H   0  0  0  0  0  0  0  0  0  0  0  0
    0.2726   -0.8795   -5.6065 H   0  0  0  0  0  0  0  0  0  0  0  0
    2.3318   -1.3327   -4.2511 H   0  0  0  0  0  0  0  0  0  0  0  0
    1.5331   -0.3686   -2.0699 H   0  0  0  0  0  0  0  0  0  0  0  0
   -0.1464   -1.6741   -0.6735 H   0  0  0  0  0  0  0  0  0  0  0  0
    1.4819   -1.4817    2.1057 S   0  0  0  0  0  0  0  0  0  0  0  0
    0.1588   -1.6095    1.5355 O   0  0  0  0  0  0  0  0  0  0  0  0
    2.6616   -1.4603    1.2541 O   0  0  0  0  0  0  0  0  0  0  0  0
    1.4607   -0.1808    3.0530 O   0  0  0  0  0  0  0  0  0  0  0  0
    1.7114   -2.8524    3.3894 C   0  0  0  0  0  0  0  0  0  0  0  0
    2.8096   -2.5887    4.0854 F   0  0  0  0  0  0  0  0  0  0  0  0
    0.6585   -2.8908    4.1807 F   0  0  0  0  0  0  0  0  0  0  0  0
    1.8446   -3.9957    2.7343 F   0  0  0  0  0  0  0  0  0  0  0  0
    2.5810   -2.0324   -0.8296 H   0  0  0  0  0  0  0  0  0  0  0  0
  2  1  3  0  0  0  0
  3 26  1  0  0  0  0
  4  3  1  0  0  0  0
  6 12  1  0  0  0  0
  6 11  2  0  0  0  0
  7  6  1  0  0  0  0
  8  7  1  0  0  0  0
  8  9  2  0  0  0  0
  9 10  1  0  0  0  0
 10 16  1  1  0  0  0
 10  3  1  0  0  0  0
 10 11  1  0  0  0  0
 11 17  1  0  0  0  0
 13  7  1  0  0  0  0
 14  8  1  0  0  0  0
 15  9  1  0  0  0  0
 18 21  1  0  0  0  0
 18 22  1  0  0  0  0
 19 18  2  0  0  0  0
 20 18  2  0  0  0  0
 21  5  1  0  0  0  0
 22 23  1  0  0  0  0
 22 24  1  0  0  0  0
 25 22  1  0  0  0  0
M  RAD  1   7   2
M  END
