Coordinates from ORCA-job C6H6+HOTf+NH2--N2+-scan
 OpenBabel10191813343D

 26 24  0  0  1  0  0  0  0  0999 V2000
    1.1172   -6.3331   -2.2109 N   0  0  0  0  0  0  0  0  0  0  0  0
    1.0334   -7.4240   -2.2628 N   0  0  0  0  0  0  0  0  0  0  0  0
    2.2850   -2.4678   -1.8370 N   0  0  0  0  0  0  0  0  0  0  0  0
    2.0127   -3.4433   -1.9070 H   0  0  0  0  0  0  0  0  0  0  0  0
    2.4737   -0.0025    3.1491 H   0  0  0  0  0  0  0  0  0  0  0  0
   -1.2005   -1.2585   -2.5238 C   0  0  0  0  0  0  0  0  0  0  0  0
   -1.0535   -1.0526   -3.9086 C   0  0  0  0  0  0  0  0  0  0  0  0
    0.1892   -1.1413   -4.5649 C   0  0  0  0  0  0  0  0  0  0  0  0
    1.3078   -1.4565   -3.8382 C   0  0  0  0  0  0  0  0  0  0  0  0
    1.2583   -1.5994   -2.3687 C   0  0  1  0  0  0  0  0  0  0  0  0
   -0.0988   -1.5684   -1.7670 C   0  0  0  0  0  0  0  0  0  0  0  0
   -2.1837   -1.2009   -2.0723 H   0  0  0  0  0  0  0  0  0  0  0  0
   -1.9371   -0.8246   -4.4973 H   0  0  0  0  0  0  0  0  0  0  0  0
    0.2453   -0.9958   -5.6367 H   0  0  0  0  0  0  0  0  0  0  0  0
    2.2848   -1.5679   -4.2962 H   0  0  0  0  0  0  0  0  0  0  0  0
    1.5661   -0.5404   -2.1167 H   0  0  0  0  0  0  0  0  0  0  0  0
   -0.1760   -1.7310   -0.6951 H   0  0  0  0  0  0  0  0  0  0  0  0
    1.4899   -1.5898    2.0679 S   0  0  0  0  0  0  0  0  0  0  0  0
    0.1558   -1.6491    1.5124 O   0  0  0  0  0  0  0  0  0  0  0  0
    2.6604   -1.6490    1.2058 O   0  0  0  0  0  0  0  0  0  0  0  0
    1.5534   -0.2765    2.9963 O   0  0  0  0  0  0  0  0  0  0  0  0
    1.6526   -2.9526    3.3699 C   0  0  0  0  0  0  0  0  0  0  0  0
    2.7716   -2.7438    4.0512 F   0  0  0  0  0  0  0  0  0  0  0  0
    0.6077   -2.9180    4.1722 F   0  0  0  0  0  0  0  0  0  0  0  0
    1.7117   -4.1114    2.7311 F   0  0  0  0  0  0  0  0  0  0  0  0
    2.5225   -2.2539   -0.8725 H   0  0  0  0  0  0  0  0  0  0  0  0
  2  1  3  0  0  0  0
  3 26  1  0  0  0  0
  4  3  1  0  0  0  0
  6 12  1  0  0  0  0
  6 11  2  0  0  0  0
  7  6  1  0  0  0  0
  8  7  1  0  0  0  0
  8  9  2  0  0  0  0
  9 10  1  0  0  0  0
 10 16  1  1  0  0  0
 10  3  1  0  0  0  0
 10 11  1  0  0  0  0
 11 17  1  0  0  0  0
 13  7  1  0  0  0  0
 14  8  1  0  0  0  0
 15  9  1  0  0  0  0
 18 21  1  0  0  0  0
 18 22  1  0  0  0  0
 19 18  2  0  0  0  0
 20 18  2  0  0  0  0
 21  5  1  0  0  0  0
 22 23  1  0  0  0  0
 22 24  1  0  0  0  0
 25 22  1  0  0  0  0
M  RAD  1   7   2
M  END
