Coordinates from ORCA-job C6H6+HOTf+NH2--N2+-scan
 OpenBabel10191813343D

 26 24  0  0  1  0  0  0  0  0999 V2000
    0.9638   -6.9584   -2.3594 N   0  0  0  0  0  0  0  0  0  0  0  0
    0.8898   -8.0495   -2.4225 N   0  0  0  0  0  0  0  0  0  0  0  0
    2.3263   -2.3598   -1.8207 N   0  0  0  0  0  0  0  0  0  0  0  0
    2.0863   -3.3426   -1.8978 H   0  0  0  0  0  0  0  0  0  0  0  0
    2.4218    0.0626    3.1846 H   0  0  0  0  0  0  0  0  0  0  0  0
   -1.1922   -1.2568   -2.5176 C   0  0  0  0  0  0  0  0  0  0  0  0
   -1.0460   -1.0419   -3.9013 C   0  0  0  0  0  0  0  0  0  0  0  0
    0.2017   -1.0892   -4.5526 C   0  0  0  0  0  0  0  0  0  0  0  0
    1.3266   -1.3715   -3.8222 C   0  0  0  0  0  0  0  0  0  0  0  0
    1.2755   -1.5208   -2.3534 C   0  0  1  0  0  0  0  0  0  0  0  0
   -0.0846   -1.5344   -1.7571 C   0  0  0  0  0  0  0  0  0  0  0  0
   -2.1786   -1.2317   -2.0702 H   0  0  0  0  0  0  0  0  0  0  0  0
   -1.9339   -0.8401   -4.4931 H   0  0  0  0  0  0  0  0  0  0  0  0
    0.2576   -0.9387   -5.6237 H   0  0  0  0  0  0  0  0  0  0  0  0
    2.3084   -1.4509   -4.2766 H   0  0  0  0  0  0  0  0  0  0  0  0
    1.5501   -0.4543   -2.0957 H   0  0  0  0  0  0  0  0  0  0  0  0
   -0.1612   -1.7030   -0.6861 H   0  0  0  0  0  0  0  0  0  0  0  0
    1.4859   -1.5409    2.0848 S   0  0  0  0  0  0  0  0  0  0  0  0
    0.1565   -1.6312    1.5222 O   0  0  0  0  0  0  0  0  0  0  0  0
    2.6613   -1.5613    1.2273 O   0  0  0  0  0  0  0  0  0  0  0  0
    1.5099   -0.2343    3.0242 O   0  0  0  0  0  0  0  0  0  0  0  0
    1.6795   -2.9101    3.3759 C   0  0  0  0  0  0  0  0  0  0  0  0
    2.7891   -2.6765    4.0645 F   0  0  0  0  0  0  0  0  0  0  0  0
    0.6302   -2.9109    4.1730 F   0  0  0  0  0  0  0  0  0  0  0  0
    1.7735   -4.0611    2.7274 F   0  0  0  0  0  0  0  0  0  0  0  0
    2.5524   -2.1448   -0.8536 H   0  0  0  0  0  0  0  0  0  0  0  0
  2  1  3  0  0  0  0
  3 26  1  0  0  0  0
  4  3  1  0  0  0  0
  6 12  1  0  0  0  0
  6 11  2  0  0  0  0
  7  6  1  0  0  0  0
  8  7  1  0  0  0  0
  8  9  2  0  0  0  0
  9 10  1  0  0  0  0
 10 16  1  1  0  0  0
 10  3  1  0  0  0  0
 10 11  1  0  0  0  0
 11 17  1  0  0  0  0
 13  7  1  0  0  0  0
 14  8  1  0  0  0  0
 15  9  1  0  0  0  0
 18 21  1  0  0  0  0
 18 22  1  0  0  0  0
 19 18  2  0  0  0  0
 20 18  2  0  0  0  0
 21  5  1  0  0  0  0
 22 23  1  0  0  0  0
 22 24  1  0  0  0  0
 25 22  1  0  0  0  0
M  RAD  1   7   2
M  END
