Coordinates from ORCA-job C6H6+HOTf+NH2--N2+-scan
 OpenBabel10191813343D

 26 24  0  0  1  0  0  0  0  0999 V2000
    0.6984   -8.0991   -2.6930 N   0  0  0  0  0  0  0  0  0  0  0  0
    0.6523   -9.1901   -2.7814 N   0  0  0  0  0  0  0  0  0  0  0  0
    2.3876   -2.1836   -1.7844 N   0  0  0  0  0  0  0  0  0  0  0  0
    2.1962   -3.1760   -1.8683 H   0  0  0  0  0  0  0  0  0  0  0  0
    2.3277    0.1922    3.2423 H   0  0  0  0  0  0  0  0  0  0  0  0
   -1.1748   -1.2481   -2.5024 C   0  0  0  0  0  0  0  0  0  0  0  0
   -1.0288   -1.0187   -3.8838 C   0  0  0  0  0  0  0  0  0  0  0  0
    0.2246   -1.0014   -4.5257 C   0  0  0  0  0  0  0  0  0  0  0  0
    1.3563   -1.2327   -3.7881 C   0  0  0  0  0  0  0  0  0  0  0  0
    1.3015   -1.3926   -2.3204 C   0  0  1  0  0  0  0  0  0  0  0  0
   -0.0607   -1.4756   -1.7347 C   0  0  0  0  0  0  0  0  0  0  0  0
   -2.1645   -1.2737   -2.0625 H   0  0  0  0  0  0  0  0  0  0  0  0
   -1.9211   -0.8574   -4.4814 H   0  0  0  0  0  0  0  0  0  0  0  0
    0.2811   -0.8423   -5.5955 H   0  0  0  0  0  0  0  0  0  0  0  0
    2.3443   -1.2616   -4.2354 H   0  0  0  0  0  0  0  0  0  0  0  0
    1.5230   -0.3160   -2.0543 H   0  0  0  0  0  0  0  0  0  0  0  0
   -0.1372   -1.6537   -0.6651 H   0  0  0  0  0  0  0  0  0  0  0  0
    1.4799   -1.4437    2.1190 S   0  0  0  0  0  0  0  0  0  0  0  0
    0.1610   -1.5929    1.5443 O   0  0  0  0  0  0  0  0  0  0  0  0
    2.6615   -1.3983    1.2711 O   0  0  0  0  0  0  0  0  0  0  0  0
    1.4327   -0.1468    3.0709 O   0  0  0  0  0  0  0  0  0  0  0  0
    1.7298   -2.8148    3.3986 C   0  0  0  0  0  0  0  0  0  0  0  0
    2.8211   -2.5342    4.0988 F   0  0  0  0  0  0  0  0  0  0  0  0
    0.6754   -2.8747    4.1866 F   0  0  0  0  0  0  0  0  0  0  0  0
    1.8852   -3.9532    2.7397 F   0  0  0  0  0  0  0  0  0  0  0  0
    2.5970   -1.9635   -0.8147 H   0  0  0  0  0  0  0  0  0  0  0  0
  2  1  3  0  0  0  0
  3 26  1  0  0  0  0
  4  3  1  0  0  0  0
  6 12  1  0  0  0  0
  6 11  2  0  0  0  0
  7  6  1  0  0  0  0
  8  7  1  0  0  0  0
  8  9  2  0  0  0  0
  9 10  1  0  0  0  0
 10 16  1  1  0  0  0
 10  3  1  0  0  0  0
 10 11  1  0  0  0  0
 11 17  1  0  0  0  0
 13  7  1  0  0  0  0
 14  8  1  0  0  0  0
 15  9  1  0  0  0  0
 18 21  1  0  0  0  0
 18 22  1  0  0  0  0
 19 18  2  0  0  0  0
 20 18  2  0  0  0  0
 21  5  1  0  0  0  0
 22 23  1  0  0  0  0
 22 24  1  0  0  0  0
 25 22  1  0  0  0  0
M  RAD  1   7   2
M  END
