Coordinates from ORCA-job C6H6+HOTf+NH2--N2+-scan
 OpenBabel10191813343D

 26 24  0  0  1  0  0  0  0  0999 V2000
    0.5821   -8.7389   -2.8658 N   0  0  0  0  0  0  0  0  0  0  0  0
    0.5491   -9.8297   -2.9627 N   0  0  0  0  0  0  0  0  0  0  0  0
    2.4130   -2.0936   -1.7669 N   0  0  0  0  0  0  0  0  0  0  0  0
    2.2426   -3.0895   -1.8540 H   0  0  0  0  0  0  0  0  0  0  0  0
    2.2881    0.2545    3.2713 H   0  0  0  0  0  0  0  0  0  0  0  0
   -1.1657   -1.2297   -2.4932 C   0  0  0  0  0  0  0  0  0  0  0  0
   -1.0204   -0.9933   -3.8735 C   0  0  0  0  0  0  0  0  0  0  0  0
    0.2343   -0.9482   -4.5114 C   0  0  0  0  0  0  0  0  0  0  0  0
    1.3684   -1.1582   -3.7711 C   0  0  0  0  0  0  0  0  0  0  0  0
    1.3124   -1.3236   -2.3040 C   0  0  1  0  0  0  0  0  0  0  0  0
   -0.0495   -1.4364   -1.7227 C   0  0  0  0  0  0  0  0  0  0  0  0
   -2.1561   -1.2769   -2.0564 H   0  0  0  0  0  0  0  0  0  0  0  0
   -1.9140   -0.8486   -4.4733 H   0  0  0  0  0  0  0  0  0  0  0  0
    0.2907   -0.7848   -5.5806 H   0  0  0  0  0  0  0  0  0  0  0  0
    2.3580   -1.1654   -4.2154 H   0  0  0  0  0  0  0  0  0  0  0  0
    1.5109   -0.2435   -2.0342 H   0  0  0  0  0  0  0  0  0  0  0  0
   -0.1256   -1.6192   -0.6539 H   0  0  0  0  0  0  0  0  0  0  0  0
    1.4778   -1.3923    2.1364 S   0  0  0  0  0  0  0  0  0  0  0  0
    0.1643   -1.5653    1.5561 O   0  0  0  0  0  0  0  0  0  0  0  0
    2.6612   -1.3185    1.2930 O   0  0  0  0  0  0  0  0  0  0  0  0
    1.4008   -0.1017    3.0948 O   0  0  0  0  0  0  0  0  0  0  0  0
    1.7510   -2.7649    3.4097 C   0  0  0  0  0  0  0  0  0  0  0  0
    2.8339   -2.4659    4.1152 F   0  0  0  0  0  0  0  0  0  0  0  0
    0.6953   -2.8503    4.1935 F   0  0  0  0  0  0  0  0  0  0  0  0
    1.9317   -3.8963    2.7454 F   0  0  0  0  0  0  0  0  0  0  0  0
    2.6153   -1.8719   -0.7960 H   0  0  0  0  0  0  0  0  0  0  0  0
  2  1  3  0  0  0  0
  3 26  1  0  0  0  0
  4  3  1  0  0  0  0
  6 12  1  0  0  0  0
  6 11  2  0  0  0  0
  7  6  1  0  0  0  0
  8  7  1  0  0  0  0
  8  9  2  0  0  0  0
  9 10  1  0  0  0  0
 10 16  1  1  0  0  0
 10  3  1  0  0  0  0
 10 11  1  0  0  0  0
 11 17  1  0  0  0  0
 13  7  1  0  0  0  0
 14  8  1  0  0  0  0
 15  9  1  0  0  0  0
 18 21  1  0  0  0  0
 18 22  1  0  0  0  0
 19 18  2  0  0  0  0
 20 18  2  0  0  0  0
 21  5  1  0  0  0  0
 22 23  1  0  0  0  0
 22 24  1  0  0  0  0
 25 22  1  0  0  0  0
M  RAD  1   7   2
M  END
