Coordinates from ORCA-job C6H6+HOTf+NH2--N2+-scan
 OpenBabel10191813343D

 26 24  0  0  1  0  0  0  0  0999 V2000
    1.1609   -6.2123   -2.1792 N   0  0  0  0  0  0  0  0  0  0  0  0
    1.0843   -7.3039   -2.2270 N   0  0  0  0  0  0  0  0  0  0  0  0
    2.2717   -2.4946   -1.8410 N   0  0  0  0  0  0  0  0  0  0  0  0
    1.9898   -3.4676   -1.9092 H   0  0  0  0  0  0  0  0  0  0  0  0
    2.4888   -0.0179    3.1399 H   0  0  0  0  0  0  0  0  0  0  0  0
   -1.2030   -1.2525   -2.5245 C   0  0  0  0  0  0  0  0  0  0  0  0
   -1.0557   -1.0489   -3.9097 C   0  0  0  0  0  0  0  0  0  0  0  0
    0.1852   -1.1500   -4.5674 C   0  0  0  0  0  0  0  0  0  0  0  0
    1.3016   -1.4756   -3.8418 C   0  0  0  0  0  0  0  0  0  0  0  0
    1.2527   -1.6171   -2.3722 C   0  0  1  0  0  0  0  0  0  0  0  0
   -0.1034   -1.5726   -1.7689 C   0  0  0  0  0  0  0  0  0  0  0  0
   -2.1850   -1.1851   -2.0718 H   0  0  0  0  0  0  0  0  0  0  0  0
   -1.9378   -0.8126   -4.4974 H   0  0  0  0  0  0  0  0  0  0  0  0
    0.2415   -1.0057   -5.6393 H   0  0  0  0  0  0  0  0  0  0  0  0
    2.2770   -1.5966   -4.3010 H   0  0  0  0  0  0  0  0  0  0  0  0
    1.5704   -0.5607   -2.1217 H   0  0  0  0  0  0  0  0  0  0  0  0
   -0.1807   -1.7337   -0.6968 H   0  0  0  0  0  0  0  0  0  0  0  0
    1.4911   -1.6000    2.0639 S   0  0  0  0  0  0  0  0  0  0  0  0
    0.1559   -1.6500    1.5103 O   0  0  0  0  0  0  0  0  0  0  0  0
    2.6600   -1.6706    1.2006 O   0  0  0  0  0  0  0  0  0  0  0  0
    1.5662   -0.2850    2.9891 O   0  0  0  0  0  0  0  0  0  0  0  0
    1.6445   -2.9608    3.3690 C   0  0  0  0  0  0  0  0  0  0  0  0
    2.7661   -2.7595    4.0483 F   0  0  0  0  0  0  0  0  0  0  0  0
    0.6010   -2.9159    4.1725 F   0  0  0  0  0  0  0  0  0  0  0  0
    1.6935   -4.1217    2.7329 F   0  0  0  0  0  0  0  0  0  0  0  0
    2.5128   -2.2813   -0.8773 H   0  0  0  0  0  0  0  0  0  0  0  0
  2  1  3  0  0  0  0
  3 26  1  0  0  0  0
  4  3  1  0  0  0  0
  6 12  1  0  0  0  0
  6 11  2  0  0  0  0
  7  6  1  0  0  0  0
  8  7  1  0  0  0  0
  8  9  2  0  0  0  0
  9 10  1  0  0  0  0
 10 16  1  1  0  0  0
 10  3  1  0  0  0  0
 10 11  1  0  0  0  0
 11 17  1  0  0  0  0
 13  7  1  0  0  0  0
 14  8  1  0  0  0  0
 15  9  1  0  0  0  0
 18 21  1  0  0  0  0
 18 22  1  0  0  0  0
 19 18  2  0  0  0  0
 20 18  2  0  0  0  0
 21  5  1  0  0  0  0
 22 23  1  0  0  0  0
 22 24  1  0  0  0  0
 25 22  1  0  0  0  0
M  RAD  1   7   2
M  END
