Coordinates from ORCA-job C6H6+HOTf+NH2--N2+-scan
 OpenBabel10191813343D

 26 24  0  0  1  0  0  0  0  0999 V2000
    0.7463   -7.8758   -2.6273 N   0  0  0  0  0  0  0  0  0  0  0  0
    0.6950   -8.9669   -2.7117 N   0  0  0  0  0  0  0  0  0  0  0  0
    2.3768   -2.2168   -1.7914 N   0  0  0  0  0  0  0  0  0  0  0  0
    2.1768   -3.2077   -1.8741 H   0  0  0  0  0  0  0  0  0  0  0  0
    2.3445    0.1678    3.2315 H   0  0  0  0  0  0  0  0  0  0  0  0
   -1.1782   -1.2514   -2.5056 C   0  0  0  0  0  0  0  0  0  0  0  0
   -1.0321   -1.0245   -3.8874 C   0  0  0  0  0  0  0  0  0  0  0  0
    0.2205   -1.0186   -4.5309 C   0  0  0  0  0  0  0  0  0  0  0  0
    1.3512   -1.2590   -3.7947 C   0  0  0  0  0  0  0  0  0  0  0  0
    1.2969   -1.4170   -2.3267 C   0  0  1  0  0  0  0  0  0  0  0  0
   -0.0652   -1.4878   -1.7392 C   0  0  0  0  0  0  0  0  0  0  0  0
   -2.1676   -1.2680   -2.0644 H   0  0  0  0  0  0  0  0  0  0  0  0
   -1.9237   -0.8560   -4.4840 H   0  0  0  0  0  0  0  0  0  0  0  0
    0.2770   -0.8610   -5.6010 H   0  0  0  0  0  0  0  0  0  0  0  0
    2.3383   -1.2968   -4.2432 H   0  0  0  0  0  0  0  0  0  0  0  0
    1.5280   -0.3421   -2.0620 H   0  0  0  0  0  0  0  0  0  0  0  0
   -0.1418   -1.6642   -0.6694 H   0  0  0  0  0  0  0  0  0  0  0  0
    1.4809   -1.4627    2.1124 S   0  0  0  0  0  0  0  0  0  0  0  0
    0.1599   -1.6015    1.5399 O   0  0  0  0  0  0  0  0  0  0  0  0
    2.6616   -1.4290    1.2627 O   0  0  0  0  0  0  0  0  0  0  0  0
    1.4463   -0.1637    3.0620 O   0  0  0  0  0  0  0  0  0  0  0  0
    1.7208   -2.8336    3.3940 C   0  0  0  0  0  0  0  0  0  0  0  0
    2.8155   -2.5611    4.0921 F   0  0  0  0  0  0  0  0  0  0  0  0
    0.6672   -2.8829    4.1837 F   0  0  0  0  0  0  0  0  0  0  0  0
    1.8654   -3.9744    2.7370 F   0  0  0  0  0  0  0  0  0  0  0  0
    2.5893   -1.9976   -0.8221 H   0  0  0  0  0  0  0  0  0  0  0  0
  2  1  3  0  0  0  0
  3 26  1  0  0  0  0
  4  3  1  0  0  0  0
  6 12  1  0  0  0  0
  6 11  2  0  0  0  0
  7  6  1  0  0  0  0
  8  7  1  0  0  0  0
  8  9  2  0  0  0  0
  9 10  1  0  0  0  0
 10 16  1  1  0  0  0
 10  3  1  0  0  0  0
 10 11  1  0  0  0  0
 11 17  1  0  0  0  0
 13  7  1  0  0  0  0
 14  8  1  0  0  0  0
 15  9  1  0  0  0  0
 18 21  1  0  0  0  0
 18 22  1  0  0  0  0
 19 18  2  0  0  0  0
 20 18  2  0  0  0  0
 21  5  1  0  0  0  0
 22 23  1  0  0  0  0
 22 24  1  0  0  0  0
 25 22  1  0  0  0  0
M  RAD  1   7   2
M  END
