Coordinates from ORCA-job C6H6+HOTf+NH2--N2+-scan
 OpenBabel10191813343D

 26 24  0  0  1  0  0  0  0  0999 V2000
    1.6980   -5.8237   -1.9563 N   0  0  0  0  0  0  0  0  0  0  0  0
    1.9598   -6.8869   -1.9405 N   0  0  0  0  0  0  0  0  0  0  0  0
    2.0891   -2.7055   -1.8797 N   0  0  0  0  0  0  0  0  0  0  0  0
    1.7139   -3.6440   -1.9428 H   0  0  0  0  0  0  0  0  0  0  0  0
    2.6987   -0.1798    3.0498 H   0  0  0  0  0  0  0  0  0  0  0  0
   -1.2303   -1.0723   -2.5139 C   0  0  0  0  0  0  0  0  0  0  0  0
   -1.0893   -0.9039   -3.9043 C   0  0  0  0  0  0  0  0  0  0  0  0
    0.1172   -1.1582   -4.5839 C   0  0  0  0  0  0  0  0  0  0  0  0
    1.2027   -1.6042   -3.8750 C   0  0  0  0  0  0  0  0  0  0  0  0
    1.1679   -1.7248   -2.4037 C   0  0  1  0  0  0  0  0  0  0  0  0
   -0.1608   -1.5127   -1.7755 C   0  0  0  0  0  0  0  0  0  0  0  0
   -2.1876   -0.8833   -2.0431 H   0  0  0  0  0  0  0  0  0  0  0  0
   -1.9492   -0.5712   -4.4781 H   0  0  0  0  0  0  0  0  0  0  0  0
    0.1684   -1.0329   -5.6584 H   0  0  0  0  0  0  0  0  0  0  0  0
    2.1480   -1.8421   -4.3509 H   0  0  0  0  0  0  0  0  0  0  0  0
    1.6072   -0.7062   -2.1767 H   0  0  0  0  0  0  0  0  0  0  0  0
   -0.2343   -1.6502   -0.6999 H   0  0  0  0  0  0  0  0  0  0  0  0
    1.5028   -1.6583    2.0300 S   0  0  0  0  0  0  0  0  0  0  0  0
    0.1610   -1.5634    1.4987 O   0  0  0  0  0  0  0  0  0  0  0  0
    2.6398   -1.8865    1.1517 O   0  0  0  0  0  0  0  0  0  0  0  0
    1.7484   -0.3401    2.9209 O   0  0  0  0  0  0  0  0  0  0  0  0
    1.5184   -2.9965    3.3667 C   0  0  0  0  0  0  0  0  0  0  0  0
    2.6680   -2.9133    4.0239 F   0  0  0  0  0  0  0  0  0  0  0  0
    0.5021   -2.8103    4.1846 F   0  0  0  0  0  0  0  0  0  0  0  0
    1.4192   -4.1699    2.7597 F   0  0  0  0  0  0  0  0  0  0  0  0
    2.3703   -2.5122   -0.9231 H   0  0  0  0  0  0  0  0  0  0  0  0
  1  2  3  0  0  0  0
  3 26  1  0  0  0  0
  4  3  1  0  0  0  0
  6 12  1  0  0  0  0
  6 11  2  0  0  0  0
  7  6  1  0  0  0  0
  8  7  1  0  0  0  0
  8  9  2  0  0  0  0
  9 10  1  0  0  0  0
 10 16  1  1  0  0  0
 10  3  1  0  0  0  0
 10 11  1  0  0  0  0
 11 17  1  0  0  0  0
 13  7  1  0  0  0  0
 14  8  1  0  0  0  0
 15  9  1  0  0  0  0
 18 21  1  0  0  0  0
 18 22  1  0  0  0  0
 19 18  2  0  0  0  0
 20 18  2  0  0  0  0
 21  5  1  0  0  0  0
 22 23  1  0  0  0  0
 22 24  1  0  0  0  0
 25 22  1  0  0  0  0
M  RAD  1   7   2
M  END
