Coordinates from ORCA-job C6H6+HOTf+NH2--N2+-scan
 OpenBabel10191813343D

 26 24  0  0  1  0  0  0  0  0999 V2000
    0.9968   -6.8002   -2.3217 N   0  0  0  0  0  0  0  0  0  0  0  0
    0.9178   -7.8911   -2.3821 N   0  0  0  0  0  0  0  0  0  0  0  0
    2.3181   -2.3843   -1.8247 N   0  0  0  0  0  0  0  0  0  0  0  0
    2.0715   -3.3657   -1.9003 H   0  0  0  0  0  0  0  0  0  0  0  0
    2.4332    0.0467    3.1767 H   0  0  0  0  0  0  0  0  0  0  0  0
   -1.1940   -1.2596   -2.5194 C   0  0  0  0  0  0  0  0  0  0  0  0
   -1.0477   -1.0469   -3.9034 C   0  0  0  0  0  0  0  0  0  0  0  0
    0.1990   -1.1028   -4.5558 C   0  0  0  0  0  0  0  0  0  0  0  0
    1.3227   -1.3917   -3.8262 C   0  0  0  0  0  0  0  0  0  0  0  0
    1.2721   -1.5393   -2.3572 C   0  0  1  0  0  0  0  0  0  0  0  0
   -0.0874   -1.5437   -1.7597 C   0  0  0  0  0  0  0  0  0  0  0  0
   -2.1797   -1.2277   -2.0710 H   0  0  0  0  0  0  0  0  0  0  0  0
   -1.9348   -0.8398   -4.4945 H   0  0  0  0  0  0  0  0  0  0  0  0
    0.2549   -0.9535   -5.6271 H   0  0  0  0  0  0  0  0  0  0  0  0
    2.3037   -1.4778   -4.2814 H   0  0  0  0  0  0  0  0  0  0  0  0
    1.5535   -0.4743   -2.1009 H   0  0  0  0  0  0  0  0  0  0  0  0
   -0.1641   -1.7109   -0.6884 H   0  0  0  0  0  0  0  0  0  0  0  0
    1.4867   -1.5532    2.0807 S   0  0  0  0  0  0  0  0  0  0  0  0
    0.1562   -1.6366    1.5197 O   0  0  0  0  0  0  0  0  0  0  0  0
    2.6611   -1.5820    1.2222 O   0  0  0  0  0  0  0  0  0  0  0  0
    1.5194   -0.2452    3.0179 O   0  0  0  0  0  0  0  0  0  0  0  0
    1.6735   -2.9213    3.3741 C   0  0  0  0  0  0  0  0  0  0  0  0
    2.7853   -2.6932    4.0611 F   0  0  0  0  0  0  0  0  0  0  0  0
    0.6251   -2.9144    4.1723 F   0  0  0  0  0  0  0  0  0  0  0  0
    1.7599   -4.0740    2.7275 F   0  0  0  0  0  0  0  0  0  0  0  0
    2.5465   -2.1695   -0.8581 H   0  0  0  0  0  0  0  0  0  0  0  0
  2  1  3  0  0  0  0
  3 26  1  0  0  0  0
  4  3  1  0  0  0  0
  6 12  1  0  0  0  0
  6 11  2  0  0  0  0
  7  6  1  0  0  0  0
  8  7  1  0  0  0  0
  8  9  2  0  0  0  0
  9 10  1  0  0  0  0
 10 16  1  1  0  0  0
 10  3  1  0  0  0  0
 10 11  1  0  0  0  0
 11 17  1  0  0  0  0
 13  7  1  0  0  0  0
 14  8  1  0  0  0  0
 15  9  1  0  0  0  0
 18 21  1  0  0  0  0
 18 22  1  0  0  0  0
 19 18  2  0  0  0  0
 20 18  2  0  0  0  0
 21  5  1  0  0  0  0
 22 23  1  0  0  0  0
 22 24  1  0  0  0  0
 25 22  1  0  0  0  0
M  RAD  1   7   2
M  END
