Coordinates from ORCA-job C6H6+HOTf+NH2--N2+-scan
 OpenBabel10191813343D

 26 24  0  0  1  0  0  0  0  0999 V2000
    2.6808   -5.5484   -1.1866 N   0  0  0  0  0  0  0  0  0  0  0  0
    3.6392   -6.0788   -1.1792 N   0  0  0  0  0  0  0  0  0  0  0  0
    1.6768   -3.0166   -1.9663 N   0  0  0  0  0  0  0  0  0  0  0  0
    1.1012   -3.8488   -2.0002 H   0  0  0  0  0  0  0  0  0  0  0  0
    3.0804   -0.6343    2.8594 H   0  0  0  0  0  0  0  0  0  0  0  0
   -1.2248   -0.7011   -2.5144 C   0  0  0  0  0  0  0  0  0  0  0  0
   -1.1032   -0.5840   -3.9119 C   0  0  0  0  0  0  0  0  0  0  0  0
   -0.0065   -1.1018   -4.6279 C   0  0  0  0  0  0  0  0  0  0  0  0
    0.9824   -1.7645   -3.9487 C   0  0  0  0  0  0  0  0  0  0  0  0
    0.9782   -1.8563   -2.4746 C   0  0  1  0  0  0  0  0  0  0  0  0
   -0.2475   -1.3522   -1.8047 C   0  0  0  0  0  0  0  0  0  0  0  0
   -2.1002   -0.3037   -2.0149 H   0  0  0  0  0  0  0  0  0  0  0  0
   -1.8924   -0.0807   -4.4625 H   0  0  0  0  0  0  0  0  0  0  0  0
    0.0291   -1.0037   -5.7059 H   0  0  0  0  0  0  0  0  0  0  0  0
    1.8334   -2.2098   -4.4530 H   0  0  0  0  0  0  0  0  0  0  0  0
    1.6446   -0.9640   -2.2765 H   0  0  0  0  0  0  0  0  0  0  0  0
   -0.3061   -1.4567   -0.7244 H   0  0  0  0  0  0  0  0  0  0  0  0
    1.5331   -1.8168    1.9293 S   0  0  0  0  0  0  0  0  0  0  0  0
    0.2287   -1.4246    1.4427 O   0  0  0  0  0  0  0  0  0  0  0  0
    2.5477   -2.3243    1.0183 O   0  0  0  0  0  0  0  0  0  0  0  0
    2.1148   -0.5702    2.7654 O   0  0  0  0  0  0  0  0  0  0  0  0
    1.2955   -3.0889    3.3093 C   0  0  0  0  0  0  0  0  0  0  0  0
    2.4604   -3.2575    3.9218 F   0  0  0  0  0  0  0  0  0  0  0  0
    0.3856   -2.6508    4.1558 F   0  0  0  0  0  0  0  0  0  0  0  0
    0.9027   -4.2217    2.7470 F   0  0  0  0  0  0  0  0  0  0  0  0
    2.0158   -2.8922   -1.0169 H   0  0  0  0  0  0  0  0  0  0  0  0
  1  2  3  0  0  0  0
  3 26  1  0  0  0  0
  4  3  1  0  0  0  0
  6 12  1  0  0  0  0
  6 11  2  0  0  0  0
  7  6  1  0  0  0  0
  8  9  2  0  0  0  0
  8  7  1  0  0  0  0
  9 10  1  0  0  0  0
 10 16  1  1  0  0  0
 10  3  1  0  0  0  0
 10 11  1  0  0  0  0
 11 17  1  0  0  0  0
 13  7  1  0  0  0  0
 14  8  1  0  0  0  0
 15  9  1  0  0  0  0
 18 21  1  0  0  0  0
 18 22  1  0  0  0  0
 19 18  2  0  0  0  0
 20 18  2  0  0  0  0
 21  5  1  0  0  0  0
 22 23  1  0  0  0  0
 22 24  1  0  0  0  0
 25 22  1  0  0  0  0
M  RAD  1   7   2
M  END
