Coordinates from ORCA-job C6H6+HOTf+NH2--N2+-scan
 OpenBabel10191813343D

 26 24  0  0  0  0  0  0  0  0999 V2000
    2.3996   -4.6871   -1.6343 N   0  0  0  0  0  0  0  0  0  0  0  0
    3.2674   -5.3007   -1.9349 N   0  0  0  0  0  0  0  0  0  0  0  0
    1.7388   -3.1433   -1.9065 N   0  0  0  0  0  0  0  0  0  0  0  0
    0.7790   -3.4686   -2.0714 H   0  0  0  0  0  0  0  0  0  0  0  0
    3.5375   -1.5614    2.7726 H   0  0  0  0  0  0  0  0  0  0  0  0
   -1.0987   -1.1156   -2.4054 C   0  0  0  0  0  0  0  0  0  0  0  0
   -1.1764   -1.3872   -3.7740 C   0  0  0  0  0  0  0  0  0  0  0  0
   -0.0143   -1.5308   -4.5541 C   0  0  0  0  0  0  0  0  0  0  0  0
    1.2262   -1.4033   -3.9665 C   0  0  0  0  0  0  0  0  0  0  0  0
    1.3296   -1.1572   -2.5657 C   0  0  0  0  0  0  0  0  0  0  0  0
    0.1439   -0.9734   -1.8011 C   0  0  0  0  0  0  0  0  0  0  0  0
   -2.0036   -0.9872   -1.8241 H   0  0  0  0  0  0  0  0  0  0  0  0
   -2.1483   -1.4799   -4.2459 H   0  0  0  0  0  0  0  0  0  0  0  0
   -0.0998   -1.7241   -5.6166 H   0  0  0  0  0  0  0  0  0  0  0  0
    2.1311   -1.4986   -4.5547 H   0  0  0  0  0  0  0  0  0  0  0  0
    2.2789   -0.8231   -2.1635 H   0  0  0  0  0  0  0  0  0  0  0  0
    0.2145   -0.7121   -0.7509 H   0  0  0  0  0  0  0  0  0  0  0  0
    1.5348   -1.8173    1.9996 S   0  0  0  0  0  0  0  0  0  0  0  0
    0.5270   -0.8457    1.6602 O   0  0  0  0  0  0  0  0  0  0  0  0
    2.1106   -2.6883    0.9740 O   0  0  0  0  0  0  0  0  0  0  0  0
    2.7144   -1.0438    2.7686 O   0  0  0  0  0  0  0  0  0  0  0  0
    0.8784   -2.9415    3.3748 C   0  0  0  0  0  0  0  0  0  0  0  0
    1.8972   -3.6475    3.8505 F   0  0  0  0  0  0  0  0  0  0  0  0
    0.3414   -2.2026    4.3213 F   0  0  0  0  0  0  0  0  0  0  0  0
   -0.0255   -3.7449    2.8356 F   0  0  0  0  0  0  0  0  0  0  0  0
    1.7659   -2.8670   -0.9074 H   0  0  0  0  0  0  0  0  0  0  0  0
  2  1  2  0  0  0  0
  3  1  1  0  0  0  0
  3 26  1  0  0  0  0
  4  3  1  0  0  0  0
  6 12  1  0  0  0  0
  6 11  1  0  0  0  0
  7  6  2  0  0  0  0
  8  9  2  0  0  0  0
  8  7  1  0  0  0  0
  9 10  1  0  0  0  0
 10 16  1  0  0  0  0
 10 11  2  0  0  0  0
 11 17  1  0  0  0  0
 13  7  1  0  0  0  0
 14  8  1  0  0  0  0
 15  9  1  0  0  0  0
 18 21  1  0  0  0  0
 18 22  1  0  0  0  0
 19 18  2  0  0  0  0
 20 18  2  0  0  0  0
 21  5  1  0  0  0  0
 22 23  1  0  0  0  0
 22 24  1  0  0  0  0
 25 22  1  0  0  0  0
M  RAD  1   2   2
M  END
