Coordinates from ORCA-job C6H6+HOTf+NH2--N2+-scan
 OpenBabel10191813343D

 26 24  0  0  1  0  0  0  0  0999 V2000
    0.6649   -8.2656   -2.7407 N   0  0  0  0  0  0  0  0  0  0  0  0
    0.6224   -9.3566   -2.8317 N   0  0  0  0  0  0  0  0  0  0  0  0
    2.3950   -2.1593   -1.7794 N   0  0  0  0  0  0  0  0  0  0  0  0
    2.2097   -3.1529   -1.8641 H   0  0  0  0  0  0  0  0  0  0  0  0
    2.3162    0.2096    3.2502 H   0  0  0  0  0  0  0  0  0  0  0  0
   -1.1722   -1.2448   -2.5000 C   0  0  0  0  0  0  0  0  0  0  0  0
   -1.0264   -1.0136   -3.8811 C   0  0  0  0  0  0  0  0  0  0  0  0
    0.2274   -0.9882   -4.5218 C   0  0  0  0  0  0  0  0  0  0  0  0
    1.3599   -1.2132   -3.7834 C   0  0  0  0  0  0  0  0  0  0  0  0
    1.3047   -1.3745   -2.3158 C   0  0  1  0  0  0  0  0  0  0  0  0
   -0.0575   -1.4661   -1.7314 C   0  0  0  0  0  0  0  0  0  0  0  0
   -2.1622   -1.2766   -2.0610 H   0  0  0  0  0  0  0  0  0  0  0  0
   -1.9191   -0.8572   -4.4794 H   0  0  0  0  0  0  0  0  0  0  0  0
    0.2839   -0.8280   -5.5915 H   0  0  0  0  0  0  0  0  0  0  0  0
    2.3484   -1.2358   -4.2298 H   0  0  0  0  0  0  0  0  0  0  0  0
    1.5195   -0.2968   -2.0488 H   0  0  0  0  0  0  0  0  0  0  0  0
   -0.1339   -1.6454   -0.6620 H   0  0  0  0  0  0  0  0  0  0  0  0
    1.4792   -1.4298    2.1238 S   0  0  0  0  0  0  0  0  0  0  0  0
    0.1618   -1.5861    1.5475 O   0  0  0  0  0  0  0  0  0  0  0  0
    2.6614   -1.3763    1.2772 O   0  0  0  0  0  0  0  0  0  0  0  0
    1.4233   -0.1345    3.0774 O   0  0  0  0  0  0  0  0  0  0  0  0
    1.7360   -2.8011    3.4018 C   0  0  0  0  0  0  0  0  0  0  0  0
    2.8249   -2.5149    4.1035 F   0  0  0  0  0  0  0  0  0  0  0  0
    0.6812   -2.8683    4.1886 F   0  0  0  0  0  0  0  0  0  0  0  0
    1.8988   -3.9377    2.7416 F   0  0  0  0  0  0  0  0  0  0  0  0
    2.6024   -1.9386   -0.8094 H   0  0  0  0  0  0  0  0  0  0  0  0
  2  1  3  0  0  0  0
  3 26  1  0  0  0  0
  4  3  1  0  0  0  0
  6 12  1  0  0  0  0
  6 11  2  0  0  0  0
  7  6  1  0  0  0  0
  8  7  1  0  0  0  0
  8  9  2  0  0  0  0
  9 10  1  0  0  0  0
 10 16  1  1  0  0  0
 10  3  1  0  0  0  0
 10 11  1  0  0  0  0
 11 17  1  0  0  0  0
 13  7  1  0  0  0  0
 14  8  1  0  0  0  0
 15  9  1  0  0  0  0
 18 21  1  0  0  0  0
 18 22  1  0  0  0  0
 19 18  2  0  0  0  0
 20 18  2  0  0  0  0
 21  5  1  0  0  0  0
 22 23  1  0  0  0  0
 22 24  1  0  0  0  0
 25 22  1  0  0  0  0
M  RAD  1   7   2
M  END
