Coordinates from ORCA-job C6H6+HOTf+NH2--N2+-scan
 OpenBabel10191813343D

 26 24  0  0  0  0  0  0  0  0999 V2000
    1.0680   -4.4385   -1.7982 N   0  0  0  0  0  0  0  0  0  0  0  0
    0.8465   -5.4614   -2.1637 N   0  0  0  0  0  0  0  0  0  0  0  0
    1.4397   -3.2001   -1.4445 N   0  0  0  0  0  0  0  0  0  0  0  0
    0.7447   -2.4935   -1.7819 H   0  0  0  0  0  0  0  0  0  0  0  0
    4.0502   -2.1287    2.6191 H   0  0  0  0  0  0  0  0  0  0  0  0
   -1.0883   -1.7877   -2.9420 C   0  0  0  0  0  0  0  0  0  0  0  0
   -0.5378   -2.1583   -4.1723 C   0  0  0  0  0  0  0  0  0  0  0  0
    0.6258   -1.5372   -4.6311 C   0  0  0  0  0  0  0  0  0  0  0  0
    1.2417   -0.5464   -3.8647 C   0  0  0  0  0  0  0  0  0  0  0  0
    0.6974   -0.1747   -2.6349 C   0  0  0  0  0  0  0  0  0  0  0  0
   -0.4677   -0.7966   -2.1684 C   0  0  0  0  0  0  0  0  0  0  0  0
   -2.0128   -2.2407   -2.5999 H   0  0  0  0  0  0  0  0  0  0  0  0
   -1.0317   -2.9049   -4.7842 H   0  0  0  0  0  0  0  0  0  0  0  0
    1.0416   -1.8125   -5.5936 H   0  0  0  0  0  0  0  0  0  0  0  0
    2.1355   -0.0555   -4.2315 H   0  0  0  0  0  0  0  0  0  0  0  0
    1.1629    0.6080   -2.0468 H   0  0  0  0  0  0  0  0  0  0  0  0
   -0.9101   -0.4833   -1.2288 H   0  0  0  0  0  0  0  0  0  0  0  0
    1.9360   -2.0476    2.1710 S   0  0  0  0  0  0  0  0  0  0  0  0
    1.0675   -0.9421    1.8771 O   0  0  0  0  0  0  0  0  0  0  0  0
    2.1843   -3.0950    1.1654 O   0  0  0  0  0  0  0  0  0  0  0  0
    3.3439   -1.4613    2.6635 O   0  0  0  0  0  0  0  0  0  0  0  0
    1.3407   -2.9528    3.7276 C   0  0  0  0  0  0  0  0  0  0  0  0
    2.3059   -3.7768    4.1139 F   0  0  0  0  0  0  0  0  0  0  0  0
    1.0781   -2.0678    4.6627 F   0  0  0  0  0  0  0  0  0  0  0  0
    0.2546   -3.6329    3.4008 F   0  0  0  0  0  0  0  0  0  0  0  0
    1.7329   -3.1640   -0.4342 H   0  0  0  0  0  0  0  0  0  0  0  0
  1  3  1  0  0  0  0
  2  1  1  0  0  0  0
  3 26  1  0  0  0  0
  4  3  1  0  0  0  0
  5 21  1  0  0  0  0
  6 12  1  0  0  0  0
  6 11  2  0  0  0  0
  7  6  1  0  0  0  0
  8  7  2  0  0  0  0
  8  9  1  0  0  0  0
  9 10  2  0  0  0  0
 10 11  1  0  0  0  0
 10 16  1  0  0  0  0
 11 17  1  0  0  0  0
 13  7  1  0  0  0  0
 14  8  1  0  0  0  0
 15  9  1  0  0  0  0
 18 21  1  0  0  0  0
 18 22  1  0  0  0  0
 19 18  2  0  0  0  0
 20 18  2  0  0  0  0
 22 23  1  0  0  0  0
 22 24  1  0  0  0  0
 25 22  1  0  0  0  0
M  RAD  2   1   2   2   3
M  END
