Coordinates from ORCA-job C6H6+HOTf+NH2--N2+-scan
 OpenBabel10191813343D

 26 24  0  0  1  0  0  0  0  0999 V2000
    2.6878   -5.0865   -1.4661 N   0  0  0  0  0  0  0  0  0  0  0  0
    3.5950   -5.4342   -1.9756 N   0  0  0  0  0  0  0  0  0  0  0  0
    1.5584   -3.1786   -1.8616 N   0  0  0  0  0  0  0  0  0  0  0  0
    0.8200   -3.8728   -1.8080 H   0  0  0  0  0  0  0  0  0  0  0  0
    3.0995   -0.6733    2.8872 H   0  0  0  0  0  0  0  0  0  0  0  0
   -1.1486   -0.6886   -2.5169 C   0  0  0  0  0  0  0  0  0  0  0  0
   -1.0227   -0.6511   -3.9180 C   0  0  0  0  0  0  0  0  0  0  0  0
    0.0589   -1.2417   -4.6048 C   0  0  0  0  0  0  0  0  0  0  0  0
    1.0179   -1.9062   -3.8902 C   0  0  0  0  0  0  0  0  0  0  0  0
    1.0093   -1.9244   -2.4119 C   0  0  1  0  0  0  0  0  0  0  0  0
   -0.1822   -1.3165   -1.7722 C   0  0  0  0  0  0  0  0  0  0  0  0
   -2.0103   -0.2364   -2.0409 H   0  0  0  0  0  0  0  0  0  0  0  0
   -1.7966   -0.1558   -4.4970 H   0  0  0  0  0  0  0  0  0  0  0  0
    0.0967   -1.2011   -5.6864 H   0  0  0  0  0  0  0  0  0  0  0  0
    1.8423   -2.4203   -4.3730 H   0  0  0  0  0  0  0  0  0  0  0  0
    1.7844   -1.1386   -2.2048 H   0  0  0  0  0  0  0  0  0  0  0  0
   -0.2395   -1.3451   -0.6869 H   0  0  0  0  0  0  0  0  0  0  0  0
    1.5020   -1.8018    1.9747 S   0  0  0  0  0  0  0  0  0  0  0  0
    0.2030   -1.3691    1.5092 O   0  0  0  0  0  0  0  0  0  0  0  0
    2.4862   -2.3334    1.0432 O   0  0  0  0  0  0  0  0  0  0  0  0
    2.1350   -0.5790    2.8077 O   0  0  0  0  0  0  0  0  0  0  0  0
    1.2490   -3.0770    3.3498 C   0  0  0  0  0  0  0  0  0  0  0  0
    2.4185   -3.2859    3.9403 F   0  0  0  0  0  0  0  0  0  0  0  0
    0.3678   -2.6173    4.2147 F   0  0  0  0  0  0  0  0  0  0  0  0
    0.8117   -4.1921    2.7854 F   0  0  0  0  0  0  0  0  0  0  0  0
    1.9059   -3.0254   -0.9176 H   0  0  0  0  0  0  0  0  0  0  0  0
  2  1  3  0  0  0  0
  3  4  1  0  0  0  0
  3 26  1  0  0  0  0
  6 12  1  0  0  0  0
  6 11  2  0  0  0  0
  7  6  1  0  0  0  0
  8  7  1  0  0  0  0
  8  9  2  0  0  0  0
  9 10  1  0  0  0  0
 10 16  1  1  0  0  0
 10  3  1  0  0  0  0
 10 11  1  0  0  0  0
 11 17  1  0  0  0  0
 13  7  1  0  0  0  0
 14  8  1  0  0  0  0
 15  9  1  0  0  0  0
 18 21  1  0  0  0  0
 18 22  1  0  0  0  0
 19 18  2  0  0  0  0
 20 18  2  0  0  0  0
 21  5  1  0  0  0  0
 22 23  1  0  0  0  0
 22 24  1  0  0  0  0
 25 22  1  0  0  0  0
M  RAD  1   7   2
M  END
