Coordinates from ORCA-job C6H6+HOTf+NH2--N2+-scan
 OpenBabel10191813343D

 26 24  0  0  1  0  0  0  0  0999 V2000
    1.3046   -5.9332   -2.0817 N   0  0  0  0  0  0  0  0  0  0  0  0
    1.2817   -7.0280   -2.1049 N   0  0  0  0  0  0  0  0  0  0  0  0
    2.2254   -2.5702   -1.8554 N   0  0  0  0  0  0  0  0  0  0  0  0
    1.9155   -3.5346   -1.9209 H   0  0  0  0  0  0  0  0  0  0  0  0
    2.5401   -0.0666    3.1120 H   0  0  0  0  0  0  0  0  0  0  0  0
   -1.2111   -1.2188   -2.5257 C   0  0  0  0  0  0  0  0  0  0  0  0
   -1.0641   -1.0224   -3.9118 C   0  0  0  0  0  0  0  0  0  0  0  0
    0.1697   -1.1649   -4.5750 C   0  0  0  0  0  0  0  0  0  0  0  0
    1.2785   -1.5252   -3.8540 C   0  0  0  0  0  0  0  0  0  0  0  0
    1.2322   -1.6634   -2.3842 C   0  0  1  0  0  0  0  0  0  0  0  0
   -0.1189   -1.5737   -1.7748 C   0  0  0  0  0  0  0  0  0  0  0  0
   -2.1882   -1.1184   -2.0683 H   0  0  0  0  0  0  0  0  0  0  0  0
   -1.9407   -0.7581   -4.4957 H   0  0  0  0  0  0  0  0  0  0  0  0
    0.2257   -1.0239   -5.6474 H   0  0  0  0  0  0  0  0  0  0  0  0
    2.2474   -1.6777   -4.3174 H   0  0  0  0  0  0  0  0  0  0  0  0
    1.5827   -0.6158   -2.1386 H   0  0  0  0  0  0  0  0  0  0  0  0
   -0.1961   -1.7302   -0.7021 H   0  0  0  0  0  0  0  0  0  0  0  0
    1.4950   -1.6282    2.0513 S   0  0  0  0  0  0  0  0  0  0  0  0
    0.1566   -1.6451    1.5033 O   0  0  0  0  0  0  0  0  0  0  0  0
    2.6582   -1.7370    1.1845 O   0  0  0  0  0  0  0  0  0  0  0  0
    1.6098   -0.3095    2.9673 O   0  0  0  0  0  0  0  0  0  0  0  0
    1.6154   -2.9836    3.3653 C   0  0  0  0  0  0  0  0  0  0  0  0
    2.7450   -2.8094    4.0389 F   0  0  0  0  0  0  0  0  0  0  0  0
    0.5770   -2.9041    4.1726 F   0  0  0  0  0  0  0  0  0  0  0  0
    1.6292   -4.1499    2.7372 F   0  0  0  0  0  0  0  0  0  0  0  0
    2.4788   -2.3606   -0.8942 H   0  0  0  0  0  0  0  0  0  0  0  0
  2  1  3  0  0  0  0
  3 26  1  0  0  0  0
  4  3  1  0  0  0  0
  6 12  1  0  0  0  0
  6 11  2  0  0  0  0
  7  6  1  0  0  0  0
  8  7  1  0  0  0  0
  8  9  2  0  0  0  0
  9 10  1  0  0  0  0
 10 16  1  1  0  0  0
 10  3  1  0  0  0  0
 10 11  1  0  0  0  0
 11 17  1  0  0  0  0
 13  7  1  0  0  0  0
 14  8  1  0  0  0  0
 15  9  1  0  0  0  0
 18 21  1  0  0  0  0
 18 22  1  0  0  0  0
 19 18  2  0  0  0  0
 20 18  2  0  0  0  0
 21  5  1  0  0  0  0
 22 23  1  0  0  0  0
 22 24  1  0  0  0  0
 25 22  1  0  0  0  0
M  RAD  1   7   2
M  END
