Coordinates from ORCA-job C6H6+HOTf+NH2--N2+-scan
 OpenBabel10191813343D

 26 24  0  0  0  0  0  0  0  0999 V2000
    1.3542   -5.2450   -1.8386 N   0  0  0  0  0  0  0  0  0  0  0  0
    1.3529   -6.1527   -2.5062 N   0  0  0  0  0  0  0  0  0  0  0  0
    1.3018   -4.1805   -1.2238 N   0  0  0  0  0  0  0  0  0  0  0  0
    0.4543   -2.6901   -1.7480 H   0  0  0  0  0  0  0  0  0  0  0  0
    4.0972   -2.2139    2.5670 H   0  0  0  0  0  0  0  0  0  0  0  0
   -1.0160   -1.9992   -3.0452 C   0  0  0  0  0  0  0  0  0  0  0  0
   -0.7719   -1.5140   -4.3072 C   0  0  0  0  0  0  0  0  0  0  0  0
    0.3189   -0.6491   -4.5109 C   0  0  0  0  0  0  0  0  0  0  0  0
    1.1740   -0.2573   -3.4684 C   0  0  0  0  0  0  0  0  0  0  0  0
    0.9459   -0.7340   -2.1979 C   0  0  0  0  0  0  0  0  0  0  0  0
   -0.1202   -1.6836   -1.9489 C   0  0  0  0  0  0  0  0  0  0  0  0
   -1.8547   -2.6616   -2.8591 H   0  0  0  0  0  0  0  0  0  0  0  0
   -1.4158   -1.7746   -5.1381 H   0  0  0  0  0  0  0  0  0  0  0  0
    0.5016   -0.2661   -5.5101 H   0  0  0  0  0  0  0  0  0  0  0  0
    1.9904    0.4259   -3.6675 H   0  0  0  0  0  0  0  0  0  0  0  0
    1.5759   -0.4518   -1.3621 H   0  0  0  0  0  0  0  0  0  0  0  0
   -0.5850   -1.5979   -0.9602 H   0  0  0  0  0  0  0  0  0  0  0  0
    2.0546   -2.1891    1.8702 S   0  0  0  0  0  0  0  0  0  0  0  0
    1.4020   -1.2828    0.9508 O   0  0  0  0  0  0  0  0  0  0  0  0
    2.2163   -3.5999    1.5498 O   0  0  0  0  0  0  0  0  0  0  0  0
    3.4831   -1.5403    2.2278 O   0  0  0  0  0  0  0  0  0  0  0  0
    1.1770   -2.0739    3.5434 C   0  0  0  0  0  0  0  0  0  0  0  0
    1.9167   -2.7065    4.4430 F   0  0  0  0  0  0  0  0  0  0  0  0
    1.0320   -0.8047    3.8695 F   0  0  0  0  0  0  0  0  0  0  0  0
   -0.0025   -2.6606    3.4177 F   0  0  0  0  0  0  0  0  0  0  0  0
    1.6669   -4.2485   -0.2672 H   0  0  0  0  0  0  0  0  0  0  0  0
  1  3  2  0  0  0  0
  2  1  2  0  0  0  0
  3 26  1  0  0  0  0
  6 12  1  0  0  0  0
  6 11  1  0  0  0  0
  7  6  2  0  0  0  0
  8  7  1  0  0  0  0
  8  9  1  0  0  0  0
  9 10  2  0  0  0  0
 10 11  1  0  0  0  0
 10 16  1  0  0  0  0
 11  4  1  0  0  0  0
 11 17  1  0  0  0  0
 13  7  1  0  0  0  0
 14  8  1  0  0  0  0
 15  9  1  0  0  0  0
 18 21  1  0  0  0  0
 18 22  1  0  0  0  0
 19 18  2  0  0  0  0
 20 18  2  0  0  0  0
 21  5  1  0  0  0  0
 22 24  1  0  0  0  0
 22 23  1  0  0  0  0
 25 22  1  0  0  0  0
M  RAD  2   2   2   8   2
M  END
