Coordinates from ORCA-job C6H6+HOTf+NH2--N2+-scan
 OpenBabel10191813343D

 26 24  0  0  1  0  0  0  0  0999 V2000
    2.0593   -5.8630   -1.7824 N   0  0  0  0  0  0  0  0  0  0  0  0
    2.6567   -6.7798   -1.7366 N   0  0  0  0  0  0  0  0  0  0  0  0
    1.9483   -2.8141   -1.9048 N   0  0  0  0  0  0  0  0  0  0  0  0
    1.4996   -3.7206   -1.9526 H   0  0  0  0  0  0  0  0  0  0  0  0
    2.8433   -0.3116    2.9922 H   0  0  0  0  0  0  0  0  0  0  0  0
   -1.2365   -0.9205   -2.5034 C   0  0  0  0  0  0  0  0  0  0  0  0
   -1.1069   -0.7805   -3.8981 C   0  0  0  0  0  0  0  0  0  0  0  0
    0.0628   -1.1403   -4.5943 C   0  0  0  0  0  0  0  0  0  0  0  0
    1.1206   -1.6652   -3.8980 C   0  0  0  0  0  0  0  0  0  0  0  0
    1.1021   -1.7651   -2.4248 C   0  0  1  0  0  0  0  0  0  0  0  0
   -0.1933   -1.4377   -1.7772 C   0  0  0  0  0  0  0  0  0  0  0  0
   -2.1667   -0.6486   -2.0192 H   0  0  0  0  0  0  0  0  0  0  0  0
   -1.9470   -0.3859   -4.4618 H   0  0  0  0  0  0  0  0  0  0  0  0
    0.1049   -1.0324   -5.6712 H   0  0  0  0  0  0  0  0  0  0  0  0
    2.0345   -1.9857   -4.3867 H   0  0  0  0  0  0  0  0  0  0  0  0
    1.6289   -0.7848   -2.2170 H   0  0  0  0  0  0  0  0  0  0  0  0
   -0.2589   -1.5561   -0.6988 H   0  0  0  0  0  0  0  0  0  0  0  0
    1.5065   -1.6873    2.0037 S   0  0  0  0  0  0  0  0  0  0  0  0
    0.1696   -1.4796    1.4927 O   0  0  0  0  0  0  0  0  0  0  0  0
    2.6047   -2.0202    1.1094 O   0  0  0  0  0  0  0  0  0  0  0  0
    1.8807   -0.3892    2.8790 O   0  0  0  0  0  0  0  0  0  0  0  0
    1.4279   -3.0121    3.3517 C   0  0  0  0  0  0  0  0  0  0  0  0
    2.5907   -3.0233    3.9906 F   0  0  0  0  0  0  0  0  0  0  0  0
    0.4446   -2.7329    4.1832 F   0  0  0  0  0  0  0  0  0  0  0  0
    1.2187   -4.1770    2.7566 F   0  0  0  0  0  0  0  0  0  0  0  0
    2.2544   -2.6387   -0.9520 H   0  0  0  0  0  0  0  0  0  0  0  0
  1  2  3  0  0  0  0
  3 26  1  0  0  0  0
  4  3  1  0  0  0  0
  6 12  1  0  0  0  0
  6 11  2  0  0  0  0
  7  6  1  0  0  0  0
  8  7  1  0  0  0  0
  8  9  2  0  0  0  0
  9 10  1  0  0  0  0
 10 16  1  1  0  0  0
 10  3  1  0  0  0  0
 10 11  1  0  0  0  0
 11 17  1  0  0  0  0
 13  7  1  0  0  0  0
 14  8  1  0  0  0  0
 15  9  1  0  0  0  0
 18 21  1  0  0  0  0
 18 22  1  0  0  0  0
 19 18  2  0  0  0  0
 20 18  2  0  0  0  0
 21  5  1  0  0  0  0
 22 23  1  0  0  0  0
 22 24  1  0  0  0  0
 25 22  1  0  0  0  0
M  RAD  1   7   2
M  END
