Coordinates from ORCA-job C6H6+HOTf+NH2--N2+-scan
 OpenBabel10191813343D

 26 24  0  0  0  0  0  0  0  0999 V2000
    1.0806   -5.1224   -1.7186 N   0  0  0  0  0  0  0  0  0  0  0  0
    0.9611   -5.9919   -2.4498 N   0  0  0  0  0  0  0  0  0  0  0  0
    1.1521   -4.2696   -1.0929 N   0  0  0  0  0  0  0  0  0  0  0  0
    0.2806   -2.6464   -1.6485 H   0  0  0  0  0  0  0  0  0  0  0  0
    4.2242   -2.2526    2.4336 H   0  0  0  0  0  0  0  0  0  0  0  0
   -0.9334   -2.1558   -3.2705 C   0  0  0  0  0  0  0  0  0  0  0  0
   -0.5196   -1.6390   -4.4724 C   0  0  0  0  0  0  0  0  0  0  0  0
    0.4758   -0.6433   -4.4849 C   0  0  0  0  0  0  0  0  0  0  0  0
    1.0688   -0.1508   -3.3093 C   0  0  0  0  0  0  0  0  0  0  0  0
    0.6718   -0.6557   -2.0947 C   0  0  0  0  0  0  0  0  0  0  0  0
   -0.3088   -1.7296   -2.0250 C   0  0  0  0  0  0  0  0  0  0  0  0
   -1.7046   -2.9179   -3.2312 H   0  0  0  0  0  0  0  0  0  0  0  0
   -0.9569   -1.9759   -5.4040 H   0  0  0  0  0  0  0  0  0  0  0  0
    0.7935   -0.2369   -5.4401 H   0  0  0  0  0  0  0  0  0  0  0  0
    1.8197    0.6272   -3.3695 H   0  0  0  0  0  0  0  0  0  0  0  0
    1.1062   -0.3073   -1.1643 H   0  0  0  0  0  0  0  0  0  0  0  0
   -1.0040   -1.6387   -1.1794 H   0  0  0  0  0  0  0  0  0  0  0  0
    2.1457   -2.1632    1.8590 S   0  0  0  0  0  0  0  0  0  0  0  0
    1.4599   -1.2228    1.0015 O   0  0  0  0  0  0  0  0  0  0  0  0
    2.2577   -3.5704    1.4952 O   0  0  0  0  0  0  0  0  0  0  0  0
    3.6074   -1.5580    2.1453 O   0  0  0  0  0  0  0  0  0  0  0  0
    1.3711   -2.0796    3.5852 C   0  0  0  0  0  0  0  0  0  0  0  0
    2.1536   -2.7468    4.4208 F   0  0  0  0  0  0  0  0  0  0  0  0
    1.2679   -0.8174    3.9501 F   0  0  0  0  0  0  0  0  0  0  0  0
    0.1774   -2.6450    3.5148 F   0  0  0  0  0  0  0  0  0  0  0  0
    1.6015   -4.2426   -0.1704 H   0  0  0  0  0  0  0  0  0  0  0  0
  1  3  2  0  0  0  0
  2  1  2  0  0  0  0
  3 26  1  0  0  0  0
  6 12  1  0  0  0  0
  6 11  1  0  0  0  0
  7  6  2  0  0  0  0
  8  7  1  0  0  0  0
  8  9  1  0  0  0  0
  9 10  2  0  0  0  0
 10 11  1  0  0  0  0
 10 16  1  0  0  0  0
 11  4  1  0  0  0  0
 11 17  1  0  0  0  0
 13  7  1  0  0  0  0
 14  8  1  0  0  0  0
 15  9  1  0  0  0  0
 18 21  1  0  0  0  0
 18 22  1  0  0  0  0
 19 18  2  0  0  0  0
 20 18  2  0  0  0  0
 21  5  1  0  0  0  0
 22 24  1  0  0  0  0
 22 23  1  0  0  0  0
 25 22  1  0  0  0  0
M  RAD  2   2   2   8   2
M  END
