Coordinates from ORCA-job C6H6+HOTf+NH2--N2+-scan
 OpenBabel10191813343D

 26 24  0  0  0  0  0  0  0  0999 V2000
    1.2917   -5.2422   -1.8475 N   0  0  0  0  0  0  0  0  0  0  0  0
    1.1726   -6.1705   -2.4683 N   0  0  0  0  0  0  0  0  0  0  0  0
    1.3785   -4.0979   -1.2794 N   0  0  0  0  0  0  0  0  0  0  0  0
    0.4973   -2.6782   -1.7598 H   0  0  0  0  0  0  0  0  0  0  0  0
    4.0926   -2.1690    2.5584 H   0  0  0  0  0  0  0  0  0  0  0  0
   -1.0010   -2.0077   -3.0339 C   0  0  0  0  0  0  0  0  0  0  0  0
   -0.7526   -1.5389   -4.3021 C   0  0  0  0  0  0  0  0  0  0  0  0
    0.3329   -0.6695   -4.5128 C   0  0  0  0  0  0  0  0  0  0  0  0
    1.1775   -0.2573   -3.4707 C   0  0  0  0  0  0  0  0  0  0  0  0
    0.9440   -0.7175   -2.1940 C   0  0  0  0  0  0  0  0  0  0  0  0
   -0.1125   -1.6731   -1.9403 C   0  0  0  0  0  0  0  0  0  0  0  0
   -1.8375   -2.6715   -2.8434 H   0  0  0  0  0  0  0  0  0  0  0  0
   -1.3911   -1.8152   -5.1320 H   0  0  0  0  0  0  0  0  0  0  0  0
    0.5189   -0.2997   -5.5161 H   0  0  0  0  0  0  0  0  0  0  0  0
    1.9901    0.4293   -3.6733 H   0  0  0  0  0  0  0  0  0  0  0  0
    1.5678   -0.4192   -1.3592 H   0  0  0  0  0  0  0  0  0  0  0  0
   -0.5648   -1.6113   -0.9456 H   0  0  0  0  0  0  0  0  0  0  0  0
    2.0460   -2.1819    1.8729 S   0  0  0  0  0  0  0  0  0  0  0  0
    1.3688   -1.2811    0.9662 O   0  0  0  0  0  0  0  0  0  0  0  0
    2.2373   -3.5853    1.5365 O   0  0  0  0  0  0  0  0  0  0  0  0
    3.4615   -1.5053    2.2311 O   0  0  0  0  0  0  0  0  0  0  0  0
    1.1742   -2.1034    3.5512 C   0  0  0  0  0  0  0  0  0  0  0  0
    1.9319   -2.7289    4.4410 F   0  0  0  0  0  0  0  0  0  0  0  0
    1.0030   -0.8412    3.8913 F   0  0  0  0  0  0  0  0  0  0  0  0
    0.0073   -2.7147    3.4248 F   0  0  0  0  0  0  0  0  0  0  0  0
    1.7154   -4.2010   -0.3148 H   0  0  0  0  0  0  0  0  0  0  0  0
  1  3  2  0  0  0  0
  2  1  2  0  0  0  0
  3 26  1  0  0  0  0
  6 12  1  0  0  0  0
  6 11  1  0  0  0  0
  7  6  2  0  0  0  0
  8  7  1  0  0  0  0
  8  9  1  0  0  0  0
  9 10  2  0  0  0  0
 10 11  1  0  0  0  0
 10 16  1  0  0  0  0
 11  4  1  0  0  0  0
 11 17  1  0  0  0  0
 13  7  1  0  0  0  0
 14  8  1  0  0  0  0
 15  9  1  0  0  0  0
 18 21  1  0  0  0  0
 18 22  1  0  0  0  0
 19 18  2  0  0  0  0
 20 18  2  0  0  0  0
 21  5  1  0  0  0  0
 22 24  1  0  0  0  0
 22 23  1  0  0  0  0
 25 22  1  0  0  0  0
M  RAD  2   2   2   8   2
M  END
