Coordinates from ORCA-job C6H6+HOTf+NH2--N2+-scan
 OpenBabel10191813343D

 26 24  0  0  1  0  0  0  0  0999 V2000
    2.4907   -5.6875   -1.2090 N   0  0  0  0  0  0  0  0  0  0  0  0
    3.3449   -6.3629   -1.0909 N   0  0  0  0  0  0  0  0  0  0  0  0
    1.7595   -2.9416   -1.9757 N   0  0  0  0  0  0  0  0  0  0  0  0
    1.2235   -3.7995   -2.0180 H   0  0  0  0  0  0  0  0  0  0  0  0
    3.0002   -0.5333    2.8858 H   0  0  0  0  0  0  0  0  0  0  0  0
   -1.2443   -0.7604   -2.5188 C   0  0  0  0  0  0  0  0  0  0  0  0
   -1.1178   -0.6200   -3.9138 C   0  0  0  0  0  0  0  0  0  0  0  0
    0.0078   -1.0756   -4.6270 C   0  0  0  0  0  0  0  0  0  0  0  0
    1.0219   -1.6990   -3.9477 C   0  0  0  0  0  0  0  0  0  0  0  0
    1.0110   -1.8099   -2.4749 C   0  0  1  0  0  0  0  0  0  0  0  0
   -0.2425   -1.3730   -1.8090 C   0  0  0  0  0  0  0  0  0  0  0  0
   -2.1415   -0.4116   -2.0218 H   0  0  0  0  0  0  0  0  0  0  0  0
   -1.9261   -0.1481   -4.4646 H   0  0  0  0  0  0  0  0  0  0  0  0
    0.0470   -0.9622   -5.7034 H   0  0  0  0  0  0  0  0  0  0  0  0
    1.8971   -2.0970   -4.4502 H   0  0  0  0  0  0  0  0  0  0  0  0
    1.6320   -0.8890   -2.2609 H   0  0  0  0  0  0  0  0  0  0  0  0
   -0.3047   -1.4931   -0.7306 H   0  0  0  0  0  0  0  0  0  0  0  0
    1.5290   -1.7914    1.9318 S   0  0  0  0  0  0  0  0  0  0  0  0
    0.2056   -1.4701    1.4449 O   0  0  0  0  0  0  0  0  0  0  0  0
    2.5756   -2.2245    1.0186 O   0  0  0  0  0  0  0  0  0  0  0  0
    2.0328   -0.5253    2.7889 O   0  0  0  0  0  0  0  0  0  0  0  0
    1.3617   -3.0956    3.2919 C   0  0  0  0  0  0  0  0  0  0  0  0
    2.5317   -3.2034    3.9085 F   0  0  0  0  0  0  0  0  0  0  0  0
    0.4230   -2.7259    4.1395 F   0  0  0  0  0  0  0  0  0  0  0  0
    1.0405   -4.2417    2.7108 F   0  0  0  0  0  0  0  0  0  0  0  0
    2.0908   -2.8105   -1.0243 H   0  0  0  0  0  0  0  0  0  0  0  0
  1  2  3  0  0  0  0
  3 26  1  0  0  0  0
  4  3  1  0  0  0  0
  6 12  1  0  0  0  0
  6 11  2  0  0  0  0
  7  6  1  0  0  0  0
  8  9  2  0  0  0  0
  8  7  1  0  0  0  0
  9 10  1  0  0  0  0
 10 16  1  1  0  0  0
 10  3  1  0  0  0  0
 10 11  1  0  0  0  0
 11 17  1  0  0  0  0
 13  7  1  0  0  0  0
 14  8  1  0  0  0  0
 15  9  1  0  0  0  0
 18 21  1  0  0  0  0
 18 22  1  0  0  0  0
 19 18  2  0  0  0  0
 20 18  2  0  0  0  0
 21  5  1  0  0  0  0
 22 23  1  0  0  0  0
 22 24  1  0  0  0  0
 25 22  1  0  0  0  0
M  RAD  1   7   2
M  END
