Coordinates from ORCA-job C6H6+HOTf+NH2--N2+-scan
 OpenBabel10191813343D

 26 24  0  0  1  0  0  0  0  0999 V2000
    2.7905   -5.3395   -1.1436 N   0  0  0  0  0  0  0  0  0  0  0  0
    3.7667   -5.7464   -1.4294 N   0  0  0  0  0  0  0  0  0  0  0  0
    1.5659   -3.1169   -1.9167 N   0  0  0  0  0  0  0  0  0  0  0  0
    0.9094   -3.8886   -1.9015 H   0  0  0  0  0  0  0  0  0  0  0  0
    3.0547   -0.6360    2.8717 H   0  0  0  0  0  0  0  0  0  0  0  0
   -1.1709   -0.6247   -2.5191 C   0  0  0  0  0  0  0  0  0  0  0  0
   -1.0524   -0.5596   -3.9203 C   0  0  0  0  0  0  0  0  0  0  0  0
    0.0054   -1.1665   -4.6255 C   0  0  0  0  0  0  0  0  0  0  0  0
    0.9544   -1.8692   -3.9306 C   0  0  0  0  0  0  0  0  0  0  0  0
    0.9557   -1.9144   -2.4538 C   0  0  1  0  0  0  0  0  0  0  0  0
   -0.2286   -1.3091   -1.7937 C   0  0  0  0  0  0  0  0  0  0  0  0
   -2.0165   -0.1582   -2.0281 H   0  0  0  0  0  0  0  0  0  0  0  0
   -1.8135   -0.0268   -4.4826 H   0  0  0  0  0  0  0  0  0  0  0  0
    0.0389   -1.1050   -5.7063 H   0  0  0  0  0  0  0  0  0  0  0  0
    1.7698   -2.3860   -4.4255 H   0  0  0  0  0  0  0  0  0  0  0  0
    1.6922   -1.0764   -2.2779 H   0  0  0  0  0  0  0  0  0  0  0  0
   -0.2863   -1.3714   -0.7099 H   0  0  0  0  0  0  0  0  0  0  0  0
    1.5093   -1.8165    1.9360 S   0  0  0  0  0  0  0  0  0  0  0  0
    0.1962   -1.4294    1.4694 O   0  0  0  0  0  0  0  0  0  0  0  0
    2.5198   -2.2952    1.0046 O   0  0  0  0  0  0  0  0  0  0  0  0
    2.0874   -0.5808    2.7904 O   0  0  0  0  0  0  0  0  0  0  0  0
    1.2983   -3.1182    3.2926 C   0  0  0  0  0  0  0  0  0  0  0  0
    2.4716   -3.2892    3.8882 F   0  0  0  0  0  0  0  0  0  0  0  0
    0.3947   -2.7051    4.1581 F   0  0  0  0  0  0  0  0  0  0  0  0
    0.9086   -4.2425    2.7116 F   0  0  0  0  0  0  0  0  0  0  0  0
    1.9282   -2.9808   -0.9780 H   0  0  0  0  0  0  0  0  0  0  0  0
  2  1  3  0  0  0  0
  3  4  1  0  0  0  0
  3 26  1  0  0  0  0
  6 12  1  0  0  0  0
  6 11  2  0  0  0  0
  7  6  1  0  0  0  0
  8  9  2  0  0  0  0
  8  7  1  0  0  0  0
  9 10  1  0  0  0  0
 10 16  1  1  0  0  0
 10  3  1  0  0  0  0
 10 11  1  0  0  0  0
 11 17  1  0  0  0  0
 13  7  1  0  0  0  0
 14  8  1  0  0  0  0
 15  9  1  0  0  0  0
 18 21  1  0  0  0  0
 18 22  1  0  0  0  0
 19 18  2  0  0  0  0
 20 18  2  0  0  0  0
 21  5  1  0  0  0  0
 22 23  1  0  0  0  0
 22 24  1  0  0  0  0
 25 22  1  0  0  0  0
M  RAD  1   7   2
M  END
