Coordinates from ORCA-job 4-CH3O-Ph-N2+-scan-d090-169-n800
 OpenBabel09191814063D

 17 16  0  0  0  0  0  0  0  0999 V2000
   -2.7503   -0.1634    0.2359 C   0  0  0  0  0  0  0  0  0  0  0  0
   -1.4185   -0.1650   -0.2474 C   0  0  0  0  0  0  0  0  0  0  0  0
   -1.0206    1.1135   -0.3003 C   0  0  0  0  0  0  0  0  0  0  0  0
   -1.2563    2.3115    0.2592 C   0  0  0  0  0  0  0  0  0  0  0  0
   -2.5811    2.2430    0.7393 C   0  0  0  0  0  0  0  0  0  0  0  0
   -3.3195    1.0265    0.7499 C   0  0  0  0  0  0  0  0  0  0  0  0
   -3.2992   -1.0976    0.1878 H   0  0  0  0  0  0  0  0  0  0  0  0
   -0.8900   -1.0532   -0.5760 H   0  0  0  0  0  0  0  0  0  0  0  0
   -0.6721    3.2236    0.2160 H   0  0  0  0  0  0  0  0  0  0  0  0
   -3.0662    3.1668    1.0447 H   0  0  0  0  0  0  0  0  0  0  0  0
    7.3257    0.6695   -2.0019 N   0  0  0  0  0  0  0  0  0  0  0  0
    8.4014    0.6372   -2.2546 N   0  0  0  0  0  0  0  0  0  0  0  0
   -4.5429    1.1226    1.2539 O   0  0  0  0  0  0  0  0  0  0  0  0
   -5.3709   -0.0520    1.3818 C   0  0  0  0  0  0  0  0  0  0  0  0
   -6.3041    0.3022    1.8158 H   0  0  0  0  0  0  0  0  0  0  0  0
   -4.9015   -0.7811    2.0488 H   0  0  0  0  0  0  0  0  0  0  0  0
   -5.5633   -0.4906    0.3968 H   0  0  0  0  0  0  0  0  0  0  0  0
  1  6  2  0  0  0  0
  2  1  1  0  0  0  0
  3  2  2  0  0  0  0
  3  4  1  0  0  0  0
  4  5  2  0  0  0  0
  5  6  1  0  0  0  0
  5 10  1  0  0  0  0
  6 13  1  0  0  0  0
  7  1  1  0  0  0  0
  8  2  1  0  0  0  0
  9  4  1  0  0  0  0
 12 11  3  0  0  0  0
 13 14  1  0  0  0  0
 14 15  1  0  0  0  0
 14 16  1  0  0  0  0
 17 14  1  0  0  0  0
M  RAD  1   3   2
M  END
