Coordinates from ORCA-job 4-CH3O-Ph-N2+-scan-d090-169-n800
 OpenBabel09191814063D

 17 16  0  0  0  0  0  0  0  0999 V2000
   -2.3867   -0.1782    0.1850 C   0  0  0  0  0  0  0  0  0  0  0  0
   -1.0386   -0.1975   -0.2523 C   0  0  0  0  0  0  0  0  0  0  0  0
   -0.6301    1.0771   -0.3070 C   0  0  0  0  0  0  0  0  0  0  0  0
   -0.8771    2.2865    0.2218 C   0  0  0  0  0  0  0  0  0  0  0  0
   -2.2185    2.2340    0.6567 C   0  0  0  0  0  0  0  0  0  0  0  0
   -2.9652    1.0231    0.6601 C   0  0  0  0  0  0  0  0  0  0  0  0
   -2.9403   -1.1094    0.1319 H   0  0  0  0  0  0  0  0  0  0  0  0
   -0.5058   -1.0940   -0.5497 H   0  0  0  0  0  0  0  0  0  0  0  0
   -0.2841    3.1931    0.1862 H   0  0  0  0  0  0  0  0  0  0  0  0
   -2.7066    3.1655    0.9328 H   0  0  0  0  0  0  0  0  0  0  0  0
    4.6502    0.7276   -1.4100 N   0  0  0  0  0  0  0  0  0  0  0  0
    5.7237    0.6890   -1.6706 N   0  0  0  0  0  0  0  0  0  0  0  0
   -4.2053    1.1348    1.1190 O   0  0  0  0  0  0  0  0  0  0  0  0
   -5.0448   -0.0325    1.2352 C   0  0  0  0  0  0  0  0  0  0  0  0
   -5.9903    0.3336    1.6312 H   0  0  0  0  0  0  0  0  0  0  0  0
   -4.6039   -0.7547    1.9287 H   0  0  0  0  0  0  0  0  0  0  0  0
   -5.2059   -0.4847    0.2506 H   0  0  0  0  0  0  0  0  0  0  0  0
  1  6  2  0  0  0  0
  2  1  1  0  0  0  0
  3  2  2  0  0  0  0
  3  4  1  0  0  0  0
  4  5  2  0  0  0  0
  5  6  1  0  0  0  0
  5 10  1  0  0  0  0
  6 13  1  0  0  0  0
  7  1  1  0  0  0  0
  8  2  1  0  0  0  0
  9  4  1  0  0  0  0
 12 11  3  0  0  0  0
 13 14  1  0  0  0  0
 14 15  1  0  0  0  0
 14 16  1  0  0  0  0
 17 14  1  0  0  0  0
M  RAD  1   3   2
M  END
