Coordinates from ORCA-job 4-CH3O-Ph-N2+-scan-d090-169-n800
 OpenBabel09191814063D

 17 16  0  0  0  0  0  0  0  0999 V2000
   -2.5646   -0.1677    0.2117 C   0  0  0  0  0  0  0  0  0  0  0  0
   -1.2236   -0.1740   -0.2465 C   0  0  0  0  0  0  0  0  0  0  0  0
   -0.8245    1.1040   -0.2997 C   0  0  0  0  0  0  0  0  0  0  0  0
   -1.0709    2.3071    0.2438 C   0  0  0  0  0  0  0  0  0  0  0  0
   -2.4048    2.2422    0.6992 C   0  0  0  0  0  0  0  0  0  0  0  0
   -3.1434    1.0261    0.7052 C   0  0  0  0  0  0  0  0  0  0  0  0
   -3.1128   -1.1022    0.1604 H   0  0  0  0  0  0  0  0  0  0  0  0
   -0.6894   -1.0648   -0.5583 H   0  0  0  0  0  0  0  0  0  0  0  0
   -0.4852    3.2184    0.2054 H   0  0  0  0  0  0  0  0  0  0  0  0
   -2.8951    3.1683    0.9891 H   0  0  0  0  0  0  0  0  0  0  0  0
    5.9858    0.6840   -1.7108 N   0  0  0  0  0  0  0  0  0  0  0  0
    7.0607    0.6491   -1.9664 N   0  0  0  0  0  0  0  0  0  0  0  0
   -4.3765    1.1261    1.1847 O   0  0  0  0  0  0  0  0  0  0  0  0
   -5.2067   -0.0476    1.3056 C   0  0  0  0  0  0  0  0  0  0  0  0
   -6.1480    0.3096    1.7191 H   0  0  0  0  0  0  0  0  0  0  0  0
   -4.7501   -0.7717    1.9868 H   0  0  0  0  0  0  0  0  0  0  0  0
   -5.3803   -0.4936    0.3204 H   0  0  0  0  0  0  0  0  0  0  0  0
  1  6  2  0  0  0  0
  2  1  1  0  0  0  0
  3  2  2  0  0  0  0
  3  4  1  0  0  0  0
  4  5  2  0  0  0  0
  5  6  1  0  0  0  0
  5 10  1  0  0  0  0
  6 13  1  0  0  0  0
  7  1  1  0  0  0  0
  8  2  1  0  0  0  0
  9  4  1  0  0  0  0
 12 11  3  0  0  0  0
 13 14  1  0  0  0  0
 14 15  1  0  0  0  0
 14 16  1  0  0  0  0
 17 14  1  0  0  0  0
M  RAD  1   3   2
M  END
