Coordinates from ORCA-job 4-CH3O-Ph-N2+-scan-d090-169-n800
 OpenBabel09191814063D

 17 16  0  0  0  0  0  0  0  0999 V2000
   -3.6746    0.0625   -0.0751 C   0  0  0  0  0  0  0  0  0  0  0  0
   -2.8855    0.3823   -1.2067 C   0  0  0  0  0  0  0  0  0  0  0  0
   -2.6925    1.7091   -1.1898 C   0  0  0  0  0  0  0  0  0  0  0  0
   -2.6361    2.7491   -0.3412 C   0  0  0  0  0  0  0  0  0  0  0  0
   -3.4170    2.3641    0.7689 C   0  0  0  0  0  0  0  0  0  0  0  0
   -3.9175    1.0402    0.9198 C   0  0  0  0  0  0  0  0  0  0  0  0
   -4.0751   -0.9434   -0.0122 H   0  0  0  0  0  0  0  0  0  0  0  0
   -2.5833   -0.3344   -1.9626 H   0  0  0  0  0  0  0  0  0  0  0  0
   -2.2579    3.7526   -0.4992 H   0  0  0  0  0  0  0  0  0  0  0  0
   -3.6978    3.1274    1.4905 H   0  0  0  0  0  0  0  0  0  0  0  0
   12.5060    0.1077   -2.2302 N   0  0  0  0  0  0  0  0  0  0  0  0
   13.6010    0.0283   -2.3594 N   0  0  0  0  0  0  0  0  0  0  0  0
   -4.6135    0.8323    2.0296 O   0  0  0  0  0  0  0  0  0  0  0  0
   -5.1210   -0.4835    2.3346 C   0  0  0  0  0  0  0  0  0  0  0  0
   -5.6445   -0.3750    3.2826 H   0  0  0  0  0  0  0  0  0  0  0  0
   -4.2980   -1.1963    2.4414 H   0  0  0  0  0  0  0  0  0  0  0  0
   -5.8222   -0.8095    1.5589 H   0  0  0  0  0  0  0  0  0  0  0  0
  1  7  1  0  0  0  0
  1  6  2  0  0  0  0
  2  3  2  0  0  0  0
  2  1  1  0  0  0  0
  3  4  1  0  0  0  0
  4  5  2  0  0  0  0
  5  6  1  0  0  0  0
  5 10  1  0  0  0  0
  6 13  1  0  0  0  0
  8  2  1  0  0  0  0
  9  4  1  0  0  0  0
 12 11  3  0  0  0  0
 13 14  1  0  0  0  0
 14 16  1  0  0  0  0
 14 15  1  0  0  0  0
 17 14  1  0  0  0  0
M  RAD  1   3   2
M  END
