Coordinates from ORCA-job 4-CH3O-Ph-N2+-scan-d090-169-n800
 OpenBabel09191814063D

 17 16  0  0  0  0  0  0  0  0999 V2000
   -3.3786   -0.0697    0.1320 C   0  0  0  0  0  0  0  0  0  0  0  0
   -2.2181    0.0543   -0.6713 C   0  0  0  0  0  0  0  0  0  0  0  0
   -1.8954    1.3550   -0.6941 C   0  0  0  0  0  0  0  0  0  0  0  0
   -2.0214    2.4815    0.0267 C   0  0  0  0  0  0  0  0  0  0  0  0
   -3.1736    2.2885    0.8178 C   0  0  0  0  0  0  0  0  0  0  0  0
   -3.8388    1.0327    0.8918 C   0  0  0  0  0  0  0  0  0  0  0  0
   -3.8861   -1.0282    0.1310 H   0  0  0  0  0  0  0  0  0  0  0  0
   -1.7589   -0.7668   -1.2108 H   0  0  0  0  0  0  0  0  0  0  0  0
   -1.5025    3.4283   -0.0704 H   0  0  0  0  0  0  0  0  0  0  0  0
   -3.5975    3.1498    1.3283 H   0  0  0  0  0  0  0  0  0  0  0  0
   11.4430    0.4399   -2.5344 N   0  0  0  0  0  0  0  0  0  0  0  0
   12.5291    0.3869   -2.7330 N   0  0  0  0  0  0  0  0  0  0  0  0
   -4.8928    1.0081    1.6971 O   0  0  0  0  0  0  0  0  0  0  0  0
   -5.6160   -0.2219    1.9109 C   0  0  0  0  0  0  0  0  0  0  0  0
   -6.4178    0.0344    2.6009 H   0  0  0  0  0  0  0  0  0  0  0  0
   -4.9640   -0.9770    2.3596 H   0  0  0  0  0  0  0  0  0  0  0  0
   -6.0400   -0.5824    0.9676 H   0  0  0  0  0  0  0  0  0  0  0  0
  1  6  2  0  0  0  0
  2  1  1  0  0  0  0
  3  2  2  0  0  0  0
  3  4  1  0  0  0  0
  4  5  2  0  0  0  0
  5  6  1  0  0  0  0
  5 10  1  0  0  0  0
  6 13  1  0  0  0  0
  7  1  1  0  0  0  0
  8  2  1  0  0  0  0
  9  4  1  0  0  0  0
 12 11  3  0  0  0  0
 13 14  1  0  0  0  0
 14 16  1  0  0  0  0
 14 15  1  0  0  0  0
 17 14  1  0  0  0  0
M  RAD  1   3   2
M  END
