Coordinates from ORCA-job 4-CH3O-Ph-N2+-scan-d090-169-n800
 OpenBabel09191814063D

 17 16  0  0  0  0  0  0  0  0999 V2000
   -3.6952    0.0721   -0.0883 C   0  0  0  0  0  0  0  0  0  0  0  0
   -2.9410    0.4066   -1.2393 C   0  0  0  0  0  0  0  0  0  0  0  0
   -2.7599    1.7351   -1.2194 C   0  0  0  0  0  0  0  0  0  0  0  0
   -2.6884    2.7698   -0.3653 C   0  0  0  0  0  0  0  0  0  0  0  0
   -3.4343    2.3706    0.7636 C   0  0  0  0  0  0  0  0  0  0  0  0
   -3.9187    1.0413    0.9195 C   0  0  0  0  0  0  0  0  0  0  0  0
   -4.0846   -0.9378   -0.0208 H   0  0  0  0  0  0  0  0  0  0  0  0
   -2.6534   -0.3024   -2.0080 H   0  0  0  0  0  0  0  0  0  0  0  0
   -2.3237    3.7777   -0.5271 H   0  0  0  0  0  0  0  0  0  0  0  0
   -3.7017    3.1266    1.4978 H   0  0  0  0  0  0  0  0  0  0  0  0
   12.5580    0.0800   -2.1997 N   0  0  0  0  0  0  0  0  0  0  0  0
   13.6534   -0.0011   -2.3241 N   0  0  0  0  0  0  0  0  0  0  0  0
   -4.5812    0.8199    2.0470 O   0  0  0  0  0  0  0  0  0  0  0  0
   -5.0683   -0.5024    2.3574 C   0  0  0  0  0  0  0  0  0  0  0  0
   -5.5661   -0.4046    3.3203 H   0  0  0  0  0  0  0  0  0  0  0  0
   -4.2365   -1.2083    2.4365 H   0  0  0  0  0  0  0  0  0  0  0  0
   -5.7881   -0.8297    1.5995 H   0  0  0  0  0  0  0  0  0  0  0  0
  1  7  1  0  0  0  0
  1  6  2  0  0  0  0
  2  3  2  0  0  0  0
  2  1  1  0  0  0  0
  3  4  1  0  0  0  0
  4  5  2  0  0  0  0
  5  6  1  0  0  0  0
  5 10  1  0  0  0  0
  6 13  1  0  0  0  0
  8  2  1  0  0  0  0
  9  4  1  0  0  0  0
 12 11  3  0  0  0  0
 13 14  1  0  0  0  0
 14 16  1  0  0  0  0
 14 15  1  0  0  0  0
 17 14  1  0  0  0  0
M  RAD  1   3   2
M  END
