Coordinates from ORCA-job 4-CH3O-Ph-N2+-scan-d090-169-n800
 OpenBabel09191814063D

 17 16  0  0  0  0  0  0  0  0999 V2000
   -2.6213   -0.1664    0.2198 C   0  0  0  0  0  0  0  0  0  0  0  0
   -1.2828   -0.1710   -0.2454 C   0  0  0  0  0  0  0  0  0  0  0  0
   -0.8843    1.1072   -0.2985 C   0  0  0  0  0  0  0  0  0  0  0  0
   -1.1279    2.3089    0.2496 C   0  0  0  0  0  0  0  0  0  0  0  0
   -2.4594    2.2426    0.7118 C   0  0  0  0  0  0  0  0  0  0  0  0
   -3.1977    1.0263    0.7189 C   0  0  0  0  0  0  0  0  0  0  0  0
   -3.1695   -1.1009    0.1695 H   0  0  0  0  0  0  0  0  0  0  0  0
   -0.7497   -1.0610   -0.5616 H   0  0  0  0  0  0  0  0  0  0  0  0
   -0.5428    3.2206    0.2099 H   0  0  0  0  0  0  0  0  0  0  0  0
   -2.9486    3.1680    1.0060 H   0  0  0  0  0  0  0  0  0  0  0  0
    6.3979    0.6786   -1.8020 N   0  0  0  0  0  0  0  0  0  0  0  0
    7.4731    0.6451   -2.0567 N   0  0  0  0  0  0  0  0  0  0  0  0
   -4.4282    1.1250    1.2052 O   0  0  0  0  0  0  0  0  0  0  0  0
   -5.2576   -0.0491    1.3280 C   0  0  0  0  0  0  0  0  0  0  0  0
   -6.1968    0.3071    1.7471 H   0  0  0  0  0  0  0  0  0  0  0  0
   -4.7974   -0.7745    2.0053 H   0  0  0  0  0  0  0  0  0  0  0  0
   -5.4363   -0.4931    0.3428 H   0  0  0  0  0  0  0  0  0  0  0  0
  1  6  2  0  0  0  0
  2  1  1  0  0  0  0
  3  2  2  0  0  0  0
  3  4  1  0  0  0  0
  4  5  2  0  0  0  0
  5  6  1  0  0  0  0
  5 10  1  0  0  0  0
  6 13  1  0  0  0  0
  7  1  1  0  0  0  0
  8  2  1  0  0  0  0
  9  4  1  0  0  0  0
 12 11  3  0  0  0  0
 13 14  1  0  0  0  0
 14 15  1  0  0  0  0
 14 16  1  0  0  0  0
 17 14  1  0  0  0  0
M  RAD  1   3   2
M  END
