Coordinates from ORCA-job 4-CH3O-Ph-N2+-scan-d090-169-n800
 OpenBabel09191814063D

 17 16  0  0  0  0  0  0  0  0999 V2000
   -2.9316   -0.1562    0.2499 C   0  0  0  0  0  0  0  0  0  0  0  0
   -1.6138   -0.1507   -0.2707 C   0  0  0  0  0  0  0  0  0  0  0  0
   -1.2189    1.1289   -0.3201 C   0  0  0  0  0  0  0  0  0  0  0  0
   -1.4400    2.3206    0.2589 C   0  0  0  0  0  0  0  0  0  0  0  0
   -2.7509    2.2446    0.7751 C   0  0  0  0  0  0  0  0  0  0  0  0
   -3.4875    1.0272    0.7927 C   0  0  0  0  0  0  0  0  0  0  0  0
   -3.4807   -1.0906    0.2072 H   0  0  0  0  0  0  0  0  0  0  0  0
   -1.0934   -1.0345   -0.6232 H   0  0  0  0  0  0  0  0  0  0  0  0
   -0.8581    3.2338    0.2098 H   0  0  0  0  0  0  0  0  0  0  0  0
   -3.2284    3.1642    1.1044 H   0  0  0  0  0  0  0  0  0  0  0  0
    8.6115    0.6510   -2.2602 N   0  0  0  0  0  0  0  0  0  0  0  0
    9.6881    0.6184   -2.5089 N   0  0  0  0  0  0  0  0  0  0  0  0
   -4.6964    1.1161    1.3318 O   0  0  0  0  0  0  0  0  0  0  0  0
   -5.5194   -0.0609    1.4695 C   0  0  0  0  0  0  0  0  0  0  0  0
   -6.4404    0.2871    1.9333 H   0  0  0  0  0  0  0  0  0  0  0  0
   -5.0309   -0.7969    2.1150 H   0  0  0  0  0  0  0  0  0  0  0  0
   -5.7387   -0.4887    0.4854 H   0  0  0  0  0  0  0  0  0  0  0  0
  1  6  2  0  0  0  0
  2  1  1  0  0  0  0
  3  2  2  0  0  0  0
  3  4  1  0  0  0  0
  4  5  2  0  0  0  0
  5  6  1  0  0  0  0
  5 10  1  0  0  0  0
  6 13  1  0  0  0  0
  7  1  1  0  0  0  0
  8  2  1  0  0  0  0
  9  4  1  0  0  0  0
 12 11  3  0  0  0  0
 13 14  1  0  0  0  0
 14 15  1  0  0  0  0
 14 16  1  0  0  0  0
 17 14  1  0  0  0  0
M  RAD  1   3   2
M  END
