Coordinates from ORCA-job 4-CH3O-Ph-N2+-scan-d090-169-n800
 OpenBabel09191814063D

 17 16  0  0  0  0  0  0  0  0999 V2000
   -3.6301    0.0414   -0.0452 C   0  0  0  0  0  0  0  0  0  0  0  0
   -2.7688    0.3292   -1.1322 C   0  0  0  0  0  0  0  0  0  0  0  0
   -2.5516    1.6521   -1.1216 C   0  0  0  0  0  0  0  0  0  0  0  0
   -2.5276    2.7045   -0.2869 C   0  0  0  0  0  0  0  0  0  0  0  0
   -3.3803    2.3505    0.7799 C   0  0  0  0  0  0  0  0  0  0  0  0
   -3.9137    1.0384    0.9193 C   0  0  0  0  0  0  0  0  0  0  0  0
   -4.0528   -0.9559    0.0074 H   0  0  0  0  0  0  0  0  0  0  0  0
   -2.4366   -0.4043   -1.8587 H   0  0  0  0  0  0  0  0  0  0  0  0
   -2.1216    3.6984   -0.4362 H   0  0  0  0  0  0  0  0  0  0  0  0
   -3.6889    3.1297    1.4725 H   0  0  0  0  0  0  0  0  0  0  0  0
   12.3867    0.1658   -2.2935 N   0  0  0  0  0  0  0  0  0  0  0  0
   13.4807    0.0904   -2.4331 N   0  0  0  0  0  0  0  0  0  0  0  0
   -4.6786    0.8599    1.9881 O   0  0  0  0  0  0  0  0  0  0  0  0
   -5.2278   -0.4420    2.2806 C   0  0  0  0  0  0  0  0  0  0  0  0
   -5.8049   -0.3099    3.1939 H   0  0  0  0  0  0  0  0  0  0  0  0
   -4.4262   -1.1676    2.4466 H   0  0  0  0  0  0  0  0  0  0  0  0
   -5.8875   -0.7672    1.4690 H   0  0  0  0  0  0  0  0  0  0  0  0
  1  7  1  0  0  0  0
  1  6  2  0  0  0  0
  2  3  2  0  0  0  0
  2  1  1  0  0  0  0
  3  4  1  0  0  0  0
  4  5  2  0  0  0  0
  5  6  1  0  0  0  0
  5 10  1  0  0  0  0
  6 13  1  0  0  0  0
  8  2  1  0  0  0  0
  9  4  1  0  0  0  0
 12 11  3  0  0  0  0
 13 14  1  0  0  0  0
 14 16  1  0  0  0  0
 14 15  1  0  0  0  0
 17 14  1  0  0  0  0
M  RAD  1   3   2
M  END
