Coordinates from ORCA-job 4-CH3O-Ph-N2+-scan-d090-169-n800
 OpenBabel09191814063D

 17 16  0  0  0  0  0  0  0  0999 V2000
   -3.0150   -0.1501    0.2493 C   0  0  0  0  0  0  0  0  0  0  0  0
   -1.7076   -0.1374   -0.2969 C   0  0  0  0  0  0  0  0  0  0  0  0
   -1.3166    1.1436   -0.3440 C   0  0  0  0  0  0  0  0  0  0  0  0
   -1.5289    2.3301    0.2486 C   0  0  0  0  0  0  0  0  0  0  0  0
   -2.8293    2.2470    0.7898 C   0  0  0  0  0  0  0  0  0  0  0  0
   -3.5626    1.0277    0.8122 C   0  0  0  0  0  0  0  0  0  0  0  0
   -3.5626   -1.0854    0.2101 H   0  0  0  0  0  0  0  0  0  0  0  0
   -1.1922   -1.0171   -0.6663 H   0  0  0  0  0  0  0  0  0  0  0  0
   -0.9501    3.2451    0.1954 H   0  0  0  0  0  0  0  0  0  0  0  0
   -3.3023    3.1629    1.1355 H   0  0  0  0  0  0  0  0  0  0  0  0
    9.1914    0.6353   -2.3631 N   0  0  0  0  0  0  0  0  0  0  0  0
   10.2688    0.6021   -2.6083 N   0  0  0  0  0  0  0  0  0  0  0  0
   -4.7610    1.1095    1.3755 O   0  0  0  0  0  0  0  0  0  0  0  0
   -5.5785   -0.0704    1.5201 C   0  0  0  0  0  0  0  0  0  0  0  0
   -6.4911    0.2718    2.0045 H   0  0  0  0  0  0  0  0  0  0  0  0
   -5.0759   -0.8103    2.1501 H   0  0  0  0  0  0  0  0  0  0  0  0
   -5.8161   -0.4910    0.5371 H   0  0  0  0  0  0  0  0  0  0  0  0
  1  6  2  0  0  0  0
  2  1  1  0  0  0  0
  3  2  2  0  0  0  0
  3  4  1  0  0  0  0
  4  5  2  0  0  0  0
  5  6  1  0  0  0  0
  5 10  1  0  0  0  0
  6 13  1  0  0  0  0
  7  1  1  0  0  0  0
  8  2  1  0  0  0  0
  9  4  1  0  0  0  0
 12 11  3  0  0  0  0
 13 14  1  0  0  0  0
 14 15  1  0  0  0  0
 14 16  1  0  0  0  0
 17 14  1  0  0  0  0
M  RAD  1   3   2
M  END
