Coordinates from ORCA-job 4-CH3O-Ph-N2+-scan-d090-169-n800
 OpenBabel09191814063D

 17 16  0  0  0  0  0  0  0  0999 V2000
   -2.5109   -0.1696    0.2037 C   0  0  0  0  0  0  0  0  0  0  0  0
   -1.1678   -0.1780   -0.2483 C   0  0  0  0  0  0  0  0  0  0  0  0
   -0.7675    1.0995   -0.3019 C   0  0  0  0  0  0  0  0  0  0  0  0
   -1.0155    2.3041    0.2377 C   0  0  0  0  0  0  0  0  0  0  0  0
   -2.3516    2.2412    0.6870 C   0  0  0  0  0  0  0  0  0  0  0  0
   -3.0911    1.0257    0.6919 C   0  0  0  0  0  0  0  0  0  0  0  0
   -3.0596   -1.1037    0.1516 H   0  0  0  0  0  0  0  0  0  0  0  0
   -0.6329   -1.0698   -0.5559 H   0  0  0  0  0  0  0  0  0  0  0  0
   -0.4287    3.2148    0.2003 H   0  0  0  0  0  0  0  0  0  0  0  0
   -2.8424    3.1682    0.9729 H   0  0  0  0  0  0  0  0  0  0  0  0
    5.5911    0.6915   -1.6224 N   0  0  0  0  0  0  0  0  0  0  0  0
    6.6657    0.6551   -1.8790 N   0  0  0  0  0  0  0  0  0  0  0  0
   -4.3265    1.1276    1.1654 O   0  0  0  0  0  0  0  0  0  0  0  0
   -5.1580   -0.0452    1.2847 C   0  0  0  0  0  0  0  0  0  0  0  0
   -6.1010    0.3134    1.6931 H   0  0  0  0  0  0  0  0  0  0  0  0
   -4.7053   -0.7683    1.9695 H   0  0  0  0  0  0  0  0  0  0  0  0
   -5.3274   -0.4931    0.2996 H   0  0  0  0  0  0  0  0  0  0  0  0
  1  6  2  0  0  0  0
  2  1  1  0  0  0  0
  3  2  2  0  0  0  0
  3  4  1  0  0  0  0
  4  5  2  0  0  0  0
  5  6  1  0  0  0  0
  5 10  1  0  0  0  0
  6 13  1  0  0  0  0
  7  1  1  0  0  0  0
  8  2  1  0  0  0  0
  9  4  1  0  0  0  0
 12 11  3  0  0  0  0
 13 14  1  0  0  0  0
 14 15  1  0  0  0  0
 14 16  1  0  0  0  0
 17 14  1  0  0  0  0
M  RAD  1   3   2
M  END
