Coordinates from ORCA-job 4-CH3O-Ph-N2+-scan-d090-169-n800
 OpenBabel09191814063D

 17 16  0  0  0  0  0  0  0  0999 V2000
   -2.9146   -0.1573    0.2492 C   0  0  0  0  0  0  0  0  0  0  0  0
   -1.5950   -0.1526   -0.2665 C   0  0  0  0  0  0  0  0  0  0  0  0
   -1.1995    1.1267   -0.3168 C   0  0  0  0  0  0  0  0  0  0  0  0
   -1.4222    2.3189    0.2603 C   0  0  0  0  0  0  0  0  0  0  0  0
   -2.7349    2.2443    0.7720 C   0  0  0  0  0  0  0  0  0  0  0  0
   -3.4719    1.0271    0.7888 C   0  0  0  0  0  0  0  0  0  0  0  0
   -3.4638   -1.0915    0.2056 H   0  0  0  0  0  0  0  0  0  0  0  0
   -1.0739   -1.0371   -0.6164 H   0  0  0  0  0  0  0  0  0  0  0  0
   -0.8401    3.2320    0.2116 H   0  0  0  0  0  0  0  0  0  0  0  0
   -3.2132    3.1647    1.0981 H   0  0  0  0  0  0  0  0  0  0  0  0
    8.4919    0.6536   -2.2377 N   0  0  0  0  0  0  0  0  0  0  0  0
    9.5684    0.6210   -2.4869 N   0  0  0  0  0  0  0  0  0  0  0  0
   -4.6826    1.1170    1.3236 O   0  0  0  0  0  0  0  0  0  0  0  0
   -5.5064   -0.0596    1.4602 C   0  0  0  0  0  0  0  0  0  0  0  0
   -6.4289    0.2895    1.9204 H   0  0  0  0  0  0  0  0  0  0  0  0
   -5.0203   -0.7947    2.1084 H   0  0  0  0  0  0  0  0  0  0  0  0
   -5.7225   -0.4887    0.4760 H   0  0  0  0  0  0  0  0  0  0  0  0
  1  6  2  0  0  0  0
  2  1  1  0  0  0  0
  3  2  2  0  0  0  0
  3  4  1  0  0  0  0
  4  5  2  0  0  0  0
  5  6  1  0  0  0  0
  5 10  1  0  0  0  0
  6 13  1  0  0  0  0
  7  1  1  0  0  0  0
  8  2  1  0  0  0  0
  9  4  1  0  0  0  0
 12 11  3  0  0  0  0
 13 14  1  0  0  0  0
 14 15  1  0  0  0  0
 14 16  1  0  0  0  0
 17 14  1  0  0  0  0
M  RAD  1   3   2
M  END
