Coordinates from ORCA-job 4-CH3O-Ph-N2+-scan-d090-169-n800
 OpenBabel09191814063D

 17 16  0  0  0  0  0  0  0  0999 V2000
   -3.8654    0.1479   -0.1803 C   0  0  0  0  0  0  0  0  0  0  0  0
   -3.4380    0.5916   -1.4553 C   0  0  0  0  0  0  0  0  0  0  0  0
   -3.3601    1.9292   -1.4023 C   0  0  0  0  0  0  0  0  0  0  0  0
   -3.1638    2.9325   -0.5306 C   0  0  0  0  0  0  0  0  0  0  0  0
   -3.5836    2.4264    0.7174 C   0  0  0  0  0  0  0  0  0  0  0  0
   -3.9127    1.0543    0.9063 C   0  0  0  0  0  0  0  0  0  0  0  0
   -4.1482   -0.8945   -0.0816 H   0  0  0  0  0  0  0  0  0  0  0  0
   -3.2896   -0.0603   -2.3094 H   0  0  0  0  0  0  0  0  0  0  0  0
   -2.9307    3.9750   -0.7148 H   0  0  0  0  0  0  0  0  0  0  0  0
   -3.7256    3.1272    1.5364 H   0  0  0  0  0  0  0  0  0  0  0  0
   12.9173   -0.1632   -1.9184 N   0  0  0  0  0  0  0  0  0  0  0  0
   14.0151   -0.2577   -2.0081 N   0  0  0  0  0  0  0  0  0  0  0  0
   -4.2651    0.7328    2.1438 O   0  0  0  0  0  0  0  0  0  0  0  0
   -4.5614   -0.6381    2.4835 C   0  0  0  0  0  0  0  0  0  0  0  0
   -4.8185   -0.6209    3.5410 H   0  0  0  0  0  0  0  0  0  0  0  0
   -3.6838   -1.2708    2.3222 H   0  0  0  0  0  0  0  0  0  0  0  0
   -5.4155   -0.9979    1.9000 H   0  0  0  0  0  0  0  0  0  0  0  0
  1  7  1  0  0  0  0
  1  6  2  0  0  0  0
  2  3  2  0  0  0  0
  2  1  1  0  0  0  0
  3  4  1  0  0  0  0
  4  5  2  0  0  0  0
  5  6  1  0  0  0  0
  5 10  1  0  0  0  0
  6 13  1  0  0  0  0
  8  2  1  0  0  0  0
  9  4  1  0  0  0  0
 12 11  3  0  0  0  0
 13 14  1  0  0  0  0
 14 15  1  0  0  0  0
 16 14  1  0  0  0  0
 17 14  1  0  0  0  0
M  RAD  1   3   2
M  END
