Coordinates from ORCA-job 4-CH3O-Ph-N2+-scan-d090-169-n800
 OpenBabel09191814063D

 17 16  0  0  0  0  0  0  0  0999 V2000
   -3.6609    0.0560   -0.0660 C   0  0  0  0  0  0  0  0  0  0  0  0
   -2.8490    0.3660   -1.1844 C   0  0  0  0  0  0  0  0  0  0  0  0
   -2.6484    1.6916   -1.1694 C   0  0  0  0  0  0  0  0  0  0  0  0
   -2.6020    2.7353   -0.3248 C   0  0  0  0  0  0  0  0  0  0  0  0
   -3.4055    2.3598    0.7724 C   0  0  0  0  0  0  0  0  0  0  0  0
   -3.9165    1.0396    0.9198 C   0  0  0  0  0  0  0  0  0  0  0  0
   -4.0685   -0.9472   -0.0063 H   0  0  0  0  0  0  0  0  0  0  0  0
   -2.5374   -0.3559   -1.9314 H   0  0  0  0  0  0  0  0  0  0  0  0
   -2.2150    3.7359   -0.4802 H   0  0  0  0  0  0  0  0  0  0  0  0
   -3.6951    3.1280    1.4853 H   0  0  0  0  0  0  0  0  0  0  0  0
   12.4703    0.1258   -2.2501 N   0  0  0  0  0  0  0  0  0  0  0  0
   13.5651    0.0477   -2.3825 N   0  0  0  0  0  0  0  0  0  0  0  0
   -4.6342    0.8407    2.0173 O   0  0  0  0  0  0  0  0  0  0  0  0
   -5.1550   -0.4708    2.3186 C   0  0  0  0  0  0  0  0  0  0  0  0
   -5.6954   -0.3551    3.2562 H   0  0  0  0  0  0  0  0  0  0  0  0
   -4.3383   -1.1879    2.4438 H   0  0  0  0  0  0  0  0  0  0  0  0
   -5.8436   -0.7962    1.5315 H   0  0  0  0  0  0  0  0  0  0  0  0
  1  7  1  0  0  0  0
  1  6  2  0  0  0  0
  2  3  2  0  0  0  0
  2  1  1  0  0  0  0
  3  4  1  0  0  0  0
  4  5  2  0  0  0  0
  5  6  1  0  0  0  0
  5 10  1  0  0  0  0
  6 13  1  0  0  0  0
  8  2  1  0  0  0  0
  9  4  1  0  0  0  0
 12 11  3  0  0  0  0
 13 14  1  0  0  0  0
 14 16  1  0  0  0  0
 14 15  1  0  0  0  0
 17 14  1  0  0  0  0
M  RAD  1   3   2
M  END
