Coordinates from ORCA-job 4-CH3O-Ph-N2+-scan-d090-169-n800
 OpenBabel09191814063D

 17 16  0  0  0  0  0  0  0  0999 V2000
   -3.9238    0.1690   -0.2014 C   0  0  0  0  0  0  0  0  0  0  0  0
   -3.6110    0.6403   -1.4997 C   0  0  0  0  0  0  0  0  0  0  0  0
   -3.5659    1.9788   -1.4331 C   0  0  0  0  0  0  0  0  0  0  0  0
   -3.3303    2.9772   -0.5657 C   0  0  0  0  0  0  0  0  0  0  0  0
   -3.6359    2.4436    0.7041 C   0  0  0  0  0  0  0  0  0  0  0  0
   -3.9105    1.0604    0.8984 C   0  0  0  0  0  0  0  0  0  0  0  0
   -4.1686   -0.8822   -0.0957 H   0  0  0  0  0  0  0  0  0  0  0  0
   -3.5120    0.0039   -2.3724 H   0  0  0  0  0  0  0  0  0  0  0  0
   -3.1416    4.0281   -0.7528 H   0  0  0  0  0  0  0  0  0  0  0  0
   -3.7325    3.1300    1.5418 H   0  0  0  0  0  0  0  0  0  0  0  0
   13.0411   -0.2445   -1.8264 N   0  0  0  0  0  0  0  0  0  0  0  0
   14.1393   -0.3428   -1.9065 N   0  0  0  0  0  0  0  0  0  0  0  0
   -4.1551    0.7138    2.1551 O   0  0  0  0  0  0  0  0  0  0  0  0
   -4.3854   -0.6691    2.4971 C   0  0  0  0  0  0  0  0  0  0  0  0
   -4.5587   -0.6724    3.5716 H   0  0  0  0  0  0  0  0  0  0  0  0
   -3.5060   -1.2743    2.2582 H   0  0  0  0  0  0  0  0  0  0  0  0
   -5.2726   -1.0463    1.9772 H   0  0  0  0  0  0  0  0  0  0  0  0
  1  7  1  0  0  0  0
  1  6  2  0  0  0  0
  2  3  2  0  0  0  0
  2  1  1  0  0  0  0
  3  4  1  0  0  0  0
  4  5  2  0  0  0  0
  5  6  1  0  0  0  0
  5 10  1  0  0  0  0
  6 13  1  0  0  0  0
  8  2  1  0  0  0  0
  9  4  1  0  0  0  0
 12 11  3  0  0  0  0
 13 14  1  0  0  0  0
 14 15  1  0  0  0  0
 16 14  1  0  0  0  0
 17 14  1  0  0  0  0
M  RAD  1   3   2
M  END
