Coordinates from ORCA-job 4-CH3O-Ph-N2+-scan-d090-169-n800
 OpenBabel09191814063D

 17 16  0  0  0  0  0  0  0  0999 V2000
   -2.2404   -0.2007    0.1725 C   0  0  0  0  0  0  0  0  0  0  0  0
   -0.8841   -0.2501   -0.2385 C   0  0  0  0  0  0  0  0  0  0  0  0
   -0.4523    1.0158   -0.2940 C   0  0  0  0  0  0  0  0  0  0  0  0
   -0.6902    2.2372    0.2094 C   0  0  0  0  0  0  0  0  0  0  0  0
   -2.0407    2.2133    0.6184 C   0  0  0  0  0  0  0  0  0  0  0  0
   -2.8078    1.0157    0.6209 C   0  0  0  0  0  0  0  0  0  0  0  0
   -2.8088   -1.1229    0.1190 H   0  0  0  0  0  0  0  0  0  0  0  0
   -0.3623   -1.1587   -0.5175 H   0  0  0  0  0  0  0  0  0  0  0  0
   -0.0787    3.1315    0.1765 H   0  0  0  0  0  0  0  0  0  0  0  0
   -2.5165    3.1559    0.8774 H   0  0  0  0  0  0  0  0  0  0  0  0
    3.4926    0.8215   -1.1624 N   0  0  0  0  0  0  0  0  0  0  0  0
    4.5617    0.7903   -1.4409 N   0  0  0  0  0  0  0  0  0  0  0  0
   -4.0556    1.1538    1.0527 O   0  0  0  0  0  0  0  0  0  0  0  0
   -4.9162    0.0019    1.1640 C   0  0  0  0  0  0  0  0  0  0  0  0
   -5.8633    0.3874    1.5371 H   0  0  0  0  0  0  0  0  0  0  0  0
   -4.5015   -0.7201    1.8738 H   0  0  0  0  0  0  0  0  0  0  0  0
   -5.0654   -0.4584    0.1813 H   0  0  0  0  0  0  0  0  0  0  0  0
  1  6  2  0  0  0  0
  2  1  1  0  0  0  0
  3  2  2  0  0  0  0
  3  4  1  0  0  0  0
  4  5  2  0  0  0  0
  5  6  1  0  0  0  0
  5 10  1  0  0  0  0
  6 13  1  0  0  0  0
  7  1  1  0  0  0  0
  8  2  1  0  0  0  0
  9  4  1  0  0  0  0
 12 11  3  0  0  0  0
 13 14  1  0  0  0  0
 14 15  1  0  0  0  0
 14 16  1  0  0  0  0
 17 14  1  0  0  0  0
M  RAD  1   3   2
M  END
