Coordinates from ORCA-job 4-CH3O-Ph-N2+-scan-d090-169-n800
 OpenBabel09191814063D

 17 16  0  0  0  0  0  0  0  0999 V2000
   -2.6785   -0.1652    0.2273 C   0  0  0  0  0  0  0  0  0  0  0  0
   -1.3427   -0.1683   -0.2452 C   0  0  0  0  0  0  0  0  0  0  0  0
   -0.9445    1.1100   -0.2988 C   0  0  0  0  0  0  0  0  0  0  0  0
   -1.1849    2.3099    0.2547 C   0  0  0  0  0  0  0  0  0  0  0  0
   -2.5136    2.2428    0.7242 C   0  0  0  0  0  0  0  0  0  0  0  0
   -3.2520    1.0264    0.7327 C   0  0  0  0  0  0  0  0  0  0  0  0
   -3.2269   -1.0996    0.1777 H   0  0  0  0  0  0  0  0  0  0  0  0
   -0.8115   -1.0575   -0.5666 H   0  0  0  0  0  0  0  0  0  0  0  0
   -0.6003    3.2218    0.2134 H   0  0  0  0  0  0  0  0  0  0  0  0
   -3.0012    3.1676    1.0228 H   0  0  0  0  0  0  0  0  0  0  0  0
    6.8104    0.6744   -1.8919 N   0  0  0  0  0  0  0  0  0  0  0  0
    7.8858    0.6417   -2.1456 N   0  0  0  0  0  0  0  0  0  0  0  0
   -4.4794    1.1239    1.2264 O   0  0  0  0  0  0  0  0  0  0  0  0
   -5.3083   -0.0503    1.3513 C   0  0  0  0  0  0  0  0  0  0  0  0
   -6.2451    0.3051    1.7766 H   0  0  0  0  0  0  0  0  0  0  0  0
   -4.8443   -0.7773    2.0244 H   0  0  0  0  0  0  0  0  0  0  0  0
   -5.4926   -0.4921    0.3662 H   0  0  0  0  0  0  0  0  0  0  0  0
  1  6  2  0  0  0  0
  2  1  1  0  0  0  0
  3  2  2  0  0  0  0
  3  4  1  0  0  0  0
  4  5  2  0  0  0  0
  5  6  1  0  0  0  0
  5 10  1  0  0  0  0
  6 13  1  0  0  0  0
  7  1  1  0  0  0  0
  8  2  1  0  0  0  0
  9  4  1  0  0  0  0
 12 11  3  0  0  0  0
 13 14  1  0  0  0  0
 14 15  1  0  0  0  0
 14 16  1  0  0  0  0
 17 14  1  0  0  0  0
M  RAD  1   3   2
M  END
