Coordinates from ORCA-job 4-CH3O-Ph-N2+-scan-d090-169-n800
 OpenBabel09191814063D

 17 16  0  0  0  0  0  0  0  0999 V2000
   -2.1858   -0.2079    0.1769 C   0  0  0  0  0  0  0  0  0  0  0  0
   -0.8245   -0.2711   -0.2182 C   0  0  0  0  0  0  0  0  0  0  0  0
   -0.3831    0.9907   -0.2680 C   0  0  0  0  0  0  0  0  0  0  0  0
   -0.6234    2.2196    0.2139 C   0  0  0  0  0  0  0  0  0  0  0  0
   -1.9791    2.2070    0.6067 C   0  0  0  0  0  0  0  0  0  0  0  0
   -2.7527    1.0145    0.6083 C   0  0  0  0  0  0  0  0  0  0  0  0
   -2.7588   -1.1271    0.1218 H   0  0  0  0  0  0  0  0  0  0  0  0
   -0.3080   -1.1847   -0.4894 H   0  0  0  0  0  0  0  0  0  0  0  0
   -0.0043    3.1084    0.1845 H   0  0  0  0  0  0  0  0  0  0  0  0
   -2.4504    3.1538    0.8582 H   0  0  0  0  0  0  0  0  0  0  0  0
    3.0820    0.8534   -1.0875 N   0  0  0  0  0  0  0  0  0  0  0  0
    4.1444    0.8283   -1.3909 N   0  0  0  0  0  0  0  0  0  0  0  0
   -4.0062    1.1622    1.0221 O   0  0  0  0  0  0  0  0  0  0  0  0
   -4.8731    0.0151    1.1287 C   0  0  0  0  0  0  0  0  0  0  0  0
   -5.8230    0.4066    1.4881 H   0  0  0  0  0  0  0  0  0  0  0  0
   -4.4709   -0.7053    1.8474 H   0  0  0  0  0  0  0  0  0  0  0  0
   -5.0126   -0.4501    0.1469 H   0  0  0  0  0  0  0  0  0  0  0  0
  1  6  2  0  0  0  0
  2  1  1  0  0  0  0
  3  2  2  0  0  0  0
  3  4  1  0  0  0  0
  4  5  2  0  0  0  0
  5  6  1  0  0  0  0
  5 10  1  0  0  0  0
  6 13  1  0  0  0  0
  7  1  1  0  0  0  0
  8  2  1  0  0  0  0
  9  4  1  0  0  0  0
 12 11  3  0  0  0  0
 13 14  1  0  0  0  0
 14 15  1  0  0  0  0
 14 16  1  0  0  0  0
 17 14  1  0  0  0  0
M  RAD  1   3   2
M  END
