Coordinates from ORCA-job 4-CH3O-Ph-N2+-scan-d090-169-n800
 OpenBabel09191814063D

 17 16  0  0  0  0  0  0  0  0999 V2000
   -2.7888   -0.1623    0.2399 C   0  0  0  0  0  0  0  0  0  0  0  0
   -1.4593   -0.1629   -0.2498 C   0  0  0  0  0  0  0  0  0  0  0  0
   -1.0617    1.1157   -0.3022 C   0  0  0  0  0  0  0  0  0  0  0  0
   -1.2947    2.3126    0.2608 C   0  0  0  0  0  0  0  0  0  0  0  0
   -2.6172    2.2431    0.7472 C   0  0  0  0  0  0  0  0  0  0  0  0
   -3.3555    1.0266    0.7590 C   0  0  0  0  0  0  0  0  0  0  0  0
   -3.3379   -1.0964    0.1928 H   0  0  0  0  0  0  0  0  0  0  0  0
   -0.9324   -1.0505   -0.5826 H   0  0  0  0  0  0  0  0  0  0  0  0
   -0.7107    3.2248    0.2165 H   0  0  0  0  0  0  0  0  0  0  0  0
   -3.1008    3.1663    1.0567 H   0  0  0  0  0  0  0  0  0  0  0  0
    7.6004    0.6667   -2.0593 N   0  0  0  0  0  0  0  0  0  0  0  0
    8.6763    0.6344   -2.3114 N   0  0  0  0  0  0  0  0  0  0  0  0
   -4.5764    1.1217    1.2692 O   0  0  0  0  0  0  0  0  0  0  0  0
   -5.4038   -0.0531    1.3988 C   0  0  0  0  0  0  0  0  0  0  0  0
   -6.3349    0.3002    1.8380 H   0  0  0  0  0  0  0  0  0  0  0  0
   -4.9312   -0.7835    2.0621 H   0  0  0  0  0  0  0  0  0  0  0  0
   -5.6009   -0.4898    0.4139 H   0  0  0  0  0  0  0  0  0  0  0  0
  1  6  2  0  0  0  0
  2  1  1  0  0  0  0
  3  2  2  0  0  0  0
  3  4  1  0  0  0  0
  4  5  2  0  0  0  0
  5  6  1  0  0  0  0
  5 10  1  0  0  0  0
  6 13  1  0  0  0  0
  7  1  1  0  0  0  0
  8  2  1  0  0  0  0
  9  4  1  0  0  0  0
 12 11  3  0  0  0  0
 13 14  1  0  0  0  0
 14 15  1  0  0  0  0
 14 16  1  0  0  0  0
 17 14  1  0  0  0  0
M  RAD  1   3   2
M  END
