Coordinates from ORCA-job 4-CH3O-Ph-N2+-scan-d090-169-n800
 OpenBabel09191814063D

 17 16  0  0  0  0  0  0  0  0999 V2000
   -2.9756   -0.1533    0.2504 C   0  0  0  0  0  0  0  0  0  0  0  0
   -1.6628   -0.1445   -0.2827 C   0  0  0  0  0  0  0  0  0  0  0  0
   -1.2697    1.1358   -0.3310 C   0  0  0  0  0  0  0  0  0  0  0  0
   -1.4863    2.3250    0.2546 C   0  0  0  0  0  0  0  0  0  0  0  0
   -2.7922    2.2457    0.7830 C   0  0  0  0  0  0  0  0  0  0  0  0
   -3.5274    1.0275    0.8030 C   0  0  0  0  0  0  0  0  0  0  0  0
   -3.5241   -1.0881    0.2094 H   0  0  0  0  0  0  0  0  0  0  0  0
   -1.1449   -1.0264   -0.6435 H   0  0  0  0  0  0  0  0  0  0  0  0
   -0.9059    3.2390    0.2036 H   0  0  0  0  0  0  0  0  0  0  0  0
   -3.2674    3.1636    1.1203 H   0  0  0  0  0  0  0  0  0  0  0  0
    8.9189    0.6436   -2.3163 N   0  0  0  0  0  0  0  0  0  0  0  0
    9.9959    0.6107   -2.5633 N   0  0  0  0  0  0  0  0  0  0  0  0
   -4.7312    1.1131    1.3539 O   0  0  0  0  0  0  0  0  0  0  0  0
   -5.5517   -0.0653    1.4950 C   0  0  0  0  0  0  0  0  0  0  0  0
   -6.4686    0.2801    1.9689 H   0  0  0  0  0  0  0  0  0  0  0  0
   -5.0564   -0.8032    2.1330 H   0  0  0  0  0  0  0  0  0  0  0  0
   -5.7800   -0.4896    0.5114 H   0  0  0  0  0  0  0  0  0  0  0  0
  1  6  2  0  0  0  0
  2  1  1  0  0  0  0
  3  2  2  0  0  0  0
  3  4  1  0  0  0  0
  4  5  2  0  0  0  0
  5  6  1  0  0  0  0
  5 10  1  0  0  0  0
  6 13  1  0  0  0  0
  7  1  1  0  0  0  0
  8  2  1  0  0  0  0
  9  4  1  0  0  0  0
 12 11  3  0  0  0  0
 13 14  1  0  0  0  0
 14 15  1  0  0  0  0
 14 16  1  0  0  0  0
 17 14  1  0  0  0  0
M  RAD  1   3   2
M  END
