Coordinates from ORCA-job 4-CH3O-Ph-N2+-scan-d090-169-n800
 OpenBabel09191814063D

 17 17  0  0  0  0  0  0  0  0999 V2000
   -1.9249   -0.2252    0.1536 C   0  0  0  0  0  0  0  0  0  0  0  0
   -0.6195   -0.2723   -0.2458 C   0  0  0  0  0  0  0  0  0  0  0  0
    0.2090    0.9265   -0.2831 C   0  0  0  0  0  0  0  0  0  0  0  0
   -0.4244    2.1801    0.1271 C   0  0  0  0  0  0  0  0  0  0  0  0
   -1.7260    2.2088    0.5220 C   0  0  0  0  0  0  0  0  0  0  0  0
   -2.5064    1.0146    0.5458 C   0  0  0  0  0  0  0  0  0  0  0  0
   -2.5068   -1.1388    0.1672 H   0  0  0  0  0  0  0  0  0  0  0  0
   -0.1583   -1.2080   -0.5485 H   0  0  0  0  0  0  0  0  0  0  0  0
    0.1828    3.0800    0.1035 H   0  0  0  0  0  0  0  0  0  0  0  0
   -2.1984    3.1366    0.8267 H   0  0  0  0  0  0  0  0  0  0  0  0
    1.2223    0.8915   -0.5928 N   0  0  0  0  0  0  0  0  0  0  0  0
    2.3152    0.8569   -0.9264 N   0  0  0  0  0  0  0  0  0  0  0  0
   -3.7467    1.1619    0.9433 O   0  0  0  0  0  0  0  0  0  0  0  0
   -4.6614    0.0386    1.0198 C   0  0  0  0  0  0  0  0  0  0  0  0
   -5.5973    0.4647    1.3751 H   0  0  0  0  0  0  0  0  0  0  0  0
   -4.2891   -0.7011    1.7332 H   0  0  0  0  0  0  0  0  0  0  0  0
   -4.7996   -0.4015    0.0289 H   0  0  0  0  0  0  0  0  0  0  0  0
  1  7  1  0  0  0  0
  1  6  2  0  0  0  0
  2  1  1  0  0  0  0
  3  2  2  0  0  0  0
  3  4  1  0  0  0  0
  4  5  2  0  0  0  0
  5  6  1  0  0  0  0
  5 10  1  0  0  0  0
  6 13  1  0  0  0  0
  8  2  1  0  0  0  0
  9  4  1  0  0  0  0
 11  3  1  0  0  0  0
 12 11  1  0  0  0  0
 13 14  1  0  0  0  0
 14 15  1  0  0  0  0
 14 16  1  0  0  0  0
 17 14  1  0  0  0  0
M  RAD  2  11   2  12   3
M  END
