Coordinates from ORCA-job 4-CH3O-Ph-N2+-scan-d090-169-n800
 OpenBabel09191814063D

 17 16  0  0  0  0  0  0  0  0999 V2000
   -3.3589   -0.0764    0.1428 C   0  0  0  0  0  0  0  0  0  0  0  0
   -2.1842    0.0378   -0.6411 C   0  0  0  0  0  0  0  0  0  0  0  0
   -1.8553    1.3369   -0.6658 C   0  0  0  0  0  0  0  0  0  0  0  0
   -1.9890    2.4683    0.0459 C   0  0  0  0  0  0  0  0  0  0  0  0
   -3.1554    2.2849    0.8182 C   0  0  0  0  0  0  0  0  0  0  0  0
   -3.8273    1.0323    0.8881 C   0  0  0  0  0  0  0  0  0  0  0  0
   -3.8704   -1.0328    0.1387 H   0  0  0  0  0  0  0  0  0  0  0  0
   -1.7194   -0.7885   -1.1678 H   0  0  0  0  0  0  0  0  0  0  0  0
   -1.4643    3.4122   -0.0477 H   0  0  0  0  0  0  0  0  0  0  0  0
   -3.5842    3.1509    1.3164 H   0  0  0  0  0  0  0  0  0  0  0  0
   11.3389    0.4561   -2.5382 N   0  0  0  0  0  0  0  0  0  0  0  0
   12.4245    0.4050   -2.7405 N   0  0  0  0  0  0  0  0  0  0  0  0
   -4.8950    1.0170    1.6752 O   0  0  0  0  0  0  0  0  0  0  0  0
   -5.6272   -0.2086    1.8838 C   0  0  0  0  0  0  0  0  0  0  0  0
   -6.4396    0.0551    2.5584 H   0  0  0  0  0  0  0  0  0  0  0  0
   -4.9862   -0.9639    2.3480 H   0  0  0  0  0  0  0  0  0  0  0  0
   -6.0365   -0.5729    0.9354 H   0  0  0  0  0  0  0  0  0  0  0  0
  1  6  2  0  0  0  0
  2  1  1  0  0  0  0
  3  2  2  0  0  0  0
  3  4  1  0  0  0  0
  4  5  2  0  0  0  0
  5  6  1  0  0  0  0
  5 10  1  0  0  0  0
  6 13  1  0  0  0  0
  7  1  1  0  0  0  0
  8  2  1  0  0  0  0
  9  4  1  0  0  0  0
 12 11  3  0  0  0  0
 13 14  1  0  0  0  0
 14 16  1  0  0  0  0
 14 15  1  0  0  0  0
 17 14  1  0  0  0  0
M  RAD  1   3   2
M  END
