Coordinates from ORCA-job 4-CH3O-Ph-N2+-scan-d090-169-n800
 OpenBabel09191814063D

 17 16  0  0  0  0  0  0  0  0999 V2000
   -2.5717   -0.1675    0.2128 C   0  0  0  0  0  0  0  0  0  0  0  0
   -1.2309   -0.1736   -0.2463 C   0  0  0  0  0  0  0  0  0  0  0  0
   -0.8320    1.1044   -0.2995 C   0  0  0  0  0  0  0  0  0  0  0  0
   -1.0781    2.3074    0.2446 C   0  0  0  0  0  0  0  0  0  0  0  0
   -2.4117    2.2423    0.7008 C   0  0  0  0  0  0  0  0  0  0  0  0
   -3.1502    1.0262    0.7069 C   0  0  0  0  0  0  0  0  0  0  0  0
   -3.1198   -1.1020    0.1615 H   0  0  0  0  0  0  0  0  0  0  0  0
   -0.6969   -1.0643   -0.5587 H   0  0  0  0  0  0  0  0  0  0  0  0
   -0.4924    3.2188    0.2060 H   0  0  0  0  0  0  0  0  0  0  0  0
   -2.9019    3.1683    0.9912 H   0  0  0  0  0  0  0  0  0  0  0  0
    6.0373    0.6832   -1.7223 N   0  0  0  0  0  0  0  0  0  0  0  0
    7.1122    0.6485   -1.9777 N   0  0  0  0  0  0  0  0  0  0  0  0
   -4.3830    1.1259    1.1872 O   0  0  0  0  0  0  0  0  0  0  0  0
   -5.2130   -0.0478    1.3084 C   0  0  0  0  0  0  0  0  0  0  0  0
   -6.1541    0.3092    1.7225 H   0  0  0  0  0  0  0  0  0  0  0  0
   -4.7560   -0.7720    1.9891 H   0  0  0  0  0  0  0  0  0  0  0  0
   -5.3873   -0.4936    0.3232 H   0  0  0  0  0  0  0  0  0  0  0  0
  1  6  2  0  0  0  0
  2  1  1  0  0  0  0
  3  2  2  0  0  0  0
  3  4  1  0  0  0  0
  4  5  2  0  0  0  0
  5  6  1  0  0  0  0
  5 10  1  0  0  0  0
  6 13  1  0  0  0  0
  7  1  1  0  0  0  0
  8  2  1  0  0  0  0
  9  4  1  0  0  0  0
 12 11  3  0  0  0  0
 13 14  1  0  0  0  0
 14 15  1  0  0  0  0
 14 16  1  0  0  0  0
 17 14  1  0  0  0  0
M  RAD  1   3   2
M  END
