Coordinates from ORCA-job 4-CH3O-Ph-N2+-scan-d090-169-n800
 OpenBabel09191814063D

 17 16  0  0  0  0  0  0  0  0999 V2000
   -2.4133   -0.1757    0.1888 C   0  0  0  0  0  0  0  0  0  0  0  0
   -1.0663   -0.1918   -0.2518 C   0  0  0  0  0  0  0  0  0  0  0  0
   -0.6603    1.0837   -0.3063 C   0  0  0  0  0  0  0  0  0  0  0  0
   -0.9082    2.2918    0.2253 C   0  0  0  0  0  0  0  0  0  0  0  0
   -2.2483    2.2363    0.6634 C   0  0  0  0  0  0  0  0  0  0  0  0
   -2.9928    1.0239    0.6671 C   0  0  0  0  0  0  0  0  0  0  0  0
   -2.9653   -1.1078    0.1359 H   0  0  0  0  0  0  0  0  0  0  0  0
   -0.5326   -1.0869   -0.5516 H   0  0  0  0  0  0  0  0  0  0  0  0
   -0.3170    3.1997    0.1893 H   0  0  0  0  0  0  0  0  0  0  0  0
   -2.7376    3.1664    0.9418 H   0  0  0  0  0  0  0  0  0  0  0  0
    4.8551    0.7171   -1.4562 N   0  0  0  0  0  0  0  0  0  0  0  0
    5.9289    0.6787   -1.7155 N   0  0  0  0  0  0  0  0  0  0  0  0
   -4.2319    1.1327    1.1293 O   0  0  0  0  0  0  0  0  0  0  0  0
   -5.0690   -0.0363    1.2461 C   0  0  0  0  0  0  0  0  0  0  0  0
   -6.0141    0.3276    1.6450 H   0  0  0  0  0  0  0  0  0  0  0  0
   -4.6250   -0.7585    1.9376 H   0  0  0  0  0  0  0  0  0  0  0  0
   -5.2318   -0.4874    0.2614 H   0  0  0  0  0  0  0  0  0  0  0  0
  1  6  2  0  0  0  0
  2  1  1  0  0  0  0
  3  2  2  0  0  0  0
  3  4  1  0  0  0  0
  4  5  2  0  0  0  0
  5  6  1  0  0  0  0
  5 10  1  0  0  0  0
  6 13  1  0  0  0  0
  7  1  1  0  0  0  0
  8  2  1  0  0  0  0
  9  4  1  0  0  0  0
 12 11  3  0  0  0  0
 13 14  1  0  0  0  0
 14 15  1  0  0  0  0
 14 16  1  0  0  0  0
 17 14  1  0  0  0  0
M  RAD  1   3   2
M  END
