Coordinates from ORCA-job 4-CH3O-Ph-N2+-scan-d090-169-n800
 OpenBabel09191814063D

 17 16  0  0  0  0  0  0  0  0999 V2000
   -2.1087   -0.2070    0.2114 C   0  0  0  0  0  0  0  0  0  0  0  0
   -0.7482   -0.2895   -0.2105 C   0  0  0  0  0  0  0  0  0  0  0  0
   -0.2777    0.9513   -0.1341 C   0  0  0  0  0  0  0  0  0  0  0  0
   -0.5595    2.2200    0.1746 C   0  0  0  0  0  0  0  0  0  0  0  0
   -1.9160    2.2093    0.5791 C   0  0  0  0  0  0  0  0  0  0  0  0
   -2.6867    1.0207    0.6008 C   0  0  0  0  0  0  0  0  0  0  0  0
   -2.6626   -1.1395    0.2128 H   0  0  0  0  0  0  0  0  0  0  0  0
   -0.2584   -1.2049   -0.5180 H   0  0  0  0  0  0  0  0  0  0  0  0
    0.0655    3.1037    0.1428 H   0  0  0  0  0  0  0  0  0  0  0  0
   -2.3628    3.1537    0.8786 H   0  0  0  0  0  0  0  0  0  0  0  0
    2.5749    0.8707   -1.0013 N   0  0  0  0  0  0  0  0  0  0  0  0
    3.6319    0.8439   -1.3220 N   0  0  0  0  0  0  0  0  0  0  0  0
   -3.9478    1.1712    1.0052 O   0  0  0  0  0  0  0  0  0  0  0  0
   -4.8191    0.0274    1.0655 C   0  0  0  0  0  0  0  0  0  0  0  0
   -5.7745    0.4113    1.4192 H   0  0  0  0  0  0  0  0  0  0  0  0
   -4.4346   -0.7140    1.7741 H   0  0  0  0  0  0  0  0  0  0  0  0
   -4.9449   -0.4150    0.0715 H   0  0  0  0  0  0  0  0  0  0  0  0
  1  7  1  0  0  0  0
  1  6  2  0  0  0  0
  2  3  2  0  0  0  0
  2  1  1  0  0  0  0
  3  4  1  0  0  0  0
  4  5  2  0  0  0  0
  5  6  1  0  0  0  0
  5 10  1  0  0  0  0
  6 13  1  0  0  0  0
  8  2  1  0  0  0  0
  9  4  1  0  0  0  0
 12 11  3  0  0  0  0
 13 14  1  0  0  0  0
 14 15  1  0  0  0  0
 14 16  1  0  0  0  0
 17 14  1  0  0  0  0
M  RAD  1   3   2
M  END
