Coordinates from ORCA-job 4-CH3O-Ph-N2+-scan-d090-169-n800
 OpenBabel09191814063D

 17 16  0  0  0  0  0  0  0  0999 V2000
   -2.6356   -0.1662    0.2216 C   0  0  0  0  0  0  0  0  0  0  0  0
   -1.2977   -0.1701   -0.2449 C   0  0  0  0  0  0  0  0  0  0  0  0
   -0.8993    1.1080   -0.2988 C   0  0  0  0  0  0  0  0  0  0  0  0
   -1.1422    2.3089    0.2512 C   0  0  0  0  0  0  0  0  0  0  0  0
   -2.4729    2.2427    0.7150 C   0  0  0  0  0  0  0  0  0  0  0  0
   -3.2113    1.0263    0.7224 C   0  0  0  0  0  0  0  0  0  0  0  0
   -3.1838   -1.1006    0.1713 H   0  0  0  0  0  0  0  0  0  0  0  0
   -0.7652   -1.0600   -0.5625 H   0  0  0  0  0  0  0  0  0  0  0  0
   -0.5573    3.2208    0.2110 H   0  0  0  0  0  0  0  0  0  0  0  0
   -2.9618    3.1680    1.0099 H   0  0  0  0  0  0  0  0  0  0  0  0
    6.5011    0.6775   -1.8247 N   0  0  0  0  0  0  0  0  0  0  0  0
    7.5764    0.6442   -2.0791 N   0  0  0  0  0  0  0  0  0  0  0  0
   -4.4410    1.1247    1.2105 O   0  0  0  0  0  0  0  0  0  0  0  0
   -5.2704   -0.0494    1.3338 C   0  0  0  0  0  0  0  0  0  0  0  0
   -6.2090    0.3067    1.7543 H   0  0  0  0  0  0  0  0  0  0  0  0
   -4.8093   -0.7752    2.0102 H   0  0  0  0  0  0  0  0  0  0  0  0
   -5.4503   -0.4929    0.3486 H   0  0  0  0  0  0  0  0  0  0  0  0
  1  6  2  0  0  0  0
  2  1  1  0  0  0  0
  3  2  2  0  0  0  0
  3  4  1  0  0  0  0
  4  5  2  0  0  0  0
  5  6  1  0  0  0  0
  5 10  1  0  0  0  0
  6 13  1  0  0  0  0
  7  1  1  0  0  0  0
  8  2  1  0  0  0  0
  9  4  1  0  0  0  0
 12 11  3  0  0  0  0
 13 14  1  0  0  0  0
 14 15  1  0  0  0  0
 14 16  1  0  0  0  0
 17 14  1  0  0  0  0
M  RAD  1   3   2
M  END
