Coordinates from ORCA-job 4-CH3O-Ph-N2+-scan-d090-169-n800
 OpenBabel09191814063D

 17 16  0  0  0  0  0  0  0  0999 V2000
   -2.2554   -0.1981    0.1727 C   0  0  0  0  0  0  0  0  0  0  0  0
   -0.9002   -0.2430   -0.2413 C   0  0  0  0  0  0  0  0  0  0  0  0
   -0.4711    1.0239   -0.2980 C   0  0  0  0  0  0  0  0  0  0  0  0
   -0.7101    2.2431    0.2103 C   0  0  0  0  0  0  0  0  0  0  0  0
   -2.0594    2.2159    0.6224 C   0  0  0  0  0  0  0  0  0  0  0  0
   -2.8242    1.0165    0.6249 C   0  0  0  0  0  0  0  0  0  0  0  0
   -2.8219   -1.1213    0.1190 H   0  0  0  0  0  0  0  0  0  0  0  0
   -0.3768   -1.1502   -0.5225 H   0  0  0  0  0  0  0  0  0  0  0  0
   -0.1012    3.1392    0.1768 H   0  0  0  0  0  0  0  0  0  0  0  0
   -2.5369    3.1572    0.8830 H   0  0  0  0  0  0  0  0  0  0  0  0
    3.6120    0.8098   -1.1867 N   0  0  0  0  0  0  0  0  0  0  0  0
    4.6819    0.7771   -1.4618 N   0  0  0  0  0  0  0  0  0  0  0  0
   -4.0708    1.1513    1.0603 O   0  0  0  0  0  0  0  0  0  0  0  0
   -4.9290   -0.0025    1.1724 C   0  0  0  0  0  0  0  0  0  0  0  0
   -5.8758    0.3808    1.5484 H   0  0  0  0  0  0  0  0  0  0  0  0
   -4.5110   -0.7244    1.8803 H   0  0  0  0  0  0  0  0  0  0  0  0
   -5.0796   -0.4618    0.1895 H   0  0  0  0  0  0  0  0  0  0  0  0
  1  6  2  0  0  0  0
  2  1  1  0  0  0  0
  3  2  2  0  0  0  0
  3  4  1  0  0  0  0
  4  5  2  0  0  0  0
  5  6  1  0  0  0  0
  5 10  1  0  0  0  0
  6 13  1  0  0  0  0
  7  1  1  0  0  0  0
  8  2  1  0  0  0  0
  9  4  1  0  0  0  0
 12 11  3  0  0  0  0
 13 14  1  0  0  0  0
 14 15  1  0  0  0  0
 14 16  1  0  0  0  0
 17 14  1  0  0  0  0
M  RAD  1   3   2
M  END
