Coordinates from ORCA-job 4-CH3O-Ph-N2+-scan-d090-169-n800
 OpenBabel09191814063D

 17 16  0  0  0  0  0  0  0  0999 V2000
   -2.7527   -0.1633    0.2362 C   0  0  0  0  0  0  0  0  0  0  0  0
   -1.4210   -0.1651   -0.2479 C   0  0  0  0  0  0  0  0  0  0  0  0
   -1.0233    1.1135   -0.3001 C   0  0  0  0  0  0  0  0  0  0  0  0
   -1.2587    2.3119    0.2590 C   0  0  0  0  0  0  0  0  0  0  0  0
   -2.5834    2.2429    0.7397 C   0  0  0  0  0  0  0  0  0  0  0  0
   -3.3218    1.0266    0.7504 C   0  0  0  0  0  0  0  0  0  0  0  0
   -3.3016   -1.0975    0.1886 H   0  0  0  0  0  0  0  0  0  0  0  0
   -0.8923   -1.0532   -0.5764 H   0  0  0  0  0  0  0  0  0  0  0  0
   -0.6743    3.2238    0.2161 H   0  0  0  0  0  0  0  0  0  0  0  0
   -3.0685    3.1666    1.0458 H   0  0  0  0  0  0  0  0  0  0  0  0
    7.3427    0.6693   -2.0055 N   0  0  0  0  0  0  0  0  0  0  0  0
    8.4184    0.6370   -2.2581 N   0  0  0  0  0  0  0  0  0  0  0  0
   -4.5451    1.1226    1.2548 O   0  0  0  0  0  0  0  0  0  0  0  0
   -5.3729   -0.0520    1.3828 C   0  0  0  0  0  0  0  0  0  0  0  0
   -6.3060    0.3020    1.8172 H   0  0  0  0  0  0  0  0  0  0  0  0
   -4.9034   -0.7813    2.0495 H   0  0  0  0  0  0  0  0  0  0  0  0
   -5.5657   -0.4905    0.3977 H   0  0  0  0  0  0  0  0  0  0  0  0
  1  6  2  0  0  0  0
  2  1  1  0  0  0  0
  3  2  2  0  0  0  0
  3  4  1  0  0  0  0
  4  5  2  0  0  0  0
  5  6  1  0  0  0  0
  5 10  1  0  0  0  0
  6 13  1  0  0  0  0
  7  1  1  0  0  0  0
  8  2  1  0  0  0  0
  9  4  1  0  0  0  0
 12 11  3  0  0  0  0
 13 14  1  0  0  0  0
 14 15  1  0  0  0  0
 14 16  1  0  0  0  0
 17 14  1  0  0  0  0
M  RAD  1   3   2
M  END
