Coordinates from ORCA-job 4-CH3O-Ph-N2+-scan-d090-169-n800
 OpenBabel09191814063D

 17 16  0  0  0  0  0  0  0  0999 V2000
   -2.0559   -0.2082    0.1958 C   0  0  0  0  0  0  0  0  0  0  0  0
   -0.7002   -0.2897   -0.2247 C   0  0  0  0  0  0  0  0  0  0  0  0
   -0.1991    0.9463   -0.1575 C   0  0  0  0  0  0  0  0  0  0  0  0
   -0.5073    2.2139    0.1578 C   0  0  0  0  0  0  0  0  0  0  0  0
   -1.8593    2.2081    0.5618 C   0  0  0  0  0  0  0  0  0  0  0  0
   -2.6311    1.0208    0.5843 C   0  0  0  0  0  0  0  0  0  0  0  0
   -2.6153   -1.1370    0.2000 H   0  0  0  0  0  0  0  0  0  0  0  0
   -0.2164   -1.2080   -0.5312 H   0  0  0  0  0  0  0  0  0  0  0  0
    0.1150    3.0988    0.1270 H   0  0  0  0  0  0  0  0  0  0  0  0
   -2.3089    3.1504    0.8623 H   0  0  0  0  0  0  0  0  0  0  0  0
    2.1739    0.8728   -0.8812 N   0  0  0  0  0  0  0  0  0  0  0  0
    3.2301    0.8433   -1.2025 N   0  0  0  0  0  0  0  0  0  0  0  0
   -3.8925    1.1735    0.9890 O   0  0  0  0  0  0  0  0  0  0  0  0
   -4.7658    0.0320    1.0500 C   0  0  0  0  0  0  0  0  0  0  0  0
   -5.7204    0.4180    1.4038 H   0  0  0  0  0  0  0  0  0  0  0  0
   -4.3832   -0.7104    1.7585 H   0  0  0  0  0  0  0  0  0  0  0  0
   -4.8931   -0.4112    0.0565 H   0  0  0  0  0  0  0  0  0  0  0  0
  1  7  1  0  0  0  0
  1  6  2  0  0  0  0
  2  3  2  0  0  0  0
  2  1  1  0  0  0  0
  3  4  1  0  0  0  0
  4  5  2  0  0  0  0
  5  6  1  0  0  0  0
  5 10  1  0  0  0  0
  6 13  1  0  0  0  0
  8  2  1  0  0  0  0
  9  4  1  0  0  0  0
 12 11  3  0  0  0  0
 13 14  1  0  0  0  0
 14 15  1  0  0  0  0
 14 16  1  0  0  0  0
 17 14  1  0  0  0  0
M  RAD  1   3   2
M  END
