Coordinates from ORCA-job 4-CH3O-Ph-N2+-scan-d090-169-n800
 OpenBabel09191814063D

 17 16  0  0  0  0  0  0  0  0999 V2000
   -3.4309   -0.0504    0.1012 C   0  0  0  0  0  0  0  0  0  0  0  0
   -2.3128    0.1012   -0.7556 C   0  0  0  0  0  0  0  0  0  0  0  0
   -2.0069    1.4060   -0.7724 C   0  0  0  0  0  0  0  0  0  0  0  0
   -2.1110    2.5193   -0.0281 C   0  0  0  0  0  0  0  0  0  0  0  0
   -3.2207    2.2989    0.8151 C   0  0  0  0  0  0  0  0  0  0  0  0
   -3.8664    1.0337    0.9008 C   0  0  0  0  0  0  0  0  0  0  0  0
   -3.9264   -1.0151    0.1091 H   0  0  0  0  0  0  0  0  0  0  0  0
   -1.8711   -0.7051   -1.3309 H   0  0  0  0  0  0  0  0  0  0  0  0
   -1.6089    3.4740   -0.1345 H   0  0  0  0  0  0  0  0  0  0  0  0
   -3.6292    3.1464    1.3600 H   0  0  0  0  0  0  0  0  0  0  0  0
   11.7019    0.3939   -2.5156 N   0  0  0  0  0  0  0  0  0  0  0  0
   12.7897    0.3360   -2.7037 N   0  0  0  0  0  0  0  0  0  0  0  0
   -4.8792    0.9828    1.7561 O   0  0  0  0  0  0  0  0  0  0  0  0
   -5.5761   -0.2596    1.9848 C   0  0  0  0  0  0  0  0  0  0  0  0
   -6.3460   -0.0247    2.7175 H   0  0  0  0  0  0  0  0  0  0  0  0
   -4.8937   -1.0134    2.3884 H   0  0  0  0  0  0  0  0  0  0  0  0
   -6.0417   -0.6105    1.0576 H   0  0  0  0  0  0  0  0  0  0  0  0
  1  7  1  0  0  0  0
  1  6  2  0  0  0  0
  2  1  1  0  0  0  0
  3  2  2  0  0  0  0
  3  4  1  0  0  0  0
  4  5  2  0  0  0  0
  5  6  1  0  0  0  0
  5 10  1  0  0  0  0
  6 13  1  0  0  0  0
  8  2  1  0  0  0  0
  9  4  1  0  0  0  0
 12 11  3  0  0  0  0
 13 14  1  0  0  0  0
 14 16  1  0  0  0  0
 14 15  1  0  0  0  0
 17 14  1  0  0  0  0
M  RAD  1   3   2
M  END
