Coordinates from ORCA-job 4-CH3O-Ph-N2+-scan-d090-169-n800
 OpenBabel09191814063D

 17 16  0  0  0  0  0  0  0  0999 V2000
   -2.7095   -0.1644    0.2312 C   0  0  0  0  0  0  0  0  0  0  0  0
   -1.3754   -0.1671   -0.2462 C   0  0  0  0  0  0  0  0  0  0  0  0
   -0.9775    1.1114   -0.2989 C   0  0  0  0  0  0  0  0  0  0  0  0
   -1.2157    2.3109    0.2565 C   0  0  0  0  0  0  0  0  0  0  0  0
   -2.5429    2.2428    0.7307 C   0  0  0  0  0  0  0  0  0  0  0  0
   -3.2812    1.0265    0.7401 C   0  0  0  0  0  0  0  0  0  0  0  0
   -3.2582   -1.0987    0.1827 H   0  0  0  0  0  0  0  0  0  0  0  0
   -0.8451   -1.0559   -0.5703 H   0  0  0  0  0  0  0  0  0  0  0  0
   -0.6311    3.2227    0.2148 H   0  0  0  0  0  0  0  0  0  0  0  0
   -3.0295    3.1671    1.0325 H   0  0  0  0  0  0  0  0  0  0  0  0
    7.0335    0.6723   -1.9398 N   0  0  0  0  0  0  0  0  0  0  0  0
    8.1091    0.6398   -2.1931 N   0  0  0  0  0  0  0  0  0  0  0  0
   -4.5071    1.1234    1.2381 O   0  0  0  0  0  0  0  0  0  0  0  0
   -5.3355   -0.0510    1.3642 C   0  0  0  0  0  0  0  0  0  0  0  0
   -6.2708    0.3038    1.7932 H   0  0  0  0  0  0  0  0  0  0  0  0
   -4.8693   -0.7789    2.0347 H   0  0  0  0  0  0  0  0  0  0  0  0
   -5.5233   -0.4914    0.3791 H   0  0  0  0  0  0  0  0  0  0  0  0
  1  6  2  0  0  0  0
  2  1  1  0  0  0  0
  3  2  2  0  0  0  0
  3  4  1  0  0  0  0
  4  5  2  0  0  0  0
  5  6  1  0  0  0  0
  5 10  1  0  0  0  0
  6 13  1  0  0  0  0
  7  1  1  0  0  0  0
  8  2  1  0  0  0  0
  9  4  1  0  0  0  0
 12 11  3  0  0  0  0
 13 14  1  0  0  0  0
 14 15  1  0  0  0  0
 14 16  1  0  0  0  0
 17 14  1  0  0  0  0
M  RAD  1   3   2
M  END
