Coordinates from ORCA-job 4-CH3O-Ph-N2+-scan-d090-169-n800
 OpenBabel09191814063D

 17 16  0  0  0  0  0  0  0  0999 V2000
   -2.4537   -0.1727    0.1948 C   0  0  0  0  0  0  0  0  0  0  0  0
   -1.1083   -0.1846   -0.2505 C   0  0  0  0  0  0  0  0  0  0  0  0
   -0.7055    1.0921   -0.3049 C   0  0  0  0  0  0  0  0  0  0  0  0
   -0.9538    2.2984    0.2307 C   0  0  0  0  0  0  0  0  0  0  0  0
   -2.2923    2.2389    0.6735 C   0  0  0  0  0  0  0  0  0  0  0  0
   -3.0341    1.0248    0.6775 C   0  0  0  0  0  0  0  0  0  0  0  0
   -3.0038   -1.1059    0.1423 H   0  0  0  0  0  0  0  0  0  0  0  0
   -0.5733   -1.0779   -0.5535 H   0  0  0  0  0  0  0  0  0  0  0  0
   -0.3650    3.2077    0.1941 H   0  0  0  0  0  0  0  0  0  0  0  0
   -2.7828    3.1674    0.9550 H   0  0  0  0  0  0  0  0  0  0  0  0
    5.1627    0.7039   -1.5257 N   0  0  0  0  0  0  0  0  0  0  0  0
    6.2369    0.6661   -1.7838 N   0  0  0  0  0  0  0  0  0  0  0  0
   -4.2716    1.1300    1.1446 O   0  0  0  0  0  0  0  0  0  0  0  0
   -5.1059   -0.0410    1.2623 C   0  0  0  0  0  0  0  0  0  0  0  0
   -6.0502    0.3203    1.6651 H   0  0  0  0  0  0  0  0  0  0  0  0
   -4.6579   -0.7634    1.9509 H   0  0  0  0  0  0  0  0  0  0  0  0
   -5.2711   -0.4907    0.2773 H   0  0  0  0  0  0  0  0  0  0  0  0
  1  6  2  0  0  0  0
  2  1  1  0  0  0  0
  3  2  2  0  0  0  0
  3  4  1  0  0  0  0
  4  5  2  0  0  0  0
  5  6  1  0  0  0  0
  5 10  1  0  0  0  0
  6 13  1  0  0  0  0
  7  1  1  0  0  0  0
  8  2  1  0  0  0  0
  9  4  1  0  0  0  0
 12 11  3  0  0  0  0
 13 14  1  0  0  0  0
 14 15  1  0  0  0  0
 14 16  1  0  0  0  0
 17 14  1  0  0  0  0
M  RAD  1   3   2
M  END
