Coordinates from ORCA-job 4-CH3O-Ph-N2+-scan-d090-169-n800
 OpenBabel09191814063D

 17 16  0  0  0  0  0  0  0  0999 V2000
   -3.3393   -0.0829    0.1533 C   0  0  0  0  0  0  0  0  0  0  0  0
   -2.1514    0.0219   -0.6117 C   0  0  0  0  0  0  0  0  0  0  0  0
   -1.8167    1.3194   -0.6382 C   0  0  0  0  0  0  0  0  0  0  0  0
   -1.9574    2.4555    0.0645 C   0  0  0  0  0  0  0  0  0  0  0  0
   -3.1373    2.2814    0.8184 C   0  0  0  0  0  0  0  0  0  0  0  0
   -3.8154    1.0320    0.8844 C   0  0  0  0  0  0  0  0  0  0  0  0
   -3.8547   -1.0372    0.1461 H   0  0  0  0  0  0  0  0  0  0  0  0
   -1.6815   -0.8093   -1.1260 H   0  0  0  0  0  0  0  0  0  0  0  0
   -1.4274    3.3967   -0.0258 H   0  0  0  0  0  0  0  0  0  0  0  0
   -3.5706    3.1521    1.3045 H   0  0  0  0  0  0  0  0  0  0  0  0
   11.2336    0.4717   -2.5408 N   0  0  0  0  0  0  0  0  0  0  0  0
   12.3186    0.4224   -2.7467 N   0  0  0  0  0  0  0  0  0  0  0  0
   -4.8961    1.0255    1.6537 O   0  0  0  0  0  0  0  0  0  0  0  0
   -5.6366   -0.1959    1.8571 C   0  0  0  0  0  0  0  0  0  0  0  0
   -6.4590    0.0750    2.5166 H   0  0  0  0  0  0  0  0  0  0  0  0
   -5.0065   -0.9510    2.3362 H   0  0  0  0  0  0  0  0  0  0  0  0
   -6.0317   -0.5640    0.9042 H   0  0  0  0  0  0  0  0  0  0  0  0
  1  6  2  0  0  0  0
  2  1  1  0  0  0  0
  3  2  2  0  0  0  0
  3  4  1  0  0  0  0
  4  5  2  0  0  0  0
  5  6  1  0  0  0  0
  5 10  1  0  0  0  0
  6 13  1  0  0  0  0
  7  1  1  0  0  0  0
  8  2  1  0  0  0  0
  9  4  1  0  0  0  0
 12 11  3  0  0  0  0
 13 14  1  0  0  0  0
 14 16  1  0  0  0  0
 14 15  1  0  0  0  0
 17 14  1  0  0  0  0
M  RAD  1   3   2
M  END
