Coordinates from ORCA-job 4-CH3O-Ph-N2+-scan-d090-169-n800
 OpenBabel09191814063D

 17 16  0  0  0  0  0  0  0  0999 V2000
   -2.8952   -0.1583    0.2483 C   0  0  0  0  0  0  0  0  0  0  0  0
   -1.5738   -0.1547   -0.2627 C   0  0  0  0  0  0  0  0  0  0  0  0
   -1.1777    1.1245   -0.3135 C   0  0  0  0  0  0  0  0  0  0  0  0
   -1.4022    2.3175    0.2611 C   0  0  0  0  0  0  0  0  0  0  0  0
   -2.7167    2.2440    0.7683 C   0  0  0  0  0  0  0  0  0  0  0  0
   -3.4541    1.0270    0.7842 C   0  0  0  0  0  0  0  0  0  0  0  0
   -3.4444   -1.0924    0.2040 H   0  0  0  0  0  0  0  0  0  0  0  0
   -1.0517   -1.0398   -0.6096 H   0  0  0  0  0  0  0  0  0  0  0  0
   -0.8197    3.2304    0.2133 H   0  0  0  0  0  0  0  0  0  0  0  0
   -3.1958    3.1649    1.0914 H   0  0  0  0  0  0  0  0  0  0  0  0
    8.3549    0.6561   -2.2113 N   0  0  0  0  0  0  0  0  0  0  0  0
    9.4313    0.6236   -2.4611 N   0  0  0  0  0  0  0  0  0  0  0  0
   -4.6666    1.1180    1.3146 O   0  0  0  0  0  0  0  0  0  0  0  0
   -5.4912   -0.0582    1.4500 C   0  0  0  0  0  0  0  0  0  0  0  0
   -6.4152    0.2917    1.9064 H   0  0  0  0  0  0  0  0  0  0  0  0
   -5.0076   -0.7925    2.1009 H   0  0  0  0  0  0  0  0  0  0  0  0
   -5.7039   -0.4886    0.4656 H   0  0  0  0  0  0  0  0  0  0  0  0
  1  6  2  0  0  0  0
  2  1  1  0  0  0  0
  3  2  2  0  0  0  0
  3  4  1  0  0  0  0
  4  5  2  0  0  0  0
  5  6  1  0  0  0  0
  5 10  1  0  0  0  0
  6 13  1  0  0  0  0
  7  1  1  0  0  0  0
  8  2  1  0  0  0  0
  9  4  1  0  0  0  0
 12 11  3  0  0  0  0
 13 14  1  0  0  0  0
 14 15  1  0  0  0  0
 14 16  1  0  0  0  0
 17 14  1  0  0  0  0
M  RAD  1   3   2
M  END
