Coordinates from ORCA-job 4-CH3O-Ph-N2+-scan-d090-169-n800
 OpenBabel09191814063D

 17 16  0  0  0  0  0  0  0  0999 V2000
   -2.6594   -0.1656    0.2248 C   0  0  0  0  0  0  0  0  0  0  0  0
   -1.3227   -0.1691   -0.2450 C   0  0  0  0  0  0  0  0  0  0  0  0
   -0.9244    1.1092   -0.2987 C   0  0  0  0  0  0  0  0  0  0  0  0
   -1.1659    2.3095    0.2532 C   0  0  0  0  0  0  0  0  0  0  0  0
   -2.4955    2.2428    0.7201 C   0  0  0  0  0  0  0  0  0  0  0  0
   -3.2339    1.0263    0.7282 C   0  0  0  0  0  0  0  0  0  0  0  0
   -3.2077   -1.1000    0.1749 H   0  0  0  0  0  0  0  0  0  0  0  0
   -0.7908   -1.0586   -0.5647 H   0  0  0  0  0  0  0  0  0  0  0  0
   -0.5812    3.2214    0.2124 H   0  0  0  0  0  0  0  0  0  0  0  0
   -2.9837    3.1678    1.0171 H   0  0  0  0  0  0  0  0  0  0  0  0
    6.6729    0.6758   -1.8621 N   0  0  0  0  0  0  0  0  0  0  0  0
    7.7483    0.6428   -2.1162 N   0  0  0  0  0  0  0  0  0  0  0  0
   -4.4624    1.1243    1.2193 O   0  0  0  0  0  0  0  0  0  0  0  0
   -5.2915   -0.0499    1.3435 C   0  0  0  0  0  0  0  0  0  0  0  0
   -6.2291    0.3058    1.7666 H   0  0  0  0  0  0  0  0  0  0  0  0
   -4.8288   -0.7763    2.0181 H   0  0  0  0  0  0  0  0  0  0  0  0
   -5.4738   -0.4925    0.3583 H   0  0  0  0  0  0  0  0  0  0  0  0
  1  6  2  0  0  0  0
  2  1  1  0  0  0  0
  3  2  2  0  0  0  0
  3  4  1  0  0  0  0
  4  5  2  0  0  0  0
  5  6  1  0  0  0  0
  5 10  1  0  0  0  0
  6 13  1  0  0  0  0
  7  1  1  0  0  0  0
  8  2  1  0  0  0  0
  9  4  1  0  0  0  0
 12 11  3  0  0  0  0
 13 14  1  0  0  0  0
 14 15  1  0  0  0  0
 14 16  1  0  0  0  0
 17 14  1  0  0  0  0
M  RAD  1   3   2
M  END
