Coordinates from ORCA-job 4-CH3O-Ph-N2+-scan-d090-169-n800
 OpenBabel09191814063D

 17 16  0  0  0  0  0  0  0  0999 V2000
   -3.5927    0.0236   -0.0188 C   0  0  0  0  0  0  0  0  0  0  0  0
   -2.6747    0.2843   -1.0657 C   0  0  0  0  0  0  0  0  0  0  0  0
   -2.4380    1.6037   -1.0602 C   0  0  0  0  0  0  0  0  0  0  0  0
   -2.4403    2.6670   -0.2392 C   0  0  0  0  0  0  0  0  0  0  0  0
   -3.3498    2.3395    0.7885 C   0  0  0  0  0  0  0  0  0  0  0  0
   -3.9088    1.0371    0.9178 C   0  0  0  0  0  0  0  0  0  0  0  0
   -4.0327   -0.9667    0.0249 H   0  0  0  0  0  0  0  0  0  0  0  0
   -2.3189   -0.4637   -1.7658 H   0  0  0  0  0  0  0  0  0  0  0  0
   -2.0126    3.6529   -0.3807 H   0  0  0  0  0  0  0  0  0  0  0  0
   -3.6802    3.1322    1.4553 H   0  0  0  0  0  0  0  0  0  0  0  0
   12.2783    0.2132   -2.3437 N   0  0  0  0  0  0  0  0  0  0  0  0
   13.3714    0.1412   -2.4922 N   0  0  0  0  0  0  0  0  0  0  0  0
   -4.7283    0.8836    1.9496 O   0  0  0  0  0  0  0  0  0  0  0  0
   -5.3102   -0.4064    2.2307 C   0  0  0  0  0  0  0  0  0  0  0  0
   -5.9294   -0.2543    3.1128 H   0  0  0  0  0  0  0  0  0  0  0  0
   -4.5284   -1.1410    2.4449 H   0  0  0  0  0  0  0  0  0  0  0  0
   -5.9340   -0.7329    1.3917 H   0  0  0  0  0  0  0  0  0  0  0  0
  1  7  1  0  0  0  0
  1  6  2  0  0  0  0
  2  3  2  0  0  0  0
  2  1  1  0  0  0  0
  3  4  1  0  0  0  0
  4  5  2  0  0  0  0
  5  6  1  0  0  0  0
  5 10  1  0  0  0  0
  6 13  1  0  0  0  0
  8  2  1  0  0  0  0
  9  4  1  0  0  0  0
 12 11  3  0  0  0  0
 13 14  1  0  0  0  0
 14 16  1  0  0  0  0
 14 15  1  0  0  0  0
 17 14  1  0  0  0  0
M  RAD  1   3   2
M  END
