Coordinates from ORCA-job 4-CH3O-Ph-N2+-scan-d090-169-n800
 OpenBabel09191814063D

 17 16  0  0  0  0  0  0  0  0999 V2000
   -3.7260    0.0864   -0.1073 C   0  0  0  0  0  0  0  0  0  0  0  0
   -3.0263    0.4425   -1.2857 C   0  0  0  0  0  0  0  0  0  0  0  0
   -2.8635    1.7735   -1.2611 C   0  0  0  0  0  0  0  0  0  0  0  0
   -2.7690    2.8007   -0.4000 C   0  0  0  0  0  0  0  0  0  0  0  0
   -3.4606    2.3805    0.7554 C   0  0  0  0  0  0  0  0  0  0  0  0
   -3.9196    1.0430    0.9186 C   0  0  0  0  0  0  0  0  0  0  0  0
   -4.0980   -0.9296   -0.0331 H   0  0  0  0  0  0  0  0  0  0  0  0
   -2.7613   -0.2551   -2.0727 H   0  0  0  0  0  0  0  0  0  0  0  0
   -2.4257    3.8152   -0.5672 H   0  0  0  0  0  0  0  0  0  0  0  0
   -3.7072    3.1257    1.5077 H   0  0  0  0  0  0  0  0  0  0  0  0
   12.6325    0.0377   -2.1525 N   0  0  0  0  0  0  0  0  0  0  0  0
   13.7285   -0.0461   -2.2700 N   0  0  0  0  0  0  0  0  0  0  0  0
   -4.5303    0.8019    2.0710 O   0  0  0  0  0  0  0  0  0  0  0  0
   -4.9857   -0.5299    2.3889 C   0  0  0  0  0  0  0  0  0  0  0  0
   -5.4434   -0.4479    3.3729 H   0  0  0  0  0  0  0  0  0  0  0  0
   -4.1416   -1.2248    2.4259 H   0  0  0  0  0  0  0  0  0  0  0  0
   -5.7324   -0.8604    1.6589 H   0  0  0  0  0  0  0  0  0  0  0  0
  1  7  1  0  0  0  0
  1  6  2  0  0  0  0
  2  3  2  0  0  0  0
  2  1  1  0  0  0  0
  3  4  1  0  0  0  0
  4  5  2  0  0  0  0
  5  6  1  0  0  0  0
  5 10  1  0  0  0  0
  6 13  1  0  0  0  0
  8  2  1  0  0  0  0
  9  4  1  0  0  0  0
 12 11  3  0  0  0  0
 13 14  1  0  0  0  0
 14 16  1  0  0  0  0
 14 15  1  0  0  0  0
 17 14  1  0  0  0  0
M  RAD  1   3   2
M  END
