Coordinates from ORCA-job 4-CH3O-Ph-N2+-scan-d090-169-n800
 OpenBabel09191814063D

 17 16  0  0  0  0  0  0  0  0999 V2000
   -2.7792   -0.1626    0.2390 C   0  0  0  0  0  0  0  0  0  0  0  0
   -1.4491   -0.1635   -0.2491 C   0  0  0  0  0  0  0  0  0  0  0  0
   -1.0514    1.1151   -0.3016 C   0  0  0  0  0  0  0  0  0  0  0  0
   -1.2850    2.3123    0.2605 C   0  0  0  0  0  0  0  0  0  0  0  0
   -2.6082    2.2431    0.7452 C   0  0  0  0  0  0  0  0  0  0  0  0
   -3.3465    1.0266    0.7568 C   0  0  0  0  0  0  0  0  0  0  0  0
   -3.3282   -1.0967    0.1916 H   0  0  0  0  0  0  0  0  0  0  0  0
   -0.9217   -1.0512   -0.5808 H   0  0  0  0  0  0  0  0  0  0  0  0
   -0.7010    3.2245    0.2165 H   0  0  0  0  0  0  0  0  0  0  0  0
   -3.0922    3.1665    1.0537 H   0  0  0  0  0  0  0  0  0  0  0  0
    7.5318    0.6674   -2.0451 N   0  0  0  0  0  0  0  0  0  0  0  0
    8.6076    0.6352   -2.2973 N   0  0  0  0  0  0  0  0  0  0  0  0
   -4.5681    1.1219    1.2653 O   0  0  0  0  0  0  0  0  0  0  0  0
   -5.3956   -0.0528    1.3945 C   0  0  0  0  0  0  0  0  0  0  0  0
   -6.3272    0.3007    1.8324 H   0  0  0  0  0  0  0  0  0  0  0  0
   -4.9239   -0.7829    2.0587 H   0  0  0  0  0  0  0  0  0  0  0  0
   -5.5915   -0.4900    0.4096 H   0  0  0  0  0  0  0  0  0  0  0  0
  1  6  2  0  0  0  0
  2  1  1  0  0  0  0
  3  2  2  0  0  0  0
  3  4  1  0  0  0  0
  4  5  2  0  0  0  0
  5  6  1  0  0  0  0
  5 10  1  0  0  0  0
  6 13  1  0  0  0  0
  7  1  1  0  0  0  0
  8  2  1  0  0  0  0
  9  4  1  0  0  0  0
 12 11  3  0  0  0  0
 13 14  1  0  0  0  0
 14 15  1  0  0  0  0
 14 16  1  0  0  0  0
 17 14  1  0  0  0  0
M  RAD  1   3   2
M  END
