Coordinates from ORCA-job 4-CH3O-Ph-N2+-scan-d090-169-n800
 OpenBabel09191814063D

 17 16  0  0  0  0  0  0  0  0999 V2000
   -3.3505   -0.0793    0.1473 C   0  0  0  0  0  0  0  0  0  0  0  0
   -2.1700    0.0309   -0.6284 C   0  0  0  0  0  0  0  0  0  0  0  0
   -1.8386    1.3293   -0.6538 C   0  0  0  0  0  0  0  0  0  0  0  0
   -1.9753    2.4627    0.0540 C   0  0  0  0  0  0  0  0  0  0  0  0
   -3.1477    2.2834    0.8183 C   0  0  0  0  0  0  0  0  0  0  0  0
   -3.8222    1.0322    0.8865 C   0  0  0  0  0  0  0  0  0  0  0  0
   -3.8637   -1.0347    0.1419 H   0  0  0  0  0  0  0  0  0  0  0  0
   -1.7030   -0.7975   -1.1498 H   0  0  0  0  0  0  0  0  0  0  0  0
   -1.4484    3.4055   -0.0382 H   0  0  0  0  0  0  0  0  0  0  0  0
   -3.5785    3.1514    1.3113 H   0  0  0  0  0  0  0  0  0  0  0  0
   11.2939    0.4629   -2.5395 N   0  0  0  0  0  0  0  0  0  0  0  0
   12.3793    0.4125   -2.7433 N   0  0  0  0  0  0  0  0  0  0  0  0
   -4.8956    1.0207    1.6660 O   0  0  0  0  0  0  0  0  0  0  0  0
   -5.6314   -0.2031    1.8723 C   0  0  0  0  0  0  0  0  0  0  0  0
   -6.4482    0.0638    2.5404 H   0  0  0  0  0  0  0  0  0  0  0  0
   -4.9951   -0.9583    2.3429 H   0  0  0  0  0  0  0  0  0  0  0  0
   -6.0346   -0.5690    0.9219 H   0  0  0  0  0  0  0  0  0  0  0  0
  1  6  2  0  0  0  0
  2  1  1  0  0  0  0
  3  2  2  0  0  0  0
  3  4  1  0  0  0  0
  4  5  2  0  0  0  0
  5  6  1  0  0  0  0
  5 10  1  0  0  0  0
  6 13  1  0  0  0  0
  7  1  1  0  0  0  0
  8  2  1  0  0  0  0
  9  4  1  0  0  0  0
 12 11  3  0  0  0  0
 13 14  1  0  0  0  0
 14 16  1  0  0  0  0
 14 15  1  0  0  0  0
 17 14  1  0  0  0  0
M  RAD  1   3   2
M  END
