Coordinates from ORCA-job 4-CH3O-Ph-N2+-scan-d090-169-n800
 OpenBabel09191814063D

 17 16  0  0  0  0  0  0  0  0999 V2000
   -2.9049   -0.1578    0.2488 C   0  0  0  0  0  0  0  0  0  0  0  0
   -1.5844   -0.1537   -0.2645 C   0  0  0  0  0  0  0  0  0  0  0  0
   -1.1886    1.1256   -0.3151 C   0  0  0  0  0  0  0  0  0  0  0  0
   -1.4122    2.3182    0.2608 C   0  0  0  0  0  0  0  0  0  0  0  0
   -2.7258    2.2442    0.7701 C   0  0  0  0  0  0  0  0  0  0  0  0
   -3.4630    1.0270    0.7865 C   0  0  0  0  0  0  0  0  0  0  0  0
   -3.4541   -1.0919    0.2048 H   0  0  0  0  0  0  0  0  0  0  0  0
   -1.0628   -1.0385   -0.6129 H   0  0  0  0  0  0  0  0  0  0  0  0
   -0.8299    3.2312    0.2125 H   0  0  0  0  0  0  0  0  0  0  0  0
   -3.2045    3.1648    1.0947 H   0  0  0  0  0  0  0  0  0  0  0  0
    8.4234    0.6549   -2.2245 N   0  0  0  0  0  0  0  0  0  0  0  0
    9.4999    0.6224   -2.4741 N   0  0  0  0  0  0  0  0  0  0  0  0
   -4.6746    1.1175    1.3191 O   0  0  0  0  0  0  0  0  0  0  0  0
   -5.4988   -0.0588    1.4551 C   0  0  0  0  0  0  0  0  0  0  0  0
   -6.4221    0.2907    1.9133 H   0  0  0  0  0  0  0  0  0  0  0  0
   -5.0140   -0.7936    2.1046 H   0  0  0  0  0  0  0  0  0  0  0  0
   -5.7132   -0.4886    0.4707 H   0  0  0  0  0  0  0  0  0  0  0  0
  1  6  2  0  0  0  0
  2  1  1  0  0  0  0
  3  2  2  0  0  0  0
  3  4  1  0  0  0  0
  4  5  2  0  0  0  0
  5  6  1  0  0  0  0
  5 10  1  0  0  0  0
  6 13  1  0  0  0  0
  7  1  1  0  0  0  0
  8  2  1  0  0  0  0
  9  4  1  0  0  0  0
 12 11  3  0  0  0  0
 13 14  1  0  0  0  0
 14 15  1  0  0  0  0
 14 16  1  0  0  0  0
 17 14  1  0  0  0  0
M  RAD  1   3   2
M  END
