Coordinates from ORCA-job 4-CH3O-Ph-N2+-scan-d090-169-n800
 OpenBabel09191814063D

 17 16  0  0  0  0  0  0  0  0999 V2000
   -3.6506    0.0511   -0.0591 C   0  0  0  0  0  0  0  0  0  0  0  0
   -2.8220    0.3537   -1.1672 C   0  0  0  0  0  0  0  0  0  0  0  0
   -2.6157    1.6784   -1.1537 C   0  0  0  0  0  0  0  0  0  0  0  0
   -2.5768    2.7250   -0.3122 C   0  0  0  0  0  0  0  0  0  0  0  0
   -3.3971    2.3567    0.7749 C   0  0  0  0  0  0  0  0  0  0  0  0
   -3.9157    1.0392    0.9197 C   0  0  0  0  0  0  0  0  0  0  0  0
   -4.0633   -0.9501   -0.0018 H   0  0  0  0  0  0  0  0  0  0  0  0
   -2.5034   -0.3721   -1.9075 H   0  0  0  0  0  0  0  0  0  0  0  0
   -2.1834    3.7233   -0.4656 H   0  0  0  0  0  0  0  0  0  0  0  0
   -3.6931    3.1285    1.4812 H   0  0  0  0  0  0  0  0  0  0  0  0
   12.4430    0.1393   -2.2649 N   0  0  0  0  0  0  0  0  0  0  0  0
   13.5375    0.0621   -2.3996 N   0  0  0  0  0  0  0  0  0  0  0  0
   -4.6494    0.8471    2.0078 O   0  0  0  0  0  0  0  0  0  0  0  0
   -5.1799   -0.4612    2.3062 C   0  0  0  0  0  0  0  0  0  0  0  0
   -5.7328   -0.3400    3.2358 H   0  0  0  0  0  0  0  0  0  0  0  0
   -4.3681   -1.1813    2.4452 H   0  0  0  0  0  0  0  0  0  0  0  0
   -5.8589   -0.7864    1.5107 H   0  0  0  0  0  0  0  0  0  0  0  0
  1  7  1  0  0  0  0
  1  6  2  0  0  0  0
  2  3  2  0  0  0  0
  2  1  1  0  0  0  0
  3  4  1  0  0  0  0
  4  5  2  0  0  0  0
  5  6  1  0  0  0  0
  5 10  1  0  0  0  0
  6 13  1  0  0  0  0
  8  2  1  0  0  0  0
  9  4  1  0  0  0  0
 12 11  3  0  0  0  0
 13 14  1  0  0  0  0
 14 16  1  0  0  0  0
 14 15  1  0  0  0  0
 17 14  1  0  0  0  0
M  RAD  1   3   2
M  END
