Coordinates from ORCA-job 4-CH3O-Ph-N2+-scan-d090-169-n800
 OpenBabel09191814063D

 17 16  0  0  0  0  0  0  0  0999 V2000
   -3.7568    0.1011   -0.1260 C   0  0  0  0  0  0  0  0  0  0  0  0
   -3.1155    0.4794   -1.3303 C   0  0  0  0  0  0  0  0  0  0  0  0
   -2.9728    1.8126   -1.3006 C   0  0  0  0  0  0  0  0  0  0  0  0
   -2.8555    2.8328   -0.4341 C   0  0  0  0  0  0  0  0  0  0  0  0
   -3.4887    2.3913    0.7465 C   0  0  0  0  0  0  0  0  0  0  0  0
   -3.9192    1.0451    0.9169 C   0  0  0  0  0  0  0  0  0  0  0  0
   -4.1087   -0.9215   -0.0452 H   0  0  0  0  0  0  0  0  0  0  0  0
   -2.8743   -0.2071   -2.1347 H   0  0  0  0  0  0  0  0  0  0  0  0
   -2.5370    3.8546   -0.6063 H   0  0  0  0  0  0  0  0  0  0  0  0
   -3.7140    3.1256    1.5159 H   0  0  0  0  0  0  0  0  0  0  0  0
   12.7002   -0.0077   -2.1011 N   0  0  0  0  0  0  0  0  0  0  0  0
   13.7967   -0.0942   -2.2117 N   0  0  0  0  0  0  0  0  0  0  0  0
   -4.4739    0.7839    2.0928 O   0  0  0  0  0  0  0  0  0  0  0  0
   -4.8944   -0.5578    2.4176 C   0  0  0  0  0  0  0  0  0  0  0  0
   -5.3093   -0.4918    3.4216 H   0  0  0  0  0  0  0  0  0  0  0  0
   -4.0389   -1.2395    2.4105 H   0  0  0  0  0  0  0  0  0  0  0  0
   -5.6675   -0.8933    1.7181 H   0  0  0  0  0  0  0  0  0  0  0  0
  1  7  1  0  0  0  0
  1  6  2  0  0  0  0
  2  3  2  0  0  0  0
  2  1  1  0  0  0  0
  3  4  1  0  0  0  0
  4  5  2  0  0  0  0
  5  6  1  0  0  0  0
  5 10  1  0  0  0  0
  6 13  1  0  0  0  0
  8  2  1  0  0  0  0
  9  4  1  0  0  0  0
 12 11  3  0  0  0  0
 13 14  1  0  0  0  0
 14 15  1  0  0  0  0
 16 14  1  0  0  0  0
 17 14  1  0  0  0  0
M  RAD  1   3   2
M  END
