Coordinates from ORCA-job 4-CH3O-Ph-N2+-scan-d090-169-n800
 OpenBabel09191814063D

 17 17  0  0  0  0  0  0  0  0999 V2000
   -1.9183   -0.2265    0.1515 C   0  0  0  0  0  0  0  0  0  0  0  0
   -0.6169   -0.2751   -0.2469 C   0  0  0  0  0  0  0  0  0  0  0  0
    0.2449    0.9247   -0.2940 C   0  0  0  0  0  0  0  0  0  0  0  0
   -0.4216    2.1820    0.1267 C   0  0  0  0  0  0  0  0  0  0  0  0
   -1.7197    2.2085    0.5202 C   0  0  0  0  0  0  0  0  0  0  0  0
   -2.5018    1.0139    0.5444 C   0  0  0  0  0  0  0  0  0  0  0  0
   -2.4998   -1.1408    0.1648 H   0  0  0  0  0  0  0  0  0  0  0  0
   -0.1504   -1.2083   -0.5507 H   0  0  0  0  0  0  0  0  0  0  0  0
    0.1908    3.0789    0.1010 H   0  0  0  0  0  0  0  0  0  0  0  0
   -2.1918    3.1370    0.8248 H   0  0  0  0  0  0  0  0  0  0  0  0
    1.1626    0.8938   -0.5744 N   0  0  0  0  0  0  0  0  0  0  0  0
    2.2673    0.8593   -0.9124 N   0  0  0  0  0  0  0  0  0  0  0  0
   -3.7396    1.1605    0.9409 O   0  0  0  0  0  0  0  0  0  0  0  0
   -4.6586    0.0384    1.0188 C   0  0  0  0  0  0  0  0  0  0  0  0
   -5.5926    0.4685    1.3742 H   0  0  0  0  0  0  0  0  0  0  0  0
   -4.2867   -0.7005    1.7329 H   0  0  0  0  0  0  0  0  0  0  0  0
   -4.7974   -0.4008    0.0279 H   0  0  0  0  0  0  0  0  0  0  0  0
  1  7  1  0  0  0  0
  1  6  2  0  0  0  0
  2  1  1  0  0  0  0
  3  2  2  0  0  0  0
  3  4  1  0  0  0  0
  4  5  2  0  0  0  0
  5  6  1  0  0  0  0
  5 10  1  0  0  0  0
  6 13  1  0  0  0  0
  8  2  1  0  0  0  0
  9  4  1  0  0  0  0
 11  3  1  0  0  0  0
 12 11  1  0  0  0  0
 13 14  1  0  0  0  0
 14 15  1  0  0  0  0
 14 16  1  0  0  0  0
 17 14  1  0  0  0  0
M  RAD  2  11   2  12   3
M  END
