Coordinates from ORCA-job 4-CH3O-Ph-N2+-scan-d090-169-n800
 OpenBabel09191814063D

 17 16  0  0  0  0  0  0  0  0999 V2000
   -3.2308   -0.1146    0.2040 C   0  0  0  0  0  0  0  0  0  0  0  0
   -1.9830   -0.0545   -0.4647 C   0  0  0  0  0  0  0  0  0  0  0  0
   -1.6206    1.2352   -0.5003 C   0  0  0  0  0  0  0  0  0  0  0  0
   -1.7948    2.3946    0.1553 C   0  0  0  0  0  0  0  0  0  0  0  0
   -3.0349    2.2646    0.8155 C   0  0  0  0  0  0  0  0  0  0  0  0
   -3.7415    1.0303    0.8618 C   0  0  0  0  0  0  0  0  0  0  0  0
   -3.7635   -1.0590    0.1818 H   0  0  0  0  0  0  0  0  0  0  0  0
   -1.4908   -0.9093   -0.9155 H   0  0  0  0  0  0  0  0  0  0  0  0
   -1.2400    3.3229    0.0816 H   0  0  0  0  0  0  0  0  0  0  0  0
   -3.4880    3.1573    1.2399 H   0  0  0  0  0  0  0  0  0  0  0  0
   10.6075    0.5475   -2.5294 N   0  0  0  0  0  0  0  0  0  0  0  0
   11.6893    0.5069   -2.7535 N   0  0  0  0  0  0  0  0  0  0  0  0
   -4.8808    1.0665    1.5406 O   0  0  0  0  0  0  0  0  0  0  0  0
   -5.6600   -0.1348    1.7178 C   0  0  0  0  0  0  0  0  0  0  0  0
   -6.5272    0.1705    2.3004 H   0  0  0  0  0  0  0  0  0  0  0  0
   -5.0861   -0.8864    2.2678 H   0  0  0  0  0  0  0  0  0  0  0  0
   -5.9844   -0.5242    0.7468 H   0  0  0  0  0  0  0  0  0  0  0  0
  1  6  2  0  0  0  0
  2  1  1  0  0  0  0
  3  2  2  0  0  0  0
  3  4  1  0  0  0  0
  4  5  2  0  0  0  0
  5  6  1  0  0  0  0
  5 10  1  0  0  0  0
  6 13  1  0  0  0  0
  7  1  1  0  0  0  0
  8  2  1  0  0  0  0
  9  4  1  0  0  0  0
 12 11  3  0  0  0  0
 13 14  1  0  0  0  0
 14 16  1  0  0  0  0
 14 15  1  0  0  0  0
 17 14  1  0  0  0  0
M  RAD  1   3   2
M  END
