Coordinates from ORCA-job 4-CH3O-Ph-N2+-scan-d090-169-n800
 OpenBabel09191814063D

 17 16  0  0  0  0  0  0  0  0999 V2000
   -3.8180    0.1281   -0.1590 C   0  0  0  0  0  0  0  0  0  0  0  0
   -3.2951    0.5447   -1.4071 C   0  0  0  0  0  0  0  0  0  0  0  0
   -3.1877    1.8808   -1.3648 C   0  0  0  0  0  0  0  0  0  0  0  0
   -3.0240    2.8899   -0.4928 C   0  0  0  0  0  0  0  0  0  0  0  0
   -3.5391    2.4107    0.7299 C   0  0  0  0  0  0  0  0  0  0  0  0
   -3.9149    1.0496    0.9117 C   0  0  0  0  0  0  0  0  0  0  0  0
   -4.1327   -0.9056   -0.0671 H   0  0  0  0  0  0  0  0  0  0  0  0
   -3.1064   -0.1215   -2.2421 H   0  0  0  0  0  0  0  0  0  0  0  0
   -2.7516    3.9236   -0.6726 H   0  0  0  0  0  0  0  0  0  0  0  0
   -3.7172    3.1254    1.5296 H   0  0  0  0  0  0  0  0  0  0  0  0
   12.8177   -0.0933   -1.9977 N   0  0  0  0  0  0  0  0  0  0  0  0
   13.9150   -0.1844   -2.0962 N   0  0  0  0  0  0  0  0  0  0  0  0
   -4.3571    0.7530    2.1263 O   0  0  0  0  0  0  0  0  0  0  0  0
   -4.7100   -0.6056    2.4611 C   0  0  0  0  0  0  0  0  0  0  0  0
   -5.0372   -0.5681    3.4984 H   0  0  0  0  0  0  0  0  0  0  0  0
   -3.8396   -1.2616    2.3669 H   0  0  0  0  0  0  0  0  0  0  0  0
   -5.5316   -0.9523    1.8252 H   0  0  0  0  0  0  0  0  0  0  0  0
  1  7  1  0  0  0  0
  1  6  2  0  0  0  0
  2  3  2  0  0  0  0
  2  1  1  0  0  0  0
  3  4  1  0  0  0  0
  4  5  2  0  0  0  0
  5  6  1  0  0  0  0
  5 10  1  0  0  0  0
  6 13  1  0  0  0  0
  8  2  1  0  0  0  0
  9  4  1  0  0  0  0
 12 11  3  0  0  0  0
 13 14  1  0  0  0  0
 14 15  1  0  0  0  0
 16 14  1  0  0  0  0
 17 14  1  0  0  0  0
M  RAD  1   3   2
M  END
