Coordinates from ORCA-job 4-CH3O-Ph-N2+-scan-d090-169-n800
 OpenBabel09191814063D

 17 16  0  0  0  0  0  0  0  0999 V2000
   -2.8491   -0.1602    0.2454 C   0  0  0  0  0  0  0  0  0  0  0  0
   -1.5239   -0.1590   -0.2562 C   0  0  0  0  0  0  0  0  0  0  0  0
   -1.1271    1.1200   -0.3071 C   0  0  0  0  0  0  0  0  0  0  0  0
   -1.3553    2.3153    0.2615 C   0  0  0  0  0  0  0  0  0  0  0  0
   -2.6737    2.2434    0.7592 C   0  0  0  0  0  0  0  0  0  0  0  0
   -3.4116    1.0269    0.7733 C   0  0  0  0  0  0  0  0  0  0  0  0
   -3.3984   -1.0943    0.2001 H   0  0  0  0  0  0  0  0  0  0  0  0
   -0.9994   -1.0453   -0.5961 H   0  0  0  0  0  0  0  0  0  0  0  0
   -0.7718    3.2276    0.2157 H   0  0  0  0  0  0  0  0  0  0  0  0
   -3.1548    3.1654    1.0764 H   0  0  0  0  0  0  0  0  0  0  0  0
    8.0292    0.6613   -2.1469 N   0  0  0  0  0  0  0  0  0  0  0  0
    9.1053    0.6289   -2.3978 N   0  0  0  0  0  0  0  0  0  0  0  0
   -4.6281    1.1199    1.2943 O   0  0  0  0  0  0  0  0  0  0  0  0
   -5.4541   -0.0555    1.4269 C   0  0  0  0  0  0  0  0  0  0  0  0
   -6.3814    0.2960    1.8753 H   0  0  0  0  0  0  0  0  0  0  0  0
   -4.9757   -0.7882    2.0836 H   0  0  0  0  0  0  0  0  0  0  0  0
   -5.6596   -0.4888    0.4422 H   0  0  0  0  0  0  0  0  0  0  0  0
  1  6  2  0  0  0  0
  2  1  1  0  0  0  0
  3  2  2  0  0  0  0
  3  4  1  0  0  0  0
  4  5  2  0  0  0  0
  5  6  1  0  0  0  0
  5 10  1  0  0  0  0
  6 13  1  0  0  0  0
  7  1  1  0  0  0  0
  8  2  1  0  0  0  0
  9  4  1  0  0  0  0
 12 11  3  0  0  0  0
 13 14  1  0  0  0  0
 14 15  1  0  0  0  0
 14 16  1  0  0  0  0
 17 14  1  0  0  0  0
M  RAD  1   3   2
M  END
