Coordinates from ORCA-job 4-CH3O-Ph-N2+-scan-d090-169-n800
 OpenBabel09191814063D

 17 16  0  0  0  0  0  0  0  0999 V2000
   -3.0770   -0.1435    0.2440 C   0  0  0  0  0  0  0  0  0  0  0  0
   -1.7806   -0.1221   -0.3270 C   0  0  0  0  0  0  0  0  0  0  0  0
   -1.3944    1.1603   -0.3725 C   0  0  0  0  0  0  0  0  0  0  0  0
   -1.5986    2.3411    0.2341 C   0  0  0  0  0  0  0  0  0  0  0  0
   -2.8879    2.2500    0.7995 C   0  0  0  0  0  0  0  0  0  0  0  0
   -3.6171    1.0282    0.8268 C   0  0  0  0  0  0  0  0  0  0  0  0
   -3.6225   -1.0802    0.2078 H   0  0  0  0  0  0  0  0  0  0  0  0
   -1.2700   -0.9974   -0.7137 H   0  0  0  0  0  0  0  0  0  0  0  0
   -1.0241    3.2585    0.1762 H   0  0  0  0  0  0  0  0  0  0  0  0
   -3.3569    3.1619    1.1611 H   0  0  0  0  0  0  0  0  0  0  0  0
    9.6150    0.6184   -2.4289 N   0  0  0  0  0  0  0  0  0  0  0  0
   10.6933    0.5842   -2.6701 N   0  0  0  0  0  0  0  0  0  0  0  0
   -4.8044    1.1019    1.4139 O   0  0  0  0  0  0  0  0  0  0  0  0
   -5.6155   -0.0817    1.5652 C   0  0  0  0  0  0  0  0  0  0  0  0
   -6.5195    0.2540    2.0699 H   0  0  0  0  0  0  0  0  0  0  0  0
   -5.0985   -0.8247    2.1796 H   0  0  0  0  0  0  0  0  0  0  0  0
   -5.8709   -0.4955    0.5838 H   0  0  0  0  0  0  0  0  0  0  0  0
  1  6  2  0  0  0  0
  2  1  1  0  0  0  0
  3  2  2  0  0  0  0
  3  4  1  0  0  0  0
  4  5  2  0  0  0  0
  5  6  1  0  0  0  0
  5 10  1  0  0  0  0
  6 13  1  0  0  0  0
  7  1  1  0  0  0  0
  8  2  1  0  0  0  0
  9  4  1  0  0  0  0
 12 11  3  0  0  0  0
 13 14  1  0  0  0  0
 14 15  1  0  0  0  0
 14 16  1  0  0  0  0
 17 14  1  0  0  0  0
M  RAD  1   3   2
M  END
