Coordinates from ORCA-job 4-CH3O-Ph-N2+-scan-d090-169-n800
 OpenBabel09191814063D

 17 16  0  0  0  0  0  0  0  0999 V2000
   -2.0377   -0.2090    0.1902 C   0  0  0  0  0  0  0  0  0  0  0  0
   -0.6855   -0.2885   -0.2289 C   0  0  0  0  0  0  0  0  0  0  0  0
   -0.1629    0.9443   -0.1687 C   0  0  0  0  0  0  0  0  0  0  0  0
   -0.4911    2.2105    0.1524 C   0  0  0  0  0  0  0  0  0  0  0  0
   -1.8397    2.2078    0.5559 C   0  0  0  0  0  0  0  0  0  0  0  0
   -2.6118    1.0207    0.5785 C   0  0  0  0  0  0  0  0  0  0  0  0
   -2.6004   -1.1355    0.1958 H   0  0  0  0  0  0  0  0  0  0  0  0
   -0.2048   -1.2086   -0.5347 H   0  0  0  0  0  0  0  0  0  0  0  0
    0.1292    3.0966    0.1224 H   0  0  0  0  0  0  0  0  0  0  0  0
   -2.2920    3.1484    0.8568 H   0  0  0  0  0  0  0  0  0  0  0  0
    2.0376    0.8738   -0.8402 N   0  0  0  0  0  0  0  0  0  0  0  0
    3.0936    0.8435   -1.1618 N   0  0  0  0  0  0  0  0  0  0  0  0
   -3.8731    1.1740    0.9833 O   0  0  0  0  0  0  0  0  0  0  0  0
   -4.7476    0.0337    1.0448 C   0  0  0  0  0  0  0  0  0  0  0  0
   -5.7017    0.4209    1.3987 H   0  0  0  0  0  0  0  0  0  0  0  0
   -4.3659   -0.7091    1.7533 H   0  0  0  0  0  0  0  0  0  0  0  0
   -4.8756   -0.4099    0.0517 H   0  0  0  0  0  0  0  0  0  0  0  0
  1  7  1  0  0  0  0
  1  6  2  0  0  0  0
  2  3  2  0  0  0  0
  2  1  1  0  0  0  0
  3  4  1  0  0  0  0
  4  5  2  0  0  0  0
  5  6  1  0  0  0  0
  5 10  1  0  0  0  0
  6 13  1  0  0  0  0
  8  2  1  0  0  0  0
  9  4  1  0  0  0  0
 12 11  3  0  0  0  0
 13 14  1  0  0  0  0
 14 15  1  0  0  0  0
 14 16  1  0  0  0  0
 17 14  1  0  0  0  0
M  RAD  1   3   2
M  END
