Coordinates from ORCA-job 4-CH3O-Ph-N2+-scan-d090-169-n800
 OpenBabel09191814063D

 17 16  0  0  0  0  0  0  0  0999 V2000
   -2.5552   -0.1680    0.2103 C   0  0  0  0  0  0  0  0  0  0  0  0
   -1.2138   -0.1746   -0.2468 C   0  0  0  0  0  0  0  0  0  0  0  0
   -0.8146    1.1033   -0.3001 C   0  0  0  0  0  0  0  0  0  0  0  0
   -1.0613    2.3067    0.2428 C   0  0  0  0  0  0  0  0  0  0  0  0
   -2.3956    2.2421    0.6971 C   0  0  0  0  0  0  0  0  0  0  0  0
   -3.1343    1.0261    0.7029 C   0  0  0  0  0  0  0  0  0  0  0  0
   -3.1034   -1.1024    0.1588 H   0  0  0  0  0  0  0  0  0  0  0  0
   -0.6794   -1.0655   -0.5578 H   0  0  0  0  0  0  0  0  0  0  0  0
   -0.4755    3.2179    0.2046 H   0  0  0  0  0  0  0  0  0  0  0  0
   -2.8861    3.1683    0.9862 H   0  0  0  0  0  0  0  0  0  0  0  0
    5.9171    0.6851   -1.6955 N   0  0  0  0  0  0  0  0  0  0  0  0
    6.9920    0.6499   -1.9512 N   0  0  0  0  0  0  0  0  0  0  0  0
   -4.3678    1.1263    1.1813 O   0  0  0  0  0  0  0  0  0  0  0  0
   -5.1982   -0.0472    1.3019 C   0  0  0  0  0  0  0  0  0  0  0  0
   -6.1398    0.3101    1.7145 H   0  0  0  0  0  0  0  0  0  0  0  0
   -4.7423   -0.7711    1.9838 H   0  0  0  0  0  0  0  0  0  0  0  0
   -5.3711   -0.4936    0.3168 H   0  0  0  0  0  0  0  0  0  0  0  0
  1  6  2  0  0  0  0
  2  1  1  0  0  0  0
  3  2  2  0  0  0  0
  3  4  1  0  0  0  0
  4  5  2  0  0  0  0
  5  6  1  0  0  0  0
  5 10  1  0  0  0  0
  6 13  1  0  0  0  0
  7  1  1  0  0  0  0
  8  2  1  0  0  0  0
  9  4  1  0  0  0  0
 12 11  3  0  0  0  0
 13 14  1  0  0  0  0
 14 15  1  0  0  0  0
 14 16  1  0  0  0  0
 17 14  1  0  0  0  0
M  RAD  1   3   2
M  END
