Coordinates from ORCA-job 4-CH3O-Ph-N2+-scan-d090-169-n800
 OpenBabel09191814063D

 17 16  0  0  0  0  0  0  0  0999 V2000
   -3.3062   -0.0935    0.1702 C   0  0  0  0  0  0  0  0  0  0  0  0
   -2.0976   -0.0037   -0.5637 C   0  0  0  0  0  0  0  0  0  0  0  0
   -1.7535    1.2913   -0.5932 C   0  0  0  0  0  0  0  0  0  0  0  0
   -1.9056    2.4350    0.0946 C   0  0  0  0  0  0  0  0  0  0  0  0
   -3.1063    2.2757    0.8183 C   0  0  0  0  0  0  0  0  0  0  0  0
   -3.7942    1.0314    0.8777 C   0  0  0  0  0  0  0  0  0  0  0  0
   -3.8277   -1.0443    0.1580 H   0  0  0  0  0  0  0  0  0  0  0  0
   -1.6199   -0.8428   -1.0575 H   0  0  0  0  0  0  0  0  0  0  0  0
   -1.3670    3.3719    0.0097 H   0  0  0  0  0  0  0  0  0  0  0  0
   -3.5465    3.1538    1.2844 H   0  0  0  0  0  0  0  0  0  0  0  0
   11.0498    0.4969   -2.5420 N   0  0  0  0  0  0  0  0  0  0  0  0
   12.1338    0.4505   -2.7539 N   0  0  0  0  0  0  0  0  0  0  0  0
   -4.8951    1.0393    1.6179 O   0  0  0  0  0  0  0  0  0  0  0  0
   -5.6490   -0.1754    1.8128 C   0  0  0  0  0  0  0  0  0  0  0  0
   -6.4868    0.1070    2.4475 H   0  0  0  0  0  0  0  0  0  0  0  0
   -5.0369   -0.9299    2.3156 H   0  0  0  0  0  0  0  0  0  0  0  0
   -6.0209   -0.5500    0.8531 H   0  0  0  0  0  0  0  0  0  0  0  0
  1  6  2  0  0  0  0
  2  1  1  0  0  0  0
  3  2  2  0  0  0  0
  3  4  1  0  0  0  0
  4  5  2  0  0  0  0
  5  6  1  0  0  0  0
  5 10  1  0  0  0  0
  6 13  1  0  0  0  0
  7  1  1  0  0  0  0
  8  2  1  0  0  0  0
  9  4  1  0  0  0  0
 12 11  3  0  0  0  0
 13 14  1  0  0  0  0
 14 16  1  0  0  0  0
 14 15  1  0  0  0  0
 17 14  1  0  0  0  0
M  RAD  1   3   2
M  END
