Coordinates from ORCA-job 4-CH3O-Ph-N2+-scan-d090-169-n800
 OpenBabel09191814063D

 17 16  0  0  0  0  0  0  0  0999 V2000
   -2.0084   -0.2111    0.1811 C   0  0  0  0  0  0  0  0  0  0  0  0
   -0.6650   -0.2842   -0.2342 C   0  0  0  0  0  0  0  0  0  0  0  0
   -0.0878    0.9405   -0.1918 C   0  0  0  0  0  0  0  0  0  0  0  0
   -0.4692    2.2030    0.1445 C   0  0  0  0  0  0  0  0  0  0  0  0
   -1.8089    2.2077    0.5467 C   0  0  0  0  0  0  0  0  0  0  0  0
   -2.5810    1.0201    0.5692 C   0  0  0  0  0  0  0  0  0  0  0  0
   -2.5791   -1.1319    0.1901 H   0  0  0  0  0  0  0  0  0  0  0  0
   -0.1912   -1.2083   -0.5387 H   0  0  0  0  0  0  0  0  0  0  0  0
    0.1463    3.0925    0.1165 H   0  0  0  0  0  0  0  0  0  0  0  0
   -2.2688    3.1432    0.8490 H   0  0  0  0  0  0  0  0  0  0  0  0
    1.8252    0.8756   -0.7763 N   0  0  0  0  0  0  0  0  0  0  0  0
    2.8811    0.8440   -1.0981 N   0  0  0  0  0  0  0  0  0  0  0  0
   -3.8417    1.1739    0.9739 O   0  0  0  0  0  0  0  0  0  0  0  0
   -4.7195    0.0365    1.0368 C   0  0  0  0  0  0  0  0  0  0  0  0
   -5.6721    0.4272    1.3909 H   0  0  0  0  0  0  0  0  0  0  0  0
   -4.3399   -0.7072    1.7454 H   0  0  0  0  0  0  0  0  0  0  0  0
   -4.8494   -0.4081    0.0445 H   0  0  0  0  0  0  0  0  0  0  0  0
  1  7  1  0  0  0  0
  1  6  2  0  0  0  0
  2  3  2  0  0  0  0
  2  1  1  0  0  0  0
  3  4  1  0  0  0  0
  4  5  2  0  0  0  0
  5  6  1  0  0  0  0
  5 10  1  0  0  0  0
  6 13  1  0  0  0  0
  8  2  1  0  0  0  0
  9  4  1  0  0  0  0
 12 11  3  0  0  0  0
 13 14  1  0  0  0  0
 14 15  1  0  0  0  0
 14 16  1  0  0  0  0
 17 14  1  0  0  0  0
M  RAD  1   3   2
M  END
