Coordinates from ORCA-job 4-CH3O-Ph-N2+-scan-d090-169-n800
 OpenBabel09191814063D

 17 16  0  0  0  0  0  0  0  0999 V2000
   -3.4341   -0.0490    0.0988 C   0  0  0  0  0  0  0  0  0  0  0  0
   -2.3190    0.1045   -0.7614 C   0  0  0  0  0  0  0  0  0  0  0  0
   -2.0144    1.4096   -0.7782 C   0  0  0  0  0  0  0  0  0  0  0  0
   -2.1166    2.5215   -0.0317 C   0  0  0  0  0  0  0  0  0  0  0  0
   -3.2232    2.2997    0.8148 C   0  0  0  0  0  0  0  0  0  0  0  0
   -3.8676    1.0337    0.9014 C   0  0  0  0  0  0  0  0  0  0  0  0
   -3.9289   -1.0141    0.1068 H   0  0  0  0  0  0  0  0  0  0  0  0
   -1.8793   -0.7009   -1.3396 H   0  0  0  0  0  0  0  0  0  0  0  0
   -1.6161    3.4770   -0.1393 H   0  0  0  0  0  0  0  0  0  0  0  0
   -3.6306    3.1464    1.3618 H   0  0  0  0  0  0  0  0  0  0  0  0
   11.7152    0.3908   -2.5131 N   0  0  0  0  0  0  0  0  0  0  0  0
   12.8031    0.3327   -2.7004 N   0  0  0  0  0  0  0  0  0  0  0  0
   -4.8772    0.9810    1.7602 O   0  0  0  0  0  0  0  0  0  0  0  0
   -5.5724   -0.2623    1.9899 C   0  0  0  0  0  0  0  0  0  0  0  0
   -6.3397   -0.0288    2.7257 H   0  0  0  0  0  0  0  0  0  0  0  0
   -4.8878   -1.0159    2.3901 H   0  0  0  0  0  0  0  0  0  0  0  0
   -6.0411   -0.6124    1.0640 H   0  0  0  0  0  0  0  0  0  0  0  0
  1  7  1  0  0  0  0
  1  6  2  0  0  0  0
  2  1  1  0  0  0  0
  3  2  2  0  0  0  0
  3  4  1  0  0  0  0
  4  5  2  0  0  0  0
  5  6  1  0  0  0  0
  5 10  1  0  0  0  0
  6 13  1  0  0  0  0
  8  2  1  0  0  0  0
  9  4  1  0  0  0  0
 12 11  3  0  0  0  0
 13 14  1  0  0  0  0
 14 16  1  0  0  0  0
 14 15  1  0  0  0  0
 17 14  1  0  0  0  0
M  RAD  1   3   2
M  END
