Coordinates from ORCA-job 4-CH3O-Ph-N2+-scan-d090-169-n800
 OpenBabel09191814063D

 17 16  0  0  0  0  0  0  0  0999 V2000
   -3.2656   -0.1054    0.1893 C   0  0  0  0  0  0  0  0  0  0  0  0
   -2.0344   -0.0325   -0.5082 C   0  0  0  0  0  0  0  0  0  0  0  0
   -1.6799    1.2595   -0.5411 C   0  0  0  0  0  0  0  0  0  0  0  0
   -1.8444    2.4120    0.1289 C   0  0  0  0  0  0  0  0  0  0  0  0
   -3.0678    2.2694    0.8172 C   0  0  0  0  0  0  0  0  0  0  0  0
   -3.7665    1.0308    0.8693 C   0  0  0  0  0  0  0  0  0  0  0  0
   -3.7935   -1.0526    0.1715 H   0  0  0  0  0  0  0  0  0  0  0  0
   -1.5483   -0.8805   -0.9781 H   0  0  0  0  0  0  0  0  0  0  0  0
   -1.2966    3.3440    0.0503 H   0  0  0  0  0  0  0  0  0  0  0  0
   -3.5155    3.1558    1.2601 H   0  0  0  0  0  0  0  0  0  0  0  0
   10.8150    0.5255   -2.5379 N   0  0  0  0  0  0  0  0  0  0  0  0
   11.8978    0.4824   -2.7567 N   0  0  0  0  0  0  0  0  0  0  0  0
   -4.8895    1.0547    1.5753 O   0  0  0  0  0  0  0  0  0  0  0  0
   -5.6578   -0.1523    1.7603 C   0  0  0  0  0  0  0  0  0  0  0  0
   -6.5125    0.1431    2.3660 H   0  0  0  0  0  0  0  0  0  0  0  0
   -5.0670   -0.9055    2.2898 H   0  0  0  0  0  0  0  0  0  0  0  0
   -6.0031   -0.5350    0.7938 H   0  0  0  0  0  0  0  0  0  0  0  0
  1  6  2  0  0  0  0
  2  1  1  0  0  0  0
  3  2  2  0  0  0  0
  3  4  1  0  0  0  0
  4  5  2  0  0  0  0
  5  6  1  0  0  0  0
  5 10  1  0  0  0  0
  6 13  1  0  0  0  0
  7  1  1  0  0  0  0
  8  2  1  0  0  0  0
  9  4  1  0  0  0  0
 12 11  3  0  0  0  0
 13 14  1  0  0  0  0
 14 16  1  0  0  0  0
 14 15  1  0  0  0  0
 17 14  1  0  0  0  0
M  RAD  1   3   2
M  END
