Coordinates from ORCA-job 4-CH3O-Ph-N2+-scan-d090-169-n800
 OpenBabel09191814063D

 17 16  0  0  0  0  0  0  0  0999 V2000
   -3.0895   -0.1418    0.2422 C   0  0  0  0  0  0  0  0  0  0  0  0
   -1.7959   -0.1184   -0.3353 C   0  0  0  0  0  0  0  0  0  0  0  0
   -1.4111    1.1645   -0.3797 C   0  0  0  0  0  0  0  0  0  0  0  0
   -1.6133    2.3444    0.2296 C   0  0  0  0  0  0  0  0  0  0  0  0
   -2.8999    2.2508    0.8012 C   0  0  0  0  0  0  0  0  0  0  0  0
   -3.6279    1.0284    0.8296 C   0  0  0  0  0  0  0  0  0  0  0  0
   -3.6344   -1.0789    0.2073 H   0  0  0  0  0  0  0  0  0  0  0  0
   -1.2861   -0.9925   -0.7256 H   0  0  0  0  0  0  0  0  0  0  0  0
   -1.0396    3.2622    0.1711 H   0  0  0  0  0  0  0  0  0  0  0  0
   -3.3679    3.1614    1.1671 H   0  0  0  0  0  0  0  0  0  0  0  0
    9.6991    0.6141   -2.4404 N   0  0  0  0  0  0  0  0  0  0  0  0
   10.7776    0.5797   -2.6806 N   0  0  0  0  0  0  0  0  0  0  0  0
   -4.8125    1.1000    1.4226 O   0  0  0  0  0  0  0  0  0  0  0  0
   -5.6218   -0.0846    1.5754 C   0  0  0  0  0  0  0  0  0  0  0  0
   -6.5236    0.2493    2.0851 H   0  0  0  0  0  0  0  0  0  0  0  0
   -5.1012   -0.8284    2.1859 H   0  0  0  0  0  0  0  0  0  0  0  0
   -5.8815   -0.4968    0.5945 H   0  0  0  0  0  0  0  0  0  0  0  0
  1  6  2  0  0  0  0
  2  1  1  0  0  0  0
  3  2  2  0  0  0  0
  3  4  1  0  0  0  0
  4  5  2  0  0  0  0
  5  6  1  0  0  0  0
  5 10  1  0  0  0  0
  6 13  1  0  0  0  0
  7  1  1  0  0  0  0
  8  2  1  0  0  0  0
  9  4  1  0  0  0  0
 12 11  3  0  0  0  0
 13 14  1  0  0  0  0
 14 15  1  0  0  0  0
 14 16  1  0  0  0  0
 17 14  1  0  0  0  0
M  RAD  1   3   2
M  END
