Coordinates from ORCA-job 4-CH3O-Ph-N2+-scan-d090-169-n800
 OpenBabel09191814063D

 17 16  0  0  0  0  0  0  0  0999 V2000
   -3.1528   -0.1318    0.2296 C   0  0  0  0  0  0  0  0  0  0  0  0
   -1.8755   -0.0949   -0.3824 C   0  0  0  0  0  0  0  0  0  0  0  0
   -1.4988    1.1904   -0.4242 C   0  0  0  0  0  0  0  0  0  0  0  0
   -1.6903    2.3621    0.2038 C   0  0  0  0  0  0  0  0  0  0  0  0
   -2.9602    2.2558    0.8091 C   0  0  0  0  0  0  0  0  0  0  0  0
   -3.6808    1.0291    0.8443 C   0  0  0  0  0  0  0  0  0  0  0  0
   -3.6935   -1.0714    0.1991 H   0  0  0  0  0  0  0  0  0  0  0  0
   -1.3724   -0.9620   -0.7963 H   0  0  0  0  0  0  0  0  0  0  0  0
   -1.1235    3.2839    0.1392 H   0  0  0  0  0  0  0  0  0  0  0  0
   -3.4228    3.1600    1.1970 H   0  0  0  0  0  0  0  0  0  0  0  0
   10.1171    0.5892   -2.4912 N   0  0  0  0  0  0  0  0  0  0  0  0
   11.1968    0.5528   -2.7255 N   0  0  0  0  0  0  0  0  0  0  0  0
   -4.8490    1.0878    1.4701 O   0  0  0  0  0  0  0  0  0  0  0  0
   -5.6478   -0.1027    1.6323 C   0  0  0  0  0  0  0  0  0  0  0  0
   -6.5371    0.2210    2.1699 H   0  0  0  0  0  0  0  0  0  0  0  0
   -5.1069   -0.8500    2.2203 H   0  0  0  0  0  0  0  0  0  0  0  0
   -5.9321   -0.5058    0.6544 H   0  0  0  0  0  0  0  0  0  0  0  0
  1  6  2  0  0  0  0
  2  1  1  0  0  0  0
  3  2  2  0  0  0  0
  3  4  1  0  0  0  0
  4  5  2  0  0  0  0
  5  6  1  0  0  0  0
  5 10  1  0  0  0  0
  6 13  1  0  0  0  0
  7  1  1  0  0  0  0
  8  2  1  0  0  0  0
  9  4  1  0  0  0  0
 12 11  3  0  0  0  0
 13 14  1  0  0  0  0
 14 15  1  0  0  0  0
 14 16  1  0  0  0  0
 17 14  1  0  0  0  0
M  RAD  1   3   2
M  END
