Coordinates from ORCA-job 4-CH3O-Ph-N2+-scan-d090-169-n800
 OpenBabel09191814063D

 17 16  0  0  0  0  0  0  0  0999 V2000
   -3.1324   -0.1354    0.2344 C   0  0  0  0  0  0  0  0  0  0  0  0
   -1.8492   -0.1033   -0.3653 C   0  0  0  0  0  0  0  0  0  0  0  0
   -1.4695    1.1811   -0.4082 C   0  0  0  0  0  0  0  0  0  0  0  0
   -1.6648    2.3556    0.2134 C   0  0  0  0  0  0  0  0  0  0  0  0
   -2.9407    2.2540    0.8068 C   0  0  0  0  0  0  0  0  0  0  0  0
   -3.6641    1.0288    0.8396 C   0  0  0  0  0  0  0  0  0  0  0  0
   -3.6747   -1.0740    0.2022 H   0  0  0  0  0  0  0  0  0  0  0  0
   -1.3438   -0.9730   -0.7710 H   0  0  0  0  0  0  0  0  0  0  0  0
   -1.0956    3.2760    0.1508 H   0  0  0  0  0  0  0  0  0  0  0  0
   -3.4053    3.1606    1.1868 H   0  0  0  0  0  0  0  0  0  0  0  0
    9.9841    0.5981   -2.4767 N   0  0  0  0  0  0  0  0  0  0  0  0
   11.0634    0.5624   -2.7131 N   0  0  0  0  0  0  0  0  0  0  0  0
   -4.8381    1.0922    1.4539 O   0  0  0  0  0  0  0  0  0  0  0  0
   -5.6408   -0.0962    1.6128 C   0  0  0  0  0  0  0  0  0  0  0  0
   -6.5346    0.2313    2.1406 H   0  0  0  0  0  0  0  0  0  0  0  0
   -5.1070   -0.8423    2.2088 H   0  0  0  0  0  0  0  0  0  0  0  0
   -5.9164   -0.5024    0.6337 H   0  0  0  0  0  0  0  0  0  0  0  0
  1  6  2  0  0  0  0
  2  1  1  0  0  0  0
  3  2  2  0  0  0  0
  3  4  1  0  0  0  0
  4  5  2  0  0  0  0
  5  6  1  0  0  0  0
  5 10  1  0  0  0  0
  6 13  1  0  0  0  0
  7  1  1  0  0  0  0
  8  2  1  0  0  0  0
  9  4  1  0  0  0  0
 12 11  3  0  0  0  0
 13 14  1  0  0  0  0
 14 15  1  0  0  0  0
 14 16  1  0  0  0  0
 17 14  1  0  0  0  0
M  RAD  1   3   2
M  END
