Coordinates from ORCA-job 4-CH3O-Ph-N2+-scan-d090-169-n800
 OpenBabel09191814063D

 17 16  0  0  0  0  0  0  0  0999 V2000
   -2.0278   -0.2095    0.1872 C   0  0  0  0  0  0  0  0  0  0  0  0
   -0.6780   -0.2875   -0.2309 C   0  0  0  0  0  0  0  0  0  0  0  0
   -0.1400    0.9431   -0.1757 C   0  0  0  0  0  0  0  0  0  0  0  0
   -0.4830    2.2083    0.1496 C   0  0  0  0  0  0  0  0  0  0  0  0
   -1.8292    2.2076    0.5528 C   0  0  0  0  0  0  0  0  0  0  0  0
   -2.6013    1.0206    0.5753 C   0  0  0  0  0  0  0  0  0  0  0  0
   -2.5928   -1.1344    0.1938 H   0  0  0  0  0  0  0  0  0  0  0  0
   -0.1995   -1.2087   -0.5363 H   0  0  0  0  0  0  0  0  0  0  0  0
    0.1358    3.0954    0.1202 H   0  0  0  0  0  0  0  0  0  0  0  0
   -2.2835    3.1469    0.8540 H   0  0  0  0  0  0  0  0  0  0  0  0
    1.9646    0.8743   -0.8182 N   0  0  0  0  0  0  0  0  0  0  0  0
    3.0205    0.8436   -1.1399 N   0  0  0  0  0  0  0  0  0  0  0  0
   -3.8626    1.1742    0.9802 O   0  0  0  0  0  0  0  0  0  0  0  0
   -4.7379    0.0347    1.0420 C   0  0  0  0  0  0  0  0  0  0  0  0
   -5.6916    0.4228    1.3959 H   0  0  0  0  0  0  0  0  0  0  0  0
   -4.3568   -0.7084    1.7505 H   0  0  0  0  0  0  0  0  0  0  0  0
   -4.8664   -0.4093    0.0491 H   0  0  0  0  0  0  0  0  0  0  0  0
  1  7  1  0  0  0  0
  1  6  2  0  0  0  0
  2  3  2  0  0  0  0
  2  1  1  0  0  0  0
  3  4  1  0  0  0  0
  4  5  2  0  0  0  0
  5  6  1  0  0  0  0
  5 10  1  0  0  0  0
  6 13  1  0  0  0  0
  8  2  1  0  0  0  0
  9  4  1  0  0  0  0
 12 11  3  0  0  0  0
 13 14  1  0  0  0  0
 14 15  1  0  0  0  0
 14 16  1  0  0  0  0
 17 14  1  0  0  0  0
M  RAD  1   3   2
M  END
