Coordinates from ORCA-job 4-CH3O-Ph-N2+-scan-d090-169-n800
 OpenBabel09191814063D

 17 16  0  0  0  0  0  0  0  0999 V2000
   -3.7712    0.1076   -0.1343 C   0  0  0  0  0  0  0  0  0  0  0  0
   -3.1572    0.4953   -1.3497 C   0  0  0  0  0  0  0  0  0  0  0  0
   -3.0229    1.8294   -1.3173 C   0  0  0  0  0  0  0  0  0  0  0  0
   -2.8945    2.8467   -0.4489 C   0  0  0  0  0  0  0  0  0  0  0  0
   -3.5004    2.3958    0.7425 C   0  0  0  0  0  0  0  0  0  0  0  0
   -3.9184    1.0460    0.9158 C   0  0  0  0  0  0  0  0  0  0  0  0
   -4.1144   -0.9177   -0.0507 H   0  0  0  0  0  0  0  0  0  0  0  0
   -2.9280   -0.1862   -2.1618 H   0  0  0  0  0  0  0  0  0  0  0  0
   -2.5868    3.8714   -0.6230 H   0  0  0  0  0  0  0  0  0  0  0  0
   -3.7150    3.1254    1.5196 H   0  0  0  0  0  0  0  0  0  0  0  0
   12.7285   -0.0278   -2.0770 N   0  0  0  0  0  0  0  0  0  0  0  0
   13.8253   -0.1154   -2.1846 N   0  0  0  0  0  0  0  0  0  0  0  0
   -4.4470    0.7761    2.1018 O   0  0  0  0  0  0  0  0  0  0  0  0
   -4.8518   -0.5697    2.4293 C   0  0  0  0  0  0  0  0  0  0  0  0
   -5.2465   -0.5106    3.4419 H   0  0  0  0  0  0  0  0  0  0  0  0
   -3.9922   -1.2456    2.4017 H   0  0  0  0  0  0  0  0  0  0  0  0
   -5.6369   -0.9074    1.7444 H   0  0  0  0  0  0  0  0  0  0  0  0
  1  7  1  0  0  0  0
  1  6  2  0  0  0  0
  2  3  2  0  0  0  0
  2  1  1  0  0  0  0
  3  4  1  0  0  0  0
  4  5  2  0  0  0  0
  5  6  1  0  0  0  0
  5 10  1  0  0  0  0
  6 13  1  0  0  0  0
  8  2  1  0  0  0  0
  9  4  1  0  0  0  0
 12 11  3  0  0  0  0
 13 14  1  0  0  0  0
 14 15  1  0  0  0  0
 16 14  1  0  0  0  0
 17 14  1  0  0  0  0
M  RAD  1   3   2
M  END
