Coordinates from ORCA-job 4-CH3O-Ph-N2+-scan-d090-169-n800
 OpenBabel09191814063D

 17 16  0  0  0  0  0  0  0  0999 V2000
   -3.5558    0.0059    0.0082 C   0  0  0  0  0  0  0  0  0  0  0  0
   -2.5851    0.2398   -0.9967 C   0  0  0  0  0  0  0  0  0  0  0  0
   -2.3301    1.5558   -0.9963 C   0  0  0  0  0  0  0  0  0  0  0  0
   -2.3575    2.6303   -0.1907 C   0  0  0  0  0  0  0  0  0  0  0  0
   -3.3196    2.3290    0.7963 C   0  0  0  0  0  0  0  0  0  0  0  0
   -3.9022    1.0360    0.9155 C   0  0  0  0  0  0  0  0  0  0  0  0
   -4.0113   -0.9777    0.0432 H   0  0  0  0  0  0  0  0  0  0  0  0
   -2.2073   -0.5223   -1.6695 H   0  0  0  0  0  0  0  0  0  0  0  0
   -1.9098    3.6084   -0.3241 H   0  0  0  0  0  0  0  0  0  0  0  0
   -3.6702    3.1350    1.4363 H   0  0  0  0  0  0  0  0  0  0  0  0
   12.1625    0.2586   -2.3903 N   0  0  0  0  0  0  0  0  0  0  0  0
   13.2545    0.1902   -2.5479 N   0  0  0  0  0  0  0  0  0  0  0  0
   -4.7723    0.9074    1.9085 O   0  0  0  0  0  0  0  0  0  0  0  0
   -5.3849   -0.3709    2.1777 C   0  0  0  0  0  0  0  0  0  0  0  0
   -6.0434   -0.1989    3.0270 H   0  0  0  0  0  0  0  0  0  0  0  0
   -4.6246   -1.1129    2.4385 H   0  0  0  0  0  0  0  0  0  0  0  0
   -5.9724   -0.7003    1.3140 H   0  0  0  0  0  0  0  0  0  0  0  0
  1  7  1  0  0  0  0
  1  6  2  0  0  0  0
  2  3  2  0  0  0  0
  2  1  1  0  0  0  0
  3  4  1  0  0  0  0
  4  5  2  0  0  0  0
  5  6  1  0  0  0  0
  5 10  1  0  0  0  0
  6 13  1  0  0  0  0
  8  2  1  0  0  0  0
  9  4  1  0  0  0  0
 12 11  3  0  0  0  0
 13 14  1  0  0  0  0
 14 16  1  0  0  0  0
 14 15  1  0  0  0  0
 17 14  1  0  0  0  0
M  RAD  1   3   2
M  END
