Coordinates from ORCA-job 4-CH3O-Ph-N2+-scan-d090-169-n800
 OpenBabel09191814063D

 17 16  0  0  0  0  0  0  0  0999 V2000
   -2.1284   -0.2065    0.2165 C   0  0  0  0  0  0  0  0  0  0  0  0
   -0.7669   -0.2888   -0.2048 C   0  0  0  0  0  0  0  0  0  0  0  0
   -0.3019    0.9532   -0.1290 C   0  0  0  0  0  0  0  0  0  0  0  0
   -0.5794    2.2215    0.1818 C   0  0  0  0  0  0  0  0  0  0  0  0
   -1.9369    2.2096    0.5857 C   0  0  0  0  0  0  0  0  0  0  0  0
   -2.7071    1.0206    0.6068 C   0  0  0  0  0  0  0  0  0  0  0  0
   -2.6816   -1.1395    0.2153 H   0  0  0  0  0  0  0  0  0  0  0  0
   -0.2758   -1.2038   -0.5119 H   0  0  0  0  0  0  0  0  0  0  0  0
    0.0456    3.1053    0.1500 H   0  0  0  0  0  0  0  0  0  0  0  0
   -2.3839    3.1545    0.8837 H   0  0  0  0  0  0  0  0  0  0  0  0
    2.7242    0.8701   -1.0453 N   0  0  0  0  0  0  0  0  0  0  0  0
    3.7813    0.8444   -1.3658 N   0  0  0  0  0  0  0  0  0  0  0  0
   -3.9682    1.1703    1.0107 O   0  0  0  0  0  0  0  0  0  0  0  0
   -4.8386    0.0257    1.0719 C   0  0  0  0  0  0  0  0  0  0  0  0
   -5.7942    0.4091    1.4255 H   0  0  0  0  0  0  0  0  0  0  0  0
   -4.4533   -0.7148    1.7809 H   0  0  0  0  0  0  0  0  0  0  0  0
   -4.9641   -0.4172    0.0780 H   0  0  0  0  0  0  0  0  0  0  0  0
  1  6  2  0  0  0  0
  2  3  2  0  0  0  0
  2  1  1  0  0  0  0
  3  4  1  0  0  0  0
  4  5  2  0  0  0  0
  5  6  1  0  0  0  0
  5 10  1  0  0  0  0
  6 13  1  0  0  0  0
  7  1  1  0  0  0  0
  8  2  1  0  0  0  0
  9  4  1  0  0  0  0
 12 11  3  0  0  0  0
 13 14  1  0  0  0  0
 14 15  1  0  0  0  0
 14 16  1  0  0  0  0
 17 14  1  0  0  0  0
M  RAD  1   3   2
M  END
