Coordinates from ORCA-job 4-CH3O-Ph-N2+-scan-d090-169-n800
 OpenBabel09191814063D

 17 16  0  0  0  0  0  0  0  0999 V2000
   -2.5342   -0.1687    0.2072 C   0  0  0  0  0  0  0  0  0  0  0  0
   -1.1919   -0.1760   -0.2474 C   0  0  0  0  0  0  0  0  0  0  0  0
   -0.7923    1.1017   -0.3009 C   0  0  0  0  0  0  0  0  0  0  0  0
   -1.0397    2.3056    0.2405 C   0  0  0  0  0  0  0  0  0  0  0  0
   -2.3749    2.2417    0.6923 C   0  0  0  0  0  0  0  0  0  0  0  0
   -3.1139    1.0259    0.6977 C   0  0  0  0  0  0  0  0  0  0  0  0
   -3.0826   -1.1030    0.1554 H   0  0  0  0  0  0  0  0  0  0  0  0
   -0.6572   -1.0674   -0.5569 H   0  0  0  0  0  0  0  0  0  0  0  0
   -0.4535    3.2166    0.2026 H   0  0  0  0  0  0  0  0  0  0  0  0
   -2.8656    3.1683    0.9799 H   0  0  0  0  0  0  0  0  0  0  0  0
    5.7626    0.6879   -1.6609 N   0  0  0  0  0  0  0  0  0  0  0  0
    6.8374    0.6521   -1.9170 N   0  0  0  0  0  0  0  0  0  0  0  0
   -4.3483    1.1269    1.1737 O   0  0  0  0  0  0  0  0  0  0  0  0
   -5.1791   -0.0464    1.2937 C   0  0  0  0  0  0  0  0  0  0  0  0
   -6.1215    0.3115    1.7043 H   0  0  0  0  0  0  0  0  0  0  0  0
   -4.7247   -0.7699    1.9770 H   0  0  0  0  0  0  0  0  0  0  0  0
   -5.3503   -0.4935    0.3086 H   0  0  0  0  0  0  0  0  0  0  0  0
  1  6  2  0  0  0  0
  2  1  1  0  0  0  0
  3  2  2  0  0  0  0
  3  4  1  0  0  0  0
  4  5  2  0  0  0  0
  5  6  1  0  0  0  0
  5 10  1  0  0  0  0
  6 13  1  0  0  0  0
  7  1  1  0  0  0  0
  8  2  1  0  0  0  0
  9  4  1  0  0  0  0
 12 11  3  0  0  0  0
 13 14  1  0  0  0  0
 14 15  1  0  0  0  0
 14 16  1  0  0  0  0
 17 14  1  0  0  0  0
M  RAD  1   3   2
M  END
