Coordinates from ORCA-job 4-CH3O-Ph-N2+-scan-d090-169-n800
 OpenBabel09191814063D

 17 16  0  0  0  0  0  0  0  0999 V2000
   -2.4650   -0.1719    0.1966 C   0  0  0  0  0  0  0  0  0  0  0  0
   -1.1201   -0.1830   -0.2501 C   0  0  0  0  0  0  0  0  0  0  0  0
   -0.7178    1.0938   -0.3041 C   0  0  0  0  0  0  0  0  0  0  0  0
   -0.9664    2.2998    0.2320 C   0  0  0  0  0  0  0  0  0  0  0  0
   -2.3043    2.2395    0.6761 C   0  0  0  0  0  0  0  0  0  0  0  0
   -3.0455    1.0251    0.6804 C   0  0  0  0  0  0  0  0  0  0  0  0
   -3.0147   -1.1053    0.1441 H   0  0  0  0  0  0  0  0  0  0  0  0
   -0.5852   -1.0760   -0.5542 H   0  0  0  0  0  0  0  0  0  0  0  0
   -0.3781    3.2095    0.1953 H   0  0  0  0  0  0  0  0  0  0  0  0
   -2.7949    3.1677    0.9586 H   0  0  0  0  0  0  0  0  0  0  0  0
    5.2484    0.7009   -1.5450 N   0  0  0  0  0  0  0  0  0  0  0  0
    6.3226    0.6633   -1.8027 N   0  0  0  0  0  0  0  0  0  0  0  0
   -4.2826    1.1295    1.1487 O   0  0  0  0  0  0  0  0  0  0  0  0
   -5.1162   -0.0420    1.2668 C   0  0  0  0  0  0  0  0  0  0  0  0
   -6.0603    0.3185    1.6708 H   0  0  0  0  0  0  0  0  0  0  0  0
   -4.6671   -0.7646    1.9546 H   0  0  0  0  0  0  0  0  0  0  0  0
   -5.2823   -0.4914    0.2818 H   0  0  0  0  0  0  0  0  0  0  0  0
  1  6  2  0  0  0  0
  2  1  1  0  0  0  0
  3  2  2  0  0  0  0
  3  4  1  0  0  0  0
  4  5  2  0  0  0  0
  5  6  1  0  0  0  0
  5 10  1  0  0  0  0
  6 13  1  0  0  0  0
  7  1  1  0  0  0  0
  8  2  1  0  0  0  0
  9  4  1  0  0  0  0
 12 11  3  0  0  0  0
 13 14  1  0  0  0  0
 14 15  1  0  0  0  0
 14 16  1  0  0  0  0
 17 14  1  0  0  0  0
M  RAD  1   3   2
M  END
