Coordinates from ORCA-job 4-CH3O-Ph-N2+-scan-d090-169-n800
 OpenBabel09191814063D

 17 16  0  0  0  0  0  0  0  0999 V2000
   -2.1022   -0.2071    0.2096 C   0  0  0  0  0  0  0  0  0  0  0  0
   -0.7421   -0.2897   -0.2123 C   0  0  0  0  0  0  0  0  0  0  0  0
   -0.2694    0.9507   -0.1363 C   0  0  0  0  0  0  0  0  0  0  0  0
   -0.5529    2.2195    0.1725 C   0  0  0  0  0  0  0  0  0  0  0  0
   -1.9091    2.2091    0.5770 C   0  0  0  0  0  0  0  0  0  0  0  0
   -2.6799    1.0207    0.5988 C   0  0  0  0  0  0  0  0  0  0  0  0
   -2.6566   -1.1394    0.2113 H   0  0  0  0  0  0  0  0  0  0  0  0
   -0.2528   -1.2053   -0.5198 H   0  0  0  0  0  0  0  0  0  0  0  0
    0.0720    3.1031    0.1407 H   0  0  0  0  0  0  0  0  0  0  0  0
   -2.3560    3.1535    0.8767 H   0  0  0  0  0  0  0  0  0  0  0  0
    2.5256    0.8709   -0.9866 N   0  0  0  0  0  0  0  0  0  0  0  0
    3.5824    0.8438   -1.3075 N   0  0  0  0  0  0  0  0  0  0  0  0
   -3.9411    1.1715    1.0032 O   0  0  0  0  0  0  0  0  0  0  0  0
   -4.8126    0.0279    1.0635 C   0  0  0  0  0  0  0  0  0  0  0  0
   -5.7679    0.4121    1.4173 H   0  0  0  0  0  0  0  0  0  0  0  0
   -4.4283   -0.7136    1.7721 H   0  0  0  0  0  0  0  0  0  0  0  0
   -4.9385   -0.4145    0.0695 H   0  0  0  0  0  0  0  0  0  0  0  0
  1  7  1  0  0  0  0
  1  6  2  0  0  0  0
  2  3  2  0  0  0  0
  2  1  1  0  0  0  0
  3  4  1  0  0  0  0
  4  5  2  0  0  0  0
  5  6  1  0  0  0  0
  5 10  1  0  0  0  0
  6 13  1  0  0  0  0
  8  2  1  0  0  0  0
  9  4  1  0  0  0  0
 12 11  3  0  0  0  0
 13 14  1  0  0  0  0
 14 15  1  0  0  0  0
 14 16  1  0  0  0  0
 17 14  1  0  0  0  0
M  RAD  1   3   2
M  END
