Coordinates from ORCA-job 4-CH3O-Ph-N2+-scan-d090-169-n800
 OpenBabel09191814063D

 17 16  0  0  0  0  0  0  0  0999 V2000
   -2.6928   -0.1649    0.2291 C   0  0  0  0  0  0  0  0  0  0  0  0
   -1.3578   -0.1677   -0.2455 C   0  0  0  0  0  0  0  0  0  0  0  0
   -0.9596    1.1107   -0.2989 C   0  0  0  0  0  0  0  0  0  0  0  0
   -1.1991    2.3102    0.2557 C   0  0  0  0  0  0  0  0  0  0  0  0
   -2.5271    2.2429    0.7272 C   0  0  0  0  0  0  0  0  0  0  0  0
   -3.2655    1.0264    0.7362 C   0  0  0  0  0  0  0  0  0  0  0  0
   -3.2413   -1.0992    0.1798 H   0  0  0  0  0  0  0  0  0  0  0  0
   -0.8271   -1.0567   -0.5682 H   0  0  0  0  0  0  0  0  0  0  0  0
   -0.6146    3.2222    0.2141 H   0  0  0  0  0  0  0  0  0  0  0  0
   -3.0142    3.1674    1.0272 H   0  0  0  0  0  0  0  0  0  0  0  0
    6.9135    0.6734   -1.9141 N   0  0  0  0  0  0  0  0  0  0  0  0
    7.9889    0.6409   -2.1676 N   0  0  0  0  0  0  0  0  0  0  0  0
   -4.4922    1.1237    1.2318 O   0  0  0  0  0  0  0  0  0  0  0  0
   -5.3209   -0.0506    1.3573 C   0  0  0  0  0  0  0  0  0  0  0  0
   -6.2570    0.3045    1.7842 H   0  0  0  0  0  0  0  0  0  0  0  0
   -4.8559   -0.7780    2.0292 H   0  0  0  0  0  0  0  0  0  0  0  0
   -5.5068   -0.4918    0.3722 H   0  0  0  0  0  0  0  0  0  0  0  0
  1  6  2  0  0  0  0
  2  1  1  0  0  0  0
  3  2  2  0  0  0  0
  3  4  1  0  0  0  0
  4  5  2  0  0  0  0
  5  6  1  0  0  0  0
  5 10  1  0  0  0  0
  6 13  1  0  0  0  0
  7  1  1  0  0  0  0
  8  2  1  0  0  0  0
  9  4  1  0  0  0  0
 12 11  3  0  0  0  0
 13 14  1  0  0  0  0
 14 15  1  0  0  0  0
 14 16  1  0  0  0  0
 17 14  1  0  0  0  0
M  RAD  1   3   2
M  END
