Coordinates from ORCA-job 4-CH3O-Ph-N2+-scan-d090-169-n800
 OpenBabel09191814063D

 17 16  0  0  0  0  0  0  0  0999 V2000
   -3.1147   -0.1381    0.2380 C   0  0  0  0  0  0  0  0  0  0  0  0
   -1.8270   -0.1100   -0.3525 C   0  0  0  0  0  0  0  0  0  0  0  0
   -1.4450    1.1738   -0.3957 C   0  0  0  0  0  0  0  0  0  0  0  0
   -1.6433    2.3509    0.2203 C   0  0  0  0  0  0  0  0  0  0  0  0
   -2.9239    2.2525    0.8046 C   0  0  0  0  0  0  0  0  0  0  0  0
   -3.6492    1.0287    0.8354 C   0  0  0  0  0  0  0  0  0  0  0  0
   -3.6581   -1.0761    0.2048 H   0  0  0  0  0  0  0  0  0  0  0  0
   -1.3195   -0.9816   -0.7513 H   0  0  0  0  0  0  0  0  0  0  0  0
   -1.0719    3.2700    0.1598 H   0  0  0  0  0  0  0  0  0  0  0  0
   -3.3899    3.1608    1.1787 H   0  0  0  0  0  0  0  0  0  0  0  0
    9.8669    0.6050   -2.4624 N   0  0  0  0  0  0  0  0  0  0  0  0
   10.9459    0.5699   -2.7004 N   0  0  0  0  0  0  0  0  0  0  0  0
   -4.8279    1.0956    1.4406 O   0  0  0  0  0  0  0  0  0  0  0  0
   -5.6334   -0.0911    1.5969 C   0  0  0  0  0  0  0  0  0  0  0  0
   -6.5308    0.2391    2.1169 H   0  0  0  0  0  0  0  0  0  0  0  0
   -5.1054   -0.8363    2.1991 H   0  0  0  0  0  0  0  0  0  0  0  0
   -5.9023   -0.4998    0.6169 H   0  0  0  0  0  0  0  0  0  0  0  0
  1  6  2  0  0  0  0
  2  1  1  0  0  0  0
  3  2  2  0  0  0  0
  3  4  1  0  0  0  0
  4  5  2  0  0  0  0
  5  6  1  0  0  0  0
  5 10  1  0  0  0  0
  6 13  1  0  0  0  0
  7  1  1  0  0  0  0
  8  2  1  0  0  0  0
  9  4  1  0  0  0  0
 12 11  3  0  0  0  0
 13 14  1  0  0  0  0
 14 15  1  0  0  0  0
 14 16  1  0  0  0  0
 17 14  1  0  0  0  0
M  RAD  1   3   2
M  END
