Coordinates from ORCA-job 4-CH3O-Ph-N2+-scan-d090-169-n800
 OpenBabel09191814063D

 17 16  0  0  0  0  0  0  0  0999 V2000
   -2.3215   -0.1867    0.1773 C   0  0  0  0  0  0  0  0  0  0  0  0
   -0.9702   -0.2167   -0.2500 C   0  0  0  0  0  0  0  0  0  0  0  0
   -0.5533    1.0549   -0.3059 C   0  0  0  0  0  0  0  0  0  0  0  0
   -0.7966    2.2684    0.2148 C   0  0  0  0  0  0  0  0  0  0  0  0
   -2.1416    2.2263    0.6398 C   0  0  0  0  0  0  0  0  0  0  0  0
   -2.8959    1.0202    0.6427 C   0  0  0  0  0  0  0  0  0  0  0  0
   -2.8806   -1.1146    0.1241 H   0  0  0  0  0  0  0  0  0  0  0  0
   -0.4410   -1.1177   -0.5400 H   0  0  0  0  0  0  0  0  0  0  0  0
   -0.1970    3.1706    0.1800 H   0  0  0  0  0  0  0  0  0  0  0  0
   -2.6255    3.1619    0.9091 H   0  0  0  0  0  0  0  0  0  0  0  0
    4.1390    0.7625   -1.2976 N   0  0  0  0  0  0  0  0  0  0  0  0
    5.2113    0.7253   -1.5633 N   0  0  0  0  0  0  0  0  0  0  0  0
   -4.1389    1.1418    1.0917 O   0  0  0  0  0  0  0  0  0  0  0  0
   -4.9865   -0.0198    1.2060 C   0  0  0  0  0  0  0  0  0  0  0  0
   -5.9326    0.3537    1.5933 H   0  0  0  0  0  0  0  0  0  0  0  0
   -4.5555   -0.7419    1.9057 H   0  0  0  0  0  0  0  0  0  0  0  0
   -5.1430   -0.4749    0.2220 H   0  0  0  0  0  0  0  0  0  0  0  0
  1  6  2  0  0  0  0
  2  1  1  0  0  0  0
  3  2  2  0  0  0  0
  3  4  1  0  0  0  0
  4  5  2  0  0  0  0
  5  6  1  0  0  0  0
  5 10  1  0  0  0  0
  6 13  1  0  0  0  0
  7  1  1  0  0  0  0
  8  2  1  0  0  0  0
  9  4  1  0  0  0  0
 12 11  3  0  0  0  0
 13 14  1  0  0  0  0
 14 15  1  0  0  0  0
 14 16  1  0  0  0  0
 17 14  1  0  0  0  0
M  RAD  1   3   2
M  END
