Coordinates from ORCA-job 4-CH3O-Ph-N2+-scan-d090-169-n800
 OpenBabel09191814063D

 17 16  0  0  0  0  0  0  0  0999 V2000
   -3.2548   -0.1083    0.1940 C   0  0  0  0  0  0  0  0  0  0  0  0
   -2.0183   -0.0396   -0.4943 C   0  0  0  0  0  0  0  0  0  0  0  0
   -1.6612    1.2517   -0.5281 C   0  0  0  0  0  0  0  0  0  0  0  0
   -1.8288    2.4064    0.1374 C   0  0  0  0  0  0  0  0  0  0  0  0
   -3.0577    2.2679    0.8168 C   0  0  0  0  0  0  0  0  0  0  0  0
   -3.7589    1.0306    0.8670 C   0  0  0  0  0  0  0  0  0  0  0  0
   -3.7843   -1.0546    0.1749 H   0  0  0  0  0  0  0  0  0  0  0  0
   -1.5302   -0.8897   -0.9582 H   0  0  0  0  0  0  0  0  0  0  0  0
   -1.2787    3.3372    0.0603 H   0  0  0  0  0  0  0  0  0  0  0  0
   -3.5070    3.1562    1.2538 H   0  0  0  0  0  0  0  0  0  0  0  0
   10.7516    0.5326   -2.5358 N   0  0  0  0  0  0  0  0  0  0  0  0
   11.8340    0.4903   -2.7563 N   0  0  0  0  0  0  0  0  0  0  0  0
   -4.8871    1.0585    1.5643 O   0  0  0  0  0  0  0  0  0  0  0  0
   -5.6590   -0.1467    1.7469 C   0  0  0  0  0  0  0  0  0  0  0  0
   -6.5178    0.1519    2.3452 H   0  0  0  0  0  0  0  0  0  0  0  0
   -5.0736   -0.8994    2.2830 H   0  0  0  0  0  0  0  0  0  0  0  0
   -5.9976   -0.5315    0.7789 H   0  0  0  0  0  0  0  0  0  0  0  0
  1  6  2  0  0  0  0
  2  1  1  0  0  0  0
  3  2  2  0  0  0  0
  3  4  1  0  0  0  0
  4  5  2  0  0  0  0
  5  6  1  0  0  0  0
  5 10  1  0  0  0  0
  6 13  1  0  0  0  0
  7  1  1  0  0  0  0
  8  2  1  0  0  0  0
  9  4  1  0  0  0  0
 12 11  3  0  0  0  0
 13 14  1  0  0  0  0
 14 16  1  0  0  0  0
 14 15  1  0  0  0  0
 17 14  1  0  0  0  0
M  RAD  1   3   2
M  END
