Coordinates from ORCA-job 4-CH3O-Ph-N2+-scan-d090-169-n800
 OpenBabel09191814063D

 17 16  0  0  0  0  0  0  0  0999 V2000
   -3.0496   -0.1466    0.2469 C   0  0  0  0  0  0  0  0  0  0  0  0
   -1.7480   -0.1296   -0.3126 C   0  0  0  0  0  0  0  0  0  0  0  0
   -1.3595    1.1522   -0.3586 C   0  0  0  0  0  0  0  0  0  0  0  0
   -1.5674    2.3359    0.2412 C   0  0  0  0  0  0  0  0  0  0  0  0
   -2.8620    2.2485    0.7953 C   0  0  0  0  0  0  0  0  0  0  0  0
   -3.5932    1.0280    0.8203 C   0  0  0  0  0  0  0  0  0  0  0  0
   -3.5962   -1.0826    0.2095 H   0  0  0  0  0  0  0  0  0  0  0  0
   -1.2350   -1.0070   -0.6910 H   0  0  0  0  0  0  0  0  0  0  0  0
   -0.9906    3.2520    0.1857 H   0  0  0  0  0  0  0  0  0  0  0  0
   -3.3328    3.1622    1.1496 H   0  0  0  0  0  0  0  0  0  0  0  0
    9.4289    0.6265   -2.4011 N   0  0  0  0  0  0  0  0  0  0  0  0
   10.5068    0.5928   -2.6442 N   0  0  0  0  0  0  0  0  0  0  0  0
   -4.7859    1.1056    1.3963 O   0  0  0  0  0  0  0  0  0  0  0  0
   -5.6000   -0.0762    1.5444 C   0  0  0  0  0  0  0  0  0  0  0  0
   -6.5081    0.2626    2.0396 H   0  0  0  0  0  0  0  0  0  0  0  0
   -5.0898   -0.8178    2.1661 H   0  0  0  0  0  0  0  0  0  0  0  0
   -5.8471   -0.4931    0.5622 H   0  0  0  0  0  0  0  0  0  0  0  0
  1  6  2  0  0  0  0
  2  1  1  0  0  0  0
  3  2  2  0  0  0  0
  3  4  1  0  0  0  0
  4  5  2  0  0  0  0
  5  6  1  0  0  0  0
  5 10  1  0  0  0  0
  6 13  1  0  0  0  0
  7  1  1  0  0  0  0
  8  2  1  0  0  0  0
  9  4  1  0  0  0  0
 12 11  3  0  0  0  0
 13 14  1  0  0  0  0
 14 15  1  0  0  0  0
 14 16  1  0  0  0  0
 17 14  1  0  0  0  0
M  RAD  1   3   2
M  END
