Coordinates from ORCA-job 4-CH3O-Ph-N2+-scan-d090-169-n800
 OpenBabel09191814063D

 17 16  0  0  0  0  0  0  0  0999 V2000
   -3.5226   -0.0096    0.0325 C   0  0  0  0  0  0  0  0  0  0  0  0
   -2.5087    0.2014   -0.9342 C   0  0  0  0  0  0  0  0  0  0  0  0
   -2.2387    1.5142   -0.9382 C   0  0  0  0  0  0  0  0  0  0  0  0
   -2.2876    2.5990   -0.1475 C   0  0  0  0  0  0  0  0  0  0  0  0
   -3.2929    2.3202    0.8024 C   0  0  0  0  0  0  0  0  0  0  0  0
   -3.8944    1.0352    0.9125 C   0  0  0  0  0  0  0  0  0  0  0  0
   -3.9905   -0.9876    0.0600 H   0  0  0  0  0  0  0  0  0  0  0  0
   -2.1127   -0.5730   -1.5821 H   0  0  0  0  0  0  0  0  0  0  0  0
   -1.8236    3.5705   -0.2738 H   0  0  0  0  0  0  0  0  0  0  0  0
   -3.6602    3.1377    1.4180 H   0  0  0  0  0  0  0  0  0  0  0  0
   12.0493    0.2970   -2.4277 N   0  0  0  0  0  0  0  0  0  0  0  0
   13.1403    0.2317   -2.5932 N   0  0  0  0  0  0  0  0  0  0  0  0
   -4.8063    0.9281    1.8701 O   0  0  0  0  0  0  0  0  0  0  0  0
   -5.4438   -0.3401    2.1286 C   0  0  0  0  0  0  0  0  0  0  0  0
   -6.1348   -0.1507    2.9479 H   0  0  0  0  0  0  0  0  0  0  0  0
   -4.7034   -1.0872    2.4293 H   0  0  0  0  0  0  0  0  0  0  0  0
   -5.9989   -0.6735    1.2452 H   0  0  0  0  0  0  0  0  0  0  0  0
  1  7  1  0  0  0  0
  1  6  2  0  0  0  0
  2  1  1  0  0  0  0
  3  2  2  0  0  0  0
  3  4  1  0  0  0  0
  4  5  2  0  0  0  0
  5  6  1  0  0  0  0
  5 10  1  0  0  0  0
  6 13  1  0  0  0  0
  8  2  1  0  0  0  0
  9  4  1  0  0  0  0
 12 11  3  0  0  0  0
 13 14  1  0  0  0  0
 14 16  1  0  0  0  0
 14 15  1  0  0  0  0
 17 14  1  0  0  0  0
M  RAD  1   3   2
M  END
