Coordinates from ORCA-job 4-CH3O-Ph-N2+-scan-d090-169-n800
 OpenBabel09191814063D

 17 16  0  0  0  0  0  0  0  0999 V2000
   -3.6198    0.0366   -0.0381 C   0  0  0  0  0  0  0  0  0  0  0  0
   -2.7428    0.3170   -1.1144 C   0  0  0  0  0  0  0  0  0  0  0  0
   -2.5201    1.6390   -1.1052 C   0  0  0  0  0  0  0  0  0  0  0  0
   -2.5034    2.6943   -0.2741 C   0  0  0  0  0  0  0  0  0  0  0  0
   -3.3720    2.3475    0.7823 C   0  0  0  0  0  0  0  0  0  0  0  0
   -3.9125    1.0380    0.9190 C   0  0  0  0  0  0  0  0  0  0  0  0
   -4.0474   -0.9589    0.0121 H   0  0  0  0  0  0  0  0  0  0  0  0
   -2.4040   -0.4205   -1.8339 H   0  0  0  0  0  0  0  0  0  0  0  0
   -2.0914    3.6860   -0.4213 H   0  0  0  0  0  0  0  0  0  0  0  0
   -3.6867    3.1304    1.4680 H   0  0  0  0  0  0  0  0  0  0  0  0
   12.3578    0.1789   -2.3075 N   0  0  0  0  0  0  0  0  0  0  0  0
   13.4515    0.1044   -2.4495 N   0  0  0  0  0  0  0  0  0  0  0  0
   -4.6926    0.8663    1.9779 O   0  0  0  0  0  0  0  0  0  0  0  0
   -5.2509   -0.4323    2.2673 C   0  0  0  0  0  0  0  0  0  0  0  0
   -5.8398   -0.2948    3.1723 H   0  0  0  0  0  0  0  0  0  0  0  0
   -4.4545   -1.1606    2.4466 H   0  0  0  0  0  0  0  0  0  0  0  0
   -5.9009   -0.7577    1.4480 H   0  0  0  0  0  0  0  0  0  0  0  0
  1  7  1  0  0  0  0
  1  6  2  0  0  0  0
  2  3  2  0  0  0  0
  2  1  1  0  0  0  0
  3  4  1  0  0  0  0
  4  5  2  0  0  0  0
  5  6  1  0  0  0  0
  5 10  1  0  0  0  0
  6 13  1  0  0  0  0
  8  2  1  0  0  0  0
  9  4  1  0  0  0  0
 12 11  3  0  0  0  0
 13 14  1  0  0  0  0
 14 16  1  0  0  0  0
 14 15  1  0  0  0  0
 17 14  1  0  0  0  0
M  RAD  1   3   2
M  END
