Coordinates from ORCA-job 4-CH3O-Ph-N2+-scan-d090-169-n800
 OpenBabel09191814063D

 17 16  0  0  0  0  0  0  0  0999 V2000
   -2.4514   -0.1729    0.1945 C   0  0  0  0  0  0  0  0  0  0  0  0
   -1.1059   -0.1849   -0.2505 C   0  0  0  0  0  0  0  0  0  0  0  0
   -0.7031    1.0917   -0.3052 C   0  0  0  0  0  0  0  0  0  0  0  0
   -0.9513    2.2980    0.2305 C   0  0  0  0  0  0  0  0  0  0  0  0
   -2.2898    2.2387    0.6730 C   0  0  0  0  0  0  0  0  0  0  0  0
   -3.0318    1.0247    0.6769 C   0  0  0  0  0  0  0  0  0  0  0  0
   -3.0016   -1.1060    0.1420 H   0  0  0  0  0  0  0  0  0  0  0  0
   -0.5709   -1.0783   -0.5531 H   0  0  0  0  0  0  0  0  0  0  0  0
   -0.3624    3.2073    0.1940 H   0  0  0  0  0  0  0  0  0  0  0  0
   -2.7803    3.1674    0.9543 H   0  0  0  0  0  0  0  0  0  0  0  0
    5.1456    0.7046   -1.5219 N   0  0  0  0  0  0  0  0  0  0  0  0
    6.2197    0.6667   -1.7800 N   0  0  0  0  0  0  0  0  0  0  0  0
   -4.2693    1.1301    1.1437 O   0  0  0  0  0  0  0  0  0  0  0  0
   -5.1038   -0.0407    1.2613 C   0  0  0  0  0  0  0  0  0  0  0  0
   -6.0483    0.3207    1.6639 H   0  0  0  0  0  0  0  0  0  0  0  0
   -4.6561   -0.7631    1.9502 H   0  0  0  0  0  0  0  0  0  0  0  0
   -5.2689   -0.4906    0.2764 H   0  0  0  0  0  0  0  0  0  0  0  0
  1  6  2  0  0  0  0
  2  1  1  0  0  0  0
  3  2  2  0  0  0  0
  3  4  1  0  0  0  0
  4  5  2  0  0  0  0
  5  6  1  0  0  0  0
  5 10  1  0  0  0  0
  6 13  1  0  0  0  0
  7  1  1  0  0  0  0
  8  2  1  0  0  0  0
  9  4  1  0  0  0  0
 12 11  3  0  0  0  0
 13 14  1  0  0  0  0
 14 15  1  0  0  0  0
 14 16  1  0  0  0  0
 17 14  1  0  0  0  0
M  RAD  1   3   2
M  END
