Coordinates from ORCA-job 4-CH3O-Ph-N2+-scan-d090-169-n800
 OpenBabel09191814063D

 17 16  0  0  0  0  0  0  0  0999 V2000
   -2.4155   -0.1756    0.1892 C   0  0  0  0  0  0  0  0  0  0  0  0
   -1.0686   -0.1913   -0.2517 C   0  0  0  0  0  0  0  0  0  0  0  0
   -0.6628    1.0842   -0.3062 C   0  0  0  0  0  0  0  0  0  0  0  0
   -0.9107    2.2922    0.2255 C   0  0  0  0  0  0  0  0  0  0  0  0
   -2.2508    2.2364    0.6640 C   0  0  0  0  0  0  0  0  0  0  0  0
   -2.9951    1.0239    0.6676 C   0  0  0  0  0  0  0  0  0  0  0  0
   -2.9674   -1.1077    0.1362 H   0  0  0  0  0  0  0  0  0  0  0  0
   -0.5348   -1.0864   -0.5517 H   0  0  0  0  0  0  0  0  0  0  0  0
   -0.3197    3.2002    0.1895 H   0  0  0  0  0  0  0  0  0  0  0  0
   -2.7401    3.1665    0.9425 H   0  0  0  0  0  0  0  0  0  0  0  0
    4.8722    0.7163   -1.4600 N   0  0  0  0  0  0  0  0  0  0  0  0
    5.9460    0.6779   -1.7193 N   0  0  0  0  0  0  0  0  0  0  0  0
   -4.2341    1.1326    1.1302 O   0  0  0  0  0  0  0  0  0  0  0  0
   -5.0710   -0.0366    1.2470 C   0  0  0  0  0  0  0  0  0  0  0  0
   -6.0161    0.3272    1.6461 H   0  0  0  0  0  0  0  0  0  0  0  0
   -4.6268   -0.7588    1.9383 H   0  0  0  0  0  0  0  0  0  0  0  0
   -5.2340   -0.4877    0.2623 H   0  0  0  0  0  0  0  0  0  0  0  0
  1  6  2  0  0  0  0
  2  1  1  0  0  0  0
  3  2  2  0  0  0  0
  3  4  1  0  0  0  0
  4  5  2  0  0  0  0
  5  6  1  0  0  0  0
  5 10  1  0  0  0  0
  6 13  1  0  0  0  0
  7  1  1  0  0  0  0
  8  2  1  0  0  0  0
  9  4  1  0  0  0  0
 12 11  3  0  0  0  0
 13 14  1  0  0  0  0
 14 15  1  0  0  0  0
 14 16  1  0  0  0  0
 17 14  1  0  0  0  0
M  RAD  1   3   2
M  END
