Coordinates from ORCA-job 4-CH3O-Ph-N2+-scan-d090-169-n800
 OpenBabel09191814063D

 17 16  0  0  0  0  0  0  0  0999 V2000
   -2.0458   -0.2087    0.1927 C   0  0  0  0  0  0  0  0  0  0  0  0
   -0.6922   -0.2889   -0.2269 C   0  0  0  0  0  0  0  0  0  0  0  0
   -0.1786    0.9452   -0.1638 C   0  0  0  0  0  0  0  0  0  0  0  0
   -0.4985    2.2119    0.1548 C   0  0  0  0  0  0  0  0  0  0  0  0
   -1.8485    2.2079    0.5586 C   0  0  0  0  0  0  0  0  0  0  0  0
   -2.6204    1.0207    0.5811 C   0  0  0  0  0  0  0  0  0  0  0  0
   -2.6071   -1.1362    0.1977 H   0  0  0  0  0  0  0  0  0  0  0  0
   -0.2101   -1.2081   -0.5330 H   0  0  0  0  0  0  0  0  0  0  0  0
    0.1227    3.0974    0.1245 H   0  0  0  0  0  0  0  0  0  0  0  0
   -2.2996    3.1493    0.8593 H   0  0  0  0  0  0  0  0  0  0  0  0
    2.0986    0.8733   -0.8585 N   0  0  0  0  0  0  0  0  0  0  0  0
    3.1547    0.8433   -1.1800 N   0  0  0  0  0  0  0  0  0  0  0  0
   -3.8818    1.1738    0.9859 O   0  0  0  0  0  0  0  0  0  0  0  0
   -4.7558    0.0330    1.0471 C   0  0  0  0  0  0  0  0  0  0  0  0
   -5.7100    0.4196    1.4010 H   0  0  0  0  0  0  0  0  0  0  0  0
   -4.3736   -0.7097    1.7556 H   0  0  0  0  0  0  0  0  0  0  0  0
   -4.8834   -0.4105    0.0538 H   0  0  0  0  0  0  0  0  0  0  0  0
  1  7  1  0  0  0  0
  1  6  2  0  0  0  0
  2  3  2  0  0  0  0
  2  1  1  0  0  0  0
  3  4  1  0  0  0  0
  4  5  2  0  0  0  0
  5  6  1  0  0  0  0
  5 10  1  0  0  0  0
  6 13  1  0  0  0  0
  8  2  1  0  0  0  0
  9  4  1  0  0  0  0
 12 11  3  0  0  0  0
 13 14  1  0  0  0  0
 14 15  1  0  0  0  0
 14 16  1  0  0  0  0
 17 14  1  0  0  0  0
M  RAD  1   3   2
M  END
