Coordinates from ORCA-job 4-CH3O-Ph-N2+-scan-d090-169-n800
 OpenBabel09191814063D

 17 16  0  0  0  0  0  0  0  0999 V2000
   -2.1809   -0.2086    0.1782 C   0  0  0  0  0  0  0  0  0  0  0  0
   -0.8189   -0.2729   -0.2147 C   0  0  0  0  0  0  0  0  0  0  0  0
   -0.3767    0.9884   -0.2639 C   0  0  0  0  0  0  0  0  0  0  0  0
   -0.6177    2.2181    0.2156 C   0  0  0  0  0  0  0  0  0  0  0  0
   -1.9740    2.2066    0.6062 C   0  0  0  0  0  0  0  0  0  0  0  0
   -2.7481    1.0145    0.6074 C   0  0  0  0  0  0  0  0  0  0  0  0
   -2.7543   -1.1276    0.1228 H   0  0  0  0  0  0  0  0  0  0  0  0
   -0.3027   -1.1871   -0.4848 H   0  0  0  0  0  0  0  0  0  0  0  0
    0.0021    3.1065    0.1867 H   0  0  0  0  0  0  0  0  0  0  0  0
   -2.4451    3.1537    0.8566 H   0  0  0  0  0  0  0  0  0  0  0  0
    3.0475    0.8559   -1.0829 N   0  0  0  0  0  0  0  0  0  0  0  0
    4.1087    0.8316   -1.3905 N   0  0  0  0  0  0  0  0  0  0  0  0
   -4.0024    1.1630    1.0188 O   0  0  0  0  0  0  0  0  0  0  0  0
   -4.8698    0.0163    1.1247 C   0  0  0  0  0  0  0  0  0  0  0  0
   -5.8203    0.4083    1.4822 H   0  0  0  0  0  0  0  0  0  0  0  0
   -4.4691   -0.7038    1.8445 H   0  0  0  0  0  0  0  0  0  0  0  0
   -5.0079   -0.4495    0.1429 H   0  0  0  0  0  0  0  0  0  0  0  0
  1  6  2  0  0  0  0
  2  1  1  0  0  0  0
  3  2  2  0  0  0  0
  3  4  1  0  0  0  0
  4  5  2  0  0  0  0
  5  6  1  0  0  0  0
  5 10  1  0  0  0  0
  6 13  1  0  0  0  0
  7  1  1  0  0  0  0
  8  2  1  0  0  0  0
  9  4  1  0  0  0  0
 12 11  3  0  0  0  0
 13 14  1  0  0  0  0
 14 15  1  0  0  0  0
 14 16  1  0  0  0  0
 17 14  1  0  0  0  0
M  RAD  1   3   2
M  END
