Coordinates from ORCA-job 4-CH3O-Ph-N2+-scan-d090-169-n800
 OpenBabel09191814063D

 17 16  0  0  0  0  0  0  0  0999 V2000
   -3.2388   -0.1125    0.2008 C   0  0  0  0  0  0  0  0  0  0  0  0
   -1.9946   -0.0497   -0.4743 C   0  0  0  0  0  0  0  0  0  0  0  0
   -1.6339    1.2405   -0.5093 C   0  0  0  0  0  0  0  0  0  0  0  0
   -1.8060    2.3984    0.1495 C   0  0  0  0  0  0  0  0  0  0  0  0
   -3.0425    2.2657    0.8160 C   0  0  0  0  0  0  0  0  0  0  0  0
   -3.7474    1.0304    0.8635 C   0  0  0  0  0  0  0  0  0  0  0  0
   -3.7704   -1.0576    0.1796 H   0  0  0  0  0  0  0  0  0  0  0  0
   -1.5037   -0.9029   -0.9294 H   0  0  0  0  0  0  0  0  0  0  0  0
   -1.2527    3.3275    0.0747 H   0  0  0  0  0  0  0  0  0  0  0  0
   -3.4944    3.1569    1.2444 H   0  0  0  0  0  0  0  0  0  0  0  0
   10.6557    0.5427   -2.5318 N   0  0  0  0  0  0  0  0  0  0  0  0
   11.7377    0.5015   -2.7547 N   0  0  0  0  0  0  0  0  0  0  0  0
   -4.8831    1.0639    1.5484 O   0  0  0  0  0  0  0  0  0  0  0  0
   -5.6599   -0.1386    1.7273 C   0  0  0  0  0  0  0  0  0  0  0  0
   -6.5244    0.1645    2.3150 H   0  0  0  0  0  0  0  0  0  0  0  0
   -5.0823   -0.8906    2.2728 H   0  0  0  0  0  0  0  0  0  0  0  0
   -5.9889   -0.5265    0.7573 H   0  0  0  0  0  0  0  0  0  0  0  0
  1  6  2  0  0  0  0
  2  1  1  0  0  0  0
  3  2  2  0  0  0  0
  3  4  1  0  0  0  0
  4  5  2  0  0  0  0
  5  6  1  0  0  0  0
  5 10  1  0  0  0  0
  6 13  1  0  0  0  0
  7  1  1  0  0  0  0
  8  2  1  0  0  0  0
  9  4  1  0  0  0  0
 12 11  3  0  0  0  0
 13 14  1  0  0  0  0
 14 16  1  0  0  0  0
 14 15  1  0  0  0  0
 17 14  1  0  0  0  0
M  RAD  1   3   2
M  END
