Coordinates from ORCA-job 4-CH3O-Ph-N2+-scan-d090-169-n800
 OpenBabel09191814063D

 17 16  0  0  0  0  0  0  0  0999 V2000
   -2.2852   -0.1929    0.1745 C   0  0  0  0  0  0  0  0  0  0  0  0
   -0.9319   -0.2310   -0.2459 C   0  0  0  0  0  0  0  0  0  0  0  0
   -0.5086    1.0382   -0.3022 C   0  0  0  0  0  0  0  0  0  0  0  0
   -0.7492    2.2549    0.2120 C   0  0  0  0  0  0  0  0  0  0  0  0
   -2.0965    2.2206    0.6303 C   0  0  0  0  0  0  0  0  0  0  0  0
   -2.8565    1.0182    0.6329 C   0  0  0  0  0  0  0  0  0  0  0  0
   -2.8484   -1.1183    0.1213 H   0  0  0  0  0  0  0  0  0  0  0  0
   -0.4056   -1.1353   -0.5309 H   0  0  0  0  0  0  0  0  0  0  0  0
   -0.1446    3.1538    0.1779 H   0  0  0  0  0  0  0  0  0  0  0  0
   -2.5771    3.1592    0.8949 H   0  0  0  0  0  0  0  0  0  0  0  0
    3.8499    0.7882   -1.2363 N   0  0  0  0  0  0  0  0  0  0  0  0
    4.9211    0.7532   -1.5067 N   0  0  0  0  0  0  0  0  0  0  0  0
   -4.1015    1.1469    1.0748 O   0  0  0  0  0  0  0  0  0  0  0  0
   -4.9549   -0.0104    1.1879 C   0  0  0  0  0  0  0  0  0  0  0  0
   -5.9013    0.3684    1.5692 H   0  0  0  0  0  0  0  0  0  0  0  0
   -4.5309   -0.7326    1.8918 H   0  0  0  0  0  0  0  0  0  0  0  0
   -5.1084   -0.4676    0.2044 H   0  0  0  0  0  0  0  0  0  0  0  0
  1  6  2  0  0  0  0
  2  1  1  0  0  0  0
  3  2  2  0  0  0  0
  3  4  1  0  0  0  0
  4  5  2  0  0  0  0
  5  6  1  0  0  0  0
  5 10  1  0  0  0  0
  6 13  1  0  0  0  0
  7  1  1  0  0  0  0
  8  2  1  0  0  0  0
  9  4  1  0  0  0  0
 12 11  3  0  0  0  0
 13 14  1  0  0  0  0
 14 15  1  0  0  0  0
 14 16  1  0  0  0  0
 17 14  1  0  0  0  0
M  RAD  1   3   2
M  END
