Coordinates from ORCA-job 4-CH3O-Ph-N2+-scan-d090-169-n800
 OpenBabel09191814063D

 17 16  0  0  0  0  0  0  0  0999 V2000
   -3.0422   -0.1475    0.2476 C   0  0  0  0  0  0  0  0  0  0  0  0
   -1.7391   -0.1313   -0.3084 C   0  0  0  0  0  0  0  0  0  0  0  0
   -1.3499    1.1502   -0.3552 C   0  0  0  0  0  0  0  0  0  0  0  0
   -1.5589    2.3341    0.2434 C   0  0  0  0  0  0  0  0  0  0  0  0
   -2.8549    2.2482    0.7943 C   0  0  0  0  0  0  0  0  0  0  0  0
   -3.5867    1.0279    0.8187 C   0  0  0  0  0  0  0  0  0  0  0  0
   -3.5891   -1.0833    0.2093 H   0  0  0  0  0  0  0  0  0  0  0  0
   -1.2259   -1.0093   -0.6850 H   0  0  0  0  0  0  0  0  0  0  0  0
   -0.9819    3.2502    0.1881 H   0  0  0  0  0  0  0  0  0  0  0  0
   -3.3262    3.1626    1.1462 H   0  0  0  0  0  0  0  0  0  0  0  0
    9.3783    0.6286   -2.3934 N   0  0  0  0  0  0  0  0  0  0  0  0
   10.4560    0.5951   -2.6370 N   0  0  0  0  0  0  0  0  0  0  0  0
   -4.7806    1.1065    1.3916 O   0  0  0  0  0  0  0  0  0  0  0  0
   -5.5957   -0.0748    1.5389 C   0  0  0  0  0  0  0  0  0  0  0  0
   -6.5048    0.2650    2.0315 H   0  0  0  0  0  0  0  0  0  0  0  0
   -5.0873   -0.8159    2.1626 H   0  0  0  0  0  0  0  0  0  0  0  0
   -5.8405   -0.4927    0.5565 H   0  0  0  0  0  0  0  0  0  0  0  0
  1  6  2  0  0  0  0
  2  1  1  0  0  0  0
  3  2  2  0  0  0  0
  3  4  1  0  0  0  0
  4  5  2  0  0  0  0
  5  6  1  0  0  0  0
  5 10  1  0  0  0  0
  6 13  1  0  0  0  0
  7  1  1  0  0  0  0
  8  2  1  0  0  0  0
  9  4  1  0  0  0  0
 12 11  3  0  0  0  0
 13 14  1  0  0  0  0
 14 15  1  0  0  0  0
 14 16  1  0  0  0  0
 17 14  1  0  0  0  0
M  RAD  1   3   2
M  END
