Coordinates from ORCA-job 4-CH3O-Ph-N2+-scan-d090-169-n800
 OpenBabel09191814063D

 17 16  0  0  0  0  0  0  0  0999 V2000
   -3.2575   -0.1076    0.1929 C   0  0  0  0  0  0  0  0  0  0  0  0
   -2.0223   -0.0378   -0.4977 C   0  0  0  0  0  0  0  0  0  0  0  0
   -1.6658    1.2536   -0.5313 C   0  0  0  0  0  0  0  0  0  0  0  0
   -1.8327    2.4078    0.1353 C   0  0  0  0  0  0  0  0  0  0  0  0
   -3.0602    2.2682    0.8169 C   0  0  0  0  0  0  0  0  0  0  0  0
   -3.7608    1.0307    0.8675 C   0  0  0  0  0  0  0  0  0  0  0  0
   -3.7866   -1.0541    0.1740 H   0  0  0  0  0  0  0  0  0  0  0  0
   -1.5347   -0.8874   -0.9631 H   0  0  0  0  0  0  0  0  0  0  0  0
   -1.2831    3.3389    0.0578 H   0  0  0  0  0  0  0  0  0  0  0  0
   -3.5092    3.1561    1.2553 H   0  0  0  0  0  0  0  0  0  0  0  0
   10.7675    0.5308   -2.5364 N   0  0  0  0  0  0  0  0  0  0  0  0
   11.8500    0.4883   -2.7564 N   0  0  0  0  0  0  0  0  0  0  0  0
   -4.8878    1.0576    1.5670 O   0  0  0  0  0  0  0  0  0  0  0  0
   -5.6588   -0.1481    1.7502 C   0  0  0  0  0  0  0  0  0  0  0  0
   -6.5165    0.1497    2.3504 H   0  0  0  0  0  0  0  0  0  0  0  0
   -5.0720   -0.9009    2.2847 H   0  0  0  0  0  0  0  0  0  0  0  0
   -5.9990   -0.5323    0.7826 H   0  0  0  0  0  0  0  0  0  0  0  0
  1  6  2  0  0  0  0
  2  1  1  0  0  0  0
  3  2  2  0  0  0  0
  3  4  1  0  0  0  0
  4  5  2  0  0  0  0
  5  6  1  0  0  0  0
  5 10  1  0  0  0  0
  6 13  1  0  0  0  0
  7  1  1  0  0  0  0
  8  2  1  0  0  0  0
  9  4  1  0  0  0  0
 12 11  3  0  0  0  0
 13 14  1  0  0  0  0
 14 16  1  0  0  0  0
 14 15  1  0  0  0  0
 17 14  1  0  0  0  0
M  RAD  1   3   2
M  END
