Coordinates from ORCA-job 4-CH3O-Ph-N2+-scan-d090-169-n800
 OpenBabel09191814063D

 17 16  0  0  0  0  0  0  0  0999 V2000
   -2.1683   -0.2107    0.1830 C   0  0  0  0  0  0  0  0  0  0  0  0
   -0.8042   -0.2780   -0.2018 C   0  0  0  0  0  0  0  0  0  0  0  0
   -0.3593    0.9822   -0.2510 C   0  0  0  0  0  0  0  0  0  0  0  0
   -0.6026    2.2134    0.2230 C   0  0  0  0  0  0  0  0  0  0  0  0
   -1.9610    2.2052    0.6056 C   0  0  0  0  0  0  0  0  0  0  0  0
   -2.7366    1.0141    0.6055 C   0  0  0  0  0  0  0  0  0  0  0  0
   -2.7424   -1.1292    0.1265 H   0  0  0  0  0  0  0  0  0  0  0  0
   -0.2884   -1.1935   -0.4677 H   0  0  0  0  0  0  0  0  0  0  0  0
    0.0189    3.1007    0.1957 H   0  0  0  0  0  0  0  0  0  0  0  0
   -2.4319    3.1535    0.8520 H   0  0  0  0  0  0  0  0  0  0  0  0
    2.9610    0.8631   -1.0752 N   0  0  0  0  0  0  0  0  0  0  0  0
    4.0179    0.8415   -1.3975 N   0  0  0  0  0  0  0  0  0  0  0  0
   -3.9932    1.1651    1.0090 O   0  0  0  0  0  0  0  0  0  0  0  0
   -4.8625    0.0198    1.1123 C   0  0  0  0  0  0  0  0  0  0  0  0
   -5.8147    0.4135    1.4633 H   0  0  0  0  0  0  0  0  0  0  0  0
   -4.4669   -0.6992    1.8361 H   0  0  0  0  0  0  0  0  0  0  0  0
   -4.9953   -0.4482    0.1309 H   0  0  0  0  0  0  0  0  0  0  0  0
  1  6  2  0  0  0  0
  2  1  1  0  0  0  0
  3  2  2  0  0  0  0
  3  4  1  0  0  0  0
  4  5  2  0  0  0  0
  5 10  1  0  0  0  0
  6  5  1  0  0  0  0
  6 13  1  0  0  0  0
  7  1  1  0  0  0  0
  8  2  1  0  0  0  0
  9  4  1  0  0  0  0
 12 11  3  0  0  0  0
 13 14  1  0  0  0  0
 14 15  1  0  0  0  0
 14 16  1  0  0  0  0
 17 14  1  0  0  0  0
M  RAD  1   3   2
M  END
