Coordinates from ORCA-job 4-CH3O-Ph-N2+-scan-d090-169-n800
 OpenBabel09191814063D

 17 16  0  0  0  0  0  0  0  0999 V2000
   -2.8419   -0.1605    0.2447 C   0  0  0  0  0  0  0  0  0  0  0  0
   -1.5161   -0.1594   -0.2549 C   0  0  0  0  0  0  0  0  0  0  0  0
   -1.1191    1.1194   -0.3065 C   0  0  0  0  0  0  0  0  0  0  0  0
   -1.3480    2.3146    0.2619 C   0  0  0  0  0  0  0  0  0  0  0  0
   -2.6668    2.2434    0.7579 C   0  0  0  0  0  0  0  0  0  0  0  0
   -3.4049    1.0268    0.7716 C   0  0  0  0  0  0  0  0  0  0  0  0
   -3.3912   -1.0946    0.1989 H   0  0  0  0  0  0  0  0  0  0  0  0
   -0.9915   -1.0459   -0.5942 H   0  0  0  0  0  0  0  0  0  0  0  0
   -0.7646    3.2271    0.2159 H   0  0  0  0  0  0  0  0  0  0  0  0
   -3.1483    3.1657    1.0737 H   0  0  0  0  0  0  0  0  0  0  0  0
    7.9779    0.6620   -2.1366 N   0  0  0  0  0  0  0  0  0  0  0  0
    9.0540    0.6297   -2.3877 N   0  0  0  0  0  0  0  0  0  0  0  0
   -4.6219    1.1201    1.2912 O   0  0  0  0  0  0  0  0  0  0  0  0
   -5.4482   -0.0552    1.4235 C   0  0  0  0  0  0  0  0  0  0  0  0
   -6.3760    0.2967    1.8706 H   0  0  0  0  0  0  0  0  0  0  0  0
   -4.9706   -0.7875    2.0810 H   0  0  0  0  0  0  0  0  0  0  0  0
   -5.6526   -0.4890    0.4387 H   0  0  0  0  0  0  0  0  0  0  0  0
  1  6  2  0  0  0  0
  2  1  1  0  0  0  0
  3  2  2  0  0  0  0
  3  4  1  0  0  0  0
  4  5  2  0  0  0  0
  5  6  1  0  0  0  0
  5 10  1  0  0  0  0
  6 13  1  0  0  0  0
  7  1  1  0  0  0  0
  8  2  1  0  0  0  0
  9  4  1  0  0  0  0
 12 11  3  0  0  0  0
 13 14  1  0  0  0  0
 14 15  1  0  0  0  0
 14 16  1  0  0  0  0
 17 14  1  0  0  0  0
M  RAD  1   3   2
M  END
