Coordinates from ORCA-job 4-CH3O-Ph-N2+-scan-d090-169-n800
 OpenBabel09191814063D

 17 16  0  0  0  0  0  0  0  0999 V2000
   -3.4798   -0.0288    0.0643 C   0  0  0  0  0  0  0  0  0  0  0  0
   -2.4147    0.1536   -0.8520 C   0  0  0  0  0  0  0  0  0  0  0  0
   -2.1270    1.4626   -0.8617 C   0  0  0  0  0  0  0  0  0  0  0  0
   -2.2026    2.5607   -0.0919 C   0  0  0  0  0  0  0  0  0  0  0  0
   -3.2592    2.3099    0.8090 C   0  0  0  0  0  0  0  0  0  0  0  0
   -3.8826    1.0345    0.9076 C   0  0  0  0  0  0  0  0  0  0  0  0
   -3.9616   -1.0003    0.0822 H   0  0  0  0  0  0  0  0  0  0  0  0
   -1.9967   -0.6361   -1.4668 H   0  0  0  0  0  0  0  0  0  0  0  0
   -1.7197    3.5241   -0.2089 H   0  0  0  0  0  0  0  0  0  0  0  0
   -3.6465    3.1417    1.3922 H   0  0  0  0  0  0  0  0  0  0  0  0
   11.8932    0.3436   -2.4712 N   0  0  0  0  0  0  0  0  0  0  0  0
   12.9828    0.2820   -2.6472 N   0  0  0  0  0  0  0  0  0  0  0  0
   -4.8439    0.9541    1.8183 O   0  0  0  0  0  0  0  0  0  0  0  0
   -5.5106   -0.3018    2.0630 C   0  0  0  0  0  0  0  0  0  0  0  0
   -6.2401   -0.0909    2.8427 H   0  0  0  0  0  0  0  0  0  0  0  0
   -4.7965   -1.0531    2.4127 H   0  0  0  0  0  0  0  0  0  0  0  0
   -6.0240   -0.6424    1.1574 H   0  0  0  0  0  0  0  0  0  0  0  0
  1  7  1  0  0  0  0
  1  6  2  0  0  0  0
  2  1  1  0  0  0  0
  3  2  2  0  0  0  0
  3  4  1  0  0  0  0
  4  5  2  0  0  0  0
  5  6  1  0  0  0  0
  5 10  1  0  0  0  0
  6 13  1  0  0  0  0
  8  2  1  0  0  0  0
  9  4  1  0  0  0  0
 12 11  3  0  0  0  0
 13 14  1  0  0  0  0
 14 16  1  0  0  0  0
 14 15  1  0  0  0  0
 17 14  1  0  0  0  0
M  RAD  1   3   2
M  END
