Coordinates from ORCA-job 4-CH3O-Ph-N2+-scan-d090-169-n800
 OpenBabel09191814063D

 17 16  0  0  0  0  0  0  0  0999 V2000
   -2.0028   -0.2117    0.1793 C   0  0  0  0  0  0  0  0  0  0  0  0
   -0.6616   -0.2829   -0.2350 C   0  0  0  0  0  0  0  0  0  0  0  0
   -0.0704    0.9397   -0.1971 C   0  0  0  0  0  0  0  0  0  0  0  0
   -0.4657    2.2011    0.1431 C   0  0  0  0  0  0  0  0  0  0  0  0
   -1.8031    2.2078    0.5450 C   0  0  0  0  0  0  0  0  0  0  0  0
   -2.5751    1.0199    0.5674 C   0  0  0  0  0  0  0  0  0  0  0  0
   -2.5753   -1.1313    0.1891 H   0  0  0  0  0  0  0  0  0  0  0  0
   -0.1893   -1.2080   -0.5392 H   0  0  0  0  0  0  0  0  0  0  0  0
    0.1488    3.0915    0.1156 H   0  0  0  0  0  0  0  0  0  0  0  0
   -2.2650    3.1420    0.8477 H   0  0  0  0  0  0  0  0  0  0  0  0
    1.7852    0.8760   -0.7642 N   0  0  0  0  0  0  0  0  0  0  0  0
    2.8412    0.8442   -1.0861 N   0  0  0  0  0  0  0  0  0  0  0  0
   -3.8354    1.1737    0.9720 O   0  0  0  0  0  0  0  0  0  0  0  0
   -4.7144    0.0369    1.0354 C   0  0  0  0  0  0  0  0  0  0  0  0
   -5.6665    0.4289    1.3895 H   0  0  0  0  0  0  0  0  0  0  0  0
   -4.3353   -0.7068    1.7441 H   0  0  0  0  0  0  0  0  0  0  0  0
   -4.8447   -0.4078    0.0433 H   0  0  0  0  0  0  0  0  0  0  0  0
  1  7  1  0  0  0  0
  1  6  2  0  0  0  0
  2  3  2  0  0  0  0
  2  1  1  0  0  0  0
  3  4  1  0  0  0  0
  4  5  2  0  0  0  0
  5  6  1  0  0  0  0
  5 10  1  0  0  0  0
  6 13  1  0  0  0  0
  8  2  1  0  0  0  0
  9  4  1  0  0  0  0
 12 11  3  0  0  0  0
 13 14  1  0  0  0  0
 14 15  1  0  0  0  0
 14 16  1  0  0  0  0
 17 14  1  0  0  0  0
M  RAD  1   3   2
M  END
