Coordinates from ORCA-job 4-CH3O-Ph-N2+-scan-d090-169-n800
 OpenBabel09191814063D

 17 17  0  0  0  0  0  0  0  0999 V2000
   -1.9162   -0.2270    0.1508 C   0  0  0  0  0  0  0  0  0  0  0  0
   -0.6163   -0.2767   -0.2472 C   0  0  0  0  0  0  0  0  0  0  0  0
    0.2609    0.9240   -0.2988 C   0  0  0  0  0  0  0  0  0  0  0  0
   -0.4210    2.1833    0.1268 C   0  0  0  0  0  0  0  0  0  0  0  0
   -1.7177    2.2085    0.5195 C   0  0  0  0  0  0  0  0  0  0  0  0
   -2.5004    1.0135    0.5438 C   0  0  0  0  0  0  0  0  0  0  0  0
   -2.4977   -1.1416    0.1640 H   0  0  0  0  0  0  0  0  0  0  0  0
   -0.1472   -1.2086   -0.5516 H   0  0  0  0  0  0  0  0  0  0  0  0
    0.1939    3.0786    0.1001 H   0  0  0  0  0  0  0  0  0  0  0  0
   -2.1899    3.1371    0.8241 H   0  0  0  0  0  0  0  0  0  0  0  0
    1.1404    0.8947   -0.5673 N   0  0  0  0  0  0  0  0  0  0  0  0
    2.2510    0.8603   -0.9076 N   0  0  0  0  0  0  0  0  0  0  0  0
   -3.7373    1.1599    0.9399 O   0  0  0  0  0  0  0  0  0  0  0  0
   -4.6579    0.0384    1.0186 C   0  0  0  0  0  0  0  0  0  0  0  0
   -5.5910    0.4699    1.3743 H   0  0  0  0  0  0  0  0  0  0  0  0
   -4.2860   -0.7004    1.7327 H   0  0  0  0  0  0  0  0  0  0  0  0
   -4.7971   -0.4005    0.0276 H   0  0  0  0  0  0  0  0  0  0  0  0
  1  7  1  0  0  0  0
  1  6  2  0  0  0  0
  2  1  1  0  0  0  0
  3  2  2  0  0  0  0
  3  4  1  0  0  0  0
  4  5  2  0  0  0  0
  5  6  1  0  0  0  0
  5 10  1  0  0  0  0
  6 13  1  0  0  0  0
  8  2  1  0  0  0  0
  9  4  1  0  0  0  0
 11  3  1  0  0  0  0
 12 11  1  0  0  0  0
 13 14  1  0  0  0  0
 14 15  1  0  0  0  0
 14 16  1  0  0  0  0
 17 14  1  0  0  0  0
M  RAD  2  11   2  12   3
M  END
