Coordinates from ORCA-job 4-CH3O-Ph-N2+-scan-d090-169-n800
 OpenBabel09191814063D

 17 16  0  0  0  0  0  0  0  0999 V2000
   -2.3193   -0.1871    0.1769 C   0  0  0  0  0  0  0  0  0  0  0  0
   -0.9681   -0.2172   -0.2497 C   0  0  0  0  0  0  0  0  0  0  0  0
   -0.5505    1.0542   -0.3062 C   0  0  0  0  0  0  0  0  0  0  0  0
   -0.7940    2.2674    0.2148 C   0  0  0  0  0  0  0  0  0  0  0  0
   -2.1390    2.2261    0.6393 C   0  0  0  0  0  0  0  0  0  0  0  0
   -2.8937    1.0201    0.6422 C   0  0  0  0  0  0  0  0  0  0  0  0
   -2.8786   -1.1148    0.1234 H   0  0  0  0  0  0  0  0  0  0  0  0
   -0.4392   -1.1184   -0.5398 H   0  0  0  0  0  0  0  0  0  0  0  0
   -0.1943    3.1697    0.1798 H   0  0  0  0  0  0  0  0  0  0  0  0
   -2.6227    3.1620    0.9080 H   0  0  0  0  0  0  0  0  0  0  0  0
    4.1223    0.7637   -1.2938 N   0  0  0  0  0  0  0  0  0  0  0  0
    5.1945    0.7265   -1.5597 N   0  0  0  0  0  0  0  0  0  0  0  0
   -4.1367    1.1420    1.0908 O   0  0  0  0  0  0  0  0  0  0  0  0
   -4.9846   -0.0194    1.2051 C   0  0  0  0  0  0  0  0  0  0  0  0
   -5.9307    0.3544    1.5922 H   0  0  0  0  0  0  0  0  0  0  0  0
   -4.5539   -0.7415    1.9051 H   0  0  0  0  0  0  0  0  0  0  0  0
   -5.1409   -0.4747    0.2213 H   0  0  0  0  0  0  0  0  0  0  0  0
  1  6  2  0  0  0  0
  2  1  1  0  0  0  0
  3  2  2  0  0  0  0
  3  4  1  0  0  0  0
  4  5  2  0  0  0  0
  5  6  1  0  0  0  0
  5 10  1  0  0  0  0
  6 13  1  0  0  0  0
  7  1  1  0  0  0  0
  8  2  1  0  0  0  0
  9  4  1  0  0  0  0
 12 11  3  0  0  0  0
 13 14  1  0  0  0  0
 14 15  1  0  0  0  0
 14 16  1  0  0  0  0
 17 14  1  0  0  0  0
M  RAD  1   3   2
M  END
