Coordinates from ORCA-job 4-CH3O-Ph-N2+-scan-d090-169-n800
 OpenBabel09191814063D

 17 16  0  0  0  0  0  0  0  0999 V2000
   -2.3911   -0.1778    0.1856 C   0  0  0  0  0  0  0  0  0  0  0  0
   -1.0432   -0.1965   -0.2522 C   0  0  0  0  0  0  0  0  0  0  0  0
   -0.6352    1.0783   -0.3069 C   0  0  0  0  0  0  0  0  0  0  0  0
   -0.8824    2.2875    0.2224 C   0  0  0  0  0  0  0  0  0  0  0  0
   -2.2235    2.2344    0.6578 C   0  0  0  0  0  0  0  0  0  0  0  0
   -2.9698    1.0232    0.6612 C   0  0  0  0  0  0  0  0  0  0  0  0
   -2.9444   -1.1091    0.1326 H   0  0  0  0  0  0  0  0  0  0  0  0
   -0.5103   -1.0928   -0.5500 H   0  0  0  0  0  0  0  0  0  0  0  0
   -0.2896    3.1943    0.1867 H   0  0  0  0  0  0  0  0  0  0  0  0
   -2.7118    3.1657    0.9343 H   0  0  0  0  0  0  0  0  0  0  0  0
    4.6843    0.7257   -1.4176 N   0  0  0  0  0  0  0  0  0  0  0  0
    5.7579    0.6872   -1.6781 N   0  0  0  0  0  0  0  0  0  0  0  0
   -4.2097    1.1344    1.1208 O   0  0  0  0  0  0  0  0  0  0  0  0
   -5.0488   -0.0332    1.2370 C   0  0  0  0  0  0  0  0  0  0  0  0
   -5.9942    0.3325    1.6335 H   0  0  0  0  0  0  0  0  0  0  0  0
   -4.6074   -0.7553    1.9302 H   0  0  0  0  0  0  0  0  0  0  0  0
   -5.2102   -0.4852    0.2524 H   0  0  0  0  0  0  0  0  0  0  0  0
  1  6  2  0  0  0  0
  2  1  1  0  0  0  0
  3  2  2  0  0  0  0
  3  4  1  0  0  0  0
  4  5  2  0  0  0  0
  5  6  1  0  0  0  0
  5 10  1  0  0  0  0
  6 13  1  0  0  0  0
  7  1  1  0  0  0  0
  8  2  1  0  0  0  0
  9  4  1  0  0  0  0
 12 11  3  0  0  0  0
 13 14  1  0  0  0  0
 14 15  1  0  0  0  0
 14 16  1  0  0  0  0
 17 14  1  0  0  0  0
M  RAD  1   3   2
M  END
