Coordinates from ORCA-job 4-CH3O-Ph-N2+-scan-d090-169-n800
 OpenBabel09191814063D

 17 16  0  0  0  0  0  0  0  0999 V2000
   -2.9658   -0.1540    0.2504 C   0  0  0  0  0  0  0  0  0  0  0  0
   -1.6518   -0.1460   -0.2797 C   0  0  0  0  0  0  0  0  0  0  0  0
   -1.2583    1.1341   -0.3283 C   0  0  0  0  0  0  0  0  0  0  0  0
   -1.4759    2.3239    0.2558 C   0  0  0  0  0  0  0  0  0  0  0  0
   -2.7830    2.2454    0.7813 C   0  0  0  0  0  0  0  0  0  0  0  0
   -3.5185    1.0274    0.8007 C   0  0  0  0  0  0  0  0  0  0  0  0
   -3.5145   -1.0887    0.2090 H   0  0  0  0  0  0  0  0  0  0  0  0
   -1.1333   -1.0284   -0.6385 H   0  0  0  0  0  0  0  0  0  0  0  0
   -0.8951    3.2377    0.2052 H   0  0  0  0  0  0  0  0  0  0  0  0
   -3.2587    3.1637    1.1167 H   0  0  0  0  0  0  0  0  0  0  0  0
    8.8506    0.6454   -2.3041 N   0  0  0  0  0  0  0  0  0  0  0  0
    9.9276    0.6126   -2.5516 N   0  0  0  0  0  0  0  0  0  0  0  0
   -4.7236    1.1138    1.3488 O   0  0  0  0  0  0  0  0  0  0  0  0
   -5.5447   -0.0642    1.4891 C   0  0  0  0  0  0  0  0  0  0  0  0
   -6.4626    0.2818    1.9606 H   0  0  0  0  0  0  0  0  0  0  0  0
   -5.0510   -0.8017    2.1289 H   0  0  0  0  0  0  0  0  0  0  0  0
   -5.7708   -0.4893    0.5054 H   0  0  0  0  0  0  0  0  0  0  0  0
  1  6  2  0  0  0  0
  2  1  1  0  0  0  0
  3  2  2  0  0  0  0
  3  4  1  0  0  0  0
  4  5  2  0  0  0  0
  5  6  1  0  0  0  0
  5 10  1  0  0  0  0
  6 13  1  0  0  0  0
  7  1  1  0  0  0  0
  8  2  1  0  0  0  0
  9  4  1  0  0  0  0
 12 11  3  0  0  0  0
 13 14  1  0  0  0  0
 14 15  1  0  0  0  0
 14 16  1  0  0  0  0
 17 14  1  0  0  0  0
M  RAD  1   3   2
M  END
