Coordinates from ORCA-job 4-CH3O-Ph-N2+-scan-d090-169-n800
 OpenBabel09191814063D

 17 16  0  0  0  0  0  0  0  0999 V2000
   -2.1420   -0.2060    0.2183 C   0  0  0  0  0  0  0  0  0  0  0  0
   -0.7796   -0.2883   -0.2004 C   0  0  0  0  0  0  0  0  0  0  0  0
   -0.3181    0.9551   -0.1299 C   0  0  0  0  0  0  0  0  0  0  0  0
   -0.5925    2.2220    0.1886 C   0  0  0  0  0  0  0  0  0  0  0  0
   -1.9506    2.2096    0.5908 C   0  0  0  0  0  0  0  0  0  0  0  0
   -2.7208    1.0205    0.6106 C   0  0  0  0  0  0  0  0  0  0  0  0
   -2.6962   -1.1385    0.2115 H   0  0  0  0  0  0  0  0  0  0  0  0
   -0.2875   -1.2035   -0.5058 H   0  0  0  0  0  0  0  0  0  0  0  0
    0.0322    3.1061    0.1569 H   0  0  0  0  0  0  0  0  0  0  0  0
   -2.3990    3.1553    0.8845 H   0  0  0  0  0  0  0  0  0  0  0  0
    2.8249    0.8696   -1.0742 N   0  0  0  0  0  0  0  0  0  0  0  0
    3.8822    0.8446   -1.3946 N   0  0  0  0  0  0  0  0  0  0  0  0
   -3.9821    1.1698    1.0135 O   0  0  0  0  0  0  0  0  0  0  0  0
   -4.8514    0.0244    1.0774 C   0  0  0  0  0  0  0  0  0  0  0  0
   -5.8073    0.4076    1.4305 H   0  0  0  0  0  0  0  0  0  0  0  0
   -4.4650   -0.7143    1.7877 H   0  0  0  0  0  0  0  0  0  0  0  0
   -4.9768   -0.4205    0.0844 H   0  0  0  0  0  0  0  0  0  0  0  0
  1  6  2  0  0  0  0
  2  3  2  0  0  0  0
  2  1  1  0  0  0  0
  3  4  1  0  0  0  0
  4  5  2  0  0  0  0
  5  6  1  0  0  0  0
  5 10  1  0  0  0  0
  6 13  1  0  0  0  0
  7  1  1  0  0  0  0
  8  2  1  0  0  0  0
  9  4  1  0  0  0  0
 12 11  3  0  0  0  0
 13 14  1  0  0  0  0
 14 15  1  0  0  0  0
 14 16  1  0  0  0  0
 17 14  1  0  0  0  0
M  RAD  1   3   2
M  END
