Coordinates from ORCA-job 4-CH3O-Ph-N2+-scan-d090-169-n800
 OpenBabel09191814063D

 17 16  0  0  0  0  0  0  0  0999 V2000
   -3.5292   -0.0065    0.0277 C   0  0  0  0  0  0  0  0  0  0  0  0
   -2.5236    0.2089   -0.9467 C   0  0  0  0  0  0  0  0  0  0  0  0
   -2.2565    1.5224   -0.9498 C   0  0  0  0  0  0  0  0  0  0  0  0
   -2.3012    2.6051   -0.1561 C   0  0  0  0  0  0  0  0  0  0  0  0
   -3.2982    2.3219    0.8013 C   0  0  0  0  0  0  0  0  0  0  0  0
   -3.8961    1.0354    0.9132 C   0  0  0  0  0  0  0  0  0  0  0  0
   -3.9947   -0.9857    0.0566 H   0  0  0  0  0  0  0  0  0  0  0  0
   -2.1311   -0.5631   -1.5996 H   0  0  0  0  0  0  0  0  0  0  0  0
   -1.8403    3.5779   -0.2838 H   0  0  0  0  0  0  0  0  0  0  0  0
   -3.6622    3.1371    1.4217 H   0  0  0  0  0  0  0  0  0  0  0  0
   12.0725    0.2895   -2.4206 N   0  0  0  0  0  0  0  0  0  0  0  0
   13.1637    0.2236   -2.5845 N   0  0  0  0  0  0  0  0  0  0  0  0
   -4.7999    0.9240    1.8778 O   0  0  0  0  0  0  0  0  0  0  0  0
   -5.4327   -0.3461    2.1385 C   0  0  0  0  0  0  0  0  0  0  0  0
   -6.1174   -0.1601    2.9638 H   0  0  0  0  0  0  0  0  0  0  0  0
   -4.6883   -1.0923    2.4314 H   0  0  0  0  0  0  0  0  0  0  0  0
   -5.9942   -0.6786    1.2588 H   0  0  0  0  0  0  0  0  0  0  0  0
  1  7  1  0  0  0  0
  1  6  2  0  0  0  0
  2  1  1  0  0  0  0
  3  2  2  0  0  0  0
  3  4  1  0  0  0  0
  4  5  2  0  0  0  0
  5  6  1  0  0  0  0
  5 10  1  0  0  0  0
  6 13  1  0  0  0  0
  8  2  1  0  0  0  0
  9  4  1  0  0  0  0
 12 11  3  0  0  0  0
 13 14  1  0  0  0  0
 14 16  1  0  0  0  0
 14 15  1  0  0  0  0
 17 14  1  0  0  0  0
M  RAD  1   3   2
M  END
