Coordinates from ORCA-job 4-CH3O-Ph-N2+-scan-d090-169-n800
 OpenBabel09191814063D

 17 16  0  0  0  0  0  0  0  0999 V2000
   -2.9609   -0.1544    0.2504 C   0  0  0  0  0  0  0  0  0  0  0  0
   -1.6464   -0.1468   -0.2783 C   0  0  0  0  0  0  0  0  0  0  0  0
   -1.2526    1.1333   -0.3270 C   0  0  0  0  0  0  0  0  0  0  0  0
   -1.4707    2.3234    0.2563 C   0  0  0  0  0  0  0  0  0  0  0  0
   -2.7784    2.2453    0.7804 C   0  0  0  0  0  0  0  0  0  0  0  0
   -3.5141    1.0274    0.7996 C   0  0  0  0  0  0  0  0  0  0  0  0
   -3.5096   -1.0890    0.2088 H   0  0  0  0  0  0  0  0  0  0  0  0
   -1.1275   -1.0293   -0.6362 H   0  0  0  0  0  0  0  0  0  0  0  0
   -0.8897    3.2371    0.2060 H   0  0  0  0  0  0  0  0  0  0  0  0
   -3.2544    3.1638    1.1149 H   0  0  0  0  0  0  0  0  0  0  0  0
    8.8165    0.6462   -2.2980 N   0  0  0  0  0  0  0  0  0  0  0  0
    9.8934    0.6135   -2.5456 N   0  0  0  0  0  0  0  0  0  0  0  0
   -4.7198    1.1142    1.3463 O   0  0  0  0  0  0  0  0  0  0  0  0
   -5.5411   -0.0637    1.4862 C   0  0  0  0  0  0  0  0  0  0  0  0
   -6.4595    0.2826    1.9565 H   0  0  0  0  0  0  0  0  0  0  0  0
   -5.0483   -0.8009    2.1268 H   0  0  0  0  0  0  0  0  0  0  0  0
   -5.7663   -0.4892    0.5024 H   0  0  0  0  0  0  0  0  0  0  0  0
  1  6  2  0  0  0  0
  2  1  1  0  0  0  0
  3  2  2  0  0  0  0
  3  4  1  0  0  0  0
  4  5  2  0  0  0  0
  5  6  1  0  0  0  0
  5 10  1  0  0  0  0
  6 13  1  0  0  0  0
  7  1  1  0  0  0  0
  8  2  1  0  0  0  0
  9  4  1  0  0  0  0
 12 11  3  0  0  0  0
 13 14  1  0  0  0  0
 14 15  1  0  0  0  0
 14 16  1  0  0  0  0
 17 14  1  0  0  0  0
M  RAD  1   3   2
M  END
