Coordinates from ORCA-job 4-CH3O-Ph-N2+-scan-d090-169-n800
 OpenBabel09191814063D

 17 16  0  0  0  0  0  0  0  0999 V2000
   -2.8806   -0.1589    0.2475 C   0  0  0  0  0  0  0  0  0  0  0  0
   -1.5579   -0.1561   -0.2603 C   0  0  0  0  0  0  0  0  0  0  0  0
   -1.1616    1.1230   -0.3113 C   0  0  0  0  0  0  0  0  0  0  0  0
   -1.3873    2.3166    0.2616 C   0  0  0  0  0  0  0  0  0  0  0  0
   -2.7030    2.2438    0.7655 C   0  0  0  0  0  0  0  0  0  0  0  0
   -3.4407    1.0269    0.7808 C   0  0  0  0  0  0  0  0  0  0  0  0
   -3.4299   -1.0930    0.2028 H   0  0  0  0  0  0  0  0  0  0  0  0
   -1.0351   -1.0416   -0.6049 H   0  0  0  0  0  0  0  0  0  0  0  0
   -0.8045    3.2294    0.2142 H   0  0  0  0  0  0  0  0  0  0  0  0
   -3.1829    3.1651    1.0865 H   0  0  0  0  0  0  0  0  0  0  0  0
    8.2522    0.6579   -2.1912 N   0  0  0  0  0  0  0  0  0  0  0  0
    9.3284    0.6254   -2.4415 N   0  0  0  0  0  0  0  0  0  0  0  0
   -4.6545    1.1186    1.3080 O   0  0  0  0  0  0  0  0  0  0  0  0
   -5.4796   -0.0573    1.4425 C   0  0  0  0  0  0  0  0  0  0  0  0
   -6.4048    0.2933    1.8962 H   0  0  0  0  0  0  0  0  0  0  0  0
   -4.9978   -0.7910    2.0953 H   0  0  0  0  0  0  0  0  0  0  0  0
   -5.6900   -0.4887    0.4580 H   0  0  0  0  0  0  0  0  0  0  0  0
  1  6  2  0  0  0  0
  2  1  1  0  0  0  0
  3  2  2  0  0  0  0
  3  4  1  0  0  0  0
  4  5  2  0  0  0  0
  5  6  1  0  0  0  0
  5 10  1  0  0  0  0
  6 13  1  0  0  0  0
  7  1  1  0  0  0  0
  8  2  1  0  0  0  0
  9  4  1  0  0  0  0
 12 11  3  0  0  0  0
 13 14  1  0  0  0  0
 14 15  1  0  0  0  0
 14 16  1  0  0  0  0
 17 14  1  0  0  0  0
M  RAD  1   3   2
M  END
