Coordinates from ORCA-job 4-CH3O-Ph-N2+-scan-d090-169-n800
 OpenBabel09191814063D

 17 16  0  0  0  0  0  0  0  0999 V2000
   -3.6643    0.0576   -0.0683 C   0  0  0  0  0  0  0  0  0  0  0  0
   -2.8581    0.3701   -1.1900 C   0  0  0  0  0  0  0  0  0  0  0  0
   -2.6593    1.6960   -1.1746 C   0  0  0  0  0  0  0  0  0  0  0  0
   -2.6105    2.7388   -0.3289 C   0  0  0  0  0  0  0  0  0  0  0  0
   -3.4084    2.3609    0.7715 C   0  0  0  0  0  0  0  0  0  0  0  0
   -3.9168    1.0398    0.9198 C   0  0  0  0  0  0  0  0  0  0  0  0
   -4.0701   -0.9463   -0.0078 H   0  0  0  0  0  0  0  0  0  0  0  0
   -2.5488   -0.3505   -1.9393 H   0  0  0  0  0  0  0  0  0  0  0  0
   -2.2257    3.7401   -0.4850 H   0  0  0  0  0  0  0  0  0  0  0  0
   -3.6958    3.1278    1.4866 H   0  0  0  0  0  0  0  0  0  0  0  0
   12.4793    0.1213   -2.2452 N   0  0  0  0  0  0  0  0  0  0  0  0
   13.5741    0.0429   -2.3767 N   0  0  0  0  0  0  0  0  0  0  0  0
   -4.6291    0.8386    2.0204 O   0  0  0  0  0  0  0  0  0  0  0  0
   -5.1466   -0.4740    2.3226 C   0  0  0  0  0  0  0  0  0  0  0  0
   -5.6828   -0.3601    3.2629 H   0  0  0  0  0  0  0  0  0  0  0  0
   -4.3283   -1.1900    2.4433 H   0  0  0  0  0  0  0  0  0  0  0  0
   -5.8383   -0.7995    1.5384 H   0  0  0  0  0  0  0  0  0  0  0  0
  1  7  1  0  0  0  0
  1  6  2  0  0  0  0
  2  3  2  0  0  0  0
  2  1  1  0  0  0  0
  3  4  1  0  0  0  0
  4  5  2  0  0  0  0
  5  6  1  0  0  0  0
  5 10  1  0  0  0  0
  6 13  1  0  0  0  0
  8  2  1  0  0  0  0
  9  4  1  0  0  0  0
 12 11  3  0  0  0  0
 13 14  1  0  0  0  0
 14 16  1  0  0  0  0
 14 15  1  0  0  0  0
 17 14  1  0  0  0  0
M  RAD  1   3   2
M  END
