Coordinates from ORCA-job 4-CH3O-Ph-N2+-scan-d090-169-n800
 OpenBabel09191814063D

 17 16  0  0  0  0  0  0  0  0999 V2000
   -3.9442    0.1752   -0.2069 C   0  0  0  0  0  0  0  0  0  0  0  0
   -3.6675    0.6542   -1.5105 C   0  0  0  0  0  0  0  0  0  0  0  0
   -3.6319    1.9928   -1.4397 C   0  0  0  0  0  0  0  0  0  0  0  0
   -3.3834    2.9899   -0.5744 C   0  0  0  0  0  0  0  0  0  0  0  0
   -3.6532    2.4487    0.7003 C   0  0  0  0  0  0  0  0  0  0  0  0
   -3.9113    1.0624    0.8958 C   0  0  0  0  0  0  0  0  0  0  0  0
   -4.1773   -0.8785   -0.0993 H   0  0  0  0  0  0  0  0  0  0  0  0
   -3.5841    0.0221   -2.3880 H   0  0  0  0  0  0  0  0  0  0  0  0
   -3.2083    4.0430   -0.7618 H   0  0  0  0  0  0  0  0  0  0  0  0
   -3.7352    3.1310    1.5429 H   0  0  0  0  0  0  0  0  0  0  0  0
   13.0918   -0.2700   -1.7995 N   0  0  0  0  0  0  0  0  0  0  0  0
   14.1901   -0.3697   -1.8769 N   0  0  0  0  0  0  0  0  0  0  0  0
   -4.1217    0.7090    2.1568 O   0  0  0  0  0  0  0  0  0  0  0  0
   -4.3321   -0.6771    2.4987 C   0  0  0  0  0  0  0  0  0  0  0  0
   -4.4795   -0.6859    3.5770 H   0  0  0  0  0  0  0  0  0  0  0  0
   -3.4536   -1.2738    2.2364 H   0  0  0  0  0  0  0  0  0  0  0  0
   -5.2282   -1.0599    1.9987 H   0  0  0  0  0  0  0  0  0  0  0  0
  1  7  1  0  0  0  0
  1  6  2  0  0  0  0
  2  3  2  0  0  0  0
  2  1  1  0  0  0  0
  3  4  1  0  0  0  0
  4  5  2  0  0  0  0
  5  6  1  0  0  0  0
  5 10  1  0  0  0  0
  6 13  1  0  0  0  0
  8  2  1  0  0  0  0
  9  4  1  0  0  0  0
 12 11  3  0  0  0  0
 13 14  1  0  0  0  0
 14 15  1  0  0  0  0
 16 14  1  0  0  0  0
 17 14  1  0  0  0  0
M  RAD  1   3   2
M  END
