Coordinates from ORCA-job 4-CH3O-Ph-N2+-scan-d090-169-n800
 OpenBabel09191814063D

 17 16  0  0  0  0  0  0  0  0999 V2000
   -3.0100   -0.1505    0.2495 C   0  0  0  0  0  0  0  0  0  0  0  0
   -1.7019   -0.1384   -0.2949 C   0  0  0  0  0  0  0  0  0  0  0  0
   -1.3106    1.1425   -0.3422 C   0  0  0  0  0  0  0  0  0  0  0  0
   -1.5235    2.3294    0.2495 C   0  0  0  0  0  0  0  0  0  0  0  0
   -2.8246    2.2468    0.7890 C   0  0  0  0  0  0  0  0  0  0  0  0
   -3.5582    1.0277    0.8111 C   0  0  0  0  0  0  0  0  0  0  0  0
   -3.5578   -1.0858    0.2101 H   0  0  0  0  0  0  0  0  0  0  0  0
   -1.1862   -1.0184   -0.6632 H   0  0  0  0  0  0  0  0  0  0  0  0
   -0.9445    3.2442    0.1966 H   0  0  0  0  0  0  0  0  0  0  0  0
   -3.2979    3.1630    1.1335 H   0  0  0  0  0  0  0  0  0  0  0  0
    9.1574    0.6364   -2.3574 N   0  0  0  0  0  0  0  0  0  0  0  0
   10.2347    0.6033   -2.6028 N   0  0  0  0  0  0  0  0  0  0  0  0
   -4.7573    1.1100    1.3727 O   0  0  0  0  0  0  0  0  0  0  0  0
   -5.5753   -0.0697    1.5168 C   0  0  0  0  0  0  0  0  0  0  0  0
   -6.4884    0.2730    1.9998 H   0  0  0  0  0  0  0  0  0  0  0  0
   -5.0736   -0.8093    2.1479 H   0  0  0  0  0  0  0  0  0  0  0  0
   -5.8116   -0.4908    0.5337 H   0  0  0  0  0  0  0  0  0  0  0  0
  1  6  2  0  0  0  0
  2  1  1  0  0  0  0
  3  2  2  0  0  0  0
  3  4  1  0  0  0  0
  4  5  2  0  0  0  0
  5  6  1  0  0  0  0
  5 10  1  0  0  0  0
  6 13  1  0  0  0  0
  7  1  1  0  0  0  0
  8  2  1  0  0  0  0
  9  4  1  0  0  0  0
 12 11  3  0  0  0  0
 13 14  1  0  0  0  0
 14 15  1  0  0  0  0
 14 16  1  0  0  0  0
 17 14  1  0  0  0  0
M  RAD  1   3   2
M  END
