Coordinates from ORCA-job 4-CH3O-Ph-N2+-scan-d090-169-n800
 OpenBabel09191814063D

 17 16  0  0  0  0  0  0  0  0999 V2000
   -2.4994   -0.1701    0.2019 C   0  0  0  0  0  0  0  0  0  0  0  0
   -1.1558   -0.1791   -0.2487 C   0  0  0  0  0  0  0  0  0  0  0  0
   -0.7551    1.0983   -0.3025 C   0  0  0  0  0  0  0  0  0  0  0  0
   -1.0033    2.3032    0.2363 C   0  0  0  0  0  0  0  0  0  0  0  0
   -2.3399    2.2408    0.6843 C   0  0  0  0  0  0  0  0  0  0  0  0
   -3.0798    1.0256    0.6890 C   0  0  0  0  0  0  0  0  0  0  0  0
   -3.0483   -1.1041    0.1497 H   0  0  0  0  0  0  0  0  0  0  0  0
   -0.6208   -1.0711   -0.5555 H   0  0  0  0  0  0  0  0  0  0  0  0
   -0.4162    3.2137    0.1991 H   0  0  0  0  0  0  0  0  0  0  0  0
   -2.8307    3.1682    0.9693 H   0  0  0  0  0  0  0  0  0  0  0  0
    5.5053    0.6935   -1.6031 N   0  0  0  0  0  0  0  0  0  0  0  0
    6.5799    0.6568   -1.8599 N   0  0  0  0  0  0  0  0  0  0  0  0
   -4.3155    1.1280    1.1612 O   0  0  0  0  0  0  0  0  0  0  0  0
   -5.1475   -0.0445    1.2802 C   0  0  0  0  0  0  0  0  0  0  0  0
   -6.0908    0.3145    1.6875 H   0  0  0  0  0  0  0  0  0  0  0  0
   -4.6956   -0.7675    1.9657 H   0  0  0  0  0  0  0  0  0  0  0  0
   -5.3160   -0.4928    0.2951 H   0  0  0  0  0  0  0  0  0  0  0  0
  1  6  2  0  0  0  0
  2  1  1  0  0  0  0
  3  2  2  0  0  0  0
  3  4  1  0  0  0  0
  4  5  2  0  0  0  0
  5  6  1  0  0  0  0
  5 10  1  0  0  0  0
  6 13  1  0  0  0  0
  7  1  1  0  0  0  0
  8  2  1  0  0  0  0
  9  4  1  0  0  0  0
 12 11  3  0  0  0  0
 13 14  1  0  0  0  0
 14 15  1  0  0  0  0
 14 16  1  0  0  0  0
 17 14  1  0  0  0  0
M  RAD  1   3   2
M  END
