Coordinates from ORCA-job 4-CH3O-Ph-N2+-scan-d090-169-n800
 OpenBabel09191814063D

 17 16  0  0  0  0  0  0  0  0999 V2000
   -3.8996    0.1597   -0.1935 C   0  0  0  0  0  0  0  0  0  0  0  0
   -3.5387    0.6214   -1.4824 C   0  0  0  0  0  0  0  0  0  0  0  0
   -3.4843    1.9604   -1.4231 C   0  0  0  0  0  0  0  0  0  0  0  0
   -3.2613    2.9592   -0.5522 C   0  0  0  0  0  0  0  0  0  0  0  0
   -3.6147    2.4367    0.7094 C   0  0  0  0  0  0  0  0  0  0  0  0
   -3.9123    1.0576    0.9017 C   0  0  0  0  0  0  0  0  0  0  0  0
   -4.1581   -0.8884   -0.0897 H   0  0  0  0  0  0  0  0  0  0  0  0
   -3.4164   -0.0199   -2.3486 H   0  0  0  0  0  0  0  0  0  0  0  0
   -3.0516    4.0063   -0.7389 H   0  0  0  0  0  0  0  0  0  0  0  0
   -3.7297    3.1287    1.5401 H   0  0  0  0  0  0  0  0  0  0  0  0
   12.9870   -0.2111   -1.8642 N   0  0  0  0  0  0  0  0  0  0  0  0
   14.0850   -0.3079   -1.9481 N   0  0  0  0  0  0  0  0  0  0  0  0
   -4.2012    0.7210    2.1513 O   0  0  0  0  0  0  0  0  0  0  0  0
   -4.4579   -0.6572    2.4933 C   0  0  0  0  0  0  0  0  0  0  0  0
   -4.6675   -0.6521    3.5613 H   0  0  0  0  0  0  0  0  0  0  0  0
   -3.5774   -1.2730    2.2878 H   0  0  0  0  0  0  0  0  0  0  0  0
   -5.3309   -1.0281    1.9457 H   0  0  0  0  0  0  0  0  0  0  0  0
  1  7  1  0  0  0  0
  1  6  2  0  0  0  0
  2  3  2  0  0  0  0
  2  1  1  0  0  0  0
  3  4  1  0  0  0  0
  4  5  2  0  0  0  0
  5  6  1  0  0  0  0
  5 10  1  0  0  0  0
  6 13  1  0  0  0  0
  8  2  1  0  0  0  0
  9  4  1  0  0  0  0
 12 11  3  0  0  0  0
 13 14  1  0  0  0  0
 14 15  1  0  0  0  0
 16 14  1  0  0  0  0
 17 14  1  0  0  0  0
M  RAD  1   3   2
M  END
