Coordinates from ORCA-job 4-CH3O-Ph-N2+-scan-d090-169-n800
 OpenBabel09191814063D

 17 16  0  0  0  0  0  0  0  0999 V2000
   -3.3900   -0.0657    0.1256 C   0  0  0  0  0  0  0  0  0  0  0  0
   -2.2380    0.0641   -0.6888 C   0  0  0  0  0  0  0  0  0  0  0  0
   -1.9188    1.3656   -0.7105 C   0  0  0  0  0  0  0  0  0  0  0  0
   -2.0404    2.4893    0.0154 C   0  0  0  0  0  0  0  0  0  0  0  0
   -3.1840    2.2907    0.8174 C   0  0  0  0  0  0  0  0  0  0  0  0
   -3.8453    1.0329    0.8938 C   0  0  0  0  0  0  0  0  0  0  0  0
   -3.8950   -1.0255    0.1266 H   0  0  0  0  0  0  0  0  0  0  0  0
   -1.7821   -0.7540   -1.2357 H   0  0  0  0  0  0  0  0  0  0  0  0
   -1.5249    3.4377   -0.0836 H   0  0  0  0  0  0  0  0  0  0  0  0
   -3.6050    3.1491    1.3352 H   0  0  0  0  0  0  0  0  0  0  0  0
   11.5018    0.4304   -2.5317 N   0  0  0  0  0  0  0  0  0  0  0  0
   12.5883    0.3762   -2.7281 N   0  0  0  0  0  0  0  0  0  0  0  0
   -4.8909    1.0028    1.7096 O   0  0  0  0  0  0  0  0  0  0  0  0
   -5.6089   -0.2297    1.9266 C   0  0  0  0  0  0  0  0  0  0  0  0
   -6.4043    0.0222    2.6255 H   0  0  0  0  0  0  0  0  0  0  0  0
   -4.9504   -0.9847    2.3661 H   0  0  0  0  0  0  0  0  0  0  0  0
   -6.0415   -0.5881    0.9863 H   0  0  0  0  0  0  0  0  0  0  0  0
  1  7  1  0  0  0  0
  1  6  2  0  0  0  0
  2  1  1  0  0  0  0
  3  2  2  0  0  0  0
  3  4  1  0  0  0  0
  4  5  2  0  0  0  0
  5  6  1  0  0  0  0
  5 10  1  0  0  0  0
  6 13  1  0  0  0  0
  8  2  1  0  0  0  0
  9  4  1  0  0  0  0
 12 11  3  0  0  0  0
 13 14  1  0  0  0  0
 14 16  1  0  0  0  0
 14 15  1  0  0  0  0
 17 14  1  0  0  0  0
M  RAD  1   3   2
M  END
