Coordinates from ORCA-job 4-CH3O-Ph-N2+-scan-d090-169-n800
 OpenBabel09191814063D

 17 16  0  0  0  0  0  0  0  0999 V2000
   -3.6472    0.0495   -0.0568 C   0  0  0  0  0  0  0  0  0  0  0  0
   -2.8130    0.3496   -1.1614 C   0  0  0  0  0  0  0  0  0  0  0  0
   -2.6048    1.6740   -1.1484 C   0  0  0  0  0  0  0  0  0  0  0  0
   -2.5685    2.7216   -0.3080 C   0  0  0  0  0  0  0  0  0  0  0  0
   -3.3943    2.3556    0.7758 C   0  0  0  0  0  0  0  0  0  0  0  0
   -3.9154    1.0390    0.9197 C   0  0  0  0  0  0  0  0  0  0  0  0
   -4.0616   -0.9511   -0.0003 H   0  0  0  0  0  0  0  0  0  0  0  0
   -2.4921   -0.3775   -1.8995 H   0  0  0  0  0  0  0  0  0  0  0  0
   -2.1729    3.7192   -0.4608 H   0  0  0  0  0  0  0  0  0  0  0  0
   -3.6924    3.1287    1.4798 H   0  0  0  0  0  0  0  0  0  0  0  0
   12.4338    0.1438   -2.2697 N   0  0  0  0  0  0  0  0  0  0  0  0
   13.5282    0.0669   -2.4053 N   0  0  0  0  0  0  0  0  0  0  0  0
   -4.6544    0.8492    2.0046 O   0  0  0  0  0  0  0  0  0  0  0  0
   -5.1881   -0.4580    2.3020 C   0  0  0  0  0  0  0  0  0  0  0  0
   -5.7451   -0.3350    3.2289 H   0  0  0  0  0  0  0  0  0  0  0  0
   -4.3780   -1.1790    2.4455 H   0  0  0  0  0  0  0  0  0  0  0  0
   -5.8639   -0.7831    1.5037 H   0  0  0  0  0  0  0  0  0  0  0  0
  1  7  1  0  0  0  0
  1  6  2  0  0  0  0
  2  3  2  0  0  0  0
  2  1  1  0  0  0  0
  3  4  1  0  0  0  0
  4  5  2  0  0  0  0
  5  6  1  0  0  0  0
  5 10  1  0  0  0  0
  6 13  1  0  0  0  0
  8  2  1  0  0  0  0
  9  4  1  0  0  0  0
 12 11  3  0  0  0  0
 13 14  1  0  0  0  0
 14 16  1  0  0  0  0
 14 15  1  0  0  0  0
 17 14  1  0  0  0  0
M  RAD  1   3   2
M  END
