Coordinates from ORCA-job 4-CH3O-Ph-N2+-scan-d090-169-n800
 OpenBabel09191814063D

 17 16  0  0  0  0  0  0  0  0999 V2000
   -2.5295   -0.1689    0.2065 C   0  0  0  0  0  0  0  0  0  0  0  0
   -1.1871   -0.1764   -0.2476 C   0  0  0  0  0  0  0  0  0  0  0  0
   -0.7873    1.1013   -0.3011 C   0  0  0  0  0  0  0  0  0  0  0  0
   -1.0349    2.3054    0.2399 C   0  0  0  0  0  0  0  0  0  0  0  0
   -2.3702    2.2416    0.6913 C   0  0  0  0  0  0  0  0  0  0  0  0
   -3.1093    1.0259    0.6965 C   0  0  0  0  0  0  0  0  0  0  0  0
   -3.0780   -1.1031    0.1546 H   0  0  0  0  0  0  0  0  0  0  0  0
   -0.6523   -1.0678   -0.5567 H   0  0  0  0  0  0  0  0  0  0  0  0
   -0.4485    3.2163    0.2022 H   0  0  0  0  0  0  0  0  0  0  0  0
   -2.8610    3.1683    0.9785 H   0  0  0  0  0  0  0  0  0  0  0  0
    5.7283    0.6885   -1.6533 N   0  0  0  0  0  0  0  0  0  0  0  0
    6.8030    0.6527   -1.9094 N   0  0  0  0  0  0  0  0  0  0  0  0
   -4.3439    1.1270    1.1720 O   0  0  0  0  0  0  0  0  0  0  0  0
   -5.1749   -0.0462    1.2919 C   0  0  0  0  0  0  0  0  0  0  0  0
   -6.1174    0.3119    1.7020 H   0  0  0  0  0  0  0  0  0  0  0  0
   -4.7208   -0.7696    1.9755 H   0  0  0  0  0  0  0  0  0  0  0  0
   -5.3457   -0.4934    0.3068 H   0  0  0  0  0  0  0  0  0  0  0  0
  1  6  2  0  0  0  0
  2  1  1  0  0  0  0
  3  2  2  0  0  0  0
  3  4  1  0  0  0  0
  4  5  2  0  0  0  0
  5  6  1  0  0  0  0
  5 10  1  0  0  0  0
  6 13  1  0  0  0  0
  7  1  1  0  0  0  0
  8  2  1  0  0  0  0
  9  4  1  0  0  0  0
 12 11  3  0  0  0  0
 13 14  1  0  0  0  0
 14 15  1  0  0  0  0
 14 16  1  0  0  0  0
 17 14  1  0  0  0  0
M  RAD  1   3   2
M  END
