Coordinates from ORCA-job 4-CH3O-Ph-N2+-scan-d090-169-n800
 OpenBabel09191814063D

 17 16  0  0  0  0  0  0  0  0999 V2000
   -3.8313    0.1329   -0.1656 C   0  0  0  0  0  0  0  0  0  0  0  0
   -3.3366    0.5589   -1.4218 C   0  0  0  0  0  0  0  0  0  0  0  0
   -3.2412    1.8964   -1.3778 C   0  0  0  0  0  0  0  0  0  0  0  0
   -3.0634    2.9024   -0.5046 C   0  0  0  0  0  0  0  0  0  0  0  0
   -3.5508    2.4148    0.7261 C   0  0  0  0  0  0  0  0  0  0  0  0
   -3.9142    1.0505    0.9099 C   0  0  0  0  0  0  0  0  0  0  0  0
   -4.1353   -0.9038   -0.0709 H   0  0  0  0  0  0  0  0  0  0  0  0
   -3.1559   -0.1009   -2.2635 H   0  0  0  0  0  0  0  0  0  0  0  0
   -2.7983    3.9377   -0.6864 H   0  0  0  0  0  0  0  0  0  0  0  0
   -3.7174    3.1252    1.5321 H   0  0  0  0  0  0  0  0  0  0  0  0
   12.8420   -0.1129   -1.9743 N   0  0  0  0  0  0  0  0  0  0  0  0
   13.9394   -0.2049   -2.0702 N   0  0  0  0  0  0  0  0  0  0  0  0
   -4.3306    0.7467    2.1317 O   0  0  0  0  0  0  0  0  0  0  0  0
   -4.6675   -0.6154    2.4689 C   0  0  0  0  0  0  0  0  0  0  0  0
   -4.9754   -0.5834    3.5123 H   0  0  0  0  0  0  0  0  0  0  0  0
   -3.7945   -1.2649    2.3563 H   0  0  0  0  0  0  0  0  0  0  0  0
   -5.4984   -0.9660    1.8474 H   0  0  0  0  0  0  0  0  0  0  0  0
  1  7  1  0  0  0  0
  1  6  2  0  0  0  0
  2  3  2  0  0  0  0
  2  1  1  0  0  0  0
  3  4  1  0  0  0  0
  4  5  2  0  0  0  0
  5  6  1  0  0  0  0
  5 10  1  0  0  0  0
  6 13  1  0  0  0  0
  8  2  1  0  0  0  0
  9  4  1  0  0  0  0
 12 11  3  0  0  0  0
 13 14  1  0  0  0  0
 14 15  1  0  0  0  0
 16 14  1  0  0  0  0
 17 14  1  0  0  0  0
M  RAD  1   3   2
M  END
