Coordinates from ORCA-job 4-CH3O-Ph-N2+-scan-d090-169-n800
 OpenBabel09191814063D

 17 16  0  0  0  0  0  0  0  0999 V2000
   -3.5127   -0.0141    0.0398 C   0  0  0  0  0  0  0  0  0  0  0  0
   -2.4866    0.1902   -0.9155 C   0  0  0  0  0  0  0  0  0  0  0  0
   -2.2124    1.5022   -0.9208 C   0  0  0  0  0  0  0  0  0  0  0  0
   -2.2675    2.5900   -0.1347 C   0  0  0  0  0  0  0  0  0  0  0  0
   -3.2850    2.3177    0.8040 C   0  0  0  0  0  0  0  0  0  0  0  0
   -3.8919    1.0350    0.9115 C   0  0  0  0  0  0  0  0  0  0  0  0
   -3.9840   -0.9905    0.0650 H   0  0  0  0  0  0  0  0  0  0  0  0
   -2.0854   -0.5877   -1.5558 H   0  0  0  0  0  0  0  0  0  0  0  0
   -1.7989    3.5596   -0.2589 H   0  0  0  0  0  0  0  0  0  0  0  0
   -3.6571    3.1386    1.4122 H   0  0  0  0  0  0  0  0  0  0  0  0
   12.0140    0.3080   -2.4381 N   0  0  0  0  0  0  0  0  0  0  0  0
   13.1047    0.2436   -2.6060 N   0  0  0  0  0  0  0  0  0  0  0  0
   -4.8155    0.9342    1.8584 O   0  0  0  0  0  0  0  0  0  0  0  0
   -5.4600   -0.3312    2.1137 C   0  0  0  0  0  0  0  0  0  0  0  0
   -6.1602   -0.1367    2.9240 H   0  0  0  0  0  0  0  0  0  0  0  0
   -4.7256   -1.0794    2.4259 H   0  0  0  0  0  0  0  0  0  0  0  0
   -6.0055   -0.6660    1.2249 H   0  0  0  0  0  0  0  0  0  0  0  0
  1  7  1  0  0  0  0
  1  6  2  0  0  0  0
  2  1  1  0  0  0  0
  3  2  2  0  0  0  0
  3  4  1  0  0  0  0
  4  5  2  0  0  0  0
  5  6  1  0  0  0  0
  5 10  1  0  0  0  0
  6 13  1  0  0  0  0
  8  2  1  0  0  0  0
  9  4  1  0  0  0  0
 12 11  3  0  0  0  0
 13 14  1  0  0  0  0
 14 16  1  0  0  0  0
 14 15  1  0  0  0  0
 17 14  1  0  0  0  0
M  RAD  1   3   2
M  END
