Coordinates from ORCA-job 4-CH3O-Ph-N2+-scan-d090-169-n800
 OpenBabel09191814063D

 17 16  0  0  0  0  0  0  0  0999 V2000
   -2.0579   -0.2081    0.1964 C   0  0  0  0  0  0  0  0  0  0  0  0
   -0.7020   -0.2898   -0.2242 C   0  0  0  0  0  0  0  0  0  0  0  0
   -0.2028    0.9465   -0.1564 C   0  0  0  0  0  0  0  0  0  0  0  0
   -0.5092    2.2142    0.1584 C   0  0  0  0  0  0  0  0  0  0  0  0
   -1.8615    2.2081    0.5625 C   0  0  0  0  0  0  0  0  0  0  0  0
   -2.6333    1.0208    0.5849 C   0  0  0  0  0  0  0  0  0  0  0  0
   -2.6170   -1.1372    0.2005 H   0  0  0  0  0  0  0  0  0  0  0  0
   -0.2179   -1.2079   -0.5307 H   0  0  0  0  0  0  0  0  0  0  0  0
    0.1133    3.0990    0.1275 H   0  0  0  0  0  0  0  0  0  0  0  0
   -2.3109    3.1506    0.8629 H   0  0  0  0  0  0  0  0  0  0  0  0
    2.1893    0.8727   -0.8858 N   0  0  0  0  0  0  0  0  0  0  0  0
    3.2456    0.8433   -1.2071 N   0  0  0  0  0  0  0  0  0  0  0  0
   -3.8946    1.1734    0.9897 O   0  0  0  0  0  0  0  0  0  0  0  0
   -4.7679    0.0319    1.0506 C   0  0  0  0  0  0  0  0  0  0  0  0
   -5.7225    0.4178    1.4044 H   0  0  0  0  0  0  0  0  0  0  0  0
   -4.3852   -0.7105    1.7591 H   0  0  0  0  0  0  0  0  0  0  0  0
   -4.8951   -0.4113    0.0571 H   0  0  0  0  0  0  0  0  0  0  0  0
  1  7  1  0  0  0  0
  1  6  2  0  0  0  0
  2  3  2  0  0  0  0
  2  1  1  0  0  0  0
  3  4  1  0  0  0  0
  4  5  2  0  0  0  0
  5  6  1  0  0  0  0
  5 10  1  0  0  0  0
  6 13  1  0  0  0  0
  8  2  1  0  0  0  0
  9  4  1  0  0  0  0
 12 11  3  0  0  0  0
 13 14  1  0  0  0  0
 14 15  1  0  0  0  0
 14 16  1  0  0  0  0
 17 14  1  0  0  0  0
M  RAD  1   3   2
M  END
