Coordinates from ORCA-job 4-CH3O-Ph-N2+-scan-d090-169-n800
 OpenBabel09191814063D

 17 16  0  0  0  0  0  0  0  0999 V2000
   -2.2447   -0.2000    0.1723 C   0  0  0  0  0  0  0  0  0  0  0  0
   -0.8889   -0.2478   -0.2393 C   0  0  0  0  0  0  0  0  0  0  0  0
   -0.4576    1.0183   -0.2957 C   0  0  0  0  0  0  0  0  0  0  0  0
   -0.6959    2.2387    0.2098 C   0  0  0  0  0  0  0  0  0  0  0  0
   -2.0460    2.2141    0.6195 C   0  0  0  0  0  0  0  0  0  0  0  0
   -2.8126    1.0160    0.6220 C   0  0  0  0  0  0  0  0  0  0  0  0
   -2.8126   -1.1224    0.1186 H   0  0  0  0  0  0  0  0  0  0  0  0
   -0.3667   -1.1560   -0.5191 H   0  0  0  0  0  0  0  0  0  0  0  0
   -0.0853    3.1336    0.1766 H   0  0  0  0  0  0  0  0  0  0  0  0
   -2.5223    3.1563    0.8788 H   0  0  0  0  0  0  0  0  0  0  0  0
    3.5269    0.8181   -1.1692 N   0  0  0  0  0  0  0  0  0  0  0  0
    4.5963    0.7864   -1.4465 N   0  0  0  0  0  0  0  0  0  0  0  0
   -4.0599    1.1530    1.0549 O   0  0  0  0  0  0  0  0  0  0  0  0
   -4.9198    0.0006    1.1666 C   0  0  0  0  0  0  0  0  0  0  0  0
   -5.8668    0.3855    1.5405 H   0  0  0  0  0  0  0  0  0  0  0  0
   -4.5041   -0.7213    1.8759 H   0  0  0  0  0  0  0  0  0  0  0  0
   -5.0694   -0.4595    0.1839 H   0  0  0  0  0  0  0  0  0  0  0  0
  1  6  2  0  0  0  0
  2  1  1  0  0  0  0
  3  2  2  0  0  0  0
  3  4  1  0  0  0  0
  4  5  2  0  0  0  0
  5  6  1  0  0  0  0
  5 10  1  0  0  0  0
  6 13  1  0  0  0  0
  7  1  1  0  0  0  0
  8  2  1  0  0  0  0
  9  4  1  0  0  0  0
 12 11  3  0  0  0  0
 13 14  1  0  0  0  0
 14 15  1  0  0  0  0
 14 16  1  0  0  0  0
 17 14  1  0  0  0  0
M  RAD  1   3   2
M  END
