Coordinates from ORCA-job 4-CH3O-Ph-N2+-scan-d090-169-n800
 OpenBabel09191814063D

 17 16  0  0  0  0  0  0  0  0999 V2000
   -2.5953   -0.1670    0.2162 C   0  0  0  0  0  0  0  0  0  0  0  0
   -1.2555   -0.1723   -0.2457 C   0  0  0  0  0  0  0  0  0  0  0  0
   -0.8569    1.1058   -0.2990 C   0  0  0  0  0  0  0  0  0  0  0  0
   -1.1018    2.3082    0.2471 C   0  0  0  0  0  0  0  0  0  0  0  0
   -2.4345    2.2425    0.7060 C   0  0  0  0  0  0  0  0  0  0  0  0
   -3.1729    1.0262    0.7126 C   0  0  0  0  0  0  0  0  0  0  0  0
   -3.1434   -1.1015    0.1654 H   0  0  0  0  0  0  0  0  0  0  0  0
   -0.7218   -1.0626   -0.5598 H   0  0  0  0  0  0  0  0  0  0  0  0
   -0.5164    3.2197    0.2080 H   0  0  0  0  0  0  0  0  0  0  0  0
   -2.9242    3.1682    0.9982 H   0  0  0  0  0  0  0  0  0  0  0  0
    6.2090    0.6809   -1.7604 N   0  0  0  0  0  0  0  0  0  0  0  0
    7.2840    0.6468   -2.0155 N   0  0  0  0  0  0  0  0  0  0  0  0
   -4.4046    1.1255    1.1957 O   0  0  0  0  0  0  0  0  0  0  0  0
   -5.2343   -0.0484    1.3176 C   0  0  0  0  0  0  0  0  0  0  0  0
   -6.1745    0.3082    1.7341 H   0  0  0  0  0  0  0  0  0  0  0  0
   -4.7758   -0.7732    1.9968 H   0  0  0  0  0  0  0  0  0  0  0  0
   -5.4106   -0.4934    0.3324 H   0  0  0  0  0  0  0  0  0  0  0  0
  1  6  2  0  0  0  0
  2  1  1  0  0  0  0
  3  2  2  0  0  0  0
  3  4  1  0  0  0  0
  4  5  2  0  0  0  0
  5  6  1  0  0  0  0
  5 10  1  0  0  0  0
  6 13  1  0  0  0  0
  7  1  1  0  0  0  0
  8  2  1  0  0  0  0
  9  4  1  0  0  0  0
 12 11  3  0  0  0  0
 13 14  1  0  0  0  0
 14 15  1  0  0  0  0
 14 16  1  0  0  0  0
 17 14  1  0  0  0  0
M  RAD  1   3   2
M  END
