Coordinates from ORCA-job 4-CH3O-Ph-N2+-scan-d090-169-n800
 OpenBabel09191814063D

 17 16  0  0  0  0  0  0  0  0999 V2000
   -3.0174   -0.1500    0.2492 C   0  0  0  0  0  0  0  0  0  0  0  0
   -1.7104   -0.1368   -0.2973 C   0  0  0  0  0  0  0  0  0  0  0  0
   -1.3194    1.1441   -0.3450 C   0  0  0  0  0  0  0  0  0  0  0  0
   -1.5315    2.3301    0.2486 C   0  0  0  0  0  0  0  0  0  0  0  0
   -2.8315    2.2471    0.7903 C   0  0  0  0  0  0  0  0  0  0  0  0
   -3.5648    1.0277    0.8129 C   0  0  0  0  0  0  0  0  0  0  0  0
   -3.5651   -1.0853    0.2097 H   0  0  0  0  0  0  0  0  0  0  0  0
   -1.1954   -1.0165   -0.6677 H   0  0  0  0  0  0  0  0  0  0  0  0
   -0.9531    3.2454    0.1949 H   0  0  0  0  0  0  0  0  0  0  0  0
   -3.3044    3.1630    1.1361 H   0  0  0  0  0  0  0  0  0  0  0  0
    9.2085    0.6348   -2.3661 N   0  0  0  0  0  0  0  0  0  0  0  0
   10.2860    0.6016   -2.6111 N   0  0  0  0  0  0  0  0  0  0  0  0
   -4.7628    1.1093    1.3769 O   0  0  0  0  0  0  0  0  0  0  0  0
   -5.5802   -0.0708    1.5217 C   0  0  0  0  0  0  0  0  0  0  0  0
   -6.4925    0.2714    2.0067 H   0  0  0  0  0  0  0  0  0  0  0  0
   -5.0772   -0.8106    2.1513 H   0  0  0  0  0  0  0  0  0  0  0  0
   -5.8183   -0.4912    0.5388 H   0  0  0  0  0  0  0  0  0  0  0  0
  1  6  2  0  0  0  0
  2  1  1  0  0  0  0
  3  2  2  0  0  0  0
  3  4  1  0  0  0  0
  4  5  2  0  0  0  0
  5  6  1  0  0  0  0
  5 10  1  0  0  0  0
  6 13  1  0  0  0  0
  7  1  1  0  0  0  0
  8  2  1  0  0  0  0
  9  4  1  0  0  0  0
 12 11  3  0  0  0  0
 13 14  1  0  0  0  0
 14 15  1  0  0  0  0
 14 16  1  0  0  0  0
 17 14  1  0  0  0  0
M  RAD  1   3   2
M  END
