Coordinates from ORCA-job 4-CH3O-Ph-N2+-scan-d090-169-n800
 OpenBabel09191814063D

 17 16  0  0  0  0  0  0  0  0999 V2000
   -3.5961    0.0252   -0.0213 C   0  0  0  0  0  0  0  0  0  0  0  0
   -2.6831    0.2883   -1.0718 C   0  0  0  0  0  0  0  0  0  0  0  0
   -2.4481    1.6081   -1.0659 C   0  0  0  0  0  0  0  0  0  0  0  0
   -2.4481    2.6704   -0.2436 C   0  0  0  0  0  0  0  0  0  0  0  0
   -3.3526    2.3405    0.7877 C   0  0  0  0  0  0  0  0  0  0  0  0
   -3.9093    1.0372    0.9180 C   0  0  0  0  0  0  0  0  0  0  0  0
   -4.0346   -0.9657    0.0233 H   0  0  0  0  0  0  0  0  0  0  0  0
   -2.3294   -0.4583   -1.7745 H   0  0  0  0  0  0  0  0  0  0  0  0
   -2.0223    3.6571   -0.3858 H   0  0  0  0  0  0  0  0  0  0  0  0
   -3.6811    3.1320    1.4569 H   0  0  0  0  0  0  0  0  0  0  0  0
   12.2884    0.2090   -2.3392 N   0  0  0  0  0  0  0  0  0  0  0  0
   13.3816    0.1366   -2.4869 N   0  0  0  0  0  0  0  0  0  0  0  0
   -4.7240    0.8815    1.9532 O   0  0  0  0  0  0  0  0  0  0  0  0
   -5.3030   -0.4096    2.2354 C   0  0  0  0  0  0  0  0  0  0  0  0
   -5.9185   -0.2594    3.1204 H   0  0  0  0  0  0  0  0  0  0  0  0
   -4.5193   -1.1435    2.4452 H   0  0  0  0  0  0  0  0  0  0  0  0
   -5.9301   -0.7359    1.3988 H   0  0  0  0  0  0  0  0  0  0  0  0
  1  7  1  0  0  0  0
  1  6  2  0  0  0  0
  2  3  2  0  0  0  0
  2  1  1  0  0  0  0
  3  4  1  0  0  0  0
  4  5  2  0  0  0  0
  5  6  1  0  0  0  0
  5 10  1  0  0  0  0
  6 13  1  0  0  0  0
  8  2  1  0  0  0  0
  9  4  1  0  0  0  0
 12 11  3  0  0  0  0
 13 14  1  0  0  0  0
 14 16  1  0  0  0  0
 14 15  1  0  0  0  0
 17 14  1  0  0  0  0
M  RAD  1   3   2
M  END
