Coordinates from ORCA-job 4-CH3O-Ph-N2+-scan-d090-169-n800
 OpenBabel09191814063D

 17 16  0  0  0  0  0  0  0  0999 V2000
   -2.6761   -0.1652    0.2271 C   0  0  0  0  0  0  0  0  0  0  0  0
   -1.3402   -0.1686   -0.2455 C   0  0  0  0  0  0  0  0  0  0  0  0
   -0.9421    1.1098   -0.2985 C   0  0  0  0  0  0  0  0  0  0  0  0
   -1.1825    2.3102    0.2542 C   0  0  0  0  0  0  0  0  0  0  0  0
   -2.5114    2.2428    0.7236 C   0  0  0  0  0  0  0  0  0  0  0  0
   -3.2497    1.0264    0.7321 C   0  0  0  0  0  0  0  0  0  0  0  0
   -3.2245   -1.0996    0.1778 H   0  0  0  0  0  0  0  0  0  0  0  0
   -0.8087   -1.0578   -0.5664 H   0  0  0  0  0  0  0  0  0  0  0  0
   -0.5977    3.2219    0.2133 H   0  0  0  0  0  0  0  0  0  0  0  0
   -2.9990    3.1674    1.0224 H   0  0  0  0  0  0  0  0  0  0  0  0
    6.7930    0.6746   -1.8882 N   0  0  0  0  0  0  0  0  0  0  0  0
    7.8684    0.6418   -2.1419 N   0  0  0  0  0  0  0  0  0  0  0  0
   -4.4774    1.1240    1.2255 O   0  0  0  0  0  0  0  0  0  0  0  0
   -5.3062   -0.0503    1.3503 C   0  0  0  0  0  0  0  0  0  0  0  0
   -6.2430    0.3051    1.7753 H   0  0  0  0  0  0  0  0  0  0  0  0
   -4.8424   -0.7772    2.0235 H   0  0  0  0  0  0  0  0  0  0  0  0
   -5.4903   -0.4921    0.3651 H   0  0  0  0  0  0  0  0  0  0  0  0
  1  6  2  0  0  0  0
  2  1  1  0  0  0  0
  3  2  2  0  0  0  0
  3  4  1  0  0  0  0
  4  5  2  0  0  0  0
  5  6  1  0  0  0  0
  5 10  1  0  0  0  0
  6 13  1  0  0  0  0
  7  1  1  0  0  0  0
  8  2  1  0  0  0  0
  9  4  1  0  0  0  0
 12 11  3  0  0  0  0
 13 14  1  0  0  0  0
 14 15  1  0  0  0  0
 14 16  1  0  0  0  0
 17 14  1  0  0  0  0
M  RAD  1   3   2
M  END
