Coordinates from ORCA-job 4-CH3O-Ph-N2+-scan-d090-169-n800
 OpenBabel09191814063D

 17 17  0  0  0  0  0  0  0  0999 V2000
   -1.9326   -0.2240    0.1561 C   0  0  0  0  0  0  0  0  0  0  0  0
   -0.6236   -0.2704   -0.2442 C   0  0  0  0  0  0  0  0  0  0  0  0
    0.1767    0.9282   -0.2731 C   0  0  0  0  0  0  0  0  0  0  0  0
   -0.4287    2.1795    0.1283 C   0  0  0  0  0  0  0  0  0  0  0  0
   -1.7335    2.2091    0.5244 C   0  0  0  0  0  0  0  0  0  0  0  0
   -2.5123    1.0152    0.5477 C   0  0  0  0  0  0  0  0  0  0  0  0
   -2.5149   -1.1371    0.1700 H   0  0  0  0  0  0  0  0  0  0  0  0
   -0.1650   -1.2071   -0.5463 H   0  0  0  0  0  0  0  0  0  0  0  0
    0.1758    3.0808    0.1057 H   0  0  0  0  0  0  0  0  0  0  0  0
   -2.2065    3.1364    0.8291 H   0  0  0  0  0  0  0  0  0  0  0  0
    1.2857    0.8892   -0.6122 N   0  0  0  0  0  0  0  0  0  0  0  0
    2.3696    0.8547   -0.9431 N   0  0  0  0  0  0  0  0  0  0  0  0
   -3.7552    1.1633    0.9461 O   0  0  0  0  0  0  0  0  0  0  0  0
   -4.6656    0.0387    1.0211 C   0  0  0  0  0  0  0  0  0  0  0  0
   -5.6035    0.4609    1.3762 H   0  0  0  0  0  0  0  0  0  0  0  0
   -4.2928   -0.7017    1.7338 H   0  0  0  0  0  0  0  0  0  0  0  0
   -4.8031   -0.4022    0.0302 H   0  0  0  0  0  0  0  0  0  0  0  0
  1  7  1  0  0  0  0
  1  6  2  0  0  0  0
  2  1  1  0  0  0  0
  3  2  2  0  0  0  0
  3  4  1  0  0  0  0
  4  5  2  0  0  0  0
  5  6  1  0  0  0  0
  5 10  1  0  0  0  0
  6 13  1  0  0  0  0
  8  2  1  0  0  0  0
  9  4  1  0  0  0  0
 11  3  1  0  0  0  0
 12 11  1  0  0  0  0
 13 14  1  0  0  0  0
 14 15  1  0  0  0  0
 14 16  1  0  0  0  0
 17 14  1  0  0  0  0
M  RAD  2  11   2  12   3
M  END
