Coordinates from ORCA-job 4-CH3O-Ph-N2+-scan-d090-169-n800
 OpenBabel09191814063D

 17 16  0  0  0  0  0  0  0  0999 V2000
   -2.9904   -0.1522    0.2502 C   0  0  0  0  0  0  0  0  0  0  0  0
   -1.6795   -0.1420   -0.2876 C   0  0  0  0  0  0  0  0  0  0  0  0
   -1.2871    1.1385   -0.3355 C   0  0  0  0  0  0  0  0  0  0  0  0
   -1.5021    2.3267    0.2527 C   0  0  0  0  0  0  0  0  0  0  0  0
   -2.8061    2.2461    0.7856 C   0  0  0  0  0  0  0  0  0  0  0  0
   -3.5406    1.0276    0.8065 C   0  0  0  0  0  0  0  0  0  0  0  0
   -3.5386   -1.0871    0.2098 H   0  0  0  0  0  0  0  0  0  0  0  0
   -1.1624   -1.0232   -0.6515 H   0  0  0  0  0  0  0  0  0  0  0  0
   -0.9222    3.2411    0.2008 H   0  0  0  0  0  0  0  0  0  0  0  0
   -3.2805    3.1633    1.1259 H   0  0  0  0  0  0  0  0  0  0  0  0
    9.0212    0.6407   -2.3342 N   0  0  0  0  0  0  0  0  0  0  0  0
   10.0983    0.6077   -2.5806 N   0  0  0  0  0  0  0  0  0  0  0  0
   -4.7425    1.1118    1.3618 O   0  0  0  0  0  0  0  0  0  0  0  0
   -5.5620   -0.0671    1.5041 C   0  0  0  0  0  0  0  0  0  0  0  0
   -6.4774    0.2772    1.9818 H   0  0  0  0  0  0  0  0  0  0  0  0
   -5.0641   -0.8057    2.1392 H   0  0  0  0  0  0  0  0  0  0  0  0
   -5.7936   -0.4900    0.5207 H   0  0  0  0  0  0  0  0  0  0  0  0
  1  6  2  0  0  0  0
  2  1  1  0  0  0  0
  3  2  2  0  0  0  0
  3  4  1  0  0  0  0
  4  5  2  0  0  0  0
  5  6  1  0  0  0  0
  5 10  1  0  0  0  0
  6 13  1  0  0  0  0
  7  1  1  0  0  0  0
  8  2  1  0  0  0  0
  9  4  1  0  0  0  0
 12 11  3  0  0  0  0
 13 14  1  0  0  0  0
 14 15  1  0  0  0  0
 14 16  1  0  0  0  0
 17 14  1  0  0  0  0
M  RAD  1   3   2
M  END
