Coordinates from ORCA-job 4-CH3O-Ph-N2+-scan-d090-169-n800
 OpenBabel09191814063D

 17 16  0  0  0  0  0  0  0  0999 V2000
   -2.1374   -0.2062    0.2180 C   0  0  0  0  0  0  0  0  0  0  0  0
   -0.7753   -0.2885   -0.2020 C   0  0  0  0  0  0  0  0  0  0  0  0
   -0.3126    0.9543   -0.1288 C   0  0  0  0  0  0  0  0  0  0  0  0
   -0.5882    2.2219    0.1859 C   0  0  0  0  0  0  0  0  0  0  0  0
   -1.9461    2.2096    0.5889 C   0  0  0  0  0  0  0  0  0  0  0  0
   -2.7162    1.0206    0.6093 C   0  0  0  0  0  0  0  0  0  0  0  0
   -2.6910   -1.1390    0.2138 H   0  0  0  0  0  0  0  0  0  0  0  0
   -0.2836   -1.2035   -0.5083 H   0  0  0  0  0  0  0  0  0  0  0  0
    0.0366    3.1059    0.1542 H   0  0  0  0  0  0  0  0  0  0  0  0
   -2.3938    3.1549    0.8847 H   0  0  0  0  0  0  0  0  0  0  0  0
    2.7912    0.8697   -1.0647 N   0  0  0  0  0  0  0  0  0  0  0  0
    3.8484    0.8446   -1.3851 N   0  0  0  0  0  0  0  0  0  0  0  0
   -3.9774    1.1699    1.0128 O   0  0  0  0  0  0  0  0  0  0  0  0
   -4.8472    0.0248    1.0753 C   0  0  0  0  0  0  0  0  0  0  0  0
   -5.8030    0.4081    1.4287 H   0  0  0  0  0  0  0  0  0  0  0  0
   -4.4613   -0.7147    1.7850 H   0  0  0  0  0  0  0  0  0  0  0  0
   -4.9726   -0.4191    0.0819 H   0  0  0  0  0  0  0  0  0  0  0  0
  1  6  2  0  0  0  0
  2  3  2  0  0  0  0
  2  1  1  0  0  0  0
  3  4  1  0  0  0  0
  4  5  2  0  0  0  0
  5  6  1  0  0  0  0
  5 10  1  0  0  0  0
  6 13  1  0  0  0  0
  7  1  1  0  0  0  0
  8  2  1  0  0  0  0
  9  4  1  0  0  0  0
 12 11  3  0  0  0  0
 13 14  1  0  0  0  0
 14 15  1  0  0  0  0
 14 16  1  0  0  0  0
 17 14  1  0  0  0  0
M  RAD  1   3   2
M  END
