Coordinates from ORCA-job 4-CH3O-Ph-N2+-scan-d090-169-n800
 OpenBabel09191814063D

 17 16  0  0  0  0  0  0  0  0999 V2000
   -2.6522   -0.1657    0.2240 C   0  0  0  0  0  0  0  0  0  0  0  0
   -1.3151   -0.1697   -0.2453 C   0  0  0  0  0  0  0  0  0  0  0  0
   -0.9170    1.1087   -0.2984 C   0  0  0  0  0  0  0  0  0  0  0  0
   -1.1587    2.3096    0.2523 C   0  0  0  0  0  0  0  0  0  0  0  0
   -2.4888    2.2427    0.7185 C   0  0  0  0  0  0  0  0  0  0  0  0
   -3.2271    1.0263    0.7264 C   0  0  0  0  0  0  0  0  0  0  0  0
   -3.2005   -1.1002    0.1743 H   0  0  0  0  0  0  0  0  0  0  0  0
   -0.7828   -1.0592   -0.5640 H   0  0  0  0  0  0  0  0  0  0  0  0
   -0.5738    3.2213    0.2120 H   0  0  0  0  0  0  0  0  0  0  0  0
   -2.9772    3.1677    1.0152 H   0  0  0  0  0  0  0  0  0  0  0  0
    6.6212    0.6763   -1.8509 N   0  0  0  0  0  0  0  0  0  0  0  0
    7.6965    0.6432   -2.1051 N   0  0  0  0  0  0  0  0  0  0  0  0
   -4.4561    1.1244    1.2166 O   0  0  0  0  0  0  0  0  0  0  0  0
   -5.2851   -0.0497    1.3404 C   0  0  0  0  0  0  0  0  0  0  0  0
   -6.2231    0.3060    1.7628 H   0  0  0  0  0  0  0  0  0  0  0  0
   -4.8230   -0.7760    2.0156 H   0  0  0  0  0  0  0  0  0  0  0  0
   -5.4668   -0.4926    0.3553 H   0  0  0  0  0  0  0  0  0  0  0  0
  1  6  2  0  0  0  0
  2  1  1  0  0  0  0
  3  2  2  0  0  0  0
  3  4  1  0  0  0  0
  4  5  2  0  0  0  0
  5  6  1  0  0  0  0
  5 10  1  0  0  0  0
  6 13  1  0  0  0  0
  7  1  1  0  0  0  0
  8  2  1  0  0  0  0
  9  4  1  0  0  0  0
 12 11  3  0  0  0  0
 13 14  1  0  0  0  0
 14 15  1  0  0  0  0
 14 16  1  0  0  0  0
 17 14  1  0  0  0  0
M  RAD  1   3   2
M  END
