Coordinates from ORCA-job 4-CH3O-Ph-N2+-scan-d090-169-n800
 OpenBabel09191814063D

 17 16  0  0  0  0  0  0  0  0999 V2000
   -3.6403    0.0463   -0.0522 C   0  0  0  0  0  0  0  0  0  0  0  0
   -2.7952    0.3415   -1.1498 C   0  0  0  0  0  0  0  0  0  0  0  0
   -2.5834    1.6653   -1.1378 C   0  0  0  0  0  0  0  0  0  0  0  0
   -2.5520    2.7147   -0.2996 C   0  0  0  0  0  0  0  0  0  0  0  0
   -3.3887    2.3536    0.7774 C   0  0  0  0  0  0  0  0  0  0  0  0
   -3.9147    1.0388    0.9195 C   0  0  0  0  0  0  0  0  0  0  0  0
   -4.0581   -0.9530    0.0028 H   0  0  0  0  0  0  0  0  0  0  0  0
   -2.4697   -0.3882   -1.8833 H   0  0  0  0  0  0  0  0  0  0  0  0
   -2.1522    3.7109   -0.4510 H   0  0  0  0  0  0  0  0  0  0  0  0
   -3.6911    3.1291    1.4769 H   0  0  0  0  0  0  0  0  0  0  0  0
   12.4152    0.1527   -2.2793 N   0  0  0  0  0  0  0  0  0  0  0  0
   13.5094    0.0763   -2.4165 N   0  0  0  0  0  0  0  0  0  0  0  0
   -4.6643    0.8535    1.9981 O   0  0  0  0  0  0  0  0  0  0  0  0
   -5.2042   -0.4516    2.2935 C   0  0  0  0  0  0  0  0  0  0  0  0
   -5.7693   -0.3250    3.2150 H   0  0  0  0  0  0  0  0  0  0  0  0
   -4.3974   -1.1745    2.4461 H   0  0  0  0  0  0  0  0  0  0  0  0
   -5.8735   -0.7767    1.4899 H   0  0  0  0  0  0  0  0  0  0  0  0
  1  7  1  0  0  0  0
  1  6  2  0  0  0  0
  2  3  2  0  0  0  0
  2  1  1  0  0  0  0
  3  4  1  0  0  0  0
  4  5  2  0  0  0  0
  5  6  1  0  0  0  0
  5 10  1  0  0  0  0
  6 13  1  0  0  0  0
  8  2  1  0  0  0  0
  9  4  1  0  0  0  0
 12 11  3  0  0  0  0
 13 14  1  0  0  0  0
 14 16  1  0  0  0  0
 14 15  1  0  0  0  0
 17 14  1  0  0  0  0
M  RAD  1   3   2
M  END
