Coordinates from ORCA-job 4-CH3O-Ph-N2+-scan-d090-169-n800
 OpenBabel09191814063D

 17 16  0  0  0  0  0  0  0  0999 V2000
   -3.0845   -0.1424    0.2429 C   0  0  0  0  0  0  0  0  0  0  0  0
   -1.7898   -0.1200   -0.3322 C   0  0  0  0  0  0  0  0  0  0  0  0
   -1.4044    1.1628   -0.3768 C   0  0  0  0  0  0  0  0  0  0  0  0
   -1.6075    2.3432    0.2312 C   0  0  0  0  0  0  0  0  0  0  0  0
   -2.8951    2.2505    0.8005 C   0  0  0  0  0  0  0  0  0  0  0  0
   -3.6236    1.0283    0.8284 C   0  0  0  0  0  0  0  0  0  0  0  0
   -3.6296   -1.0794    0.2076 H   0  0  0  0  0  0  0  0  0  0  0  0
   -1.2796   -0.9945   -0.7209 H   0  0  0  0  0  0  0  0  0  0  0  0
   -1.0333    3.2608    0.1732 H   0  0  0  0  0  0  0  0  0  0  0  0
   -3.3635    3.1615    1.1648 H   0  0  0  0  0  0  0  0  0  0  0  0
    9.6654    0.6158   -2.4358 N   0  0  0  0  0  0  0  0  0  0  0  0
   10.7438    0.5815   -2.6764 N   0  0  0  0  0  0  0  0  0  0  0  0
   -4.8093    1.1007    1.4191 O   0  0  0  0  0  0  0  0  0  0  0  0
   -5.6192   -0.0835    1.5713 C   0  0  0  0  0  0  0  0  0  0  0  0
   -6.5220    0.2512    2.0790 H   0  0  0  0  0  0  0  0  0  0  0  0
   -5.1001   -0.8270    2.1833 H   0  0  0  0  0  0  0  0  0  0  0  0
   -5.8773   -0.4962    0.5902 H   0  0  0  0  0  0  0  0  0  0  0  0
  1  6  2  0  0  0  0
  2  1  1  0  0  0  0
  3  2  2  0  0  0  0
  3  4  1  0  0  0  0
  4  5  2  0  0  0  0
  5  6  1  0  0  0  0
  5 10  1  0  0  0  0
  6 13  1  0  0  0  0
  7  1  1  0  0  0  0
  8  2  1  0  0  0  0
  9  4  1  0  0  0  0
 12 11  3  0  0  0  0
 13 14  1  0  0  0  0
 14 15  1  0  0  0  0
 14 16  1  0  0  0  0
 17 14  1  0  0  0  0
M  RAD  1   3   2
M  END
