Coordinates from ORCA-job 4-CH3O-Ph-N2+-scan-d090-169-n800
 OpenBabel09191814063D

 17 16  0  0  0  0  0  0  0  0999 V2000
   -2.1397   -0.2061    0.2182 C   0  0  0  0  0  0  0  0  0  0  0  0
   -0.7774   -0.2884   -0.2012 C   0  0  0  0  0  0  0  0  0  0  0  0
   -0.3154    0.9547   -0.1292 C   0  0  0  0  0  0  0  0  0  0  0  0
   -0.5904    2.2220    0.1872 C   0  0  0  0  0  0  0  0  0  0  0  0
   -1.9483    2.2096    0.5898 C   0  0  0  0  0  0  0  0  0  0  0  0
   -2.7185    1.0205    0.6100 C   0  0  0  0  0  0  0  0  0  0  0  0
   -2.6935   -1.1388    0.2129 H   0  0  0  0  0  0  0  0  0  0  0  0
   -0.2855   -1.2035   -0.5071 H   0  0  0  0  0  0  0  0  0  0  0  0
    0.0344    3.1060    0.1554 H   0  0  0  0  0  0  0  0  0  0  0  0
   -2.3964    3.1551    0.8847 H   0  0  0  0  0  0  0  0  0  0  0  0
    2.8080    0.8697   -1.0695 N   0  0  0  0  0  0  0  0  0  0  0  0
    3.8653    0.8446   -1.3898 N   0  0  0  0  0  0  0  0  0  0  0  0
   -3.9798    1.1699    1.0132 O   0  0  0  0  0  0  0  0  0  0  0  0
   -4.8493    0.0246    1.0763 C   0  0  0  0  0  0  0  0  0  0  0  0
   -5.8051    0.4078    1.4296 H   0  0  0  0  0  0  0  0  0  0  0  0
   -4.4632   -0.7146    1.7862 H   0  0  0  0  0  0  0  0  0  0  0  0
   -4.9747   -0.4197    0.0831 H   0  0  0  0  0  0  0  0  0  0  0  0
  1  6  2  0  0  0  0
  2  3  2  0  0  0  0
  2  1  1  0  0  0  0
  3  4  1  0  0  0  0
  4  5  2  0  0  0  0
  5  6  1  0  0  0  0
  5 10  1  0  0  0  0
  6 13  1  0  0  0  0
  7  1  1  0  0  0  0
  8  2  1  0  0  0  0
  9  4  1  0  0  0  0
 12 11  3  0  0  0  0
 13 14  1  0  0  0  0
 14 15  1  0  0  0  0
 14 16  1  0  0  0  0
 17 14  1  0  0  0  0
M  RAD  1   3   2
M  END
