Coordinates from ORCA-job 4-CH3O-Ph-N2+-scan-d090-169-n800
 OpenBabel09191814063D

 17 17  0  0  0  0  0  0  0  0999 V2000
   -1.9479   -0.2218    0.1611 C   0  0  0  0  0  0  0  0  0  0  0  0
   -0.6325   -0.2698   -0.2414 C   0  0  0  0  0  0  0  0  0  0  0  0
    0.1217    0.9311   -0.2562 C   0  0  0  0  0  0  0  0  0  0  0  0
   -0.4378    2.1814    0.1313 C   0  0  0  0  0  0  0  0  0  0  0  0
   -1.7487    2.2096    0.5290 C   0  0  0  0  0  0  0  0  0  0  0  0
   -2.5246    1.0163    0.5516 C   0  0  0  0  0  0  0  0  0  0  0  0
   -2.5309   -1.1340    0.1753 H   0  0  0  0  0  0  0  0  0  0  0  0
   -0.1743   -1.2059   -0.5433 H   0  0  0  0  0  0  0  0  0  0  0  0
    0.1656    3.0825    0.1090 H   0  0  0  0  0  0  0  0  0  0  0  0
   -2.2227    3.1360    0.8339 H   0  0  0  0  0  0  0  0  0  0  0  0
    1.4029    0.8852   -0.6480 N   0  0  0  0  0  0  0  0  0  0  0  0
    2.4755    0.8511   -0.9754 N   0  0  0  0  0  0  0  0  0  0  0  0
   -3.7723    1.1658    0.9517 O   0  0  0  0  0  0  0  0  0  0  0  0
   -4.6749    0.0388    1.0239 C   0  0  0  0  0  0  0  0  0  0  0  0
   -5.6163    0.4536    1.3788 H   0  0  0  0  0  0  0  0  0  0  0  0
   -4.3012   -0.7029    1.7354 H   0  0  0  0  0  0  0  0  0  0  0  0
   -4.8111   -0.4036    0.0330 H   0  0  0  0  0  0  0  0  0  0  0  0
  1  7  1  0  0  0  0
  1  6  2  0  0  0  0
  2  1  1  0  0  0  0
  3  2  2  0  0  0  0
  3  4  1  0  0  0  0
  4  5  2  0  0  0  0
  5  6  1  0  0  0  0
  5 10  1  0  0  0  0
  6 13  1  0  0  0  0
  8  2  1  0  0  0  0
  9  4  1  0  0  0  0
 11  3  1  0  0  0  0
 12 11  1  0  0  0  0
 13 14  1  0  0  0  0
 14 15  1  0  0  0  0
 14 16  1  0  0  0  0
 17 14  1  0  0  0  0
M  RAD  2  11   2  12   3
M  END
