Coordinates from ORCA-job 4-CH3O-Ph-N2+-scan-d090-169-n800
 OpenBabel09191814063D

 17 16  0  0  0  0  0  0  0  0999 V2000
   -3.2124   -0.1190    0.2110 C   0  0  0  0  0  0  0  0  0  0  0  0
   -1.9567   -0.0652   -0.4433 C   0  0  0  0  0  0  0  0  0  0  0  0
   -1.5904    1.2234   -0.4802 C   0  0  0  0  0  0  0  0  0  0  0  0
   -1.7692    2.3861    0.1681 C   0  0  0  0  0  0  0  0  0  0  0  0
   -3.0174    2.2623    0.8143 C   0  0  0  0  0  0  0  0  0  0  0  0
   -3.7277    1.0300    0.8577 C   0  0  0  0  0  0  0  0  0  0  0  0
   -3.7472   -1.0622    0.1867 H   0  0  0  0  0  0  0  0  0  0  0  0
   -1.4615   -0.9232   -0.8846 H   0  0  0  0  0  0  0  0  0  0  0  0
   -1.2112    3.3126    0.0968 H   0  0  0  0  0  0  0  0  0  0  0  0
   -3.4730    3.1580    1.2294 H   0  0  0  0  0  0  0  0  0  0  0  0
   10.4944    0.5583   -2.5227 N   0  0  0  0  0  0  0  0  0  0  0  0
   11.5757    0.5189   -2.7494 N   0  0  0  0  0  0  0  0  0  0  0  0
   -4.8748    1.0721    1.5229 O   0  0  0  0  0  0  0  0  0  0  0  0
   -5.6591   -0.1263    1.6962 C   0  0  0  0  0  0  0  0  0  0  0  0
   -6.5323    0.1838    2.2673 H   0  0  0  0  0  0  0  0  0  0  0  0
   -5.0937   -0.8770    2.2562 H   0  0  0  0  0  0  0  0  0  0  0  0
   -5.9731   -0.5191    0.7232 H   0  0  0  0  0  0  0  0  0  0  0  0
  1  6  2  0  0  0  0
  2  1  1  0  0  0  0
  3  2  2  0  0  0  0
  3  4  1  0  0  0  0
  4  5  2  0  0  0  0
  5  6  1  0  0  0  0
  5 10  1  0  0  0  0
  6 13  1  0  0  0  0
  7  1  1  0  0  0  0
  8  2  1  0  0  0  0
  9  4  1  0  0  0  0
 12 11  3  0  0  0  0
 13 14  1  0  0  0  0
 14 16  1  0  0  0  0
 14 15  1  0  0  0  0
 17 14  1  0  0  0  0
M  RAD  1   3   2
M  END
