Coordinates from ORCA-job 4-CH3O-Ph-N2+-scan-d090-169-n800
 OpenBabel09191814063D

 17 16  0  0  0  0  0  0  0  0999 V2000
   -2.3669   -0.1804    0.1824 C   0  0  0  0  0  0  0  0  0  0  0  0
   -1.0180   -0.2024   -0.2522 C   0  0  0  0  0  0  0  0  0  0  0  0
   -0.6073    1.0714   -0.3072 C   0  0  0  0  0  0  0  0  0  0  0  0
   -0.8535    2.2819    0.2194 C   0  0  0  0  0  0  0  0  0  0  0  0
   -2.1958    2.2321    0.6516 C   0  0  0  0  0  0  0  0  0  0  0  0
   -2.9445    1.0224    0.6549 C   0  0  0  0  0  0  0  0  0  0  0  0
   -2.9219   -1.1107    0.1292 H   0  0  0  0  0  0  0  0  0  0  0  0
   -0.4861   -1.1001   -0.5477 H   0  0  0  0  0  0  0  0  0  0  0  0
   -0.2588    3.1875    0.1840 H   0  0  0  0  0  0  0  0  0  0  0  0
   -2.6829    3.1646    0.9259 H   0  0  0  0  0  0  0  0  0  0  0  0
    4.4967    0.7365   -1.3757 N   0  0  0  0  0  0  0  0  0  0  0  0
    5.5699    0.6981   -1.6375 N   0  0  0  0  0  0  0  0  0  0  0  0
   -4.1854    1.1366    1.1111 O   0  0  0  0  0  0  0  0  0  0  0  0
   -5.0270   -0.0293    1.2267 C   0  0  0  0  0  0  0  0  0  0  0  0
   -5.9726    0.3387    1.6205 H   0  0  0  0  0  0  0  0  0  0  0  0
   -4.5886   -0.7514    1.9219 H   0  0  0  0  0  0  0  0  0  0  0  0
   -5.1868   -0.4822    0.2424 H   0  0  0  0  0  0  0  0  0  0  0  0
  1  6  2  0  0  0  0
  2  1  1  0  0  0  0
  3  2  2  0  0  0  0
  3  4  1  0  0  0  0
  4  5  2  0  0  0  0
  5  6  1  0  0  0  0
  5 10  1  0  0  0  0
  6 13  1  0  0  0  0
  7  1  1  0  0  0  0
  8  2  1  0  0  0  0
  9  4  1  0  0  0  0
 12 11  3  0  0  0  0
 13 14  1  0  0  0  0
 14 15  1  0  0  0  0
 14 16  1  0  0  0  0
 17 14  1  0  0  0  0
M  RAD  1   3   2
M  END
