Coordinates from ORCA-job 4-CH3O-Ph-N2+-scan-d090-169-n800
 OpenBabel09191814063D

 17 16  0  0  0  0  0  0  0  0999 V2000
   -3.3255   -0.0874    0.1605 C   0  0  0  0  0  0  0  0  0  0  0  0
   -2.1286    0.0110   -0.5913 C   0  0  0  0  0  0  0  0  0  0  0  0
   -1.7899    1.3074   -0.6191 C   0  0  0  0  0  0  0  0  0  0  0  0
   -1.9355    2.4468    0.0774 C   0  0  0  0  0  0  0  0  0  0  0  0
   -3.1243    2.2790    0.8184 C   0  0  0  0  0  0  0  0  0  0  0  0
   -3.8067    1.0318    0.8816 C   0  0  0  0  0  0  0  0  0  0  0  0
   -3.8435   -1.0402    0.1512 H   0  0  0  0  0  0  0  0  0  0  0  0
   -1.6553   -0.8236   -1.0970 H   0  0  0  0  0  0  0  0  0  0  0  0
   -1.4018    3.3861   -0.0107 H   0  0  0  0  0  0  0  0  0  0  0  0
   -3.5607    3.1528    1.2961 H   0  0  0  0  0  0  0  0  0  0  0  0
   11.1574    0.4825   -2.5418 N   0  0  0  0  0  0  0  0  0  0  0  0
   12.2420    0.4344   -2.7502 N   0  0  0  0  0  0  0  0  0  0  0  0
   -4.8961    1.0314    1.6386 O   0  0  0  0  0  0  0  0  0  0  0  0
   -5.6424   -0.1871    1.8384 C   0  0  0  0  0  0  0  0  0  0  0  0
   -6.4714    0.0887    2.4875 H   0  0  0  0  0  0  0  0  0  0  0  0
   -5.0199   -0.9421    2.3276 H   0  0  0  0  0  0  0  0  0  0  0  0
   -6.0276   -0.5579    0.8825 H   0  0  0  0  0  0  0  0  0  0  0  0
  1  6  2  0  0  0  0
  2  1  1  0  0  0  0
  3  2  2  0  0  0  0
  3  4  1  0  0  0  0
  4  5  2  0  0  0  0
  5  6  1  0  0  0  0
  5 10  1  0  0  0  0
  6 13  1  0  0  0  0
  7  1  1  0  0  0  0
  8  2  1  0  0  0  0
  9  4  1  0  0  0  0
 12 11  3  0  0  0  0
 13 14  1  0  0  0  0
 14 16  1  0  0  0  0
 14 15  1  0  0  0  0
 17 14  1  0  0  0  0
M  RAD  1   3   2
M  END
