Coordinates from ORCA-job 4-CH3O-Ph-N2+-scan-d090-169-n800
 OpenBabel09191814063D

 17 16  0  0  0  0  0  0  0  0999 V2000
   -3.1863   -0.1250    0.2199 C   0  0  0  0  0  0  0  0  0  0  0  0
   -1.9205   -0.0792   -0.4151 C   0  0  0  0  0  0  0  0  0  0  0  0
   -1.5492    1.2080   -0.4540 C   0  0  0  0  0  0  0  0  0  0  0  0
   -1.7340    2.3750    0.1847 C   0  0  0  0  0  0  0  0  0  0  0  0
   -2.9924    2.2592    0.8123 C   0  0  0  0  0  0  0  0  0  0  0  0
   -3.7076    1.0296    0.8518 C   0  0  0  0  0  0  0  0  0  0  0  0
   -3.7239   -1.0665    0.1930 H   0  0  0  0  0  0  0  0  0  0  0  0
   -1.4213   -0.9414   -0.8436 H   0  0  0  0  0  0  0  0  0  0  0  0
   -1.1717    3.2992    0.1167 H   0  0  0  0  0  0  0  0  0  0  0  0
   -3.4513    3.1588    1.2150 H   0  0  0  0  0  0  0  0  0  0  0  0
   10.3313    0.5726   -2.5108 N   0  0  0  0  0  0  0  0  0  0  0  0
   11.4118    0.5347   -2.7410 N   0  0  0  0  0  0  0  0  0  0  0  0
   -4.8646    1.0795    1.4990 O   0  0  0  0  0  0  0  0  0  0  0  0
   -5.6557   -0.1152    1.6671 C   0  0  0  0  0  0  0  0  0  0  0  0
   -6.5365    0.2012    2.2228 H   0  0  0  0  0  0  0  0  0  0  0  0
   -5.1016   -0.8645    2.2401 H   0  0  0  0  0  0  0  0  0  0  0  0
   -5.9560   -0.5127    0.6917 H   0  0  0  0  0  0  0  0  0  0  0  0
  1  6  2  0  0  0  0
  2  1  1  0  0  0  0
  3  2  2  0  0  0  0
  3  4  1  0  0  0  0
  4  5  2  0  0  0  0
  5  6  1  0  0  0  0
  5 10  1  0  0  0  0
  6 13  1  0  0  0  0
  7  1  1  0  0  0  0
  8  2  1  0  0  0  0
  9  4  1  0  0  0  0
 12 11  3  0  0  0  0
 13 14  1  0  0  0  0
 14 15  1  0  0  0  0
 14 16  1  0  0  0  0
 17 14  1  0  0  0  0
M  RAD  1   3   2
M  END
