Coordinates from ORCA-job 4-CH3O-Ph-N2+-scan-d090-169-n800
 OpenBabel09191814063D

 17 16  0  0  0  0  0  0  0  0999 V2000
   -3.1993   -0.1221    0.2156 C   0  0  0  0  0  0  0  0  0  0  0  0
   -1.9384   -0.0724   -0.4288 C   0  0  0  0  0  0  0  0  0  0  0  0
   -1.5695    1.2154   -0.4667 C   0  0  0  0  0  0  0  0  0  0  0  0
   -1.7514    2.3804    0.1767 C   0  0  0  0  0  0  0  0  0  0  0  0
   -3.0048    2.2607    0.8134 C   0  0  0  0  0  0  0  0  0  0  0  0
   -3.7177    1.0298    0.8548 C   0  0  0  0  0  0  0  0  0  0  0  0
   -3.7356   -1.0644    0.1900 H   0  0  0  0  0  0  0  0  0  0  0  0
   -1.4411   -0.9326   -0.8636 H   0  0  0  0  0  0  0  0  0  0  0  0
   -1.1911    3.3057    0.1070 H   0  0  0  0  0  0  0  0  0  0  0  0
   -3.4622    3.1584    1.2221 H   0  0  0  0  0  0  0  0  0  0  0  0
   10.4131    0.5657   -2.5171 N   0  0  0  0  0  0  0  0  0  0  0  0
   11.4940    0.5270   -2.7456 N   0  0  0  0  0  0  0  0  0  0  0  0
   -4.8699    1.0759    1.5108 O   0  0  0  0  0  0  0  0  0  0  0  0
   -5.6578   -0.1206    1.6814 C   0  0  0  0  0  0  0  0  0  0  0  0
   -6.5348    0.1928    2.2446 H   0  0  0  0  0  0  0  0  0  0  0  0
   -5.0981   -0.8706    2.2481 H   0  0  0  0  0  0  0  0  0  0  0  0
   -5.9648   -0.5158    0.7071 H   0  0  0  0  0  0  0  0  0  0  0  0
  1  6  2  0  0  0  0
  2  1  1  0  0  0  0
  3  2  2  0  0  0  0
  3  4  1  0  0  0  0
  4  5  2  0  0  0  0
  5  6  1  0  0  0  0
  5 10  1  0  0  0  0
  6 13  1  0  0  0  0
  7  1  1  0  0  0  0
  8  2  1  0  0  0  0
  9  4  1  0  0  0  0
 12 11  3  0  0  0  0
 13 14  1  0  0  0  0
 14 15  1  0  0  0  0
 14 16  1  0  0  0  0
 17 14  1  0  0  0  0
M  RAD  1   3   2
M  END
