Coordinates from ORCA-job 4-CH3O-Ph-N2+-scan-d090-169-n800
 OpenBabel09191814063D

 17 17  0  0  0  0  0  0  0  0999 V2000
   -1.9208   -0.2259    0.1523 C   0  0  0  0  0  0  0  0  0  0  0  0
   -0.6177   -0.2738   -0.2465 C   0  0  0  0  0  0  0  0  0  0  0  0
    0.2300    0.9254   -0.2894 C   0  0  0  0  0  0  0  0  0  0  0  0
   -0.4225    2.1811    0.1268 C   0  0  0  0  0  0  0  0  0  0  0  0
   -1.7220    2.2086    0.5209 C   0  0  0  0  0  0  0  0  0  0  0  0
   -2.5035    1.0142    0.5449 C   0  0  0  0  0  0  0  0  0  0  0  0
   -2.5024   -1.1400    0.1657 H   0  0  0  0  0  0  0  0  0  0  0  0
   -0.1536   -1.2082   -0.5498 H   0  0  0  0  0  0  0  0  0  0  0  0
    0.1875    3.0793    0.1020 H   0  0  0  0  0  0  0  0  0  0  0  0
   -2.1942    3.1369    0.8255 H   0  0  0  0  0  0  0  0  0  0  0  0
    1.1859    0.8929   -0.5816 N   0  0  0  0  0  0  0  0  0  0  0  0
    2.2854    0.8583   -0.9177 N   0  0  0  0  0  0  0  0  0  0  0  0
   -3.7422    1.1611    0.9418 O   0  0  0  0  0  0  0  0  0  0  0  0
   -4.6595    0.0385    1.0192 C   0  0  0  0  0  0  0  0  0  0  0  0
   -5.5943    0.4670    1.3744 H   0  0  0  0  0  0  0  0  0  0  0  0
   -4.2875   -0.7007    1.7330 H   0  0  0  0  0  0  0  0  0  0  0  0
   -4.7980   -0.4011    0.0282 H   0  0  0  0  0  0  0  0  0  0  0  0
  1  7  1  0  0  0  0
  1  6  2  0  0  0  0
  2  1  1  0  0  0  0
  3  2  2  0  0  0  0
  3  4  1  0  0  0  0
  4  5  2  0  0  0  0
  5  6  1  0  0  0  0
  5 10  1  0  0  0  0
  6 13  1  0  0  0  0
  8  2  1  0  0  0  0
  9  4  1  0  0  0  0
 11  3  1  0  0  0  0
 12 11  1  0  0  0  0
 13 14  1  0  0  0  0
 14 15  1  0  0  0  0
 14 16  1  0  0  0  0
 17 14  1  0  0  0  0
M  RAD  2  11   2  12   3
M  END
