Coordinates from ORCA-job 4-CH3O-Ph-N2+-scan-d090-169-n800
 OpenBabel09191814063D

 17 16  0  0  0  0  0  0  0  0999 V2000
   -3.3843   -0.0677    0.1288 C   0  0  0  0  0  0  0  0  0  0  0  0
   -2.2280    0.0592   -0.6800 C   0  0  0  0  0  0  0  0  0  0  0  0
   -1.9071    1.3603   -0.7023 C   0  0  0  0  0  0  0  0  0  0  0  0
   -2.0309    2.4854    0.0211 C   0  0  0  0  0  0  0  0  0  0  0  0
   -3.1788    2.2896    0.8176 C   0  0  0  0  0  0  0  0  0  0  0  0
   -3.8421    1.0328    0.8928 C   0  0  0  0  0  0  0  0  0  0  0  0
   -3.8905   -1.0268    0.1288 H   0  0  0  0  0  0  0  0  0  0  0  0
   -1.7704   -0.7604   -1.2232 H   0  0  0  0  0  0  0  0  0  0  0  0
   -1.5136    3.4330   -0.0770 H   0  0  0  0  0  0  0  0  0  0  0  0
   -3.6013    3.1494    1.3318 H   0  0  0  0  0  0  0  0  0  0  0  0
   11.4724    0.4352   -2.5331 N   0  0  0  0  0  0  0  0  0  0  0  0
   12.5588    0.3816   -2.7306 N   0  0  0  0  0  0  0  0  0  0  0  0
   -4.8919    1.0055    1.7034 O   0  0  0  0  0  0  0  0  0  0  0  0
   -5.6125   -0.2258    1.9187 C   0  0  0  0  0  0  0  0  0  0  0  0
   -6.4111    0.0284    2.6132 H   0  0  0  0  0  0  0  0  0  0  0  0
   -4.9573   -0.9808    2.3629 H   0  0  0  0  0  0  0  0  0  0  0  0
   -6.0408   -0.5852    0.9769 H   0  0  0  0  0  0  0  0  0  0  0  0
  1  6  2  0  0  0  0
  2  1  1  0  0  0  0
  3  2  2  0  0  0  0
  3  4  1  0  0  0  0
  4  5  2  0  0  0  0
  5  6  1  0  0  0  0
  5 10  1  0  0  0  0
  6 13  1  0  0  0  0
  7  1  1  0  0  0  0
  8  2  1  0  0  0  0
  9  4  1  0  0  0  0
 12 11  3  0  0  0  0
 13 14  1  0  0  0  0
 14 16  1  0  0  0  0
 14 15  1  0  0  0  0
 17 14  1  0  0  0  0
M  RAD  1   3   2
M  END
