Coordinates from ORCA-job 4-CH3O-Ph-N2+-scan-d090-169-n800
 OpenBabel09191814063D

 17 16  0  0  0  0  0  0  0  0999 V2000
   -2.9781   -0.1532    0.2503 C   0  0  0  0  0  0  0  0  0  0  0  0
   -1.6655   -0.1440   -0.2830 C   0  0  0  0  0  0  0  0  0  0  0  0
   -1.2724    1.1362   -0.3318 C   0  0  0  0  0  0  0  0  0  0  0  0
   -1.4889    2.3248    0.2548 C   0  0  0  0  0  0  0  0  0  0  0  0
   -2.7944    2.2458    0.7836 C   0  0  0  0  0  0  0  0  0  0  0  0
   -3.5296    1.0274    0.8037 C   0  0  0  0  0  0  0  0  0  0  0  0
   -3.5266   -1.0880    0.2090 H   0  0  0  0  0  0  0  0  0  0  0  0
   -1.1480   -1.0258   -0.6446 H   0  0  0  0  0  0  0  0  0  0  0  0
   -0.9087    3.2391    0.2032 H   0  0  0  0  0  0  0  0  0  0  0  0
   -3.2695    3.1637    1.1209 H   0  0  0  0  0  0  0  0  0  0  0  0
    8.9361    0.6432   -2.3195 N   0  0  0  0  0  0  0  0  0  0  0  0
   10.0131    0.6103   -2.5664 N   0  0  0  0  0  0  0  0  0  0  0  0
   -4.7331    1.1128    1.3552 O   0  0  0  0  0  0  0  0  0  0  0  0
   -5.5535   -0.0656    1.4965 C   0  0  0  0  0  0  0  0  0  0  0  0
   -6.4702    0.2798    1.9708 H   0  0  0  0  0  0  0  0  0  0  0  0
   -5.0578   -0.8035    2.1341 H   0  0  0  0  0  0  0  0  0  0  0  0
   -5.7822   -0.4897    0.5129 H   0  0  0  0  0  0  0  0  0  0  0  0
  1  6  2  0  0  0  0
  2  1  1  0  0  0  0
  3  2  2  0  0  0  0
  3  4  1  0  0  0  0
  4  5  2  0  0  0  0
  5  6  1  0  0  0  0
  5 10  1  0  0  0  0
  6 13  1  0  0  0  0
  7  1  1  0  0  0  0
  8  2  1  0  0  0  0
  9  4  1  0  0  0  0
 12 11  3  0  0  0  0
 13 14  1  0  0  0  0
 14 15  1  0  0  0  0
 14 16  1  0  0  0  0
 17 14  1  0  0  0  0
M  RAD  1   3   2
M  END
