Coordinates from ORCA-job 4-CH3O-Ph-N2+-scan-d090-169-n800
 OpenBabel09191814063D

 17 16  0  0  0  0  0  0  0  0999 V2000
   -2.1218   -0.2067    0.2149 C   0  0  0  0  0  0  0  0  0  0  0  0
   -0.7606   -0.2891   -0.2067 C   0  0  0  0  0  0  0  0  0  0  0  0
   -0.2939    0.9525   -0.1303 C   0  0  0  0  0  0  0  0  0  0  0  0
   -0.5728    2.2211    0.1792 C   0  0  0  0  0  0  0  0  0  0  0  0
   -1.9299    2.2095    0.5834 C   0  0  0  0  0  0  0  0  0  0  0  0
   -2.7003    1.0207    0.6048 C   0  0  0  0  0  0  0  0  0  0  0  0
   -2.6751   -1.1396    0.2149 H   0  0  0  0  0  0  0  0  0  0  0  0
   -0.2700   -1.2042   -0.5142 H   0  0  0  0  0  0  0  0  0  0  0  0
    0.0522    3.1048    0.1474 H   0  0  0  0  0  0  0  0  0  0  0  0
   -2.3768    3.1542    0.8822 H   0  0  0  0  0  0  0  0  0  0  0  0
    2.6742    0.8703   -1.0307 N   0  0  0  0  0  0  0  0  0  0  0  0
    3.7313    0.8442   -1.3512 N   0  0  0  0  0  0  0  0  0  0  0  0
   -3.9614    1.1706    1.0089 O   0  0  0  0  0  0  0  0  0  0  0  0
   -4.8322    0.0263    1.0696 C   0  0  0  0  0  0  0  0  0  0  0  0
   -5.7877    0.4098    1.4233 H   0  0  0  0  0  0  0  0  0  0  0  0
   -4.4472   -0.7146    1.7784 H   0  0  0  0  0  0  0  0  0  0  0  0
   -4.9577   -0.4163    0.0757 H   0  0  0  0  0  0  0  0  0  0  0  0
  1  7  1  0  0  0  0
  1  6  2  0  0  0  0
  2  3  2  0  0  0  0
  2  1  1  0  0  0  0
  3  4  1  0  0  0  0
  4  5  2  0  0  0  0
  5  6  1  0  0  0  0
  5 10  1  0  0  0  0
  6 13  1  0  0  0  0
  8  2  1  0  0  0  0
  9  4  1  0  0  0  0
 12 11  3  0  0  0  0
 13 14  1  0  0  0  0
 14 15  1  0  0  0  0
 14 16  1  0  0  0  0
 17 14  1  0  0  0  0
M  RAD  1   3   2
M  END
