Coordinates from ORCA-job 4-CH3O-Ph-N2+-scan-d090-169-n800
 OpenBabel09191814063D

 17 16  0  0  0  0  0  0  0  0999 V2000
   -3.8352    0.1354   -0.1671 C   0  0  0  0  0  0  0  0  0  0  0  0
   -3.3473    0.5623   -1.4259 C   0  0  0  0  0  0  0  0  0  0  0  0
   -3.2502    1.8989   -1.3796 C   0  0  0  0  0  0  0  0  0  0  0  0
   -3.0740    2.9056   -0.5075 C   0  0  0  0  0  0  0  0  0  0  0  0
   -3.5542    2.4163    0.7252 C   0  0  0  0  0  0  0  0  0  0  0  0
   -3.9135    1.0511    0.9099 C   0  0  0  0  0  0  0  0  0  0  0  0
   -4.1390   -0.9013   -0.0727 H   0  0  0  0  0  0  0  0  0  0  0  0
   -3.1738   -0.0986   -2.2683 H   0  0  0  0  0  0  0  0  0  0  0  0
   -2.8164    3.9428   -0.6893 H   0  0  0  0  0  0  0  0  0  0  0  0
   -3.7192    3.1259    1.5323 H   0  0  0  0  0  0  0  0  0  0  0  0
   12.8525   -0.1184   -1.9683 N   0  0  0  0  0  0  0  0  0  0  0  0
   13.9500   -0.2107   -2.0635 N   0  0  0  0  0  0  0  0  0  0  0  0
   -4.3228    0.7451    2.1337 O   0  0  0  0  0  0  0  0  0  0  0  0
   -4.6559   -0.6180    2.4704 C   0  0  0  0  0  0  0  0  0  0  0  0
   -4.9573   -0.5883    3.5158 H   0  0  0  0  0  0  0  0  0  0  0  0
   -3.7828   -1.2662    2.3511 H   0  0  0  0  0  0  0  0  0  0  0  0
   -5.4903   -0.9685    1.8536 H   0  0  0  0  0  0  0  0  0  0  0  0
  1  7  1  0  0  0  0
  1  6  2  0  0  0  0
  2  3  2  0  0  0  0
  2  1  1  0  0  0  0
  3  4  1  0  0  0  0
  4  5  2  0  0  0  0
  5  6  1  0  0  0  0
  5 10  1  0  0  0  0
  6 13  1  0  0  0  0
  8  2  1  0  0  0  0
  9  4  1  0  0  0  0
 12 11  3  0  0  0  0
 13 14  1  0  0  0  0
 14 15  1  0  0  0  0
 16 14  1  0  0  0  0
 17 14  1  0  0  0  0
M  RAD  1   3   2
M  END
