Coordinates from ORCA-job 4-CH3O-Ph-N2+-scan-d090-169-n800
 OpenBabel09191814063D

 17 16  0  0  0  0  0  0  0  0999 V2000
   -3.4470   -0.0434    0.0890 C   0  0  0  0  0  0  0  0  0  0  0  0
   -2.3454    0.1181   -0.7869 C   0  0  0  0  0  0  0  0  0  0  0  0
   -2.0455    1.4243   -0.8019 C   0  0  0  0  0  0  0  0  0  0  0  0
   -2.1403    2.5322   -0.0485 C   0  0  0  0  0  0  0  0  0  0  0  0
   -3.2334    2.3025    0.8134 C   0  0  0  0  0  0  0  0  0  0  0  0
   -3.8722    1.0339    0.9033 C   0  0  0  0  0  0  0  0  0  0  0  0
   -3.9385   -1.0102    0.0997 H   0  0  0  0  0  0  0  0  0  0  0  0
   -1.9117   -0.6830   -1.3755 H   0  0  0  0  0  0  0  0  0  0  0  0
   -1.6446    3.4899   -0.1588 H   0  0  0  0  0  0  0  0  0  0  0  0
   -3.6354    3.1452    1.3705 H   0  0  0  0  0  0  0  0  0  0  0  0
   11.7673    0.3777   -2.5020 N   0  0  0  0  0  0  0  0  0  0  0  0
   12.8557    0.3188   -2.6861 N   0  0  0  0  0  0  0  0  0  0  0  0
   -4.8687    0.9735    1.7768 O   0  0  0  0  0  0  0  0  0  0  0  0
   -5.5561   -0.2732    2.0107 C   0  0  0  0  0  0  0  0  0  0  0  0
   -6.3132   -0.0460    2.7590 H   0  0  0  0  0  0  0  0  0  0  0  0
   -4.8631   -1.0264    2.3969 H   0  0  0  0  0  0  0  0  0  0  0  0
   -6.0374   -0.6205    1.0902 H   0  0  0  0  0  0  0  0  0  0  0  0
  1  7  1  0  0  0  0
  1  6  2  0  0  0  0
  2  1  1  0  0  0  0
  3  2  2  0  0  0  0
  3  4  1  0  0  0  0
  4  5  2  0  0  0  0
  5  6  1  0  0  0  0
  5 10  1  0  0  0  0
  6 13  1  0  0  0  0
  8  2  1  0  0  0  0
  9  4  1  0  0  0  0
 12 11  3  0  0  0  0
 13 14  1  0  0  0  0
 14 16  1  0  0  0  0
 14 15  1  0  0  0  0
 17 14  1  0  0  0  0
M  RAD  1   3   2
M  END
