Coordinates from ORCA-job 4-CH3O-Ph-N2+-scan-d090-169-n800
 OpenBabel09191814063D

 17 16  0  0  0  0  0  0  0  0999 V2000
   -3.2521   -0.1090    0.1952 C   0  0  0  0  0  0  0  0  0  0  0  0
   -2.0143   -0.0413   -0.4909 C   0  0  0  0  0  0  0  0  0  0  0  0
   -1.6566    1.2498   -0.5249 C   0  0  0  0  0  0  0  0  0  0  0  0
   -1.8250    2.4050    0.1394 C   0  0  0  0  0  0  0  0  0  0  0  0
   -3.0551    2.2675    0.8167 C   0  0  0  0  0  0  0  0  0  0  0  0
   -3.7570    1.0306    0.8664 C   0  0  0  0  0  0  0  0  0  0  0  0
   -3.7820   -1.0552    0.1757 H   0  0  0  0  0  0  0  0  0  0  0  0
   -1.5257   -0.8920   -0.9533 H   0  0  0  0  0  0  0  0  0  0  0  0
   -1.2743    3.3356    0.0627 H   0  0  0  0  0  0  0  0  0  0  0  0
   -3.5049    3.1564    1.2522 H   0  0  0  0  0  0  0  0  0  0  0  0
   10.7357    0.5343   -2.5352 N   0  0  0  0  0  0  0  0  0  0  0  0
   11.8180    0.4922   -2.7561 N   0  0  0  0  0  0  0  0  0  0  0  0
   -4.8865    1.0594    1.5616 O   0  0  0  0  0  0  0  0  0  0  0  0
   -5.6593   -0.1453    1.7436 C   0  0  0  0  0  0  0  0  0  0  0  0
   -6.5190    0.1541    2.3401 H   0  0  0  0  0  0  0  0  0  0  0  0
   -5.0751   -0.8979    2.2813 H   0  0  0  0  0  0  0  0  0  0  0  0
   -5.9962   -0.5306    0.7752 H   0  0  0  0  0  0  0  0  0  0  0  0
  1  6  2  0  0  0  0
  2  1  1  0  0  0  0
  3  2  2  0  0  0  0
  3  4  1  0  0  0  0
  4  5  2  0  0  0  0
  5  6  1  0  0  0  0
  5 10  1  0  0  0  0
  6 13  1  0  0  0  0
  7  1  1  0  0  0  0
  8  2  1  0  0  0  0
  9  4  1  0  0  0  0
 12 11  3  0  0  0  0
 13 14  1  0  0  0  0
 14 16  1  0  0  0  0
 14 15  1  0  0  0  0
 17 14  1  0  0  0  0
M  RAD  1   3   2
M  END
