Coordinates from ORCA-job 4-CH3O-Ph-N2+-scan-d090-169-n800
 OpenBabel09191814063D

 17 16  0  0  0  0  0  0  0  0999 V2000
   -2.6570   -0.1656    0.2246 C   0  0  0  0  0  0  0  0  0  0  0  0
   -1.3201   -0.1694   -0.2453 C   0  0  0  0  0  0  0  0  0  0  0  0
   -0.9220    1.1090   -0.2984 C   0  0  0  0  0  0  0  0  0  0  0  0
   -1.1635    2.3097    0.2527 C   0  0  0  0  0  0  0  0  0  0  0  0
   -2.4933    2.2427    0.7195 C   0  0  0  0  0  0  0  0  0  0  0  0
   -3.2316    1.0264    0.7275 C   0  0  0  0  0  0  0  0  0  0  0  0
   -3.2053   -1.1000    0.1750 H   0  0  0  0  0  0  0  0  0  0  0  0
   -0.7880   -1.0589   -0.5644 H   0  0  0  0  0  0  0  0  0  0  0  0
   -0.5786    3.2215    0.2123 H   0  0  0  0  0  0  0  0  0  0  0  0
   -2.9816    3.1676    1.0166 H   0  0  0  0  0  0  0  0  0  0  0  0
    6.6556    0.6759   -1.8584 N   0  0  0  0  0  0  0  0  0  0  0  0
    7.7309    0.6430   -2.1125 N   0  0  0  0  0  0  0  0  0  0  0  0
   -4.4603    1.1244    1.2184 O   0  0  0  0  0  0  0  0  0  0  0  0
   -5.2893   -0.0498    1.3424 C   0  0  0  0  0  0  0  0  0  0  0  0
   -6.2271    0.3058    1.7653 H   0  0  0  0  0  0  0  0  0  0  0  0
   -4.8269   -0.7762    2.0171 H   0  0  0  0  0  0  0  0  0  0  0  0
   -5.4715   -0.4925    0.3572 H   0  0  0  0  0  0  0  0  0  0  0  0
  1  6  2  0  0  0  0
  2  1  1  0  0  0  0
  3  2  2  0  0  0  0
  3  4  1  0  0  0  0
  4  5  2  0  0  0  0
  5  6  1  0  0  0  0
  5 10  1  0  0  0  0
  6 13  1  0  0  0  0
  7  1  1  0  0  0  0
  8  2  1  0  0  0  0
  9  4  1  0  0  0  0
 12 11  3  0  0  0  0
 13 14  1  0  0  0  0
 14 15  1  0  0  0  0
 14 16  1  0  0  0  0
 17 14  1  0  0  0  0
M  RAD  1   3   2
M  END
