Coordinates from ORCA-job 4-CH3O-Ph-N2+-scan-d090-169-n800
 OpenBabel09191814063D

 17 16  0  0  0  0  0  0  0  0999 V2000
   -3.0996   -0.1404    0.2406 C   0  0  0  0  0  0  0  0  0  0  0  0
   -1.8082   -0.1152   -0.3419 C   0  0  0  0  0  0  0  0  0  0  0  0
   -1.4245    1.1681   -0.3858 C   0  0  0  0  0  0  0  0  0  0  0  0
   -1.6252    2.3469    0.2261 C   0  0  0  0  0  0  0  0  0  0  0  0
   -2.9095    2.2514    0.8026 C   0  0  0  0  0  0  0  0  0  0  0  0
   -3.6364    1.0285    0.8319 C   0  0  0  0  0  0  0  0  0  0  0  0
   -3.6439   -1.0778    0.2064 H   0  0  0  0  0  0  0  0  0  0  0  0
   -1.2993   -0.9883   -0.7355 H   0  0  0  0  0  0  0  0  0  0  0  0
   -1.0523    3.2652    0.1668 H   0  0  0  0  0  0  0  0  0  0  0  0
   -3.3767    3.1612    1.1716 H   0  0  0  0  0  0  0  0  0  0  0  0
    9.7663    0.6106   -2.4495 N   0  0  0  0  0  0  0  0  0  0  0  0
   10.8450    0.5760   -2.6888 N   0  0  0  0  0  0  0  0  0  0  0  0
   -4.8188    1.0983    1.4296 O   0  0  0  0  0  0  0  0  0  0  0  0
   -5.6266   -0.0871    1.5838 C   0  0  0  0  0  0  0  0  0  0  0  0
   -6.5268    0.2454    2.0975 H   0  0  0  0  0  0  0  0  0  0  0  0
   -5.1032   -0.8314    2.1911 H   0  0  0  0  0  0  0  0  0  0  0  0
   -5.8899   -0.4979    0.6032 H   0  0  0  0  0  0  0  0  0  0  0  0
  1  6  2  0  0  0  0
  2  1  1  0  0  0  0
  3  2  2  0  0  0  0
  3  4  1  0  0  0  0
  4  5  2  0  0  0  0
  5  6  1  0  0  0  0
  5 10  1  0  0  0  0
  6 13  1  0  0  0  0
  7  1  1  0  0  0  0
  8  2  1  0  0  0  0
  9  4  1  0  0  0  0
 12 11  3  0  0  0  0
 13 14  1  0  0  0  0
 14 15  1  0  0  0  0
 14 16  1  0  0  0  0
 17 14  1  0  0  0  0
M  RAD  1   3   2
M  END
