Coordinates from ORCA-job 4-CH3O-Ph-N2+-scan-d090-169-n800
 OpenBabel09191814063D

 17 16  0  0  0  0  0  0  0  0999 V2000
   -2.7816   -0.1625    0.2393 C   0  0  0  0  0  0  0  0  0  0  0  0
   -1.4516   -0.1635   -0.2497 C   0  0  0  0  0  0  0  0  0  0  0  0
   -1.0541    1.1152   -0.3015 C   0  0  0  0  0  0  0  0  0  0  0  0
   -1.2874    2.3127    0.2602 C   0  0  0  0  0  0  0  0  0  0  0  0
   -2.6105    2.2430    0.7456 C   0  0  0  0  0  0  0  0  0  0  0  0
   -3.3487    1.0267    0.7573 C   0  0  0  0  0  0  0  0  0  0  0  0
   -3.3306   -1.0966    0.1923 H   0  0  0  0  0  0  0  0  0  0  0  0
   -0.9241   -1.0512   -0.5813 H   0  0  0  0  0  0  0  0  0  0  0  0
   -0.7032    3.2247    0.2165 H   0  0  0  0  0  0  0  0  0  0  0  0
   -3.0944    3.1663    1.0548 H   0  0  0  0  0  0  0  0  0  0  0  0
    7.5488    0.6672   -2.0486 N   0  0  0  0  0  0  0  0  0  0  0  0
    8.6246    0.6349   -2.3008 N   0  0  0  0  0  0  0  0  0  0  0  0
   -4.5702    1.1219    1.2663 O   0  0  0  0  0  0  0  0  0  0  0  0
   -5.3976   -0.0529    1.3955 C   0  0  0  0  0  0  0  0  0  0  0  0
   -6.3291    0.3005    1.8338 H   0  0  0  0  0  0  0  0  0  0  0  0
   -4.9257   -0.7831    2.0595 H   0  0  0  0  0  0  0  0  0  0  0  0
   -5.5939   -0.4899    0.4106 H   0  0  0  0  0  0  0  0  0  0  0  0
  1  6  2  0  0  0  0
  2  1  1  0  0  0  0
  3  2  2  0  0  0  0
  3  4  1  0  0  0  0
  4  5  2  0  0  0  0
  5  6  1  0  0  0  0
  5 10  1  0  0  0  0
  6 13  1  0  0  0  0
  7  1  1  0  0  0  0
  8  2  1  0  0  0  0
  9  4  1  0  0  0  0
 12 11  3  0  0  0  0
 13 14  1  0  0  0  0
 14 15  1  0  0  0  0
 14 16  1  0  0  0  0
 17 14  1  0  0  0  0
M  RAD  1   3   2
M  END
