Coordinates from ORCA-job 4-CH3O-Ph-N2+-scan-d090-169-n800
 OpenBabel09191814063D

 17 16  0  0  0  0  0  0  0  0999 V2000
   -2.6023   -0.1669    0.2172 C   0  0  0  0  0  0  0  0  0  0  0  0
   -1.2629   -0.1720   -0.2455 C   0  0  0  0  0  0  0  0  0  0  0  0
   -0.8644    1.1063   -0.2990 C   0  0  0  0  0  0  0  0  0  0  0  0
   -1.1089    2.3084    0.2479 C   0  0  0  0  0  0  0  0  0  0  0  0
   -2.4413    2.2425    0.7076 C   0  0  0  0  0  0  0  0  0  0  0  0
   -3.1796    1.0262    0.7143 C   0  0  0  0  0  0  0  0  0  0  0  0
   -3.1505   -1.1013    0.1665 H   0  0  0  0  0  0  0  0  0  0  0  0
   -0.7293   -1.0621   -0.5601 H   0  0  0  0  0  0  0  0  0  0  0  0
   -0.5236    3.2199    0.2087 H   0  0  0  0  0  0  0  0  0  0  0  0
   -2.9309    3.1681    1.0003 H   0  0  0  0  0  0  0  0  0  0  0  0
    6.2605    0.6803   -1.7719 N   0  0  0  0  0  0  0  0  0  0  0  0
    7.3356    0.6463   -2.0268 N   0  0  0  0  0  0  0  0  0  0  0  0
   -4.4110    1.1253    1.1983 O   0  0  0  0  0  0  0  0  0  0  0  0
   -5.2407   -0.0486    1.3204 C   0  0  0  0  0  0  0  0  0  0  0  0
   -6.1806    0.3079    1.7375 H   0  0  0  0  0  0  0  0  0  0  0  0
   -4.7818   -0.7735    1.9991 H   0  0  0  0  0  0  0  0  0  0  0  0
   -5.4176   -0.4933    0.3352 H   0  0  0  0  0  0  0  0  0  0  0  0
  1  6  2  0  0  0  0
  2  1  1  0  0  0  0
  3  2  2  0  0  0  0
  3  4  1  0  0  0  0
  4  5  2  0  0  0  0
  5  6  1  0  0  0  0
  5 10  1  0  0  0  0
  6 13  1  0  0  0  0
  7  1  1  0  0  0  0
  8  2  1  0  0  0  0
  9  4  1  0  0  0  0
 12 11  3  0  0  0  0
 13 14  1  0  0  0  0
 14 15  1  0  0  0  0
 14 16  1  0  0  0  0
 17 14  1  0  0  0  0
M  RAD  1   3   2
M  END
