Coordinates from ORCA-job 4-CH3O-Ph-N2+-scan-d090-169-n800
 OpenBabel09191814063D

 17 16  0  0  0  0  0  0  0  0999 V2000
   -2.2895   -0.1921    0.1745 C   0  0  0  0  0  0  0  0  0  0  0  0
   -0.9365   -0.2288   -0.2464 C   0  0  0  0  0  0  0  0  0  0  0  0
   -0.5138    1.0406   -0.3034 C   0  0  0  0  0  0  0  0  0  0  0  0
   -0.7550    2.2564    0.2125 C   0  0  0  0  0  0  0  0  0  0  0  0
   -2.1019    2.2214    0.6314 C   0  0  0  0  0  0  0  0  0  0  0  0
   -2.8613    1.0184    0.6341 C   0  0  0  0  0  0  0  0  0  0  0  0
   -2.8521   -1.1178    0.1210 H   0  0  0  0  0  0  0  0  0  0  0  0
   -0.4099   -1.1327   -0.5323 H   0  0  0  0  0  0  0  0  0  0  0  0
   -0.1512    3.1559    0.1781 H   0  0  0  0  0  0  0  0  0  0  0  0
   -2.5829    3.1597    0.8964 H   0  0  0  0  0  0  0  0  0  0  0  0
    3.8841    0.7847   -1.2433 N   0  0  0  0  0  0  0  0  0  0  0  0
    4.9555    0.7493   -1.5130 N   0  0  0  0  0  0  0  0  0  0  0  0
   -4.1058    1.1462    1.0769 O   0  0  0  0  0  0  0  0  0  0  0  0
   -4.9585   -0.0117    1.1902 C   0  0  0  0  0  0  0  0  0  0  0  0
   -5.9049    0.3665    1.5723 H   0  0  0  0  0  0  0  0  0  0  0  0
   -4.5336   -0.7338    1.8938 H   0  0  0  0  0  0  0  0  0  0  0  0
   -5.1123   -0.4688    0.2068 H   0  0  0  0  0  0  0  0  0  0  0  0
  1  6  2  0  0  0  0
  2  1  1  0  0  0  0
  3  2  2  0  0  0  0
  3  4  1  0  0  0  0
  4  5  2  0  0  0  0
  5  6  1  0  0  0  0
  5 10  1  0  0  0  0
  6 13  1  0  0  0  0
  7  1  1  0  0  0  0
  8  2  1  0  0  0  0
  9  4  1  0  0  0  0
 12 11  3  0  0  0  0
 13 14  1  0  0  0  0
 14 15  1  0  0  0  0
 14 16  1  0  0  0  0
 17 14  1  0  0  0  0
M  RAD  1   3   2
M  END
