Coordinates from ORCA-job 4-CH3O-Ph-N2+-scan-d090-169-n800
 OpenBabel09191814063D

 17 16  0  0  0  0  0  0  0  0999 V2000
   -3.2817   -0.1008    0.1819 C   0  0  0  0  0  0  0  0  0  0  0  0
   -2.0591   -0.0214   -0.5297 C   0  0  0  0  0  0  0  0  0  0  0  0
   -1.7086    1.2718   -0.5613 C   0  0  0  0  0  0  0  0  0  0  0  0
   -1.8684    2.4209    0.1157 C   0  0  0  0  0  0  0  0  0  0  0  0
   -3.0831    2.2718    0.8178 C   0  0  0  0  0  0  0  0  0  0  0  0
   -3.7777    1.0310    0.8727 C   0  0  0  0  0  0  0  0  0  0  0  0
   -3.8072   -1.0494    0.1663 H   0  0  0  0  0  0  0  0  0  0  0  0
   -1.5763   -0.8660   -1.0090 H   0  0  0  0  0  0  0  0  0  0  0  0
   -1.3241    3.3547    0.0346 H   0  0  0  0  0  0  0  0  0  0  0  0
   -3.5280    3.1550    1.2697 H   0  0  0  0  0  0  0  0  0  0  0  0
   10.9096    0.5145   -2.5403 N   0  0  0  0  0  0  0  0  0  0  0  0
   11.9928    0.4701   -2.7564 N   0  0  0  0  0  0  0  0  0  0  0  0
   -4.8923    1.0488    1.5920 O   0  0  0  0  0  0  0  0  0  0  0  0
   -5.6551   -0.1612    1.7809 C   0  0  0  0  0  0  0  0  0  0  0  0
   -6.5034    0.1292    2.3979 H   0  0  0  0  0  0  0  0  0  0  0  0
   -5.0560   -0.9150    2.3001 H   0  0  0  0  0  0  0  0  0  0  0  0
   -6.0108   -0.5407    0.8169 H   0  0  0  0  0  0  0  0  0  0  0  0
  1  6  2  0  0  0  0
  2  1  1  0  0  0  0
  3  2  2  0  0  0  0
  3  4  1  0  0  0  0
  4  5  2  0  0  0  0
  5  6  1  0  0  0  0
  5 10  1  0  0  0  0
  6 13  1  0  0  0  0
  7  1  1  0  0  0  0
  8  2  1  0  0  0  0
  9  4  1  0  0  0  0
 12 11  3  0  0  0  0
 13 14  1  0  0  0  0
 14 16  1  0  0  0  0
 14 15  1  0  0  0  0
 17 14  1  0  0  0  0
M  RAD  1   3   2
M  END
