Coordinates from ORCA-job 4-CH3O-Ph-N2+-scan-d090-169-n800
 OpenBabel09191814063D

 17 16  0  0  0  0  0  0  0  0999 V2000
   -3.2468   -0.1105    0.1975 C   0  0  0  0  0  0  0  0  0  0  0  0
   -2.0064   -0.0447   -0.4842 C   0  0  0  0  0  0  0  0  0  0  0  0
   -1.6474    1.2460   -0.5186 C   0  0  0  0  0  0  0  0  0  0  0  0
   -1.8173    2.4023    0.1435 C   0  0  0  0  0  0  0  0  0  0  0  0
   -3.0501    2.2667    0.8164 C   0  0  0  0  0  0  0  0  0  0  0  0
   -3.7532    1.0305    0.8652 C   0  0  0  0  0  0  0  0  0  0  0  0
   -3.7774   -1.0561    0.1773 H   0  0  0  0  0  0  0  0  0  0  0  0
   -1.5168   -0.8964   -0.9436 H   0  0  0  0  0  0  0  0  0  0  0  0
   -1.2656    3.3323    0.0676 H   0  0  0  0  0  0  0  0  0  0  0  0
   -3.5007    3.1566    1.2491 H   0  0  0  0  0  0  0  0  0  0  0  0
   10.7037    0.5377   -2.5339 N   0  0  0  0  0  0  0  0  0  0  0  0
   11.7860    0.4960   -2.7556 N   0  0  0  0  0  0  0  0  0  0  0  0
   -4.8852    1.0612    1.5563 O   0  0  0  0  0  0  0  0  0  0  0  0
   -5.6596   -0.1426    1.7370 C   0  0  0  0  0  0  0  0  0  0  0  0
   -6.5213    0.1583    2.3300 H   0  0  0  0  0  0  0  0  0  0  0  0
   -5.0781   -0.8950    2.2779 H   0  0  0  0  0  0  0  0  0  0  0  0
   -5.9934   -0.5289    0.7680 H   0  0  0  0  0  0  0  0  0  0  0  0
  1  6  2  0  0  0  0
  2  1  1  0  0  0  0
  3  2  2  0  0  0  0
  3  4  1  0  0  0  0
  4  5  2  0  0  0  0
  5  6  1  0  0  0  0
  5 10  1  0  0  0  0
  6 13  1  0  0  0  0
  7  1  1  0  0  0  0
  8  2  1  0  0  0  0
  9  4  1  0  0  0  0
 12 11  3  0  0  0  0
 13 14  1  0  0  0  0
 14 16  1  0  0  0  0
 14 15  1  0  0  0  0
 17 14  1  0  0  0  0
M  RAD  1   3   2
M  END
