Coordinates from ORCA-job 4-CH3O-Ph-N2+-scan-d090-169-n800
 OpenBabel09191814063D

 17 16  0  0  0  0  0  0  0  0999 V2000
   -3.1708   -0.1283    0.2246 C   0  0  0  0  0  0  0  0  0  0  0  0
   -1.8995   -0.0868   -0.3996 C   0  0  0  0  0  0  0  0  0  0  0  0
   -1.5256    1.1995   -0.4397 C   0  0  0  0  0  0  0  0  0  0  0  0
   -1.7135    2.3690    0.1938 C   0  0  0  0  0  0  0  0  0  0  0  0
   -2.9775    2.2575    0.8109 C   0  0  0  0  0  0  0  0  0  0  0  0
   -3.6953    1.0294    0.8483 C   0  0  0  0  0  0  0  0  0  0  0  0
   -3.7099   -1.0689    0.1963 H   0  0  0  0  0  0  0  0  0  0  0  0
   -1.3981   -0.9514   -0.8208 H   0  0  0  0  0  0  0  0  0  0  0  0
   -1.1488    3.2919    0.1276 H   0  0  0  0  0  0  0  0  0  0  0  0
   -3.4382    3.1593    1.2067 H   0  0  0  0  0  0  0  0  0  0  0  0
   10.2326    0.5806   -2.5023 N   0  0  0  0  0  0  0  0  0  0  0  0
   11.3128    0.5434   -2.7344 N   0  0  0  0  0  0  0  0  0  0  0  0
   -4.8577    1.0835    1.4853 O   0  0  0  0  0  0  0  0  0  0  0  0
   -5.6525   -0.1092    1.6506 C   0  0  0  0  0  0  0  0  0  0  0  0
   -6.5374    0.2108    2.1977 H   0  0  0  0  0  0  0  0  0  0  0  0
   -5.1048   -0.8575    2.2308 H   0  0  0  0  0  0  0  0  0  0  0  0
   -5.9452   -0.5093    0.6739 H   0  0  0  0  0  0  0  0  0  0  0  0
  1  6  2  0  0  0  0
  2  1  1  0  0  0  0
  3  2  2  0  0  0  0
  3  4  1  0  0  0  0
  4  5  2  0  0  0  0
  5  6  1  0  0  0  0
  5 10  1  0  0  0  0
  6 13  1  0  0  0  0
  7  1  1  0  0  0  0
  8  2  1  0  0  0  0
  9  4  1  0  0  0  0
 12 11  3  0  0  0  0
 13 14  1  0  0  0  0
 14 15  1  0  0  0  0
 14 16  1  0  0  0  0
 17 14  1  0  0  0  0
M  RAD  1   3   2
M  END
