Coordinates from ORCA-job 4-CH3O-Ph-N2+-scan-d090-169-n800
 OpenBabel09191814063D

 17 16  0  0  0  0  0  0  0  0999 V2000
   -2.5858   -0.1672    0.2148 C   0  0  0  0  0  0  0  0  0  0  0  0
   -1.2457   -0.1728   -0.2460 C   0  0  0  0  0  0  0  0  0  0  0  0
   -0.8469    1.1053   -0.2991 C   0  0  0  0  0  0  0  0  0  0  0  0
   -1.0924    2.3080    0.2460 C   0  0  0  0  0  0  0  0  0  0  0  0
   -2.4254    2.2425    0.7039 C   0  0  0  0  0  0  0  0  0  0  0  0
   -3.1638    1.0262    0.7103 C   0  0  0  0  0  0  0  0  0  0  0  0
   -3.1339   -1.1016    0.1638 H   0  0  0  0  0  0  0  0  0  0  0  0
   -0.7119   -1.0633   -0.5594 H   0  0  0  0  0  0  0  0  0  0  0  0
   -0.5069    3.2194    0.2072 H   0  0  0  0  0  0  0  0  0  0  0  0
   -2.9153    3.1683    0.9954 H   0  0  0  0  0  0  0  0  0  0  0  0
    6.1403    0.6818   -1.7451 N   0  0  0  0  0  0  0  0  0  0  0  0
    7.2153    0.6474   -2.0004 N   0  0  0  0  0  0  0  0  0  0  0  0
   -4.3960    1.1257    1.1923 O   0  0  0  0  0  0  0  0  0  0  0  0
   -5.2257   -0.0482    1.3139 C   0  0  0  0  0  0  0  0  0  0  0  0
   -6.1663    0.3085    1.7295 H   0  0  0  0  0  0  0  0  0  0  0  0
   -4.7678   -0.7728    1.9937 H   0  0  0  0  0  0  0  0  0  0  0  0
   -5.4012   -0.4936    0.3287 H   0  0  0  0  0  0  0  0  0  0  0  0
  1  6  2  0  0  0  0
  2  1  1  0  0  0  0
  3  2  2  0  0  0  0
  3  4  1  0  0  0  0
  4  5  2  0  0  0  0
  5  6  1  0  0  0  0
  5 10  1  0  0  0  0
  6 13  1  0  0  0  0
  7  1  1  0  0  0  0
  8  2  1  0  0  0  0
  9  4  1  0  0  0  0
 12 11  3  0  0  0  0
 13 14  1  0  0  0  0
 14 15  1  0  0  0  0
 14 16  1  0  0  0  0
 17 14  1  0  0  0  0
M  RAD  1   3   2
M  END
