Coordinates from ORCA-job 4-CH3O-Ph-N2+-scan-d090-169-n800
 OpenBabel09191814063D

 17 16  0  0  0  0  0  0  0  0999 V2000
   -2.3172   -0.1874    0.1769 C   0  0  0  0  0  0  0  0  0  0  0  0
   -0.9657   -0.2183   -0.2497 C   0  0  0  0  0  0  0  0  0  0  0  0
   -0.5480    1.0530   -0.3054 C   0  0  0  0  0  0  0  0  0  0  0  0
   -0.7912    2.2670    0.2143 C   0  0  0  0  0  0  0  0  0  0  0  0
   -2.1364    2.2257    0.6387 C   0  0  0  0  0  0  0  0  0  0  0  0
   -2.8913    1.0201    0.6416 C   0  0  0  0  0  0  0  0  0  0  0  0
   -2.8767   -1.1149    0.1237 H   0  0  0  0  0  0  0  0  0  0  0  0
   -0.4369   -1.1196   -0.5392 H   0  0  0  0  0  0  0  0  0  0  0  0
   -0.1910    3.1689    0.1796 H   0  0  0  0  0  0  0  0  0  0  0  0
   -2.6199    3.1617    0.9075 H   0  0  0  0  0  0  0  0  0  0  0  0
    4.1051    0.7653   -1.2902 N   0  0  0  0  0  0  0  0  0  0  0  0
    5.1772    0.7282   -1.5565 N   0  0  0  0  0  0  0  0  0  0  0  0
   -4.1345    1.1423    1.0897 O   0  0  0  0  0  0  0  0  0  0  0  0
   -4.9827   -0.0188    1.2039 C   0  0  0  0  0  0  0  0  0  0  0  0
   -5.9289    0.3553    1.5906 H   0  0  0  0  0  0  0  0  0  0  0  0
   -4.5524   -0.7410    1.9040 H   0  0  0  0  0  0  0  0  0  0  0  0
   -5.1389   -0.4741    0.2200 H   0  0  0  0  0  0  0  0  0  0  0  0
  1  6  2  0  0  0  0
  2  1  1  0  0  0  0
  3  2  2  0  0  0  0
  3  4  1  0  0  0  0
  4  5  2  0  0  0  0
  5  6  1  0  0  0  0
  5 10  1  0  0  0  0
  6 13  1  0  0  0  0
  7  1  1  0  0  0  0
  8  2  1  0  0  0  0
  9  4  1  0  0  0  0
 12 11  3  0  0  0  0
 13 14  1  0  0  0  0
 14 15  1  0  0  0  0
 14 16  1  0  0  0  0
 17 14  1  0  0  0  0
M  RAD  1   3   2
M  END
