Coordinates from ORCA-job 4-CH3O-Ph-N2+-scan-d090-169-n800
 OpenBabel09191814063D

 17 16  0  0  0  0  0  0  0  0999 V2000
   -3.6815    0.0657   -0.0795 C   0  0  0  0  0  0  0  0  0  0  0  0
   -2.9038    0.3904   -1.2177 C   0  0  0  0  0  0  0  0  0  0  0  0
   -2.7148    1.7178   -1.1998 C   0  0  0  0  0  0  0  0  0  0  0  0
   -2.6534    2.7560   -0.3493 C   0  0  0  0  0  0  0  0  0  0  0  0
   -3.4227    2.3663    0.7671 C   0  0  0  0  0  0  0  0  0  0  0  0
   -3.9179    1.0406    0.9197 C   0  0  0  0  0  0  0  0  0  0  0  0
   -4.0783   -0.9415   -0.0151 H   0  0  0  0  0  0  0  0  0  0  0  0
   -2.6065   -0.3237   -1.9780 H   0  0  0  0  0  0  0  0  0  0  0  0
   -2.2796    3.7610   -0.5086 H   0  0  0  0  0  0  0  0  0  0  0  0
   -3.6991    3.1271    1.4930 H   0  0  0  0  0  0  0  0  0  0  0  0
   12.5235    0.0985   -2.2201 N   0  0  0  0  0  0  0  0  0  0  0  0
   13.6187    0.0186   -2.3477 N   0  0  0  0  0  0  0  0  0  0  0  0
   -4.6029    0.8282    2.0355 O   0  0  0  0  0  0  0  0  0  0  0  0
   -5.1037   -0.4898    2.3423 C   0  0  0  0  0  0  0  0  0  0  0  0
   -5.6187   -0.3849    3.2954 H   0  0  0  0  0  0  0  0  0  0  0  0
   -4.2777   -1.2004    2.4399 H   0  0  0  0  0  0  0  0  0  0  0  0
   -5.8111   -0.8162    1.5725 H   0  0  0  0  0  0  0  0  0  0  0  0
  1  7  1  0  0  0  0
  1  6  2  0  0  0  0
  2  3  2  0  0  0  0
  2  1  1  0  0  0  0
  3  4  1  0  0  0  0
  4  5  2  0  0  0  0
  5  6  1  0  0  0  0
  5 10  1  0  0  0  0
  6 13  1  0  0  0  0
  8  2  1  0  0  0  0
  9  4  1  0  0  0  0
 12 11  3  0  0  0  0
 13 14  1  0  0  0  0
 14 16  1  0  0  0  0
 14 15  1  0  0  0  0
 17 14  1  0  0  0  0
M  RAD  1   3   2
M  END
