Coordinates from ORCA-job 4-CH3O-Ph-N2+-scan-d090-169-n800
 OpenBabel09191814063D

 17 16  0  0  0  0  0  0  0  0999 V2000
   -2.8226   -0.1612    0.2431 C   0  0  0  0  0  0  0  0  0  0  0  0
   -1.4954   -0.1608   -0.2528 C   0  0  0  0  0  0  0  0  0  0  0  0
   -1.0981    1.1180   -0.3047 C   0  0  0  0  0  0  0  0  0  0  0  0
   -1.3285    2.3138    0.2617 C   0  0  0  0  0  0  0  0  0  0  0  0
   -2.6487    2.2433    0.7540 C   0  0  0  0  0  0  0  0  0  0  0  0
   -3.3869    1.0267    0.7670 C   0  0  0  0  0  0  0  0  0  0  0  0
   -3.3718   -1.0953    0.1968 H   0  0  0  0  0  0  0  0  0  0  0  0
   -0.9699   -1.0477   -0.5896 H   0  0  0  0  0  0  0  0  0  0  0  0
   -0.7449    3.2261    0.2163 H   0  0  0  0  0  0  0  0  0  0  0  0
   -3.1310    3.1659    1.0674 H   0  0  0  0  0  0  0  0  0  0  0  0
    7.8407    0.6638   -2.1088 N   0  0  0  0  0  0  0  0  0  0  0  0
    8.9167    0.6315   -2.3603 N   0  0  0  0  0  0  0  0  0  0  0  0
   -4.6055    1.1208    1.2830 O   0  0  0  0  0  0  0  0  0  0  0  0
   -5.4322   -0.0544    1.4143 C   0  0  0  0  0  0  0  0  0  0  0  0
   -6.3612    0.2981    1.8585 H   0  0  0  0  0  0  0  0  0  0  0  0
   -4.9565   -0.7860    2.0741 H   0  0  0  0  0  0  0  0  0  0  0  0
   -5.6338   -0.4892    0.4295 H   0  0  0  0  0  0  0  0  0  0  0  0
  1  6  2  0  0  0  0
  2  1  1  0  0  0  0
  3  2  2  0  0  0  0
  3  4  1  0  0  0  0
  4  5  2  0  0  0  0
  5  6  1  0  0  0  0
  5 10  1  0  0  0  0
  6 13  1  0  0  0  0
  7  1  1  0  0  0  0
  8  2  1  0  0  0  0
  9  4  1  0  0  0  0
 12 11  3  0  0  0  0
 13 14  1  0  0  0  0
 14 15  1  0  0  0  0
 14 16  1  0  0  0  0
 17 14  1  0  0  0  0
M  RAD  1   3   2
M  END
