Coordinates from ORCA-job 4-CH3O-Ph-N2+-scan-d090-169-n800
 OpenBabel09191814063D

 17 16  0  0  0  0  0  0  0  0999 V2000
   -3.6849    0.0673   -0.0817 C   0  0  0  0  0  0  0  0  0  0  0  0
   -2.9131    0.3945   -1.2232 C   0  0  0  0  0  0  0  0  0  0  0  0
   -2.7260    1.7221   -1.2048 C   0  0  0  0  0  0  0  0  0  0  0  0
   -2.6621    2.7595   -0.3533 C   0  0  0  0  0  0  0  0  0  0  0  0
   -3.4256    2.3673    0.7662 C   0  0  0  0  0  0  0  0  0  0  0  0
   -3.9181    1.0407    0.9197 C   0  0  0  0  0  0  0  0  0  0  0  0
   -4.0799   -0.9406   -0.0165 H   0  0  0  0  0  0  0  0  0  0  0  0
   -2.6182   -0.3184   -1.9856 H   0  0  0  0  0  0  0  0  0  0  0  0
   -2.2906    3.7652   -0.5133 H   0  0  0  0  0  0  0  0  0  0  0  0
   -3.6997    3.1269    1.4942 H   0  0  0  0  0  0  0  0  0  0  0  0
   12.5322    0.0939   -2.2150 N   0  0  0  0  0  0  0  0  0  0  0  0
   13.6275    0.0137   -2.3418 N   0  0  0  0  0  0  0  0  0  0  0  0
   -4.5975    0.8261    2.0384 O   0  0  0  0  0  0  0  0  0  0  0  0
   -5.0949   -0.4930    2.3461 C   0  0  0  0  0  0  0  0  0  0  0  0
   -5.6056   -0.3899    3.3017 H   0  0  0  0  0  0  0  0  0  0  0  0
   -4.2674   -1.2024    2.4391 H   0  0  0  0  0  0  0  0  0  0  0  0
   -5.8055   -0.8196    1.5793 H   0  0  0  0  0  0  0  0  0  0  0  0
  1  7  1  0  0  0  0
  1  6  2  0  0  0  0
  2  3  2  0  0  0  0
  2  1  1  0  0  0  0
  3  4  1  0  0  0  0
  4  5  2  0  0  0  0
  5  6  1  0  0  0  0
  5 10  1  0  0  0  0
  6 13  1  0  0  0  0
  8  2  1  0  0  0  0
  9  4  1  0  0  0  0
 12 11  3  0  0  0  0
 13 14  1  0  0  0  0
 14 16  1  0  0  0  0
 14 15  1  0  0  0  0
 17 14  1  0  0  0  0
M  RAD  1   3   2
M  END
