Coordinates from ORCA-job 4-CH3O-Ph-N2+-scan-d090-169-n800
 OpenBabel09191814063D

 17 16  0  0  0  0  0  0  0  0999 V2000
   -2.4290   -0.1746    0.1910 C   0  0  0  0  0  0  0  0  0  0  0  0
   -1.0827   -0.1884   -0.2510 C   0  0  0  0  0  0  0  0  0  0  0  0
   -0.6778    1.0874   -0.3064 C   0  0  0  0  0  0  0  0  0  0  0  0
   -0.9261    2.2942    0.2277 C   0  0  0  0  0  0  0  0  0  0  0  0
   -2.2655    2.2374    0.6674 C   0  0  0  0  0  0  0  0  0  0  0  0
   -3.0089    1.0242    0.6711 C   0  0  0  0  0  0  0  0  0  0  0  0
   -2.9801   -1.1071    0.1378 H   0  0  0  0  0  0  0  0  0  0  0  0
   -0.5486   -1.0829   -0.5523 H   0  0  0  0  0  0  0  0  0  0  0  0
   -0.3361    3.2028    0.1912 H   0  0  0  0  0  0  0  0  0  0  0  0
   -2.7553    3.1670    0.9466 H   0  0  0  0  0  0  0  0  0  0  0  0
    4.9749    0.7116   -1.4832 N   0  0  0  0  0  0  0  0  0  0  0  0
    6.0489    0.6734   -1.7419 N   0  0  0  0  0  0  0  0  0  0  0  0
   -4.2472    1.1315    1.1354 O   0  0  0  0  0  0  0  0  0  0  0  0
   -5.0833   -0.0383    1.2526 C   0  0  0  0  0  0  0  0  0  0  0  0
   -6.0281    0.3246    1.6530 H   0  0  0  0  0  0  0  0  0  0  0  0
   -4.6377   -0.7606    1.9429 H   0  0  0  0  0  0  0  0  0  0  0  0
   -5.2471   -0.4889    0.2678 H   0  0  0  0  0  0  0  0  0  0  0  0
  1  6  2  0  0  0  0
  2  1  1  0  0  0  0
  3  2  2  0  0  0  0
  3  4  1  0  0  0  0
  4  5  2  0  0  0  0
  5  6  1  0  0  0  0
  5 10  1  0  0  0  0
  6 13  1  0  0  0  0
  7  1  1  0  0  0  0
  8  2  1  0  0  0  0
  9  4  1  0  0  0  0
 12 11  3  0  0  0  0
 13 14  1  0  0  0  0
 14 15  1  0  0  0  0
 14 16  1  0  0  0  0
 17 14  1  0  0  0  0
M  RAD  1   3   2
M  END
