Coordinates from ORCA-job 4-CH3O-Ph-N2+-scan-d090-169-n800
 OpenBabel09191814063D

 17 16  0  0  0  0  0  0  0  0999 V2000
   -2.3150   -0.1877    0.1767 C   0  0  0  0  0  0  0  0  0  0  0  0
   -0.9634   -0.2190   -0.2494 C   0  0  0  0  0  0  0  0  0  0  0  0
   -0.5455    1.0523   -0.3054 C   0  0  0  0  0  0  0  0  0  0  0  0
   -0.7884    2.2663    0.2142 C   0  0  0  0  0  0  0  0  0  0  0  0
   -2.1337    2.2254    0.6382 C   0  0  0  0  0  0  0  0  0  0  0  0
   -2.8890    1.0199    0.6410 C   0  0  0  0  0  0  0  0  0  0  0  0
   -2.8747   -1.1152    0.1235 H   0  0  0  0  0  0  0  0  0  0  0  0
   -0.4346   -1.1205   -0.5386 H   0  0  0  0  0  0  0  0  0  0  0  0
   -0.1880    3.1680    0.1796 H   0  0  0  0  0  0  0  0  0  0  0  0
   -2.6172    3.1615    0.9066 H   0  0  0  0  0  0  0  0  0  0  0  0
    4.0880    0.7666   -1.2866 N   0  0  0  0  0  0  0  0  0  0  0  0
    5.1601    0.7296   -1.5531 N   0  0  0  0  0  0  0  0  0  0  0  0
   -4.1323    1.1426    1.0888 O   0  0  0  0  0  0  0  0  0  0  0  0
   -4.9808   -0.0183    1.2028 C   0  0  0  0  0  0  0  0  0  0  0  0
   -5.9270    0.3561    1.5892 H   0  0  0  0  0  0  0  0  0  0  0  0
   -4.5510   -0.7404    1.9033 H   0  0  0  0  0  0  0  0  0  0  0  0
   -5.1368   -0.4737    0.2190 H   0  0  0  0  0  0  0  0  0  0  0  0
  1  6  2  0  0  0  0
  2  1  1  0  0  0  0
  3  2  2  0  0  0  0
  3  4  1  0  0  0  0
  4  5  2  0  0  0  0
  5  6  1  0  0  0  0
  5 10  1  0  0  0  0
  6 13  1  0  0  0  0
  7  1  1  0  0  0  0
  8  2  1  0  0  0  0
  9  4  1  0  0  0  0
 12 11  3  0  0  0  0
 13 14  1  0  0  0  0
 14 15  1  0  0  0  0
 14 16  1  0  0  0  0
 17 14  1  0  0  0  0
M  RAD  1   3   2
M  END
