Coordinates from ORCA-job 4-CH3O-Ph-N2+-scan-d090-169-n800
 OpenBabel09191814063D

 17 16  0  0  0  0  0  0  0  0999 V2000
   -3.3117   -0.0918    0.1675 C   0  0  0  0  0  0  0  0  0  0  0  0
   -2.1063    0.0004   -0.5715 C   0  0  0  0  0  0  0  0  0  0  0  0
   -1.7638    1.2958   -0.6005 C   0  0  0  0  0  0  0  0  0  0  0  0
   -1.9140    2.4383    0.0898 C   0  0  0  0  0  0  0  0  0  0  0  0
   -3.1114    2.2766    0.8183 C   0  0  0  0  0  0  0  0  0  0  0  0
   -3.7978    1.0315    0.8789 C   0  0  0  0  0  0  0  0  0  0  0  0
   -3.8322   -1.0432    0.1561 H   0  0  0  0  0  0  0  0  0  0  0  0
   -1.6299   -0.8374   -1.0687 H   0  0  0  0  0  0  0  0  0  0  0  0
   -1.3768    3.3759    0.0040 H   0  0  0  0  0  0  0  0  0  0  0  0
   -3.5506    3.1535    1.2877 H   0  0  0  0  0  0  0  0  0  0  0  0
   11.0807    0.4928   -2.5421 N   0  0  0  0  0  0  0  0  0  0  0  0
   12.1648    0.4460   -2.7530 N   0  0  0  0  0  0  0  0  0  0  0  0
   -4.8955    1.0371    1.6238 O   0  0  0  0  0  0  0  0  0  0  0  0
   -5.6472   -0.1787    1.8200 C   0  0  0  0  0  0  0  0  0  0  0  0
   -6.4826    0.1019    2.4588 H   0  0  0  0  0  0  0  0  0  0  0  0
   -5.0322   -0.9334    2.3190 H   0  0  0  0  0  0  0  0  0  0  0  0
   -6.0229   -0.5522    0.8614 H   0  0  0  0  0  0  0  0  0  0  0  0
  1  6  2  0  0  0  0
  2  1  1  0  0  0  0
  3  2  2  0  0  0  0
  3  4  1  0  0  0  0
  4  5  2  0  0  0  0
  5  6  1  0  0  0  0
  5 10  1  0  0  0  0
  6 13  1  0  0  0  0
  7  1  1  0  0  0  0
  8  2  1  0  0  0  0
  9  4  1  0  0  0  0
 12 11  3  0  0  0  0
 13 14  1  0  0  0  0
 14 16  1  0  0  0  0
 14 15  1  0  0  0  0
 17 14  1  0  0  0  0
M  RAD  1   3   2
M  END
