Coordinates from ORCA-job 4-CH3O-Ph-N2+-scan-d090-169-n800
 OpenBabel09191814063D

 17 16  0  0  0  0  0  0  0  0999 V2000
   -2.2724   -0.1951    0.1738 C   0  0  0  0  0  0  0  0  0  0  0  0
   -0.9183   -0.2364   -0.2440 C   0  0  0  0  0  0  0  0  0  0  0  0
   -0.4925    1.0319   -0.3001 C   0  0  0  0  0  0  0  0  0  0  0  0
   -0.7323    2.2498    0.2111 C   0  0  0  0  0  0  0  0  0  0  0  0
   -2.0806    2.2185    0.6269 C   0  0  0  0  0  0  0  0  0  0  0  0
   -2.8426    1.0175    0.6295 C   0  0  0  0  0  0  0  0  0  0  0  0
   -2.8371   -1.1196    0.1205 H   0  0  0  0  0  0  0  0  0  0  0  0
   -0.3933   -1.1419   -0.5273 H   0  0  0  0  0  0  0  0  0  0  0  0
   -0.1258    3.1475    0.1773 H   0  0  0  0  0  0  0  0  0  0  0  0
   -2.5598    3.1583    0.8898 H   0  0  0  0  0  0  0  0  0  0  0  0
    3.7479    0.7977   -1.2151 N   0  0  0  0  0  0  0  0  0  0  0  0
    4.8186    0.7637   -1.4875 N   0  0  0  0  0  0  0  0  0  0  0  0
   -4.0883    1.1488    1.0686 O   0  0  0  0  0  0  0  0  0  0  0  0
   -4.9438   -0.0069    1.1812 C   0  0  0  0  0  0  0  0  0  0  0  0
   -5.8904    0.3738    1.5603 H   0  0  0  0  0  0  0  0  0  0  0  0
   -4.5224   -0.7291    1.8868 H   0  0  0  0  0  0  0  0  0  0  0  0
   -5.0961   -0.4650    0.1980 H   0  0  0  0  0  0  0  0  0  0  0  0
  1  6  2  0  0  0  0
  2  1  1  0  0  0  0
  3  2  2  0  0  0  0
  3  4  1  0  0  0  0
  4  5  2  0  0  0  0
  5  6  1  0  0  0  0
  5 10  1  0  0  0  0
  6 13  1  0  0  0  0
  7  1  1  0  0  0  0
  8  2  1  0  0  0  0
  9  4  1  0  0  0  0
 12 11  3  0  0  0  0
 13 14  1  0  0  0  0
 14 15  1  0  0  0  0
 14 16  1  0  0  0  0
 17 14  1  0  0  0  0
M  RAD  1   3   2
M  END
