Coordinates from ORCA-job 4-CH3O-Ph-N2+-scan-d090-169-n800
 OpenBabel09191814063D

 17 16  0  0  0  0  0  0  0  0999 V2000
   -2.8081   -0.1617    0.2418 C   0  0  0  0  0  0  0  0  0  0  0  0
   -1.4799   -0.1617   -0.2514 C   0  0  0  0  0  0  0  0  0  0  0  0
   -1.0824    1.1169   -0.3035 C   0  0  0  0  0  0  0  0  0  0  0  0
   -1.3140    2.3132    0.2614 C   0  0  0  0  0  0  0  0  0  0  0  0
   -2.6352    2.2432    0.7511 C   0  0  0  0  0  0  0  0  0  0  0  0
   -3.3735    1.0267    0.7636 C   0  0  0  0  0  0  0  0  0  0  0  0
   -3.3573   -1.0958    0.1951 H   0  0  0  0  0  0  0  0  0  0  0  0
   -0.9538   -1.0490   -0.5864 H   0  0  0  0  0  0  0  0  0  0  0  0
   -0.7302    3.2255    0.2165 H   0  0  0  0  0  0  0  0  0  0  0  0
   -3.1181    3.1661    1.0628 H   0  0  0  0  0  0  0  0  0  0  0  0
    7.7377    0.6651   -2.0877 N   0  0  0  0  0  0  0  0  0  0  0  0
    8.8137    0.6328   -2.3395 N   0  0  0  0  0  0  0  0  0  0  0  0
   -4.5930    1.1212    1.2770 O   0  0  0  0  0  0  0  0  0  0  0  0
   -5.4201   -0.0538    1.4076 C   0  0  0  0  0  0  0  0  0  0  0  0
   -6.3500    0.2990    1.8496 H   0  0  0  0  0  0  0  0  0  0  0  0
   -4.9457   -0.7849    2.0689 H   0  0  0  0  0  0  0  0  0  0  0  0
   -5.6197   -0.4895    0.4227 H   0  0  0  0  0  0  0  0  0  0  0  0
  1  6  2  0  0  0  0
  2  1  1  0  0  0  0
  3  2  2  0  0  0  0
  3  4  1  0  0  0  0
  4  5  2  0  0  0  0
  5  6  1  0  0  0  0
  5 10  1  0  0  0  0
  6 13  1  0  0  0  0
  7  1  1  0  0  0  0
  8  2  1  0  0  0  0
  9  4  1  0  0  0  0
 12 11  3  0  0  0  0
 13 14  1  0  0  0  0
 14 15  1  0  0  0  0
 14 16  1  0  0  0  0
 17 14  1  0  0  0  0
M  RAD  1   3   2
M  END
