Coordinates from ORCA-job 4-CH3O-Ph-N2+-scan-d090-169-n800
 OpenBabel09191814063D

 17 16  0  0  0  0  0  0  0  0999 V2000
   -3.5793    0.0171   -0.0090 C   0  0  0  0  0  0  0  0  0  0  0  0
   -2.6415    0.2679   -1.0407 C   0  0  0  0  0  0  0  0  0  0  0  0
   -2.3979    1.5861   -1.0371 C   0  0  0  0  0  0  0  0  0  0  0  0
   -2.4096    2.6535   -0.2216 C   0  0  0  0  0  0  0  0  0  0  0  0
   -3.3388    2.3356    0.7914 C   0  0  0  0  0  0  0  0  0  0  0  0
   -3.9066    1.0367    0.9171 C   0  0  0  0  0  0  0  0  0  0  0  0
   -4.0251   -0.9707    0.0315 H   0  0  0  0  0  0  0  0  0  0  0  0
   -2.2775   -0.4852   -1.7310 H   0  0  0  0  0  0  0  0  0  0  0  0
   -1.9743    3.6365   -0.3601 H   0  0  0  0  0  0  0  0  0  0  0  0
   -3.6767    3.1332    1.4485 H   0  0  0  0  0  0  0  0  0  0  0  0
   12.2372    0.2300   -2.3612 N   0  0  0  0  0  0  0  0  0  0  0  0
   13.3299    0.1594   -2.5130 N   0  0  0  0  0  0  0  0  0  0  0  0
   -4.7451    0.8923    1.9348 O   0  0  0  0  0  0  0  0  0  0  0  0
   -5.3384   -0.3934    2.2117 C   0  0  0  0  0  0  0  0  0  0  0  0
   -5.9723   -0.2340    3.0820 H   0  0  0  0  0  0  0  0  0  0  0  0
   -4.5643   -1.1309    2.4431 H   0  0  0  0  0  0  0  0  0  0  0  0
   -5.9490   -0.7207    1.3633 H   0  0  0  0  0  0  0  0  0  0  0  0
  1  7  1  0  0  0  0
  1  6  2  0  0  0  0
  2  3  2  0  0  0  0
  2  1  1  0  0  0  0
  3  4  1  0  0  0  0
  4  5  2  0  0  0  0
  5  6  1  0  0  0  0
  5 10  1  0  0  0  0
  6 13  1  0  0  0  0
  8  2  1  0  0  0  0
  9  4  1  0  0  0  0
 12 11  3  0  0  0  0
 13 14  1  0  0  0  0
 14 16  1  0  0  0  0
 14 15  1  0  0  0  0
 17 14  1  0  0  0  0
M  RAD  1   3   2
M  END
