Coordinates from ORCA-job 4-CH3O-Ph-N2+-scan-d090-169-n800
 OpenBabel09191814063D

 17 16  0  0  0  0  0  0  0  0999 V2000
   -3.2415   -0.1119    0.1997 C   0  0  0  0  0  0  0  0  0  0  0  0
   -1.9985   -0.0481   -0.4776 C   0  0  0  0  0  0  0  0  0  0  0  0
   -1.6384    1.2424   -0.5123 C   0  0  0  0  0  0  0  0  0  0  0  0
   -1.8097    2.3997    0.1475 C   0  0  0  0  0  0  0  0  0  0  0  0
   -3.0450    2.2660    0.8161 C   0  0  0  0  0  0  0  0  0  0  0  0
   -3.7493    1.0304    0.8641 C   0  0  0  0  0  0  0  0  0  0  0  0
   -3.7728   -1.0571    0.1788 H   0  0  0  0  0  0  0  0  0  0  0  0
   -1.5081   -0.9008   -0.9341 H   0  0  0  0  0  0  0  0  0  0  0  0
   -1.2569    3.3291    0.0723 H   0  0  0  0  0  0  0  0  0  0  0  0
   -3.4965    3.1568    1.2460 H   0  0  0  0  0  0  0  0  0  0  0  0
   10.6718    0.5410   -2.5325 N   0  0  0  0  0  0  0  0  0  0  0  0
   11.7538    0.4997   -2.7550 N   0  0  0  0  0  0  0  0  0  0  0  0
   -4.8838    1.0630    1.5510 O   0  0  0  0  0  0  0  0  0  0  0  0
   -5.6599   -0.1399    1.7305 C   0  0  0  0  0  0  0  0  0  0  0  0
   -6.5234    0.1625    2.3200 H   0  0  0  0  0  0  0  0  0  0  0  0
   -5.0809   -0.8921    2.2745 H   0  0  0  0  0  0  0  0  0  0  0  0
   -5.9904   -0.5273    0.7608 H   0  0  0  0  0  0  0  0  0  0  0  0
  1  6  2  0  0  0  0
  2  1  1  0  0  0  0
  3  2  2  0  0  0  0
  3  4  1  0  0  0  0
  4  5  2  0  0  0  0
  5  6  1  0  0  0  0
  5 10  1  0  0  0  0
  6 13  1  0  0  0  0
  7  1  1  0  0  0  0
  8  2  1  0  0  0  0
  9  4  1  0  0  0  0
 12 11  3  0  0  0  0
 13 14  1  0  0  0  0
 14 16  1  0  0  0  0
 14 15  1  0  0  0  0
 17 14  1  0  0  0  0
M  RAD  1   3   2
M  END
