Coordinates from ORCA-job 4-CH3O-Ph-N2+-scan-d090-169-n800
 OpenBabel09191814063D

 17 16  0  0  0  0  0  0  0  0999 V2000
   -3.2150   -0.1184    0.2100 C   0  0  0  0  0  0  0  0  0  0  0  0
   -1.9604   -0.0638   -0.4462 C   0  0  0  0  0  0  0  0  0  0  0  0
   -1.5946    1.2250   -0.4830 C   0  0  0  0  0  0  0  0  0  0  0  0
   -1.7728    2.3873    0.1663 C   0  0  0  0  0  0  0  0  0  0  0  0
   -3.0199    2.2626    0.8145 C   0  0  0  0  0  0  0  0  0  0  0  0
   -3.7297    1.0301    0.8583 C   0  0  0  0  0  0  0  0  0  0  0  0
   -3.7495   -1.0618    0.1860 H   0  0  0  0  0  0  0  0  0  0  0  0
   -1.4656   -0.9213   -0.8889 H   0  0  0  0  0  0  0  0  0  0  0  0
   -1.2152    3.3140    0.0947 H   0  0  0  0  0  0  0  0  0  0  0  0
   -3.4751    3.1579    1.2309 H   0  0  0  0  0  0  0  0  0  0  0  0
   10.5106    0.5568   -2.5237 N   0  0  0  0  0  0  0  0  0  0  0  0
   11.5919    0.5172   -2.7501 N   0  0  0  0  0  0  0  0  0  0  0  0
   -4.8757    1.0713    1.5254 O   0  0  0  0  0  0  0  0  0  0  0  0
   -5.6594   -0.1275    1.6993 C   0  0  0  0  0  0  0  0  0  0  0  0
   -6.5317    0.1820    2.2719 H   0  0  0  0  0  0  0  0  0  0  0  0
   -5.0927   -0.8783    2.2578 H   0  0  0  0  0  0  0  0  0  0  0  0
   -5.9748   -0.5198    0.7265 H   0  0  0  0  0  0  0  0  0  0  0  0
  1  6  2  0  0  0  0
  2  1  1  0  0  0  0
  3  2  2  0  0  0  0
  3  4  1  0  0  0  0
  4  5  2  0  0  0  0
  5  6  1  0  0  0  0
  5 10  1  0  0  0  0
  6 13  1  0  0  0  0
  7  1  1  0  0  0  0
  8  2  1  0  0  0  0
  9  4  1  0  0  0  0
 12 11  3  0  0  0  0
 13 14  1  0  0  0  0
 14 16  1  0  0  0  0
 14 15  1  0  0  0  0
 17 14  1  0  0  0  0
M  RAD  1   3   2
M  END
