Coordinates from ORCA-job 4-CH3O-Ph-N2+-scan-d090-169-n800
 OpenBabel09191814063D

 17 17  0  0  0  0  0  0  0  0999 V2000
   -1.9787   -0.2159    0.1713 C   0  0  0  0  0  0  0  0  0  0  0  0
   -0.6490   -0.2761   -0.2376 C   0  0  0  0  0  0  0  0  0  0  0  0
    0.0124    0.9362   -0.2225 C   0  0  0  0  0  0  0  0  0  0  0  0
   -0.4535    2.1919    0.1379 C   0  0  0  0  0  0  0  0  0  0  0  0
   -1.7789    2.2090    0.5379 C   0  0  0  0  0  0  0  0  0  0  0  0
   -2.5513    1.0186    0.5600 C   0  0  0  0  0  0  0  0  0  0  0  0
   -2.5587   -1.1301    0.1843 H   0  0  0  0  0  0  0  0  0  0  0  0
   -0.1831   -1.2059   -0.5407 H   0  0  0  0  0  0  0  0  0  0  0  0
    0.1560    3.0870    0.1127 H   0  0  0  0  0  0  0  0  0  0  0  0
   -2.2493    3.1376    0.8422 H   0  0  0  0  0  0  0  0  0  0  0  0
    1.6189    0.8789   -0.7139 N   0  0  0  0  0  0  0  0  0  0  0  0
    2.6785    0.8459   -1.0371 N   0  0  0  0  0  0  0  0  0  0  0  0
   -3.8080    1.1710    0.9633 O   0  0  0  0  0  0  0  0  0  0  0  0
   -4.6950    0.0384    1.0298 C   0  0  0  0  0  0  0  0  0  0  0  0
   -5.6434    0.4384    1.3843 H   0  0  0  0  0  0  0  0  0  0  0  0
   -4.3185   -0.7052    1.7394 H   0  0  0  0  0  0  0  0  0  0  0  0
   -4.8280   -0.4062    0.0385 H   0  0  0  0  0  0  0  0  0  0  0  0
  1  7  1  0  0  0  0
  1  6  2  0  0  0  0
  2  3  2  0  0  0  0
  2  1  1  0  0  0  0
  3  4  1  0  0  0  0
  4  5  2  0  0  0  0
  5  6  1  0  0  0  0
  5 10  1  0  0  0  0
  6 13  1  0  0  0  0
  8  2  1  0  0  0  0
  9  4  1  0  0  0  0
 11  3  1  0  0  0  0
 12 11  1  0  0  0  0
 13 14  1  0  0  0  0
 14 15  1  0  0  0  0
 14 16  1  0  0  0  0
 17 14  1  0  0  0  0
M  RAD  2  11   2  12   3
M  END
