Coordinates from ORCA-job 4-CH3O-Ph-N2+-scan-d090-169-n800
 OpenBabel09191814063D

 17 16  0  0  0  0  0  0  0  0999 V2000
   -2.8976   -0.1580    0.2485 C   0  0  0  0  0  0  0  0  0  0  0  0
   -1.5764   -0.1546   -0.2636 C   0  0  0  0  0  0  0  0  0  0  0  0
   -1.1806    1.1247   -0.3137 C   0  0  0  0  0  0  0  0  0  0  0  0
   -1.4047    2.3180    0.2607 C   0  0  0  0  0  0  0  0  0  0  0  0
   -2.7190    2.2440    0.7687 C   0  0  0  0  0  0  0  0  0  0  0  0
   -3.4563    1.0270    0.7847 C   0  0  0  0  0  0  0  0  0  0  0  0
   -3.4468   -1.0922    0.2047 H   0  0  0  0  0  0  0  0  0  0  0  0
   -1.0542   -1.0395   -0.6105 H   0  0  0  0  0  0  0  0  0  0  0  0
   -0.8220    3.2308    0.2131 H   0  0  0  0  0  0  0  0  0  0  0  0
   -3.1981    3.1647    1.0925 H   0  0  0  0  0  0  0  0  0  0  0  0
    8.3719    0.6558   -2.2145 N   0  0  0  0  0  0  0  0  0  0  0  0
    9.4483    0.6232   -2.4643 N   0  0  0  0  0  0  0  0  0  0  0  0
   -4.6687    1.1179    1.3157 O   0  0  0  0  0  0  0  0  0  0  0  0
   -5.4930   -0.0583    1.4512 C   0  0  0  0  0  0  0  0  0  0  0  0
   -6.4169    0.2913    1.9082 H   0  0  0  0  0  0  0  0  0  0  0  0
   -5.0091   -0.7929    2.1017 H   0  0  0  0  0  0  0  0  0  0  0  0
   -5.7063   -0.4886    0.4668 H   0  0  0  0  0  0  0  0  0  0  0  0
  1  6  2  0  0  0  0
  2  1  1  0  0  0  0
  3  2  2  0  0  0  0
  3  4  1  0  0  0  0
  4  5  2  0  0  0  0
  5  6  1  0  0  0  0
  5 10  1  0  0  0  0
  6 13  1  0  0  0  0
  7  1  1  0  0  0  0
  8  2  1  0  0  0  0
  9  4  1  0  0  0  0
 12 11  3  0  0  0  0
 13 14  1  0  0  0  0
 14 15  1  0  0  0  0
 14 16  1  0  0  0  0
 17 14  1  0  0  0  0
M  RAD  1   3   2
M  END
