Coordinates from ORCA-job 4-CH3O-Ph-N2+-scan-d090-169-n800
 OpenBabel09191814063D

 17 16  0  0  0  0  0  0  0  0999 V2000
   -3.6677    0.0593   -0.0706 C   0  0  0  0  0  0  0  0  0  0  0  0
   -2.8672    0.3741   -1.1956 C   0  0  0  0  0  0  0  0  0  0  0  0
   -2.6704    1.7003   -1.1797 C   0  0  0  0  0  0  0  0  0  0  0  0
   -2.6190    2.7422   -0.3330 C   0  0  0  0  0  0  0  0  0  0  0  0
   -3.4112    2.3620    0.7706 C   0  0  0  0  0  0  0  0  0  0  0  0
   -3.9170    1.0399    0.9198 C   0  0  0  0  0  0  0  0  0  0  0  0
   -4.0718   -0.9453   -0.0093 H   0  0  0  0  0  0  0  0  0  0  0  0
   -2.5603   -0.3451   -1.9471 H   0  0  0  0  0  0  0  0  0  0  0  0
   -2.2364    3.7443   -0.4898 H   0  0  0  0  0  0  0  0  0  0  0  0
   -3.6965    3.1277    1.4879 H   0  0  0  0  0  0  0  0  0  0  0  0
   12.4883    0.1168   -2.2402 N   0  0  0  0  0  0  0  0  0  0  0  0
   13.5831    0.0381   -2.3710 N   0  0  0  0  0  0  0  0  0  0  0  0
   -4.6239    0.8365    2.0235 O   0  0  0  0  0  0  0  0  0  0  0  0
   -5.1381   -0.4772    2.3266 C   0  0  0  0  0  0  0  0  0  0  0  0
   -5.6701   -0.3651    3.2695 H   0  0  0  0  0  0  0  0  0  0  0  0
   -4.3183   -1.1921    2.4427 H   0  0  0  0  0  0  0  0  0  0  0  0
   -5.8330   -0.8028    1.5452 H   0  0  0  0  0  0  0  0  0  0  0  0
  1  7  1  0  0  0  0
  1  6  2  0  0  0  0
  2  3  2  0  0  0  0
  2  1  1  0  0  0  0
  3  4  1  0  0  0  0
  4  5  2  0  0  0  0
  5  6  1  0  0  0  0
  5 10  1  0  0  0  0
  6 13  1  0  0  0  0
  8  2  1  0  0  0  0
  9  4  1  0  0  0  0
 12 11  3  0  0  0  0
 13 14  1  0  0  0  0
 14 16  1  0  0  0  0
 14 15  1  0  0  0  0
 17 14  1  0  0  0  0
M  RAD  1   3   2
M  END
