Coordinates from ORCA-job 4-CH3O-Ph-N2+-scan-d090-169-n800
 OpenBabel09191814063D

 17 16  0  0  0  0  0  0  0  0999 V2000
   -3.0125   -0.1504    0.2494 C   0  0  0  0  0  0  0  0  0  0  0  0
   -1.7047   -0.1378   -0.2953 C   0  0  0  0  0  0  0  0  0  0  0  0
   -1.3135    1.1430   -0.3432 C   0  0  0  0  0  0  0  0  0  0  0  0
   -1.5261    2.3293    0.2495 C   0  0  0  0  0  0  0  0  0  0  0  0
   -2.8269    2.2469    0.7895 C   0  0  0  0  0  0  0  0  0  0  0  0
   -3.5605    1.0277    0.8117 C   0  0  0  0  0  0  0  0  0  0  0  0
   -3.5603   -1.0856    0.2097 H   0  0  0  0  0  0  0  0  0  0  0  0
   -1.1893   -1.0178   -0.6645 H   0  0  0  0  0  0  0  0  0  0  0  0
   -0.9474    3.2445    0.1960 H   0  0  0  0  0  0  0  0  0  0  0  0
   -3.3000    3.1631    1.1342 H   0  0  0  0  0  0  0  0  0  0  0  0
    9.1745    0.6359   -2.3604 N   0  0  0  0  0  0  0  0  0  0  0  0
   10.2519    0.6028   -2.6058 N   0  0  0  0  0  0  0  0  0  0  0  0
   -4.7591    1.1098    1.3740 O   0  0  0  0  0  0  0  0  0  0  0  0
   -5.5770   -0.0700    1.5184 C   0  0  0  0  0  0  0  0  0  0  0  0
   -6.4899    0.2726    2.0020 H   0  0  0  0  0  0  0  0  0  0  0  0
   -5.0749   -0.8097    2.1490 H   0  0  0  0  0  0  0  0  0  0  0  0
   -5.8139   -0.4910    0.5354 H   0  0  0  0  0  0  0  0  0  0  0  0
  1  6  2  0  0  0  0
  2  1  1  0  0  0  0
  3  2  2  0  0  0  0
  3  4  1  0  0  0  0
  4  5  2  0  0  0  0
  5  6  1  0  0  0  0
  5 10  1  0  0  0  0
  6 13  1  0  0  0  0
  7  1  1  0  0  0  0
  8  2  1  0  0  0  0
  9  4  1  0  0  0  0
 12 11  3  0  0  0  0
 13 14  1  0  0  0  0
 14 15  1  0  0  0  0
 14 16  1  0  0  0  0
 17 14  1  0  0  0  0
M  RAD  1   3   2
M  END
