Coordinates from ORCA-job 4-CH3O-Ph-N2+-scan-d090-169-n800
 OpenBabel09191814063D

 17 16  0  0  0  0  0  0  0  0999 V2000
   -2.0683   -0.2078    0.1995 C   0  0  0  0  0  0  0  0  0  0  0  0
   -0.7110   -0.2900   -0.2216 C   0  0  0  0  0  0  0  0  0  0  0  0
   -0.2204    0.9476   -0.1510 C   0  0  0  0  0  0  0  0  0  0  0  0
   -0.5191    2.2157    0.1616 C   0  0  0  0  0  0  0  0  0  0  0  0
   -1.8726    2.2084    0.5659 C   0  0  0  0  0  0  0  0  0  0  0  0
   -2.6443    1.0208    0.5882 C   0  0  0  0  0  0  0  0  0  0  0  0
   -2.6259   -1.1379    0.2030 H   0  0  0  0  0  0  0  0  0  0  0  0
   -0.2253   -1.2073   -0.5284 H   0  0  0  0  0  0  0  0  0  0  0  0
    0.1043    3.0999    0.1304 H   0  0  0  0  0  0  0  0  0  0  0  0
   -2.3211    3.1515    0.8661 H   0  0  0  0  0  0  0  0  0  0  0  0
    2.2676    0.8723   -0.9093 N   0  0  0  0  0  0  0  0  0  0  0  0
    3.3240    0.8433   -1.2306 N   0  0  0  0  0  0  0  0  0  0  0  0
   -3.9056    1.1730    0.9929 O   0  0  0  0  0  0  0  0  0  0  0  0
   -4.7784    0.0309    1.0536 C   0  0  0  0  0  0  0  0  0  0  0  0
   -5.7331    0.4163    1.4074 H   0  0  0  0  0  0  0  0  0  0  0  0
   -4.3952   -0.7113    1.7621 H   0  0  0  0  0  0  0  0  0  0  0  0
   -4.9052   -0.4120    0.0599 H   0  0  0  0  0  0  0  0  0  0  0  0
  1  7  1  0  0  0  0
  1  6  2  0  0  0  0
  2  3  2  0  0  0  0
  2  1  1  0  0  0  0
  3  4  1  0  0  0  0
  4  5  2  0  0  0  0
  5  6  1  0  0  0  0
  5 10  1  0  0  0  0
  6 13  1  0  0  0  0
  8  2  1  0  0  0  0
  9  4  1  0  0  0  0
 12 11  3  0  0  0  0
 13 14  1  0  0  0  0
 14 15  1  0  0  0  0
 14 16  1  0  0  0  0
 17 14  1  0  0  0  0
M  RAD  1   3   2
M  END
