Coordinates from ORCA-job 4-CH3O-Ph-N2+-scan-d090-169-n800
 OpenBabel09191814063D

 17 17  0  0  0  0  0  0  0  0999 V2000
   -1.9879   -0.2141    0.1744 C   0  0  0  0  0  0  0  0  0  0  0  0
   -0.6536   -0.2788   -0.2367 C   0  0  0  0  0  0  0  0  0  0  0  0
   -0.0205    0.9375   -0.2124 C   0  0  0  0  0  0  0  0  0  0  0  0
   -0.4578    2.1956    0.1398 C   0  0  0  0  0  0  0  0  0  0  0  0
   -1.7880    2.2084    0.5406 C   0  0  0  0  0  0  0  0  0  0  0  0
   -2.5601    1.0192    0.5627 C   0  0  0  0  0  0  0  0  0  0  0  0
   -2.5653   -1.1301    0.1863 H   0  0  0  0  0  0  0  0  0  0  0  0
   -0.1852   -1.2067   -0.5402 H   0  0  0  0  0  0  0  0  0  0  0  0
    0.1538    3.0887    0.1137 H   0  0  0  0  0  0  0  0  0  0  0  0
   -2.2554    3.1391    0.8442 H   0  0  0  0  0  0  0  0  0  0  0  0
    1.6818    0.8776   -0.7329 N   0  0  0  0  0  0  0  0  0  0  0  0
    2.7394    0.8451   -1.0555 N   0  0  0  0  0  0  0  0  0  0  0  0
   -3.8186    1.1724    0.9667 O   0  0  0  0  0  0  0  0  0  0  0  0
   -4.7019    0.0380    1.0318 C   0  0  0  0  0  0  0  0  0  0  0  0
   -5.6520    0.4343    1.3861 H   0  0  0  0  0  0  0  0  0  0  0  0
   -4.3244   -0.7058    1.7409 H   0  0  0  0  0  0  0  0  0  0  0  0
   -4.8338   -0.4068    0.0402 H   0  0  0  0  0  0  0  0  0  0  0  0
  1  7  1  0  0  0  0
  1  6  2  0  0  0  0
  2  3  2  0  0  0  0
  2  1  1  0  0  0  0
  3  4  1  0  0  0  0
  4  5  2  0  0  0  0
  5  6  1  0  0  0  0
  5 10  1  0  0  0  0
  6 13  1  0  0  0  0
  8  2  1  0  0  0  0
  9  4  1  0  0  0  0
 11  3  1  0  0  0  0
 12 11  1  0  0  0  0
 13 14  1  0  0  0  0
 14 15  1  0  0  0  0
 14 16  1  0  0  0  0
 17 14  1  0  0  0  0
M  RAD  2  11   2  12   3
M  END
