Coordinates from ORCA-job 4-CH3O-Ph-N2+-scan-d090-169-n800
 OpenBabel09191814063D

 17 16  0  0  0  0  0  0  0  0999 V2000
   -2.3933   -0.1776    0.1860 C   0  0  0  0  0  0  0  0  0  0  0  0
   -1.0455   -0.1960   -0.2522 C   0  0  0  0  0  0  0  0  0  0  0  0
   -0.6377    1.0789   -0.3069 C   0  0  0  0  0  0  0  0  0  0  0  0
   -0.8850    2.2880    0.2226 C   0  0  0  0  0  0  0  0  0  0  0  0
   -2.2260    2.2346    0.6584 C   0  0  0  0  0  0  0  0  0  0  0  0
   -2.9721    1.0233    0.6618 C   0  0  0  0  0  0  0  0  0  0  0  0
   -2.9465   -1.1090    0.1329 H   0  0  0  0  0  0  0  0  0  0  0  0
   -0.5125   -1.0921   -0.5502 H   0  0  0  0  0  0  0  0  0  0  0  0
   -0.2924    3.1949    0.1869 H   0  0  0  0  0  0  0  0  0  0  0  0
   -2.7144    3.1657    0.9351 H   0  0  0  0  0  0  0  0  0  0  0  0
    4.7014    0.7248   -1.4215 N   0  0  0  0  0  0  0  0  0  0  0  0
    5.7750    0.6862   -1.6818 N   0  0  0  0  0  0  0  0  0  0  0  0
   -4.2120    1.1343    1.1216 O   0  0  0  0  0  0  0  0  0  0  0  0
   -5.0508   -0.0335    1.2379 C   0  0  0  0  0  0  0  0  0  0  0  0
   -5.9962    0.3320    1.6347 H   0  0  0  0  0  0  0  0  0  0  0  0
   -4.6091   -0.7557    1.9309 H   0  0  0  0  0  0  0  0  0  0  0  0
   -5.2124   -0.4854    0.2533 H   0  0  0  0  0  0  0  0  0  0  0  0
  1  6  2  0  0  0  0
  2  1  1  0  0  0  0
  3  2  2  0  0  0  0
  3  4  1  0  0  0  0
  4  5  2  0  0  0  0
  5  6  1  0  0  0  0
  5 10  1  0  0  0  0
  6 13  1  0  0  0  0
  7  1  1  0  0  0  0
  8  2  1  0  0  0  0
  9  4  1  0  0  0  0
 12 11  3  0  0  0  0
 13 14  1  0  0  0  0
 14 15  1  0  0  0  0
 14 16  1  0  0  0  0
 17 14  1  0  0  0  0
M  RAD  1   3   2
M  END
