Coordinates from ORCA-job 4-CH3O-Ph-N2+-scan-d090-169-n800
 OpenBabel09191814063D

 17 16  0  0  0  0  0  0  0  0999 V2000
   -2.3626   -0.1809    0.1818 C   0  0  0  0  0  0  0  0  0  0  0  0
   -1.0134   -0.2036   -0.2522 C   0  0  0  0  0  0  0  0  0  0  0  0
   -0.6022    1.0701   -0.3072 C   0  0  0  0  0  0  0  0  0  0  0  0
   -0.8482    2.2808    0.2189 C   0  0  0  0  0  0  0  0  0  0  0  0
   -2.1908    2.2316    0.6505 C   0  0  0  0  0  0  0  0  0  0  0  0
   -2.9399    1.0222    0.6537 C   0  0  0  0  0  0  0  0  0  0  0  0
   -2.9179   -1.1110    0.1287 H   0  0  0  0  0  0  0  0  0  0  0  0
   -0.4817   -1.1015   -0.5471 H   0  0  0  0  0  0  0  0  0  0  0  0
   -0.2531    3.1861    0.1835 H   0  0  0  0  0  0  0  0  0  0  0  0
   -2.6776    3.1644    0.9243 H   0  0  0  0  0  0  0  0  0  0  0  0
    4.4626    0.7387   -1.3681 N   0  0  0  0  0  0  0  0  0  0  0  0
    5.5358    0.7003   -1.6302 N   0  0  0  0  0  0  0  0  0  0  0  0
   -4.1810    1.1370    1.1094 O   0  0  0  0  0  0  0  0  0  0  0  0
   -5.0230   -0.0285    1.2248 C   0  0  0  0  0  0  0  0  0  0  0  0
   -5.9687    0.3400    1.6180 H   0  0  0  0  0  0  0  0  0  0  0  0
   -4.5853   -0.7506    1.9204 H   0  0  0  0  0  0  0  0  0  0  0  0
   -5.1826   -0.4816    0.2405 H   0  0  0  0  0  0  0  0  0  0  0  0
  1  6  2  0  0  0  0
  2  1  1  0  0  0  0
  3  2  2  0  0  0  0
  3  4  1  0  0  0  0
  4  5  2  0  0  0  0
  5  6  1  0  0  0  0
  5 10  1  0  0  0  0
  6 13  1  0  0  0  0
  7  1  1  0  0  0  0
  8  2  1  0  0  0  0
  9  4  1  0  0  0  0
 12 11  3  0  0  0  0
 13 14  1  0  0  0  0
 14 15  1  0  0  0  0
 14 16  1  0  0  0  0
 17 14  1  0  0  0  0
M  RAD  1   3   2
M  END
