Coordinates from ORCA-job 4-CH3O-Ph-N2+-scan-d090-169-n800
 OpenBabel09191814063D

 17 16  0  0  0  0  0  0  0  0999 V2000
   -3.2872   -0.0992    0.1794 C   0  0  0  0  0  0  0  0  0  0  0  0
   -2.0675   -0.0176   -0.5371 C   0  0  0  0  0  0  0  0  0  0  0  0
   -1.7184    1.2760   -0.5682 C   0  0  0  0  0  0  0  0  0  0  0  0
   -1.8765    2.4239    0.1111 C   0  0  0  0  0  0  0  0  0  0  0  0
   -3.0883    2.2727    0.8179 C   0  0  0  0  0  0  0  0  0  0  0  0
   -3.7814    1.0311    0.8738 C   0  0  0  0  0  0  0  0  0  0  0  0
   -3.8118   -1.0483    0.1645 H   0  0  0  0  0  0  0  0  0  0  0  0
   -1.5858   -0.8609   -1.0196 H   0  0  0  0  0  0  0  0  0  0  0  0
   -1.3334    3.3584    0.0292 H   0  0  0  0  0  0  0  0  0  0  0  0
   -3.5321    3.1547    1.2730 H   0  0  0  0  0  0  0  0  0  0  0  0
   10.9409    0.5107   -2.5409 N   0  0  0  0  0  0  0  0  0  0  0  0
   12.0243    0.4659   -2.7560 N   0  0  0  0  0  0  0  0  0  0  0  0
   -4.8931    1.0467    1.5977 O   0  0  0  0  0  0  0  0  0  0  0  0
   -5.6540   -0.1643    1.7878 C   0  0  0  0  0  0  0  0  0  0  0  0
   -6.5000    0.1244    2.4088 H   0  0  0  0  0  0  0  0  0  0  0  0
   -5.0520   -0.9183    2.3035 H   0  0  0  0  0  0  0  0  0  0  0  0
   -6.0132   -0.5427    0.8248 H   0  0  0  0  0  0  0  0  0  0  0  0
  1  6  2  0  0  0  0
  2  1  1  0  0  0  0
  3  2  2  0  0  0  0
  3  4  1  0  0  0  0
  4  5  2  0  0  0  0
  5  6  1  0  0  0  0
  5 10  1  0  0  0  0
  6 13  1  0  0  0  0
  7  1  1  0  0  0  0
  8  2  1  0  0  0  0
  9  4  1  0  0  0  0
 12 11  3  0  0  0  0
 13 14  1  0  0  0  0
 14 16  1  0  0  0  0
 14 15  1  0  0  0  0
 17 14  1  0  0  0  0
M  RAD  1   3   2
M  END
