Coordinates from ORCA-job 4-CH3O-Ph-N2+-scan-d090-169-n800
 OpenBabel09191814063D

 17 16  0  0  0  0  0  0  0  0999 V2000
   -2.5225   -0.1691    0.2054 C   0  0  0  0  0  0  0  0  0  0  0  0
   -1.1798   -0.1770   -0.2479 C   0  0  0  0  0  0  0  0  0  0  0  0
   -0.7799    1.1007   -0.3014 C   0  0  0  0  0  0  0  0  0  0  0  0
   -1.0276    2.3049    0.2391 C   0  0  0  0  0  0  0  0  0  0  0  0
   -2.3633    2.2415    0.6897 C   0  0  0  0  0  0  0  0  0  0  0  0
   -3.1025    1.0258    0.6948 C   0  0  0  0  0  0  0  0  0  0  0  0
   -3.0711   -1.1033    0.1535 H   0  0  0  0  0  0  0  0  0  0  0  0
   -0.6450   -1.0685   -0.5564 H   0  0  0  0  0  0  0  0  0  0  0  0
   -0.4411    3.2157    0.2015 H   0  0  0  0  0  0  0  0  0  0  0  0
   -2.8541    3.1683    0.9764 H   0  0  0  0  0  0  0  0  0  0  0  0
    5.6768    0.6896   -1.6417 N   0  0  0  0  0  0  0  0  0  0  0  0
    6.7515    0.6535   -1.8980 N   0  0  0  0  0  0  0  0  0  0  0  0
   -4.3374    1.1272    1.1695 O   0  0  0  0  0  0  0  0  0  0  0  0
   -5.1686   -0.0458    1.2892 C   0  0  0  0  0  0  0  0  0  0  0  0
   -6.1112    0.3124    1.6987 H   0  0  0  0  0  0  0  0  0  0  0  0
   -4.7150   -0.7691    1.9732 H   0  0  0  0  0  0  0  0  0  0  0  0
   -5.3388   -0.4933    0.3041 H   0  0  0  0  0  0  0  0  0  0  0  0
  1  6  2  0  0  0  0
  2  1  1  0  0  0  0
  3  2  2  0  0  0  0
  3  4  1  0  0  0  0
  4  5  2  0  0  0  0
  5  6  1  0  0  0  0
  5 10  1  0  0  0  0
  6 13  1  0  0  0  0
  7  1  1  0  0  0  0
  8  2  1  0  0  0  0
  9  4  1  0  0  0  0
 12 11  3  0  0  0  0
 13 14  1  0  0  0  0
 14 15  1  0  0  0  0
 14 16  1  0  0  0  0
 17 14  1  0  0  0  0
M  RAD  1   3   2
M  END
