Coordinates from ORCA-job 4-CH3O-Ph-N2+-scan-d090-169-n800
 OpenBabel09191814063D

 17 16  0  0  0  0  0  0  0  0999 V2000
   -3.5259   -0.0080    0.0301 C   0  0  0  0  0  0  0  0  0  0  0  0
   -2.5162    0.2051   -0.9405 C   0  0  0  0  0  0  0  0  0  0  0  0
   -2.2476    1.5183   -0.9440 C   0  0  0  0  0  0  0  0  0  0  0  0
   -2.2944    2.6021   -0.1518 C   0  0  0  0  0  0  0  0  0  0  0  0
   -3.2955    2.3210    0.8019 C   0  0  0  0  0  0  0  0  0  0  0  0
   -3.8953    1.0353    0.9128 C   0  0  0  0  0  0  0  0  0  0  0  0
   -3.9926   -0.9866    0.0583 H   0  0  0  0  0  0  0  0  0  0  0  0
   -2.1219   -0.5680   -1.5908 H   0  0  0  0  0  0  0  0  0  0  0  0
   -1.8319    3.5742   -0.2788 H   0  0  0  0  0  0  0  0  0  0  0  0
   -3.6612    3.1374    1.4198 H   0  0  0  0  0  0  0  0  0  0  0  0
   12.0609    0.2933   -2.4242 N   0  0  0  0  0  0  0  0  0  0  0  0
   13.1521    0.2277   -2.5889 N   0  0  0  0  0  0  0  0  0  0  0  0
   -4.8031    0.9261    1.8740 O   0  0  0  0  0  0  0  0  0  0  0  0
   -5.4383   -0.3431    2.1335 C   0  0  0  0  0  0  0  0  0  0  0  0
   -6.1262   -0.1554    2.9559 H   0  0  0  0  0  0  0  0  0  0  0  0
   -4.6959   -1.0898    2.4304 H   0  0  0  0  0  0  0  0  0  0  0  0
   -5.9966   -0.6761    1.2520 H   0  0  0  0  0  0  0  0  0  0  0  0
  1  7  1  0  0  0  0
  1  6  2  0  0  0  0
  2  1  1  0  0  0  0
  3  2  2  0  0  0  0
  3  4  1  0  0  0  0
  4  5  2  0  0  0  0
  5  6  1  0  0  0  0
  5 10  1  0  0  0  0
  6 13  1  0  0  0  0
  8  2  1  0  0  0  0
  9  4  1  0  0  0  0
 12 11  3  0  0  0  0
 13 14  1  0  0  0  0
 14 16  1  0  0  0  0
 14 15  1  0  0  0  0
 17 14  1  0  0  0  0
M  RAD  1   3   2
M  END
