Coordinates from ORCA-job 4-CH3O-Ph-N2+-scan-d090-169-n800
 OpenBabel09191814063D

 17 16  0  0  0  0  0  0  0  0999 V2000
   -3.3172   -0.0901    0.1647 C   0  0  0  0  0  0  0  0  0  0  0  0
   -2.1151    0.0046   -0.5793 C   0  0  0  0  0  0  0  0  0  0  0  0
   -1.7741    1.3004   -0.6079 C   0  0  0  0  0  0  0  0  0  0  0  0
   -1.9225    2.4417    0.0849 C   0  0  0  0  0  0  0  0  0  0  0  0
   -3.1166    2.2776    0.8184 C   0  0  0  0  0  0  0  0  0  0  0  0
   -3.8014    1.0316    0.8800 C   0  0  0  0  0  0  0  0  0  0  0  0
   -3.8367   -1.0420    0.1541 H   0  0  0  0  0  0  0  0  0  0  0  0
   -1.6400   -0.8319   -1.0799 H   0  0  0  0  0  0  0  0  0  0  0  0
   -1.3867    3.3799   -0.0018 H   0  0  0  0  0  0  0  0  0  0  0  0
   -3.5546    3.1532    1.2911 H   0  0  0  0  0  0  0  0  0  0  0  0
   11.1115    0.4887   -2.5420 N   0  0  0  0  0  0  0  0  0  0  0  0
   12.1958    0.4414   -2.7520 N   0  0  0  0  0  0  0  0  0  0  0  0
   -4.8958    1.0348    1.6297 O   0  0  0  0  0  0  0  0  0  0  0  0
   -5.6454   -0.1820    1.8273 C   0  0  0  0  0  0  0  0  0  0  0  0
   -6.4782    0.0967    2.4702 H   0  0  0  0  0  0  0  0  0  0  0  0
   -5.0274   -0.9368    2.3225 H   0  0  0  0  0  0  0  0  0  0  0  0
   -6.0249   -0.5545    0.8698 H   0  0  0  0  0  0  0  0  0  0  0  0
  1  6  2  0  0  0  0
  2  1  1  0  0  0  0
  3  2  2  0  0  0  0
  3  4  1  0  0  0  0
  4  5  2  0  0  0  0
  5  6  1  0  0  0  0
  5 10  1  0  0  0  0
  6 13  1  0  0  0  0
  7  1  1  0  0  0  0
  8  2  1  0  0  0  0
  9  4  1  0  0  0  0
 12 11  3  0  0  0  0
 13 14  1  0  0  0  0
 14 16  1  0  0  0  0
 14 15  1  0  0  0  0
 17 14  1  0  0  0  0
M  RAD  1   3   2
M  END
