Coordinates from ORCA-job 4-CH3O-Ph-N2+-scan-d090-169-n800
 OpenBabel09191814063D

 17 16  0  0  0  0  0  0  0  0999 V2000
   -2.1977   -0.2065    0.1745 C   0  0  0  0  0  0  0  0  0  0  0  0
   -0.8379   -0.2665   -0.2253 C   0  0  0  0  0  0  0  0  0  0  0  0
   -0.3986    0.9962   -0.2768 C   0  0  0  0  0  0  0  0  0  0  0  0
   -0.6376    2.2232    0.2111 C   0  0  0  0  0  0  0  0  0  0  0  0
   -1.9918    2.2082    0.6086 C   0  0  0  0  0  0  0  0  0  0  0  0
   -2.7641    1.0146    0.6107 C   0  0  0  0  0  0  0  0  0  0  0  0
   -2.7699   -1.1262    0.1199 H   0  0  0  0  0  0  0  0  0  0  0  0
   -0.3203   -1.1790   -0.4986 H   0  0  0  0  0  0  0  0  0  0  0  0
   -0.0200    3.1132    0.1806 H   0  0  0  0  0  0  0  0  0  0  0  0
   -2.4639    3.1541    0.8622 H   0  0  0  0  0  0  0  0  0  0  0  0
    3.1679    0.8471   -1.1006 N   0  0  0  0  0  0  0  0  0  0  0  0
    4.2327    0.8202   -1.3954 N   0  0  0  0  0  0  0  0  0  0  0  0
   -4.0159    1.1602    1.0297 O   0  0  0  0  0  0  0  0  0  0  0  0
   -4.8816    0.0122    1.1379 C   0  0  0  0  0  0  0  0  0  0  0  0
   -5.8305    0.4025    1.5013 H   0  0  0  0  0  0  0  0  0  0  0  0
   -4.4761   -0.7087    1.8541 H   0  0  0  0  0  0  0  0  0  0  0  0
   -5.0242   -0.4516    0.1559 H   0  0  0  0  0  0  0  0  0  0  0  0
  1  6  2  0  0  0  0
  2  1  1  0  0  0  0
  3  2  2  0  0  0  0
  3  4  1  0  0  0  0
  4  5  2  0  0  0  0
  5  6  1  0  0  0  0
  5 10  1  0  0  0  0
  6 13  1  0  0  0  0
  7  1  1  0  0  0  0
  8  2  1  0  0  0  0
  9  4  1  0  0  0  0
 12 11  3  0  0  0  0
 13 14  1  0  0  0  0
 14 15  1  0  0  0  0
 14 16  1  0  0  0  0
 17 14  1  0  0  0  0
M  RAD  1   3   2
M  END
