Coordinates from ORCA-job 4-CH3O-Ph-N2+-scan-d090-169-n800
 OpenBabel09191814063D

 17 16  0  0  0  0  0  0  0  0999 V2000
   -2.1954   -0.2068    0.1748 C   0  0  0  0  0  0  0  0  0  0  0  0
   -0.8353   -0.2673   -0.2241 C   0  0  0  0  0  0  0  0  0  0  0  0
   -0.3956    0.9952   -0.2755 C   0  0  0  0  0  0  0  0  0  0  0  0
   -0.6348    2.2225    0.2115 C   0  0  0  0  0  0  0  0  0  0  0  0
   -1.9892    2.2079    0.6082 C   0  0  0  0  0  0  0  0  0  0  0  0
   -2.7618    1.0146    0.6101 C   0  0  0  0  0  0  0  0  0  0  0  0
   -2.7678   -1.1264    0.1202 H   0  0  0  0  0  0  0  0  0  0  0  0
   -0.3178   -1.1800   -0.4970 H   0  0  0  0  0  0  0  0  0  0  0  0
   -0.0169    3.1123    0.1812 H   0  0  0  0  0  0  0  0  0  0  0  0
   -2.4612    3.1540    0.8614 H   0  0  0  0  0  0  0  0  0  0  0  0
    3.1508    0.8483   -1.0977 N   0  0  0  0  0  0  0  0  0  0  0  0
    4.2152    0.8217   -1.3940 N   0  0  0  0  0  0  0  0  0  0  0  0
   -4.0139    1.1606    1.0282 O   0  0  0  0  0  0  0  0  0  0  0  0
   -4.8799    0.0128    1.1362 C   0  0  0  0  0  0  0  0  0  0  0  0
   -5.8290    0.4033    1.4989 H   0  0  0  0  0  0  0  0  0  0  0  0
   -4.4750   -0.7081    1.8529 H   0  0  0  0  0  0  0  0  0  0  0  0
   -5.0220   -0.4513    0.1542 H   0  0  0  0  0  0  0  0  0  0  0  0
  1  6  2  0  0  0  0
  2  1  1  0  0  0  0
  3  2  2  0  0  0  0
  3  4  1  0  0  0  0
  4  5  2  0  0  0  0
  5  6  1  0  0  0  0
  5 10  1  0  0  0  0
  6 13  1  0  0  0  0
  7  1  1  0  0  0  0
  8  2  1  0  0  0  0
  9  4  1  0  0  0  0
 12 11  3  0  0  0  0
 13 14  1  0  0  0  0
 14 15  1  0  0  0  0
 14 16  1  0  0  0  0
 17 14  1  0  0  0  0
M  RAD  1   3   2
M  END
