Coordinates from ORCA-job 4-CH3O-Ph-N2+-scan-d090-169-n800
 OpenBabel09191814063D

 17 16  0  0  0  0  0  0  0  0999 V2000
   -3.9065    0.1621   -0.1960 C   0  0  0  0  0  0  0  0  0  0  0  0
   -3.5592    0.6270   -1.4874 C   0  0  0  0  0  0  0  0  0  0  0  0
   -3.5087    1.9661   -1.4266 C   0  0  0  0  0  0  0  0  0  0  0  0
   -3.2809    2.9643   -0.5562 C   0  0  0  0  0  0  0  0  0  0  0  0
   -3.6208    2.4387    0.7078 C   0  0  0  0  0  0  0  0  0  0  0  0
   -3.9121    1.0583    0.9008 C   0  0  0  0  0  0  0  0  0  0  0  0
   -4.1606   -0.8869   -0.0914 H   0  0  0  0  0  0  0  0  0  0  0  0
   -3.4428   -0.0124   -2.3557 H   0  0  0  0  0  0  0  0  0  0  0  0
   -3.0765    4.0124   -0.7432 H   0  0  0  0  0  0  0  0  0  0  0  0
   -3.7304    3.1291    1.5407 H   0  0  0  0  0  0  0  0  0  0  0  0
   13.0013   -0.2207   -1.8532 N   0  0  0  0  0  0  0  0  0  0  0  0
   14.0994   -0.3179   -1.9360 N   0  0  0  0  0  0  0  0  0  0  0  0
   -4.1881    0.7189    2.1524 O   0  0  0  0  0  0  0  0  0  0  0  0
   -4.4370   -0.6608    2.4946 C   0  0  0  0  0  0  0  0  0  0  0  0
   -4.6366   -0.6580    3.5646 H   0  0  0  0  0  0  0  0  0  0  0  0
   -3.5563   -1.2732    2.2800 H   0  0  0  0  0  0  0  0  0  0  0  0
   -5.3137   -1.0338    1.9546 H   0  0  0  0  0  0  0  0  0  0  0  0
  1  7  1  0  0  0  0
  1  6  2  0  0  0  0
  2  3  2  0  0  0  0
  2  1  1  0  0  0  0
  3  4  1  0  0  0  0
  4  5  2  0  0  0  0
  5  6  1  0  0  0  0
  5 10  1  0  0  0  0
  6 13  1  0  0  0  0
  8  2  1  0  0  0  0
  9  4  1  0  0  0  0
 12 11  3  0  0  0  0
 13 14  1  0  0  0  0
 14 15  1  0  0  0  0
 16 14  1  0  0  0  0
 17 14  1  0  0  0  0
M  RAD  1   3   2
M  END
