Coordinates from ORCA-job 4-CH3O-Ph-N2+-scan-d090-169-n800
 OpenBabel09191814063D

 17 16  0  0  0  0  0  0  0  0999 V2000
   -2.3801   -0.1789    0.1841 C   0  0  0  0  0  0  0  0  0  0  0  0
   -1.0317   -0.1991   -0.2523 C   0  0  0  0  0  0  0  0  0  0  0  0
   -0.6225    1.0753   -0.3071 C   0  0  0  0  0  0  0  0  0  0  0  0
   -0.8693    2.2851    0.2210 C   0  0  0  0  0  0  0  0  0  0  0  0
   -2.2110    2.2334    0.6550 C   0  0  0  0  0  0  0  0  0  0  0  0
   -2.9583    1.0229    0.6583 C   0  0  0  0  0  0  0  0  0  0  0  0
   -2.9341   -1.1098    0.1310 H   0  0  0  0  0  0  0  0  0  0  0  0
   -0.4992   -1.0960   -0.5491 H   0  0  0  0  0  0  0  0  0  0  0  0
   -0.2757    3.1913    0.1854 H   0  0  0  0  0  0  0  0  0  0  0  0
   -2.6988    3.1652    0.9305 H   0  0  0  0  0  0  0  0  0  0  0  0
    4.5990    0.7304   -1.3985 N   0  0  0  0  0  0  0  0  0  0  0  0
    5.6725    0.6919   -1.6595 N   0  0  0  0  0  0  0  0  0  0  0  0
   -4.1987    1.1354    1.1164 O   0  0  0  0  0  0  0  0  0  0  0  0
   -5.0388   -0.0315    1.2324 C   0  0  0  0  0  0  0  0  0  0  0  0
   -5.9843    0.3352    1.6277 H   0  0  0  0  0  0  0  0  0  0  0  0
   -4.5988   -0.7536    1.9264 H   0  0  0  0  0  0  0  0  0  0  0  0
   -5.1995   -0.4839    0.2479 H   0  0  0  0  0  0  0  0  0  0  0  0
  1  6  2  0  0  0  0
  2  1  1  0  0  0  0
  3  2  2  0  0  0  0
  3  4  1  0  0  0  0
  4  5  2  0  0  0  0
  5  6  1  0  0  0  0
  5 10  1  0  0  0  0
  6 13  1  0  0  0  0
  7  1  1  0  0  0  0
  8  2  1  0  0  0  0
  9  4  1  0  0  0  0
 12 11  3  0  0  0  0
 13 14  1  0  0  0  0
 14 15  1  0  0  0  0
 14 16  1  0  0  0  0
 17 14  1  0  0  0  0
M  RAD  1   3   2
M  END
