Coordinates from ORCA-job 4-CH3O-Ph-N2+-scan-d090-169-n800
 OpenBabel09191814063D

 17 16  0  0  0  0  0  0  0  0999 V2000
   -3.9307    0.1712   -0.2035 C   0  0  0  0  0  0  0  0  0  0  0  0
   -3.6308    0.6453   -1.5038 C   0  0  0  0  0  0  0  0  0  0  0  0
   -3.5892    1.9838   -1.4357 C   0  0  0  0  0  0  0  0  0  0  0  0
   -3.3489    2.9817   -0.5690 C   0  0  0  0  0  0  0  0  0  0  0  0
   -3.6417    2.4454    0.7027 C   0  0  0  0  0  0  0  0  0  0  0  0
   -3.9104    1.0611    0.8975 C   0  0  0  0  0  0  0  0  0  0  0  0
   -4.1714   -0.8809   -0.0970 H   0  0  0  0  0  0  0  0  0  0  0  0
   -3.5376    0.0105   -2.3783 H   0  0  0  0  0  0  0  0  0  0  0  0
   -3.1651    4.0335   -0.7562 H   0  0  0  0  0  0  0  0  0  0  0  0
   -3.7330    3.1303    1.5422 H   0  0  0  0  0  0  0  0  0  0  0  0
   13.0567   -0.2534   -1.8164 N   0  0  0  0  0  0  0  0  0  0  0  0
   14.1549   -0.3523   -1.8955 N   0  0  0  0  0  0  0  0  0  0  0  0
   -4.1428    0.7120    2.1557 O   0  0  0  0  0  0  0  0  0  0  0  0
   -4.3660   -0.6721    2.4978 C   0  0  0  0  0  0  0  0  0  0  0  0
   -4.5298   -0.6774    3.5737 H   0  0  0  0  0  0  0  0  0  0  0  0
   -3.4869   -1.2742    2.2503 H   0  0  0  0  0  0  0  0  0  0  0  0
   -5.2566   -1.0512    1.9852 H   0  0  0  0  0  0  0  0  0  0  0  0
  1  7  1  0  0  0  0
  1  6  2  0  0  0  0
  2  3  2  0  0  0  0
  2  1  1  0  0  0  0
  3  4  1  0  0  0  0
  4  5  2  0  0  0  0
  5  6  1  0  0  0  0
  5 10  1  0  0  0  0
  6 13  1  0  0  0  0
  8  2  1  0  0  0  0
  9  4  1  0  0  0  0
 12 11  3  0  0  0  0
 13 14  1  0  0  0  0
 14 15  1  0  0  0  0
 16 14  1  0  0  0  0
 17 14  1  0  0  0  0
M  RAD  1   3   2
M  END
