Coordinates from ORCA-job 4-CH3O-Ph-N2+-scan-d090-169-n800
 OpenBabel09191814063D

 17 16  0  0  0  0  0  0  0  0999 V2000
   -2.4469   -0.1732    0.1938 C   0  0  0  0  0  0  0  0  0  0  0  0
   -1.1013   -0.1856   -0.2507 C   0  0  0  0  0  0  0  0  0  0  0  0
   -0.6980    1.0908   -0.3052 C   0  0  0  0  0  0  0  0  0  0  0  0
   -0.9462    2.2974    0.2298 C   0  0  0  0  0  0  0  0  0  0  0  0
   -2.2850    2.2385    0.6718 C   0  0  0  0  0  0  0  0  0  0  0  0
   -3.0272    1.0246    0.6758 C   0  0  0  0  0  0  0  0  0  0  0  0
   -2.9973   -1.1062    0.1413 H   0  0  0  0  0  0  0  0  0  0  0  0
   -0.5664   -1.0793   -0.5531 H   0  0  0  0  0  0  0  0  0  0  0  0
   -0.3571    3.2065    0.1933 H   0  0  0  0  0  0  0  0  0  0  0  0
   -2.7753    3.1673    0.9528 H   0  0  0  0  0  0  0  0  0  0  0  0
    5.1114    0.7059   -1.5142 N   0  0  0  0  0  0  0  0  0  0  0  0
    6.1856    0.6680   -1.7724 N   0  0  0  0  0  0  0  0  0  0  0  0
   -4.2649    1.1304    1.1421 O   0  0  0  0  0  0  0  0  0  0  0  0
   -5.0997   -0.0403    1.2596 C   0  0  0  0  0  0  0  0  0  0  0  0
   -6.0442    0.3214    1.6617 H   0  0  0  0  0  0  0  0  0  0  0  0
   -4.6524   -0.7627    1.9487 H   0  0  0  0  0  0  0  0  0  0  0  0
   -5.2645   -0.4902    0.2747 H   0  0  0  0  0  0  0  0  0  0  0  0
  1  6  2  0  0  0  0
  2  1  1  0  0  0  0
  3  2  2  0  0  0  0
  3  4  1  0  0  0  0
  4  5  2  0  0  0  0
  5  6  1  0  0  0  0
  5 10  1  0  0  0  0
  6 13  1  0  0  0  0
  7  1  1  0  0  0  0
  8  2  1  0  0  0  0
  9  4  1  0  0  0  0
 12 11  3  0  0  0  0
 13 14  1  0  0  0  0
 14 15  1  0  0  0  0
 14 16  1  0  0  0  0
 17 14  1  0  0  0  0
M  RAD  1   3   2
M  END
