Coordinates from ORCA-job 4-CH3O-Ph-N2+-scan-d090-169-n800
 OpenBabel09191814063D

 17 16  0  0  0  0  0  0  0  0999 V2000
   -2.7912   -0.1622    0.2402 C   0  0  0  0  0  0  0  0  0  0  0  0
   -1.4619   -0.1630   -0.2504 C   0  0  0  0  0  0  0  0  0  0  0  0
   -1.0644    1.1158   -0.3021 C   0  0  0  0  0  0  0  0  0  0  0  0
   -1.2971    2.3130    0.2606 C   0  0  0  0  0  0  0  0  0  0  0  0
   -2.6195    2.2431    0.7476 C   0  0  0  0  0  0  0  0  0  0  0  0
   -3.3577    1.0267    0.7595 C   0  0  0  0  0  0  0  0  0  0  0  0
   -3.3403   -1.0963    0.1935 H   0  0  0  0  0  0  0  0  0  0  0  0
   -0.9348   -1.0504   -0.5831 H   0  0  0  0  0  0  0  0  0  0  0  0
   -0.7129    3.2250    0.2166 H   0  0  0  0  0  0  0  0  0  0  0  0
   -3.1030    3.1661    1.0578 H   0  0  0  0  0  0  0  0  0  0  0  0
    7.6174    0.6664   -2.0629 N   0  0  0  0  0  0  0  0  0  0  0  0
    8.6933    0.6342   -2.3149 N   0  0  0  0  0  0  0  0  0  0  0  0
   -4.5786    1.1217    1.2702 O   0  0  0  0  0  0  0  0  0  0  0  0
   -5.4058   -0.0532    1.3999 C   0  0  0  0  0  0  0  0  0  0  0  0
   -6.3367    0.3000    1.8395 H   0  0  0  0  0  0  0  0  0  0  0  0
   -4.9330   -0.7838    2.0628 H   0  0  0  0  0  0  0  0  0  0  0  0
   -5.6033   -0.4897    0.4149 H   0  0  0  0  0  0  0  0  0  0  0  0
  1  6  2  0  0  0  0
  2  1  1  0  0  0  0
  3  2  2  0  0  0  0
  3  4  1  0  0  0  0
  4  5  2  0  0  0  0
  5  6  1  0  0  0  0
  5 10  1  0  0  0  0
  6 13  1  0  0  0  0
  7  1  1  0  0  0  0
  8  2  1  0  0  0  0
  9  4  1  0  0  0  0
 12 11  3  0  0  0  0
 13 14  1  0  0  0  0
 14 15  1  0  0  0  0
 14 16  1  0  0  0  0
 17 14  1  0  0  0  0
M  RAD  1   3   2
M  END
