Coordinates from ORCA-job 4-CH3O-Ph-N2+-scan-d090-169-n800
 OpenBabel09191814063D

 17 16  0  0  0  0  0  0  0  0999 V2000
   -2.0894   -0.2074    0.2059 C   0  0  0  0  0  0  0  0  0  0  0  0
   -0.7301   -0.2899   -0.2159 C   0  0  0  0  0  0  0  0  0  0  0  0
   -0.2521    0.9496   -0.1414 C   0  0  0  0  0  0  0  0  0  0  0  0
   -0.5399    2.2182    0.1683 C   0  0  0  0  0  0  0  0  0  0  0  0
   -1.8953    2.2089    0.5728 C   0  0  0  0  0  0  0  0  0  0  0  0
   -2.6665    1.0208    0.5948 C   0  0  0  0  0  0  0  0  0  0  0  0
   -2.6448   -1.1389    0.2082 H   0  0  0  0  0  0  0  0  0  0  0  0
   -0.2419   -1.2060   -0.5232 H   0  0  0  0  0  0  0  0  0  0  0  0
    0.0847    3.1019    0.1366 H   0  0  0  0  0  0  0  0  0  0  0  0
   -2.3426    3.1529    0.8727 H   0  0  0  0  0  0  0  0  0  0  0  0
    2.4277    0.8714   -0.9573 N   0  0  0  0  0  0  0  0  0  0  0  0
    3.4844    0.8435   -1.2784 N   0  0  0  0  0  0  0  0  0  0  0  0
   -3.9277    1.1721    0.9993 O   0  0  0  0  0  0  0  0  0  0  0  0
   -4.7997    0.0290    1.0597 C   0  0  0  0  0  0  0  0  0  0  0  0
   -5.7548    0.4136    1.4135 H   0  0  0  0  0  0  0  0  0  0  0  0
   -4.4158   -0.7127    1.7682 H   0  0  0  0  0  0  0  0  0  0  0  0
   -4.9259   -0.4135    0.0658 H   0  0  0  0  0  0  0  0  0  0  0  0
  1  7  1  0  0  0  0
  1  6  2  0  0  0  0
  2  3  2  0  0  0  0
  2  1  1  0  0  0  0
  3  4  1  0  0  0  0
  4  5  2  0  0  0  0
  5  6  1  0  0  0  0
  5 10  1  0  0  0  0
  6 13  1  0  0  0  0
  8  2  1  0  0  0  0
  9  4  1  0  0  0  0
 12 11  3  0  0  0  0
 13 14  1  0  0  0  0
 14 15  1  0  0  0  0
 14 16  1  0  0  0  0
 17 14  1  0  0  0  0
M  RAD  1   3   2
M  END
