Coordinates from ORCA-job 4-CH3O-Ph-N2+-scan-d090-169-n800
 OpenBabel09191814063D

 17 16  0  0  0  0  0  0  0  0999 V2000
   -2.1710   -0.2102    0.1814 C   0  0  0  0  0  0  0  0  0  0  0  0
   -0.8075   -0.2766   -0.2054 C   0  0  0  0  0  0  0  0  0  0  0  0
   -0.3631    0.9838   -0.2550 C   0  0  0  0  0  0  0  0  0  0  0  0
   -0.6059    2.2145    0.2208 C   0  0  0  0  0  0  0  0  0  0  0  0
   -1.9637    2.2055    0.6055 C   0  0  0  0  0  0  0  0  0  0  0  0
   -2.7389    1.0142    0.6058 C   0  0  0  0  0  0  0  0  0  0  0  0
   -2.7449   -1.1288    0.1252 H   0  0  0  0  0  0  0  0  0  0  0  0
   -0.2916   -1.1918   -0.4725 H   0  0  0  0  0  0  0  0  0  0  0  0
    0.0152    3.1021    0.1931 H   0  0  0  0  0  0  0  0  0  0  0  0
   -2.4346    3.1536    0.8529 H   0  0  0  0  0  0  0  0  0  0  0  0
    2.9786    0.8612   -1.0757 N   0  0  0  0  0  0  0  0  0  0  0  0
    4.0367    0.8389   -1.3938 N   0  0  0  0  0  0  0  0  0  0  0  0
   -3.9949    1.1646    1.0114 O   0  0  0  0  0  0  0  0  0  0  0  0
   -4.8637    0.0189    1.1155 C   0  0  0  0  0  0  0  0  0  0  0  0
   -5.8154    0.4123    1.4682 H   0  0  0  0  0  0  0  0  0  0  0  0
   -4.4668   -0.7003    1.8383 H   0  0  0  0  0  0  0  0  0  0  0  0
   -4.9980   -0.4486    0.1340 H   0  0  0  0  0  0  0  0  0  0  0  0
  1  6  2  0  0  0  0
  2  1  1  0  0  0  0
  3  2  2  0  0  0  0
  3  4  1  0  0  0  0
  4  5  2  0  0  0  0
  5  6  1  0  0  0  0
  5 10  1  0  0  0  0
  6 13  1  0  0  0  0
  7  1  1  0  0  0  0
  8  2  1  0  0  0  0
  9  4  1  0  0  0  0
 12 11  3  0  0  0  0
 13 14  1  0  0  0  0
 14 15  1  0  0  0  0
 14 16  1  0  0  0  0
 17 14  1  0  0  0  0
M  RAD  1   3   2
M  END
