Coordinates from ORCA-job 4-CH3O-Ph-N2+-scan-d090-169-n800
 OpenBabel09191814063D

 17 16  0  0  0  0  0  0  0  0999 V2000
   -2.5435   -0.1684    0.2086 C   0  0  0  0  0  0  0  0  0  0  0  0
   -1.2016   -0.1754   -0.2471 C   0  0  0  0  0  0  0  0  0  0  0  0
   -0.8022    1.1024   -0.3005 C   0  0  0  0  0  0  0  0  0  0  0  0
   -1.0493    2.3061    0.2415 C   0  0  0  0  0  0  0  0  0  0  0  0
   -2.3841    2.2419    0.6944 C   0  0  0  0  0  0  0  0  0  0  0  0
   -3.1230    1.0260    0.7000 C   0  0  0  0  0  0  0  0  0  0  0  0
   -3.0918   -1.1027    0.1569 H   0  0  0  0  0  0  0  0  0  0  0  0
   -0.6671   -1.0665   -0.5573 H   0  0  0  0  0  0  0  0  0  0  0  0
   -0.4633    3.2172    0.2035 H   0  0  0  0  0  0  0  0  0  0  0  0
   -2.8747    3.1683    0.9827 H   0  0  0  0  0  0  0  0  0  0  0  0
    5.8313    0.6866   -1.6763 N   0  0  0  0  0  0  0  0  0  0  0  0
    6.9061    0.6511   -1.9322 N   0  0  0  0  0  0  0  0  0  0  0  0
   -4.3570    1.1266    1.1771 O   0  0  0  0  0  0  0  0  0  0  0  0
   -5.1876   -0.0468    1.2974 C   0  0  0  0  0  0  0  0  0  0  0  0
   -6.1296    0.3109    1.7088 H   0  0  0  0  0  0  0  0  0  0  0  0
   -4.7325   -0.7704    1.9800 H   0  0  0  0  0  0  0  0  0  0  0  0
   -5.3595   -0.4936    0.3122 H   0  0  0  0  0  0  0  0  0  0  0  0
  1  6  2  0  0  0  0
  2  1  1  0  0  0  0
  3  2  2  0  0  0  0
  3  4  1  0  0  0  0
  4  5  2  0  0  0  0
  5  6  1  0  0  0  0
  5 10  1  0  0  0  0
  6 13  1  0  0  0  0
  7  1  1  0  0  0  0
  8  2  1  0  0  0  0
  9  4  1  0  0  0  0
 12 11  3  0  0  0  0
 13 14  1  0  0  0  0
 14 15  1  0  0  0  0
 14 16  1  0  0  0  0
 17 14  1  0  0  0  0
M  RAD  1   3   2
M  END
