Coordinates from ORCA-job 4-CH3O-Ph-N2+-scan-d090-169-n800
 OpenBabel09191814063D

 17 16  0  0  0  0  0  0  0  0999 V2000
   -2.2511   -0.1988    0.1727 C   0  0  0  0  0  0  0  0  0  0  0  0
   -0.8956   -0.2453   -0.2407 C   0  0  0  0  0  0  0  0  0  0  0  0
   -0.4658    1.0215   -0.2966 C   0  0  0  0  0  0  0  0  0  0  0  0
   -0.7043    2.2416    0.2099 C   0  0  0  0  0  0  0  0  0  0  0  0
   -2.0540    2.2150    0.6213 C   0  0  0  0  0  0  0  0  0  0  0  0
   -2.8194    1.0163    0.6238 C   0  0  0  0  0  0  0  0  0  0  0  0
   -2.8182   -1.1218    0.1193 H   0  0  0  0  0  0  0  0  0  0  0  0
   -0.3725   -1.1528   -0.5210 H   0  0  0  0  0  0  0  0  0  0  0  0
   -0.0946    3.1370    0.1767 H   0  0  0  0  0  0  0  0  0  0  0  0
   -2.5311    3.1566    0.8815 H   0  0  0  0  0  0  0  0  0  0  0  0
    3.5777    0.8133   -1.1797 N   0  0  0  0  0  0  0  0  0  0  0  0
    4.6474    0.7810   -1.4559 N   0  0  0  0  0  0  0  0  0  0  0  0
   -4.0665    1.1520    1.0581 O   0  0  0  0  0  0  0  0  0  0  0  0
   -4.9253   -0.0012    1.1699 C   0  0  0  0  0  0  0  0  0  0  0  0
   -5.8722    0.3827    1.5451 H   0  0  0  0  0  0  0  0  0  0  0  0
   -4.5083   -0.7232    1.8782 H   0  0  0  0  0  0  0  0  0  0  0  0
   -5.0756   -0.4607    0.1871 H   0  0  0  0  0  0  0  0  0  0  0  0
  1  6  2  0  0  0  0
  2  1  1  0  0  0  0
  3  2  2  0  0  0  0
  3  4  1  0  0  0  0
  4  5  2  0  0  0  0
  5  6  1  0  0  0  0
  5 10  1  0  0  0  0
  6 13  1  0  0  0  0
  7  1  1  0  0  0  0
  8  2  1  0  0  0  0
  9  4  1  0  0  0  0
 12 11  3  0  0  0  0
 13 14  1  0  0  0  0
 14 15  1  0  0  0  0
 14 16  1  0  0  0  0
 17 14  1  0  0  0  0
M  RAD  1   3   2
M  END
