Coordinates from ORCA-job 4-CH3O-Ph-N2+-scan-d090-169-n800
 OpenBabel09191814063D

 17 16  0  0  0  0  0  0  0  0999 V2000
   -3.1096   -0.1389    0.2389 C   0  0  0  0  0  0  0  0  0  0  0  0
   -1.8207   -0.1118   -0.3488 C   0  0  0  0  0  0  0  0  0  0  0  0
   -1.4381    1.1719   -0.3923 C   0  0  0  0  0  0  0  0  0  0  0  0
   -1.6372    2.3495    0.2223 C   0  0  0  0  0  0  0  0  0  0  0  0
   -2.9191    2.2522    0.8039 C   0  0  0  0  0  0  0  0  0  0  0  0
   -3.6450    1.0286    0.8343 C   0  0  0  0  0  0  0  0  0  0  0  0
   -3.6534   -1.0767    0.2054 H   0  0  0  0  0  0  0  0  0  0  0  0
   -1.3127   -0.9839   -0.7459 H   0  0  0  0  0  0  0  0  0  0  0  0
   -1.0653    3.2683    0.1622 H   0  0  0  0  0  0  0  0  0  0  0  0
   -3.3855    3.1609    1.1763 H   0  0  0  0  0  0  0  0  0  0  0  0
    9.8334    0.6070   -2.4582 N   0  0  0  0  0  0  0  0  0  0  0  0
   10.9123    0.5720   -2.6967 N   0  0  0  0  0  0  0  0  0  0  0  0
   -4.8249    1.0966    1.4369 O   0  0  0  0  0  0  0  0  0  0  0  0
   -5.6312   -0.0897    1.5925 C   0  0  0  0  0  0  0  0  0  0  0  0
   -6.5295    0.2413    2.1103 H   0  0  0  0  0  0  0  0  0  0  0  0
   -5.1048   -0.8346    2.1964 H   0  0  0  0  0  0  0  0  0  0  0  0
   -5.8982   -0.4992    0.6123 H   0  0  0  0  0  0  0  0  0  0  0  0
  1  6  2  0  0  0  0
  2  1  1  0  0  0  0
  3  2  2  0  0  0  0
  3  4  1  0  0  0  0
  4  5  2  0  0  0  0
  5  6  1  0  0  0  0
  5 10  1  0  0  0  0
  6 13  1  0  0  0  0
  7  1  1  0  0  0  0
  8  2  1  0  0  0  0
  9  4  1  0  0  0  0
 12 11  3  0  0  0  0
 13 14  1  0  0  0  0
 14 15  1  0  0  0  0
 14 16  1  0  0  0  0
 17 14  1  0  0  0  0
M  RAD  1   3   2
M  END
