Coordinates from ORCA-job 4-CH3O-Ph-N2+-scan-d090-169-n800
 OpenBabel09191814063D

 17 16  0  0  0  0  0  0  0  0999 V2000
   -3.3561   -0.0774    0.1443 C   0  0  0  0  0  0  0  0  0  0  0  0
   -2.1794    0.0355   -0.6368 C   0  0  0  0  0  0  0  0  0  0  0  0
   -1.8497    1.3343   -0.6618 C   0  0  0  0  0  0  0  0  0  0  0  0
   -1.9844    2.4664    0.0486 C   0  0  0  0  0  0  0  0  0  0  0  0
   -3.1528    2.2844    0.8182 C   0  0  0  0  0  0  0  0  0  0  0  0
   -3.8256    1.0323    0.8876 C   0  0  0  0  0  0  0  0  0  0  0  0
   -3.8682   -1.0334    0.1398 H   0  0  0  0  0  0  0  0  0  0  0  0
   -1.7139   -0.7915   -1.1618 H   0  0  0  0  0  0  0  0  0  0  0  0
   -1.4590    3.4099   -0.0445 H   0  0  0  0  0  0  0  0  0  0  0  0
   -3.5823    3.1511    1.3147 H   0  0  0  0  0  0  0  0  0  0  0  0
   11.3240    0.4584   -2.5387 N   0  0  0  0  0  0  0  0  0  0  0  0
   12.4095    0.4075   -2.7415 N   0  0  0  0  0  0  0  0  0  0  0  0
   -4.8952    1.0182    1.6721 O   0  0  0  0  0  0  0  0  0  0  0  0
   -5.6286   -0.2068    1.8799 C   0  0  0  0  0  0  0  0  0  0  0  0
   -6.4425    0.0580    2.5523 H   0  0  0  0  0  0  0  0  0  0  0  0
   -4.9892   -0.9620    2.3463 H   0  0  0  0  0  0  0  0  0  0  0  0
   -6.0359   -0.5716    0.9309 H   0  0  0  0  0  0  0  0  0  0  0  0
  1  6  2  0  0  0  0
  2  1  1  0  0  0  0
  3  2  2  0  0  0  0
  3  4  1  0  0  0  0
  4  5  2  0  0  0  0
  5  6  1  0  0  0  0
  5 10  1  0  0  0  0
  6 13  1  0  0  0  0
  7  1  1  0  0  0  0
  8  2  1  0  0  0  0
  9  4  1  0  0  0  0
 12 11  3  0  0  0  0
 13 14  1  0  0  0  0
 14 16  1  0  0  0  0
 14 15  1  0  0  0  0
 17 14  1  0  0  0  0
M  RAD  1   3   2
M  END
