Coordinates from ORCA-job 4-CH3O-Ph-N2+-scan-d090-169-n800
 OpenBabel09191814063D

 17 16  0  0  0  0  0  0  0  0999 V2000
   -2.1130   -0.2069    0.2126 C   0  0  0  0  0  0  0  0  0  0  0  0
   -0.7523   -0.2893   -0.2092 C   0  0  0  0  0  0  0  0  0  0  0  0
   -0.2832    0.9516   -0.1327 C   0  0  0  0  0  0  0  0  0  0  0  0
   -0.5639    2.2204    0.1761 C   0  0  0  0  0  0  0  0  0  0  0  0
   -1.9207    2.2093    0.5805 C   0  0  0  0  0  0  0  0  0  0  0  0
   -2.6912    1.0207    0.6022 C   0  0  0  0  0  0  0  0  0  0  0  0
   -2.6667   -1.1396    0.2136 H   0  0  0  0  0  0  0  0  0  0  0  0
   -0.2623   -1.2046   -0.5168 H   0  0  0  0  0  0  0  0  0  0  0  0
    0.0611    3.1041    0.1443 H   0  0  0  0  0  0  0  0  0  0  0  0
   -2.3675    3.1539    0.8799 H   0  0  0  0  0  0  0  0  0  0  0  0
    2.6079    0.8706   -1.0111 N   0  0  0  0  0  0  0  0  0  0  0  0
    3.6649    0.8440   -1.3318 N   0  0  0  0  0  0  0  0  0  0  0  0
   -3.9523    1.1710    1.0064 O   0  0  0  0  0  0  0  0  0  0  0  0
   -4.8235    0.0270    1.0668 C   0  0  0  0  0  0  0  0  0  0  0  0
   -5.7789    0.4108    1.4205 H   0  0  0  0  0  0  0  0  0  0  0  0
   -4.4388   -0.7142    1.7755 H   0  0  0  0  0  0  0  0  0  0  0  0
   -4.9492   -0.4154    0.0728 H   0  0  0  0  0  0  0  0  0  0  0  0
  1  7  1  0  0  0  0
  1  6  2  0  0  0  0
  2  3  2  0  0  0  0
  2  1  1  0  0  0  0
  3  4  1  0  0  0  0
  4  5  2  0  0  0  0
  5  6  1  0  0  0  0
  5 10  1  0  0  0  0
  6 13  1  0  0  0  0
  8  2  1  0  0  0  0
  9  4  1  0  0  0  0
 12 11  3  0  0  0  0
 13 14  1  0  0  0  0
 14 15  1  0  0  0  0
 14 16  1  0  0  0  0
 17 14  1  0  0  0  0
M  RAD  1   3   2
M  END
