Coordinates from ORCA-job 4-CH3O-Ph-N2+-scan-d090-169-n800
 OpenBabel09191814063D

 17 16  0  0  0  0  0  0  0  0999 V2000
   -3.9099    0.1643   -0.1969 C   0  0  0  0  0  0  0  0  0  0  0  0
   -3.5704    0.6297   -1.4906 C   0  0  0  0  0  0  0  0  0  0  0  0
   -3.5180    1.9680   -1.4272 C   0  0  0  0  0  0  0  0  0  0  0  0
   -3.2917    2.9674   -0.5585 C   0  0  0  0  0  0  0  0  0  0  0  0
   -3.6239    2.4398    0.7070 C   0  0  0  0  0  0  0  0  0  0  0  0
   -3.9110    1.0589    0.9004 C   0  0  0  0  0  0  0  0  0  0  0  0
   -4.1635   -0.8850   -0.0927 H   0  0  0  0  0  0  0  0  0  0  0  0
   -3.4599   -0.0101   -2.3595 H   0  0  0  0  0  0  0  0  0  0  0  0
   -3.0928    4.0165   -0.7451 H   0  0  0  0  0  0  0  0  0  0  0  0
   -3.7312    3.1293    1.5408 H   0  0  0  0  0  0  0  0  0  0  0  0
   13.0115   -0.2258   -1.8475 N   0  0  0  0  0  0  0  0  0  0  0  0
   14.1096   -0.3233   -1.9297 N   0  0  0  0  0  0  0  0  0  0  0  0
   -4.1808    0.7177    2.1533 O   0  0  0  0  0  0  0  0  0  0  0  0
   -4.4261   -0.6626    2.4952 C   0  0  0  0  0  0  0  0  0  0  0  0
   -4.6188   -0.6616    3.5663 H   0  0  0  0  0  0  0  0  0  0  0  0
   -3.5464   -1.2741    2.2741 H   0  0  0  0  0  0  0  0  0  0  0  0
   -5.3060   -1.0358    1.9604 H   0  0  0  0  0  0  0  0  0  0  0  0
  1  7  1  0  0  0  0
  1  6  2  0  0  0  0
  2  3  2  0  0  0  0
  2  1  1  0  0  0  0
  3  4  1  0  0  0  0
  4  5  2  0  0  0  0
  5  6  1  0  0  0  0
  5 10  1  0  0  0  0
  6 13  1  0  0  0  0
  8  2  1  0  0  0  0
  9  4  1  0  0  0  0
 12 11  3  0  0  0  0
 13 14  1  0  0  0  0
 14 15  1  0  0  0  0
 16 14  1  0  0  0  0
 17 14  1  0  0  0  0
M  RAD  1   3   2
M  END
