Coordinates from ORCA-job 4-CH3O-Ph-N2+-scan-d090-169-n800
 OpenBabel09191814063D

 17 17  0  0  0  0  0  0  0  0999 V2000
   -1.9461   -0.2221    0.1605 C   0  0  0  0  0  0  0  0  0  0  0  0
   -0.6315   -0.2697   -0.2417 C   0  0  0  0  0  0  0  0  0  0  0  0
    0.1278    0.9308   -0.2581 C   0  0  0  0  0  0  0  0  0  0  0  0
   -0.4368    2.1810    0.1310 C   0  0  0  0  0  0  0  0  0  0  0  0
   -1.7469    2.2096    0.5285 C   0  0  0  0  0  0  0  0  0  0  0  0
   -2.5232    1.0162    0.5511 C   0  0  0  0  0  0  0  0  0  0  0  0
   -2.5291   -1.1343    0.1747 H   0  0  0  0  0  0  0  0  0  0  0  0
   -0.1735   -1.2060   -0.5436 H   0  0  0  0  0  0  0  0  0  0  0  0
    0.1665    3.0824    0.1087 H   0  0  0  0  0  0  0  0  0  0  0  0
   -2.2209    3.1360    0.8334 H   0  0  0  0  0  0  0  0  0  0  0  0
    1.3899    0.8857   -0.6441 N   0  0  0  0  0  0  0  0  0  0  0  0
    2.4636    0.8514   -0.9717 N   0  0  0  0  0  0  0  0  0  0  0  0
   -3.7704    1.1655    0.9510 O   0  0  0  0  0  0  0  0  0  0  0  0
   -4.6738    0.0388    1.0235 C   0  0  0  0  0  0  0  0  0  0  0  0
   -5.6148    0.4544    1.3785 H   0  0  0  0  0  0  0  0  0  0  0  0
   -4.3002   -0.7028    1.7352 H   0  0  0  0  0  0  0  0  0  0  0  0
   -4.8101   -0.4035    0.0327 H   0  0  0  0  0  0  0  0  0  0  0  0
  1  7  1  0  0  0  0
  1  6  2  0  0  0  0
  2  1  1  0  0  0  0
  3  2  2  0  0  0  0
  3  4  1  0  0  0  0
  4  5  2  0  0  0  0
  5  6  1  0  0  0  0
  5 10  1  0  0  0  0
  6 13  1  0  0  0  0
  8  2  1  0  0  0  0
  9  4  1  0  0  0  0
 11  3  1  0  0  0  0
 12 11  1  0  0  0  0
 13 14  1  0  0  0  0
 14 15  1  0  0  0  0
 14 16  1  0  0  0  0
 17 14  1  0  0  0  0
M  RAD  2  11   2  12   3
M  END
