Coordinates from ORCA-job 4-CH3O-Ph-N2+-scan-d090-169-n800
 OpenBabel09191814063D

 17 16  0  0  0  0  0  0  0  0999 V2000
   -2.5740   -0.1675    0.2131 C   0  0  0  0  0  0  0  0  0  0  0  0
   -1.2334   -0.1734   -0.2462 C   0  0  0  0  0  0  0  0  0  0  0  0
   -0.8344    1.1046   -0.2994 C   0  0  0  0  0  0  0  0  0  0  0  0
   -1.0805    2.3075    0.2448 C   0  0  0  0  0  0  0  0  0  0  0  0
   -2.4140    2.2423    0.7013 C   0  0  0  0  0  0  0  0  0  0  0  0
   -3.1525    1.0262    0.7075 C   0  0  0  0  0  0  0  0  0  0  0  0
   -3.1222   -1.1019    0.1619 H   0  0  0  0  0  0  0  0  0  0  0  0
   -0.6994   -1.0641   -0.5588 H   0  0  0  0  0  0  0  0  0  0  0  0
   -0.4949    3.2189    0.2062 H   0  0  0  0  0  0  0  0  0  0  0  0
   -2.9041    3.1683    0.9919 H   0  0  0  0  0  0  0  0  0  0  0  0
    6.0544    0.6830   -1.7261 N   0  0  0  0  0  0  0  0  0  0  0  0
    7.1294    0.6483   -1.9815 N   0  0  0  0  0  0  0  0  0  0  0  0
   -4.3852    1.1259    1.1881 O   0  0  0  0  0  0  0  0  0  0  0  0
   -5.2151   -0.0479    1.3093 C   0  0  0  0  0  0  0  0  0  0  0  0
   -6.1561    0.3091    1.7237 H   0  0  0  0  0  0  0  0  0  0  0  0
   -4.7580   -0.7722    1.9899 H   0  0  0  0  0  0  0  0  0  0  0  0
   -5.3896   -0.4936    0.3241 H   0  0  0  0  0  0  0  0  0  0  0  0
  1  6  2  0  0  0  0
  2  1  1  0  0  0  0
  3  2  2  0  0  0  0
  3  4  1  0  0  0  0
  4  5  2  0  0  0  0
  5  6  1  0  0  0  0
  5 10  1  0  0  0  0
  6 13  1  0  0  0  0
  7  1  1  0  0  0  0
  8  2  1  0  0  0  0
  9  4  1  0  0  0  0
 12 11  3  0  0  0  0
 13 14  1  0  0  0  0
 14 15  1  0  0  0  0
 14 16  1  0  0  0  0
 17 14  1  0  0  0  0
M  RAD  1   3   2
M  END
