Coordinates from ORCA-job 4-CH3O-Ph-N2+-scan-d090-169-n800
 OpenBabel09191814063D

 17 16  0  0  0  0  0  0  0  0999 V2000
   -2.7000   -0.1646    0.2300 C   0  0  0  0  0  0  0  0  0  0  0  0
   -1.3653   -0.1676   -0.2459 C   0  0  0  0  0  0  0  0  0  0  0  0
   -0.9673    1.1109   -0.2987 C   0  0  0  0  0  0  0  0  0  0  0  0
   -1.2062    2.3107    0.2559 C   0  0  0  0  0  0  0  0  0  0  0  0
   -2.5339    2.2428    0.7287 C   0  0  0  0  0  0  0  0  0  0  0  0
   -3.2722    1.0265    0.7378 C   0  0  0  0  0  0  0  0  0  0  0  0
   -3.2485   -1.0989    0.1813 H   0  0  0  0  0  0  0  0  0  0  0  0
   -0.8346   -1.0565   -0.5691 H   0  0  0  0  0  0  0  0  0  0  0  0
   -0.6215    3.2225    0.2144 H   0  0  0  0  0  0  0  0  0  0  0  0
   -3.0208    3.1672    1.0296 H   0  0  0  0  0  0  0  0  0  0  0  0
    6.9648    0.6729   -1.9251 N   0  0  0  0  0  0  0  0  0  0  0  0
    8.0403    0.6404   -2.1786 N   0  0  0  0  0  0  0  0  0  0  0  0
   -4.4986    1.1236    1.2345 O   0  0  0  0  0  0  0  0  0  0  0  0
   -5.3272   -0.0508    1.3602 C   0  0  0  0  0  0  0  0  0  0  0  0
   -6.2629    0.3042    1.7880 H   0  0  0  0  0  0  0  0  0  0  0  0
   -4.8616   -0.7784    2.0315 H   0  0  0  0  0  0  0  0  0  0  0  0
   -5.5138   -0.4916    0.3751 H   0  0  0  0  0  0  0  0  0  0  0  0
  1  6  2  0  0  0  0
  2  1  1  0  0  0  0
  3  2  2  0  0  0  0
  3  4  1  0  0  0  0
  4  5  2  0  0  0  0
  5  6  1  0  0  0  0
  5 10  1  0  0  0  0
  6 13  1  0  0  0  0
  7  1  1  0  0  0  0
  8  2  1  0  0  0  0
  9  4  1  0  0  0  0
 12 11  3  0  0  0  0
 13 14  1  0  0  0  0
 14 15  1  0  0  0  0
 14 16  1  0  0  0  0
 17 14  1  0  0  0  0
M  RAD  1   3   2
M  END
