Coordinates from ORCA-job 4-CH3O-Ph-N2+-scan-d090-169-n800
 OpenBabel09191814063D

 17 16  0  0  0  0  0  0  0  0999 V2000
   -3.4601   -0.0376    0.0791 C   0  0  0  0  0  0  0  0  0  0  0  0
   -2.3729    0.1321   -0.8133 C   0  0  0  0  0  0  0  0  0  0  0  0
   -2.0777    1.4394   -0.8258 C   0  0  0  0  0  0  0  0  0  0  0  0
   -2.1650    2.5437   -0.0661 C   0  0  0  0  0  0  0  0  0  0  0  0
   -3.2437    2.3053    0.8117 C   0  0  0  0  0  0  0  0  0  0  0  0
   -3.8765    1.0342    0.9050 C   0  0  0  0  0  0  0  0  0  0  0  0
   -3.9477   -1.0063    0.0929 H   0  0  0  0  0  0  0  0  0  0  0  0
   -1.9451   -0.6643   -1.4123 H   0  0  0  0  0  0  0  0  0  0  0  0
   -1.6741    3.5035   -0.1788 H   0  0  0  0  0  0  0  0  0  0  0  0
   -3.6399    3.1436    1.3795 H   0  0  0  0  0  0  0  0  0  0  0  0
   11.8182    0.3642   -2.4900 N   0  0  0  0  0  0  0  0  0  0  0  0
   12.9072    0.3042   -2.6708 N   0  0  0  0  0  0  0  0  0  0  0  0
   -4.8593    0.9658    1.7935 O   0  0  0  0  0  0  0  0  0  0  0  0
   -5.5385   -0.2846    2.0318 C   0  0  0  0  0  0  0  0  0  0  0  0
   -6.2847   -0.0638    2.7927 H   0  0  0  0  0  0  0  0  0  0  0  0
   -4.8369   -1.0372    2.4036 H   0  0  0  0  0  0  0  0  0  0  0  0
   -6.0327   -0.6290    1.1170 H   0  0  0  0  0  0  0  0  0  0  0  0
  1  7  1  0  0  0  0
  1  6  2  0  0  0  0
  2  1  1  0  0  0  0
  3  2  2  0  0  0  0
  3  4  1  0  0  0  0
  4  5  2  0  0  0  0
  5  6  1  0  0  0  0
  5 10  1  0  0  0  0
  6 13  1  0  0  0  0
  8  2  1  0  0  0  0
  9  4  1  0  0  0  0
 12 11  3  0  0  0  0
 13 14  1  0  0  0  0
 14 16  1  0  0  0  0
 14 15  1  0  0  0  0
 17 14  1  0  0  0  0
M  RAD  1   3   2
M  END
