Coordinates from ORCA-job 4-CH3O-Ph-N2+-scan-d090-169-n800
 OpenBabel09191814063D

 17 16  0  0  0  0  0  0  0  0999 V2000
   -3.5458    0.0012    0.0156 C   0  0  0  0  0  0  0  0  0  0  0  0
   -2.5617    0.2281   -0.9779 C   0  0  0  0  0  0  0  0  0  0  0  0
   -2.3020    1.5431   -0.9788 C   0  0  0  0  0  0  0  0  0  0  0  0
   -2.3360    2.6207   -0.1776 C   0  0  0  0  0  0  0  0  0  0  0  0
   -3.3115    2.3262    0.7983 C   0  0  0  0  0  0  0  0  0  0  0  0
   -3.9000    1.0358    0.9147 C   0  0  0  0  0  0  0  0  0  0  0  0
   -4.0052   -0.9807    0.0483 H   0  0  0  0  0  0  0  0  0  0  0  0
   -2.1782   -0.5378   -1.6432 H   0  0  0  0  0  0  0  0  0  0  0  0
   -1.8832    3.5968   -0.3089 H   0  0  0  0  0  0  0  0  0  0  0  0
   -3.6673    3.1358    1.4309 H   0  0  0  0  0  0  0  0  0  0  0  0
   12.1293    0.2704   -2.4021 N   0  0  0  0  0  0  0  0  0  0  0  0
   13.2211    0.2030   -2.5620 N   0  0  0  0  0  0  0  0  0  0  0  0
   -4.7831    0.9137    1.8970 O   0  0  0  0  0  0  0  0  0  0  0  0
   -5.4035   -0.3615    2.1630 C   0  0  0  0  0  0  0  0  0  0  0  0
   -6.0721   -0.1841    3.0033 H   0  0  0  0  0  0  0  0  0  0  0  0
   -4.6491   -1.1052    2.4361 H   0  0  0  0  0  0  0  0  0  0  0  0
   -5.9811   -0.6919    1.2931 H   0  0  0  0  0  0  0  0  0  0  0  0
  1  7  1  0  0  0  0
  1  6  2  0  0  0  0
  2  1  1  0  0  0  0
  3  2  2  0  0  0  0
  3  4  1  0  0  0  0
  4  5  2  0  0  0  0
  5  6  1  0  0  0  0
  5 10  1  0  0  0  0
  6 13  1  0  0  0  0
  8  2  1  0  0  0  0
  9  4  1  0  0  0  0
 12 11  3  0  0  0  0
 13 14  1  0  0  0  0
 14 16  1  0  0  0  0
 14 15  1  0  0  0  0
 17 14  1  0  0  0  0
M  RAD  1   3   2
M  END
