Coordinates from ORCA-job 4-CH3O-Ph-N2+-scan-d090-169-n800
 OpenBabel09191814063D

 17 16  0  0  0  0  0  0  0  0999 V2000
   -3.2176   -0.1178    0.2090 C   0  0  0  0  0  0  0  0  0  0  0  0
   -1.9641   -0.0623   -0.4492 C   0  0  0  0  0  0  0  0  0  0  0  0
   -1.5989    1.2267   -0.4858 C   0  0  0  0  0  0  0  0  0  0  0  0
   -1.7764    2.3885    0.1645 C   0  0  0  0  0  0  0  0  0  0  0  0
   -3.0224    2.2629    0.8147 C   0  0  0  0  0  0  0  0  0  0  0  0
   -3.7317    1.0301    0.8589 C   0  0  0  0  0  0  0  0  0  0  0  0
   -3.7519   -1.0613    0.1854 H   0  0  0  0  0  0  0  0  0  0  0  0
   -1.4697   -0.9193   -0.8932 H   0  0  0  0  0  0  0  0  0  0  0  0
   -1.2193    3.3155    0.0926 H   0  0  0  0  0  0  0  0  0  0  0  0
   -3.4773    3.1578    1.2324 H   0  0  0  0  0  0  0  0  0  0  0  0
   10.5268    0.5553   -2.5247 N   0  0  0  0  0  0  0  0  0  0  0  0
   11.6082    0.5155   -2.7508 N   0  0  0  0  0  0  0  0  0  0  0  0
   -4.8766    1.0706    1.5279 O   0  0  0  0  0  0  0  0  0  0  0  0
   -5.6595   -0.1287    1.7023 C   0  0  0  0  0  0  0  0  0  0  0  0
   -6.5310    0.1801    2.2766 H   0  0  0  0  0  0  0  0  0  0  0  0
   -5.0917   -0.8796    2.2595 H   0  0  0  0  0  0  0  0  0  0  0  0
   -5.9764   -0.5205    0.7298 H   0  0  0  0  0  0  0  0  0  0  0  0
  1  6  2  0  0  0  0
  2  1  1  0  0  0  0
  3  2  2  0  0  0  0
  3  4  1  0  0  0  0
  4  5  2  0  0  0  0
  5  6  1  0  0  0  0
  5 10  1  0  0  0  0
  6 13  1  0  0  0  0
  7  1  1  0  0  0  0
  8  2  1  0  0  0  0
  9  4  1  0  0  0  0
 12 11  3  0  0  0  0
 13 14  1  0  0  0  0
 14 16  1  0  0  0  0
 14 15  1  0  0  0  0
 17 14  1  0  0  0  0
M  RAD  1   3   2
M  END
