Coordinates from ORCA-job 4-CH3O-Ph-N2+-scan-d090-169-n800
 OpenBabel09191814063D

 17 16  0  0  0  0  0  0  0  0999 V2000
   -2.3845   -0.1785    0.1847 C   0  0  0  0  0  0  0  0  0  0  0  0
   -1.0363   -0.1980   -0.2523 C   0  0  0  0  0  0  0  0  0  0  0  0
   -0.6276    1.0765   -0.3071 C   0  0  0  0  0  0  0  0  0  0  0  0
   -0.8745    2.2861    0.2215 C   0  0  0  0  0  0  0  0  0  0  0  0
   -2.2160    2.2338    0.6561 C   0  0  0  0  0  0  0  0  0  0  0  0
   -2.9629    1.0230    0.6595 C   0  0  0  0  0  0  0  0  0  0  0  0
   -2.9382   -1.1095    0.1316 H   0  0  0  0  0  0  0  0  0  0  0  0
   -0.5036   -1.0947   -0.5495 H   0  0  0  0  0  0  0  0  0  0  0  0
   -0.2813    3.1925    0.1859 H   0  0  0  0  0  0  0  0  0  0  0  0
   -2.7040    3.1654    0.9320 H   0  0  0  0  0  0  0  0  0  0  0  0
    4.6332    0.7285   -1.4061 N   0  0  0  0  0  0  0  0  0  0  0  0
    5.7066    0.6900   -1.6669 N   0  0  0  0  0  0  0  0  0  0  0  0
   -4.2031    1.1350    1.1182 O   0  0  0  0  0  0  0  0  0  0  0  0
   -5.0428   -0.0322    1.2342 C   0  0  0  0  0  0  0  0  0  0  0  0
   -5.9883    0.3341    1.6300 H   0  0  0  0  0  0  0  0  0  0  0  0
   -4.6022   -0.7543    1.9279 H   0  0  0  0  0  0  0  0  0  0  0  0
   -5.2038   -0.4844    0.2497 H   0  0  0  0  0  0  0  0  0  0  0  0
  1  6  2  0  0  0  0
  2  1  1  0  0  0  0
  3  2  2  0  0  0  0
  3  4  1  0  0  0  0
  4  5  2  0  0  0  0
  5  6  1  0  0  0  0
  5 10  1  0  0  0  0
  6 13  1  0  0  0  0
  7  1  1  0  0  0  0
  8  2  1  0  0  0  0
  9  4  1  0  0  0  0
 12 11  3  0  0  0  0
 13 14  1  0  0  0  0
 14 15  1  0  0  0  0
 14 16  1  0  0  0  0
 17 14  1  0  0  0  0
M  RAD  1   3   2
M  END
