Coordinates from ORCA-job 4-CH3O-Ph-N2+-scan-d090-169-n800
 OpenBabel09191814063D

 17 17  0  0  0  0  0  0  0  0999 V2000
   -1.9342   -0.2238    0.1566 C   0  0  0  0  0  0  0  0  0  0  0  0
   -0.6245   -0.2702   -0.2439 C   0  0  0  0  0  0  0  0  0  0  0  0
    0.1705    0.9285   -0.2712 C   0  0  0  0  0  0  0  0  0  0  0  0
   -0.4297    2.1795    0.1286 C   0  0  0  0  0  0  0  0  0  0  0  0
   -1.7351    2.2092    0.5249 C   0  0  0  0  0  0  0  0  0  0  0  0
   -2.5136    1.0154    0.5481 C   0  0  0  0  0  0  0  0  0  0  0  0
   -2.5166   -1.1367    0.1706 H   0  0  0  0  0  0  0  0  0  0  0  0
   -0.1662   -1.2070   -0.5459 H   0  0  0  0  0  0  0  0  0  0  0  0
    0.1745    3.0810    0.1061 H   0  0  0  0  0  0  0  0  0  0  0  0
   -2.2083    3.1363    0.8296 H   0  0  0  0  0  0  0  0  0  0  0  0
    1.2986    0.8888   -0.6162 N   0  0  0  0  0  0  0  0  0  0  0  0
    2.3810    0.8543   -0.9466 N   0  0  0  0  0  0  0  0  0  0  0  0
   -3.7570    1.1636    0.9467 O   0  0  0  0  0  0  0  0  0  0  0  0
   -4.6665    0.0387    1.0214 C   0  0  0  0  0  0  0  0  0  0  0  0
   -5.6048    0.4601    1.3765 H   0  0  0  0  0  0  0  0  0  0  0  0
   -4.2937   -0.7018    1.7340 H   0  0  0  0  0  0  0  0  0  0  0  0
   -4.8039   -0.4024    0.0305 H   0  0  0  0  0  0  0  0  0  0  0  0
  1  7  1  0  0  0  0
  1  6  2  0  0  0  0
  2  1  1  0  0  0  0
  3  2  2  0  0  0  0
  3  4  1  0  0  0  0
  4  5  2  0  0  0  0
  5  6  1  0  0  0  0
  5 10  1  0  0  0  0
  6 13  1  0  0  0  0
  8  2  1  0  0  0  0
  9  4  1  0  0  0  0
 11  3  1  0  0  0  0
 12 11  1  0  0  0  0
 13 14  1  0  0  0  0
 14 15  1  0  0  0  0
 14 16  1  0  0  0  0
 17 14  1  0  0  0  0
M  RAD  2  11   2  12   3
M  END
