Coordinates from ORCA-job 4-CH3O-Ph-N2+-scan-d090-169-n800
 OpenBabel09191814063D

 17 17  0  0  0  0  0  0  0  0999 V2000
   -1.9934   -0.2131    0.1763 C   0  0  0  0  0  0  0  0  0  0  0  0
   -0.6565   -0.2805   -0.2361 C   0  0  0  0  0  0  0  0  0  0  0  0
   -0.0397    0.9384   -0.2065 C   0  0  0  0  0  0  0  0  0  0  0  0
   -0.4605    2.1977    0.1410 C   0  0  0  0  0  0  0  0  0  0  0  0
   -1.7936    2.2082    0.5422 C   0  0  0  0  0  0  0  0  0  0  0  0
   -2.5656    1.0195    0.5644 C   0  0  0  0  0  0  0  0  0  0  0  0
   -2.5691   -1.1304    0.1874 H   0  0  0  0  0  0  0  0  0  0  0  0
   -0.1866   -1.2072   -0.5399 H   0  0  0  0  0  0  0  0  0  0  0  0
    0.1521    3.0898    0.1143 H   0  0  0  0  0  0  0  0  0  0  0  0
   -2.2589    3.1401    0.8455 H   0  0  0  0  0  0  0  0  0  0  0  0
    1.7200    0.8769   -0.7445 N   0  0  0  0  0  0  0  0  0  0  0  0
    2.7768    0.8447   -1.0668 N   0  0  0  0  0  0  0  0  0  0  0  0
   -3.8250    1.1730    0.9687 O   0  0  0  0  0  0  0  0  0  0  0  0
   -4.7064    0.0376    1.0331 C   0  0  0  0  0  0  0  0  0  0  0  0
   -5.6573    0.4320    1.3873 H   0  0  0  0  0  0  0  0  0  0  0  0
   -4.3282   -0.7062    1.7420 H   0  0  0  0  0  0  0  0  0  0  0  0
   -4.8377   -0.4072    0.0413 H   0  0  0  0  0  0  0  0  0  0  0  0
  1  7  1  0  0  0  0
  1  6  2  0  0  0  0
  2  3  2  0  0  0  0
  2  1  1  0  0  0  0
  3  4  1  0  0  0  0
  4  5  2  0  0  0  0
  5  6  1  0  0  0  0
  5 10  1  0  0  0  0
  6 13  1  0  0  0  0
  8  2  1  0  0  0  0
  9  4  1  0  0  0  0
 11  3  1  0  0  0  0
 12 11  1  0  0  0  0
 13 14  1  0  0  0  0
 14 15  1  0  0  0  0
 14 16  1  0  0  0  0
 17 14  1  0  0  0  0
M  RAD  2  11   2  12   3
M  END
