Coordinates from ORCA-job 4-CH3O-Ph-N2+-scan-d090-169-n800
 OpenBabel09191814063D

 17 16  0  0  0  0  0  0  0  0999 V2000
   -2.4879   -0.1706    0.2001 C   0  0  0  0  0  0  0  0  0  0  0  0
   -1.1438   -0.1802   -0.2492 C   0  0  0  0  0  0  0  0  0  0  0  0
   -0.7427    1.0969   -0.3030 C   0  0  0  0  0  0  0  0  0  0  0  0
   -0.9911    2.3022    0.2349 C   0  0  0  0  0  0  0  0  0  0  0  0
   -2.3281    2.2405    0.6816 C   0  0  0  0  0  0  0  0  0  0  0  0
   -3.0684    1.0254    0.6862 C   0  0  0  0  0  0  0  0  0  0  0  0
   -3.0370   -1.1045    0.1478 H   0  0  0  0  0  0  0  0  0  0  0  0
   -0.6088   -1.0726   -0.5551 H   0  0  0  0  0  0  0  0  0  0  0  0
   -0.4036    3.2124    0.1979 H   0  0  0  0  0  0  0  0  0  0  0  0
   -2.8189    3.1680    0.9658 H   0  0  0  0  0  0  0  0  0  0  0  0
    5.4196    0.6958   -1.5838 N   0  0  0  0  0  0  0  0  0  0  0  0
    6.4941    0.6588   -1.8408 N   0  0  0  0  0  0  0  0  0  0  0  0
   -4.3046    1.1284    1.1570 O   0  0  0  0  0  0  0  0  0  0  0  0
   -5.1370   -0.0438    1.2757 C   0  0  0  0  0  0  0  0  0  0  0  0
   -6.0806    0.3157    1.6819 H   0  0  0  0  0  0  0  0  0  0  0  0
   -4.6860   -0.7666    1.9620 H   0  0  0  0  0  0  0  0  0  0  0  0
   -5.3047   -0.4924    0.2907 H   0  0  0  0  0  0  0  0  0  0  0  0
  1  6  2  0  0  0  0
  2  1  1  0  0  0  0
  3  2  2  0  0  0  0
  3  4  1  0  0  0  0
  4  5  2  0  0  0  0
  5  6  1  0  0  0  0
  5 10  1  0  0  0  0
  6 13  1  0  0  0  0
  7  1  1  0  0  0  0
  8  2  1  0  0  0  0
  9  4  1  0  0  0  0
 12 11  3  0  0  0  0
 13 14  1  0  0  0  0
 14 15  1  0  0  0  0
 14 16  1  0  0  0  0
 17 14  1  0  0  0  0
M  RAD  1   3   2
M  END
