Coordinates from ORCA-job 4-CH3O-Ph-N2+-scan-d090-169-n800
 OpenBabel09191814063D

 17 16  0  0  0  0  0  0  0  0999 V2000
   -2.8709   -0.1594    0.2469 C   0  0  0  0  0  0  0  0  0  0  0  0
   -1.5474   -0.1570   -0.2588 C   0  0  0  0  0  0  0  0  0  0  0  0
   -1.1509    1.1220   -0.3099 C   0  0  0  0  0  0  0  0  0  0  0  0
   -1.3774    2.3160    0.2617 C   0  0  0  0  0  0  0  0  0  0  0  0
   -2.6940    2.2437    0.7636 C   0  0  0  0  0  0  0  0  0  0  0  0
   -3.4317    1.0269    0.7785 C   0  0  0  0  0  0  0  0  0  0  0  0
   -3.4202   -1.0934    0.2019 H   0  0  0  0  0  0  0  0  0  0  0  0
   -1.0241   -1.0428   -0.6020 H   0  0  0  0  0  0  0  0  0  0  0  0
   -0.7945    3.2287    0.2148 H   0  0  0  0  0  0  0  0  0  0  0  0
   -3.1742    3.1653    1.0832 H   0  0  0  0  0  0  0  0  0  0  0  0
    8.1836    0.6590   -2.1777 N   0  0  0  0  0  0  0  0  0  0  0  0
    9.2599    0.6266   -2.4282 N   0  0  0  0  0  0  0  0  0  0  0  0
   -4.6464    1.1190    1.3037 O   0  0  0  0  0  0  0  0  0  0  0  0
   -5.4718   -0.0567    1.4377 C   0  0  0  0  0  0  0  0  0  0  0  0
   -6.3977    0.2942    1.8897 H   0  0  0  0  0  0  0  0  0  0  0  0
   -4.9911   -0.7901    2.0917 H   0  0  0  0  0  0  0  0  0  0  0  0
   -5.6806   -0.4887    0.4531 H   0  0  0  0  0  0  0  0  0  0  0  0
  1  6  2  0  0  0  0
  2  1  1  0  0  0  0
  3  2  2  0  0  0  0
  3  4  1  0  0  0  0
  4  5  2  0  0  0  0
  5  6  1  0  0  0  0
  5 10  1  0  0  0  0
  6 13  1  0  0  0  0
  7  1  1  0  0  0  0
  8  2  1  0  0  0  0
  9  4  1  0  0  0  0
 12 11  3  0  0  0  0
 13 14  1  0  0  0  0
 14 15  1  0  0  0  0
 14 16  1  0  0  0  0
 17 14  1  0  0  0  0
M  RAD  1   3   2
M  END
