Coordinates from ORCA-job 4-CH3O-Ph-N2+-scan-d090-169-n800
 OpenBabel09191814063D

 17 16  0  0  0  0  0  0  0  0999 V2000
   -2.3582   -0.1815    0.1813 C   0  0  0  0  0  0  0  0  0  0  0  0
   -1.0088   -0.2048   -0.2520 C   0  0  0  0  0  0  0  0  0  0  0  0
   -0.5972    1.0687   -0.3073 C   0  0  0  0  0  0  0  0  0  0  0  0
   -0.8428    2.2797    0.2185 C   0  0  0  0  0  0  0  0  0  0  0  0
   -2.1856    2.2311    0.6494 C   0  0  0  0  0  0  0  0  0  0  0  0
   -2.9353    1.0220    0.6526 C   0  0  0  0  0  0  0  0  0  0  0  0
   -2.9138   -1.1114    0.1282 H   0  0  0  0  0  0  0  0  0  0  0  0
   -0.4772   -1.1030   -0.5464 H   0  0  0  0  0  0  0  0  0  0  0  0
   -0.2473    3.1847    0.1832 H   0  0  0  0  0  0  0  0  0  0  0  0
   -2.6723    3.1642    0.9228 H   0  0  0  0  0  0  0  0  0  0  0  0
    4.4285    0.7409   -1.3606 N   0  0  0  0  0  0  0  0  0  0  0  0
    5.5016    0.7025   -1.6231 N   0  0  0  0  0  0  0  0  0  0  0  0
   -4.1765    1.1375    1.1076 O   0  0  0  0  0  0  0  0  0  0  0  0
   -5.0191   -0.0277    1.2229 C   0  0  0  0  0  0  0  0  0  0  0  0
   -5.9649    0.3412    1.6155 H   0  0  0  0  0  0  0  0  0  0  0  0
   -4.5821   -0.7498    1.9189 H   0  0  0  0  0  0  0  0  0  0  0  0
   -5.1783   -0.4810    0.2386 H   0  0  0  0  0  0  0  0  0  0  0  0
  1  6  2  0  0  0  0
  2  1  1  0  0  0  0
  3  2  2  0  0  0  0
  3  4  1  0  0  0  0
  4  5  2  0  0  0  0
  5  6  1  0  0  0  0
  5 10  1  0  0  0  0
  6 13  1  0  0  0  0
  7  1  1  0  0  0  0
  8  2  1  0  0  0  0
  9  4  1  0  0  0  0
 12 11  3  0  0  0  0
 13 14  1  0  0  0  0
 14 15  1  0  0  0  0
 14 16  1  0  0  0  0
 17 14  1  0  0  0  0
M  RAD  1   3   2
M  END
