Coordinates from ORCA-job 4-CH3O-Ph-N2+-scan-d090-169-n800
 OpenBabel09191814063D

 17 16  0  0  0  0  0  0  0  0999 V2000
   -2.7024   -0.1646    0.2302 C   0  0  0  0  0  0  0  0  0  0  0  0
   -1.3679   -0.1672   -0.2457 C   0  0  0  0  0  0  0  0  0  0  0  0
   -0.9697    1.1111   -0.2990 C   0  0  0  0  0  0  0  0  0  0  0  0
   -1.2086    2.3104    0.2564 C   0  0  0  0  0  0  0  0  0  0  0  0
   -2.5361    2.2429    0.7292 C   0  0  0  0  0  0  0  0  0  0  0  0
   -3.2745    1.0264    0.7385 C   0  0  0  0  0  0  0  0  0  0  0  0
   -3.2510   -1.0989    0.1812 H   0  0  0  0  0  0  0  0  0  0  0  0
   -0.8375   -1.0562   -0.5694 H   0  0  0  0  0  0  0  0  0  0  0  0
   -0.6242    3.2224    0.2145 H   0  0  0  0  0  0  0  0  0  0  0  0
   -3.0229    3.1673    1.0301 H   0  0  0  0  0  0  0  0  0  0  0  0
    6.9822    0.6728   -1.9288 N   0  0  0  0  0  0  0  0  0  0  0  0
    8.0577    0.6403   -2.1822 N   0  0  0  0  0  0  0  0  0  0  0  0
   -4.5007    1.1235    1.2354 O   0  0  0  0  0  0  0  0  0  0  0  0
   -5.3293   -0.0509    1.3613 C   0  0  0  0  0  0  0  0  0  0  0  0
   -6.2649    0.3042    1.7894 H   0  0  0  0  0  0  0  0  0  0  0  0
   -4.8636   -0.7785    2.0325 H   0  0  0  0  0  0  0  0  0  0  0  0
   -5.5162   -0.4916    0.3762 H   0  0  0  0  0  0  0  0  0  0  0  0
  1  6  2  0  0  0  0
  2  1  1  0  0  0  0
  3  2  2  0  0  0  0
  3  4  1  0  0  0  0
  4  5  2  0  0  0  0
  5  6  1  0  0  0  0
  5 10  1  0  0  0  0
  6 13  1  0  0  0  0
  7  1  1  0  0  0  0
  8  2  1  0  0  0  0
  9  4  1  0  0  0  0
 12 11  3  0  0  0  0
 13 14  1  0  0  0  0
 14 15  1  0  0  0  0
 14 16  1  0  0  0  0
 17 14  1  0  0  0  0
M  RAD  1   3   2
M  END
