Coordinates from ORCA-job 4-CH3O-Ph-N2+-scan-d090-169-n800
 OpenBabel09191814063D

 17 16  0  0  0  0  0  0  0  0999 V2000
   -2.5529   -0.1681    0.2100 C   0  0  0  0  0  0  0  0  0  0  0  0
   -1.2114   -0.1747   -0.2468 C   0  0  0  0  0  0  0  0  0  0  0  0
   -0.8121    1.1031   -0.3002 C   0  0  0  0  0  0  0  0  0  0  0  0
   -1.0589    2.3066    0.2426 C   0  0  0  0  0  0  0  0  0  0  0  0
   -2.3933    2.2421    0.6966 C   0  0  0  0  0  0  0  0  0  0  0  0
   -3.1321    1.0261    0.7023 C   0  0  0  0  0  0  0  0  0  0  0  0
   -3.1011   -1.1025    0.1584 H   0  0  0  0  0  0  0  0  0  0  0  0
   -0.6770   -1.0657   -0.5577 H   0  0  0  0  0  0  0  0  0  0  0  0
   -0.4730    3.2178    0.2044 H   0  0  0  0  0  0  0  0  0  0  0  0
   -2.8838    3.1683    0.9855 H   0  0  0  0  0  0  0  0  0  0  0  0
    5.8999    0.6854   -1.6917 N   0  0  0  0  0  0  0  0  0  0  0  0
    6.9748    0.6502   -1.9474 N   0  0  0  0  0  0  0  0  0  0  0  0
   -4.3657    1.1264    1.1804 O   0  0  0  0  0  0  0  0  0  0  0  0
   -5.1961   -0.0471    1.3010 C   0  0  0  0  0  0  0  0  0  0  0  0
   -6.1378    0.3103    1.7134 H   0  0  0  0  0  0  0  0  0  0  0  0
   -4.7403   -0.7710    1.9830 H   0  0  0  0  0  0  0  0  0  0  0  0
   -5.3687   -0.4936    0.3159 H   0  0  0  0  0  0  0  0  0  0  0  0
  1  6  2  0  0  0  0
  2  1  1  0  0  0  0
  3  2  2  0  0  0  0
  3  4  1  0  0  0  0
  4  5  2  0  0  0  0
  5  6  1  0  0  0  0
  5 10  1  0  0  0  0
  6 13  1  0  0  0  0
  7  1  1  0  0  0  0
  8  2  1  0  0  0  0
  9  4  1  0  0  0  0
 12 11  3  0  0  0  0
 13 14  1  0  0  0  0
 14 15  1  0  0  0  0
 14 16  1  0  0  0  0
 17 14  1  0  0  0  0
M  RAD  1   3   2
M  END
