Coordinates from ORCA-job 4-CH3O-Ph-N2+-scan-d090-169-n800
 OpenBabel09191814063D

 17 16  0  0  0  0  0  0  0  0999 V2000
   -2.2575   -0.1977    0.1729 C   0  0  0  0  0  0  0  0  0  0  0  0
   -0.9024   -0.2425   -0.2418 C   0  0  0  0  0  0  0  0  0  0  0  0
   -0.4739    1.0247   -0.2978 C   0  0  0  0  0  0  0  0  0  0  0  0
   -0.7127    2.2441    0.2103 C   0  0  0  0  0  0  0  0  0  0  0  0
   -2.0620    2.2161    0.6230 C   0  0  0  0  0  0  0  0  0  0  0  0
   -2.8264    1.0166    0.6255 C   0  0  0  0  0  0  0  0  0  0  0  0
   -2.8238   -1.1211    0.1196 H   0  0  0  0  0  0  0  0  0  0  0  0
   -0.3787   -1.1494   -0.5230 H   0  0  0  0  0  0  0  0  0  0  0  0
   -0.1040    3.1403    0.1769 H   0  0  0  0  0  0  0  0  0  0  0  0
   -2.5398    3.1571    0.8840 H   0  0  0  0  0  0  0  0  0  0  0  0
    3.6287    0.8084   -1.1903 N   0  0  0  0  0  0  0  0  0  0  0  0
    4.6988    0.7756   -1.4652 N   0  0  0  0  0  0  0  0  0  0  0  0
   -4.0730    1.1510    1.0613 O   0  0  0  0  0  0  0  0  0  0  0  0
   -4.9309   -0.0029    1.1734 C   0  0  0  0  0  0  0  0  0  0  0  0
   -5.8777    0.3800    1.5497 H   0  0  0  0  0  0  0  0  0  0  0  0
   -4.5125   -0.7250    1.8808 H   0  0  0  0  0  0  0  0  0  0  0  0
   -5.0818   -0.4620    0.1904 H   0  0  0  0  0  0  0  0  0  0  0  0
  1  6  2  0  0  0  0
  2  1  1  0  0  0  0
  3  2  2  0  0  0  0
  3  4  1  0  0  0  0
  4  5  2  0  0  0  0
  5  6  1  0  0  0  0
  5 10  1  0  0  0  0
  6 13  1  0  0  0  0
  7  1  1  0  0  0  0
  8  2  1  0  0  0  0
  9  4  1  0  0  0  0
 12 11  3  0  0  0  0
 13 14  1  0  0  0  0
 14 15  1  0  0  0  0
 14 16  1  0  0  0  0
 17 14  1  0  0  0  0
M  RAD  1   3   2
M  END
