Coordinates from ORCA-job 4-CH3O-Ph-N2+-scan-d090-169-n800
 OpenBabel09191814063D

 17 16  0  0  0  0  0  0  0  0999 V2000
   -3.4373   -0.0476    0.0964 C   0  0  0  0  0  0  0  0  0  0  0  0
   -2.3258    0.1079   -0.7683 C   0  0  0  0  0  0  0  0  0  0  0  0
   -2.0223    1.4132   -0.7841 C   0  0  0  0  0  0  0  0  0  0  0  0
   -2.1228    2.5246   -0.0364 C   0  0  0  0  0  0  0  0  0  0  0  0
   -3.2258    2.3003    0.8144 C   0  0  0  0  0  0  0  0  0  0  0  0
   -3.8688    1.0338    0.9018 C   0  0  0  0  0  0  0  0  0  0  0  0
   -3.9311   -1.0131    0.1055 H   0  0  0  0  0  0  0  0  0  0  0  0
   -1.8872   -0.6963   -1.3489 H   0  0  0  0  0  0  0  0  0  0  0  0
   -1.6231    3.4804   -0.1442 H   0  0  0  0  0  0  0  0  0  0  0  0
   -3.6317    3.1458    1.3644 H   0  0  0  0  0  0  0  0  0  0  0  0
   11.7282    0.3874   -2.5102 N   0  0  0  0  0  0  0  0  0  0  0  0
   12.8162    0.3291   -2.6967 N   0  0  0  0  0  0  0  0  0  0  0  0
   -4.8751    0.9791    1.7644 O   0  0  0  0  0  0  0  0  0  0  0  0
   -5.5682   -0.2651    1.9952 C   0  0  0  0  0  0  0  0  0  0  0  0
   -6.3330   -0.0332    2.7341 H   0  0  0  0  0  0  0  0  0  0  0  0
   -4.8815   -1.0186    2.3919 H   0  0  0  0  0  0  0  0  0  0  0  0
   -6.0401   -0.6145    1.0706 H   0  0  0  0  0  0  0  0  0  0  0  0
  1  7  1  0  0  0  0
  1  6  2  0  0  0  0
  2  1  1  0  0  0  0
  3  2  2  0  0  0  0
  3  4  1  0  0  0  0
  4  5  2  0  0  0  0
  5  6  1  0  0  0  0
  5 10  1  0  0  0  0
  6 13  1  0  0  0  0
  8  2  1  0  0  0  0
  9  4  1  0  0  0  0
 12 11  3  0  0  0  0
 13 14  1  0  0  0  0
 14 16  1  0  0  0  0
 14 15  1  0  0  0  0
 17 14  1  0  0  0  0
M  RAD  1   3   2
M  END
