Coordinates from ORCA-job 4-CH3O-Ph-N2+-scan-d090-169-n800
 OpenBabel09191814063D

 17 16  0  0  0  0  0  0  0  0999 V2000
   -2.0238   -0.2098    0.1860 C   0  0  0  0  0  0  0  0  0  0  0  0
   -0.6752   -0.2870   -0.2317 C   0  0  0  0  0  0  0  0  0  0  0  0
   -0.1303    0.9426   -0.1787 C   0  0  0  0  0  0  0  0  0  0  0  0
   -0.4800    2.2073    0.1485 C   0  0  0  0  0  0  0  0  0  0  0  0
   -1.8250    2.2076    0.5515 C   0  0  0  0  0  0  0  0  0  0  0  0
   -2.5972    1.0205    0.5741 C   0  0  0  0  0  0  0  0  0  0  0  0
   -2.5899   -1.1339    0.1930 H   0  0  0  0  0  0  0  0  0  0  0  0
   -0.1977   -1.2088   -0.5368 H   0  0  0  0  0  0  0  0  0  0  0  0
    0.1382    3.0949    0.1194 H   0  0  0  0  0  0  0  0  0  0  0  0
   -2.2804    3.1462    0.8530 H   0  0  0  0  0  0  0  0  0  0  0  0
    1.9360    0.8746   -0.8096 N   0  0  0  0  0  0  0  0  0  0  0  0
    2.9918    0.8437   -1.1313 N   0  0  0  0  0  0  0  0  0  0  0  0
   -3.8584    1.1742    0.9789 O   0  0  0  0  0  0  0  0  0  0  0  0
   -4.7341    0.0351    1.0410 C   0  0  0  0  0  0  0  0  0  0  0  0
   -5.6876    0.4236    1.3949 H   0  0  0  0  0  0  0  0  0  0  0  0
   -4.3532   -0.7082    1.7495 H   0  0  0  0  0  0  0  0  0  0  0  0
   -4.8628   -0.4091    0.0482 H   0  0  0  0  0  0  0  0  0  0  0  0
  1  7  1  0  0  0  0
  1  6  2  0  0  0  0
  2  3  2  0  0  0  0
  2  1  1  0  0  0  0
  3  4  1  0  0  0  0
  4  5  2  0  0  0  0
  5  6  1  0  0  0  0
  5 10  1  0  0  0  0
  6 13  1  0  0  0  0
  8  2  1  0  0  0  0
  9  4  1  0  0  0  0
 12 11  3  0  0  0  0
 13 14  1  0  0  0  0
 14 15  1  0  0  0  0
 14 16  1  0  0  0  0
 17 14  1  0  0  0  0
M  RAD  1   3   2
M  END
