Coordinates from ORCA-job 4-CH3O-Ph-N2+-scan-d090-169-n800
 OpenBabel09191814063D

 17 16  0  0  0  0  0  0  0  0999 V2000
   -3.1248   -0.1366    0.2360 C   0  0  0  0  0  0  0  0  0  0  0  0
   -1.8397   -0.1063   -0.3600 C   0  0  0  0  0  0  0  0  0  0  0  0
   -1.4590    1.1779   -0.4027 C   0  0  0  0  0  0  0  0  0  0  0  0
   -1.6556    2.3537    0.2162 C   0  0  0  0  0  0  0  0  0  0  0  0
   -2.9335    2.2533    0.8058 C   0  0  0  0  0  0  0  0  0  0  0  0
   -3.6577    1.0288    0.8378 C   0  0  0  0  0  0  0  0  0  0  0  0
   -3.6676   -1.0750    0.2036 H   0  0  0  0  0  0  0  0  0  0  0  0
   -1.3332   -0.9767   -0.7626 H   0  0  0  0  0  0  0  0  0  0  0  0
   -1.0853    3.2735    0.1547 H   0  0  0  0  0  0  0  0  0  0  0  0
   -3.3987    3.1606    1.1835 H   0  0  0  0  0  0  0  0  0  0  0  0
    9.9338    0.6011   -2.4706 N   0  0  0  0  0  0  0  0  0  0  0  0
   11.0130    0.5656   -2.7076 N   0  0  0  0  0  0  0  0  0  0  0  0
   -4.8338    1.0937    1.4482 O   0  0  0  0  0  0  0  0  0  0  0  0
   -5.6376   -0.0940    1.6060 C   0  0  0  0  0  0  0  0  0  0  0  0
   -6.5330    0.2346    2.1304 H   0  0  0  0  0  0  0  0  0  0  0  0
   -5.1064   -0.8397    2.2046 H   0  0  0  0  0  0  0  0  0  0  0  0
   -5.9104   -0.5012    0.6265 H   0  0  0  0  0  0  0  0  0  0  0  0
  1  6  2  0  0  0  0
  2  1  1  0  0  0  0
  3  2  2  0  0  0  0
  3  4  1  0  0  0  0
  4  5  2  0  0  0  0
  5  6  1  0  0  0  0
  5 10  1  0  0  0  0
  6 13  1  0  0  0  0
  7  1  1  0  0  0  0
  8  2  1  0  0  0  0
  9  4  1  0  0  0  0
 12 11  3  0  0  0  0
 13 14  1  0  0  0  0
 14 15  1  0  0  0  0
 14 16  1  0  0  0  0
 17 14  1  0  0  0  0
M  RAD  1   3   2
M  END
