Coordinates from ORCA-job 4-CH3O-Ph-N2+-scan-d090-169-n800
 OpenBabel09191814063D

 17 16  0  0  0  0  0  0  0  0999 V2000
   -2.9438   -0.1556    0.2501 C   0  0  0  0  0  0  0  0  0  0  0  0
   -1.6273   -0.1490   -0.2732 C   0  0  0  0  0  0  0  0  0  0  0  0
   -1.2327    1.1307   -0.3229 C   0  0  0  0  0  0  0  0  0  0  0  0
   -1.4527    2.3213    0.2583 C   0  0  0  0  0  0  0  0  0  0  0  0
   -2.7623    2.2449    0.7774 C   0  0  0  0  0  0  0  0  0  0  0  0
   -3.4986    1.0272    0.7956 C   0  0  0  0  0  0  0  0  0  0  0  0
   -3.4928   -1.0900    0.2075 H   0  0  0  0  0  0  0  0  0  0  0  0
   -1.1077   -1.0324   -0.6282 H   0  0  0  0  0  0  0  0  0  0  0  0
   -0.8713    3.2349    0.2084 H   0  0  0  0  0  0  0  0  0  0  0  0
   -3.2392    3.1642    1.1084 H   0  0  0  0  0  0  0  0  0  0  0  0
    8.6971    0.6492   -2.2762 N   0  0  0  0  0  0  0  0  0  0  0  0
    9.7738    0.6165   -2.5245 N   0  0  0  0  0  0  0  0  0  0  0  0
   -4.7062    1.1153    1.3377 O   0  0  0  0  0  0  0  0  0  0  0  0
   -5.5286   -0.0620    1.4763 C   0  0  0  0  0  0  0  0  0  0  0  0
   -6.4486    0.2855    1.9426 H   0  0  0  0  0  0  0  0  0  0  0  0
   -5.0384   -0.7984    2.1199 H   0  0  0  0  0  0  0  0  0  0  0  0
   -5.7502   -0.4889    0.4923 H   0  0  0  0  0  0  0  0  0  0  0  0
  1  6  2  0  0  0  0
  2  1  1  0  0  0  0
  3  2  2  0  0  0  0
  3  4  1  0  0  0  0
  4  5  2  0  0  0  0
  5  6  1  0  0  0  0
  5 10  1  0  0  0  0
  6 13  1  0  0  0  0
  7  1  1  0  0  0  0
  8  2  1  0  0  0  0
  9  4  1  0  0  0  0
 12 11  3  0  0  0  0
 13 14  1  0  0  0  0
 14 15  1  0  0  0  0
 14 16  1  0  0  0  0
 17 14  1  0  0  0  0
M  RAD  1   3   2
M  END
