Coordinates from ORCA-job 4-CH3O-Ph-N2+-scan-d090-169-n800
 OpenBabel09191814063D

 17 16  0  0  0  0  0  0  0  0999 V2000
   -3.0002   -0.1514    0.2499 C   0  0  0  0  0  0  0  0  0  0  0  0
   -1.6907   -0.1402   -0.2911 C   0  0  0  0  0  0  0  0  0  0  0  0
   -1.2988    1.1404   -0.3387 C   0  0  0  0  0  0  0  0  0  0  0  0
   -1.5127    2.3280    0.2512 C   0  0  0  0  0  0  0  0  0  0  0  0
   -2.8153    2.2464    0.7873 C   0  0  0  0  0  0  0  0  0  0  0  0
   -3.5494    1.0276    0.8088 C   0  0  0  0  0  0  0  0  0  0  0  0
   -3.5482   -1.0865    0.2100 H   0  0  0  0  0  0  0  0  0  0  0  0
   -1.1742   -1.0209   -0.6572 H   0  0  0  0  0  0  0  0  0  0  0  0
   -0.9333    3.2426    0.1988 H   0  0  0  0  0  0  0  0  0  0  0  0
   -3.2892    3.1631    1.1297 H   0  0  0  0  0  0  0  0  0  0  0  0
    9.0893    0.6386   -2.3459 N   0  0  0  0  0  0  0  0  0  0  0  0
   10.1665    0.6055   -2.5918 N   0  0  0  0  0  0  0  0  0  0  0  0
   -4.7500    1.1110    1.3672 O   0  0  0  0  0  0  0  0  0  0  0  0
   -5.5687   -0.0683    1.5104 C   0  0  0  0  0  0  0  0  0  0  0  0
   -6.4830    0.2752    1.9907 H   0  0  0  0  0  0  0  0  0  0  0  0
   -5.0690   -0.8074    2.1435 H   0  0  0  0  0  0  0  0  0  0  0  0
   -5.8026   -0.4904    0.5271 H   0  0  0  0  0  0  0  0  0  0  0  0
  1  6  2  0  0  0  0
  2  1  1  0  0  0  0
  3  2  2  0  0  0  0
  3  4  1  0  0  0  0
  4  5  2  0  0  0  0
  5  6  1  0  0  0  0
  5 10  1  0  0  0  0
  6 13  1  0  0  0  0
  7  1  1  0  0  0  0
  8  2  1  0  0  0  0
  9  4  1  0  0  0  0
 12 11  3  0  0  0  0
 13 14  1  0  0  0  0
 14 15  1  0  0  0  0
 14 16  1  0  0  0  0
 17 14  1  0  0  0  0
M  RAD  1   3   2
M  END
