Coordinates from ORCA-job 4-CH3O-Ph-N2+-scan-d090-169-n800
 OpenBabel09191814063D

 17 16  0  0  0  0  0  0  0  0999 V2000
   -3.9169    0.1667   -0.1993 C   0  0  0  0  0  0  0  0  0  0  0  0
   -3.5909    0.6351   -1.4953 C   0  0  0  0  0  0  0  0  0  0  0  0
   -3.5422    1.9735   -1.4303 C   0  0  0  0  0  0  0  0  0  0  0  0
   -3.3112    2.9724   -0.5622 C   0  0  0  0  0  0  0  0  0  0  0  0
   -3.6300    2.4417    0.7055 C   0  0  0  0  0  0  0  0  0  0  0  0
   -3.9107    1.0596    0.8994 C   0  0  0  0  0  0  0  0  0  0  0  0
   -4.1660   -0.8836   -0.0942 H   0  0  0  0  0  0  0  0  0  0  0  0
   -3.4862   -0.0029   -2.3662 H   0  0  0  0  0  0  0  0  0  0  0  0
   -3.1175    4.0224   -0.7491 H   0  0  0  0  0  0  0  0  0  0  0  0
   -3.7319    3.1296    1.5413 H   0  0  0  0  0  0  0  0  0  0  0  0
   13.0260   -0.2353   -1.8368 N   0  0  0  0  0  0  0  0  0  0  0  0
   14.1242   -0.3332   -1.9178 N   0  0  0  0  0  0  0  0  0  0  0  0
   -4.1678    0.7157    2.1542 O   0  0  0  0  0  0  0  0  0  0  0  0
   -4.4054   -0.6660    2.4962 C   0  0  0  0  0  0  0  0  0  0  0  0
   -4.5883   -0.6671    3.5691 H   0  0  0  0  0  0  0  0  0  0  0  0
   -3.5257   -1.2741    2.2661 H   0  0  0  0  0  0  0  0  0  0  0  0
   -5.2890   -1.0412    1.9689 H   0  0  0  0  0  0  0  0  0  0  0  0
  1  7  1  0  0  0  0
  1  6  2  0  0  0  0
  2  3  2  0  0  0  0
  2  1  1  0  0  0  0
  3  4  1  0  0  0  0
  4  5  2  0  0  0  0
  5  6  1  0  0  0  0
  5 10  1  0  0  0  0
  6 13  1  0  0  0  0
  8  2  1  0  0  0  0
  9  4  1  0  0  0  0
 12 11  3  0  0  0  0
 13 14  1  0  0  0  0
 14 15  1  0  0  0  0
 16 14  1  0  0  0  0
 17 14  1  0  0  0  0
M  RAD  1   3   2
M  END
