Coordinates from ORCA-job 4-CH3O-Ph-N2+-scan-d090-169-n800
 OpenBabel09191814063D

 17 16  0  0  0  0  0  0  0  0999 V2000
   -2.5787   -0.1673    0.2138 C   0  0  0  0  0  0  0  0  0  0  0  0
   -1.2383   -0.1732   -0.2461 C   0  0  0  0  0  0  0  0  0  0  0  0
   -0.8394    1.1048   -0.2993 C   0  0  0  0  0  0  0  0  0  0  0  0
   -1.0852    2.3077    0.2453 C   0  0  0  0  0  0  0  0  0  0  0  0
   -2.4186    2.2424    0.7023 C   0  0  0  0  0  0  0  0  0  0  0  0
   -3.1570    1.0262    0.7086 C   0  0  0  0  0  0  0  0  0  0  0  0
   -3.1269   -1.1018    0.1626 H   0  0  0  0  0  0  0  0  0  0  0  0
   -0.7044   -1.0638   -0.5590 H   0  0  0  0  0  0  0  0  0  0  0  0
   -0.4997    3.2191    0.2066 H   0  0  0  0  0  0  0  0  0  0  0  0
   -2.9086    3.1683    0.9933 H   0  0  0  0  0  0  0  0  0  0  0  0
    6.0888    0.6825   -1.7337 N   0  0  0  0  0  0  0  0  0  0  0  0
    7.1638    0.6479   -1.9890 N   0  0  0  0  0  0  0  0  0  0  0  0
   -4.3895    1.1258    1.1897 O   0  0  0  0  0  0  0  0  0  0  0  0
   -5.2194   -0.0480    1.3111 C   0  0  0  0  0  0  0  0  0  0  0  0
   -6.1602    0.3088    1.7260 H   0  0  0  0  0  0  0  0  0  0  0  0
   -4.7619   -0.7724    1.9914 H   0  0  0  0  0  0  0  0  0  0  0  0
   -5.3942   -0.4936    0.3260 H   0  0  0  0  0  0  0  0  0  0  0  0
  1  6  2  0  0  0  0
  2  1  1  0  0  0  0
  3  2  2  0  0  0  0
  3  4  1  0  0  0  0
  4  5  2  0  0  0  0
  5  6  1  0  0  0  0
  5 10  1  0  0  0  0
  6 13  1  0  0  0  0
  7  1  1  0  0  0  0
  8  2  1  0  0  0  0
  9  4  1  0  0  0  0
 12 11  3  0  0  0  0
 13 14  1  0  0  0  0
 14 15  1  0  0  0  0
 14 16  1  0  0  0  0
 17 14  1  0  0  0  0
M  RAD  1   3   2
M  END
