Coordinates from ORCA-job 4-CH3O-Ph-N2+-scan-d090-169-n800
 OpenBabel09191814063D

 17 16  0  0  0  0  0  0  0  0999 V2000
   -2.4022   -0.1767    0.1872 C   0  0  0  0  0  0  0  0  0  0  0  0
   -1.0547   -0.1940   -0.2520 C   0  0  0  0  0  0  0  0  0  0  0  0
   -0.6478    1.0811   -0.3066 C   0  0  0  0  0  0  0  0  0  0  0  0
   -0.8953    2.2898    0.2238 C   0  0  0  0  0  0  0  0  0  0  0  0
   -2.2360    2.2354    0.6606 C   0  0  0  0  0  0  0  0  0  0  0  0
   -2.9813    1.0236    0.6642 C   0  0  0  0  0  0  0  0  0  0  0  0
   -2.9548   -1.1084    0.1342 H   0  0  0  0  0  0  0  0  0  0  0  0
   -0.5214   -1.0898   -0.5508 H   0  0  0  0  0  0  0  0  0  0  0  0
   -0.3034    3.1971    0.1880 H   0  0  0  0  0  0  0  0  0  0  0  0
   -2.7248    3.1661    0.9381 H   0  0  0  0  0  0  0  0  0  0  0  0
    4.7697    0.7213   -1.4369 N   0  0  0  0  0  0  0  0  0  0  0  0
    5.8434    0.6827   -1.6967 N   0  0  0  0  0  0  0  0  0  0  0  0
   -4.2208    1.1335    1.1251 O   0  0  0  0  0  0  0  0  0  0  0  0
   -5.0589   -0.0348    1.2416 C   0  0  0  0  0  0  0  0  0  0  0  0
   -6.0041    0.3300    1.6393 H   0  0  0  0  0  0  0  0  0  0  0  0
   -4.6162   -0.7570    1.9339 H   0  0  0  0  0  0  0  0  0  0  0  0
   -5.2210   -0.4863    0.2569 H   0  0  0  0  0  0  0  0  0  0  0  0
  1  6  2  0  0  0  0
  2  1  1  0  0  0  0
  3  2  2  0  0  0  0
  3  4  1  0  0  0  0
  4  5  2  0  0  0  0
  5  6  1  0  0  0  0
  5 10  1  0  0  0  0
  6 13  1  0  0  0  0
  7  1  1  0  0  0  0
  8  2  1  0  0  0  0
  9  4  1  0  0  0  0
 12 11  3  0  0  0  0
 13 14  1  0  0  0  0
 14 15  1  0  0  0  0
 14 16  1  0  0  0  0
 17 14  1  0  0  0  0
M  RAD  1   3   2
M  END
