Coordinates from ORCA-job 4-CH3O-Ph-N2+-scan-d090-169-n800
 OpenBabel09191814063D

 17 16  0  0  0  0  0  0  0  0999 V2000
   -2.2338   -0.2017    0.1724 C   0  0  0  0  0  0  0  0  0  0  0  0
   -0.8771   -0.2528   -0.2371 C   0  0  0  0  0  0  0  0  0  0  0  0
   -0.4440    1.0126   -0.2921 C   0  0  0  0  0  0  0  0  0  0  0  0
   -0.6818    2.2348    0.2092 C   0  0  0  0  0  0  0  0  0  0  0  0
   -2.0328    2.2123    0.6167 C   0  0  0  0  0  0  0  0  0  0  0  0
   -2.8009    1.0155    0.6192 C   0  0  0  0  0  0  0  0  0  0  0  0
   -2.8030   -1.1234    0.1188 H   0  0  0  0  0  0  0  0  0  0  0  0
   -0.3561   -1.1621   -0.5153 H   0  0  0  0  0  0  0  0  0  0  0  0
   -0.0693    3.1283    0.1766 H   0  0  0  0  0  0  0  0  0  0  0  0
   -2.5079    3.1555    0.8749 H   0  0  0  0  0  0  0  0  0  0  0  0
    3.4414    0.8260   -1.1520 N   0  0  0  0  0  0  0  0  0  0  0  0
    4.5102    0.7955   -1.4322 N   0  0  0  0  0  0  0  0  0  0  0  0
   -4.0492    1.1548    1.0493 O   0  0  0  0  0  0  0  0  0  0  0  0
   -4.9107    0.0036    1.1604 C   0  0  0  0  0  0  0  0  0  0  0  0
   -5.8579    0.3899    1.5322 H   0  0  0  0  0  0  0  0  0  0  0  0
   -4.4973   -0.7183    1.8710 H   0  0  0  0  0  0  0  0  0  0  0  0
   -5.0591   -0.4572    0.1778 H   0  0  0  0  0  0  0  0  0  0  0  0
  1  6  2  0  0  0  0
  2  1  1  0  0  0  0
  3  2  2  0  0  0  0
  3  4  1  0  0  0  0
  4  5  2  0  0  0  0
  5  6  1  0  0  0  0
  5 10  1  0  0  0  0
  6 13  1  0  0  0  0
  7  1  1  0  0  0  0
  8  2  1  0  0  0  0
  9  4  1  0  0  0  0
 12 11  3  0  0  0  0
 13 14  1  0  0  0  0
 14 15  1  0  0  0  0
 14 16  1  0  0  0  0
 17 14  1  0  0  0  0
M  RAD  1   3   2
M  END
