Coordinates from ORCA-job 4-CH3O-Ph-N2+-scan-d090-169-n800
 OpenBabel09191814063D

 17 16  0  0  0  0  0  0  0  0999 V2000
   -2.3517   -0.1823    0.1805 C   0  0  0  0  0  0  0  0  0  0  0  0
   -1.0020   -0.2067   -0.2518 C   0  0  0  0  0  0  0  0  0  0  0  0
   -0.5894    1.0664   -0.3071 C   0  0  0  0  0  0  0  0  0  0  0  0
   -0.8348    2.2779    0.2177 C   0  0  0  0  0  0  0  0  0  0  0  0
   -2.1780    2.2304    0.6477 C   0  0  0  0  0  0  0  0  0  0  0  0
   -2.9283    1.0217    0.6508 C   0  0  0  0  0  0  0  0  0  0  0  0
   -2.9079   -1.1119    0.1274 H   0  0  0  0  0  0  0  0  0  0  0  0
   -0.4709   -1.1054   -0.5456 H   0  0  0  0  0  0  0  0  0  0  0  0
   -0.2386    3.1824    0.1825 H   0  0  0  0  0  0  0  0  0  0  0  0
   -2.6641    3.1638    0.9204 H   0  0  0  0  0  0  0  0  0  0  0  0
    4.3774    0.7444   -1.3493 N   0  0  0  0  0  0  0  0  0  0  0  0
    5.4504    0.7062   -1.6123 N   0  0  0  0  0  0  0  0  0  0  0  0
   -4.1699    1.1382    1.1048 O   0  0  0  0  0  0  0  0  0  0  0  0
   -5.0133   -0.0264    1.2200 C   0  0  0  0  0  0  0  0  0  0  0  0
   -5.9591    0.3433    1.6117 H   0  0  0  0  0  0  0  0  0  0  0  0
   -4.5772   -0.7485    1.9166 H   0  0  0  0  0  0  0  0  0  0  0  0
   -5.1721   -0.4800    0.2357 H   0  0  0  0  0  0  0  0  0  0  0  0
  1  6  2  0  0  0  0
  2  1  1  0  0  0  0
  3  2  2  0  0  0  0
  3  4  1  0  0  0  0
  4  5  2  0  0  0  0
  5  6  1  0  0  0  0
  5 10  1  0  0  0  0
  6 13  1  0  0  0  0
  7  1  1  0  0  0  0
  8  2  1  0  0  0  0
  9  4  1  0  0  0  0
 12 11  3  0  0  0  0
 13 14  1  0  0  0  0
 14 15  1  0  0  0  0
 14 16  1  0  0  0  0
 17 14  1  0  0  0  0
M  RAD  1   3   2
M  END
