Coordinates from ORCA-job 4-CH3O-Ph-N2+-scan-d090-169-n800
 OpenBabel09191814063D

 17 16  0  0  0  0  0  0  0  0999 V2000
   -3.2899   -0.0984    0.1781 C   0  0  0  0  0  0  0  0  0  0  0  0
   -2.0718   -0.0156   -0.5408 C   0  0  0  0  0  0  0  0  0  0  0  0
   -1.7234    1.2781   -0.5717 C   0  0  0  0  0  0  0  0  0  0  0  0
   -1.8806    2.4255    0.1088 C   0  0  0  0  0  0  0  0  0  0  0  0
   -3.0908    2.2731    0.8180 C   0  0  0  0  0  0  0  0  0  0  0  0
   -3.7833    1.0312    0.8744 C   0  0  0  0  0  0  0  0  0  0  0  0
   -3.8141   -1.0477    0.1636 H   0  0  0  0  0  0  0  0  0  0  0  0
   -1.5906   -0.8584   -1.0249 H   0  0  0  0  0  0  0  0  0  0  0  0
   -1.3381    3.3603    0.0265 H   0  0  0  0  0  0  0  0  0  0  0  0
   -3.5342    3.1546    1.2746 H   0  0  0  0  0  0  0  0  0  0  0  0
   10.9565    0.5087   -2.5411 N   0  0  0  0  0  0  0  0  0  0  0  0
   12.0400    0.4637   -2.7558 N   0  0  0  0  0  0  0  0  0  0  0  0
   -4.8934    1.0457    1.6005 O   0  0  0  0  0  0  0  0  0  0  0  0
   -5.6533   -0.1658    1.7914 C   0  0  0  0  0  0  0  0  0  0  0  0
   -6.4982    0.1220    2.4142 H   0  0  0  0  0  0  0  0  0  0  0  0
   -5.0500   -0.9199    2.3053 H   0  0  0  0  0  0  0  0  0  0  0  0
   -6.0143   -0.5437    0.8288 H   0  0  0  0  0  0  0  0  0  0  0  0
  1  6  2  0  0  0  0
  2  1  1  0  0  0  0
  3  2  2  0  0  0  0
  3  4  1  0  0  0  0
  4  5  2  0  0  0  0
  5  6  1  0  0  0  0
  5 10  1  0  0  0  0
  6 13  1  0  0  0  0
  7  1  1  0  0  0  0
  8  2  1  0  0  0  0
  9  4  1  0  0  0  0
 12 11  3  0  0  0  0
 13 14  1  0  0  0  0
 14 16  1  0  0  0  0
 14 15  1  0  0  0  0
 17 14  1  0  0  0  0
M  RAD  1   3   2
M  END
