Coordinates from ORCA-job 4-CH3O-Ph-N2+-scan-d090-169-n800
 OpenBabel09191814063D

 17 16  0  0  0  0  0  0  0  0999 V2000
   -3.2335   -0.1139    0.2029 C   0  0  0  0  0  0  0  0  0  0  0  0
   -1.9869   -0.0529   -0.4679 C   0  0  0  0  0  0  0  0  0  0  0  0
   -1.6250    1.2370   -0.5032 C   0  0  0  0  0  0  0  0  0  0  0  0
   -1.7985    2.3958    0.1534 C   0  0  0  0  0  0  0  0  0  0  0  0
   -3.0375    2.2650    0.8157 C   0  0  0  0  0  0  0  0  0  0  0  0
   -3.7435    1.0303    0.8623 C   0  0  0  0  0  0  0  0  0  0  0  0
   -3.7658   -1.0586    0.1811 H   0  0  0  0  0  0  0  0  0  0  0  0
   -1.4951   -0.9072   -0.9201 H   0  0  0  0  0  0  0  0  0  0  0  0
   -1.2442    3.3244    0.0793 H   0  0  0  0  0  0  0  0  0  0  0  0
   -3.4901    3.1571    1.2414 H   0  0  0  0  0  0  0  0  0  0  0  0
   10.6236    0.5459   -2.5302 N   0  0  0  0  0  0  0  0  0  0  0  0
   11.7055    0.5051   -2.7539 N   0  0  0  0  0  0  0  0  0  0  0  0
   -4.8816    1.0656    1.5431 O   0  0  0  0  0  0  0  0  0  0  0  0
   -5.6600   -0.1361    1.7209 C   0  0  0  0  0  0  0  0  0  0  0  0
   -6.5263    0.1685    2.3052 H   0  0  0  0  0  0  0  0  0  0  0  0
   -5.0849   -0.8878    2.2694 H   0  0  0  0  0  0  0  0  0  0  0  0
   -5.9859   -0.5250    0.7502 H   0  0  0  0  0  0  0  0  0  0  0  0
  1  6  2  0  0  0  0
  2  1  1  0  0  0  0
  3  2  2  0  0  0  0
  3  4  1  0  0  0  0
  4  5  2  0  0  0  0
  5  6  1  0  0  0  0
  5 10  1  0  0  0  0
  6 13  1  0  0  0  0
  7  1  1  0  0  0  0
  8  2  1  0  0  0  0
  9  4  1  0  0  0  0
 12 11  3  0  0  0  0
 13 14  1  0  0  0  0
 14 16  1  0  0  0  0
 14 15  1  0  0  0  0
 17 14  1  0  0  0  0
M  RAD  1   3   2
M  END
