Coordinates from ORCA-job 4-CH3O-Ph-N2+-scan-d090-169-n800
 OpenBabel09191814063D

 17 16  0  0  0  0  0  0  0  0999 V2000
   -3.8824    0.1543   -0.1869 C   0  0  0  0  0  0  0  0  0  0  0  0
   -3.4884    0.6067   -1.4697 C   0  0  0  0  0  0  0  0  0  0  0  0
   -3.4204    1.9446   -1.4127 C   0  0  0  0  0  0  0  0  0  0  0  0
   -3.2130    2.9464   -0.5419 C   0  0  0  0  0  0  0  0  0  0  0  0
   -3.5994    2.4317    0.7133 C   0  0  0  0  0  0  0  0  0  0  0  0
   -3.9123    1.0560    0.9042 C   0  0  0  0  0  0  0  0  0  0  0  0
   -4.1539   -0.8908   -0.0860 H   0  0  0  0  0  0  0  0  0  0  0  0
   -3.3543   -0.0404   -2.3298 H   0  0  0  0  0  0  0  0  0  0  0  0
   -2.9931    3.9916   -0.7273 H   0  0  0  0  0  0  0  0  0  0  0  0
   -3.7285    3.1280    1.5383 H   0  0  0  0  0  0  0  0  0  0  0  0
   12.9540   -0.1874   -1.8913 N   0  0  0  0  0  0  0  0  0  0  0  0
   14.0519   -0.2831   -1.9781 N   0  0  0  0  0  0  0  0  0  0  0  0
   -4.2332    0.7267    2.1482 O   0  0  0  0  0  0  0  0  0  0  0  0
   -4.5097   -0.6481    2.4890 C   0  0  0  0  0  0  0  0  0  0  0  0
   -4.7423   -0.6374    3.5521 H   0  0  0  0  0  0  0  0  0  0  0  0
   -3.6307   -1.2725    2.3047 H   0  0  0  0  0  0  0  0  0  0  0  0
   -5.3740   -1.0129    1.9239 H   0  0  0  0  0  0  0  0  0  0  0  0
  1  7  1  0  0  0  0
  1  6  2  0  0  0  0
  2  3  2  0  0  0  0
  2  1  1  0  0  0  0
  3  4  1  0  0  0  0
  4  5  2  0  0  0  0
  5  6  1  0  0  0  0
  5 10  1  0  0  0  0
  6 13  1  0  0  0  0
  8  2  1  0  0  0  0
  9  4  1  0  0  0  0
 12 11  3  0  0  0  0
 13 14  1  0  0  0  0
 14 15  1  0  0  0  0
 16 14  1  0  0  0  0
 17 14  1  0  0  0  0
M  RAD  1   3   2
M  END
