Coordinates from ORCA-job 4-CH3O-Ph-N2+-scan-d090-169-n800
 OpenBabel09191814063D

 17 16  0  0  0  0  0  0  0  0999 V2000
   -2.6403   -0.1661    0.2223 C   0  0  0  0  0  0  0  0  0  0  0  0
   -1.3027   -0.1699   -0.2449 C   0  0  0  0  0  0  0  0  0  0  0  0
   -0.9043    1.1083   -0.2988 C   0  0  0  0  0  0  0  0  0  0  0  0
   -1.1469    2.3090    0.2516 C   0  0  0  0  0  0  0  0  0  0  0  0
   -2.4775    2.2427    0.7160 C   0  0  0  0  0  0  0  0  0  0  0  0
   -3.2158    1.0263    0.7236 C   0  0  0  0  0  0  0  0  0  0  0  0
   -3.1886   -1.1005    0.1720 H   0  0  0  0  0  0  0  0  0  0  0  0
   -0.7703   -1.0597   -0.5629 H   0  0  0  0  0  0  0  0  0  0  0  0
   -0.5621    3.2209    0.2113 H   0  0  0  0  0  0  0  0  0  0  0  0
   -2.9662    3.1679    1.0113 H   0  0  0  0  0  0  0  0  0  0  0  0
    6.5355    0.6772   -1.8322 N   0  0  0  0  0  0  0  0  0  0  0  0
    7.6108    0.6440   -2.0865 N   0  0  0  0  0  0  0  0  0  0  0  0
   -4.4453    1.1246    1.2122 O   0  0  0  0  0  0  0  0  0  0  0  0
   -5.2746   -0.0495    1.3357 C   0  0  0  0  0  0  0  0  0  0  0  0
   -6.2130    0.3065    1.7567 H   0  0  0  0  0  0  0  0  0  0  0  0
   -4.8132   -0.7754    2.0118 H   0  0  0  0  0  0  0  0  0  0  0  0
   -5.4550   -0.4928    0.3505 H   0  0  0  0  0  0  0  0  0  0  0  0
  1  6  2  0  0  0  0
  2  1  1  0  0  0  0
  3  2  2  0  0  0  0
  3  4  1  0  0  0  0
  4  5  2  0  0  0  0
  5  6  1  0  0  0  0
  5 10  1  0  0  0  0
  6 13  1  0  0  0  0
  7  1  1  0  0  0  0
  8  2  1  0  0  0  0
  9  4  1  0  0  0  0
 12 11  3  0  0  0  0
 13 14  1  0  0  0  0
 14 15  1  0  0  0  0
 14 16  1  0  0  0  0
 17 14  1  0  0  0  0
M  RAD  1   3   2
M  END
