Coordinates from ORCA-job 4-CH3O-Ph-N2+-scan-d090-169-n800
 OpenBabel09191814063D

 17 16  0  0  0  0  0  0  0  0999 V2000
   -2.5272   -0.1690    0.2061 C   0  0  0  0  0  0  0  0  0  0  0  0
   -1.1847   -0.1766   -0.2477 C   0  0  0  0  0  0  0  0  0  0  0  0
   -0.7848    1.1011   -0.3012 C   0  0  0  0  0  0  0  0  0  0  0  0
   -1.0324    2.3052    0.2396 C   0  0  0  0  0  0  0  0  0  0  0  0
   -2.3679    2.2416    0.6907 C   0  0  0  0  0  0  0  0  0  0  0  0
   -3.1071    1.0259    0.6960 C   0  0  0  0  0  0  0  0  0  0  0  0
   -3.0756   -1.1032    0.1542 H   0  0  0  0  0  0  0  0  0  0  0  0
   -0.6499   -1.0681   -0.5566 H   0  0  0  0  0  0  0  0  0  0  0  0
   -0.4461    3.2161    0.2020 H   0  0  0  0  0  0  0  0  0  0  0  0
   -2.8587    3.1683    0.9778 H   0  0  0  0  0  0  0  0  0  0  0  0
    5.7111    0.6889   -1.6494 N   0  0  0  0  0  0  0  0  0  0  0  0
    6.7859    0.6530   -1.9056 N   0  0  0  0  0  0  0  0  0  0  0  0
   -4.3417    1.1271    1.1712 O   0  0  0  0  0  0  0  0  0  0  0  0
   -5.1728   -0.0461    1.2910 C   0  0  0  0  0  0  0  0  0  0  0  0
   -6.1153    0.3121    1.7009 H   0  0  0  0  0  0  0  0  0  0  0  0
   -4.7189   -0.7694    1.9747 H   0  0  0  0  0  0  0  0  0  0  0  0
   -5.3434   -0.4934    0.3059 H   0  0  0  0  0  0  0  0  0  0  0  0
  1  6  2  0  0  0  0
  2  1  1  0  0  0  0
  3  2  2  0  0  0  0
  3  4  1  0  0  0  0
  4  5  2  0  0  0  0
  5  6  1  0  0  0  0
  5 10  1  0  0  0  0
  6 13  1  0  0  0  0
  7  1  1  0  0  0  0
  8  2  1  0  0  0  0
  9  4  1  0  0  0  0
 12 11  3  0  0  0  0
 13 14  1  0  0  0  0
 14 15  1  0  0  0  0
 14 16  1  0  0  0  0
 17 14  1  0  0  0  0
M  RAD  1   3   2
M  END
