Coordinates from ORCA-job 4-CH3O-Ph-N2+-scan-d090-169-n800
 OpenBabel09191814063D

 17 16  0  0  0  0  0  0  0  0999 V2000
   -2.9243   -0.1567    0.2496 C   0  0  0  0  0  0  0  0  0  0  0  0
   -1.6057   -0.1515   -0.2686 C   0  0  0  0  0  0  0  0  0  0  0  0
   -1.2105    1.1280   -0.3187 C   0  0  0  0  0  0  0  0  0  0  0  0
   -1.4323    2.3196    0.2597 C   0  0  0  0  0  0  0  0  0  0  0  0
   -2.7440    2.2445    0.7738 C   0  0  0  0  0  0  0  0  0  0  0  0
   -3.4808    1.0271    0.7911 C   0  0  0  0  0  0  0  0  0  0  0  0
   -3.4734   -1.0910    0.2063 H   0  0  0  0  0  0  0  0  0  0  0  0
   -1.0851   -1.0356   -0.6201 H   0  0  0  0  0  0  0  0  0  0  0  0
   -0.8505    3.2329    0.2107 H   0  0  0  0  0  0  0  0  0  0  0  0
   -3.2218    3.1645    1.1015 H   0  0  0  0  0  0  0  0  0  0  0  0
    8.5603    0.6522   -2.2506 N   0  0  0  0  0  0  0  0  0  0  0  0
    9.6369    0.6196   -2.4996 N   0  0  0  0  0  0  0  0  0  0  0  0
   -4.6905    1.1165    1.3282 O   0  0  0  0  0  0  0  0  0  0  0  0
   -5.5139   -0.0603    1.4655 C   0  0  0  0  0  0  0  0  0  0  0  0
   -6.4356    0.2882    1.9276 H   0  0  0  0  0  0  0  0  0  0  0  0
   -5.0265   -0.7959    2.1122 H   0  0  0  0  0  0  0  0  0  0  0  0
   -5.7317   -0.4887    0.4813 H   0  0  0  0  0  0  0  0  0  0  0  0
  1  6  2  0  0  0  0
  2  1  1  0  0  0  0
  3  2  2  0  0  0  0
  3  4  1  0  0  0  0
  4  5  2  0  0  0  0
  5  6  1  0  0  0  0
  5 10  1  0  0  0  0
  6 13  1  0  0  0  0
  7  1  1  0  0  0  0
  8  2  1  0  0  0  0
  9  4  1  0  0  0  0
 12 11  3  0  0  0  0
 13 14  1  0  0  0  0
 14 15  1  0  0  0  0
 14 16  1  0  0  0  0
 17 14  1  0  0  0  0
M  RAD  1   3   2
M  END
