Coordinates from ORCA-job 4-CH3O-Ph-N2+-scan-d090-169-n800
 OpenBabel09191814063D

 17 16  0  0  0  0  0  0  0  0999 V2000
   -3.0026   -0.1513    0.2498 C   0  0  0  0  0  0  0  0  0  0  0  0
   -1.6934   -0.1397   -0.2915 C   0  0  0  0  0  0  0  0  0  0  0  0
   -1.3016    1.1409   -0.3397 C   0  0  0  0  0  0  0  0  0  0  0  0
   -1.5153    2.3280    0.2512 C   0  0  0  0  0  0  0  0  0  0  0  0
   -2.8176    2.2466    0.7878 C   0  0  0  0  0  0  0  0  0  0  0  0
   -3.5517    1.0276    0.8094 C   0  0  0  0  0  0  0  0  0  0  0  0
   -3.5507   -1.0863    0.2096 H   0  0  0  0  0  0  0  0  0  0  0  0
   -1.1774   -1.0202   -0.6584 H   0  0  0  0  0  0  0  0  0  0  0  0
   -0.9362    3.2428    0.1983 H   0  0  0  0  0  0  0  0  0  0  0  0
   -3.2913    3.1633    1.1303 H   0  0  0  0  0  0  0  0  0  0  0  0
    9.1065    0.6381   -2.3490 N   0  0  0  0  0  0  0  0  0  0  0  0
   10.1837    0.6051   -2.5948 N   0  0  0  0  0  0  0  0  0  0  0  0
   -4.7518    1.1107    1.3685 O   0  0  0  0  0  0  0  0  0  0  0  0
   -5.5704   -0.0687    1.5120 C   0  0  0  0  0  0  0  0  0  0  0  0
   -6.4845    0.2748    1.9928 H   0  0  0  0  0  0  0  0  0  0  0  0
   -5.0703   -0.8078    2.1447 H   0  0  0  0  0  0  0  0  0  0  0  0
   -5.8049   -0.4905    0.5287 H   0  0  0  0  0  0  0  0  0  0  0  0
  1  6  2  0  0  0  0
  2  1  1  0  0  0  0
  3  2  2  0  0  0  0
  3  4  1  0  0  0  0
  4  5  2  0  0  0  0
  5  6  1  0  0  0  0
  5 10  1  0  0  0  0
  6 13  1  0  0  0  0
  7  1  1  0  0  0  0
  8  2  1  0  0  0  0
  9  4  1  0  0  0  0
 12 11  3  0  0  0  0
 13 14  1  0  0  0  0
 14 15  1  0  0  0  0
 14 16  1  0  0  0  0
 17 14  1  0  0  0  0
M  RAD  1   3   2
M  END
