Coordinates from ORCA-job 4-CH3O-Ph-N2+-scan-d090-169-n800
 OpenBabel09191814063D

 17 16  0  0  0  0  0  0  0  0999 V2000
   -2.3086   -0.1887    0.1761 C   0  0  0  0  0  0  0  0  0  0  0  0
   -0.9566   -0.2213   -0.2488 C   0  0  0  0  0  0  0  0  0  0  0  0
   -0.5376    1.0496   -0.3049 C   0  0  0  0  0  0  0  0  0  0  0  0
   -0.7801    2.2641    0.2137 C   0  0  0  0  0  0  0  0  0  0  0  0
   -2.1259    2.2245    0.6365 C   0  0  0  0  0  0  0  0  0  0  0  0
   -2.8821    1.0196    0.6393 C   0  0  0  0  0  0  0  0  0  0  0  0
   -2.8690   -1.1158    0.1230 H   0  0  0  0  0  0  0  0  0  0  0  0
   -0.4282   -1.1233   -0.5371 H   0  0  0  0  0  0  0  0  0  0  0  0
   -0.1789    3.1653    0.1792 H   0  0  0  0  0  0  0  0  0  0  0  0
   -2.6088    3.1611    0.9042 H   0  0  0  0  0  0  0  0  0  0  0  0
    4.0369    0.7707   -1.2758 N   0  0  0  0  0  0  0  0  0  0  0  0
    5.1088    0.7341   -1.5430 N   0  0  0  0  0  0  0  0  0  0  0  0
   -4.1257    1.1434    1.0858 O   0  0  0  0  0  0  0  0  0  0  0  0
   -4.9752   -0.0168    1.1997 C   0  0  0  0  0  0  0  0  0  0  0  0
   -5.9215    0.3585    1.5850 H   0  0  0  0  0  0  0  0  0  0  0  0
   -4.5465   -0.7389    1.9008 H   0  0  0  0  0  0  0  0  0  0  0  0
   -5.1306   -0.4726    0.2159 H   0  0  0  0  0  0  0  0  0  0  0  0
  1  6  2  0  0  0  0
  2  1  1  0  0  0  0
  3  2  2  0  0  0  0
  3  4  1  0  0  0  0
  4  5  2  0  0  0  0
  5  6  1  0  0  0  0
  5 10  1  0  0  0  0
  6 13  1  0  0  0  0
  7  1  1  0  0  0  0
  8  2  1  0  0  0  0
  9  4  1  0  0  0  0
 12 11  3  0  0  0  0
 13 14  1  0  0  0  0
 14 15  1  0  0  0  0
 14 16  1  0  0  0  0
 17 14  1  0  0  0  0
M  RAD  1   3   2
M  END
