Coordinates from ORCA-job 4-CH3O-Ph-N2+-scan-d090-169-n800
 OpenBabel09191814063D

 17 16  0  0  0  0  0  0  0  0999 V2000
   -2.3064   -0.1891    0.1758 C   0  0  0  0  0  0  0  0  0  0  0  0
   -0.9545   -0.2218   -0.2485 C   0  0  0  0  0  0  0  0  0  0  0  0
   -0.5349    1.0488   -0.3051 C   0  0  0  0  0  0  0  0  0  0  0  0
   -0.7775    2.2631    0.2137 C   0  0  0  0  0  0  0  0  0  0  0  0
   -2.1233    2.2243    0.6360 C   0  0  0  0  0  0  0  0  0  0  0  0
   -2.8798    1.0195    0.6387 C   0  0  0  0  0  0  0  0  0  0  0  0
   -2.8670   -1.1160    0.1223 H   0  0  0  0  0  0  0  0  0  0  0  0
   -0.4264   -1.1240   -0.5368 H   0  0  0  0  0  0  0  0  0  0  0  0
   -0.1762    3.1643    0.1790 H   0  0  0  0  0  0  0  0  0  0  0  0
   -2.6060    3.1611    0.9031 H   0  0  0  0  0  0  0  0  0  0  0  0
    4.0201    0.7720   -1.2720 N   0  0  0  0  0  0  0  0  0  0  0  0
    5.0920    0.7354   -1.5394 N   0  0  0  0  0  0  0  0  0  0  0  0
   -4.1235    1.1436    1.0849 O   0  0  0  0  0  0  0  0  0  0  0  0
   -4.9733   -0.0163    1.1988 C   0  0  0  0  0  0  0  0  0  0  0  0
   -5.9196    0.3592    1.5838 H   0  0  0  0  0  0  0  0  0  0  0  0
   -4.5449   -0.7384    1.9003 H   0  0  0  0  0  0  0  0  0  0  0  0
   -5.1285   -0.4723    0.2151 H   0  0  0  0  0  0  0  0  0  0  0  0
  1  6  2  0  0  0  0
  2  1  1  0  0  0  0
  3  2  2  0  0  0  0
  3  4  1  0  0  0  0
  4  5  2  0  0  0  0
  5  6  1  0  0  0  0
  5 10  1  0  0  0  0
  6 13  1  0  0  0  0
  7  1  1  0  0  0  0
  8  2  1  0  0  0  0
  9  4  1  0  0  0  0
 12 11  3  0  0  0  0
 13 14  1  0  0  0  0
 14 15  1  0  0  0  0
 14 16  1  0  0  0  0
 17 14  1  0  0  0  0
M  RAD  1   3   2
M  END
