Coordinates from ORCA-job 4-CH3O-Ph-N2+-scan-d090-169-n800
 OpenBabel09191814063D

 17 16  0  0  0  0  0  0  0  0999 V2000
   -3.7157    0.0817   -0.1011 C   0  0  0  0  0  0  0  0  0  0  0  0
   -2.9976    0.4306   -1.2705 C   0  0  0  0  0  0  0  0  0  0  0  0
   -2.8286    1.7608   -1.2476 C   0  0  0  0  0  0  0  0  0  0  0  0
   -2.7418    2.7905   -0.3886 C   0  0  0  0  0  0  0  0  0  0  0  0
   -3.4518    2.3772    0.7581 C   0  0  0  0  0  0  0  0  0  0  0  0
   -3.9194    1.0424    0.9190 C   0  0  0  0  0  0  0  0  0  0  0  0
   -4.0936   -0.9323   -0.0291 H   0  0  0  0  0  0  0  0  0  0  0  0
   -2.7249   -0.2708   -2.0516 H   0  0  0  0  0  0  0  0  0  0  0  0
   -2.3912    3.8028   -0.5541 H   0  0  0  0  0  0  0  0  0  0  0  0
   -3.7054    3.1259    1.5046 H   0  0  0  0  0  0  0  0  0  0  0  0
   12.6081    0.0519   -2.1684 N   0  0  0  0  0  0  0  0  0  0  0  0
   13.7039   -0.0310   -2.2882 N   0  0  0  0  0  0  0  0  0  0  0  0
   -4.5476    0.8078    2.0633 O   0  0  0  0  0  0  0  0  0  0  0  0
   -5.0137   -0.5209    2.3787 C   0  0  0  0  0  0  0  0  0  0  0  0
   -5.4850   -0.4336    3.3559 H   0  0  0  0  0  0  0  0  0  0  0  0
   -4.1736   -1.2195    2.4299 H   0  0  0  0  0  0  0  0  0  0  0  0
   -5.7516   -0.8501    1.6393 H   0  0  0  0  0  0  0  0  0  0  0  0
  1  7  1  0  0  0  0
  1  6  2  0  0  0  0
  2  3  2  0  0  0  0
  2  1  1  0  0  0  0
  3  4  1  0  0  0  0
  4  5  2  0  0  0  0
  5  6  1  0  0  0  0
  5 10  1  0  0  0  0
  6 13  1  0  0  0  0
  8  2  1  0  0  0  0
  9  4  1  0  0  0  0
 12 11  3  0  0  0  0
 13 14  1  0  0  0  0
 14 16  1  0  0  0  0
 14 15  1  0  0  0  0
 17 14  1  0  0  0  0
M  RAD  1   3   2
M  END
