Coordinates from ORCA-job 4-CH3O-Ph-N2+-scan-d090-169-n800
 OpenBabel09191814063D

 17 16  0  0  0  0  0  0  0  0999 V2000
   -3.8418    0.1383   -0.1702 C   0  0  0  0  0  0  0  0  0  0  0  0
   -3.3675    0.5691   -1.4328 C   0  0  0  0  0  0  0  0  0  0  0  0
   -3.2748    1.9060   -1.3851 C   0  0  0  0  0  0  0  0  0  0  0  0
   -3.0943    2.9119   -0.5130 C   0  0  0  0  0  0  0  0  0  0  0  0
   -3.5609    2.4186    0.7234 C   0  0  0  0  0  0  0  0  0  0  0  0
   -3.9133    1.0518    0.9091 C   0  0  0  0  0  0  0  0  0  0  0  0
   -4.1407   -0.8998   -0.0747 H   0  0  0  0  0  0  0  0  0  0  0  0
   -3.1995   -0.0897   -2.2780 H   0  0  0  0  0  0  0  0  0  0  0  0
   -2.8424    3.9504   -0.6954 H   0  0  0  0  0  0  0  0  0  0  0  0
   -3.7209    3.1262    1.5332 H   0  0  0  0  0  0  0  0  0  0  0  0
   12.8666   -0.1286   -1.9570 N   0  0  0  0  0  0  0  0  0  0  0  0
   13.9642   -0.2215   -2.0509 N   0  0  0  0  0  0  0  0  0  0  0  0
   -4.3098    0.7422    2.1362 O   0  0  0  0  0  0  0  0  0  0  0  0
   -4.6346   -0.6227    2.4737 C   0  0  0  0  0  0  0  0  0  0  0  0
   -4.9261   -0.5960    3.5219 H   0  0  0  0  0  0  0  0  0  0  0  0
   -3.7602   -1.2674    2.3450 H   0  0  0  0  0  0  0  0  0  0  0  0
   -5.4735   -0.9754    1.8642 H   0  0  0  0  0  0  0  0  0  0  0  0
  1  7  1  0  0  0  0
  1  6  2  0  0  0  0
  2  3  2  0  0  0  0
  2  1  1  0  0  0  0
  3  4  1  0  0  0  0
  4  5  2  0  0  0  0
  5  6  1  0  0  0  0
  5 10  1  0  0  0  0
  6 13  1  0  0  0  0
  8  2  1  0  0  0  0
  9  4  1  0  0  0  0
 12 11  3  0  0  0  0
 13 14  1  0  0  0  0
 14 15  1  0  0  0  0
 16 14  1  0  0  0  0
 17 14  1  0  0  0  0
M  RAD  1   3   2
M  END
