Coordinates from ORCA-job 4-CH3O-Ph-N2+-scan-d090-169-n800
 OpenBabel09191814063D

 17 16  0  0  0  0  0  0  0  0999 V2000
   -3.1837   -0.1256    0.2207 C   0  0  0  0  0  0  0  0  0  0  0  0
   -1.9169   -0.0806   -0.4123 C   0  0  0  0  0  0  0  0  0  0  0  0
   -1.5453    1.2065   -0.4516 C   0  0  0  0  0  0  0  0  0  0  0  0
   -1.7305    2.3739    0.1864 C   0  0  0  0  0  0  0  0  0  0  0  0
   -2.9899    2.2589    0.8121 C   0  0  0  0  0  0  0  0  0  0  0  0
   -3.7055    1.0295    0.8512 C   0  0  0  0  0  0  0  0  0  0  0  0
   -3.7216   -1.0669    0.1936 H   0  0  0  0  0  0  0  0  0  0  0  0
   -1.4172   -0.9432   -0.8394 H   0  0  0  0  0  0  0  0  0  0  0  0
   -1.1676    3.2979    0.1187 H   0  0  0  0  0  0  0  0  0  0  0  0
   -3.4491    3.1589    1.2136 H   0  0  0  0  0  0  0  0  0  0  0  0
   10.3148    0.5741   -2.5095 N   0  0  0  0  0  0  0  0  0  0  0  0
   11.3953    0.5362   -2.7401 N   0  0  0  0  0  0  0  0  0  0  0  0
   -4.8635    1.0802    1.4966 O   0  0  0  0  0  0  0  0  0  0  0  0
   -5.6554   -0.1141    1.6642 C   0  0  0  0  0  0  0  0  0  0  0  0
   -6.5369    0.2030    2.2184 H   0  0  0  0  0  0  0  0  0  0  0  0
   -5.1024   -0.8632    2.2386 H   0  0  0  0  0  0  0  0  0  0  0  0
   -5.9543   -0.5121    0.6886 H   0  0  0  0  0  0  0  0  0  0  0  0
  1  6  2  0  0  0  0
  2  1  1  0  0  0  0
  3  2  2  0  0  0  0
  3  4  1  0  0  0  0
  4  5  2  0  0  0  0
  5  6  1  0  0  0  0
  5 10  1  0  0  0  0
  6 13  1  0  0  0  0
  7  1  1  0  0  0  0
  8  2  1  0  0  0  0
  9  4  1  0  0  0  0
 12 11  3  0  0  0  0
 13 14  1  0  0  0  0
 14 15  1  0  0  0  0
 14 16  1  0  0  0  0
 17 14  1  0  0  0  0
M  RAD  1   3   2
M  END
