Coordinates from ORCA-job 4-CH3O-Ph-N2+-scan-d090-169-n800
 OpenBabel09191814063D

 17 16  0  0  0  0  0  0  0  0999 V2000
   -3.5358   -0.0035    0.0229 C   0  0  0  0  0  0  0  0  0  0  0  0
   -2.5387    0.2165   -0.9592 C   0  0  0  0  0  0  0  0  0  0  0  0
   -2.2745    1.5306   -0.9614 C   0  0  0  0  0  0  0  0  0  0  0  0
   -2.3150    2.6113   -0.1646 C   0  0  0  0  0  0  0  0  0  0  0  0
   -3.3035    2.3236    0.8001 C   0  0  0  0  0  0  0  0  0  0  0  0
   -3.8977    1.0355    0.9138 C   0  0  0  0  0  0  0  0  0  0  0  0
   -3.9989   -0.9837    0.0533 H   0  0  0  0  0  0  0  0  0  0  0  0
   -2.1498   -0.5530   -1.6170 H   0  0  0  0  0  0  0  0  0  0  0  0
   -1.8572    3.5854   -0.2938 H   0  0  0  0  0  0  0  0  0  0  0  0
   -3.6643    3.1366    1.4254 H   0  0  0  0  0  0  0  0  0  0  0  0
   12.0954    0.2820   -2.4133 N   0  0  0  0  0  0  0  0  0  0  0  0
   13.1869    0.2154   -2.5757 N   0  0  0  0  0  0  0  0  0  0  0  0
   -4.7934    0.9199    1.8855 O   0  0  0  0  0  0  0  0  0  0  0  0
   -5.4212   -0.3522    2.1483 C   0  0  0  0  0  0  0  0  0  0  0  0
   -6.0996   -0.1697    2.9796 H   0  0  0  0  0  0  0  0  0  0  0  0
   -4.6729   -1.0975    2.4334 H   0  0  0  0  0  0  0  0  0  0  0  0
   -5.9892   -0.6839    1.2725 H   0  0  0  0  0  0  0  0  0  0  0  0
  1  7  1  0  0  0  0
  1  6  2  0  0  0  0
  2  1  1  0  0  0  0
  3  2  2  0  0  0  0
  3  4  1  0  0  0  0
  4  5  2  0  0  0  0
  5  6  1  0  0  0  0
  5 10  1  0  0  0  0
  6 13  1  0  0  0  0
  8  2  1  0  0  0  0
  9  4  1  0  0  0  0
 12 11  3  0  0  0  0
 13 14  1  0  0  0  0
 14 16  1  0  0  0  0
 14 15  1  0  0  0  0
 17 14  1  0  0  0  0
M  RAD  1   3   2
M  END
