Coordinates from ORCA-job 4-CH3O-Ph-N2+-scan-d090-169-n800
 OpenBabel09191814063D

 17 16  0  0  0  0  0  0  0  0999 V2000
   -2.9000   -0.1580    0.2486 C   0  0  0  0  0  0  0  0  0  0  0  0
   -1.5791   -0.1542   -0.2636 C   0  0  0  0  0  0  0  0  0  0  0  0
   -1.1832    1.1250   -0.3143 C   0  0  0  0  0  0  0  0  0  0  0  0
   -1.4072    2.3178    0.2610 C   0  0  0  0  0  0  0  0  0  0  0  0
   -2.7212    2.2441    0.7692 C   0  0  0  0  0  0  0  0  0  0  0  0
   -3.4585    1.0270    0.7853 C   0  0  0  0  0  0  0  0  0  0  0  0
   -3.4493   -1.0922    0.2044 H   0  0  0  0  0  0  0  0  0  0  0  0
   -1.0572   -1.0391   -0.6112 H   0  0  0  0  0  0  0  0  0  0  0  0
   -0.8248    3.2308    0.2129 H   0  0  0  0  0  0  0  0  0  0  0  0
   -3.2002    3.1649    1.0930 H   0  0  0  0  0  0  0  0  0  0  0  0
    8.3892    0.6555   -2.2179 N   0  0  0  0  0  0  0  0  0  0  0  0
    9.4656    0.6230   -2.4676 N   0  0  0  0  0  0  0  0  0  0  0  0
   -4.6706    1.1177    1.3168 O   0  0  0  0  0  0  0  0  0  0  0  0
   -5.4950   -0.0585    1.4525 C   0  0  0  0  0  0  0  0  0  0  0  0
   -6.4187    0.2912    1.9098 H   0  0  0  0  0  0  0  0  0  0  0  0
   -5.0108   -0.7930    2.1027 H   0  0  0  0  0  0  0  0  0  0  0  0
   -5.7086   -0.4886    0.4681 H   0  0  0  0  0  0  0  0  0  0  0  0
  1  6  2  0  0  0  0
  2  1  1  0  0  0  0
  3  2  2  0  0  0  0
  3  4  1  0  0  0  0
  4  5  2  0  0  0  0
  5  6  1  0  0  0  0
  5 10  1  0  0  0  0
  6 13  1  0  0  0  0
  7  1  1  0  0  0  0
  8  2  1  0  0  0  0
  9  4  1  0  0  0  0
 12 11  3  0  0  0  0
 13 14  1  0  0  0  0
 14 15  1  0  0  0  0
 14 16  1  0  0  0  0
 17 14  1  0  0  0  0
M  RAD  1   3   2
M  END
