Coordinates from ORCA-job 4-CH3O-Ph-N2+-scan-d090-169-n800
 OpenBabel09191814063D

 17 16  0  0  0  0  0  0  0  0999 V2000
   -2.8322   -0.1609    0.2439 C   0  0  0  0  0  0  0  0  0  0  0  0
   -1.5057   -0.1601   -0.2538 C   0  0  0  0  0  0  0  0  0  0  0  0
   -1.1085    1.1187   -0.3056 C   0  0  0  0  0  0  0  0  0  0  0  0
   -1.3382    2.3141    0.2618 C   0  0  0  0  0  0  0  0  0  0  0  0
   -2.6578    2.2434    0.7559 C   0  0  0  0  0  0  0  0  0  0  0  0
   -3.3959    1.0268    0.7693 C   0  0  0  0  0  0  0  0  0  0  0  0
   -3.3815   -1.0949    0.1979 H   0  0  0  0  0  0  0  0  0  0  0  0
   -0.9806   -1.0468   -0.5918 H   0  0  0  0  0  0  0  0  0  0  0  0
   -0.7547    3.2266    0.2162 H   0  0  0  0  0  0  0  0  0  0  0  0
   -3.1397    3.1658    1.0705 H   0  0  0  0  0  0  0  0  0  0  0  0
    7.9093    0.6629   -2.1227 N   0  0  0  0  0  0  0  0  0  0  0  0
    8.9853    0.6306   -2.3740 N   0  0  0  0  0  0  0  0  0  0  0  0
   -4.6137    1.1205    1.2871 O   0  0  0  0  0  0  0  0  0  0  0  0
   -5.4402   -0.0548    1.4189 C   0  0  0  0  0  0  0  0  0  0  0  0
   -6.3686    0.2974    1.8645 H   0  0  0  0  0  0  0  0  0  0  0  0
   -4.9635   -0.7867    2.0775 H   0  0  0  0  0  0  0  0  0  0  0  0
   -5.6432   -0.4891    0.4341 H   0  0  0  0  0  0  0  0  0  0  0  0
  1  6  2  0  0  0  0
  2  1  1  0  0  0  0
  3  2  2  0  0  0  0
  3  4  1  0  0  0  0
  4  5  2  0  0  0  0
  5  6  1  0  0  0  0
  5 10  1  0  0  0  0
  6 13  1  0  0  0  0
  7  1  1  0  0  0  0
  8  2  1  0  0  0  0
  9  4  1  0  0  0  0
 12 11  3  0  0  0  0
 13 14  1  0  0  0  0
 14 15  1  0  0  0  0
 14 16  1  0  0  0  0
 17 14  1  0  0  0  0
M  RAD  1   3   2
M  END
