Coordinates from ORCA-job 4-CH3O-Ph-N2+-scan-d090-169-n800
 OpenBabel09191814063D

 17 16  0  0  0  0  0  0  0  0999 V2000
   -2.3735   -0.1796    0.1832 C   0  0  0  0  0  0  0  0  0  0  0  0
   -1.0248   -0.2007   -0.2523 C   0  0  0  0  0  0  0  0  0  0  0  0
   -0.6149    1.0734   -0.3072 C   0  0  0  0  0  0  0  0  0  0  0  0
   -0.8614    2.2835    0.2202 C   0  0  0  0  0  0  0  0  0  0  0  0
   -2.2034    2.2328    0.6533 C   0  0  0  0  0  0  0  0  0  0  0  0
   -2.9514    1.0226    0.6566 C   0  0  0  0  0  0  0  0  0  0  0  0
   -2.9280   -1.1102    0.1301 H   0  0  0  0  0  0  0  0  0  0  0  0
   -0.4927   -1.0980   -0.5484 H   0  0  0  0  0  0  0  0  0  0  0  0
   -0.2673    3.1894    0.1847 H   0  0  0  0  0  0  0  0  0  0  0  0
   -2.6909    3.1649    0.9282 H   0  0  0  0  0  0  0  0  0  0  0  0
    4.5479    0.7334   -1.3871 N   0  0  0  0  0  0  0  0  0  0  0  0
    5.6212    0.6949   -1.6485 N   0  0  0  0  0  0  0  0  0  0  0  0
   -4.1920    1.1360    1.1138 O   0  0  0  0  0  0  0  0  0  0  0  0
   -5.0329   -0.0304    1.2296 C   0  0  0  0  0  0  0  0  0  0  0  0
   -5.9785    0.3369    1.6241 H   0  0  0  0  0  0  0  0  0  0  0  0
   -4.5937   -0.7525    1.9242 H   0  0  0  0  0  0  0  0  0  0  0  0
   -5.1931   -0.4831    0.2451 H   0  0  0  0  0  0  0  0  0  0  0  0
  1  6  2  0  0  0  0
  2  1  1  0  0  0  0
  3  2  2  0  0  0  0
  3  4  1  0  0  0  0
  4  5  2  0  0  0  0
  5  6  1  0  0  0  0
  5 10  1  0  0  0  0
  6 13  1  0  0  0  0
  7  1  1  0  0  0  0
  8  2  1  0  0  0  0
  9  4  1  0  0  0  0
 12 11  3  0  0  0  0
 13 14  1  0  0  0  0
 14 15  1  0  0  0  0
 14 16  1  0  0  0  0
 17 14  1  0  0  0  0
M  RAD  1   3   2
M  END
