Coordinates from ORCA-job 4-CH3O-Ph-N2+-scan-d090-169-n800
 OpenBabel09191814063D

 17 16  0  0  0  0  0  0  0  0999 V2000
   -2.0047   -0.2115    0.1799 C   0  0  0  0  0  0  0  0  0  0  0  0
   -0.6627   -0.2834   -0.2347 C   0  0  0  0  0  0  0  0  0  0  0  0
   -0.0763    0.9400   -0.1953 C   0  0  0  0  0  0  0  0  0  0  0  0
   -0.4669    2.2017    0.1436 C   0  0  0  0  0  0  0  0  0  0  0  0
   -1.8050    2.2077    0.5455 C   0  0  0  0  0  0  0  0  0  0  0  0
   -2.5770    1.0200    0.5680 C   0  0  0  0  0  0  0  0  0  0  0  0
   -2.5766   -1.1315    0.1895 H   0  0  0  0  0  0  0  0  0  0  0  0
   -0.1899   -1.2081   -0.5390 H   0  0  0  0  0  0  0  0  0  0  0  0
    0.1480    3.0919    0.1159 H   0  0  0  0  0  0  0  0  0  0  0  0
   -2.2662    3.1424    0.8481 H   0  0  0  0  0  0  0  0  0  0  0  0
    1.7984    0.8759   -0.7682 N   0  0  0  0  0  0  0  0  0  0  0  0
    2.8544    0.8442   -1.0901 N   0  0  0  0  0  0  0  0  0  0  0  0
   -3.8375    1.1738    0.9726 O   0  0  0  0  0  0  0  0  0  0  0  0
   -4.7161    0.0368    1.0359 C   0  0  0  0  0  0  0  0  0  0  0  0
   -5.6683    0.4283    1.3899 H   0  0  0  0  0  0  0  0  0  0  0  0
   -4.3368   -0.7069    1.7445 H   0  0  0  0  0  0  0  0  0  0  0  0
   -4.8463   -0.4079    0.0437 H   0  0  0  0  0  0  0  0  0  0  0  0
  1  7  1  0  0  0  0
  1  6  2  0  0  0  0
  2  3  2  0  0  0  0
  2  1  1  0  0  0  0
  3  4  1  0  0  0  0
  4  5  2  0  0  0  0
  5  6  1  0  0  0  0
  5 10  1  0  0  0  0
  6 13  1  0  0  0  0
  8  2  1  0  0  0  0
  9  4  1  0  0  0  0
 12 11  3  0  0  0  0
 13 14  1  0  0  0  0
 14 15  1  0  0  0  0
 14 16  1  0  0  0  0
 17 14  1  0  0  0  0
M  RAD  1   3   2
M  END
