Coordinates from ORCA-job 4-CH3O-Ph-N2+-scan-d090-169-n800
 OpenBabel09191814063D

 17 16  0  0  0  0  0  0  0  0999 V2000
   -2.7311   -0.1639    0.2337 C   0  0  0  0  0  0  0  0  0  0  0  0
   -1.3982   -0.1659   -0.2466 C   0  0  0  0  0  0  0  0  0  0  0  0
   -1.0002    1.1125   -0.2996 C   0  0  0  0  0  0  0  0  0  0  0  0
   -1.2372    2.3110    0.2581 C   0  0  0  0  0  0  0  0  0  0  0  0
   -2.5631    2.2429    0.7353 C   0  0  0  0  0  0  0  0  0  0  0  0
   -3.3015    1.0265    0.7453 C   0  0  0  0  0  0  0  0  0  0  0  0
   -3.2799   -1.0982    0.1852 H   0  0  0  0  0  0  0  0  0  0  0  0
   -0.8689   -1.0545   -0.5731 H   0  0  0  0  0  0  0  0  0  0  0  0
   -0.6529    3.2231    0.2155 H   0  0  0  0  0  0  0  0  0  0  0  0
   -3.0489    3.1670    1.0388 H   0  0  0  0  0  0  0  0  0  0  0  0
    7.1883    0.6708   -1.9728 N   0  0  0  0  0  0  0  0  0  0  0  0
    8.2639    0.6385   -2.2258 N   0  0  0  0  0  0  0  0  0  0  0  0
   -4.5261    1.1230    1.2465 O   0  0  0  0  0  0  0  0  0  0  0  0
   -5.3543   -0.0515    1.3735 C   0  0  0  0  0  0  0  0  0  0  0  0
   -6.2885    0.3030    1.8051 H   0  0  0  0  0  0  0  0  0  0  0  0
   -4.8865   -0.7800    2.0422 H   0  0  0  0  0  0  0  0  0  0  0  0
   -5.5444   -0.4910    0.3884 H   0  0  0  0  0  0  0  0  0  0  0  0
  1  6  2  0  0  0  0
  2  1  1  0  0  0  0
  3  2  2  0  0  0  0
  3  4  1  0  0  0  0
  4  5  2  0  0  0  0
  5  6  1  0  0  0  0
  5 10  1  0  0  0  0
  6 13  1  0  0  0  0
  7  1  1  0  0  0  0
  8  2  1  0  0  0  0
  9  4  1  0  0  0  0
 12 11  3  0  0  0  0
 13 14  1  0  0  0  0
 14 15  1  0  0  0  0
 14 16  1  0  0  0  0
 17 14  1  0  0  0  0
M  RAD  1   3   2
M  END
