Coordinates from ORCA-job 4-CH3O-Ph-N2+-scan-d090-169-n800
 OpenBabel09191814063D

 17 17  0  0  0  0  0  0  0  0999 V2000
   -1.9392   -0.2231    0.1583 C   0  0  0  0  0  0  0  0  0  0  0  0
   -0.6274   -0.2697   -0.2429 C   0  0  0  0  0  0  0  0  0  0  0  0
    0.1521    0.9295   -0.2656 C   0  0  0  0  0  0  0  0  0  0  0  0
   -0.4327    2.1799    0.1295 C   0  0  0  0  0  0  0  0  0  0  0  0
   -1.7401    2.2094    0.5264 C   0  0  0  0  0  0  0  0  0  0  0  0
   -2.5176    1.0157    0.5494 C   0  0  0  0  0  0  0  0  0  0  0  0
   -2.5219   -1.1357    0.1723 H   0  0  0  0  0  0  0  0  0  0  0  0
   -0.1697   -1.2066   -0.5448 H   0  0  0  0  0  0  0  0  0  0  0  0
    0.1708    3.0816    0.1073 H   0  0  0  0  0  0  0  0  0  0  0  0
   -2.2136    3.1362    0.8312 H   0  0  0  0  0  0  0  0  0  0  0  0
    1.3376    0.8874   -0.6281 N   0  0  0  0  0  0  0  0  0  0  0  0
    2.4160    0.8530   -0.9572 N   0  0  0  0  0  0  0  0  0  0  0  0
   -3.7626    1.1644    0.9485 O   0  0  0  0  0  0  0  0  0  0  0  0
   -4.6695    0.0387    1.0223 C   0  0  0  0  0  0  0  0  0  0  0  0
   -5.6090    0.4577    1.3773 H   0  0  0  0  0  0  0  0  0  0  0  0
   -4.2964   -0.7022    1.7345 H   0  0  0  0  0  0  0  0  0  0  0  0
   -4.8065   -0.4029    0.0314 H   0  0  0  0  0  0  0  0  0  0  0  0
  1  7  1  0  0  0  0
  1  6  2  0  0  0  0
  2  1  1  0  0  0  0
  3  2  2  0  0  0  0
  3  4  1  0  0  0  0
  4  5  2  0  0  0  0
  5  6  1  0  0  0  0
  5 10  1  0  0  0  0
  6 13  1  0  0  0  0
  8  2  1  0  0  0  0
  9  4  1  0  0  0  0
 11  3  1  0  0  0  0
 12 11  1  0  0  0  0
 13 14  1  0  0  0  0
 14 15  1  0  0  0  0
 14 16  1  0  0  0  0
 17 14  1  0  0  0  0
M  RAD  2  11   2  12   3
M  END
