Coordinates from ORCA-job 4-CH3O-Ph-N2+-scan-d090-169-n800
 OpenBabel09191814063D

 17 16  0  0  0  0  0  0  0  0999 V2000
   -2.2250   -0.2029    0.1722 C   0  0  0  0  0  0  0  0  0  0  0  0
   -0.8678   -0.2558   -0.2350 C   0  0  0  0  0  0  0  0  0  0  0  0
   -0.4328    1.0088   -0.2900 C   0  0  0  0  0  0  0  0  0  0  0  0
   -0.6709    2.2316    0.2093 C   0  0  0  0  0  0  0  0  0  0  0  0
   -2.0225    2.2113    0.6146 C   0  0  0  0  0  0  0  0  0  0  0  0
   -2.7918    1.0152    0.6170 C   0  0  0  0  0  0  0  0  0  0  0  0
   -2.7950   -1.1241    0.1181 H   0  0  0  0  0  0  0  0  0  0  0  0
   -0.3478   -1.1658   -0.5124 H   0  0  0  0  0  0  0  0  0  0  0  0
   -0.0574    3.1244    0.1768 H   0  0  0  0  0  0  0  0  0  0  0  0
   -2.4968    3.1552    0.8715 H   0  0  0  0  0  0  0  0  0  0  0  0
    3.3735    0.8313   -1.1382 N   0  0  0  0  0  0  0  0  0  0  0  0
    4.4416    0.8015   -1.4208 N   0  0  0  0  0  0  0  0  0  0  0  0
   -4.0407    1.1560    1.0449 O   0  0  0  0  0  0  0  0  0  0  0  0
   -4.9033    0.0056    1.1556 C   0  0  0  0  0  0  0  0  0  0  0  0
   -5.8508    0.3930    1.5256 H   0  0  0  0  0  0  0  0  0  0  0  0
   -4.4916   -0.7160    1.8675 H   0  0  0  0  0  0  0  0  0  0  0  0
   -5.0506   -0.4559    0.1732 H   0  0  0  0  0  0  0  0  0  0  0  0
  1  6  2  0  0  0  0
  2  1  1  0  0  0  0
  3  2  2  0  0  0  0
  3  4  1  0  0  0  0
  4  5  2  0  0  0  0
  5  6  1  0  0  0  0
  5 10  1  0  0  0  0
  6 13  1  0  0  0  0
  7  1  1  0  0  0  0
  8  2  1  0  0  0  0
  9  4  1  0  0  0  0
 12 11  3  0  0  0  0
 13 14  1  0  0  0  0
 14 15  1  0  0  0  0
 14 16  1  0  0  0  0
 17 14  1  0  0  0  0
M  RAD  1   3   2
M  END
