Coordinates from ORCA-job 4-CH3O-Ph-N2+-scan-d090-169-n800
 OpenBabel09191814063D

 17 16  0  0  0  0  0  0  0  0999 V2000
   -2.2958   -0.1910    0.1750 C   0  0  0  0  0  0  0  0  0  0  0  0
   -0.9432   -0.2261   -0.2473 C   0  0  0  0  0  0  0  0  0  0  0  0
   -0.5217    1.0438   -0.3040 C   0  0  0  0  0  0  0  0  0  0  0  0
   -0.7635    2.2590    0.2129 C   0  0  0  0  0  0  0  0  0  0  0  0
   -2.1100    2.2225    0.6331 C   0  0  0  0  0  0  0  0  0  0  0  0
   -2.8682    1.0188    0.6358 C   0  0  0  0  0  0  0  0  0  0  0  0
   -2.8576   -1.1171    0.1215 H   0  0  0  0  0  0  0  0  0  0  0  0
   -0.4161   -1.1293   -0.5341 H   0  0  0  0  0  0  0  0  0  0  0  0
   -0.1607    3.1592    0.1783 H   0  0  0  0  0  0  0  0  0  0  0  0
   -2.5916    3.1603    0.8989 H   0  0  0  0  0  0  0  0  0  0  0  0
    3.9351    0.7798   -1.2540 N   0  0  0  0  0  0  0  0  0  0  0  0
    5.0067    0.7439   -1.5228 N   0  0  0  0  0  0  0  0  0  0  0  0
   -4.1124    1.1452    1.0800 O   0  0  0  0  0  0  0  0  0  0  0  0
   -4.9640   -0.0135    1.1935 C   0  0  0  0  0  0  0  0  0  0  0  0
   -5.9104    0.3637    1.5767 H   0  0  0  0  0  0  0  0  0  0  0  0
   -4.5377   -0.7356    1.8962 H   0  0  0  0  0  0  0  0  0  0  0  0
   -5.1184   -0.4701    0.2100 H   0  0  0  0  0  0  0  0  0  0  0  0
  1  6  2  0  0  0  0
  2  1  1  0  0  0  0
  3  2  2  0  0  0  0
  3  4  1  0  0  0  0
  4  5  2  0  0  0  0
  5  6  1  0  0  0  0
  5 10  1  0  0  0  0
  6 13  1  0  0  0  0
  7  1  1  0  0  0  0
  8  2  1  0  0  0  0
  9  4  1  0  0  0  0
 12 11  3  0  0  0  0
 13 14  1  0  0  0  0
 14 15  1  0  0  0  0
 14 16  1  0  0  0  0
 17 14  1  0  0  0  0
M  RAD  1   3   2
M  END
