Coordinates from ORCA-job 4-CH3O-Ph-N2+-scan-d090-169-n800
 OpenBabel09191814063D

 17 16  0  0  0  0  0  0  0  0999 V2000
   -3.4503   -0.0419    0.0866 C   0  0  0  0  0  0  0  0  0  0  0  0
   -2.3524    0.1216   -0.7939 C   0  0  0  0  0  0  0  0  0  0  0  0
   -2.0536    1.4280   -0.8079 C   0  0  0  0  0  0  0  0  0  0  0  0
   -2.1467    2.5353   -0.0532 C   0  0  0  0  0  0  0  0  0  0  0  0
   -3.2360    2.3031    0.8129 C   0  0  0  0  0  0  0  0  0  0  0  0
   -3.8733    1.0340    0.9036 C   0  0  0  0  0  0  0  0  0  0  0  0
   -3.9407   -1.0092    0.0983 H   0  0  0  0  0  0  0  0  0  0  0  0
   -1.9198   -0.6782   -1.3849 H   0  0  0  0  0  0  0  0  0  0  0  0
   -1.6518    3.4934   -0.1638 H   0  0  0  0  0  0  0  0  0  0  0  0
   -3.6364    3.1446    1.3730 H   0  0  0  0  0  0  0  0  0  0  0  0
   11.7800    0.3744   -2.4990 N   0  0  0  0  0  0  0  0  0  0  0  0
   12.8685    0.3151   -2.6822 N   0  0  0  0  0  0  0  0  0  0  0  0
   -4.8664    0.9716    1.7810 O   0  0  0  0  0  0  0  0  0  0  0  0
   -5.5517   -0.2761    2.0160 C   0  0  0  0  0  0  0  0  0  0  0  0
   -6.3061   -0.0505    2.7675 H   0  0  0  0  0  0  0  0  0  0  0  0
   -4.8566   -1.0291    2.3987 H   0  0  0  0  0  0  0  0  0  0  0  0
   -6.0362   -0.6226    1.0969 H   0  0  0  0  0  0  0  0  0  0  0  0
  1  7  1  0  0  0  0
  1  6  2  0  0  0  0
  2  1  1  0  0  0  0
  3  2  2  0  0  0  0
  3  4  1  0  0  0  0
  4  5  2  0  0  0  0
  5  6  1  0  0  0  0
  5 10  1  0  0  0  0
  6 13  1  0  0  0  0
  8  2  1  0  0  0  0
  9  4  1  0  0  0  0
 12 11  3  0  0  0  0
 13 14  1  0  0  0  0
 14 16  1  0  0  0  0
 14 15  1  0  0  0  0
 17 14  1  0  0  0  0
M  RAD  1   3   2
M  END
