Coordinates from ORCA-job 4-CH3O-Ph-N2+-scan-d090-169-n800
 OpenBabel09191814063D

 17 16  0  0  0  0  0  0  0  0999 V2000
   -2.1306   -0.2064    0.2169 C   0  0  0  0  0  0  0  0  0  0  0  0
   -0.7690   -0.2887   -0.2041 C   0  0  0  0  0  0  0  0  0  0  0  0
   -0.3046    0.9534   -0.1288 C   0  0  0  0  0  0  0  0  0  0  0  0
   -0.5817    2.2216    0.1827 C   0  0  0  0  0  0  0  0  0  0  0  0
   -1.9392    2.2096    0.5865 C   0  0  0  0  0  0  0  0  0  0  0  0
   -2.7093    1.0206    0.6074 C   0  0  0  0  0  0  0  0  0  0  0  0
   -2.6839   -1.1394    0.2152 H   0  0  0  0  0  0  0  0  0  0  0  0
   -0.2778   -1.2037   -0.5111 H   0  0  0  0  0  0  0  0  0  0  0  0
    0.0433    3.1055    0.1509 H   0  0  0  0  0  0  0  0  0  0  0  0
   -2.3864    3.1546    0.8840 H   0  0  0  0  0  0  0  0  0  0  0  0
    2.7409    0.8700   -1.0502 N   0  0  0  0  0  0  0  0  0  0  0  0
    3.7981    0.8444   -1.3706 N   0  0  0  0  0  0  0  0  0  0  0  0
   -3.9705    1.1702    1.0113 O   0  0  0  0  0  0  0  0  0  0  0  0
   -4.8408    0.0255    1.0727 C   0  0  0  0  0  0  0  0  0  0  0  0
   -5.7964    0.4088    1.4262 H   0  0  0  0  0  0  0  0  0  0  0  0
   -4.4554   -0.7149    1.7818 H   0  0  0  0  0  0  0  0  0  0  0  0
   -4.9663   -0.4176    0.0789 H   0  0  0  0  0  0  0  0  0  0  0  0
  1  6  2  0  0  0  0
  2  3  2  0  0  0  0
  2  1  1  0  0  0  0
  3  4  1  0  0  0  0
  4  5  2  0  0  0  0
  5  6  1  0  0  0  0
  5 10  1  0  0  0  0
  6 13  1  0  0  0  0
  7  1  1  0  0  0  0
  8  2  1  0  0  0  0
  9  4  1  0  0  0  0
 12 11  3  0  0  0  0
 13 14  1  0  0  0  0
 14 15  1  0  0  0  0
 14 16  1  0  0  0  0
 17 14  1  0  0  0  0
M  RAD  1   3   2
M  END
