Coordinates from ORCA-job 4-CH3O-Ph-N2+-scan-d090-169-n800
 OpenBabel09191814063D

 17 16  0  0  0  0  0  0  0  0999 V2000
   -3.7364    0.0913   -0.1134 C   0  0  0  0  0  0  0  0  0  0  0  0
   -3.0553    0.4545   -1.3006 C   0  0  0  0  0  0  0  0  0  0  0  0
   -2.8986    1.7860   -1.2741 C   0  0  0  0  0  0  0  0  0  0  0  0
   -2.7966    2.8109   -0.4113 C   0  0  0  0  0  0  0  0  0  0  0  0
   -3.4696    2.3840    0.7526 C   0  0  0  0  0  0  0  0  0  0  0  0
   -3.9197    1.0436    0.9183 C   0  0  0  0  0  0  0  0  0  0  0  0
   -4.1025   -0.9267   -0.0373 H   0  0  0  0  0  0  0  0  0  0  0  0
   -2.7986   -0.2396   -2.0936 H   0  0  0  0  0  0  0  0  0  0  0  0
   -2.4611    3.8278   -0.5803 H   0  0  0  0  0  0  0  0  0  0  0  0
   -3.7090    3.1257    1.5107 H   0  0  0  0  0  0  0  0  0  0  0  0
   12.6566    0.0232   -2.1362 N   0  0  0  0  0  0  0  0  0  0  0  0
   13.7528   -0.0614   -2.2515 N   0  0  0  0  0  0  0  0  0  0  0  0
   -4.5124    0.7960    2.0785 O   0  0  0  0  0  0  0  0  0  0  0  0
   -4.9569   -0.5390    2.3987 C   0  0  0  0  0  0  0  0  0  0  0  0
   -5.4007   -0.4623    3.3895 H   0  0  0  0  0  0  0  0  0  0  0  0
   -4.1090   -1.2299    2.4211 H   0  0  0  0  0  0  0  0  0  0  0  0
   -5.7125   -0.8707    1.6786 H   0  0  0  0  0  0  0  0  0  0  0  0
  1  7  1  0  0  0  0
  1  6  2  0  0  0  0
  2  3  2  0  0  0  0
  2  1  1  0  0  0  0
  3  4  1  0  0  0  0
  4  5  2  0  0  0  0
  5  6  1  0  0  0  0
  5 10  1  0  0  0  0
  6 13  1  0  0  0  0
  8  2  1  0  0  0  0
  9  4  1  0  0  0  0
 12 11  3  0  0  0  0
 13 14  1  0  0  0  0
 14 16  1  0  0  0  0
 14 15  1  0  0  0  0
 17 14  1  0  0  0  0
M  RAD  1   3   2
M  END
