Coordinates from ORCA-job 4-CH3O-Ph-N2+-scan-d090-169-n800
 OpenBabel09191814063D

 17 16  0  0  0  0  0  0  0  0999 V2000
   -3.5759    0.0155   -0.0066 C   0  0  0  0  0  0  0  0  0  0  0  0
   -2.6333    0.2639   -1.0344 C   0  0  0  0  0  0  0  0  0  0  0  0
   -2.3881    1.5817   -1.0313 C   0  0  0  0  0  0  0  0  0  0  0  0
   -2.4020    2.6501   -0.2171 C   0  0  0  0  0  0  0  0  0  0  0  0
   -3.3360    2.3346    0.7922 C   0  0  0  0  0  0  0  0  0  0  0  0
   -3.9060    1.0366    0.9168 C   0  0  0  0  0  0  0  0  0  0  0  0
   -4.0232   -0.9717    0.0332 H   0  0  0  0  0  0  0  0  0  0  0  0
   -2.2673   -0.4906   -1.7222 H   0  0  0  0  0  0  0  0  0  0  0  0
   -1.9649    3.6324   -0.3550 H   0  0  0  0  0  0  0  0  0  0  0  0
   -3.6758    3.1334    1.4468 H   0  0  0  0  0  0  0  0  0  0  0  0
   12.2267    0.2342   -2.3655 N   0  0  0  0  0  0  0  0  0  0  0  0
   13.3193    0.1638   -2.5181 N   0  0  0  0  0  0  0  0  0  0  0  0
   -4.7491    0.8945    1.9311 O   0  0  0  0  0  0  0  0  0  0  0  0
   -5.3453   -0.3901    2.2069 C   0  0  0  0  0  0  0  0  0  0  0  0
   -5.9828   -0.2289    3.0742 H   0  0  0  0  0  0  0  0  0  0  0  0
   -4.5732   -1.1284    2.4425 H   0  0  0  0  0  0  0  0  0  0  0  0
   -5.9526   -0.7177    1.3563 H   0  0  0  0  0  0  0  0  0  0  0  0
  1  7  1  0  0  0  0
  1  6  2  0  0  0  0
  2  3  2  0  0  0  0
  2  1  1  0  0  0  0
  3  4  1  0  0  0  0
  4  5  2  0  0  0  0
  5  6  1  0  0  0  0
  5 10  1  0  0  0  0
  6 13  1  0  0  0  0
  8  2  1  0  0  0  0
  9  4  1  0  0  0  0
 12 11  3  0  0  0  0
 13 14  1  0  0  0  0
 14 16  1  0  0  0  0
 14 15  1  0  0  0  0
 17 14  1  0  0  0  0
M  RAD  1   3   2
M  END
