Coordinates from ORCA-job 4-CH3O-Ph-N2+-scan-d090-169-n800
 OpenBabel09191814063D

 17 16  0  0  0  0  0  0  0  0999 V2000
   -3.0273   -0.1490    0.2486 C   0  0  0  0  0  0  0  0  0  0  0  0
   -1.7218   -0.1347   -0.3015 C   0  0  0  0  0  0  0  0  0  0  0  0
   -1.3315    1.1464   -0.3489 C   0  0  0  0  0  0  0  0  0  0  0  0
   -1.5424    2.3316    0.2467 C   0  0  0  0  0  0  0  0  0  0  0  0
   -2.8408    2.2475    0.7919 C   0  0  0  0  0  0  0  0  0  0  0  0
   -3.5736    1.0278    0.8152 C   0  0  0  0  0  0  0  0  0  0  0  0
   -3.5747   -1.0845    0.2096 H   0  0  0  0  0  0  0  0  0  0  0  0
   -1.2075   -1.0137   -0.6744 H   0  0  0  0  0  0  0  0  0  0  0  0
   -0.9645    3.2472    0.1923 H   0  0  0  0  0  0  0  0  0  0  0  0
   -3.3131    3.1628    1.1401 H   0  0  0  0  0  0  0  0  0  0  0  0
    9.2765    0.6324   -2.3772 N   0  0  0  0  0  0  0  0  0  0  0  0
   10.3540    0.5991   -2.6217 N   0  0  0  0  0  0  0  0  0  0  0  0
   -4.7700    1.1082    1.3826 O   0  0  0  0  0  0  0  0  0  0  0  0
   -5.5865   -0.0723    1.5285 C   0  0  0  0  0  0  0  0  0  0  0  0
   -6.4976    0.2690    2.0164 H   0  0  0  0  0  0  0  0  0  0  0  0
   -5.0814   -0.8127    2.1557 H   0  0  0  0  0  0  0  0  0  0  0  0
   -5.8273   -0.4917    0.5457 H   0  0  0  0  0  0  0  0  0  0  0  0
  1  6  2  0  0  0  0
  2  1  1  0  0  0  0
  3  2  2  0  0  0  0
  3  4  1  0  0  0  0
  4  5  2  0  0  0  0
  5  6  1  0  0  0  0
  5 10  1  0  0  0  0
  6 13  1  0  0  0  0
  7  1  1  0  0  0  0
  8  2  1  0  0  0  0
  9  4  1  0  0  0  0
 12 11  3  0  0  0  0
 13 14  1  0  0  0  0
 14 15  1  0  0  0  0
 14 16  1  0  0  0  0
 17 14  1  0  0  0  0
M  RAD  1   3   2
M  END
