Coordinates from ORCA-job 4-CH3O-Ph-N2+-scan-d090-169-n800
 OpenBabel09191814063D

 17 16  0  0  0  0  0  0  0  0999 V2000
   -2.4044   -0.1765    0.1875 C   0  0  0  0  0  0  0  0  0  0  0  0
   -1.0570   -0.1936   -0.2520 C   0  0  0  0  0  0  0  0  0  0  0  0
   -0.6503    1.0817   -0.3066 C   0  0  0  0  0  0  0  0  0  0  0  0
   -0.8979    2.2902    0.2241 C   0  0  0  0  0  0  0  0  0  0  0  0
   -2.2385    2.2356    0.6612 C   0  0  0  0  0  0  0  0  0  0  0  0
   -2.9836    1.0236    0.6647 C   0  0  0  0  0  0  0  0  0  0  0  0
   -2.9569   -1.1083    0.1346 H   0  0  0  0  0  0  0  0  0  0  0  0
   -0.5236   -1.0892   -0.5510 H   0  0  0  0  0  0  0  0  0  0  0  0
   -0.3061    3.1976    0.1882 H   0  0  0  0  0  0  0  0  0  0  0  0
   -2.7273    3.1661    0.9388 H   0  0  0  0  0  0  0  0  0  0  0  0
    4.7868    0.7204   -1.4407 N   0  0  0  0  0  0  0  0  0  0  0  0
    5.8605    0.6819   -1.7005 N   0  0  0  0  0  0  0  0  0  0  0  0
   -4.2230    1.1334    1.1259 O   0  0  0  0  0  0  0  0  0  0  0  0
   -5.0609   -0.0351    1.2425 C   0  0  0  0  0  0  0  0  0  0  0  0
   -6.0061    0.3295    1.6404 H   0  0  0  0  0  0  0  0  0  0  0  0
   -4.6179   -0.7573    1.9346 H   0  0  0  0  0  0  0  0  0  0  0  0
   -5.2231   -0.4866    0.2578 H   0  0  0  0  0  0  0  0  0  0  0  0
  1  6  2  0  0  0  0
  2  1  1  0  0  0  0
  3  2  2  0  0  0  0
  3  4  1  0  0  0  0
  4  5  2  0  0  0  0
  5  6  1  0  0  0  0
  5 10  1  0  0  0  0
  6 13  1  0  0  0  0
  7  1  1  0  0  0  0
  8  2  1  0  0  0  0
  9  4  1  0  0  0  0
 12 11  3  0  0  0  0
 13 14  1  0  0  0  0
 14 15  1  0  0  0  0
 14 16  1  0  0  0  0
 17 14  1  0  0  0  0
M  RAD  1   3   2
M  END
