Coordinates from ORCA-job 4-CH3O-Ph-N2+-scan-d090-169-n800
 OpenBabel09191814063D

 17 16  0  0  0  0  0  0  0  0999 V2000
   -2.2639   -0.1966    0.1733 C   0  0  0  0  0  0  0  0  0  0  0  0
   -0.9092   -0.2399   -0.2428 C   0  0  0  0  0  0  0  0  0  0  0  0
   -0.4819    1.0279   -0.2989 C   0  0  0  0  0  0  0  0  0  0  0  0
   -0.7211    2.2466    0.2107 C   0  0  0  0  0  0  0  0  0  0  0  0
   -2.0700    2.2171    0.6247 C   0  0  0  0  0  0  0  0  0  0  0  0
   -2.8333    1.0170    0.6272 C   0  0  0  0  0  0  0  0  0  0  0  0
   -2.8295   -1.1205    0.1200 H   0  0  0  0  0  0  0  0  0  0  0  0
   -0.3849   -1.1461   -0.5248 H   0  0  0  0  0  0  0  0  0  0  0  0
   -0.1134    3.1434    0.1771 H   0  0  0  0  0  0  0  0  0  0  0  0
   -2.5484    3.1576    0.8865 H   0  0  0  0  0  0  0  0  0  0  0  0
    3.6798    0.8038   -1.2010 N   0  0  0  0  0  0  0  0  0  0  0  0
    4.7501    0.7704   -1.4747 N   0  0  0  0  0  0  0  0  0  0  0  0
   -4.0796    1.1501    1.0645 O   0  0  0  0  0  0  0  0  0  0  0  0
   -4.9364   -0.0047    1.1767 C   0  0  0  0  0  0  0  0  0  0  0  0
   -5.8831    0.3773    1.5543 H   0  0  0  0  0  0  0  0  0  0  0  0
   -4.5168   -0.7268    1.8834 H   0  0  0  0  0  0  0  0  0  0  0  0
   -5.0879   -0.4633    0.1937 H   0  0  0  0  0  0  0  0  0  0  0  0
  1  6  2  0  0  0  0
  2  1  1  0  0  0  0
  3  2  2  0  0  0  0
  3  4  1  0  0  0  0
  4  5  2  0  0  0  0
  5  6  1  0  0  0  0
  5 10  1  0  0  0  0
  6 13  1  0  0  0  0
  7  1  1  0  0  0  0
  8  2  1  0  0  0  0
  9  4  1  0  0  0  0
 12 11  3  0  0  0  0
 13 14  1  0  0  0  0
 14 15  1  0  0  0  0
 14 16  1  0  0  0  0
 17 14  1  0  0  0  0
M  RAD  1   3   2
M  END
