Coordinates from ORCA-job 4-CH3O-Ph-N2+-scan-d090-169-n800
 OpenBabel09191814063D

 17 16  0  0  0  0  0  0  0  0999 V2000
   -3.8445    0.1385   -0.1718 C   0  0  0  0  0  0  0  0  0  0  0  0
   -3.3770    0.5726   -1.4356 C   0  0  0  0  0  0  0  0  0  0  0  0
   -3.2905    1.9105   -1.3887 C   0  0  0  0  0  0  0  0  0  0  0  0
   -3.1037    2.9149   -0.5155 C   0  0  0  0  0  0  0  0  0  0  0  0
   -3.5640    2.4194    0.7224 C   0  0  0  0  0  0  0  0  0  0  0  0
   -3.9137    1.0518    0.9084 C   0  0  0  0  0  0  0  0  0  0  0  0
   -4.1389   -0.9007   -0.0750 H   0  0  0  0  0  0  0  0  0  0  0  0
   -3.2072   -0.0832   -2.2827 H   0  0  0  0  0  0  0  0  0  0  0  0
   -2.8506    3.9530   -0.6986 H   0  0  0  0  0  0  0  0  0  0  0  0
   -3.7209    3.1259    1.5339 H   0  0  0  0  0  0  0  0  0  0  0  0
   12.8703   -0.1332   -1.9517 N   0  0  0  0  0  0  0  0  0  0  0  0
   13.9679   -0.2263   -2.0451 N   0  0  0  0  0  0  0  0  0  0  0  0
   -4.3044    0.7408    2.1369 O   0  0  0  0  0  0  0  0  0  0  0  0
   -4.6249   -0.6249    2.4754 C   0  0  0  0  0  0  0  0  0  0  0  0
   -4.9131   -0.5987    3.5247 H   0  0  0  0  0  0  0  0  0  0  0  0
   -3.7495   -1.2676    2.3440 H   0  0  0  0  0  0  0  0  0  0  0  0
   -5.4650   -0.9794    1.8687 H   0  0  0  0  0  0  0  0  0  0  0  0
  1  7  1  0  0  0  0
  1  6  2  0  0  0  0
  2  3  2  0  0  0  0
  2  1  1  0  0  0  0
  3  4  1  0  0  0  0
  4  5  2  0  0  0  0
  5  6  1  0  0  0  0
  5 10  1  0  0  0  0
  6 13  1  0  0  0  0
  8  2  1  0  0  0  0
  9  4  1  0  0  0  0
 12 11  3  0  0  0  0
 13 14  1  0  0  0  0
 14 15  1  0  0  0  0
 16 14  1  0  0  0  0
 17 14  1  0  0  0  0
M  RAD  1   3   2
M  END
