Coordinates from ORCA-job 4-CH3O-Ph-N2+-scan-d090-169-n800
 OpenBabel09191814063D

 17 16  0  0  0  0  0  0  0  0999 V2000
   -3.3008   -0.0951    0.1729 C   0  0  0  0  0  0  0  0  0  0  0  0
   -2.0889   -0.0077   -0.5560 C   0  0  0  0  0  0  0  0  0  0  0  0
   -1.7433    1.2869   -0.5859 C   0  0  0  0  0  0  0  0  0  0  0  0
   -1.8972    2.4318    0.0994 C   0  0  0  0  0  0  0  0  0  0  0  0
   -3.1011    2.2748    0.8182 C   0  0  0  0  0  0  0  0  0  0  0  0
   -3.7906    1.0314    0.8766 C   0  0  0  0  0  0  0  0  0  0  0  0
   -3.8232   -1.0455    0.1599 H   0  0  0  0  0  0  0  0  0  0  0  0
   -1.6100   -0.8481   -1.0466 H   0  0  0  0  0  0  0  0  0  0  0  0
   -1.3573    3.3680    0.0154 H   0  0  0  0  0  0  0  0  0  0  0  0
   -3.5424    3.1541    1.2811 H   0  0  0  0  0  0  0  0  0  0  0  0
   11.0188    0.5009   -2.5418 N   0  0  0  0  0  0  0  0  0  0  0  0
   12.1026    0.4550   -2.7546 N   0  0  0  0  0  0  0  0  0  0  0  0
   -4.8947    1.0414    1.6121 O   0  0  0  0  0  0  0  0  0  0  0  0
   -5.6505   -0.1722    1.8056 C   0  0  0  0  0  0  0  0  0  0  0  0
   -6.4908    0.1121    2.4363 H   0  0  0  0  0  0  0  0  0  0  0  0
   -5.0414   -0.9265    2.3121 H   0  0  0  0  0  0  0  0  0  0  0  0
   -6.0188   -0.5479    0.8449 H   0  0  0  0  0  0  0  0  0  0  0  0
  1  6  2  0  0  0  0
  2  1  1  0  0  0  0
  3  2  2  0  0  0  0
  3  4  1  0  0  0  0
  4  5  2  0  0  0  0
  5  6  1  0  0  0  0
  5 10  1  0  0  0  0
  6 13  1  0  0  0  0
  7  1  1  0  0  0  0
  8  2  1  0  0  0  0
  9  4  1  0  0  0  0
 12 11  3  0  0  0  0
 13 14  1  0  0  0  0
 14 16  1  0  0  0  0
 14 15  1  0  0  0  0
 17 14  1  0  0  0  0
M  RAD  1   3   2
M  END
