Coordinates from ORCA-job 4-CH3O-Ph-N2+-scan-d090-169-n800
 OpenBabel09191814063D

 17 16  0  0  0  0  0  0  0  0999 V2000
   -3.7494    0.0979   -0.1217 C   0  0  0  0  0  0  0  0  0  0  0  0
   -3.0945    0.4712   -1.3203 C   0  0  0  0  0  0  0  0  0  0  0  0
   -2.9478    1.8040   -1.2918 C   0  0  0  0  0  0  0  0  0  0  0  0
   -2.8364    2.8259   -0.4265 C   0  0  0  0  0  0  0  0  0  0  0  0
   -3.4830    2.3891    0.7485 C   0  0  0  0  0  0  0  0  0  0  0  0
   -3.9196    1.0447    0.9174 C   0  0  0  0  0  0  0  0  0  0  0  0
   -4.1059   -0.9232   -0.0425 H   0  0  0  0  0  0  0  0  0  0  0  0
   -2.8479   -0.2178   -2.1209 H   0  0  0  0  0  0  0  0  0  0  0  0
   -2.5124    3.8461   -0.5978 H   0  0  0  0  0  0  0  0  0  0  0  0
   -3.7135    3.1259    1.5141 H   0  0  0  0  0  0  0  0  0  0  0  0
   12.6859    0.0022   -2.1131 N   0  0  0  0  0  0  0  0  0  0  0  0
   13.7823   -0.0837   -2.2252 N   0  0  0  0  0  0  0  0  0  0  0  0
   -4.4874    0.7878    2.0880 O   0  0  0  0  0  0  0  0  0  0  0  0
   -4.9153   -0.5518    2.4114 C   0  0  0  0  0  0  0  0  0  0  0  0
   -5.3401   -0.4823    3.4110 H   0  0  0  0  0  0  0  0  0  0  0  0
   -4.0620   -1.2362    2.4144 H   0  0  0  0  0  0  0  0  0  0  0  0
   -5.6824   -0.8864    1.7049 H   0  0  0  0  0  0  0  0  0  0  0  0
  1  7  1  0  0  0  0
  1  6  2  0  0  0  0
  2  3  2  0  0  0  0
  2  1  1  0  0  0  0
  3  4  1  0  0  0  0
  4  5  2  0  0  0  0
  5  6  1  0  0  0  0
  5 10  1  0  0  0  0
  6 13  1  0  0  0  0
  8  2  1  0  0  0  0
  9  4  1  0  0  0  0
 12 11  3  0  0  0  0
 13 14  1  0  0  0  0
 14 16  1  0  0  0  0
 14 15  1  0  0  0  0
 17 14  1  0  0  0  0
M  RAD  1   3   2
M  END
