Coordinates from ORCA-job 4-CH3O-Ph-N2+-scan-d090-169-n800
 OpenBabel09191814063D

 17 16  0  0  0  0  0  0  0  0999 V2000
   -3.0471   -0.1470    0.2472 C   0  0  0  0  0  0  0  0  0  0  0  0
   -1.7450   -0.1301   -0.3108 C   0  0  0  0  0  0  0  0  0  0  0  0
   -1.3562    1.1515   -0.3575 C   0  0  0  0  0  0  0  0  0  0  0  0
   -1.5645    2.3350    0.2423 C   0  0  0  0  0  0  0  0  0  0  0  0
   -2.8596    2.2484    0.7950 C   0  0  0  0  0  0  0  0  0  0  0  0
   -3.5911    1.0280    0.8198 C   0  0  0  0  0  0  0  0  0  0  0  0
   -3.5939   -1.0829    0.2092 H   0  0  0  0  0  0  0  0  0  0  0  0
   -1.2320   -1.0078   -0.6888 H   0  0  0  0  0  0  0  0  0  0  0  0
   -0.9878    3.2513    0.1866 H   0  0  0  0  0  0  0  0  0  0  0  0
   -3.3306    3.1625    1.1482 H   0  0  0  0  0  0  0  0  0  0  0  0
    9.4121    0.6272   -2.3987 N   0  0  0  0  0  0  0  0  0  0  0  0
   10.4900    0.5936   -2.6420 N   0  0  0  0  0  0  0  0  0  0  0  0
   -4.7841    1.1059    1.3946 O   0  0  0  0  0  0  0  0  0  0  0  0
   -5.5987   -0.0757    1.5425 C   0  0  0  0  0  0  0  0  0  0  0  0
   -6.5071    0.2636    2.0367 H   0  0  0  0  0  0  0  0  0  0  0  0
   -5.0891   -0.8171    2.1650 H   0  0  0  0  0  0  0  0  0  0  0  0
   -5.8449   -0.4930    0.5602 H   0  0  0  0  0  0  0  0  0  0  0  0
  1  6  2  0  0  0  0
  2  1  1  0  0  0  0
  3  2  2  0  0  0  0
  3  4  1  0  0  0  0
  4  5  2  0  0  0  0
  5  6  1  0  0  0  0
  5 10  1  0  0  0  0
  6 13  1  0  0  0  0
  7  1  1  0  0  0  0
  8  2  1  0  0  0  0
  9  4  1  0  0  0  0
 12 11  3  0  0  0  0
 13 14  1  0  0  0  0
 14 15  1  0  0  0  0
 14 16  1  0  0  0  0
 17 14  1  0  0  0  0
M  RAD  1   3   2
M  END
