Coordinates from ORCA-job 4-CH3O-Ph-N2+-scan-d090-169-n800
 OpenBabel09191814063D

 17 16  0  0  0  0  0  0  0  0999 V2000
   -2.8177   -0.1614    0.2427 C   0  0  0  0  0  0  0  0  0  0  0  0
   -1.4902   -0.1611   -0.2523 C   0  0  0  0  0  0  0  0  0  0  0  0
   -1.0928    1.1176   -0.3043 C   0  0  0  0  0  0  0  0  0  0  0  0
   -1.3236    2.3136    0.2616 C   0  0  0  0  0  0  0  0  0  0  0  0
   -2.6442    2.2433    0.7530 C   0  0  0  0  0  0  0  0  0  0  0  0
   -3.3824    1.0267    0.7659 C   0  0  0  0  0  0  0  0  0  0  0  0
   -3.3670   -1.0955    0.1962 H   0  0  0  0  0  0  0  0  0  0  0  0
   -0.9645   -1.0482   -0.5885 H   0  0  0  0  0  0  0  0  0  0  0  0
   -0.7400    3.2259    0.2164 H   0  0  0  0  0  0  0  0  0  0  0  0
   -3.1267    3.1660    1.0659 H   0  0  0  0  0  0  0  0  0  0  0  0
    7.8064    0.6643   -2.1018 N   0  0  0  0  0  0  0  0  0  0  0  0
    8.8823    0.6320   -2.3533 N   0  0  0  0  0  0  0  0  0  0  0  0
   -4.6013    1.1209    1.2810 O   0  0  0  0  0  0  0  0  0  0  0  0
   -5.4281   -0.0542    1.4121 C   0  0  0  0  0  0  0  0  0  0  0  0
   -6.3575    0.2984    1.8555 H   0  0  0  0  0  0  0  0  0  0  0  0
   -4.9529   -0.7856    2.0723 H   0  0  0  0  0  0  0  0  0  0  0  0
   -5.6291   -0.4893    0.4272 H   0  0  0  0  0  0  0  0  0  0  0  0
  1  6  2  0  0  0  0
  2  1  1  0  0  0  0
  3  2  2  0  0  0  0
  3  4  1  0  0  0  0
  4  5  2  0  0  0  0
  5  6  1  0  0  0  0
  5 10  1  0  0  0  0
  6 13  1  0  0  0  0
  7  1  1  0  0  0  0
  8  2  1  0  0  0  0
  9  4  1  0  0  0  0
 12 11  3  0  0  0  0
 13 14  1  0  0  0  0
 14 15  1  0  0  0  0
 14 16  1  0  0  0  0
 17 14  1  0  0  0  0
M  RAD  1   3   2
M  END
