Coordinates from ORCA-job 4-CH3O-Ph-N2+-scan-d090-169-n800
 OpenBabel09191814063D

 17 17  0  0  0  0  0  0  0  0999 V2000
   -1.9990   -0.2122    0.1781 C   0  0  0  0  0  0  0  0  0  0  0  0
   -0.6595   -0.2820   -0.2355 C   0  0  0  0  0  0  0  0  0  0  0  0
   -0.0583    0.9392   -0.2008 C   0  0  0  0  0  0  0  0  0  0  0  0
   -0.4636    2.1998    0.1423 C   0  0  0  0  0  0  0  0  0  0  0  0
   -1.7992    2.2079    0.5438 C   0  0  0  0  0  0  0  0  0  0  0  0
   -2.5713    1.0198    0.5662 C   0  0  0  0  0  0  0  0  0  0  0  0
   -2.5728   -1.1309    0.1884 H   0  0  0  0  0  0  0  0  0  0  0  0
   -0.1881   -1.2077   -0.5395 H   0  0  0  0  0  0  0  0  0  0  0  0
    0.1502    3.0908    0.1151 H   0  0  0  0  0  0  0  0  0  0  0  0
   -2.2625    3.1413    0.8468 H   0  0  0  0  0  0  0  0  0  0  0  0
    1.7589    0.8764   -0.7563 N   0  0  0  0  0  0  0  0  0  0  0  0
    2.8152    0.8444   -1.0783 N   0  0  0  0  0  0  0  0  0  0  0  0
   -3.8313    1.1734    0.9707 O   0  0  0  0  0  0  0  0  0  0  0  0
   -4.7111    0.0372    1.0345 C   0  0  0  0  0  0  0  0  0  0  0  0
   -5.6628    0.4301    1.3886 H   0  0  0  0  0  0  0  0  0  0  0  0
   -4.3324   -0.7066    1.7432 H   0  0  0  0  0  0  0  0  0  0  0  0
   -4.8418   -0.4075    0.0424 H   0  0  0  0  0  0  0  0  0  0  0  0
  1  7  1  0  0  0  0
  1  6  2  0  0  0  0
  2  3  2  0  0  0  0
  2  1  1  0  0  0  0
  3  4  1  0  0  0  0
  4  5  2  0  0  0  0
  5  6  1  0  0  0  0
  5 10  1  0  0  0  0
  6 13  1  0  0  0  0
  8  2  1  0  0  0  0
  9  4  1  0  0  0  0
 11  3  1  0  0  0  0
 12 11  1  0  0  0  0
 13 14  1  0  0  0  0
 14 15  1  0  0  0  0
 14 16  1  0  0  0  0
 17 14  1  0  0  0  0
M  RAD  2  11   2  12   3
M  END
