Coordinates from ORCA-job 4-CH3O-Ph-N2+-scan-d090-169-n800
 OpenBabel09191814063D

 17 16  0  0  0  0  0  0  0  0999 V2000
   -2.8612   -0.1598    0.2462 C   0  0  0  0  0  0  0  0  0  0  0  0
   -1.5369   -0.1578   -0.2574 C   0  0  0  0  0  0  0  0  0  0  0  0
   -1.1402    1.1211   -0.3087 C   0  0  0  0  0  0  0  0  0  0  0  0
   -1.3676    2.3155    0.2618 C   0  0  0  0  0  0  0  0  0  0  0  0
   -2.6849    2.2436    0.7617 C   0  0  0  0  0  0  0  0  0  0  0  0
   -3.4228    1.0269    0.7762 C   0  0  0  0  0  0  0  0  0  0  0  0
   -3.4105   -1.0938    0.2009 H   0  0  0  0  0  0  0  0  0  0  0  0
   -1.0132   -1.0439   -0.5993 H   0  0  0  0  0  0  0  0  0  0  0  0
   -0.7845    3.2281    0.2152 H   0  0  0  0  0  0  0  0  0  0  0  0
   -3.1656    3.1654    1.0800 H   0  0  0  0  0  0  0  0  0  0  0  0
    8.1151    0.6601   -2.1641 N   0  0  0  0  0  0  0  0  0  0  0  0
    9.1912    0.6277   -2.4148 N   0  0  0  0  0  0  0  0  0  0  0  0
   -4.6383    1.1194    1.2995 O   0  0  0  0  0  0  0  0  0  0  0  0
   -5.4640   -0.0562    1.4329 C   0  0  0  0  0  0  0  0  0  0  0  0
   -6.3905    0.2951    1.8832 H   0  0  0  0  0  0  0  0  0  0  0  0
   -4.9843   -0.7892    2.0881 H   0  0  0  0  0  0  0  0  0  0  0  0
   -5.6713   -0.4888    0.4482 H   0  0  0  0  0  0  0  0  0  0  0  0
  1  6  2  0  0  0  0
  2  1  1  0  0  0  0
  3  2  2  0  0  0  0
  3  4  1  0  0  0  0
  4  5  2  0  0  0  0
  5  6  1  0  0  0  0
  5 10  1  0  0  0  0
  6 13  1  0  0  0  0
  7  1  1  0  0  0  0
  8  2  1  0  0  0  0
  9  4  1  0  0  0  0
 12 11  3  0  0  0  0
 13 14  1  0  0  0  0
 14 15  1  0  0  0  0
 14 16  1  0  0  0  0
 17 14  1  0  0  0  0
M  RAD  1   3   2
M  END
