Coordinates from ORCA-job 4-CH3O-Ph-N2+-scan-d090-169-n800
 OpenBabel09191814063D

 17 16  0  0  0  0  0  0  0  0999 V2000
   -3.3730   -0.0716    0.1351 C   0  0  0  0  0  0  0  0  0  0  0  0
   -2.2083    0.0495   -0.6626 C   0  0  0  0  0  0  0  0  0  0  0  0
   -1.8838    1.3497   -0.6859 C   0  0  0  0  0  0  0  0  0  0  0  0
   -2.0121    2.4777    0.0322 C   0  0  0  0  0  0  0  0  0  0  0  0
   -3.1684    2.2875    0.8179 C   0  0  0  0  0  0  0  0  0  0  0  0
   -3.8356    1.0326    0.8907 C   0  0  0  0  0  0  0  0  0  0  0  0
   -3.8816   -1.0295    0.1332 H   0  0  0  0  0  0  0  0  0  0  0  0
   -1.7474   -0.7731   -1.1984 H   0  0  0  0  0  0  0  0  0  0  0  0
   -1.4915    3.4236   -0.0638 H   0  0  0  0  0  0  0  0  0  0  0  0
   -3.5938    3.1501    1.3249 H   0  0  0  0  0  0  0  0  0  0  0  0
   11.4134    0.4446   -2.5356 N   0  0  0  0  0  0  0  0  0  0  0  0
   12.4994    0.3921   -2.7353 N   0  0  0  0  0  0  0  0  0  0  0  0
   -4.8935    1.0106    1.6908 O   0  0  0  0  0  0  0  0  0  0  0  0
   -5.6194   -0.2181    1.9031 C   0  0  0  0  0  0  0  0  0  0  0  0
   -6.4243    0.0404    2.5887 H   0  0  0  0  0  0  0  0  0  0  0  0
   -4.9705   -0.9732    2.3563 H   0  0  0  0  0  0  0  0  0  0  0  0
   -6.0392   -0.5796    0.9583 H   0  0  0  0  0  0  0  0  0  0  0  0
  1  6  2  0  0  0  0
  2  1  1  0  0  0  0
  3  2  2  0  0  0  0
  3  4  1  0  0  0  0
  4  5  2  0  0  0  0
  5  6  1  0  0  0  0
  5 10  1  0  0  0  0
  6 13  1  0  0  0  0
  7  1  1  0  0  0  0
  8  2  1  0  0  0  0
  9  4  1  0  0  0  0
 12 11  3  0  0  0  0
 13 14  1  0  0  0  0
 14 16  1  0  0  0  0
 14 15  1  0  0  0  0
 17 14  1  0  0  0  0
M  RAD  1   3   2
M  END
