Coordinates from ORCA-job 4-CH3O-Ph-N2+-scan-d090-169-n800
 OpenBabel09191814063D

 17 16  0  0  0  0  0  0  0  0999 V2000
   -2.7287   -0.1639    0.2335 C   0  0  0  0  0  0  0  0  0  0  0  0
   -1.3956   -0.1663   -0.2468 C   0  0  0  0  0  0  0  0  0  0  0  0
   -0.9978    1.1123   -0.2993 C   0  0  0  0  0  0  0  0  0  0  0  0
   -1.2348    2.3113    0.2577 C   0  0  0  0  0  0  0  0  0  0  0  0
   -2.5609    2.2429    0.7347 C   0  0  0  0  0  0  0  0  0  0  0  0
   -3.2993    1.0265    0.7447 C   0  0  0  0  0  0  0  0  0  0  0  0
   -3.2775   -1.0982    0.1853 H   0  0  0  0  0  0  0  0  0  0  0  0
   -0.8660   -1.0547   -0.5728 H   0  0  0  0  0  0  0  0  0  0  0  0
   -0.6502    3.2232    0.2155 H   0  0  0  0  0  0  0  0  0  0  0  0
   -3.0468    3.1669    1.0384 H   0  0  0  0  0  0  0  0  0  0  0  0
    7.1710    0.6710   -1.9691 N   0  0  0  0  0  0  0  0  0  0  0  0
    8.2466    0.6386   -2.2221 N   0  0  0  0  0  0  0  0  0  0  0  0
   -4.5240    1.1231    1.2455 O   0  0  0  0  0  0  0  0  0  0  0  0
   -5.3522   -0.0514    1.3724 C   0  0  0  0  0  0  0  0  0  0  0  0
   -6.2865    0.3030    1.8037 H   0  0  0  0  0  0  0  0  0  0  0  0
   -4.8845   -0.7799    2.0412 H   0  0  0  0  0  0  0  0  0  0  0  0
   -5.5421   -0.4910    0.3873 H   0  0  0  0  0  0  0  0  0  0  0  0
  1  6  2  0  0  0  0
  2  1  1  0  0  0  0
  3  2  2  0  0  0  0
  3  4  1  0  0  0  0
  4  5  2  0  0  0  0
  5  6  1  0  0  0  0
  5 10  1  0  0  0  0
  6 13  1  0  0  0  0
  7  1  1  0  0  0  0
  8  2  1  0  0  0  0
  9  4  1  0  0  0  0
 12 11  3  0  0  0  0
 13 14  1  0  0  0  0
 14 15  1  0  0  0  0
 14 16  1  0  0  0  0
 17 14  1  0  0  0  0
M  RAD  1   3   2
M  END
