Coordinates from ORCA-job 4-CH3O-Ph-N2+-scan-d090-169-n800
 OpenBabel09191814063D

 17 16  0  0  0  0  0  0  0  0999 V2000
   -2.8057   -0.1617    0.2416 C   0  0  0  0  0  0  0  0  0  0  0  0
   -1.4773   -0.1621   -0.2516 C   0  0  0  0  0  0  0  0  0  0  0  0
   -1.0800    1.1167   -0.3031 C   0  0  0  0  0  0  0  0  0  0  0  0
   -1.3115    2.3135    0.2610 C   0  0  0  0  0  0  0  0  0  0  0  0
   -2.6330    2.2431    0.7505 C   0  0  0  0  0  0  0  0  0  0  0  0
   -3.3712    1.0267    0.7630 C   0  0  0  0  0  0  0  0  0  0  0  0
   -3.3548   -1.0958    0.1953 H   0  0  0  0  0  0  0  0  0  0  0  0
   -0.9508   -1.0493   -0.5860 H   0  0  0  0  0  0  0  0  0  0  0  0
   -0.7275    3.2256    0.2165 H   0  0  0  0  0  0  0  0  0  0  0  0
   -3.1160    3.1660    1.0624 H   0  0  0  0  0  0  0  0  0  0  0  0
    7.7204    0.6653   -2.0841 N   0  0  0  0  0  0  0  0  0  0  0  0
    8.7963    0.6330   -2.3359 N   0  0  0  0  0  0  0  0  0  0  0  0
   -4.5910    1.1213    1.2760 O   0  0  0  0  0  0  0  0  0  0  0  0
   -5.4180   -0.0537    1.4064 C   0  0  0  0  0  0  0  0  0  0  0  0
   -6.3481    0.2991    1.8481 H   0  0  0  0  0  0  0  0  0  0  0  0
   -4.9439   -0.7848    2.0679 H   0  0  0  0  0  0  0  0  0  0  0  0
   -5.6174   -0.4894    0.4215 H   0  0  0  0  0  0  0  0  0  0  0  0
  1  6  2  0  0  0  0
  2  1  1  0  0  0  0
  3  2  2  0  0  0  0
  3  4  1  0  0  0  0
  4  5  2  0  0  0  0
  5  6  1  0  0  0  0
  5 10  1  0  0  0  0
  6 13  1  0  0  0  0
  7  1  1  0  0  0  0
  8  2  1  0  0  0  0
  9  4  1  0  0  0  0
 12 11  3  0  0  0  0
 13 14  1  0  0  0  0
 14 15  1  0  0  0  0
 14 16  1  0  0  0  0
 17 14  1  0  0  0  0
M  RAD  1   3   2
M  END
