Coordinates from ORCA-job 4-CH3O-Ph-N2+-scan-d090-169-n800
 OpenBabel09191814063D

 17 16  0  0  0  0  0  0  0  0999 V2000
   -3.1554   -0.1312    0.2289 C   0  0  0  0  0  0  0  0  0  0  0  0
   -1.8791   -0.0939   -0.3854 C   0  0  0  0  0  0  0  0  0  0  0  0
   -1.5027    1.1918   -0.4264 C   0  0  0  0  0  0  0  0  0  0  0  0
   -1.6937    2.3635    0.2020 C   0  0  0  0  0  0  0  0  0  0  0  0
   -2.9627    2.2560    0.8093 C   0  0  0  0  0  0  0  0  0  0  0  0
   -3.6829    1.0292    0.8448 C   0  0  0  0  0  0  0  0  0  0  0  0
   -3.6958   -1.0710    0.1991 H   0  0  0  0  0  0  0  0  0  0  0  0
   -1.3759   -0.9605   -0.8000 H   0  0  0  0  0  0  0  0  0  0  0  0
   -1.1270    3.2852    0.1374 H   0  0  0  0  0  0  0  0  0  0  0  0
   -3.4250    3.1597    1.1987 H   0  0  0  0  0  0  0  0  0  0  0  0
   10.1335    0.5879   -2.4927 N   0  0  0  0  0  0  0  0  0  0  0  0
   11.2133    0.5514   -2.7266 N   0  0  0  0  0  0  0  0  0  0  0  0
   -4.8503    1.0872    1.4724 O   0  0  0  0  0  0  0  0  0  0  0  0
   -5.6483   -0.1037    1.6350 C   0  0  0  0  0  0  0  0  0  0  0  0
   -6.5370    0.2194    2.1740 H   0  0  0  0  0  0  0  0  0  0  0  0
   -5.1064   -0.8512    2.2218 H   0  0  0  0  0  0  0  0  0  0  0  0
   -5.9339   -0.5063    0.6573 H   0  0  0  0  0  0  0  0  0  0  0  0
  1  6  2  0  0  0  0
  2  1  1  0  0  0  0
  3  2  2  0  0  0  0
  3  4  1  0  0  0  0
  4  5  2  0  0  0  0
  5  6  1  0  0  0  0
  5 10  1  0  0  0  0
  6 13  1  0  0  0  0
  7  1  1  0  0  0  0
  8  2  1  0  0  0  0
  9  4  1  0  0  0  0
 12 11  3  0  0  0  0
 13 14  1  0  0  0  0
 14 15  1  0  0  0  0
 14 16  1  0  0  0  0
 17 14  1  0  0  0  0
M  RAD  1   3   2
M  END
