Coordinates from ORCA-job 4-CH3O-Ph-N2+-scan-d090-169-n800
 OpenBabel09191814063D

 17 16  0  0  0  0  0  0  0  0999 V2000
   -3.8893    0.1569   -0.1896 C   0  0  0  0  0  0  0  0  0  0  0  0
   -3.5089    0.6126   -1.4753 C   0  0  0  0  0  0  0  0  0  0  0  0
   -3.4448    1.9506   -1.4167 C   0  0  0  0  0  0  0  0  0  0  0  0
   -3.2327    2.9518   -0.5463 C   0  0  0  0  0  0  0  0  0  0  0  0
   -3.6055    2.4337    0.7117 C   0  0  0  0  0  0  0  0  0  0  0  0
   -3.9120    1.0567    0.9033 C   0  0  0  0  0  0  0  0  0  0  0  0
   -4.1564   -0.8893   -0.0877 H   0  0  0  0  0  0  0  0  0  0  0  0
   -3.3807   -0.0326   -2.3377 H   0  0  0  0  0  0  0  0  0  0  0  0
   -3.0180    3.9980   -0.7320 H   0  0  0  0  0  0  0  0  0  0  0  0
   -3.7292    3.1283    1.5390 H   0  0  0  0  0  0  0  0  0  0  0  0
   12.9683   -0.1970   -1.8803 N   0  0  0  0  0  0  0  0  0  0  0  0
   14.0663   -0.2932   -1.9659 N   0  0  0  0  0  0  0  0  0  0  0  0
   -4.2201    0.7243    2.1497 O   0  0  0  0  0  0  0  0  0  0  0  0
   -4.4887   -0.6519    2.4908 C   0  0  0  0  0  0  0  0  0  0  0  0
   -4.7113   -0.6437    3.5561 H   0  0  0  0  0  0  0  0  0  0  0  0
   -3.6094   -1.2730    2.2972 H   0  0  0  0  0  0  0  0  0  0  0  0
   -5.3571   -1.0188    1.9333 H   0  0  0  0  0  0  0  0  0  0  0  0
  1  7  1  0  0  0  0
  1  6  2  0  0  0  0
  2  3  2  0  0  0  0
  2  1  1  0  0  0  0
  3  4  1  0  0  0  0
  4  5  2  0  0  0  0
  5  6  1  0  0  0  0
  5 10  1  0  0  0  0
  6 13  1  0  0  0  0
  8  2  1  0  0  0  0
  9  4  1  0  0  0  0
 12 11  3  0  0  0  0
 13 14  1  0  0  0  0
 14 15  1  0  0  0  0
 16 14  1  0  0  0  0
 17 14  1  0  0  0  0
M  RAD  1   3   2
M  END
