Coordinates from ORCA-job 4-CH3O-Ph-N2+-scan-d090-169-n800
 OpenBabel09191814063D

 17 17  0  0  0  0  0  0  0  0999 V2000
   -1.9359   -0.2236    0.1572 C   0  0  0  0  0  0  0  0  0  0  0  0
   -0.6255   -0.2700   -0.2436 C   0  0  0  0  0  0  0  0  0  0  0  0
    0.1643    0.9288   -0.2693 C   0  0  0  0  0  0  0  0  0  0  0  0
   -0.4307    2.1796    0.1289 C   0  0  0  0  0  0  0  0  0  0  0  0
   -1.7367    2.2093    0.5254 C   0  0  0  0  0  0  0  0  0  0  0  0
   -2.5149    1.0155    0.5485 C   0  0  0  0  0  0  0  0  0  0  0  0
   -2.5184   -1.1364    0.1711 H   0  0  0  0  0  0  0  0  0  0  0  0
   -0.1674   -1.2068   -0.5455 H   0  0  0  0  0  0  0  0  0  0  0  0
    0.1732    3.0812    0.1065 H   0  0  0  0  0  0  0  0  0  0  0  0
   -2.2100    3.1363    0.8302 H   0  0  0  0  0  0  0  0  0  0  0  0
    1.3116    0.8883   -0.6201 N   0  0  0  0  0  0  0  0  0  0  0  0
    2.3926    0.8538   -0.9501 N   0  0  0  0  0  0  0  0  0  0  0  0
   -3.7588    1.1639    0.9473 O   0  0  0  0  0  0  0  0  0  0  0  0
   -4.6675    0.0387    1.0217 C   0  0  0  0  0  0  0  0  0  0  0  0
   -5.6062    0.4593    1.3767 H   0  0  0  0  0  0  0  0  0  0  0  0
   -4.2946   -0.7020    1.7341 H   0  0  0  0  0  0  0  0  0  0  0  0
   -4.8047   -0.4025    0.0308 H   0  0  0  0  0  0  0  0  0  0  0  0
  1  7  1  0  0  0  0
  1  6  2  0  0  0  0
  2  1  1  0  0  0  0
  3  2  2  0  0  0  0
  3  4  1  0  0  0  0
  4  5  2  0  0  0  0
  5  6  1  0  0  0  0
  5 10  1  0  0  0  0
  6 13  1  0  0  0  0
  8  2  1  0  0  0  0
  9  4  1  0  0  0  0
 11  3  1  0  0  0  0
 12 11  1  0  0  0  0
 13 14  1  0  0  0  0
 14 15  1  0  0  0  0
 14 16  1  0  0  0  0
 17 14  1  0  0  0  0
M  RAD  2  11   2  12   3
M  END
