Coordinates from ORCA-job 4-CH3O-Ph-N2+-scan-d090-169-n800
 OpenBabel09191814063D

 17 16  0  0  0  0  0  0  0  0999 V2000
   -3.1273   -0.1362    0.2355 C   0  0  0  0  0  0  0  0  0  0  0  0
   -1.8428   -0.1053   -0.3613 C   0  0  0  0  0  0  0  0  0  0  0  0
   -1.4624    1.1790   -0.4045 C   0  0  0  0  0  0  0  0  0  0  0  0
   -1.6586    2.3541    0.2157 C   0  0  0  0  0  0  0  0  0  0  0  0
   -2.9359    2.2536    0.8062 C   0  0  0  0  0  0  0  0  0  0  0  0
   -3.6598    1.0288    0.8384 C   0  0  0  0  0  0  0  0  0  0  0  0
   -3.6700   -1.0747    0.2029 H   0  0  0  0  0  0  0  0  0  0  0  0
   -1.3368   -0.9755   -0.7651 H   0  0  0  0  0  0  0  0  0  0  0  0
   -1.0888    3.2742    0.1535 H   0  0  0  0  0  0  0  0  0  0  0  0
   -3.4009    3.1607    1.1844 H   0  0  0  0  0  0  0  0  0  0  0  0
    9.9507    0.6001   -2.4728 N   0  0  0  0  0  0  0  0  0  0  0  0
   11.0299    0.5647   -2.7097 N   0  0  0  0  0  0  0  0  0  0  0  0
   -4.8353    1.0932    1.4499 O   0  0  0  0  0  0  0  0  0  0  0  0
   -5.6388   -0.0946    1.6081 C   0  0  0  0  0  0  0  0  0  0  0  0
   -6.5337    0.2337    2.1336 H   0  0  0  0  0  0  0  0  0  0  0  0
   -5.1068   -0.8405    2.2060 H   0  0  0  0  0  0  0  0  0  0  0  0
   -5.9124   -0.5016    0.6288 H   0  0  0  0  0  0  0  0  0  0  0  0
  1  6  2  0  0  0  0
  2  1  1  0  0  0  0
  3  2  2  0  0  0  0
  3  4  1  0  0  0  0
  4  5  2  0  0  0  0
  5  6  1  0  0  0  0
  5 10  1  0  0  0  0
  6 13  1  0  0  0  0
  7  1  1  0  0  0  0
  8  2  1  0  0  0  0
  9  4  1  0  0  0  0
 12 11  3  0  0  0  0
 13 14  1  0  0  0  0
 14 15  1  0  0  0  0
 14 16  1  0  0  0  0
 17 14  1  0  0  0  0
M  RAD  1   3   2
M  END
