Coordinates from ORCA-job 4-CH3O-Ph-N2+-scan-d090-169-n800
 OpenBabel09191814063D

 17 16  0  0  0  0  0  0  0  0999 V2000
   -3.0051   -0.1510    0.2497 C   0  0  0  0  0  0  0  0  0  0  0  0
   -1.6963   -0.1393   -0.2930 C   0  0  0  0  0  0  0  0  0  0  0  0
   -1.3047    1.1415   -0.3404 C   0  0  0  0  0  0  0  0  0  0  0  0
   -1.5181    2.3287    0.2504 C   0  0  0  0  0  0  0  0  0  0  0  0
   -2.8200    2.2466    0.7881 C   0  0  0  0  0  0  0  0  0  0  0  0
   -3.5538    1.0277    0.8099 C   0  0  0  0  0  0  0  0  0  0  0  0
   -3.5530   -1.0861    0.2100 H   0  0  0  0  0  0  0  0  0  0  0  0
   -1.1802   -1.0197   -0.6601 H   0  0  0  0  0  0  0  0  0  0  0  0
   -0.9389    3.2434    0.1977 H   0  0  0  0  0  0  0  0  0  0  0  0
   -3.2935    3.1631    1.1316 H   0  0  0  0  0  0  0  0  0  0  0  0
    9.1233    0.6375   -2.3517 N   0  0  0  0  0  0  0  0  0  0  0  0
   10.2006    0.6044   -2.5974 N   0  0  0  0  0  0  0  0  0  0  0  0
   -4.7537    1.1105    1.3700 O   0  0  0  0  0  0  0  0  0  0  0  0
   -5.5720   -0.0690    1.5136 C   0  0  0  0  0  0  0  0  0  0  0  0
   -6.4857    0.2741    1.9952 H   0  0  0  0  0  0  0  0  0  0  0  0
   -5.0713   -0.8083    2.1457 H   0  0  0  0  0  0  0  0  0  0  0  0
   -5.8071   -0.4906    0.5304 H   0  0  0  0  0  0  0  0  0  0  0  0
  1  6  2  0  0  0  0
  2  1  1  0  0  0  0
  3  2  2  0  0  0  0
  3  4  1  0  0  0  0
  4  5  2  0  0  0  0
  5  6  1  0  0  0  0
  5 10  1  0  0  0  0
  6 13  1  0  0  0  0
  7  1  1  0  0  0  0
  8  2  1  0  0  0  0
  9  4  1  0  0  0  0
 12 11  3  0  0  0  0
 13 14  1  0  0  0  0
 14 15  1  0  0  0  0
 14 16  1  0  0  0  0
 17 14  1  0  0  0  0
M  RAD  1   3   2
M  END
