Coordinates from ORCA-job 4-CH3O-Ph-N2+-scan-d090-169-n800
 OpenBabel09191814063D

 17 16  0  0  0  0  0  0  0  0999 V2000
   -2.7551   -0.1633    0.2364 C   0  0  0  0  0  0  0  0  0  0  0  0
   -1.4236   -0.1647   -0.2477 C   0  0  0  0  0  0  0  0  0  0  0  0
   -1.0257    1.1137   -0.3005 C   0  0  0  0  0  0  0  0  0  0  0  0
   -1.2611    2.3116    0.2594 C   0  0  0  0  0  0  0  0  0  0  0  0
   -2.5856    2.2430    0.7403 C   0  0  0  0  0  0  0  0  0  0  0  0
   -3.3240    1.0265    0.7510 C   0  0  0  0  0  0  0  0  0  0  0  0
   -3.3041   -1.0975    0.1884 H   0  0  0  0  0  0  0  0  0  0  0  0
   -0.8952   -1.0529   -0.5767 H   0  0  0  0  0  0  0  0  0  0  0  0
   -0.6769    3.2237    0.2161 H   0  0  0  0  0  0  0  0  0  0  0  0
   -3.0706    3.1668    1.0462 H   0  0  0  0  0  0  0  0  0  0  0  0
    7.3601    0.6692   -2.0091 N   0  0  0  0  0  0  0  0  0  0  0  0
    8.4358    0.6369   -2.2617 N   0  0  0  0  0  0  0  0  0  0  0  0
   -4.5471    1.1225    1.2558 O   0  0  0  0  0  0  0  0  0  0  0  0
   -5.3750   -0.0521    1.3839 C   0  0  0  0  0  0  0  0  0  0  0  0
   -6.3080    0.3019    1.8185 H   0  0  0  0  0  0  0  0  0  0  0  0
   -4.9053   -0.7814    2.0504 H   0  0  0  0  0  0  0  0  0  0  0  0
   -5.5680   -0.4905    0.3989 H   0  0  0  0  0  0  0  0  0  0  0  0
  1  6  2  0  0  0  0
  2  1  1  0  0  0  0
  3  2  2  0  0  0  0
  3  4  1  0  0  0  0
  4  5  2  0  0  0  0
  5  6  1  0  0  0  0
  5 10  1  0  0  0  0
  6 13  1  0  0  0  0
  7  1  1  0  0  0  0
  8  2  1  0  0  0  0
  9  4  1  0  0  0  0
 12 11  3  0  0  0  0
 13 14  1  0  0  0  0
 14 15  1  0  0  0  0
 14 16  1  0  0  0  0
 17 14  1  0  0  0  0
M  RAD  1   3   2
M  END
