Coordinates from ORCA-job 4-CH3O-Ph-N2+-scan-d090-169-n800
 OpenBabel09191814063D

 17 17  0  0  0  0  0  0  0  0999 V2000
   -1.9221   -0.2257    0.1527 C   0  0  0  0  0  0  0  0  0  0  0  0
   -0.6183   -0.2732   -0.2463 C   0  0  0  0  0  0  0  0  0  0  0  0
    0.2227    0.9258   -0.2876 C   0  0  0  0  0  0  0  0  0  0  0  0
   -0.4232    2.1806    0.1268 C   0  0  0  0  0  0  0  0  0  0  0  0
   -1.7233    2.2086    0.5212 C   0  0  0  0  0  0  0  0  0  0  0  0
   -2.5045    1.0143    0.5452 C   0  0  0  0  0  0  0  0  0  0  0  0
   -2.5037   -1.1396    0.1662 H   0  0  0  0  0  0  0  0  0  0  0  0
   -0.1550   -1.2079   -0.5493 H   0  0  0  0  0  0  0  0  0  0  0  0
    0.1861    3.0793    0.1024 H   0  0  0  0  0  0  0  0  0  0  0  0
   -2.1954    3.1368    0.8259 H   0  0  0  0  0  0  0  0  0  0  0  0
    1.1979    0.8924   -0.5853 N   0  0  0  0  0  0  0  0  0  0  0  0
    2.2950    0.8578   -0.9202 N   0  0  0  0  0  0  0  0  0  0  0  0
   -3.7437    1.1613    0.9423 O   0  0  0  0  0  0  0  0  0  0  0  0
   -4.6601    0.0385    1.0194 C   0  0  0  0  0  0  0  0  0  0  0  0
   -5.5953    0.4662    1.3747 H   0  0  0  0  0  0  0  0  0  0  0  0
   -4.2880   -0.7009    1.7330 H   0  0  0  0  0  0  0  0  0  0  0  0
   -4.7986   -0.4012    0.0285 H   0  0  0  0  0  0  0  0  0  0  0  0
  1  7  1  0  0  0  0
  1  6  2  0  0  0  0
  2  1  1  0  0  0  0
  3  2  2  0  0  0  0
  3  4  1  0  0  0  0
  4  5  2  0  0  0  0
  5  6  1  0  0  0  0
  5 10  1  0  0  0  0
  6 13  1  0  0  0  0
  8  2  1  0  0  0  0
  9  4  1  0  0  0  0
 11  3  1  0  0  0  0
 12 11  1  0  0  0  0
 13 14  1  0  0  0  0
 14 15  1  0  0  0  0
 14 16  1  0  0  0  0
 17 14  1  0  0  0  0
M  RAD  2  11   2  12   3
M  END
