Coordinates from ORCA-job 4-CH3O-Ph-N2+-scan-d090-169-n800
 OpenBabel09191814063D

 17 16  0  0  0  0  0  0  0  0999 V2000
   -3.8712    0.1494   -0.1829 C   0  0  0  0  0  0  0  0  0  0  0  0
   -3.4569    0.5976   -1.4603 C   0  0  0  0  0  0  0  0  0  0  0  0
   -3.3873    1.9363   -1.4075 C   0  0  0  0  0  0  0  0  0  0  0  0
   -3.1828    2.9378   -0.5349 C   0  0  0  0  0  0  0  0  0  0  0  0
   -3.5897    2.4283    0.7159 C   0  0  0  0  0  0  0  0  0  0  0  0
   -3.9131    1.0547    0.9053 C   0  0  0  0  0  0  0  0  0  0  0  0
   -4.1476   -0.8944   -0.0822 H   0  0  0  0  0  0  0  0  0  0  0  0
   -3.3104   -0.0505   -2.3175 H   0  0  0  0  0  0  0  0  0  0  0  0
   -2.9507    3.9804   -0.7203 H   0  0  0  0  0  0  0  0  0  0  0  0
   -3.7258    3.1274    1.5374 H   0  0  0  0  0  0  0  0  0  0  0  0
   12.9288   -0.1723   -1.9082 N   0  0  0  0  0  0  0  0  0  0  0  0
   14.0267   -0.2673   -1.9967 N   0  0  0  0  0  0  0  0  0  0  0  0
   -4.2535    0.7303    2.1452 O   0  0  0  0  0  0  0  0  0  0  0  0
   -4.5421   -0.6419    2.4858 C   0  0  0  0  0  0  0  0  0  0  0  0
   -4.7913   -0.6267    3.5452 H   0  0  0  0  0  0  0  0  0  0  0  0
   -3.6634   -1.2714    2.3173 H   0  0  0  0  0  0  0  0  0  0  0  0
   -5.3991   -1.0044    1.9082 H   0  0  0  0  0  0  0  0  0  0  0  0
  1  7  1  0  0  0  0
  1  6  2  0  0  0  0
  2  3  2  0  0  0  0
  2  1  1  0  0  0  0
  3  4  1  0  0  0  0
  4  5  2  0  0  0  0
  5  6  1  0  0  0  0
  5 10  1  0  0  0  0
  6 13  1  0  0  0  0
  8  2  1  0  0  0  0
  9  4  1  0  0  0  0
 12 11  3  0  0  0  0
 13 14  1  0  0  0  0
 14 15  1  0  0  0  0
 16 14  1  0  0  0  0
 17 14  1  0  0  0  0
M  RAD  1   3   2
M  END
