Coordinates from ORCA-job 4-CH3O-Ph-N2+-scan-d090-169-n800
 OpenBabel09191814063D

 17 16  0  0  0  0  0  0  0  0999 V2000
   -2.4696   -0.1716    0.1973 C   0  0  0  0  0  0  0  0  0  0  0  0
   -1.1248   -0.1824   -0.2500 C   0  0  0  0  0  0  0  0  0  0  0  0
   -0.7228    1.0945   -0.3039 C   0  0  0  0  0  0  0  0  0  0  0  0
   -0.9713    2.3003    0.2326 C   0  0  0  0  0  0  0  0  0  0  0  0
   -2.3091    2.2397    0.6772 C   0  0  0  0  0  0  0  0  0  0  0  0
   -3.0501    1.0251    0.6815 C   0  0  0  0  0  0  0  0  0  0  0  0
   -3.0192   -1.1052    0.1448 H   0  0  0  0  0  0  0  0  0  0  0  0
   -0.5899   -1.0753   -0.5544 H   0  0  0  0  0  0  0  0  0  0  0  0
   -0.3832    3.2101    0.1958 H   0  0  0  0  0  0  0  0  0  0  0  0
   -2.7998    3.1678    0.9601 H   0  0  0  0  0  0  0  0  0  0  0  0
    5.2826    0.6998   -1.5528 N   0  0  0  0  0  0  0  0  0  0  0  0
    6.3569    0.6623   -1.8103 N   0  0  0  0  0  0  0  0  0  0  0  0
   -4.2870    1.1292    1.1504 O   0  0  0  0  0  0  0  0  0  0  0  0
   -5.1203   -0.0424    1.2686 C   0  0  0  0  0  0  0  0  0  0  0  0
   -6.0644    0.3179    1.6730 H   0  0  0  0  0  0  0  0  0  0  0  0
   -4.6708   -0.7650    1.9561 H   0  0  0  0  0  0  0  0  0  0  0  0
   -5.2867   -0.4916    0.2836 H   0  0  0  0  0  0  0  0  0  0  0  0
  1  6  2  0  0  0  0
  2  1  1  0  0  0  0
  3  2  2  0  0  0  0
  3  4  1  0  0  0  0
  4  5  2  0  0  0  0
  5  6  1  0  0  0  0
  5 10  1  0  0  0  0
  6 13  1  0  0  0  0
  7  1  1  0  0  0  0
  8  2  1  0  0  0  0
  9  4  1  0  0  0  0
 12 11  3  0  0  0  0
 13 14  1  0  0  0  0
 14 15  1  0  0  0  0
 14 16  1  0  0  0  0
 17 14  1  0  0  0  0
M  RAD  1   3   2
M  END
