Coordinates from ORCA-job 4-CH3O-Ph-N2+-scan-d090-169-n800
 OpenBabel09191814063D

 17 16  0  0  0  0  0  0  0  0999 V2000
   -2.7985   -0.1620    0.2409 C   0  0  0  0  0  0  0  0  0  0  0  0
   -1.4696   -0.1623   -0.2506 C   0  0  0  0  0  0  0  0  0  0  0  0
   -1.0720    1.1163   -0.3028 C   0  0  0  0  0  0  0  0  0  0  0  0
   -1.3043    2.3129    0.2611 C   0  0  0  0  0  0  0  0  0  0  0  0
   -2.6262    2.2432    0.7491 C   0  0  0  0  0  0  0  0  0  0  0  0
   -3.3645    1.0267    0.7613 C   0  0  0  0  0  0  0  0  0  0  0  0
   -3.3476   -1.0961    0.1939 H   0  0  0  0  0  0  0  0  0  0  0  0
   -0.9430   -1.0498   -0.5845 H   0  0  0  0  0  0  0  0  0  0  0  0
   -0.7204    3.2251    0.2165 H   0  0  0  0  0  0  0  0  0  0  0  0
   -3.1094    3.1662    1.0598 H   0  0  0  0  0  0  0  0  0  0  0  0
    7.6691    0.6659   -2.0735 N   0  0  0  0  0  0  0  0  0  0  0  0
    8.7450    0.6336   -2.3255 N   0  0  0  0  0  0  0  0  0  0  0  0
   -4.5847    1.1215    1.2731 O   0  0  0  0  0  0  0  0  0  0  0  0
   -5.4119   -0.0535    1.4032 C   0  0  0  0  0  0  0  0  0  0  0  0
   -6.3425    0.2996    1.8438 H   0  0  0  0  0  0  0  0  0  0  0  0
   -4.9385   -0.7842    2.0655 H   0  0  0  0  0  0  0  0  0  0  0  0
   -5.6103   -0.4896    0.4183 H   0  0  0  0  0  0  0  0  0  0  0  0
  1  6  2  0  0  0  0
  2  1  1  0  0  0  0
  3  2  2  0  0  0  0
  3  4  1  0  0  0  0
  4  5  2  0  0  0  0
  5  6  1  0  0  0  0
  5 10  1  0  0  0  0
  6 13  1  0  0  0  0
  7  1  1  0  0  0  0
  8  2  1  0  0  0  0
  9  4  1  0  0  0  0
 12 11  3  0  0  0  0
 13 14  1  0  0  0  0
 14 15  1  0  0  0  0
 14 16  1  0  0  0  0
 17 14  1  0  0  0  0
M  RAD  1   3   2
M  END
