Coordinates from ORCA-job 4-CH3O-Ph-N2+-scan-d090-169-n800
 OpenBabel09191814063D

 17 16  0  0  0  0  0  0  0  0999 V2000
   -3.9341    0.1713   -0.2049 C   0  0  0  0  0  0  0  0  0  0  0  0
   -3.6395    0.6481   -1.5050 C   0  0  0  0  0  0  0  0  0  0  0  0
   -3.6041    1.9874   -1.4379 C   0  0  0  0  0  0  0  0  0  0  0  0
   -3.3571    2.9833   -0.5702 C   0  0  0  0  0  0  0  0  0  0  0  0
   -3.6445    2.4463    0.7020 C   0  0  0  0  0  0  0  0  0  0  0  0
   -3.9113    1.0612    0.8968 C   0  0  0  0  0  0  0  0  0  0  0  0
   -4.1708   -0.8815   -0.0977 H   0  0  0  0  0  0  0  0  0  0  0  0
   -3.5464    0.0152   -2.3809 H   0  0  0  0  0  0  0  0  0  0  0  0
   -3.1729    4.0350   -0.7579 H   0  0  0  0  0  0  0  0  0  0  0  0
   -3.7327    3.1305    1.5424 H   0  0  0  0  0  0  0  0  0  0  0  0
   13.0611   -0.2575   -1.8116 N   0  0  0  0  0  0  0  0  0  0  0  0
   14.1594   -0.3566   -1.8902 N   0  0  0  0  0  0  0  0  0  0  0  0
   -4.1376    0.7112    2.1555 O   0  0  0  0  0  0  0  0  0  0  0  0
   -4.3567   -0.6734    2.4982 C   0  0  0  0  0  0  0  0  0  0  0  0
   -4.5177   -0.6790    3.5746 H   0  0  0  0  0  0  0  0  0  0  0  0
   -3.4768   -1.2734    2.2485 H   0  0  0  0  0  0  0  0  0  0  0  0
   -5.2477   -1.0545    1.9878 H   0  0  0  0  0  0  0  0  0  0  0  0
  1  7  1  0  0  0  0
  1  6  2  0  0  0  0
  2  3  2  0  0  0  0
  2  1  1  0  0  0  0
  3  4  1  0  0  0  0
  4  5  2  0  0  0  0
  5  6  1  0  0  0  0
  5 10  1  0  0  0  0
  6 13  1  0  0  0  0
  8  2  1  0  0  0  0
  9  4  1  0  0  0  0
 12 11  3  0  0  0  0
 13 14  1  0  0  0  0
 14 15  1  0  0  0  0
 16 14  1  0  0  0  0
 17 14  1  0  0  0  0
M  RAD  1   3   2
M  END
