Coordinates from ORCA-job 4-CH3O-Ph-N2+-scan-d090-169-n800
 OpenBabel09191814063D

 17 16  0  0  0  0  0  0  0  0999 V2000
   -3.0920   -0.1415    0.2419 C   0  0  0  0  0  0  0  0  0  0  0  0
   -1.7988   -0.1176   -0.3363 C   0  0  0  0  0  0  0  0  0  0  0  0
   -1.4142    1.1653   -0.3812 C   0  0  0  0  0  0  0  0  0  0  0  0
   -1.6161    2.3446    0.2292 C   0  0  0  0  0  0  0  0  0  0  0  0
   -2.9022    2.2510    0.8016 C   0  0  0  0  0  0  0  0  0  0  0  0
   -3.6300    1.0284    0.8303 C   0  0  0  0  0  0  0  0  0  0  0  0
   -3.6368   -1.0786    0.2067 H   0  0  0  0  0  0  0  0  0  0  0  0
   -1.2895   -0.9915   -0.7277 H   0  0  0  0  0  0  0  0  0  0  0  0
   -1.0429    3.2627    0.1702 H   0  0  0  0  0  0  0  0  0  0  0  0
   -3.3701    3.1615    1.1678 H   0  0  0  0  0  0  0  0  0  0  0  0
    9.7161    0.6134   -2.4429 N   0  0  0  0  0  0  0  0  0  0  0  0
   10.7946    0.5789   -2.6830 N   0  0  0  0  0  0  0  0  0  0  0  0
   -4.8141    1.0996    1.4242 O   0  0  0  0  0  0  0  0  0  0  0  0
   -5.6231   -0.0852    1.5774 C   0  0  0  0  0  0  0  0  0  0  0  0
   -6.5246    0.2486    2.0879 H   0  0  0  0  0  0  0  0  0  0  0  0
   -5.1020   -0.8290    2.1872 H   0  0  0  0  0  0  0  0  0  0  0  0
   -5.8836   -0.4971    0.5965 H   0  0  0  0  0  0  0  0  0  0  0  0
  1  6  2  0  0  0  0
  2  1  1  0  0  0  0
  3  2  2  0  0  0  0
  3  4  1  0  0  0  0
  4  5  2  0  0  0  0
  5  6  1  0  0  0  0
  5 10  1  0  0  0  0
  6 13  1  0  0  0  0
  7  1  1  0  0  0  0
  8  2  1  0  0  0  0
  9  4  1  0  0  0  0
 12 11  3  0  0  0  0
 13 14  1  0  0  0  0
 14 15  1  0  0  0  0
 14 16  1  0  0  0  0
 17 14  1  0  0  0  0
M  RAD  1   3   2
M  END
