Coordinates from ORCA-job 4-CH3O-Ph-N2+-scan-d090-169-n800
 OpenBabel09191814063D

 17 16  0  0  0  0  0  0  0  0999 V2000
   -2.9195   -0.1570    0.2494 C   0  0  0  0  0  0  0  0  0  0  0  0
   -1.6004   -0.1521   -0.2675 C   0  0  0  0  0  0  0  0  0  0  0  0
   -1.2050    1.1274   -0.3178 C   0  0  0  0  0  0  0  0  0  0  0  0
   -1.4273    2.3192    0.2600 C   0  0  0  0  0  0  0  0  0  0  0  0
   -2.7394    2.2444    0.7729 C   0  0  0  0  0  0  0  0  0  0  0  0
   -3.4763    1.0271    0.7899 C   0  0  0  0  0  0  0  0  0  0  0  0
   -3.4686   -1.0912    0.2059 H   0  0  0  0  0  0  0  0  0  0  0  0
   -1.0795   -1.0364   -0.6183 H   0  0  0  0  0  0  0  0  0  0  0  0
   -0.8453    3.2325    0.2112 H   0  0  0  0  0  0  0  0  0  0  0  0
   -3.2175    3.1646    1.0998 H   0  0  0  0  0  0  0  0  0  0  0  0
    8.5261    0.6529   -2.2442 N   0  0  0  0  0  0  0  0  0  0  0  0
    9.6026    0.6203   -2.4933 N   0  0  0  0  0  0  0  0  0  0  0  0
   -4.6865    1.1167    1.3259 O   0  0  0  0  0  0  0  0  0  0  0  0
   -5.5101   -0.0599    1.4628 C   0  0  0  0  0  0  0  0  0  0  0  0
   -6.4323    0.2889    1.9240 H   0  0  0  0  0  0  0  0  0  0  0  0
   -5.0234   -0.7953    2.1103 H   0  0  0  0  0  0  0  0  0  0  0  0
   -5.7271   -0.4887    0.4786 H   0  0  0  0  0  0  0  0  0  0  0  0
  1  6  2  0  0  0  0
  2  1  1  0  0  0  0
  3  2  2  0  0  0  0
  3  4  1  0  0  0  0
  4  5  2  0  0  0  0
  5  6  1  0  0  0  0
  5 10  1  0  0  0  0
  6 13  1  0  0  0  0
  7  1  1  0  0  0  0
  8  2  1  0  0  0  0
  9  4  1  0  0  0  0
 12 11  3  0  0  0  0
 13 14  1  0  0  0  0
 14 15  1  0  0  0  0
 14 16  1  0  0  0  0
 17 14  1  0  0  0  0
M  RAD  1   3   2
M  END
