Coordinates from ORCA-job 4-CH3O-Ph-N2+-scan-d090-169-n800
 OpenBabel09191814063D

 17 16  0  0  0  0  0  0  0  0999 V2000
   -2.8588   -0.1598    0.2461 C   0  0  0  0  0  0  0  0  0  0  0  0
   -1.5343   -0.1582   -0.2575 C   0  0  0  0  0  0  0  0  0  0  0  0
   -1.1377    1.1209   -0.3082 C   0  0  0  0  0  0  0  0  0  0  0  0
   -1.3651    2.3158    0.2615 C   0  0  0  0  0  0  0  0  0  0  0  0
   -2.6827    2.2435    0.7611 C   0  0  0  0  0  0  0  0  0  0  0  0
   -3.4205    1.0269    0.7755 C   0  0  0  0  0  0  0  0  0  0  0  0
   -3.4081   -1.0939    0.2011 H   0  0  0  0  0  0  0  0  0  0  0  0
   -1.0102   -1.0442   -0.5987 H   0  0  0  0  0  0  0  0  0  0  0  0
   -0.7818    3.2282    0.2153 H   0  0  0  0  0  0  0  0  0  0  0  0
   -3.1635    3.1653    1.0795 H   0  0  0  0  0  0  0  0  0  0  0  0
    8.0978    0.6603   -2.1606 N   0  0  0  0  0  0  0  0  0  0  0  0
    9.1739    0.6278   -2.4113 N   0  0  0  0  0  0  0  0  0  0  0  0
   -4.6363    1.1196    1.2984 O   0  0  0  0  0  0  0  0  0  0  0  0
   -5.4620   -0.0560    1.4316 C   0  0  0  0  0  0  0  0  0  0  0  0
   -6.3887    0.2952    1.8817 H   0  0  0  0  0  0  0  0  0  0  0  0
   -4.9825   -0.7890    2.0871 H   0  0  0  0  0  0  0  0  0  0  0  0
   -5.6690   -0.4888    0.4470 H   0  0  0  0  0  0  0  0  0  0  0  0
  1  6  2  0  0  0  0
  2  1  1  0  0  0  0
  3  2  2  0  0  0  0
  3  4  1  0  0  0  0
  4  5  2  0  0  0  0
  5  6  1  0  0  0  0
  5 10  1  0  0  0  0
  6 13  1  0  0  0  0
  7  1  1  0  0  0  0
  8  2  1  0  0  0  0
  9  4  1  0  0  0  0
 12 11  3  0  0  0  0
 13 14  1  0  0  0  0
 14 15  1  0  0  0  0
 14 16  1  0  0  0  0
 17 14  1  0  0  0  0
M  RAD  1   3   2
M  END
