Coordinates from ORCA-job 4-CH3O-Ph-N2+-scan-d090-169-n800
 OpenBabel09191814063D

 17 16  0  0  0  0  0  0  0  0999 V2000
   -2.2272   -0.2027    0.1724 C   0  0  0  0  0  0  0  0  0  0  0  0
   -0.8700   -0.2553   -0.2356 C   0  0  0  0  0  0  0  0  0  0  0  0
   -0.4358    1.0096   -0.2903 C   0  0  0  0  0  0  0  0  0  0  0  0
   -0.6735    2.2325    0.2091 C   0  0  0  0  0  0  0  0  0  0  0  0
   -2.0251    2.2115    0.6151 C   0  0  0  0  0  0  0  0  0  0  0  0
   -2.7940    1.0153    0.6175 C   0  0  0  0  0  0  0  0  0  0  0  0
   -2.7970   -1.1240    0.1187 H   0  0  0  0  0  0  0  0  0  0  0  0
   -0.3496   -1.1651   -0.5129 H   0  0  0  0  0  0  0  0  0  0  0  0
   -0.0601    3.1255    0.1768 H   0  0  0  0  0  0  0  0  0  0  0  0
   -2.4996    3.1551    0.8725 H   0  0  0  0  0  0  0  0  0  0  0  0
    3.3902    0.8301   -1.1418 N   0  0  0  0  0  0  0  0  0  0  0  0
    4.4585    0.8002   -1.4238 N   0  0  0  0  0  0  0  0  0  0  0  0
   -4.0428    1.1558    1.0460 O   0  0  0  0  0  0  0  0  0  0  0  0
   -4.9051    0.0052    1.1566 C   0  0  0  0  0  0  0  0  0  0  0  0
   -5.8526    0.3923    1.5271 H   0  0  0  0  0  0  0  0  0  0  0  0
   -4.4931   -0.7166    1.8682 H   0  0  0  0  0  0  0  0  0  0  0  0
   -5.0528   -0.4561    0.1742 H   0  0  0  0  0  0  0  0  0  0  0  0
  1  6  2  0  0  0  0
  2  1  1  0  0  0  0
  3  2  2  0  0  0  0
  3  4  1  0  0  0  0
  4  5  2  0  0  0  0
  5  6  1  0  0  0  0
  5 10  1  0  0  0  0
  6 13  1  0  0  0  0
  7  1  1  0  0  0  0
  8  2  1  0  0  0  0
  9  4  1  0  0  0  0
 12 11  3  0  0  0  0
 13 14  1  0  0  0  0
 14 15  1  0  0  0  0
 14 16  1  0  0  0  0
 17 14  1  0  0  0  0
M  RAD  1   3   2
M  END
