Coordinates from ORCA-job 4-CH3O-Ph-N2+-scan-d090-169-n800
 OpenBabel09191814063D

 17 16  0  0  0  0  0  0  0  0999 V2000
   -3.3645   -0.0745    0.1397 C   0  0  0  0  0  0  0  0  0  0  0  0
   -2.1938    0.0425   -0.6496 C   0  0  0  0  0  0  0  0  0  0  0  0
   -1.8666    1.3420   -0.6738 C   0  0  0  0  0  0  0  0  0  0  0  0
   -1.9981    2.4720    0.0405 C   0  0  0  0  0  0  0  0  0  0  0  0
   -3.1606    2.2859    0.8181 C   0  0  0  0  0  0  0  0  0  0  0  0
   -3.8306    1.0324    0.8892 C   0  0  0  0  0  0  0  0  0  0  0  0
   -3.8749   -1.0315    0.1365 H   0  0  0  0  0  0  0  0  0  0  0  0
   -1.7305   -0.7823   -1.1800 H   0  0  0  0  0  0  0  0  0  0  0  0
   -1.4751    3.4167   -0.0541 H   0  0  0  0  0  0  0  0  0  0  0  0
   -3.5881    3.1506    1.3198 H   0  0  0  0  0  0  0  0  0  0  0  0
   11.3688    0.4516   -2.5373 N   0  0  0  0  0  0  0  0  0  0  0  0
   12.4546    0.3999   -2.7385 N   0  0  0  0  0  0  0  0  0  0  0  0
   -4.8945    1.0145    1.6814 O   0  0  0  0  0  0  0  0  0  0  0  0
   -5.6242   -0.2124    1.8915 C   0  0  0  0  0  0  0  0  0  0  0  0
   -6.4336    0.0493    2.5704 H   0  0  0  0  0  0  0  0  0  0  0  0
   -4.9800   -0.9676    2.3513 H   0  0  0  0  0  0  0  0  0  0  0  0
   -6.0376   -0.5756    0.9445 H   0  0  0  0  0  0  0  0  0  0  0  0
  1  6  2  0  0  0  0
  2  1  1  0  0  0  0
  3  2  2  0  0  0  0
  3  4  1  0  0  0  0
  4  5  2  0  0  0  0
  5  6  1  0  0  0  0
  5 10  1  0  0  0  0
  6 13  1  0  0  0  0
  7  1  1  0  0  0  0
  8  2  1  0  0  0  0
  9  4  1  0  0  0  0
 12 11  3  0  0  0  0
 13 14  1  0  0  0  0
 14 16  1  0  0  0  0
 14 15  1  0  0  0  0
 17 14  1  0  0  0  0
M  RAD  1   3   2
M  END
