Coordinates from ORCA-job 4-CH3O-Ph-N2+-scan-d090-169-n800
 OpenBabel09191814063D

 17 17  0  0  0  0  0  0  0  0999 V2000
   -1.9550   -0.2207    0.1634 C   0  0  0  0  0  0  0  0  0  0  0  0
   -0.6366   -0.2705   -0.2403 C   0  0  0  0  0  0  0  0  0  0  0  0
    0.0970    0.9324   -0.2485 C   0  0  0  0  0  0  0  0  0  0  0  0
   -0.4419    2.1832    0.1329 C   0  0  0  0  0  0  0  0  0  0  0  0
   -1.7557    2.2097    0.5311 C   0  0  0  0  0  0  0  0  0  0  0  0
   -2.5305    1.0168    0.5535 C   0  0  0  0  0  0  0  0  0  0  0  0
   -2.5380   -1.1328    0.1776 H   0  0  0  0  0  0  0  0  0  0  0  0
   -0.1772   -1.2055   -0.5424 H   0  0  0  0  0  0  0  0  0  0  0  0
    0.1624    3.0834    0.1101 H   0  0  0  0  0  0  0  0  0  0  0  0
   -2.2298    3.1360    0.8360 H   0  0  0  0  0  0  0  0  0  0  0  0
    1.4547    0.8835   -0.6639 N   0  0  0  0  0  0  0  0  0  0  0  0
    2.5235    0.8496   -0.9900 N   0  0  0  0  0  0  0  0  0  0  0  0
   -3.7805    1.1670    0.9543 O   0  0  0  0  0  0  0  0  0  0  0  0
   -4.6794    0.0388    1.0252 C   0  0  0  0  0  0  0  0  0  0  0  0
   -5.6225    0.4501    1.3800 H   0  0  0  0  0  0  0  0  0  0  0  0
   -4.3051   -0.7034    1.7363 H   0  0  0  0  0  0  0  0  0  0  0  0
   -4.8149   -0.4043    0.0343 H   0  0  0  0  0  0  0  0  0  0  0  0
  1  7  1  0  0  0  0
  1  6  2  0  0  0  0
  2  1  1  0  0  0  0
  3  2  2  0  0  0  0
  3  4  1  0  0  0  0
  4  5  2  0  0  0  0
  5  6  1  0  0  0  0
  5 10  1  0  0  0  0
  6 13  1  0  0  0  0
  8  2  1  0  0  0  0
  9  4  1  0  0  0  0
 11  3  1  0  0  0  0
 12 11  1  0  0  0  0
 13 14  1  0  0  0  0
 14 15  1  0  0  0  0
 14 16  1  0  0  0  0
 17 14  1  0  0  0  0
M  RAD  2  11   2  12   3
M  END
