Coordinates from ORCA-job 4-CH3O-Ph-N2+-scan-d090-169-n800
 OpenBabel09191814063D

 17 16  0  0  0  0  0  0  0  0999 V2000
   -2.9341   -0.1562    0.2499 C   0  0  0  0  0  0  0  0  0  0  0  0
   -1.6165   -0.1503   -0.2708 C   0  0  0  0  0  0  0  0  0  0  0  0
   -1.2216    1.1293   -0.3207 C   0  0  0  0  0  0  0  0  0  0  0  0
   -1.4425    2.3204    0.2591 C   0  0  0  0  0  0  0  0  0  0  0  0
   -2.7531    2.2447    0.7756 C   0  0  0  0  0  0  0  0  0  0  0  0
   -3.4897    1.0272    0.7933 C   0  0  0  0  0  0  0  0  0  0  0  0
   -3.4831   -1.0905    0.2069 H   0  0  0  0  0  0  0  0  0  0  0  0
   -1.0964   -1.0341   -0.6241 H   0  0  0  0  0  0  0  0  0  0  0  0
   -0.8609    3.2339    0.2096 H   0  0  0  0  0  0  0  0  0  0  0  0
   -3.2305    3.1644    1.1049 H   0  0  0  0  0  0  0  0  0  0  0  0
    8.6287    0.6507   -2.2635 N   0  0  0  0  0  0  0  0  0  0  0  0
    9.7054    0.6181   -2.5122 N   0  0  0  0  0  0  0  0  0  0  0  0
   -4.6984    1.1159    1.3329 O   0  0  0  0  0  0  0  0  0  0  0  0
   -5.5213   -0.0611    1.4709 C   0  0  0  0  0  0  0  0  0  0  0  0
   -6.4422    0.2869    1.9350 H   0  0  0  0  0  0  0  0  0  0  0  0
   -5.0325   -0.7971    2.1160 H   0  0  0  0  0  0  0  0  0  0  0  0
   -5.7410   -0.4888    0.4868 H   0  0  0  0  0  0  0  0  0  0  0  0
  1  6  2  0  0  0  0
  2  1  1  0  0  0  0
  3  2  2  0  0  0  0
  3  4  1  0  0  0  0
  4  5  2  0  0  0  0
  5  6  1  0  0  0  0
  5 10  1  0  0  0  0
  6 13  1  0  0  0  0
  7  1  1  0  0  0  0
  8  2  1  0  0  0  0
  9  4  1  0  0  0  0
 12 11  3  0  0  0  0
 13 14  1  0  0  0  0
 14 15  1  0  0  0  0
 14 16  1  0  0  0  0
 17 14  1  0  0  0  0
M  RAD  1   3   2
M  END
