Coordinates from ORCA-job 4-CH3O-Ph-N2+-scan-d090-169-n800
 OpenBabel09191814063D

 17 16  0  0  0  0  0  0  0  0999 V2000
   -2.4401   -0.1737    0.1928 C   0  0  0  0  0  0  0  0  0  0  0  0
   -1.0942   -0.1867   -0.2509 C   0  0  0  0  0  0  0  0  0  0  0  0
   -0.6906    1.0896   -0.3057 C   0  0  0  0  0  0  0  0  0  0  0  0
   -0.9386    2.2963    0.2290 C   0  0  0  0  0  0  0  0  0  0  0  0
   -2.2776    2.2380    0.6702 C   0  0  0  0  0  0  0  0  0  0  0  0
   -3.0203    1.0244    0.6740 C   0  0  0  0  0  0  0  0  0  0  0  0
   -2.9908   -1.1066    0.1403 H   0  0  0  0  0  0  0  0  0  0  0  0
   -0.5594   -1.0806   -0.5525 H   0  0  0  0  0  0  0  0  0  0  0  0
   -0.3491    3.2052    0.1927 H   0  0  0  0  0  0  0  0  0  0  0  0
   -2.7679    3.1671    0.9506 H   0  0  0  0  0  0  0  0  0  0  0  0
    5.0600    0.7080   -1.5027 N   0  0  0  0  0  0  0  0  0  0  0  0
    6.1341    0.6700   -1.7611 N   0  0  0  0  0  0  0  0  0  0  0  0
   -4.2583    1.1308    1.1395 O   0  0  0  0  0  0  0  0  0  0  0  0
   -5.0936   -0.0395    1.2568 C   0  0  0  0  0  0  0  0  0  0  0  0
   -6.0382    0.3227    1.6583 H   0  0  0  0  0  0  0  0  0  0  0  0
   -4.6470   -0.7618    1.9465 H   0  0  0  0  0  0  0  0  0  0  0  0
   -5.2579   -0.4897    0.2720 H   0  0  0  0  0  0  0  0  0  0  0  0
  1  6  2  0  0  0  0
  2  1  1  0  0  0  0
  3  2  2  0  0  0  0
  3  4  1  0  0  0  0
  4  5  2  0  0  0  0
  5  6  1  0  0  0  0
  5 10  1  0  0  0  0
  6 13  1  0  0  0  0
  7  1  1  0  0  0  0
  8  2  1  0  0  0  0
  9  4  1  0  0  0  0
 12 11  3  0  0  0  0
 13 14  1  0  0  0  0
 14 15  1  0  0  0  0
 14 16  1  0  0  0  0
 17 14  1  0  0  0  0
M  RAD  1   3   2
M  END
