Coordinates from ORCA-job 4-CH3O-Ph-N2+-scan-d090-169-n800
 OpenBabel09191814063D

 17 16  0  0  0  0  0  0  0  0999 V2000
   -2.1196   -0.2067    0.2144 C   0  0  0  0  0  0  0  0  0  0  0  0
   -0.7586   -0.2891   -0.2074 C   0  0  0  0  0  0  0  0  0  0  0  0
   -0.2912    0.9523   -0.1308 C   0  0  0  0  0  0  0  0  0  0  0  0
   -0.5706    2.2209    0.1784 C   0  0  0  0  0  0  0  0  0  0  0  0
   -1.9276    2.2094    0.5827 C   0  0  0  0  0  0  0  0  0  0  0  0
   -2.6980    1.0207    0.6042 C   0  0  0  0  0  0  0  0  0  0  0  0
   -2.6730   -1.1396    0.2147 H   0  0  0  0  0  0  0  0  0  0  0  0
   -0.2680   -1.2043   -0.5148 H   0  0  0  0  0  0  0  0  0  0  0  0
    0.0545    3.1046    0.1466 H   0  0  0  0  0  0  0  0  0  0  0  0
   -2.3744    3.1541    0.8817 H   0  0  0  0  0  0  0  0  0  0  0  0
    2.6576    0.8704   -1.0258 N   0  0  0  0  0  0  0  0  0  0  0  0
    3.7147    0.8442   -1.3464 N   0  0  0  0  0  0  0  0  0  0  0  0
   -3.9591    1.1707    1.0083 O   0  0  0  0  0  0  0  0  0  0  0  0
   -4.8300    0.0265    1.0689 C   0  0  0  0  0  0  0  0  0  0  0  0
   -5.7855    0.4101    1.4226 H   0  0  0  0  0  0  0  0  0  0  0  0
   -4.4451   -0.7146    1.7776 H   0  0  0  0  0  0  0  0  0  0  0  0
   -4.9556   -0.4161    0.0749 H   0  0  0  0  0  0  0  0  0  0  0  0
  1  7  1  0  0  0  0
  1  6  2  0  0  0  0
  2  3  2  0  0  0  0
  2  1  1  0  0  0  0
  3  4  1  0  0  0  0
  4  5  2  0  0  0  0
  5  6  1  0  0  0  0
  5 10  1  0  0  0  0
  6 13  1  0  0  0  0
  8  2  1  0  0  0  0
  9  4  1  0  0  0  0
 12 11  3  0  0  0  0
 13 14  1  0  0  0  0
 14 15  1  0  0  0  0
 14 16  1  0  0  0  0
 17 14  1  0  0  0  0
M  RAD  1   3   2
M  END
