Coordinates from ORCA-job 4-CH3O-Ph-N2+-scan-d090-169-n800
 OpenBabel09191814063D

 17 16  0  0  0  0  0  0  0  0999 V2000
   -3.5491    0.0027    0.0131 C   0  0  0  0  0  0  0  0  0  0  0  0
   -2.5694    0.2320   -0.9842 C   0  0  0  0  0  0  0  0  0  0  0  0
   -2.3113    1.5473   -0.9846 C   0  0  0  0  0  0  0  0  0  0  0  0
   -2.3431    2.6239   -0.1819 C   0  0  0  0  0  0  0  0  0  0  0  0
   -3.3142    2.3271    0.7976 C   0  0  0  0  0  0  0  0  0  0  0  0
   -3.9008    1.0359    0.9149 C   0  0  0  0  0  0  0  0  0  0  0  0
   -4.0072   -0.9797    0.0466 H   0  0  0  0  0  0  0  0  0  0  0  0
   -2.1878   -0.5327   -1.6520 H   0  0  0  0  0  0  0  0  0  0  0  0
   -1.8920    3.6006   -0.3140 H   0  0  0  0  0  0  0  0  0  0  0  0
   -3.6683    3.1355    1.4327 H   0  0  0  0  0  0  0  0  0  0  0  0
   12.1404    0.2665   -2.3982 N   0  0  0  0  0  0  0  0  0  0  0  0
   13.2323    0.1988   -2.5574 N   0  0  0  0  0  0  0  0  0  0  0  0
   -4.7796    0.9116    1.9008 O   0  0  0  0  0  0  0  0  0  0  0  0
   -5.3974   -0.3646    2.1679 C   0  0  0  0  0  0  0  0  0  0  0  0
   -6.0627   -0.1890    3.0112 H   0  0  0  0  0  0  0  0  0  0  0  0
   -4.6410   -1.1078    2.4369 H   0  0  0  0  0  0  0  0  0  0  0  0
   -5.9783   -0.6947    1.3000 H   0  0  0  0  0  0  0  0  0  0  0  0
  1  7  1  0  0  0  0
  1  6  2  0  0  0  0
  2  1  1  0  0  0  0
  3  2  2  0  0  0  0
  3  4  1  0  0  0  0
  4  5  2  0  0  0  0
  5  6  1  0  0  0  0
  5 10  1  0  0  0  0
  6 13  1  0  0  0  0
  8  2  1  0  0  0  0
  9  4  1  0  0  0  0
 12 11  3  0  0  0  0
 13 14  1  0  0  0  0
 14 16  1  0  0  0  0
 14 15  1  0  0  0  0
 17 14  1  0  0  0  0
M  RAD  1   3   2
M  END
