Coordinates from ORCA-job 4-CH3O-Ph-N2+-scan-d090-169-n800
 OpenBabel09191814063D

 17 16  0  0  0  0  0  0  0  0999 V2000
   -2.4000   -0.1769    0.1869 C   0  0  0  0  0  0  0  0  0  0  0  0
   -1.0524   -0.1945   -0.2521 C   0  0  0  0  0  0  0  0  0  0  0  0
   -0.6453    1.0806   -0.3067 C   0  0  0  0  0  0  0  0  0  0  0  0
   -0.8927    2.2893    0.2235 C   0  0  0  0  0  0  0  0  0  0  0  0
   -2.2335    2.2352    0.6600 C   0  0  0  0  0  0  0  0  0  0  0  0
   -2.9790    1.0235    0.6636 C   0  0  0  0  0  0  0  0  0  0  0  0
   -2.9527   -1.1086    0.1339 H   0  0  0  0  0  0  0  0  0  0  0  0
   -0.5191   -1.0903   -0.5507 H   0  0  0  0  0  0  0  0  0  0  0  0
   -0.3006    3.1966    0.1877 H   0  0  0  0  0  0  0  0  0  0  0  0
   -2.7222    3.1660    0.9373 H   0  0  0  0  0  0  0  0  0  0  0  0
    4.7526    0.7221   -1.4330 N   0  0  0  0  0  0  0  0  0  0  0  0
    5.8263    0.6836   -1.6930 N   0  0  0  0  0  0  0  0  0  0  0  0
   -4.2186    1.1337    1.1242 O   0  0  0  0  0  0  0  0  0  0  0  0
   -5.0569   -0.0345    1.2407 C   0  0  0  0  0  0  0  0  0  0  0  0
   -6.0021    0.3305    1.6381 H   0  0  0  0  0  0  0  0  0  0  0  0
   -4.6144   -0.7567    1.9331 H   0  0  0  0  0  0  0  0  0  0  0  0
   -5.2188   -0.4861    0.2560 H   0  0  0  0  0  0  0  0  0  0  0  0
  1  6  2  0  0  0  0
  2  1  1  0  0  0  0
  3  2  2  0  0  0  0
  3  4  1  0  0  0  0
  4  5  2  0  0  0  0
  5  6  1  0  0  0  0
  5 10  1  0  0  0  0
  6 13  1  0  0  0  0
  7  1  1  0  0  0  0
  8  2  1  0  0  0  0
  9  4  1  0  0  0  0
 12 11  3  0  0  0  0
 13 14  1  0  0  0  0
 14 15  1  0  0  0  0
 14 16  1  0  0  0  0
 17 14  1  0  0  0  0
M  RAD  1   3   2
M  END
