Coordinates from ORCA-job 4-CH3O-Ph-N2+-scan-d090-169-n800
 OpenBabel09191814063D

 17 16  0  0  0  0  0  0  0  0999 V2000
   -3.5995    0.0268   -0.0237 C   0  0  0  0  0  0  0  0  0  0  0  0
   -2.6915    0.2924   -1.0780 C   0  0  0  0  0  0  0  0  0  0  0  0
   -2.4583    1.6125   -1.0716 C   0  0  0  0  0  0  0  0  0  0  0  0
   -2.4559    2.6738   -0.2480 C   0  0  0  0  0  0  0  0  0  0  0  0
   -3.3554    2.3415    0.7869 C   0  0  0  0  0  0  0  0  0  0  0  0
   -3.9098    1.0373    0.9181 C   0  0  0  0  0  0  0  0  0  0  0  0
   -4.0364   -0.9648    0.0217 H   0  0  0  0  0  0  0  0  0  0  0  0
   -2.3399   -0.4529   -1.7831 H   0  0  0  0  0  0  0  0  0  0  0  0
   -2.0321    3.6612   -0.3909 H   0  0  0  0  0  0  0  0  0  0  0  0
   -3.6819    3.1317    1.4585 H   0  0  0  0  0  0  0  0  0  0  0  0
   12.2985    0.2047   -2.3348 N   0  0  0  0  0  0  0  0  0  0  0  0
   13.3917    0.1321   -2.4817 N   0  0  0  0  0  0  0  0  0  0  0  0
   -4.7196    0.8793    1.9568 O   0  0  0  0  0  0  0  0  0  0  0  0
   -5.2957   -0.4129    2.2400 C   0  0  0  0  0  0  0  0  0  0  0  0
   -5.9074   -0.2645    3.1279 H   0  0  0  0  0  0  0  0  0  0  0  0
   -4.5102   -1.1460    2.4456 H   0  0  0  0  0  0  0  0  0  0  0  0
   -5.9261   -0.7390    1.4058 H   0  0  0  0  0  0  0  0  0  0  0  0
  1  7  1  0  0  0  0
  1  6  2  0  0  0  0
  2  3  2  0  0  0  0
  2  1  1  0  0  0  0
  3  4  1  0  0  0  0
  4  5  2  0  0  0  0
  5  6  1  0  0  0  0
  5 10  1  0  0  0  0
  6 13  1  0  0  0  0
  8  2  1  0  0  0  0
  9  4  1  0  0  0  0
 12 11  3  0  0  0  0
 13 14  1  0  0  0  0
 14 16  1  0  0  0  0
 14 15  1  0  0  0  0
 17 14  1  0  0  0  0
M  RAD  1   3   2
M  END
