Coordinates from ORCA-job 4-CH3O-Ph-N2+-scan-d090-169-n800
 OpenBabel09191814063D

 17 16  0  0  0  0  0  0  0  0999 V2000
   -2.4066   -0.1763    0.1879 C   0  0  0  0  0  0  0  0  0  0  0  0
   -1.0594   -0.1931   -0.2519 C   0  0  0  0  0  0  0  0  0  0  0  0
   -0.6528    1.0822   -0.3065 C   0  0  0  0  0  0  0  0  0  0  0  0
   -0.9005    2.2906    0.2244 C   0  0  0  0  0  0  0  0  0  0  0  0
   -2.2409    2.2357    0.6617 C   0  0  0  0  0  0  0  0  0  0  0  0
   -2.9859    1.0237    0.6653 C   0  0  0  0  0  0  0  0  0  0  0  0
   -2.9590   -1.1082    0.1349 H   0  0  0  0  0  0  0  0  0  0  0  0
   -0.5258   -1.0886   -0.5511 H   0  0  0  0  0  0  0  0  0  0  0  0
   -0.3089    3.1982    0.1885 H   0  0  0  0  0  0  0  0  0  0  0  0
   -2.7299    3.1662    0.9396 H   0  0  0  0  0  0  0  0  0  0  0  0
    4.8038    0.7196   -1.4446 N   0  0  0  0  0  0  0  0  0  0  0  0
    5.8776    0.6811   -1.7042 N   0  0  0  0  0  0  0  0  0  0  0  0
   -4.2252    1.1332    1.1268 O   0  0  0  0  0  0  0  0  0  0  0  0
   -5.0629   -0.0354    1.2434 C   0  0  0  0  0  0  0  0  0  0  0  0
   -6.0081    0.3290    1.6416 H   0  0  0  0  0  0  0  0  0  0  0  0
   -4.6197   -0.7576    1.9354 H   0  0  0  0  0  0  0  0  0  0  0  0
   -5.2253   -0.4868    0.2587 H   0  0  0  0  0  0  0  0  0  0  0  0
  1  6  2  0  0  0  0
  2  1  1  0  0  0  0
  3  2  2  0  0  0  0
  3  4  1  0  0  0  0
  4  5  2  0  0  0  0
  5  6  1  0  0  0  0
  5 10  1  0  0  0  0
  6 13  1  0  0  0  0
  7  1  1  0  0  0  0
  8  2  1  0  0  0  0
  9  4  1  0  0  0  0
 12 11  3  0  0  0  0
 13 14  1  0  0  0  0
 14 15  1  0  0  0  0
 14 16  1  0  0  0  0
 17 14  1  0  0  0  0
M  RAD  1   3   2
M  END
