Coordinates from ORCA-job 4-CH3O-Ph-N2+-scan-d090-169-n800
 OpenBabel09191814063D

 17 16  0  0  0  0  0  0  0  0999 V2000
   -2.8467   -0.1604    0.2451 C   0  0  0  0  0  0  0  0  0  0  0  0
   -1.5213   -0.1590   -0.2555 C   0  0  0  0  0  0  0  0  0  0  0  0
   -1.1243    1.1198   -0.3070 C   0  0  0  0  0  0  0  0  0  0  0  0
   -1.3529    2.3148    0.2619 C   0  0  0  0  0  0  0  0  0  0  0  0
   -2.6713    2.2435    0.7588 C   0  0  0  0  0  0  0  0  0  0  0  0
   -3.4093    1.0268    0.7728 C   0  0  0  0  0  0  0  0  0  0  0  0
   -3.3960   -1.0944    0.1994 H   0  0  0  0  0  0  0  0  0  0  0  0
   -0.9969   -1.0454   -0.5954 H   0  0  0  0  0  0  0  0  0  0  0  0
   -0.7695    3.2273    0.2158 H   0  0  0  0  0  0  0  0  0  0  0  0
   -3.1526    3.1656    1.0753 H   0  0  0  0  0  0  0  0  0  0  0  0
    8.0122    0.6616   -2.1435 N   0  0  0  0  0  0  0  0  0  0  0  0
    9.0883    0.6292   -2.3945 N   0  0  0  0  0  0  0  0  0  0  0  0
   -4.6260    1.1200    1.2932 O   0  0  0  0  0  0  0  0  0  0  0  0
   -5.4521   -0.0554    1.4258 C   0  0  0  0  0  0  0  0  0  0  0  0
   -6.3797    0.2963    1.8737 H   0  0  0  0  0  0  0  0  0  0  0  0
   -4.9740   -0.7879    2.0828 H   0  0  0  0  0  0  0  0  0  0  0  0
   -5.6573   -0.4889    0.4411 H   0  0  0  0  0  0  0  0  0  0  0  0
  1  6  2  0  0  0  0
  2  1  1  0  0  0  0
  3  2  2  0  0  0  0
  3  4  1  0  0  0  0
  4  5  2  0  0  0  0
  5  6  1  0  0  0  0
  5 10  1  0  0  0  0
  6 13  1  0  0  0  0
  7  1  1  0  0  0  0
  8  2  1  0  0  0  0
  9  4  1  0  0  0  0
 12 11  3  0  0  0  0
 13 14  1  0  0  0  0
 14 15  1  0  0  0  0
 14 16  1  0  0  0  0
 17 14  1  0  0  0  0
M  RAD  1   3   2
M  END
