Coordinates from ORCA-job 4-CH3O-Ph-N2+-scan-d090-169-n800
 OpenBabel09191814063D

 17 16  0  0  0  0  0  0  0  0999 V2000
   -3.1605   -0.1303    0.2275 C   0  0  0  0  0  0  0  0  0  0  0  0
   -1.8858   -0.0916   -0.3900 C   0  0  0  0  0  0  0  0  0  0  0  0
   -1.5103    1.1943   -0.4307 C   0  0  0  0  0  0  0  0  0  0  0  0
   -1.7003    2.3652    0.1993 C   0  0  0  0  0  0  0  0  0  0  0  0
   -2.9676    2.2565    0.8099 C   0  0  0  0  0  0  0  0  0  0  0  0
   -3.6870    1.0292    0.8460 C   0  0  0  0  0  0  0  0  0  0  0  0
   -3.7005   -1.0703    0.1982 H   0  0  0  0  0  0  0  0  0  0  0  0
   -1.3832   -0.9575   -0.8067 H   0  0  0  0  0  0  0  0  0  0  0  0
   -1.1342    3.2874    0.1343 H   0  0  0  0  0  0  0  0  0  0  0  0
   -3.4294    3.1596    1.2014 H   0  0  0  0  0  0  0  0  0  0  0  0
   10.1666    0.5855   -2.4960 N   0  0  0  0  0  0  0  0  0  0  0  0
   11.2465    0.5488   -2.7293 N   0  0  0  0  0  0  0  0  0  0  0  0
   -4.8528    1.0860    1.4766 O   0  0  0  0  0  0  0  0  0  0  0  0
   -5.6498   -0.1054    1.6401 C   0  0  0  0  0  0  0  0  0  0  0  0
   -6.5373    0.2166    2.1818 H   0  0  0  0  0  0  0  0  0  0  0  0
   -5.1060   -0.8532    2.2248 H   0  0  0  0  0  0  0  0  0  0  0  0
   -5.9377   -0.5073    0.6627 H   0  0  0  0  0  0  0  0  0  0  0  0
  1  6  2  0  0  0  0
  2  1  1  0  0  0  0
  3  2  2  0  0  0  0
  3  4  1  0  0  0  0
  4  5  2  0  0  0  0
  5  6  1  0  0  0  0
  5 10  1  0  0  0  0
  6 13  1  0  0  0  0
  7  1  1  0  0  0  0
  8  2  1  0  0  0  0
  9  4  1  0  0  0  0
 12 11  3  0  0  0  0
 13 14  1  0  0  0  0
 14 15  1  0  0  0  0
 14 16  1  0  0  0  0
 17 14  1  0  0  0  0
M  RAD  1   3   2
M  END
