Coordinates from ORCA-job 4-CH3O-Ph-N2+-scan-d090-169-n800
 OpenBabel09191814063D

 17 16  0  0  0  0  0  0  0  0999 V2000
   -2.6095   -0.1667    0.2180 C   0  0  0  0  0  0  0  0  0  0  0  0
   -1.2704   -0.1713   -0.2452 C   0  0  0  0  0  0  0  0  0  0  0  0
   -0.8717    1.1067   -0.2991 C   0  0  0  0  0  0  0  0  0  0  0  0
   -1.1161    2.3083    0.2488 C   0  0  0  0  0  0  0  0  0  0  0  0
   -2.4481    2.2426    0.7093 C   0  0  0  0  0  0  0  0  0  0  0  0
   -3.1865    1.0262    0.7161 C   0  0  0  0  0  0  0  0  0  0  0  0
   -3.1576   -1.1012    0.1671 H   0  0  0  0  0  0  0  0  0  0  0  0
   -0.7372   -1.0615   -0.5607 H   0  0  0  0  0  0  0  0  0  0  0  0
   -0.5311    3.2200    0.2091 H   0  0  0  0  0  0  0  0  0  0  0  0
   -2.9375    3.1682    1.0021 H   0  0  0  0  0  0  0  0  0  0  0  0
    6.3122    0.6796   -1.7832 N   0  0  0  0  0  0  0  0  0  0  0  0
    7.3874    0.6458   -2.0380 N   0  0  0  0  0  0  0  0  0  0  0  0
   -4.4174    1.1251    1.2009 O   0  0  0  0  0  0  0  0  0  0  0  0
   -5.2470   -0.0488    1.3234 C   0  0  0  0  0  0  0  0  0  0  0  0
   -6.1867    0.3076    1.7412 H   0  0  0  0  0  0  0  0  0  0  0  0
   -4.7877   -0.7739    2.0016 H   0  0  0  0  0  0  0  0  0  0  0  0
   -5.4246   -0.4934    0.3382 H   0  0  0  0  0  0  0  0  0  0  0  0
  1  6  2  0  0  0  0
  2  1  1  0  0  0  0
  3  2  2  0  0  0  0
  3  4  1  0  0  0  0
  4  5  2  0  0  0  0
  5  6  1  0  0  0  0
  5 10  1  0  0  0  0
  6 13  1  0  0  0  0
  7  1  1  0  0  0  0
  8  2  1  0  0  0  0
  9  4  1  0  0  0  0
 12 11  3  0  0  0  0
 13 14  1  0  0  0  0
 14 15  1  0  0  0  0
 14 16  1  0  0  0  0
 17 14  1  0  0  0  0
M  RAD  1   3   2
M  END
