Coordinates from ORCA-job 4-CH3O-Ph-N2+-scan-d090-169-n800
 OpenBabel09191814063D

 17 16  0  0  0  0  0  0  0  0999 V2000
   -2.9390   -0.1559    0.2500 C   0  0  0  0  0  0  0  0  0  0  0  0
   -1.6219   -0.1497   -0.2720 C   0  0  0  0  0  0  0  0  0  0  0  0
   -1.2271    1.1300   -0.3218 C   0  0  0  0  0  0  0  0  0  0  0  0
   -1.4476    2.3209    0.2587 C   0  0  0  0  0  0  0  0  0  0  0  0
   -2.7577    2.2448    0.7765 C   0  0  0  0  0  0  0  0  0  0  0  0
   -3.4941    1.0272    0.7945 C   0  0  0  0  0  0  0  0  0  0  0  0
   -3.4879   -1.0902    0.2072 H   0  0  0  0  0  0  0  0  0  0  0  0
   -1.1021   -1.0332   -0.6261 H   0  0  0  0  0  0  0  0  0  0  0  0
   -0.8661    3.2344    0.2090 H   0  0  0  0  0  0  0  0  0  0  0  0
   -3.2348    3.1643    1.1066 H   0  0  0  0  0  0  0  0  0  0  0  0
    8.6629    0.6500   -2.2699 N   0  0  0  0  0  0  0  0  0  0  0  0
    9.7396    0.6173   -2.5184 N   0  0  0  0  0  0  0  0  0  0  0  0
   -4.7023    1.1156    1.3353 O   0  0  0  0  0  0  0  0  0  0  0  0
   -5.5250   -0.0616    1.4736 C   0  0  0  0  0  0  0  0  0  0  0  0
   -6.4454    0.2862    1.9388 H   0  0  0  0  0  0  0  0  0  0  0  0
   -5.0355   -0.7977    2.1180 H   0  0  0  0  0  0  0  0  0  0  0  0
   -5.7456   -0.4889    0.4895 H   0  0  0  0  0  0  0  0  0  0  0  0
  1  6  2  0  0  0  0
  2  1  1  0  0  0  0
  3  2  2  0  0  0  0
  3  4  1  0  0  0  0
  4  5  2  0  0  0  0
  5  6  1  0  0  0  0
  5 10  1  0  0  0  0
  6 13  1  0  0  0  0
  7  1  1  0  0  0  0
  8  2  1  0  0  0  0
  9  4  1  0  0  0  0
 12 11  3  0  0  0  0
 13 14  1  0  0  0  0
 14 15  1  0  0  0  0
 14 16  1  0  0  0  0
 17 14  1  0  0  0  0
M  RAD  1   3   2
M  END
