Coordinates from ORCA-job 4-CH3O-Ph-N2+-scan-d090-169-n800
 OpenBabel09191814063D

 17 16  0  0  0  0  0  0  0  0999 V2000
   -2.9097   -0.1575    0.2490 C   0  0  0  0  0  0  0  0  0  0  0  0
   -1.5897   -0.1532   -0.2655 C   0  0  0  0  0  0  0  0  0  0  0  0
   -1.1940    1.1262   -0.3159 C   0  0  0  0  0  0  0  0  0  0  0  0
   -1.4172    2.3185    0.2605 C   0  0  0  0  0  0  0  0  0  0  0  0
   -2.7303    2.2442    0.7711 C   0  0  0  0  0  0  0  0  0  0  0  0
   -3.4674    1.0271    0.7876 C   0  0  0  0  0  0  0  0  0  0  0  0
   -3.4589   -1.0917    0.2052 H   0  0  0  0  0  0  0  0  0  0  0  0
   -1.0683   -1.0378   -0.6147 H   0  0  0  0  0  0  0  0  0  0  0  0
   -0.8350    3.2316    0.2121 H   0  0  0  0  0  0  0  0  0  0  0  0
   -3.2088    3.1647    1.0964 H   0  0  0  0  0  0  0  0  0  0  0  0
    8.4577    0.6542   -2.2311 N   0  0  0  0  0  0  0  0  0  0  0  0
    9.5341    0.6217   -2.4805 N   0  0  0  0  0  0  0  0  0  0  0  0
   -4.6786    1.1173    1.3213 O   0  0  0  0  0  0  0  0  0  0  0  0
   -5.5026   -0.0592    1.4576 C   0  0  0  0  0  0  0  0  0  0  0  0
   -6.4255    0.2901    1.9168 H   0  0  0  0  0  0  0  0  0  0  0  0
   -5.0172   -0.7941    2.1065 H   0  0  0  0  0  0  0  0  0  0  0  0
   -5.7179   -0.4887    0.4733 H   0  0  0  0  0  0  0  0  0  0  0  0
  1  6  2  0  0  0  0
  2  1  1  0  0  0  0
  3  2  2  0  0  0  0
  3  4  1  0  0  0  0
  4  5  2  0  0  0  0
  5  6  1  0  0  0  0
  5 10  1  0  0  0  0
  6 13  1  0  0  0  0
  7  1  1  0  0  0  0
  8  2  1  0  0  0  0
  9  4  1  0  0  0  0
 12 11  3  0  0  0  0
 13 14  1  0  0  0  0
 14 15  1  0  0  0  0
 14 16  1  0  0  0  0
 17 14  1  0  0  0  0
M  RAD  1   3   2
M  END
