Coordinates from ORCA-job 4-CH3O-Ph-N2+-scan-d090-169-n800
 OpenBabel09191814063D

 17 17  0  0  0  0  0  0  0  0999 V2000
   -1.9897   -0.2138    0.1750 C   0  0  0  0  0  0  0  0  0  0  0  0
   -0.6546   -0.2794   -0.2365 C   0  0  0  0  0  0  0  0  0  0  0  0
   -0.0270    0.9378   -0.2105 C   0  0  0  0  0  0  0  0  0  0  0  0
   -0.4587    2.1963    0.1402 C   0  0  0  0  0  0  0  0  0  0  0  0
   -1.7898    2.2083    0.5411 C   0  0  0  0  0  0  0  0  0  0  0  0
   -2.5619    1.0193    0.5633 C   0  0  0  0  0  0  0  0  0  0  0  0
   -2.5666   -1.1302    0.1867 H   0  0  0  0  0  0  0  0  0  0  0  0
   -0.1856   -1.2069   -0.5401 H   0  0  0  0  0  0  0  0  0  0  0  0
    0.1532    3.0891    0.1139 H   0  0  0  0  0  0  0  0  0  0  0  0
   -2.2566    3.1394    0.8447 H   0  0  0  0  0  0  0  0  0  0  0  0
    1.6945    0.8774   -0.7368 N   0  0  0  0  0  0  0  0  0  0  0  0
    2.7518    0.8449   -1.0592 N   0  0  0  0  0  0  0  0  0  0  0  0
   -3.8208    1.1726    0.9674 O   0  0  0  0  0  0  0  0  0  0  0  0
   -4.7034    0.0379    1.0323 C   0  0  0  0  0  0  0  0  0  0  0  0
   -5.6538    0.4335    1.3865 H   0  0  0  0  0  0  0  0  0  0  0  0
   -4.3256   -0.7060    1.7413 H   0  0  0  0  0  0  0  0  0  0  0  0
   -4.8350   -0.4070    0.0406 H   0  0  0  0  0  0  0  0  0  0  0  0
  1  7  1  0  0  0  0
  1  6  2  0  0  0  0
  2  3  2  0  0  0  0
  2  1  1  0  0  0  0
  3  4  1  0  0  0  0
  4  5  2  0  0  0  0
  5  6  1  0  0  0  0
  5 10  1  0  0  0  0
  6 13  1  0  0  0  0
  8  2  1  0  0  0  0
  9  4  1  0  0  0  0
 11  3  1  0  0  0  0
 12 11  1  0  0  0  0
 13 14  1  0  0  0  0
 14 15  1  0  0  0  0
 14 16  1  0  0  0  0
 17 14  1  0  0  0  0
M  RAD  2  11   2  12   3
M  END
