Coordinates from ORCA-job 4-CH3O-Ph-N2+-scan-d090-169-n800
 OpenBabel09191814063D

 17 16  0  0  0  0  0  0  0  0999 V2000
   -3.0970   -0.1408    0.2411 C   0  0  0  0  0  0  0  0  0  0  0  0
   -1.8050   -0.1160   -0.3396 C   0  0  0  0  0  0  0  0  0  0  0  0
   -1.4209    1.1671   -0.3842 C   0  0  0  0  0  0  0  0  0  0  0  0
   -1.6221    2.3458    0.2275 C   0  0  0  0  0  0  0  0  0  0  0  0
   -2.9070    2.2513    0.8023 C   0  0  0  0  0  0  0  0  0  0  0  0
   -3.6343    1.0284    0.8314 C   0  0  0  0  0  0  0  0  0  0  0  0
   -3.6416   -1.0781    0.2062 H   0  0  0  0  0  0  0  0  0  0  0  0
   -1.2961   -0.9894   -0.7327 H   0  0  0  0  0  0  0  0  0  0  0  0
   -1.0493    3.2642    0.1680 H   0  0  0  0  0  0  0  0  0  0  0  0
   -3.3745    3.1614    1.1701 H   0  0  0  0  0  0  0  0  0  0  0  0
    9.7497    0.6116   -2.4475 N   0  0  0  0  0  0  0  0  0  0  0  0
   10.8283    0.5770   -2.6871 N   0  0  0  0  0  0  0  0  0  0  0  0
   -4.8172    1.0987    1.4277 O   0  0  0  0  0  0  0  0  0  0  0  0
   -5.6256   -0.0864    1.5816 C   0  0  0  0  0  0  0  0  0  0  0  0
   -6.5262    0.2466    2.0940 H   0  0  0  0  0  0  0  0  0  0  0  0
   -5.1030   -0.8305    2.1898 H   0  0  0  0  0  0  0  0  0  0  0  0
   -5.8878   -0.4976    0.6009 H   0  0  0  0  0  0  0  0  0  0  0  0
  1  6  2  0  0  0  0
  2  1  1  0  0  0  0
  3  2  2  0  0  0  0
  3  4  1  0  0  0  0
  4  5  2  0  0  0  0
  5  6  1  0  0  0  0
  5 10  1  0  0  0  0
  6 13  1  0  0  0  0
  7  1  1  0  0  0  0
  8  2  1  0  0  0  0
  9  4  1  0  0  0  0
 12 11  3  0  0  0  0
 13 14  1  0  0  0  0
 14 15  1  0  0  0  0
 14 16  1  0  0  0  0
 17 14  1  0  0  0  0
M  RAD  1   3   2
M  END
