Coordinates from ORCA-job 4-CH3O-Ph-N2+-scan-d090-169-n800
 OpenBabel09191814063D

 17 16  0  0  0  0  0  0  0  0999 V2000
   -3.0645   -0.1449    0.2454 C   0  0  0  0  0  0  0  0  0  0  0  0
   -1.7657   -0.1257   -0.3205 C   0  0  0  0  0  0  0  0  0  0  0  0
   -1.3784    1.1565   -0.3659 C   0  0  0  0  0  0  0  0  0  0  0  0
   -1.5843    2.3388    0.2372 C   0  0  0  0  0  0  0  0  0  0  0  0
   -2.8762    2.2493    0.7976 C   0  0  0  0  0  0  0  0  0  0  0  0
   -3.6063    1.0282    0.8238 C   0  0  0  0  0  0  0  0  0  0  0  0
   -3.6106   -1.0813    0.2089 H   0  0  0  0  0  0  0  0  0  0  0  0
   -1.2538   -1.0020   -0.7031 H   0  0  0  0  0  0  0  0  0  0  0  0
   -1.0086    3.2555    0.1807 H   0  0  0  0  0  0  0  0  0  0  0  0
   -3.3460    3.1619    1.1560 H   0  0  0  0  0  0  0  0  0  0  0  0
    9.5304    0.6221   -2.4164 N   0  0  0  0  0  0  0  0  0  0  0  0
   10.6085    0.5882   -2.6585 N   0  0  0  0  0  0  0  0  0  0  0  0
   -4.7961    1.1037    1.4058 O   0  0  0  0  0  0  0  0  0  0  0  0
   -5.6086   -0.0791    1.5556 C   0  0  0  0  0  0  0  0  0  0  0  0
   -6.5145    0.2580    2.0559 H   0  0  0  0  0  0  0  0  0  0  0  0
   -5.0947   -0.8215    2.1733 H   0  0  0  0  0  0  0  0  0  0  0  0
   -5.8602   -0.4943    0.5738 H   0  0  0  0  0  0  0  0  0  0  0  0
  1  6  2  0  0  0  0
  2  1  1  0  0  0  0
  3  2  2  0  0  0  0
  3  4  1  0  0  0  0
  4  5  2  0  0  0  0
  5  6  1  0  0  0  0
  5 10  1  0  0  0  0
  6 13  1  0  0  0  0
  7  1  1  0  0  0  0
  8  2  1  0  0  0  0
  9  4  1  0  0  0  0
 12 11  3  0  0  0  0
 13 14  1  0  0  0  0
 14 15  1  0  0  0  0
 14 16  1  0  0  0  0
 17 14  1  0  0  0  0
M  RAD  1   3   2
M  END
