Coordinates from ORCA-job 4-CH3O-Ph-N2+-scan-d090-169-n800
 OpenBabel09191814063D

 17 16  0  0  0  0  0  0  0  0999 V2000
   -2.3107   -0.1884    0.1763 C   0  0  0  0  0  0  0  0  0  0  0  0
   -0.9589   -0.2206   -0.2491 C   0  0  0  0  0  0  0  0  0  0  0  0
   -0.5402    1.0504   -0.3048 C   0  0  0  0  0  0  0  0  0  0  0  0
   -0.7829    2.2648    0.2138 C   0  0  0  0  0  0  0  0  0  0  0  0
   -2.1285    2.2248    0.6370 C   0  0  0  0  0  0  0  0  0  0  0  0
   -2.8844    1.0197    0.6399 C   0  0  0  0  0  0  0  0  0  0  0  0
   -2.8709   -1.1156    0.1231 H   0  0  0  0  0  0  0  0  0  0  0  0
   -0.4305   -1.1225   -0.5378 H   0  0  0  0  0  0  0  0  0  0  0  0
   -0.1820    3.1662    0.1792 H   0  0  0  0  0  0  0  0  0  0  0  0
   -2.6115    3.1613    0.9050 H   0  0  0  0  0  0  0  0  0  0  0  0
    4.0540    0.7694   -1.2793 N   0  0  0  0  0  0  0  0  0  0  0  0
    5.1260    0.7326   -1.5464 N   0  0  0  0  0  0  0  0  0  0  0  0
   -4.1279    1.1432    1.0868 O   0  0  0  0  0  0  0  0  0  0  0  0
   -4.9771   -0.0173    1.2008 C   0  0  0  0  0  0  0  0  0  0  0  0
   -5.9233    0.3576    1.5865 H   0  0  0  0  0  0  0  0  0  0  0  0
   -4.5479   -0.7394    1.9016 H   0  0  0  0  0  0  0  0  0  0  0  0
   -5.1327   -0.4729    0.2170 H   0  0  0  0  0  0  0  0  0  0  0  0
  1  6  2  0  0  0  0
  2  1  1  0  0  0  0
  3  2  2  0  0  0  0
  3  4  1  0  0  0  0
  4  5  2  0  0  0  0
  5  6  1  0  0  0  0
  5 10  1  0  0  0  0
  6 13  1  0  0  0  0
  7  1  1  0  0  0  0
  8  2  1  0  0  0  0
  9  4  1  0  0  0  0
 12 11  3  0  0  0  0
 13 14  1  0  0  0  0
 14 15  1  0  0  0  0
 14 16  1  0  0  0  0
 17 14  1  0  0  0  0
M  RAD  1   3   2
M  END
