Coordinates from ORCA-job 4-CH3O-Ph-N2+-scan-d090-169-n800
 OpenBabel09191814063D

 17 16  0  0  0  0  0  0  0  0999 V2000
   -2.6260   -0.1663    0.2204 C   0  0  0  0  0  0  0  0  0  0  0  0
   -1.2877   -0.1708   -0.2453 C   0  0  0  0  0  0  0  0  0  0  0  0
   -0.8894    1.1075   -0.2986 C   0  0  0  0  0  0  0  0  0  0  0  0
   -1.1327    2.3090    0.2501 C   0  0  0  0  0  0  0  0  0  0  0  0
   -2.4639    2.2426    0.7128 C   0  0  0  0  0  0  0  0  0  0  0  0
   -3.2022    1.0263    0.7201 C   0  0  0  0  0  0  0  0  0  0  0  0
   -3.1742   -1.1008    0.1703 H   0  0  0  0  0  0  0  0  0  0  0  0
   -0.7547   -1.0607   -0.5618 H   0  0  0  0  0  0  0  0  0  0  0  0
   -0.5475    3.2206    0.2104 H   0  0  0  0  0  0  0  0  0  0  0  0
   -2.9530    3.1679    1.0074 H   0  0  0  0  0  0  0  0  0  0  0  0
    6.4322    0.6783   -1.8097 N   0  0  0  0  0  0  0  0  0  0  0  0
    7.5074    0.6448   -2.0642 N   0  0  0  0  0  0  0  0  0  0  0  0
   -4.4325    1.1249    1.2069 O   0  0  0  0  0  0  0  0  0  0  0  0
   -5.2619   -0.0492    1.3299 C   0  0  0  0  0  0  0  0  0  0  0  0
   -6.2009    0.3070    1.7494 H   0  0  0  0  0  0  0  0  0  0  0  0
   -4.8014   -0.7747    2.0069 H   0  0  0  0  0  0  0  0  0  0  0  0
   -5.4410   -0.4930    0.3447 H   0  0  0  0  0  0  0  0  0  0  0  0
  1  6  2  0  0  0  0
  2  1  1  0  0  0  0
  3  2  2  0  0  0  0
  3  4  1  0  0  0  0
  4  5  2  0  0  0  0
  5  6  1  0  0  0  0
  5 10  1  0  0  0  0
  6 13  1  0  0  0  0
  7  1  1  0  0  0  0
  8  2  1  0  0  0  0
  9  4  1  0  0  0  0
 12 11  3  0  0  0  0
 13 14  1  0  0  0  0
 14 15  1  0  0  0  0
 14 16  1  0  0  0  0
 17 14  1  0  0  0  0
M  RAD  1   3   2
M  END
