Coordinates from ORCA-job 4-CH3O-Ph-N2+-scan-d090-169-n800
 OpenBabel09191814063D

 17 16  0  0  0  0  0  0  0  0999 V2000
   -2.2001   -0.2062    0.1738 C   0  0  0  0  0  0  0  0  0  0  0  0
   -0.8406   -0.2651   -0.2264 C   0  0  0  0  0  0  0  0  0  0  0  0
   -0.4015    0.9976   -0.2792 C   0  0  0  0  0  0  0  0  0  0  0  0
   -0.6406    2.2237    0.2109 C   0  0  0  0  0  0  0  0  0  0  0  0
   -1.9944    2.2085    0.6091 C   0  0  0  0  0  0  0  0  0  0  0  0
   -2.7665    1.0147    0.6111 C   0  0  0  0  0  0  0  0  0  0  0  0
   -2.7721   -1.1260    0.1189 H   0  0  0  0  0  0  0  0  0  0  0  0
   -0.3229   -1.1774   -0.5004 H   0  0  0  0  0  0  0  0  0  0  0  0
   -0.0236    3.1141    0.1799 H   0  0  0  0  0  0  0  0  0  0  0  0
   -2.4666    3.1543    0.8628 H   0  0  0  0  0  0  0  0  0  0  0  0
    3.1854    0.8455   -1.1032 N   0  0  0  0  0  0  0  0  0  0  0  0
    4.2507    0.8182   -1.3962 N   0  0  0  0  0  0  0  0  0  0  0  0
   -4.0179    1.1597    1.0312 O   0  0  0  0  0  0  0  0  0  0  0  0
   -4.8833    0.0115    1.1399 C   0  0  0  0  0  0  0  0  0  0  0  0
   -5.8320    0.4016    1.5039 H   0  0  0  0  0  0  0  0  0  0  0  0
   -4.4771   -0.7094    1.8557 H   0  0  0  0  0  0  0  0  0  0  0  0
   -5.0264   -0.4522    0.1579 H   0  0  0  0  0  0  0  0  0  0  0  0
  1  6  2  0  0  0  0
  2  1  1  0  0  0  0
  3  2  2  0  0  0  0
  3  4  1  0  0  0  0
  4  5  2  0  0  0  0
  5  6  1  0  0  0  0
  5 10  1  0  0  0  0
  6 13  1  0  0  0  0
  7  1  1  0  0  0  0
  8  2  1  0  0  0  0
  9  4  1  0  0  0  0
 12 11  3  0  0  0  0
 13 14  1  0  0  0  0
 14 15  1  0  0  0  0
 14 16  1  0  0  0  0
 17 14  1  0  0  0  0
M  RAD  1   3   2
M  END
