Coordinates from ORCA-job 4-CH3O-Ph-N2+-scan-d090-169-n800
 OpenBabel09191814063D

 17 16  0  0  0  0  0  0  0  0999 V2000
   -2.8395   -0.1605    0.2446 C   0  0  0  0  0  0  0  0  0  0  0  0
   -1.5135   -0.1597   -0.2550 C   0  0  0  0  0  0  0  0  0  0  0  0
   -1.1166    1.1192   -0.3061 C   0  0  0  0  0  0  0  0  0  0  0  0
   -1.3455    2.3148    0.2615 C   0  0  0  0  0  0  0  0  0  0  0  0
   -2.6646    2.2434    0.7573 C   0  0  0  0  0  0  0  0  0  0  0  0
   -3.4026    1.0268    0.7710 C   0  0  0  0  0  0  0  0  0  0  0  0
   -3.3887   -1.0946    0.1991 H   0  0  0  0  0  0  0  0  0  0  0  0
   -0.9885   -1.0462   -0.5936 H   0  0  0  0  0  0  0  0  0  0  0  0
   -0.7619    3.2271    0.2160 H   0  0  0  0  0  0  0  0  0  0  0  0
   -3.1462    3.1655    1.0732 H   0  0  0  0  0  0  0  0  0  0  0  0
    7.9606    0.6622   -2.1331 N   0  0  0  0  0  0  0  0  0  0  0  0
    9.0367    0.6299   -2.3842 N   0  0  0  0  0  0  0  0  0  0  0  0
   -4.6199    1.1203    1.2901 O   0  0  0  0  0  0  0  0  0  0  0  0
   -5.4461   -0.0551    1.4223 C   0  0  0  0  0  0  0  0  0  0  0  0
   -6.3741    0.2967    1.8691 H   0  0  0  0  0  0  0  0  0  0  0  0
   -4.9687   -0.7874    2.0800 H   0  0  0  0  0  0  0  0  0  0  0  0
   -5.6502   -0.4890    0.4375 H   0  0  0  0  0  0  0  0  0  0  0  0
  1  6  2  0  0  0  0
  2  1  1  0  0  0  0
  3  2  2  0  0  0  0
  3  4  1  0  0  0  0
  4  5  2  0  0  0  0
  5  6  1  0  0  0  0
  5 10  1  0  0  0  0
  6 13  1  0  0  0  0
  7  1  1  0  0  0  0
  8  2  1  0  0  0  0
  9  4  1  0  0  0  0
 12 11  3  0  0  0  0
 13 14  1  0  0  0  0
 14 15  1  0  0  0  0
 14 16  1  0  0  0  0
 17 14  1  0  0  0  0
M  RAD  1   3   2
M  END
