Coordinates from ORCA-job 4-CH3O-Ph-N2+-scan-d090-169-n800
 OpenBabel09191814063D

 17 16  0  0  0  0  0  0  0  0999 V2000
   -2.5976   -0.1669    0.2165 C   0  0  0  0  0  0  0  0  0  0  0  0
   -1.2580   -0.1722   -0.2457 C   0  0  0  0  0  0  0  0  0  0  0  0
   -0.8593    1.1059   -0.2989 C   0  0  0  0  0  0  0  0  0  0  0  0
   -1.1042    2.3083    0.2473 C   0  0  0  0  0  0  0  0  0  0  0  0
   -2.4368    2.2425    0.7066 C   0  0  0  0  0  0  0  0  0  0  0  0
   -3.1751    1.0262    0.7132 C   0  0  0  0  0  0  0  0  0  0  0  0
   -3.1457   -1.1014    0.1657 H   0  0  0  0  0  0  0  0  0  0  0  0
   -0.7244   -1.0625   -0.5601 H   0  0  0  0  0  0  0  0  0  0  0  0
   -0.5189    3.2198    0.2082 H   0  0  0  0  0  0  0  0  0  0  0  0
   -2.9265    3.1682    0.9989 H   0  0  0  0  0  0  0  0  0  0  0  0
    6.2262    0.6807   -1.7642 N   0  0  0  0  0  0  0  0  0  0  0  0
    7.3012    0.6466   -2.0192 N   0  0  0  0  0  0  0  0  0  0  0  0
   -4.4068    1.1254    1.1966 O   0  0  0  0  0  0  0  0  0  0  0  0
   -5.2364   -0.0485    1.3186 C   0  0  0  0  0  0  0  0  0  0  0  0
   -6.1765    0.3080    1.7353 H   0  0  0  0  0  0  0  0  0  0  0  0
   -4.7777   -0.7734    1.9976 H   0  0  0  0  0  0  0  0  0  0  0  0
   -5.4129   -0.4934    0.3334 H   0  0  0  0  0  0  0  0  0  0  0  0
  1  6  2  0  0  0  0
  2  1  1  0  0  0  0
  3  2  2  0  0  0  0
  3  4  1  0  0  0  0
  4  5  2  0  0  0  0
  5  6  1  0  0  0  0
  5 10  1  0  0  0  0
  6 13  1  0  0  0  0
  7  1  1  0  0  0  0
  8  2  1  0  0  0  0
  9  4  1  0  0  0  0
 12 11  3  0  0  0  0
 13 14  1  0  0  0  0
 14 15  1  0  0  0  0
 14 16  1  0  0  0  0
 17 14  1  0  0  0  0
M  RAD  1   3   2
M  END
