Coordinates from ORCA-job 4-CH3O-Ph-N2+-scan-d090-169-n800
 OpenBabel09191814063D

 17 16  0  0  0  0  0  0  0  0999 V2000
   -2.1174   -0.2068    0.2138 C   0  0  0  0  0  0  0  0  0  0  0  0
   -0.7565   -0.2892   -0.2080 C   0  0  0  0  0  0  0  0  0  0  0  0
   -0.2886    0.9521   -0.1314 C   0  0  0  0  0  0  0  0  0  0  0  0
   -0.5683    2.2208    0.1776 C   0  0  0  0  0  0  0  0  0  0  0  0
   -1.9253    2.2094    0.5820 C   0  0  0  0  0  0  0  0  0  0  0  0
   -2.6957    1.0207    0.6035 C   0  0  0  0  0  0  0  0  0  0  0  0
   -2.6709   -1.1396    0.2144 H   0  0  0  0  0  0  0  0  0  0  0  0
   -0.2661   -1.2044   -0.5155 H   0  0  0  0  0  0  0  0  0  0  0  0
    0.0567    3.1044    0.1458 H   0  0  0  0  0  0  0  0  0  0  0  0
   -2.3721    3.1541    0.8811 H   0  0  0  0  0  0  0  0  0  0  0  0
    2.6410    0.8704   -1.0209 N   0  0  0  0  0  0  0  0  0  0  0  0
    3.6981    0.8441   -1.3415 N   0  0  0  0  0  0  0  0  0  0  0  0
   -3.9568    1.1708    1.0077 O   0  0  0  0  0  0  0  0  0  0  0  0
   -4.8278    0.0266    1.0682 C   0  0  0  0  0  0  0  0  0  0  0  0
   -5.7833    0.4103    1.4219 H   0  0  0  0  0  0  0  0  0  0  0  0
   -4.4430   -0.7145    1.7769 H   0  0  0  0  0  0  0  0  0  0  0  0
   -4.9535   -0.4158    0.0742 H   0  0  0  0  0  0  0  0  0  0  0  0
  1  7  1  0  0  0  0
  1  6  2  0  0  0  0
  2  3  2  0  0  0  0
  2  1  1  0  0  0  0
  3  4  1  0  0  0  0
  4  5  2  0  0  0  0
  5  6  1  0  0  0  0
  5 10  1  0  0  0  0
  6 13  1  0  0  0  0
  8  2  1  0  0  0  0
  9  4  1  0  0  0  0
 12 11  3  0  0  0  0
 13 14  1  0  0  0  0
 14 15  1  0  0  0  0
 14 16  1  0  0  0  0
 17 14  1  0  0  0  0
M  RAD  1   3   2
M  END
