Coordinates from ORCA-job 4-CH3O-Ph-N2+-scan-d090-169-n800
 OpenBabel09191814063D

 17 16  0  0  0  0  0  0  0  0999 V2000
   -2.0258   -0.2096    0.1866 C   0  0  0  0  0  0  0  0  0  0  0  0
   -0.6766   -0.2872   -0.2313 C   0  0  0  0  0  0  0  0  0  0  0  0
   -0.1352    0.9428   -0.1772 C   0  0  0  0  0  0  0  0  0  0  0  0
   -0.4815    2.2078    0.1490 C   0  0  0  0  0  0  0  0  0  0  0  0
   -1.8271    2.2076    0.5521 C   0  0  0  0  0  0  0  0  0  0  0  0
   -2.5992    1.0205    0.5747 C   0  0  0  0  0  0  0  0  0  0  0  0
   -2.5914   -1.1342    0.1934 H   0  0  0  0  0  0  0  0  0  0  0  0
   -0.1986   -1.2087   -0.5366 H   0  0  0  0  0  0  0  0  0  0  0  0
    0.1370    3.0951    0.1198 H   0  0  0  0  0  0  0  0  0  0  0  0
   -2.2819    3.1465    0.8535 H   0  0  0  0  0  0  0  0  0  0  0  0
    1.9503    0.8744   -0.8139 N   0  0  0  0  0  0  0  0  0  0  0  0
    3.0061    0.8436   -1.1356 N   0  0  0  0  0  0  0  0  0  0  0  0
   -3.8605    1.1742    0.9796 O   0  0  0  0  0  0  0  0  0  0  0  0
   -4.7360    0.0349    1.0415 C   0  0  0  0  0  0  0  0  0  0  0  0
   -5.6896    0.4232    1.3954 H   0  0  0  0  0  0  0  0  0  0  0  0
   -4.3550   -0.7083    1.7500 H   0  0  0  0  0  0  0  0  0  0  0  0
   -4.8646   -0.4092    0.0487 H   0  0  0  0  0  0  0  0  0  0  0  0
  1  7  1  0  0  0  0
  1  6  2  0  0  0  0
  2  3  2  0  0  0  0
  2  1  1  0  0  0  0
  3  4  1  0  0  0  0
  4  5  2  0  0  0  0
  5  6  1  0  0  0  0
  5 10  1  0  0  0  0
  6 13  1  0  0  0  0
  8  2  1  0  0  0  0
  9  4  1  0  0  0  0
 12 11  3  0  0  0  0
 13 14  1  0  0  0  0
 14 15  1  0  0  0  0
 14 16  1  0  0  0  0
 17 14  1  0  0  0  0
M  RAD  1   3   2
M  END
