Coordinates from ORCA-job 4-CH3O-Ph-N2+-scan-d090-169-n800
 OpenBabel09191814063D

 17 16  0  0  0  0  0  0  0  0999 V2000
   -2.1044   -0.2071    0.2102 C   0  0  0  0  0  0  0  0  0  0  0  0
   -0.7441   -0.2896   -0.2117 C   0  0  0  0  0  0  0  0  0  0  0  0
   -0.2722    0.9509   -0.1356 C   0  0  0  0  0  0  0  0  0  0  0  0
   -0.5551    2.2197    0.1732 C   0  0  0  0  0  0  0  0  0  0  0  0
   -1.9114    2.2092    0.5777 C   0  0  0  0  0  0  0  0  0  0  0  0
   -2.6822    1.0207    0.5995 C   0  0  0  0  0  0  0  0  0  0  0  0
   -2.6586   -1.1394    0.2118 H   0  0  0  0  0  0  0  0  0  0  0  0
   -0.2547   -1.2051   -0.5192 H   0  0  0  0  0  0  0  0  0  0  0  0
    0.0699    3.1033    0.1414 H   0  0  0  0  0  0  0  0  0  0  0  0
   -2.3583    3.1536    0.8773 H   0  0  0  0  0  0  0  0  0  0  0  0
    2.5420    0.8709   -0.9915 N   0  0  0  0  0  0  0  0  0  0  0  0
    3.5989    0.8438   -1.3123 N   0  0  0  0  0  0  0  0  0  0  0  0
   -3.9433    1.1714    1.0039 O   0  0  0  0  0  0  0  0  0  0  0  0
   -4.8148    0.0278    1.0642 C   0  0  0  0  0  0  0  0  0  0  0  0
   -5.7701    0.4118    1.4179 H   0  0  0  0  0  0  0  0  0  0  0  0
   -4.4304   -0.7137    1.7727 H   0  0  0  0  0  0  0  0  0  0  0  0
   -4.9407   -0.4147    0.0702 H   0  0  0  0  0  0  0  0  0  0  0  0
  1  7  1  0  0  0  0
  1  6  2  0  0  0  0
  2  3  2  0  0  0  0
  2  1  1  0  0  0  0
  3  4  1  0  0  0  0
  4  5  2  0  0  0  0
  5  6  1  0  0  0  0
  5 10  1  0  0  0  0
  6 13  1  0  0  0  0
  8  2  1  0  0  0  0
  9  4  1  0  0  0  0
 12 11  3  0  0  0  0
 13 14  1  0  0  0  0
 14 15  1  0  0  0  0
 14 16  1  0  0  0  0
 17 14  1  0  0  0  0
M  RAD  1   3   2
M  END
