Coordinates from ORCA-job 4-CH3O-Ph-N2+-scan-d090-169-n800
 OpenBabel09191814063D

 17 17  0  0  0  0  0  0  0  0999 V2000
   -1.9497   -0.2215    0.1617 C   0  0  0  0  0  0  0  0  0  0  0  0
   -0.6335   -0.2699   -0.2411 C   0  0  0  0  0  0  0  0  0  0  0  0
    0.1156    0.9314   -0.2543 C   0  0  0  0  0  0  0  0  0  0  0  0
   -0.4388    2.1818    0.1317 C   0  0  0  0  0  0  0  0  0  0  0  0
   -1.7504    2.2097    0.5295 C   0  0  0  0  0  0  0  0  0  0  0  0
   -2.5261    1.0164    0.5521 C   0  0  0  0  0  0  0  0  0  0  0  0
   -2.5327   -1.1337    0.1759 H   0  0  0  0  0  0  0  0  0  0  0  0
   -0.1751   -1.2057   -0.5430 H   0  0  0  0  0  0  0  0  0  0  0  0
    0.1647    3.0827    0.1093 H   0  0  0  0  0  0  0  0  0  0  0  0
   -2.2245    3.1360    0.8345 H   0  0  0  0  0  0  0  0  0  0  0  0
    1.4159    0.8848   -0.6520 N   0  0  0  0  0  0  0  0  0  0  0  0
    2.4875    0.8507   -0.9791 N   0  0  0  0  0  0  0  0  0  0  0  0
   -3.7744    1.1661    0.9523 O   0  0  0  0  0  0  0  0  0  0  0  0
   -4.6760    0.0388    1.0242 C   0  0  0  0  0  0  0  0  0  0  0  0
   -5.6179    0.4527    1.3791 H   0  0  0  0  0  0  0  0  0  0  0  0
   -4.3021   -0.7030    1.7356 H   0  0  0  0  0  0  0  0  0  0  0  0
   -4.8120   -0.4038    0.0334 H   0  0  0  0  0  0  0  0  0  0  0  0
  1  7  1  0  0  0  0
  1  6  2  0  0  0  0
  2  1  1  0  0  0  0
  3  2  2  0  0  0  0
  3  4  1  0  0  0  0
  4  5  2  0  0  0  0
  5  6  1  0  0  0  0
  5 10  1  0  0  0  0
  6 13  1  0  0  0  0
  8  2  1  0  0  0  0
  9  4  1  0  0  0  0
 11  3  1  0  0  0  0
 12 11  1  0  0  0  0
 13 14  1  0  0  0  0
 14 15  1  0  0  0  0
 14 16  1  0  0  0  0
 17 14  1  0  0  0  0
M  RAD  2  11   2  12   3
M  END
