Coordinates from ORCA-job 4-CH3O-Ph-N2+-scan-d090-169-n800
 OpenBabel09191814063D

 17 16  0  0  0  0  0  0  0  0999 V2000
   -2.8105   -0.1616    0.2421 C   0  0  0  0  0  0  0  0  0  0  0  0
   -1.4824   -0.1618   -0.2520 C   0  0  0  0  0  0  0  0  0  0  0  0
   -1.0852    1.1170   -0.3035 C   0  0  0  0  0  0  0  0  0  0  0  0
   -1.3164    2.3137    0.2611 C   0  0  0  0  0  0  0  0  0  0  0  0
   -2.6375    2.2432    0.7515 C   0  0  0  0  0  0  0  0  0  0  0  0
   -3.3757    1.0267    0.7641 C   0  0  0  0  0  0  0  0  0  0  0  0
   -3.3597   -1.0957    0.1958 H   0  0  0  0  0  0  0  0  0  0  0  0
   -0.9562   -1.0489   -0.5870 H   0  0  0  0  0  0  0  0  0  0  0  0
   -0.7324    3.2258    0.2165 H   0  0  0  0  0  0  0  0  0  0  0  0
   -3.1203    3.1659    1.0639 H   0  0  0  0  0  0  0  0  0  0  0  0
    7.7547    0.6649   -2.0912 N   0  0  0  0  0  0  0  0  0  0  0  0
    8.8307    0.6325   -2.3429 N   0  0  0  0  0  0  0  0  0  0  0  0
   -4.5952    1.1212    1.2780 O   0  0  0  0  0  0  0  0  0  0  0  0
   -5.4220   -0.0539    1.4087 C   0  0  0  0  0  0  0  0  0  0  0  0
   -6.3518    0.2988    1.8511 H   0  0  0  0  0  0  0  0  0  0  0  0
   -4.9475   -0.7851    2.0696 H   0  0  0  0  0  0  0  0  0  0  0  0
   -5.6221   -0.4894    0.4238 H   0  0  0  0  0  0  0  0  0  0  0  0
  1  6  2  0  0  0  0
  2  1  1  0  0  0  0
  3  2  2  0  0  0  0
  3  4  1  0  0  0  0
  4  5  2  0  0  0  0
  5  6  1  0  0  0  0
  5 10  1  0  0  0  0
  6 13  1  0  0  0  0
  7  1  1  0  0  0  0
  8  2  1  0  0  0  0
  9  4  1  0  0  0  0
 12 11  3  0  0  0  0
 13 14  1  0  0  0  0
 14 15  1  0  0  0  0
 14 16  1  0  0  0  0
 17 14  1  0  0  0  0
M  RAD  1   3   2
M  END
