Coordinates from ORCA-job 4-CH3O-Ph-N2+-scan-d090-169-n800
 OpenBabel09191814063D

 17 16  0  0  0  0  0  0  0  0999 V2000
   -3.9376    0.1733   -0.2053 C   0  0  0  0  0  0  0  0  0  0  0  0
   -3.6496    0.6500   -1.5074 C   0  0  0  0  0  0  0  0  0  0  0  0
   -3.6112    1.9885   -1.4378 C   0  0  0  0  0  0  0  0  0  0  0  0
   -3.3667    2.9860   -0.5718 C   0  0  0  0  0  0  0  0  0  0  0  0
   -3.6477    2.4472    0.7014 C   0  0  0  0  0  0  0  0  0  0  0  0
   -3.9108    1.0618    0.8967 C   0  0  0  0  0  0  0  0  0  0  0  0
   -4.1743   -0.8796   -0.0982 H   0  0  0  0  0  0  0  0  0  0  0  0
   -3.5615    0.0165   -2.3834 H   0  0  0  0  0  0  0  0  0  0  0  0
   -3.1873    4.0384   -0.7592 H   0  0  0  0  0  0  0  0  0  0  0  0
   -3.7341    3.1307    1.5426 H   0  0  0  0  0  0  0  0  0  0  0  0
   13.0736   -0.2620   -1.8074 N   0  0  0  0  0  0  0  0  0  0  0  0
   14.1718   -0.3613   -1.8856 N   0  0  0  0  0  0  0  0  0  0  0  0
   -4.1317    0.7104    2.1563 O   0  0  0  0  0  0  0  0  0  0  0  0
   -4.3481   -0.6747    2.4982 C   0  0  0  0  0  0  0  0  0  0  0  0
   -4.5039   -0.6819    3.5754 H   0  0  0  0  0  0  0  0  0  0  0  0
   -3.4691   -1.2739    2.2434 H   0  0  0  0  0  0  0  0  0  0  0  0
   -5.2414   -1.0559    1.9919 H   0  0  0  0  0  0  0  0  0  0  0  0
  1  7  1  0  0  0  0
  1  6  2  0  0  0  0
  2  3  2  0  0  0  0
  2  1  1  0  0  0  0
  3  4  1  0  0  0  0
  4  5  2  0  0  0  0
  5  6  1  0  0  0  0
  5 10  1  0  0  0  0
  6 13  1  0  0  0  0
  8  2  1  0  0  0  0
  9  4  1  0  0  0  0
 12 11  3  0  0  0  0
 13 14  1  0  0  0  0
 14 15  1  0  0  0  0
 16 14  1  0  0  0  0
 17 14  1  0  0  0  0
M  RAD  1   3   2
M  END
