Coordinates from ORCA-job 4-CH3O-Ph-N2+-scan-d090-169-n800
 OpenBabel09191814063D

 17 16  0  0  0  0  0  0  0  0999 V2000
   -2.3452   -0.1833    0.1796 C   0  0  0  0  0  0  0  0  0  0  0  0
   -0.9953   -0.2084   -0.2514 C   0  0  0  0  0  0  0  0  0  0  0  0
   -0.5817    1.0644   -0.3076 C   0  0  0  0  0  0  0  0  0  0  0  0
   -0.8268    2.2757    0.2173 C   0  0  0  0  0  0  0  0  0  0  0  0
   -2.1702    2.2296    0.6461 C   0  0  0  0  0  0  0  0  0  0  0  0
   -2.9215    1.0214    0.6491 C   0  0  0  0  0  0  0  0  0  0  0  0
   -2.9019   -1.1125    0.1261 H   0  0  0  0  0  0  0  0  0  0  0  0
   -0.4646   -1.1076   -0.5446 H   0  0  0  0  0  0  0  0  0  0  0  0
   -0.2301    3.1799    0.1819 H   0  0  0  0  0  0  0  0  0  0  0  0
   -2.6559    3.1636    0.9178 H   0  0  0  0  0  0  0  0  0  0  0  0
    4.3265    0.7479   -1.3380 N   0  0  0  0  0  0  0  0  0  0  0  0
    5.3994    0.7098   -1.6014 N   0  0  0  0  0  0  0  0  0  0  0  0
   -4.1632    1.1388    1.1021 O   0  0  0  0  0  0  0  0  0  0  0  0
   -5.0075   -0.0251    1.2172 C   0  0  0  0  0  0  0  0  0  0  0  0
   -5.9534    0.3454    1.6080 H   0  0  0  0  0  0  0  0  0  0  0  0
   -4.5724   -0.7472    1.9145 H   0  0  0  0  0  0  0  0  0  0  0  0
   -5.1658   -0.4791    0.2331 H   0  0  0  0  0  0  0  0  0  0  0  0
  1  6  2  0  0  0  0
  2  1  1  0  0  0  0
  3  2  2  0  0  0  0
  3  4  1  0  0  0  0
  4  5  2  0  0  0  0
  5  6  1  0  0  0  0
  5 10  1  0  0  0  0
  6 13  1  0  0  0  0
  7  1  1  0  0  0  0
  8  2  1  0  0  0  0
  9  4  1  0  0  0  0
 12 11  3  0  0  0  0
 13 14  1  0  0  0  0
 14 15  1  0  0  0  0
 14 16  1  0  0  0  0
 17 14  1  0  0  0  0
M  RAD  1   3   2
M  END
