Coordinates from ORCA-job 4-CH3O-Ph-N2+-scan-d090-169-n800
 OpenBabel09191814063D

 17 16  0  0  0  0  0  0  0  0999 V2000
   -2.4627   -0.1720    0.1963 C   0  0  0  0  0  0  0  0  0  0  0  0
   -1.1177   -0.1833   -0.2502 C   0  0  0  0  0  0  0  0  0  0  0  0
   -0.7153    1.0935   -0.3042 C   0  0  0  0  0  0  0  0  0  0  0  0
   -0.9639    2.2995    0.2317 C   0  0  0  0  0  0  0  0  0  0  0  0
   -2.3019    2.2394    0.6756 C   0  0  0  0  0  0  0  0  0  0  0  0
   -3.0432    1.0250    0.6798 C   0  0  0  0  0  0  0  0  0  0  0  0
   -3.0125   -1.1054    0.1437 H   0  0  0  0  0  0  0  0  0  0  0  0
   -0.5828   -1.0764   -0.5541 H   0  0  0  0  0  0  0  0  0  0  0  0
   -0.3755    3.2092    0.1951 H   0  0  0  0  0  0  0  0  0  0  0  0
   -2.7925    3.1677    0.9579 H   0  0  0  0  0  0  0  0  0  0  0  0
    5.2312    0.7015   -1.5411 N   0  0  0  0  0  0  0  0  0  0  0  0
    6.3055    0.6638   -1.7989 N   0  0  0  0  0  0  0  0  0  0  0  0
   -4.2804    1.1296    1.1479 O   0  0  0  0  0  0  0  0  0  0  0  0
   -5.1141   -0.0418    1.2659 C   0  0  0  0  0  0  0  0  0  0  0  0
   -6.0583    0.3188    1.6697 H   0  0  0  0  0  0  0  0  0  0  0  0
   -4.6652   -0.7644    1.9539 H   0  0  0  0  0  0  0  0  0  0  0  0
   -5.2800   -0.4913    0.2809 H   0  0  0  0  0  0  0  0  0  0  0  0
  1  6  2  0  0  0  0
  2  1  1  0  0  0  0
  3  2  2  0  0  0  0
  3  4  1  0  0  0  0
  4  5  2  0  0  0  0
  5  6  1  0  0  0  0
  5 10  1  0  0  0  0
  6 13  1  0  0  0  0
  7  1  1  0  0  0  0
  8  2  1  0  0  0  0
  9  4  1  0  0  0  0
 12 11  3  0  0  0  0
 13 14  1  0  0  0  0
 14 15  1  0  0  0  0
 14 16  1  0  0  0  0
 17 14  1  0  0  0  0
M  RAD  1   3   2
M  END
