Coordinates from ORCA-job Ph-N2-Cl-B3LYPG-aug-cc-pVDZ-scan-d09-49-n400
 OpenBabel11081710403D

 14 12  0  0  0  0  0  0  0  0999 V2000
   -1.5360   -1.3765   -1.2810 C   0  0  0  0  0  0  0  0  0  0  0  0
   -0.1340   -1.1760   -1.1950 C   0  0  0  0  0  0  0  0  0  0  0  0
    0.0714    0.0708   -0.6550 C   0  0  0  0  0  0  0  0  0  0  0  0
   -0.6834    0.9943   -0.2544 C   0  0  0  0  0  0  0  0  0  0  0  0
   -2.0779    0.8364   -0.3219 C   0  0  0  0  0  0  0  0  0  0  0  0
   -2.4670   -0.4075   -0.8606 C   0  0  0  0  0  0  0  0  0  0  0  0
   -1.8949   -2.3227   -1.6907 H   0  0  0  0  0  0  0  0  0  0  0  0
    0.5973   -1.9132   -1.5149 H   0  0  0  0  0  0  0  0  0  0  0  0
   -0.1108    2.7202    0.4930 H   0  0  0  0  0  0  0  0  0  0  0  0
   -2.8038    1.5813    0.0012 H   0  0  0  0  0  0  0  0  0  0  0  0
    4.0507   -1.7941   -1.4664 N   0  0  0  0  0  0  0  0  0  0  0  0
    5.1266   -1.5652   -1.3705 N   0  0  0  0  0  0  0  0  0  0  0  0
    0.1022    3.9202    1.0127 Cl  0  0  0  0  0  0  0  0  0  0  0  0
   -3.5319   -0.6279   -0.9554 H   0  0  0  0  0  0  0  0  0  0  0  0
  1  2  2  0  0  0  0
  1  6  1  0  0  0  0
  2  3  1  0  0  0  0
  3  4  2  0  0  0  0
  5  4  1  0  0  0  0
  5 10  1  0  0  0  0
  6  5  2  0  0  0  0
  7  1  1  0  0  0  0
  8  2  1  0  0  0  0
  9 13  1  0  0  0  0
 11 12  3  0  0  0  0
 14  6  1  0  0  0  0
M  RAD  2   3   2   4   2
M  END
