Coordinates from ORCA-job Ph-N2-Cl-B3LYPG-aug-cc-pVDZ-scan-d09-49-n400
 OpenBabel11081710403D

 14 12  0  0  0  0  0  0  0  0999 V2000
   -1.6691   -1.4721   -1.3222 C   0  0  0  0  0  0  0  0  0  0  0  0
   -0.2507   -1.4519   -1.3144 C   0  0  0  0  0  0  0  0  0  0  0  0
    0.1402   -0.2446   -0.7917 C   0  0  0  0  0  0  0  0  0  0  0  0
   -0.4591    0.7711   -0.3513 C   0  0  0  0  0  0  0  0  0  0  0  0
   -1.8656    0.7890   -0.3427 C   0  0  0  0  0  0  0  0  0  0  0  0
   -2.4420   -0.3920   -0.8539 C   0  0  0  0  0  0  0  0  0  0  0  0
   -2.1686   -2.3630   -1.7078 H   0  0  0  0  0  0  0  0  0  0  0  0
    0.3683   -2.2709   -1.6695 H   0  0  0  0  0  0  0  0  0  0  0  0
    0.3563    2.3933    0.3507 H   0  0  0  0  0  0  0  0  0  0  0  0
   -2.4710    1.6197    0.0176 H   0  0  0  0  0  0  0  0  0  0  0  0
    3.4781   -0.9930   -1.1183 N   0  0  0  0  0  0  0  0  0  0  0  0
    4.4587   -0.5258   -0.9197 N   0  0  0  0  0  0  0  0  0  0  0  0
    0.7633    3.5525    0.8525 Cl  0  0  0  0  0  0  0  0  0  0  0  0
   -3.5300   -0.4724   -0.8880 H   0  0  0  0  0  0  0  0  0  0  0  0
  1  2  2  0  0  0  0
  1  6  1  0  0  0  0
  2  3  1  0  0  0  0
  3  4  2  0  0  0  0
  4  5  1  0  0  0  0
  5 10  1  0  0  0  0
  6  5  2  0  0  0  0
  7  1  1  0  0  0  0
  8  2  1  0  0  0  0
  9 13  1  0  0  0  0
 11 12  3  0  0  0  0
 14  6  1  0  0  0  0
M  RAD  2   3   2   4   2
M  END
