Coordinates from ORCA-job Ph-N2-Cl-B3LYPG-aug-cc-pVDZ-scan-d09-49-n400
 OpenBabel11081710403D

 14 13  0  0  0  0  0  0  0  0999 V2000
   -1.4842   -1.4903   -1.3316 C   0  0  0  0  0  0  0  0  0  0  0  0
   -0.1016   -1.3832   -1.2849 C   0  0  0  0  0  0  0  0  0  0  0  0
    0.5169   -0.2067   -0.7743 C   0  0  0  0  0  0  0  0  0  0  0  0
   -0.3083    0.8621   -0.3101 C   0  0  0  0  0  0  0  0  0  0  0  0
   -1.6912    0.7333   -0.3657 C   0  0  0  0  0  0  0  0  0  0  0  0
   -2.2804   -0.4322   -0.8720 C   0  0  0  0  0  0  0  0  0  0  0  0
   -1.9464   -2.3951   -1.7246 H   0  0  0  0  0  0  0  0  0  0  0  0
    0.5393   -2.1920   -1.6360 H   0  0  0  0  0  0  0  0  0  0  0  0
    0.1758    1.7565    0.0781 H   0  0  0  0  0  0  0  0  0  0  0  0
   -2.3186    1.5506   -0.0106 H   0  0  0  0  0  0  0  0  0  0  0  0
    1.7364   -0.1547   -0.7517 N   0  0  0  0  0  0  0  0  0  0  0  0
    2.7354    0.4033   -0.5128 N   0  0  0  0  0  0  0  0  0  0  0  0
    2.5026    2.4061    0.3463 Cl  0  0  0  0  0  0  0  0  0  0  0  0
   -3.3670   -0.5177   -0.9091 H   0  0  0  0  0  0  0  0  0  0  0  0
  1  2  2  0  0  0  0
  1  6  1  0  0  0  0
  2  3  1  0  0  0  0
  3 11  1  0  0  0  0
  3  4  2  0  0  0  0
  4  9  1  0  0  0  0
  5  4  1  0  0  0  0
  5 10  1  0  0  0  0
  6  5  2  0  0  0  0
  7  1  1  0  0  0  0
  8  2  1  0  0  0  0
 11 12  2  0  0  0  0
 14  6  1  0  0  0  0
M  RAD  2  12   2  13   2
M  END
