Coordinates from ORCA-job Ph-N2-Cl-B3LYPG-aug-cc-pVDZ-scan-d09-49-n400
 OpenBabel11081710403D

 14 12  0  0  0  0  0  0  0  0999 V2000
   -1.6065   -1.4226   -1.3008 C   0  0  0  0  0  0  0  0  0  0  0  0
   -0.1930   -1.3063   -1.2513 C   0  0  0  0  0  0  0  0  0  0  0  0
    0.0997   -0.0748   -0.7181 C   0  0  0  0  0  0  0  0  0  0  0  0
   -0.5863    0.8930   -0.2985 C   0  0  0  0  0  0  0  0  0  0  0  0
   -1.9892    0.8182   -0.3300 C   0  0  0  0  0  0  0  0  0  0  0  0
   -2.4664   -0.3998   -0.8573 C   0  0  0  0  0  0  0  0  0  0  0  0
   -2.0318   -2.3454   -1.7002 H   0  0  0  0  0  0  0  0  0  0  0  0
    0.4848   -2.0852   -1.5891 H   0  0  0  0  0  0  0  0  0  0  0  0
    0.1035    2.5786    0.4314 H   0  0  0  0  0  0  0  0  0  0  0  0
   -2.6606    1.6050    0.0112 H   0  0  0  0  0  0  0  0  0  0  0  0
    3.8306   -1.4421   -1.3131 N   0  0  0  0  0  0  0  0  0  0  0  0
    4.8650   -1.0861   -1.1633 N   0  0  0  0  0  0  0  0  0  0  0  0
    0.4035    3.7633    0.9445 Cl  0  0  0  0  0  0  0  0  0  0  0  0
   -3.5446   -0.5557   -0.9242 H   0  0  0  0  0  0  0  0  0  0  0  0
  1  2  2  0  0  0  0
  1  6  1  0  0  0  0
  2  3  1  0  0  0  0
  3  4  2  0  0  0  0
  5  4  1  0  0  0  0
  5 10  1  0  0  0  0
  6  5  2  0  0  0  0
  7  1  1  0  0  0  0
  8  2  1  0  0  0  0
  9 13  1  0  0  0  0
 11 12  3  0  0  0  0
 14  6  1  0  0  0  0
M  RAD  2   3   2   4   2
M  END
