Coordinates from ORCA-job Ph-N2-Cl-B3LYPG-aug-cc-pVDZ-scan-d09-49-n400
 OpenBabel11081710403D

 14 12  0  0  0  0  0  0  0  0999 V2000
   -1.6217   -1.4340   -1.3057 C   0  0  0  0  0  0  0  0  0  0  0  0
   -0.2065   -1.3381   -1.2651 C   0  0  0  0  0  0  0  0  0  0  0  0
    0.1087   -0.1116   -0.7341 C   0  0  0  0  0  0  0  0  0  0  0  0
   -0.5599    0.8665   -0.3100 C   0  0  0  0  0  0  0  0  0  0  0  0
   -1.9640    0.8124   -0.3325 C   0  0  0  0  0  0  0  0  0  0  0  0
   -2.4630   -0.3982   -0.8566 C   0  0  0  0  0  0  0  0  0  0  0  0
   -2.0631   -2.3503   -1.7024 H   0  0  0  0  0  0  0  0  0  0  0  0
    0.4565   -2.1277   -1.6075 H   0  0  0  0  0  0  0  0  0  0  0  0
    0.1582    2.5411    0.4151 H   0  0  0  0  0  0  0  0  0  0  0  0
   -2.6213    1.6092    0.0130 H   0  0  0  0  0  0  0  0  0  0  0  0
    3.7643   -1.3510   -1.2735 N   0  0  0  0  0  0  0  0  0  0  0  0
    4.7844   -0.9618   -1.1094 N   0  0  0  0  0  0  0  0  0  0  0  0
    0.4802    3.7210    0.9261 Cl  0  0  0  0  0  0  0  0  0  0  0  0
   -3.5440   -0.5375   -0.9162 H   0  0  0  0  0  0  0  0  0  0  0  0
  1  2  2  0  0  0  0
  1  6  1  0  0  0  0
  2  3  1  0  0  0  0
  3  4  2  0  0  0  0
  5  4  1  0  0  0  0
  5 10  1  0  0  0  0
  6  5  2  0  0  0  0
  7  1  1  0  0  0  0
  8  2  1  0  0  0  0
  9 13  1  0  0  0  0
 11 12  3  0  0  0  0
 14  6  1  0  0  0  0
M  RAD  2   3   2   4   2
M  END
