Coordinates from ORCA-job Ph-N2-Cl-B3LYPG-aug-cc-pVDZ-scan-d09-49-n400
 OpenBabel11081710403D

 14 12  0  0  0  0  0  0  0  0999 V2000
   -1.6666   -1.4760   -1.3239 C   0  0  0  0  0  0  0  0  0  0  0  0
   -0.2481   -1.4625   -1.3190 C   0  0  0  0  0  0  0  0  0  0  0  0
    0.1488   -0.2570   -0.7971 C   0  0  0  0  0  0  0  0  0  0  0  0
   -0.4433    0.7623   -0.3552 C   0  0  0  0  0  0  0  0  0  0  0  0
   -1.8500    0.7858   -0.3440 C   0  0  0  0  0  0  0  0  0  0  0  0
   -2.4332   -0.3922   -0.8540 C   0  0  0  0  0  0  0  0  0  0  0  0
   -2.1710   -2.3646   -1.7085 H   0  0  0  0  0  0  0  0  0  0  0  0
    0.3667   -2.2841   -1.6753 H   0  0  0  0  0  0  0  0  0  0  0  0
    0.3781    2.3765    0.3434 H   0  0  0  0  0  0  0  0  0  0  0  0
   -2.4507    1.6194    0.0174 H   0  0  0  0  0  0  0  0  0  0  0  0
    3.4096   -0.9454   -1.0977 N   0  0  0  0  0  0  0  0  0  0  0  0
    4.3958   -0.4883   -0.9033 N   0  0  0  0  0  0  0  0  0  0  0  0
    0.7942    3.5336    0.8442 Cl  0  0  0  0  0  0  0  0  0  0  0  0
   -3.5216   -0.4674   -0.8858 H   0  0  0  0  0  0  0  0  0  0  0  0
  1  2  2  0  0  0  0
  1  6  1  0  0  0  0
  2  3  1  0  0  0  0
  3  4  2  0  0  0  0
  4  5  1  0  0  0  0
  5 10  1  0  0  0  0
  6  5  2  0  0  0  0
  7  1  1  0  0  0  0
  8  2  1  0  0  0  0
  9 13  1  0  0  0  0
 11 12  3  0  0  0  0
 14  6  1  0  0  0  0
M  RAD  2   3   2   4   2
M  END
