Coordinates from ORCA-job Ph-N2-Cl-B3LYPG-aug-cc-pVDZ-scan-d09-49-n400
 OpenBabel11081710403D

 14 12  0  0  0  0  0  0  0  0999 V2000
   -1.6432   -1.4888   -1.3294 C   0  0  0  0  0  0  0  0  0  0  0  0
   -0.2237   -1.4969   -1.3341 C   0  0  0  0  0  0  0  0  0  0  0  0
    0.1884   -0.2983   -0.8152 C   0  0  0  0  0  0  0  0  0  0  0  0
   -0.3727    0.7373   -0.3662 C   0  0  0  0  0  0  0  0  0  0  0  0
   -1.7811    0.7740   -0.3493 C   0  0  0  0  0  0  0  0  0  0  0  0
   -2.3889   -0.3933   -0.8544 C   0  0  0  0  0  0  0  0  0  0  0  0
   -2.1629   -2.3699   -1.7107 H   0  0  0  0  0  0  0  0  0  0  0  0
    0.3730   -2.3294   -1.6951 H   0  0  0  0  0  0  0  0  0  0  0  0
    0.4550    2.3014    0.3107 H   0  0  0  0  0  0  0  0  0  0  0  0
   -2.3661    1.6172    0.0164 H   0  0  0  0  0  0  0  0  0  0  0  0
    3.0973   -0.7752   -1.0242 N   0  0  0  0  0  0  0  0  0  0  0  0
    4.0928   -0.3361   -0.8363 N   0  0  0  0  0  0  0  0  0  0  0  0
    0.9191    3.4488    0.8074 Cl  0  0  0  0  0  0  0  0  0  0  0  0
   -3.4785   -0.4508   -0.8784 H   0  0  0  0  0  0  0  0  0  0  0  0
  1  6  1  0  0  0  0
  2  1  2  0  0  0  0
  2  3  1  0  0  0  0
  3  4  2  0  0  0  0
  4  5  1  0  0  0  0
  5 10  1  0  0  0  0
  6  5  2  0  0  0  0
  7  1  1  0  0  0  0
  8  2  1  0  0  0  0
  9 13  1  0  0  0  0
 11 12  3  0  0  0  0
 14  6  1  0  0  0  0
M  RAD  2   3   2   4   2
M  END
