Coordinates from ORCA-job Ph-N2-Cl-B3LYPG-aug-cc-pVDZ-scan-d09-49-n400
 OpenBabel11081710403D

 14 12  0  0  0  0  0  0  0  0999 V2000
   -1.6240   -1.4958   -1.3326 C   0  0  0  0  0  0  0  0  0  0  0  0
   -0.2112   -1.5562   -1.3601 C   0  0  0  0  0  0  0  0  0  0  0  0
    0.2822   -0.3923   -0.8564 C   0  0  0  0  0  0  0  0  0  0  0  0
   -0.1688    0.7336   -0.3681 C   0  0  0  0  0  0  0  0  0  0  0  0
   -1.5905    0.7511   -0.3591 C   0  0  0  0  0  0  0  0  0  0  0  0
   -2.2906   -0.3618   -0.8405 C   0  0  0  0  0  0  0  0  0  0  0  0
   -2.1846   -2.3546   -1.7041 H   0  0  0  0  0  0  0  0  0  0  0  0
    0.3552   -2.4066   -1.7292 H   0  0  0  0  0  0  0  0  0  0  0  0
    0.4807    1.6655    0.0349 H   0  0  0  0  0  0  0  0  0  0  0  0
   -2.1064    1.6327    0.0234 H   0  0  0  0  0  0  0  0  0  0  0  0
    2.4540   -0.3210   -0.8278 N   0  0  0  0  0  0  0  0  0  0  0  0
    3.1921    0.4369   -0.4986 N   0  0  0  0  0  0  0  0  0  0  0  0
    1.5013    2.9581    0.5937 Cl  0  0  0  0  0  0  0  0  0  0  0  0
   -3.3807   -0.3497   -0.8342 H   0  0  0  0  0  0  0  0  0  0  0  0
  1  6  1  0  0  0  0
  2  1  2  0  0  0  0
  2  3  1  0  0  0  0
  3  4  2  0  0  0  0
  4  5  1  0  0  0  0
  4  9  1  0  0  0  0
  5 10  1  0  0  0  0
  6 14  1  0  0  0  0
  6  5  2  0  0  0  0
  7  1  1  0  0  0  0
  8  2  1  0  0  0  0
 11 12  3  0  0  0  0
M  RAD  2   3   2  13   2
M  END
