Coordinates from ORCA-job Ph-N2-Cl-B3LYPG-aug-cc-pVDZ-scan-d09-49-n400
 OpenBabel11081710403D

 14 12  0  0  0  0  0  0  0  0999 V2000
   -1.6519   -1.4872   -1.3288 C   0  0  0  0  0  0  0  0  0  0  0  0
   -0.2334   -1.4923   -1.3320 C   0  0  0  0  0  0  0  0  0  0  0  0
    0.1817   -0.2927   -0.8127 C   0  0  0  0  0  0  0  0  0  0  0  0
   -0.3893    0.7380   -0.3659 C   0  0  0  0  0  0  0  0  0  0  0  0
   -1.7967    0.7760   -0.3484 C   0  0  0  0  0  0  0  0  0  0  0  0
   -2.4005   -0.3930   -0.8543 C   0  0  0  0  0  0  0  0  0  0  0  0
   -2.1701   -2.3691   -1.7104 H   0  0  0  0  0  0  0  0  0  0  0  0
    0.3689   -2.3215   -1.6916 H   0  0  0  0  0  0  0  0  0  0  0  0
    0.4415    2.3230    0.3201 H   0  0  0  0  0  0  0  0  0  0  0  0
   -2.3839    1.6178    0.0167 H   0  0  0  0  0  0  0  0  0  0  0  0
    3.1746   -0.8085   -1.0386 N   0  0  0  0  0  0  0  0  0  0  0  0
    4.1712   -0.3715   -0.8520 N   0  0  0  0  0  0  0  0  0  0  0  0
    0.8868    3.4738    0.8182 Cl  0  0  0  0  0  0  0  0  0  0  0  0
   -3.4900   -0.4528   -0.8794 H   0  0  0  0  0  0  0  0  0  0  0  0
  1  6  1  0  0  0  0
  2  1  2  0  0  0  0
  2  3  1  0  0  0  0
  3  4  2  0  0  0  0
  4  5  1  0  0  0  0
  5 10  1  0  0  0  0
  6  5  2  0  0  0  0
  7  1  1  0  0  0  0
  8  2  1  0  0  0  0
  9 13  1  0  0  0  0
 11 12  3  0  0  0  0
 14  6  1  0  0  0  0
M  RAD  2   3   2   4   2
M  END
