Coordinates from ORCA-job Ph-N2-Cl-B3LYPG-aug-cc-pVDZ-scan-d09-49-n400
 OpenBabel11081710403D

 14 12  0  0  0  0  0  0  0  0999 V2000
   -1.6184   -1.5005   -1.3346 C   0  0  0  0  0  0  0  0  0  0  0  0
   -0.2065   -1.5524   -1.3585 C   0  0  0  0  0  0  0  0  0  0  0  0
    0.2917   -0.3895   -0.8552 C   0  0  0  0  0  0  0  0  0  0  0  0
   -0.1744    0.7405   -0.3651 C   0  0  0  0  0  0  0  0  0  0  0  0
   -1.5947    0.7453   -0.3616 C   0  0  0  0  0  0  0  0  0  0  0  0
   -2.2903   -0.3695   -0.8440 C   0  0  0  0  0  0  0  0  0  0  0  0
   -2.1744   -2.3616   -1.7072 H   0  0  0  0  0  0  0  0  0  0  0  0
    0.3648   -2.4000   -1.7263 H   0  0  0  0  0  0  0  0  0  0  0  0
    0.4744    1.6401    0.0240 H   0  0  0  0  0  0  0  0  0  0  0  0
   -2.1172    1.6235    0.0194 H   0  0  0  0  0  0  0  0  0  0  0  0
    2.3919   -0.2892   -0.8138 N   0  0  0  0  0  0  0  0  0  0  0  0
    3.0903    0.5038   -0.4698 N   0  0  0  0  0  0  0  0  0  0  0  0
    1.6519    2.9110    0.5733 Cl  0  0  0  0  0  0  0  0  0  0  0  0
   -3.3804   -0.3615   -0.8394 H   0  0  0  0  0  0  0  0  0  0  0  0
  1  6  1  0  0  0  0
  2  1  2  0  0  0  0
  2  3  1  0  0  0  0
  3  4  2  0  0  0  0
  4  5  1  0  0  0  0
  4  9  1  0  0  0  0
  5 10  1  0  0  0  0
  6 14  1  0  0  0  0
  6  5  2  0  0  0  0
  7  1  1  0  0  0  0
  8  2  1  0  0  0  0
 11 12  3  0  0  0  0
M  RAD  2   3   2  13   2
M  END
