Coordinates from ORCA-job Ph-N2-Cl-B3LYPG-aug-cc-pVDZ-scan-d09-49-n400
 OpenBabel11081710403D

 14 12  0  0  0  0  0  0  0  0999 V2000
   -1.5378   -1.3776   -1.2814 C   0  0  0  0  0  0  0  0  0  0  0  0
   -0.1354   -1.1791   -1.1963 C   0  0  0  0  0  0  0  0  0  0  0  0
    0.0720    0.0674   -0.6564 C   0  0  0  0  0  0  0  0  0  0  0  0
   -0.6812    0.9920   -0.2554 C   0  0  0  0  0  0  0  0  0  0  0  0
   -2.0760    0.8361   -0.3221 C   0  0  0  0  0  0  0  0  0  0  0  0
   -2.4672   -0.4073   -0.8605 C   0  0  0  0  0  0  0  0  0  0  0  0
   -1.8983   -2.3233   -1.6909 H   0  0  0  0  0  0  0  0  0  0  0  0
    0.5946   -1.9173   -1.5166 H   0  0  0  0  0  0  0  0  0  0  0  0
   -0.1058    2.7170    0.4916 H   0  0  0  0  0  0  0  0  0  0  0  0
   -2.8007    1.5819    0.0015 H   0  0  0  0  0  0  0  0  0  0  0  0
    4.0464   -1.7861   -1.4629 N   0  0  0  0  0  0  0  0  0  0  0  0
    5.1215   -1.5543   -1.3658 N   0  0  0  0  0  0  0  0  0  0  0  0
    0.1092    3.9168    1.0112 Cl  0  0  0  0  0  0  0  0  0  0  0  0
   -3.5324   -0.6263   -0.9547 H   0  0  0  0  0  0  0  0  0  0  0  0
  1  2  2  0  0  0  0
  1  6  1  0  0  0  0
  2  3  1  0  0  0  0
  3  4  2  0  0  0  0
  5  4  1  0  0  0  0
  5 10  1  0  0  0  0
  6  5  2  0  0  0  0
  7  1  1  0  0  0  0
  8  2  1  0  0  0  0
  9 13  1  0  0  0  0
 11 12  3  0  0  0  0
 14  6  1  0  0  0  0
M  RAD  2   3   2   4   2
M  END
