Coordinates from ORCA-job Ph-N2-Cl-B3LYPG-aug-cc-pVDZ-scan-d09-49-n400
 OpenBabel11081710403D

 14 12  0  0  0  0  0  0  0  0999 V2000
   -1.5588   -1.3906   -1.2870 C   0  0  0  0  0  0  0  0  0  0  0  0
   -0.1527   -1.2153   -1.2120 C   0  0  0  0  0  0  0  0  0  0  0  0
    0.0790    0.0274   -0.6738 C   0  0  0  0  0  0  0  0  0  0  0  0
   -0.6554    0.9647   -0.2673 C   0  0  0  0  0  0  0  0  0  0  0  0
   -2.0531    0.8317   -0.3241 C   0  0  0  0  0  0  0  0  0  0  0  0
   -2.4689   -0.4050   -0.8595 C   0  0  0  0  0  0  0  0  0  0  0  0
   -1.9378   -2.3302   -1.6938 H   0  0  0  0  0  0  0  0  0  0  0  0
    0.5629   -1.9654   -1.5373 H   0  0  0  0  0  0  0  0  0  0  0  0
   -0.0473    2.6791    0.4751 H   0  0  0  0  0  0  0  0  0  0  0  0
   -2.7630    1.5895    0.0046 H   0  0  0  0  0  0  0  0  0  0  0  0
    3.9922   -1.6905   -1.4213 N   0  0  0  0  0  0  0  0  0  0  0  0
    5.0579   -1.4241   -1.3096 N   0  0  0  0  0  0  0  0  0  0  0  0
    0.1918    3.8751    0.9932 Cl  0  0  0  0  0  0  0  0  0  0  0  0
   -3.5382   -0.6062   -0.9460 H   0  0  0  0  0  0  0  0  0  0  0  0
  1  2  2  0  0  0  0
  1  6  1  0  0  0  0
  2  3  1  0  0  0  0
  3  4  2  0  0  0  0
  5  4  1  0  0  0  0
  5 10  1  0  0  0  0
  6  5  2  0  0  0  0
  7  1  1  0  0  0  0
  8  2  1  0  0  0  0
  9 13  1  0  0  0  0
 11 12  3  0  0  0  0
 14  6  1  0  0  0  0
M  RAD  2   3   2   4   2
M  END
