Coordinates from ORCA-job Ph-N2-Cl-B3LYPG-aug-cc-pVDZ-scan-d09-49-n400
 OpenBabel11081710403D

 14 14  0  0  0  0  0  0  0  0999 V2000
   -1.5027   -1.4916   -1.3309 C   0  0  0  0  0  0  0  0  0  0  0  0
   -0.1150   -1.3880   -1.2873 C   0  0  0  0  0  0  0  0  0  0  0  0
    0.4685   -0.2150   -0.7795 C   0  0  0  0  0  0  0  0  0  0  0  0
   -0.3121    0.8581   -0.3139 C   0  0  0  0  0  0  0  0  0  0  0  0
   -1.7000    0.7321   -0.3672 C   0  0  0  0  0  0  0  0  0  0  0  0
   -2.2938   -0.4315   -0.8709 C   0  0  0  0  0  0  0  0  0  0  0  0
   -1.9676   -2.3957   -1.7223 H   0  0  0  0  0  0  0  0  0  0  0  0
    0.5277   -2.1946   -1.6373 H   0  0  0  0  0  0  0  0  0  0  0  0
    0.1767    1.7493    0.0719 H   0  0  0  0  0  0  0  0  0  0  0  0
   -2.3231    1.5523   -0.0112 H   0  0  0  0  0  0  0  0  0  0  0  0
    1.8594   -0.1872   -0.7687 N   0  0  0  0  0  0  0  0  0  0  0  0
    2.7941    0.4538   -0.4919 N   0  0  0  0  0  0  0  0  0  0  0  0
    2.4771    2.4110    0.3558 Cl  0  0  0  0  0  0  0  0  0  0  0  0
   -3.3805   -0.5133   -0.9054 H   0  0  0  0  0  0  0  0  0  0  0  0
  1  2  2  0  0  0  0
  1  6  1  0  0  0  0
  2  3  1  0  0  0  0
  3 11  1  0  0  0  0
  3  4  2  0  0  0  0
  4  9  1  0  0  0  0
  5  4  1  0  0  0  0
  5 10  1  0  0  0  0
  6  5  2  0  0  0  0
  7  1  1  0  0  0  0
  8  2  1  0  0  0  0
 11 12  2  0  0  0  0
 12 13  1  0  0  0  0
 14  6  1  0  0  0  0
M  END
