Coordinates from ORCA-job Ph-N2-Cl-B3LYPG-aug-cc-pVDZ-scan-d09-49-n400
 OpenBabel11081710403D

 14 12  0  0  0  0  0  0  0  0999 V2000
   -1.5654   -1.3948   -1.2888 C   0  0  0  0  0  0  0  0  0  0  0  0
   -0.1582   -1.2272   -1.2171 C   0  0  0  0  0  0  0  0  0  0  0  0
    0.0814    0.0142   -0.6795 C   0  0  0  0  0  0  0  0  0  0  0  0
   -0.6468    0.9556   -0.2713 C   0  0  0  0  0  0  0  0  0  0  0  0
   -2.0453    0.8302   -0.3248 C   0  0  0  0  0  0  0  0  0  0  0  0
   -2.4691   -0.4043   -0.8592 C   0  0  0  0  0  0  0  0  0  0  0  0
   -1.9506   -2.3324   -1.6947 H   0  0  0  0  0  0  0  0  0  0  0  0
    0.5526   -1.9811   -1.5441 H   0  0  0  0  0  0  0  0  0  0  0  0
   -0.0279    2.6664    0.4696 H   0  0  0  0  0  0  0  0  0  0  0  0
   -2.7503    1.5918    0.0056 H   0  0  0  0  0  0  0  0  0  0  0  0
    3.9734   -1.6589   -1.4075 N   0  0  0  0  0  0  0  0  0  0  0  0
    5.0357   -1.3810   -1.2909 N   0  0  0  0  0  0  0  0  0  0  0  0
    0.2190    3.8611    0.9871 Cl  0  0  0  0  0  0  0  0  0  0  0  0
   -3.5397   -0.5996   -0.9431 H   0  0  0  0  0  0  0  0  0  0  0  0
  1  2  2  0  0  0  0
  1  6  1  0  0  0  0
  2  3  1  0  0  0  0
  3  4  2  0  0  0  0
  5  4  1  0  0  0  0
  5 10  1  0  0  0  0
  6  5  2  0  0  0  0
  7  1  1  0  0  0  0
  8  2  1  0  0  0  0
  9 13  1  0  0  0  0
 11 12  3  0  0  0  0
 14  6  1  0  0  0  0
M  RAD  2   3   2   4   2
M  END
