Coordinates from ORCA-job Ph-N2-Cl-B3LYPG-aug-cc-pVDZ-scan-d09-49-n400
 OpenBabel11081710403D

 14 12  0  0  0  0  0  0  0  0999 V2000
   -1.6203   -1.4330   -1.3053 C   0  0  0  0  0  0  0  0  0  0  0  0
   -0.2053   -1.3352   -1.2638 C   0  0  0  0  0  0  0  0  0  0  0  0
    0.1080   -0.1084   -0.7326 C   0  0  0  0  0  0  0  0  0  0  0  0
   -0.5622    0.8688   -0.3090 C   0  0  0  0  0  0  0  0  0  0  0  0
   -1.9661    0.8129   -0.3323 C   0  0  0  0  0  0  0  0  0  0  0  0
   -2.4633   -0.3984   -0.8567 C   0  0  0  0  0  0  0  0  0  0  0  0
   -2.0603   -2.3500   -1.7022 H   0  0  0  0  0  0  0  0  0  0  0  0
    0.4590   -2.1240   -1.6059 H   0  0  0  0  0  0  0  0  0  0  0  0
    0.1534    2.5445    0.4166 H   0  0  0  0  0  0  0  0  0  0  0  0
   -2.6247    1.6088    0.0128 H   0  0  0  0  0  0  0  0  0  0  0  0
    3.7698   -1.3590   -1.2770 N   0  0  0  0  0  0  0  0  0  0  0  0
    4.7912   -0.9728   -1.1142 N   0  0  0  0  0  0  0  0  0  0  0  0
    0.4734    3.7248    0.9278 Cl  0  0  0  0  0  0  0  0  0  0  0  0
   -3.5440   -0.5391   -0.9169 H   0  0  0  0  0  0  0  0  0  0  0  0
  1  2  2  0  0  0  0
  1  6  1  0  0  0  0
  2  3  1  0  0  0  0
  3  4  2  0  0  0  0
  5  4  1  0  0  0  0
  5 10  1  0  0  0  0
  6  5  2  0  0  0  0
  7  1  1  0  0  0  0
  8  2  1  0  0  0  0
  9 13  1  0  0  0  0
 11 12  3  0  0  0  0
 14  6  1  0  0  0  0
M  RAD  2   3   2   4   2
M  END
