Coordinates from ORCA-job Ph-N2-Cl-B3LYPG-aug-cc-pVDZ-scan-d09-49-n400
 OpenBabel11081710403D

 14 12  0  0  0  0  0  0  0  0999 V2000
   -1.5976   -1.5100   -1.3388 C   0  0  0  0  0  0  0  0  0  0  0  0
   -0.1892   -1.4892   -1.3310 C   0  0  0  0  0  0  0  0  0  0  0  0
    0.3036   -0.3202   -0.8249 C   0  0  0  0  0  0  0  0  0  0  0  0
   -0.2729    0.8031   -0.3377 C   0  0  0  0  0  0  0  0  0  0  0  0
   -1.6832    0.7289   -0.3686 C   0  0  0  0  0  0  0  0  0  0  0  0
   -2.3261   -0.4120   -0.8624 C   0  0  0  0  0  0  0  0  0  0  0  0
   -2.1083   -2.3939   -1.7214 H   0  0  0  0  0  0  0  0  0  0  0  0
    0.4256   -2.3111   -1.6877 H   0  0  0  0  0  0  0  0  0  0  0  0
    0.3145    1.6611    0.0336 H   0  0  0  0  0  0  0  0  0  0  0  0
   -2.2583    1.5786    0.0000 H   0  0  0  0  0  0  0  0  0  0  0  0
    2.2937   -0.2263   -0.7860 N   0  0  0  0  0  0  0  0  0  0  0  0
    3.0098    0.5765   -0.4390 N   0  0  0  0  0  0  0  0  0  0  0  0
    2.2123    2.7027    0.4824 Cl  0  0  0  0  0  0  0  0  0  0  0  0
   -3.4153   -0.4481   -0.8771 H   0  0  0  0  0  0  0  0  0  0  0  0
  1  2  2  0  0  0  0
  1  6  1  0  0  0  0
  2  3  1  0  0  0  0
  3  4  2  0  0  0  0
  4  9  1  0  0  0  0
  5  4  1  0  0  0  0
  5 10  1  0  0  0  0
  6  5  2  0  0  0  0
  7  1  1  0  0  0  0
  8  2  1  0  0  0  0
 11 12  3  0  0  0  0
 14  6  1  0  0  0  0
M  RAD  2   3   2  13   2
M  END
