Coordinates from ORCA-job Ph-N2-Cl-B3LYPG-aug-cc-pVDZ-scan-d09-49-n400
 OpenBabel11081710403D

 14 12  0  0  0  0  0  0  0  0999 V2000
   -1.6463   -1.4513   -1.3132 C   0  0  0  0  0  0  0  0  0  0  0  0
   -0.2288   -1.3902   -1.2876 C   0  0  0  0  0  0  0  0  0  0  0  0
    0.1221   -0.1722   -0.7603 C   0  0  0  0  0  0  0  0  0  0  0  0
   -0.5171    0.8223   -0.3291 C   0  0  0  0  0  0  0  0  0  0  0  0
   -1.9223    0.8027   -0.3368 C   0  0  0  0  0  0  0  0  0  0  0  0
   -2.4569   -0.3951   -0.8553 C   0  0  0  0  0  0  0  0  0  0  0  0
   -2.1143   -2.3565   -1.7050 H   0  0  0  0  0  0  0  0  0  0  0  0
    0.4112   -2.1956   -1.6368 H   0  0  0  0  0  0  0  0  0  0  0  0
    0.2481    2.4771    0.3872 H   0  0  0  0  0  0  0  0  0  0  0  0
   -2.5559    1.6154    0.0157 H   0  0  0  0  0  0  0  0  0  0  0  0
    3.6552   -1.2011   -1.2084 N   0  0  0  0  0  0  0  0  0  0  0  0
    4.6479   -0.7561   -1.0201 N   0  0  0  0  0  0  0  0  0  0  0  0
    0.6073    3.6482    0.8943 Cl  0  0  0  0  0  0  0  0  0  0  0  0
   -3.5415   -0.5076   -0.9033 H   0  0  0  0  0  0  0  0  0  0  0  0
  1  2  2  0  0  0  0
  1  6  1  0  0  0  0
  2  3  1  0  0  0  0
  3  4  2  0  0  0  0
  5  4  1  0  0  0  0
  5 10  1  0  0  0  0
  6  5  2  0  0  0  0
  7  1  1  0  0  0  0
  8  2  1  0  0  0  0
  9 13  1  0  0  0  0
 11 12  3  0  0  0  0
 14  6  1  0  0  0  0
M  RAD  2   3   2   4   2
M  END
