Coordinates from ORCA-job Ph-N2-Cl-B3LYPG-aug-cc-pVDZ-scan-d09-49-n400
 OpenBabel11081710403D

 14 12  0  0  0  0  0  0  0  0999 V2000
   -1.6304   -1.5022   -1.3353 C   0  0  0  0  0  0  0  0  0  0  0  0
   -0.2122   -1.5389   -1.3524 C   0  0  0  0  0  0  0  0  0  0  0  0
    0.2258   -0.3505   -0.8380 C   0  0  0  0  0  0  0  0  0  0  0  0
   -0.2890    0.7091   -0.3785 C   0  0  0  0  0  0  0  0  0  0  0  0
   -1.7008    0.7602   -0.3552 C   0  0  0  0  0  0  0  0  0  0  0  0
   -2.3446   -0.3893   -0.8526 C   0  0  0  0  0  0  0  0  0  0  0  0
   -2.1718   -2.3721   -1.7117 H   0  0  0  0  0  0  0  0  0  0  0  0
    0.3676   -2.3815   -1.7179 H   0  0  0  0  0  0  0  0  0  0  0  0
    0.5380    2.1795    0.2576 H   0  0  0  0  0  0  0  0  0  0  0  0
   -2.2627    1.6170    0.0164 H   0  0  0  0  0  0  0  0  0  0  0  0
    2.7961   -0.5958   -0.9463 N   0  0  0  0  0  0  0  0  0  0  0  0
    3.7532   -0.0899   -0.7289 N   0  0  0  0  0  0  0  0  0  0  0  0
    1.0750    3.3148    0.7489 Cl  0  0  0  0  0  0  0  0  0  0  0  0
   -3.4354   -0.4203   -0.8651 H   0  0  0  0  0  0  0  0  0  0  0  0
  1  6  1  0  0  0  0
  2  1  2  0  0  0  0
  2  3  1  0  0  0  0
  3  4  2  0  0  0  0
  4  5  1  0  0  0  0
  5 10  1  0  0  0  0
  6  5  2  0  0  0  0
  7  1  1  0  0  0  0
  8  2  1  0  0  0  0
  9 13  1  0  0  0  0
 11 12  3  0  0  0  0
 14  6  1  0  0  0  0
M  RAD  2   3   2   4   2
M  END
