Coordinates from ORCA-job Ph-N2-Cl-B3LYPG-aug-cc-pVDZ-scan-d09-49-n400
 OpenBabel11081710403D

 14 12  0  0  0  0  0  0  0  0999 V2000
   -1.6631   -1.4630   -1.3183 C   0  0  0  0  0  0  0  0  0  0  0  0
   -0.2452   -1.4255   -1.3029 C   0  0  0  0  0  0  0  0  0  0  0  0
    0.1318   -0.2138   -0.7783 C   0  0  0  0  0  0  0  0  0  0  0  0
   -0.4871    0.7916   -0.3424 C   0  0  0  0  0  0  0  0  0  0  0  0
   -1.8927    0.7954   -0.3399 C   0  0  0  0  0  0  0  0  0  0  0  0
   -2.4517   -0.3928   -0.8542 C   0  0  0  0  0  0  0  0  0  0  0  0
   -2.1494   -2.3600   -1.7065 H   0  0  0  0  0  0  0  0  0  0  0  0
    0.3835   -2.2384   -1.6554 H   0  0  0  0  0  0  0  0  0  0  0  0
    0.3085    2.4308    0.3671 H   0  0  0  0  0  0  0  0  0  0  0  0
   -2.5095    1.6189    0.0172 H   0  0  0  0  0  0  0  0  0  0  0  0
    3.5769   -1.0950   -1.1625 N   0  0  0  0  0  0  0  0  0  0  0  0
    4.5515   -0.6173   -0.9597 N   0  0  0  0  0  0  0  0  0  0  0  0
    0.6936    3.5954    0.8712 Cl  0  0  0  0  0  0  0  0  0  0  0  0
   -3.5385   -0.4863   -0.8941 H   0  0  0  0  0  0  0  0  0  0  0  0
  1  2  2  0  0  0  0
  1  6  1  0  0  0  0
  2  3  1  0  0  0  0
  3  4  2  0  0  0  0
  4  5  1  0  0  0  0
  5 10  1  0  0  0  0
  6  5  2  0  0  0  0
  7  1  1  0  0  0  0
  8  2  1  0  0  0  0
  9 13  1  0  0  0  0
 11 12  3  0  0  0  0
 14  6  1  0  0  0  0
M  RAD  2   3   2   4   2
M  END
