Coordinates from ORCA-job Ph-N2-Cl-B3LYPG-aug-cc-pVDZ-scan-d09-49-n400
 OpenBabel11081710403D

 14 13  0  0  0  0  0  0  0  0999 V2000
   -1.5466   -1.4991   -1.3340 C   0  0  0  0  0  0  0  0  0  0  0  0
   -0.1493   -1.4152   -1.2990 C   0  0  0  0  0  0  0  0  0  0  0  0
    0.3705   -0.2410   -0.7909 C   0  0  0  0  0  0  0  0  0  0  0  0
   -0.3263    0.8498   -0.3176 C   0  0  0  0  0  0  0  0  0  0  0  0
   -1.7235    0.7292   -0.3685 C   0  0  0  0  0  0  0  0  0  0  0  0
   -2.3243   -0.4309   -0.8705 C   0  0  0  0  0  0  0  0  0  0  0  0
   -2.0210   -2.3995   -1.7236 H   0  0  0  0  0  0  0  0  0  0  0  0
    0.4946   -2.2193   -1.6480 H   0  0  0  0  0  0  0  0  0  0  0  0
    0.1911    1.7289    0.0627 H   0  0  0  0  0  0  0  0  0  0  0  0
   -2.3372    1.5555   -0.0100 H   0  0  0  0  0  0  0  0  0  0  0  0
    2.1125   -0.2207   -0.7838 N   0  0  0  0  0  0  0  0  0  0  0  0
    2.9382    0.5180   -0.4645 N   0  0  0  0  0  0  0  0  0  0  0  0
    2.4415    2.4884    0.3902 Cl  0  0  0  0  0  0  0  0  0  0  0  0
   -3.4115   -0.5040   -0.9012 H   0  0  0  0  0  0  0  0  0  0  0  0
  1  2  2  0  0  0  0
  1  6  1  0  0  0  0
  2  3  1  0  0  0  0
  3 11  1  0  0  0  0
  3  4  2  0  0  0  0
  4  9  1  0  0  0  0
  5  4  1  0  0  0  0
  5 10  1  0  0  0  0
  6  5  2  0  0  0  0
  7  1  1  0  0  0  0
  8  2  1  0  0  0  0
 11 12  2  0  0  0  0
 14  6  1  0  0  0  0
M  RAD  2  12   2  13   2
M  END
