Coordinates from ORCA-job Ph-N2-Cl-B3LYPG-aug-cc-pVDZ-scan-d09-49-n400
 OpenBabel11081710403D

 14 12  0  0  0  0  0  0  0  0999 V2000
   -1.6550   -1.4576   -1.3160 C   0  0  0  0  0  0  0  0  0  0  0  0
   -0.2371   -1.4093   -1.2959 C   0  0  0  0  0  0  0  0  0  0  0  0
    0.1275   -0.1946   -0.7700 C   0  0  0  0  0  0  0  0  0  0  0  0
   -0.5010    0.8056   -0.3363 C   0  0  0  0  0  0  0  0  0  0  0  0
   -1.9064    0.7989   -0.3384 C   0  0  0  0  0  0  0  0  0  0  0  0
   -2.4540   -0.3939   -0.8548 C   0  0  0  0  0  0  0  0  0  0  0  0
   -2.1329   -2.3584   -1.7059 H   0  0  0  0  0  0  0  0  0  0  0  0
    0.3958   -2.2195   -1.6472 H   0  0  0  0  0  0  0  0  0  0  0  0
    0.2811    2.4529    0.3767 H   0  0  0  0  0  0  0  0  0  0  0  0
   -2.5311    1.6174    0.0166 H   0  0  0  0  0  0  0  0  0  0  0  0
    3.6132   -1.1459   -1.1845 N   0  0  0  0  0  0  0  0  0  0  0  0
    4.5943   -0.6797   -0.9869 N   0  0  0  0  0  0  0  0  0  0  0  0
    0.6539    3.6205    0.8821 Cl  0  0  0  0  0  0  0  0  0  0  0  0
   -3.5398   -0.4964   -0.8985 H   0  0  0  0  0  0  0  0  0  0  0  0
  1  2  2  0  0  0  0
  1  6  1  0  0  0  0
  2  3  1  0  0  0  0
  3  4  2  0  0  0  0
  5  4  1  0  0  0  0
  5 10  1  0  0  0  0
  6  5  2  0  0  0  0
  7  1  1  0  0  0  0
  8  2  1  0  0  0  0
  9 13  1  0  0  0  0
 11 12  3  0  0  0  0
 14  6  1  0  0  0  0
M  RAD  2   3   2   4   2
M  END
