Coordinates from ORCA-job Ph-N2-Cl-B3LYPG-aug-cc-pVDZ-scan-d09-49-n400
 OpenBabel11081710403D

 14 12  0  0  0  0  0  0  0  0999 V2000
   -1.6525   -1.4558   -1.3152 C   0  0  0  0  0  0  0  0  0  0  0  0
   -0.2346   -1.4038   -1.2935 C   0  0  0  0  0  0  0  0  0  0  0  0
    0.1260   -0.1882   -0.7672 C   0  0  0  0  0  0  0  0  0  0  0  0
   -0.5056    0.8105   -0.3342 C   0  0  0  0  0  0  0  0  0  0  0  0
   -1.9110    0.8000   -0.3379 C   0  0  0  0  0  0  0  0  0  0  0  0
   -2.4548   -0.3943   -0.8549 C   0  0  0  0  0  0  0  0  0  0  0  0
   -2.1275   -2.3578   -1.7056 H   0  0  0  0  0  0  0  0  0  0  0  0
    0.4000   -2.2128   -1.6443 H   0  0  0  0  0  0  0  0  0  0  0  0
    0.2717    2.4599    0.3797 H   0  0  0  0  0  0  0  0  0  0  0  0
   -2.5382    1.6169    0.0163 H   0  0  0  0  0  0  0  0  0  0  0  0
    3.6253   -1.1617   -1.1914 N   0  0  0  0  0  0  0  0  0  0  0  0
    4.6098   -0.7016   -0.9964 N   0  0  0  0  0  0  0  0  0  0  0  0
    0.6406    3.6285    0.8857 Cl  0  0  0  0  0  0  0  0  0  0  0  0
   -3.5403   -0.4996   -0.8999 H   0  0  0  0  0  0  0  0  0  0  0  0
  1  2  2  0  0  0  0
  1  6  1  0  0  0  0
  2  3  1  0  0  0  0
  3  4  2  0  0  0  0
  5  4  1  0  0  0  0
  5 10  1  0  0  0  0
  6  5  2  0  0  0  0
  7  1  1  0  0  0  0
  8  2  1  0  0  0  0
  9 13  1  0  0  0  0
 11 12  3  0  0  0  0
 14  6  1  0  0  0  0
M  RAD  2   3   2   4   2
M  END
