Coordinates from ORCA-job Ph-N2-Cl-B3LYPG-aug-cc-pVDZ-scan-d09-49-n400
 OpenBabel11081710403D

 14 13  0  0  0  0  0  0  0  0999 V2000
   -1.4864   -1.4904   -1.3313 C   0  0  0  0  0  0  0  0  0  0  0  0
   -0.1031   -1.3836   -1.2852 C   0  0  0  0  0  0  0  0  0  0  0  0
    0.5111   -0.2077   -0.7752 C   0  0  0  0  0  0  0  0  0  0  0  0
   -0.3083    0.8614   -0.3110 C   0  0  0  0  0  0  0  0  0  0  0  0
   -1.6918    0.7332   -0.3660 C   0  0  0  0  0  0  0  0  0  0  0  0
   -2.2819   -0.4321   -0.8717 C   0  0  0  0  0  0  0  0  0  0  0  0
   -1.9490   -2.3953   -1.7239 H   0  0  0  0  0  0  0  0  0  0  0  0
    0.5379   -2.1922   -1.6361 H   0  0  0  0  0  0  0  0  0  0  0  0
    0.1762    1.7556    0.0768 H   0  0  0  0  0  0  0  0  0  0  0  0
   -2.3186    1.5509   -0.0109 H   0  0  0  0  0  0  0  0  0  0  0  0
    1.7508   -0.1589   -0.7544 N   0  0  0  0  0  0  0  0  0  0  0  0
    2.7417    0.4105   -0.5100 N   0  0  0  0  0  0  0  0  0  0  0  0
    2.4986    2.4057    0.3483 Cl  0  0  0  0  0  0  0  0  0  0  0  0
   -3.3684   -0.5171   -0.9083 H   0  0  0  0  0  0  0  0  0  0  0  0
  1  2  2  0  0  0  0
  1  6  1  0  0  0  0
  2  3  1  0  0  0  0
  3 11  1  0  0  0  0
  3  4  2  0  0  0  0
  4  9  1  0  0  0  0
  5  4  1  0  0  0  0
  5 10  1  0  0  0  0
  6  5  2  0  0  0  0
  7  1  1  0  0  0  0
  8  2  1  0  0  0  0
 11 12  2  0  0  0  0
 14  6  1  0  0  0  0
M  RAD  2  12   2  13   2
M  END
