Coordinates from ORCA-job Ph-N2-Cl-B3LYPG-aug-cc-pVDZ-scan-d09-49-n400
 OpenBabel11081710403D

 14 12  0  0  0  0  0  0  0  0999 V2000
   -1.5916   -1.5092   -1.3385 C   0  0  0  0  0  0  0  0  0  0  0  0
   -0.1846   -1.4760   -1.3253 C   0  0  0  0  0  0  0  0  0  0  0  0
    0.3083   -0.3055   -0.8185 C   0  0  0  0  0  0  0  0  0  0  0  0
   -0.2884    0.8130   -0.3333 C   0  0  0  0  0  0  0  0  0  0  0  0
   -1.6967    0.7282   -0.3689 C   0  0  0  0  0  0  0  0  0  0  0  0
   -2.3303   -0.4171   -0.8647 C   0  0  0  0  0  0  0  0  0  0  0  0
   -2.0948   -2.3967   -1.7227 H   0  0  0  0  0  0  0  0  0  0  0  0
    0.4371   -2.2937   -1.6802 H   0  0  0  0  0  0  0  0  0  0  0  0
    0.2865    1.6735    0.0390 H   0  0  0  0  0  0  0  0  0  0  0  0
   -2.2801    1.5729   -0.0023 H   0  0  0  0  0  0  0  0  0  0  0  0
    2.2790   -0.2243   -0.7851 N   0  0  0  0  0  0  0  0  0  0  0  0
    3.0115    0.5697   -0.4419 N   0  0  0  0  0  0  0  0  0  0  0  0
    2.2719    2.6663    0.4664 Cl  0  0  0  0  0  0  0  0  0  0  0  0
   -3.4191   -0.4611   -0.8828 H   0  0  0  0  0  0  0  0  0  0  0  0
  1  2  2  0  0  0  0
  1  6  1  0  0  0  0
  2  3  1  0  0  0  0
  3  4  2  0  0  0  0
  4  9  1  0  0  0  0
  5  4  1  0  0  0  0
  5 10  1  0  0  0  0
  6  5  2  0  0  0  0
  7  1  1  0  0  0  0
  8  2  1  0  0  0  0
 11 12  3  0  0  0  0
 14  6  1  0  0  0  0
M  RAD  2   3   2  13   2
M  END
