Coordinates from ORCA-job Ph-N2-Cl-B3LYPG-aug-cc-pVDZ-scan-d09-49-n400
 OpenBabel11081710403D

 14 14  0  0  0  0  0  0  0  0999 V2000
   -1.5060   -1.4919   -1.3311 C   0  0  0  0  0  0  0  0  0  0  0  0
   -0.1174   -1.3893   -1.2878 C   0  0  0  0  0  0  0  0  0  0  0  0
    0.4598   -0.2165   -0.7801 C   0  0  0  0  0  0  0  0  0  0  0  0
   -0.3134    0.8576   -0.3140 C   0  0  0  0  0  0  0  0  0  0  0  0
   -1.7022    0.7319   -0.3673 C   0  0  0  0  0  0  0  0  0  0  0  0
   -2.2963   -0.4315   -0.8709 C   0  0  0  0  0  0  0  0  0  0  0  0
   -1.9714   -2.3959   -1.7224 H   0  0  0  0  0  0  0  0  0  0  0  0
    0.5257   -2.1953   -1.6377 H   0  0  0  0  0  0  0  0  0  0  0  0
    0.1768    1.7481    0.0714 H   0  0  0  0  0  0  0  0  0  0  0  0
   -2.3247    1.5524   -0.0112 H   0  0  0  0  0  0  0  0  0  0  0  0
    1.8809   -0.1918   -0.7707 N   0  0  0  0  0  0  0  0  0  0  0  0
    2.8052    0.4605   -0.4890 N   0  0  0  0  0  0  0  0  0  0  0  0
    2.4748    2.4144    0.3572 Cl  0  0  0  0  0  0  0  0  0  0  0  0
   -3.3831   -0.5128   -0.9052 H   0  0  0  0  0  0  0  0  0  0  0  0
  1  2  2  0  0  0  0
  1  6  1  0  0  0  0
  2  3  1  0  0  0  0
  3 11  1  0  0  0  0
  3  4  2  0  0  0  0
  4  9  1  0  0  0  0
  5  4  1  0  0  0  0
  5 10  1  0  0  0  0
  6  5  2  0  0  0  0
  7  1  1  0  0  0  0
  8  2  1  0  0  0  0
 11 12  2  0  0  0  0
 12 13  1  0  0  0  0
 14  6  1  0  0  0  0
M  END
