Coordinates from ORCA-job Ph-N2-Cl-B3LYPG-aug-cc-pVDZ-scan-d09-49-n400
 OpenBabel11081710403D

 14 12  0  0  0  0  0  0  0  0999 V2000
   -1.6270   -1.5039   -1.3360 C   0  0  0  0  0  0  0  0  0  0  0  0
   -0.2095   -1.5442   -1.3547 C   0  0  0  0  0  0  0  0  0  0  0  0
    0.2338   -0.3575   -0.8410 C   0  0  0  0  0  0  0  0  0  0  0  0
   -0.2754    0.7053   -0.3802 C   0  0  0  0  0  0  0  0  0  0  0  0
   -1.6876    0.7582   -0.3561 C   0  0  0  0  0  0  0  0  0  0  0  0
   -2.3367   -0.3884   -0.8522 C   0  0  0  0  0  0  0  0  0  0  0  0
   -2.1716   -2.3721   -1.7117 H   0  0  0  0  0  0  0  0  0  0  0  0
    0.3689   -2.3878   -1.7206 H   0  0  0  0  0  0  0  0  0  0  0  0
    0.5478    2.1626    0.2503 H   0  0  0  0  0  0  0  0  0  0  0  0
   -2.2461    1.6170    0.0164 H   0  0  0  0  0  0  0  0  0  0  0  0
    2.7470   -0.5723   -0.9360 N   0  0  0  0  0  0  0  0  0  0  0  0
    3.6991   -0.0584   -0.7152 N   0  0  0  0  0  0  0  0  0  0  0  0
    1.0937    3.2971    0.7412 Cl  0  0  0  0  0  0  0  0  0  0  0  0
   -3.4276   -0.4155   -0.8630 H   0  0  0  0  0  0  0  0  0  0  0  0
  1  6  1  0  0  0  0
  2  1  2  0  0  0  0
  2  3  1  0  0  0  0
  3  4  2  0  0  0  0
  4  5  1  0  0  0  0
  5 10  1  0  0  0  0
  6  5  2  0  0  0  0
  7  1  1  0  0  0  0
  8  2  1  0  0  0  0
  9 13  1  0  0  0  0
 11 12  3  0  0  0  0
 14  6  1  0  0  0  0
M  RAD  2   3   2   4   2
M  END
