Coordinates from ORCA-job Ph-N2-Cl-B3LYPG-aug-cc-pVDZ-scan-d09-49-n400
 OpenBabel11081710403D

 14 12  0  0  0  0  0  0  0  0999 V2000
   -1.5944   -1.4140   -1.2971 C   0  0  0  0  0  0  0  0  0  0  0  0
   -0.1827   -1.2817   -1.2406 C   0  0  0  0  0  0  0  0  0  0  0  0
    0.0935   -0.0469   -0.7060 C   0  0  0  0  0  0  0  0  0  0  0  0
   -0.6058    0.9129   -0.2899 C   0  0  0  0  0  0  0  0  0  0  0  0
   -2.0075    0.8222   -0.3283 C   0  0  0  0  0  0  0  0  0  0  0  0
   -2.4681   -0.4011   -0.8579 C   0  0  0  0  0  0  0  0  0  0  0  0
   -2.0073   -2.3416   -1.6986 H   0  0  0  0  0  0  0  0  0  0  0  0
    0.5057   -2.0528   -1.5751 H   0  0  0  0  0  0  0  0  0  0  0  0
    0.0621    2.6066    0.4436 H   0  0  0  0  0  0  0  0  0  0  0  0
   -2.6895    1.6013    0.0096 H   0  0  0  0  0  0  0  0  0  0  0  0
    3.8787   -1.5107   -1.3429 N   0  0  0  0  0  0  0  0  0  0  0  0
    4.9227   -1.1793   -1.2038 N   0  0  0  0  0  0  0  0  0  0  0  0
    0.3455    3.7946    0.9582 Cl  0  0  0  0  0  0  0  0  0  0  0  0
   -3.5441   -0.5694   -0.9301 H   0  0  0  0  0  0  0  0  0  0  0  0
  1  2  2  0  0  0  0
  1  6  1  0  0  0  0
  2  3  1  0  0  0  0
  3  4  2  0  0  0  0
  5  4  1  0  0  0  0
  5 10  1  0  0  0  0
  6  5  2  0  0  0  0
  7  1  1  0  0  0  0
  8  2  1  0  0  0  0
  9 13  1  0  0  0  0
 11 12  3  0  0  0  0
 14  6  1  0  0  0  0
M  RAD  2   3   2   4   2
M  END
