Coordinates from ORCA-job Ph-N2-Cl-B3LYPG-aug-cc-pVDZ-scan-d09-49-n400
 OpenBabel11081710403D

 14 12  0  0  0  0  0  0  0  0999 V2000
   -1.6678   -1.4743   -1.3232 C   0  0  0  0  0  0  0  0  0  0  0  0
   -0.2494   -1.4579   -1.3170 C   0  0  0  0  0  0  0  0  0  0  0  0
    0.1449   -0.2516   -0.7947 C   0  0  0  0  0  0  0  0  0  0  0  0
   -0.4503    0.7661   -0.3535 C   0  0  0  0  0  0  0  0  0  0  0  0
   -1.8569    0.7872   -0.3434 C   0  0  0  0  0  0  0  0  0  0  0  0
   -2.4372   -0.3921   -0.8539 C   0  0  0  0  0  0  0  0  0  0  0  0
   -2.1701   -2.3639   -1.7082 H   0  0  0  0  0  0  0  0  0  0  0  0
    0.3672   -2.2784   -1.6728 H   0  0  0  0  0  0  0  0  0  0  0  0
    0.3686    2.3839    0.3466 H   0  0  0  0  0  0  0  0  0  0  0  0
   -2.4597    1.6196    0.0175 H   0  0  0  0  0  0  0  0  0  0  0  0
    3.4401   -0.9663   -1.1068 N   0  0  0  0  0  0  0  0  0  0  0  0
    4.4239   -0.5045   -0.9104 N   0  0  0  0  0  0  0  0  0  0  0  0
    0.7807    3.5419    0.8478 Cl  0  0  0  0  0  0  0  0  0  0  0  0
   -3.5254   -0.4695   -0.8868 H   0  0  0  0  0  0  0  0  0  0  0  0
  1  2  2  0  0  0  0
  1  6  1  0  0  0  0
  2  3  1  0  0  0  0
  3  4  2  0  0  0  0
  4  5  1  0  0  0  0
  5 10  1  0  0  0  0
  6  5  2  0  0  0  0
  7  1  1  0  0  0  0
  8  2  1  0  0  0  0
  9 13  1  0  0  0  0
 11 12  3  0  0  0  0
 14  6  1  0  0  0  0
M  RAD  2   3   2   4   2
M  END
