Coordinates from ORCA-job Ph-N2-Cl-B3LYPG-aug-cc-pVDZ-scan-d09-49-n400
 OpenBabel11081710403D

 14 12  0  0  0  0  0  0  0  0999 V2000
   -1.5782   -1.4031   -1.2924 C   0  0  0  0  0  0  0  0  0  0  0  0
   -0.1689   -1.2505   -1.2272 C   0  0  0  0  0  0  0  0  0  0  0  0
    0.0864   -0.0118   -0.6908 C   0  0  0  0  0  0  0  0  0  0  0  0
   -0.6296    0.9375   -0.2791 C   0  0  0  0  0  0  0  0  0  0  0  0
   -2.0296    0.8269   -0.3262 C   0  0  0  0  0  0  0  0  0  0  0  0
   -2.4691   -0.4029   -0.8586 C   0  0  0  0  0  0  0  0  0  0  0  0
   -1.9752   -2.3364   -1.6964 H   0  0  0  0  0  0  0  0  0  0  0  0
    0.5324   -2.0118   -1.5574 H   0  0  0  0  0  0  0  0  0  0  0  0
    0.0103    2.6411    0.4586 H   0  0  0  0  0  0  0  0  0  0  0  0
   -2.7248    1.5961    0.0074 H   0  0  0  0  0  0  0  0  0  0  0  0
    3.9346   -1.5960   -1.3801 N   0  0  0  0  0  0  0  0  0  0  0  0
    4.9896   -1.2954   -1.2540 N   0  0  0  0  0  0  0  0  0  0  0  0
    0.2729    3.8331    0.9750 Cl  0  0  0  0  0  0  0  0  0  0  0  0
   -3.5422   -0.5867   -0.9376 H   0  0  0  0  0  0  0  0  0  0  0  0
  1  2  2  0  0  0  0
  1  6  1  0  0  0  0
  2  3  1  0  0  0  0
  3  4  2  0  0  0  0
  5  4  1  0  0  0  0
  5 10  1  0  0  0  0
  6  5  2  0  0  0  0
  7  1  1  0  0  0  0
  8  2  1  0  0  0  0
  9 13  1  0  0  0  0
 11 12  3  0  0  0  0
 14  6  1  0  0  0  0
M  RAD  2   3   2   4   2
M  END
