Coordinates from ORCA-job Ph-N2-Cl-B3LYPG-aug-cc-pVDZ-scan-d09-49-n400
 OpenBabel11081710403D

 14 12  0  0  0  0  0  0  0  0999 V2000
   -1.6426   -1.4913   -1.3305 C   0  0  0  0  0  0  0  0  0  0  0  0
   -0.2233   -1.5042   -1.3372 C   0  0  0  0  0  0  0  0  0  0  0  0
    0.1929   -0.3071   -0.8190 C   0  0  0  0  0  0  0  0  0  0  0  0
   -0.3615    0.7319   -0.3686 C   0  0  0  0  0  0  0  0  0  0  0  0
   -1.7702    0.7717   -0.3502 C   0  0  0  0  0  0  0  0  0  0  0  0
   -2.3835   -0.3930   -0.8542 C   0  0  0  0  0  0  0  0  0  0  0  0
   -2.1659   -2.3706   -1.7110 H   0  0  0  0  0  0  0  0  0  0  0  0
    0.3706   -2.3385   -1.6990 H   0  0  0  0  0  0  0  0  0  0  0  0
    0.4691    2.2861    0.3040 H   0  0  0  0  0  0  0  0  0  0  0  0
   -2.3517    1.6171    0.0164 H   0  0  0  0  0  0  0  0  0  0  0  0
    3.0577   -0.7483   -1.0125 N   0  0  0  0  0  0  0  0  0  0  0  0
    4.0476   -0.2988   -0.8200 N   0  0  0  0  0  0  0  0  0  0  0  0
    0.9429    3.4313    0.7998 Cl  0  0  0  0  0  0  0  0  0  0  0  0
   -3.4733   -0.4464   -0.8765 H   0  0  0  0  0  0  0  0  0  0  0  0
  1  6  1  0  0  0  0
  2  1  2  0  0  0  0
  2  3  1  0  0  0  0
  3  4  2  0  0  0  0
  4  5  1  0  0  0  0
  5 10  1  0  0  0  0
  6  5  2  0  0  0  0
  7  1  1  0  0  0  0
  8  2  1  0  0  0  0
  9 13  1  0  0  0  0
 11 12  3  0  0  0  0
 14  6  1  0  0  0  0
M  RAD  2   3   2   4   2
M  END
