Coordinates from ORCA-job Ph-N2-Cl-B3LYPG-aug-cc-pVDZ-scan-d09-49-n400
 OpenBabel11081710403D

 14 13  0  0  0  0  0  0  0  0999 V2000
   -1.5450   -1.4986   -1.3338 C   0  0  0  0  0  0  0  0  0  0  0  0
   -0.1480   -1.4143   -1.2986 C   0  0  0  0  0  0  0  0  0  0  0  0
    0.3740   -0.2403   -0.7906 C   0  0  0  0  0  0  0  0  0  0  0  0
   -0.3249    0.8501   -0.3175 C   0  0  0  0  0  0  0  0  0  0  0  0
   -1.7219    0.7297   -0.3683 C   0  0  0  0  0  0  0  0  0  0  0  0
   -2.3228   -0.4304   -0.8703 C   0  0  0  0  0  0  0  0  0  0  0  0
   -2.0194   -2.3989   -1.7234 H   0  0  0  0  0  0  0  0  0  0  0  0
    0.4958   -2.2185   -1.6477 H   0  0  0  0  0  0  0  0  0  0  0  0
    0.1916    1.7295    0.0630 H   0  0  0  0  0  0  0  0  0  0  0  0
   -2.3357    1.5559   -0.0099 H   0  0  0  0  0  0  0  0  0  0  0  0
    2.1059   -0.2207   -0.7838 N   0  0  0  0  0  0  0  0  0  0  0  0
    2.9334    0.5169   -0.4649 N   0  0  0  0  0  0  0  0  0  0  0  0
    2.4358    2.4830    0.3879 Cl  0  0  0  0  0  0  0  0  0  0  0  0
   -3.4100   -0.5035   -0.9009 H   0  0  0  0  0  0  0  0  0  0  0  0
  1  2  2  0  0  0  0
  1  6  1  0  0  0  0
  2  3  1  0  0  0  0
  3 11  1  0  0  0  0
  3  4  2  0  0  0  0
  4  9  1  0  0  0  0
  5  4  1  0  0  0  0
  5 10  1  0  0  0  0
  6  5  2  0  0  0  0
  7  1  1  0  0  0  0
  8  2  1  0  0  0  0
 11 12  2  0  0  0  0
 14  6  1  0  0  0  0
M  RAD  2  12   2  13   2
M  END
