Coordinates from ORCA-job Ph-N2-Cl-B3LYPG-aug-cc-pVDZ-scan-d09-49-n400
 OpenBabel11081710403D

 14 12  0  0  0  0  0  0  0  0999 V2000
   -1.4613   -1.3343   -1.2628 C   0  0  0  0  0  0  0  0  0  0  0  0
   -0.0743   -1.0611   -1.1454 C   0  0  0  0  0  0  0  0  0  0  0  0
    0.0572    0.1950   -0.6012 C   0  0  0  0  0  0  0  0  0  0  0  0
   -0.7587    1.0732   -0.2202 C   0  0  0  0  0  0  0  0  0  0  0  0
   -2.1409    0.8463   -0.3176 C   0  0  0  0  0  0  0  0  0  0  0  0
   -2.4516   -0.4162   -0.8643 C   0  0  0  0  0  0  0  0  0  0  0  0
   -1.7608   -2.2978   -1.6800 H   0  0  0  0  0  0  0  0  0  0  0  0
    0.6994   -1.7611   -1.4492 H   0  0  0  0  0  0  0  0  0  0  0  0
   -0.2898    2.8349    0.5428 H   0  0  0  0  0  0  0  0  0  0  0  0
   -2.9114    1.5522   -0.0112 H   0  0  0  0  0  0  0  0  0  0  0  0
    4.1802   -2.0764   -1.5892 N   0  0  0  0  0  0  0  0  0  0  0  0
    5.2779   -1.9660   -1.5440 N   0  0  0  0  0  0  0  0  0  0  0  0
   -0.1562    4.0436    1.0665 Cl  0  0  0  0  0  0  0  0  0  0  0  0
   -3.5009   -0.6922   -0.9832 H   0  0  0  0  0  0  0  0  0  0  0  0
  1  2  2  0  0  0  0
  1  6  1  0  0  0  0
  2  3  1  0  0  0  0
  3  4  2  0  0  0  0
  5  4  1  0  0  0  0
  5 10  1  0  0  0  0
  6  5  2  0  0  0  0
  7  1  1  0  0  0  0
  8  2  1  0  0  0  0
  9 13  1  0  0  0  0
 11 12  3  0  0  0  0
 14  6  1  0  0  0  0
M  RAD  2   3   2   4   2
M  END
