Coordinates from ORCA-job Ph-N2-Cl-B3LYPG-aug-cc-pVDZ-scan-d09-49-n400
 OpenBabel11081710403D

 14 12  0  0  0  0  0  0  0  0999 V2000
   -1.6052   -1.5102   -1.3389 C   0  0  0  0  0  0  0  0  0  0  0  0
   -0.1954   -1.5095   -1.3398 C   0  0  0  0  0  0  0  0  0  0  0  0
    0.3007   -0.3431   -0.8349 C   0  0  0  0  0  0  0  0  0  0  0  0
   -0.2460    0.7860   -0.3452 C   0  0  0  0  0  0  0  0  0  0  0  0
   -1.6592    0.7309   -0.3678 C   0  0  0  0  0  0  0  0  0  0  0  0
   -2.3175   -0.4027   -0.8584 C   0  0  0  0  0  0  0  0  0  0  0  0
   -2.1286   -2.3880   -1.7188 H   0  0  0  0  0  0  0  0  0  0  0  0
    0.4076   -2.3386   -1.6996 H   0  0  0  0  0  0  0  0  0  0  0  0
    0.3623    1.6418    0.0251 H   0  0  0  0  0  0  0  0  0  0  0  0
   -2.2206    1.5883    0.0042 H   0  0  0  0  0  0  0  0  0  0  0  0
    2.3097   -0.2300   -0.7877 N   0  0  0  0  0  0  0  0  0  0  0  0
    3.0031    0.5846   -0.4355 N   0  0  0  0  0  0  0  0  0  0  0  0
    2.1049    2.7565    0.5059 Cl  0  0  0  0  0  0  0  0  0  0  0  0
   -3.4071   -0.4260   -0.8675 H   0  0  0  0  0  0  0  0  0  0  0  0
  1  6  1  0  0  0  0
  2  1  2  0  0  0  0
  2  3  1  0  0  0  0
  3  4  2  0  0  0  0
  4  9  1  0  0  0  0
  5  4  1  0  0  0  0
  5 10  1  0  0  0  0
  6  5  2  0  0  0  0
  7  1  1  0  0  0  0
  8  2  1  0  0  0  0
 11 12  3  0  0  0  0
 14  6  1  0  0  0  0
M  RAD  2   3   2  13   2
M  END
