Coordinates from ORCA-job Ph-N2-Cl-B3LYPG-aug-cc-pVDZ-scan-d09-49-n400
 OpenBabel11081710403D

 14 14  0  0  0  0  0  0  0  0999 V2000
   -1.3456   -1.4892   -1.0345 C   0  0  0  0  0  0  0  0  0  0  0  0
    0.0044   -1.2277   -1.0907 C   0  0  0  0  0  0  0  0  0  0  0  0
    0.5567    0.1508   -0.9222 C   0  0  0  0  0  0  0  0  0  0  0  0
   -0.5161    1.1672   -0.6940 C   0  0  0  0  0  0  0  0  0  0  0  0
   -1.8499    0.8305   -0.6586 C   0  0  0  0  0  0  0  0  0  0  0  0
   -2.3000   -0.4858   -0.8235 C   0  0  0  0  0  0  0  0  0  0  0  0
   -1.6617   -2.5259   -1.1624 H   0  0  0  0  0  0  0  0  0  0  0  0
    0.7603   -1.9954   -1.2466 H   0  0  0  0  0  0  0  0  0  0  0  0
   -0.1464    2.1835   -0.5702 H   0  0  0  0  0  0  0  0  0  0  0  0
   -2.5665    1.6366   -0.4920 H   0  0  0  0  0  0  0  0  0  0  0  0
    1.4351    0.3463   -0.9397 N   0  0  0  0  0  0  0  0  0  0  0  0
    2.5885    0.6062   -0.8643 N   0  0  0  0  0  0  0  0  0  0  0  0
    3.1111    0.4648    1.2294 Cl  0  0  0  0  0  0  0  0  0  0  0  0
   -3.3611   -0.7220   -0.7894 H   0  0  0  0  0  0  0  0  0  0  0  0
  1  6  1  0  0  0  0
  2  1  2  0  0  0  0
  2  3  1  0  0  0  0
  3  4  2  0  0  0  0
  4  5  1  0  0  0  0
  4  9  1  0  0  0  0
  5 10  1  0  0  0  0
  6 14  1  0  0  0  0
  6  5  2  0  0  0  0
  7  1  1  0  0  0  0
  8  2  1  0  0  0  0
 11  3  1  0  0  0  0
 11 12  1  0  0  0  0
 12 13  1  0  0  0  0
M  RAD  2  11   2  12   2
M  END
