Coordinates from ORCA-job Ph-N2-Cl-B3LYPG-aug-cc-pVDZ-scan-d09-49-n400
 OpenBabel11081710403D

 14 12  0  0  0  0  0  0  0  0999 V2000
   -1.5537   -1.3874   -1.2856 C   0  0  0  0  0  0  0  0  0  0  0  0
   -0.1484   -1.2063   -1.2081 C   0  0  0  0  0  0  0  0  0  0  0  0
    0.0772    0.0374   -0.6695 C   0  0  0  0  0  0  0  0  0  0  0  0
   -0.6619    0.9715   -0.2643 C   0  0  0  0  0  0  0  0  0  0  0  0
   -2.0589    0.8328   -0.3236 C   0  0  0  0  0  0  0  0  0  0  0  0
   -2.4686   -0.4056   -0.8598 C   0  0  0  0  0  0  0  0  0  0  0  0
   -1.9281   -2.3286   -1.6931 H   0  0  0  0  0  0  0  0  0  0  0  0
    0.5707   -1.9535   -1.5322 H   0  0  0  0  0  0  0  0  0  0  0  0
   -0.0618    2.6886    0.4792 H   0  0  0  0  0  0  0  0  0  0  0  0
   -2.7725    1.5877    0.0039 H   0  0  0  0  0  0  0  0  0  0  0  0
    4.0060   -1.7144   -1.4317 N   0  0  0  0  0  0  0  0  0  0  0  0
    5.0742   -1.4566   -1.3236 N   0  0  0  0  0  0  0  0  0  0  0  0
    0.1713    3.8856    0.9977 Cl  0  0  0  0  0  0  0  0  0  0  0  0
   -3.5369   -0.6112   -0.9481 H   0  0  0  0  0  0  0  0  0  0  0  0
  1  2  2  0  0  0  0
  1  6  1  0  0  0  0
  2  3  1  0  0  0  0
  3  4  2  0  0  0  0
  5  4  1  0  0  0  0
  5 10  1  0  0  0  0
  6  5  2  0  0  0  0
  7  1  1  0  0  0  0
  8  2  1  0  0  0  0
  9 13  1  0  0  0  0
 11 12  3  0  0  0  0
 14  6  1  0  0  0  0
M  RAD  2   3   2   4   2
M  END
