Coordinates from ORCA-job Ph-N2-Cl-B3LYPG-aug-cc-pVDZ-scan-d09-49-n400
 OpenBabel11081710403D

 14 13  0  0  0  0  0  0  0  0999 V2000
   -1.5768   -1.5063   -1.3373 C   0  0  0  0  0  0  0  0  0  0  0  0
   -0.1729   -1.4508   -1.3144 C   0  0  0  0  0  0  0  0  0  0  0  0
    0.3231   -0.2777   -0.8065 C   0  0  0  0  0  0  0  0  0  0  0  0
   -0.3112    0.8306   -0.3257 C   0  0  0  0  0  0  0  0  0  0  0  0
   -1.7155    0.7277   -0.3691 C   0  0  0  0  0  0  0  0  0  0  0  0
   -2.3332   -0.4249   -0.8680 C   0  0  0  0  0  0  0  0  0  0  0  0
   -2.0667   -2.3999   -1.7241 H   0  0  0  0  0  0  0  0  0  0  0  0
    0.4602   -2.2613   -1.6662 H   0  0  0  0  0  0  0  0  0  0  0  0
    0.2387    1.6986    0.0499 H   0  0  0  0  0  0  0  0  0  0  0  0
   -2.3131    1.5640   -0.0061 H   0  0  0  0  0  0  0  0  0  0  0  0
    2.2348   -0.2241   -0.7849 N   0  0  0  0  0  0  0  0  0  0  0  0
    3.0008    0.5507   -0.4501 N   0  0  0  0  0  0  0  0  0  0  0  0
    2.3618    2.5958    0.4357 Cl  0  0  0  0  0  0  0  0  0  0  0  0
   -3.4213   -0.4824   -0.8920 H   0  0  0  0  0  0  0  0  0  0  0  0
  1  2  2  0  0  0  0
  1  6  1  0  0  0  0
  2  3  1  0  0  0  0
  3 11  1  0  0  0  0
  3  4  2  0  0  0  0
  4  9  1  0  0  0  0
  5  4  1  0  0  0  0
  5 10  1  0  0  0  0
  6  5  2  0  0  0  0
  7  1  1  0  0  0  0
  8  2  1  0  0  0  0
 11 12  2  0  0  0  0
 14  6  1  0  0  0  0
M  RAD  2  12   2  13   2
M  END
