Coordinates from ORCA-job Ph-N2-Cl-B3LYPG-aug-cc-pVDZ-scan-d09-49-n400
 OpenBabel11081710403D

 14 12  0  0  0  0  0  0  0  0999 V2000
   -1.5857   -1.4081   -1.2946 C   0  0  0  0  0  0  0  0  0  0  0  0
   -0.1753   -1.2648   -1.2333 C   0  0  0  0  0  0  0  0  0  0  0  0
    0.0896   -0.0279   -0.6978 C   0  0  0  0  0  0  0  0  0  0  0  0
   -0.6187    0.9263   -0.2840 C   0  0  0  0  0  0  0  0  0  0  0  0
   -2.0196    0.8248   -0.3271 C   0  0  0  0  0  0  0  0  0  0  0  0
   -2.4688   -0.4021   -0.8583 C   0  0  0  0  0  0  0  0  0  0  0  0
   -1.9900   -2.3388   -1.6974 H   0  0  0  0  0  0  0  0  0  0  0  0
    0.5201   -2.0307   -1.5655 H   0  0  0  0  0  0  0  0  0  0  0  0
    0.0340    2.6254    0.4518 H   0  0  0  0  0  0  0  0  0  0  0  0
   -2.7088    1.5985    0.0084 H   0  0  0  0  0  0  0  0  0  0  0  0
    3.9096   -1.5571   -1.3631 N   0  0  0  0  0  0  0  0  0  0  0  0
    4.9596   -1.2424   -1.2311 N   0  0  0  0  0  0  0  0  0  0  0  0
    0.3061    3.8156    0.9674 Cl  0  0  0  0  0  0  0  0  0  0  0  0
   -3.5432   -0.5787   -0.9341 H   0  0  0  0  0  0  0  0  0  0  0  0
  1  2  2  0  0  0  0
  1  6  1  0  0  0  0
  2  3  1  0  0  0  0
  3  4  2  0  0  0  0
  5  4  1  0  0  0  0
  5 10  1  0  0  0  0
  6  5  2  0  0  0  0
  7  1  1  0  0  0  0
  8  2  1  0  0  0  0
  9 13  1  0  0  0  0
 11 12  3  0  0  0  0
 14  6  1  0  0  0  0
M  RAD  2   3   2   4   2
M  END
