Coordinates from ORCA-job Ph-N2-Cl-B3LYPG-aug-cc-pVDZ-scan-d09-49-n400
 OpenBabel11081710403D

 14 12  0  0  0  0  0  0  0  0999 V2000
   -1.6575   -1.4836   -1.3272 C   0  0  0  0  0  0  0  0  0  0  0  0
   -0.2390   -1.4824   -1.3276 C   0  0  0  0  0  0  0  0  0  0  0  0
    0.1708   -0.2809   -0.8075 C   0  0  0  0  0  0  0  0  0  0  0  0
   -0.4087    0.7454   -0.3626 C   0  0  0  0  0  0  0  0  0  0  0  0
   -1.8156    0.7793   -0.3469 C   0  0  0  0  0  0  0  0  0  0  0  0
   -2.4123   -0.3929   -0.8543 C   0  0  0  0  0  0  0  0  0  0  0  0
   -2.1711   -2.3677   -1.7098 H   0  0  0  0  0  0  0  0  0  0  0  0
    0.3671   -2.3094   -1.6863 H   0  0  0  0  0  0  0  0  0  0  0  0
    0.4206    2.3423    0.3285 H   0  0  0  0  0  0  0  0  0  0  0  0
   -2.4073    1.6184    0.0169 H   0  0  0  0  0  0  0  0  0  0  0  0
    3.2548   -0.8488   -1.0560 N   0  0  0  0  0  0  0  0  0  0  0  0
    4.2543   -0.4173   -0.8721 N   0  0  0  0  0  0  0  0  0  0  0  0
    0.8542    3.4955    0.8277 Cl  0  0  0  0  0  0  0  0  0  0  0  0
   -3.5015   -0.4579   -0.8817 H   0  0  0  0  0  0  0  0  0  0  0  0
  1  6  1  0  0  0  0
  2  1  2  0  0  0  0
  2  3  1  0  0  0  0
  3  4  2  0  0  0  0
  4  5  1  0  0  0  0
  5 10  1  0  0  0  0
  6  5  2  0  0  0  0
  7  1  1  0  0  0  0
  8  2  1  0  0  0  0
  9 13  1  0  0  0  0
 11 12  3  0  0  0  0
 14  6  1  0  0  0  0
M  RAD  2   3   2   4   2
M  END
