Coordinates from ORCA-job Ph-N2-Cl-B3LYPG-aug-cc-pVDZ-scan-d09-49-n400
 OpenBabel11081710403D

 14 12  0  0  0  0  0  0  0  0999 V2000
   -1.5306   -1.3731   -1.2795 C   0  0  0  0  0  0  0  0  0  0  0  0
   -0.1296   -1.1668   -1.1910 C   0  0  0  0  0  0  0  0  0  0  0  0
    0.0697    0.0808   -0.6506 C   0  0  0  0  0  0  0  0  0  0  0  0
   -0.6897    1.0011   -0.2515 C   0  0  0  0  0  0  0  0  0  0  0  0
   -2.0834    0.8375   -0.3215 C   0  0  0  0  0  0  0  0  0  0  0  0
   -2.4664   -0.4081   -0.8608 C   0  0  0  0  0  0  0  0  0  0  0  0
   -1.8848   -2.3209   -1.6899 H   0  0  0  0  0  0  0  0  0  0  0  0
    0.6053   -1.9011   -1.5096 H   0  0  0  0  0  0  0  0  0  0  0  0
   -0.1255    2.7295    0.4970 H   0  0  0  0  0  0  0  0  0  0  0  0
   -2.8131    1.5793    0.0004 H   0  0  0  0  0  0  0  0  0  0  0  0
    4.0638   -1.8180   -1.4768 N   0  0  0  0  0  0  0  0  0  0  0  0
    5.1418   -1.5977   -1.3845 N   0  0  0  0  0  0  0  0  0  0  0  0
    0.0814    3.9305    1.0172 Cl  0  0  0  0  0  0  0  0  0  0  0  0
   -3.5301   -0.6330   -0.9576 H   0  0  0  0  0  0  0  0  0  0  0  0
  1  2  2  0  0  0  0
  1  6  1  0  0  0  0
  2  3  1  0  0  0  0
  3  4  2  0  0  0  0
  5  4  1  0  0  0  0
  5 10  1  0  0  0  0
  6  5  2  0  0  0  0
  7  1  1  0  0  0  0
  8  2  1  0  0  0  0
  9 13  1  0  0  0  0
 11 12  3  0  0  0  0
 14  6  1  0  0  0  0
M  RAD  2   3   2   4   2
M  END
