Coordinates from ORCA-job Ph-N2-Cl-B3LYPG-aug-cc-pVDZ-scan-d09-49-n400
 OpenBabel11081710403D

 14 13  0  0  0  0  0  0  0  0999 V2000
   -1.5393   -1.4975   -1.3333 C   0  0  0  0  0  0  0  0  0  0  0  0
   -0.1434   -1.4100   -1.2968 C   0  0  0  0  0  0  0  0  0  0  0  0
    0.3846   -0.2361   -0.7888 C   0  0  0  0  0  0  0  0  0  0  0  0
   -0.3237    0.8519   -0.3167 C   0  0  0  0  0  0  0  0  0  0  0  0
   -1.7197    0.7301   -0.3682 C   0  0  0  0  0  0  0  0  0  0  0  0
   -2.3193   -0.4307   -0.8704 C   0  0  0  0  0  0  0  0  0  0  0  0
   -2.0122   -2.3984   -1.7232 H   0  0  0  0  0  0  0  0  0  0  0  0
    0.5009   -2.2140   -1.6457 H   0  0  0  0  0  0  0  0  0  0  0  0
    0.1883    1.7331    0.0645 H   0  0  0  0  0  0  0  0  0  0  0  0
   -2.3352    1.5552   -0.0102 H   0  0  0  0  0  0  0  0  0  0  0  0
    2.0765   -0.2190   -0.7830 N   0  0  0  0  0  0  0  0  0  0  0  0
    2.9154    0.5105   -0.4676 N   0  0  0  0  0  0  0  0  0  0  0  0
    2.4422    2.4701    0.3823 Cl  0  0  0  0  0  0  0  0  0  0  0  0
   -3.4064   -0.5052   -0.9017 H   0  0  0  0  0  0  0  0  0  0  0  0
  1  2  2  0  0  0  0
  1  6  1  0  0  0  0
  2  3  1  0  0  0  0
  3 11  1  0  0  0  0
  3  4  2  0  0  0  0
  4  9  1  0  0  0  0
  5  4  1  0  0  0  0
  5 10  1  0  0  0  0
  6  5  2  0  0  0  0
  7  1  1  0  0  0  0
  8  2  1  0  0  0  0
 11 12  2  0  0  0  0
 14  6  1  0  0  0  0
M  RAD  2  12   2  13   2
M  END
