Coordinates from ORCA-job Ph-N2-Cl-B3LYPG-aug-cc-pVDZ-scan-d09-49-n400
 OpenBabel11081710403D

 14 12  0  0  0  0  0  0  0  0999 V2000
   -1.6052   -1.4217   -1.3004 C   0  0  0  0  0  0  0  0  0  0  0  0
   -0.1919   -1.3036   -1.2501 C   0  0  0  0  0  0  0  0  0  0  0  0
    0.0990   -0.0718   -0.7168 C   0  0  0  0  0  0  0  0  0  0  0  0
   -0.5885    0.8952   -0.2976 C   0  0  0  0  0  0  0  0  0  0  0  0
   -1.9912    0.8187   -0.3298 C   0  0  0  0  0  0  0  0  0  0  0  0
   -2.4666   -0.4000   -0.8574 C   0  0  0  0  0  0  0  0  0  0  0  0
   -2.0292   -2.3450   -1.7001 H   0  0  0  0  0  0  0  0  0  0  0  0
    0.4871   -2.0817   -1.5875 H   0  0  0  0  0  0  0  0  0  0  0  0
    0.0989    2.5817    0.4328 H   0  0  0  0  0  0  0  0  0  0  0  0
   -2.6638    1.6046    0.0110 H   0  0  0  0  0  0  0  0  0  0  0  0
    3.8360   -1.4496   -1.3164 N   0  0  0  0  0  0  0  0  0  0  0  0
    4.8715   -1.0963   -1.1678 N   0  0  0  0  0  0  0  0  0  0  0  0
    0.3972    3.7667    0.9461 Cl  0  0  0  0  0  0  0  0  0  0  0  0
   -3.5446   -0.5572   -0.9248 H   0  0  0  0  0  0  0  0  0  0  0  0
  1  2  2  0  0  0  0
  1  6  1  0  0  0  0
  2  3  1  0  0  0  0
  3  4  2  0  0  0  0
  5  4  1  0  0  0  0
  5 10  1  0  0  0  0
  6  5  2  0  0  0  0
  7  1  1  0  0  0  0
  8  2  1  0  0  0  0
  9 13  1  0  0  0  0
 11 12  3  0  0  0  0
 14  6  1  0  0  0  0
M  RAD  2   3   2   4   2
M  END
