Coordinates from ORCA-job Ph-N2-Cl-B3LYPG-aug-cc-pVDZ-scan-d09-49-n400
 OpenBabel11081710403D

 14 12  0  0  0  0  0  0  0  0999 V2000
   -1.6166   -1.5049   -1.3365 C   0  0  0  0  0  0  0  0  0  0  0  0
   -0.2053   -1.5455   -1.3554 C   0  0  0  0  0  0  0  0  0  0  0  0
    0.2950   -0.3828   -0.8521 C   0  0  0  0  0  0  0  0  0  0  0  0
   -0.1893    0.7499   -0.3609 C   0  0  0  0  0  0  0  0  0  0  0  0
   -1.6082    0.7398   -0.3640 C   0  0  0  0  0  0  0  0  0  0  0  0
   -2.2966   -0.3785   -0.8480 C   0  0  0  0  0  0  0  0  0  0  0  0
   -2.1658   -2.3696   -1.7107 H   0  0  0  0  0  0  0  0  0  0  0  0
    0.3729   -2.3892   -1.7214 H   0  0  0  0  0  0  0  0  0  0  0  0
    0.4535    1.6262    0.0181 H   0  0  0  0  0  0  0  0  0  0  0  0
   -2.1394    1.6135    0.0149 H   0  0  0  0  0  0  0  0  0  0  0  0
    2.3640   -0.2645   -0.8027 N   0  0  0  0  0  0  0  0  0  0  0  0
    3.0366    0.5523   -0.4497 N   0  0  0  0  0  0  0  0  0  0  0  0
    1.7945    2.8698    0.5556 Cl  0  0  0  0  0  0  0  0  0  0  0  0
   -3.3867   -0.3766   -0.8462 H   0  0  0  0  0  0  0  0  0  0  0  0
  1  6  1  0  0  0  0
  2  1  2  0  0  0  0
  2  3  1  0  0  0  0
  3  4  2  0  0  0  0
  4  9  1  0  0  0  0
  5  4  1  0  0  0  0
  5 10  1  0  0  0  0
  6 14  1  0  0  0  0
  6  5  2  0  0  0  0
  7  1  1  0  0  0  0
  8  2  1  0  0  0  0
 11 12  3  0  0  0  0
M  RAD  2   3   2  13   2
M  END
