Coordinates from ORCA-job Ph-N2-Cl-B3LYPG-aug-cc-pVDZ-scan-d09-49-n400
 OpenBabel11081710403D

 14 12  0  0  0  0  0  0  0  0999 V2000
   -1.6644   -1.4786   -1.3250 C   0  0  0  0  0  0  0  0  0  0  0  0
   -0.2459   -1.4691   -1.3219 C   0  0  0  0  0  0  0  0  0  0  0  0
    0.1548   -0.2649   -0.8005 C   0  0  0  0  0  0  0  0  0  0  0  0
   -0.4327    0.7568   -0.3576 C   0  0  0  0  0  0  0  0  0  0  0  0
   -1.8396    0.7837   -0.3450 C   0  0  0  0  0  0  0  0  0  0  0  0
   -2.4272   -0.3924   -0.8541 C   0  0  0  0  0  0  0  0  0  0  0  0
   -2.1719   -2.3657   -1.7090 H   0  0  0  0  0  0  0  0  0  0  0  0
    0.3662   -2.2924   -1.6789 H   0  0  0  0  0  0  0  0  0  0  0  0
    0.3920    2.3656    0.3387 H   0  0  0  0  0  0  0  0  0  0  0  0
   -2.4374    1.6191    0.0173 H   0  0  0  0  0  0  0  0  0  0  0  0
    3.3633   -0.9147   -1.0845 N   0  0  0  0  0  0  0  0  0  0  0  0
    4.3533   -0.4645   -0.8929 N   0  0  0  0  0  0  0  0  0  0  0  0
    0.8140    3.5212    0.8389 Cl  0  0  0  0  0  0  0  0  0  0  0  0
   -3.5159   -0.4643   -0.8845 H   0  0  0  0  0  0  0  0  0  0  0  0
  1  2  2  0  0  0  0
  1  6  1  0  0  0  0
  2  3  1  0  0  0  0
  3  4  2  0  0  0  0
  4  5  1  0  0  0  0
  5 10  1  0  0  0  0
  6  5  2  0  0  0  0
  7  1  1  0  0  0  0
  8  2  1  0  0  0  0
  9 13  1  0  0  0  0
 11 12  3  0  0  0  0
 14  6  1  0  0  0  0
M  RAD  2   3   2   4   2
M  END
