Coordinates from ORCA-job Ph-N2-Cl-B3LYPG-aug-cc-pVDZ-scan-d09-49-n400
 OpenBabel11081710403D

 14 12  0  0  0  0  0  0  0  0999 V2000
   -1.5554   -1.3885   -1.2861 C   0  0  0  0  0  0  0  0  0  0  0  0
   -0.1499   -1.2093   -1.2094 C   0  0  0  0  0  0  0  0  0  0  0  0
    0.0778    0.0340   -0.6709 C   0  0  0  0  0  0  0  0  0  0  0  0
   -0.6598    0.9693   -0.2653 C   0  0  0  0  0  0  0  0  0  0  0  0
   -2.0570    0.8325   -0.3237 C   0  0  0  0  0  0  0  0  0  0  0  0
   -2.4687   -0.4054   -0.8597 C   0  0  0  0  0  0  0  0  0  0  0  0
   -1.9314   -2.3291   -1.6933 H   0  0  0  0  0  0  0  0  0  0  0  0
    0.5681   -1.9575   -1.5339 H   0  0  0  0  0  0  0  0  0  0  0  0
   -0.0570    2.6854    0.4779 H   0  0  0  0  0  0  0  0  0  0  0  0
   -2.7693    1.5883    0.0041 H   0  0  0  0  0  0  0  0  0  0  0  0
    4.0015   -1.7064   -1.4282 N   0  0  0  0  0  0  0  0  0  0  0  0
    5.0688   -1.4458   -1.3189 N   0  0  0  0  0  0  0  0  0  0  0  0
    0.1781    3.8821    0.9962 Cl  0  0  0  0  0  0  0  0  0  0  0  0
   -3.5373   -0.6095   -0.9474 H   0  0  0  0  0  0  0  0  0  0  0  0
  1  2  2  0  0  0  0
  1  6  1  0  0  0  0
  2  3  1  0  0  0  0
  3  4  2  0  0  0  0
  5  4  1  0  0  0  0
  5 10  1  0  0  0  0
  6  5  2  0  0  0  0
  7  1  1  0  0  0  0
  8  2  1  0  0  0  0
  9 13  1  0  0  0  0
 11 12  3  0  0  0  0
 14  6  1  0  0  0  0
M  RAD  2   3   2   4   2
M  END
