Coordinates from ORCA-job Ph-N2-Cl-B3LYPG-aug-cc-pVDZ-scan-d09-49-n400
 OpenBabel11081710403D

 14 12  0  0  0  0  0  0  0  0999 V2000
   -1.6389   -1.4976   -1.3333 C   0  0  0  0  0  0  0  0  0  0  0  0
   -0.2199   -1.5232   -1.3455 C   0  0  0  0  0  0  0  0  0  0  0  0
    0.2070   -0.3304   -0.8292 C   0  0  0  0  0  0  0  0  0  0  0  0
   -0.3275    0.7187   -0.3743 C   0  0  0  0  0  0  0  0  0  0  0  0
   -1.7376    0.7655   -0.3529 C   0  0  0  0  0  0  0  0  0  0  0  0
   -2.3662   -0.3917   -0.8537 C   0  0  0  0  0  0  0  0  0  0  0  0
   -2.1717   -2.3721   -1.7116 H   0  0  0  0  0  0  0  0  0  0  0  0
    0.3662   -2.3621   -1.7093 H   0  0  0  0  0  0  0  0  0  0  0  0
    0.5065    2.2375    0.2829 H   0  0  0  0  0  0  0  0  0  0  0  0
   -2.3092    1.6167    0.0163 H   0  0  0  0  0  0  0  0  0  0  0  0
    2.9363   -0.6717   -0.9793 N   0  0  0  0  0  0  0  0  0  0  0  0
    3.9098   -0.1929   -0.7738 N   0  0  0  0  0  0  0  0  0  0  0  0
    1.0104    3.3770    0.7760 Cl  0  0  0  0  0  0  0  0  0  0  0  0
   -3.4566   -0.4338   -0.8710 H   0  0  0  0  0  0  0  0  0  0  0  0
  1  6  1  0  0  0  0
  2  1  2  0  0  0  0
  2  3  1  0  0  0  0
  3  4  2  0  0  0  0
  4  5  1  0  0  0  0
  5 10  1  0  0  0  0
  6  5  2  0  0  0  0
  7  1  1  0  0  0  0
  8  2  1  0  0  0  0
  9 13  1  0  0  0  0
 11 12  3  0  0  0  0
 14  6  1  0  0  0  0
M  RAD  2   3   2   4   2
M  END
