Coordinates from ORCA-job Ph-N2-Cl-B3LYPG-aug-cc-pVDZ-scan-d09-49-n400
 OpenBabel11081710403D

 14 12  0  0  0  0  0  0  0  0999 V2000
   -1.6484   -1.4905   -1.3303 C   0  0  0  0  0  0  0  0  0  0  0  0
   -0.2336   -1.5646   -1.3637 C   0  0  0  0  0  0  0  0  0  0  0  0
    0.2463   -0.3971   -0.8583 C   0  0  0  0  0  0  0  0  0  0  0  0
   -0.1800    0.7201   -0.3739 C   0  0  0  0  0  0  0  0  0  0  0  0
   -1.6044    0.7600   -0.3553 C   0  0  0  0  0  0  0  0  0  0  0  0
   -2.3083   -0.3518   -0.8363 C   0  0  0  0  0  0  0  0  0  0  0  0
   -2.2163   -2.3456   -1.7002 H   0  0  0  0  0  0  0  0  0  0  0  0
    0.3258   -2.4187   -1.7343 H   0  0  0  0  0  0  0  0  0  0  0  0
    0.4737    1.7358    0.0655 H   0  0  0  0  0  0  0  0  0  0  0  0
   -2.1128    1.6456    0.0289 H   0  0  0  0  0  0  0  0  0  0  0  0
    2.6498   -0.3657   -0.8470 N   0  0  0  0  0  0  0  0  0  0  0  0
    3.4603    0.3233   -0.5488 N   0  0  0  0  0  0  0  0  0  0  0  0
    1.2548    3.0240    0.6228 Cl  0  0  0  0  0  0  0  0  0  0  0  0
   -3.3985   -0.3347   -0.8278 H   0  0  0  0  0  0  0  0  0  0  0  0
  1  6  1  0  0  0  0
  2  1  2  0  0  0  0
  2  3  1  0  0  0  0
  3  4  2  0  0  0  0
  4  5  1  0  0  0  0
  4  9  1  0  0  0  0
  5 10  1  0  0  0  0
  6 14  1  0  0  0  0
  6  5  2  0  0  0  0
  7  1  1  0  0  0  0
  8  2  1  0  0  0  0
 11 12  3  0  0  0  0
M  RAD  2   3   2  13   2
M  END
