Coordinates from ORCA-job Ph-N2-Cl-B3LYPG-aug-cc-pVDZ-scan-d09-49-n400
 OpenBabel11081710403D

 14 13  0  0  0  0  0  0  0  0999 V2000
   -1.5655   -1.5037   -1.3362 C   0  0  0  0  0  0  0  0  0  0  0  0
   -0.1640   -1.4368   -1.3084 C   0  0  0  0  0  0  0  0  0  0  0  0
    0.3392   -0.2629   -0.8001 C   0  0  0  0  0  0  0  0  0  0  0  0
   -0.3189    0.8388   -0.3221 C   0  0  0  0  0  0  0  0  0  0  0  0
   -1.7205    0.7282   -0.3688 C   0  0  0  0  0  0  0  0  0  0  0  0
   -2.3307   -0.4277   -0.8692 C   0  0  0  0  0  0  0  0  0  0  0  0
   -2.0491   -2.4000   -1.7242 H   0  0  0  0  0  0  0  0  0  0  0  0
    0.4740   -2.2444   -1.6589 H   0  0  0  0  0  0  0  0  0  0  0  0
    0.2194    1.7103    0.0550 H   0  0  0  0  0  0  0  0  0  0  0  0
   -2.3251    1.5602   -0.0077 H   0  0  0  0  0  0  0  0  0  0  0  0
    2.1910   -0.2232   -0.7844 N   0  0  0  0  0  0  0  0  0  0  0  0
    2.9790    0.5390   -0.4552 N   0  0  0  0  0  0  0  0  0  0  0  0
    2.3984    2.5539    0.4175 Cl  0  0  0  0  0  0  0  0  0  0  0  0
   -3.4184   -0.4918   -0.8961 H   0  0  0  0  0  0  0  0  0  0  0  0
  1  2  2  0  0  0  0
  1  6  1  0  0  0  0
  2  3  1  0  0  0  0
  3 11  1  0  0  0  0
  3  4  2  0  0  0  0
  4  9  1  0  0  0  0
  5  4  1  0  0  0  0
  5 10  1  0  0  0  0
  6  5  2  0  0  0  0
  7  1  1  0  0  0  0
  8  2  1  0  0  0  0
 11 12  2  0  0  0  0
 14  6  1  0  0  0  0
M  RAD  2  12   2  13   2
M  END
