Coordinates from ORCA-job Ph-N2-Cl-B3LYPG-aug-cc-pVDZ-scan-d09-49-n400
 OpenBabel11081710403D

 14 12  0  0  0  0  0  0  0  0999 V2000
   -1.6696   -1.4712   -1.3218 C   0  0  0  0  0  0  0  0  0  0  0  0
   -0.2512   -1.4495   -1.3133 C   0  0  0  0  0  0  0  0  0  0  0  0
    0.1383   -0.2417   -0.7904 C   0  0  0  0  0  0  0  0  0  0  0  0
   -0.4626    0.7731   -0.3504 C   0  0  0  0  0  0  0  0  0  0  0  0
   -1.8691    0.7897   -0.3423 C   0  0  0  0  0  0  0  0  0  0  0  0
   -2.4439   -0.3919   -0.8538 C   0  0  0  0  0  0  0  0  0  0  0  0
   -2.1679   -2.3626   -1.7077 H   0  0  0  0  0  0  0  0  0  0  0  0
    0.3688   -2.2678   -1.6682 H   0  0  0  0  0  0  0  0  0  0  0  0
    0.3512    2.3971    0.3524 H   0  0  0  0  0  0  0  0  0  0  0  0
   -2.4756    1.6198    0.0176 H   0  0  0  0  0  0  0  0  0  0  0  0
    3.4931   -1.0038   -1.1230 N   0  0  0  0  0  0  0  0  0  0  0  0
    4.4726   -0.5345   -0.9235 N   0  0  0  0  0  0  0  0  0  0  0  0
    0.7562    3.5568    0.8543 Cl  0  0  0  0  0  0  0  0  0  0  0  0
   -3.5318   -0.4735   -0.8885 H   0  0  0  0  0  0  0  0  0  0  0  0
  1  2  2  0  0  0  0
  1  6  1  0  0  0  0
  2  3  1  0  0  0  0
  3  4  2  0  0  0  0
  4  5  1  0  0  0  0
  5 10  1  0  0  0  0
  6  5  2  0  0  0  0
  7  1  1  0  0  0  0
  8  2  1  0  0  0  0
  9 13  1  0  0  0  0
 11 12  3  0  0  0  0
 14  6  1  0  0  0  0
M  RAD  2   3   2   4   2
M  END
