Coordinates from ORCA-job Ph-N2-Cl-B3LYPG-aug-cc-pVDZ-scan-d09-49-n400
 OpenBabel11081710403D

 14 12  0  0  0  0  0  0  0  0999 V2000
   -1.6563   -1.4585   -1.3164 C   0  0  0  0  0  0  0  0  0  0  0  0
   -0.2384   -1.4121   -1.2971 C   0  0  0  0  0  0  0  0  0  0  0  0
    0.1283   -0.1979   -0.7714 C   0  0  0  0  0  0  0  0  0  0  0  0
   -0.4987    0.8032   -0.3374 C   0  0  0  0  0  0  0  0  0  0  0  0
   -1.9041    0.7983   -0.3386 C   0  0  0  0  0  0  0  0  0  0  0  0
   -2.4535   -0.3938   -0.8547 C   0  0  0  0  0  0  0  0  0  0  0  0
   -2.1356   -2.3587   -1.7060 H   0  0  0  0  0  0  0  0  0  0  0  0
    0.3937   -2.2227   -1.6486 H   0  0  0  0  0  0  0  0  0  0  0  0
    0.2859    2.4493    0.3751 H   0  0  0  0  0  0  0  0  0  0  0  0
   -2.5275    1.6177    0.0167 H   0  0  0  0  0  0  0  0  0  0  0  0
    3.6071   -1.1379   -1.1811 N   0  0  0  0  0  0  0  0  0  0  0  0
    4.5866   -0.6687   -0.9821 N   0  0  0  0  0  0  0  0  0  0  0  0
    0.6607    3.6164    0.8804 Cl  0  0  0  0  0  0  0  0  0  0  0  0
   -3.5395   -0.4947   -0.8977 H   0  0  0  0  0  0  0  0  0  0  0  0
  1  2  2  0  0  0  0
  1  6  1  0  0  0  0
  2  3  1  0  0  0  0
  3  4  2  0  0  0  0
  5  4  1  0  0  0  0
  5 10  1  0  0  0  0
  6  5  2  0  0  0  0
  7  1  1  0  0  0  0
  8  2  1  0  0  0  0
  9 13  1  0  0  0  0
 11 12  3  0  0  0  0
 14  6  1  0  0  0  0
M  RAD  2   3   2   4   2
M  END
