Coordinates from ORCA-job Ph-N2-Cl-B3LYPG-aug-cc-pVDZ-scan-d09-49-n400
 OpenBabel11081710403D

 14 14  0  0  0  0  0  0  0  0999 V2000
   -1.5249   -1.4946   -1.3323 C   0  0  0  0  0  0  0  0  0  0  0  0
   -0.1322   -1.3986   -1.2919 C   0  0  0  0  0  0  0  0  0  0  0  0
    0.4158   -0.2255   -0.7840 C   0  0  0  0  0  0  0  0  0  0  0  0
   -0.3217    0.8554   -0.3149 C   0  0  0  0  0  0  0  0  0  0  0  0
   -1.7144    0.7306   -0.3678 C   0  0  0  0  0  0  0  0  0  0  0  0
   -2.3106   -0.4316   -0.8709 C   0  0  0  0  0  0  0  0  0  0  0  0
   -1.9935   -2.3973   -1.7230 H   0  0  0  0  0  0  0  0  0  0  0  0
    0.5126   -2.2027   -1.6409 H   0  0  0  0  0  0  0  0  0  0  0  0
    0.1783    1.7413    0.0685 H   0  0  0  0  0  0  0  0  0  0  0  0
   -2.3339    1.5531   -0.0109 H   0  0  0  0  0  0  0  0  0  0  0  0
    1.9974   -0.2102   -0.7787 N   0  0  0  0  0  0  0  0  0  0  0  0
    2.8714    0.4917   -0.4756 N   0  0  0  0  0  0  0  0  0  0  0  0
    2.4618    2.4384    0.3674 Cl  0  0  0  0  0  0  0  0  0  0  0  0
   -3.3975   -0.5099   -0.9039 H   0  0  0  0  0  0  0  0  0  0  0  0
  1  2  2  0  0  0  0
  1  6  1  0  0  0  0
  2  3  1  0  0  0  0
  3 11  1  0  0  0  0
  3  4  2  0  0  0  0
  4  9  1  0  0  0  0
  5  4  1  0  0  0  0
  5 10  1  0  0  0  0
  6  5  2  0  0  0  0
  7  1  1  0  0  0  0
  8  2  1  0  0  0  0
 11 12  2  0  0  0  0
 12 13  1  0  0  0  0
 14  6  1  0  0  0  0
M  END
