Coordinates from ORCA-job Ph-N2-Cl-B3LYPG-aug-cc-pVDZ-scan-d09-49-n400
 OpenBabel11081710403D

 14 14  0  0  0  0  0  0  0  0999 V2000
   -1.5141   -1.4928   -1.3315 C   0  0  0  0  0  0  0  0  0  0  0  0
   -0.1240   -1.3926   -1.2893 C   0  0  0  0  0  0  0  0  0  0  0  0
    0.4415   -0.2200   -0.7816 C   0  0  0  0  0  0  0  0  0  0  0  0
   -0.3173    0.8566   -0.3144 C   0  0  0  0  0  0  0  0  0  0  0  0
   -1.7076    0.7314   -0.3675 C   0  0  0  0  0  0  0  0  0  0  0  0
   -2.3027   -0.4315   -0.8709 C   0  0  0  0  0  0  0  0  0  0  0  0
   -1.9808   -2.3963   -1.7226 H   0  0  0  0  0  0  0  0  0  0  0  0
    0.5199   -2.1978   -1.6387 H   0  0  0  0  0  0  0  0  0  0  0  0
    0.1764    1.7454    0.0703 H   0  0  0  0  0  0  0  0  0  0  0  0
   -2.3289    1.5526   -0.0110 H   0  0  0  0  0  0  0  0  0  0  0  0
    1.9329   -0.2002   -0.7743 N   0  0  0  0  0  0  0  0  0  0  0  0
    2.8353    0.4751   -0.4827 N   0  0  0  0  0  0  0  0  0  0  0  0
    2.4676    2.4215    0.3601 Cl  0  0  0  0  0  0  0  0  0  0  0  0
   -3.3895   -0.5115   -0.9046 H   0  0  0  0  0  0  0  0  0  0  0  0
  1  2  2  0  0  0  0
  1  6  1  0  0  0  0
  2  3  1  0  0  0  0
  3 11  1  0  0  0  0
  3  4  2  0  0  0  0
  4  9  1  0  0  0  0
  5  4  1  0  0  0  0
  5 10  1  0  0  0  0
  6  5  2  0  0  0  0
  7  1  1  0  0  0  0
  8  2  1  0  0  0  0
 11 12  2  0  0  0  0
 12 13  1  0  0  0  0
 14  6  1  0  0  0  0
M  END
