Coordinates from ORCA-job Ph-N2-Cl-B3LYPG-aug-cc-pVDZ-scan-d09-49-n400
 OpenBabel11081710403D

 14 12  0  0  0  0  0  0  0  0999 V2000
   -1.6659   -1.4769   -1.3243 C   0  0  0  0  0  0  0  0  0  0  0  0
   -0.2474   -1.4647   -1.3200 C   0  0  0  0  0  0  0  0  0  0  0  0
    0.1508   -0.2597   -0.7982 C   0  0  0  0  0  0  0  0  0  0  0  0
   -0.4398    0.7604   -0.3560 C   0  0  0  0  0  0  0  0  0  0  0  0
   -1.8465    0.7851   -0.3444 C   0  0  0  0  0  0  0  0  0  0  0  0
   -2.4312   -0.3923   -0.8540 C   0  0  0  0  0  0  0  0  0  0  0  0
   -2.1713   -2.3650   -1.7087 H   0  0  0  0  0  0  0  0  0  0  0  0
    0.3664   -2.2870   -1.6765 H   0  0  0  0  0  0  0  0  0  0  0  0
    0.3828    2.3728    0.3418 H   0  0  0  0  0  0  0  0  0  0  0  0
   -2.4462    1.6193    0.0174 H   0  0  0  0  0  0  0  0  0  0  0  0
    3.3942   -0.9350   -1.0932 N   0  0  0  0  0  0  0  0  0  0  0  0
    4.3817   -0.4802   -0.8998 N   0  0  0  0  0  0  0  0  0  0  0  0
    0.8009    3.5294    0.8424 Cl  0  0  0  0  0  0  0  0  0  0  0  0
   -3.5197   -0.4663   -0.8854 H   0  0  0  0  0  0  0  0  0  0  0  0
  1  2  2  0  0  0  0
  1  6  1  0  0  0  0
  2  3  1  0  0  0  0
  3  4  2  0  0  0  0
  4  5  1  0  0  0  0
  5 10  1  0  0  0  0
  6  5  2  0  0  0  0
  7  1  1  0  0  0  0
  8  2  1  0  0  0  0
  9 13  1  0  0  0  0
 11 12  3  0  0  0  0
 14  6  1  0  0  0  0
M  RAD  2   3   2   4   2
M  END
