Coordinates from ORCA-job Ph-N2-Cl-B3LYPG-aug-cc-pVDZ-scan-d09-49-n400
 OpenBabel11081710403D

 14 13  0  0  0  0  0  0  0  0999 V2000
   -1.3446   -1.4907   -1.0325 C   0  0  0  0  0  0  0  0  0  0  0  0
    0.0055   -1.2225   -1.0907 C   0  0  0  0  0  0  0  0  0  0  0  0
    0.5406    0.1526   -0.9291 C   0  0  0  0  0  0  0  0  0  0  0  0
   -0.5179    1.1684   -0.7023 C   0  0  0  0  0  0  0  0  0  0  0  0
   -1.8533    0.8323   -0.6600 C   0  0  0  0  0  0  0  0  0  0  0  0
   -2.2981   -0.4863   -0.8214 C   0  0  0  0  0  0  0  0  0  0  0  0
   -1.6607   -2.5275   -1.1568 H   0  0  0  0  0  0  0  0  0  0  0  0
    0.7590   -1.9925   -1.2479 H   0  0  0  0  0  0  0  0  0  0  0  0
   -0.1557    2.1874   -0.5770 H   0  0  0  0  0  0  0  0  0  0  0  0
   -2.5723    1.6354   -0.4914 H   0  0  0  0  0  0  0  0  0  0  0  0
    1.4479    0.3558   -0.9526 N   0  0  0  0  0  0  0  0  0  0  0  0
    2.5952    0.6066   -0.8715 N   0  0  0  0  0  0  0  0  0  0  0  0
    3.1220    0.4457    1.2578 Cl  0  0  0  0  0  0  0  0  0  0  0  0
   -3.3589   -0.7246   -0.7835 H   0  0  0  0  0  0  0  0  0  0  0  0
  1  6  1  0  0  0  0
  2  1  2  0  0  0  0
  2  3  1  0  0  0  0
  3  4  2  0  0  0  0
  4  5  1  0  0  0  0
  4  9  1  0  0  0  0
  5 10  1  0  0  0  0
  6 14  1  0  0  0  0
  6  5  2  0  0  0  0
  7  1  1  0  0  0  0
  8  2  1  0  0  0  0
 11  3  1  0  0  0  0
 11 12  1  0  0  0  0
M  RAD  3  11   2  12   3  13   2
M  END
