Coordinates from ORCA-job Ph-N2-Cl-B3LYPG-aug-cc-pVDZ-scan-d09-49-n400
 OpenBabel11081710403D

 14 12  0  0  0  0  0  0  0  0999 V2000
   -1.6526   -1.4869   -1.3286 C   0  0  0  0  0  0  0  0  0  0  0  0
   -0.2341   -1.4914   -1.3316 C   0  0  0  0  0  0  0  0  0  0  0  0
    0.1806   -0.2917   -0.8123 C   0  0  0  0  0  0  0  0  0  0  0  0
   -0.3912    0.7385   -0.3656 C   0  0  0  0  0  0  0  0  0  0  0  0
   -1.7985    0.7763   -0.3482 C   0  0  0  0  0  0  0  0  0  0  0  0
   -2.4017   -0.3930   -0.8543 C   0  0  0  0  0  0  0  0  0  0  0  0
   -2.1704   -2.3690   -1.7103 H   0  0  0  0  0  0  0  0  0  0  0  0
    0.3685   -2.3206   -1.6912 H   0  0  0  0  0  0  0  0  0  0  0  0
    0.4396    2.3249    0.3209 H   0  0  0  0  0  0  0  0  0  0  0  0
   -2.3861    1.6179    0.0167 H   0  0  0  0  0  0  0  0  0  0  0  0
    3.1827   -0.8123   -1.0402 N   0  0  0  0  0  0  0  0  0  0  0  0
    4.1795   -0.3757   -0.8538 N   0  0  0  0  0  0  0  0  0  0  0  0
    0.8836    3.4759    0.8192 Cl  0  0  0  0  0  0  0  0  0  0  0  0
   -3.4912   -0.4532   -0.8796 H   0  0  0  0  0  0  0  0  0  0  0  0
  1  6  1  0  0  0  0
  2  1  2  0  0  0  0
  2  3  1  0  0  0  0
  3  4  2  0  0  0  0
  4  5  1  0  0  0  0
  5 10  1  0  0  0  0
  6  5  2  0  0  0  0
  7  1  1  0  0  0  0
  8  2  1  0  0  0  0
  9 13  1  0  0  0  0
 11 12  3  0  0  0  0
 14  6  1  0  0  0  0
M  RAD  2   3   2   4   2
M  END
