Coordinates from ORCA-job Ph-N2-Cl-B3LYPG-aug-cc-pVDZ-scan-d09-49-n400
 OpenBabel11081710403D

 14 12  0  0  0  0  0  0  0  0999 V2000
   -1.6678   -1.4661   -1.3196 C   0  0  0  0  0  0  0  0  0  0  0  0
   -0.2496   -1.4358   -1.3074 C   0  0  0  0  0  0  0  0  0  0  0  0
    0.1332   -0.2258   -0.7835 C   0  0  0  0  0  0  0  0  0  0  0  0
   -0.4781    0.7836   -0.3459 C   0  0  0  0  0  0  0  0  0  0  0  0
   -1.8839    0.7933   -0.3408 C   0  0  0  0  0  0  0  0  0  0  0  0
   -2.4501   -0.3920   -0.8539 C   0  0  0  0  0  0  0  0  0  0  0  0
   -2.1594   -2.3607   -1.7068 H   0  0  0  0  0  0  0  0  0  0  0  0
    0.3750   -2.2512   -1.6610 H   0  0  0  0  0  0  0  0  0  0  0  0
    0.3255    2.4158    0.3605 H   0  0  0  0  0  0  0  0  0  0  0  0
   -2.4961    1.6198    0.0176 H   0  0  0  0  0  0  0  0  0  0  0  0
    3.5514   -1.0574   -1.1462 N   0  0  0  0  0  0  0  0  0  0  0  0
    4.5270   -0.5814   -0.9440 N   0  0  0  0  0  0  0  0  0  0  0  0
    0.7192    3.5783    0.8637 Cl  0  0  0  0  0  0  0  0  0  0  0  0
   -3.5374   -0.4803   -0.8914 H   0  0  0  0  0  0  0  0  0  0  0  0
  1  2  2  0  0  0  0
  1  6  1  0  0  0  0
  2  3  1  0  0  0  0
  3  4  2  0  0  0  0
  4  5  1  0  0  0  0
  5 10  1  0  0  0  0
  6  5  2  0  0  0  0
  7  1  1  0  0  0  0
  8  2  1  0  0  0  0
  9 13  1  0  0  0  0
 11 12  3  0  0  0  0
 14  6  1  0  0  0  0
M  RAD  2   3   2   4   2
M  END
