Coordinates from ORCA-job Ph-N2-Cl-B3LYPG-aug-cc-pVDZ-scan-d09-49-n400
 OpenBabel11081710403D

 14 13  0  0  0  0  0  0  0  0999 V2000
   -1.3568   -1.5026   -1.0323 C   0  0  0  0  0  0  0  0  0  0  0  0
   -0.0041   -1.2207   -1.1530 C   0  0  0  0  0  0  0  0  0  0  0  0
    0.4675    0.1218   -1.0010 C   0  0  0  0  0  0  0  0  0  0  0  0
   -0.4936    1.1486   -0.7347 C   0  0  0  0  0  0  0  0  0  0  0  0
   -1.8404    0.8329   -0.6307 C   0  0  0  0  0  0  0  0  0  0  0  0
   -2.2849   -0.4863   -0.7764 C   0  0  0  0  0  0  0  0  0  0  0  0
   -1.6903   -2.5347   -1.1396 H   0  0  0  0  0  0  0  0  0  0  0  0
    0.7252   -2.0054   -1.3483 H   0  0  0  0  0  0  0  0  0  0  0  0
   -0.1366    2.1700   -0.6135 H   0  0  0  0  0  0  0  0  0  0  0  0
   -2.5529    1.6316   -0.4247 H   0  0  0  0  0  0  0  0  0  0  0  0
    1.5963    0.3738   -1.0977 N   0  0  0  0  0  0  0  0  0  0  0  0
    2.6946    0.5997   -0.8161 N   0  0  0  0  0  0  0  0  0  0  0  0
    2.9296    0.5321    1.3986 Cl  0  0  0  0  0  0  0  0  0  0  0  0
   -3.3450   -0.7207   -0.6893 H   0  0  0  0  0  0  0  0  0  0  0  0
  1  6  1  0  0  0  0
  2  1  2  0  0  0  0
  2  3  1  0  0  0  0
  3  4  2  0  0  0  0
  4  5  1  0  0  0  0
  4  9  1  0  0  0  0
  5 10  1  0  0  0  0
  6 14  1  0  0  0  0
  6  5  2  0  0  0  0
  7  1  1  0  0  0  0
  8  2  1  0  0  0  0
 11  3  1  0  0  0  0
 11 12  1  0  0  0  0
M  RAD  3  11   2  12   3  13   2
M  END
