Coordinates from ORCA-job Ph-N2-Cl-B3LYPG-aug-cc-pVDZ-scan-d09-49-n400
 OpenBabel11081710403D

 14 12  0  0  0  0  0  0  0  0999 V2000
   -1.6471   -1.4906   -1.3303 C   0  0  0  0  0  0  0  0  0  0  0  0
   -0.2324   -1.5641   -1.3635 C   0  0  0  0  0  0  0  0  0  0  0  0
    0.2478   -0.3966   -0.8581 C   0  0  0  0  0  0  0  0  0  0  0  0
   -0.1791    0.7208   -0.3736 C   0  0  0  0  0  0  0  0  0  0  0  0
   -1.6036    0.7598   -0.3554 C   0  0  0  0  0  0  0  0  0  0  0  0
   -2.3073   -0.3520   -0.8364 C   0  0  0  0  0  0  0  0  0  0  0  0
   -2.2147   -2.3458   -1.7003 H   0  0  0  0  0  0  0  0  0  0  0  0
    0.3273   -2.4181   -1.7340 H   0  0  0  0  0  0  0  0  0  0  0  0
    0.4740    1.7330    0.0643 H   0  0  0  0  0  0  0  0  0  0  0  0
   -2.1122    1.6453    0.0287 H   0  0  0  0  0  0  0  0  0  0  0  0
    2.6413   -0.3648   -0.8466 N   0  0  0  0  0  0  0  0  0  0  0  0
    3.4502    0.3257   -0.5478 N   0  0  0  0  0  0  0  0  0  0  0  0
    1.2619    3.0224    0.6222 Cl  0  0  0  0  0  0  0  0  0  0  0  0
   -3.3975   -0.3351   -0.8280 H   0  0  0  0  0  0  0  0  0  0  0  0
  1  6  1  0  0  0  0
  2  1  2  0  0  0  0
  2  3  1  0  0  0  0
  3  4  2  0  0  0  0
  4  5  1  0  0  0  0
  4  9  1  0  0  0  0
  5 10  1  0  0  0  0
  6 14  1  0  0  0  0
  6  5  2  0  0  0  0
  7  1  1  0  0  0  0
  8  2  1  0  0  0  0
 11 12  3  0  0  0  0
M  RAD  2   3   2  13   2
M  END
