Coordinates from ORCA-job Ph-N2-Cl-B3LYPG-aug-cc-pVDZ-scan-d09-49-n400
 OpenBabel11081710403D

 14 12  0  0  0  0  0  0  0  0999 V2000
   -1.4449   -1.3252   -1.2588 C   0  0  0  0  0  0  0  0  0  0  0  0
   -0.0616   -1.0368   -1.1349 C   0  0  0  0  0  0  0  0  0  0  0  0
    0.0538    0.2207   -0.5901 C   0  0  0  0  0  0  0  0  0  0  0  0
   -0.7738    1.0897   -0.2131 C   0  0  0  0  0  0  0  0  0  0  0  0
   -2.1529    0.8478   -0.3169 C   0  0  0  0  0  0  0  0  0  0  0  0
   -2.4471   -0.4180   -0.8651 C   0  0  0  0  0  0  0  0  0  0  0  0
   -1.7318   -2.2918   -1.6774 H   0  0  0  0  0  0  0  0  0  0  0  0
    0.7211   -1.7284   -1.4350 H   0  0  0  0  0  0  0  0  0  0  0  0
   -0.3270    2.8571    0.5525 H   0  0  0  0  0  0  0  0  0  0  0  0
   -2.9326    1.5453   -0.0142 H   0  0  0  0  0  0  0  0  0  0  0  0
    4.2038   -2.1337   -1.6141 N   0  0  0  0  0  0  0  0  0  0  0  0
    5.3041   -2.0482   -1.5796 N   0  0  0  0  0  0  0  0  0  0  0  0
   -0.2096    4.0671    1.0768 Cl  0  0  0  0  0  0  0  0  0  0  0  0
   -3.4928   -0.7055   -0.9889 H   0  0  0  0  0  0  0  0  0  0  0  0
  1  2  2  0  0  0  0
  1  6  1  0  0  0  0
  2  3  1  0  0  0  0
  3  4  2  0  0  0  0
  5  4  1  0  0  0  0
  5 10  1  0  0  0  0
  6  5  2  0  0  0  0
  7  1  1  0  0  0  0
  8  2  1  0  0  0  0
  9 13  1  0  0  0  0
 11 12  3  0  0  0  0
 14  6  1  0  0  0  0
M  RAD  2   3   2   4   2
M  END
