Coordinates from ORCA-job Ph-N2-Cl-B3LYPG-aug-cc-pVDZ-scan-d09-49-n400
 OpenBabel11081710403D

 14 14  0  0  0  0  0  0  0  0999 V2000
   -1.5365   -1.4969   -1.3331 C   0  0  0  0  0  0  0  0  0  0  0  0
   -0.1415   -1.4064   -1.2952 C   0  0  0  0  0  0  0  0  0  0  0  0
    0.3904   -0.2326   -0.7872 C   0  0  0  0  0  0  0  0  0  0  0  0
   -0.3257    0.8532   -0.3161 C   0  0  0  0  0  0  0  0  0  0  0  0
   -1.7207    0.7298   -0.3682 C   0  0  0  0  0  0  0  0  0  0  0  0
   -2.3187   -0.4316   -0.8709 C   0  0  0  0  0  0  0  0  0  0  0  0
   -2.0076   -2.3986   -1.7233 H   0  0  0  0  0  0  0  0  0  0  0  0
    0.5036   -2.2100   -1.6440 H   0  0  0  0  0  0  0  0  0  0  0  0
    0.1826    1.7357    0.0658 H   0  0  0  0  0  0  0  0  0  0  0  0
   -2.3377    1.5539   -0.0106 H   0  0  0  0  0  0  0  0  0  0  0  0
    2.0622   -0.2170   -0.7820 N   0  0  0  0  0  0  0  0  0  0  0  0
    2.9096    0.5063   -0.4694 N   0  0  0  0  0  0  0  0  0  0  0  0
    2.4544    2.4619    0.3784 Cl  0  0  0  0  0  0  0  0  0  0  0  0
   -3.4057   -0.5077   -0.9028 H   0  0  0  0  0  0  0  0  0  0  0  0
  1  2  2  0  0  0  0
  1  6  1  0  0  0  0
  2  3  1  0  0  0  0
  3 11  1  0  0  0  0
  3  4  2  0  0  0  0
  4  9  1  0  0  0  0
  5  4  1  0  0  0  0
  5 10  1  0  0  0  0
  6  5  2  0  0  0  0
  7  1  1  0  0  0  0
  8  2  1  0  0  0  0
 11 12  2  0  0  0  0
 12 13  1  0  0  0  0
 14  6  1  0  0  0  0
M  END
