Coordinates from ORCA-job Ph-N2-Cl-B3LYPG-aug-cc-pVDZ-scan-d09-49-n400
 OpenBabel11081710403D

 14 12  0  0  0  0  0  0  0  0999 V2000
   -1.6292   -1.5027   -1.3355 C   0  0  0  0  0  0  0  0  0  0  0  0
   -0.2112   -1.5406   -1.3531 C   0  0  0  0  0  0  0  0  0  0  0  0
    0.2284   -0.3528   -0.8390 C   0  0  0  0  0  0  0  0  0  0  0  0
   -0.2845    0.7080   -0.3790 C   0  0  0  0  0  0  0  0  0  0  0  0
   -1.6964    0.7595   -0.3555 C   0  0  0  0  0  0  0  0  0  0  0  0
   -2.3420   -0.3890   -0.8525 C   0  0  0  0  0  0  0  0  0  0  0  0
   -2.1717   -2.3721   -1.7116 H   0  0  0  0  0  0  0  0  0  0  0  0
    0.3680   -2.3836   -1.7188 H   0  0  0  0  0  0  0  0  0  0  0  0
    0.5412    2.1734    0.2550 H   0  0  0  0  0  0  0  0  0  0  0  0
   -2.2572    1.6170    0.0164 H   0  0  0  0  0  0  0  0  0  0  0  0
    2.7796   -0.5879   -0.9428 N   0  0  0  0  0  0  0  0  0  0  0  0
    3.7351   -0.0793   -0.7242 N   0  0  0  0  0  0  0  0  0  0  0  0
    1.0814    3.3085    0.7462 Cl  0  0  0  0  0  0  0  0  0  0  0  0
   -3.4328   -0.4187   -0.8644 H   0  0  0  0  0  0  0  0  0  0  0  0
  1  6  1  0  0  0  0
  2  1  2  0  0  0  0
  2  3  1  0  0  0  0
  3  4  2  0  0  0  0
  4  5  1  0  0  0  0
  5 10  1  0  0  0  0
  6  5  2  0  0  0  0
  7  1  1  0  0  0  0
  8  2  1  0  0  0  0
  9 13  1  0  0  0  0
 11 12  3  0  0  0  0
 14  6  1  0  0  0  0
M  RAD  2   3   2   4   2
M  END
