Coordinates from ORCA-job Ph-N2-Cl-B3LYPG-aug-cc-pVDZ-scan-d09-49-n400
 OpenBabel11081710403D

 14 12  0  0  0  0  0  0  0  0999 V2000
   -1.6702   -1.4698   -1.3212 C   0  0  0  0  0  0  0  0  0  0  0  0
   -0.2519   -1.4457   -1.3117 C   0  0  0  0  0  0  0  0  0  0  0  0
    0.1354   -0.2373   -0.7885 C   0  0  0  0  0  0  0  0  0  0  0  0
   -0.4679    0.7762   -0.3491 C   0  0  0  0  0  0  0  0  0  0  0  0
   -1.8744    0.7908   -0.3419 C   0  0  0  0  0  0  0  0  0  0  0  0
   -2.4467   -0.3919   -0.8538 C   0  0  0  0  0  0  0  0  0  0  0  0
   -2.1667   -2.3620   -1.7074 H   0  0  0  0  0  0  0  0  0  0  0  0
    0.3697   -2.2631   -1.6662 H   0  0  0  0  0  0  0  0  0  0  0  0
    0.3436    2.4028    0.3549 H   0  0  0  0  0  0  0  0  0  0  0  0
   -2.4825    1.6199    0.0176 H   0  0  0  0  0  0  0  0  0  0  0  0
    3.5156   -1.0202   -1.1301 N   0  0  0  0  0  0  0  0  0  0  0  0
    4.4934   -0.5477   -0.9293 N   0  0  0  0  0  0  0  0  0  0  0  0
    0.7455    3.5632    0.8571 Cl  0  0  0  0  0  0  0  0  0  0  0  0
   -3.5344   -0.4753   -0.8893 H   0  0  0  0  0  0  0  0  0  0  0  0
  1  2  2  0  0  0  0
  1  6  1  0  0  0  0
  2  3  1  0  0  0  0
  3  4  2  0  0  0  0
  4  5  1  0  0  0  0
  5 10  1  0  0  0  0
  6  5  2  0  0  0  0
  7  1  1  0  0  0  0
  8  2  1  0  0  0  0
  9 13  1  0  0  0  0
 11 12  3  0  0  0  0
 14  6  1  0  0  0  0
M  RAD  2   3   2   4   2
M  END
