Coordinates from ORCA-job Ph-N2-Cl-B3LYPG-aug-cc-pVDZ-scan-d09-49-n400
 OpenBabel11081710403D

 14 13  0  0  0  0  0  0  0  0999 V2000
   -1.3549   -1.4974   -1.0350 C   0  0  0  0  0  0  0  0  0  0  0  0
   -0.0025   -1.2188   -1.1066 C   0  0  0  0  0  0  0  0  0  0  0  0
    0.4913    0.1394   -0.9509 C   0  0  0  0  0  0  0  0  0  0  0  0
   -0.5172    1.1597   -0.7146 C   0  0  0  0  0  0  0  0  0  0  0  0
   -1.8595    0.8337   -0.6563 C   0  0  0  0  0  0  0  0  0  0  0  0
   -2.2991   -0.4867   -0.8144 C   0  0  0  0  0  0  0  0  0  0  0  0
   -1.6777   -2.5322   -1.1527 H   0  0  0  0  0  0  0  0  0  0  0  0
    0.7397   -1.9987   -1.2707 H   0  0  0  0  0  0  0  0  0  0  0  0
   -0.1643    2.1818   -0.5863 H   0  0  0  0  0  0  0  0  0  0  0  0
   -2.5794    1.6328   -0.4775 H   0  0  0  0  0  0  0  0  0  0  0  0
    1.5152    0.3695   -0.9949 N   0  0  0  0  0  0  0  0  0  0  0  0
    2.6417    0.6124   -0.8675 N   0  0  0  0  0  0  0  0  0  0  0  0
    3.1358    0.4692    1.3329 Cl  0  0  0  0  0  0  0  0  0  0  0  0
   -3.3603   -0.7246   -0.7642 H   0  0  0  0  0  0  0  0  0  0  0  0
  1  6  1  0  0  0  0
  2  1  2  0  0  0  0
  2  3  1  0  0  0  0
  3  4  2  0  0  0  0
  4  5  1  0  0  0  0
  4  9  1  0  0  0  0
  5 10  1  0  0  0  0
  6 14  1  0  0  0  0
  6  5  2  0  0  0  0
  7  1  1  0  0  0  0
  8  2  1  0  0  0  0
 11  3  1  0  0  0  0
 11 12  1  0  0  0  0
M  RAD  3  11   2  12   3  13   2
M  END
