Coordinates from ORCA-job Ph-N2-Cl-B3LYPG-aug-cc-pVDZ-scan-d09-49-n400
 OpenBabel11081710403D

 14 12  0  0  0  0  0  0  0  0999 V2000
   -1.6373   -1.4905   -1.3303 C   0  0  0  0  0  0  0  0  0  0  0  0
   -0.2231   -1.5584   -1.3610 C   0  0  0  0  0  0  0  0  0  0  0  0
    0.2590   -0.3913   -0.8558 C   0  0  0  0  0  0  0  0  0  0  0  0
   -0.1766    0.7272   -0.3708 C   0  0  0  0  0  0  0  0  0  0  0  0
   -1.6003    0.7589   -0.3558 C   0  0  0  0  0  0  0  0  0  0  0  0
   -2.3012   -0.3541   -0.8373 C   0  0  0  0  0  0  0  0  0  0  0  0
   -2.2014   -2.3476   -1.7011 H   0  0  0  0  0  0  0  0  0  0  0  0
    0.3397   -2.4108   -1.7308 H   0  0  0  0  0  0  0  0  0  0  0  0
    0.4739    1.7162    0.0571 H   0  0  0  0  0  0  0  0  0  0  0  0
   -2.1119    1.6428    0.0277 H   0  0  0  0  0  0  0  0  0  0  0  0
    2.5823   -0.3614   -0.8450 N   0  0  0  0  0  0  0  0  0  0  0  0
    3.3833    0.3376   -0.5428 N   0  0  0  0  0  0  0  0  0  0  0  0
    1.3139    3.0115    0.6174 Cl  0  0  0  0  0  0  0  0  0  0  0  0
   -3.3914   -0.3400   -0.8302 H   0  0  0  0  0  0  0  0  0  0  0  0
  1  6  1  0  0  0  0
  2  1  2  0  0  0  0
  2  3  1  0  0  0  0
  3  4  2  0  0  0  0
  4  5  1  0  0  0  0
  4  9  1  0  0  0  0
  5 10  1  0  0  0  0
  6 14  1  0  0  0  0
  6  5  2  0  0  0  0
  7  1  1  0  0  0  0
  8  2  1  0  0  0  0
 11 12  3  0  0  0  0
M  RAD  2   3   2  13   2
M  END
