Coordinates from ORCA-job Ph-N2-Cl-B3LYPG-aug-cc-pVDZ-scan-d09-49-n400
 OpenBabel11081710403D

 14 12  0  0  0  0  0  0  0  0999 V2000
   -1.6643   -1.4638   -1.3186 C   0  0  0  0  0  0  0  0  0  0  0  0
   -0.2463   -1.4280   -1.3040 C   0  0  0  0  0  0  0  0  0  0  0  0
    0.1322   -0.2168   -0.7796 C   0  0  0  0  0  0  0  0  0  0  0  0
   -0.4849    0.7896   -0.3433 C   0  0  0  0  0  0  0  0  0  0  0  0
   -1.8905    0.7949   -0.3401 C   0  0  0  0  0  0  0  0  0  0  0  0
   -2.4513   -0.3926   -0.8542 C   0  0  0  0  0  0  0  0  0  0  0  0
   -2.1519   -2.3602   -1.7066 H   0  0  0  0  0  0  0  0  0  0  0  0
    0.3813   -2.2416   -1.6568 H   0  0  0  0  0  0  0  0  0  0  0  0
    0.3127    2.4271    0.3654 H   0  0  0  0  0  0  0  0  0  0  0  0
   -2.5062    1.6191    0.0173 H   0  0  0  0  0  0  0  0  0  0  0  0
    3.5706   -1.0856   -1.1584 N   0  0  0  0  0  0  0  0  0  0  0  0
    4.5455   -0.6084   -0.9558 N   0  0  0  0  0  0  0  0  0  0  0  0
    0.6999    3.5912    0.8693 Cl  0  0  0  0  0  0  0  0  0  0  0  0
   -3.5382   -0.4848   -0.8934 H   0  0  0  0  0  0  0  0  0  0  0  0
  1  2  2  0  0  0  0
  1  6  1  0  0  0  0
  2  3  1  0  0  0  0
  3  4  2  0  0  0  0
  4  5  1  0  0  0  0
  5 10  1  0  0  0  0
  6  5  2  0  0  0  0
  7  1  1  0  0  0  0
  8  2  1  0  0  0  0
  9 13  1  0  0  0  0
 11 12  3  0  0  0  0
 14  6  1  0  0  0  0
M  RAD  2   3   2   4   2
M  END
