Coordinates from ORCA-job Ph-N2-Cl-B3LYPG-aug-cc-pVDZ-scan-d09-49-n400
 OpenBabel11081710403D

 14 12  0  0  0  0  0  0  0  0999 V2000
   -1.4426   -1.3238   -1.2582 C   0  0  0  0  0  0  0  0  0  0  0  0
   -0.0598   -1.0334   -1.1334 C   0  0  0  0  0  0  0  0  0  0  0  0
    0.0533    0.2244   -0.5885 C   0  0  0  0  0  0  0  0  0  0  0  0
   -0.7759    1.0920   -0.2121 C   0  0  0  0  0  0  0  0  0  0  0  0
   -2.1546    0.8480   -0.3168 C   0  0  0  0  0  0  0  0  0  0  0  0
   -2.4465   -0.4182   -0.8652 C   0  0  0  0  0  0  0  0  0  0  0  0
   -1.7277   -2.2910   -1.6770 H   0  0  0  0  0  0  0  0  0  0  0  0
    0.7241   -1.7237   -1.4330 H   0  0  0  0  0  0  0  0  0  0  0  0
   -0.3323    2.8602    0.5539 H   0  0  0  0  0  0  0  0  0  0  0  0
   -2.9355    1.5443   -0.0146 H   0  0  0  0  0  0  0  0  0  0  0  0
    4.2071   -2.1418   -1.6176 N   0  0  0  0  0  0  0  0  0  0  0  0
    5.3078   -2.0599   -1.5846 N   0  0  0  0  0  0  0  0  0  0  0  0
   -0.2172    4.0704    1.0782 Cl  0  0  0  0  0  0  0  0  0  0  0  0
   -3.4916   -0.7074   -0.9897 H   0  0  0  0  0  0  0  0  0  0  0  0
  1  2  2  0  0  0  0
  1  6  1  0  0  0  0
  2  3  1  0  0  0  0
  3  4  2  0  0  0  0
  5  4  1  0  0  0  0
  5 10  1  0  0  0  0
  6  5  2  0  0  0  0
  7  1  1  0  0  0  0
  8  2  1  0  0  0  0
  9 13  1  0  0  0  0
 11 12  3  0  0  0  0
 14  6  1  0  0  0  0
M  RAD  2   3   2   4   2
M  END
