Coordinates from ORCA-job Ph-N2-Cl-B3LYPG-aug-cc-pVDZ-scan-d09-49-n400
 OpenBabel11081710403D

 14 12  0  0  0  0  0  0  0  0999 V2000
   -1.6340   -1.4900   -1.3301 C   0  0  0  0  0  0  0  0  0  0  0  0
   -0.2198   -1.5557   -1.3598 C   0  0  0  0  0  0  0  0  0  0  0  0
    0.2632   -0.3888   -0.8547 C   0  0  0  0  0  0  0  0  0  0  0  0
   -0.1775    0.7297   -0.3697 C   0  0  0  0  0  0  0  0  0  0  0  0
   -1.6004    0.7590   -0.3557 C   0  0  0  0  0  0  0  0  0  0  0  0
   -2.2998   -0.3549   -0.8377 C   0  0  0  0  0  0  0  0  0  0  0  0
   -2.1966   -2.3479   -1.7013 H   0  0  0  0  0  0  0  0  0  0  0  0
    0.3438   -2.4076   -1.7294 H   0  0  0  0  0  0  0  0  0  0  0  0
    0.4722    1.7127    0.0556 H   0  0  0  0  0  0  0  0  0  0  0  0
   -2.1134    1.6423    0.0274 H   0  0  0  0  0  0  0  0  0  0  0  0
    2.5666   -0.3629   -0.8456 N   0  0  0  0  0  0  0  0  0  0  0  0
    3.3667    0.3372   -0.5431 N   0  0  0  0  0  0  0  0  0  0  0  0
    1.3276    3.0093    0.6165 Cl  0  0  0  0  0  0  0  0  0  0  0  0
   -3.3900   -0.3424   -0.8313 H   0  0  0  0  0  0  0  0  0  0  0  0
  1  6  1  0  0  0  0
  2  1  2  0  0  0  0
  2  3  1  0  0  0  0
  3  4  2  0  0  0  0
  4  5  1  0  0  0  0
  4  9  1  0  0  0  0
  5 10  1  0  0  0  0
  6 14  1  0  0  0  0
  6  5  2  0  0  0  0
  7  1  1  0  0  0  0
  8  2  1  0  0  0  0
 11 12  3  0  0  0  0
M  RAD  2   3   2  13   2
M  END
