Coordinates from ORCA-job Ph-N2-Cl-B3LYPG-aug-cc-pVDZ-scan-d09-49-n400
 OpenBabel11081710403D

 14 12  0  0  0  0  0  0  0  0999 V2000
   -1.6500   -1.4540   -1.3144 C   0  0  0  0  0  0  0  0  0  0  0  0
   -0.2323   -1.3984   -1.2912 C   0  0  0  0  0  0  0  0  0  0  0  0
    0.1244   -0.1818   -0.7644 C   0  0  0  0  0  0  0  0  0  0  0  0
   -0.5102    0.8152   -0.3321 C   0  0  0  0  0  0  0  0  0  0  0  0
   -1.9155    0.8011   -0.3374 C   0  0  0  0  0  0  0  0  0  0  0  0
   -2.4556   -0.3946   -0.8551 C   0  0  0  0  0  0  0  0  0  0  0  0
   -2.1222   -2.3573   -1.7054 H   0  0  0  0  0  0  0  0  0  0  0  0
    0.4044   -2.2060   -1.6414 H   0  0  0  0  0  0  0  0  0  0  0  0
    0.2623    2.4668    0.3827 H   0  0  0  0  0  0  0  0  0  0  0  0
   -2.5454    1.6163    0.0161 H   0  0  0  0  0  0  0  0  0  0  0  0
    3.6373   -1.1775   -1.1982 N   0  0  0  0  0  0  0  0  0  0  0  0
    4.6251   -0.7234   -1.0059 N   0  0  0  0  0  0  0  0  0  0  0  0
    0.6272    3.6365    0.8891 Cl  0  0  0  0  0  0  0  0  0  0  0  0
   -3.5408   -0.5028   -0.9013 H   0  0  0  0  0  0  0  0  0  0  0  0
  1  2  2  0  0  0  0
  1  6  1  0  0  0  0
  2  3  1  0  0  0  0
  3  4  2  0  0  0  0
  5  4  1  0  0  0  0
  5 10  1  0  0  0  0
  6  5  2  0  0  0  0
  7  1  1  0  0  0  0
  8  2  1  0  0  0  0
  9 13  1  0  0  0  0
 11 12  3  0  0  0  0
 14  6  1  0  0  0  0
M  RAD  2   3   2   4   2
M  END
