Coordinates from ORCA-job Ph-N2-Cl-B3LYPG-aug-cc-pVDZ-scan-d09-49-n400
 OpenBabel11081710403D

 14 12  0  0  0  0  0  0  0  0999 V2000
   -1.5519   -1.3863   -1.2852 C   0  0  0  0  0  0  0  0  0  0  0  0
   -0.1470   -1.2033   -1.2068 C   0  0  0  0  0  0  0  0  0  0  0  0
    0.0766    0.0407   -0.6680 C   0  0  0  0  0  0  0  0  0  0  0  0
   -0.6641    0.9738   -0.2633 C   0  0  0  0  0  0  0  0  0  0  0  0
   -2.0608    0.8332   -0.3234 C   0  0  0  0  0  0  0  0  0  0  0  0
   -2.4685   -0.4058   -0.8598 C   0  0  0  0  0  0  0  0  0  0  0  0
   -1.9248   -2.3280   -1.6929 H   0  0  0  0  0  0  0  0  0  0  0  0
    0.5734   -1.9495   -1.5305 H   0  0  0  0  0  0  0  0  0  0  0  0
   -0.0667    2.6917    0.4806 H   0  0  0  0  0  0  0  0  0  0  0  0
   -2.7756    1.5871    0.0036 H   0  0  0  0  0  0  0  0  0  0  0  0
    4.0106   -1.7223   -1.4351 N   0  0  0  0  0  0  0  0  0  0  0  0
    5.0796   -1.4674   -1.3283 N   0  0  0  0  0  0  0  0  0  0  0  0
    0.1644    3.8890    0.9992 Cl  0  0  0  0  0  0  0  0  0  0  0  0
   -3.5365   -0.6128   -0.9489 H   0  0  0  0  0  0  0  0  0  0  0  0
  1  2  2  0  0  0  0
  1  6  1  0  0  0  0
  2  3  1  0  0  0  0
  3  4  2  0  0  0  0
  5  4  1  0  0  0  0
  5 10  1  0  0  0  0
  6  5  2  0  0  0  0
  7  1  1  0  0  0  0
  8  2  1  0  0  0  0
  9 13  1  0  0  0  0
 11 12  3  0  0  0  0
 14  6  1  0  0  0  0
M  RAD  2   3   2   4   2
M  END
