Coordinates from ORCA-job Ph-N2-Cl-B3LYPG-aug-cc-pVDZ-scan-d09-49-n400
 OpenBabel11081710403D

 14 14  0  0  0  0  0  0  0  0999 V2000
   -1.3448   -1.4895   -1.0330 C   0  0  0  0  0  0  0  0  0  0  0  0
    0.0052   -1.2249   -1.0886 C   0  0  0  0  0  0  0  0  0  0  0  0
    0.5506    0.1528   -0.9219 C   0  0  0  0  0  0  0  0  0  0  0  0
   -0.5182    1.1685   -0.6968 C   0  0  0  0  0  0  0  0  0  0  0  0
   -1.8524    0.8313   -0.6604 C   0  0  0  0  0  0  0  0  0  0  0  0
   -2.2997   -0.4862   -0.8236 C   0  0  0  0  0  0  0  0  0  0  0  0
   -1.6599   -2.5265   -1.1598 H   0  0  0  0  0  0  0  0  0  0  0  0
    0.7610   -1.9929   -1.2440 H   0  0  0  0  0  0  0  0  0  0  0  0
   -0.1520    2.1862   -0.5732 H   0  0  0  0  0  0  0  0  0  0  0  0
   -2.5705    1.6362   -0.4948 H   0  0  0  0  0  0  0  0  0  0  0  0
    1.4384    0.3515   -0.9423 N   0  0  0  0  0  0  0  0  0  0  0  0
    2.5901    0.6071   -0.8673 N   0  0  0  0  0  0  0  0  0  0  0  0
    3.1217    0.4502    1.2361 Cl  0  0  0  0  0  0  0  0  0  0  0  0
   -3.3606   -0.7238   -0.7892 H   0  0  0  0  0  0  0  0  0  0  0  0
  1  6  1  0  0  0  0
  2  1  2  0  0  0  0
  2  3  1  0  0  0  0
  3  4  2  0  0  0  0
  4  5  1  0  0  0  0
  4  9  1  0  0  0  0
  5 10  1  0  0  0  0
  6 14  1  0  0  0  0
  6  5  2  0  0  0  0
  7  1  1  0  0  0  0
  8  2  1  0  0  0  0
 11  3  1  0  0  0  0
 11 12  1  0  0  0  0
 12 13  1  0  0  0  0
M  RAD  2  11   2  12   2
M  END
