Coordinates from ORCA-job Ph-N2-Cl-B3LYPG-aug-cc-pVDZ-scan-d09-49-n400
 OpenBabel11081710403D

 14 14  0  0  0  0  0  0  0  0999 V2000
   -1.5005   -1.4915   -1.3309 C   0  0  0  0  0  0  0  0  0  0  0  0
   -0.1133   -1.3872   -1.2869 C   0  0  0  0  0  0  0  0  0  0  0  0
    0.4735   -0.2140   -0.7791 C   0  0  0  0  0  0  0  0  0  0  0  0
   -0.3115    0.8584   -0.3137 C   0  0  0  0  0  0  0  0  0  0  0  0
   -1.6990    0.7322   -0.3672 C   0  0  0  0  0  0  0  0  0  0  0  0
   -2.2922   -0.4317   -0.8710 C   0  0  0  0  0  0  0  0  0  0  0  0
   -1.9649   -2.3958   -1.7224 H   0  0  0  0  0  0  0  0  0  0  0  0
    0.5292   -2.1940   -1.6371 H   0  0  0  0  0  0  0  0  0  0  0  0
    0.1766    1.7501    0.0722 H   0  0  0  0  0  0  0  0  0  0  0  0
   -2.3225    1.5521   -0.0113 H   0  0  0  0  0  0  0  0  0  0  0  0
    1.8443   -0.1837   -0.7672 N   0  0  0  0  0  0  0  0  0  0  0  0
    2.7862    0.4486   -0.4942 N   0  0  0  0  0  0  0  0  0  0  0  0
    2.4817    2.4106    0.3556 Cl  0  0  0  0  0  0  0  0  0  0  0  0
   -3.3790   -0.5140   -0.9057 H   0  0  0  0  0  0  0  0  0  0  0  0
  1  2  2  0  0  0  0
  1  6  1  0  0  0  0
  2  3  1  0  0  0  0
  3 11  1  0  0  0  0
  3  4  2  0  0  0  0
  4  9  1  0  0  0  0
  5  4  1  0  0  0  0
  5 10  1  0  0  0  0
  6  5  2  0  0  0  0
  7  1  1  0  0  0  0
  8  2  1  0  0  0  0
 11 12  2  0  0  0  0
 12 13  1  0  0  0  0
 14  6  1  0  0  0  0
M  END
