Coordinates from ORCA-job Ph-N2-Cl-B3LYPG-aug-cc-pVDZ-scan-d09-49-n400
 OpenBabel11081710403D

 14 12  0  0  0  0  0  0  0  0999 V2000
   -1.6227   -1.4958   -1.3326 C   0  0  0  0  0  0  0  0  0  0  0  0
   -0.2100   -1.5562   -1.3598 C   0  0  0  0  0  0  0  0  0  0  0  0
    0.2836   -0.3925   -0.8560 C   0  0  0  0  0  0  0  0  0  0  0  0
   -0.1679    0.7337   -0.3678 C   0  0  0  0  0  0  0  0  0  0  0  0
   -1.5895    0.7508   -0.3593 C   0  0  0  0  0  0  0  0  0  0  0  0
   -2.2894   -0.3619   -0.8410 C   0  0  0  0  0  0  0  0  0  0  0  0
   -2.1832   -2.3547   -1.7042 H   0  0  0  0  0  0  0  0  0  0  0  0
    0.3565   -2.4066   -1.7286 H   0  0  0  0  0  0  0  0  0  0  0  0
    0.4818    1.6640    0.0348 H   0  0  0  0  0  0  0  0  0  0  0  0
   -2.1057    1.6325    0.0230 H   0  0  0  0  0  0  0  0  0  0  0  0
    2.4453   -0.3200   -0.8261 N   0  0  0  0  0  0  0  0  0  0  0  0
    3.1808    0.4409   -0.4999 N   0  0  0  0  0  0  0  0  0  0  0  0
    1.5086    2.9556    0.5936 Cl  0  0  0  0  0  0  0  0  0  0  0  0
   -3.3795   -0.3498   -0.8350 H   0  0  0  0  0  0  0  0  0  0  0  0
  1  6  1  0  0  0  0
  2  1  2  0  0  0  0
  2  3  1  0  0  0  0
  3  4  2  0  0  0  0
  4  5  1  0  0  0  0
  4  9  1  0  0  0  0
  5 10  1  0  0  0  0
  6 14  1  0  0  0  0
  6  5  2  0  0  0  0
  7  1  1  0  0  0  0
  8  2  1  0  0  0  0
 11 12  3  0  0  0  0
M  RAD  2   3   2  13   2
M  END
