Coordinates from ORCA-job Ph-N2-Cl-B3LYPG-aug-cc-pVDZ-scan-d09-49-n400
 OpenBabel11081710403D

 14 12  0  0  0  0  0  0  0  0999 V2000
   -1.6262   -1.5047   -1.3364 C   0  0  0  0  0  0  0  0  0  0  0  0
   -0.2090   -1.5463   -1.3556 C   0  0  0  0  0  0  0  0  0  0  0  0
    0.2367   -0.3602   -0.8422 C   0  0  0  0  0  0  0  0  0  0  0  0
   -0.2709    0.7035   -0.3810 C   0  0  0  0  0  0  0  0  0  0  0  0
   -1.6832    0.7573   -0.3565 C   0  0  0  0  0  0  0  0  0  0  0  0
   -2.3342   -0.3883   -0.8522 C   0  0  0  0  0  0  0  0  0  0  0  0
   -2.1718   -2.3723   -1.7117 H   0  0  0  0  0  0  0  0  0  0  0  0
    0.3693   -2.3899   -1.7215 H   0  0  0  0  0  0  0  0  0  0  0  0
    0.5515    2.1583    0.2484 H   0  0  0  0  0  0  0  0  0  0  0  0
   -2.2403    1.6168    0.0163 H   0  0  0  0  0  0  0  0  0  0  0  0
    2.7308   -0.5646   -0.9326 N   0  0  0  0  0  0  0  0  0  0  0  0
    3.6813   -0.0481   -0.7107 N   0  0  0  0  0  0  0  0  0  0  0  0
    1.0998    3.2923    0.7391 Cl  0  0  0  0  0  0  0  0  0  0  0  0
   -3.4251   -0.4138   -0.8623 H   0  0  0  0  0  0  0  0  0  0  0  0
  1  6  1  0  0  0  0
  2  1  2  0  0  0  0
  2  3  1  0  0  0  0
  3  4  2  0  0  0  0
  4  5  1  0  0  0  0
  5 10  1  0  0  0  0
  6  5  2  0  0  0  0
  7  1  1  0  0  0  0
  8  2  1  0  0  0  0
  9 13  1  0  0  0  0
 11 12  3  0  0  0  0
 14  6  1  0  0  0  0
M  RAD  2   3   2   4   2
M  END
