Coordinates from ORCA-job Ph-N2-Cl-B3LYPG-aug-cc-pVDZ-scan-d09-49-n400
 OpenBabel11081710403D

 14 12  0  0  0  0  0  0  0  0999 V2000
   -1.6389   -1.4459   -1.3109 C   0  0  0  0  0  0  0  0  0  0  0  0
   -0.2220   -1.3739   -1.2806 C   0  0  0  0  0  0  0  0  0  0  0  0
    0.1177   -0.1532   -0.7520 C   0  0  0  0  0  0  0  0  0  0  0  0
   -0.5307    0.8363   -0.3230 C   0  0  0  0  0  0  0  0  0  0  0  0
   -1.9357    0.8058   -0.3354 C   0  0  0  0  0  0  0  0  0  0  0  0
   -2.4591   -0.3961   -0.8557 C   0  0  0  0  0  0  0  0  0  0  0  0
   -2.0986   -2.3547   -1.7043 H   0  0  0  0  0  0  0  0  0  0  0  0
    0.4252   -2.1745   -1.6277 H   0  0  0  0  0  0  0  0  0  0  0  0
    0.2199    2.4973    0.3960 H   0  0  0  0  0  0  0  0  0  0  0  0
   -2.5768    1.6136    0.0149 H   0  0  0  0  0  0  0  0  0  0  0  0
    3.6906   -1.2481   -1.2288 N   0  0  0  0  0  0  0  0  0  0  0  0
    4.6926   -0.8210   -1.0483 N   0  0  0  0  0  0  0  0  0  0  0  0
    0.5673    3.6714    0.9044 Cl  0  0  0  0  0  0  0  0  0  0  0  0
   -3.5427   -0.5169   -0.9074 H   0  0  0  0  0  0  0  0  0  0  0  0
  1  2  2  0  0  0  0
  1  6  1  0  0  0  0
  2  3  1  0  0  0  0
  3  4  2  0  0  0  0
  5  4  1  0  0  0  0
  5 10  1  0  0  0  0
  6  5  2  0  0  0  0
  7  1  1  0  0  0  0
  8  2  1  0  0  0  0
  9 13  1  0  0  0  0
 11 12  3  0  0  0  0
 14  6  1  0  0  0  0
M  RAD  2   3   2   4   2
M  END
