Coordinates from ORCA-job Ph-N2-Cl-B3LYPG-aug-cc-pVDZ-scan-d09-49-n400
 OpenBabel11081710403D

 14 12  0  0  0  0  0  0  0  0999 V2000
   -1.6556   -1.4851   -1.3279 C   0  0  0  0  0  0  0  0  0  0  0  0
   -0.2371   -1.4867   -1.3295 C   0  0  0  0  0  0  0  0  0  0  0  0
    0.1752   -0.2860   -0.8098 C   0  0  0  0  0  0  0  0  0  0  0  0
   -0.4009    0.7420   -0.3641 C   0  0  0  0  0  0  0  0  0  0  0  0
   -1.8079    0.7779   -0.3475 C   0  0  0  0  0  0  0  0  0  0  0  0
   -2.4077   -0.3929   -0.8542 C   0  0  0  0  0  0  0  0  0  0  0  0
   -2.1712   -2.3683   -1.7100 H   0  0  0  0  0  0  0  0  0  0  0  0
    0.3673   -2.3148   -1.6886 H   0  0  0  0  0  0  0  0  0  0  0  0
    0.4295    2.3345    0.3251 H   0  0  0  0  0  0  0  0  0  0  0  0
   -2.3976    1.6182    0.0169 H   0  0  0  0  0  0  0  0  0  0  0  0
    3.2230   -0.8320   -1.0487 N   0  0  0  0  0  0  0  0  0  0  0  0
    4.2211   -0.3978   -0.8636 N   0  0  0  0  0  0  0  0  0  0  0  0
    0.8674    3.4867    0.8239 Cl  0  0  0  0  0  0  0  0  0  0  0  0
   -3.4970   -0.4556   -0.8807 H   0  0  0  0  0  0  0  0  0  0  0  0
  1  6  1  0  0  0  0
  2  1  2  0  0  0  0
  2  3  1  0  0  0  0
  3  4  2  0  0  0  0
  4  5  1  0  0  0  0
  5 10  1  0  0  0  0
  6  5  2  0  0  0  0
  7  1  1  0  0  0  0
  8  2  1  0  0  0  0
  9 13  1  0  0  0  0
 11 12  3  0  0  0  0
 14  6  1  0  0  0  0
M  RAD  2   3   2   4   2
M  END
