Coordinates from ORCA-job Ph-N2-Cl-B3LYPG-aug-cc-pVDZ-scan-d09-49-n400
 OpenBabel11081710403D

 14 12  0  0  0  0  0  0  0  0999 V2000
   -1.5638   -1.3938   -1.2884 C   0  0  0  0  0  0  0  0  0  0  0  0
   -0.1569   -1.2243   -1.2158 C   0  0  0  0  0  0  0  0  0  0  0  0
    0.0808    0.0175   -0.6781 C   0  0  0  0  0  0  0  0  0  0  0  0
   -0.6490    0.9579   -0.2703 C   0  0  0  0  0  0  0  0  0  0  0  0
   -2.0472    0.8305   -0.3246 C   0  0  0  0  0  0  0  0  0  0  0  0
   -2.4691   -0.4045   -0.8593 C   0  0  0  0  0  0  0  0  0  0  0  0
   -1.9474   -2.3318   -1.6945 H   0  0  0  0  0  0  0  0  0  0  0  0
    0.5551   -1.9772   -1.5424 H   0  0  0  0  0  0  0  0  0  0  0  0
   -0.0327    2.6695    0.4710 H   0  0  0  0  0  0  0  0  0  0  0  0
   -2.7534    1.5912    0.0053 H   0  0  0  0  0  0  0  0  0  0  0  0
    3.9782   -1.6668   -1.4109 N   0  0  0  0  0  0  0  0  0  0  0  0
    5.0413   -1.3917   -1.2956 N   0  0  0  0  0  0  0  0  0  0  0  0
    0.2123    3.8646    0.9886 Cl  0  0  0  0  0  0  0  0  0  0  0  0
   -3.5394   -0.6012   -0.9438 H   0  0  0  0  0  0  0  0  0  0  0  0
  1  2  2  0  0  0  0
  1  6  1  0  0  0  0
  2  3  1  0  0  0  0
  3  4  2  0  0  0  0
  5  4  1  0  0  0  0
  5 10  1  0  0  0  0
  6  5  2  0  0  0  0
  7  1  1  0  0  0  0
  8  2  1  0  0  0  0
  9 13  1  0  0  0  0
 11 12  3  0  0  0  0
 14  6  1  0  0  0  0
M  RAD  2   3   2   4   2
M  END
