Coordinates from ORCA-job Ph-N2-Cl-B3LYPG-aug-cc-pVDZ-scan-d09-49-n400
 OpenBabel11081710403D

 14 13  0  0  0  0  0  0  0  0999 V2000
   -1.3534   -1.4964   -1.0351 C   0  0  0  0  0  0  0  0  0  0  0  0
   -0.0014   -1.2195   -1.1043 C   0  0  0  0  0  0  0  0  0  0  0  0
    0.4991    0.1411   -0.9474 C   0  0  0  0  0  0  0  0  0  0  0  0
   -0.5170    1.1606   -0.7121 C   0  0  0  0  0  0  0  0  0  0  0  0
   -1.8583    0.8335   -0.6568 C   0  0  0  0  0  0  0  0  0  0  0  0
   -2.2989   -0.4865   -0.8159 C   0  0  0  0  0  0  0  0  0  0  0  0
   -1.6754   -2.5314   -1.1540 H   0  0  0  0  0  0  0  0  0  0  0  0
    0.7422   -1.9982   -1.2671 H   0  0  0  0  0  0  0  0  0  0  0  0
   -0.1628    2.1823   -0.5838 H   0  0  0  0  0  0  0  0  0  0  0  0
   -2.5780    1.6333   -0.4795 H   0  0  0  0  0  0  0  0  0  0  0  0
    1.5037    0.3666   -0.9876 N   0  0  0  0  0  0  0  0  0  0  0  0
    2.6333    0.6107   -0.8707 N   0  0  0  0  0  0  0  0  0  0  0  0
    3.1357    0.4683    1.3234 Cl  0  0  0  0  0  0  0  0  0  0  0  0
   -3.3601   -0.7243   -0.7678 H   0  0  0  0  0  0  0  0  0  0  0  0
  1  6  1  0  0  0  0
  2  1  2  0  0  0  0
  2  3  1  0  0  0  0
  3  4  2  0  0  0  0
  4  5  1  0  0  0  0
  4  9  1  0  0  0  0
  5 10  1  0  0  0  0
  6 14  1  0  0  0  0
  6  5  2  0  0  0  0
  7  1  1  0  0  0  0
  8  2  1  0  0  0  0
 11  3  1  0  0  0  0
 11 12  1  0  0  0  0
M  RAD  3  11   2  12   3  13   2
M  END
