Coordinates from ORCA-job Ph-N2-Cl-B3LYPG-aug-cc-pVDZ-scan-d09-49-n400
 OpenBabel11081710403D

 14 14  0  0  0  0  0  0  0  0999 V2000
   -1.5286   -1.4953   -1.3325 C   0  0  0  0  0  0  0  0  0  0  0  0
   -0.1352   -1.4012   -1.2930 C   0  0  0  0  0  0  0  0  0  0  0  0
    0.4074   -0.2278   -0.7850 C   0  0  0  0  0  0  0  0  0  0  0  0
   -0.3227    0.8547   -0.3153 C   0  0  0  0  0  0  0  0  0  0  0  0
   -1.7163    0.7304   -0.3679 C   0  0  0  0  0  0  0  0  0  0  0  0
   -2.3131   -0.4315   -0.8709 C   0  0  0  0  0  0  0  0  0  0  0  0
   -1.9982   -2.3976   -1.7231 H   0  0  0  0  0  0  0  0  0  0  0  0
    0.5098   -2.2051   -1.6419 H   0  0  0  0  0  0  0  0  0  0  0  0
    0.1800    1.7395    0.0676 H   0  0  0  0  0  0  0  0  0  0  0  0
   -2.3349    1.5534   -0.0107 H   0  0  0  0  0  0  0  0  0  0  0  0
    2.0191   -0.2129   -0.7799 N   0  0  0  0  0  0  0  0  0  0  0  0
    2.8838    0.4968   -0.4734 N   0  0  0  0  0  0  0  0  0  0  0  0
    2.4578    2.4454    0.3706 Cl  0  0  0  0  0  0  0  0  0  0  0  0
   -3.4001   -0.5090   -0.9035 H   0  0  0  0  0  0  0  0  0  0  0  0
  1  2  2  0  0  0  0
  1  6  1  0  0  0  0
  2  3  1  0  0  0  0
  3 11  1  0  0  0  0
  3  4  2  0  0  0  0
  4  9  1  0  0  0  0
  5  4  1  0  0  0  0
  5 10  1  0  0  0  0
  6  5  2  0  0  0  0
  7  1  1  0  0  0  0
  8  2  1  0  0  0  0
 11 12  2  0  0  0  0
 12 13  1  0  0  0  0
 14  6  1  0  0  0  0
M  END
