Coordinates from ORCA-job Ph-N2-Cl-B3LYPG-aug-cc-pVDZ-scan-d09-49-n400
 OpenBabel11081710403D

 14 14  0  0  0  0  0  0  0  0999 V2000
   -1.5052   -1.4918   -1.3311 C   0  0  0  0  0  0  0  0  0  0  0  0
   -0.1171   -1.3887   -1.2876 C   0  0  0  0  0  0  0  0  0  0  0  0
    0.4638   -0.2159   -0.7799 C   0  0  0  0  0  0  0  0  0  0  0  0
   -0.3137    0.8576   -0.3140 C   0  0  0  0  0  0  0  0  0  0  0  0
   -1.7019    0.7319   -0.3673 C   0  0  0  0  0  0  0  0  0  0  0  0
   -2.2959   -0.4316   -0.8709 C   0  0  0  0  0  0  0  0  0  0  0  0
   -1.9703   -2.3959   -1.7224 H   0  0  0  0  0  0  0  0  0  0  0  0
    0.5257   -2.1951   -1.6375 H   0  0  0  0  0  0  0  0  0  0  0  0
    0.1758    1.7486    0.0716 H   0  0  0  0  0  0  0  0  0  0  0  0
   -2.3247    1.5523   -0.0112 H   0  0  0  0  0  0  0  0  0  0  0  0
    1.8748   -0.1887   -0.7693 N   0  0  0  0  0  0  0  0  0  0  0  0
    2.8043    0.4579   -0.4902 N   0  0  0  0  0  0  0  0  0  0  0  0
    2.4757    2.4124    0.3564 Cl  0  0  0  0  0  0  0  0  0  0  0  0
   -3.3827   -0.5131   -0.9053 H   0  0  0  0  0  0  0  0  0  0  0  0
  1  2  2  0  0  0  0
  1  6  1  0  0  0  0
  2  3  1  0  0  0  0
  3 11  1  0  0  0  0
  3  4  2  0  0  0  0
  4  9  1  0  0  0  0
  5  4  1  0  0  0  0
  5 10  1  0  0  0  0
  6  5  2  0  0  0  0
  7  1  1  0  0  0  0
  8  2  1  0  0  0  0
 11 12  2  0  0  0  0
 12 13  1  0  0  0  0
 14  6  1  0  0  0  0
M  END
