Coordinates from ORCA-job Ph-N2-Cl-B3LYPG-aug-cc-pVDZ-scan-d09-49-n400
 OpenBabel11081710403D

 14 12  0  0  0  0  0  0  0  0999 V2000
   -1.6613   -1.4813   -1.3262 C   0  0  0  0  0  0  0  0  0  0  0  0
   -0.2427   -1.4762   -1.3249 C   0  0  0  0  0  0  0  0  0  0  0  0
    0.1620   -0.2733   -0.8042 C   0  0  0  0  0  0  0  0  0  0  0  0
   -0.4206    0.7509   -0.3601 C   0  0  0  0  0  0  0  0  0  0  0  0
   -1.8275    0.7814   -0.3460 C   0  0  0  0  0  0  0  0  0  0  0  0
   -2.4199   -0.3927   -0.8542 C   0  0  0  0  0  0  0  0  0  0  0  0
   -2.1719   -2.3668   -1.7094 H   0  0  0  0  0  0  0  0  0  0  0  0
    0.3665   -2.3012   -1.6827 H   0  0  0  0  0  0  0  0  0  0  0  0
    0.4073    2.3535    0.3334 H   0  0  0  0  0  0  0  0  0  0  0  0
   -2.4222    1.6187    0.0171 H   0  0  0  0  0  0  0  0  0  0  0  0
    3.3088   -0.8806   -1.0697 N   0  0  0  0  0  0  0  0  0  0  0  0
    4.3034   -0.4392   -0.8818 N   0  0  0  0  0  0  0  0  0  0  0  0
    0.8356    3.5078    0.8330 Cl  0  0  0  0  0  0  0  0  0  0  0  0
   -3.5088   -0.4610   -0.8830 H   0  0  0  0  0  0  0  0  0  0  0  0
  1  2  2  0  0  0  0
  1  6  1  0  0  0  0
  2  3  1  0  0  0  0
  3  4  2  0  0  0  0
  4  5  1  0  0  0  0
  5 10  1  0  0  0  0
  6  5  2  0  0  0  0
  7  1  1  0  0  0  0
  8  2  1  0  0  0  0
  9 13  1  0  0  0  0
 11 12  3  0  0  0  0
 14  6  1  0  0  0  0
M  RAD  2   3   2   4   2
M  END
