Coordinates from ORCA-job Ph-N2-Cl-B3LYPG-aug-cc-pVDZ-scan-d09-49-n400
 OpenBabel11081710403D

 14 12  0  0  0  0  0  0  0  0999 V2000
   -1.6013   -1.4189   -1.2992 C   0  0  0  0  0  0  0  0  0  0  0  0
   -0.1885   -1.2955   -1.2466 C   0  0  0  0  0  0  0  0  0  0  0  0
    0.0969   -0.0625   -0.7128 C   0  0  0  0  0  0  0  0  0  0  0  0
   -0.5950    0.9018   -0.2947 C   0  0  0  0  0  0  0  0  0  0  0  0
   -1.9974    0.8200   -0.3293 C   0  0  0  0  0  0  0  0  0  0  0  0
   -2.4672   -0.4004   -0.8575 C   0  0  0  0  0  0  0  0  0  0  0  0
   -2.0211   -2.3437   -1.6995 H   0  0  0  0  0  0  0  0  0  0  0  0
    0.4939   -2.0710   -1.5829 H   0  0  0  0  0  0  0  0  0  0  0  0
    0.0852    2.5910    0.4368 H   0  0  0  0  0  0  0  0  0  0  0  0
   -2.6734    1.6034    0.0105 H   0  0  0  0  0  0  0  0  0  0  0  0
    3.8522   -1.4724   -1.3263 N   0  0  0  0  0  0  0  0  0  0  0  0
    4.8909   -1.1273   -1.1812 N   0  0  0  0  0  0  0  0  0  0  0  0
    0.3780    3.7771    0.9506 Cl  0  0  0  0  0  0  0  0  0  0  0  0
   -3.5445   -0.5617   -0.9268 H   0  0  0  0  0  0  0  0  0  0  0  0
  1  2  2  0  0  0  0
  1  6  1  0  0  0  0
  2  3  1  0  0  0  0
  3  4  2  0  0  0  0
  5  4  1  0  0  0  0
  5 10  1  0  0  0  0
  6  5  2  0  0  0  0
  7  1  1  0  0  0  0
  8  2  1  0  0  0  0
  9 13  1  0  0  0  0
 11 12  3  0  0  0  0
 14  6  1  0  0  0  0
M  RAD  2   3   2   4   2
M  END
