Coordinates from ORCA-job Ph-N2-Cl-B3LYPG-aug-cc-pVDZ-scan-d09-49-n400
 OpenBabel11081710403D

 14 12  0  0  0  0  0  0  0  0999 V2000
   -1.5930   -1.4131   -1.2967 C   0  0  0  0  0  0  0  0  0  0  0  0
   -0.1814   -1.2789   -1.2394 C   0  0  0  0  0  0  0  0  0  0  0  0
    0.0928   -0.0437   -0.7046 C   0  0  0  0  0  0  0  0  0  0  0  0
   -0.6079    0.9151   -0.2889 C   0  0  0  0  0  0  0  0  0  0  0  0
   -2.0095    0.8227   -0.3281 C   0  0  0  0  0  0  0  0  0  0  0  0
   -2.4682   -0.4013   -0.8579 C   0  0  0  0  0  0  0  0  0  0  0  0
   -2.0044   -2.3411   -1.6984 H   0  0  0  0  0  0  0  0  0  0  0  0
    0.5080   -2.0492   -1.5735 H   0  0  0  0  0  0  0  0  0  0  0  0
    0.0574    2.6097    0.4450 H   0  0  0  0  0  0  0  0  0  0  0  0
   -2.6928    1.6008    0.0094 H   0  0  0  0  0  0  0  0  0  0  0  0
    3.8839   -1.5184   -1.3463 N   0  0  0  0  0  0  0  0  0  0  0  0
    4.9289   -1.1898   -1.2083 N   0  0  0  0  0  0  0  0  0  0  0  0
    0.3390    3.7981    0.9597 Cl  0  0  0  0  0  0  0  0  0  0  0  0
   -3.5440   -0.5709   -0.9308 H   0  0  0  0  0  0  0  0  0  0  0  0
  1  2  2  0  0  0  0
  1  6  1  0  0  0  0
  2  3  1  0  0  0  0
  3  4  2  0  0  0  0
  5  4  1  0  0  0  0
  5 10  1  0  0  0  0
  6  5  2  0  0  0  0
  7  1  1  0  0  0  0
  8  2  1  0  0  0  0
  9 13  1  0  0  0  0
 11 12  3  0  0  0  0
 14  6  1  0  0  0  0
M  RAD  2   3   2   4   2
M  END
