Coordinates from ORCA-job Ph-N2-Cl-B3LYPG-aug-cc-pVDZ-scan-d09-49-n400
 OpenBabel11081710403D

 14 12  0  0  0  0  0  0  0  0999 V2000
   -1.6414   -1.4477   -1.3117 C   0  0  0  0  0  0  0  0  0  0  0  0
   -0.2243   -1.3794   -1.2829 C   0  0  0  0  0  0  0  0  0  0  0  0
    0.1192   -0.1595   -0.7548 C   0  0  0  0  0  0  0  0  0  0  0  0
   -0.5262    0.8317   -0.3250 C   0  0  0  0  0  0  0  0  0  0  0  0
   -1.9313    0.8048   -0.3358 C   0  0  0  0  0  0  0  0  0  0  0  0
   -2.4584   -0.3958   -0.8556 C   0  0  0  0  0  0  0  0  0  0  0  0
   -2.1038   -2.3553   -1.7045 H   0  0  0  0  0  0  0  0  0  0  0  0
    0.4205   -2.1816   -1.6308 H   0  0  0  0  0  0  0  0  0  0  0  0
    0.2293    2.4906    0.3931 H   0  0  0  0  0  0  0  0  0  0  0  0
   -2.5699    1.6142    0.0152 H   0  0  0  0  0  0  0  0  0  0  0  0
    3.6789   -1.2324   -1.2220 N   0  0  0  0  0  0  0  0  0  0  0  0
    4.6778   -0.7994   -1.0389 N   0  0  0  0  0  0  0  0  0  0  0  0
    0.5806    3.6637    0.9010 Cl  0  0  0  0  0  0  0  0  0  0  0  0
   -3.5423   -0.5138   -0.9060 H   0  0  0  0  0  0  0  0  0  0  0  0
  1  2  2  0  0  0  0
  1  6  1  0  0  0  0
  2  3  1  0  0  0  0
  3  4  2  0  0  0  0
  5  4  1  0  0  0  0
  5 10  1  0  0  0  0
  6  5  2  0  0  0  0
  7  1  1  0  0  0  0
  8  2  1  0  0  0  0
  9 13  1  0  0  0  0
 11 12  3  0  0  0  0
 14  6  1  0  0  0  0
M  RAD  2   3   2   4   2
M  END
