Coordinates from ORCA-job Ph-N2-Cl-B3LYPG-aug-cc-pVDZ-scan-d09-49-n400
 OpenBabel11081710403D

 14 12  0  0  0  0  0  0  0  0999 V2000
   -1.4866   -1.3483   -1.2688 C   0  0  0  0  0  0  0  0  0  0  0  0
   -0.0942   -1.0990   -1.1618 C   0  0  0  0  0  0  0  0  0  0  0  0
    0.0625    0.1545   -0.6188 C   0  0  0  0  0  0  0  0  0  0  0  0
   -0.7347    1.0472   -0.2314 C   0  0  0  0  0  0  0  0  0  0  0  0
   -2.1212    0.8436   -0.3187 C   0  0  0  0  0  0  0  0  0  0  0  0
   -2.4579   -0.4133   -0.8630 C   0  0  0  0  0  0  0  0  0  0  0  0
   -1.8057   -2.3065   -1.6838 H   0  0  0  0  0  0  0  0  0  0  0  0
    0.6653   -1.8120   -1.4712 H   0  0  0  0  0  0  0  0  0  0  0  0
   -0.2316    2.7989    0.5271 H   0  0  0  0  0  0  0  0  0  0  0  0
   -2.8772    1.5627   -0.0066 H   0  0  0  0  0  0  0  0  0  0  0  0
    4.1415   -1.9857   -1.5498 N   0  0  0  0  0  0  0  0  0  0  0  0
    5.2337   -1.8361   -1.4876 N   0  0  0  0  0  0  0  0  0  0  0  0
   -0.0724    4.0052    1.0496 Cl  0  0  0  0  0  0  0  0  0  0  0  0
   -3.5127   -0.6711   -0.9741 H   0  0  0  0  0  0  0  0  0  0  0  0
  1  2  2  0  0  0  0
  1  6  1  0  0  0  0
  2  3  1  0  0  0  0
  3  4  2  0  0  0  0
  5  4  1  0  0  0  0
  5 10  1  0  0  0  0
  6  5  2  0  0  0  0
  7  1  1  0  0  0  0
  8  2  1  0  0  0  0
  9 13  1  0  0  0  0
 11 12  3  0  0  0  0
 14  6  1  0  0  0  0
M  RAD  2   3   2   4   2
M  END
