Coordinates from ORCA-job Ph-N2-Cl-B3LYPG-aug-cc-pVDZ-scan-d09-49-n400
 OpenBabel11081710403D

 14 12  0  0  0  0  0  0  0  0999 V2000
   -1.5986   -1.4169   -1.2984 C   0  0  0  0  0  0  0  0  0  0  0  0
   -0.1862   -1.2900   -1.2442 C   0  0  0  0  0  0  0  0  0  0  0  0
    0.0955   -0.0563   -0.7101 C   0  0  0  0  0  0  0  0  0  0  0  0
   -0.5993    0.9062   -0.2928 C   0  0  0  0  0  0  0  0  0  0  0  0
   -2.0014    0.8209   -0.3289 C   0  0  0  0  0  0  0  0  0  0  0  0
   -2.4676   -0.4007   -0.8577 C   0  0  0  0  0  0  0  0  0  0  0  0
   -2.0157   -2.3429   -1.6992 H   0  0  0  0  0  0  0  0  0  0  0  0
    0.4986   -2.0638   -1.5798 H   0  0  0  0  0  0  0  0  0  0  0  0
    0.0760    2.5972    0.4395 H   0  0  0  0  0  0  0  0  0  0  0  0
   -2.6799    1.6026    0.0101 H   0  0  0  0  0  0  0  0  0  0  0  0
    3.8629   -1.4876   -1.3329 N   0  0  0  0  0  0  0  0  0  0  0  0
    4.9037   -1.1480   -1.1902 N   0  0  0  0  0  0  0  0  0  0  0  0
    0.3650    3.7841    0.9536 Cl  0  0  0  0  0  0  0  0  0  0  0  0
   -3.5444   -0.5648   -0.9281 H   0  0  0  0  0  0  0  0  0  0  0  0
  1  2  2  0  0  0  0
  1  6  1  0  0  0  0
  2  3  1  0  0  0  0
  3  4  2  0  0  0  0
  5  4  1  0  0  0  0
  5 10  1  0  0  0  0
  6  5  2  0  0  0  0
  7  1  1  0  0  0  0
  8  2  1  0  0  0  0
  9 13  1  0  0  0  0
 11 12  3  0  0  0  0
 14  6  1  0  0  0  0
M  RAD  2   3   2   4   2
M  END
