Coordinates from ORCA-job Ph-N2-Cl-B3LYPG-aug-cc-pVDZ-scan-d09-49-n400
 OpenBabel11081710403D

 14 12  0  0  0  0  0  0  0  0999 V2000
   -1.6521   -1.4903   -1.3302 C   0  0  0  0  0  0  0  0  0  0  0  0
   -0.2371   -1.5659   -1.3643 C   0  0  0  0  0  0  0  0  0  0  0  0
    0.2420   -0.3981   -0.8588 C   0  0  0  0  0  0  0  0  0  0  0  0
   -0.1829    0.7180   -0.3749 C   0  0  0  0  0  0  0  0  0  0  0  0
   -1.6073    0.7606   -0.3550 C   0  0  0  0  0  0  0  0  0  0  0  0
   -2.3114   -0.3512   -0.8360 C   0  0  0  0  0  0  0  0  0  0  0  0
   -2.2208   -2.3450   -1.6999 H   0  0  0  0  0  0  0  0  0  0  0  0
    0.3213   -2.4205   -1.7351 H   0  0  0  0  0  0  0  0  0  0  0  0
    0.4728    1.7446    0.0693 H   0  0  0  0  0  0  0  0  0  0  0  0
   -2.1152    1.6464    0.0293 H   0  0  0  0  0  0  0  0  0  0  0  0
    2.6756   -0.3686   -0.8484 N   0  0  0  0  0  0  0  0  0  0  0  0
    3.4909    0.3152   -0.5521 N   0  0  0  0  0  0  0  0  0  0  0  0
    1.2344    3.0284    0.6247 Cl  0  0  0  0  0  0  0  0  0  0  0  0
   -3.4016   -0.3338   -0.8274 H   0  0  0  0  0  0  0  0  0  0  0  0
  1  6  1  0  0  0  0
  2  1  2  0  0  0  0
  2  3  1  0  0  0  0
  3  4  2  0  0  0  0
  4  5  1  0  0  0  0
  4  9  1  0  0  0  0
  5 10  1  0  0  0  0
  6 14  1  0  0  0  0
  6  5  2  0  0  0  0
  7  1  1  0  0  0  0
  8  2  1  0  0  0  0
 11 12  3  0  0  0  0
M  RAD  2   3   2  13   2
M  END
