Coordinates from ORCA-job Ph-N2-Cl-B3LYPG-aug-cc-pVDZ-scan-d09-49-n400
 OpenBabel11081710403D

 14 14  0  0  0  0  0  0  0  0999 V2000
   -1.4886   -1.4906   -1.3311 C   0  0  0  0  0  0  0  0  0  0  0  0
   -0.1047   -1.3840   -1.2854 C   0  0  0  0  0  0  0  0  0  0  0  0
    0.5054   -0.2087   -0.7761 C   0  0  0  0  0  0  0  0  0  0  0  0
   -0.3085    0.8608   -0.3117 C   0  0  0  0  0  0  0  0  0  0  0  0
   -1.6926    0.7331   -0.3663 C   0  0  0  0  0  0  0  0  0  0  0  0
   -2.2834   -0.4320   -0.8714 C   0  0  0  0  0  0  0  0  0  0  0  0
   -1.9515   -2.3954   -1.7233 H   0  0  0  0  0  0  0  0  0  0  0  0
    0.5364   -2.1924   -1.6363 H   0  0  0  0  0  0  0  0  0  0  0  0
    0.1764    1.7548    0.0756 H   0  0  0  0  0  0  0  0  0  0  0  0
   -2.3188    1.5512   -0.0111 H   0  0  0  0  0  0  0  0  0  0  0  0
    1.7653   -0.1631   -0.7569 N   0  0  0  0  0  0  0  0  0  0  0  0
    2.7482    0.4173   -0.5073 N   0  0  0  0  0  0  0  0  0  0  0  0
    2.4950    2.4055    0.3501 Cl  0  0  0  0  0  0  0  0  0  0  0  0
   -3.3700   -0.5165   -0.9076 H   0  0  0  0  0  0  0  0  0  0  0  0
  1  2  2  0  0  0  0
  1  6  1  0  0  0  0
  2  3  1  0  0  0  0
  3 11  1  0  0  0  0
  3  4  2  0  0  0  0
  4  9  1  0  0  0  0
  5  4  1  0  0  0  0
  5 10  1  0  0  0  0
  6  5  2  0  0  0  0
  7  1  1  0  0  0  0
  8  2  1  0  0  0  0
 11 12  2  0  0  0  0
 12 13  1  0  0  0  0
 14  6  1  0  0  0  0
M  END
