Coordinates from ORCA-job Ph-N2-Cl-B3LYPG-aug-cc-pVDZ-scan-d09-49-n400
 OpenBabel11081710403D

 14 14  0  0  0  0  0  0  0  0999 V2000
   -1.4951   -1.4910   -1.3308 C   0  0  0  0  0  0  0  0  0  0  0  0
   -0.1094   -1.3856   -1.2862 C   0  0  0  0  0  0  0  0  0  0  0  0
    0.4884   -0.2117   -0.7780 C   0  0  0  0  0  0  0  0  0  0  0  0
   -0.3097    0.8593   -0.3132 C   0  0  0  0  0  0  0  0  0  0  0  0
   -1.6956    0.7327   -0.3669 C   0  0  0  0  0  0  0  0  0  0  0  0
   -2.2880   -0.4317   -0.8710 C   0  0  0  0  0  0  0  0  0  0  0  0
   -1.9589   -2.3956   -1.7224 H   0  0  0  0  0  0  0  0  0  0  0  0
    0.5323   -2.1932   -1.6367 H   0  0  0  0  0  0  0  0  0  0  0  0
    0.1766    1.7522    0.0733 H   0  0  0  0  0  0  0  0  0  0  0  0
   -2.3201    1.5519   -0.0113 H   0  0  0  0  0  0  0  0  0  0  0  0
    1.8088   -0.1748   -0.7631 N   0  0  0  0  0  0  0  0  0  0  0  0
    2.7688    0.4358   -0.4997 N   0  0  0  0  0  0  0  0  0  0  0  0
    2.4854    2.4065    0.3534 Cl  0  0  0  0  0  0  0  0  0  0  0  0
   -3.3747   -0.5148   -0.9061 H   0  0  0  0  0  0  0  0  0  0  0  0
  1  2  2  0  0  0  0
  1  6  1  0  0  0  0
  2  3  1  0  0  0  0
  3 11  1  0  0  0  0
  3  4  2  0  0  0  0
  4  9  1  0  0  0  0
  5  4  1  0  0  0  0
  5 10  1  0  0  0  0
  6  5  2  0  0  0  0
  7  1  1  0  0  0  0
  8  2  1  0  0  0  0
 11 12  2  0  0  0  0
 12 13  1  0  0  0  0
 14  6  1  0  0  0  0
M  END
