Coordinates from ORCA-job Ph-N2-Cl-B3LYPG-aug-cc-pVDZ-scan-d09-49-n400
 OpenBabel11081710403D

 14 12  0  0  0  0  0  0  0  0999 V2000
   -1.5450   -1.3820   -1.2833 C   0  0  0  0  0  0  0  0  0  0  0  0
   -0.1413   -1.1912   -1.2016 C   0  0  0  0  0  0  0  0  0  0  0  0
    0.0743    0.0540   -0.6623 C   0  0  0  0  0  0  0  0  0  0  0  0
   -0.6726    0.9829   -0.2594 C   0  0  0  0  0  0  0  0  0  0  0  0
   -2.0684    0.8347   -0.3227 C   0  0  0  0  0  0  0  0  0  0  0  0
   -2.4679   -0.4066   -0.8602 C   0  0  0  0  0  0  0  0  0  0  0  0
   -1.9117   -2.3257   -1.6919 H   0  0  0  0  0  0  0  0  0  0  0  0
    0.5839   -1.9335   -1.5236 H   0  0  0  0  0  0  0  0  0  0  0  0
   -0.0862    2.7044    0.4861 H   0  0  0  0  0  0  0  0  0  0  0  0
   -2.7882    1.5845    0.0026 H   0  0  0  0  0  0  0  0  0  0  0  0
    4.0287   -1.7542   -1.4490 N   0  0  0  0  0  0  0  0  0  0  0  0
    5.1008   -1.5108   -1.3470 N   0  0  0  0  0  0  0  0  0  0  0  0
    0.1369    3.9030    1.0052 Cl  0  0  0  0  0  0  0  0  0  0  0  0
   -3.5345   -0.6195   -0.9517 H   0  0  0  0  0  0  0  0  0  0  0  0
  1  2  2  0  0  0  0
  1  6  1  0  0  0  0
  2  3  1  0  0  0  0
  3  4  2  0  0  0  0
  5  4  1  0  0  0  0
  5 10  1  0  0  0  0
  6  5  2  0  0  0  0
  7  1  1  0  0  0  0
  8  2  1  0  0  0  0
  9 13  1  0  0  0  0
 11 12  3  0  0  0  0
 14  6  1  0  0  0  0
M  RAD  2   3   2   4   2
M  END
