Coordinates from ORCA-job Ph-N2-Cl-B3LYPG-aug-cc-pVDZ-scan-d09-49-n400
 OpenBabel11081710403D

 14 12  0  0  0  0  0  0  0  0999 V2000
   -1.6376   -1.4450   -1.3105 C   0  0  0  0  0  0  0  0  0  0  0  0
   -0.2208   -1.3712   -1.2794 C   0  0  0  0  0  0  0  0  0  0  0  0
    0.1170   -0.1500   -0.7507 C   0  0  0  0  0  0  0  0  0  0  0  0
   -0.5330    0.8386   -0.3220 C   0  0  0  0  0  0  0  0  0  0  0  0
   -1.9379    0.8064   -0.3352 C   0  0  0  0  0  0  0  0  0  0  0  0
   -2.4595   -0.3963   -0.8558 C   0  0  0  0  0  0  0  0  0  0  0  0
   -2.0959   -2.3544   -1.7041 H   0  0  0  0  0  0  0  0  0  0  0  0
    0.4275   -2.1710   -1.6262 H   0  0  0  0  0  0  0  0  0  0  0  0
    0.2151    2.5007    0.3975 H   0  0  0  0  0  0  0  0  0  0  0  0
   -2.5802    1.6133    0.0148 H   0  0  0  0  0  0  0  0  0  0  0  0
    3.6964   -1.2560   -1.2322 N   0  0  0  0  0  0  0  0  0  0  0  0
    4.6999   -0.8318   -1.0530 N   0  0  0  0  0  0  0  0  0  0  0  0
    0.5606    3.6752    0.9061 Cl  0  0  0  0  0  0  0  0  0  0  0  0
   -3.5429   -0.5185   -0.9081 H   0  0  0  0  0  0  0  0  0  0  0  0
  1  2  2  0  0  0  0
  1  6  1  0  0  0  0
  2  3  1  0  0  0  0
  3  4  2  0  0  0  0
  5  4  1  0  0  0  0
  5 10  1  0  0  0  0
  6  5  2  0  0  0  0
  7  1  1  0  0  0  0
  8  2  1  0  0  0  0
  9 13  1  0  0  0  0
 11 12  3  0  0  0  0
 14  6  1  0  0  0  0
M  RAD  2   3   2   4   2
M  END
