Coordinates from ORCA-job Ph-N2-Cl-B3LYPG-aug-cc-pVDZ-scan-d09-49-n400
 OpenBabel11081710403D

 14 12  0  0  0  0  0  0  0  0999 V2000
   -1.6617   -1.4809   -1.3260 C   0  0  0  0  0  0  0  0  0  0  0  0
   -0.2432   -1.4752   -1.3245 C   0  0  0  0  0  0  0  0  0  0  0  0
    0.1610   -0.2721   -0.8037 C   0  0  0  0  0  0  0  0  0  0  0  0
   -0.4223    0.7517   -0.3598 C   0  0  0  0  0  0  0  0  0  0  0  0
   -1.8292    0.7818   -0.3458 C   0  0  0  0  0  0  0  0  0  0  0  0
   -2.4209   -0.3927   -0.8542 C   0  0  0  0  0  0  0  0  0  0  0  0
   -2.1720   -2.3667   -1.7094 H   0  0  0  0  0  0  0  0  0  0  0  0
    0.3664   -2.3000   -1.6822 H   0  0  0  0  0  0  0  0  0  0  0  0
    0.4051    2.3552    0.3341 H   0  0  0  0  0  0  0  0  0  0  0  0
   -2.4243    1.6188    0.0171 H   0  0  0  0  0  0  0  0  0  0  0  0
    3.3166   -0.8854   -1.0718 N   0  0  0  0  0  0  0  0  0  0  0  0
    4.3105   -0.4427   -0.8833 N   0  0  0  0  0  0  0  0  0  0  0  0
    0.8326    3.5096    0.8338 Cl  0  0  0  0  0  0  0  0  0  0  0  0
   -3.5098   -0.4615   -0.8832 H   0  0  0  0  0  0  0  0  0  0  0  0
  1  2  2  0  0  0  0
  1  6  1  0  0  0  0
  2  3  1  0  0  0  0
  3  4  2  0  0  0  0
  4  5  1  0  0  0  0
  5 10  1  0  0  0  0
  6  5  2  0  0  0  0
  7  1  1  0  0  0  0
  8  2  1  0  0  0  0
  9 13  1  0  0  0  0
 11 12  3  0  0  0  0
 14  6  1  0  0  0  0
M  RAD  2   3   2   4   2
M  END
