Coordinates from ORCA-job Ph-N2-Cl-B3LYPG-aug-cc-pVDZ-scan-d09-49-n400
 OpenBabel11081710403D

 14 13  0  0  0  0  0  0  0  0999 V2000
   -1.5421   -1.4980   -1.3335 C   0  0  0  0  0  0  0  0  0  0  0  0
   -0.1457   -1.4119   -1.2976 C   0  0  0  0  0  0  0  0  0  0  0  0
    0.3794   -0.2380   -0.7896 C   0  0  0  0  0  0  0  0  0  0  0  0
   -0.3246    0.8511   -0.3171 C   0  0  0  0  0  0  0  0  0  0  0  0
   -1.7210    0.7299   -0.3683 C   0  0  0  0  0  0  0  0  0  0  0  0
   -2.3212   -0.4306   -0.8704 C   0  0  0  0  0  0  0  0  0  0  0  0
   -2.0157   -2.3987   -1.7233 H   0  0  0  0  0  0  0  0  0  0  0  0
    0.4984   -2.2160   -1.6466 H   0  0  0  0  0  0  0  0  0  0  0  0
    0.1895    1.7314    0.0638 H   0  0  0  0  0  0  0  0  0  0  0  0
   -2.3358    1.5555   -0.0100 H   0  0  0  0  0  0  0  0  0  0  0  0
    2.0913   -0.2197   -0.7834 N   0  0  0  0  0  0  0  0  0  0  0  0
    2.9248    0.5137   -0.4663 N   0  0  0  0  0  0  0  0  0  0  0  0
    2.4396    2.4759    0.3849 Cl  0  0  0  0  0  0  0  0  0  0  0  0
   -3.4083   -0.5045   -0.9014 H   0  0  0  0  0  0  0  0  0  0  0  0
  1  2  2  0  0  0  0
  1  6  1  0  0  0  0
  2  3  1  0  0  0  0
  3 11  1  0  0  0  0
  3  4  2  0  0  0  0
  4  9  1  0  0  0  0
  5  4  1  0  0  0  0
  5 10  1  0  0  0  0
  6  5  2  0  0  0  0
  7  1  1  0  0  0  0
  8  2  1  0  0  0  0
 11 12  2  0  0  0  0
 14  6  1  0  0  0  0
M  RAD  2  12   2  13   2
M  END
