Coordinates from ORCA-job Ph-N2-Cl-B3LYPG-aug-cc-pVDZ-scan-d09-49-n400
 OpenBabel11081710403D

 14 12  0  0  0  0  0  0  0  0999 V2000
   -1.6393   -1.4972   -1.3331 C   0  0  0  0  0  0  0  0  0  0  0  0
   -0.2202   -1.5221   -1.3450 C   0  0  0  0  0  0  0  0  0  0  0  0
    0.2061   -0.3290   -0.8286 C   0  0  0  0  0  0  0  0  0  0  0  0
   -0.3298    0.7194   -0.3740 C   0  0  0  0  0  0  0  0  0  0  0  0
   -1.7397    0.7659   -0.3527 C   0  0  0  0  0  0  0  0  0  0  0  0
   -2.3674   -0.3918   -0.8537 C   0  0  0  0  0  0  0  0  0  0  0  0
   -2.1715   -2.3720   -1.7116 H   0  0  0  0  0  0  0  0  0  0  0  0
    0.3664   -2.3607   -1.7087 H   0  0  0  0  0  0  0  0  0  0  0  0
    0.5042    2.2409    0.2844 H   0  0  0  0  0  0  0  0  0  0  0  0
   -2.3119    1.6167    0.0163 H   0  0  0  0  0  0  0  0  0  0  0  0
    2.9445   -0.6766   -0.9814 N   0  0  0  0  0  0  0  0  0  0  0  0
    3.9190   -0.1996   -0.7768 N   0  0  0  0  0  0  0  0  0  0  0  0
    1.0060    3.3807    0.7777 Cl  0  0  0  0  0  0  0  0  0  0  0  0
   -3.4577   -0.4346   -0.8713 H   0  0  0  0  0  0  0  0  0  0  0  0
  1  6  1  0  0  0  0
  2  1  2  0  0  0  0
  2  3  1  0  0  0  0
  3  4  2  0  0  0  0
  4  5  1  0  0  0  0
  5 10  1  0  0  0  0
  6  5  2  0  0  0  0
  7  1  1  0  0  0  0
  8  2  1  0  0  0  0
  9 13  1  0  0  0  0
 11 12  3  0  0  0  0
 14  6  1  0  0  0  0
M  RAD  2   3   2   4   2
M  END
