Coordinates from ORCA-job Ph-N2-Cl-B3LYPG-aug-cc-pVDZ-scan-d09-49-n400
 OpenBabel11081710403D

 14 12  0  0  0  0  0  0  0  0999 V2000
   -1.5414   -1.3798   -1.2824 C   0  0  0  0  0  0  0  0  0  0  0  0
   -0.1384   -1.1852   -1.1990 C   0  0  0  0  0  0  0  0  0  0  0  0
    0.0731    0.0607   -0.6594 C   0  0  0  0  0  0  0  0  0  0  0  0
   -0.6769    0.9875   -0.2574 C   0  0  0  0  0  0  0  0  0  0  0  0
   -2.0722    0.8354   -0.3224 C   0  0  0  0  0  0  0  0  0  0  0  0
   -2.4676   -0.4069   -0.8603 C   0  0  0  0  0  0  0  0  0  0  0  0
   -1.9051   -2.3245   -1.6914 H   0  0  0  0  0  0  0  0  0  0  0  0
    0.5892   -1.9255   -1.5201 H   0  0  0  0  0  0  0  0  0  0  0  0
   -0.0960    2.7107    0.4888 H   0  0  0  0  0  0  0  0  0  0  0  0
   -2.7944    1.5833    0.0020 H   0  0  0  0  0  0  0  0  0  0  0  0
    4.0376   -1.7701   -1.4560 N   0  0  0  0  0  0  0  0  0  0  0  0
    5.1113   -1.5324   -1.3564 N   0  0  0  0  0  0  0  0  0  0  0  0
    0.1231    3.9098    1.0082 Cl  0  0  0  0  0  0  0  0  0  0  0  0
   -3.5335   -0.6228   -0.9532 H   0  0  0  0  0  0  0  0  0  0  0  0
  1  2  2  0  0  0  0
  1  6  1  0  0  0  0
  2  3  1  0  0  0  0
  3  4  2  0  0  0  0
  5  4  1  0  0  0  0
  5 10  1  0  0  0  0
  6  5  2  0  0  0  0
  7  1  1  0  0  0  0
  8  2  1  0  0  0  0
  9 13  1  0  0  0  0
 11 12  3  0  0  0  0
 14  6  1  0  0  0  0
M  RAD  2   3   2   4   2
M  END
