Coordinates from ORCA-job Ph-N2-Cl-B3LYPG-aug-cc-pVDZ-scan-d09-49-n400
 OpenBabel11081710403D

 14 12  0  0  0  0  0  0  0  0999 V2000
   -1.6327   -1.5013   -1.3349 C   0  0  0  0  0  0  0  0  0  0  0  0
   -0.2143   -1.5355   -1.3509 C   0  0  0  0  0  0  0  0  0  0  0  0
    0.2209   -0.3462   -0.8361 C   0  0  0  0  0  0  0  0  0  0  0  0
   -0.2981    0.7112   -0.3776 C   0  0  0  0  0  0  0  0  0  0  0  0
   -1.7096    0.7613   -0.3547 C   0  0  0  0  0  0  0  0  0  0  0  0
   -2.3499   -0.3900   -0.8529 C   0  0  0  0  0  0  0  0  0  0  0  0
   -2.1722   -2.3723   -1.7117 H   0  0  0  0  0  0  0  0  0  0  0  0
    0.3669   -2.3774   -1.7161 H   0  0  0  0  0  0  0  0  0  0  0  0
    0.5316    2.1925    0.2633 H   0  0  0  0  0  0  0  0  0  0  0  0
   -2.2737    1.6169    0.0164 H   0  0  0  0  0  0  0  0  0  0  0  0
    2.8290   -0.6122   -0.9534 N   0  0  0  0  0  0  0  0  0  0  0  0
    3.7897   -0.1120   -0.7385 N   0  0  0  0  0  0  0  0  0  0  0  0
    1.0619    3.3284    0.7549 Cl  0  0  0  0  0  0  0  0  0  0  0  0
   -3.4406   -0.4235   -0.8665 H   0  0  0  0  0  0  0  0  0  0  0  0
  1  6  1  0  0  0  0
  2  1  2  0  0  0  0
  2  3  1  0  0  0  0
  3  4  2  0  0  0  0
  4  5  1  0  0  0  0
  5 10  1  0  0  0  0
  6  5  2  0  0  0  0
  7  1  1  0  0  0  0
  8  2  1  0  0  0  0
  9 13  1  0  0  0  0
 11 12  3  0  0  0  0
 14  6  1  0  0  0  0
M  RAD  2   3   2   4   2
M  END
