Coordinates from ORCA-job Ph-N2-Cl-B3LYPG-aug-cc-pVDZ-scan-d09-49-n400
 OpenBabel11081710403D

 14 12  0  0  0  0  0  0  0  0999 V2000
   -1.6496   -1.4904   -1.3302 C   0  0  0  0  0  0  0  0  0  0  0  0
   -0.2347   -1.5651   -1.3639 C   0  0  0  0  0  0  0  0  0  0  0  0
    0.2449   -0.3974   -0.8585 C   0  0  0  0  0  0  0  0  0  0  0  0
   -0.1808    0.7194   -0.3742 C   0  0  0  0  0  0  0  0  0  0  0  0
   -1.6053    0.7602   -0.3552 C   0  0  0  0  0  0  0  0  0  0  0  0
   -2.3093   -0.3516   -0.8362 C   0  0  0  0  0  0  0  0  0  0  0  0
   -2.2179   -2.3454   -1.7001 H   0  0  0  0  0  0  0  0  0  0  0  0
    0.3243   -2.4194   -1.7346 H   0  0  0  0  0  0  0  0  0  0  0  0
    0.4735    1.7386    0.0667 H   0  0  0  0  0  0  0  0  0  0  0  0
   -2.1135    1.6459    0.0290 H   0  0  0  0  0  0  0  0  0  0  0  0
    2.6584   -0.3666   -0.8475 N   0  0  0  0  0  0  0  0  0  0  0  0
    3.4705    0.3206   -0.5499 N   0  0  0  0  0  0  0  0  0  0  0  0
    1.2479    3.0255    0.6235 Cl  0  0  0  0  0  0  0  0  0  0  0  0
   -3.3995   -0.3343   -0.8277 H   0  0  0  0  0  0  0  0  0  0  0  0
  1  6  1  0  0  0  0
  2  1  2  0  0  0  0
  2  3  1  0  0  0  0
  3  4  2  0  0  0  0
  4  5  1  0  0  0  0
  4  9  1  0  0  0  0
  5 10  1  0  0  0  0
  6 14  1  0  0  0  0
  6  5  2  0  0  0  0
  7  1  1  0  0  0  0
  8  2  1  0  0  0  0
 11 12  3  0  0  0  0
M  RAD  2   3   2  13   2
M  END
