Coordinates from ORCA-job Ph-N2-Cl-B3LYPG-aug-cc-pVDZ-scan-d09-49-n400
 OpenBabel11081710403D

 14 12  0  0  0  0  0  0  0  0999 V2000
   -1.6533   -1.4903   -1.3301 C   0  0  0  0  0  0  0  0  0  0  0  0
   -0.2382   -1.5663   -1.3645 C   0  0  0  0  0  0  0  0  0  0  0  0
    0.2406   -0.3983   -0.8589 C   0  0  0  0  0  0  0  0  0  0  0  0
   -0.1840    0.7173   -0.3751 C   0  0  0  0  0  0  0  0  0  0  0  0
   -1.6084    0.7608   -0.3549 C   0  0  0  0  0  0  0  0  0  0  0  0
   -2.3125   -0.3511   -0.8359 C   0  0  0  0  0  0  0  0  0  0  0  0
   -2.2223   -2.3448   -1.6998 H   0  0  0  0  0  0  0  0  0  0  0  0
    0.3199   -2.4210   -1.7354 H   0  0  0  0  0  0  0  0  0  0  0  0
    0.4725    1.7478    0.0706 H   0  0  0  0  0  0  0  0  0  0  0  0
   -2.1162    1.6467    0.0294 H   0  0  0  0  0  0  0  0  0  0  0  0
    2.6842   -0.3696   -0.8489 N   0  0  0  0  0  0  0  0  0  0  0  0
    3.5012    0.3125   -0.5533 N   0  0  0  0  0  0  0  0  0  0  0  0
    1.2279    3.0299    0.6253 Cl  0  0  0  0  0  0  0  0  0  0  0  0
   -3.4027   -0.3336   -0.8273 H   0  0  0  0  0  0  0  0  0  0  0  0
  1  6  1  0  0  0  0
  2  1  2  0  0  0  0
  2  3  1  0  0  0  0
  3  4  2  0  0  0  0
  4  5  1  0  0  0  0
  4  9  1  0  0  0  0
  5 10  1  0  0  0  0
  6 14  1  0  0  0  0
  6  5  2  0  0  0  0
  7  1  1  0  0  0  0
  8  2  1  0  0  0  0
 11 12  3  0  0  0  0
M  RAD  2   3   2  13   2
M  END
