Coordinates from ORCA-job Ph-N2-Cl-B3LYPG-aug-cc-pVDZ-scan-d09-49-n400
 OpenBabel11081710403D

 14 12  0  0  0  0  0  0  0  0999 V2000
   -1.4637   -1.3356   -1.2633 C   0  0  0  0  0  0  0  0  0  0  0  0
   -0.0761   -1.0646   -1.1469 C   0  0  0  0  0  0  0  0  0  0  0  0
    0.0577    0.1913   -0.6028 C   0  0  0  0  0  0  0  0  0  0  0  0
   -0.7566    1.0708   -0.2212 C   0  0  0  0  0  0  0  0  0  0  0  0
   -2.1391    0.8460   -0.3177 C   0  0  0  0  0  0  0  0  0  0  0  0
   -2.4522   -0.4159   -0.8642 C   0  0  0  0  0  0  0  0  0  0  0  0
   -1.7649   -2.2986   -1.6804 H   0  0  0  0  0  0  0  0  0  0  0  0
    0.6963   -1.7658   -1.4512 H   0  0  0  0  0  0  0  0  0  0  0  0
   -0.2845    2.8317    0.5414 H   0  0  0  0  0  0  0  0  0  0  0  0
   -2.9084    1.5532   -0.0107 H   0  0  0  0  0  0  0  0  0  0  0  0
    4.1767   -2.0682   -1.5856 N   0  0  0  0  0  0  0  0  0  0  0  0
    5.2740   -1.9542   -1.5389 N   0  0  0  0  0  0  0  0  0  0  0  0
   -0.1486    4.0402    1.0650 Cl  0  0  0  0  0  0  0  0  0  0  0  0
   -3.5021   -0.6903   -0.9824 H   0  0  0  0  0  0  0  0  0  0  0  0
  1  2  2  0  0  0  0
  1  6  1  0  0  0  0
  2  3  1  0  0  0  0
  3  4  2  0  0  0  0
  5  4  1  0  0  0  0
  5 10  1  0  0  0  0
  6  5  2  0  0  0  0
  7  1  1  0  0  0  0
  8  2  1  0  0  0  0
  9 13  1  0  0  0  0
 11 12  3  0  0  0  0
 14  6  1  0  0  0  0
M  RAD  2   3   2   4   2
M  END
