Coordinates from ORCA-job Ph-N2-Cl-B3LYPG-aug-cc-pVDZ-scan-d09-49-n400
 OpenBabel11081710403D

 14 14  0  0  0  0  0  0  0  0999 V2000
   -1.5324   -1.4958   -1.3327 C   0  0  0  0  0  0  0  0  0  0  0  0
   -0.1381   -1.4039   -1.2942 C   0  0  0  0  0  0  0  0  0  0  0  0
    0.3997   -0.2306   -0.7863 C   0  0  0  0  0  0  0  0  0  0  0  0
   -0.3231    0.8537   -0.3158 C   0  0  0  0  0  0  0  0  0  0  0  0
   -1.7174    0.7305   -0.3679 C   0  0  0  0  0  0  0  0  0  0  0  0
   -2.3153   -0.4309   -0.8706 C   0  0  0  0  0  0  0  0  0  0  0  0
   -2.0031   -2.3976   -1.7230 H   0  0  0  0  0  0  0  0  0  0  0  0
    0.5066   -2.2079   -1.6431 H   0  0  0  0  0  0  0  0  0  0  0  0
    0.1828    1.7373    0.0666 H   0  0  0  0  0  0  0  0  0  0  0  0
   -2.3348    1.5543   -0.0104 H   0  0  0  0  0  0  0  0  0  0  0  0
    2.0415   -0.2155   -0.7812 N   0  0  0  0  0  0  0  0  0  0  0  0
    2.8963    0.5022   -0.4711 N   0  0  0  0  0  0  0  0  0  0  0  0
    2.4483    2.4516    0.3736 Cl  0  0  0  0  0  0  0  0  0  0  0  0
   -3.4023   -0.5073   -0.9027 H   0  0  0  0  0  0  0  0  0  0  0  0
  1  2  2  0  0  0  0
  1  6  1  0  0  0  0
  2  3  1  0  0  0  0
  3 11  1  0  0  0  0
  3  4  2  0  0  0  0
  4  9  1  0  0  0  0
  5  4  1  0  0  0  0
  5 10  1  0  0  0  0
  6  5  2  0  0  0  0
  7  1  1  0  0  0  0
  8  2  1  0  0  0  0
 11 12  2  0  0  0  0
 12 13  1  0  0  0  0
 14  6  1  0  0  0  0
M  END
