Coordinates from ORCA-job Ph-N2-Cl-B3LYPG-aug-cc-pVDZ-scan-d09-49-n400
 OpenBabel11081710403D

 14 12  0  0  0  0  0  0  0  0999 V2000
   -1.6577   -1.4594   -1.3168 C   0  0  0  0  0  0  0  0  0  0  0  0
   -0.2398   -1.4149   -1.2983 C   0  0  0  0  0  0  0  0  0  0  0  0
    0.1291   -0.2012   -0.7728 C   0  0  0  0  0  0  0  0  0  0  0  0
   -0.4963    0.8007   -0.3384 C   0  0  0  0  0  0  0  0  0  0  0  0
   -1.9017    0.7977   -0.3389 C   0  0  0  0  0  0  0  0  0  0  0  0
   -2.4531   -0.3936   -0.8546 C   0  0  0  0  0  0  0  0  0  0  0  0
   -2.1384   -2.3589   -1.7061 H   0  0  0  0  0  0  0  0  0  0  0  0
    0.3918   -2.2259   -1.6500 H   0  0  0  0  0  0  0  0  0  0  0  0
    0.2906    2.4457    0.3735 H   0  0  0  0  0  0  0  0  0  0  0  0
   -2.5238    1.6179    0.0168 H   0  0  0  0  0  0  0  0  0  0  0  0
    3.6011   -1.1299   -1.1776 N   0  0  0  0  0  0  0  0  0  0  0  0
    4.5788   -0.6576   -0.9772 N   0  0  0  0  0  0  0  0  0  0  0  0
    0.6674    3.6123    0.8785 Cl  0  0  0  0  0  0  0  0  0  0  0  0
   -3.5393   -0.4930   -0.8970 H   0  0  0  0  0  0  0  0  0  0  0  0
  1  2  2  0  0  0  0
  1  6  1  0  0  0  0
  2  3  1  0  0  0  0
  3  4  2  0  0  0  0
  5  4  1  0  0  0  0
  5 10  1  0  0  0  0
  6  5  2  0  0  0  0
  7  1  1  0  0  0  0
  8  2  1  0  0  0  0
  9 13  1  0  0  0  0
 11 12  3  0  0  0  0
 14  6  1  0  0  0  0
M  RAD  2   3   2   4   2
M  END
