Coordinates from ORCA-job Ph-N2-Cl-B3LYPG-aug-cc-pVDZ-scan-d09-49-n400
 OpenBabel11081710403D

 14 12  0  0  0  0  0  0  0  0999 V2000
   -1.5735   -1.4000   -1.2911 C   0  0  0  0  0  0  0  0  0  0  0  0
   -0.1649   -1.2418   -1.2234 C   0  0  0  0  0  0  0  0  0  0  0  0
    0.0845   -0.0021   -0.6866 C   0  0  0  0  0  0  0  0  0  0  0  0
   -0.6360    0.9443   -0.2762 C   0  0  0  0  0  0  0  0  0  0  0  0
   -2.0355    0.8282   -0.3257 C   0  0  0  0  0  0  0  0  0  0  0  0
   -2.4692   -0.4034   -0.8588 C   0  0  0  0  0  0  0  0  0  0  0  0
   -1.9661   -2.3350   -1.6958 H   0  0  0  0  0  0  0  0  0  0  0  0
    0.5399   -2.0004   -1.5524 H   0  0  0  0  0  0  0  0  0  0  0  0
   -0.0040    2.6506    0.4627 H   0  0  0  0  0  0  0  0  0  0  0  0
   -2.7344    1.5945    0.0067 H   0  0  0  0  0  0  0  0  0  0  0  0
    3.9494   -1.6195   -1.3903 N   0  0  0  0  0  0  0  0  0  0  0  0
    5.0071   -1.3274   -1.2678 N   0  0  0  0  0  0  0  0  0  0  0  0
    0.2528    3.8436    0.9795 Cl  0  0  0  0  0  0  0  0  0  0  0  0
   -3.5413   -0.5915   -0.9396 H   0  0  0  0  0  0  0  0  0  0  0  0
  1  2  2  0  0  0  0
  1  6  1  0  0  0  0
  2  3  1  0  0  0  0
  3  4  2  0  0  0  0
  5  4  1  0  0  0  0
  5 10  1  0  0  0  0
  6  5  2  0  0  0  0
  7  1  1  0  0  0  0
  8  2  1  0  0  0  0
  9 13  1  0  0  0  0
 11 12  3  0  0  0  0
 14  6  1  0  0  0  0
M  RAD  2   3   2   4   2
M  END
