Coordinates from ORCA-job Ph-N2-Cl-B3LYPG-aug-cc-pVDZ-scan-d09-49-n400
 OpenBabel11081710403D

 14 14  0  0  0  0  0  0  0  0999 V2000
   -1.5105   -1.4924   -1.3313 C   0  0  0  0  0  0  0  0  0  0  0  0
   -0.1208   -1.3912   -1.2886 C   0  0  0  0  0  0  0  0  0  0  0  0
    0.4485   -0.2185   -0.7810 C   0  0  0  0  0  0  0  0  0  0  0  0
   -0.3153    0.8572   -0.3142 C   0  0  0  0  0  0  0  0  0  0  0  0
   -1.7051    0.7316   -0.3674 C   0  0  0  0  0  0  0  0  0  0  0  0
   -2.2998   -0.4315   -0.8709 C   0  0  0  0  0  0  0  0  0  0  0  0
   -1.9765   -2.3961   -1.7225 H   0  0  0  0  0  0  0  0  0  0  0  0
    0.5229   -2.1966   -1.6382 H   0  0  0  0  0  0  0  0  0  0  0  0
    0.1770    1.7466    0.0708 H   0  0  0  0  0  0  0  0  0  0  0  0
   -2.3269    1.5525   -0.0111 H   0  0  0  0  0  0  0  0  0  0  0  0
    1.9098   -0.1977   -0.7732 N   0  0  0  0  0  0  0  0  0  0  0  0
    2.8206    0.4692   -0.4853 N   0  0  0  0  0  0  0  0  0  0  0  0
    2.4715    2.4190    0.3591 Cl  0  0  0  0  0  0  0  0  0  0  0  0
   -3.3866   -0.5121   -0.9049 H   0  0  0  0  0  0  0  0  0  0  0  0
  1  2  2  0  0  0  0
  1  6  1  0  0  0  0
  2  3  1  0  0  0  0
  3 11  1  0  0  0  0
  3  4  2  0  0  0  0
  4  9  1  0  0  0  0
  5  4  1  0  0  0  0
  5 10  1  0  0  0  0
  6  5  2  0  0  0  0
  7  1  1  0  0  0  0
  8  2  1  0  0  0  0
 11 12  2  0  0  0  0
 12 13  1  0  0  0  0
 14  6  1  0  0  0  0
M  END
