Coordinates from ORCA-job Ph-N2-Cl-B3LYPG-aug-cc-pVDZ-scan-d09-49-n400
 OpenBabel11081710403D

 14 12  0  0  0  0  0  0  0  0999 V2000
   -1.6213   -1.4972   -1.3331 C   0  0  0  0  0  0  0  0  0  0  0  0
   -0.2088   -1.5550   -1.3602 C   0  0  0  0  0  0  0  0  0  0  0  0
    0.2865   -0.3917   -0.8568 C   0  0  0  0  0  0  0  0  0  0  0  0
   -0.1687    0.7356   -0.3676 C   0  0  0  0  0  0  0  0  0  0  0  0
   -1.5900    0.7490   -0.3598 C   0  0  0  0  0  0  0  0  0  0  0  0
   -2.2891   -0.3642   -0.8412 C   0  0  0  0  0  0  0  0  0  0  0  0
   -2.1807   -2.3567   -1.7048 H   0  0  0  0  0  0  0  0  0  0  0  0
    0.3589   -2.4046   -1.7291 H   0  0  0  0  0  0  0  0  0  0  0  0
    0.4804    1.6561    0.0301 H   0  0  0  0  0  0  0  0  0  0  0  0
   -2.1077    1.6297    0.0225 H   0  0  0  0  0  0  0  0  0  0  0  0
    2.4278   -0.3105   -0.8249 N   0  0  0  0  0  0  0  0  0  0  0  0
    3.1502    0.4587   -0.4853 N   0  0  0  0  0  0  0  0  0  0  0  0
    1.5503    2.9440    0.5863 Cl  0  0  0  0  0  0  0  0  0  0  0  0
   -3.3792   -0.3532   -0.8349 H   0  0  0  0  0  0  0  0  0  0  0  0
  1  6  1  0  0  0  0
  2  1  2  0  0  0  0
  2  3  1  0  0  0  0
  3  4  2  0  0  0  0
  4  5  1  0  0  0  0
  4  9  1  0  0  0  0
  5 10  1  0  0  0  0
  6 14  1  0  0  0  0
  6  5  2  0  0  0  0
  7  1  1  0  0  0  0
  8  2  1  0  0  0  0
 11 12  3  0  0  0  0
M  RAD  2   3   2  13   2
M  END
