Coordinates from ORCA-job Ph-N2-Cl-B3LYPG-aug-cc-pVDZ-scan-d09-49-n400
 OpenBabel11081710403D

 14 12  0  0  0  0  0  0  0  0999 V2000
   -1.6430   -1.4898   -1.3299 C   0  0  0  0  0  0  0  0  0  0  0  0
   -0.2236   -1.4999   -1.3353 C   0  0  0  0  0  0  0  0  0  0  0  0
    0.1902   -0.3019   -0.8168 C   0  0  0  0  0  0  0  0  0  0  0  0
   -0.3682    0.7351   -0.3672 C   0  0  0  0  0  0  0  0  0  0  0  0
   -1.7767    0.7731   -0.3496 C   0  0  0  0  0  0  0  0  0  0  0  0
   -2.3867   -0.3931   -0.8543 C   0  0  0  0  0  0  0  0  0  0  0  0
   -2.1642   -2.3702   -1.7108 H   0  0  0  0  0  0  0  0  0  0  0  0
    0.3720   -2.3331   -1.6967 H   0  0  0  0  0  0  0  0  0  0  0  0
    0.4607    2.2953    0.3080 H   0  0  0  0  0  0  0  0  0  0  0  0
   -2.3603    1.6171    0.0164 H   0  0  0  0  0  0  0  0  0  0  0  0
    3.0815   -0.7643   -1.0195 N   0  0  0  0  0  0  0  0  0  0  0  0
    4.0748   -0.3210   -0.8297 N   0  0  0  0  0  0  0  0  0  0  0  0
    0.9286    3.4418    0.8043 Cl  0  0  0  0  0  0  0  0  0  0  0  0
   -3.4764   -0.4490   -0.8777 H   0  0  0  0  0  0  0  0  0  0  0  0
  1  6  1  0  0  0  0
  2  1  2  0  0  0  0
  2  3  1  0  0  0  0
  3  4  2  0  0  0  0
  4  5  1  0  0  0  0
  5 10  1  0  0  0  0
  6  5  2  0  0  0  0
  7  1  1  0  0  0  0
  8  2  1  0  0  0  0
  9 13  1  0  0  0  0
 11 12  3  0  0  0  0
 14  6  1  0  0  0  0
M  RAD  2   3   2   4   2
M  END
