Coordinates from ORCA-job Ph-N2-Cl-B3LYPG-aug-cc-pVDZ-scan-d09-49-n400
 OpenBabel11081710403D

 14 12  0  0  0  0  0  0  0  0999 V2000
   -1.6312   -1.4405   -1.3086 C   0  0  0  0  0  0  0  0  0  0  0  0
   -0.2150   -1.3575   -1.2735 C   0  0  0  0  0  0  0  0  0  0  0  0
    0.1134   -0.1341   -0.7438 C   0  0  0  0  0  0  0  0  0  0  0  0
   -0.5442    0.8502   -0.3170 C   0  0  0  0  0  0  0  0  0  0  0  0
   -1.9488    0.8089   -0.3341 C   0  0  0  0  0  0  0  0  0  0  0  0
   -2.4611   -0.3971   -0.8561 C   0  0  0  0  0  0  0  0  0  0  0  0
   -2.0825   -2.3528   -1.7034 H   0  0  0  0  0  0  0  0  0  0  0  0
    0.4394   -2.1532   -1.6185 H   0  0  0  0  0  0  0  0  0  0  0  0
    0.1915    2.5175    0.4048 H   0  0  0  0  0  0  0  0  0  0  0  0
   -2.5974    1.6117    0.0140 H   0  0  0  0  0  0  0  0  0  0  0  0
    3.7251   -1.2953   -1.2493 N   0  0  0  0  0  0  0  0  0  0  0  0
    4.7358   -0.8858   -1.0764 N   0  0  0  0  0  0  0  0  0  0  0  0
    0.5273    3.6943    0.9144 Cl  0  0  0  0  0  0  0  0  0  0  0  0
   -3.5436   -0.5263   -0.9114 H   0  0  0  0  0  0  0  0  0  0  0  0
  1  2  2  0  0  0  0
  1  6  1  0  0  0  0
  2  3  1  0  0  0  0
  3  4  2  0  0  0  0
  5  4  1  0  0  0  0
  5 10  1  0  0  0  0
  6  5  2  0  0  0  0
  7  1  1  0  0  0  0
  8  2  1  0  0  0  0
  9 13  1  0  0  0  0
 11 12  3  0  0  0  0
 14  6  1  0  0  0  0
M  RAD  2   3   2   4   2
M  END
