Coordinates from ORCA-job Ph-N2-Cl-B3LYPG-aug-cc-pVDZ-scan-d09-49-n400
 OpenBabel11081710403D

 14 12  0  0  0  0  0  0  0  0999 V2000
   -1.6419   -1.4932   -1.3313 C   0  0  0  0  0  0  0  0  0  0  0  0
   -0.2227   -1.5097   -1.3396 C   0  0  0  0  0  0  0  0  0  0  0  0
    0.1966   -0.3138   -0.8220 C   0  0  0  0  0  0  0  0  0  0  0  0
   -0.3525    0.7279   -0.3703 C   0  0  0  0  0  0  0  0  0  0  0  0
   -1.7616    0.7699   -0.3510 C   0  0  0  0  0  0  0  0  0  0  0  0
   -2.3791   -0.3928   -0.8542 C   0  0  0  0  0  0  0  0  0  0  0  0
   -2.1679   -2.3712   -1.7112 H   0  0  0  0  0  0  0  0  0  0  0  0
    0.3689   -2.3453   -1.7020 H   0  0  0  0  0  0  0  0  0  0  0  0
    0.4799    2.2741    0.2988 H   0  0  0  0  0  0  0  0  0  0  0  0
   -2.3404    1.6169    0.0163 H   0  0  0  0  0  0  0  0  0  0  0  0
    3.0256   -0.7274   -1.0035 N   0  0  0  0  0  0  0  0  0  0  0  0
    4.0111   -0.2697   -0.8074 N   0  0  0  0  0  0  0  0  0  0  0  0
    0.9616    3.4176    0.7938 Cl  0  0  0  0  0  0  0  0  0  0  0  0
   -3.4691   -0.4431   -0.8751 H   0  0  0  0  0  0  0  0  0  0  0  0
  1  6  1  0  0  0  0
  2  1  2  0  0  0  0
  2  3  1  0  0  0  0
  3  4  2  0  0  0  0
  4  5  1  0  0  0  0
  5 10  1  0  0  0  0
  6  5  2  0  0  0  0
  7  1  1  0  0  0  0
  8  2  1  0  0  0  0
  9 13  1  0  0  0  0
 11 12  3  0  0  0  0
 14  6  1  0  0  0  0
M  RAD  2   3   2   4   2
M  END
