Coordinates from ORCA-job Ph-N2-Cl-B3LYPG-aug-cc-pVDZ-scan-d09-49-n400
 OpenBabel11081710403D

 14 12  0  0  0  0  0  0  0  0999 V2000
   -1.6432   -1.4883   -1.3292 C   0  0  0  0  0  0  0  0  0  0  0  0
   -0.2238   -1.4954   -1.3334 C   0  0  0  0  0  0  0  0  0  0  0  0
    0.1875   -0.2965   -0.8144 C   0  0  0  0  0  0  0  0  0  0  0  0
   -0.3750    0.7384   -0.3657 C   0  0  0  0  0  0  0  0  0  0  0  0
   -1.7832    0.7744   -0.3491 C   0  0  0  0  0  0  0  0  0  0  0  0
   -2.3899   -0.3933   -0.8544 C   0  0  0  0  0  0  0  0  0  0  0  0
   -2.1622   -2.3698   -1.7106 H   0  0  0  0  0  0  0  0  0  0  0  0
    0.3736   -2.3276   -1.6943 H   0  0  0  0  0  0  0  0  0  0  0  0
    0.4522    2.3045    0.3120 H   0  0  0  0  0  0  0  0  0  0  0  0
   -2.3690    1.6172    0.0164 H   0  0  0  0  0  0  0  0  0  0  0  0
    3.1052   -0.7806   -1.0266 N   0  0  0  0  0  0  0  0  0  0  0  0
    4.1018   -0.3437   -0.8396 N   0  0  0  0  0  0  0  0  0  0  0  0
    0.9143    3.4523    0.8089 Cl  0  0  0  0  0  0  0  0  0  0  0  0
   -3.4795   -0.4517   -0.8788 H   0  0  0  0  0  0  0  0  0  0  0  0
  1  6  1  0  0  0  0
  2  1  2  0  0  0  0
  2  3  1  0  0  0  0
  3  4  2  0  0  0  0
  4  5  1  0  0  0  0
  5 10  1  0  0  0  0
  6  5  2  0  0  0  0
  7  1  1  0  0  0  0
  8  2  1  0  0  0  0
  9 13  1  0  0  0  0
 11 12  3  0  0  0  0
 14  6  1  0  0  0  0
M  RAD  2   3   2   4   2
M  END
