Coordinates from ORCA-job Ph-N2-Cl-B3LYPG-aug-cc-pVDZ-scan-d09-49-n400
 OpenBabel11081710403D

 14 12  0  0  0  0  0  0  0  0999 V2000
   -1.6602   -1.4820   -1.3265 C   0  0  0  0  0  0  0  0  0  0  0  0
   -0.2416   -1.4781   -1.3258 C   0  0  0  0  0  0  0  0  0  0  0  0
    0.1642   -0.2755   -0.8052 C   0  0  0  0  0  0  0  0  0  0  0  0
   -0.4172    0.7492   -0.3609 C   0  0  0  0  0  0  0  0  0  0  0  0
   -1.8241    0.7808   -0.3463 C   0  0  0  0  0  0  0  0  0  0  0  0
   -2.4177   -0.3928   -0.8542 C   0  0  0  0  0  0  0  0  0  0  0  0
   -2.1718   -2.3671   -1.7096 H   0  0  0  0  0  0  0  0  0  0  0  0
    0.3668   -2.3036   -1.6838 H   0  0  0  0  0  0  0  0  0  0  0  0
    0.4114    2.3503    0.3320 H   0  0  0  0  0  0  0  0  0  0  0  0
   -2.4180    1.6186    0.0171 H   0  0  0  0  0  0  0  0  0  0  0  0
    3.2931   -0.8713   -1.0657 N   0  0  0  0  0  0  0  0  0  0  0  0
    4.2891   -0.4326   -0.8789 N   0  0  0  0  0  0  0  0  0  0  0  0
    0.8414    3.5042    0.8314 Cl  0  0  0  0  0  0  0  0  0  0  0  0
   -3.5067   -0.4602   -0.8827 H   0  0  0  0  0  0  0  0  0  0  0  0
  1  2  2  0  0  0  0
  1  6  1  0  0  0  0
  2  3  1  0  0  0  0
  3  4  2  0  0  0  0
  4  5  1  0  0  0  0
  5 10  1  0  0  0  0
  6  5  2  0  0  0  0
  7  1  1  0  0  0  0
  8  2  1  0  0  0  0
  9 13  1  0  0  0  0
 11 12  3  0  0  0  0
 14  6  1  0  0  0  0
M  RAD  2   3   2   4   2
M  END
