Coordinates from ORCA-job Ph-N2-Cl-B3LYPG-aug-cc-pVDZ-scan-d09-49-n400
 OpenBabel11081710403D

 14 12  0  0  0  0  0  0  0  0999 V2000
   -1.6139   -1.4282   -1.3032 C   0  0  0  0  0  0  0  0  0  0  0  0
   -0.1995   -1.3221   -1.2582 C   0  0  0  0  0  0  0  0  0  0  0  0
    0.1042   -0.0930   -0.7260 C   0  0  0  0  0  0  0  0  0  0  0  0
   -0.5733    0.8799   -0.3042 C   0  0  0  0  0  0  0  0  0  0  0  0
   -1.9768    0.8154   -0.3312 C   0  0  0  0  0  0  0  0  0  0  0  0
   -2.4647   -0.3990   -0.8569 C   0  0  0  0  0  0  0  0  0  0  0  0
   -2.0473   -2.3478   -1.7013 H   0  0  0  0  0  0  0  0  0  0  0  0
    0.4712   -2.1063   -1.5982 H   0  0  0  0  0  0  0  0  0  0  0  0
    0.1305    2.5602    0.4234 H   0  0  0  0  0  0  0  0  0  0  0  0
   -2.6412    1.6072    0.0121 H   0  0  0  0  0  0  0  0  0  0  0  0
    3.7975   -1.3971   -1.2935 N   0  0  0  0  0  0  0  0  0  0  0  0
    4.8250   -1.0248   -1.1367 N   0  0  0  0  0  0  0  0  0  0  0  0
    0.4414    3.7426    0.9355 Cl  0  0  0  0  0  0  0  0  0  0  0  0
   -3.5443   -0.5468   -0.9203 H   0  0  0  0  0  0  0  0  0  0  0  0
  1  2  2  0  0  0  0
  1  6  1  0  0  0  0
  2  3  1  0  0  0  0
  3  4  2  0  0  0  0
  5  4  1  0  0  0  0
  5 10  1  0  0  0  0
  6  5  2  0  0  0  0
  7  1  1  0  0  0  0
  8  2  1  0  0  0  0
  9 13  1  0  0  0  0
 11 12  3  0  0  0  0
 14  6  1  0  0  0  0
M  RAD  2   3   2   4   2
M  END
