Coordinates from ORCA-job Ph-N2-Cl-B3LYPG-aug-cc-pVDZ-scan-d09-49-n400
 OpenBabel11081710403D

 14 12  0  0  0  0  0  0  0  0999 V2000
   -1.5872   -1.4091   -1.2950 C   0  0  0  0  0  0  0  0  0  0  0  0
   -0.1765   -1.2677   -1.2346 C   0  0  0  0  0  0  0  0  0  0  0  0
    0.0902   -0.0311   -0.6991 C   0  0  0  0  0  0  0  0  0  0  0  0
   -0.6166    0.9240   -0.2850 C   0  0  0  0  0  0  0  0  0  0  0  0
   -2.0176    0.8244   -0.3273 C   0  0  0  0  0  0  0  0  0  0  0  0
   -2.4687   -0.4019   -0.8582 C   0  0  0  0  0  0  0  0  0  0  0  0
   -1.9930   -2.3393   -1.6976 H   0  0  0  0  0  0  0  0  0  0  0  0
    0.5176   -2.0344   -1.5671 H   0  0  0  0  0  0  0  0  0  0  0  0
    0.0387    2.6222    0.4504 H   0  0  0  0  0  0  0  0  0  0  0  0
   -2.7056    1.5990    0.0086 H   0  0  0  0  0  0  0  0  0  0  0  0
    3.9045   -1.5493   -1.3597 N   0  0  0  0  0  0  0  0  0  0  0  0
    4.9536   -1.2318   -1.2265 N   0  0  0  0  0  0  0  0  0  0  0  0
    0.3127    3.8120    0.9658 Cl  0  0  0  0  0  0  0  0  0  0  0  0
   -3.5434   -0.5772   -0.9334 H   0  0  0  0  0  0  0  0  0  0  0  0
  1  2  2  0  0  0  0
  1  6  1  0  0  0  0
  2  3  1  0  0  0  0
  3  4  2  0  0  0  0
  5  4  1  0  0  0  0
  5 10  1  0  0  0  0
  6  5  2  0  0  0  0
  7  1  1  0  0  0  0
  8  2  1  0  0  0  0
  9 13  1  0  0  0  0
 11 12  3  0  0  0  0
 14  6  1  0  0  0  0
M  RAD  2   3   2   4   2
M  END
