Coordinates from ORCA-job Ph-N2-Cl-B3LYPG-aug-cc-pVDZ-scan-d09-49-n400
 OpenBabel11081710403D

 14 12  0  0  0  0  0  0  0  0999 V2000
   -1.6627   -1.4801   -1.3257 C   0  0  0  0  0  0  0  0  0  0  0  0
   -0.2441   -1.4732   -1.3237 C   0  0  0  0  0  0  0  0  0  0  0  0
    0.1589   -0.2698   -0.8026 C   0  0  0  0  0  0  0  0  0  0  0  0
   -0.4258    0.7534   -0.3591 C   0  0  0  0  0  0  0  0  0  0  0  0
   -1.8327    0.7824   -0.3455 C   0  0  0  0  0  0  0  0  0  0  0  0
   -2.4231   -0.3926   -0.8541 C   0  0  0  0  0  0  0  0  0  0  0  0
   -2.1720   -2.3663   -1.7092 H   0  0  0  0  0  0  0  0  0  0  0  0
    0.3663   -2.2976   -1.6811 H   0  0  0  0  0  0  0  0  0  0  0  0
    0.4008    2.3586    0.3356 H   0  0  0  0  0  0  0  0  0  0  0  0
   -2.4286    1.6189    0.0172 H   0  0  0  0  0  0  0  0  0  0  0  0
    3.3322   -0.8950   -1.0760 N   0  0  0  0  0  0  0  0  0  0  0  0
    4.3248   -0.4497   -0.8864 N   0  0  0  0  0  0  0  0  0  0  0  0
    0.8265    3.5134    0.8355 Cl  0  0  0  0  0  0  0  0  0  0  0  0
   -3.5119   -0.4624   -0.8836 H   0  0  0  0  0  0  0  0  0  0  0  0
  1  2  2  0  0  0  0
  1  6  1  0  0  0  0
  2  3  1  0  0  0  0
  3  4  2  0  0  0  0
  4  5  1  0  0  0  0
  5 10  1  0  0  0  0
  6  5  2  0  0  0  0
  7  1  1  0  0  0  0
  8  2  1  0  0  0  0
  9 13  1  0  0  0  0
 11 12  3  0  0  0  0
 14  6  1  0  0  0  0
M  RAD  2   3   2   4   2
M  END
