Coordinates from ORCA-job Ph-N2-Cl-B3LYPG-aug-cc-pVDZ-scan-d09-49-n400
 OpenBabel11081710403D

 14 12  0  0  0  0  0  0  0  0999 V2000
   -1.4660   -1.3369   -1.2639 C   0  0  0  0  0  0  0  0  0  0  0  0
   -0.0779   -1.0681   -1.1484 C   0  0  0  0  0  0  0  0  0  0  0  0
    0.0582    0.1876   -0.6044 C   0  0  0  0  0  0  0  0  0  0  0  0
   -0.7544    1.0685   -0.2222 C   0  0  0  0  0  0  0  0  0  0  0  0
   -2.1374    0.8458   -0.3178 C   0  0  0  0  0  0  0  0  0  0  0  0
   -2.4528   -0.4157   -0.8641 C   0  0  0  0  0  0  0  0  0  0  0  0
   -1.7690   -2.2994   -1.6807 H   0  0  0  0  0  0  0  0  0  0  0  0
    0.6932   -1.7705   -1.4532 H   0  0  0  0  0  0  0  0  0  0  0  0
   -0.2792    2.8284    0.5400 H   0  0  0  0  0  0  0  0  0  0  0  0
   -2.9053    1.5542   -0.0103 H   0  0  0  0  0  0  0  0  0  0  0  0
    4.1733   -2.0599   -1.5820 N   0  0  0  0  0  0  0  0  0  0  0  0
    5.2702   -1.9424   -1.5337 N   0  0  0  0  0  0  0  0  0  0  0  0
   -0.1409    4.0367    1.0634 Cl  0  0  0  0  0  0  0  0  0  0  0  0
   -3.5032   -0.6884   -0.9815 H   0  0  0  0  0  0  0  0  0  0  0  0
  1  2  2  0  0  0  0
  1  6  1  0  0  0  0
  2  3  1  0  0  0  0
  3  4  2  0  0  0  0
  5  4  1  0  0  0  0
  5 10  1  0  0  0  0
  6  5  2  0  0  0  0
  7  1  1  0  0  0  0
  8  2  1  0  0  0  0
  9 13  1  0  0  0  0
 11 12  3  0  0  0  0
 14  6  1  0  0  0  0
M  RAD  2   3   2   4   2
M  END
