Coordinates from ORCA-job Ph-N2-Cl-B3LYPG-aug-cc-pVDZ-scan-d09-49-n400
 OpenBabel11081710403D

 14 14  0  0  0  0  0  0  0  0999 V2000
   -1.5338   -1.4963   -1.3329 C   0  0  0  0  0  0  0  0  0  0  0  0
   -0.1393   -1.4044   -1.2944 C   0  0  0  0  0  0  0  0  0  0  0  0
    0.3961   -0.2308   -0.7864 C   0  0  0  0  0  0  0  0  0  0  0  0
   -0.3248    0.8538   -0.3158 C   0  0  0  0  0  0  0  0  0  0  0  0
   -1.7194    0.7300   -0.3681 C   0  0  0  0  0  0  0  0  0  0  0  0
   -2.3169   -0.4316   -0.8709 C   0  0  0  0  0  0  0  0  0  0  0  0
   -2.0043   -2.3983   -1.7233 H   0  0  0  0  0  0  0  0  0  0  0  0
    0.5058   -2.2081   -1.6432 H   0  0  0  0  0  0  0  0  0  0  0  0
    0.1814    1.7371    0.0665 H   0  0  0  0  0  0  0  0  0  0  0  0
   -2.3370    1.5537   -0.0107 H   0  0  0  0  0  0  0  0  0  0  0  0
    2.0480   -0.2157   -0.7813 N   0  0  0  0  0  0  0  0  0  0  0  0
    2.9012    0.5031   -0.4707 N   0  0  0  0  0  0  0  0  0  0  0  0
    2.4557    2.4556    0.3755 Cl  0  0  0  0  0  0  0  0  0  0  0  0
   -3.4039   -0.5082   -0.9031 H   0  0  0  0  0  0  0  0  0  0  0  0
  1  2  2  0  0  0  0
  1  6  1  0  0  0  0
  2  3  1  0  0  0  0
  3 11  1  0  0  0  0
  3  4  2  0  0  0  0
  4  9  1  0  0  0  0
  5  4  1  0  0  0  0
  5 10  1  0  0  0  0
  6  5  2  0  0  0  0
  7  1  1  0  0  0  0
  8  2  1  0  0  0  0
 11 12  2  0  0  0  0
 12 13  1  0  0  0  0
 14  6  1  0  0  0  0
M  END
