Coordinates from ORCA-job Ph-N2-Cl-B3LYPG-aug-cc-pVDZ-scan-d09-49-n400
 OpenBabel11081710403D

 14 14  0  0  0  0  0  0  0  0999 V2000
   -1.5273   -1.4949   -1.3324 C   0  0  0  0  0  0  0  0  0  0  0  0
   -0.1340   -1.4008   -1.2928 C   0  0  0  0  0  0  0  0  0  0  0  0
    0.4105   -0.2277   -0.7850 C   0  0  0  0  0  0  0  0  0  0  0  0
   -0.3210    0.8547   -0.3153 C   0  0  0  0  0  0  0  0  0  0  0  0
   -1.7144    0.7308   -0.3677 C   0  0  0  0  0  0  0  0  0  0  0  0
   -2.3116   -0.4309   -0.8706 C   0  0  0  0  0  0  0  0  0  0  0  0
   -1.9970   -2.3971   -1.7229 H   0  0  0  0  0  0  0  0  0  0  0  0
    0.5106   -2.2050   -1.6418 H   0  0  0  0  0  0  0  0  0  0  0  0
    0.1814    1.7397    0.0677 H   0  0  0  0  0  0  0  0  0  0  0  0
   -2.3330    1.5539   -0.0105 H   0  0  0  0  0  0  0  0  0  0  0  0
    2.0122   -0.2127   -0.7798 N   0  0  0  0  0  0  0  0  0  0  0  0
    2.8785    0.4957   -0.4739 N   0  0  0  0  0  0  0  0  0  0  0  0
    2.4524    2.4426    0.3694 Cl  0  0  0  0  0  0  0  0  0  0  0  0
   -3.3986   -0.5083   -0.9032 H   0  0  0  0  0  0  0  0  0  0  0  0
  1  2  2  0  0  0  0
  1  6  1  0  0  0  0
  2  3  1  0  0  0  0
  3 11  1  0  0  0  0
  3  4  2  0  0  0  0
  4  9  1  0  0  0  0
  5  4  1  0  0  0  0
  5 10  1  0  0  0  0
  6  5  2  0  0  0  0
  7  1  1  0  0  0  0
  8  2  1  0  0  0  0
 11 12  2  0  0  0  0
 12 13  1  0  0  0  0
 14  6  1  0  0  0  0
M  END
