Coordinates from ORCA-job Ph-N2-Cl-B3LYPG-aug-cc-pVDZ-scan-d09-49-n400
 OpenBabel11081710403D

 14 12  0  0  0  0  0  0  0  0999 V2000
   -1.5044   -1.3582   -1.2731 C   0  0  0  0  0  0  0  0  0  0  0  0
   -0.1083   -1.1262   -1.1735 C   0  0  0  0  0  0  0  0  0  0  0  0
    0.0661    0.1252   -0.6314 C   0  0  0  0  0  0  0  0  0  0  0  0
   -0.7169    1.0285   -0.2395 C   0  0  0  0  0  0  0  0  0  0  0  0
   -2.1064    0.8414   -0.3197 C   0  0  0  0  0  0  0  0  0  0  0  0
   -2.4617   -0.4111   -0.8621 C   0  0  0  0  0  0  0  0  0  0  0  0
   -1.8375   -2.3123   -1.6863 H   0  0  0  0  0  0  0  0  0  0  0  0
    0.6407   -1.8482   -1.4869 H   0  0  0  0  0  0  0  0  0  0  0  0
   -0.1897    2.7717    0.5153 H   0  0  0  0  0  0  0  0  0  0  0  0
   -2.8518    1.5698   -0.0036 H   0  0  0  0  0  0  0  0  0  0  0  0
    4.1117   -1.9193   -1.5209 N   0  0  0  0  0  0  0  0  0  0  0  0
    5.1989   -1.7414   -1.4466 N   0  0  0  0  0  0  0  0  0  0  0  0
   -0.0117    3.9760    1.0369 Cl  0  0  0  0  0  0  0  0  0  0  0  0
   -3.5202   -0.6558   -0.9674 H   0  0  0  0  0  0  0  0  0  0  0  0
  1  2  2  0  0  0  0
  1  6  1  0  0  0  0
  2  3  1  0  0  0  0
  3  4  2  0  0  0  0
  5  4  1  0  0  0  0
  5 10  1  0  0  0  0
  6  5  2  0  0  0  0
  7  1  1  0  0  0  0
  8  2  1  0  0  0  0
  9 13  1  0  0  0  0
 11 12  3  0  0  0  0
 14  6  1  0  0  0  0
M  RAD  2   3   2   4   2
M  END
