Coordinates from ORCA-job Ph-N2-Cl-B3LYPG-aug-cc-pVDZ-scan-d09-49-n400
 OpenBabel11081710403D

 14 12  0  0  0  0  0  0  0  0999 V2000
   -1.5000   -1.3557   -1.2720 C   0  0  0  0  0  0  0  0  0  0  0  0
   -0.1048   -1.1194   -1.1706 C   0  0  0  0  0  0  0  0  0  0  0  0
    0.0652    0.1325   -0.6283 C   0  0  0  0  0  0  0  0  0  0  0  0
   -0.7214    1.0332   -0.2375 C   0  0  0  0  0  0  0  0  0  0  0  0
   -2.1102    0.8419   -0.3194 C   0  0  0  0  0  0  0  0  0  0  0  0
   -2.4608   -0.4117   -0.8623 C   0  0  0  0  0  0  0  0  0  0  0  0
   -1.8296   -2.3109   -1.6857 H   0  0  0  0  0  0  0  0  0  0  0  0
    0.6469   -1.8392   -1.4830 H   0  0  0  0  0  0  0  0  0  0  0  0
   -0.2002    2.7786    0.5183 H   0  0  0  0  0  0  0  0  0  0  0  0
   -2.8582    1.5680   -0.0043 H   0  0  0  0  0  0  0  0  0  0  0  0
    4.1192   -1.9360   -1.5282 N   0  0  0  0  0  0  0  0  0  0  0  0
    5.2078   -1.7652   -1.4569 N   0  0  0  0  0  0  0  0  0  0  0  0
   -0.0270    3.9835    1.0402 Cl  0  0  0  0  0  0  0  0  0  0  0  0
   -3.5184   -0.6597   -0.9691 H   0  0  0  0  0  0  0  0  0  0  0  0
  1  2  2  0  0  0  0
  1  6  1  0  0  0  0
  2  3  1  0  0  0  0
  3  4  2  0  0  0  0
  5  4  1  0  0  0  0
  5 10  1  0  0  0  0
  6  5  2  0  0  0  0
  7  1  1  0  0  0  0
  8  2  1  0  0  0  0
  9 13  1  0  0  0  0
 11 12  3  0  0  0  0
 14  6  1  0  0  0  0
M  RAD  2   3   2   4   2
M  END
