Coordinates from ORCA-job Ph-N2-Cl-B3LYPG-aug-cc-pVDZ-scan-d09-49-n400
 OpenBabel11081710403D

 14 13  0  0  0  0  0  0  0  0999 V2000
   -1.3534   -1.4971   -1.0349 C   0  0  0  0  0  0  0  0  0  0  0  0
   -0.0011   -1.2187   -1.1063 C   0  0  0  0  0  0  0  0  0  0  0  0
    0.4940    0.1400   -0.9504 C   0  0  0  0  0  0  0  0  0  0  0  0
   -0.5160    1.1602   -0.7142 C   0  0  0  0  0  0  0  0  0  0  0  0
   -1.8582    0.8339   -0.6563 C   0  0  0  0  0  0  0  0  0  0  0  0
   -2.2979   -0.4864   -0.8145 C   0  0  0  0  0  0  0  0  0  0  0  0
   -1.6761   -2.5318   -1.1527 H   0  0  0  0  0  0  0  0  0  0  0  0
    0.7413   -1.9984   -1.2701 H   0  0  0  0  0  0  0  0  0  0  0  0
   -0.1629    2.1822   -0.5860 H   0  0  0  0  0  0  0  0  0  0  0  0
   -2.5780    1.6331   -0.4776 H   0  0  0  0  0  0  0  0  0  0  0  0
    1.5081    0.3679   -0.9935 N   0  0  0  0  0  0  0  0  0  0  0  0
    2.6354    0.6111   -0.8687 N   0  0  0  0  0  0  0  0  0  0  0  0
    3.1325    0.4683    1.3307 Cl  0  0  0  0  0  0  0  0  0  0  0  0
   -3.3591   -0.7244   -0.7645 H   0  0  0  0  0  0  0  0  0  0  0  0
  1  6  1  0  0  0  0
  2  1  2  0  0  0  0
  2  3  1  0  0  0  0
  3  4  2  0  0  0  0
  4  5  1  0  0  0  0
  4  9  1  0  0  0  0
  5 10  1  0  0  0  0
  6 14  1  0  0  0  0
  6  5  2  0  0  0  0
  7  1  1  0  0  0  0
  8  2  1  0  0  0  0
 11  3  1  0  0  0  0
 11 12  1  0  0  0  0
M  RAD  3  11   2  12   3  13   2
M  END
