Coordinates from ORCA-job Ph-N2-Cl-B3LYPG-aug-cc-pVDZ-scan-d09-49-n400
 OpenBabel11081710403D

 14 13  0  0  0  0  0  0  0  0999 V2000
   -1.5568   -1.5017   -1.3353 C   0  0  0  0  0  0  0  0  0  0  0  0
   -0.1571   -1.4270   -1.3042 C   0  0  0  0  0  0  0  0  0  0  0  0
    0.3526   -0.2528   -0.7958 C   0  0  0  0  0  0  0  0  0  0  0  0
   -0.3227    0.8441   -0.3198 C   0  0  0  0  0  0  0  0  0  0  0  0
   -1.7223    0.7286   -0.3687 C   0  0  0  0  0  0  0  0  0  0  0  0
   -2.3279   -0.4293   -0.8699 C   0  0  0  0  0  0  0  0  0  0  0  0
   -2.0363   -2.3999   -1.7241 H   0  0  0  0  0  0  0  0  0  0  0  0
    0.4838   -2.2329   -1.6539 H   0  0  0  0  0  0  0  0  0  0  0  0
    0.2067    1.7185    0.0586 H   0  0  0  0  0  0  0  0  0  0  0  0
   -2.3313    1.5578   -0.0088 H   0  0  0  0  0  0  0  0  0  0  0  0
    2.1545   -0.2221   -0.7840 N   0  0  0  0  0  0  0  0  0  0  0  0
    2.9598    0.5295   -0.4593 N   0  0  0  0  0  0  0  0  0  0  0  0
    2.4212    2.5250    0.4051 Cl  0  0  0  0  0  0  0  0  0  0  0  0
   -3.4154   -0.4977   -0.8986 H   0  0  0  0  0  0  0  0  0  0  0  0
  1  2  2  0  0  0  0
  1  6  1  0  0  0  0
  2  3  1  0  0  0  0
  3 11  1  0  0  0  0
  3  4  2  0  0  0  0
  4  9  1  0  0  0  0
  5  4  1  0  0  0  0
  5 10  1  0  0  0  0
  6  5  2  0  0  0  0
  7  1  1  0  0  0  0
  8  2  1  0  0  0  0
 11 12  2  0  0  0  0
 14  6  1  0  0  0  0
M  RAD  2  12   2  13   2
M  END
