Coordinates from ORCA-job Ph-N2-Cl-B3LYPG-aug-cc-pVDZ-scan-d09-49-n400
 OpenBabel11081710403D

 14 12  0  0  0  0  0  0  0  0999 V2000
   -1.6103   -1.4254   -1.3020 C   0  0  0  0  0  0  0  0  0  0  0  0
   -0.1963   -1.3143   -1.2548 C   0  0  0  0  0  0  0  0  0  0  0  0
    0.1019   -0.0840   -0.7221 C   0  0  0  0  0  0  0  0  0  0  0  0
   -0.5798    0.8864   -0.3014 C   0  0  0  0  0  0  0  0  0  0  0  0
   -1.9830    0.8168   -0.3306 C   0  0  0  0  0  0  0  0  0  0  0  0
   -2.4656   -0.3994   -0.8571 C   0  0  0  0  0  0  0  0  0  0  0  0
   -2.0397   -2.3466   -1.7008 H   0  0  0  0  0  0  0  0  0  0  0  0
    0.4780   -2.0958   -1.5937 H   0  0  0  0  0  0  0  0  0  0  0  0
    0.1171    2.5694    0.4274 H   0  0  0  0  0  0  0  0  0  0  0  0
   -2.6509    1.6061    0.0116 H   0  0  0  0  0  0  0  0  0  0  0  0
    3.8141   -1.4195   -1.3033 N   0  0  0  0  0  0  0  0  0  0  0  0
    4.8451   -1.0554   -1.1500 N   0  0  0  0  0  0  0  0  0  0  0  0
    0.4226    3.7529    0.9400 Cl  0  0  0  0  0  0  0  0  0  0  0  0
   -3.5445   -0.5513   -0.9222 H   0  0  0  0  0  0  0  0  0  0  0  0
  1  2  2  0  0  0  0
  1  6  1  0  0  0  0
  2  3  1  0  0  0  0
  3  4  2  0  0  0  0
  5  4  1  0  0  0  0
  5 10  1  0  0  0  0
  6  5  2  0  0  0  0
  7  1  1  0  0  0  0
  8  2  1  0  0  0  0
  9 13  1  0  0  0  0
 11 12  3  0  0  0  0
 14  6  1  0  0  0  0
M  RAD  2   3   2   4   2
M  END
