Coordinates from ORCA-job Ph-N2-Cl-B3LYPG-aug-cc-pVDZ-scan-d09-49-n400
 OpenBabel11081710403D

 14 12  0  0  0  0  0  0  0  0999 V2000
   -1.6700   -1.4702   -1.3214 C   0  0  0  0  0  0  0  0  0  0  0  0
   -0.2516   -1.4470   -1.3123 C   0  0  0  0  0  0  0  0  0  0  0  0
    0.1364   -0.2387   -0.7891 C   0  0  0  0  0  0  0  0  0  0  0  0
   -0.4662    0.7752   -0.3495 C   0  0  0  0  0  0  0  0  0  0  0  0
   -1.8726    0.7905   -0.3420 C   0  0  0  0  0  0  0  0  0  0  0  0
   -2.4457   -0.3919   -0.8538 C   0  0  0  0  0  0  0  0  0  0  0  0
   -2.1671   -2.3622   -1.7075 H   0  0  0  0  0  0  0  0  0  0  0  0
    0.3694   -2.2647   -1.6668 H   0  0  0  0  0  0  0  0  0  0  0  0
    0.3462    2.4009    0.3540 H   0  0  0  0  0  0  0  0  0  0  0  0
   -2.4802    1.6198    0.0176 H   0  0  0  0  0  0  0  0  0  0  0  0
    3.5082   -1.0147   -1.1277 N   0  0  0  0  0  0  0  0  0  0  0  0
    4.4865   -0.5433   -0.9274 N   0  0  0  0  0  0  0  0  0  0  0  0
    0.7491    3.5611    0.8562 Cl  0  0  0  0  0  0  0  0  0  0  0  0
   -3.5335   -0.4747   -0.8890 H   0  0  0  0  0  0  0  0  0  0  0  0
  1  2  2  0  0  0  0
  1  6  1  0  0  0  0
  2  3  1  0  0  0  0
  3  4  2  0  0  0  0
  4  5  1  0  0  0  0
  5 10  1  0  0  0  0
  6  5  2  0  0  0  0
  7  1  1  0  0  0  0
  8  2  1  0  0  0  0
  9 13  1  0  0  0  0
 11 12  3  0  0  0  0
 14  6  1  0  0  0  0
M  RAD  2   3   2   4   2
M  END
