Coordinates from ORCA-job Ph-N2-Cl-B3LYPG-aug-cc-pVDZ-scan-d09-49-n400
 OpenBabel11081710403D

 14 12  0  0  0  0  0  0  0  0999 V2000
   -1.6281   -1.4915   -1.3307 C   0  0  0  0  0  0  0  0  0  0  0  0
   -0.2145   -1.5564   -1.3600 C   0  0  0  0  0  0  0  0  0  0  0  0
    0.2723   -0.3904   -0.8553 C   0  0  0  0  0  0  0  0  0  0  0  0
   -0.1707    0.7304   -0.3693 C   0  0  0  0  0  0  0  0  0  0  0  0
   -1.5934    0.7568   -0.3567 C   0  0  0  0  0  0  0  0  0  0  0  0
   -2.2936   -0.3563   -0.8384 C   0  0  0  0  0  0  0  0  0  0  0  0
   -2.1907   -2.3494   -1.7019 H   0  0  0  0  0  0  0  0  0  0  0  0
    0.3494   -2.4082   -1.7295 H   0  0  0  0  0  0  0  0  0  0  0  0
    0.4793    1.6989    0.0497 H   0  0  0  0  0  0  0  0  0  0  0  0
   -2.1065    1.6400    0.0264 H   0  0  0  0  0  0  0  0  0  0  0  0
    2.5153   -0.3518   -0.8407 N   0  0  0  0  0  0  0  0  0  0  0  0
    3.2985    0.3654   -0.5312 N   0  0  0  0  0  0  0  0  0  0  0  0
    1.3751    2.9961    0.6108 Cl  0  0  0  0  0  0  0  0  0  0  0  0
   -3.3838   -0.3435   -0.8319 H   0  0  0  0  0  0  0  0  0  0  0  0
  1  6  1  0  0  0  0
  2  1  2  0  0  0  0
  2  3  1  0  0  0  0
  3  4  2  0  0  0  0
  4  5  1  0  0  0  0
  4  9  1  0  0  0  0
  5 10  1  0  0  0  0
  6 14  1  0  0  0  0
  6  5  2  0  0  0  0
  7  1  1  0  0  0  0
  8  2  1  0  0  0  0
 11 12  3  0  0  0  0
M  RAD  2   3   2  13   2
M  END
