Coordinates from ORCA-job Ph-N2-Cl-B3LYPG-aug-cc-pVDZ-scan-d09-49-n400
 OpenBabel11081710403D

 14 13  0  0  0  0  0  0  0  0999 V2000
   -1.3454   -1.4912   -1.0328 C   0  0  0  0  0  0  0  0  0  0  0  0
    0.0049   -1.2220   -1.0921 C   0  0  0  0  0  0  0  0  0  0  0  0
    0.5360    0.1513   -0.9312 C   0  0  0  0  0  0  0  0  0  0  0  0
   -0.5177    1.1674   -0.7033 C   0  0  0  0  0  0  0  0  0  0  0  0
   -1.8537    0.8325   -0.6597 C   0  0  0  0  0  0  0  0  0  0  0  0
   -2.2981   -0.4862   -0.8210 C   0  0  0  0  0  0  0  0  0  0  0  0
   -1.6621   -2.5279   -1.1566 H   0  0  0  0  0  0  0  0  0  0  0  0
    0.7573   -1.9930   -1.2498 H   0  0  0  0  0  0  0  0  0  0  0  0
   -0.1564    2.1868   -0.5776 H   0  0  0  0  0  0  0  0  0  0  0  0
   -2.5728    1.6353   -0.4902 H   0  0  0  0  0  0  0  0  0  0  0  0
    1.4530    0.3568   -0.9563 N   0  0  0  0  0  0  0  0  0  0  0  0
    2.5981    0.6068   -0.8725 N   0  0  0  0  0  0  0  0  0  0  0  0
    3.1246    0.4482    1.2661 Cl  0  0  0  0  0  0  0  0  0  0  0  0
   -3.3589   -0.7246   -0.7820 H   0  0  0  0  0  0  0  0  0  0  0  0
  1  6  1  0  0  0  0
  2  1  2  0  0  0  0
  2  3  1  0  0  0  0
  3  4  2  0  0  0  0
  4  5  1  0  0  0  0
  4  9  1  0  0  0  0
  5 10  1  0  0  0  0
  6 14  1  0  0  0  0
  6  5  2  0  0  0  0
  7  1  1  0  0  0  0
  8  2  1  0  0  0  0
 11  3  1  0  0  0  0
 11 12  1  0  0  0  0
M  RAD  3  11   2  12   3  13   2
M  END
