Coordinates from ORCA-job Ph-N2-Cl-B3LYPG-aug-cc-pVDZ-scan-d09-49-n400
 OpenBabel11081710403D

 14 12  0  0  0  0  0  0  0  0999 V2000
   -1.6083   -1.5104   -1.3390 C   0  0  0  0  0  0  0  0  0  0  0  0
   -0.1984   -1.5114   -1.3406 C   0  0  0  0  0  0  0  0  0  0  0  0
    0.2975   -0.3454   -0.8359 C   0  0  0  0  0  0  0  0  0  0  0  0
   -0.2464    0.7842   -0.3459 C   0  0  0  0  0  0  0  0  0  0  0  0
   -1.6597    0.7308   -0.3679 C   0  0  0  0  0  0  0  0  0  0  0  0
   -2.3192   -0.4022   -0.8582 C   0  0  0  0  0  0  0  0  0  0  0  0
   -2.1327   -2.3877   -1.7186 H   0  0  0  0  0  0  0  0  0  0  0  0
    0.4039   -2.3410   -1.7006 H   0  0  0  0  0  0  0  0  0  0  0  0
    0.3632    1.6398    0.0242 H   0  0  0  0  0  0  0  0  0  0  0  0
   -2.2200    1.5888    0.0044 H   0  0  0  0  0  0  0  0  0  0  0  0
    2.3265   -0.2302   -0.7878 N   0  0  0  0  0  0  0  0  0  0  0  0
    3.0151    0.5869   -0.4345 N   0  0  0  0  0  0  0  0  0  0  0  0
    2.0960    2.7626    0.5086 Cl  0  0  0  0  0  0  0  0  0  0  0  0
   -3.4089   -0.4246   -0.8669 H   0  0  0  0  0  0  0  0  0  0  0  0
  1  6  1  0  0  0  0
  2  1  2  0  0  0  0
  2  3  1  0  0  0  0
  3  4  2  0  0  0  0
  4  9  1  0  0  0  0
  5  4  1  0  0  0  0
  5 10  1  0  0  0  0
  6  5  2  0  0  0  0
  7  1  1  0  0  0  0
  8  2  1  0  0  0  0
 11 12  3  0  0  0  0
 14  6  1  0  0  0  0
M  RAD  2   3   2  13   2
M  END
