Coordinates from ORCA-job Ph-N2-Cl-B3LYPG-aug-cc-pVDZ-scan-d09-49-n400
 OpenBabel11081710403D

 14 13  0  0  0  0  0  0  0  0999 V2000
   -1.5640   -1.5034   -1.3360 C   0  0  0  0  0  0  0  0  0  0  0  0
   -0.1627   -1.4357   -1.3079 C   0  0  0  0  0  0  0  0  0  0  0  0
    0.3416   -0.2618   -0.7997 C   0  0  0  0  0  0  0  0  0  0  0  0
   -0.3187    0.8394   -0.3219 C   0  0  0  0  0  0  0  0  0  0  0  0
   -1.7201    0.7284   -0.3687 C   0  0  0  0  0  0  0  0  0  0  0  0
   -2.3298   -0.4277   -0.8692 C   0  0  0  0  0  0  0  0  0  0  0  0
   -2.0473   -2.3999   -1.7241 H   0  0  0  0  0  0  0  0  0  0  0  0
    0.4755   -2.2431   -1.6583 H   0  0  0  0  0  0  0  0  0  0  0  0
    0.2190    1.7110    0.0554 H   0  0  0  0  0  0  0  0  0  0  0  0
   -2.3251    1.5601   -0.0078 H   0  0  0  0  0  0  0  0  0  0  0  0
    2.1835   -0.2229   -0.7843 N   0  0  0  0  0  0  0  0  0  0  0  0
    2.9740    0.5377   -0.4557 N   0  0  0  0  0  0  0  0  0  0  0  0
    2.4003    2.5503    0.4159 Cl  0  0  0  0  0  0  0  0  0  0  0  0
   -3.4175   -0.4923   -0.8963 H   0  0  0  0  0  0  0  0  0  0  0  0
  1  2  2  0  0  0  0
  1  6  1  0  0  0  0
  2  3  1  0  0  0  0
  3 11  1  0  0  0  0
  3  4  2  0  0  0  0
  4  9  1  0  0  0  0
  5  4  1  0  0  0  0
  5 10  1  0  0  0  0
  6  5  2  0  0  0  0
  7  1  1  0  0  0  0
  8  2  1  0  0  0  0
 11 12  2  0  0  0  0
 14  6  1  0  0  0  0
M  RAD  2  12   2  13   2
M  END
