Coordinates from ORCA-job Ph-N2-Cl-B3LYPG-aug-cc-pVDZ-scan-d09-49-n400
 OpenBabel11081710403D

 14 14  0  0  0  0  0  0  0  0999 V2000
   -1.4962   -1.4911   -1.3308 C   0  0  0  0  0  0  0  0  0  0  0  0
   -0.1101   -1.3858   -1.2863 C   0  0  0  0  0  0  0  0  0  0  0  0
    0.4854   -0.2121   -0.7782 C   0  0  0  0  0  0  0  0  0  0  0  0
   -0.3100    0.8591   -0.3133 C   0  0  0  0  0  0  0  0  0  0  0  0
   -1.6962    0.7326   -0.3670 C   0  0  0  0  0  0  0  0  0  0  0  0
   -2.2888   -0.4317   -0.8710 C   0  0  0  0  0  0  0  0  0  0  0  0
   -1.9601   -2.3956   -1.7224 H   0  0  0  0  0  0  0  0  0  0  0  0
    0.5317   -2.1933   -1.6368 H   0  0  0  0  0  0  0  0  0  0  0  0
    0.1766    1.7518    0.0731 H   0  0  0  0  0  0  0  0  0  0  0  0
   -2.3205    1.5520   -0.0113 H   0  0  0  0  0  0  0  0  0  0  0  0
    1.8160   -0.1768   -0.7641 N   0  0  0  0  0  0  0  0  0  0  0  0
    2.7721    0.4385   -0.4985 N   0  0  0  0  0  0  0  0  0  0  0  0
    2.4843    2.4070    0.3538 Cl  0  0  0  0  0  0  0  0  0  0  0  0
   -3.3756   -0.5146   -0.9060 H   0  0  0  0  0  0  0  0  0  0  0  0
  1  2  2  0  0  0  0
  1  6  1  0  0  0  0
  2  3  1  0  0  0  0
  3 11  1  0  0  0  0
  3  4  2  0  0  0  0
  4  9  1  0  0  0  0
  5  4  1  0  0  0  0
  5 10  1  0  0  0  0
  6  5  2  0  0  0  0
  7  1  1  0  0  0  0
  8  2  1  0  0  0  0
 11 12  2  0  0  0  0
 12 13  1  0  0  0  0
 14  6  1  0  0  0  0
M  END
