Coordinates from ORCA-job Ph-N2-Cl-B3LYPG-aug-cc-pVDZ-scan-d09-49-n400
 OpenBabel11081710403D

 14 12  0  0  0  0  0  0  0  0999 V2000
   -1.6244   -1.4919   -1.3309 C   0  0  0  0  0  0  0  0  0  0  0  0
   -0.2107   -1.5572   -1.3605 C   0  0  0  0  0  0  0  0  0  0  0  0
    0.2766   -0.3915   -0.8559 C   0  0  0  0  0  0  0  0  0  0  0  0
   -0.1652    0.7303   -0.3694 C   0  0  0  0  0  0  0  0  0  0  0  0
   -1.5881    0.7564   -0.3568 C   0  0  0  0  0  0  0  0  0  0  0  0
   -2.2891   -0.3563   -0.8383 C   0  0  0  0  0  0  0  0  0  0  0  0
   -2.1872   -2.3496   -1.7020 H   0  0  0  0  0  0  0  0  0  0  0  0
    0.3527   -2.4091   -1.7301 H   0  0  0  0  0  0  0  0  0  0  0  0
    0.4835    1.6958    0.0482 H   0  0  0  0  0  0  0  0  0  0  0  0
   -2.1005    1.6399    0.0264 H   0  0  0  0  0  0  0  0  0  0  0  0
    2.4895   -0.3516   -0.8409 N   0  0  0  0  0  0  0  0  0  0  0  0
    3.2664    0.3713   -0.5280 N   0  0  0  0  0  0  0  0  0  0  0  0
    1.3844    2.9963    0.6107 Cl  0  0  0  0  0  0  0  0  0  0  0  0
   -3.3793   -0.3427   -0.8314 H   0  0  0  0  0  0  0  0  0  0  0  0
  1  6  1  0  0  0  0
  2  1  2  0  0  0  0
  2  3  1  0  0  0  0
  3  4  2  0  0  0  0
  4  5  1  0  0  0  0
  4  9  1  0  0  0  0
  5 10  1  0  0  0  0
  6 14  1  0  0  0  0
  6  5  2  0  0  0  0
  7  1  1  0  0  0  0
  8  2  1  0  0  0  0
 11 12  3  0  0  0  0
M  RAD  2   3   2  13   2
M  END
