Coordinates from ORCA-job Ph-N2-Cl-B3LYPG-aug-cc-pVDZ-scan-d09-49-n400
 OpenBabel11081710403D

 14 14  0  0  0  0  0  0  0  0999 V2000
   -1.5222   -1.4942   -1.3321 C   0  0  0  0  0  0  0  0  0  0  0  0
   -0.1299   -1.3975   -1.2914 C   0  0  0  0  0  0  0  0  0  0  0  0
    0.4205   -0.2245   -0.7835 C   0  0  0  0  0  0  0  0  0  0  0  0
   -0.3198    0.8557   -0.3148 C   0  0  0  0  0  0  0  0  0  0  0  0
   -1.7122    0.7309   -0.3677 C   0  0  0  0  0  0  0  0  0  0  0  0
   -2.3084   -0.4314   -0.8708 C   0  0  0  0  0  0  0  0  0  0  0  0
   -1.9905   -2.3969   -1.7229 H   0  0  0  0  0  0  0  0  0  0  0  0
    0.5148   -2.2018   -1.6404 H   0  0  0  0  0  0  0  0  0  0  0  0
    0.1792    1.7421    0.0689 H   0  0  0  0  0  0  0  0  0  0  0  0
   -2.3320    1.5532   -0.0108 H   0  0  0  0  0  0  0  0  0  0  0  0
    1.9821   -0.2095   -0.7783 N   0  0  0  0  0  0  0  0  0  0  0  0
    2.8608    0.4883   -0.4770 N   0  0  0  0  0  0  0  0  0  0  0  0
    2.4616    2.4355    0.3661 Cl  0  0  0  0  0  0  0  0  0  0  0  0
   -3.3952   -0.5099   -0.9040 H   0  0  0  0  0  0  0  0  0  0  0  0
  1  2  2  0  0  0  0
  1  6  1  0  0  0  0
  2  3  1  0  0  0  0
  3 11  1  0  0  0  0
  3  4  2  0  0  0  0
  4  9  1  0  0  0  0
  5  4  1  0  0  0  0
  5 10  1  0  0  0  0
  6  5  2  0  0  0  0
  7  1  1  0  0  0  0
  8  2  1  0  0  0  0
 11 12  2  0  0  0  0
 12 13  1  0  0  0  0
 14  6  1  0  0  0  0
M  END
