Coordinates from ORCA-job Ph-N2-Cl-B3LYPG-aug-cc-pVDZ-scan-d09-49-n400
 OpenBabel11081710403D

 14 12  0  0  0  0  0  0  0  0999 V2000
   -1.6607   -1.4816   -1.3264 C   0  0  0  0  0  0  0  0  0  0  0  0
   -0.2421   -1.4771   -1.3254 C   0  0  0  0  0  0  0  0  0  0  0  0
    0.1631   -0.2744   -0.8047 C   0  0  0  0  0  0  0  0  0  0  0  0
   -0.4189    0.7501   -0.3605 C   0  0  0  0  0  0  0  0  0  0  0  0
   -1.8258    0.7811   -0.3461 C   0  0  0  0  0  0  0  0  0  0  0  0
   -2.4188   -0.3928   -0.8542 C   0  0  0  0  0  0  0  0  0  0  0  0
   -2.1719   -2.3670   -1.7095 H   0  0  0  0  0  0  0  0  0  0  0  0
    0.3666   -2.3024   -1.6832 H   0  0  0  0  0  0  0  0  0  0  0  0
    0.4094    2.3519    0.3327 H   0  0  0  0  0  0  0  0  0  0  0  0
   -2.4201    1.6187    0.0171 H   0  0  0  0  0  0  0  0  0  0  0  0
    3.3009   -0.8759   -1.0677 N   0  0  0  0  0  0  0  0  0  0  0  0
    4.2962   -0.4359   -0.8803 N   0  0  0  0  0  0  0  0  0  0  0  0
    0.8385    3.5060    0.8322 Cl  0  0  0  0  0  0  0  0  0  0  0  0
   -3.5078   -0.4606   -0.8829 H   0  0  0  0  0  0  0  0  0  0  0  0
  1  2  2  0  0  0  0
  1  6  1  0  0  0  0
  2  3  1  0  0  0  0
  3  4  2  0  0  0  0
  4  5  1  0  0  0  0
  5 10  1  0  0  0  0
  6  5  2  0  0  0  0
  7  1  1  0  0  0  0
  8  2  1  0  0  0  0
  9 13  1  0  0  0  0
 11 12  3  0  0  0  0
 14  6  1  0  0  0  0
M  RAD  2   3   2   4   2
M  END
