Coordinates from ORCA-job Ph-N2-Cl-B3LYPG-aug-cc-pVDZ-scan-d09-49-n400
 OpenBabel11081710403D

 14 12  0  0  0  0  0  0  0  0999 V2000
   -1.6338   -1.5008   -1.3347 C   0  0  0  0  0  0  0  0  0  0  0  0
   -0.2153   -1.5338   -1.3502 C   0  0  0  0  0  0  0  0  0  0  0  0
    0.2185   -0.3439   -0.8351 C   0  0  0  0  0  0  0  0  0  0  0  0
   -0.3027    0.7122   -0.3772 C   0  0  0  0  0  0  0  0  0  0  0  0
   -1.7139    0.7619   -0.3545 C   0  0  0  0  0  0  0  0  0  0  0  0
   -2.3525   -0.3903   -0.8530 C   0  0  0  0  0  0  0  0  0  0  0  0
   -2.1724   -2.3723   -1.7117 H   0  0  0  0  0  0  0  0  0  0  0  0
    0.3666   -2.3752   -1.7151 H   0  0  0  0  0  0  0  0  0  0  0  0
    0.5283    2.1993    0.2662 H   0  0  0  0  0  0  0  0  0  0  0  0
   -2.2792    1.6168    0.0163 H   0  0  0  0  0  0  0  0  0  0  0  0
    2.8455   -0.6207   -0.9571 N   0  0  0  0  0  0  0  0  0  0  0  0
    3.8080   -0.1235   -0.7435 N   0  0  0  0  0  0  0  0  0  0  0  0
    1.0549    3.3355    0.7580 Cl  0  0  0  0  0  0  0  0  0  0  0  0
   -3.4432   -0.4251   -0.8672 H   0  0  0  0  0  0  0  0  0  0  0  0
  1  6  1  0  0  0  0
  2  1  2  0  0  0  0
  2  3  1  0  0  0  0
  3  4  2  0  0  0  0
  4  5  1  0  0  0  0
  5 10  1  0  0  0  0
  6  5  2  0  0  0  0
  7  1  1  0  0  0  0
  8  2  1  0  0  0  0
  9 13  1  0  0  0  0
 11 12  3  0  0  0  0
 14  6  1  0  0  0  0
M  RAD  2   3   2   4   2
M  END
