Coordinates from ORCA-job Ph-N2-Cl-B3LYPG-aug-cc-pVDZ-scan-d09-49-n400
 OpenBabel11081710403D

 14 12  0  0  0  0  0  0  0  0999 V2000
   -1.6286   -1.4387   -1.3078 C   0  0  0  0  0  0  0  0  0  0  0  0
   -0.2127   -1.3520   -1.2711 C   0  0  0  0  0  0  0  0  0  0  0  0
    0.1120   -0.1278   -0.7410 C   0  0  0  0  0  0  0  0  0  0  0  0
   -0.5487    0.8548   -0.3150 C   0  0  0  0  0  0  0  0  0  0  0  0
   -1.9532    0.8099   -0.3336 C   0  0  0  0  0  0  0  0  0  0  0  0
   -2.4617   -0.3974   -0.8562 C   0  0  0  0  0  0  0  0  0  0  0  0
   -2.0771   -2.3521   -1.7031 H   0  0  0  0  0  0  0  0  0  0  0  0
    0.4442   -2.1459   -1.6154 H   0  0  0  0  0  0  0  0  0  0  0  0
    0.1821    2.5242    0.4078 H   0  0  0  0  0  0  0  0  0  0  0  0
   -2.6042    1.6110    0.0137 H   0  0  0  0  0  0  0  0  0  0  0  0
    3.7365   -1.3112   -1.2562 N   0  0  0  0  0  0  0  0  0  0  0  0
    4.7499   -0.9074   -1.0858 N   0  0  0  0  0  0  0  0  0  0  0  0
    0.5140    3.7019    0.9178 Cl  0  0  0  0  0  0  0  0  0  0  0  0
   -3.5438   -0.5295   -0.9128 H   0  0  0  0  0  0  0  0  0  0  0  0
  1  2  2  0  0  0  0
  1  6  1  0  0  0  0
  2  3  1  0  0  0  0
  3  4  2  0  0  0  0
  5  4  1  0  0  0  0
  5 10  1  0  0  0  0
  6  5  2  0  0  0  0
  7  1  1  0  0  0  0
  8  2  1  0  0  0  0
  9 13  1  0  0  0  0
 11 12  3  0  0  0  0
 14  6  1  0  0  0  0
M  RAD  2   3   2   4   2
M  END
