Coordinates from ORCA-job Ph-N2-Cl-B3LYPG-aug-cc-pVDZ-scan-d09-49-n400
 OpenBabel11081710403D

 14 12  0  0  0  0  0  0  0  0999 V2000
   -1.6622   -1.4805   -1.3259 C   0  0  0  0  0  0  0  0  0  0  0  0
   -0.2436   -1.4742   -1.3241 C   0  0  0  0  0  0  0  0  0  0  0  0
    0.1599   -0.2709   -0.8031 C   0  0  0  0  0  0  0  0  0  0  0  0
   -0.4240    0.7525   -0.3594 C   0  0  0  0  0  0  0  0  0  0  0  0
   -1.8309    0.7821   -0.3457 C   0  0  0  0  0  0  0  0  0  0  0  0
   -2.4220   -0.3926   -0.8541 C   0  0  0  0  0  0  0  0  0  0  0  0
   -2.1720   -2.3665   -1.7093 H   0  0  0  0  0  0  0  0  0  0  0  0
    0.3663   -2.2988   -1.6817 H   0  0  0  0  0  0  0  0  0  0  0  0
    0.4030    2.3569    0.3349 H   0  0  0  0  0  0  0  0  0  0  0  0
   -2.4265    1.6189    0.0172 H   0  0  0  0  0  0  0  0  0  0  0  0
    3.3244   -0.8902   -1.0739 N   0  0  0  0  0  0  0  0  0  0  0  0
    4.3177   -0.4462   -0.8848 N   0  0  0  0  0  0  0  0  0  0  0  0
    0.8296    3.5115    0.8346 Cl  0  0  0  0  0  0  0  0  0  0  0  0
   -3.5109   -0.4619   -0.8834 H   0  0  0  0  0  0  0  0  0  0  0  0
  1  2  2  0  0  0  0
  1  6  1  0  0  0  0
  2  3  1  0  0  0  0
  3  4  2  0  0  0  0
  4  5  1  0  0  0  0
  5 10  1  0  0  0  0
  6  5  2  0  0  0  0
  7  1  1  0  0  0  0
  8  2  1  0  0  0  0
  9 13  1  0  0  0  0
 11 12  3  0  0  0  0
 14  6  1  0  0  0  0
M  RAD  2   3   2   4   2
M  END
