Coordinates from ORCA-job Ph-N2-Cl-B3LYPG-aug-cc-pVDZ-scan-d09-49-n400
 OpenBabel11081710403D

 14 13  0  0  0  0  0  0  0  0999 V2000
   -1.4809   -1.4902   -1.3318 C   0  0  0  0  0  0  0  0  0  0  0  0
   -0.0993   -1.3822   -1.2843 C   0  0  0  0  0  0  0  0  0  0  0  0
    0.5255   -0.2044   -0.7728 C   0  0  0  0  0  0  0  0  0  0  0  0
   -0.3091    0.8634   -0.3089 C   0  0  0  0  0  0  0  0  0  0  0  0
   -1.6909    0.7333   -0.3655 C   0  0  0  0  0  0  0  0  0  0  0  0
   -2.2787   -0.4327   -0.8724 C   0  0  0  0  0  0  0  0  0  0  0  0
   -1.9422   -2.3954   -1.7252 H   0  0  0  0  0  0  0  0  0  0  0  0
    0.5418   -2.1911   -1.6354 H   0  0  0  0  0  0  0  0  0  0  0  0
    0.1740    1.7585    0.0799 H   0  0  0  0  0  0  0  0  0  0  0  0
   -2.3196    1.5499   -0.0108 H   0  0  0  0  0  0  0  0  0  0  0  0
    1.7146   -0.1482   -0.7482 N   0  0  0  0  0  0  0  0  0  0  0  0
    2.7258    0.3923   -0.5180 N   0  0  0  0  0  0  0  0  0  0  0  0
    2.5128    2.4062    0.3449 Cl  0  0  0  0  0  0  0  0  0  0  0  0
   -3.3651   -0.5195   -0.9104 H   0  0  0  0  0  0  0  0  0  0  0  0
  1  2  2  0  0  0  0
  1  6  1  0  0  0  0
  2  3  1  0  0  0  0
  3 11  1  0  0  0  0
  3  4  2  0  0  0  0
  4  9  1  0  0  0  0
  5  4  1  0  0  0  0
  5 10  1  0  0  0  0
  6  5  2  0  0  0  0
  7  1  1  0  0  0  0
  8  2  1  0  0  0  0
 11 12  2  0  0  0  0
 14  6  1  0  0  0  0
M  RAD  2  12   2  13   2
M  END
