Coordinates from ORCA-job Ph-N2-Cl-B3LYPG-aug-cc-pVDZ-scan-d09-49-n400
 OpenBabel11081710403D

 14 12  0  0  0  0  0  0  0  0999 V2000
   -1.6299   -1.4396   -1.3082 C   0  0  0  0  0  0  0  0  0  0  0  0
   -0.2138   -1.3548   -1.2723 C   0  0  0  0  0  0  0  0  0  0  0  0
    0.1127   -0.1310   -0.7424 C   0  0  0  0  0  0  0  0  0  0  0  0
   -0.5465    0.8525   -0.3160 C   0  0  0  0  0  0  0  0  0  0  0  0
   -1.9510    0.8094   -0.3338 C   0  0  0  0  0  0  0  0  0  0  0  0
   -2.4614   -0.3972   -0.8562 C   0  0  0  0  0  0  0  0  0  0  0  0
   -2.0798   -2.3524   -1.7033 H   0  0  0  0  0  0  0  0  0  0  0  0
    0.4418   -2.1496   -1.6169 H   0  0  0  0  0  0  0  0  0  0  0  0
    0.1868    2.5209    0.4063 H   0  0  0  0  0  0  0  0  0  0  0  0
   -2.6008    1.6113    0.0139 H   0  0  0  0  0  0  0  0  0  0  0  0
    3.7308   -1.3032   -1.2528 N   0  0  0  0  0  0  0  0  0  0  0  0
    4.7429   -0.8966   -1.0811 N   0  0  0  0  0  0  0  0  0  0  0  0
    0.5206    3.6981    0.9161 Cl  0  0  0  0  0  0  0  0  0  0  0  0
   -3.5437   -0.5279   -0.9121 H   0  0  0  0  0  0  0  0  0  0  0  0
  1  2  2  0  0  0  0
  1  6  1  0  0  0  0
  2  3  1  0  0  0  0
  3  4  2  0  0  0  0
  5  4  1  0  0  0  0
  5 10  1  0  0  0  0
  6  5  2  0  0  0  0
  7  1  1  0  0  0  0
  8  2  1  0  0  0  0
  9 13  1  0  0  0  0
 11 12  3  0  0  0  0
 14  6  1  0  0  0  0
M  RAD  2   3   2   4   2
M  END
