Coordinates from ORCA-job Ph-N2-Cl-B3LYPG-aug-cc-pVDZ-scan-d09-49-n400
 OpenBabel11081710403D

 14 12  0  0  0  0  0  0  0  0999 V2000
   -1.6258   -1.4918   -1.3309 C   0  0  0  0  0  0  0  0  0  0  0  0
   -0.2121   -1.5569   -1.3602 C   0  0  0  0  0  0  0  0  0  0  0  0
    0.2753   -0.3911   -0.8556 C   0  0  0  0  0  0  0  0  0  0  0  0
   -0.1674    0.7304   -0.3693 C   0  0  0  0  0  0  0  0  0  0  0  0
   -1.5901    0.7565   -0.3569 C   0  0  0  0  0  0  0  0  0  0  0  0
   -2.2908   -0.3564   -0.8384 C   0  0  0  0  0  0  0  0  0  0  0  0
   -2.1885   -2.3496   -1.7020 H   0  0  0  0  0  0  0  0  0  0  0  0
    0.3515   -2.4088   -1.7298 H   0  0  0  0  0  0  0  0  0  0  0  0
    0.4821    1.6965    0.0487 H   0  0  0  0  0  0  0  0  0  0  0  0
   -2.1029    1.6398    0.0263 H   0  0  0  0  0  0  0  0  0  0  0  0
    2.4982   -0.3511   -0.8402 N   0  0  0  0  0  0  0  0  0  0  0  0
    3.2770    0.3705   -0.5292 N   0  0  0  0  0  0  0  0  0  0  0  0
    1.3833    2.9952    0.6105 Cl  0  0  0  0  0  0  0  0  0  0  0  0
   -3.3810   -0.3432   -0.8318 H   0  0  0  0  0  0  0  0  0  0  0  0
  1  6  1  0  0  0  0
  2  1  2  0  0  0  0
  2  3  1  0  0  0  0
  3  4  2  0  0  0  0
  4  5  1  0  0  0  0
  4  9  1  0  0  0  0
  5 10  1  0  0  0  0
  6 14  1  0  0  0  0
  6  5  2  0  0  0  0
  7  1  1  0  0  0  0
  8  2  1  0  0  0  0
 11 12  3  0  0  0  0
M  RAD  2   3   2  13   2
M  END
