Coordinates from ORCA-job Ph-N2-Cl-B3LYPG-aug-cc-pVDZ-scan-d09-49-n400
 OpenBabel11081710403D

 14 12  0  0  0  0  0  0  0  0999 V2000
   -1.6508   -1.4904   -1.3302 C   0  0  0  0  0  0  0  0  0  0  0  0
   -0.2359   -1.5655   -1.3641 C   0  0  0  0  0  0  0  0  0  0  0  0
    0.2434   -0.3978   -0.8587 C   0  0  0  0  0  0  0  0  0  0  0  0
   -0.1818    0.7187   -0.3745 C   0  0  0  0  0  0  0  0  0  0  0  0
   -1.6063    0.7604   -0.3551 C   0  0  0  0  0  0  0  0  0  0  0  0
   -2.3103   -0.3514   -0.8361 C   0  0  0  0  0  0  0  0  0  0  0  0
   -2.2194   -2.3452   -1.7000 H   0  0  0  0  0  0  0  0  0  0  0  0
    0.3228   -2.4200   -1.7349 H   0  0  0  0  0  0  0  0  0  0  0  0
    0.4731    1.7416    0.0680 H   0  0  0  0  0  0  0  0  0  0  0  0
   -2.1143    1.6462    0.0292 H   0  0  0  0  0  0  0  0  0  0  0  0
    2.6670   -0.3676   -0.8480 N   0  0  0  0  0  0  0  0  0  0  0  0
    3.4807    0.3180   -0.5510 N   0  0  0  0  0  0  0  0  0  0  0  0
    1.2411    3.0270    0.6241 Cl  0  0  0  0  0  0  0  0  0  0  0  0
   -3.4006   -0.3341   -0.8275 H   0  0  0  0  0  0  0  0  0  0  0  0
  1  6  1  0  0  0  0
  2  1  2  0  0  0  0
  2  3  1  0  0  0  0
  3  4  2  0  0  0  0
  4  5  1  0  0  0  0
  4  9  1  0  0  0  0
  5 10  1  0  0  0  0
  6 14  1  0  0  0  0
  6  5  2  0  0  0  0
  7  1  1  0  0  0  0
  8  2  1  0  0  0  0
 11 12  3  0  0  0  0
M  RAD  2   3   2  13   2
M  END
