Coordinates from ORCA-job Ph-N2-Cl-B3LYPG-aug-cc-pVDZ-scan-d09-49-n400
 OpenBabel11081710403D

 14 12  0  0  0  0  0  0  0  0999 V2000
   -1.5022   -1.3570   -1.2726 C   0  0  0  0  0  0  0  0  0  0  0  0
   -0.1066   -1.1228   -1.1720 C   0  0  0  0  0  0  0  0  0  0  0  0
    0.0657    0.1289   -0.6299 C   0  0  0  0  0  0  0  0  0  0  0  0
   -0.7191    1.0308   -0.2385 C   0  0  0  0  0  0  0  0  0  0  0  0
   -2.1083    0.8417   -0.3195 C   0  0  0  0  0  0  0  0  0  0  0  0
   -2.4612   -0.4114   -0.8622 C   0  0  0  0  0  0  0  0  0  0  0  0
   -1.8336   -2.3116   -1.6860 H   0  0  0  0  0  0  0  0  0  0  0  0
    0.6438   -1.8437   -1.4849 H   0  0  0  0  0  0  0  0  0  0  0  0
   -0.1950    2.7751    0.5168 H   0  0  0  0  0  0  0  0  0  0  0  0
   -2.8550    1.5689   -0.0039 H   0  0  0  0  0  0  0  0  0  0  0  0
    4.1155   -1.9277   -1.5246 N   0  0  0  0  0  0  0  0  0  0  0  0
    5.2033   -1.7533   -1.4518 N   0  0  0  0  0  0  0  0  0  0  0  0
   -0.0193    3.9798    1.0385 Cl  0  0  0  0  0  0  0  0  0  0  0  0
   -3.5193   -0.6577   -0.9682 H   0  0  0  0  0  0  0  0  0  0  0  0
  1  2  2  0  0  0  0
  1  6  1  0  0  0  0
  2  3  1  0  0  0  0
  3  4  2  0  0  0  0
  5  4  1  0  0  0  0
  5 10  1  0  0  0  0
  6  5  2  0  0  0  0
  7  1  1  0  0  0  0
  8  2  1  0  0  0  0
  9 13  1  0  0  0  0
 11 12  3  0  0  0  0
 14  6  1  0  0  0  0
M  RAD  2   3   2   4   2
M  END
