Coordinates from ORCA-job Ph-N2-Cl-B3LYPG-aug-cc-pVDZ-scan-d09-49-n400
 OpenBabel11081710403D

 14 14  0  0  0  0  0  0  0  0999 V2000
   -1.5039   -1.4916   -1.3309 C   0  0  0  0  0  0  0  0  0  0  0  0
   -0.1160   -1.3887   -1.2876 C   0  0  0  0  0  0  0  0  0  0  0  0
    0.4668   -0.2159   -0.7799 C   0  0  0  0  0  0  0  0  0  0  0  0
   -0.3121    0.8576   -0.3140 C   0  0  0  0  0  0  0  0  0  0  0  0
   -1.7002    0.7323   -0.3671 C   0  0  0  0  0  0  0  0  0  0  0  0
   -2.2945   -0.4311   -0.8707 C   0  0  0  0  0  0  0  0  0  0  0  0
   -1.9693   -2.3955   -1.7222 H   0  0  0  0  0  0  0  0  0  0  0  0
    0.5264   -2.1953   -1.6377 H   0  0  0  0  0  0  0  0  0  0  0  0
    0.1774    1.7487    0.0716 H   0  0  0  0  0  0  0  0  0  0  0  0
   -2.3228    1.5527   -0.0111 H   0  0  0  0  0  0  0  0  0  0  0  0
    1.8678   -0.1880   -0.7691 N   0  0  0  0  0  0  0  0  0  0  0  0
    2.7993    0.4563   -0.4909 N   0  0  0  0  0  0  0  0  0  0  0  0
    2.4711    2.4110    0.3558 Cl  0  0  0  0  0  0  0  0  0  0  0  0
   -3.3812   -0.5124   -0.9050 H   0  0  0  0  0  0  0  0  0  0  0  0
  1  2  2  0  0  0  0
  1  6  1  0  0  0  0
  2  3  1  0  0  0  0
  3 11  1  0  0  0  0
  3  4  2  0  0  0  0
  4  9  1  0  0  0  0
  5  4  1  0  0  0  0
  5 10  1  0  0  0  0
  6  5  2  0  0  0  0
  7  1  1  0  0  0  0
  8  2  1  0  0  0  0
 11 12  2  0  0  0  0
 12 13  1  0  0  0  0
 14  6  1  0  0  0  0
M  END
