Coordinates from ORCA-job Ph-N2-Cl-B3LYPG-aug-cc-pVDZ-scan-d09-49-n400
 OpenBabel11081710403D

 14 13  0  0  0  0  0  0  0  0999 V2000
   -1.3540   -1.5000   -1.0306 C   0  0  0  0  0  0  0  0  0  0  0  0
   -0.0014   -1.2166   -1.1268 C   0  0  0  0  0  0  0  0  0  0  0  0
    0.4752    0.1344   -0.9770 C   0  0  0  0  0  0  0  0  0  0  0  0
   -0.5086    1.1574   -0.7296 C   0  0  0  0  0  0  0  0  0  0  0  0
   -1.8532    0.8343   -0.6467 C   0  0  0  0  0  0  0  0  0  0  0  0
   -2.2916   -0.4871   -0.7950 C   0  0  0  0  0  0  0  0  0  0  0  0
   -1.6812   -2.5340   -1.1401 H   0  0  0  0  0  0  0  0  0  0  0  0
    0.7345   -1.9994   -1.3040 H   0  0  0  0  0  0  0  0  0  0  0  0
   -0.1580    2.1809   -0.6077 H   0  0  0  0  0  0  0  0  0  0  0  0
   -2.5721    1.6313   -0.4563 H   0  0  0  0  0  0  0  0  0  0  0  0
    1.5562    0.3789   -1.0476 N   0  0  0  0  0  0  0  0  0  0  0  0
    2.6697    0.6136   -0.8428 N   0  0  0  0  0  0  0  0  0  0  0  0
    3.0452    0.4716    1.3713 Cl  0  0  0  0  0  0  0  0  0  0  0  0
   -3.3520   -0.7253   -0.7256 H   0  0  0  0  0  0  0  0  0  0  0  0
  1  6  1  0  0  0  0
  2  1  2  0  0  0  0
  2  3  1  0  0  0  0
  3  4  2  0  0  0  0
  4  5  1  0  0  0  0
  4  9  1  0  0  0  0
  5 10  1  0  0  0  0
  6 14  1  0  0  0  0
  6  5  2  0  0  0  0
  7  1  1  0  0  0  0
  8  2  1  0  0  0  0
 11  3  1  0  0  0  0
 11 12  1  0  0  0  0
M  RAD  3  11   2  12   3  13   2
M  END
