Coordinates from ORCA-job Ph-N2-Cl-B3LYPG-aug-cc-pVDZ-scan-d09-49-n400
 OpenBabel11081710403D

 14 14  0  0  0  0  0  0  0  0999 V2000
   -1.4908   -1.4907   -1.3309 C   0  0  0  0  0  0  0  0  0  0  0  0
   -0.1062   -1.3845   -1.2857 C   0  0  0  0  0  0  0  0  0  0  0  0
    0.4997   -0.2097   -0.7768 C   0  0  0  0  0  0  0  0  0  0  0  0
   -0.3088    0.8603   -0.3124 C   0  0  0  0  0  0  0  0  0  0  0  0
   -1.6935    0.7330   -0.3666 C   0  0  0  0  0  0  0  0  0  0  0  0
   -2.2849   -0.4319   -0.8713 C   0  0  0  0  0  0  0  0  0  0  0  0
   -1.9540   -2.3955   -1.7229 H   0  0  0  0  0  0  0  0  0  0  0  0
    0.5350   -2.1927   -1.6364 H   0  0  0  0  0  0  0  0  0  0  0  0
    0.1765    1.7539    0.0747 H   0  0  0  0  0  0  0  0  0  0  0  0
   -2.3191    1.5515   -0.0112 H   0  0  0  0  0  0  0  0  0  0  0  0
    1.7798   -0.1671   -0.7592 N   0  0  0  0  0  0  0  0  0  0  0  0
    2.7549    0.4238   -0.5047 N   0  0  0  0  0  0  0  0  0  0  0  0
    2.4916    2.4056    0.3515 Cl  0  0  0  0  0  0  0  0  0  0  0  0
   -3.3715   -0.5159   -0.9070 H   0  0  0  0  0  0  0  0  0  0  0  0
  1  2  2  0  0  0  0
  1  6  1  0  0  0  0
  2  3  1  0  0  0  0
  3 11  1  0  0  0  0
  3  4  2  0  0  0  0
  4  9  1  0  0  0  0
  5  4  1  0  0  0  0
  5 10  1  0  0  0  0
  6  5  2  0  0  0  0
  7  1  1  0  0  0  0
  8  2  1  0  0  0  0
 11 12  2  0  0  0  0
 12 13  1  0  0  0  0
 14  6  1  0  0  0  0
M  END
