Coordinates from ORCA-job Ph-N2-Cl-B3LYPG-aug-cc-pVDZ-scan-d09-49-n400
 OpenBabel11081710403D

 14 12  0  0  0  0  0  0  0  0999 V2000
   -1.6325   -1.4414   -1.3090 C   0  0  0  0  0  0  0  0  0  0  0  0
   -0.2162   -1.3603   -1.2747 C   0  0  0  0  0  0  0  0  0  0  0  0
    0.1141   -0.1373   -0.7452 C   0  0  0  0  0  0  0  0  0  0  0  0
   -0.5420    0.8479   -0.3180 C   0  0  0  0  0  0  0  0  0  0  0  0
   -1.9467    0.8084   -0.3343 C   0  0  0  0  0  0  0  0  0  0  0  0
   -2.4608   -0.3969   -0.8560 C   0  0  0  0  0  0  0  0  0  0  0  0
   -2.0853   -2.3531   -1.7036 H   0  0  0  0  0  0  0  0  0  0  0  0
    0.4370   -2.1567   -1.6200 H   0  0  0  0  0  0  0  0  0  0  0  0
    0.1963    2.5142    0.4034 H   0  0  0  0  0  0  0  0  0  0  0  0
   -2.5939    1.6120    0.0142 H   0  0  0  0  0  0  0  0  0  0  0  0
    3.7194   -1.2875   -1.2459 N   0  0  0  0  0  0  0  0  0  0  0  0
    4.7287   -0.8750   -1.0718 N   0  0  0  0  0  0  0  0  0  0  0  0
    0.5340    3.6905    0.9128 Cl  0  0  0  0  0  0  0  0  0  0  0  0
   -3.5435   -0.5248   -0.9108 H   0  0  0  0  0  0  0  0  0  0  0  0
  1  2  2  0  0  0  0
  1  6  1  0  0  0  0
  2  3  1  0  0  0  0
  3  4  2  0  0  0  0
  5  4  1  0  0  0  0
  5 10  1  0  0  0  0
  6  5  2  0  0  0  0
  7  1  1  0  0  0  0
  8  2  1  0  0  0  0
  9 13  1  0  0  0  0
 11 12  3  0  0  0  0
 14  6  1  0  0  0  0
M  RAD  2   3   2   4   2
M  END
