Coordinates from ORCA-job Ph-N2-Cl-B3LYPG-aug-cc-pVDZ-scan-d09-49-n400
 OpenBabel11081710403D

 14 12  0  0  0  0  0  0  0  0999 V2000
   -1.4520   -1.3291   -1.2605 C   0  0  0  0  0  0  0  0  0  0  0  0
   -0.0670   -1.0473   -1.1394 C   0  0  0  0  0  0  0  0  0  0  0  0
    0.0553    0.2097   -0.5949 C   0  0  0  0  0  0  0  0  0  0  0  0
   -0.7674    1.0826   -0.2161 C   0  0  0  0  0  0  0  0  0  0  0  0
   -2.1478    0.8472   -0.3172 C   0  0  0  0  0  0  0  0  0  0  0  0
   -2.4491   -0.4172   -0.8648 C   0  0  0  0  0  0  0  0  0  0  0  0
   -1.7443   -2.2944   -1.6785 H   0  0  0  0  0  0  0  0  0  0  0  0
    0.7118   -1.7425   -1.4411 H   0  0  0  0  0  0  0  0  0  0  0  0
   -0.3110    2.8476    0.5484 H   0  0  0  0  0  0  0  0  0  0  0  0
   -2.9235    1.5483   -0.0129 H   0  0  0  0  0  0  0  0  0  0  0  0
    4.1938   -2.1092   -1.6034 N   0  0  0  0  0  0  0  0  0  0  0  0
    5.2931   -2.0130   -1.5643 N   0  0  0  0  0  0  0  0  0  0  0  0
   -0.1867    4.0571    1.0724 Cl  0  0  0  0  0  0  0  0  0  0  0  0
   -3.4964   -0.6998   -0.9865 H   0  0  0  0  0  0  0  0  0  0  0  0
  1  2  2  0  0  0  0
  1  6  1  0  0  0  0
  2  3  1  0  0  0  0
  3  4  2  0  0  0  0
  5  4  1  0  0  0  0
  5 10  1  0  0  0  0
  6  5  2  0  0  0  0
  7  1  1  0  0  0  0
  8  2  1  0  0  0  0
  9 13  1  0  0  0  0
 11 12  3  0  0  0  0
 14  6  1  0  0  0  0
M  RAD  2   3   2   4   2
M  END
