Coordinates from ORCA-job Ph-N2-Cl-B3LYPG-aug-cc-pVDZ-scan-d09-49-n400
 OpenBabel11081710403D

 14 13  0  0  0  0  0  0  0  0999 V2000
   -1.4787   -1.4901   -1.3312 C   0  0  0  0  0  0  0  0  0  0  0  0
   -0.0978   -1.3824   -1.2844 C   0  0  0  0  0  0  0  0  0  0  0  0
    0.5333   -0.2035   -0.7731 C   0  0  0  0  0  0  0  0  0  0  0  0
   -0.3080    0.8643   -0.3093 C   0  0  0  0  0  0  0  0  0  0  0  0
   -1.6893    0.7338   -0.3657 C   0  0  0  0  0  0  0  0  0  0  0  0
   -2.2769   -0.4325   -0.8721 C   0  0  0  0  0  0  0  0  0  0  0  0
   -1.9405   -2.3953   -1.7241 H   0  0  0  0  0  0  0  0  0  0  0  0
    0.5419   -2.1926   -1.6357 H   0  0  0  0  0  0  0  0  0  0  0  0
    0.1733    1.7606    0.0791 H   0  0  0  0  0  0  0  0  0  0  0  0
   -2.3186    1.5499   -0.0110 H   0  0  0  0  0  0  0  0  0  0  0  0
    1.7023   -0.1448   -0.7475 N   0  0  0  0  0  0  0  0  0  0  0  0
    2.7195    0.3892   -0.5210 N   0  0  0  0  0  0  0  0  0  0  0  0
    2.5116    2.4026    0.3472 Cl  0  0  0  0  0  0  0  0  0  0  0  0
   -3.3633   -0.5193   -0.9099 H   0  0  0  0  0  0  0  0  0  0  0  0
  1  2  2  0  0  0  0
  1  6  1  0  0  0  0
  2  3  1  0  0  0  0
  3 11  1  0  0  0  0
  3  4  2  0  0  0  0
  4  9  1  0  0  0  0
  5  4  1  0  0  0  0
  5 10  1  0  0  0  0
  6  5  2  0  0  0  0
  7  1  1  0  0  0  0
  8  2  1  0  0  0  0
 11 12  2  0  0  0  0
 14  6  1  0  0  0  0
M  RAD  2  12   2  13   2
M  END
