Coordinates from ORCA-job Ph-N2-Cl-B3LYPG-aug-cc-pVDZ-scan-d09-49-n400
 OpenBabel11081710403D

 14 14  0  0  0  0  0  0  0  0999 V2000
   -1.5298   -1.4953   -1.3325 C   0  0  0  0  0  0  0  0  0  0  0  0
   -0.1361   -1.4022   -1.2934 C   0  0  0  0  0  0  0  0  0  0  0  0
    0.4052   -0.2290   -0.7856 C   0  0  0  0  0  0  0  0  0  0  0  0
   -0.3223    0.8543   -0.3155 C   0  0  0  0  0  0  0  0  0  0  0  0
   -1.7160    0.7307   -0.3678 C   0  0  0  0  0  0  0  0  0  0  0  0
   -2.3136   -0.4310   -0.8706 C   0  0  0  0  0  0  0  0  0  0  0  0
   -2.0000   -2.3974   -1.7230 H   0  0  0  0  0  0  0  0  0  0  0  0
    0.5086   -2.2063   -1.6424 H   0  0  0  0  0  0  0  0  0  0  0  0
    0.1818    1.7386    0.0672 H   0  0  0  0  0  0  0  0  0  0  0  0
   -2.3341    1.5541   -0.0105 H   0  0  0  0  0  0  0  0  0  0  0  0
    2.0270   -0.2140   -0.7805 N   0  0  0  0  0  0  0  0  0  0  0  0
    2.8877    0.4989   -0.4725 N   0  0  0  0  0  0  0  0  0  0  0  0
    2.4507    2.4466    0.3713 Cl  0  0  0  0  0  0  0  0  0  0  0  0
   -3.4005   -0.5079   -0.9030 H   0  0  0  0  0  0  0  0  0  0  0  0
  1  2  2  0  0  0  0
  1  6  1  0  0  0  0
  2  3  1  0  0  0  0
  3 11  1  0  0  0  0
  3  4  2  0  0  0  0
  4  9  1  0  0  0  0
  5  4  1  0  0  0  0
  5 10  1  0  0  0  0
  6  5  2  0  0  0  0
  7  1  1  0  0  0  0
  8  2  1  0  0  0  0
 11 12  2  0  0  0  0
 12 13  1  0  0  0  0
 14  6  1  0  0  0  0
M  END
