Coordinates from ORCA-job Ph-N2-Cl-B3LYPG-aug-cc-pVDZ-scan-d09-49-n400
 OpenBabel11081710403D

 14 14  0  0  0  0  0  0  0  0999 V2000
   -1.5199   -1.4936   -1.3319 C   0  0  0  0  0  0  0  0  0  0  0  0
   -0.1283   -1.3962   -1.2908 C   0  0  0  0  0  0  0  0  0  0  0  0
    0.4276   -0.2235   -0.7831 C   0  0  0  0  0  0  0  0  0  0  0  0
   -0.3185    0.8558   -0.3147 C   0  0  0  0  0  0  0  0  0  0  0  0
   -1.7102    0.7313   -0.3675 C   0  0  0  0  0  0  0  0  0  0  0  0
   -2.3064   -0.4310   -0.8707 C   0  0  0  0  0  0  0  0  0  0  0  0
   -1.9881   -2.3964   -1.7227 H   0  0  0  0  0  0  0  0  0  0  0  0
    0.5159   -2.2009   -1.6401 H   0  0  0  0  0  0  0  0  0  0  0  0
    0.1791    1.7429    0.0692 H   0  0  0  0  0  0  0  0  0  0  0  0
   -2.3302    1.5534   -0.0107 H   0  0  0  0  0  0  0  0  0  0  0  0
    1.9691   -0.2068   -0.7772 N   0  0  0  0  0  0  0  0  0  0  0  0
    2.8541    0.4852   -0.4783 N   0  0  0  0  0  0  0  0  0  0  0  0
    2.4578    2.4296    0.3635 Cl  0  0  0  0  0  0  0  0  0  0  0  0
   -3.3933   -0.5097   -0.9039 H   0  0  0  0  0  0  0  0  0  0  0  0
  1  2  2  0  0  0  0
  1  6  1  0  0  0  0
  2  3  1  0  0  0  0
  3 11  1  0  0  0  0
  3  4  2  0  0  0  0
  4  9  1  0  0  0  0
  5  4  1  0  0  0  0
  5 10  1  0  0  0  0
  6  5  2  0  0  0  0
  7  1  1  0  0  0  0
  8  2  1  0  0  0  0
 11 12  2  0  0  0  0
 12 13  1  0  0  0  0
 14  6  1  0  0  0  0
M  END
