Coordinates from ORCA-job Ph-N2-Cl-B3LYPG-aug-cc-pVDZ-scan-d09-49-n400
 OpenBabel11081710403D

 14 12  0  0  0  0  0  0  0  0999 V2000
   -1.5687   -1.3969   -1.2897 C   0  0  0  0  0  0  0  0  0  0  0  0
   -0.1609   -1.2331   -1.2196 C   0  0  0  0  0  0  0  0  0  0  0  0
    0.0826    0.0077   -0.6823 C   0  0  0  0  0  0  0  0  0  0  0  0
   -0.6425    0.9511   -0.2732 C   0  0  0  0  0  0  0  0  0  0  0  0
   -2.0414    0.8294   -0.3251 C   0  0  0  0  0  0  0  0  0  0  0  0
   -2.4692   -0.4039   -0.8591 C   0  0  0  0  0  0  0  0  0  0  0  0
   -1.9568   -2.3334   -1.6951 H   0  0  0  0  0  0  0  0  0  0  0  0
    0.5475   -1.9888   -1.5474 H   0  0  0  0  0  0  0  0  0  0  0  0
   -0.0183    2.6601    0.4669 H   0  0  0  0  0  0  0  0  0  0  0  0
   -2.7440    1.5929    0.0060 H   0  0  0  0  0  0  0  0  0  0  0  0
    3.9639   -1.6431   -1.4006 N   0  0  0  0  0  0  0  0  0  0  0  0
    5.0243   -1.3596   -1.2817 N   0  0  0  0  0  0  0  0  0  0  0  0
    0.2326    3.8541    0.9841 Cl  0  0  0  0  0  0  0  0  0  0  0  0
   -3.5404   -0.5964   -0.9417 H   0  0  0  0  0  0  0  0  0  0  0  0
  1  2  2  0  0  0  0
  1  6  1  0  0  0  0
  2  3  1  0  0  0  0
  3  4  2  0  0  0  0
  5  4  1  0  0  0  0
  5 10  1  0  0  0  0
  6  5  2  0  0  0  0
  7  1  1  0  0  0  0
  8  2  1  0  0  0  0
  9 13  1  0  0  0  0
 11 12  3  0  0  0  0
 14  6  1  0  0  0  0
M  RAD  2   3   2   4   2
M  END
