Coordinates from ORCA-job Ph-N2-Cl-B3LYPG-aug-cc-pVDZ-scan-d09-49-n400
 OpenBabel11081710403D

 14 13  0  0  0  0  0  0  0  0999 V2000
   -1.5734   -1.5057   -1.3370 C   0  0  0  0  0  0  0  0  0  0  0  0
   -0.1699   -1.4481   -1.3133 C   0  0  0  0  0  0  0  0  0  0  0  0
    0.3272   -0.2746   -0.8052 C   0  0  0  0  0  0  0  0  0  0  0  0
   -0.3113    0.8326   -0.3248 C   0  0  0  0  0  0  0  0  0  0  0  0
   -1.7151    0.7279   -0.3690 C   0  0  0  0  0  0  0  0  0  0  0  0
   -2.3314   -0.4252   -0.8682 C   0  0  0  0  0  0  0  0  0  0  0  0
   -2.0621   -2.3998   -1.7241 H   0  0  0  0  0  0  0  0  0  0  0  0
    0.4641   -2.2581   -1.6648 H   0  0  0  0  0  0  0  0  0  0  0  0
    0.2360    1.7014    0.0512 H   0  0  0  0  0  0  0  0  0  0  0  0
   -2.3141    1.5634   -0.0064 H   0  0  0  0  0  0  0  0  0  0  0  0
    2.2189   -0.2244   -0.7850 N   0  0  0  0  0  0  0  0  0  0  0  0
    2.9907    0.5469   -0.4518 N   0  0  0  0  0  0  0  0  0  0  0  0
    2.3683    2.5876    0.4321 Cl  0  0  0  0  0  0  0  0  0  0  0  0
   -3.4194   -0.4840   -0.8927 H   0  0  0  0  0  0  0  0  0  0  0  0
  1  2  2  0  0  0  0
  1  6  1  0  0  0  0
  2  3  1  0  0  0  0
  3 11  1  0  0  0  0
  3  4  2  0  0  0  0
  4  9  1  0  0  0  0
  5  4  1  0  0  0  0
  5 10  1  0  0  0  0
  6  5  2  0  0  0  0
  7  1  1  0  0  0  0
  8  2  1  0  0  0  0
 11 12  2  0  0  0  0
 14  6  1  0  0  0  0
M  RAD  2  12   2  13   2
M  END
