Coordinates from ORCA-job Ph-N2-Cl-B3LYPG-aug-cc-pVDZ-scan-d09-49-n400
 OpenBabel11081710403D

 14 13  0  0  0  0  0  0  0  0999 V2000
   -1.5670   -1.5040   -1.3363 C   0  0  0  0  0  0  0  0  0  0  0  0
   -0.1653   -1.4380   -1.3089 C   0  0  0  0  0  0  0  0  0  0  0  0
    0.3366   -0.2642   -0.8007 C   0  0  0  0  0  0  0  0  0  0  0  0
   -0.3189    0.8381   -0.3224 C   0  0  0  0  0  0  0  0  0  0  0  0
   -1.7208    0.7281   -0.3689 C   0  0  0  0  0  0  0  0  0  0  0  0
   -2.3316   -0.4275   -0.8692 C   0  0  0  0  0  0  0  0  0  0  0  0
   -2.0511   -2.4002   -1.7243 H   0  0  0  0  0  0  0  0  0  0  0  0
    0.4724   -2.2458   -1.6595 H   0  0  0  0  0  0  0  0  0  0  0  0
    0.2202    1.7095    0.0547 H   0  0  0  0  0  0  0  0  0  0  0  0
   -2.3248    1.5605   -0.0076 H   0  0  0  0  0  0  0  0  0  0  0  0
    2.1985   -0.2235   -0.7846 N   0  0  0  0  0  0  0  0  0  0  0  0
    2.9838    0.5403   -0.4546 N   0  0  0  0  0  0  0  0  0  0  0  0
    2.3960    2.5579    0.4192 Cl  0  0  0  0  0  0  0  0  0  0  0  0
   -3.4193   -0.4912   -0.8958 H   0  0  0  0  0  0  0  0  0  0  0  0
  1  2  2  0  0  0  0
  1  6  1  0  0  0  0
  2  3  1  0  0  0  0
  3 11  1  0  0  0  0
  3  4  2  0  0  0  0
  4  9  1  0  0  0  0
  5  4  1  0  0  0  0
  5 10  1  0  0  0  0
  6  5  2  0  0  0  0
  7  1  1  0  0  0  0
  8  2  1  0  0  0  0
 11 12  2  0  0  0  0
 14  6  1  0  0  0  0
M  RAD  2  12   2  13   2
M  END
