Coordinates from ORCA-job Ph-N2-Cl-B3LYPG-aug-cc-pVDZ-scan-d09-49-n400
 OpenBabel11081710403D

 14 12  0  0  0  0  0  0  0  0999 V2000
   -1.6281   -1.5033   -1.3358 C   0  0  0  0  0  0  0  0  0  0  0  0
   -0.2103   -1.5423   -1.3539 C   0  0  0  0  0  0  0  0  0  0  0  0
    0.2311   -0.3551   -0.8400 C   0  0  0  0  0  0  0  0  0  0  0  0
   -0.2799    0.7067   -0.3796 C   0  0  0  0  0  0  0  0  0  0  0  0
   -1.6920    0.7589   -0.3558 C   0  0  0  0  0  0  0  0  0  0  0  0
   -2.3393   -0.3887   -0.8523 C   0  0  0  0  0  0  0  0  0  0  0  0
   -2.1716   -2.3721   -1.7116 H   0  0  0  0  0  0  0  0  0  0  0  0
    0.3684   -2.3856   -1.7197 H   0  0  0  0  0  0  0  0  0  0  0  0
    0.5444    2.1677    0.2525 H   0  0  0  0  0  0  0  0  0  0  0  0
   -2.2517    1.6170    0.0164 H   0  0  0  0  0  0  0  0  0  0  0  0
    2.7633   -0.5800   -0.9394 N   0  0  0  0  0  0  0  0  0  0  0  0
    3.7171   -0.0688   -0.7197 N   0  0  0  0  0  0  0  0  0  0  0  0
    1.0876    3.3025    0.7436 Cl  0  0  0  0  0  0  0  0  0  0  0  0
   -3.4302   -0.4171   -0.8637 H   0  0  0  0  0  0  0  0  0  0  0  0
  1  6  1  0  0  0  0
  2  1  2  0  0  0  0
  2  3  1  0  0  0  0
  3  4  2  0  0  0  0
  4  5  1  0  0  0  0
  5 10  1  0  0  0  0
  6  5  2  0  0  0  0
  7  1  1  0  0  0  0
  8  2  1  0  0  0  0
  9 13  1  0  0  0  0
 11 12  3  0  0  0  0
 14  6  1  0  0  0  0
M  RAD  2   3   2   4   2
M  END
