Coordinates from ORCA-job Ph-N2-Cl-B3LYPG-aug-cc-pVDZ-scan-d09-49-n400
 OpenBabel11081710403D

 14 12  0  0  0  0  0  0  0  0999 V2000
   -1.6151   -1.4291   -1.3036 C   0  0  0  0  0  0  0  0  0  0  0  0
   -0.2005   -1.3247   -1.2593 C   0  0  0  0  0  0  0  0  0  0  0  0
    0.1050   -0.0960   -0.7273 C   0  0  0  0  0  0  0  0  0  0  0  0
   -0.5711    0.8777   -0.3051 C   0  0  0  0  0  0  0  0  0  0  0  0
   -1.9747    0.8149   -0.3315 C   0  0  0  0  0  0  0  0  0  0  0  0
   -2.4644   -0.3989   -0.8569 C   0  0  0  0  0  0  0  0  0  0  0  0
   -2.0497   -2.3482   -1.7015 H   0  0  0  0  0  0  0  0  0  0  0  0
    0.4689   -2.1097   -1.5997 H   0  0  0  0  0  0  0  0  0  0  0  0
    0.1349    2.5572    0.4221 H   0  0  0  0  0  0  0  0  0  0  0  0
   -2.6380    1.6075    0.0122 H   0  0  0  0  0  0  0  0  0  0  0  0
    3.7918   -1.3898   -1.2903 N   0  0  0  0  0  0  0  0  0  0  0  0
    4.8182   -1.0147   -1.1324 N   0  0  0  0  0  0  0  0  0  0  0  0
    0.4476    3.7392    0.9340 Cl  0  0  0  0  0  0  0  0  0  0  0  0
   -3.5442   -0.5453   -0.9196 H   0  0  0  0  0  0  0  0  0  0  0  0
  1  2  2  0  0  0  0
  1  6  1  0  0  0  0
  2  3  1  0  0  0  0
  3  4  2  0  0  0  0
  5  4  1  0  0  0  0
  5 10  1  0  0  0  0
  6  5  2  0  0  0  0
  7  1  1  0  0  0  0
  8  2  1  0  0  0  0
  9 13  1  0  0  0  0
 11 12  3  0  0  0  0
 14  6  1  0  0  0  0
M  RAD  2   3   2   4   2
M  END
