Coordinates from ORCA-job Ph-N2-Cl-B3LYPG-aug-cc-pVDZ-scan-d09-49-n400
 OpenBabel11081710403D

 14 12  0  0  0  0  0  0  0  0999 V2000
   -1.5812   -1.4051   -1.2933 C   0  0  0  0  0  0  0  0  0  0  0  0
   -0.1715   -1.2563   -1.2296 C   0  0  0  0  0  0  0  0  0  0  0  0
    0.0876   -0.0183   -0.6936 C   0  0  0  0  0  0  0  0  0  0  0  0
   -0.6252    0.9330   -0.2811 C   0  0  0  0  0  0  0  0  0  0  0  0
   -2.0256    0.8261   -0.3266 C   0  0  0  0  0  0  0  0  0  0  0  0
   -2.4690   -0.4026   -0.8585 C   0  0  0  0  0  0  0  0  0  0  0  0
   -1.9812   -2.3374   -1.6968 H   0  0  0  0  0  0  0  0  0  0  0  0
    0.5274   -2.0194   -1.5606 H   0  0  0  0  0  0  0  0  0  0  0  0
    0.0198    2.6348    0.4559 H   0  0  0  0  0  0  0  0  0  0  0  0
   -2.7184    1.5971    0.0078 H   0  0  0  0  0  0  0  0  0  0  0  0
    3.9247   -1.5804   -1.3733 N   0  0  0  0  0  0  0  0  0  0  0  0
    4.9777   -1.2742   -1.2448 N   0  0  0  0  0  0  0  0  0  0  0  0
    0.2862    3.8261    0.9719 Cl  0  0  0  0  0  0  0  0  0  0  0  0
   -3.5426   -0.5835   -0.9362 H   0  0  0  0  0  0  0  0  0  0  0  0
  1  2  2  0  0  0  0
  1  6  1  0  0  0  0
  2  3  1  0  0  0  0
  3  4  2  0  0  0  0
  5  4  1  0  0  0  0
  5 10  1  0  0  0  0
  6  5  2  0  0  0  0
  7  1  1  0  0  0  0
  8  2  1  0  0  0  0
  9 13  1  0  0  0  0
 11 12  3  0  0  0  0
 14  6  1  0  0  0  0
M  RAD  2   3   2   4   2
M  END
