Coordinates from ORCA-job Ph-N2-Cl-B3LYPG-aug-cc-pVDZ-scan-d09-49-n400
 OpenBabel11081710403D

 14 13  0  0  0  0  0  0  0  0999 V2000
   -1.5582   -1.5016   -1.3352 C   0  0  0  0  0  0  0  0  0  0  0  0
   -0.1582   -1.4287   -1.3049 C   0  0  0  0  0  0  0  0  0  0  0  0
    0.3512   -0.2548   -0.7967 C   0  0  0  0  0  0  0  0  0  0  0  0
   -0.3210    0.8431   -0.3204 C   0  0  0  0  0  0  0  0  0  0  0  0
   -1.7209    0.7291   -0.3685 C   0  0  0  0  0  0  0  0  0  0  0  0
   -2.3278   -0.4283   -0.8694 C   0  0  0  0  0  0  0  0  0  0  0  0
   -2.0387   -2.3993   -1.7237 H   0  0  0  0  0  0  0  0  0  0  0  0
    0.4819   -2.2350   -1.6548 H   0  0  0  0  0  0  0  0  0  0  0  0
    0.2103    1.7169    0.0577 H   0  0  0  0  0  0  0  0  0  0  0  0
   -2.3288    1.5591   -0.0083 H   0  0  0  0  0  0  0  0  0  0  0  0
    2.1631   -0.2230   -0.7846 N   0  0  0  0  0  0  0  0  0  0  0  0
    2.9636    0.5320   -0.4583 N   0  0  0  0  0  0  0  0  0  0  0  0
    2.4073    2.5261    0.4059 Cl  0  0  0  0  0  0  0  0  0  0  0  0
   -3.4153   -0.4956   -0.8976 H   0  0  0  0  0  0  0  0  0  0  0  0
  1  2  2  0  0  0  0
  1  6  1  0  0  0  0
  2  3  1  0  0  0  0
  3 11  1  0  0  0  0
  3  4  2  0  0  0  0
  4  9  1  0  0  0  0
  5  4  1  0  0  0  0
  5 10  1  0  0  0  0
  6  5  2  0  0  0  0
  7  1  1  0  0  0  0
  8  2  1  0  0  0  0
 11 12  2  0  0  0  0
 14  6  1  0  0  0  0
M  RAD  2  12   2  13   2
M  END
