Coordinates from ORCA-job Ph-N2-Cl-B3LYPG-aug-cc-pVDZ-scan-d09-49-n400
 OpenBabel11081710403D

 14 12  0  0  0  0  0  0  0  0999 V2000
   -1.6694   -1.4716   -1.3220 C   0  0  0  0  0  0  0  0  0  0  0  0
   -0.2510   -1.4507   -1.3139 C   0  0  0  0  0  0  0  0  0  0  0  0
    0.1392   -0.2431   -0.7910 C   0  0  0  0  0  0  0  0  0  0  0  0
   -0.4609    0.7721   -0.3509 C   0  0  0  0  0  0  0  0  0  0  0  0
   -1.8674    0.7894   -0.3425 C   0  0  0  0  0  0  0  0  0  0  0  0
   -2.4429   -0.3920   -0.8539 C   0  0  0  0  0  0  0  0  0  0  0  0
   -2.1682   -2.3628   -1.7077 H   0  0  0  0  0  0  0  0  0  0  0  0
    0.3686   -2.2694   -1.6689 H   0  0  0  0  0  0  0  0  0  0  0  0
    0.3538    2.3952    0.3516 H   0  0  0  0  0  0  0  0  0  0  0  0
   -2.4733    1.6198    0.0176 H   0  0  0  0  0  0  0  0  0  0  0  0
    3.4856   -0.9984   -1.1207 N   0  0  0  0  0  0  0  0  0  0  0  0
    4.4657   -0.5301   -0.9216 N   0  0  0  0  0  0  0  0  0  0  0  0
    0.7598    3.5546    0.8534 Cl  0  0  0  0  0  0  0  0  0  0  0  0
   -3.5309   -0.4729   -0.8882 H   0  0  0  0  0  0  0  0  0  0  0  0
  1  2  2  0  0  0  0
  1  6  1  0  0  0  0
  2  3  1  0  0  0  0
  3  4  2  0  0  0  0
  4  5  1  0  0  0  0
  5 10  1  0  0  0  0
  6  5  2  0  0  0  0
  7  1  1  0  0  0  0
  8  2  1  0  0  0  0
  9 13  1  0  0  0  0
 11 12  3  0  0  0  0
 14  6  1  0  0  0  0
M  RAD  2   3   2   4   2
M  END
