Coordinates from ORCA-job Ph-N2-Cl-B3LYPG-aug-cc-pVDZ-scan-d09-49-n400
 OpenBabel11081710403D

 14 12  0  0  0  0  0  0  0  0999 V2000
   -1.6418   -1.4907   -1.3303 C   0  0  0  0  0  0  0  0  0  0  0  0
   -0.2273   -1.5614   -1.3623 C   0  0  0  0  0  0  0  0  0  0  0  0
    0.2538   -0.3942   -0.8570 C   0  0  0  0  0  0  0  0  0  0  0  0
   -0.1769    0.7242   -0.3721 C   0  0  0  0  0  0  0  0  0  0  0  0
   -1.6011    0.7591   -0.3557 C   0  0  0  0  0  0  0  0  0  0  0  0
   -2.3036   -0.3531   -0.8369 C   0  0  0  0  0  0  0  0  0  0  0  0
   -2.2077   -2.3469   -1.7007 H   0  0  0  0  0  0  0  0  0  0  0  0
    0.3340   -2.4145   -1.7324 H   0  0  0  0  0  0  0  0  0  0  0  0
    0.4746    1.7228    0.0599 H   0  0  0  0  0  0  0  0  0  0  0  0
   -2.1111    1.6439    0.0281 H   0  0  0  0  0  0  0  0  0  0  0  0
    2.6072   -0.3619   -0.8453 N   0  0  0  0  0  0  0  0  0  0  0  0
    3.4110    0.3341   -0.5443 N   0  0  0  0  0  0  0  0  0  0  0  0
    1.2914    3.0161    0.6194 Cl  0  0  0  0  0  0  0  0  0  0  0  0
   -3.3938   -0.3374   -0.8291 H   0  0  0  0  0  0  0  0  0  0  0  0
  1  6  1  0  0  0  0
  2  1  2  0  0  0  0
  2  3  1  0  0  0  0
  3  4  2  0  0  0  0
  4  5  1  0  0  0  0
  4  9  1  0  0  0  0
  5 10  1  0  0  0  0
  6 14  1  0  0  0  0
  6  5  2  0  0  0  0
  7  1  1  0  0  0  0
  8  2  1  0  0  0  0
 11 12  3  0  0  0  0
M  RAD  2   3   2  13   2
M  END
