Coordinates from ORCA-job Ph-N2-Cl-B3LYPG-aug-cc-pVDZ-scan-d09-49-n400
 OpenBabel11081710403D

 14 12  0  0  0  0  0  0  0  0999 V2000
   -1.6655   -1.4646   -1.3190 C   0  0  0  0  0  0  0  0  0  0  0  0
   -0.2475   -1.4306   -1.3051 C   0  0  0  0  0  0  0  0  0  0  0  0
    0.1326   -0.2198   -0.7809 C   0  0  0  0  0  0  0  0  0  0  0  0
   -0.4826    0.7876   -0.3441 C   0  0  0  0  0  0  0  0  0  0  0  0
   -1.8883    0.7943   -0.3403 C   0  0  0  0  0  0  0  0  0  0  0  0
   -2.4509   -0.3924   -0.8541 C   0  0  0  0  0  0  0  0  0  0  0  0
   -2.1544   -2.3604   -1.7067 H   0  0  0  0  0  0  0  0  0  0  0  0
    0.3791   -2.2448   -1.6582 H   0  0  0  0  0  0  0  0  0  0  0  0
    0.3169    2.4233    0.3638 H   0  0  0  0  0  0  0  0  0  0  0  0
   -2.5028    1.6193    0.0174 H   0  0  0  0  0  0  0  0  0  0  0  0
    3.5643   -1.0762   -1.1544 N   0  0  0  0  0  0  0  0  0  0  0  0
    4.5395   -0.5994   -0.9519 N   0  0  0  0  0  0  0  0  0  0  0  0
    0.7063    3.5869    0.8675 Cl  0  0  0  0  0  0  0  0  0  0  0  0
   -3.5380   -0.4832   -0.8927 H   0  0  0  0  0  0  0  0  0  0  0  0
  1  2  2  0  0  0  0
  1  6  1  0  0  0  0
  2  3  1  0  0  0  0
  3  4  2  0  0  0  0
  4  5  1  0  0  0  0
  5 10  1  0  0  0  0
  6  5  2  0  0  0  0
  7  1  1  0  0  0  0
  8  2  1  0  0  0  0
  9 13  1  0  0  0  0
 11 12  3  0  0  0  0
 14  6  1  0  0  0  0
M  RAD  2   3   2   4   2
M  END
