Coordinates from ORCA-job Ph-N2-Cl-B3LYPG-aug-cc-pVDZ-scan-d09-49-n400
 OpenBabel11081710403D

 14 12  0  0  0  0  0  0  0  0999 V2000
   -1.6504   -1.4878   -1.3290 C   0  0  0  0  0  0  0  0  0  0  0  0
   -0.2320   -1.4937   -1.3326 C   0  0  0  0  0  0  0  0  0  0  0  0
    0.1838   -0.2945   -0.8135 C   0  0  0  0  0  0  0  0  0  0  0  0
   -0.3856    0.7371   -0.3662 C   0  0  0  0  0  0  0  0  0  0  0  0
   -1.7932    0.7754   -0.3486 C   0  0  0  0  0  0  0  0  0  0  0  0
   -2.3981   -0.3931   -0.8543 C   0  0  0  0  0  0  0  0  0  0  0  0
   -2.1692   -2.3694   -1.7105 H   0  0  0  0  0  0  0  0  0  0  0  0
    0.3699   -2.3233   -1.6924 H   0  0  0  0  0  0  0  0  0  0  0  0
    0.4450    2.3192    0.3184 H   0  0  0  0  0  0  0  0  0  0  0  0
   -2.3796    1.6176    0.0166 H   0  0  0  0  0  0  0  0  0  0  0  0
    3.1581   -0.8011   -1.0354 N   0  0  0  0  0  0  0  0  0  0  0  0
    4.1544   -0.3637   -0.8485 N   0  0  0  0  0  0  0  0  0  0  0  0
    0.8933    3.4693    0.8163 Cl  0  0  0  0  0  0  0  0  0  0  0  0
   -3.4876   -0.4520   -0.8790 H   0  0  0  0  0  0  0  0  0  0  0  0
  1  6  1  0  0  0  0
  2  1  2  0  0  0  0
  2  3  1  0  0  0  0
  3  4  2  0  0  0  0
  4  5  1  0  0  0  0
  5 10  1  0  0  0  0
  6  5  2  0  0  0  0
  7  1  1  0  0  0  0
  8  2  1  0  0  0  0
  9 13  1  0  0  0  0
 11 12  3  0  0  0  0
 14  6  1  0  0  0  0
M  RAD  2   3   2   4   2
M  END
