Coordinates from ORCA-job Ph-N2-Cl-B3LYPG-aug-cc-pVDZ-scan-d09-49-n400
 OpenBabel11081710403D

 14 12  0  0  0  0  0  0  0  0999 V2000
   -1.6315   -1.5018   -1.3351 C   0  0  0  0  0  0  0  0  0  0  0  0
   -0.2133   -1.5372   -1.3516 C   0  0  0  0  0  0  0  0  0  0  0  0
    0.2233   -0.3483   -0.8370 C   0  0  0  0  0  0  0  0  0  0  0  0
   -0.2936    0.7102   -0.3781 C   0  0  0  0  0  0  0  0  0  0  0  0
   -1.7052    0.7607   -0.3550 C   0  0  0  0  0  0  0  0  0  0  0  0
   -2.3473   -0.3896   -0.8527 C   0  0  0  0  0  0  0  0  0  0  0  0
   -2.1720   -2.3722   -1.7117 H   0  0  0  0  0  0  0  0  0  0  0  0
    0.3672   -2.3795   -1.7170 H   0  0  0  0  0  0  0  0  0  0  0  0
    0.5348    2.1859    0.2604 H   0  0  0  0  0  0  0  0  0  0  0  0
   -2.2682    1.6169    0.0164 H   0  0  0  0  0  0  0  0  0  0  0  0
    2.8125   -0.6039   -0.9498 N   0  0  0  0  0  0  0  0  0  0  0  0
    3.7714   -0.1008   -0.7336 N   0  0  0  0  0  0  0  0  0  0  0  0
    1.0685    3.3214    0.7518 Cl  0  0  0  0  0  0  0  0  0  0  0  0
   -3.4380   -0.4219   -0.8658 H   0  0  0  0  0  0  0  0  0  0  0  0
  1  6  1  0  0  0  0
  2  1  2  0  0  0  0
  2  3  1  0  0  0  0
  3  4  2  0  0  0  0
  4  5  1  0  0  0  0
  5 10  1  0  0  0  0
  6  5  2  0  0  0  0
  7  1  1  0  0  0  0
  8  2  1  0  0  0  0
  9 13  1  0  0  0  0
 11 12  3  0  0  0  0
 14  6  1  0  0  0  0
M  RAD  2   3   2   4   2
M  END
