Coordinates from ORCA-job Ph-N2-Cl-B3LYPG-aug-cc-pVDZ-scan-d09-49-n400
 OpenBabel11081710403D

 14 12  0  0  0  0  0  0  0  0999 V2000
   -1.5999   -1.4179   -1.2988 C   0  0  0  0  0  0  0  0  0  0  0  0
   -0.1874   -1.2927   -1.2454 C   0  0  0  0  0  0  0  0  0  0  0  0
    0.0962   -0.0594   -0.7114 C   0  0  0  0  0  0  0  0  0  0  0  0
   -0.5971    0.9040   -0.2937 C   0  0  0  0  0  0  0  0  0  0  0  0
   -1.9994    0.8205   -0.3291 C   0  0  0  0  0  0  0  0  0  0  0  0
   -2.4674   -0.4005   -0.8576 C   0  0  0  0  0  0  0  0  0  0  0  0
   -2.0184   -2.3433   -1.6993 H   0  0  0  0  0  0  0  0  0  0  0  0
    0.4963   -2.0674   -1.5814 H   0  0  0  0  0  0  0  0  0  0  0  0
    0.0806    2.5941    0.4382 H   0  0  0  0  0  0  0  0  0  0  0  0
   -2.6767    1.6030    0.0103 H   0  0  0  0  0  0  0  0  0  0  0  0
    3.8576   -1.4800   -1.3296 N   0  0  0  0  0  0  0  0  0  0  0  0
    4.8974   -1.1376   -1.1857 N   0  0  0  0  0  0  0  0  0  0  0  0
    0.3715    3.7806    0.9521 Cl  0  0  0  0  0  0  0  0  0  0  0  0
   -3.5445   -0.5633   -0.9274 H   0  0  0  0  0  0  0  0  0  0  0  0
  1  2  2  0  0  0  0
  1  6  1  0  0  0  0
  2  3  1  0  0  0  0
  3  4  2  0  0  0  0
  5  4  1  0  0  0  0
  5 10  1  0  0  0  0
  6  5  2  0  0  0  0
  7  1  1  0  0  0  0
  8  2  1  0  0  0  0
  9 13  1  0  0  0  0
 11 12  3  0  0  0  0
 14  6  1  0  0  0  0
M  RAD  2   3   2   4   2
M  END
