Coordinates from ORCA-job Ph-N2-Cl-B3LYPG-aug-cc-pVDZ-scan-d09-49-n400
 OpenBabel11081710403D

 14 12  0  0  0  0  0  0  0  0999 V2000
   -1.6431   -1.4907   -1.3303 C   0  0  0  0  0  0  0  0  0  0  0  0
   -0.2286   -1.5622   -1.3626 C   0  0  0  0  0  0  0  0  0  0  0  0
    0.2523   -0.3949   -0.8574 C   0  0  0  0  0  0  0  0  0  0  0  0
   -0.1773    0.7233   -0.3725 C   0  0  0  0  0  0  0  0  0  0  0  0
   -1.6016    0.7592   -0.3556 C   0  0  0  0  0  0  0  0  0  0  0  0
   -2.3045   -0.3528   -0.8367 C   0  0  0  0  0  0  0  0  0  0  0  0
   -2.2096   -2.3466   -1.7006 H   0  0  0  0  0  0  0  0  0  0  0  0
    0.3323   -2.4155   -1.7329 H   0  0  0  0  0  0  0  0  0  0  0  0
    0.4745    1.7252    0.0609 H   0  0  0  0  0  0  0  0  0  0  0  0
   -2.1111    1.6442    0.0283 H   0  0  0  0  0  0  0  0  0  0  0  0
    2.6157   -0.3625   -0.8456 N   0  0  0  0  0  0  0  0  0  0  0  0
    3.4206    0.3323   -0.5451 N   0  0  0  0  0  0  0  0  0  0  0  0
    1.2839    3.0177    0.6201 Cl  0  0  0  0  0  0  0  0  0  0  0  0
   -3.3947   -0.3367   -0.8288 H   0  0  0  0  0  0  0  0  0  0  0  0
  1  6  1  0  0  0  0
  2  1  2  0  0  0  0
  2  3  1  0  0  0  0
  3  4  2  0  0  0  0
  4  5  1  0  0  0  0
  4  9  1  0  0  0  0
  5 10  1  0  0  0  0
  6 14  1  0  0  0  0
  6  5  2  0  0  0  0
  7  1  1  0  0  0  0
  8  2  1  0  0  0  0
 11 12  3  0  0  0  0
M  RAD  2   3   2  13   2
M  END
