Coordinates from ORCA-job C6H6+AlCl4-+NH2--N2+-scan
 OpenBabel10221816113D

 22 19  0  0  0  0  0  0  0  0999 V2000
    4.3545    0.2117   -5.6594 N   0  0  0  0  0  0  0  0  0  0  0  0
    4.4496    0.9801   -6.4345 N   0  0  0  0  0  0  0  0  0  0  0  0
    3.5156    0.2040   -3.2698 N   0  0  0  0  0  0  0  0  0  0  0  0
    2.7628   -0.3818   -3.6453 H   0  0  0  0  0  0  0  0  0  0  0  0
    4.3574   -0.3756   -3.2434 H   0  0  0  0  0  0  0  0  0  0  0  0
    1.6012   -1.8670   -6.7988 C   0  0  0  0  0  0  0  0  0  0  0  0
    0.7436   -0.8683   -6.3386 C   0  0  0  0  0  0  0  0  0  0  0  0
    0.3115   -0.8774   -5.0122 C   0  0  0  0  0  0  0  0  0  0  0  0
    0.7391   -1.8863   -4.1457 C   0  0  0  0  0  0  0  0  0  0  0  0
    1.6022   -2.8833   -4.6069 C   0  0  0  0  0  0  0  0  0  0  0  0
    2.0319   -2.8729   -5.9336 C   0  0  0  0  0  0  0  0  0  0  0  0
    1.9325   -1.8624   -7.8315 H   0  0  0  0  0  0  0  0  0  0  0  0
    0.4080   -0.0879   -7.0128 H   0  0  0  0  0  0  0  0  0  0  0  0
   -0.3654   -0.1079   -4.6567 H   0  0  0  0  0  0  0  0  0  0  0  0
    0.3901   -1.9101   -3.1192 H   0  0  0  0  0  0  0  0  0  0  0  0
    1.9284   -3.6667   -3.9321 H   0  0  0  0  0  0  0  0  0  0  0  0
    2.6973   -3.6499   -6.2933 H   0  0  0  0  0  0  0  0  0  0  0  0
    3.6746   -1.6523   -0.3174 Al  0  0  0  0  0  0  0  0  0  0  0  0
    3.9113   -0.7891    1.5881 Cl  0  0  0  0  0  0  0  0  0  0  0  0
    5.4105   -2.1730   -1.4228 Cl  0  0  0  0  0  0  0  0  0  0  0  0
    2.0054   -2.9138   -0.6111 Cl  0  0  0  0  0  0  0  0  0  0  0  0
    3.0826    0.3894   -1.5364 Cl  0  0  0  0  0  0  0  0  0  0  0  0
  2  1  3  0  0  0  0
  3  5  1  0  0  0  0
  3 22  1  0  0  0  0
  4  3  1  0  0  0  0
  6  7  2  0  0  0  0
  6 11  1  0  0  0  0
  7  8  1  0  0  0  0
  8 14  1  0  0  0  0
  8  9  2  0  0  0  0
  9 15  1  0  0  0  0
 10  9  1  0  0  0  0
 10 16  1  0  0  0  0
 11 10  2  0  0  0  0
 12  6  1  0  0  0  0
 13  7  1  0  0  0  0
 17 11  1  0  0  0  0
 18 19  1  0  0  0  0
 20 18  1  0  0  0  0
 21 18  1  0  0  0  0
M  END
