Coordinates from ORCA-job C6H6+AlCl4-+NH2--N2+-scan
 OpenBabel10221816113D

 22 19  0  0  0  0  0  0  0  0999 V2000
    6.7004   -0.3481   -5.5968 N   0  0  0  0  0  0  0  0  0  0  0  0
    7.7381   -0.6507   -5.7751 N   0  0  0  0  0  0  0  0  0  0  0  0
    2.5667    0.3624   -3.3970 N   0  0  0  0  0  0  0  0  0  0  0  0
    1.9359   -0.4374   -3.4988 H   0  0  0  0  0  0  0  0  0  0  0  0
    3.4836    0.0627   -3.7338 H   0  0  0  0  0  0  0  0  0  0  0  0
    1.4183   -1.3440   -6.5040 C   0  0  0  0  0  0  0  0  0  0  0  0
    0.2223   -0.8005   -6.0347 C   0  0  0  0  0  0  0  0  0  0  0  0
   -0.3493   -1.2841   -4.8577 C   0  0  0  0  0  0  0  0  0  0  0  0
    0.2769   -2.3106   -4.1478 C   0  0  0  0  0  0  0  0  0  0  0  0
    1.4741   -2.8555   -4.6184 C   0  0  0  0  0  0  0  0  0  0  0  0
    2.0437   -2.3719   -5.7971 C   0  0  0  0  0  0  0  0  0  0  0  0
    1.8608   -0.9689   -7.4203 H   0  0  0  0  0  0  0  0  0  0  0  0
   -0.2627   -0.0016   -6.5844 H   0  0  0  0  0  0  0  0  0  0  0  0
   -1.2805   -0.8636   -4.4943 H   0  0  0  0  0  0  0  0  0  0  0  0
   -0.1654   -2.6901   -3.2334 H   0  0  0  0  0  0  0  0  0  0  0  0
    1.9585   -3.6521   -4.0653 H   0  0  0  0  0  0  0  0  0  0  0  0
    2.9714   -2.7972   -6.1639 H   0  0  0  0  0  0  0  0  0  0  0  0
    3.9120   -1.4389   -0.7549 Al  0  0  0  0  0  0  0  0  0  0  0  0
    4.5140   -0.6088    1.0850 Cl  0  0  0  0  0  0  0  0  0  0  0  0
    5.3691   -1.7050   -2.2732 Cl  0  0  0  0  0  0  0  0  0  0  0  0
    2.3672   -2.8804   -0.7263 Cl  0  0  0  0  0  0  0  0  0  0  0  0
    2.7894    0.5437   -1.6413 Cl  0  0  0  0  0  0  0  0  0  0  0  0
  2  1  3  0  0  0  0
  3 22  1  0  0  0  0
  4  3  1  0  0  0  0
  5  3  1  0  0  0  0
  6  7  2  0  0  0  0
  6 11  1  0  0  0  0
  7  8  1  0  0  0  0
  8 14  1  0  0  0  0
  8  9  2  0  0  0  0
  9 15  1  0  0  0  0
 10  9  1  0  0  0  0
 10 16  1  0  0  0  0
 11 10  2  0  0  0  0
 12  6  1  0  0  0  0
 13  7  1  0  0  0  0
 17 11  1  0  0  0  0
 18 21  1  0  0  0  0
 18 19  1  0  0  0  0
 20 18  1  0  0  0  0
M  END
