Coordinates from ORCA-job C6H6+AlCl4-+NH2--N2+-scan
 OpenBabel10221816113D

 22 19  0  0  0  0  0  0  0  0999 V2000
    4.1464    0.2320   -5.2817 N   0  0  0  0  0  0  0  0  0  0  0  0
    4.4457    1.0232   -5.9847 N   0  0  0  0  0  0  0  0  0  0  0  0
    3.5473    0.1459   -3.5108 N   0  0  0  0  0  0  0  0  0  0  0  0
    2.7439   -0.4317   -3.8005 H   0  0  0  0  0  0  0  0  0  0  0  0
    4.2931   -0.5314   -3.2926 H   0  0  0  0  0  0  0  0  0  0  0  0
    1.6594   -1.8832   -6.7740 C   0  0  0  0  0  0  0  0  0  0  0  0
    0.8023   -0.8665   -6.3524 C   0  0  0  0  0  0  0  0  0  0  0  0
    0.3260   -0.8551   -5.0407 C   0  0  0  0  0  0  0  0  0  0  0  0
    0.7088   -1.8615   -4.1501 C   0  0  0  0  0  0  0  0  0  0  0  0
    1.5709   -2.8768   -4.5728 C   0  0  0  0  0  0  0  0  0  0  0  0
    2.0448   -2.8867   -5.8847 C   0  0  0  0  0  0  0  0  0  0  0  0
    2.0231   -1.8957   -7.7958 H   0  0  0  0  0  0  0  0  0  0  0  0
    0.4989   -0.0898   -7.0460 H   0  0  0  0  0  0  0  0  0  0  0  0
   -0.3507   -0.0723   -4.7155 H   0  0  0  0  0  0  0  0  0  0  0  0
    0.3290   -1.8672   -3.1344 H   0  0  0  0  0  0  0  0  0  0  0  0
    1.8630   -3.6568   -3.8788 H   0  0  0  0  0  0  0  0  0  0  0  0
    2.7085   -3.6784   -6.2144 H   0  0  0  0  0  0  0  0  0  0  0  0
    3.6894   -1.5632   -0.4328 Al  0  0  0  0  0  0  0  0  0  0  0  0
    4.1280   -0.7772    1.4729 Cl  0  0  0  0  0  0  0  0  0  0  0  0
    5.3528   -2.1001   -1.6722 Cl  0  0  0  0  0  0  0  0  0  0  0  0
    2.0606   -2.9136   -0.5642 Cl  0  0  0  0  0  0  0  0  0  0  0  0
    2.9532    0.3654   -1.6073 Cl  0  0  0  0  0  0  0  0  0  0  0  0
  2  1  3  0  0  0  0
  3  5  1  0  0  0  0
  3 22  1  0  0  0  0
  4  3  1  0  0  0  0
  6  7  2  0  0  0  0
  6 11  1  0  0  0  0
  7  8  1  0  0  0  0
  8 14  1  0  0  0  0
  8  9  2  0  0  0  0
  9 15  1  0  0  0  0
 10  9  1  0  0  0  0
 10 16  1  0  0  0  0
 11 10  2  0  0  0  0
 12  6  1  0  0  0  0
 13  7  1  0  0  0  0
 17 11  1  0  0  0  0
 18 19  1  0  0  0  0
 20 18  1  0  0  0  0
 21 18  1  0  0  0  0
M  END
