Coordinates from ORCA-job C6H6+AlCl4-+NH2--N2+-scan
 OpenBabel10221816113D

 22 19  0  0  0  0  0  0  0  0999 V2000
    6.7460   -0.3586   -5.6092 N   0  0  0  0  0  0  0  0  0  0  0  0
    7.7856   -0.6664   -5.7662 N   0  0  0  0  0  0  0  0  0  0  0  0
    2.5540    0.3647   -3.3937 N   0  0  0  0  0  0  0  0  0  0  0  0
    1.9253   -0.4367   -3.4966 H   0  0  0  0  0  0  0  0  0  0  0  0
    3.4715    0.0679   -3.7315 H   0  0  0  0  0  0  0  0  0  0  0  0
    1.4134   -1.3400   -6.5010 C   0  0  0  0  0  0  0  0  0  0  0  0
    0.2152   -0.8008   -6.0324 C   0  0  0  0  0  0  0  0  0  0  0  0
   -0.3566   -1.2882   -4.8571 C   0  0  0  0  0  0  0  0  0  0  0  0
    0.2715   -2.3142   -4.1482 C   0  0  0  0  0  0  0  0  0  0  0  0
    1.4709   -2.8550   -4.6182 C   0  0  0  0  0  0  0  0  0  0  0  0
    2.0408   -2.3675   -5.7952 C   0  0  0  0  0  0  0  0  0  0  0  0
    1.8561   -0.9620   -7.4160 H   0  0  0  0  0  0  0  0  0  0  0  0
   -0.2713   -0.0022   -6.5813 H   0  0  0  0  0  0  0  0  0  0  0  0
   -1.2895   -0.8710   -4.4941 H   0  0  0  0  0  0  0  0  0  0  0  0
   -0.1709   -2.6967   -3.2351 H   0  0  0  0  0  0  0  0  0  0  0  0
    1.9568   -3.6511   -4.0659 H   0  0  0  0  0  0  0  0  0  0  0  0
    2.9701   -2.7896   -6.1616 H   0  0  0  0  0  0  0  0  0  0  0  0
    3.9143   -1.4353   -0.7596 Al  0  0  0  0  0  0  0  0  0  0  0  0
    4.5167   -0.6068    1.0809 Cl  0  0  0  0  0  0  0  0  0  0  0  0
    5.3686   -1.6879   -2.2831 Cl  0  0  0  0  0  0  0  0  0  0  0  0
    2.3785   -2.8862   -0.7307 Cl  0  0  0  0  0  0  0  0  0  0  0  0
    2.7775    0.5429   -1.6377 Cl  0  0  0  0  0  0  0  0  0  0  0  0
  2  1  3  0  0  0  0
  3 22  1  0  0  0  0
  4  3  1  0  0  0  0
  5  3  1  0  0  0  0
  6  7  2  0  0  0  0
  6 11  1  0  0  0  0
  7  8  1  0  0  0  0
  8 14  1  0  0  0  0
  8  9  2  0  0  0  0
  9 15  1  0  0  0  0
 10  9  1  0  0  0  0
 10 16  1  0  0  0  0
 11 10  2  0  0  0  0
 12  6  1  0  0  0  0
 13  7  1  0  0  0  0
 17 11  1  0  0  0  0
 18 21  1  0  0  0  0
 18 19  1  0  0  0  0
 20 18  1  0  0  0  0
M  END
