Coordinates from ORCA-job C6H6+AlCl4-+NH2--N2+-scan
 OpenBabel10221816123D

 22 19  0  0  0  0  0  0  0  0999 V2000
    6.5279   -2.7038   -6.6763 N   0  0  0  0  0  0  0  0  0  0  0  0
    7.5708   -3.0383   -6.6548 N   0  0  0  0  0  0  0  0  0  0  0  0
    1.6732    0.6476   -2.9454 N   0  0  0  0  0  0  0  0  0  0  0  0
    1.4204   -0.2972   -3.2492 H   0  0  0  0  0  0  0  0  0  0  0  0
    2.6298    0.8159   -3.2635 H   0  0  0  0  0  0  0  0  0  0  0  0
    1.6042   -0.9459   -6.3818 C   0  0  0  0  0  0  0  0  0  0  0  0
    0.2816   -0.8558   -5.9473 C   0  0  0  0  0  0  0  0  0  0  0  0
   -0.1638   -1.6597   -4.8970 C   0  0  0  0  0  0  0  0  0  0  0  0
    0.7168   -2.5492   -4.2776 C   0  0  0  0  0  0  0  0  0  0  0  0
    2.0412   -2.6382   -4.7133 C   0  0  0  0  0  0  0  0  0  0  0  0
    2.4842   -1.8380   -5.7669 C   0  0  0  0  0  0  0  0  0  0  0  0
    1.9479   -0.3252   -7.2021 H   0  0  0  0  0  0  0  0  0  0  0  0
   -0.4012   -0.1632   -6.4267 H   0  0  0  0  0  0  0  0  0  0  0  0
   -1.1937   -1.5948   -4.5635 H   0  0  0  0  0  0  0  0  0  0  0  0
    0.3737   -3.1778   -3.4632 H   0  0  0  0  0  0  0  0  0  0  0  0
    2.7227   -3.3286   -4.2301 H   0  0  0  0  0  0  0  0  0  0  0  0
    3.5096   -1.9158   -6.1119 H   0  0  0  0  0  0  0  0  0  0  0  0
    3.7739   -0.8533   -0.6227 Al  0  0  0  0  0  0  0  0  0  0  0  0
    4.0372   -0.1755    1.3539 Cl  0  0  0  0  0  0  0  0  0  0  0  0
    5.0957   -0.1462   -2.1242 Cl  0  0  0  0  0  0  0  0  0  0  0  0
    3.0638   -2.8238   -0.8938 Cl  0  0  0  0  0  0  0  0  0  0  0  0
    1.8284    0.5265   -1.1763 Cl  0  0  0  0  0  0  0  0  0  0  0  0
  1  2  3  0  0  0  0
  3 22  1  0  0  0  0
  4  3  1  0  0  0  0
  5  3  1  0  0  0  0
  6  7  2  0  0  0  0
  6 11  1  0  0  0  0
  7  8  1  0  0  0  0
  8 14  1  0  0  0  0
  8  9  2  0  0  0  0
  9 15  1  0  0  0  0
 10  9  1  0  0  0  0
 10 16  1  0  0  0  0
 11 10  2  0  0  0  0
 12  6  1  0  0  0  0
 13  7  1  0  0  0  0
 17 11  1  0  0  0  0
 18 19  1  0  0  0  0
 20 18  1  0  0  0  0
 21 18  1  0  0  0  0
M  END
