Coordinates from ORCA-job C6H6+AlCl4-+NH2--N2+-scan
 OpenBabel10221816113D

 22 19  0  0  0  0  0  0  0  0999 V2000
    6.8874   -0.4077   -5.6297 N   0  0  0  0  0  0  0  0  0  0  0  0
    7.9293   -0.7338   -5.7207 N   0  0  0  0  0  0  0  0  0  0  0  0
    2.5139    0.3762   -3.3880 N   0  0  0  0  0  0  0  0  0  0  0  0
    1.8949   -0.4324   -3.4930 H   0  0  0  0  0  0  0  0  0  0  0  0
    3.4334    0.0916   -3.7309 H   0  0  0  0  0  0  0  0  0  0  0  0
    1.3912   -1.3233   -6.4947 C   0  0  0  0  0  0  0  0  0  0  0  0
    0.1866   -0.8026   -6.0219 C   0  0  0  0  0  0  0  0  0  0  0  0
   -0.3788   -1.3058   -4.8501 C   0  0  0  0  0  0  0  0  0  0  0  0
    0.2623   -2.3291   -4.1489 C   0  0  0  0  0  0  0  0  0  0  0  0
    1.4682   -2.8513   -4.6231 C   0  0  0  0  0  0  0  0  0  0  0  0
    2.0316   -2.3481   -5.7967 C   0  0  0  0  0  0  0  0  0  0  0  0
    1.8289   -0.9331   -7.4070 H   0  0  0  0  0  0  0  0  0  0  0  0
   -0.3100   -0.0061   -6.5648 H   0  0  0  0  0  0  0  0  0  0  0  0
   -1.3168   -0.9030   -4.4839 H   0  0  0  0  0  0  0  0  0  0  0  0
   -0.1752   -2.7238   -3.2387 H   0  0  0  0  0  0  0  0  0  0  0  0
    1.9642   -3.6453   -4.0768 H   0  0  0  0  0  0  0  0  0  0  0  0
    2.9660   -2.7558   -6.1663 H   0  0  0  0  0  0  0  0  0  0  0  0
    3.9213   -1.4206   -0.7756 Al  0  0  0  0  0  0  0  0  0  0  0  0
    4.5215   -0.5954    1.0670 Cl  0  0  0  0  0  0  0  0  0  0  0  0
    5.3693   -1.6368   -2.3105 Cl  0  0  0  0  0  0  0  0  0  0  0  0
    2.4111   -2.8982   -0.7478 Cl  0  0  0  0  0  0  0  0  0  0  0  0
    2.7444    0.5439   -1.6314 Cl  0  0  0  0  0  0  0  0  0  0  0  0
  2  1  3  0  0  0  0
  3 22  1  0  0  0  0
  4  3  1  0  0  0  0
  5  3  1  0  0  0  0
  6  7  2  0  0  0  0
  6 11  1  0  0  0  0
  7  8  1  0  0  0  0
  8 14  1  0  0  0  0
  8  9  2  0  0  0  0
  9 15  1  0  0  0  0
 10  9  1  0  0  0  0
 10 16  1  0  0  0  0
 11 10  2  0  0  0  0
 12  6  1  0  0  0  0
 13  7  1  0  0  0  0
 17 11  1  0  0  0  0
 18 21  1  0  0  0  0
 18 19  1  0  0  0  0
 20 18  1  0  0  0  0
M  END
