Coordinates from ORCA-job C6H6+AlCl4-+NH2--N2+-scan
 OpenBabel10221816113D

 22 19  0  0  0  0  0  0  0  0999 V2000
    5.6409   -0.1899   -5.2516 N   0  0  0  0  0  0  0  0  0  0  0  0
    6.5344   -0.3613   -5.8613 N   0  0  0  0  0  0  0  0  0  0  0  0
    2.8314    0.3292   -3.4570 N   0  0  0  0  0  0  0  0  0  0  0  0
    2.1622   -0.4401   -3.5428 H   0  0  0  0  0  0  0  0  0  0  0  0
    3.7349   -0.0097   -3.7918 H   0  0  0  0  0  0  0  0  0  0  0  0
    1.5287   -1.4242   -6.5749 C   0  0  0  0  0  0  0  0  0  0  0  0
    0.3826   -0.7937   -6.0906 C   0  0  0  0  0  0  0  0  0  0  0  0
   -0.1789   -1.2010   -4.8804 C   0  0  0  0  0  0  0  0  0  0  0  0
    0.4077   -2.2380   -4.1522 C   0  0  0  0  0  0  0  0  0  0  0  0
    1.5558   -2.8691   -4.6373 C   0  0  0  0  0  0  0  0  0  0  0  0
    2.1148   -2.4621   -5.8494 C   0  0  0  0  0  0  0  0  0  0  0  0
    1.9623   -1.1093   -7.5178 H   0  0  0  0  0  0  0  0  0  0  0  0
   -0.0720    0.0130   -6.6548 H   0  0  0  0  0  0  0  0  0  0  0  0
   -1.0721   -0.7135   -4.5054 H   0  0  0  0  0  0  0  0  0  0  0  0
   -0.0266   -2.5589   -3.2120 H   0  0  0  0  0  0  0  0  0  0  0  0
    2.0093   -3.6740   -4.0701 H   0  0  0  0  0  0  0  0  0  0  0  0
    3.0028   -2.9562   -6.2284 H   0  0  0  0  0  0  0  0  0  0  0  0
    3.8953   -1.5025   -0.6730 Al  0  0  0  0  0  0  0  0  0  0  0  0
    4.4846   -0.6369    1.1560 Cl  0  0  0  0  0  0  0  0  0  0  0  0
    5.3954   -2.0354   -2.0711 Cl  0  0  0  0  0  0  0  0  0  0  0  0
    2.1919   -2.7541   -0.6603 Cl  0  0  0  0  0  0  0  0  0  0  0  0
    3.0593    0.5474   -1.7073 Cl  0  0  0  0  0  0  0  0  0  0  0  0
  2  1  3  0  0  0  0
  3 22  1  0  0  0  0
  4  3  1  0  0  0  0
  5  3  1  0  0  0  0
  6  7  2  0  0  0  0
  6 11  1  0  0  0  0
  7  8  1  0  0  0  0
  8 14  1  0  0  0  0
  8  9  2  0  0  0  0
  9 15  1  0  0  0  0
 10  9  1  0  0  0  0
 10 16  1  0  0  0  0
 11 10  2  0  0  0  0
 12  6  1  0  0  0  0
 13  7  1  0  0  0  0
 17 11  1  0  0  0  0
 18 21  1  0  0  0  0
 18 19  1  0  0  0  0
 20 18  1  0  0  0  0
M  END
