Coordinates from ORCA-job C6H6+AlCl4-+NH2--N2+-scan
 OpenBabel10221816113D

 22 19  0  0  0  0  0  0  0  0999 V2000
    6.7611   -0.3624   -5.6133 N   0  0  0  0  0  0  0  0  0  0  0  0
    7.8013   -0.6718   -5.7631 N   0  0  0  0  0  0  0  0  0  0  0  0
    2.5497    0.3655   -3.3926 N   0  0  0  0  0  0  0  0  0  0  0  0
    1.9218   -0.4364   -3.4959 H   0  0  0  0  0  0  0  0  0  0  0  0
    3.4674    0.0697   -3.7307 H   0  0  0  0  0  0  0  0  0  0  0  0
    1.4117   -1.3387   -6.5001 C   0  0  0  0  0  0  0  0  0  0  0  0
    0.2129   -0.8009   -6.0317 C   0  0  0  0  0  0  0  0  0  0  0  0
   -0.3590   -1.2895   -4.8569 C   0  0  0  0  0  0  0  0  0  0  0  0
    0.2698   -2.3155   -4.1483 C   0  0  0  0  0  0  0  0  0  0  0  0
    1.4699   -2.8548   -4.6181 C   0  0  0  0  0  0  0  0  0  0  0  0
    2.0398   -2.3660   -5.7947 C   0  0  0  0  0  0  0  0  0  0  0  0
    1.8545   -0.9597   -7.4146 H   0  0  0  0  0  0  0  0  0  0  0  0
   -0.2741   -0.0024   -6.5802 H   0  0  0  0  0  0  0  0  0  0  0  0
   -1.2925   -0.8735   -4.4941 H   0  0  0  0  0  0  0  0  0  0  0  0
   -0.1728   -2.6990   -3.2358 H   0  0  0  0  0  0  0  0  0  0  0  0
    1.9563   -3.6508   -4.0661 H   0  0  0  0  0  0  0  0  0  0  0  0
    2.9697   -2.7869   -6.1608 H   0  0  0  0  0  0  0  0  0  0  0  0
    3.9151   -1.4340   -0.7612 Al  0  0  0  0  0  0  0  0  0  0  0  0
    4.5176   -0.6061    1.0796 Cl  0  0  0  0  0  0  0  0  0  0  0  0
    5.3684   -1.6820   -2.2863 Cl  0  0  0  0  0  0  0  0  0  0  0  0
    2.3824   -2.8881   -0.7323 Cl  0  0  0  0  0  0  0  0  0  0  0  0
    2.7735    0.5426   -1.6365 Cl  0  0  0  0  0  0  0  0  0  0  0  0
  2  1  3  0  0  0  0
  3 22  1  0  0  0  0
  4  3  1  0  0  0  0
  5  3  1  0  0  0  0
  6  7  2  0  0  0  0
  6 11  1  0  0  0  0
  7  8  1  0  0  0  0
  8 14  1  0  0  0  0
  8  9  2  0  0  0  0
  9 15  1  0  0  0  0
 10  9  1  0  0  0  0
 10 16  1  0  0  0  0
 11 10  2  0  0  0  0
 12  6  1  0  0  0  0
 13  7  1  0  0  0  0
 17 11  1  0  0  0  0
 18 21  1  0  0  0  0
 18 19  1  0  0  0  0
 20 18  1  0  0  0  0
M  END
