Coordinates from ORCA-job C6H6+AlCl4-+NH2--N2+-scan
 OpenBabel10221816113D

 22 19  0  0  0  0  0  0  0  0999 V2000
    4.1745    0.2253   -5.3486 N   0  0  0  0  0  0  0  0  0  0  0  0
    4.4208    1.0391   -6.0437 N   0  0  0  0  0  0  0  0  0  0  0  0
    3.5677    0.1534   -3.4320 N   0  0  0  0  0  0  0  0  0  0  0  0
    2.7764   -0.4219   -3.7510 H   0  0  0  0  0  0  0  0  0  0  0  0
    4.3399   -0.5076   -3.2804 H   0  0  0  0  0  0  0  0  0  0  0  0
    1.6202   -1.8847   -6.8011 C   0  0  0  0  0  0  0  0  0  0  0  0
    0.7737   -0.8701   -6.3545 C   0  0  0  0  0  0  0  0  0  0  0  0
    0.3279   -0.8658   -5.0323 C   0  0  0  0  0  0  0  0  0  0  0  0
    0.7306   -1.8770   -4.1564 C   0  0  0  0  0  0  0  0  0  0  0  0
    1.5824   -2.8899   -4.6040 C   0  0  0  0  0  0  0  0  0  0  0  0
    2.0258   -2.8929   -5.9264 C   0  0  0  0  0  0  0  0  0  0  0  0
    1.9614   -1.8910   -7.8305 H   0  0  0  0  0  0  0  0  0  0  0  0
    0.4561   -0.0888   -7.0363 H   0  0  0  0  0  0  0  0  0  0  0  0
   -0.3410   -0.0847   -4.6876 H   0  0  0  0  0  0  0  0  0  0  0  0
    0.3721   -1.8893   -3.1331 H   0  0  0  0  0  0  0  0  0  0  0  0
    1.8893   -3.6746   -3.9218 H   0  0  0  0  0  0  0  0  0  0  0  0
    2.6819   -3.6826   -6.2755 H   0  0  0  0  0  0  0  0  0  0  0  0
    3.6913   -1.5802   -0.3847 Al  0  0  0  0  0  0  0  0  0  0  0  0
    4.0271   -0.7325    1.5137 Cl  0  0  0  0  0  0  0  0  0  0  0  0
    5.3912   -2.1373   -1.5454 Cl  0  0  0  0  0  0  0  0  0  0  0  0
    2.0309   -2.8769   -0.5849 Cl  0  0  0  0  0  0  0  0  0  0  0  0
    3.0441    0.3896   -1.6171 Cl  0  0  0  0  0  0  0  0  0  0  0  0
  2  1  3  0  0  0  0
  3  5  1  0  0  0  0
  3 22  1  0  0  0  0
  4  3  1  0  0  0  0
  6  7  2  0  0  0  0
  6 11  1  0  0  0  0
  7  8  1  0  0  0  0
  8 14  1  0  0  0  0
  8  9  2  0  0  0  0
  9 15  1  0  0  0  0
 10  9  1  0  0  0  0
 10 16  1  0  0  0  0
 11 10  2  0  0  0  0
 12  6  1  0  0  0  0
 13  7  1  0  0  0  0
 17 11  1  0  0  0  0
 18 19  1  0  0  0  0
 20 18  1  0  0  0  0
 21 18  1  0  0  0  0
M  END
