Coordinates from ORCA-job C6H6+AlCl4-+NH2--N2+-scan
 OpenBabel10221816123D

 22 19  0  0  0  0  0  0  0  0999 V2000
    6.5115   -2.6997   -6.6520 N   0  0  0  0  0  0  0  0  0  0  0  0
    7.5535   -3.0363   -6.6203 N   0  0  0  0  0  0  0  0  0  0  0  0
    1.6757    0.6469   -2.9483 N   0  0  0  0  0  0  0  0  0  0  0  0
    1.4232   -0.2981   -3.2519 H   0  0  0  0  0  0  0  0  0  0  0  0
    2.6315    0.8161   -3.2683 H   0  0  0  0  0  0  0  0  0  0  0  0
    1.6016   -0.9425   -6.3824 C   0  0  0  0  0  0  0  0  0  0  0  0
    0.2788   -0.8569   -5.9476 C   0  0  0  0  0  0  0  0  0  0  0  0
   -0.1639   -1.6630   -4.8979 C   0  0  0  0  0  0  0  0  0  0  0  0
    0.7195   -2.5503   -4.2793 C   0  0  0  0  0  0  0  0  0  0  0  0
    2.0441   -2.6348   -4.7153 C   0  0  0  0  0  0  0  0  0  0  0  0
    2.4845   -1.8324   -5.7683 C   0  0  0  0  0  0  0  0  0  0  0  0
    1.9432   -0.3200   -7.2022 H   0  0  0  0  0  0  0  0  0  0  0  0
   -0.4062   -0.1660   -6.4263 H   0  0  0  0  0  0  0  0  0  0  0  0
   -1.1940   -1.6015   -4.5640 H   0  0  0  0  0  0  0  0  0  0  0  0
    0.3785   -3.1806   -3.4654 H   0  0  0  0  0  0  0  0  0  0  0  0
    2.7279   -3.3235   -4.2328 H   0  0  0  0  0  0  0  0  0  0  0  0
    3.5102   -1.9064   -6.1133 H   0  0  0  0  0  0  0  0  0  0  0  0
    3.7789   -0.8575   -0.6301 Al  0  0  0  0  0  0  0  0  0  0  0  0
    4.0484   -0.1791    1.3454 Cl  0  0  0  0  0  0  0  0  0  0  0  0
    5.0983   -0.1535   -2.1353 Cl  0  0  0  0  0  0  0  0  0  0  0  0
    3.0649   -2.8270   -0.8983 Cl  0  0  0  0  0  0  0  0  0  0  0  0
    1.8345    0.5254   -1.1796 Cl  0  0  0  0  0  0  0  0  0  0  0  0
  1  2  3  0  0  0  0
  3 22  1  0  0  0  0
  4  3  1  0  0  0  0
  5  3  1  0  0  0  0
  6  7  2  0  0  0  0
  6 11  1  0  0  0  0
  7  8  1  0  0  0  0
  8 14  1  0  0  0  0
  8  9  2  0  0  0  0
  9 15  1  0  0  0  0
 10  9  1  0  0  0  0
 10 16  1  0  0  0  0
 11 10  2  0  0  0  0
 12  6  1  0  0  0  0
 13  7  1  0  0  0  0
 17 11  1  0  0  0  0
 18 19  1  0  0  0  0
 20 18  1  0  0  0  0
 21 18  1  0  0  0  0
M  END
