Coordinates from ORCA-job C6H6+AlCl4-+NH2--N2+-scan
 OpenBabel10221816113D

 22 19  0  0  0  0  0  0  0  0999 V2000
    4.3531    0.2127   -5.6521 N   0  0  0  0  0  0  0  0  0  0  0  0
    4.4482    0.9827   -6.4257 N   0  0  0  0  0  0  0  0  0  0  0  0
    3.5168    0.2035   -3.2723 N   0  0  0  0  0  0  0  0  0  0  0  0
    2.7635   -0.3822   -3.6470 H   0  0  0  0  0  0  0  0  0  0  0  0
    4.3581   -0.3765   -3.2436 H   0  0  0  0  0  0  0  0  0  0  0  0
    1.6007   -1.8681   -6.7993 C   0  0  0  0  0  0  0  0  0  0  0  0
    0.7435   -0.8688   -6.3394 C   0  0  0  0  0  0  0  0  0  0  0  0
    0.3117   -0.8773   -5.0129 C   0  0  0  0  0  0  0  0  0  0  0  0
    0.7391   -1.8859   -4.1462 C   0  0  0  0  0  0  0  0  0  0  0  0
    1.6017   -2.8835   -4.6070 C   0  0  0  0  0  0  0  0  0  0  0  0
    2.0311   -2.8738   -5.9338 C   0  0  0  0  0  0  0  0  0  0  0  0
    1.9317   -1.8641   -7.8321 H   0  0  0  0  0  0  0  0  0  0  0  0
    0.4081   -0.0886   -7.0138 H   0  0  0  0  0  0  0  0  0  0  0  0
   -0.3647   -0.1075   -4.6575 H   0  0  0  0  0  0  0  0  0  0  0  0
    0.3904   -1.9092   -3.1196 H   0  0  0  0  0  0  0  0  0  0  0  0
    1.9277   -3.6668   -3.9319 H   0  0  0  0  0  0  0  0  0  0  0  0
    2.6961   -3.6513   -6.2933 H   0  0  0  0  0  0  0  0  0  0  0  0
    3.6753   -1.6516   -0.3187 Al  0  0  0  0  0  0  0  0  0  0  0  0
    3.9124   -0.7878    1.5865 Cl  0  0  0  0  0  0  0  0  0  0  0  0
    5.4109   -2.1732   -1.4240 Cl  0  0  0  0  0  0  0  0  0  0  0  0
    2.0057   -2.9129   -0.6114 Cl  0  0  0  0  0  0  0  0  0  0  0  0
    3.0836    0.3895   -1.5386 Cl  0  0  0  0  0  0  0  0  0  0  0  0
  2  1  3  0  0  0  0
  3  5  1  0  0  0  0
  3 22  1  0  0  0  0
  4  3  1  0  0  0  0
  6  7  2  0  0  0  0
  6 11  1  0  0  0  0
  7  8  1  0  0  0  0
  8 14  1  0  0  0  0
  8  9  2  0  0  0  0
  9 15  1  0  0  0  0
 10  9  1  0  0  0  0
 10 16  1  0  0  0  0
 11 10  2  0  0  0  0
 12  6  1  0  0  0  0
 13  7  1  0  0  0  0
 17 11  1  0  0  0  0
 18 19  1  0  0  0  0
 20 18  1  0  0  0  0
 21 18  1  0  0  0  0
M  END
