Coordinates from ORCA-job C6H6+AlCl4-+NH2--N2+-scan
 OpenBabel10221816123D

 22 19  0  0  0  0  0  0  0  0999 V2000
    7.5549   -0.9556   -5.6395 N   0  0  0  0  0  0  0  0  0  0  0  0
    8.4840   -1.2263   -5.1259 N   0  0  0  0  0  0  0  0  0  0  0  0
    2.2958    0.4546   -3.3718 N   0  0  0  0  0  0  0  0  0  0  0  0
    1.7497   -0.4031   -3.4915 H   0  0  0  0  0  0  0  0  0  0  0  0
    3.2260    0.2649   -3.7500 H   0  0  0  0  0  0  0  0  0  0  0  0
    1.2304   -1.1927   -6.4801 C   0  0  0  0  0  0  0  0  0  0  0  0
   -0.0021   -0.8192   -5.9440 C   0  0  0  0  0  0  0  0  0  0  0  0
   -0.4774   -1.4403   -4.7888 C   0  0  0  0  0  0  0  0  0  0  0  0
    0.2818   -2.4341   -4.1675 C   0  0  0  0  0  0  0  0  0  0  0  0
    1.5155   -2.8090   -4.7052 C   0  0  0  0  0  0  0  0  0  0  0  0
    1.9888   -2.1880   -5.8621 C   0  0  0  0  0  0  0  0  0  0  0  0
    1.5981   -0.7111   -7.3796 H   0  0  0  0  0  0  0  0  0  0  0  0
   -0.5904   -0.0455   -6.4246 H   0  0  0  0  0  0  0  0  0  0  0  0
   -1.4368   -1.1521   -4.3735 H   0  0  0  0  0  0  0  0  0  0  0  0
   -0.0854   -2.9199   -3.2704 H   0  0  0  0  0  0  0  0  0  0  0  0
    2.1033   -3.5802   -4.2209 H   0  0  0  0  0  0  0  0  0  0  0  0
    2.9451   -2.4814   -6.2811 H   0  0  0  0  0  0  0  0  0  0  0  0
    3.9873   -1.2887   -0.9015 Al  0  0  0  0  0  0  0  0  0  0  0  0
    4.5899   -0.4809    0.9475 Cl  0  0  0  0  0  0  0  0  0  0  0  0
    5.3703   -1.2823   -2.5114 Cl  0  0  0  0  0  0  0  0  0  0  0  0
    2.6462   -2.9208   -0.8756 Cl  0  0  0  0  0  0  0  0  0  0  0  0
    2.5694    0.5712   -1.6160 Cl  0  0  0  0  0  0  0  0  0  0  0  0
  1  2  3  0  0  0  0
  3 22  1  0  0  0  0
  4  3  1  0  0  0  0
  5  3  1  0  0  0  0
  6  7  2  0  0  0  0
  6 11  1  0  0  0  0
  7  8  1  0  0  0  0
  8 14  1  0  0  0  0
  8  9  2  0  0  0  0
  9 15  1  0  0  0  0
 10 16  1  0  0  0  0
 10  9  1  0  0  0  0
 11 10  2  0  0  0  0
 12  6  1  0  0  0  0
 13  7  1  0  0  0  0
 17 11  1  0  0  0  0
 18 21  1  0  0  0  0
 18 19  1  0  0  0  0
 20 18  1  0  0  0  0
M  END
