Coordinates from ORCA-job C6H6+AlCl4-+NH2--N2+-scan
 OpenBabel10221816123D

 22 19  0  0  0  0  0  0  0  0999 V2000
    6.4922   -2.7019   -6.6260 N   0  0  0  0  0  0  0  0  0  0  0  0
    7.5323   -3.0431   -6.5842 N   0  0  0  0  0  0  0  0  0  0  0  0
    1.6771    0.6410   -2.9485 N   0  0  0  0  0  0  0  0  0  0  0  0
    1.4237   -0.3031   -3.2538 H   0  0  0  0  0  0  0  0  0  0  0  0
    2.6327    0.8103   -3.2690 H   0  0  0  0  0  0  0  0  0  0  0  0
    1.5993   -0.9380   -6.3834 C   0  0  0  0  0  0  0  0  0  0  0  0
    0.2760   -0.8556   -5.9495 C   0  0  0  0  0  0  0  0  0  0  0  0
   -0.1663   -1.6650   -4.9021 C   0  0  0  0  0  0  0  0  0  0  0  0
    0.7180   -2.5526   -4.2852 C   0  0  0  0  0  0  0  0  0  0  0  0
    2.0431   -2.6340   -4.7205 C   0  0  0  0  0  0  0  0  0  0  0  0
    2.4831   -1.8281   -5.7710 C   0  0  0  0  0  0  0  0  0  0  0  0
    1.9406   -0.3129   -7.2013 H   0  0  0  0  0  0  0  0  0  0  0  0
   -0.4097   -0.1645   -6.4269 H   0  0  0  0  0  0  0  0  0  0  0  0
   -1.1966   -1.6058   -4.5688 H   0  0  0  0  0  0  0  0  0  0  0  0
    0.3773   -3.1855   -3.4731 H   0  0  0  0  0  0  0  0  0  0  0  0
    2.7275   -3.3229   -4.2392 H   0  0  0  0  0  0  0  0  0  0  0  0
    3.5092   -1.8995   -6.1150 H   0  0  0  0  0  0  0  0  0  0  0  0
    3.7921   -0.8536   -0.6342 Al  0  0  0  0  0  0  0  0  0  0  0  0
    4.0539   -0.1815    1.3445 Cl  0  0  0  0  0  0  0  0  0  0  0  0
    5.1077   -0.1328   -2.1348 Cl  0  0  0  0  0  0  0  0  0  0  0  0
    3.0942   -2.8276   -0.9115 Cl  0  0  0  0  0  0  0  0  0  0  0  0
    1.8374    0.5161   -1.1802 Cl  0  0  0  0  0  0  0  0  0  0  0  0
  1  2  3  0  0  0  0
  3 22  1  0  0  0  0
  4  3  1  0  0  0  0
  5  3  1  0  0  0  0
  6  7  2  0  0  0  0
  6 11  1  0  0  0  0
  7  8  1  0  0  0  0
  8 14  1  0  0  0  0
  8  9  2  0  0  0  0
  9 15  1  0  0  0  0
 10  9  1  0  0  0  0
 10 16  1  0  0  0  0
 11 10  2  0  0  0  0
 12  6  1  0  0  0  0
 13  7  1  0  0  0  0
 17 11  1  0  0  0  0
 18 19  1  0  0  0  0
 20 18  1  0  0  0  0
 21 18  1  0  0  0  0
M  END
