Coordinates from ORCA-job C6H6+AlCl4-+NH2--N2+-scan
 OpenBabel10221816113D

 22 20  0  0  0  0  0  0  0  0999 V2000
    3.5780   -0.1999   -4.4255 N   0  0  0  0  0  0  0  0  0  0  0  0
    3.9227   -0.5443   -5.4125 N   0  0  0  0  0  0  0  0  0  0  0  0
    3.1519    0.5973   -3.1775 N   0  0  0  0  0  0  0  0  0  0  0  0
    2.5220   -0.0867   -2.7039 H   0  0  0  0  0  0  0  0  0  0  0  0
    4.0485    0.5866   -2.6125 H   0  0  0  0  0  0  0  0  0  0  0  0
    1.6984   -2.3930   -6.6696 C   0  0  0  0  0  0  0  0  0  0  0  0
    1.0992   -1.1511   -6.9003 C   0  0  0  0  0  0  0  0  0  0  0  0
    0.4468   -0.4889   -5.8618 C   0  0  0  0  0  0  0  0  0  0  0  0
    0.3958   -1.0679   -4.5911 C   0  0  0  0  0  0  0  0  0  0  0  0
    0.9930   -2.3107   -4.3610 C   0  0  0  0  0  0  0  0  0  0  0  0
    1.6430   -2.9732   -5.4021 C   0  0  0  0  0  0  0  0  0  0  0  0
    2.1993   -2.9104   -7.4805 H   0  0  0  0  0  0  0  0  0  0  0  0
    1.1337   -0.7086   -7.8899 H   0  0  0  0  0  0  0  0  0  0  0  0
   -0.0301    0.4685   -6.0414 H   0  0  0  0  0  0  0  0  0  0  0  0
   -0.1292   -0.5643   -3.7861 H   0  0  0  0  0  0  0  0  0  0  0  0
    0.9500   -2.7590   -3.3752 H   0  0  0  0  0  0  0  0  0  0  0  0
    2.1077   -3.9356   -5.2220 H   0  0  0  0  0  0  0  0  0  0  0  0
    4.3986   -1.8026   -0.7879 Al  0  0  0  0  0  0  0  0  0  0  0  0
    5.0348   -2.8076    0.9560 Cl  0  0  0  0  0  0  0  0  0  0  0  0
    5.3837    0.1626   -1.0489 Cl  0  0  0  0  0  0  0  0  0  0  0  0
    4.7442   -2.8385   -2.6572 Cl  0  0  0  0  0  0  0  0  0  0  0  0
    2.2526   -1.3133   -0.7826 Cl  0  0  0  0  0  0  0  0  0  0  0  0
  1  3  1  0  0  0  0
  2  1  1  0  0  0  0
  3  4  1  0  0  0  0
  3  5  1  0  0  0  0
  6 11  1  0  0  0  0
  7  6  2  0  0  0  0
  7  8  1  0  0  0  0
  8  9  2  0  0  0  0
  9 10  1  0  0  0  0
  9 15  1  0  0  0  0
 10 16  1  0  0  0  0
 11 17  1  0  0  0  0
 11 10  2  0  0  0  0
 12  6  1  0  0  0  0
 13  7  1  0  0  0  0
 14  8  1  0  0  0  0
 18 22  1  0  0  0  0
 18 19  1  0  0  0  0
 20 18  1  0  0  0  0
 21 18  1  0  0  0  0
M  RAD  2   1   2   2   3
M  END
