Coordinates from ORCA-job C6H6+AlCl4-+NH2--N2+-scan
 OpenBabel10221816113D

 22 19  0  0  0  0  0  0  0  0999 V2000
    5.2336   -0.0132   -5.6667 N   0  0  0  0  0  0  0  0  0  0  0  0
    5.5842    0.2715   -6.6644 N   0  0  0  0  0  0  0  0  0  0  0  0
    3.0833    0.2605   -3.3761 N   0  0  0  0  0  0  0  0  0  0  0  0
    2.3666   -0.4290   -3.6186 H   0  0  0  0  0  0  0  0  0  0  0  0
    3.9940   -0.1767   -3.5253 H   0  0  0  0  0  0  0  0  0  0  0  0
    1.6627   -1.5745   -6.5925 C   0  0  0  0  0  0  0  0  0  0  0  0
    0.5988   -0.7948   -6.1393 C   0  0  0  0  0  0  0  0  0  0  0  0
    0.0146   -1.0642   -4.9012 C   0  0  0  0  0  0  0  0  0  0  0  0
    0.4969   -2.1128   -4.1150 C   0  0  0  0  0  0  0  0  0  0  0  0
    1.5633   -2.8927   -4.5690 C   0  0  0  0  0  0  0  0  0  0  0  0
    2.1447   -2.6234   -5.8084 C   0  0  0  0  0  0  0  0  0  0  0  0
    2.1138   -1.3668   -7.5566 H   0  0  0  0  0  0  0  0  0  0  0  0
    0.2245    0.0197   -6.7494 H   0  0  0  0  0  0  0  0  0  0  0  0
   -0.8163   -0.4618   -4.5506 H   0  0  0  0  0  0  0  0  0  0  0  0
    0.0438   -2.3292   -3.1540 H   0  0  0  0  0  0  0  0  0  0  0  0
    1.9351   -3.7058   -3.9561 H   0  0  0  0  0  0  0  0  0  0  0  0
    2.9693   -3.2322   -6.1628 H   0  0  0  0  0  0  0  0  0  0  0  0
    3.7490   -1.5885   -0.4965 Al  0  0  0  0  0  0  0  0  0  0  0  0
    4.1621   -0.7200    1.3779 Cl  0  0  0  0  0  0  0  0  0  0  0  0
    5.3694   -2.0529   -1.7830 Cl  0  0  0  0  0  0  0  0  0  0  0  0
    2.0932   -2.8962   -0.6139 Cl  0  0  0  0  0  0  0  0  0  0  0  0
    2.9581    0.4424   -1.6120 Cl  0  0  0  0  0  0  0  0  0  0  0  0
  2  1  3  0  0  0  0
  3 22  1  0  0  0  0
  4  3  1  0  0  0  0
  5  3  1  0  0  0  0
  6  7  2  0  0  0  0
  6 11  1  0  0  0  0
  7  8  1  0  0  0  0
  8 14  1  0  0  0  0
  8  9  2  0  0  0  0
  9 15  1  0  0  0  0
 10  9  1  0  0  0  0
 10 16  1  0  0  0  0
 11 10  2  0  0  0  0
 12  6  1  0  0  0  0
 13  7  1  0  0  0  0
 17 11  1  0  0  0  0
 18 19  1  0  0  0  0
 20 18  1  0  0  0  0
 21 18  1  0  0  0  0
M  END
