Coordinates from ORCA-job C6H6+AlCl4-+NH2--N2+-scan
 OpenBabel10221816113D

 22 19  0  0  0  0  0  0  0  0999 V2000
    6.4393   -0.3232   -5.5360 N   0  0  0  0  0  0  0  0  0  0  0  0
    7.4591   -0.6004   -5.8244 N   0  0  0  0  0  0  0  0  0  0  0  0
    2.6293    0.3554   -3.4095 N   0  0  0  0  0  0  0  0  0  0  0  0
    1.9907   -0.4385   -3.5080 H   0  0  0  0  0  0  0  0  0  0  0  0
    3.5444    0.0458   -3.7424 H   0  0  0  0  0  0  0  0  0  0  0  0
    1.4463   -1.3576   -6.5200 C   0  0  0  0  0  0  0  0  0  0  0  0
    0.2600   -0.7977   -6.0456 C   0  0  0  0  0  0  0  0  0  0  0  0
   -0.3078   -1.2669   -4.8610 C   0  0  0  0  0  0  0  0  0  0  0  0
    0.3124   -2.2953   -4.1486 C   0  0  0  0  0  0  0  0  0  0  0  0
    1.5001   -2.8565   -4.6243 C   0  0  0  0  0  0  0  0  0  0  0  0
    2.0659   -2.3873   -5.8107 C   0  0  0  0  0  0  0  0  0  0  0  0
    1.8859   -0.9938   -7.4423 H   0  0  0  0  0  0  0  0  0  0  0  0
   -0.2204    0.0026   -6.5973 H   0  0  0  0  0  0  0  0  0  0  0  0
   -1.2317   -0.8338   -4.4935 H   0  0  0  0  0  0  0  0  0  0  0  0
   -0.1268   -2.6636   -3.2282 H   0  0  0  0  0  0  0  0  0  0  0  0
    1.9798   -3.6546   -4.0694 H   0  0  0  0  0  0  0  0  0  0  0  0
    2.9860   -2.8255   -6.1816 H   0  0  0  0  0  0  0  0  0  0  0  0
    3.9005   -1.4531   -0.7274 Al  0  0  0  0  0  0  0  0  0  0  0  0
    4.4897   -0.6139    1.1129 Cl  0  0  0  0  0  0  0  0  0  0  0  0
    5.3785   -1.7810   -2.2121 Cl  0  0  0  0  0  0  0  0  0  0  0  0
    2.3157   -2.8508   -0.7093 Cl  0  0  0  0  0  0  0  0  0  0  0  0
    2.8478    0.5490   -1.6550 Cl  0  0  0  0  0  0  0  0  0  0  0  0
  2  1  3  0  0  0  0
  3 22  1  0  0  0  0
  4  3  1  0  0  0  0
  5  3  1  0  0  0  0
  6  7  2  0  0  0  0
  6 11  1  0  0  0  0
  7  8  1  0  0  0  0
  8 14  1  0  0  0  0
  8  9  2  0  0  0  0
  9 15  1  0  0  0  0
 10  9  1  0  0  0  0
 10 16  1  0  0  0  0
 11 10  2  0  0  0  0
 12  6  1  0  0  0  0
 13  7  1  0  0  0  0
 17 11  1  0  0  0  0
 18 21  1  0  0  0  0
 18 19  1  0  0  0  0
 20 18  1  0  0  0  0
M  END
