Coordinates from ORCA-job C6H6+AlCl4-+NH2--N2+-scan
 OpenBabel10221816113D

 22 19  0  0  0  0  0  0  0  0999 V2000
    4.1622    0.2257   -5.3122 N   0  0  0  0  0  0  0  0  0  0  0  0
    4.4319    1.0316   -6.0090 N   0  0  0  0  0  0  0  0  0  0  0  0
    3.5607    0.1473   -3.4678 N   0  0  0  0  0  0  0  0  0  0  0  0
    2.7632   -0.4285   -3.7733 H   0  0  0  0  0  0  0  0  0  0  0  0
    4.3197   -0.5232   -3.2861 H   0  0  0  0  0  0  0  0  0  0  0  0
    1.6344   -1.8840   -6.7917 C   0  0  0  0  0  0  0  0  0  0  0  0
    0.7846   -0.8681   -6.3542 C   0  0  0  0  0  0  0  0  0  0  0  0
    0.3276   -0.8607   -5.0358 C   0  0  0  0  0  0  0  0  0  0  0  0
    0.7225   -1.8703   -4.1543 C   0  0  0  0  0  0  0  0  0  0  0  0
    1.5775   -2.8848   -4.5928 C   0  0  0  0  0  0  0  0  0  0  0  0
    2.0320   -2.8907   -5.9115 C   0  0  0  0  0  0  0  0  0  0  0  0
    1.9837   -1.8929   -7.8184 H   0  0  0  0  0  0  0  0  0  0  0  0
    0.4726   -0.0884   -7.0404 H   0  0  0  0  0  0  0  0  0  0  0  0
   -0.3437   -0.0785   -4.6981 H   0  0  0  0  0  0  0  0  0  0  0  0
    0.3563   -1.8799   -3.1336 H   0  0  0  0  0  0  0  0  0  0  0  0
    1.8785   -3.6679   -3.9061 H   0  0  0  0  0  0  0  0  0  0  0  0
    2.6904   -3.6817   -6.2535 H   0  0  0  0  0  0  0  0  0  0  0  0
    3.6923   -1.5700   -0.4044 Al  0  0  0  0  0  0  0  0  0  0  0  0
    4.0658   -0.7457    1.4979 Cl  0  0  0  0  0  0  0  0  0  0  0  0
    5.3799   -2.1173   -1.5950 Cl  0  0  0  0  0  0  0  0  0  0  0  0
    2.0471   -2.8923   -0.5770 Cl  0  0  0  0  0  0  0  0  0  0  0  0
    3.0052    0.3798   -1.6162 Cl  0  0  0  0  0  0  0  0  0  0  0  0
  2  1  3  0  0  0  0
  3  5  1  0  0  0  0
  3 22  1  0  0  0  0
  4  3  1  0  0  0  0
  6  7  2  0  0  0  0
  6 11  1  0  0  0  0
  7  8  1  0  0  0  0
  8 14  1  0  0  0  0
  8  9  2  0  0  0  0
  9 15  1  0  0  0  0
 10  9  1  0  0  0  0
 10 16  1  0  0  0  0
 11 10  2  0  0  0  0
 12  6  1  0  0  0  0
 13  7  1  0  0  0  0
 17 11  1  0  0  0  0
 18 19  1  0  0  0  0
 20 18  1  0  0  0  0
 21 18  1  0  0  0  0
M  END
