Coordinates from ORCA-job C6H6+AlCl4-+NH2--N2+-scan
 OpenBabel10221816113D

 22 19  0  0  0  0  0  0  0  0999 V2000
    4.6197    0.1999   -5.8277 N   0  0  0  0  0  0  0  0  0  0  0  0
    4.6751    0.8734   -6.6897 N   0  0  0  0  0  0  0  0  0  0  0  0
    3.3980    0.2128   -3.2717 N   0  0  0  0  0  0  0  0  0  0  0  0
    2.6634   -0.4014   -3.6364 H   0  0  0  0  0  0  0  0  0  0  0  0
    4.2725   -0.3145   -3.2914 H   0  0  0  0  0  0  0  0  0  0  0  0
    1.6470   -1.7981   -6.7271 C   0  0  0  0  0  0  0  0  0  0  0  0
    0.7333   -0.8446   -6.2787 C   0  0  0  0  0  0  0  0  0  0  0  0
    0.2426   -0.9088   -4.9744 C   0  0  0  0  0  0  0  0  0  0  0  0
    0.6678   -1.9270   -4.1179 C   0  0  0  0  0  0  0  0  0  0  0  0
    1.5860   -2.8793   -4.5669 C   0  0  0  0  0  0  0  0  0  0  0  0
    2.0742   -2.8141   -5.8719 C   0  0  0  0  0  0  0  0  0  0  0  0
    2.0242   -1.7506   -7.7428 H   0  0  0  0  0  0  0  0  0  0  0  0
    0.4008   -0.0562   -6.9449 H   0  0  0  0  0  0  0  0  0  0  0  0
   -0.4755   -0.1735   -4.6280 H   0  0  0  0  0  0  0  0  0  0  0  0
    0.2778   -1.9906   -3.1081 H   0  0  0  0  0  0  0  0  0  0  0  0
    1.9114   -3.6694   -3.8997 H   0  0  0  0  0  0  0  0  0  0  0  0
    2.7831   -3.5563   -6.2222 H   0  0  0  0  0  0  0  0  0  0  0  0
    3.6744   -1.6762   -0.3483 Al  0  0  0  0  0  0  0  0  0  0  0  0
    3.9351   -0.8160    1.5559 Cl  0  0  0  0  0  0  0  0  0  0  0  0
    5.3938   -2.1599   -1.4930 Cl  0  0  0  0  0  0  0  0  0  0  0  0
    2.0175   -2.9599   -0.6127 Cl  0  0  0  0  0  0  0  0  0  0  0  0
    3.0224    0.3696   -1.5359 Cl  0  0  0  0  0  0  0  0  0  0  0  0
  2  1  3  0  0  0  0
  3 22  1  0  0  0  0
  4  3  1  0  0  0  0
  5  3  1  0  0  0  0
  6  7  2  0  0  0  0
  6 11  1  0  0  0  0
  7  8  1  0  0  0  0
  8 14  1  0  0  0  0
  8  9  2  0  0  0  0
  9 15  1  0  0  0  0
 10  9  1  0  0  0  0
 10 16  1  0  0  0  0
 11 10  2  0  0  0  0
 12  6  1  0  0  0  0
 13  7  1  0  0  0  0
 17 11  1  0  0  0  0
 18 19  1  0  0  0  0
 20 18  1  0  0  0  0
 21 18  1  0  0  0  0
M  END
