Coordinates from ORCA-job C6H6+AlCl4-+NH2--N2+-scan
 OpenBabel10221816113D

 22 19  0  0  0  0  0  0  0  0999 V2000
    5.3543   -0.0204   -5.7297 N   0  0  0  0  0  0  0  0  0  0  0  0
    5.7458    0.2194   -6.7241 N   0  0  0  0  0  0  0  0  0  0  0  0
    3.0370    0.2706   -3.3646 N   0  0  0  0  0  0  0  0  0  0  0  0
    2.3287   -0.4274   -3.6068 H   0  0  0  0  0  0  0  0  0  0  0  0
    3.9530   -0.1516   -3.5257 H   0  0  0  0  0  0  0  0  0  0  0  0
    1.6554   -1.5569   -6.5772 C   0  0  0  0  0  0  0  0  0  0  0  0
    0.5781   -0.7946   -6.1258 C   0  0  0  0  0  0  0  0  0  0  0  0
   -0.0095   -1.0791   -4.8927 C   0  0  0  0  0  0  0  0  0  0  0  0
    0.4828   -2.1254   -4.1096 C   0  0  0  0  0  0  0  0  0  0  0  0
    1.5624   -2.8880   -4.5619 C   0  0  0  0  0  0  0  0  0  0  0  0
    2.1473   -2.6036   -5.7963 C   0  0  0  0  0  0  0  0  0  0  0  0
    2.1093   -1.3372   -7.5373 H   0  0  0  0  0  0  0  0  0  0  0  0
    0.1963    0.0183   -6.7334 H   0  0  0  0  0  0  0  0  0  0  0  0
   -0.8502   -0.4899   -4.5432 H   0  0  0  0  0  0  0  0  0  0  0  0
    0.0276   -2.3528   -3.1522 H   0  0  0  0  0  0  0  0  0  0  0  0
    1.9420   -3.6993   -3.9512 H   0  0  0  0  0  0  0  0  0  0  0  0
    2.9822   -3.1988   -6.1493 H   0  0  0  0  0  0  0  0  0  0  0  0
    3.7466   -1.5906   -0.5034 Al  0  0  0  0  0  0  0  0  0  0  0  0
    4.1681   -0.7290    1.3724 Cl  0  0  0  0  0  0  0  0  0  0  0  0
    5.3592   -2.0304   -1.8079 Cl  0  0  0  0  0  0  0  0  0  0  0  0
    2.1025   -2.9135   -0.6142 Cl  0  0  0  0  0  0  0  0  0  0  0  0
    2.9257    0.4398   -1.5994 Cl  0  0  0  0  0  0  0  0  0  0  0  0
  2  1  3  0  0  0  0
  3 22  1  0  0  0  0
  4  3  1  0  0  0  0
  5  3  1  0  0  0  0
  6  7  2  0  0  0  0
  6 11  1  0  0  0  0
  7  8  1  0  0  0  0
  8 14  1  0  0  0  0
  8  9  2  0  0  0  0
  9 15  1  0  0  0  0
 10  9  1  0  0  0  0
 10 16  1  0  0  0  0
 11 10  2  0  0  0  0
 12  6  1  0  0  0  0
 13  7  1  0  0  0  0
 17 11  1  0  0  0  0
 18 19  1  0  0  0  0
 20 18  1  0  0  0  0
 21 18  1  0  0  0  0
M  END
