Coordinates from ORCA-job C6H6+AlCl4-+NH2--N2+-scan
 OpenBabel10221816113D

 22 19  0  0  0  0  0  0  0  0999 V2000
    4.2981    0.2138   -5.6130 N   0  0  0  0  0  0  0  0  0  0  0  0
    4.4246    0.9990   -6.3668 N   0  0  0  0  0  0  0  0  0  0  0  0
    3.5417    0.1979   -3.2802 N   0  0  0  0  0  0  0  0  0  0  0  0
    2.7827   -0.3824   -3.6518 H   0  0  0  0  0  0  0  0  0  0  0  0
    4.3740   -0.3951   -3.2389 H   0  0  0  0  0  0  0  0  0  0  0  0
    1.5955   -1.8742   -6.8097 C   0  0  0  0  0  0  0  0  0  0  0  0
    0.7447   -0.8709   -6.3468 C   0  0  0  0  0  0  0  0  0  0  0  0
    0.3181   -0.8769   -5.0186 C   0  0  0  0  0  0  0  0  0  0  0  0
    0.7443   -1.8871   -4.1532 C   0  0  0  0  0  0  0  0  0  0  0  0
    1.6007   -2.8885   -4.6168 C   0  0  0  0  0  0  0  0  0  0  0  0
    2.0250   -2.8813   -5.9453 C   0  0  0  0  0  0  0  0  0  0  0  0
    1.9224   -1.8723   -7.8438 H   0  0  0  0  0  0  0  0  0  0  0  0
    0.4099   -0.0896   -7.0203 H   0  0  0  0  0  0  0  0  0  0  0  0
   -0.3541   -0.1044   -4.6612 H   0  0  0  0  0  0  0  0  0  0  0  0
    0.3986   -1.9095   -3.1256 H   0  0  0  0  0  0  0  0  0  0  0  0
    1.9257   -3.6731   -3.9427 H   0  0  0  0  0  0  0  0  0  0  0  0
    2.6851   -3.6619   -6.3071 H   0  0  0  0  0  0  0  0  0  0  0  0
    3.6773   -1.6396   -0.3145 Al  0  0  0  0  0  0  0  0  0  0  0  0
    3.9181   -0.7721    1.5885 Cl  0  0  0  0  0  0  0  0  0  0  0  0
    5.4117   -2.1773   -1.4150 Cl  0  0  0  0  0  0  0  0  0  0  0  0
    2.0007   -2.8920   -0.6056 Cl  0  0  0  0  0  0  0  0  0  0  0  0
    3.1001    0.3973   -1.5449 Cl  0  0  0  0  0  0  0  0  0  0  0  0
  2  1  3  0  0  0  0
  3  5  1  0  0  0  0
  3 22  1  0  0  0  0
  4  3  1  0  0  0  0
  6  7  2  0  0  0  0
  6 11  1  0  0  0  0
  7  8  1  0  0  0  0
  8 14  1  0  0  0  0
  8  9  2  0  0  0  0
  9 15  1  0  0  0  0
 10  9  1  0  0  0  0
 10 16  1  0  0  0  0
 11 10  2  0  0  0  0
 12  6  1  0  0  0  0
 13  7  1  0  0  0  0
 17 11  1  0  0  0  0
 18 19  1  0  0  0  0
 20 18  1  0  0  0  0
 21 18  1  0  0  0  0
M  END
