Coordinates from ORCA-job C6H6+AlCl4-+NH2--N2+-scan
 OpenBabel10221816123D

 22 19  0  0  0  0  0  0  0  0999 V2000
    7.1039   -0.5467   -5.6439 N   0  0  0  0  0  0  0  0  0  0  0  0
    8.1038   -0.9109   -5.3837 N   0  0  0  0  0  0  0  0  0  0  0  0
    2.4503    0.3937   -3.4099 N   0  0  0  0  0  0  0  0  0  0  0  0
    1.8489   -0.4284   -3.5129 H   0  0  0  0  0  0  0  0  0  0  0  0
    3.3716    0.1310   -3.7653 H   0  0  0  0  0  0  0  0  0  0  0  0
    1.3369   -1.2738   -6.4770 C   0  0  0  0  0  0  0  0  0  0  0  0
    0.1225   -0.7973   -5.9827 C   0  0  0  0  0  0  0  0  0  0  0  0
   -0.4232   -1.3489   -4.8233 C   0  0  0  0  0  0  0  0  0  0  0  0
    0.2471   -2.3762   -4.1562 C   0  0  0  0  0  0  0  0  0  0  0  0
    1.4625   -2.8542   -4.6520 C   0  0  0  0  0  0  0  0  0  0  0  0
    2.0064   -2.3028   -5.8131 C   0  0  0  0  0  0  0  0  0  0  0  0
    1.7595   -0.8460   -7.3795 H   0  0  0  0  0  0  0  0  0  0  0  0
   -0.3965    0.0026   -6.4988 H   0  0  0  0  0  0  0  0  0  0  0  0
   -1.3686   -0.9804   -4.4404 H   0  0  0  0  0  0  0  0  0  0  0  0
   -0.1751   -2.8079   -3.2556 H   0  0  0  0  0  0  0  0  0  0  0  0
    1.9815   -3.6512   -4.1320 H   0  0  0  0  0  0  0  0  0  0  0  0
    2.9483   -2.6761   -6.1996 H   0  0  0  0  0  0  0  0  0  0  0  0
    3.9711   -1.3685   -0.8413 Al  0  0  0  0  0  0  0  0  0  0  0  0
    4.5647   -0.5422    1.0027 Cl  0  0  0  0  0  0  0  0  0  0  0  0
    5.4018   -1.4979   -2.4028 Cl  0  0  0  0  0  0  0  0  0  0  0  0
    2.5294   -2.9124   -0.8117 Cl  0  0  0  0  0  0  0  0  0  0  0  0
    2.6979    0.5537   -1.6544 Cl  0  0  0  0  0  0  0  0  0  0  0  0
  1  2  3  0  0  0  0
  3 22  1  0  0  0  0
  4  3  1  0  0  0  0
  5  3  1  0  0  0  0
  6  7  2  0  0  0  0
  6 11  1  0  0  0  0
  7  8  1  0  0  0  0
  8 14  1  0  0  0  0
  8  9  2  0  0  0  0
  9 15  1  0  0  0  0
 10  9  1  0  0  0  0
 10 16  1  0  0  0  0
 11 10  2  0  0  0  0
 12  6  1  0  0  0  0
 13  7  1  0  0  0  0
 17 11  1  0  0  0  0
 18 21  1  0  0  0  0
 18 19  1  0  0  0  0
 20 18  1  0  0  0  0
M  END
