Coordinates from ORCA-job C6H6+AlCl4-+NH2--N2+-scan
 OpenBabel10221816123D

 22 19  0  0  0  0  0  0  0  0999 V2000
    7.5463   -0.9529   -5.6385 N   0  0  0  0  0  0  0  0  0  0  0  0
    8.4763   -1.2248   -5.1270 N   0  0  0  0  0  0  0  0  0  0  0  0
    2.2972    0.4542   -3.3720 N   0  0  0  0  0  0  0  0  0  0  0  0
    1.7507   -0.4033   -3.4916 H   0  0  0  0  0  0  0  0  0  0  0  0
    3.2274    0.2640   -3.7499 H   0  0  0  0  0  0  0  0  0  0  0  0
    1.2319   -1.1932   -6.4802 C   0  0  0  0  0  0  0  0  0  0  0  0
   -0.0006   -0.8190   -5.9445 C   0  0  0  0  0  0  0  0  0  0  0  0
   -0.4765   -1.4396   -4.7893 C   0  0  0  0  0  0  0  0  0  0  0  0
    0.2820   -2.4337   -4.1676 C   0  0  0  0  0  0  0  0  0  0  0  0
    1.5157   -2.8092   -4.7049 C   0  0  0  0  0  0  0  0  0  0  0  0
    1.9897   -2.1888   -5.8618 C   0  0  0  0  0  0  0  0  0  0  0  0
    1.6001   -0.7120   -7.3796 H   0  0  0  0  0  0  0  0  0  0  0  0
   -0.5883   -0.0452   -6.4255 H   0  0  0  0  0  0  0  0  0  0  0  0
   -1.4359   -1.1509   -4.3744 H   0  0  0  0  0  0  0  0  0  0  0  0
   -0.0857   -2.9192   -3.2705 H   0  0  0  0  0  0  0  0  0  0  0  0
    2.1030   -3.5807   -4.2203 H   0  0  0  0  0  0  0  0  0  0  0  0
    2.9460   -2.4826   -6.2803 H   0  0  0  0  0  0  0  0  0  0  0  0
    3.9876   -1.2892   -0.9011 Al  0  0  0  0  0  0  0  0  0  0  0  0
    4.5908   -0.4813    0.9477 Cl  0  0  0  0  0  0  0  0  0  0  0  0
    5.3703   -1.2833   -2.5114 Cl  0  0  0  0  0  0  0  0  0  0  0  0
    2.6462   -2.9209   -0.8747 Cl  0  0  0  0  0  0  0  0  0  0  0  0
    2.5703    0.5710   -1.6161 Cl  0  0  0  0  0  0  0  0  0  0  0  0
  1  2  3  0  0  0  0
  3 22  1  0  0  0  0
  4  3  1  0  0  0  0
  5  3  1  0  0  0  0
  6  7  2  0  0  0  0
  6 11  1  0  0  0  0
  7  8  1  0  0  0  0
  8 14  1  0  0  0  0
  8  9  2  0  0  0  0
  9 15  1  0  0  0  0
 10 16  1  0  0  0  0
 10  9  1  0  0  0  0
 11 10  2  0  0  0  0
 12  6  1  0  0  0  0
 13  7  1  0  0  0  0
 17 11  1  0  0  0  0
 18 21  1  0  0  0  0
 18 19  1  0  0  0  0
 20 18  1  0  0  0  0
M  END
