Coordinates from ORCA-job C6H6+AlCl4-+NH2--N2+-scan
 OpenBabel10221816113D

 22 19  0  0  0  0  0  0  0  0999 V2000
    7.0369   -0.4699   -5.6305 N   0  0  0  0  0  0  0  0  0  0  0  0
    8.0766   -0.8146   -5.6516 N   0  0  0  0  0  0  0  0  0  0  0  0
    2.4742    0.3879   -3.3856 N   0  0  0  0  0  0  0  0  0  0  0  0
    1.8663   -0.4291   -3.4918 H   0  0  0  0  0  0  0  0  0  0  0  0
    3.3957    0.1178   -3.7346 H   0  0  0  0  0  0  0  0  0  0  0  0
    1.3610   -1.3036   -6.4912 C   0  0  0  0  0  0  0  0  0  0  0  0
    0.1510   -0.8047   -6.0085 C   0  0  0  0  0  0  0  0  0  0  0  0
   -0.4018   -1.3267   -4.8389 C   0  0  0  0  0  0  0  0  0  0  0  0
    0.2572   -2.3468   -4.1498 C   0  0  0  0  0  0  0  0  0  0  0  0
    1.4685   -2.8471   -4.6338 C   0  0  0  0  0  0  0  0  0  0  0  0
    2.0193   -2.3252   -5.8052 C   0  0  0  0  0  0  0  0  0  0  0  0
    1.7889   -0.8989   -7.4018 H   0  0  0  0  0  0  0  0  0  0  0  0
   -0.3596   -0.0108   -6.5420 H   0  0  0  0  0  0  0  0  0  0  0  0
   -1.3439   -0.9410   -4.4651 H   0  0  0  0  0  0  0  0  0  0  0  0
   -0.1704   -2.7559   -3.2412 H   0  0  0  0  0  0  0  0  0  0  0  0
    1.9785   -3.6386   -4.0968 H   0  0  0  0  0  0  0  0  0  0  0  0
    2.9579   -2.7159   -6.1825 H   0  0  0  0  0  0  0  0  0  0  0  0
    3.9300   -1.4011   -0.7948 Al  0  0  0  0  0  0  0  0  0  0  0  0
    4.5270   -0.5777    1.0496 Cl  0  0  0  0  0  0  0  0  0  0  0  0
    5.3718   -1.5807   -2.3403 Cl  0  0  0  0  0  0  0  0  0  0  0  0
    2.4471   -2.9060   -0.7681 Cl  0  0  0  0  0  0  0  0  0  0  0  0
    2.7126    0.5477   -1.6290 Cl  0  0  0  0  0  0  0  0  0  0  0  0
  2  1  3  0  0  0  0
  3 22  1  0  0  0  0
  4  3  1  0  0  0  0
  5  3  1  0  0  0  0
  6  7  2  0  0  0  0
  6 11  1  0  0  0  0
  7  8  1  0  0  0  0
  8 14  1  0  0  0  0
  8  9  2  0  0  0  0
  9 15  1  0  0  0  0
 10  9  1  0  0  0  0
 10 16  1  0  0  0  0
 11 10  2  0  0  0  0
 12  6  1  0  0  0  0
 13  7  1  0  0  0  0
 17 11  1  0  0  0  0
 18 21  1  0  0  0  0
 18 19  1  0  0  0  0
 20 18  1  0  0  0  0
M  END
