Coordinates from ORCA-job C6H6+AlCl4-+NH2--N2+-scan
 OpenBabel10221816113D

 22 19  0  0  0  0  0  0  0  0999 V2000
    6.8705   -0.3998   -5.6305 N   0  0  0  0  0  0  0  0  0  0  0  0
    7.9126   -0.7232   -5.7292 N   0  0  0  0  0  0  0  0  0  0  0  0
    2.5186    0.3744   -3.3879 N   0  0  0  0  0  0  0  0  0  0  0  0
    1.8981   -0.4331   -3.4929 H   0  0  0  0  0  0  0  0  0  0  0  0
    3.4378    0.0879   -3.7300 H   0  0  0  0  0  0  0  0  0  0  0  0
    1.3950   -1.3259   -6.4950 C   0  0  0  0  0  0  0  0  0  0  0  0
    0.1910   -0.8022   -6.0237 C   0  0  0  0  0  0  0  0  0  0  0  0
   -0.3762   -1.3030   -4.8517 C   0  0  0  0  0  0  0  0  0  0  0  0
    0.2623   -2.3268   -4.1490 C   0  0  0  0  0  0  0  0  0  0  0  0
    1.4675   -2.8520   -4.6217 C   0  0  0  0  0  0  0  0  0  0  0  0
    2.0327   -2.3512   -5.7954 C   0  0  0  0  0  0  0  0  0  0  0  0
    1.8341   -0.9376   -7.4074 H   0  0  0  0  0  0  0  0  0  0  0  0
   -0.3036   -0.0054   -6.5678 H   0  0  0  0  0  0  0  0  0  0  0  0
   -1.3136   -0.8979   -4.4867 H   0  0  0  0  0  0  0  0  0  0  0  0
   -0.1766   -2.7196   -3.2386 H   0  0  0  0  0  0  0  0  0  0  0  0
    1.9615   -3.6464   -4.0741 H   0  0  0  0  0  0  0  0  0  0  0  0
    2.9667   -2.7612   -6.1638 H   0  0  0  0  0  0  0  0  0  0  0  0
    3.9206   -1.4228   -0.7733 Al  0  0  0  0  0  0  0  0  0  0  0  0
    4.5211   -0.5977    1.0692 Cl  0  0  0  0  0  0  0  0  0  0  0  0
    5.3691   -1.6423   -2.3072 Cl  0  0  0  0  0  0  0  0  0  0  0  0
    2.4078   -2.8977   -0.7456 Cl  0  0  0  0  0  0  0  0  0  0  0  0
    2.7477    0.5431   -1.6313 Cl  0  0  0  0  0  0  0  0  0  0  0  0
  2  1  3  0  0  0  0
  3 22  1  0  0  0  0
  4  3  1  0  0  0  0
  5  3  1  0  0  0  0
  6  7  2  0  0  0  0
  6 11  1  0  0  0  0
  7  8  1  0  0  0  0
  8 14  1  0  0  0  0
  8  9  2  0  0  0  0
  9 15  1  0  0  0  0
 10  9  1  0  0  0  0
 10 16  1  0  0  0  0
 11 10  2  0  0  0  0
 12  6  1  0  0  0  0
 13  7  1  0  0  0  0
 17 11  1  0  0  0  0
 18 21  1  0  0  0  0
 18 19  1  0  0  0  0
 20 18  1  0  0  0  0
M  END
