Coordinates from ORCA-job C6H6+AlCl4-+NH2--N2+-scan
 OpenBabel10221816113D

 22 19  0  0  0  0  0  0  0  0999 V2000
    6.4484   -0.3226   -5.5375 N   0  0  0  0  0  0  0  0  0  0  0  0
    7.4690   -0.6003   -5.8225 N   0  0  0  0  0  0  0  0  0  0  0  0
    2.6277    0.3554   -3.4093 N   0  0  0  0  0  0  0  0  0  0  0  0
    1.9891   -0.4386   -3.5078 H   0  0  0  0  0  0  0  0  0  0  0  0
    3.5427    0.0459   -3.7424 H   0  0  0  0  0  0  0  0  0  0  0  0
    1.4452   -1.3575   -6.5195 C   0  0  0  0  0  0  0  0  0  0  0  0
    0.2588   -0.7979   -6.0454 C   0  0  0  0  0  0  0  0  0  0  0  0
   -0.3093   -1.2672   -4.8609 C   0  0  0  0  0  0  0  0  0  0  0  0
    0.3110   -2.2956   -4.1484 C   0  0  0  0  0  0  0  0  0  0  0  0
    1.4988   -2.8566   -4.6240 C   0  0  0  0  0  0  0  0  0  0  0  0
    2.0648   -2.3872   -5.8102 C   0  0  0  0  0  0  0  0  0  0  0  0
    1.8850   -0.9936   -7.4417 H   0  0  0  0  0  0  0  0  0  0  0  0
   -0.2217    0.0024   -6.5970 H   0  0  0  0  0  0  0  0  0  0  0  0
   -1.2332   -0.8343   -4.4936 H   0  0  0  0  0  0  0  0  0  0  0  0
   -0.1284   -2.6641   -3.2282 H   0  0  0  0  0  0  0  0  0  0  0  0
    1.9785   -3.6547   -4.0690 H   0  0  0  0  0  0  0  0  0  0  0  0
    2.9850   -2.8252   -6.1809 H   0  0  0  0  0  0  0  0  0  0  0  0
    3.9009   -1.4528   -0.7284 Al  0  0  0  0  0  0  0  0  0  0  0  0
    4.4908   -0.6139    1.1118 Cl  0  0  0  0  0  0  0  0  0  0  0  0
    5.3781   -1.7793   -2.2142 Cl  0  0  0  0  0  0  0  0  0  0  0  0
    2.3171   -2.8516   -0.7097 Cl  0  0  0  0  0  0  0  0  0  0  0  0
    2.8463    0.5488   -1.6548 Cl  0  0  0  0  0  0  0  0  0  0  0  0
  2  1  3  0  0  0  0
  3 22  1  0  0  0  0
  4  3  1  0  0  0  0
  5  3  1  0  0  0  0
  6  7  2  0  0  0  0
  6 11  1  0  0  0  0
  7  8  1  0  0  0  0
  8 14  1  0  0  0  0
  8  9  2  0  0  0  0
  9 15  1  0  0  0  0
 10  9  1  0  0  0  0
 10 16  1  0  0  0  0
 11 10  2  0  0  0  0
 12  6  1  0  0  0  0
 13  7  1  0  0  0  0
 17 11  1  0  0  0  0
 18 21  1  0  0  0  0
 18 19  1  0  0  0  0
 20 18  1  0  0  0  0
M  END
