Coordinates from ORCA-job C6H6+AlCl4-+NH2--N2+-scan
 OpenBabel10221816113D

 22 19  0  0  0  0  0  0  0  0999 V2000
    4.3596    0.2110   -5.6730 N   0  0  0  0  0  0  0  0  0  0  0  0
    4.4540    0.9759   -6.4517 N   0  0  0  0  0  0  0  0  0  0  0  0
    3.5133    0.2055   -3.2648 N   0  0  0  0  0  0  0  0  0  0  0  0
    2.7615   -0.3806   -3.6417 H   0  0  0  0  0  0  0  0  0  0  0  0
    4.3568   -0.3715   -3.2416 H   0  0  0  0  0  0  0  0  0  0  0  0
    1.6018   -1.8653   -6.7979 C   0  0  0  0  0  0  0  0  0  0  0  0
    0.7431   -0.8677   -6.3374 C   0  0  0  0  0  0  0  0  0  0  0  0
    0.3104   -0.8780   -5.0112 C   0  0  0  0  0  0  0  0  0  0  0  0
    0.7384   -1.8871   -4.1452 C   0  0  0  0  0  0  0  0  0  0  0  0
    1.6027   -2.8830   -4.6066 C   0  0  0  0  0  0  0  0  0  0  0  0
    2.0329   -2.8713   -5.9331 C   0  0  0  0  0  0  0  0  0  0  0  0
    1.9334   -1.8598   -7.8305 H   0  0  0  0  0  0  0  0  0  0  0  0
    0.4071   -0.0872   -7.0112 H   0  0  0  0  0  0  0  0  0  0  0  0
   -0.3673   -0.1093   -4.6556 H   0  0  0  0  0  0  0  0  0  0  0  0
    0.3889   -1.9120   -3.1189 H   0  0  0  0  0  0  0  0  0  0  0  0
    1.9293   -3.6666   -3.9322 H   0  0  0  0  0  0  0  0  0  0  0  0
    2.6992   -3.6476   -6.2931 H   0  0  0  0  0  0  0  0  0  0  0  0
    3.6738   -1.6541   -0.3153 Al  0  0  0  0  0  0  0  0  0  0  0  0
    3.9091   -0.7920    1.5910 Cl  0  0  0  0  0  0  0  0  0  0  0  0
    5.4102   -2.1732   -1.4203 Cl  0  0  0  0  0  0  0  0  0  0  0  0
    2.0049   -2.9156   -0.6109 Cl  0  0  0  0  0  0  0  0  0  0  0  0
    3.0816    0.3891   -1.5325 Cl  0  0  0  0  0  0  0  0  0  0  0  0
  2  1  3  0  0  0  0
  3  5  1  0  0  0  0
  3 22  1  0  0  0  0
  4  3  1  0  0  0  0
  6  7  2  0  0  0  0
  6 11  1  0  0  0  0
  7  8  1  0  0  0  0
  8 14  1  0  0  0  0
  8  9  2  0  0  0  0
  9 15  1  0  0  0  0
 10  9  1  0  0  0  0
 10 16  1  0  0  0  0
 11 10  2  0  0  0  0
 12  6  1  0  0  0  0
 13  7  1  0  0  0  0
 17 11  1  0  0  0  0
 18 19  1  0  0  0  0
 20 18  1  0  0  0  0
 21 18  1  0  0  0  0
M  END
