Coordinates from ORCA-job C6H6+AlCl4-+NH2--N2+-scan
 OpenBabel10221816113D

 22 19  0  0  0  0  0  0  0  0999 V2000
    5.3473   -0.0198   -5.7261 N   0  0  0  0  0  0  0  0  0  0  0  0
    5.7365    0.2232   -6.7206 N   0  0  0  0  0  0  0  0  0  0  0  0
    3.0399    0.2698   -3.3652 N   0  0  0  0  0  0  0  0  0  0  0  0
    2.3310   -0.4276   -3.6075 H   0  0  0  0  0  0  0  0  0  0  0  0
    3.9556   -0.1532   -3.5257 H   0  0  0  0  0  0  0  0  0  0  0  0
    1.6557   -1.5581   -6.5782 C   0  0  0  0  0  0  0  0  0  0  0  0
    0.5793   -0.7946   -6.1267 C   0  0  0  0  0  0  0  0  0  0  0  0
   -0.0080   -1.0781   -4.8932 C   0  0  0  0  0  0  0  0  0  0  0  0
    0.4836   -2.1246   -4.1099 C   0  0  0  0  0  0  0  0  0  0  0  0
    1.5624   -2.8884   -4.5623 C   0  0  0  0  0  0  0  0  0  0  0  0
    2.1469   -2.6049   -5.7971 C   0  0  0  0  0  0  0  0  0  0  0  0
    2.1094   -1.3392   -7.5386 H   0  0  0  0  0  0  0  0  0  0  0  0
    0.1980    0.0184   -6.7344 H   0  0  0  0  0  0  0  0  0  0  0  0
   -0.8481   -0.4880   -4.5436 H   0  0  0  0  0  0  0  0  0  0  0  0
    0.0286   -2.3513   -3.1523 H   0  0  0  0  0  0  0  0  0  0  0  0
    1.9414   -3.6997   -3.9515 H   0  0  0  0  0  0  0  0  0  0  0  0
    2.9812   -3.2010   -6.1502 H   0  0  0  0  0  0  0  0  0  0  0  0
    3.7467   -1.5905   -0.5028 Al  0  0  0  0  0  0  0  0  0  0  0  0
    4.1675   -0.7284    1.3729 Cl  0  0  0  0  0  0  0  0  0  0  0  0
    5.3601   -2.0317   -1.8060 Cl  0  0  0  0  0  0  0  0  0  0  0  0
    2.1021   -2.9125   -0.6142 Cl  0  0  0  0  0  0  0  0  0  0  0  0
    2.9277    0.4399   -1.6002 Cl  0  0  0  0  0  0  0  0  0  0  0  0
  2  1  3  0  0  0  0
  3 22  1  0  0  0  0
  4  3  1  0  0  0  0
  5  3  1  0  0  0  0
  6  7  2  0  0  0  0
  6 11  1  0  0  0  0
  7  8  1  0  0  0  0
  8 14  1  0  0  0  0
  8  9  2  0  0  0  0
  9 15  1  0  0  0  0
 10  9  1  0  0  0  0
 10 16  1  0  0  0  0
 11 10  2  0  0  0  0
 12  6  1  0  0  0  0
 13  7  1  0  0  0  0
 17 11  1  0  0  0  0
 18 19  1  0  0  0  0
 20 18  1  0  0  0  0
 21 18  1  0  0  0  0
M  END
