Coordinates from ORCA-job C6H6+AlCl4-+NH2--N2+-scan
 OpenBabel10221816123D

 22 19  0  0  0  0  0  0  0  0999 V2000
    7.2917   -0.6351   -5.6256 N   0  0  0  0  0  0  0  0  0  0  0  0
    8.2712   -0.9913   -5.2881 N   0  0  0  0  0  0  0  0  0  0  0  0
    2.4060    0.4079   -3.4040 N   0  0  0  0  0  0  0  0  0  0  0  0
    1.8175   -0.4232   -3.5088 H   0  0  0  0  0  0  0  0  0  0  0  0
    3.3291    0.1617   -3.7667 H   0  0  0  0  0  0  0  0  0  0  0  0
    1.2935   -1.2562   -6.4809 C   0  0  0  0  0  0  0  0  0  0  0  0
    0.0762   -0.8037   -5.9714 C   0  0  0  0  0  0  0  0  0  0  0  0
   -0.4480   -1.3712   -4.8099 C   0  0  0  0  0  0  0  0  0  0  0  0
    0.2468   -2.3904   -4.1555 C   0  0  0  0  0  0  0  0  0  0  0  0
    1.4652   -2.8444   -4.6664 C   0  0  0  0  0  0  0  0  0  0  0  0
    1.9875   -2.2770   -5.8298 C   0  0  0  0  0  0  0  0  0  0  0  0
    1.6993   -0.8161   -7.3852 H   0  0  0  0  0  0  0  0  0  0  0  0
   -0.4620   -0.0102   -6.4777 H   0  0  0  0  0  0  0  0  0  0  0  0
   -1.3957   -1.0215   -4.4153 H   0  0  0  0  0  0  0  0  0  0  0  0
   -0.1586   -2.8346   -3.2533 H   0  0  0  0  0  0  0  0  0  0  0  0
    2.0033   -3.6352   -4.1564 H   0  0  0  0  0  0  0  0  0  0  0  0
    2.9318   -2.6318   -6.2281 H   0  0  0  0  0  0  0  0  0  0  0  0
    3.9811   -1.3469   -0.8648 Al  0  0  0  0  0  0  0  0  0  0  0  0
    4.5766   -0.5267    0.9812 Cl  0  0  0  0  0  0  0  0  0  0  0  0
    5.3990   -1.4344   -2.4411 Cl  0  0  0  0  0  0  0  0  0  0  0  0
    2.5693   -2.9182   -0.8370 Cl  0  0  0  0  0  0  0  0  0  0  0  0
    2.6639    0.5577   -1.6487 Cl  0  0  0  0  0  0  0  0  0  0  0  0
  1  2  3  0  0  0  0
  3 22  1  0  0  0  0
  4  3  1  0  0  0  0
  5  3  1  0  0  0  0
  6  7  2  0  0  0  0
  6 11  1  0  0  0  0
  7  8  1  0  0  0  0
  8 14  1  0  0  0  0
  8  9  2  0  0  0  0
  9 15  1  0  0  0  0
 10 16  1  0  0  0  0
 10  9  1  0  0  0  0
 11 10  2  0  0  0  0
 12  6  1  0  0  0  0
 13  7  1  0  0  0  0
 17 11  1  0  0  0  0
 18 21  1  0  0  0  0
 18 19  1  0  0  0  0
 20 18  1  0  0  0  0
M  END
