Coordinates from ORCA-job C6H6+AlCl4-+NH2--N2+-scan
 OpenBabel10221816123D

 22 19  0  0  0  0  0  0  0  0999 V2000
    6.3313   -2.7435   -5.7456 N   0  0  0  0  0  0  0  0  0  0  0  0
    7.2767   -3.0298   -5.2719 N   0  0  0  0  0  0  0  0  0  0  0  0
    1.7769    0.5928   -3.0209 N   0  0  0  0  0  0  0  0  0  0  0  0
    1.5212   -0.3520   -3.3215 H   0  0  0  0  0  0  0  0  0  0  0  0
    2.7128    0.7759   -3.3885 H   0  0  0  0  0  0  0  0  0  0  0  0
    1.3884   -0.8039   -6.4372 C   0  0  0  0  0  0  0  0  0  0  0  0
    0.0970   -0.8426   -5.9107 C   0  0  0  0  0  0  0  0  0  0  0  0
   -0.2117   -1.7366   -4.8847 C   0  0  0  0  0  0  0  0  0  0  0  0
    0.7735   -2.5896   -4.3825 C   0  0  0  0  0  0  0  0  0  0  0  0
    2.0661   -2.5506   -4.9106 C   0  0  0  0  0  0  0  0  0  0  0  0
    2.3730   -1.6584   -5.9388 C   0  0  0  0  0  0  0  0  0  0  0  0
    1.6261   -0.1116   -7.2374 H   0  0  0  0  0  0  0  0  0  0  0  0
   -0.6671   -0.1784   -6.2987 H   0  0  0  0  0  0  0  0  0  0  0  0
   -1.2167   -1.7700   -4.4784 H   0  0  0  0  0  0  0  0  0  0  0  0
    0.5371   -3.2873   -3.5867 H   0  0  0  0  0  0  0  0  0  0  0  0
    2.8297   -3.2127   -4.5193 H   0  0  0  0  0  0  0  0  0  0  0  0
    3.3762   -1.6348   -6.3495 H   0  0  0  0  0  0  0  0  0  0  0  0
    4.0078   -0.9405   -0.8551 Al  0  0  0  0  0  0  0  0  0  0  0  0
    4.3808   -0.3182    1.1217 Cl  0  0  0  0  0  0  0  0  0  0  0  0
    5.2479   -0.1943   -2.4072 Cl  0  0  0  0  0  0  0  0  0  0  0  0
    3.2830   -2.9032   -1.1453 Cl  0  0  0  0  0  0  0  0  0  0  0  0
    2.0348    0.4488   -1.2646 Cl  0  0  0  0  0  0  0  0  0  0  0  0
  1  2  3  0  0  0  0
  3 22  1  0  0  0  0
  4  3  1  0  0  0  0
  5  3  1  0  0  0  0
  6 11  2  0  0  0  0
  6  7  1  0  0  0  0
  7  8  2  0  0  0  0
  8 14  1  0  0  0  0
  8  9  1  0  0  0  0
  9 15  1  0  0  0  0
 10 16  1  0  0  0  0
 10  9  2  0  0  0  0
 11 10  1  0  0  0  0
 12  6  1  0  0  0  0
 13  7  1  0  0  0  0
 17 11  1  0  0  0  0
 18 19  1  0  0  0  0
 20 18  1  0  0  0  0
 21 18  1  0  0  0  0
M  END
