Coordinates from ORCA-job C6H6+AlCl4-+NH2--N2+-scan
 OpenBabel10221816113D

 22 19  0  0  0  0  0  0  0  0999 V2000
    4.5823    0.1994   -5.7761 N   0  0  0  0  0  0  0  0  0  0  0  0
    4.6375    0.8908   -6.6240 N   0  0  0  0  0  0  0  0  0  0  0  0
    3.4165    0.2063   -3.2823 N   0  0  0  0  0  0  0  0  0  0  0  0
    2.6776   -0.4040   -3.6455 H   0  0  0  0  0  0  0  0  0  0  0  0
    4.2861   -0.3291   -3.2961 H   0  0  0  0  0  0  0  0  0  0  0  0
    1.6411   -1.8071   -6.7368 C   0  0  0  0  0  0  0  0  0  0  0  0
    0.7345   -0.8476   -6.2871 C   0  0  0  0  0  0  0  0  0  0  0  0
    0.2502   -0.9048   -4.9800 C   0  0  0  0  0  0  0  0  0  0  0  0
    0.6749   -1.9220   -4.1221 C   0  0  0  0  0  0  0  0  0  0  0  0
    1.5862   -2.8803   -4.5725 C   0  0  0  0  0  0  0  0  0  0  0  0
    2.0679   -2.8221   -5.8802 C   0  0  0  0  0  0  0  0  0  0  0  0
    2.0133   -1.7651   -7.7546 H   0  0  0  0  0  0  0  0  0  0  0  0
    0.4022   -0.0600   -6.9544 H   0  0  0  0  0  0  0  0  0  0  0  0
   -0.4627   -0.1649   -4.6326 H   0  0  0  0  0  0  0  0  0  0  0  0
    0.2895   -1.9803   -3.1102 H   0  0  0  0  0  0  0  0  0  0  0  0
    1.9110   -3.6697   -3.9042 H   0  0  0  0  0  0  0  0  0  0  0  0
    2.7713   -3.5690   -6.2316 H   0  0  0  0  0  0  0  0  0  0  0  0
    3.6775   -1.6690   -0.3491 Al  0  0  0  0  0  0  0  0  0  0  0  0
    3.9348   -0.8030    1.5530 Cl  0  0  0  0  0  0  0  0  0  0  0  0
    5.3993   -2.1627   -1.4862 Cl  0  0  0  0  0  0  0  0  0  0  0  0
    2.0182   -2.9496   -0.6143 Cl  0  0  0  0  0  0  0  0  0  0  0  0
    3.0355    0.3732   -1.5467 Cl  0  0  0  0  0  0  0  0  0  0  0  0
  2  1  3  0  0  0  0
  3 22  1  0  0  0  0
  4  3  1  0  0  0  0
  5  3  1  0  0  0  0
  6  7  2  0  0  0  0
  6 11  1  0  0  0  0
  7  8  1  0  0  0  0
  8 14  1  0  0  0  0
  8  9  2  0  0  0  0
  9 15  1  0  0  0  0
 10  9  1  0  0  0  0
 10 16  1  0  0  0  0
 11 10  2  0  0  0  0
 12  6  1  0  0  0  0
 13  7  1  0  0  0  0
 17 11  1  0  0  0  0
 18 19  1  0  0  0  0
 20 18  1  0  0  0  0
 21 18  1  0  0  0  0
M  END
