Coordinates from ORCA-job C6H6+AlCl4-+NH2--N2+-scan
 OpenBabel10221816123D

 22 19  0  0  0  0  0  0  0  0999 V2000
    7.1547   -0.5742   -5.6316 N   0  0  0  0  0  0  0  0  0  0  0  0
    8.1490   -0.9343   -5.3453 N   0  0  0  0  0  0  0  0  0  0  0  0
    2.4355    0.3964   -3.4059 N   0  0  0  0  0  0  0  0  0  0  0  0
    1.8372   -0.4277   -3.5103 H   0  0  0  0  0  0  0  0  0  0  0  0
    3.3580    0.1370   -3.7612 H   0  0  0  0  0  0  0  0  0  0  0  0
    1.3256   -1.2698   -6.4786 C   0  0  0  0  0  0  0  0  0  0  0  0
    0.1102   -0.7987   -5.9818 C   0  0  0  0  0  0  0  0  0  0  0  0
   -0.4314   -1.3535   -4.8220 C   0  0  0  0  0  0  0  0  0  0  0  0
    0.2442   -2.3787   -4.1570 C   0  0  0  0  0  0  0  0  0  0  0  0
    1.4607   -2.8514   -4.6553 C   0  0  0  0  0  0  0  0  0  0  0  0
    2.0004   -2.2967   -5.8168 C   0  0  0  0  0  0  0  0  0  0  0  0
    1.7449   -0.8395   -7.3814 H   0  0  0  0  0  0  0  0  0  0  0  0
   -0.4131   -0.0005   -6.4963 H   0  0  0  0  0  0  0  0  0  0  0  0
   -1.3777   -0.9893   -4.4372 H   0  0  0  0  0  0  0  0  0  0  0  0
   -0.1749   -2.8131   -3.2562 H   0  0  0  0  0  0  0  0  0  0  0  0
    1.9838   -3.6467   -4.1369 H   0  0  0  0  0  0  0  0  0  0  0  0
    2.9432   -2.6658   -6.2052 H   0  0  0  0  0  0  0  0  0  0  0  0
    3.9797   -1.3610   -0.8515 Al  0  0  0  0  0  0  0  0  0  0  0  0
    4.5799   -0.5391    0.9920 Cl  0  0  0  0  0  0  0  0  0  0  0  0
    5.3978   -1.4669   -2.4267 Cl  0  0  0  0  0  0  0  0  0  0  0  0
    2.5541   -2.9196   -0.8187 Cl  0  0  0  0  0  0  0  0  0  0  0  0
    2.6829    0.5522   -1.6496 Cl  0  0  0  0  0  0  0  0  0  0  0  0
  1  2  3  0  0  0  0
  3 22  1  0  0  0  0
  4  3  1  0  0  0  0
  5  3  1  0  0  0  0
  6  7  2  0  0  0  0
  6 11  1  0  0  0  0
  7  8  1  0  0  0  0
  8 14  1  0  0  0  0
  8  9  2  0  0  0  0
  9 15  1  0  0  0  0
 10  9  1  0  0  0  0
 10 16  1  0  0  0  0
 11 10  2  0  0  0  0
 12  6  1  0  0  0  0
 13  7  1  0  0  0  0
 17 11  1  0  0  0  0
 18 21  1  0  0  0  0
 18 19  1  0  0  0  0
 20 18  1  0  0  0  0
M  END
