Coordinates from ORCA-job C6H6+AlCl4-+NH2--N2+-scan
 OpenBabel10221816123D

 22 19  0  0  0  0  0  0  0  0999 V2000
    6.2779   -2.7007   -5.6917 N   0  0  0  0  0  0  0  0  0  0  0  0
    7.2180   -2.9897   -5.2092 N   0  0  0  0  0  0  0  0  0  0  0  0
    1.8002    0.5872   -3.0332 N   0  0  0  0  0  0  0  0  0  0  0  0
    1.5377   -0.3569   -3.3298 H   0  0  0  0  0  0  0  0  0  0  0  0
    2.7369    0.7621   -3.4026 H   0  0  0  0  0  0  0  0  0  0  0  0
    1.3842   -0.8026   -6.4388 C   0  0  0  0  0  0  0  0  0  0  0  0
    0.0918   -0.8469   -5.9151 C   0  0  0  0  0  0  0  0  0  0  0  0
   -0.2156   -1.7428   -4.8904 C   0  0  0  0  0  0  0  0  0  0  0  0
    0.7718   -2.5922   -4.3867 C   0  0  0  0  0  0  0  0  0  0  0  0
    2.0654   -2.5476   -4.9121 C   0  0  0  0  0  0  0  0  0  0  0  0
    2.3711   -1.6536   -5.9391 C   0  0  0  0  0  0  0  0  0  0  0  0
    1.6209   -0.1087   -7.2380 H   0  0  0  0  0  0  0  0  0  0  0  0
   -0.6740   -0.1854   -6.3044 H   0  0  0  0  0  0  0  0  0  0  0  0
   -1.2213   -1.7805   -4.4864 H   0  0  0  0  0  0  0  0  0  0  0  0
    0.5365   -3.2914   -3.5918 H   0  0  0  0  0  0  0  0  0  0  0  0
    2.8309   -3.2071   -4.5201 H   0  0  0  0  0  0  0  0  0  0  0  0
    3.3751   -1.6260   -6.3475 H   0  0  0  0  0  0  0  0  0  0  0  0
    4.0233   -0.9516   -0.8638 Al  0  0  0  0  0  0  0  0  0  0  0  0
    4.4030   -0.3234    1.1098 Cl  0  0  0  0  0  0  0  0  0  0  0  0
    5.2663   -0.2203   -2.4207 Cl  0  0  0  0  0  0  0  0  0  0  0  0
    3.2856   -2.9108   -1.1450 Cl  0  0  0  0  0  0  0  0  0  0  0  0
    2.0588    0.4484   -1.2767 Cl  0  0  0  0  0  0  0  0  0  0  0  0
  1  2  3  0  0  0  0
  3 22  1  0  0  0  0
  4  3  1  0  0  0  0
  5  3  1  0  0  0  0
  6 11  2  0  0  0  0
  6  7  1  0  0  0  0
  7  8  2  0  0  0  0
  8 14  1  0  0  0  0
  8  9  1  0  0  0  0
  9 15  1  0  0  0  0
 10 16  1  0  0  0  0
 10  9  2  0  0  0  0
 11 10  1  0  0  0  0
 12  6  1  0  0  0  0
 13  7  1  0  0  0  0
 17 11  1  0  0  0  0
 18 19  1  0  0  0  0
 20 18  1  0  0  0  0
 21 18  1  0  0  0  0
M  END
