Coordinates from ORCA-job C6H6+AlCl4-+NH2--N2+-scan
 OpenBabel10221816113D

 22 20  0  0  0  0  0  0  0  0999 V2000
    3.8929   -0.3432   -4.7117 N   0  0  0  0  0  0  0  0  0  0  0  0
    3.9909   -0.1488   -5.8180 N   0  0  0  0  0  0  0  0  0  0  0  0
    3.8266   -0.5174   -3.6274 N   0  0  0  0  0  0  0  0  0  0  0  0
    3.0417   -1.0220   -3.1359 H   0  0  0  0  0  0  0  0  0  0  0  0
    4.5836   -0.2031   -2.8847 H   0  0  0  0  0  0  0  0  0  0  0  0
    1.3422   -1.9499   -7.0383 C   0  0  0  0  0  0  0  0  0  0  0  0
    0.6944   -0.7387   -6.7941 C   0  0  0  0  0  0  0  0  0  0  0  0
    0.2384   -0.4371   -5.5108 C   0  0  0  0  0  0  0  0  0  0  0  0
    0.4276   -1.3487   -4.4706 C   0  0  0  0  0  0  0  0  0  0  0  0
    1.0772   -2.5616   -4.7147 C   0  0  0  0  0  0  0  0  0  0  0  0
    1.5352   -2.8605   -5.9993 C   0  0  0  0  0  0  0  0  0  0  0  0
    1.6919   -2.1855   -8.0373 H   0  0  0  0  0  0  0  0  0  0  0  0
    0.5409   -0.0336   -7.6036 H   0  0  0  0  0  0  0  0  0  0  0  0
   -0.2753    0.4995   -5.3234 H   0  0  0  0  0  0  0  0  0  0  0  0
    0.0553   -1.1256   -3.4767 H   0  0  0  0  0  0  0  0  0  0  0  0
    1.2080   -3.2762   -3.9095 H   0  0  0  0  0  0  0  0  0  0  0  0
    2.0296   -3.8065   -6.1912 H   0  0  0  0  0  0  0  0  0  0  0  0
    4.3339   -1.4584   -0.0850 Al  0  0  0  0  0  0  0  0  0  0  0  0
    4.0018   -0.6532    1.8388 Cl  0  0  0  0  0  0  0  0  0  0  0  0
    5.4831    0.0578   -1.3095 Cl  0  0  0  0  0  0  0  0  0  0  0  0
    5.3883   -3.2954   -0.2146 Cl  0  0  0  0  0  0  0  0  0  0  0  0
    2.4363   -1.6324   -1.2161 Cl  0  0  0  0  0  0  0  0  0  0  0  0
  1  3  1  0  0  0  0
  2  1  1  0  0  0  0
  3  4  1  0  0  0  0
  3  5  1  0  0  0  0
  6  7  2  0  0  0  0
  6 11  1  0  0  0  0
  7  8  1  0  0  0  0
  8 14  1  0  0  0  0
  8  9  2  0  0  0  0
  9 15  1  0  0  0  0
 10  9  1  0  0  0  0
 10 16  1  0  0  0  0
 11 10  2  0  0  0  0
 12  6  1  0  0  0  0
 13  7  1  0  0  0  0
 17 11  1  0  0  0  0
 18 19  1  0  0  0  0
 20 18  1  0  0  0  0
 21 18  1  0  0  0  0
 22 18  1  0  0  0  0
M  RAD  2   1   2   2   3
M  END
