Coordinates from ORCA-job C6H6+AlCl4-+NH2--N2+-scan
 OpenBabel10221816113D

 22 19  0  0  0  0  0  0  0  0999 V2000
    5.2120   -0.0124   -5.6547 N   0  0  0  0  0  0  0  0  0  0  0  0
    5.5540    0.2761   -6.6545 N   0  0  0  0  0  0  0  0  0  0  0  0
    3.0906    0.2596   -3.3783 N   0  0  0  0  0  0  0  0  0  0  0  0
    2.3727   -0.4287   -3.6207 H   0  0  0  0  0  0  0  0  0  0  0  0
    4.0003   -0.1801   -3.5253 H   0  0  0  0  0  0  0  0  0  0  0  0
    1.6649   -1.5767   -6.5946 C   0  0  0  0  0  0  0  0  0  0  0  0
    0.6027   -0.7947   -6.1414 C   0  0  0  0  0  0  0  0  0  0  0  0
    0.0187   -1.0620   -4.9028 C   0  0  0  0  0  0  0  0  0  0  0  0
    0.4994   -2.1109   -4.1160 C   0  0  0  0  0  0  0  0  0  0  0  0
    1.5642   -2.8931   -4.5700 C   0  0  0  0  0  0  0  0  0  0  0  0
    2.1454   -2.6258   -5.8099 C   0  0  0  0  0  0  0  0  0  0  0  0
    2.1158   -1.3707   -7.5592 H   0  0  0  0  0  0  0  0  0  0  0  0
    0.2295    0.0200   -6.7520 H   0  0  0  0  0  0  0  0  0  0  0  0
   -0.8110   -0.4578   -4.5522 H   0  0  0  0  0  0  0  0  0  0  0  0
    0.0464   -2.3258   -3.1547 H   0  0  0  0  0  0  0  0  0  0  0  0
    1.9348   -3.7065   -3.9567 H   0  0  0  0  0  0  0  0  0  0  0  0
    2.9686   -3.2365   -6.1643 H   0  0  0  0  0  0  0  0  0  0  0  0
    3.7491   -1.5883   -0.4961 Al  0  0  0  0  0  0  0  0  0  0  0  0
    4.1626   -0.7190    1.3779 Cl  0  0  0  0  0  0  0  0  0  0  0  0
    5.3697   -2.0574   -1.7807 Cl  0  0  0  0  0  0  0  0  0  0  0  0
    2.0909   -2.8929   -0.6134 Cl  0  0  0  0  0  0  0  0  0  0  0  0
    2.9632    0.4430   -1.6141 Cl  0  0  0  0  0  0  0  0  0  0  0  0
  2  1  3  0  0  0  0
  3 22  1  0  0  0  0
  4  3  1  0  0  0  0
  5  3  1  0  0  0  0
  6  7  2  0  0  0  0
  6 11  1  0  0  0  0
  7  8  1  0  0  0  0
  8 14  1  0  0  0  0
  8  9  2  0  0  0  0
  9 15  1  0  0  0  0
 10  9  1  0  0  0  0
 10 16  1  0  0  0  0
 11 10  2  0  0  0  0
 12  6  1  0  0  0  0
 13  7  1  0  0  0  0
 17 11  1  0  0  0  0
 18 19  1  0  0  0  0
 20 18  1  0  0  0  0
 21 18  1  0  0  0  0
M  END
