Coordinates from ORCA-job C6H6+AlCl4-+NH2--N2+-scan
 OpenBabel10221816113D

 22 19  0  0  0  0  0  0  0  0999 V2000
    6.4663   -0.3218   -5.5407 N   0  0  0  0  0  0  0  0  0  0  0  0
    7.4885   -0.6007   -5.8189 N   0  0  0  0  0  0  0  0  0  0  0  0
    2.6242    0.3554   -3.4090 N   0  0  0  0  0  0  0  0  0  0  0  0
    1.9859   -0.4387   -3.5074 H   0  0  0  0  0  0  0  0  0  0  0  0
    3.5393    0.0461   -3.7422 H   0  0  0  0  0  0  0  0  0  0  0  0
    1.4432   -1.3573   -6.5186 C   0  0  0  0  0  0  0  0  0  0  0  0
    0.2563   -0.7982   -6.0448 C   0  0  0  0  0  0  0  0  0  0  0  0
   -0.3121   -1.2679   -4.8606 C   0  0  0  0  0  0  0  0  0  0  0  0
    0.3082   -2.2963   -4.1482 C   0  0  0  0  0  0  0  0  0  0  0  0
    1.4964   -2.8568   -4.6233 C   0  0  0  0  0  0  0  0  0  0  0  0
    2.0628   -2.3870   -5.8092 C   0  0  0  0  0  0  0  0  0  0  0  0
    1.8832   -0.9930   -7.4404 H   0  0  0  0  0  0  0  0  0  0  0  0
   -0.2241    0.0021   -6.5965 H   0  0  0  0  0  0  0  0  0  0  0  0
   -1.2363   -0.8354   -4.4936 H   0  0  0  0  0  0  0  0  0  0  0  0
   -0.1315   -2.6651   -3.2282 H   0  0  0  0  0  0  0  0  0  0  0  0
    1.9762   -3.6548   -4.0683 H   0  0  0  0  0  0  0  0  0  0  0  0
    2.9833   -2.8246   -6.1796 H   0  0  0  0  0  0  0  0  0  0  0  0
    3.9016   -1.4523   -0.7303 Al  0  0  0  0  0  0  0  0  0  0  0  0
    4.4929   -0.6139    1.1096 Cl  0  0  0  0  0  0  0  0  0  0  0  0
    5.3774   -1.7757   -2.2185 Cl  0  0  0  0  0  0  0  0  0  0  0  0
    2.3198   -2.8533   -0.7106 Cl  0  0  0  0  0  0  0  0  0  0  0  0
    2.8432    0.5484   -1.6544 Cl  0  0  0  0  0  0  0  0  0  0  0  0
  2  1  3  0  0  0  0
  3 22  1  0  0  0  0
  4  3  1  0  0  0  0
  5  3  1  0  0  0  0
  6  7  2  0  0  0  0
  6 11  1  0  0  0  0
  7  8  1  0  0  0  0
  8 14  1  0  0  0  0
  8  9  2  0  0  0  0
  9 15  1  0  0  0  0
 10  9  1  0  0  0  0
 10 16  1  0  0  0  0
 11 10  2  0  0  0  0
 12  6  1  0  0  0  0
 13  7  1  0  0  0  0
 17 11  1  0  0  0  0
 18 21  1  0  0  0  0
 18 19  1  0  0  0  0
 20 18  1  0  0  0  0
M  END
