Coordinates from ORCA-job C6H6+AlCl4-+NH2--N2+-scan
 OpenBabel10221816113D

 22 19  0  0  0  0  0  0  0  0999 V2000
    6.2141   -0.3073   -5.4775 N   0  0  0  0  0  0  0  0  0  0  0  0
    7.2078   -0.5731   -5.8541 N   0  0  0  0  0  0  0  0  0  0  0  0
    2.6768    0.3533   -3.4197 N   0  0  0  0  0  0  0  0  0  0  0  0
    2.0342   -0.4377   -3.5158 H   0  0  0  0  0  0  0  0  0  0  0  0
    3.5903    0.0400   -3.7535 H   0  0  0  0  0  0  0  0  0  0  0  0
    1.4710   -1.3663   -6.5340 C   0  0  0  0  0  0  0  0  0  0  0  0
    0.2921   -0.7956   -6.0542 C   0  0  0  0  0  0  0  0  0  0  0  0
   -0.2709   -1.2550   -4.8634 C   0  0  0  0  0  0  0  0  0  0  0  0
    0.3469   -2.2843   -4.1503 C   0  0  0  0  0  0  0  0  0  0  0  0
    1.5273   -2.8562   -4.6314 C   0  0  0  0  0  0  0  0  0  0  0  0
    2.0882   -2.3969   -5.8239 C   0  0  0  0  0  0  0  0  0  0  0  0
    1.9067   -1.0102   -7.4611 H   0  0  0  0  0  0  0  0  0  0  0  0
   -0.1864    0.0055   -6.6064 H   0  0  0  0  0  0  0  0  0  0  0  0
   -1.1890   -0.8135   -4.4917 H   0  0  0  0  0  0  0  0  0  0  0  0
   -0.0885   -2.6450   -3.2252 H   0  0  0  0  0  0  0  0  0  0  0  0
    2.0050   -3.6552   -4.0760 H   0  0  0  0  0  0  0  0  0  0  0  0
    3.0024   -2.8435   -6.1991 H   0  0  0  0  0  0  0  0  0  0  0  0
    3.8913   -1.4643   -0.7061 Al  0  0  0  0  0  0  0  0  0  0  0  0
    4.4773   -0.6144    1.1305 Cl  0  0  0  0  0  0  0  0  0  0  0  0
    5.3785   -1.8503   -2.1659 Cl  0  0  0  0  0  0  0  0  0  0  0  0
    2.2726   -2.8229   -0.6884 Cl  0  0  0  0  0  0  0  0  0  0  0  0
    2.8968    0.5523   -1.6663 Cl  0  0  0  0  0  0  0  0  0  0  0  0
  2  1  3  0  0  0  0
  3 22  1  0  0  0  0
  4  3  1  0  0  0  0
  5  3  1  0  0  0  0
  6  7  2  0  0  0  0
  6 11  1  0  0  0  0
  7  8  1  0  0  0  0
  8 14  1  0  0  0  0
  8  9  2  0  0  0  0
  9 15  1  0  0  0  0
 10  9  1  0  0  0  0
 10 16  1  0  0  0  0
 11 10  2  0  0  0  0
 12  6  1  0  0  0  0
 13  7  1  0  0  0  0
 17 11  1  0  0  0  0
 18 21  1  0  0  0  0
 18 19  1  0  0  0  0
 20 18  1  0  0  0  0
M  END
