Coordinates from ORCA-job C6H6+AlCl4-+NH2--N2+-scan
 OpenBabel10221816123D

 22 19  0  0  0  0  0  0  0  0999 V2000
    6.4445   -2.6989   -6.5537 N   0  0  0  0  0  0  0  0  0  0  0  0
    7.4800   -3.0484   -6.4796 N   0  0  0  0  0  0  0  0  0  0  0  0
    1.6805    0.6374   -2.9543 N   0  0  0  0  0  0  0  0  0  0  0  0
    1.4295   -0.3069   -3.2603 H   0  0  0  0  0  0  0  0  0  0  0  0
    2.6335    0.8115   -3.2800 H   0  0  0  0  0  0  0  0  0  0  0  0
    1.5905   -0.9264   -6.3864 C   0  0  0  0  0  0  0  0  0  0  0  0
    0.2673   -0.8576   -5.9500 C   0  0  0  0  0  0  0  0  0  0  0  0
   -0.1655   -1.6741   -4.9042 C   0  0  0  0  0  0  0  0  0  0  0  0
    0.7280   -2.5555   -4.2917 C   0  0  0  0  0  0  0  0  0  0  0  0
    2.0530   -2.6234   -4.7296 C   0  0  0  0  0  0  0  0  0  0  0  0
    2.4837   -1.8100   -5.7782 C   0  0  0  0  0  0  0  0  0  0  0  0
    1.9246   -0.2955   -7.2029 H   0  0  0  0  0  0  0  0  0  0  0  0
   -0.4256   -0.1714   -6.4240 H   0  0  0  0  0  0  0  0  0  0  0  0
   -1.1956   -1.6252   -4.5685 H   0  0  0  0  0  0  0  0  0  0  0  0
    0.3948   -3.1939   -3.4808 H   0  0  0  0  0  0  0  0  0  0  0  0
    2.7447   -3.3073   -4.2517 H   0  0  0  0  0  0  0  0  0  0  0  0
    3.5097   -1.8700   -6.1232 H   0  0  0  0  0  0  0  0  0  0  0  0
    3.8086   -0.8629   -0.6555 Al  0  0  0  0  0  0  0  0  0  0  0  0
    4.0840   -0.1926    1.3220 Cl  0  0  0  0  0  0  0  0  0  0  0  0
    5.1150   -0.1420   -2.1641 Cl  0  0  0  0  0  0  0  0  0  0  0  0
    3.1079   -2.8364   -0.9296 Cl  0  0  0  0  0  0  0  0  0  0  0  0
    1.8516    0.5087   -1.1872 Cl  0  0  0  0  0  0  0  0  0  0  0  0
  1  2  3  0  0  0  0
  3 22  1  0  0  0  0
  4  3  1  0  0  0  0
  5  3  1  0  0  0  0
  6  7  2  0  0  0  0
  6 11  1  0  0  0  0
  7  8  1  0  0  0  0
  8 14  1  0  0  0  0
  8  9  2  0  0  0  0
  9 15  1  0  0  0  0
 10  9  1  0  0  0  0
 10 16  1  0  0  0  0
 11 10  2  0  0  0  0
 12  6  1  0  0  0  0
 13  7  1  0  0  0  0
 17 11  1  0  0  0  0
 18 19  1  0  0  0  0
 20 18  1  0  0  0  0
 21 18  1  0  0  0  0
M  END
