Coordinates from ORCA-job C6H6+AlCl4-+NH2--N2+-scan
 OpenBabel10221816113D

 22 20  0  0  0  0  0  0  0  0999 V2000
    3.9366   -0.3703   -4.6832 N   0  0  0  0  0  0  0  0  0  0  0  0
    4.0625   -0.1483   -5.7887 N   0  0  0  0  0  0  0  0  0  0  0  0
    3.8510   -0.5573   -3.6738 N   0  0  0  0  0  0  0  0  0  0  0  0
    3.0665   -1.0662   -3.1768 H   0  0  0  0  0  0  0  0  0  0  0  0
    4.6045   -0.2602   -2.8645 H   0  0  0  0  0  0  0  0  0  0  0  0
    1.3203   -1.9142   -7.0468 C   0  0  0  0  0  0  0  0  0  0  0  0
    0.6612   -0.7156   -6.7742 C   0  0  0  0  0  0  0  0  0  0  0  0
    0.2166   -0.4415   -5.4809 C   0  0  0  0  0  0  0  0  0  0  0  0
    0.4279   -1.3687   -4.4588 C   0  0  0  0  0  0  0  0  0  0  0  0
    1.0888   -2.5694   -4.7315 C   0  0  0  0  0  0  0  0  0  0  0  0
    1.5362   -2.8402   -6.0262 C   0  0  0  0  0  0  0  0  0  0  0  0
    1.6632   -2.1272   -8.0531 H   0  0  0  0  0  0  0  0  0  0  0  0
    0.4916    0.0022   -7.5690 H   0  0  0  0  0  0  0  0  0  0  0  0
   -0.3050    0.4860   -5.2713 H   0  0  0  0  0  0  0  0  0  0  0  0
    0.0636   -1.1675   -3.4573 H   0  0  0  0  0  0  0  0  0  0  0  0
    1.2353   -3.2976   -3.9411 H   0  0  0  0  0  0  0  0  0  0  0  0
    2.0402   -3.7763   -6.2404 H   0  0  0  0  0  0  0  0  0  0  0  0
    4.3091   -1.4493   -0.0770 Al  0  0  0  0  0  0  0  0  0  0  0  0
    3.9302   -0.4923    1.7649 Cl  0  0  0  0  0  0  0  0  0  0  0  0
    5.4945   -0.0007   -1.3800 Cl  0  0  0  0  0  0  0  0  0  0  0  0
    5.3901   -3.2701   -0.0440 Cl  0  0  0  0  0  0  0  0  0  0  0  0
    2.4598   -1.6959   -1.2598 Cl  0  0  0  0  0  0  0  0  0  0  0  0
  1  3  1  0  0  0  0
  2  1  1  0  0  0  0
  3  4  1  0  0  0  0
  3  5  1  0  0  0  0
  6  7  2  0  0  0  0
  6 11  1  0  0  0  0
  7  8  1  0  0  0  0
  8 14  1  0  0  0  0
  8  9  2  0  0  0  0
  9 15  1  0  0  0  0
 10  9  1  0  0  0  0
 10 16  1  0  0  0  0
 11 10  2  0  0  0  0
 12  6  1  0  0  0  0
 13  7  1  0  0  0  0
 17 11  1  0  0  0  0
 18 21  1  0  0  0  0
 18 19  1  0  0  0  0
 20 18  1  0  0  0  0
 22 18  1  0  0  0  0
M  RAD  2   1   2   2   3
M  END
