Coordinates from ORCA-job C6H6+AlCl4-+NH2--N2+-scan
 OpenBabel10221816113D

 22 19  0  0  0  0  0  0  0  0999 V2000
    6.1916   -0.3026   -5.4687 N   0  0  0  0  0  0  0  0  0  0  0  0
    7.1820   -0.5669   -5.8549 N   0  0  0  0  0  0  0  0  0  0  0  0
    2.6825    0.3529   -3.4214 N   0  0  0  0  0  0  0  0  0  0  0  0
    2.0393   -0.4376   -3.5170 H   0  0  0  0  0  0  0  0  0  0  0  0
    3.5957    0.0390   -3.7556 H   0  0  0  0  0  0  0  0  0  0  0  0
    1.4731   -1.3682   -6.5358 C   0  0  0  0  0  0  0  0  0  0  0  0
    0.2953   -0.7956   -6.0553 C   0  0  0  0  0  0  0  0  0  0  0  0
   -0.2671   -1.2533   -4.8636 C   0  0  0  0  0  0  0  0  0  0  0  0
    0.3501   -2.2829   -4.1502 C   0  0  0  0  0  0  0  0  0  0  0  0
    1.5293   -2.8565   -4.6319 C   0  0  0  0  0  0  0  0  0  0  0  0
    2.0897   -2.3989   -5.8254 C   0  0  0  0  0  0  0  0  0  0  0  0
    1.9082   -1.0134   -7.4636 H   0  0  0  0  0  0  0  0  0  0  0  0
   -0.1827    0.0056   -6.6077 H   0  0  0  0  0  0  0  0  0  0  0  0
   -1.1843   -0.8103   -4.4913 H   0  0  0  0  0  0  0  0  0  0  0  0
   -0.0848   -2.6423   -3.2243 H   0  0  0  0  0  0  0  0  0  0  0  0
    2.0066   -3.6557   -4.0764 H   0  0  0  0  0  0  0  0  0  0  0  0
    3.0029   -2.8471   -6.2011 H   0  0  0  0  0  0  0  0  0  0  0  0
    3.8906   -1.4659   -0.7045 Al  0  0  0  0  0  0  0  0  0  0  0  0
    4.4771   -0.6149    1.1315 Cl  0  0  0  0  0  0  0  0  0  0  0  0
    5.3784   -1.8593   -2.1616 Cl  0  0  0  0  0  0  0  0  0  0  0  0
    2.2675   -2.8193   -0.6865 Cl  0  0  0  0  0  0  0  0  0  0  0  0
    2.9035    0.5526   -1.6682 Cl  0  0  0  0  0  0  0  0  0  0  0  0
  2  1  3  0  0  0  0
  3 22  1  0  0  0  0
  4  3  1  0  0  0  0
  5  3  1  0  0  0  0
  6  7  2  0  0  0  0
  6 11  1  0  0  0  0
  7  8  1  0  0  0  0
  8 14  1  0  0  0  0
  8  9  2  0  0  0  0
  9 15  1  0  0  0  0
 10  9  1  0  0  0  0
 10 16  1  0  0  0  0
 11 10  2  0  0  0  0
 12  6  1  0  0  0  0
 13  7  1  0  0  0  0
 17 11  1  0  0  0  0
 18 21  1  0  0  0  0
 18 19  1  0  0  0  0
 20 18  1  0  0  0  0
M  END
