Coordinates from ORCA-job C6H6+AlCl4-+NH2--N2+-scan
 OpenBabel10221816113D

 22 19  0  0  0  0  0  0  0  0999 V2000
    6.7536   -0.3605   -5.6112 N   0  0  0  0  0  0  0  0  0  0  0  0
    7.7935   -0.6691   -5.7647 N   0  0  0  0  0  0  0  0  0  0  0  0
    2.5518    0.3651   -3.3932 N   0  0  0  0  0  0  0  0  0  0  0  0
    1.9235   -0.4365   -3.4962 H   0  0  0  0  0  0  0  0  0  0  0  0
    3.4695    0.0688   -3.7311 H   0  0  0  0  0  0  0  0  0  0  0  0
    1.4126   -1.3394   -6.5005 C   0  0  0  0  0  0  0  0  0  0  0  0
    0.2141   -0.8008   -6.0321 C   0  0  0  0  0  0  0  0  0  0  0  0
   -0.3578   -1.2889   -4.8570 C   0  0  0  0  0  0  0  0  0  0  0  0
    0.2706   -2.3148   -4.1483 C   0  0  0  0  0  0  0  0  0  0  0  0
    1.4704   -2.8549   -4.6182 C   0  0  0  0  0  0  0  0  0  0  0  0
    2.0403   -2.3668   -5.7949 C   0  0  0  0  0  0  0  0  0  0  0  0
    1.8553   -0.9609   -7.4153 H   0  0  0  0  0  0  0  0  0  0  0  0
   -0.2727   -0.0023   -6.5808 H   0  0  0  0  0  0  0  0  0  0  0  0
   -1.2910   -0.8722   -4.4941 H   0  0  0  0  0  0  0  0  0  0  0  0
   -0.1719   -2.6978   -3.2354 H   0  0  0  0  0  0  0  0  0  0  0  0
    1.9566   -3.6509   -4.0660 H   0  0  0  0  0  0  0  0  0  0  0  0
    2.9699   -2.7883   -6.1612 H   0  0  0  0  0  0  0  0  0  0  0  0
    3.9147   -1.4346   -0.7604 Al  0  0  0  0  0  0  0  0  0  0  0  0
    4.5172   -0.6065    1.0803 Cl  0  0  0  0  0  0  0  0  0  0  0  0
    5.3685   -1.6849   -2.2847 Cl  0  0  0  0  0  0  0  0  0  0  0  0
    2.3805   -2.8872   -0.7315 Cl  0  0  0  0  0  0  0  0  0  0  0  0
    2.7755    0.5428   -1.6371 Cl  0  0  0  0  0  0  0  0  0  0  0  0
  2  1  3  0  0  0  0
  3 22  1  0  0  0  0
  4  3  1  0  0  0  0
  5  3  1  0  0  0  0
  6  7  2  0  0  0  0
  6 11  1  0  0  0  0
  7  8  1  0  0  0  0
  8 14  1  0  0  0  0
  8  9  2  0  0  0  0
  9 15  1  0  0  0  0
 10  9  1  0  0  0  0
 10 16  1  0  0  0  0
 11 10  2  0  0  0  0
 12  6  1  0  0  0  0
 13  7  1  0  0  0  0
 17 11  1  0  0  0  0
 18 21  1  0  0  0  0
 18 19  1  0  0  0  0
 20 18  1  0  0  0  0
M  END
