Coordinates from ORCA-job C6H6+AlCl4-+NH2--N2+-scan
 OpenBabel10221816113D

 22 19  0  0  0  0  0  0  0  0999 V2000
    4.1509    0.2296   -5.2899 N   0  0  0  0  0  0  0  0  0  0  0  0
    4.4408    1.0262   -5.9903 N   0  0  0  0  0  0  0  0  0  0  0  0
    3.5515    0.1453   -3.4979 N   0  0  0  0  0  0  0  0  0  0  0  0
    2.7497   -0.4315   -3.7924 H   0  0  0  0  0  0  0  0  0  0  0  0
    4.3006   -0.5307   -3.2901 H   0  0  0  0  0  0  0  0  0  0  0  0
    1.6513   -1.8834   -6.7800 C   0  0  0  0  0  0  0  0  0  0  0  0
    0.7970   -0.8666   -6.3532 C   0  0  0  0  0  0  0  0  0  0  0  0
    0.3269   -0.8564   -5.0393 C   0  0  0  0  0  0  0  0  0  0  0  0
    0.7132   -1.8641   -4.1516 C   0  0  0  0  0  0  0  0  0  0  0  0
    1.5726   -2.8794   -4.5795 C   0  0  0  0  0  0  0  0  0  0  0  0
    2.0403   -2.8881   -5.8937 C   0  0  0  0  0  0  0  0  0  0  0  0
    2.0105   -1.8948   -7.8033 H   0  0  0  0  0  0  0  0  0  0  0  0
    0.4911   -0.0888   -7.0443 H   0  0  0  0  0  0  0  0  0  0  0  0
   -0.3477   -0.0736   -4.7100 H   0  0  0  0  0  0  0  0  0  0  0  0
    0.3380   -1.8709   -3.1342 H   0  0  0  0  0  0  0  0  0  0  0  0
    1.8673   -3.6606   -3.8879 H   0  0  0  0  0  0  0  0  0  0  0  0
    2.7020   -3.6798   -6.2273 H   0  0  0  0  0  0  0  0  0  0  0  0
    3.6910   -1.5646   -0.4239 Al  0  0  0  0  0  0  0  0  0  0  0  0
    4.1080   -0.7655    1.4809 Cl  0  0  0  0  0  0  0  0  0  0  0  0
    5.3631   -2.1043   -1.6470 Cl  0  0  0  0  0  0  0  0  0  0  0  0
    2.0581   -2.9078   -0.5673 Cl  0  0  0  0  0  0  0  0  0  0  0  0
    2.9687    0.3693   -1.6115 Cl  0  0  0  0  0  0  0  0  0  0  0  0
  2  1  3  0  0  0  0
  3  5  1  0  0  0  0
  3 22  1  0  0  0  0
  4  3  1  0  0  0  0
  6  7  2  0  0  0  0
  6 11  1  0  0  0  0
  7  8  1  0  0  0  0
  8 14  1  0  0  0  0
  8  9  2  0  0  0  0
  9 15  1  0  0  0  0
 10  9  1  0  0  0  0
 10 16  1  0  0  0  0
 11 10  2  0  0  0  0
 12  6  1  0  0  0  0
 13  7  1  0  0  0  0
 17 11  1  0  0  0  0
 18 19  1  0  0  0  0
 20 18  1  0  0  0  0
 21 18  1  0  0  0  0
M  END
