Coordinates from ORCA-job C6H6+AlCl4-+NH2--N2+-scan
 OpenBabel10221816123D

 22 19  0  0  0  0  0  0  0  0999 V2000
    6.3906   -2.7063   -6.4758 N   0  0  0  0  0  0  0  0  0  0  0  0
    7.4194   -3.0666   -6.3670 N   0  0  0  0  0  0  0  0  0  0  0  0
    1.6794    0.6260   -2.9555 N   0  0  0  0  0  0  0  0  0  0  0  0
    1.4310   -0.3177   -3.2657 H   0  0  0  0  0  0  0  0  0  0  0  0
    2.6301    0.8060   -3.2844 H   0  0  0  0  0  0  0  0  0  0  0  0
    1.5822   -0.9124   -6.3914 C   0  0  0  0  0  0  0  0  0  0  0  0
    0.2593   -0.8556   -5.9519 C   0  0  0  0  0  0  0  0  0  0  0  0
   -0.1653   -1.6807   -4.9095 C   0  0  0  0  0  0  0  0  0  0  0  0
    0.7357   -2.5593   -4.3039 C   0  0  0  0  0  0  0  0  0  0  0  0
    2.0602   -2.6152   -4.7449 C   0  0  0  0  0  0  0  0  0  0  0  0
    2.4829   -1.7925   -5.7895 C   0  0  0  0  0  0  0  0  0  0  0  0
    1.9100   -0.2744   -7.2049 H   0  0  0  0  0  0  0  0  0  0  0  0
   -0.4395   -0.1718   -6.4207 H   0  0  0  0  0  0  0  0  0  0  0  0
   -1.1948   -1.6405   -4.5708 H   0  0  0  0  0  0  0  0  0  0  0  0
    0.4087   -3.2043   -3.4956 H   0  0  0  0  0  0  0  0  0  0  0  0
    2.7578   -3.2967   -4.2721 H   0  0  0  0  0  0  0  0  0  0  0  0
    3.5093   -1.8417   -6.1345 H   0  0  0  0  0  0  0  0  0  0  0  0
    3.8347   -0.8629   -0.6736 Al  0  0  0  0  0  0  0  0  0  0  0  0
    4.1113   -0.1983    1.3057 Cl  0  0  0  0  0  0  0  0  0  0  0  0
    5.1259   -0.1201   -2.1847 Cl  0  0  0  0  0  0  0  0  0  0  0  0
    3.1566   -2.8435   -0.9531 Cl  0  0  0  0  0  0  0  0  0  0  0  0
    1.8595    0.4881   -1.1899 Cl  0  0  0  0  0  0  0  0  0  0  0  0
  1  2  3  0  0  0  0
  3 22  1  0  0  0  0
  4  3  1  0  0  0  0
  5  3  1  0  0  0  0
  6  7  2  0  0  0  0
  6 11  1  0  0  0  0
  7  8  1  0  0  0  0
  8 14  1  0  0  0  0
  8  9  2  0  0  0  0
  9 15  1  0  0  0  0
 10  9  1  0  0  0  0
 10 16  1  0  0  0  0
 11 10  2  0  0  0  0
 12  6  1  0  0  0  0
 13  7  1  0  0  0  0
 17 11  1  0  0  0  0
 18 19  1  0  0  0  0
 20 18  1  0  0  0  0
 21 18  1  0  0  0  0
M  END
