Coordinates from ORCA-job C6H6+AlCl4-+NH2--N2+-scan
 OpenBabel10221816113D

 22 19  0  0  0  0  0  0  0  0999 V2000
    5.8735   -0.2359   -5.3373 N   0  0  0  0  0  0  0  0  0  0  0  0
    6.8136   -0.4624   -5.8517 N   0  0  0  0  0  0  0  0  0  0  0  0
    2.7670    0.3444   -3.4431 N   0  0  0  0  0  0  0  0  0  0  0  0
    2.1111   -0.4362   -3.5325 H   0  0  0  0  0  0  0  0  0  0  0  0
    3.6752    0.0194   -3.7808 H   0  0  0  0  0  0  0  0  0  0  0  0
    1.5022   -1.4000   -6.5610 C   0  0  0  0  0  0  0  0  0  0  0  0
    0.3432   -0.7956   -6.0741 C   0  0  0  0  0  0  0  0  0  0  0  0
   -0.2145   -1.2254   -4.8700 C   0  0  0  0  0  0  0  0  0  0  0  0
    0.3888   -2.2589   -4.1504 C   0  0  0  0  0  0  0  0  0  0  0  0
    1.5496   -2.8641   -4.6382 C   0  0  0  0  0  0  0  0  0  0  0  0
    2.1050   -2.4345   -5.8442 C   0  0  0  0  0  0  0  0  0  0  0  0
    1.9333   -1.0673   -7.4988 H   0  0  0  0  0  0  0  0  0  0  0  0
   -0.1241    0.0085   -6.6315 H   0  0  0  0  0  0  0  0  0  0  0  0
   -1.1175   -0.7579   -4.4929 H   0  0  0  0  0  0  0  0  0  0  0  0
   -0.0426   -2.5970   -3.2149 H   0  0  0  0  0  0  0  0  0  0  0  0
    2.0160   -3.6663   -4.0778 H   0  0  0  0  0  0  0  0  0  0  0  0
    3.0033   -2.9078   -6.2250 H   0  0  0  0  0  0  0  0  0  0  0  0
    3.8891   -1.4872   -0.6853 Al  0  0  0  0  0  0  0  0  0  0  0  0
    4.4817   -0.6262    1.1444 Cl  0  0  0  0  0  0  0  0  0  0  0  0
    5.3811   -1.9685   -2.1105 Cl  0  0  0  0  0  0  0  0  0  0  0  0
    2.2139   -2.7757   -0.6655 Cl  0  0  0  0  0  0  0  0  0  0  0  0
    2.9958    0.5539   -1.6926 Cl  0  0  0  0  0  0  0  0  0  0  0  0
  2  1  3  0  0  0  0
  3 22  1  0  0  0  0
  4  3  1  0  0  0  0
  5  3  1  0  0  0  0
  6  7  2  0  0  0  0
  6 11  1  0  0  0  0
  7  8  1  0  0  0  0
  8 14  1  0  0  0  0
  8  9  2  0  0  0  0
  9 15  1  0  0  0  0
 10  9  1  0  0  0  0
 10 16  1  0  0  0  0
 11 10  2  0  0  0  0
 12  6  1  0  0  0  0
 13  7  1  0  0  0  0
 17 11  1  0  0  0  0
 18 21  1  0  0  0  0
 18 19  1  0  0  0  0
 20 18  1  0  0  0  0
M  END
