Coordinates from ORCA-job C6H6+AlCl4-+NH2--N2+-scan
 OpenBabel10221816113D

 22 19  0  0  0  0  0  0  0  0999 V2000
    5.2264   -0.0129   -5.6627 N   0  0  0  0  0  0  0  0  0  0  0  0
    5.5743    0.2732   -6.6611 N   0  0  0  0  0  0  0  0  0  0  0  0
    3.0858    0.2602   -3.3769 N   0  0  0  0  0  0  0  0  0  0  0  0
    2.3687   -0.4289   -3.6193 H   0  0  0  0  0  0  0  0  0  0  0  0
    3.9961   -0.1779   -3.5253 H   0  0  0  0  0  0  0  0  0  0  0  0
    1.6634   -1.5753   -6.5932 C   0  0  0  0  0  0  0  0  0  0  0  0
    0.6001   -0.7948   -6.1400 C   0  0  0  0  0  0  0  0  0  0  0  0
    0.0159   -1.0635   -4.9017 C   0  0  0  0  0  0  0  0  0  0  0  0
    0.4977   -2.1122   -4.1153 C   0  0  0  0  0  0  0  0  0  0  0  0
    1.5636   -2.8928   -4.5694 C   0  0  0  0  0  0  0  0  0  0  0  0
    2.1449   -2.6242   -5.8089 C   0  0  0  0  0  0  0  0  0  0  0  0
    2.1144   -1.3681   -7.5575 H   0  0  0  0  0  0  0  0  0  0  0  0
    0.2262    0.0198   -6.7503 H   0  0  0  0  0  0  0  0  0  0  0  0
   -0.8145   -0.4604   -4.5511 H   0  0  0  0  0  0  0  0  0  0  0  0
    0.0447   -2.3280   -3.1542 H   0  0  0  0  0  0  0  0  0  0  0  0
    1.9349   -3.7061   -3.9563 H   0  0  0  0  0  0  0  0  0  0  0  0
    2.9690   -3.2337   -6.1634 H   0  0  0  0  0  0  0  0  0  0  0  0
    3.7491   -1.5884   -0.4964 Al  0  0  0  0  0  0  0  0  0  0  0  0
    4.1622   -0.7196    1.3780 Cl  0  0  0  0  0  0  0  0  0  0  0  0
    5.3695   -2.0544   -1.7821 Cl  0  0  0  0  0  0  0  0  0  0  0  0
    2.0925   -2.8951   -0.6138 Cl  0  0  0  0  0  0  0  0  0  0  0  0
    2.9598    0.4426   -1.6127 Cl  0  0  0  0  0  0  0  0  0  0  0  0
  2  1  3  0  0  0  0
  3 22  1  0  0  0  0
  4  3  1  0  0  0  0
  5  3  1  0  0  0  0
  6  7  2  0  0  0  0
  6 11  1  0  0  0  0
  7  8  1  0  0  0  0
  8 14  1  0  0  0  0
  8  9  2  0  0  0  0
  9 15  1  0  0  0  0
 10  9  1  0  0  0  0
 10 16  1  0  0  0  0
 11 10  2  0  0  0  0
 12  6  1  0  0  0  0
 13  7  1  0  0  0  0
 17 11  1  0  0  0  0
 18 19  1  0  0  0  0
 20 18  1  0  0  0  0
 21 18  1  0  0  0  0
M  END
