Coordinates from ORCA-job C6H6+AlCl4-+NH2--N2+-scan
 OpenBabel10221816113D

 22 19  0  0  0  0  0  0  0  0999 V2000
    4.1931    0.2225   -5.4071 N   0  0  0  0  0  0  0  0  0  0  0  0
    4.4111    1.0375   -6.1086 N   0  0  0  0  0  0  0  0  0  0  0  0
    3.5704    0.1617   -3.3900 N   0  0  0  0  0  0  0  0  0  0  0  0
    2.7866   -0.4132   -3.7239 H   0  0  0  0  0  0  0  0  0  0  0  0
    4.3582   -0.4849   -3.2723 H   0  0  0  0  0  0  0  0  0  0  0  0
    1.6098   -1.8823   -6.8076 C   0  0  0  0  0  0  0  0  0  0  0  0
    0.7639   -0.8709   -6.3531 C   0  0  0  0  0  0  0  0  0  0  0  0
    0.3263   -0.8711   -5.0283 C   0  0  0  0  0  0  0  0  0  0  0  0
    0.7368   -1.8836   -4.1576 C   0  0  0  0  0  0  0  0  0  0  0  0
    1.5883   -2.8932   -4.6132 C   0  0  0  0  0  0  0  0  0  0  0  0
    2.0234   -2.8917   -5.9382 C   0  0  0  0  0  0  0  0  0  0  0  0
    1.9449   -1.8849   -7.8392 H   0  0  0  0  0  0  0  0  0  0  0  0
    0.4406   -0.0883   -7.0307 H   0  0  0  0  0  0  0  0  0  0  0  0
   -0.3424   -0.0925   -4.6775 H   0  0  0  0  0  0  0  0  0  0  0  0
    0.3839   -1.9000   -3.1324 H   0  0  0  0  0  0  0  0  0  0  0  0
    1.9012   -3.6793   -3.9351 H   0  0  0  0  0  0  0  0  0  0  0  0
    2.6794   -3.6788   -6.2935 H   0  0  0  0  0  0  0  0  0  0  0  0
    3.6879   -1.5932   -0.3625 Al  0  0  0  0  0  0  0  0  0  0  0  0
    3.9917   -0.7280    1.5329 Cl  0  0  0  0  0  0  0  0  0  0  0  0
    5.3981   -2.1584   -1.4974 Cl  0  0  0  0  0  0  0  0  0  0  0  0
    2.0140   -2.8657   -0.5901 Cl  0  0  0  0  0  0  0  0  0  0  0  0
    3.0775    0.3975   -1.6081 Cl  0  0  0  0  0  0  0  0  0  0  0  0
  2  1  3  0  0  0  0
  3  5  1  0  0  0  0
  3 22  1  0  0  0  0
  4  3  1  0  0  0  0
  6  7  2  0  0  0  0
  6 11  1  0  0  0  0
  7  8  1  0  0  0  0
  8 14  1  0  0  0  0
  8  9  2  0  0  0  0
  9 15  1  0  0  0  0
 10  9  1  0  0  0  0
 10 16  1  0  0  0  0
 11 10  2  0  0  0  0
 12  6  1  0  0  0  0
 13  7  1  0  0  0  0
 17 11  1  0  0  0  0
 18 19  1  0  0  0  0
 20 18  1  0  0  0  0
 21 18  1  0  0  0  0
M  END
