Coordinates from ORCA-job C6H6+AlCl4-+NH2--N2+-scan
 OpenBabel10221816113D

 22 20  0  0  0  0  0  0  0  0999 V2000
    3.5776   -0.1785   -4.4027 N   0  0  0  0  0  0  0  0  0  0  0  0
    3.9437   -0.5202   -5.3854 N   0  0  0  0  0  0  0  0  0  0  0  0
    3.1532    0.5175   -3.2027 N   0  0  0  0  0  0  0  0  0  0  0  0
    2.4977   -0.1442   -2.7373 H   0  0  0  0  0  0  0  0  0  0  0  0
    4.0288    0.5590   -2.6027 H   0  0  0  0  0  0  0  0  0  0  0  0
    1.7196   -2.3786   -6.6471 C   0  0  0  0  0  0  0  0  0  0  0  0
    1.1094   -1.1467   -6.9004 C   0  0  0  0  0  0  0  0  0  0  0  0
    0.4287   -0.4834   -5.8805 C   0  0  0  0  0  0  0  0  0  0  0  0
    0.3591   -1.0520   -4.6061 C   0  0  0  0  0  0  0  0  0  0  0  0
    0.9677   -2.2848   -4.3530 C   0  0  0  0  0  0  0  0  0  0  0  0
    1.6473   -2.9478   -5.3754 C   0  0  0  0  0  0  0  0  0  0  0  0
    2.2430   -2.8966   -7.4431 H   0  0  0  0  0  0  0  0  0  0  0  0
    1.1577   -0.7124   -7.8930 H   0  0  0  0  0  0  0  0  0  0  0  0
   -0.0565    0.4662   -6.0782 H   0  0  0  0  0  0  0  0  0  0  0  0
   -0.1881   -0.5476   -3.8163 H   0  0  0  0  0  0  0  0  0  0  0  0
    0.9099   -2.7263   -3.3649 H   0  0  0  0  0  0  0  0  0  0  0  0
    2.1216   -3.9018   -5.1769 H   0  0  0  0  0  0  0  0  0  0  0  0
    4.4190   -1.8176   -0.7975 Al  0  0  0  0  0  0  0  0  0  0  0  0
    5.0899   -2.7820    0.9561 Cl  0  0  0  0  0  0  0  0  0  0  0  0
    5.3854    0.1563   -1.0986 Cl  0  0  0  0  0  0  0  0  0  0  0  0
    4.7583   -2.8749   -2.6540 Cl  0  0  0  0  0  0  0  0  0  0  0  0
    2.2714   -1.3442   -0.7743 Cl  0  0  0  0  0  0  0  0  0  0  0  0
  1  3  1  0  0  0  0
  2  1  1  0  0  0  0
  3  4  1  0  0  0  0
  3  5  1  0  0  0  0
  6 11  1  0  0  0  0
  7  6  2  0  0  0  0
  7  8  1  0  0  0  0
  8  9  2  0  0  0  0
  9 10  1  0  0  0  0
  9 15  1  0  0  0  0
 10 16  1  0  0  0  0
 11 17  1  0  0  0  0
 11 10  2  0  0  0  0
 12  6  1  0  0  0  0
 13  7  1  0  0  0  0
 14  8  1  0  0  0  0
 18 22  1  0  0  0  0
 18 19  1  0  0  0  0
 20 18  1  0  0  0  0
 21 18  1  0  0  0  0
M  RAD  2   1   2   2   3
M  END
