Coordinates from ORCA-job C6H6+AlCl4-+NH2--N2+-scan
 OpenBabel10221816113D

 22 19  0  0  0  0  0  0  0  0999 V2000
    5.8083   -0.2267   -5.3081 N   0  0  0  0  0  0  0  0  0  0  0  0
    6.7351   -0.4407   -5.8510 N   0  0  0  0  0  0  0  0  0  0  0  0
    2.7855    0.3422   -3.4484 N   0  0  0  0  0  0  0  0  0  0  0  0
    2.1268   -0.4361   -3.5362 H   0  0  0  0  0  0  0  0  0  0  0  0
    3.6924    0.0150   -3.7873 H   0  0  0  0  0  0  0  0  0  0  0  0
    1.5070   -1.4061   -6.5662 C   0  0  0  0  0  0  0  0  0  0  0  0
    0.3522   -0.7954   -6.0776 C   0  0  0  0  0  0  0  0  0  0  0  0
   -0.2039   -1.2196   -4.8706 C   0  0  0  0  0  0  0  0  0  0  0  0
    0.3970   -2.2538   -4.1501 C   0  0  0  0  0  0  0  0  0  0  0  0
    1.5538   -2.8653   -4.6397 C   0  0  0  0  0  0  0  0  0  0  0  0
    2.1074   -2.4413   -5.8485 C   0  0  0  0  0  0  0  0  0  0  0  0
    1.9367   -1.0778   -7.5063 H   0  0  0  0  0  0  0  0  0  0  0  0
   -0.1134    0.0093   -6.6357 H   0  0  0  0  0  0  0  0  0  0  0  0
   -1.1038   -0.7473   -4.4922 H   0  0  0  0  0  0  0  0  0  0  0  0
   -0.0331   -2.5877   -3.2125 H   0  0  0  0  0  0  0  0  0  0  0  0
    2.0183   -3.6681   -4.0786 H   0  0  0  0  0  0  0  0  0  0  0  0
    3.0025   -2.9197   -6.2307 H   0  0  0  0  0  0  0  0  0  0  0  0
    3.8896   -1.4909   -0.6817 Al  0  0  0  0  0  0  0  0  0  0  0  0
    4.4769   -0.6283    1.1492 Cl  0  0  0  0  0  0  0  0  0  0  0  0
    5.3875   -1.9887   -2.0948 Cl  0  0  0  0  0  0  0  0  0  0  0  0
    2.2050   -2.7673   -0.6679 Cl  0  0  0  0  0  0  0  0  0  0  0  0
    3.0167    0.5539   -1.6986 Cl  0  0  0  0  0  0  0  0  0  0  0  0
  2  1  3  0  0  0  0
  3 22  1  0  0  0  0
  4  3  1  0  0  0  0
  5  3  1  0  0  0  0
  6  7  2  0  0  0  0
  6 11  1  0  0  0  0
  7  8  1  0  0  0  0
  8 14  1  0  0  0  0
  8  9  2  0  0  0  0
  9 15  1  0  0  0  0
 10  9  1  0  0  0  0
 10 16  1  0  0  0  0
 11 10  2  0  0  0  0
 12  6  1  0  0  0  0
 13  7  1  0  0  0  0
 17 11  1  0  0  0  0
 18 21  1  0  0  0  0
 18 19  1  0  0  0  0
 20 18  1  0  0  0  0
M  END
