Coordinates from ORCA-job C6H6+AlCl4-+NH2--N2+-scan
 OpenBabel10221816113D

 22 19  0  0  0  0  0  0  0  0999 V2000
    6.1245   -0.2881   -5.4424 N   0  0  0  0  0  0  0  0  0  0  0  0
    7.1050   -0.5472   -5.8560 N   0  0  0  0  0  0  0  0  0  0  0  0
    2.7000    0.3515   -3.4263 N   0  0  0  0  0  0  0  0  0  0  0  0
    2.0544   -0.4372   -3.5204 H   0  0  0  0  0  0  0  0  0  0  0  0
    3.6120    0.0356   -3.7617 H   0  0  0  0  0  0  0  0  0  0  0  0
    1.4792   -1.3742   -6.5410 C   0  0  0  0  0  0  0  0  0  0  0  0
    0.3051   -0.7957   -6.0587 C   0  0  0  0  0  0  0  0  0  0  0  0
   -0.2558   -1.2480   -4.8643 C   0  0  0  0  0  0  0  0  0  0  0  0
    0.3591   -2.2782   -4.1500 C   0  0  0  0  0  0  0  0  0  0  0  0
    1.5348   -2.8579   -4.6335 C   0  0  0  0  0  0  0  0  0  0  0  0
    2.0936   -2.4056   -5.8296 C   0  0  0  0  0  0  0  0  0  0  0  0
    1.9131   -1.0236   -7.4710 H   0  0  0  0  0  0  0  0  0  0  0  0
   -0.1713    0.0061   -6.6119 H   0  0  0  0  0  0  0  0  0  0  0  0
   -1.1702   -0.8004   -4.4906 H   0  0  0  0  0  0  0  0  0  0  0  0
   -0.0746   -2.6336   -3.2220 H   0  0  0  0  0  0  0  0  0  0  0  0
    2.0103   -3.6576   -4.0772 H   0  0  0  0  0  0  0  0  0  0  0  0
    3.0039   -2.8585   -6.2067 H   0  0  0  0  0  0  0  0  0  0  0  0
    3.8892   -1.4707   -0.7000 Al  0  0  0  0  0  0  0  0  0  0  0  0
    4.4769   -0.6168    1.1343 Cl  0  0  0  0  0  0  0  0  0  0  0  0
    5.3787   -1.8851   -2.1494 Cl  0  0  0  0  0  0  0  0  0  0  0  0
    2.2535   -2.8089   -0.6815 Cl  0  0  0  0  0  0  0  0  0  0  0  0
    2.9233    0.5533   -1.6737 Cl  0  0  0  0  0  0  0  0  0  0  0  0
  2  1  3  0  0  0  0
  3 22  1  0  0  0  0
  4  3  1  0  0  0  0
  5  3  1  0  0  0  0
  6  7  2  0  0  0  0
  6 11  1  0  0  0  0
  7  8  1  0  0  0  0
  8 14  1  0  0  0  0
  8  9  2  0  0  0  0
  9 15  1  0  0  0  0
 10  9  1  0  0  0  0
 10 16  1  0  0  0  0
 11 10  2  0  0  0  0
 12  6  1  0  0  0  0
 13  7  1  0  0  0  0
 17 11  1  0  0  0  0
 18 21  1  0  0  0  0
 18 19  1  0  0  0  0
 20 18  1  0  0  0  0
M  END
