Coordinates from ORCA-job C6H6+AlCl4-+NH2--N2+-scan
 OpenBabel10221816123D

 22 19  0  0  0  0  0  0  0  0999 V2000
    6.1765   -2.6280   -5.6041 N   0  0  0  0  0  0  0  0  0  0  0  0
    7.1078   -2.9236   -5.1088 N   0  0  0  0  0  0  0  0  0  0  0  0
    1.8441    0.5718   -3.0559 N   0  0  0  0  0  0  0  0  0  0  0  0
    1.5668   -0.3702   -3.3457 H   0  0  0  0  0  0  0  0  0  0  0  0
    2.7823    0.7315   -3.4283 H   0  0  0  0  0  0  0  0  0  0  0  0
    1.3785   -0.8020   -6.4408 C   0  0  0  0  0  0  0  0  0  0  0  0
    0.0832   -0.8538   -5.9248 C   0  0  0  0  0  0  0  0  0  0  0  0
   -0.2253   -1.7522   -4.9029 C   0  0  0  0  0  0  0  0  0  0  0  0
    0.7634   -2.5972   -4.3944 C   0  0  0  0  0  0  0  0  0  0  0  0
    2.0599   -2.5453   -4.9121 C   0  0  0  0  0  0  0  0  0  0  0  0
    2.3670   -1.6483   -5.9362 C   0  0  0  0  0  0  0  0  0  0  0  0
    1.6161   -0.1059   -7.2378 H   0  0  0  0  0  0  0  0  0  0  0  0
   -0.6838   -0.1960   -6.3179 H   0  0  0  0  0  0  0  0  0  0  0  0
   -1.2331   -1.7954   -4.5046 H   0  0  0  0  0  0  0  0  0  0  0  0
    0.5270   -3.2985   -3.6018 H   0  0  0  0  0  0  0  0  0  0  0  0
    2.8266   -3.2011   -4.5161 H   0  0  0  0  0  0  0  0  0  0  0  0
    3.3736   -1.6145   -6.3377 H   0  0  0  0  0  0  0  0  0  0  0  0
    4.0575   -0.9631   -0.8761 Al  0  0  0  0  0  0  0  0  0  0  0  0
    4.4272   -0.3385    1.1006 Cl  0  0  0  0  0  0  0  0  0  0  0  0
    5.3117   -0.2332   -2.4247 Cl  0  0  0  0  0  0  0  0  0  0  0  0
    3.3165   -2.9201   -1.1649 Cl  0  0  0  0  0  0  0  0  0  0  0  0
    2.1010    0.4430   -1.2987 Cl  0  0  0  0  0  0  0  0  0  0  0  0
  1  2  3  0  0  0  0
  3 22  1  0  0  0  0
  4  3  1  0  0  0  0
  5  3  1  0  0  0  0
  6 11  2  0  0  0  0
  6  7  1  0  0  0  0
  7  8  2  0  0  0  0
  8 14  1  0  0  0  0
  8  9  1  0  0  0  0
  9 15  1  0  0  0  0
 10 16  1  0  0  0  0
 10  9  2  0  0  0  0
 11 10  1  0  0  0  0
 12  6  1  0  0  0  0
 13  7  1  0  0  0  0
 17 11  1  0  0  0  0
 18 19  1  0  0  0  0
 20 18  1  0  0  0  0
 21 18  1  0  0  0  0
M  END
