Coordinates from ORCA-job C6H6+AlCl4-+NH2--N2+-scan
 OpenBabel10221816113D

 22 19  0  0  0  0  0  0  0  0999 V2000
    4.3013    0.2122   -5.6274 N   0  0  0  0  0  0  0  0  0  0  0  0
    4.4270    0.9940   -6.3846 N   0  0  0  0  0  0  0  0  0  0  0  0
    3.5392    0.1991   -3.2753 N   0  0  0  0  0  0  0  0  0  0  0  0
    2.7810   -0.3815   -3.6485 H   0  0  0  0  0  0  0  0  0  0  0  0
    4.3724   -0.3928   -3.2385 H   0  0  0  0  0  0  0  0  0  0  0  0
    1.5966   -1.8723   -6.8085 C   0  0  0  0  0  0  0  0  0  0  0  0
    0.7449   -0.8700   -6.3453 C   0  0  0  0  0  0  0  0  0  0  0  0
    0.3177   -0.8771   -5.0173 C   0  0  0  0  0  0  0  0  0  0  0  0
    0.7443   -1.8876   -4.1522 C   0  0  0  0  0  0  0  0  0  0  0  0
    1.6019   -2.8880   -4.6165 C   0  0  0  0  0  0  0  0  0  0  0  0
    2.0266   -2.8796   -5.9447 C   0  0  0  0  0  0  0  0  0  0  0  0
    1.9238   -1.8694   -7.8426 H   0  0  0  0  0  0  0  0  0  0  0  0
    0.4098   -0.0886   -7.0184 H   0  0  0  0  0  0  0  0  0  0  0  0
   -0.3552   -0.1051   -4.6597 H   0  0  0  0  0  0  0  0  0  0  0  0
    0.3981   -1.9108   -3.1247 H   0  0  0  0  0  0  0  0  0  0  0  0
    1.9272   -3.6728   -3.9428 H   0  0  0  0  0  0  0  0  0  0  0  0
    2.6875   -3.6594   -6.3068 H   0  0  0  0  0  0  0  0  0  0  0  0
    3.6759   -1.6413   -0.3123 Al  0  0  0  0  0  0  0  0  0  0  0  0
    3.9161   -0.7752    1.5914 Cl  0  0  0  0  0  0  0  0  0  0  0  0
    5.4106   -2.1774   -1.4131 Cl  0  0  0  0  0  0  0  0  0  0  0  0
    1.9998   -2.8940   -0.6052 Cl  0  0  0  0  0  0  0  0  0  0  0  0
    3.0981    0.3969   -1.5405 Cl  0  0  0  0  0  0  0  0  0  0  0  0
  2  1  3  0  0  0  0
  3  5  1  0  0  0  0
  3 22  1  0  0  0  0
  4  3  1  0  0  0  0
  6  7  2  0  0  0  0
  6 11  1  0  0  0  0
  7  8  1  0  0  0  0
  8 14  1  0  0  0  0
  8  9  2  0  0  0  0
  9 15  1  0  0  0  0
 10  9  1  0  0  0  0
 10 16  1  0  0  0  0
 11 10  2  0  0  0  0
 12  6  1  0  0  0  0
 13  7  1  0  0  0  0
 17 11  1  0  0  0  0
 18 19  1  0  0  0  0
 20 18  1  0  0  0  0
 21 18  1  0  0  0  0
M  END
