Coordinates from ORCA-job C6H6+AlCl4-+NH2--N2+-scan
 OpenBabel10221816113D

 22 19  0  0  0  0  0  0  0  0999 V2000
    4.3723    0.2107   -5.6996 N   0  0  0  0  0  0  0  0  0  0  0  0
    4.4645    0.9683   -6.4856 N   0  0  0  0  0  0  0  0  0  0  0  0
    3.5078    0.2088   -3.2553 N   0  0  0  0  0  0  0  0  0  0  0  0
    2.7583   -0.3781   -3.6349 H   0  0  0  0  0  0  0  0  0  0  0  0
    4.3548   -0.3631   -3.2378 H   0  0  0  0  0  0  0  0  0  0  0  0
    1.6026   -1.8624   -6.7958 C   0  0  0  0  0  0  0  0  0  0  0  0
    0.7418   -0.8667   -6.3350 C   0  0  0  0  0  0  0  0  0  0  0  0
    0.3079   -0.8793   -5.0093 C   0  0  0  0  0  0  0  0  0  0  0  0
    0.7368   -1.8885   -4.1440 C   0  0  0  0  0  0  0  0  0  0  0  0
    1.6033   -2.8825   -4.6057 C   0  0  0  0  0  0  0  0  0  0  0  0
    2.0347   -2.8686   -5.9318 C   0  0  0  0  0  0  0  0  0  0  0  0
    1.9352   -1.8551   -7.8281 H   0  0  0  0  0  0  0  0  0  0  0  0
    0.4051   -0.0860   -7.0083 H   0  0  0  0  0  0  0  0  0  0  0  0
   -0.3714   -0.1121   -4.6534 H   0  0  0  0  0  0  0  0  0  0  0  0
    0.3862   -1.9154   -3.1181 H   0  0  0  0  0  0  0  0  0  0  0  0
    1.9307   -3.6662   -3.9318 H   0  0  0  0  0  0  0  0  0  0  0  0
    2.7027   -3.6433   -6.2919 H   0  0  0  0  0  0  0  0  0  0  0  0
    3.6725   -1.6580   -0.3115 Al  0  0  0  0  0  0  0  0  0  0  0  0
    3.9053   -0.7986    1.5963 Cl  0  0  0  0  0  0  0  0  0  0  0  0
    5.4098   -2.1730   -1.4165 Cl  0  0  0  0  0  0  0  0  0  0  0  0
    2.0044   -2.9196   -0.6110 Cl  0  0  0  0  0  0  0  0  0  0  0  0
    3.0792    0.3881   -1.5245 Cl  0  0  0  0  0  0  0  0  0  0  0  0
  2  1  3  0  0  0  0
  3  5  1  0  0  0  0
  3 22  1  0  0  0  0
  4  3  1  0  0  0  0
  6  7  2  0  0  0  0
  6 11  1  0  0  0  0
  7  8  1  0  0  0  0
  8 14  1  0  0  0  0
  8  9  2  0  0  0  0
  9 15  1  0  0  0  0
 10  9  1  0  0  0  0
 10 16  1  0  0  0  0
 11 10  2  0  0  0  0
 12  6  1  0  0  0  0
 13  7  1  0  0  0  0
 17 11  1  0  0  0  0
 18 19  1  0  0  0  0
 20 18  1  0  0  0  0
 21 18  1  0  0  0  0
M  END
