Coordinates from ORCA-job C6H6+AlCl4-+NH2--N2+-scan
 OpenBabel10221816123D

 22 19  0  0  0  0  0  0  0  0999 V2000
    6.4819   -2.6970   -6.6098 N   0  0  0  0  0  0  0  0  0  0  0  0
    7.5215   -3.0388   -6.5609 N   0  0  0  0  0  0  0  0  0  0  0  0
    1.6789    0.6433   -2.9518 N   0  0  0  0  0  0  0  0  0  0  0  0
    1.4266   -0.3015   -3.2559 H   0  0  0  0  0  0  0  0  0  0  0  0
    2.6336    0.8140   -3.2743 H   0  0  0  0  0  0  0  0  0  0  0  0
    1.5971   -0.9362   -6.3839 C   0  0  0  0  0  0  0  0  0  0  0  0
    0.2740   -0.8576   -5.9488 C   0  0  0  0  0  0  0  0  0  0  0  0
   -0.1649   -1.6679   -4.9006 C   0  0  0  0  0  0  0  0  0  0  0  0
    0.7227   -2.5526   -4.2842 C   0  0  0  0  0  0  0  0  0  0  0  0
    2.0476   -2.6302   -4.7206 C   0  0  0  0  0  0  0  0  0  0  0  0
    2.4842   -1.8233   -5.7719 C   0  0  0  0  0  0  0  0  0  0  0  0
    1.9358   -0.3103   -7.2023 H   0  0  0  0  0  0  0  0  0  0  0  0
   -0.4143   -0.1688   -6.4258 H   0  0  0  0  0  0  0  0  0  0  0  0
   -1.1950   -1.6116   -4.5663 H   0  0  0  0  0  0  0  0  0  0  0  0
    0.3847   -3.1861   -3.4715 H   0  0  0  0  0  0  0  0  0  0  0  0
    2.7345   -3.3168   -4.2397 H   0  0  0  0  0  0  0  0  0  0  0  0
    3.5103   -1.8915   -6.1165 H   0  0  0  0  0  0  0  0  0  0  0  0
    3.7914   -0.8603   -0.6411 Al  0  0  0  0  0  0  0  0  0  0  0  0
    4.0631   -0.1858    1.3355 Cl  0  0  0  0  0  0  0  0  0  0  0  0
    5.1065   -0.1499   -2.1472 Cl  0  0  0  0  0  0  0  0  0  0  0  0
    3.0815   -2.8309   -0.9124 Cl  0  0  0  0  0  0  0  0  0  0  0  0
    1.8429    0.5195   -1.1837 Cl  0  0  0  0  0  0  0  0  0  0  0  0
  1  2  3  0  0  0  0
  3 22  1  0  0  0  0
  4  3  1  0  0  0  0
  5  3  1  0  0  0  0
  6  7  2  0  0  0  0
  6 11  1  0  0  0  0
  7  8  1  0  0  0  0
  8 14  1  0  0  0  0
  8  9  2  0  0  0  0
  9 15  1  0  0  0  0
 10  9  1  0  0  0  0
 10 16  1  0  0  0  0
 11 10  2  0  0  0  0
 12  6  1  0  0  0  0
 13  7  1  0  0  0  0
 17 11  1  0  0  0  0
 18 19  1  0  0  0  0
 20 18  1  0  0  0  0
 21 18  1  0  0  0  0
M  END
