Coordinates from ORCA-job C6H6+AlCl4-+NH2--N2+-scan
 OpenBabel10221816123D

 22 19  0  0  0  0  0  0  0  0999 V2000
    6.4869   -2.8841   -6.0126 N   0  0  0  0  0  0  0  0  0  0  0  0
    7.4564   -3.1965   -5.6093 N   0  0  0  0  0  0  0  0  0  0  0  0
    1.6897    0.6076   -2.9670 N   0  0  0  0  0  0  0  0  0  0  0  0
    1.4577   -0.3374   -3.2851 H   0  0  0  0  0  0  0  0  0  0  0  0
    2.6257    0.8176   -3.3197 H   0  0  0  0  0  0  0  0  0  0  0  0
    1.4277   -0.8152   -6.4267 C   0  0  0  0  0  0  0  0  0  0  0  0
    0.1355   -0.8265   -5.9012 C   0  0  0  0  0  0  0  0  0  0  0  0
   -0.1921   -1.7125   -4.8738 C   0  0  0  0  0  0  0  0  0  0  0  0
    0.7755   -2.5839   -4.3689 C   0  0  0  0  0  0  0  0  0  0  0  0
    2.0691   -2.5719   -4.8962 C   0  0  0  0  0  0  0  0  0  0  0  0
    2.3944   -1.6888   -5.9261 C   0  0  0  0  0  0  0  0  0  0  0  0
    1.6800   -0.1298   -7.2284 H   0  0  0  0  0  0  0  0  0  0  0  0
   -0.6149   -0.1480   -6.2912 H   0  0  0  0  0  0  0  0  0  0  0  0
   -1.1980   -1.7252   -4.4687 H   0  0  0  0  0  0  0  0  0  0  0  0
    0.5242   -3.2753   -3.5723 H   0  0  0  0  0  0  0  0  0  0  0  0
    2.8189   -3.2484   -4.5029 H   0  0  0  0  0  0  0  0  0  0  0  0
    3.3975   -1.6872   -6.3380 H   0  0  0  0  0  0  0  0  0  0  0  0
    3.9443   -0.8794   -0.7936 Al  0  0  0  0  0  0  0  0  0  0  0  0
    4.2696   -0.2702    1.1958 Cl  0  0  0  0  0  0  0  0  0  0  0  0
    5.1733   -0.0656   -2.3201 Cl  0  0  0  0  0  0  0  0  0  0  0  0
    3.2960   -2.8633   -1.1177 Cl  0  0  0  0  0  0  0  0  0  0  0  0
    1.9272    0.4432   -1.2098 Cl  0  0  0  0  0  0  0  0  0  0  0  0
  1  2  3  0  0  0  0
  3 22  1  0  0  0  0
  4  3  1  0  0  0  0
  5  3  1  0  0  0  0
  6 11  2  0  0  0  0
  6  7  1  0  0  0  0
  7  8  2  0  0  0  0
  8 14  1  0  0  0  0
  8  9  1  0  0  0  0
  9 15  1  0  0  0  0
 10 16  1  0  0  0  0
 10  9  2  0  0  0  0
 11 10  1  0  0  0  0
 12  6  1  0  0  0  0
 13  7  1  0  0  0  0
 17 11  1  0  0  0  0
 18 19  1  0  0  0  0
 20 18  1  0  0  0  0
 21 18  1  0  0  0  0
M  END
