Coordinates from ORCA-job C6H6+AlCl4-+NH2--N2+-scan
 OpenBabel10221816123D

 22 19  0  0  0  0  0  0  0  0999 V2000
    7.2057   -0.5911   -5.6378 N   0  0  0  0  0  0  0  0  0  0  0  0
    8.1961   -0.9524   -5.3400 N   0  0  0  0  0  0  0  0  0  0  0  0
    2.4263    0.4013   -3.4062 N   0  0  0  0  0  0  0  0  0  0  0  0
    1.8317   -0.4256   -3.5102 H   0  0  0  0  0  0  0  0  0  0  0  0
    3.3488    0.1469   -3.7647 H   0  0  0  0  0  0  0  0  0  0  0  0
    1.3146   -1.2648   -6.4789 C   0  0  0  0  0  0  0  0  0  0  0  0
    0.0985   -0.8007   -5.9771 C   0  0  0  0  0  0  0  0  0  0  0  0
   -0.4364   -1.3604   -4.8165 C   0  0  0  0  0  0  0  0  0  0  0  0
    0.2467   -2.3833   -4.1556 C   0  0  0  0  0  0  0  0  0  0  0  0
    1.4639   -2.8489   -4.6588 C   0  0  0  0  0  0  0  0  0  0  0  0
    1.9968   -2.2894   -5.8212 C   0  0  0  0  0  0  0  0  0  0  0  0
    1.7287   -0.8307   -7.3823 H   0  0  0  0  0  0  0  0  0  0  0  0
   -0.4305   -0.0043   -6.4884 H   0  0  0  0  0  0  0  0  0  0  0  0
   -1.3831   -1.0017   -4.4279 H   0  0  0  0  0  0  0  0  0  0  0  0
   -0.1670   -2.8214   -3.2541 H   0  0  0  0  0  0  0  0  0  0  0  0
    1.9927   -3.6426   -4.1437 H   0  0  0  0  0  0  0  0  0  0  0  0
    2.9401   -2.6531   -6.2135 H   0  0  0  0  0  0  0  0  0  0  0  0
    3.9748   -1.3578   -0.8527 Al  0  0  0  0  0  0  0  0  0  0  0  0
    4.5697   -0.5347    0.9923 Cl  0  0  0  0  0  0  0  0  0  0  0  0
    5.3990   -1.4660   -2.4220 Cl  0  0  0  0  0  0  0  0  0  0  0  0
    2.5483   -2.9157   -0.8238 Cl  0  0  0  0  0  0  0  0  0  0  0  0
    2.6790    0.5556   -1.6505 Cl  0  0  0  0  0  0  0  0  0  0  0  0
  1  2  3  0  0  0  0
  3 22  1  0  0  0  0
  4  3  1  0  0  0  0
  5  3  1  0  0  0  0
  6  7  2  0  0  0  0
  6 11  1  0  0  0  0
  7  8  1  0  0  0  0
  8 14  1  0  0  0  0
  8  9  2  0  0  0  0
  9 15  1  0  0  0  0
 10  9  1  0  0  0  0
 10 16  1  0  0  0  0
 11 10  2  0  0  0  0
 12  6  1  0  0  0  0
 13  7  1  0  0  0  0
 17 11  1  0  0  0  0
 18 21  1  0  0  0  0
 18 19  1  0  0  0  0
 20 18  1  0  0  0  0
M  END
