Coordinates from ORCA-job C6H6+AlCl4-+NH2--N2+-scan
 OpenBabel10221816113D

 22 19  0  0  0  0  0  0  0  0999 V2000
    7.0452   -0.4733   -5.6306 N   0  0  0  0  0  0  0  0  0  0  0  0
    8.0847   -0.8188   -5.6479 N   0  0  0  0  0  0  0  0  0  0  0  0
    2.4720    0.3884   -3.3854 N   0  0  0  0  0  0  0  0  0  0  0  0
    1.8647   -0.4289   -3.4917 H   0  0  0  0  0  0  0  0  0  0  0  0
    3.3936    0.1191   -3.7348 H   0  0  0  0  0  0  0  0  0  0  0  0
    1.3594   -1.3026   -6.4910 C   0  0  0  0  0  0  0  0  0  0  0  0
    0.1491   -0.8049   -6.0078 C   0  0  0  0  0  0  0  0  0  0  0  0
   -0.4031   -1.3278   -4.8383 C   0  0  0  0  0  0  0  0  0  0  0  0
    0.2568   -2.3477   -4.1498 C   0  0  0  0  0  0  0  0  0  0  0  0
    1.4684   -2.8468   -4.6344 C   0  0  0  0  0  0  0  0  0  0  0  0
    2.0186   -2.3240   -5.8056 C   0  0  0  0  0  0  0  0  0  0  0  0
    1.7868   -0.8971   -7.4015 H   0  0  0  0  0  0  0  0  0  0  0  0
   -0.3622   -0.0110   -6.5408 H   0  0  0  0  0  0  0  0  0  0  0  0
   -1.3454   -0.9429   -4.4641 H   0  0  0  0  0  0  0  0  0  0  0  0
   -0.1703   -2.7576   -3.2414 H   0  0  0  0  0  0  0  0  0  0  0  0
    1.9791   -3.6382   -4.0978 H   0  0  0  0  0  0  0  0  0  0  0  0
    2.9574   -2.7138   -6.1833 H   0  0  0  0  0  0  0  0  0  0  0  0
    3.9305   -1.4000   -0.7959 Al  0  0  0  0  0  0  0  0  0  0  0  0
    4.5272   -0.5768    1.0488 Cl  0  0  0  0  0  0  0  0  0  0  0  0
    5.3720   -1.5774   -2.3419 Cl  0  0  0  0  0  0  0  0  0  0  0  0
    2.4492   -2.9065   -0.7693 Cl  0  0  0  0  0  0  0  0  0  0  0  0
    2.7108    0.5479   -1.6288 Cl  0  0  0  0  0  0  0  0  0  0  0  0
  2  1  3  0  0  0  0
  3 22  1  0  0  0  0
  4  3  1  0  0  0  0
  5  3  1  0  0  0  0
  6  7  2  0  0  0  0
  6 11  1  0  0  0  0
  7  8  1  0  0  0  0
  8 14  1  0  0  0  0
  8  9  2  0  0  0  0
  9 15  1  0  0  0  0
 10  9  1  0  0  0  0
 10 16  1  0  0  0  0
 11 10  2  0  0  0  0
 12  6  1  0  0  0  0
 13  7  1  0  0  0  0
 17 11  1  0  0  0  0
 18 21  1  0  0  0  0
 18 19  1  0  0  0  0
 20 18  1  0  0  0  0
M  END
