Coordinates from ORCA-job C6H6+AlCl4-+NH2--N2+-scan
 OpenBabel10221816113D

 22 19  0  0  0  0  0  0  0  0999 V2000
    6.8790   -0.4038   -5.6301 N   0  0  0  0  0  0  0  0  0  0  0  0
    7.9209   -0.7286   -5.7249 N   0  0  0  0  0  0  0  0  0  0  0  0
    2.5162    0.3753   -3.3880 N   0  0  0  0  0  0  0  0  0  0  0  0
    1.8965   -0.4328   -3.4929 H   0  0  0  0  0  0  0  0  0  0  0  0
    3.4356    0.0898   -3.7305 H   0  0  0  0  0  0  0  0  0  0  0  0
    1.3931   -1.3246   -6.4949 C   0  0  0  0  0  0  0  0  0  0  0  0
    0.1888   -0.8024   -6.0228 C   0  0  0  0  0  0  0  0  0  0  0  0
   -0.3775   -1.3044   -4.8509 C   0  0  0  0  0  0  0  0  0  0  0  0
    0.2623   -2.3280   -4.1489 C   0  0  0  0  0  0  0  0  0  0  0  0
    1.4678   -2.8517   -4.6224 C   0  0  0  0  0  0  0  0  0  0  0  0
    2.0322   -2.3497   -5.7961 C   0  0  0  0  0  0  0  0  0  0  0  0
    1.8315   -0.9353   -7.4073 H   0  0  0  0  0  0  0  0  0  0  0  0
   -0.3069   -0.0057   -6.5663 H   0  0  0  0  0  0  0  0  0  0  0  0
   -1.3152   -0.9005   -4.4853 H   0  0  0  0  0  0  0  0  0  0  0  0
   -0.1759   -2.7217   -3.2386 H   0  0  0  0  0  0  0  0  0  0  0  0
    1.9629   -3.6458   -4.0755 H   0  0  0  0  0  0  0  0  0  0  0  0
    2.9664   -2.7585   -6.1651 H   0  0  0  0  0  0  0  0  0  0  0  0
    3.9209   -1.4217   -0.7744 Al  0  0  0  0  0  0  0  0  0  0  0  0
    4.5213   -0.5966    1.0681 Cl  0  0  0  0  0  0  0  0  0  0  0  0
    5.3692   -1.6396   -2.3088 Cl  0  0  0  0  0  0  0  0  0  0  0  0
    2.4094   -2.8979   -0.7467 Cl  0  0  0  0  0  0  0  0  0  0  0  0
    2.7461    0.5435   -1.6313 Cl  0  0  0  0  0  0  0  0  0  0  0  0
  2  1  3  0  0  0  0
  3 22  1  0  0  0  0
  4  3  1  0  0  0  0
  5  3  1  0  0  0  0
  6  7  2  0  0  0  0
  6 11  1  0  0  0  0
  7  8  1  0  0  0  0
  8 14  1  0  0  0  0
  8  9  2  0  0  0  0
  9 15  1  0  0  0  0
 10  9  1  0  0  0  0
 10 16  1  0  0  0  0
 11 10  2  0  0  0  0
 12  6  1  0  0  0  0
 13  7  1  0  0  0  0
 17 11  1  0  0  0  0
 18 21  1  0  0  0  0
 18 19  1  0  0  0  0
 20 18  1  0  0  0  0
M  END
