Coordinates from ORCA-job C6H6+AlCl4-+NH2--N2+-scan
 OpenBabel10221816113D

 22 19  0  0  0  0  0  0  0  0999 V2000
    5.8448   -0.2325   -5.3241 N   0  0  0  0  0  0  0  0  0  0  0  0
    6.7789   -0.4539   -5.8512 N   0  0  0  0  0  0  0  0  0  0  0  0
    2.7753    0.3436   -3.4456 N   0  0  0  0  0  0  0  0  0  0  0  0
    2.1181   -0.4360   -3.5342 H   0  0  0  0  0  0  0  0  0  0  0  0
    3.6829    0.0177   -3.7840 H   0  0  0  0  0  0  0  0  0  0  0  0
    1.5039   -1.4029   -6.5634 C   0  0  0  0  0  0  0  0  0  0  0  0
    0.3469   -0.7955   -6.0756 C   0  0  0  0  0  0  0  0  0  0  0  0
   -0.2099   -1.2227   -4.8700 C   0  0  0  0  0  0  0  0  0  0  0  0
    0.3924   -2.2565   -4.1501 C   0  0  0  0  0  0  0  0  0  0  0  0
    1.5513   -2.8646   -4.6389 C   0  0  0  0  0  0  0  0  0  0  0  0
    2.1057   -2.4377   -5.8462 C   0  0  0  0  0  0  0  0  0  0  0  0
    1.9343   -1.0722   -7.5024 H   0  0  0  0  0  0  0  0  0  0  0  0
   -0.1197    0.0088   -6.6333 H   0  0  0  0  0  0  0  0  0  0  0  0
   -1.1114   -0.7530   -4.4922 H   0  0  0  0  0  0  0  0  0  0  0  0
   -0.0382   -2.5926   -3.2136 H   0  0  0  0  0  0  0  0  0  0  0  0
    2.0169   -3.6671   -4.0782 H   0  0  0  0  0  0  0  0  0  0  0  0
    3.0025   -2.9133   -6.2278 H   0  0  0  0  0  0  0  0  0  0  0  0
    3.8897   -1.4886   -0.6838 Al  0  0  0  0  0  0  0  0  0  0  0  0
    4.4771   -0.6273    1.1475 Cl  0  0  0  0  0  0  0  0  0  0  0  0
    5.3864   -1.9757   -2.1019 Cl  0  0  0  0  0  0  0  0  0  0  0  0
    2.2111   -2.7728   -0.6693 Cl  0  0  0  0  0  0  0  0  0  0  0  0
    3.0054    0.5541   -1.6955 Cl  0  0  0  0  0  0  0  0  0  0  0  0
  2  1  3  0  0  0  0
  3 22  1  0  0  0  0
  4  3  1  0  0  0  0
  5  3  1  0  0  0  0
  6  7  2  0  0  0  0
  6 11  1  0  0  0  0
  7  8  1  0  0  0  0
  8 14  1  0  0  0  0
  8  9  2  0  0  0  0
  9 15  1  0  0  0  0
 10  9  1  0  0  0  0
 10 16  1  0  0  0  0
 11 10  2  0  0  0  0
 12  6  1  0  0  0  0
 13  7  1  0  0  0  0
 17 11  1  0  0  0  0
 18 21  1  0  0  0  0
 18 19  1  0  0  0  0
 20 18  1  0  0  0  0
M  END
