Coordinates from ORCA-job C6H6+AlCl4-+NH2--N2+-scan
 OpenBabel10221816113D

 22 19  0  0  0  0  0  0  0  0999 V2000
    6.3362   -0.3326   -5.5191 N   0  0  0  0  0  0  0  0  0  0  0  0
    7.3462   -0.6055   -5.8437 N   0  0  0  0  0  0  0  0  0  0  0  0
    2.6460    0.3564   -3.4107 N   0  0  0  0  0  0  0  0  0  0  0  0
    2.0074   -0.4375   -3.5095 H   0  0  0  0  0  0  0  0  0  0  0  0
    3.5617    0.0470   -3.7423 H   0  0  0  0  0  0  0  0  0  0  0  0
    1.4591   -1.3570   -6.5252 C   0  0  0  0  0  0  0  0  0  0  0  0
    0.2742   -0.7960   -6.0487 C   0  0  0  0  0  0  0  0  0  0  0  0
   -0.2915   -1.2640   -4.8625 C   0  0  0  0  0  0  0  0  0  0  0  0
    0.3296   -2.2924   -4.1508 C   0  0  0  0  0  0  0  0  0  0  0  0
    1.5159   -2.8547   -4.6286 C   0  0  0  0  0  0  0  0  0  0  0  0
    2.0795   -2.3867   -5.8165 C   0  0  0  0  0  0  0  0  0  0  0  0
    1.8970   -0.9941   -7.4486 H   0  0  0  0  0  0  0  0  0  0  0  0
   -0.2068    0.0043   -6.5998 H   0  0  0  0  0  0  0  0  0  0  0  0
   -1.2142   -0.8301   -4.4934 H   0  0  0  0  0  0  0  0  0  0  0  0
   -0.1080   -2.6598   -3.2293 H   0  0  0  0  0  0  0  0  0  0  0  0
    1.9962   -3.6528   -4.0742 H   0  0  0  0  0  0  0  0  0  0  0  0
    2.9985   -2.8257   -6.1890 H   0  0  0  0  0  0  0  0  0  0  0  0
    3.8956   -1.4554   -0.7166 Al  0  0  0  0  0  0  0  0  0  0  0  0
    4.4811   -0.6127    1.1233 Cl  0  0  0  0  0  0  0  0  0  0  0  0
    5.3782   -1.8014   -2.1921 Cl  0  0  0  0  0  0  0  0  0  0  0  0
    2.3004   -2.8413   -0.7002 Cl  0  0  0  0  0  0  0  0  0  0  0  0
    2.8622    0.5515   -1.6561 Cl  0  0  0  0  0  0  0  0  0  0  0  0
  2  1  3  0  0  0  0
  3 22  1  0  0  0  0
  4  3  1  0  0  0  0
  5  3  1  0  0  0  0
  6  7  2  0  0  0  0
  6 11  1  0  0  0  0
  7  8  1  0  0  0  0
  8 14  1  0  0  0  0
  8  9  2  0  0  0  0
  9 15  1  0  0  0  0
 10  9  1  0  0  0  0
 10 16  1  0  0  0  0
 11 10  2  0  0  0  0
 12  6  1  0  0  0  0
 13  7  1  0  0  0  0
 17 11  1  0  0  0  0
 18 21  1  0  0  0  0
 18 19  1  0  0  0  0
 20 18  1  0  0  0  0
M  END
