Coordinates from ORCA-job C6H6+AlCl4-+NH2--N2+-scan
 OpenBabel10221816113D

 22 19  0  0  0  0  0  0  0  0999 V2000
    4.2840    0.2130   -5.5878 N   0  0  0  0  0  0  0  0  0  0  0  0
    4.4150    1.0049   -6.3338 N   0  0  0  0  0  0  0  0  0  0  0  0
    3.5466    0.1935   -3.2910 N   0  0  0  0  0  0  0  0  0  0  0  0
    2.7851   -0.3861   -3.6594 H   0  0  0  0  0  0  0  0  0  0  0  0
    4.3746   -0.4055   -3.2442 H   0  0  0  0  0  0  0  0  0  0  0  0
    1.5961   -1.8758   -6.8108 C   0  0  0  0  0  0  0  0  0  0  0  0
    0.7468   -0.8712   -6.3482 C   0  0  0  0  0  0  0  0  0  0  0  0
    0.3204   -0.8759   -5.0199 C   0  0  0  0  0  0  0  0  0  0  0  0
    0.7454   -1.8863   -4.1540 C   0  0  0  0  0  0  0  0  0  0  0  0
    1.6004   -2.8891   -4.6175 C   0  0  0  0  0  0  0  0  0  0  0  0
    2.0244   -2.8831   -5.9460 C   0  0  0  0  0  0  0  0  0  0  0  0
    1.9227   -1.8748   -7.8450 H   0  0  0  0  0  0  0  0  0  0  0  0
    0.4129   -0.0898   -7.0220 H   0  0  0  0  0  0  0  0  0  0  0  0
   -0.3506   -0.1022   -4.6627 H   0  0  0  0  0  0  0  0  0  0  0  0
    0.4000   -1.9074   -3.1262 H   0  0  0  0  0  0  0  0  0  0  0  0
    1.9245   -3.6738   -3.9431 H   0  0  0  0  0  0  0  0  0  0  0  0
    2.6833   -3.6648   -6.3076 H   0  0  0  0  0  0  0  0  0  0  0  0
    3.6779   -1.6346   -0.3189 Al  0  0  0  0  0  0  0  0  0  0  0  0
    3.9241   -0.7651    1.5826 Cl  0  0  0  0  0  0  0  0  0  0  0  0
    5.4102   -2.1776   -1.4210 Cl  0  0  0  0  0  0  0  0  0  0  0  0
    2.0002   -2.8871   -0.6042 Cl  0  0  0  0  0  0  0  0  0  0  0  0
    3.1006    0.3981   -1.5530 Cl  0  0  0  0  0  0  0  0  0  0  0  0
  2  1  3  0  0  0  0
  3  5  1  0  0  0  0
  3 22  1  0  0  0  0
  4  3  1  0  0  0  0
  6  7  2  0  0  0  0
  6 11  1  0  0  0  0
  7  8  1  0  0  0  0
  8 14  1  0  0  0  0
  8  9  2  0  0  0  0
  9 15  1  0  0  0  0
 10  9  1  0  0  0  0
 10 16  1  0  0  0  0
 11 10  2  0  0  0  0
 12  6  1  0  0  0  0
 13  7  1  0  0  0  0
 17 11  1  0  0  0  0
 18 19  1  0  0  0  0
 20 18  1  0  0  0  0
 21 18  1  0  0  0  0
M  END
