Coordinates from ORCA-job C6H6+AlCl4-+NH2--N2+-scan
 OpenBabel10221816113D

 22 19  0  0  0  0  0  0  0  0999 V2000
    6.9956   -0.4531   -5.6297 N   0  0  0  0  0  0  0  0  0  0  0  0
    8.0361   -0.7933   -5.6703 N   0  0  0  0  0  0  0  0  0  0  0  0
    2.4850    0.3850   -3.3865 N   0  0  0  0  0  0  0  0  0  0  0  0
    1.8742   -0.4298   -3.4923 H   0  0  0  0  0  0  0  0  0  0  0  0
    3.4060    0.1111   -3.7339 H   0  0  0  0  0  0  0  0  0  0  0  0
    1.3692   -1.3087   -6.4922 C   0  0  0  0  0  0  0  0  0  0  0  0
    0.1605   -0.8042   -6.0121 C   0  0  0  0  0  0  0  0  0  0  0  0
   -0.3955   -1.3212   -4.8418 C   0  0  0  0  0  0  0  0  0  0  0  0
    0.2590   -2.3421   -4.1495 C   0  0  0  0  0  0  0  0  0  0  0  0
    1.4688   -2.8481   -4.6310 C   0  0  0  0  0  0  0  0  0  0  0  0
    2.0229   -2.3311   -5.8030 C   0  0  0  0  0  0  0  0  0  0  0  0
    1.7996   -0.9079   -7.4033 H   0  0  0  0  0  0  0  0  0  0  0  0
   -0.3464   -0.0096   -6.5480 H   0  0  0  0  0  0  0  0  0  0  0  0
   -1.3365   -0.9311   -4.4699 H   0  0  0  0  0  0  0  0  0  0  0  0
   -0.1712   -2.7475   -3.2404 H   0  0  0  0  0  0  0  0  0  0  0  0
    1.9753   -3.6403   -4.0915 H   0  0  0  0  0  0  0  0  0  0  0  0
    2.9605   -2.7263   -6.1784 H   0  0  0  0  0  0  0  0  0  0  0  0
    3.9274   -1.4065   -0.7896 Al  0  0  0  0  0  0  0  0  0  0  0  0
    4.5256   -0.5824    1.0541 Cl  0  0  0  0  0  0  0  0  0  0  0  0
    5.3707   -1.5969   -2.3323 Cl  0  0  0  0  0  0  0  0  0  0  0  0
    2.4365   -2.9036   -0.7620 Cl  0  0  0  0  0  0  0  0  0  0  0  0
    2.7215    0.5469   -1.6299 Cl  0  0  0  0  0  0  0  0  0  0  0  0
  2  1  3  0  0  0  0
  3 22  1  0  0  0  0
  4  3  1  0  0  0  0
  5  3  1  0  0  0  0
  6  7  2  0  0  0  0
  6 11  1  0  0  0  0
  7  8  1  0  0  0  0
  8 14  1  0  0  0  0
  8  9  2  0  0  0  0
  9 15  1  0  0  0  0
 10  9  1  0  0  0  0
 10 16  1  0  0  0  0
 11 10  2  0  0  0  0
 12  6  1  0  0  0  0
 13  7  1  0  0  0  0
 17 11  1  0  0  0  0
 18 21  1  0  0  0  0
 18 19  1  0  0  0  0
 20 18  1  0  0  0  0
M  END
