Coordinates from ORCA-job C6H6+AlCl4-+NH2--N2+-scan
 OpenBabel10221816123D

 22 19  0  0  0  0  0  0  0  0999 V2000
    6.2824   -2.7056   -5.6965 N   0  0  0  0  0  0  0  0  0  0  0  0
    7.2230   -2.9944   -5.2148 N   0  0  0  0  0  0  0  0  0  0  0  0
    1.7984    0.5882   -3.0326 N   0  0  0  0  0  0  0  0  0  0  0  0
    1.5365   -0.3561   -3.3293 H   0  0  0  0  0  0  0  0  0  0  0  0
    2.7350    0.7636   -3.4022 H   0  0  0  0  0  0  0  0  0  0  0  0
    1.3842   -0.8032   -6.4386 C   0  0  0  0  0  0  0  0  0  0  0  0
    0.0920   -0.8469   -5.9145 C   0  0  0  0  0  0  0  0  0  0  0  0
   -0.2154   -1.7423   -4.8894 C   0  0  0  0  0  0  0  0  0  0  0  0
    0.7719   -2.5918   -4.3857 C   0  0  0  0  0  0  0  0  0  0  0  0
    2.0653   -2.5479   -4.9116 C   0  0  0  0  0  0  0  0  0  0  0  0
    2.3711   -1.6545   -5.9391 C   0  0  0  0  0  0  0  0  0  0  0  0
    1.6208   -0.1097   -7.2382 H   0  0  0  0  0  0  0  0  0  0  0  0
   -0.6738   -0.1853   -6.3038 H   0  0  0  0  0  0  0  0  0  0  0  0
   -1.2210   -1.7796   -4.4851 H   0  0  0  0  0  0  0  0  0  0  0  0
    0.5367   -3.2907   -3.5905 H   0  0  0  0  0  0  0  0  0  0  0  0
    2.8308   -3.2075   -4.5197 H   0  0  0  0  0  0  0  0  0  0  0  0
    3.3749   -1.6276   -6.3480 H   0  0  0  0  0  0  0  0  0  0  0  0
    4.0222   -0.9499   -0.8634 Al  0  0  0  0  0  0  0  0  0  0  0  0
    4.3976   -0.3268    1.1127 Cl  0  0  0  0  0  0  0  0  0  0  0  0
    5.2676   -0.2131   -2.4158 Cl  0  0  0  0  0  0  0  0  0  0  0  0
    3.2869   -2.9090   -1.1515 Cl  0  0  0  0  0  0  0  0  0  0  0  0
    2.0572    0.4495   -1.2761 Cl  0  0  0  0  0  0  0  0  0  0  0  0
  1  2  3  0  0  0  0
  3 22  1  0  0  0  0
  4  3  1  0  0  0  0
  5  3  1  0  0  0  0
  6 11  2  0  0  0  0
  6  7  1  0  0  0  0
  7  8  2  0  0  0  0
  8 14  1  0  0  0  0
  8  9  1  0  0  0  0
  9 15  1  0  0  0  0
 10 16  1  0  0  0  0
 10  9  2  0  0  0  0
 11 10  1  0  0  0  0
 12  6  1  0  0  0  0
 13  7  1  0  0  0  0
 17 11  1  0  0  0  0
 18 19  1  0  0  0  0
 20 18  1  0  0  0  0
 21 18  1  0  0  0  0
M  END
