Coordinates from ORCA-job C6H6+AlCl4-+NH2--N2+-scan
 OpenBabel10221816113D

 22 20  0  0  0  0  0  0  0  0999 V2000
    3.6081   -0.2252   -4.4721 N   0  0  0  0  0  0  0  0  0  0  0  0
    3.9532   -0.5568   -5.4600 N   0  0  0  0  0  0  0  0  0  0  0  0
    3.1375    0.6912   -3.1182 N   0  0  0  0  0  0  0  0  0  0  0  0
    2.5387   -0.0403   -2.6689 H   0  0  0  0  0  0  0  0  0  0  0  0
    4.0522    0.6185   -2.5880 H   0  0  0  0  0  0  0  0  0  0  0  0
    1.6745   -2.4002   -6.7035 C   0  0  0  0  0  0  0  0  0  0  0  0
    1.0714   -1.1556   -6.9080 C   0  0  0  0  0  0  0  0  0  0  0  0
    0.4480   -0.5013   -5.8470 C   0  0  0  0  0  0  0  0  0  0  0  0
    0.4305   -1.0909   -4.5800 C   0  0  0  0  0  0  0  0  0  0  0  0
    1.0316   -2.3362   -4.3762 C   0  0  0  0  0  0  0  0  0  0  0  0
    1.6521   -2.9910   -5.4399 C   0  0  0  0  0  0  0  0  0  0  0  0
    2.1523   -2.9117   -7.5319 H   0  0  0  0  0  0  0  0  0  0  0  0
    1.0799   -0.7051   -7.8945 H   0  0  0  0  0  0  0  0  0  0  0  0
   -0.0322    0.4581   -6.0058 H   0  0  0  0  0  0  0  0  0  0  0  0
   -0.0730   -0.5938   -3.7572 H   0  0  0  0  0  0  0  0  0  0  0  0
    1.0148   -2.7921   -3.3931 H   0  0  0  0  0  0  0  0  0  0  0  0
    2.1194   -3.9557   -5.2804 H   0  0  0  0  0  0  0  0  0  0  0  0
    4.3741   -1.7935   -0.7668 Al  0  0  0  0  0  0  0  0  0  0  0  0
    4.9776   -2.8109    0.9815 Cl  0  0  0  0  0  0  0  0  0  0  0  0
    5.4166    0.1374   -1.0407 Cl  0  0  0  0  0  0  0  0  0  0  0  0
    4.6745   -2.8533   -2.6293 Cl  0  0  0  0  0  0  0  0  0  0  0  0
    2.2428   -1.2318   -0.7536 Cl  0  0  0  0  0  0  0  0  0  0  0  0
  1  3  1  0  0  0  0
  2  1  1  0  0  0  0
  3  4  1  0  0  0  0
  3  5  1  0  0  0  0
  6 11  1  0  0  0  0
  7  6  2  0  0  0  0
  7  8  1  0  0  0  0
  8  9  2  0  0  0  0
  9 10  1  0  0  0  0
  9 15  1  0  0  0  0
 10 16  1  0  0  0  0
 11 17  1  0  0  0  0
 11 10  2  0  0  0  0
 12  6  1  0  0  0  0
 13  7  1  0  0  0  0
 14  8  1  0  0  0  0
 18 22  1  0  0  0  0
 18 19  1  0  0  0  0
 20 18  1  0  0  0  0
 21 18  1  0  0  0  0
M  RAD  2   1   2   2   3
M  END
