Coordinates from ORCA-job C6H6+AlCl4-+NH2--N2+-scan
 OpenBabel10221816113D

 22 19  0  0  0  0  0  0  0  0999 V2000
    5.9373   -0.2438   -5.3716 N   0  0  0  0  0  0  0  0  0  0  0  0
    6.8899   -0.4801   -5.8577 N   0  0  0  0  0  0  0  0  0  0  0  0
    2.7496    0.3452   -3.4378 N   0  0  0  0  0  0  0  0  0  0  0  0
    2.0957   -0.4369   -3.5286 H   0  0  0  0  0  0  0  0  0  0  0  0
    3.6589    0.0214   -3.7736 H   0  0  0  0  0  0  0  0  0  0  0  0
    1.4986   -1.3943   -6.5544 C   0  0  0  0  0  0  0  0  0  0  0  0
    0.3355   -0.7954   -6.0705 C   0  0  0  0  0  0  0  0  0  0  0  0
   -0.2251   -1.2302   -4.8695 C   0  0  0  0  0  0  0  0  0  0  0  0
    0.3794   -2.2631   -4.1501 C   0  0  0  0  0  0  0  0  0  0  0  0
    1.5443   -2.8628   -4.6350 C   0  0  0  0  0  0  0  0  0  0  0  0
    2.1026   -2.4282   -5.8379 C   0  0  0  0  0  0  0  0  0  0  0  0
    1.9321   -1.0575   -7.4898 H   0  0  0  0  0  0  0  0  0  0  0  0
   -0.1328    0.0083   -6.6277 H   0  0  0  0  0  0  0  0  0  0  0  0
   -1.1312   -0.7670   -4.4946 H   0  0  0  0  0  0  0  0  0  0  0  0
   -0.0542   -2.6050   -3.2170 H   0  0  0  0  0  0  0  0  0  0  0  0
    2.0117   -3.6646   -4.0748 H   0  0  0  0  0  0  0  0  0  0  0  0
    3.0043   -2.8971   -6.2164 H   0  0  0  0  0  0  0  0  0  0  0  0
    3.8886   -1.4841   -0.6892 Al  0  0  0  0  0  0  0  0  0  0  0  0
    4.4819   -0.6264    1.1417 Cl  0  0  0  0  0  0  0  0  0  0  0  0
    5.3779   -1.9457   -2.1239 Cl  0  0  0  0  0  0  0  0  0  0  0  0
    2.2240   -2.7862   -0.6684 Cl  0  0  0  0  0  0  0  0  0  0  0  0
    2.9754    0.5531   -1.6866 Cl  0  0  0  0  0  0  0  0  0  0  0  0
  2  1  3  0  0  0  0
  3 22  1  0  0  0  0
  4  3  1  0  0  0  0
  5  3  1  0  0  0  0
  6  7  2  0  0  0  0
  6 11  1  0  0  0  0
  7  8  1  0  0  0  0
  8 14  1  0  0  0  0
  8  9  2  0  0  0  0
  9 15  1  0  0  0  0
 10  9  1  0  0  0  0
 10 16  1  0  0  0  0
 11 10  2  0  0  0  0
 12  6  1  0  0  0  0
 13  7  1  0  0  0  0
 17 11  1  0  0  0  0
 18 21  1  0  0  0  0
 18 19  1  0  0  0  0
 20 18  1  0  0  0  0
M  END
