Coordinates from ORCA-job C6H6+AlCl4-+NH2--N2+-scan
 OpenBabel10221816113D

 22 19  0  0  0  0  0  0  0  0999 V2000
    6.6465   -0.3375   -5.5824 N   0  0  0  0  0  0  0  0  0  0  0  0
    7.6815   -0.6339   -5.7851 N   0  0  0  0  0  0  0  0  0  0  0  0
    2.5813    0.3599   -3.4006 N   0  0  0  0  0  0  0  0  0  0  0  0
    1.9482   -0.4381   -3.5013 H   0  0  0  0  0  0  0  0  0  0  0  0
    3.4976    0.0571   -3.7364 H   0  0  0  0  0  0  0  0  0  0  0  0
    1.4239   -1.3482   -6.5075 C   0  0  0  0  0  0  0  0  0  0  0  0
    0.2305   -0.8001   -6.0374 C   0  0  0  0  0  0  0  0  0  0  0  0
   -0.3407   -1.2795   -4.8584 C   0  0  0  0  0  0  0  0  0  0  0  0
    0.2835   -2.3066   -4.1474 C   0  0  0  0  0  0  0  0  0  0  0  0
    1.4782   -2.8562   -4.6189 C   0  0  0  0  0  0  0  0  0  0  0  0
    2.0474   -2.3767   -5.7996 C   0  0  0  0  0  0  0  0  0  0  0  0
    1.8661   -0.9764   -7.4253 H   0  0  0  0  0  0  0  0  0  0  0  0
   -0.2530   -0.0008   -6.5878 H   0  0  0  0  0  0  0  0  0  0  0  0
   -1.2700   -0.8555   -4.4943 H   0  0  0  0  0  0  0  0  0  0  0  0
   -0.1584   -2.6829   -3.2316 H   0  0  0  0  0  0  0  0  0  0  0  0
    1.9610   -3.6531   -4.0651 H   0  0  0  0  0  0  0  0  0  0  0  0
    2.9731   -2.8057   -6.1671 H   0  0  0  0  0  0  0  0  0  0  0  0
    3.9094   -1.4429   -0.7494 Al  0  0  0  0  0  0  0  0  0  0  0  0
    4.5103   -0.6107    1.0900 Cl  0  0  0  0  0  0  0  0  0  0  0  0
    5.3702   -1.7242   -2.2613 Cl  0  0  0  0  0  0  0  0  0  0  0  0
    2.3546   -2.8736   -0.7216 Cl  0  0  0  0  0  0  0  0  0  0  0  0
    2.8032    0.5447   -1.6452 Cl  0  0  0  0  0  0  0  0  0  0  0  0
  2  1  3  0  0  0  0
  3 22  1  0  0  0  0
  4  3  1  0  0  0  0
  5  3  1  0  0  0  0
  6  7  2  0  0  0  0
  6 11  1  0  0  0  0
  7  8  1  0  0  0  0
  8 14  1  0  0  0  0
  8  9  2  0  0  0  0
  9 15  1  0  0  0  0
 10  9  1  0  0  0  0
 10 16  1  0  0  0  0
 11 10  2  0  0  0  0
 12  6  1  0  0  0  0
 13  7  1  0  0  0  0
 17 11  1  0  0  0  0
 18 21  1  0  0  0  0
 18 19  1  0  0  0  0
 20 18  1  0  0  0  0
M  END
