Coordinates from ORCA-job C6H6+AlCl4-+NH2--N2+-scan
 OpenBabel10221816113D

 22 19  0  0  0  0  0  0  0  0999 V2000
    4.6118    0.2007   -5.8143 N   0  0  0  0  0  0  0  0  0  0  0  0
    4.6673    0.8784   -6.6731 N   0  0  0  0  0  0  0  0  0  0  0  0
    3.4020    0.2130   -3.2747 N   0  0  0  0  0  0  0  0  0  0  0  0
    2.6666   -0.4007   -3.6387 H   0  0  0  0  0  0  0  0  0  0  0  0
    4.2747   -0.3176   -3.2919 H   0  0  0  0  0  0  0  0  0  0  0  0
    1.6462   -1.8007   -6.7289 C   0  0  0  0  0  0  0  0  0  0  0  0
    0.7337   -0.8459   -6.2809 C   0  0  0  0  0  0  0  0  0  0  0  0
    0.2440   -0.9081   -4.9761 C   0  0  0  0  0  0  0  0  0  0  0  0
    0.6689   -1.9257   -4.1188 C   0  0  0  0  0  0  0  0  0  0  0  0
    1.5859   -2.8794   -4.5675 C   0  0  0  0  0  0  0  0  0  0  0  0
    2.0731   -2.8162   -5.8729 C   0  0  0  0  0  0  0  0  0  0  0  0
    2.0226   -1.7547   -7.7450 H   0  0  0  0  0  0  0  0  0  0  0  0
    0.4014   -0.0579   -6.9477 H   0  0  0  0  0  0  0  0  0  0  0  0
   -0.4732   -0.1718   -4.6299 H   0  0  0  0  0  0  0  0  0  0  0  0
    0.2795   -1.9879   -3.1086 H   0  0  0  0  0  0  0  0  0  0  0  0
    1.9110   -3.6691   -3.8997 H   0  0  0  0  0  0  0  0  0  0  0  0
    2.7810   -3.5594   -6.2230 H   0  0  0  0  0  0  0  0  0  0  0  0
    3.6752   -1.6752   -0.3498 Al  0  0  0  0  0  0  0  0  0  0  0  0
    3.9380   -0.8146    1.5539 Cl  0  0  0  0  0  0  0  0  0  0  0  0
    5.3935   -2.1613   -1.4952 Cl  0  0  0  0  0  0  0  0  0  0  0  0
    2.0166   -2.9569   -0.6126 Cl  0  0  0  0  0  0  0  0  0  0  0  0
    3.0249    0.3706   -1.5383 Cl  0  0  0  0  0  0  0  0  0  0  0  0
  2  1  3  0  0  0  0
  3 22  1  0  0  0  0
  4  3  1  0  0  0  0
  5  3  1  0  0  0  0
  6  7  2  0  0  0  0
  6 11  1  0  0  0  0
  7  8  1  0  0  0  0
  8 14  1  0  0  0  0
  8  9  2  0  0  0  0
  9 15  1  0  0  0  0
 10  9  1  0  0  0  0
 10 16  1  0  0  0  0
 11 10  2  0  0  0  0
 12  6  1  0  0  0  0
 13  7  1  0  0  0  0
 17 11  1  0  0  0  0
 18 19  1  0  0  0  0
 20 18  1  0  0  0  0
 21 18  1  0  0  0  0
M  END
