Coordinates from ORCA-job C6H6+AlCl4-+NH2--N2+-scan
 OpenBabel10221816113D

 22 20  0  0  0  0  0  0  0  0999 V2000
    3.5990   -0.2212   -4.4599 N   0  0  0  0  0  0  0  0  0  0  0  0
    3.9413   -0.5537   -5.4494 N   0  0  0  0  0  0  0  0  0  0  0  0
    3.1485    0.6527   -3.1460 N   0  0  0  0  0  0  0  0  0  0  0  0
    2.5426   -0.0649   -2.6857 H   0  0  0  0  0  0  0  0  0  0  0  0
    4.0586    0.5984   -2.6064 H   0  0  0  0  0  0  0  0  0  0  0  0
    1.6759   -2.3962   -6.7015 C   0  0  0  0  0  0  0  0  0  0  0  0
    1.0738   -1.1510   -6.9049 C   0  0  0  0  0  0  0  0  0  0  0  0
    0.4502   -0.4974   -5.8435 C   0  0  0  0  0  0  0  0  0  0  0  0
    0.4315   -1.0883   -4.5772 C   0  0  0  0  0  0  0  0  0  0  0  0
    1.0313   -2.3345   -4.3744 C   0  0  0  0  0  0  0  0  0  0  0  0
    1.6520   -2.9885   -5.4386 C   0  0  0  0  0  0  0  0  0  0  0  0
    2.1536   -2.9073   -7.5302 H   0  0  0  0  0  0  0  0  0  0  0  0
    1.0830   -0.6995   -7.8910 H   0  0  0  0  0  0  0  0  0  0  0  0
   -0.0292    0.4625   -6.0015 H   0  0  0  0  0  0  0  0  0  0  0  0
   -0.0715   -0.5915   -3.7540 H   0  0  0  0  0  0  0  0  0  0  0  0
    1.0136   -2.7915   -3.3919 H   0  0  0  0  0  0  0  0  0  0  0  0
    2.1185   -3.9539   -5.2799 H   0  0  0  0  0  0  0  0  0  0  0  0
    4.3708   -1.7852   -0.7627 Al  0  0  0  0  0  0  0  0  0  0  0  0
    4.9804   -2.8041    0.9827 Cl  0  0  0  0  0  0  0  0  0  0  0  0
    5.4036    0.1510   -1.0350 Cl  0  0  0  0  0  0  0  0  0  0  0  0
    4.6804   -2.8390   -2.6284 Cl  0  0  0  0  0  0  0  0  0  0  0  0
    2.2367   -1.2378   -0.7539 Cl  0  0  0  0  0  0  0  0  0  0  0  0
  1  3  1  0  0  0  0
  2  1  1  0  0  0  0
  3  4  1  0  0  0  0
  3  5  1  0  0  0  0
  6 11  1  0  0  0  0
  7  6  2  0  0  0  0
  7  8  1  0  0  0  0
  8  9  2  0  0  0  0
  9 10  1  0  0  0  0
  9 15  1  0  0  0  0
 10 16  1  0  0  0  0
 11 17  1  0  0  0  0
 11 10  2  0  0  0  0
 12  6  1  0  0  0  0
 13  7  1  0  0  0  0
 14  8  1  0  0  0  0
 18 22  1  0  0  0  0
 18 19  1  0  0  0  0
 20 18  1  0  0  0  0
 21 18  1  0  0  0  0
M  RAD  2   1   2   2   3
M  END
