Coordinates from ORCA-job C6H6+AlCl4-+NH2--N2+-scan
 OpenBabel10221816113D

 22 19  0  0  0  0  0  0  0  0999 V2000
    4.2807    0.2127   -5.5815 N   0  0  0  0  0  0  0  0  0  0  0  0
    4.4127    1.0065   -6.3254 N   0  0  0  0  0  0  0  0  0  0  0  0
    3.5477    0.1923   -3.2938 N   0  0  0  0  0  0  0  0  0  0  0  0
    2.7855   -0.3871   -3.6615 H   0  0  0  0  0  0  0  0  0  0  0  0
    4.3744   -0.4084   -3.2457 H   0  0  0  0  0  0  0  0  0  0  0  0
    1.5962   -1.8762   -6.8112 C   0  0  0  0  0  0  0  0  0  0  0  0
    0.7473   -0.8712   -6.3486 C   0  0  0  0  0  0  0  0  0  0  0  0
    0.3209   -0.8756   -5.0203 C   0  0  0  0  0  0  0  0  0  0  0  0
    0.7456   -1.8861   -4.1542 C   0  0  0  0  0  0  0  0  0  0  0  0
    1.6003   -2.8893   -4.6178 C   0  0  0  0  0  0  0  0  0  0  0  0
    2.0241   -2.8836   -5.9464 C   0  0  0  0  0  0  0  0  0  0  0  0
    1.9228   -1.8754   -7.8454 H   0  0  0  0  0  0  0  0  0  0  0  0
    0.4136   -0.0898   -7.0225 H   0  0  0  0  0  0  0  0  0  0  0  0
   -0.3498   -0.1015   -4.6631 H   0  0  0  0  0  0  0  0  0  0  0  0
    0.4004   -1.9069   -3.1263 H   0  0  0  0  0  0  0  0  0  0  0  0
    1.9241   -3.6740   -3.9434 H   0  0  0  0  0  0  0  0  0  0  0  0
    2.6828   -3.6655   -6.3079 H   0  0  0  0  0  0  0  0  0  0  0  0
    3.6783   -1.6332   -0.3196 Al  0  0  0  0  0  0  0  0  0  0  0  0
    3.9258   -0.7633    1.5815 Cl  0  0  0  0  0  0  0  0  0  0  0  0
    5.4100   -2.1773   -1.4222 Cl  0  0  0  0  0  0  0  0  0  0  0  0
    2.0004   -2.8860   -0.6035 Cl  0  0  0  0  0  0  0  0  0  0  0  0
    3.1007    0.3983   -1.5547 Cl  0  0  0  0  0  0  0  0  0  0  0  0
  2  1  3  0  0  0  0
  3  5  1  0  0  0  0
  3 22  1  0  0  0  0
  4  3  1  0  0  0  0
  6  7  2  0  0  0  0
  6 11  1  0  0  0  0
  7  8  1  0  0  0  0
  8 14  1  0  0  0  0
  8  9  2  0  0  0  0
  9 15  1  0  0  0  0
 10  9  1  0  0  0  0
 10 16  1  0  0  0  0
 11 10  2  0  0  0  0
 12  6  1  0  0  0  0
 13  7  1  0  0  0  0
 17 11  1  0  0  0  0
 18 19  1  0  0  0  0
 20 18  1  0  0  0  0
 21 18  1  0  0  0  0
M  END
