Coordinates from ORCA-job C6H6+AlCl4-+NH2--N2+-scan
 OpenBabel10221816113D

 22 19  0  0  0  0  0  0  0  0999 V2000
    5.7565   -0.2186   -5.2865 N   0  0  0  0  0  0  0  0  0  0  0  0
    6.6728   -0.4209   -5.8513 N   0  0  0  0  0  0  0  0  0  0  0  0
    2.7997    0.3394   -3.4519 N   0  0  0  0  0  0  0  0  0  0  0  0
    2.1383   -0.4367   -3.5388 H   0  0  0  0  0  0  0  0  0  0  0  0
    3.7055    0.0095   -3.7907 H   0  0  0  0  0  0  0  0  0  0  0  0
    1.5121   -1.4111   -6.5698 C   0  0  0  0  0  0  0  0  0  0  0  0
    0.3602   -0.7949   -6.0810 C   0  0  0  0  0  0  0  0  0  0  0  0
   -0.1960   -1.2146   -4.8725 C   0  0  0  0  0  0  0  0  0  0  0  0
    0.4019   -2.2495   -4.1506 C   0  0  0  0  0  0  0  0  0  0  0  0
    1.5558   -2.8663   -4.6402 C   0  0  0  0  0  0  0  0  0  0  0  0
    2.1095   -2.4470   -5.8506 C   0  0  0  0  0  0  0  0  0  0  0  0
    1.9418   -1.0864   -7.5112 H   0  0  0  0  0  0  0  0  0  0  0  0
   -0.1031    0.0103   -6.6403 H   0  0  0  0  0  0  0  0  0  0  0  0
   -1.0936   -0.7381   -4.4939 H   0  0  0  0  0  0  0  0  0  0  0  0
   -0.0282   -2.5798   -3.2117 H   0  0  0  0  0  0  0  0  0  0  0  0
    2.0180   -3.6697   -4.0780 H   0  0  0  0  0  0  0  0  0  0  0  0
    3.0022   -2.9296   -6.2330 H   0  0  0  0  0  0  0  0  0  0  0  0
    3.8912   -1.4939   -0.6789 Al  0  0  0  0  0  0  0  0  0  0  0  0
    4.4766   -0.6298    1.1519 Cl  0  0  0  0  0  0  0  0  0  0  0  0
    5.3917   -2.0034   -2.0849 Cl  0  0  0  0  0  0  0  0  0  0  0  0
    2.2004   -2.7622   -0.6674 Cl  0  0  0  0  0  0  0  0  0  0  0  0
    3.0313    0.5528   -1.7023 Cl  0  0  0  0  0  0  0  0  0  0  0  0
  2  1  3  0  0  0  0
  3 22  1  0  0  0  0
  4  3  1  0  0  0  0
  5  3  1  0  0  0  0
  6  7  2  0  0  0  0
  6 11  1  0  0  0  0
  7  8  1  0  0  0  0
  8 14  1  0  0  0  0
  8  9  2  0  0  0  0
  9 15  1  0  0  0  0
 10  9  1  0  0  0  0
 10 16  1  0  0  0  0
 11 10  2  0  0  0  0
 12  6  1  0  0  0  0
 13  7  1  0  0  0  0
 17 11  1  0  0  0  0
 18 21  1  0  0  0  0
 18 19  1  0  0  0  0
 20 18  1  0  0  0  0
M  END
