Coordinates from ORCA-job C6H6+AlCl4-+NH2--N2+-scan
 OpenBabel10221816113D

 22 19  0  0  0  0  0  0  0  0999 V2000
    5.8517   -0.2317   -5.3281 N   0  0  0  0  0  0  0  0  0  0  0  0
    6.7875   -0.4540   -5.8519 N   0  0  0  0  0  0  0  0  0  0  0  0
    2.7732    0.3435   -3.4448 N   0  0  0  0  0  0  0  0  0  0  0  0
    2.1163   -0.4363   -3.5337 H   0  0  0  0  0  0  0  0  0  0  0  0
    3.6810    0.0179   -3.7827 H   0  0  0  0  0  0  0  0  0  0  0  0
    1.5041   -1.4022   -6.5627 C   0  0  0  0  0  0  0  0  0  0  0  0
    0.3465   -0.7956   -6.0754 C   0  0  0  0  0  0  0  0  0  0  0  0
   -0.2108   -1.2235   -4.8703 C   0  0  0  0  0  0  0  0  0  0  0  0
    0.3915   -2.2572   -4.1504 C   0  0  0  0  0  0  0  0  0  0  0  0
    1.5510   -2.8646   -4.6386 C   0  0  0  0  0  0  0  0  0  0  0  0
    2.1059   -2.4370   -5.8455 C   0  0  0  0  0  0  0  0  0  0  0  0
    1.9348   -1.0710   -7.5013 H   0  0  0  0  0  0  0  0  0  0  0  0
   -0.1202    0.0087   -6.6331 H   0  0  0  0  0  0  0  0  0  0  0  0
   -1.1128   -0.7543   -4.4929 H   0  0  0  0  0  0  0  0  0  0  0  0
   -0.0395   -2.5938   -3.2142 H   0  0  0  0  0  0  0  0  0  0  0  0
    2.0167   -3.6671   -4.0780 H   0  0  0  0  0  0  0  0  0  0  0  0
    3.0032   -2.9120   -6.2267 H   0  0  0  0  0  0  0  0  0  0  0  0
    3.8889   -1.4887   -0.6839 Al  0  0  0  0  0  0  0  0  0  0  0  0
    4.4814   -0.6268    1.1454 Cl  0  0  0  0  0  0  0  0  0  0  0  0
    5.3816   -1.9767   -2.1060 Cl  0  0  0  0  0  0  0  0  0  0  0  0
    2.2098   -2.7722   -0.6645 Cl  0  0  0  0  0  0  0  0  0  0  0  0
    3.0027    0.5538   -1.6945 Cl  0  0  0  0  0  0  0  0  0  0  0  0
  2  1  3  0  0  0  0
  3 22  1  0  0  0  0
  4  3  1  0  0  0  0
  5  3  1  0  0  0  0
  6  7  2  0  0  0  0
  6 11  1  0  0  0  0
  7  8  1  0  0  0  0
  8 14  1  0  0  0  0
  8  9  2  0  0  0  0
  9 15  1  0  0  0  0
 10  9  1  0  0  0  0
 10 16  1  0  0  0  0
 11 10  2  0  0  0  0
 12  6  1  0  0  0  0
 13  7  1  0  0  0  0
 17 11  1  0  0  0  0
 18 21  1  0  0  0  0
 18 19  1  0  0  0  0
 20 18  1  0  0  0  0
M  END
