Coordinates from ORCA-job C6H6+AlCl4-+NH2--N2+-scan
 OpenBabel10221816113D

 22 19  0  0  0  0  0  0  0  0999 V2000
    5.6878   -0.2096   -5.2586 N   0  0  0  0  0  0  0  0  0  0  0  0
    6.5907   -0.3953   -5.8498 N   0  0  0  0  0  0  0  0  0  0  0  0
    2.8166    0.3324   -3.4544 N   0  0  0  0  0  0  0  0  0  0  0  0
    2.1500   -0.4392   -3.5412 H   0  0  0  0  0  0  0  0  0  0  0  0
    3.7211   -0.0035   -3.7906 H   0  0  0  0  0  0  0  0  0  0  0  0
    1.5201   -1.4184   -6.5737 C   0  0  0  0  0  0  0  0  0  0  0  0
    0.3720   -0.7927   -6.0879 C   0  0  0  0  0  0  0  0  0  0  0  0
   -0.1881   -1.2048   -4.8786 C   0  0  0  0  0  0  0  0  0  0  0  0
    0.4019   -2.2417   -4.1529 C   0  0  0  0  0  0  0  0  0  0  0  0
    1.5519   -2.8679   -4.6396 C   0  0  0  0  0  0  0  0  0  0  0  0
    2.1097   -2.4562   -5.8507 C   0  0  0  0  0  0  0  0  0  0  0  0
    1.9528   -1.0997   -7.5158 H   0  0  0  0  0  0  0  0  0  0  0  0
   -0.0851    0.0139   -6.6501 H   0  0  0  0  0  0  0  0  0  0  0  0
   -1.0828   -0.7210   -4.5024 H   0  0  0  0  0  0  0  0  0  0  0  0
   -0.0314   -2.5661   -3.2135 H   0  0  0  0  0  0  0  0  0  0  0  0
    2.0080   -3.6727   -4.0744 H   0  0  0  0  0  0  0  0  0  0  0  0
    2.9993   -2.9463   -6.2309 H   0  0  0  0  0  0  0  0  0  0  0  0
    3.9025   -1.4964   -0.6760 Al  0  0  0  0  0  0  0  0  0  0  0  0
    4.4736   -0.6313    1.1590 Cl  0  0  0  0  0  0  0  0  0  0  0  0
    5.4143   -2.0040   -2.0707 Cl  0  0  0  0  0  0  0  0  0  0  0  0
    2.2144   -2.7685   -0.6759 Cl  0  0  0  0  0  0  0  0  0  0  0  0
    3.0454    0.5482   -1.7047 Cl  0  0  0  0  0  0  0  0  0  0  0  0
  2  1  3  0  0  0  0
  3 22  1  0  0  0  0
  4  3  1  0  0  0  0
  5  3  1  0  0  0  0
  6  7  2  0  0  0  0
  6 11  1  0  0  0  0
  7  8  1  0  0  0  0
  8 14  1  0  0  0  0
  8  9  2  0  0  0  0
  9 15  1  0  0  0  0
 10  9  1  0  0  0  0
 10 16  1  0  0  0  0
 11 10  2  0  0  0  0
 12  6  1  0  0  0  0
 13  7  1  0  0  0  0
 17 11  1  0  0  0  0
 18 21  1  0  0  0  0
 18 19  1  0  0  0  0
 20 18  1  0  0  0  0
M  END
