Coordinates from ORCA-job C6H6+AlCl4-+NH2--N2+-scan
 OpenBabel10221816113D

 22 20  0  0  0  0  0  0  0  0999 V2000
    3.6808   -0.1880   -4.4669 N   0  0  0  0  0  0  0  0  0  0  0  0
    3.9732   -0.4736   -5.5022 N   0  0  0  0  0  0  0  0  0  0  0  0
    3.3764    0.2311   -3.3178 N   0  0  0  0  0  0  0  0  0  0  0  0
    2.6195   -0.3031   -2.8412 H   0  0  0  0  0  0  0  0  0  0  0  0
    4.2075    0.4000   -2.6636 H   0  0  0  0  0  0  0  0  0  0  0  0
    1.6289   -2.3091   -6.7471 C   0  0  0  0  0  0  0  0  0  0  0  0
    0.9917   -1.0752   -6.8956 C   0  0  0  0  0  0  0  0  0  0  0  0
    0.3701   -0.4751   -5.8009 C   0  0  0  0  0  0  0  0  0  0  0  0
    0.3854   -1.1102   -4.5568 C   0  0  0  0  0  0  0  0  0  0  0  0
    1.0235   -2.3446   -4.4077 C   0  0  0  0  0  0  0  0  0  0  0  0
    1.6454   -2.9433   -5.5044 C   0  0  0  0  0  0  0  0  0  0  0  0
    2.1071   -2.7774   -7.6003 H   0  0  0  0  0  0  0  0  0  0  0  0
    0.9735   -0.5881   -7.8644 H   0  0  0  0  0  0  0  0  0  0  0  0
   -0.1366    0.4766   -5.9179 H   0  0  0  0  0  0  0  0  0  0  0  0
   -0.1172   -0.6565   -3.7089 H   0  0  0  0  0  0  0  0  0  0  0  0
    1.0297   -2.8390   -3.4431 H   0  0  0  0  0  0  0  0  0  0  0  0
    2.1388   -3.9014   -5.3879 H   0  0  0  0  0  0  0  0  0  0  0  0
    4.3582   -1.7232   -0.6369 Al  0  0  0  0  0  0  0  0  0  0  0  0
    4.8672   -2.4698    1.2687 Cl  0  0  0  0  0  0  0  0  0  0  0  0
    5.3413    0.2346   -1.0506 Cl  0  0  0  0  0  0  0  0  0  0  0  0
    4.8642   -2.9499   -2.3348 Cl  0  0  0  0  0  0  0  0  0  0  0  0
    2.2161   -1.2553   -0.8532 Cl  0  0  0  0  0  0  0  0  0  0  0  0
  1  3  1  0  0  0  0
  2  1  1  0  0  0  0
  3  4  1  0  0  0  0
  3  5  1  0  0  0  0
  6 11  1  0  0  0  0
  7  6  2  0  0  0  0
  7  8  1  0  0  0  0
  8  9  2  0  0  0  0
  9 10  1  0  0  0  0
  9 15  1  0  0  0  0
 10 16  1  0  0  0  0
 11 17  1  0  0  0  0
 11 10  2  0  0  0  0
 12  6  1  0  0  0  0
 13  7  1  0  0  0  0
 14  8  1  0  0  0  0
 18 19  1  0  0  0  0
 20 18  1  0  0  0  0
 21 18  1  0  0  0  0
 22 18  1  0  0  0  0
M  RAD  2   1   2   2   3
M  END
