Coordinates from ORCA-job C6H6+AlCl4-+NH2--N2+-scan
 OpenBabel10221816113D

 22 19  0  0  0  0  0  0  0  0999 V2000
    5.7785   -0.2203   -5.2959 N   0  0  0  0  0  0  0  0  0  0  0  0
    6.6996   -0.4273   -5.8511 N   0  0  0  0  0  0  0  0  0  0  0  0
    2.7934    0.3404   -3.4501 N   0  0  0  0  0  0  0  0  0  0  0  0
    2.1332   -0.4367   -3.5375 H   0  0  0  0  0  0  0  0  0  0  0  0
    3.6998    0.0120   -3.7887 H   0  0  0  0  0  0  0  0  0  0  0  0
    1.5105   -1.4088   -6.5683 C   0  0  0  0  0  0  0  0  0  0  0  0
    0.3572   -0.7951   -6.0797 C   0  0  0  0  0  0  0  0  0  0  0  0
   -0.1992   -1.2170   -4.8720 C   0  0  0  0  0  0  0  0  0  0  0  0
    0.4000   -2.2517   -4.1507 C   0  0  0  0  0  0  0  0  0  0  0  0
    1.5552   -2.8660   -4.6402 C   0  0  0  0  0  0  0  0  0  0  0  0
    2.1092   -2.4445   -5.8497 C   0  0  0  0  0  0  0  0  0  0  0  0
    1.9404   -1.0824   -7.5090 H   0  0  0  0  0  0  0  0  0  0  0  0
   -0.1070    0.0098   -6.6385 H   0  0  0  0  0  0  0  0  0  0  0  0
   -1.0979   -0.7424   -4.4936 H   0  0  0  0  0  0  0  0  0  0  0  0
   -0.0303   -2.5837   -3.2126 H   0  0  0  0  0  0  0  0  0  0  0  0
    2.0184   -3.6692   -4.0785 H   0  0  0  0  0  0  0  0  0  0  0  0
    3.0030   -2.9252   -6.2320 H   0  0  0  0  0  0  0  0  0  0  0  0
    3.8897   -1.4932   -0.6798 Al  0  0  0  0  0  0  0  0  0  0  0  0
    4.4818   -0.6286    1.1486 Cl  0  0  0  0  0  0  0  0  0  0  0  0
    5.3848   -2.0012   -2.0922 Cl  0  0  0  0  0  0  0  0  0  0  0  0
    2.1998   -2.7625   -0.6617 Cl  0  0  0  0  0  0  0  0  0  0  0  0
    3.0246    0.5530   -1.7003 Cl  0  0  0  0  0  0  0  0  0  0  0  0
  2  1  3  0  0  0  0
  3 22  1  0  0  0  0
  4  3  1  0  0  0  0
  5  3  1  0  0  0  0
  6  7  2  0  0  0  0
  6 11  1  0  0  0  0
  7  8  1  0  0  0  0
  8 14  1  0  0  0  0
  8  9  2  0  0  0  0
  9 15  1  0  0  0  0
 10  9  1  0  0  0  0
 10 16  1  0  0  0  0
 11 10  2  0  0  0  0
 12  6  1  0  0  0  0
 13  7  1  0  0  0  0
 17 11  1  0  0  0  0
 18 21  1  0  0  0  0
 18 19  1  0  0  0  0
 20 18  1  0  0  0  0
M  END
