Coordinates from ORCA-job C6H6+AlCl4-+NH2--N2+-scan
 OpenBabel10221816123D

 22 19  0  0  0  0  0  0  0  0999 V2000
    6.4574   -2.6973   -6.5731 N   0  0  0  0  0  0  0  0  0  0  0  0
    7.4946   -3.0439   -6.5080 N   0  0  0  0  0  0  0  0  0  0  0  0
    1.6803    0.6394   -2.9535 N   0  0  0  0  0  0  0  0  0  0  0  0
    1.4286   -0.3051   -3.2589 H   0  0  0  0  0  0  0  0  0  0  0  0
    2.6340    0.8121   -3.2780 H   0  0  0  0  0  0  0  0  0  0  0  0
    1.5929   -0.9299   -6.3855 C   0  0  0  0  0  0  0  0  0  0  0  0
    0.2697   -0.8576   -5.9497 C   0  0  0  0  0  0  0  0  0  0  0  0
   -0.1655   -1.6719   -4.9032 C   0  0  0  0  0  0  0  0  0  0  0  0
    0.7258   -2.5546   -4.2893 C   0  0  0  0  0  0  0  0  0  0  0  0
    2.0507   -2.6260   -4.7264 C   0  0  0  0  0  0  0  0  0  0  0  0
    2.4838   -1.8149   -5.7759 C   0  0  0  0  0  0  0  0  0  0  0  0
    1.9288   -0.3008   -7.2026 H   0  0  0  0  0  0  0  0  0  0  0  0
   -0.4215   -0.1704   -6.4249 H   0  0  0  0  0  0  0  0  0  0  0  0
   -1.1957   -1.6203   -4.5681 H   0  0  0  0  0  0  0  0  0  0  0  0
    0.3906   -3.1913   -3.4778 H   0  0  0  0  0  0  0  0  0  0  0  0
    2.7406   -3.3110   -4.2474 H   0  0  0  0  0  0  0  0  0  0  0  0
    3.5101   -1.8778   -6.1205 H   0  0  0  0  0  0  0  0  0  0  0  0
    3.8027   -0.8620   -0.6503 Al  0  0  0  0  0  0  0  0  0  0  0  0
    4.0774   -0.1895    1.3265 Cl  0  0  0  0  0  0  0  0  0  0  0  0
    5.1120   -0.1458   -2.1586 Cl  0  0  0  0  0  0  0  0  0  0  0  0
    3.0984   -2.8346   -0.9223 Cl  0  0  0  0  0  0  0  0  0  0  0  0
    1.8488    0.5125   -1.1860 Cl  0  0  0  0  0  0  0  0  0  0  0  0
  1  2  3  0  0  0  0
  3 22  1  0  0  0  0
  4  3  1  0  0  0  0
  5  3  1  0  0  0  0
  6  7  2  0  0  0  0
  6 11  1  0  0  0  0
  7  8  1  0  0  0  0
  8 14  1  0  0  0  0
  8  9  2  0  0  0  0
  9 15  1  0  0  0  0
 10  9  1  0  0  0  0
 10 16  1  0  0  0  0
 11 10  2  0  0  0  0
 12  6  1  0  0  0  0
 13  7  1  0  0  0  0
 17 11  1  0  0  0  0
 18 19  1  0  0  0  0
 20 18  1  0  0  0  0
 21 18  1  0  0  0  0
M  END
