Coordinates from ORCA-job C6H6+AlCl4-+NH2--N2+-scan
 OpenBabel10221816123D

 22 19  0  0  0  0  0  0  0  0999 V2000
    6.4840   -2.8814   -6.0049 N   0  0  0  0  0  0  0  0  0  0  0  0
    7.4531   -3.1924   -5.5997 N   0  0  0  0  0  0  0  0  0  0  0  0
    1.6926    0.6083   -2.9696 N   0  0  0  0  0  0  0  0  0  0  0  0
    1.4596   -0.3372   -3.2867 H   0  0  0  0  0  0  0  0  0  0  0  0
    2.6285    0.8175   -3.3232 H   0  0  0  0  0  0  0  0  0  0  0  0
    1.4260   -0.8167   -6.4275 C   0  0  0  0  0  0  0  0  0  0  0  0
    0.1339   -0.8276   -5.9012 C   0  0  0  0  0  0  0  0  0  0  0  0
   -0.1930   -1.7128   -4.8729 C   0  0  0  0  0  0  0  0  0  0  0  0
    0.7748   -2.5840   -4.3680 C   0  0  0  0  0  0  0  0  0  0  0  0
    2.0681   -2.5722   -4.8956 C   0  0  0  0  0  0  0  0  0  0  0  0
    2.3928   -1.6892   -5.9261 C   0  0  0  0  0  0  0  0  0  0  0  0
    1.6778   -0.1316   -7.2297 H   0  0  0  0  0  0  0  0  0  0  0  0
   -0.6167   -0.1492   -6.2912 H   0  0  0  0  0  0  0  0  0  0  0  0
   -1.1987   -1.7248   -4.4671 H   0  0  0  0  0  0  0  0  0  0  0  0
    0.5238   -3.2749   -3.5707 H   0  0  0  0  0  0  0  0  0  0  0  0
    2.8180   -3.2481   -4.5014 H   0  0  0  0  0  0  0  0  0  0  0  0
    3.3960   -1.6870   -6.3377 H   0  0  0  0  0  0  0  0  0  0  0  0
    3.9468   -0.8802   -0.7966 Al  0  0  0  0  0  0  0  0  0  0  0  0
    4.2667   -0.2802    1.1965 Cl  0  0  0  0  0  0  0  0  0  0  0  0
    5.1806   -0.0600   -2.3159 Cl  0  0  0  0  0  0  0  0  0  0  0  0
    3.2985   -2.8623   -1.1317 Cl  0  0  0  0  0  0  0  0  0  0  0  0
    1.9315    0.4452   -1.2125 Cl  0  0  0  0  0  0  0  0  0  0  0  0
  1  2  3  0  0  0  0
  3 22  1  0  0  0  0
  4  3  1  0  0  0  0
  5  3  1  0  0  0  0
  6 11  2  0  0  0  0
  6  7  1  0  0  0  0
  7  8  2  0  0  0  0
  8 14  1  0  0  0  0
  8  9  1  0  0  0  0
  9 15  1  0  0  0  0
 10 16  1  0  0  0  0
 10  9  2  0  0  0  0
 11 10  1  0  0  0  0
 12  6  1  0  0  0  0
 13  7  1  0  0  0  0
 17 11  1  0  0  0  0
 18 19  1  0  0  0  0
 20 18  1  0  0  0  0
 21 18  1  0  0  0  0
M  END
