Coordinates from ORCA-job C6H6+AlCl4-+NH2--N2+-scan
 OpenBabel10221816113D

 22 19  0  0  0  0  0  0  0  0999 V2000
    5.6726   -0.1988   -5.2591 N   0  0  0  0  0  0  0  0  0  0  0  0
    6.5721   -0.3787   -5.8572 N   0  0  0  0  0  0  0  0  0  0  0  0
    2.8227    0.3325   -3.4559 N   0  0  0  0  0  0  0  0  0  0  0  0
    2.1559   -0.4390   -3.5419 H   0  0  0  0  0  0  0  0  0  0  0  0
    3.7269   -0.0034   -3.7923 H   0  0  0  0  0  0  0  0  0  0  0  0
    1.5236   -1.4202   -6.5739 C   0  0  0  0  0  0  0  0  0  0  0  0
    0.3759   -0.7941   -6.0877 C   0  0  0  0  0  0  0  0  0  0  0  0
   -0.1834   -1.2053   -4.8778 C   0  0  0  0  0  0  0  0  0  0  0  0
    0.4071   -2.2417   -4.1518 C   0  0  0  0  0  0  0  0  0  0  0  0
    1.5567   -2.8683   -4.6389 C   0  0  0  0  0  0  0  0  0  0  0  0
    2.1136   -2.4575   -5.8507 C   0  0  0  0  0  0  0  0  0  0  0  0
    1.9555   -1.1022   -7.5166 H   0  0  0  0  0  0  0  0  0  0  0  0
   -0.0816    0.0122   -6.6501 H   0  0  0  0  0  0  0  0  0  0  0  0
   -1.0778   -0.7211   -4.5012 H   0  0  0  0  0  0  0  0  0  0  0  0
   -0.0255   -2.5655   -3.2118 H   0  0  0  0  0  0  0  0  0  0  0  0
    2.0132   -3.6728   -4.0735 H   0  0  0  0  0  0  0  0  0  0  0  0
    3.0028   -2.9480   -6.2312 H   0  0  0  0  0  0  0  0  0  0  0  0
    3.8935   -1.5002   -0.6744 Al  0  0  0  0  0  0  0  0  0  0  0  0
    4.4836   -0.6342    1.1541 Cl  0  0  0  0  0  0  0  0  0  0  0  0
    5.3925   -2.0291   -2.0750 Cl  0  0  0  0  0  0  0  0  0  0  0  0
    2.1923   -2.7547   -0.6602 Cl  0  0  0  0  0  0  0  0  0  0  0  0
    3.0523    0.5492   -1.7063 Cl  0  0  0  0  0  0  0  0  0  0  0  0
  2  1  3  0  0  0  0
  3 22  1  0  0  0  0
  4  3  1  0  0  0  0
  5  3  1  0  0  0  0
  6  7  2  0  0  0  0
  6 11  1  0  0  0  0
  7  8  1  0  0  0  0
  8 14  1  0  0  0  0
  8  9  2  0  0  0  0
  9 15  1  0  0  0  0
 10  9  1  0  0  0  0
 10 16  1  0  0  0  0
 11 10  2  0  0  0  0
 12  6  1  0  0  0  0
 13  7  1  0  0  0  0
 17 11  1  0  0  0  0
 18 21  1  0  0  0  0
 18 19  1  0  0  0  0
 20 18  1  0  0  0  0
M  END
