Coordinates from ORCA-job C6H6+AlCl4-+NH2--N2+-scan
 OpenBabel10221816113D

 22 19  0  0  0  0  0  0  0  0999 V2000
    4.4415    0.2093   -5.7315 N   0  0  0  0  0  0  0  0  0  0  0  0
    4.5117    0.9454   -6.5398 N   0  0  0  0  0  0  0  0  0  0  0  0
    3.4747    0.2090   -3.2612 N   0  0  0  0  0  0  0  0  0  0  0  0
    2.7295   -0.3853   -3.6379 H   0  0  0  0  0  0  0  0  0  0  0  0
    4.3298   -0.3506   -3.2546 H   0  0  0  0  0  0  0  0  0  0  0  0
    1.6154   -1.8477   -6.7768 C   0  0  0  0  0  0  0  0  0  0  0  0
    0.7417   -0.8611   -6.3206 C   0  0  0  0  0  0  0  0  0  0  0  0
    0.2935   -0.8838   -4.9997 C   0  0  0  0  0  0  0  0  0  0  0  0
    0.7211   -1.8939   -4.1347 C   0  0  0  0  0  0  0  0  0  0  0  0
    1.6001   -2.8789   -4.5919 C   0  0  0  0  0  0  0  0  0  0  0  0
    2.0457   -2.8550   -5.9132 C   0  0  0  0  0  0  0  0  0  0  0  0
    1.9592   -1.8325   -7.8054 H   0  0  0  0  0  0  0  0  0  0  0  0
    0.4064   -0.0796   -6.9935 H   0  0  0  0  0  0  0  0  0  0  0  0
   -0.3950   -0.1233   -4.6473 H   0  0  0  0  0  0  0  0  0  0  0  0
    0.3611   -1.9269   -3.1122 H   0  0  0  0  0  0  0  0  0  0  0  0
    1.9266   -3.6632   -3.9183 H   0  0  0  0  0  0  0  0  0  0  0  0
    2.7235   -3.6227   -6.2699 H   0  0  0  0  0  0  0  0  0  0  0  0
    3.6722   -1.6661   -0.3243 Al  0  0  0  0  0  0  0  0  0  0  0  0
    3.9101   -0.8065    1.5829 Cl  0  0  0  0  0  0  0  0  0  0  0  0
    5.4062   -2.1679   -1.4402 Cl  0  0  0  0  0  0  0  0  0  0  0  0
    2.0110   -2.9390   -0.6144 Cl  0  0  0  0  0  0  0  0  0  0  0  0
    3.0586    0.3797   -1.5293 Cl  0  0  0  0  0  0  0  0  0  0  0  0
  2  1  3  0  0  0  0
  3  5  1  0  0  0  0
  3 22  1  0  0  0  0
  4  3  1  0  0  0  0
  6  7  2  0  0  0  0
  6 11  1  0  0  0  0
  7  8  1  0  0  0  0
  8 14  1  0  0  0  0
  8  9  2  0  0  0  0
  9 15  1  0  0  0  0
 10  9  1  0  0  0  0
 10 16  1  0  0  0  0
 11 10  2  0  0  0  0
 12  6  1  0  0  0  0
 13  7  1  0  0  0  0
 17 11  1  0  0  0  0
 18 19  1  0  0  0  0
 20 18  1  0  0  0  0
 21 18  1  0  0  0  0
M  END
