Coordinates from ORCA-job C6H6+AlCl4-+NH2--N2+-scan
 OpenBabel10221816123D

 22 19  0  0  0  0  0  0  0  0999 V2000
    6.3689   -2.7862   -5.8060 N   0  0  0  0  0  0  0  0  0  0  0  0
    7.3200   -3.0750   -5.3454 N   0  0  0  0  0  0  0  0  0  0  0  0
    1.7542    0.5952   -3.0069 N   0  0  0  0  0  0  0  0  0  0  0  0
    1.5043   -0.3495   -3.3126 H   0  0  0  0  0  0  0  0  0  0  0  0
    2.6900    0.7852   -3.3713 H   0  0  0  0  0  0  0  0  0  0  0  0
    1.3968   -0.8060   -6.4347 C   0  0  0  0  0  0  0  0  0  0  0  0
    0.1054   -0.8375   -5.9077 C   0  0  0  0  0  0  0  0  0  0  0  0
   -0.2079   -1.7302   -4.8819 C   0  0  0  0  0  0  0  0  0  0  0  0
    0.7727   -2.5887   -4.3803 C   0  0  0  0  0  0  0  0  0  0  0  0
    2.0652   -2.5569   -4.9091 C   0  0  0  0  0  0  0  0  0  0  0  0
    2.3768   -1.6665   -5.9373 C   0  0  0  0  0  0  0  0  0  0  0  0
    1.6381   -0.1149   -7.2350 H   0  0  0  0  0  0  0  0  0  0  0  0
   -0.6551   -0.1690   -6.2954 H   0  0  0  0  0  0  0  0  0  0  0  0
   -1.2130   -1.7583   -4.4755 H   0  0  0  0  0  0  0  0  0  0  0  0
    0.5326   -3.2854   -3.5847 H   0  0  0  0  0  0  0  0  0  0  0  0
    2.8253   -3.2235   -4.5186 H   0  0  0  0  0  0  0  0  0  0  0  0
    3.3796   -1.6489   -6.3491 H   0  0  0  0  0  0  0  0  0  0  0  0
    3.9969   -0.9217   -0.8416 Al  0  0  0  0  0  0  0  0  0  0  0  0
    4.3503   -0.3112    1.1425 Cl  0  0  0  0  0  0  0  0  0  0  0  0
    5.2353   -0.1451   -2.3801 Cl  0  0  0  0  0  0  0  0  0  0  0  0
    3.3004   -2.8913   -1.1523 Cl  0  0  0  0  0  0  0  0  0  0  0  0
    2.0079    0.4448   -1.2506 Cl  0  0  0  0  0  0  0  0  0  0  0  0
  1  2  3  0  0  0  0
  3 22  1  0  0  0  0
  4  3  1  0  0  0  0
  5  3  1  0  0  0  0
  6 11  2  0  0  0  0
  6  7  1  0  0  0  0
  7  8  2  0  0  0  0
  8 14  1  0  0  0  0
  8  9  1  0  0  0  0
  9 15  1  0  0  0  0
 10 16  1  0  0  0  0
 10  9  2  0  0  0  0
 11 10  1  0  0  0  0
 12  6  1  0  0  0  0
 13  7  1  0  0  0  0
 17 11  1  0  0  0  0
 18 19  1  0  0  0  0
 20 18  1  0  0  0  0
 21 18  1  0  0  0  0
M  END
