Coordinates from ORCA-job C6H6+AlCl4-+NH2--N2+-scan
 OpenBabel10221816123D

 22 19  0  0  0  0  0  0  0  0999 V2000
    6.4312   -2.6998   -6.5354 N   0  0  0  0  0  0  0  0  0  0  0  0
    7.4653   -3.0517   -6.4533 N   0  0  0  0  0  0  0  0  0  0  0  0
    1.6809    0.6352   -2.9548 N   0  0  0  0  0  0  0  0  0  0  0  0
    1.4302   -0.3092   -3.2617 H   0  0  0  0  0  0  0  0  0  0  0  0
    2.6333    0.8104   -3.2812 H   0  0  0  0  0  0  0  0  0  0  0  0
    1.5886   -0.9233   -6.3875 C   0  0  0  0  0  0  0  0  0  0  0  0
    0.2654   -0.8574   -5.9506 C   0  0  0  0  0  0  0  0  0  0  0  0
   -0.1657   -1.6759   -4.9056 C   0  0  0  0  0  0  0  0  0  0  0  0
    0.7296   -2.5566   -4.2946 C   0  0  0  0  0  0  0  0  0  0  0  0
    2.0545   -2.6216   -4.7330 C   0  0  0  0  0  0  0  0  0  0  0  0
    2.4835   -1.8060   -5.7807 C   0  0  0  0  0  0  0  0  0  0  0  0
    1.9213   -0.2907   -7.2033 H   0  0  0  0  0  0  0  0  0  0  0  0
   -0.4289   -0.1718   -6.4235 H   0  0  0  0  0  0  0  0  0  0  0  0
   -1.1957   -1.6291   -4.5694 H   0  0  0  0  0  0  0  0  0  0  0  0
    0.3977   -3.1965   -3.4843 H   0  0  0  0  0  0  0  0  0  0  0  0
    2.7475   -3.3049   -4.2561 H   0  0  0  0  0  0  0  0  0  0  0  0
    3.5100   -1.8636   -6.1257 H   0  0  0  0  0  0  0  0  0  0  0  0
    3.8148   -0.8630   -0.6597 Al  0  0  0  0  0  0  0  0  0  0  0  0
    4.0904   -0.1943    1.3183 Cl  0  0  0  0  0  0  0  0  0  0  0  0
    5.1181   -0.1374   -2.1687 Cl  0  0  0  0  0  0  0  0  0  0  0  0
    3.1186   -2.8379   -0.9352 Cl  0  0  0  0  0  0  0  0  0  0  0  0
    1.8540    0.5045   -1.1880 Cl  0  0  0  0  0  0  0  0  0  0  0  0
  1  2  3  0  0  0  0
  3 22  1  0  0  0  0
  4  3  1  0  0  0  0
  5  3  1  0  0  0  0
  6  7  2  0  0  0  0
  6 11  1  0  0  0  0
  7  8  1  0  0  0  0
  8 14  1  0  0  0  0
  8  9  2  0  0  0  0
  9 15  1  0  0  0  0
 10  9  1  0  0  0  0
 10 16  1  0  0  0  0
 11 10  2  0  0  0  0
 12  6  1  0  0  0  0
 13  7  1  0  0  0  0
 17 11  1  0  0  0  0
 18 19  1  0  0  0  0
 20 18  1  0  0  0  0
 21 18  1  0  0  0  0
M  END
