Coordinates from ORCA-job C6H6+AlCl4-+NH2--N2+-scan
 OpenBabel10221816113D

 22 19  0  0  0  0  0  0  0  0999 V2000
    6.7837   -0.3681   -5.6194 N   0  0  0  0  0  0  0  0  0  0  0  0
    7.8247   -0.6801   -5.7584 N   0  0  0  0  0  0  0  0  0  0  0  0
    2.5432    0.3667   -3.3909 N   0  0  0  0  0  0  0  0  0  0  0  0
    1.9165   -0.4360   -3.4947 H   0  0  0  0  0  0  0  0  0  0  0  0
    3.4613    0.0724   -3.7295 H   0  0  0  0  0  0  0  0  0  0  0  0
    1.4093   -1.3366   -6.4986 C   0  0  0  0  0  0  0  0  0  0  0  0
    0.2093   -0.8010   -6.0305 C   0  0  0  0  0  0  0  0  0  0  0  0
   -0.3626   -1.2916   -4.8565 C   0  0  0  0  0  0  0  0  0  0  0  0
    0.2672   -2.3173   -4.1486 C   0  0  0  0  0  0  0  0  0  0  0  0
    1.4683   -2.8545   -4.6181 C   0  0  0  0  0  0  0  0  0  0  0  0
    2.0383   -2.3637   -5.7938 C   0  0  0  0  0  0  0  0  0  0  0  0
    1.8521   -0.9561   -7.4125 H   0  0  0  0  0  0  0  0  0  0  0  0
   -0.2785   -0.0027   -6.5786 H   0  0  0  0  0  0  0  0  0  0  0  0
   -1.2969   -0.8773   -4.4940 H   0  0  0  0  0  0  0  0  0  0  0  0
   -0.1754   -2.7024   -3.2367 H   0  0  0  0  0  0  0  0  0  0  0  0
    1.9556   -3.6503   -4.0666 H   0  0  0  0  0  0  0  0  0  0  0  0
    2.9691   -2.7830   -6.1598 H   0  0  0  0  0  0  0  0  0  0  0  0
    3.9164   -1.4320   -0.7635 Al  0  0  0  0  0  0  0  0  0  0  0  0
    4.5189   -0.6050    1.0776 Cl  0  0  0  0  0  0  0  0  0  0  0  0
    5.3684   -1.6731   -2.2911 Cl  0  0  0  0  0  0  0  0  0  0  0  0
    2.3884   -2.8911   -0.7347 Cl  0  0  0  0  0  0  0  0  0  0  0  0
    2.7675    0.5422   -1.6346 Cl  0  0  0  0  0  0  0  0  0  0  0  0
  2  1  3  0  0  0  0
  3 22  1  0  0  0  0
  4  3  1  0  0  0  0
  5  3  1  0  0  0  0
  6  7  2  0  0  0  0
  6 11  1  0  0  0  0
  7  8  1  0  0  0  0
  8 14  1  0  0  0  0
  8  9  2  0  0  0  0
  9 15  1  0  0  0  0
 10  9  1  0  0  0  0
 10 16  1  0  0  0  0
 11 10  2  0  0  0  0
 12  6  1  0  0  0  0
 13  7  1  0  0  0  0
 17 11  1  0  0  0  0
 18 21  1  0  0  0  0
 18 19  1  0  0  0  0
 20 18  1  0  0  0  0
M  END
