Coordinates from ORCA-job C6H6+AlCl4-+NH2--N2+-scan
 OpenBabel10221816113D

 22 19  0  0  0  0  0  0  0  0999 V2000
    6.7913   -0.3701   -5.6214 N   0  0  0  0  0  0  0  0  0  0  0  0
    7.8324   -0.6829   -5.7568 N   0  0  0  0  0  0  0  0  0  0  0  0
    2.5411    0.3671   -3.3903 N   0  0  0  0  0  0  0  0  0  0  0  0
    1.9147   -0.4359   -3.4944 H   0  0  0  0  0  0  0  0  0  0  0  0
    3.4593    0.0733   -3.7291 H   0  0  0  0  0  0  0  0  0  0  0  0
    1.4084   -1.3359   -6.4981 C   0  0  0  0  0  0  0  0  0  0  0  0
    0.2081   -0.8010   -6.0301 C   0  0  0  0  0  0  0  0  0  0  0  0
   -0.3638   -1.2923   -4.8564 C   0  0  0  0  0  0  0  0  0  0  0  0
    0.2663   -2.3180   -4.1487 C   0  0  0  0  0  0  0  0  0  0  0  0
    1.4678   -2.8544   -4.6182 C   0  0  0  0  0  0  0  0  0  0  0  0
    2.0378   -2.3630   -5.7935 C   0  0  0  0  0  0  0  0  0  0  0  0
    1.8513   -0.9549   -7.4118 H   0  0  0  0  0  0  0  0  0  0  0  0
   -0.2799   -0.0028   -6.5780 H   0  0  0  0  0  0  0  0  0  0  0  0
   -1.2984   -0.8785   -4.4939 H   0  0  0  0  0  0  0  0  0  0  0  0
   -0.1763   -2.7035   -3.2370 H   0  0  0  0  0  0  0  0  0  0  0  0
    1.9553   -3.6501   -4.0668 H   0  0  0  0  0  0  0  0  0  0  0  0
    2.9689   -2.7817   -6.1594 H   0  0  0  0  0  0  0  0  0  0  0  0
    3.9168   -1.4313   -0.7643 Al  0  0  0  0  0  0  0  0  0  0  0  0
    4.5193   -0.6047    1.0770 Cl  0  0  0  0  0  0  0  0  0  0  0  0
    5.3684   -1.6701   -2.2927 Cl  0  0  0  0  0  0  0  0  0  0  0  0
    2.3904   -2.8921   -0.7355 Cl  0  0  0  0  0  0  0  0  0  0  0  0
    2.7655    0.5421   -1.6340 Cl  0  0  0  0  0  0  0  0  0  0  0  0
  2  1  3  0  0  0  0
  3 22  1  0  0  0  0
  4  3  1  0  0  0  0
  5  3  1  0  0  0  0
  6  7  2  0  0  0  0
  6 11  1  0  0  0  0
  7  8  1  0  0  0  0
  8 14  1  0  0  0  0
  8  9  2  0  0  0  0
  9 15  1  0  0  0  0
 10  9  1  0  0  0  0
 10 16  1  0  0  0  0
 11 10  2  0  0  0  0
 12  6  1  0  0  0  0
 13  7  1  0  0  0  0
 17 11  1  0  0  0  0
 18 21  1  0  0  0  0
 18 19  1  0  0  0  0
 20 18  1  0  0  0  0
M  END
