Coordinates from ORCA-job C6H6+AlCl4-+NH2--N2+-scan
 OpenBabel10221816113D

 22 19  0  0  0  0  0  0  0  0999 V2000
    6.5512   -0.3244   -5.5586 N   0  0  0  0  0  0  0  0  0  0  0  0
    7.5801   -0.6105   -5.8028 N   0  0  0  0  0  0  0  0  0  0  0  0
    2.6057    0.3567   -3.4059 N   0  0  0  0  0  0  0  0  0  0  0  0
    1.9691   -0.4389   -3.5050 H   0  0  0  0  0  0  0  0  0  0  0  0
    3.5210    0.0495   -3.7403 H   0  0  0  0  0  0  0  0  0  0  0  0
    1.4339   -1.3543   -6.5136 C   0  0  0  0  0  0  0  0  0  0  0  0
    0.2444   -0.7992   -6.0416 C   0  0  0  0  0  0  0  0  0  0  0  0
   -0.3254   -1.2726   -4.8596 C   0  0  0  0  0  0  0  0  0  0  0  0
    0.2960   -2.3004   -4.1474 C   0  0  0  0  0  0  0  0  0  0  0  0
    1.4868   -2.8569   -4.6208 C   0  0  0  0  0  0  0  0  0  0  0  0
    2.0547   -2.3835   -5.8045 C   0  0  0  0  0  0  0  0  0  0  0  0
    1.8751   -0.9872   -7.4338 H   0  0  0  0  0  0  0  0  0  0  0  0
   -0.2369    0.0007   -6.5930 H   0  0  0  0  0  0  0  0  0  0  0  0
   -1.2517   -0.8431   -4.4939 H   0  0  0  0  0  0  0  0  0  0  0  0
   -0.1449   -2.6720   -3.2291 H   0  0  0  0  0  0  0  0  0  0  0  0
    1.9675   -3.6545   -4.0660 H   0  0  0  0  0  0  0  0  0  0  0  0
    2.9772   -2.8180   -6.1735 H   0  0  0  0  0  0  0  0  0  0  0  0
    3.9051   -1.4488   -0.7393 Al  0  0  0  0  0  0  0  0  0  0  0  0
    4.5021   -0.6130    1.0999 Cl  0  0  0  0  0  0  0  0  0  0  0  0
    5.3732   -1.7547   -2.2389 Cl  0  0  0  0  0  0  0  0  0  0  0  0
    2.3344   -2.8621   -0.7146 Cl  0  0  0  0  0  0  0  0  0  0  0  0
    2.8261    0.5465   -1.6511 Cl  0  0  0  0  0  0  0  0  0  0  0  0
  2  1  3  0  0  0  0
  3 22  1  0  0  0  0
  4  3  1  0  0  0  0
  5  3  1  0  0  0  0
  6  7  2  0  0  0  0
  6 11  1  0  0  0  0
  7  8  1  0  0  0  0
  8 14  1  0  0  0  0
  8  9  2  0  0  0  0
  9 15  1  0  0  0  0
 10  9  1  0  0  0  0
 10 16  1  0  0  0  0
 11 10  2  0  0  0  0
 12  6  1  0  0  0  0
 13  7  1  0  0  0  0
 17 11  1  0  0  0  0
 18 21  1  0  0  0  0
 18 19  1  0  0  0  0
 20 18  1  0  0  0  0
M  END
