Coordinates from ORCA-job C6H6+AlCl4-+NH2--N2+-scan
 OpenBabel10221816113D

 22 20  0  0  0  0  0  0  0  0999 V2000
    3.5811   -0.2080   -4.4342 N   0  0  0  0  0  0  0  0  0  0  0  0
    3.9304   -0.5486   -5.4194 N   0  0  0  0  0  0  0  0  0  0  0  0
    3.1355    0.6458   -3.1553 N   0  0  0  0  0  0  0  0  0  0  0  0
    2.5153   -0.0533   -2.6885 H   0  0  0  0  0  0  0  0  0  0  0  0
    4.0375    0.6074   -2.5998 H   0  0  0  0  0  0  0  0  0  0  0  0
    1.7007   -2.3966   -6.6715 C   0  0  0  0  0  0  0  0  0  0  0  0
    1.0991   -1.1556   -6.9010 C   0  0  0  0  0  0  0  0  0  0  0  0
    0.4483   -0.4942   -5.8610 C   0  0  0  0  0  0  0  0  0  0  0  0
    0.4016   -1.0732   -4.5899 C   0  0  0  0  0  0  0  0  0  0  0  0
    1.0010   -2.3152   -4.3612 C   0  0  0  0  0  0  0  0  0  0  0  0
    1.6491   -2.9770   -5.4039 C   0  0  0  0  0  0  0  0  0  0  0  0
    2.2006   -2.9133   -7.4835 H   0  0  0  0  0  0  0  0  0  0  0  0
    1.1305   -0.7132   -7.8908 H   0  0  0  0  0  0  0  0  0  0  0  0
   -0.0306    0.4623   -6.0395 H   0  0  0  0  0  0  0  0  0  0  0  0
   -0.1226   -0.5705   -3.7838 H   0  0  0  0  0  0  0  0  0  0  0  0
    0.9615   -2.7631   -3.3751 H   0  0  0  0  0  0  0  0  0  0  0  0
    2.1160   -3.9385   -5.2247 H   0  0  0  0  0  0  0  0  0  0  0  0
    4.3937   -1.8098   -0.7948 Al  0  0  0  0  0  0  0  0  0  0  0  0
    5.0285   -2.8219    0.9457 Cl  0  0  0  0  0  0  0  0  0  0  0  0
    5.4028    0.1411   -1.0650 Cl  0  0  0  0  0  0  0  0  0  0  0  0
    4.7104   -2.8543   -2.6641 Cl  0  0  0  0  0  0  0  0  0  0  0  0
    2.2543   -1.2910   -0.7723 Cl  0  0  0  0  0  0  0  0  0  0  0  0
  1  3  1  0  0  0  0
  2  1  1  0  0  0  0
  3  4  1  0  0  0  0
  3  5  1  0  0  0  0
  6 11  1  0  0  0  0
  7  6  2  0  0  0  0
  7  8  1  0  0  0  0
  8  9  2  0  0  0  0
  9 10  1  0  0  0  0
  9 15  1  0  0  0  0
 10 16  1  0  0  0  0
 11 17  1  0  0  0  0
 11 10  2  0  0  0  0
 12  6  1  0  0  0  0
 13  7  1  0  0  0  0
 14  8  1  0  0  0  0
 18 22  1  0  0  0  0
 18 19  1  0  0  0  0
 20 18  1  0  0  0  0
 21 18  1  0  0  0  0
M  RAD  2   1   2   2   3
M  END
