Coordinates from ORCA-job C6H6+AlCl4-+NH2--N2+-scan
 OpenBabel10221816113D

 22 19  0  0  0  0  0  0  0  0999 V2000
    4.5796    0.2001   -5.7689 N   0  0  0  0  0  0  0  0  0  0  0  0
    4.6345    0.8931   -6.6155 N   0  0  0  0  0  0  0  0  0  0  0  0
    3.4181    0.2059   -3.2842 N   0  0  0  0  0  0  0  0  0  0  0  0
    2.6787   -0.4041   -3.6468 H   0  0  0  0  0  0  0  0  0  0  0  0
    4.2868   -0.3310   -3.2971 H   0  0  0  0  0  0  0  0  0  0  0  0
    1.6407   -1.8082   -6.7375 C   0  0  0  0  0  0  0  0  0  0  0  0
    0.7346   -0.8482   -6.2880 C   0  0  0  0  0  0  0  0  0  0  0  0
    0.2507   -0.9045   -4.9807 C   0  0  0  0  0  0  0  0  0  0  0  0
    0.6753   -1.9215   -4.1224 C   0  0  0  0  0  0  0  0  0  0  0  0
    1.5861   -2.8804   -4.5727 C   0  0  0  0  0  0  0  0  0  0  0  0
    2.0673   -2.8230   -5.8806 C   0  0  0  0  0  0  0  0  0  0  0  0
    2.0124   -1.7668   -7.7555 H   0  0  0  0  0  0  0  0  0  0  0  0
    0.4023   -0.0608   -6.9555 H   0  0  0  0  0  0  0  0  0  0  0  0
   -0.4617   -0.1641   -4.6333 H   0  0  0  0  0  0  0  0  0  0  0  0
    0.2903   -1.9791   -3.1103 H   0  0  0  0  0  0  0  0  0  0  0  0
    1.9108   -3.6696   -3.9042 H   0  0  0  0  0  0  0  0  0  0  0  0
    2.7702   -3.5703   -6.2319 H   0  0  0  0  0  0  0  0  0  0  0  0
    3.6779   -1.6682   -0.3501 Al  0  0  0  0  0  0  0  0  0  0  0  0
    3.9360   -0.8018    1.5517 Cl  0  0  0  0  0  0  0  0  0  0  0  0
    5.3992   -2.1633   -1.4874 Cl  0  0  0  0  0  0  0  0  0  0  0  0
    2.0182   -2.9485   -0.6143 Cl  0  0  0  0  0  0  0  0  0  0  0  0
    3.0365    0.3737   -1.5484 Cl  0  0  0  0  0  0  0  0  0  0  0  0
  2  1  3  0  0  0  0
  3 22  1  0  0  0  0
  4  3  1  0  0  0  0
  5  3  1  0  0  0  0
  6  7  2  0  0  0  0
  6 11  1  0  0  0  0
  7  8  1  0  0  0  0
  8 14  1  0  0  0  0
  8  9  2  0  0  0  0
  9 15  1  0  0  0  0
 10  9  1  0  0  0  0
 10 16  1  0  0  0  0
 11 10  2  0  0  0  0
 12  6  1  0  0  0  0
 13  7  1  0  0  0  0
 17 11  1  0  0  0  0
 18 19  1  0  0  0  0
 20 18  1  0  0  0  0
 21 18  1  0  0  0  0
M  END
