Coordinates from ORCA-job C6H6+AlCl4-+NH2--N2+-scan
 OpenBabel10221816123D

 22 19  0  0  0  0  0  0  0  0999 V2000
    7.1384   -0.5662   -5.6307 N   0  0  0  0  0  0  0  0  0  0  0  0
    8.1343   -0.9246   -5.3480 N   0  0  0  0  0  0  0  0  0  0  0  0
    2.4393    0.3933   -3.4056 N   0  0  0  0  0  0  0  0  0  0  0  0
    1.8389   -0.4292   -3.5102 H   0  0  0  0  0  0  0  0  0  0  0  0
    3.3618    0.1321   -3.7593 H   0  0  0  0  0  0  0  0  0  0  0  0
    1.3297   -1.2723   -6.4785 C   0  0  0  0  0  0  0  0  0  0  0  0
    0.1148   -0.7976   -5.9839 C   0  0  0  0  0  0  0  0  0  0  0  0
   -0.4301   -1.3500   -4.8246 C   0  0  0  0  0  0  0  0  0  0  0  0
    0.2417   -2.3765   -4.1577 C   0  0  0  0  0  0  0  0  0  0  0  0
    1.4577   -2.8528   -4.6537 C   0  0  0  0  0  0  0  0  0  0  0  0
    2.0007   -2.3005   -5.8148 C   0  0  0  0  0  0  0  0  0  0  0  0
    1.7517   -0.8439   -7.3810 H   0  0  0  0  0  0  0  0  0  0  0  0
   -0.4055    0.0016   -6.5000 H   0  0  0  0  0  0  0  0  0  0  0  0
   -1.3760   -0.9830   -4.4416 H   0  0  0  0  0  0  0  0  0  0  0  0
   -0.1801   -2.8091   -3.2573 H   0  0  0  0  0  0  0  0  0  0  0  0
    1.9779   -3.6492   -4.1339 H   0  0  0  0  0  0  0  0  0  0  0  0
    2.9432   -2.6724   -6.2014 H   0  0  0  0  0  0  0  0  0  0  0  0
    3.9824   -1.3622   -0.8503 Al  0  0  0  0  0  0  0  0  0  0  0  0
    4.5840   -0.5408    0.9930 Cl  0  0  0  0  0  0  0  0  0  0  0  0
    5.3971   -1.4646   -2.4286 Cl  0  0  0  0  0  0  0  0  0  0  0  0
    2.5588   -2.9226   -0.8162 Cl  0  0  0  0  0  0  0  0  0  0  0  0
    2.6839    0.5499   -1.6491 Cl  0  0  0  0  0  0  0  0  0  0  0  0
  1  2  3  0  0  0  0
  3 22  1  0  0  0  0
  4  3  1  0  0  0  0
  5  3  1  0  0  0  0
  6  7  2  0  0  0  0
  6 11  1  0  0  0  0
  7  8  1  0  0  0  0
  8 14  1  0  0  0  0
  8  9  2  0  0  0  0
  9 15  1  0  0  0  0
 10  9  1  0  0  0  0
 10 16  1  0  0  0  0
 11 10  2  0  0  0  0
 12  6  1  0  0  0  0
 13  7  1  0  0  0  0
 17 11  1  0  0  0  0
 18 21  1  0  0  0  0
 18 19  1  0  0  0  0
 20 18  1  0  0  0  0
M  END
