Coordinates from ORCA-job C6H6+AlCl4-+NH2--N2+-scan
 OpenBabel10221816123D

 22 19  0  0  0  0  0  0  0  0999 V2000
    7.1291   -0.5546   -5.6472 N   0  0  0  0  0  0  0  0  0  0  0  0
    8.1273   -0.9191   -5.3808 N   0  0  0  0  0  0  0  0  0  0  0  0
    2.4453    0.3956   -3.4094 N   0  0  0  0  0  0  0  0  0  0  0  0
    1.8456   -0.4276   -3.5124 H   0  0  0  0  0  0  0  0  0  0  0  0
    3.3668    0.1349   -3.7658 H   0  0  0  0  0  0  0  0  0  0  0  0
    1.3321   -1.2716   -6.4771 C   0  0  0  0  0  0  0  0  0  0  0  0
    0.1173   -0.7981   -5.9809 C   0  0  0  0  0  0  0  0  0  0  0  0
   -0.4259   -1.3517   -4.8213 C   0  0  0  0  0  0  0  0  0  0  0  0
    0.2474   -2.3780   -4.1557 C   0  0  0  0  0  0  0  0  0  0  0  0
    1.4632   -2.8531   -4.6533 C   0  0  0  0  0  0  0  0  0  0  0  0
    2.0045   -2.2997   -5.8147 C   0  0  0  0  0  0  0  0  0  0  0  0
    1.7527   -0.8423   -7.3797 H   0  0  0  0  0  0  0  0  0  0  0  0
   -0.4041    0.0010   -6.4958 H   0  0  0  0  0  0  0  0  0  0  0  0
   -1.3716   -0.9855   -4.4370 H   0  0  0  0  0  0  0  0  0  0  0  0
   -0.1728   -2.8113   -3.2549 H   0  0  0  0  0  0  0  0  0  0  0  0
    1.9845   -3.6494   -4.1345 H   0  0  0  0  0  0  0  0  0  0  0  0
    2.9468   -2.6707   -6.2026 H   0  0  0  0  0  0  0  0  0  0  0  0
    3.9696   -1.3667   -0.8422 Al  0  0  0  0  0  0  0  0  0  0  0  0
    4.5616   -0.5405    1.0024 Cl  0  0  0  0  0  0  0  0  0  0  0  0
    5.4016   -1.4950   -2.4026 Cl  0  0  0  0  0  0  0  0  0  0  0  0
    2.5290   -2.9118   -0.8139 Cl  0  0  0  0  0  0  0  0  0  0  0  0
    2.6947    0.5546   -1.6540 Cl  0  0  0  0  0  0  0  0  0  0  0  0
  1  2  3  0  0  0  0
  3 22  1  0  0  0  0
  4  3  1  0  0  0  0
  5  3  1  0  0  0  0
  6  7  2  0  0  0  0
  6 11  1  0  0  0  0
  7  8  1  0  0  0  0
  8 14  1  0  0  0  0
  8  9  2  0  0  0  0
  9 15  1  0  0  0  0
 10  9  1  0  0  0  0
 10 16  1  0  0  0  0
 11 10  2  0  0  0  0
 12  6  1  0  0  0  0
 13  7  1  0  0  0  0
 17 11  1  0  0  0  0
 18 21  1  0  0  0  0
 18 19  1  0  0  0  0
 20 18  1  0  0  0  0
M  END
