Coordinates from ORCA-job C6H6+AlCl4-+NH2--N2+-scan
 OpenBabel10221816113D

 22 20  0  0  0  0  0  0  0  0999 V2000
    3.6207   -0.1828   -4.4170 N   0  0  0  0  0  0  0  0  0  0  0  0
    3.9681   -0.5145   -5.4146 N   0  0  0  0  0  0  0  0  0  0  0  0
    3.2342    0.3937   -3.2467 N   0  0  0  0  0  0  0  0  0  0  0  0
    2.5375   -0.2232   -2.7828 H   0  0  0  0  0  0  0  0  0  0  0  0
    4.0851    0.5020   -2.6159 H   0  0  0  0  0  0  0  0  0  0  0  0
    1.6894   -2.3578   -6.6730 C   0  0  0  0  0  0  0  0  0  0  0  0
    1.0738   -1.1245   -6.9016 C   0  0  0  0  0  0  0  0  0  0  0  0
    0.4062   -0.4753   -5.8638 C   0  0  0  0  0  0  0  0  0  0  0  0
    0.3536   -1.0604   -4.5963 C   0  0  0  0  0  0  0  0  0  0  0  0
    0.9690   -2.2944   -4.3675 C   0  0  0  0  0  0  0  0  0  0  0  0
    1.6367   -2.9424   -5.4073 C   0  0  0  0  0  0  0  0  0  0  0  0
    2.2028   -2.8646   -7.4826 H   0  0  0  0  0  0  0  0  0  0  0  0
    1.1078   -0.6769   -7.8889 H   0  0  0  0  0  0  0  0  0  0  0  0
   -0.0832    0.4758   -6.0431 H   0  0  0  0  0  0  0  0  0  0  0  0
   -0.1843   -0.5679   -3.7931 H   0  0  0  0  0  0  0  0  0  0  0  0
    0.9235   -2.7499   -3.3850 H   0  0  0  0  0  0  0  0  0  0  0  0
    2.1145   -3.8986   -5.2279 H   0  0  0  0  0  0  0  0  0  0  0  0
    4.4109   -1.7845   -0.7468 Al  0  0  0  0  0  0  0  0  0  0  0  0
    5.0436   -2.6936    1.0489 Cl  0  0  0  0  0  0  0  0  0  0  0  0
    5.3474    0.2086   -1.0548 Cl  0  0  0  0  0  0  0  0  0  0  0  0
    4.8317   -2.8630   -2.5713 Cl  0  0  0  0  0  0  0  0  0  0  0  0
    2.2556   -1.3465   -0.8023 Cl  0  0  0  0  0  0  0  0  0  0  0  0
  1  3  1  0  0  0  0
  2  1  1  0  0  0  0
  3  4  1  0  0  0  0
  3  5  1  0  0  0  0
  6 11  1  0  0  0  0
  7  6  2  0  0  0  0
  7  8  1  0  0  0  0
  8  9  2  0  0  0  0
  9 10  1  0  0  0  0
  9 15  1  0  0  0  0
 10 16  1  0  0  0  0
 11 17  1  0  0  0  0
 11 10  2  0  0  0  0
 12  6  1  0  0  0  0
 13  7  1  0  0  0  0
 14  8  1  0  0  0  0
 18 19  1  0  0  0  0
 20 18  1  0  0  0  0
 21 18  1  0  0  0  0
 22 18  1  0  0  0  0
M  RAD  2   1   2   2   3
M  END
