Coordinates from ORCA-job C6H6+AlCl4-+NH2--N2+-scan
 OpenBabel10221816113D

 22 19  0  0  0  0  0  0  0  0999 V2000
    6.9209   -0.4223   -5.6290 N   0  0  0  0  0  0  0  0  0  0  0  0
    7.9624   -0.7533   -5.7045 N   0  0  0  0  0  0  0  0  0  0  0  0
    2.5048    0.3793   -3.3878 N   0  0  0  0  0  0  0  0  0  0  0  0
    1.8885   -0.4314   -3.4929 H   0  0  0  0  0  0  0  0  0  0  0  0
    3.4248    0.0983   -3.7323 H   0  0  0  0  0  0  0  0  0  0  0  0
    1.3841   -1.3185   -6.4940 C   0  0  0  0  0  0  0  0  0  0  0  0
    0.1782   -0.8031   -6.0187 C   0  0  0  0  0  0  0  0  0  0  0  0
   -0.3840   -1.3109   -4.8473 C   0  0  0  0  0  0  0  0  0  0  0  0
    0.2617   -2.3333   -4.1490 C   0  0  0  0  0  0  0  0  0  0  0  0
    1.4688   -2.8502   -4.6257 C   0  0  0  0  0  0  0  0  0  0  0  0
    2.0290   -2.3425   -5.7989 C   0  0  0  0  0  0  0  0  0  0  0  0
    1.8193   -0.9249   -7.4060 H   0  0  0  0  0  0  0  0  0  0  0  0
   -0.3219   -0.0074   -6.5593 H   0  0  0  0  0  0  0  0  0  0  0  0
   -1.3229   -0.9123   -4.4791 H   0  0  0  0  0  0  0  0  0  0  0  0
   -0.1733   -2.7315   -3.2391 H   0  0  0  0  0  0  0  0  0  0  0  0
    1.9684   -3.6435   -4.0817 H   0  0  0  0  0  0  0  0  0  0  0  0
    2.9645   -2.7460   -6.1705 H   0  0  0  0  0  0  0  0  0  0  0  0
    3.9230   -1.4163   -0.7801 Al  0  0  0  0  0  0  0  0  0  0  0  0
    4.5227   -0.5912    1.0628 Cl  0  0  0  0  0  0  0  0  0  0  0  0
    5.3696   -1.6251   -2.3173 Cl  0  0  0  0  0  0  0  0  0  0  0  0
    2.4184   -2.8995   -0.7521 Cl  0  0  0  0  0  0  0  0  0  0  0  0
    2.7375    0.5450   -1.6312 Cl  0  0  0  0  0  0  0  0  0  0  0  0
  2  1  3  0  0  0  0
  3 22  1  0  0  0  0
  4  3  1  0  0  0  0
  5  3  1  0  0  0  0
  6  7  2  0  0  0  0
  6 11  1  0  0  0  0
  7  8  1  0  0  0  0
  8 14  1  0  0  0  0
  8  9  2  0  0  0  0
  9 15  1  0  0  0  0
 10  9  1  0  0  0  0
 10 16  1  0  0  0  0
 11 10  2  0  0  0  0
 12  6  1  0  0  0  0
 13  7  1  0  0  0  0
 17 11  1  0  0  0  0
 18 21  1  0  0  0  0
 18 19  1  0  0  0  0
 20 18  1  0  0  0  0
M  END
