Coordinates from ORCA-job C6H6+AlCl4-+NH2--N2+-scan
 OpenBabel10221816113D

 22 19  0  0  0  0  0  0  0  0999 V2000
    4.6246    0.1999   -5.8341 N   0  0  0  0  0  0  0  0  0  0  0  0
    4.6798    0.8712   -6.6980 N   0  0  0  0  0  0  0  0  0  0  0  0
    3.3958    0.2130   -3.2703 N   0  0  0  0  0  0  0  0  0  0  0  0
    2.6616   -0.4015   -3.6354 H   0  0  0  0  0  0  0  0  0  0  0  0
    4.2710   -0.3127   -3.2912 H   0  0  0  0  0  0  0  0  0  0  0  0
    1.6474   -1.7969   -6.7260 C   0  0  0  0  0  0  0  0  0  0  0  0
    0.7330   -0.8442   -6.2777 C   0  0  0  0  0  0  0  0  0  0  0  0
    0.2417   -0.9093   -4.9735 C   0  0  0  0  0  0  0  0  0  0  0  0
    0.6670   -1.9276   -4.1174 C   0  0  0  0  0  0  0  0  0  0  0  0
    1.5860   -2.8792   -4.5664 C   0  0  0  0  0  0  0  0  0  0  0  0
    2.0748   -2.8131   -5.8711 C   0  0  0  0  0  0  0  0  0  0  0  0
    2.0251   -1.7486   -7.7416 H   0  0  0  0  0  0  0  0  0  0  0  0
    0.4003   -0.0556   -6.9436 H   0  0  0  0  0  0  0  0  0  0  0  0
   -0.4769   -0.1746   -4.6271 H   0  0  0  0  0  0  0  0  0  0  0  0
    0.2766   -1.9919   -3.1078 H   0  0  0  0  0  0  0  0  0  0  0  0
    1.9115   -3.6695   -3.8995 H   0  0  0  0  0  0  0  0  0  0  0  0
    2.7842   -3.5547   -6.2215 H   0  0  0  0  0  0  0  0  0  0  0  0
    3.6740   -1.6769   -0.3478 Al  0  0  0  0  0  0  0  0  0  0  0  0
    3.9341   -0.8170    1.5566 Cl  0  0  0  0  0  0  0  0  0  0  0  0
    5.3937   -2.1593   -1.4926 Cl  0  0  0  0  0  0  0  0  0  0  0  0
    2.0178   -2.9613   -0.6128 Cl  0  0  0  0  0  0  0  0  0  0  0  0
    3.0211    0.3691   -1.5348 Cl  0  0  0  0  0  0  0  0  0  0  0  0
  2  1  3  0  0  0  0
  3 22  1  0  0  0  0
  4  3  1  0  0  0  0
  5  3  1  0  0  0  0
  6  7  2  0  0  0  0
  6 11  1  0  0  0  0
  7  8  1  0  0  0  0
  8 14  1  0  0  0  0
  8  9  2  0  0  0  0
  9 15  1  0  0  0  0
 10  9  1  0  0  0  0
 10 16  1  0  0  0  0
 11 10  2  0  0  0  0
 12  6  1  0  0  0  0
 13  7  1  0  0  0  0
 17 11  1  0  0  0  0
 18 19  1  0  0  0  0
 20 18  1  0  0  0  0
 21 18  1  0  0  0  0
M  END
