Coordinates from ORCA-job C6H6+AlCl4-+NH2--N2+-scan
 OpenBabel10221816123D

 22 19  0  0  0  0  0  0  0  0999 V2000
    6.1674   -2.6211   -5.5952 N   0  0  0  0  0  0  0  0  0  0  0  0
    7.0979   -2.9167   -5.0983 N   0  0  0  0  0  0  0  0  0  0  0  0
    1.8483    0.5688   -3.0589 N   0  0  0  0  0  0  0  0  0  0  0  0
    1.5692   -0.3729   -3.3479 H   0  0  0  0  0  0  0  0  0  0  0  0
    2.7865    0.7270   -3.4319 H   0  0  0  0  0  0  0  0  0  0  0  0
    1.3780   -0.8017   -6.4405 C   0  0  0  0  0  0  0  0  0  0  0  0
    0.0824   -0.8540   -5.9257 C   0  0  0  0  0  0  0  0  0  0  0  0
   -0.2267   -1.7527   -4.9041 C   0  0  0  0  0  0  0  0  0  0  0  0
    0.7619   -2.5975   -4.3950 C   0  0  0  0  0  0  0  0  0  0  0  0
    2.0587   -2.5452   -4.9117 C   0  0  0  0  0  0  0  0  0  0  0  0
    2.3665   -1.6477   -5.9352 C   0  0  0  0  0  0  0  0  0  0  0  0
    1.6162   -0.1053   -7.2371 H   0  0  0  0  0  0  0  0  0  0  0  0
   -0.6846   -0.1964   -6.3193 H   0  0  0  0  0  0  0  0  0  0  0  0
   -1.2348   -1.7961   -4.5065 H   0  0  0  0  0  0  0  0  0  0  0  0
    0.5250   -3.2989   -3.6026 H   0  0  0  0  0  0  0  0  0  0  0  0
    2.8253   -3.2007   -4.5150 H   0  0  0  0  0  0  0  0  0  0  0  0
    3.3734   -1.6133   -6.3356 H   0  0  0  0  0  0  0  0  0  0  0  0
    4.0615   -0.9639   -0.8778 Al  0  0  0  0  0  0  0  0  0  0  0  0
    4.4294   -0.3400    1.0995 Cl  0  0  0  0  0  0  0  0  0  0  0  0
    5.3167   -0.2329   -2.4250 Cl  0  0  0  0  0  0  0  0  0  0  0  0
    3.3216   -2.9210   -1.1680 Cl  0  0  0  0  0  0  0  0  0  0  0  0
    2.1049    0.4414   -1.3017 Cl  0  0  0  0  0  0  0  0  0  0  0  0
  1  2  3  0  0  0  0
  3 22  1  0  0  0  0
  4  3  1  0  0  0  0
  5  3  1  0  0  0  0
  6 11  2  0  0  0  0
  6  7  1  0  0  0  0
  7  8  2  0  0  0  0
  8 14  1  0  0  0  0
  8  9  1  0  0  0  0
  9 15  1  0  0  0  0
 10 16  1  0  0  0  0
 10  9  2  0  0  0  0
 11 10  1  0  0  0  0
 12  6  1  0  0  0  0
 13  7  1  0  0  0  0
 17 11  1  0  0  0  0
 18 19  1  0  0  0  0
 20 18  1  0  0  0  0
 21 18  1  0  0  0  0
M  END
