Coordinates from ORCA-job C6H6+AlCl4-+NH2--N2+-scan
 OpenBabel10221816123D

 22 19  0  0  0  0  0  0  0  0999 V2000
    7.4038   -0.8399   -5.6491 N   0  0  0  0  0  0  0  0  0  0  0  0
    8.3557   -1.1575   -5.2093 N   0  0  0  0  0  0  0  0  0  0  0  0
    2.3371    0.4389   -3.3780 N   0  0  0  0  0  0  0  0  0  0  0  0
    1.7767   -0.4100   -3.4944 H   0  0  0  0  0  0  0  0  0  0  0  0
    3.2667    0.2299   -3.7472 H   0  0  0  0  0  0  0  0  0  0  0  0
    1.2664   -1.2137   -6.4802 C   0  0  0  0  0  0  0  0  0  0  0  0
    0.0368   -0.8130   -5.9570 C   0  0  0  0  0  0  0  0  0  0  0  0
   -0.4592   -1.4160   -4.8009 C   0  0  0  0  0  0  0  0  0  0  0  0
    0.2762   -2.4190   -4.1659 C   0  0  0  0  0  0  0  0  0  0  0  0
    1.5069   -2.8211   -4.6907 C   0  0  0  0  0  0  0  0  0  0  0  0
    2.0010   -2.2182   -5.8485 C   0  0  0  0  0  0  0  0  0  0  0  0
    1.6502   -0.7461   -7.3803 H   0  0  0  0  0  0  0  0  0  0  0  0
   -0.5329   -0.0322   -6.4482 H   0  0  0  0  0  0  0  0  0  0  0  0
   -1.4163   -1.1066   -4.3956 H   0  0  0  0  0  0  0  0  0  0  0  0
   -0.1072   -2.8908   -3.2681 H   0  0  0  0  0  0  0  0  0  0  0  0
    2.0763   -3.5994   -4.1957 H   0  0  0  0  0  0  0  0  0  0  0  0
    2.9550   -2.5325   -6.2573 H   0  0  0  0  0  0  0  0  0  0  0  0
    3.9811   -1.3087   -0.8803 Al  0  0  0  0  0  0  0  0  0  0  0  0
    4.5841   -0.4961    0.9664 Cl  0  0  0  0  0  0  0  0  0  0  0  0
    5.3728   -1.3351   -2.4823 Cl  0  0  0  0  0  0  0  0  0  0  0  0
    2.6158   -2.9205   -0.8498 Cl  0  0  0  0  0  0  0  0  0  0  0  0
    2.5977    0.5671   -1.6212 Cl  0  0  0  0  0  0  0  0  0  0  0  0
  1  2  3  0  0  0  0
  3 22  1  0  0  0  0
  4  3  1  0  0  0  0
  5  3  1  0  0  0  0
  6  7  2  0  0  0  0
  6 11  1  0  0  0  0
  7  8  1  0  0  0  0
  8 14  1  0  0  0  0
  8  9  2  0  0  0  0
  9 15  1  0  0  0  0
 10 16  1  0  0  0  0
 10  9  1  0  0  0  0
 11 10  2  0  0  0  0
 12  6  1  0  0  0  0
 13  7  1  0  0  0  0
 17 11  1  0  0  0  0
 18 21  1  0  0  0  0
 18 19  1  0  0  0  0
 20 18  1  0  0  0  0
M  END
