Coordinates from ORCA-job C6H6+AlCl4-+NH2--N2+-scan
 OpenBabel10221816123D

 22 19  0  0  0  0  0  0  0  0999 V2000
    6.3087   -2.7215   -5.7207 N   0  0  0  0  0  0  0  0  0  0  0  0
    7.2519   -3.0083   -5.2428 N   0  0  0  0  0  0  0  0  0  0  0  0
    1.7878    0.5921   -3.0274 N   0  0  0  0  0  0  0  0  0  0  0  0
    1.5295   -0.3528   -3.3256 H   0  0  0  0  0  0  0  0  0  0  0  0
    2.7239    0.7716   -3.3964 H   0  0  0  0  0  0  0  0  0  0  0  0
    1.3860   -0.8033   -6.4377 C   0  0  0  0  0  0  0  0  0  0  0  0
    0.0944   -0.8453   -5.9120 C   0  0  0  0  0  0  0  0  0  0  0  0
   -0.2126   -1.7400   -4.8861 C   0  0  0  0  0  0  0  0  0  0  0  0
    0.7745   -2.5902   -4.3832 C   0  0  0  0  0  0  0  0  0  0  0  0
    2.0673   -2.5479   -4.9107 C   0  0  0  0  0  0  0  0  0  0  0  0
    2.3726   -1.6553   -5.9390 C   0  0  0  0  0  0  0  0  0  0  0  0
    1.6224   -0.1104   -7.2380 H   0  0  0  0  0  0  0  0  0  0  0  0
   -0.6712   -0.1832   -6.3006 H   0  0  0  0  0  0  0  0  0  0  0  0
   -1.2177   -1.7760   -4.4805 H   0  0  0  0  0  0  0  0  0  0  0  0
    0.5395   -3.2885   -3.5874 H   0  0  0  0  0  0  0  0  0  0  0  0
    2.8326   -3.2081   -4.5194 H   0  0  0  0  0  0  0  0  0  0  0  0
    3.3760   -1.6296   -6.3492 H   0  0  0  0  0  0  0  0  0  0  0  0
    4.0118   -0.9489   -0.8602 Al  0  0  0  0  0  0  0  0  0  0  0  0
    4.3933   -0.3209    1.1132 Cl  0  0  0  0  0  0  0  0  0  0  0  0
    5.2535   -0.2174   -2.4180 Cl  0  0  0  0  0  0  0  0  0  0  0  0
    3.2736   -2.9079   -1.1408 Cl  0  0  0  0  0  0  0  0  0  0  0  0
    2.0470    0.4515   -1.2711 Cl  0  0  0  0  0  0  0  0  0  0  0  0
  1  2  3  0  0  0  0
  3 22  1  0  0  0  0
  4  3  1  0  0  0  0
  5  3  1  0  0  0  0
  6 11  2  0  0  0  0
  6  7  1  0  0  0  0
  7  8  2  0  0  0  0
  8 14  1  0  0  0  0
  8  9  1  0  0  0  0
  9 15  1  0  0  0  0
 10 16  1  0  0  0  0
 10  9  2  0  0  0  0
 11 10  1  0  0  0  0
 12  6  1  0  0  0  0
 13  7  1  0  0  0  0
 17 11  1  0  0  0  0
 18 19  1  0  0  0  0
 20 18  1  0  0  0  0
 21 18  1  0  0  0  0
M  END
