Coordinates from ORCA-job C6H6+AlCl4-+NH2--N2+-scan
 OpenBabel10221816113D

 22 20  0  0  0  0  0  0  0  0999 V2000
    3.7324   -0.1440   -4.5797 N   0  0  0  0  0  0  0  0  0  0  0  0
    3.9657   -0.2732   -5.6651 N   0  0  0  0  0  0  0  0  0  0  0  0
    3.5121    0.0560   -3.4065 N   0  0  0  0  0  0  0  0  0  0  0  0
    2.7028   -0.4178   -2.9529 H   0  0  0  0  0  0  0  0  0  0  0  0
    4.3366    0.2298   -2.7293 H   0  0  0  0  0  0  0  0  0  0  0  0
    1.5726   -2.2306   -6.8262 C   0  0  0  0  0  0  0  0  0  0  0  0
    0.8849   -1.0168   -6.8793 C   0  0  0  0  0  0  0  0  0  0  0  0
    0.3117   -0.4884   -5.7225 C   0  0  0  0  0  0  0  0  0  0  0  0
    0.4257   -1.1752   -4.5118 C   0  0  0  0  0  0  0  0  0  0  0  0
    1.1161   -2.3894   -4.4579 C   0  0  0  0  0  0  0  0  0  0  0  0
    1.6894   -2.9159   -5.6167 C   0  0  0  0  0  0  0  0  0  0  0  0
    2.0115   -2.6439   -7.7276 H   0  0  0  0  0  0  0  0  0  0  0  0
    0.7889   -0.4892   -7.8219 H   0  0  0  0  0  0  0  0  0  0  0  0
   -0.2350    0.4473   -5.7660 H   0  0  0  0  0  0  0  0  0  0  0  0
   -0.0406   -0.7795   -3.6155 H   0  0  0  0  0  0  0  0  0  0  0  0
    1.1958   -2.9264   -3.5194 H   0  0  0  0  0  0  0  0  0  0  0  0
    2.2190   -3.8610   -5.5750 H   0  0  0  0  0  0  0  0  0  0  0  0
    4.2881   -1.6945   -0.4822 Al  0  0  0  0  0  0  0  0  0  0  0  0
    4.6305   -2.0867    1.5621 Cl  0  0  0  0  0  0  0  0  0  0  0  0
    5.4027    0.1387   -1.1347 Cl  0  0  0  0  0  0  0  0  0  0  0  0
    4.8403   -3.2171   -1.8860 Cl  0  0  0  0  0  0  0  0  0  0  0  0
    2.1933   -1.1629   -0.9194 Cl  0  0  0  0  0  0  0  0  0  0  0  0
  1  3  1  0  0  0  0
  2  1  1  0  0  0  0
  3  4  1  0  0  0  0
  3  5  1  0  0  0  0
  6 11  1  0  0  0  0
  7  6  2  0  0  0  0
  7  8  1  0  0  0  0
  8  9  2  0  0  0  0
  9 10  1  0  0  0  0
  9 15  1  0  0  0  0
 10 16  1  0  0  0  0
 11 17  1  0  0  0  0
 11 10  2  0  0  0  0
 12  6  1  0  0  0  0
 13  7  1  0  0  0  0
 14  8  1  0  0  0  0
 18 19  1  0  0  0  0
 20 18  1  0  0  0  0
 21 18  1  0  0  0  0
 22 18  1  0  0  0  0
M  RAD  2   1   2   2   3
M  END
