Coordinates from ORCA-job C6H6+AlCl4-+NH2--N2+-scan
 OpenBabel10221816123D

 22 19  0  0  0  0  0  0  0  0999 V2000
    7.0703   -0.5358   -5.6397 N   0  0  0  0  0  0  0  0  0  0  0  0
    8.0726   -0.8988   -5.3868 N   0  0  0  0  0  0  0  0  0  0  0  0
    2.4569    0.3903   -3.4100 N   0  0  0  0  0  0  0  0  0  0  0  0
    1.8530   -0.4298   -3.5132 H   0  0  0  0  0  0  0  0  0  0  0  0
    3.3781    0.1246   -3.7637 H   0  0  0  0  0  0  0  0  0  0  0  0
    1.3438   -1.2770   -6.4769 C   0  0  0  0  0  0  0  0  0  0  0  0
    0.1301   -0.7959   -5.9855 C   0  0  0  0  0  0  0  0  0  0  0  0
   -0.4199   -1.3444   -4.8268 C   0  0  0  0  0  0  0  0  0  0  0  0
    0.2455   -2.3733   -4.1572 C   0  0  0  0  0  0  0  0  0  0  0  0
    1.4603   -2.8560   -4.6500 C   0  0  0  0  0  0  0  0  0  0  0  0
    2.0084   -2.3076   -5.8106 C   0  0  0  0  0  0  0  0  0  0  0  0
    1.7698   -0.8515   -7.3789 H   0  0  0  0  0  0  0  0  0  0  0  0
   -0.3852    0.0052   -6.5035 H   0  0  0  0  0  0  0  0  0  0  0  0
   -1.3648   -0.9723   -4.4462 H   0  0  0  0  0  0  0  0  0  0  0  0
   -0.1800   -2.8027   -3.2571 H   0  0  0  0  0  0  0  0  0  0  0  0
    1.9755   -3.6542   -4.1281 H   0  0  0  0  0  0  0  0  0  0  0  0
    2.9499   -2.6845   -6.1947 H   0  0  0  0  0  0  0  0  0  0  0  0
    3.9741   -1.3705   -0.8402 Al  0  0  0  0  0  0  0  0  0  0  0  0
    4.5704   -0.5446    1.0029 Cl  0  0  0  0  0  0  0  0  0  0  0  0
    5.4017   -1.4986   -2.4048 Cl  0  0  0  0  0  0  0  0  0  0  0  0
    2.5331   -2.9149   -0.8082 Cl  0  0  0  0  0  0  0  0  0  0  0  0
    2.7011    0.5518   -1.6543 Cl  0  0  0  0  0  0  0  0  0  0  0  0
  1  2  3  0  0  0  0
  3 22  1  0  0  0  0
  4  3  1  0  0  0  0
  5  3  1  0  0  0  0
  6  7  2  0  0  0  0
  6 11  1  0  0  0  0
  7  8  1  0  0  0  0
  8 14  1  0  0  0  0
  8  9  2  0  0  0  0
  9 15  1  0  0  0  0
 10  9  1  0  0  0  0
 10 16  1  0  0  0  0
 11 10  2  0  0  0  0
 12  6  1  0  0  0  0
 13  7  1  0  0  0  0
 17 11  1  0  0  0  0
 18 21  1  0  0  0  0
 18 19  1  0  0  0  0
 20 18  1  0  0  0  0
M  END
