Coordinates from ORCA-job C6H6+AlCl4-+NH2--N2+-scan
 OpenBabel10221816113D

 22 19  0  0  0  0  0  0  0  0999 V2000
    4.1557    0.2271   -5.2984 N   0  0  0  0  0  0  0  0  0  0  0  0
    4.4369    1.0284   -5.9966 N   0  0  0  0  0  0  0  0  0  0  0  0
    3.5556    0.1455   -3.4854 N   0  0  0  0  0  0  0  0  0  0  0  0
    2.7554   -0.4307   -3.7844 H   0  0  0  0  0  0  0  0  0  0  0  0
    4.3085   -0.5286   -3.2879 H   0  0  0  0  0  0  0  0  0  0  0  0
    1.6436   -1.8839   -6.7852 C   0  0  0  0  0  0  0  0  0  0  0  0
    0.7916   -0.8671   -6.3538 C   0  0  0  0  0  0  0  0  0  0  0  0
    0.3274   -0.8578   -5.0379 C   0  0  0  0  0  0  0  0  0  0  0  0
    0.7171   -1.8663   -4.1528 C   0  0  0  0  0  0  0  0  0  0  0  0
    1.5741   -2.8817   -4.5853 C   0  0  0  0  0  0  0  0  0  0  0  0
    2.0360   -2.8895   -5.9015 C   0  0  0  0  0  0  0  0  0  0  0  0
    1.9984   -1.8945   -7.8100 H   0  0  0  0  0  0  0  0  0  0  0  0
    0.4834   -0.0884   -7.0429 H   0  0  0  0  0  0  0  0  0  0  0  0
   -0.3455   -0.0749   -4.7050 H   0  0  0  0  0  0  0  0  0  0  0  0
    0.3457   -1.8739   -3.1340 H   0  0  0  0  0  0  0  0  0  0  0  0
    1.8714   -3.6637   -3.8958 H   0  0  0  0  0  0  0  0  0  0  0  0
    2.6960   -3.6811   -6.2387 H   0  0  0  0  0  0  0  0  0  0  0  0
    3.6925   -1.5665   -0.4157 Al  0  0  0  0  0  0  0  0  0  0  0  0
    4.0876   -0.7563    1.4887 Cl  0  0  0  0  0  0  0  0  0  0  0  0
    5.3731   -2.1073   -1.6234 Cl  0  0  0  0  0  0  0  0  0  0  0  0
    2.0562   -2.9029   -0.5735 Cl  0  0  0  0  0  0  0  0  0  0  0  0
    2.9841    0.3736   -1.6142 Cl  0  0  0  0  0  0  0  0  0  0  0  0
  2  1  3  0  0  0  0
  3  5  1  0  0  0  0
  3 22  1  0  0  0  0
  4  3  1  0  0  0  0
  6  7  2  0  0  0  0
  6 11  1  0  0  0  0
  7  8  1  0  0  0  0
  8 14  1  0  0  0  0
  8  9  2  0  0  0  0
  9 15  1  0  0  0  0
 10  9  1  0  0  0  0
 10 16  1  0  0  0  0
 11 10  2  0  0  0  0
 12  6  1  0  0  0  0
 13  7  1  0  0  0  0
 17 11  1  0  0  0  0
 18 19  1  0  0  0  0
 20 18  1  0  0  0  0
 21 18  1  0  0  0  0
M  END
