Coordinates from ORCA-job C6H6+AlCl4-+NH2--N2+-scan
 OpenBabel10221816113D

 22 19  0  0  0  0  0  0  0  0999 V2000
    5.3050   -0.0167   -5.7044 N   0  0  0  0  0  0  0  0  0  0  0  0
    5.6802    0.2447   -6.6996 N   0  0  0  0  0  0  0  0  0  0  0  0
    3.0568    0.2657   -3.3692 N   0  0  0  0  0  0  0  0  0  0  0  0
    2.3448   -0.4286   -3.6116 H   0  0  0  0  0  0  0  0  0  0  0  0
    3.9706   -0.1627   -3.5255 H   0  0  0  0  0  0  0  0  0  0  0  0
    1.6577   -1.5650   -6.5840 C   0  0  0  0  0  0  0  0  0  0  0  0
    0.5865   -0.7948   -6.1316 C   0  0  0  0  0  0  0  0  0  0  0  0
    0.0007   -1.0725   -4.8961 C   0  0  0  0  0  0  0  0  0  0  0  0
    0.4886   -2.1199   -4.1117 C   0  0  0  0  0  0  0  0  0  0  0  0
    1.5623   -2.8903   -4.5650 C   0  0  0  0  0  0  0  0  0  0  0  0
    2.1453   -2.6127   -5.8018 C   0  0  0  0  0  0  0  0  0  0  0  0
    2.1102   -1.3507   -7.5461 H   0  0  0  0  0  0  0  0  0  0  0  0
    0.2079    0.0188   -6.7403 H   0  0  0  0  0  0  0  0  0  0  0  0
   -0.8356   -0.4774   -4.5459 H   0  0  0  0  0  0  0  0  0  0  0  0
    0.0346   -2.3423   -3.1526 H   0  0  0  0  0  0  0  0  0  0  0  0
    1.9384   -3.7024   -3.9534 H   0  0  0  0  0  0  0  0  0  0  0  0
    2.9756   -3.2140   -6.1556 H   0  0  0  0  0  0  0  0  0  0  0  0
    3.7477   -1.5896   -0.4999 Al  0  0  0  0  0  0  0  0  0  0  0  0
    4.1642   -0.7249    1.3755 Cl  0  0  0  0  0  0  0  0  0  0  0  0
    5.3645   -2.0395   -1.7958 Cl  0  0  0  0  0  0  0  0  0  0  0  0
    2.0991   -2.9066   -0.6144 Cl  0  0  0  0  0  0  0  0  0  0  0  0
    2.9395    0.4407   -1.6047 Cl  0  0  0  0  0  0  0  0  0  0  0  0
  2  1  3  0  0  0  0
  3 22  1  0  0  0  0
  4  3  1  0  0  0  0
  5  3  1  0  0  0  0
  6  7  2  0  0  0  0
  6 11  1  0  0  0  0
  7  8  1  0  0  0  0
  8 14  1  0  0  0  0
  8  9  2  0  0  0  0
  9 15  1  0  0  0  0
 10  9  1  0  0  0  0
 10 16  1  0  0  0  0
 11 10  2  0  0  0  0
 12  6  1  0  0  0  0
 13  7  1  0  0  0  0
 17 11  1  0  0  0  0
 18 19  1  0  0  0  0
 20 18  1  0  0  0  0
 21 18  1  0  0  0  0
M  END
