Coordinates from ORCA-job C6H6+AlCl4-+NH2--N2+-scan
 OpenBabel10221816123D

 22 19  0  0  0  0  0  0  0  0999 V2000
    7.4120   -0.8430   -5.6504 N   0  0  0  0  0  0  0  0  0  0  0  0
    8.3633   -1.1598   -5.2087 N   0  0  0  0  0  0  0  0  0  0  0  0
    2.3356    0.4396   -3.3779 N   0  0  0  0  0  0  0  0  0  0  0  0
    1.7758   -0.4096   -3.4944 H   0  0  0  0  0  0  0  0  0  0  0  0
    3.2652    0.2313   -3.7476 H   0  0  0  0  0  0  0  0  0  0  0  0
    1.2647   -1.2130   -6.4801 C   0  0  0  0  0  0  0  0  0  0  0  0
    0.0351   -0.8134   -5.9563 C   0  0  0  0  0  0  0  0  0  0  0  0
   -0.4599   -1.4170   -4.8001 C   0  0  0  0  0  0  0  0  0  0  0  0
    0.2764   -2.4196   -4.1657 C   0  0  0  0  0  0  0  0  0  0  0  0
    1.5072   -2.8207   -4.6911 C   0  0  0  0  0  0  0  0  0  0  0  0
    2.0004   -2.2171   -5.8489 C   0  0  0  0  0  0  0  0  0  0  0  0
    1.6479   -0.7449   -7.3802 H   0  0  0  0  0  0  0  0  0  0  0  0
   -0.5354   -0.0329   -6.4471 H   0  0  0  0  0  0  0  0  0  0  0  0
   -1.4171   -1.1084   -4.3944 H   0  0  0  0  0  0  0  0  0  0  0  0
   -0.1062   -2.8919   -3.2678 H   0  0  0  0  0  0  0  0  0  0  0  0
    2.0773   -3.5987   -4.1966 H   0  0  0  0  0  0  0  0  0  0  0  0
    2.9544   -2.5307   -6.2583 H   0  0  0  0  0  0  0  0  0  0  0  0
    3.9804   -1.3082   -0.8806 Al  0  0  0  0  0  0  0  0  0  0  0  0
    4.5824   -0.4956    0.9665 Cl  0  0  0  0  0  0  0  0  0  0  0  0
    5.3735   -1.3349   -2.4814 Cl  0  0  0  0  0  0  0  0  0  0  0  0
    2.6148   -2.9197   -0.8511 Cl  0  0  0  0  0  0  0  0  0  0  0  0
    2.5970    0.5676   -1.6212 Cl  0  0  0  0  0  0  0  0  0  0  0  0
  1  2  3  0  0  0  0
  3 22  1  0  0  0  0
  4  3  1  0  0  0  0
  5  3  1  0  0  0  0
  6  7  2  0  0  0  0
  6 11  1  0  0  0  0
  7  8  1  0  0  0  0
  8 14  1  0  0  0  0
  8  9  2  0  0  0  0
  9 15  1  0  0  0  0
 10 16  1  0  0  0  0
 10  9  1  0  0  0  0
 11 10  2  0  0  0  0
 12  6  1  0  0  0  0
 13  7  1  0  0  0  0
 17 11  1  0  0  0  0
 18 21  1  0  0  0  0
 18 19  1  0  0  0  0
 20 18  1  0  0  0  0
M  END
