Coordinates from ORCA-job C6H6+AlCl4-+NH2--N2+-scan
 OpenBabel10221816113D

 22 20  0  0  0  0  0  0  0  0999 V2000
    3.9040   -0.3468   -4.6933 N   0  0  0  0  0  0  0  0  0  0  0  0
    4.0034   -0.1451   -5.8011 N   0  0  0  0  0  0  0  0  0  0  0  0
    3.8378   -0.5229   -3.6399 N   0  0  0  0  0  0  0  0  0  0  0  0
    3.0569   -1.0296   -3.1362 H   0  0  0  0  0  0  0  0  0  0  0  0
    4.5951   -0.2137   -2.8789 H   0  0  0  0  0  0  0  0  0  0  0  0
    1.3373   -1.9416   -7.0407 C   0  0  0  0  0  0  0  0  0  0  0  0
    0.6893   -0.7322   -6.7885 C   0  0  0  0  0  0  0  0  0  0  0  0
    0.2334   -0.4392   -5.5032 C   0  0  0  0  0  0  0  0  0  0  0  0
    0.4226   -1.3576   -4.4691 C   0  0  0  0  0  0  0  0  0  0  0  0
    1.0723   -2.5688   -4.7213 C   0  0  0  0  0  0  0  0  0  0  0  0
    1.5304   -2.8590   -6.0077 C   0  0  0  0  0  0  0  0  0  0  0  0
    1.6877   -2.1701   -8.0410 H   0  0  0  0  0  0  0  0  0  0  0  0
    0.5363   -0.0216   -7.5931 H   0  0  0  0  0  0  0  0  0  0  0  0
   -0.2802    0.4962   -5.3096 H   0  0  0  0  0  0  0  0  0  0  0  0
    0.0500   -1.1412   -3.4738 H   0  0  0  0  0  0  0  0  0  0  0  0
    1.2030   -3.2891   -3.9210 H   0  0  0  0  0  0  0  0  0  0  0  0
    2.0252   -3.8035   -6.2060 H   0  0  0  0  0  0  0  0  0  0  0  0
    4.3305   -1.4548   -0.0862 Al  0  0  0  0  0  0  0  0  0  0  0  0
    3.9803   -0.6087    1.8158 Cl  0  0  0  0  0  0  0  0  0  0  0  0
    5.4911    0.0445   -1.3299 Cl  0  0  0  0  0  0  0  0  0  0  0  0
    5.3911   -3.2889   -0.1722 Cl  0  0  0  0  0  0  0  0  0  0  0  0
    2.4472   -1.6467   -1.2367 Cl  0  0  0  0  0  0  0  0  0  0  0  0
  1  3  1  0  0  0  0
  2  1  1  0  0  0  0
  3  4  1  0  0  0  0
  3  5  1  0  0  0  0
  6  7  2  0  0  0  0
  6 11  1  0  0  0  0
  7  8  1  0  0  0  0
  8 14  1  0  0  0  0
  8  9  2  0  0  0  0
  9 15  1  0  0  0  0
 10  9  1  0  0  0  0
 10 16  1  0  0  0  0
 11 10  2  0  0  0  0
 12  6  1  0  0  0  0
 13  7  1  0  0  0  0
 17 11  1  0  0  0  0
 18 19  1  0  0  0  0
 20 18  1  0  0  0  0
 21 18  1  0  0  0  0
 22 18  1  0  0  0  0
M  RAD  2   1   2   2   3
M  END
