Coordinates from ORCA-job C6H6+AlCl4-+NH2--N2+-scan
 OpenBabel10221816113D

 22 19  0  0  0  0  0  0  0  0999 V2000
    5.9164   -0.2395   -5.3606 N   0  0  0  0  0  0  0  0  0  0  0  0
    6.8648   -0.4724   -5.8565 N   0  0  0  0  0  0  0  0  0  0  0  0
    2.7557    0.3456   -3.4398 N   0  0  0  0  0  0  0  0  0  0  0  0
    2.1015   -0.4364   -3.5300 H   0  0  0  0  0  0  0  0  0  0  0  0
    3.6647    0.0219   -3.7766 H   0  0  0  0  0  0  0  0  0  0  0  0
    1.4999   -1.3961   -6.5567 C   0  0  0  0  0  0  0  0  0  0  0  0
    0.3381   -0.7959   -6.0714 C   0  0  0  0  0  0  0  0  0  0  0  0
   -0.2208   -1.2294   -4.8691 C   0  0  0  0  0  0  0  0  0  0  0  0
    0.3840   -2.2622   -4.1499 C   0  0  0  0  0  0  0  0  0  0  0  0
    1.5476   -2.8632   -4.6363 C   0  0  0  0  0  0  0  0  0  0  0  0
    2.1043   -2.4300   -5.8404 C   0  0  0  0  0  0  0  0  0  0  0  0
    1.9321   -1.0605   -7.4931 H   0  0  0  0  0  0  0  0  0  0  0  0
   -0.1305    0.0077   -6.6284 H   0  0  0  0  0  0  0  0  0  0  0  0
   -1.1260   -0.7652   -4.4931 H   0  0  0  0  0  0  0  0  0  0  0  0
   -0.0483   -2.6030   -3.2159 H   0  0  0  0  0  0  0  0  0  0  0  0
    2.0153   -3.6649   -4.0762 H   0  0  0  0  0  0  0  0  0  0  0  0
    3.0049   -2.8999   -6.2200 H   0  0  0  0  0  0  0  0  0  0  0  0
    3.8860   -1.4859   -0.6877 Al  0  0  0  0  0  0  0  0  0  0  0  0
    4.4852   -0.6264    1.1406 Cl  0  0  0  0  0  0  0  0  0  0  0  0
    5.3720   -1.9599   -2.1216 Cl  0  0  0  0  0  0  0  0  0  0  0  0
    2.2144   -2.7788   -0.6622 Cl  0  0  0  0  0  0  0  0  0  0  0  0
    2.9830    0.5540   -1.6889 Cl  0  0  0  0  0  0  0  0  0  0  0  0
  2  1  3  0  0  0  0
  3 22  1  0  0  0  0
  4  3  1  0  0  0  0
  5  3  1  0  0  0  0
  6  7  2  0  0  0  0
  6 11  1  0  0  0  0
  7  8  1  0  0  0  0
  8 14  1  0  0  0  0
  8  9  2  0  0  0  0
  9 15  1  0  0  0  0
 10  9  1  0  0  0  0
 10 16  1  0  0  0  0
 11 10  2  0  0  0  0
 12  6  1  0  0  0  0
 13  7  1  0  0  0  0
 17 11  1  0  0  0  0
 18 21  1  0  0  0  0
 18 19  1  0  0  0  0
 20 18  1  0  0  0  0
M  END
