Coordinates from ORCA-job C6H6+AlCl4-+NH2--N2+-scan
 OpenBabel10221816113D

 22 19  0  0  0  0  0  0  0  0999 V2000
    5.2765   -0.0151   -5.6896 N   0  0  0  0  0  0  0  0  0  0  0  0
    5.6423    0.2571   -6.6854 N   0  0  0  0  0  0  0  0  0  0  0  0
    3.0677    0.2633   -3.3719 N   0  0  0  0  0  0  0  0  0  0  0  0
    2.3537   -0.4290   -3.6144 H   0  0  0  0  0  0  0  0  0  0  0  0
    3.9803   -0.1687   -3.5254 H   0  0  0  0  0  0  0  0  0  0  0  0
    1.6594   -1.5691   -6.5876 C   0  0  0  0  0  0  0  0  0  0  0  0
    0.5913   -0.7949   -6.1347 C   0  0  0  0  0  0  0  0  0  0  0  0
    0.0063   -1.0691   -4.8981 C   0  0  0  0  0  0  0  0  0  0  0  0
    0.4919   -2.1169   -4.1130 C   0  0  0  0  0  0  0  0  0  0  0  0
    1.5624   -2.8914   -4.5667 C   0  0  0  0  0  0  0  0  0  0  0  0
    2.1447   -2.6173   -5.8047 C   0  0  0  0  0  0  0  0  0  0  0  0
    2.1113   -1.3576   -7.5506 H   0  0  0  0  0  0  0  0  0  0  0  0
    0.2146    0.0191   -6.7440 H   0  0  0  0  0  0  0  0  0  0  0  0
   -0.8276   -0.4708   -4.5476 H   0  0  0  0  0  0  0  0  0  0  0  0
    0.0384   -2.3368   -3.1530 H   0  0  0  0  0  0  0  0  0  0  0  0
    1.9368   -3.7039   -3.9546 H   0  0  0  0  0  0  0  0  0  0  0  0
    2.9725   -3.2218   -6.1588 H   0  0  0  0  0  0  0  0  0  0  0  0
    3.7483   -1.5891   -0.4982 Al  0  0  0  0  0  0  0  0  0  0  0  0
    4.1627   -0.7227    1.3769 Cl  0  0  0  0  0  0  0  0  0  0  0  0
    5.3670   -2.0447   -1.7898 Cl  0  0  0  0  0  0  0  0  0  0  0  0
    2.0970   -2.9026   -0.6144 Cl  0  0  0  0  0  0  0  0  0  0  0  0
    2.9471    0.4413   -1.6077 Cl  0  0  0  0  0  0  0  0  0  0  0  0
  2  1  3  0  0  0  0
  3 22  1  0  0  0  0
  4  3  1  0  0  0  0
  5  3  1  0  0  0  0
  6  7  2  0  0  0  0
  6 11  1  0  0  0  0
  7  8  1  0  0  0  0
  8 14  1  0  0  0  0
  8  9  2  0  0  0  0
  9 15  1  0  0  0  0
 10  9  1  0  0  0  0
 10 16  1  0  0  0  0
 11 10  2  0  0  0  0
 12  6  1  0  0  0  0
 13  7  1  0  0  0  0
 17 11  1  0  0  0  0
 18 19  1  0  0  0  0
 20 18  1  0  0  0  0
 21 18  1  0  0  0  0
M  END
