Coordinates from ORCA-job C6H6+AlCl4-+NH2--N2+-scan
 OpenBabel10221816113D

 22 19  0  0  0  0  0  0  0  0999 V2000
    6.1020   -0.2829   -5.4339 N   0  0  0  0  0  0  0  0  0  0  0  0
    7.0794   -0.5401   -5.8563 N   0  0  0  0  0  0  0  0  0  0  0  0
    2.7059    0.3510   -3.4278 N   0  0  0  0  0  0  0  0  0  0  0  0
    2.0594   -0.4371   -3.5215 H   0  0  0  0  0  0  0  0  0  0  0  0
    3.6176    0.0342   -3.7634 H   0  0  0  0  0  0  0  0  0  0  0  0
    1.4813   -1.3764   -6.5427 C   0  0  0  0  0  0  0  0  0  0  0  0
    0.3085   -0.7956   -6.0600 C   0  0  0  0  0  0  0  0  0  0  0  0
   -0.2521   -1.2461   -4.8647 C   0  0  0  0  0  0  0  0  0  0  0  0
    0.3619   -2.2766   -4.1500 C   0  0  0  0  0  0  0  0  0  0  0  0
    1.5363   -2.8584   -4.6339 C   0  0  0  0  0  0  0  0  0  0  0  0
    2.0948   -2.4080   -5.8309 C   0  0  0  0  0  0  0  0  0  0  0  0
    1.9150   -1.0272   -7.4733 H   0  0  0  0  0  0  0  0  0  0  0  0
   -0.1671    0.0063   -6.6135 H   0  0  0  0  0  0  0  0  0  0  0  0
   -1.1656   -0.7968   -4.4907 H   0  0  0  0  0  0  0  0  0  0  0  0
   -0.0716   -2.6305   -3.2213 H   0  0  0  0  0  0  0  0  0  0  0  0
    2.0110   -3.6583   -4.0772 H   0  0  0  0  0  0  0  0  0  0  0  0
    3.0041   -2.8626   -6.2083 H   0  0  0  0  0  0  0  0  0  0  0  0
    3.8889   -1.4722   -0.6987 Al  0  0  0  0  0  0  0  0  0  0  0  0
    4.4772   -0.6176    1.1352 Cl  0  0  0  0  0  0  0  0  0  0  0  0
    5.3788   -1.8933   -2.1456 Cl  0  0  0  0  0  0  0  0  0  0  0  0
    2.2493   -2.8057   -0.6799 Cl  0  0  0  0  0  0  0  0  0  0  0  0
    2.9297    0.5534   -1.6755 Cl  0  0  0  0  0  0  0  0  0  0  0  0
  2  1  3  0  0  0  0
  3 22  1  0  0  0  0
  4  3  1  0  0  0  0
  5  3  1  0  0  0  0
  6  7  2  0  0  0  0
  6 11  1  0  0  0  0
  7  8  1  0  0  0  0
  8 14  1  0  0  0  0
  8  9  2  0  0  0  0
  9 15  1  0  0  0  0
 10  9  1  0  0  0  0
 10 16  1  0  0  0  0
 11 10  2  0  0  0  0
 12  6  1  0  0  0  0
 13  7  1  0  0  0  0
 17 11  1  0  0  0  0
 18 21  1  0  0  0  0
 18 19  1  0  0  0  0
 20 18  1  0  0  0  0
M  END
