Coordinates from ORCA-job C6H6+AlCl4-+NH2--N2+-scan
 OpenBabel10221816113D

 22 19  0  0  0  0  0  0  0  0999 V2000
    4.1708    0.2258   -5.3380 N   0  0  0  0  0  0  0  0  0  0  0  0
    4.4244    1.0372   -6.0334 N   0  0  0  0  0  0  0  0  0  0  0  0
    3.5656    0.1517   -3.4420 N   0  0  0  0  0  0  0  0  0  0  0  0
    2.7726   -0.4238   -3.7573 H   0  0  0  0  0  0  0  0  0  0  0  0
    4.3340   -0.5124   -3.2817 H   0  0  0  0  0  0  0  0  0  0  0  0
    1.6241   -1.8846   -6.7984 C   0  0  0  0  0  0  0  0  0  0  0  0
    0.7768   -0.8696   -6.3543 C   0  0  0  0  0  0  0  0  0  0  0  0
    0.3280   -0.8643   -5.0331 C   0  0  0  0  0  0  0  0  0  0  0  0
    0.7285   -1.8751   -4.1557 C   0  0  0  0  0  0  0  0  0  0  0  0
    1.5811   -2.8885   -4.6008 C   0  0  0  0  0  0  0  0  0  0  0  0
    2.0274   -2.8924   -5.9222 C   0  0  0  0  0  0  0  0  0  0  0  0
    1.9675   -1.8917   -7.8271 H   0  0  0  0  0  0  0  0  0  0  0  0
    0.4607   -0.0887   -7.0373 H   0  0  0  0  0  0  0  0  0  0  0  0
   -0.3415   -0.0829   -4.6904 H   0  0  0  0  0  0  0  0  0  0  0  0
    0.3680   -1.8866   -3.1331 H   0  0  0  0  0  0  0  0  0  0  0  0
    1.8863   -3.6728   -3.9173 H   0  0  0  0  0  0  0  0  0  0  0  0
    2.6841   -3.6825   -6.2694 H   0  0  0  0  0  0  0  0  0  0  0  0
    3.6916   -1.5774   -0.3906 Al  0  0  0  0  0  0  0  0  0  0  0  0
    4.0373   -0.7358    1.5089 Cl  0  0  0  0  0  0  0  0  0  0  0  0
    5.3885   -2.1315   -1.5593 Cl  0  0  0  0  0  0  0  0  0  0  0  0
    2.0355   -2.8814   -0.5832 Cl  0  0  0  0  0  0  0  0  0  0  0  0
    3.0334    0.3868   -1.6178 Cl  0  0  0  0  0  0  0  0  0  0  0  0
  2  1  3  0  0  0  0
  3  5  1  0  0  0  0
  3 22  1  0  0  0  0
  4  3  1  0  0  0  0
  6  7  2  0  0  0  0
  6 11  1  0  0  0  0
  7  8  1  0  0  0  0
  8 14  1  0  0  0  0
  8  9  2  0  0  0  0
  9 15  1  0  0  0  0
 10  9  1  0  0  0  0
 10 16  1  0  0  0  0
 11 10  2  0  0  0  0
 12  6  1  0  0  0  0
 13  7  1  0  0  0  0
 17 11  1  0  0  0  0
 18 19  1  0  0  0  0
 20 18  1  0  0  0  0
 21 18  1  0  0  0  0
M  END
