Coordinates from ORCA-job C6H6+AlCl4-+NH2--N2+-scan
 OpenBabel10221816123D

 22 19  0  0  0  0  0  0  0  0999 V2000
    7.3834   -0.8294   -5.6379 N   0  0  0  0  0  0  0  0  0  0  0  0
    8.3364   -1.1510   -5.2035 N   0  0  0  0  0  0  0  0  0  0  0  0
    2.3417    0.4374   -3.3796 N   0  0  0  0  0  0  0  0  0  0  0  0
    1.7798   -0.4106   -3.4956 H   0  0  0  0  0  0  0  0  0  0  0  0
    3.2711    0.2261   -3.7484 H   0  0  0  0  0  0  0  0  0  0  0  0
    1.2687   -1.2160   -6.4809 C   0  0  0  0  0  0  0  0  0  0  0  0
    0.0398   -0.8124   -5.9583 C   0  0  0  0  0  0  0  0  0  0  0  0
   -0.4577   -1.4135   -4.8019 C   0  0  0  0  0  0  0  0  0  0  0  0
    0.2755   -2.4174   -4.1659 C   0  0  0  0  0  0  0  0  0  0  0  0
    1.5055   -2.8224   -4.6900 C   0  0  0  0  0  0  0  0  0  0  0  0
    2.0011   -2.2214   -5.8481 C   0  0  0  0  0  0  0  0  0  0  0  0
    1.6537   -0.7499   -7.3813 H   0  0  0  0  0  0  0  0  0  0  0  0
   -0.5282   -0.0309   -6.4504 H   0  0  0  0  0  0  0  0  0  0  0  0
   -1.4143   -1.1018   -4.3971 H   0  0  0  0  0  0  0  0  0  0  0  0
   -0.1091   -2.8877   -3.2678 H   0  0  0  0  0  0  0  0  0  0  0  0
    2.0733   -3.6014   -4.1943 H   0  0  0  0  0  0  0  0  0  0  0  0
    2.9546   -2.5379   -6.2565 H   0  0  0  0  0  0  0  0  0  0  0  0
    3.9846   -1.3103   -0.8819 Al  0  0  0  0  0  0  0  0  0  0  0  0
    4.5906   -0.4974    0.9637 Cl  0  0  0  0  0  0  0  0  0  0  0  0
    5.3740   -1.3379   -2.4860 Cl  0  0  0  0  0  0  0  0  0  0  0  0
    2.6181   -2.9210   -0.8493 Cl  0  0  0  0  0  0  0  0  0  0  0  0
    2.6019    0.5661   -1.6227 Cl  0  0  0  0  0  0  0  0  0  0  0  0
  1  2  3  0  0  0  0
  3 22  1  0  0  0  0
  4  3  1  0  0  0  0
  5  3  1  0  0  0  0
  6  7  2  0  0  0  0
  6 11  1  0  0  0  0
  7  8  1  0  0  0  0
  8 14  1  0  0  0  0
  8  9  2  0  0  0  0
  9 15  1  0  0  0  0
 10 16  1  0  0  0  0
 10  9  1  0  0  0  0
 11 10  2  0  0  0  0
 12  6  1  0  0  0  0
 13  7  1  0  0  0  0
 17 11  1  0  0  0  0
 18 21  1  0  0  0  0
 18 19  1  0  0  0  0
 20 18  1  0  0  0  0
M  END
