Coordinates from ORCA-job C6H6+AlCl4-+NH2--N2+-scan
 OpenBabel10221816113D

 22 19  0  0  0  0  0  0  0  0999 V2000
    4.2734    0.2132   -5.5616 N   0  0  0  0  0  0  0  0  0  0  0  0
    4.4068    1.0122   -6.2997 N   0  0  0  0  0  0  0  0  0  0  0  0
    3.5507    0.1894   -3.3022 N   0  0  0  0  0  0  0  0  0  0  0  0
    2.7867   -0.3895   -3.6673 H   0  0  0  0  0  0  0  0  0  0  0  0
    4.3747   -0.4148   -3.2490 H   0  0  0  0  0  0  0  0  0  0  0  0
    1.5963   -1.8780   -6.8119 C   0  0  0  0  0  0  0  0  0  0  0  0
    0.7485   -0.8718   -6.3498 C   0  0  0  0  0  0  0  0  0  0  0  0
    0.3224   -0.8750   -5.0214 C   0  0  0  0  0  0  0  0  0  0  0  0
    0.7463   -1.8853   -4.1548 C   0  0  0  0  0  0  0  0  0  0  0  0
    1.5998   -2.8896   -4.6179 C   0  0  0  0  0  0  0  0  0  0  0  0
    2.0233   -2.8852   -5.9465 C   0  0  0  0  0  0  0  0  0  0  0  0
    1.9226   -1.8782   -7.8462 H   0  0  0  0  0  0  0  0  0  0  0  0
    0.4154   -0.0905   -7.0241 H   0  0  0  0  0  0  0  0  0  0  0  0
   -0.3473   -0.1000   -4.6646 H   0  0  0  0  0  0  0  0  0  0  0  0
    0.4015   -1.9049   -3.1268 H   0  0  0  0  0  0  0  0  0  0  0  0
    1.9229   -3.6743   -3.9430 H   0  0  0  0  0  0  0  0  0  0  0  0
    2.6811   -3.6681   -6.3077 H   0  0  0  0  0  0  0  0  0  0  0  0
    3.6790   -1.6299   -0.3235 Al  0  0  0  0  0  0  0  0  0  0  0  0
    3.9308   -0.7588    1.5764 Cl  0  0  0  0  0  0  0  0  0  0  0  0
    5.4089   -2.1777   -1.4277 Cl  0  0  0  0  0  0  0  0  0  0  0  0
    2.0001   -2.8825   -0.6028 Cl  0  0  0  0  0  0  0  0  0  0  0  0
    3.1007    0.3986   -1.5613 Cl  0  0  0  0  0  0  0  0  0  0  0  0
  2  1  3  0  0  0  0
  3  5  1  0  0  0  0
  3 22  1  0  0  0  0
  4  3  1  0  0  0  0
  6  7  2  0  0  0  0
  6 11  1  0  0  0  0
  7  8  1  0  0  0  0
  8 14  1  0  0  0  0
  8  9  2  0  0  0  0
  9 15  1  0  0  0  0
 10  9  1  0  0  0  0
 10 16  1  0  0  0  0
 11 10  2  0  0  0  0
 12  6  1  0  0  0  0
 13  7  1  0  0  0  0
 17 11  1  0  0  0  0
 18 19  1  0  0  0  0
 20 18  1  0  0  0  0
 21 18  1  0  0  0  0
M  END
