Coordinates from ORCA-job C6H6+AlCl4-+NH2--N2+-scan
 OpenBabel10221816113D

 22 19  0  0  0  0  0  0  0  0999 V2000
    6.9624   -0.4395   -5.6292 N   0  0  0  0  0  0  0  0  0  0  0  0
    8.0035   -0.7759   -5.6854 N   0  0  0  0  0  0  0  0  0  0  0  0
    2.4937    0.3826   -3.3871 N   0  0  0  0  0  0  0  0  0  0  0  0
    1.8806   -0.4305   -3.4926 H   0  0  0  0  0  0  0  0  0  0  0  0
    3.4143    0.1056   -3.7333 H   0  0  0  0  0  0  0  0  0  0  0  0
    1.3758   -1.3130   -6.4930 C   0  0  0  0  0  0  0  0  0  0  0  0
    0.1683   -0.8037   -6.0150 C   0  0  0  0  0  0  0  0  0  0  0  0
   -0.3904   -1.3167   -4.8442 C   0  0  0  0  0  0  0  0  0  0  0  0
    0.2602   -2.3383   -4.1493 C   0  0  0  0  0  0  0  0  0  0  0  0
    1.4690   -2.8490   -4.6287 C   0  0  0  0  0  0  0  0  0  0  0  0
    2.0257   -2.3361   -5.8013 C   0  0  0  0  0  0  0  0  0  0  0  0
    1.8082   -0.9152   -7.4045 H   0  0  0  0  0  0  0  0  0  0  0  0
   -0.3357   -0.0086   -6.5529 H   0  0  0  0  0  0  0  0  0  0  0  0
   -1.3305   -0.9229   -4.4739 H   0  0  0  0  0  0  0  0  0  0  0  0
   -0.1720   -2.7405   -3.2398 H   0  0  0  0  0  0  0  0  0  0  0  0
    1.9724   -3.6417   -4.0872 H   0  0  0  0  0  0  0  0  0  0  0  0
    2.9623   -2.7349   -6.1750 H   0  0  0  0  0  0  0  0  0  0  0  0
    3.9254   -1.4108   -0.7854 Al  0  0  0  0  0  0  0  0  0  0  0  0
    4.5243   -0.5862    1.0579 Cl  0  0  0  0  0  0  0  0  0  0  0  0
    5.3701   -1.6096   -2.3257 Cl  0  0  0  0  0  0  0  0  0  0  0  0
    2.4284   -2.9017   -0.7575 Cl  0  0  0  0  0  0  0  0  0  0  0  0
    2.7286    0.5461   -1.6305 Cl  0  0  0  0  0  0  0  0  0  0  0  0
  2  1  3  0  0  0  0
  3 22  1  0  0  0  0
  4  3  1  0  0  0  0
  5  3  1  0  0  0  0
  6  7  2  0  0  0  0
  6 11  1  0  0  0  0
  7  8  1  0  0  0  0
  8 14  1  0  0  0  0
  8  9  2  0  0  0  0
  9 15  1  0  0  0  0
 10  9  1  0  0  0  0
 10 16  1  0  0  0  0
 11 10  2  0  0  0  0
 12  6  1  0  0  0  0
 13  7  1  0  0  0  0
 17 11  1  0  0  0  0
 18 21  1  0  0  0  0
 18 19  1  0  0  0  0
 20 18  1  0  0  0  0
M  END
