Coordinates from ORCA-job C6H6+AlCl4-+NH2--N2+-scan
 OpenBabel10221816113D

 22 19  0  0  0  0  0  0  0  0999 V2000
    4.3689    0.2124   -5.6852 N   0  0  0  0  0  0  0  0  0  0  0  0
    4.4615    0.9733   -6.4680 N   0  0  0  0  0  0  0  0  0  0  0  0
    3.5104    0.2079   -3.2601 N   0  0  0  0  0  0  0  0  0  0  0  0
    2.7600   -0.3787   -3.6382 H   0  0  0  0  0  0  0  0  0  0  0  0
    4.3567   -0.3649   -3.2380 H   0  0  0  0  0  0  0  0  0  0  0  0
    1.6014   -1.8645   -6.7971 C   0  0  0  0  0  0  0  0  0  0  0  0
    0.7416   -0.8677   -6.3367 C   0  0  0  0  0  0  0  0  0  0  0  0
    0.3084   -0.8790   -5.0107 C   0  0  0  0  0  0  0  0  0  0  0  0
    0.7370   -1.8879   -4.1450 C   0  0  0  0  0  0  0  0  0  0  0  0
    1.6022   -2.8829   -4.6061 C   0  0  0  0  0  0  0  0  0  0  0  0
    2.0330   -2.8704   -5.9324 C   0  0  0  0  0  0  0  0  0  0  0  0
    1.9335   -1.8584   -7.8295 H   0  0  0  0  0  0  0  0  0  0  0  0
    0.4052   -0.0873   -7.0104 H   0  0  0  0  0  0  0  0  0  0  0  0
   -0.3702   -0.1113   -4.6550 H   0  0  0  0  0  0  0  0  0  0  0  0
    0.3870   -1.9138   -3.1189 H   0  0  0  0  0  0  0  0  0  0  0  0
    1.9292   -3.6664   -3.9317 H   0  0  0  0  0  0  0  0  0  0  0  0
    2.7002   -3.6460   -6.2923 H   0  0  0  0  0  0  0  0  0  0  0  0
    3.6739   -1.6567   -0.3134 Al  0  0  0  0  0  0  0  0  0  0  0  0
    3.9071   -0.7957    1.5936 Cl  0  0  0  0  0  0  0  0  0  0  0  0
    5.4111   -2.1733   -1.4180 Cl  0  0  0  0  0  0  0  0  0  0  0  0
    2.0052   -2.9176   -0.6115 Cl  0  0  0  0  0  0  0  0  0  0  0  0
    3.0815    0.3883   -1.5287 Cl  0  0  0  0  0  0  0  0  0  0  0  0
  2  1  3  0  0  0  0
  3  5  1  0  0  0  0
  3 22  1  0  0  0  0
  4  3  1  0  0  0  0
  6  7  2  0  0  0  0
  6 11  1  0  0  0  0
  7  8  1  0  0  0  0
  8 14  1  0  0  0  0
  8  9  2  0  0  0  0
  9 15  1  0  0  0  0
 10  9  1  0  0  0  0
 10 16  1  0  0  0  0
 11 10  2  0  0  0  0
 12  6  1  0  0  0  0
 13  7  1  0  0  0  0
 17 11  1  0  0  0  0
 18 19  1  0  0  0  0
 20 18  1  0  0  0  0
 21 18  1  0  0  0  0
M  END
