Coordinates from ORCA-job C6H6+AlCl4-+NH2--N2+-scan
 OpenBabel10221816113D

 22 19  0  0  0  0  0  0  0  0999 V2000
    5.7262   -0.2109   -5.2759 N   0  0  0  0  0  0  0  0  0  0  0  0
    6.6366   -0.4052   -5.8529 N   0  0  0  0  0  0  0  0  0  0  0  0
    2.8078    0.3370   -3.4533 N   0  0  0  0  0  0  0  0  0  0  0  0
    2.1447   -0.4376   -3.5400 H   0  0  0  0  0  0  0  0  0  0  0  0
    3.7131    0.0055   -3.7914 H   0  0  0  0  0  0  0  0  0  0  0  0
    1.5163   -1.4140   -6.5715 C   0  0  0  0  0  0  0  0  0  0  0  0
    0.3659   -0.7947   -6.0833 C   0  0  0  0  0  0  0  0  0  0  0  0
   -0.1912   -1.2116   -4.8743 C   0  0  0  0  0  0  0  0  0  0  0  0
    0.4043   -2.2471   -4.1512 C   0  0  0  0  0  0  0  0  0  0  0  0
    1.5568   -2.8671   -4.6402 C   0  0  0  0  0  0  0  0  0  0  0  0
    2.1114   -2.4505   -5.8511 C   0  0  0  0  0  0  0  0  0  0  0  0
    1.9467   -1.0915   -7.5133 H   0  0  0  0  0  0  0  0  0  0  0  0
   -0.0956    0.0109   -6.6436 H   0  0  0  0  0  0  0  0  0  0  0  0
   -1.0877   -0.7327   -4.4963 H   0  0  0  0  0  0  0  0  0  0  0  0
   -0.0265   -2.5753   -3.2120 H   0  0  0  0  0  0  0  0  0  0  0  0
    2.0172   -3.6709   -4.0771 H   0  0  0  0  0  0  0  0  0  0  0  0
    3.0030   -2.9357   -6.2330 H   0  0  0  0  0  0  0  0  0  0  0  0
    3.8912   -1.4964   -0.6770 Al  0  0  0  0  0  0  0  0  0  0  0  0
    4.4824   -0.6307    1.1512 Cl  0  0  0  0  0  0  0  0  0  0  0  0
    5.3882   -2.0161   -2.0831 Cl  0  0  0  0  0  0  0  0  0  0  0  0
    2.1951   -2.7576   -0.6607 Cl  0  0  0  0  0  0  0  0  0  0  0  0
    3.0389    0.5515   -1.7038 Cl  0  0  0  0  0  0  0  0  0  0  0  0
  2  1  3  0  0  0  0
  3 22  1  0  0  0  0
  4  3  1  0  0  0  0
  5  3  1  0  0  0  0
  6  7  2  0  0  0  0
  6 11  1  0  0  0  0
  7  8  1  0  0  0  0
  8 14  1  0  0  0  0
  8  9  2  0  0  0  0
  9 15  1  0  0  0  0
 10  9  1  0  0  0  0
 10 16  1  0  0  0  0
 11 10  2  0  0  0  0
 12  6  1  0  0  0  0
 13  7  1  0  0  0  0
 17 11  1  0  0  0  0
 18 21  1  0  0  0  0
 18 19  1  0  0  0  0
 20 18  1  0  0  0  0
M  END
