Coordinates from ORCA-job C6H6+AlCl4-+NH2--N2+-scan
 OpenBabel10221816123D

 22 19  0  0  0  0  0  0  0  0999 V2000
    7.3608   -0.8184   -5.6333 N   0  0  0  0  0  0  0  0  0  0  0  0
    8.3156   -1.1410   -5.2036 N   0  0  0  0  0  0  0  0  0  0  0  0
    2.3470    0.4343   -3.3802 N   0  0  0  0  0  0  0  0  0  0  0  0
    1.7829   -0.4121   -3.4961 H   0  0  0  0  0  0  0  0  0  0  0  0
    3.2766    0.2212   -3.7476 H   0  0  0  0  0  0  0  0  0  0  0  0
    1.2731   -1.2188   -6.4814 C   0  0  0  0  0  0  0  0  0  0  0  0
    0.0448   -0.8111   -5.9607 C   0  0  0  0  0  0  0  0  0  0  0  0
   -0.4558   -1.4097   -4.8043 C   0  0  0  0  0  0  0  0  0  0  0  0
    0.2736   -2.4152   -4.1665 C   0  0  0  0  0  0  0  0  0  0  0  0
    1.5031   -2.8242   -4.6887 C   0  0  0  0  0  0  0  0  0  0  0  0
    2.0019   -2.2258   -5.8468 C   0  0  0  0  0  0  0  0  0  0  0  0
    1.6606   -0.7546   -7.3817 H   0  0  0  0  0  0  0  0  0  0  0  0
   -0.5203   -0.0284   -6.4541 H   0  0  0  0  0  0  0  0  0  0  0  0
   -1.4120   -1.0948   -4.4010 H   0  0  0  0  0  0  0  0  0  0  0  0
   -0.1135   -2.8836   -3.2685 H   0  0  0  0  0  0  0  0  0  0  0  0
    2.0679   -3.6044   -4.1916 H   0  0  0  0  0  0  0  0  0  0  0  0
    2.9549   -2.5454   -6.2536 H   0  0  0  0  0  0  0  0  0  0  0  0
    3.9875   -1.3121   -0.8807 Al  0  0  0  0  0  0  0  0  0  0  0  0
    4.5967   -0.4990    0.9636 Cl  0  0  0  0  0  0  0  0  0  0  0  0
    5.3712   -1.3370   -2.4892 Cl  0  0  0  0  0  0  0  0  0  0  0  0
    2.6232   -2.9244   -0.8446 Cl  0  0  0  0  0  0  0  0  0  0  0  0
    2.6048    0.5639   -1.6232 Cl  0  0  0  0  0  0  0  0  0  0  0  0
  1  2  3  0  0  0  0
  3 22  1  0  0  0  0
  4  3  1  0  0  0  0
  5  3  1  0  0  0  0
  6  7  2  0  0  0  0
  6 11  1  0  0  0  0
  7  8  1  0  0  0  0
  8 14  1  0  0  0  0
  8  9  2  0  0  0  0
  9 15  1  0  0  0  0
 10 16  1  0  0  0  0
 10  9  1  0  0  0  0
 11 10  2  0  0  0  0
 12  6  1  0  0  0  0
 13  7  1  0  0  0  0
 17 11  1  0  0  0  0
 18 21  1  0  0  0  0
 18 19  1  0  0  0  0
 20 18  1  0  0  0  0
M  END
