Coordinates from ORCA-job C6H6+AlCl4-+NH2--N2+-scan
 OpenBabel10221816123D

 22 19  0  0  0  0  0  0  0  0999 V2000
    6.4696   -2.8712   -5.9715 N   0  0  0  0  0  0  0  0  0  0  0  0
    7.4353   -3.1780   -5.5551 N   0  0  0  0  0  0  0  0  0  0  0  0
    1.7006    0.6061   -2.9745 N   0  0  0  0  0  0  0  0  0  0  0  0
    1.4657   -0.3391   -3.2903 H   0  0  0  0  0  0  0  0  0  0  0  0
    2.6363    0.8130   -3.3299 H   0  0  0  0  0  0  0  0  0  0  0  0
    1.4205   -0.8126   -6.4275 C   0  0  0  0  0  0  0  0  0  0  0  0
    0.1287   -0.8282   -5.9011 C   0  0  0  0  0  0  0  0  0  0  0  0
   -0.1955   -1.7160   -4.8742 C   0  0  0  0  0  0  0  0  0  0  0  0
    0.7751   -2.5846   -4.3705 C   0  0  0  0  0  0  0  0  0  0  0  0
    2.0682   -2.5685   -4.8989 C   0  0  0  0  0  0  0  0  0  0  0  0
    2.3902   -1.6839   -5.9286 C   0  0  0  0  0  0  0  0  0  0  0  0
    1.6702   -0.1260   -7.2290 H   0  0  0  0  0  0  0  0  0  0  0  0
   -0.6240   -0.1518   -6.2903 H   0  0  0  0  0  0  0  0  0  0  0  0
   -1.2013   -1.7325   -4.4689 H   0  0  0  0  0  0  0  0  0  0  0  0
    0.5266   -3.2774   -3.5742 H   0  0  0  0  0  0  0  0  0  0  0  0
    2.8204   -3.2433   -4.5073 H   0  0  0  0  0  0  0  0  0  0  0  0
    3.3926   -1.6799   -6.3420 H   0  0  0  0  0  0  0  0  0  0  0  0
    3.9547   -0.8865   -0.8048 Al  0  0  0  0  0  0  0  0  0  0  0  0
    4.2829   -0.2826    1.1857 Cl  0  0  0  0  0  0  0  0  0  0  0  0
    5.1861   -0.0739   -2.3301 Cl  0  0  0  0  0  0  0  0  0  0  0  0
    3.2995   -2.8675   -1.1331 Cl  0  0  0  0  0  0  0  0  0  0  0  0
    1.9423    0.4440   -1.2176 Cl  0  0  0  0  0  0  0  0  0  0  0  0
  1  2  3  0  0  0  0
  3 22  1  0  0  0  0
  4  3  1  0  0  0  0
  5  3  1  0  0  0  0
  6 11  2  0  0  0  0
  6  7  1  0  0  0  0
  7  8  2  0  0  0  0
  8 14  1  0  0  0  0
  8  9  1  0  0  0  0
  9 15  1  0  0  0  0
 10 16  1  0  0  0  0
 10  9  2  0  0  0  0
 11 10  1  0  0  0  0
 12  6  1  0  0  0  0
 13  7  1  0  0  0  0
 17 11  1  0  0  0  0
 18 19  1  0  0  0  0
 20 18  1  0  0  0  0
 21 18  1  0  0  0  0
M  END
