Coordinates from ORCA-job C6H6+AlCl4-+NH2--N2+-scan
 OpenBabel10221816113D

 22 19  0  0  0  0  0  0  0  0999 V2000
    4.2399    0.2174   -5.5226 N   0  0  0  0  0  0  0  0  0  0  0  0
    4.4087    1.0213   -6.2485 N   0  0  0  0  0  0  0  0  0  0  0  0
    3.5626    0.1807   -3.3226 N   0  0  0  0  0  0  0  0  0  0  0  0
    2.7923   -0.3956   -3.6798 H   0  0  0  0  0  0  0  0  0  0  0  0
    4.3760   -0.4371   -3.2539 H   0  0  0  0  0  0  0  0  0  0  0  0
    1.5986   -1.8780   -6.8129 C   0  0  0  0  0  0  0  0  0  0  0  0
    0.7512   -0.8715   -6.3508 C   0  0  0  0  0  0  0  0  0  0  0  0
    0.3225   -0.8762   -5.0231 C   0  0  0  0  0  0  0  0  0  0  0  0
    0.7433   -1.8885   -4.1573 C   0  0  0  0  0  0  0  0  0  0  0  0
    1.5965   -2.8932   -4.6205 C   0  0  0  0  0  0  0  0  0  0  0  0
    2.0227   -2.8872   -5.9484 C   0  0  0  0  0  0  0  0  0  0  0  0
    1.9269   -1.8770   -7.8466 H   0  0  0  0  0  0  0  0  0  0  0  0
    0.4204   -0.0887   -7.0245 H   0  0  0  0  0  0  0  0  0  0  0  0
   -0.3472   -0.1010   -4.6664 H   0  0  0  0  0  0  0  0  0  0  0  0
    0.3963   -1.9094   -3.1301 H   0  0  0  0  0  0  0  0  0  0  0  0
    1.9173   -3.6794   -3.9463 H   0  0  0  0  0  0  0  0  0  0  0  0
    2.6800   -3.6704   -6.3096 H   0  0  0  0  0  0  0  0  0  0  0  0
    3.6814   -1.6181   -0.3291 Al  0  0  0  0  0  0  0  0  0  0  0  0
    3.9450   -0.7441    1.5679 Cl  0  0  0  0  0  0  0  0  0  0  0  0
    5.4062   -2.1774   -1.4373 Cl  0  0  0  0  0  0  0  0  0  0  0  0
    1.9993   -2.8694   -0.5967 Cl  0  0  0  0  0  0  0  0  0  0  0  0
    3.1047    0.4020   -1.5742 Cl  0  0  0  0  0  0  0  0  0  0  0  0
  2  1  3  0  0  0  0
  3  5  1  0  0  0  0
  3 22  1  0  0  0  0
  4  3  1  0  0  0  0
  6  7  2  0  0  0  0
  6 11  1  0  0  0  0
  7  8  1  0  0  0  0
  8 14  1  0  0  0  0
  8  9  2  0  0  0  0
  9 15  1  0  0  0  0
 10  9  1  0  0  0  0
 10 16  1  0  0  0  0
 11 10  2  0  0  0  0
 12  6  1  0  0  0  0
 13  7  1  0  0  0  0
 17 11  1  0  0  0  0
 18 19  1  0  0  0  0
 20 18  1  0  0  0  0
 21 18  1  0  0  0  0
M  END
