Coordinates from ORCA-job C6H6+AlCl4-+NH2--N2+-scan
 OpenBabel10221816113D

 22 20  0  0  0  0  0  0  0  0999 V2000
    3.5815   -0.2074   -4.4348 N   0  0  0  0  0  0  0  0  0  0  0  0
    3.9320   -0.5480   -5.4193 N   0  0  0  0  0  0  0  0  0  0  0  0
    3.1315    0.6553   -3.1508 N   0  0  0  0  0  0  0  0  0  0  0  0
    2.5136   -0.0476   -2.6861 H   0  0  0  0  0  0  0  0  0  0  0  0
    4.0349    0.6122   -2.5980 H   0  0  0  0  0  0  0  0  0  0  0  0
    1.7018   -2.3977   -6.6704 C   0  0  0  0  0  0  0  0  0  0  0  0
    1.0997   -1.1571   -6.9008 C   0  0  0  0  0  0  0  0  0  0  0  0
    0.4487   -0.4952   -5.8613 C   0  0  0  0  0  0  0  0  0  0  0  0
    0.4023   -1.0732   -4.5898 C   0  0  0  0  0  0  0  0  0  0  0  0
    1.0022   -2.3148   -4.3601 C   0  0  0  0  0  0  0  0  0  0  0  0
    1.6504   -2.9772   -5.4024 C   0  0  0  0  0  0  0  0  0  0  0  0
    2.2016   -2.9149   -7.4821 H   0  0  0  0  0  0  0  0  0  0  0  0
    1.1309   -0.7156   -7.8910 H   0  0  0  0  0  0  0  0  0  0  0  0
   -0.0305    0.4610   -6.0406 H   0  0  0  0  0  0  0  0  0  0  0  0
   -0.1221   -0.5700   -3.7840 H   0  0  0  0  0  0  0  0  0  0  0  0
    0.9629   -2.7620   -3.3737 H   0  0  0  0  0  0  0  0  0  0  0  0
    2.1175   -3.9384   -5.2224 H   0  0  0  0  0  0  0  0  0  0  0  0
    4.3929   -1.8126   -0.7982 Al  0  0  0  0  0  0  0  0  0  0  0  0
    5.0275   -2.8257    0.9418 Cl  0  0  0  0  0  0  0  0  0  0  0  0
    5.4049    0.1366   -1.0690 Cl  0  0  0  0  0  0  0  0  0  0  0  0
    4.7060   -2.8581   -2.6674 Cl  0  0  0  0  0  0  0  0  0  0  0  0
    2.2543   -1.2904   -0.7730 Cl  0  0  0  0  0  0  0  0  0  0  0  0
  1  3  1  0  0  0  0
  2  1  1  0  0  0  0
  3  4  1  0  0  0  0
  3  5  1  0  0  0  0
  6 11  1  0  0  0  0
  7  6  2  0  0  0  0
  7  8  1  0  0  0  0
  8  9  2  0  0  0  0
  9 10  1  0  0  0  0
  9 15  1  0  0  0  0
 10 16  1  0  0  0  0
 11 17  1  0  0  0  0
 11 10  2  0  0  0  0
 12  6  1  0  0  0  0
 13  7  1  0  0  0  0
 14  8  1  0  0  0  0
 18 22  1  0  0  0  0
 18 19  1  0  0  0  0
 20 18  1  0  0  0  0
 21 18  1  0  0  0  0
M  RAD  2   1   2   2   3
M  END
