Coordinates from ORCA-job C6H6+AlCl4-+NH2--N2+-scan
 OpenBabel10221816123D

 22 19  0  0  0  0  0  0  0  0999 V2000
    6.4766   -2.8784   -5.9860 N   0  0  0  0  0  0  0  0  0  0  0  0
    7.4434   -3.1875   -5.5738 N   0  0  0  0  0  0  0  0  0  0  0  0
    1.6965    0.6070   -2.9720 N   0  0  0  0  0  0  0  0  0  0  0  0
    1.4628   -0.3383   -3.2884 H   0  0  0  0  0  0  0  0  0  0  0  0
    2.6323    0.8151   -3.3266 H   0  0  0  0  0  0  0  0  0  0  0  0
    1.4225   -0.8134   -6.4270 C   0  0  0  0  0  0  0  0  0  0  0  0
    0.1307   -0.8277   -5.9006 C   0  0  0  0  0  0  0  0  0  0  0  0
   -0.1943   -1.7149   -4.8735 C   0  0  0  0  0  0  0  0  0  0  0  0
    0.7754   -2.5843   -4.3696 C   0  0  0  0  0  0  0  0  0  0  0  0
    2.0685   -2.5696   -4.8980 C   0  0  0  0  0  0  0  0  0  0  0  0
    2.3914   -1.6857   -5.9280 C   0  0  0  0  0  0  0  0  0  0  0  0
    1.6729   -0.1273   -7.2288 H   0  0  0  0  0  0  0  0  0  0  0  0
   -0.6213   -0.1506   -6.2899 H   0  0  0  0  0  0  0  0  0  0  0  0
   -1.2001   -1.7303   -4.4682 H   0  0  0  0  0  0  0  0  0  0  0  0
    0.5263   -3.2768   -3.5732 H   0  0  0  0  0  0  0  0  0  0  0  0
    2.8201   -3.2451   -4.5063 H   0  0  0  0  0  0  0  0  0  0  0  0
    3.3937   -1.6828   -6.3416 H   0  0  0  0  0  0  0  0  0  0  0  0
    3.9513   -0.8829   -0.8012 Al  0  0  0  0  0  0  0  0  0  0  0  0
    4.2753   -0.2813    1.1907 Cl  0  0  0  0  0  0  0  0  0  0  0  0
    5.1833   -0.0656   -2.3235 Cl  0  0  0  0  0  0  0  0  0  0  0  0
    3.3004   -2.8646   -1.1333 Cl  0  0  0  0  0  0  0  0  0  0  0  0
    1.9369    0.4442   -1.2150 Cl  0  0  0  0  0  0  0  0  0  0  0  0
  1  2  3  0  0  0  0
  3 22  1  0  0  0  0
  4  3  1  0  0  0  0
  5  3  1  0  0  0  0
  6 11  2  0  0  0  0
  6  7  1  0  0  0  0
  7  8  2  0  0  0  0
  8 14  1  0  0  0  0
  8  9  1  0  0  0  0
  9 15  1  0  0  0  0
 10 16  1  0  0  0  0
 10  9  2  0  0  0  0
 11 10  1  0  0  0  0
 12  6  1  0  0  0  0
 13  7  1  0  0  0  0
 17 11  1  0  0  0  0
 18 19  1  0  0  0  0
 20 18  1  0  0  0  0
 21 18  1  0  0  0  0
M  END
