Coordinates from ORCA-job C6H6+AlCl4-+NH2--N2+-scan
 OpenBabel10221816123D

 22 19  0  0  0  0  0  0  0  0999 V2000
    7.1123   -0.5493   -5.6450 N   0  0  0  0  0  0  0  0  0  0  0  0
    8.1117   -0.9137   -5.3828 N   0  0  0  0  0  0  0  0  0  0  0  0
    2.4486    0.3944   -3.4098 N   0  0  0  0  0  0  0  0  0  0  0  0
    1.8478   -0.4281   -3.5128 H   0  0  0  0  0  0  0  0  0  0  0  0
    3.3700    0.1323   -3.7655 H   0  0  0  0  0  0  0  0  0  0  0  0
    1.3353   -1.2730   -6.4771 C   0  0  0  0  0  0  0  0  0  0  0  0
    0.1208   -0.7976   -5.9820 C   0  0  0  0  0  0  0  0  0  0  0  0
   -0.4241   -1.3498   -4.8226 C   0  0  0  0  0  0  0  0  0  0  0  0
    0.2473   -2.3768   -4.1560 C   0  0  0  0  0  0  0  0  0  0  0  0
    1.4628   -2.8538   -4.6525 C   0  0  0  0  0  0  0  0  0  0  0  0
    2.0058   -2.3017   -5.8137 C   0  0  0  0  0  0  0  0  0  0  0  0
    1.7572   -0.8447   -7.3796 H   0  0  0  0  0  0  0  0  0  0  0  0
   -0.3991    0.0020   -6.4978 H   0  0  0  0  0  0  0  0  0  0  0  0
   -1.3696   -0.9822   -4.4392 H   0  0  0  0  0  0  0  0  0  0  0  0
   -0.1742   -2.8090   -3.2553 H   0  0  0  0  0  0  0  0  0  0  0  0
    1.9826   -3.6506   -4.1329 H   0  0  0  0  0  0  0  0  0  0  0  0
    2.9478   -2.6742   -6.2007 H   0  0  0  0  0  0  0  0  0  0  0  0
    3.9705   -1.3679   -0.8416 Al  0  0  0  0  0  0  0  0  0  0  0  0
    4.5636   -0.5416    1.0026 Cl  0  0  0  0  0  0  0  0  0  0  0  0
    5.4017   -1.4971   -2.4027 Cl  0  0  0  0  0  0  0  0  0  0  0  0
    2.5291   -2.9121   -0.8124 Cl  0  0  0  0  0  0  0  0  0  0  0  0
    2.6969    0.5540   -1.6543 Cl  0  0  0  0  0  0  0  0  0  0  0  0
  1  2  3  0  0  0  0
  3 22  1  0  0  0  0
  4  3  1  0  0  0  0
  5  3  1  0  0  0  0
  6  7  2  0  0  0  0
  6 11  1  0  0  0  0
  7  8  1  0  0  0  0
  8 14  1  0  0  0  0
  8  9  2  0  0  0  0
  9 15  1  0  0  0  0
 10  9  1  0  0  0  0
 10 16  1  0  0  0  0
 11 10  2  0  0  0  0
 12  6  1  0  0  0  0
 13  7  1  0  0  0  0
 17 11  1  0  0  0  0
 18 21  1  0  0  0  0
 18 19  1  0  0  0  0
 20 18  1  0  0  0  0
M  END
