Coordinates from ORCA-job C6H6+AlCl4-+NH2--N2+-scan
 OpenBabel10221816113D

 22 20  0  0  0  0  0  0  0  0999 V2000
    3.6851   -0.1906   -4.4747 N   0  0  0  0  0  0  0  0  0  0  0  0
    3.9647   -0.4685   -5.5164 N   0  0  0  0  0  0  0  0  0  0  0  0
    3.3974    0.2112   -3.3260 N   0  0  0  0  0  0  0  0  0  0  0  0
    2.6367   -0.3115   -2.8407 H   0  0  0  0  0  0  0  0  0  0  0  0
    4.2296    0.3886   -2.6745 H   0  0  0  0  0  0  0  0  0  0  0  0
    1.6205   -2.2996   -6.7597 C   0  0  0  0  0  0  0  0  0  0  0  0
    0.9798   -1.0660   -6.8949 C   0  0  0  0  0  0  0  0  0  0  0  0
    0.3639   -0.4755   -5.7916 C   0  0  0  0  0  0  0  0  0  0  0  0
    0.3890   -1.1197   -4.5524 C   0  0  0  0  0  0  0  0  0  0  0  0
    1.0312   -2.3536   -4.4166 C   0  0  0  0  0  0  0  0  0  0  0  0
    1.6469   -2.9428   -5.5219 C   0  0  0  0  0  0  0  0  0  0  0  0
    2.0933   -2.7609   -7.6196 H   0  0  0  0  0  0  0  0  0  0  0  0
    0.9535   -0.5720   -7.8600 H   0  0  0  0  0  0  0  0  0  0  0  0
   -0.1469    0.4753   -5.8985 H   0  0  0  0  0  0  0  0  0  0  0  0
   -0.1106   -0.6743   -3.6983 H   0  0  0  0  0  0  0  0  0  0  0  0
    1.0435   -2.8557   -3.4560 H   0  0  0  0  0  0  0  0  0  0  0  0
    2.1417   -3.9014   -5.4161 H   0  0  0  0  0  0  0  0  0  0  0  0
    4.3534   -1.7157   -0.6181 Al  0  0  0  0  0  0  0  0  0  0  0  0
    4.8363   -2.4261    1.3077 Cl  0  0  0  0  0  0  0  0  0  0  0  0
    5.3484    0.2332   -1.0543 Cl  0  0  0  0  0  0  0  0  0  0  0  0
    4.8727   -2.9736   -2.2860 Cl  0  0  0  0  0  0  0  0  0  0  0  0
    2.2144   -1.2412   -0.8649 Cl  0  0  0  0  0  0  0  0  0  0  0  0
  1  3  1  0  0  0  0
  2  1  1  0  0  0  0
  3  4  1  0  0  0  0
  3  5  1  0  0  0  0
  6 11  1  0  0  0  0
  7  6  2  0  0  0  0
  7  8  1  0  0  0  0
  8  9  2  0  0  0  0
  9 10  1  0  0  0  0
  9 15  1  0  0  0  0
 10 16  1  0  0  0  0
 11 17  1  0  0  0  0
 11 10  2  0  0  0  0
 12  6  1  0  0  0  0
 13  7  1  0  0  0  0
 14  8  1  0  0  0  0
 18 19  1  0  0  0  0
 20 18  1  0  0  0  0
 21 18  1  0  0  0  0
 22 18  1  0  0  0  0
M  RAD  2   1   2   2   3
M  END
