Coordinates from ORCA-job C6H6+AlCl4-+NH2--N2+-scan
 OpenBabel10221816113D

 22 19  0  0  0  0  0  0  0  0999 V2000
    6.1841   -0.3010   -5.4658 N   0  0  0  0  0  0  0  0  0  0  0  0
    7.1734   -0.5648   -5.8551 N   0  0  0  0  0  0  0  0  0  0  0  0
    2.6845    0.3528   -3.4219 N   0  0  0  0  0  0  0  0  0  0  0  0
    2.0410   -0.4376   -3.5174 H   0  0  0  0  0  0  0  0  0  0  0  0
    3.5975    0.0386   -3.7563 H   0  0  0  0  0  0  0  0  0  0  0  0
    1.4737   -1.3688   -6.5364 C   0  0  0  0  0  0  0  0  0  0  0  0
    0.2964   -0.7956   -6.0557 C   0  0  0  0  0  0  0  0  0  0  0  0
   -0.2658   -1.2527   -4.8637 C   0  0  0  0  0  0  0  0  0  0  0  0
    0.3511   -2.2824   -4.1502 C   0  0  0  0  0  0  0  0  0  0  0  0
    1.5300   -2.8567   -4.6321 C   0  0  0  0  0  0  0  0  0  0  0  0
    2.0901   -2.3996   -5.8259 C   0  0  0  0  0  0  0  0  0  0  0  0
    1.9088   -1.0144   -7.4644 H   0  0  0  0  0  0  0  0  0  0  0  0
   -0.1815    0.0056   -6.6082 H   0  0  0  0  0  0  0  0  0  0  0  0
   -1.1827   -0.8093   -4.4912 H   0  0  0  0  0  0  0  0  0  0  0  0
   -0.0836   -2.6413   -3.2241 H   0  0  0  0  0  0  0  0  0  0  0  0
    2.0071   -3.6559   -4.0765 H   0  0  0  0  0  0  0  0  0  0  0  0
    3.0031   -2.8483   -6.2017 H   0  0  0  0  0  0  0  0  0  0  0  0
    3.8904   -1.4664   -0.7040 Al  0  0  0  0  0  0  0  0  0  0  0  0
    4.4770   -0.6151    1.1318 Cl  0  0  0  0  0  0  0  0  0  0  0  0
    5.3784   -1.8622   -2.1602 Cl  0  0  0  0  0  0  0  0  0  0  0  0
    2.2659   -2.8181   -0.6859 Cl  0  0  0  0  0  0  0  0  0  0  0  0
    2.9057    0.5527   -1.6688 Cl  0  0  0  0  0  0  0  0  0  0  0  0
  2  1  3  0  0  0  0
  3 22  1  0  0  0  0
  4  3  1  0  0  0  0
  5  3  1  0  0  0  0
  6  7  2  0  0  0  0
  6 11  1  0  0  0  0
  7  8  1  0  0  0  0
  8 14  1  0  0  0  0
  8  9  2  0  0  0  0
  9 15  1  0  0  0  0
 10  9  1  0  0  0  0
 10 16  1  0  0  0  0
 11 10  2  0  0  0  0
 12  6  1  0  0  0  0
 13  7  1  0  0  0  0
 17 11  1  0  0  0  0
 18 21  1  0  0  0  0
 18 19  1  0  0  0  0
 20 18  1  0  0  0  0
M  END
