Coordinates from ORCA-job C6H6+AlCl4-+NH2--N2+-scan
 OpenBabel10221816113D

 22 19  0  0  0  0  0  0  0  0999 V2000
    6.9541   -0.4361   -5.6291 N   0  0  0  0  0  0  0  0  0  0  0  0
    7.9953   -0.7715   -5.6892 N   0  0  0  0  0  0  0  0  0  0  0  0
    2.4959    0.3820   -3.3873 N   0  0  0  0  0  0  0  0  0  0  0  0
    1.8822   -0.4306   -3.4927 H   0  0  0  0  0  0  0  0  0  0  0  0
    3.4164    0.1042   -3.7331 H   0  0  0  0  0  0  0  0  0  0  0  0
    1.3774   -1.3141   -6.4932 C   0  0  0  0  0  0  0  0  0  0  0  0
    0.1702   -0.8036   -6.0157 C   0  0  0  0  0  0  0  0  0  0  0  0
   -0.3891   -1.3156   -4.8448 C   0  0  0  0  0  0  0  0  0  0  0  0
    0.2606   -2.3373   -4.1492 C   0  0  0  0  0  0  0  0  0  0  0  0
    1.4690   -2.8492   -4.6281 C   0  0  0  0  0  0  0  0  0  0  0  0
    2.0264   -2.3373   -5.8008 C   0  0  0  0  0  0  0  0  0  0  0  0
    1.8104   -0.9171   -7.4049 H   0  0  0  0  0  0  0  0  0  0  0  0
   -0.3330   -0.0084   -6.5542 H   0  0  0  0  0  0  0  0  0  0  0  0
   -1.3290   -0.9208   -4.4749 H   0  0  0  0  0  0  0  0  0  0  0  0
   -0.1722   -2.7388   -3.2396 H   0  0  0  0  0  0  0  0  0  0  0  0
    1.9717   -3.6420   -4.0861 H   0  0  0  0  0  0  0  0  0  0  0  0
    2.9628   -2.7370   -6.1741 H   0  0  0  0  0  0  0  0  0  0  0  0
    3.9249   -1.4119   -0.7844 Al  0  0  0  0  0  0  0  0  0  0  0  0
    4.5240   -0.5872    1.0588 Cl  0  0  0  0  0  0  0  0  0  0  0  0
    5.3700   -1.6127   -2.3240 Cl  0  0  0  0  0  0  0  0  0  0  0  0
    2.4263   -2.9012   -0.7564 Cl  0  0  0  0  0  0  0  0  0  0  0  0
    2.7304    0.5459   -1.6307 Cl  0  0  0  0  0  0  0  0  0  0  0  0
  2  1  3  0  0  0  0
  3 22  1  0  0  0  0
  4  3  1  0  0  0  0
  5  3  1  0  0  0  0
  6  7  2  0  0  0  0
  6 11  1  0  0  0  0
  7  8  1  0  0  0  0
  8 14  1  0  0  0  0
  8  9  2  0  0  0  0
  9 15  1  0  0  0  0
 10  9  1  0  0  0  0
 10 16  1  0  0  0  0
 11 10  2  0  0  0  0
 12  6  1  0  0  0  0
 13  7  1  0  0  0  0
 17 11  1  0  0  0  0
 18 21  1  0  0  0  0
 18 19  1  0  0  0  0
 20 18  1  0  0  0  0
M  END
