Coordinates from ORCA-job C6H6+AlCl4-+NH2--N2+-scan
 OpenBabel10221816113D

 22 20  0  0  0  0  0  0  0  0999 V2000
    3.5999   -0.1828   -4.4068 N   0  0  0  0  0  0  0  0  0  0  0  0
    3.9568   -0.5188   -5.3978 N   0  0  0  0  0  0  0  0  0  0  0  0
    3.1988    0.4403   -3.2300 N   0  0  0  0  0  0  0  0  0  0  0  0
    2.5205   -0.1940   -2.7605 H   0  0  0  0  0  0  0  0  0  0  0  0
    4.0600    0.5215   -2.6102 H   0  0  0  0  0  0  0  0  0  0  0  0
    1.7033   -2.3653   -6.6619 C   0  0  0  0  0  0  0  0  0  0  0  0
    1.0907   -1.1324   -6.9017 C   0  0  0  0  0  0  0  0  0  0  0  0
    0.4155   -0.4777   -5.8724 C   0  0  0  0  0  0  0  0  0  0  0  0
    0.3529   -1.0567   -4.6025 C   0  0  0  0  0  0  0  0  0  0  0  0
    0.9646   -2.2904   -4.3628 C   0  0  0  0  0  0  0  0  0  0  0  0
    1.6396   -2.9443   -5.3941 C   0  0  0  0  0  0  0  0  0  0  0  0
    2.2232   -2.8763   -7.4648 H   0  0  0  0  0  0  0  0  0  0  0  0
    1.1330   -0.6898   -7.8909 H   0  0  0  0  0  0  0  0  0  0  0  0
   -0.0716    0.4730   -6.0598 H   0  0  0  0  0  0  0  0  0  0  0  0
   -0.1904   -0.5593   -3.8058 H   0  0  0  0  0  0  0  0  0  0  0  0
    0.9116   -2.7407   -3.3782 H   0  0  0  0  0  0  0  0  0  0  0  0
    2.1157   -3.8996   -5.2062 H   0  0  0  0  0  0  0  0  0  0  0  0
    4.4177   -1.7968   -0.7675 Al  0  0  0  0  0  0  0  0  0  0  0  0
    5.0704   -2.7271    1.0105 Cl  0  0  0  0  0  0  0  0  0  0  0  0
    5.3651    0.1886   -1.0768 Cl  0  0  0  0  0  0  0  0  0  0  0  0
    4.8018   -2.8678   -2.6057 Cl  0  0  0  0  0  0  0  0  0  0  0  0
    2.2654   -1.3441   -0.7877 Cl  0  0  0  0  0  0  0  0  0  0  0  0
  1  3  1  0  0  0  0
  2  1  1  0  0  0  0
  3  4  1  0  0  0  0
  3  5  1  0  0  0  0
  6 11  1  0  0  0  0
  7  6  2  0  0  0  0
  7  8  1  0  0  0  0
  8  9  2  0  0  0  0
  9 10  1  0  0  0  0
  9 15  1  0  0  0  0
 10 16  1  0  0  0  0
 11 17  1  0  0  0  0
 11 10  2  0  0  0  0
 12  6  1  0  0  0  0
 13  7  1  0  0  0  0
 14  8  1  0  0  0  0
 18 19  1  0  0  0  0
 20 18  1  0  0  0  0
 21 18  1  0  0  0  0
 22 18  1  0  0  0  0
M  RAD  2   1   2   2   3
M  END
