Coordinates from ORCA-job C6H6+AlCl4-+NH2--N2+-scan
 OpenBabel10221816113D

 22 19  0  0  0  0  0  0  0  0999 V2000
    4.2067    0.2210   -5.4422 N   0  0  0  0  0  0  0  0  0  0  0  0
    4.4056    1.0356   -6.1492 N   0  0  0  0  0  0  0  0  0  0  0  0
    3.5706    0.1679   -3.3662 N   0  0  0  0  0  0  0  0  0  0  0  0
    2.7914   -0.4072   -3.7086 H   0  0  0  0  0  0  0  0  0  0  0  0
    4.3677   -0.4691   -3.2668 H   0  0  0  0  0  0  0  0  0  0  0  0
    1.6043   -1.8818   -6.8113 C   0  0  0  0  0  0  0  0  0  0  0  0
    0.7586   -0.8718   -6.3532 C   0  0  0  0  0  0  0  0  0  0  0  0
    0.3256   -0.8734   -5.0269 C   0  0  0  0  0  0  0  0  0  0  0  0
    0.7403   -1.8859   -4.1584 C   0  0  0  0  0  0  0  0  0  0  0  0
    1.5915   -2.8941   -4.6174 C   0  0  0  0  0  0  0  0  0  0  0  0
    2.0221   -2.8912   -5.9440 C   0  0  0  0  0  0  0  0  0  0  0  0
    1.9359   -1.8832   -7.8439 H   0  0  0  0  0  0  0  0  0  0  0  0
    0.4322   -0.0890   -7.0292 H   0  0  0  0  0  0  0  0  0  0  0  0
   -0.3428   -0.0957   -4.6734 H   0  0  0  0  0  0  0  0  0  0  0  0
    0.3905   -1.9038   -3.1321 H   0  0  0  0  0  0  0  0  0  0  0  0
    1.9076   -3.6803   -3.9411 H   0  0  0  0  0  0  0  0  0  0  0  0
    2.6779   -3.6771   -6.3020 H   0  0  0  0  0  0  0  0  0  0  0  0
    3.6856   -1.6014   -0.3497 Al  0  0  0  0  0  0  0  0  0  0  0  0
    3.9746   -0.7302    1.5451 Cl  0  0  0  0  0  0  0  0  0  0  0  0
    5.4007   -2.1680   -1.4733 Cl  0  0  0  0  0  0  0  0  0  0  0  0
    2.0061   -2.8626   -0.5916 Cl  0  0  0  0  0  0  0  0  0  0  0  0
    3.0919    0.4007   -1.5983 Cl  0  0  0  0  0  0  0  0  0  0  0  0
  2  1  3  0  0  0  0
  3  5  1  0  0  0  0
  3 22  1  0  0  0  0
  4  3  1  0  0  0  0
  6  7  2  0  0  0  0
  6 11  1  0  0  0  0
  7  8  1  0  0  0  0
  8 14  1  0  0  0  0
  8  9  2  0  0  0  0
  9 15  1  0  0  0  0
 10  9  1  0  0  0  0
 10 16  1  0  0  0  0
 11 10  2  0  0  0  0
 12  6  1  0  0  0  0
 13  7  1  0  0  0  0
 17 11  1  0  0  0  0
 18 19  1  0  0  0  0
 20 18  1  0  0  0  0
 21 18  1  0  0  0  0
M  END
