Coordinates from ORCA-job C6H6+AlCl4-+NH2--N2+-scan
 OpenBabel10221816113D

 22 20  0  0  0  0  0  0  0  0999 V2000
    4.1265    0.2472   -5.2321 N   0  0  0  0  0  0  0  0  0  0  0  0
    4.4863    0.9934   -5.9581 N   0  0  0  0  0  0  0  0  0  0  0  0
    3.5156    0.1452   -3.5833 N   0  0  0  0  0  0  0  0  0  0  0  0
    2.7031   -0.4335   -3.8508 H   0  0  0  0  0  0  0  0  0  0  0  0
    4.2411   -0.5339   -3.2942 H   0  0  0  0  0  0  0  0  0  0  0  0
    1.6968   -1.8912   -6.7454 C   0  0  0  0  0  0  0  0  0  0  0  0
    0.8318   -0.8667   -6.3587 C   0  0  0  0  0  0  0  0  0  0  0  0
    0.3265   -0.8346   -5.0580 C   0  0  0  0  0  0  0  0  0  0  0  0
    0.6875   -1.8279   -4.1437 C   0  0  0  0  0  0  0  0  0  0  0  0
    1.5566   -2.8515   -4.5314 C   0  0  0  0  0  0  0  0  0  0  0  0
    2.0600   -2.8820   -5.8324 C   0  0  0  0  0  0  0  0  0  0  0  0
    2.0816   -1.9213   -7.7591 H   0  0  0  0  0  0  0  0  0  0  0  0
    0.5435   -0.1017   -7.0714 H   0  0  0  0  0  0  0  0  0  0  0  0
   -0.3552   -0.0457   -4.7592 H   0  0  0  0  0  0  0  0  0  0  0  0
    0.2884   -1.8153   -3.1357 H   0  0  0  0  0  0  0  0  0  0  0  0
    1.8327   -3.6198   -3.8184 H   0  0  0  0  0  0  0  0  0  0  0  0
    2.7287   -3.6803   -6.1349 H   0  0  0  0  0  0  0  0  0  0  0  0
    3.6858   -1.5561   -0.4779 Al  0  0  0  0  0  0  0  0  0  0  0  0
    4.2301   -0.8553    1.4365 Cl  0  0  0  0  0  0  0  0  0  0  0  0
    5.3207   -2.0284   -1.8046 Cl  0  0  0  0  0  0  0  0  0  0  0  0
    2.1299   -3.0009   -0.5589 Cl  0  0  0  0  0  0  0  0  0  0  0  0
    2.8268    0.3196   -1.5618 Cl  0  0  0  0  0  0  0  0  0  0  0  0
  1  3  1  0  0  0  0
  2  1  2  0  0  0  0
  3  5  1  0  0  0  0
  3 22  1  0  0  0  0
  4  3  1  0  0  0  0
  6  7  2  0  0  0  0
  6 11  1  0  0  0  0
  7  8  1  0  0  0  0
  8 14  1  0  0  0  0
  8  9  2  0  0  0  0
  9 15  1  0  0  0  0
 10  9  1  0  0  0  0
 10 16  1  0  0  0  0
 11 10  2  0  0  0  0
 12  6  1  0  0  0  0
 13  7  1  0  0  0  0
 17 11  1  0  0  0  0
 18 19  1  0  0  0  0
 20 18  1  0  0  0  0
 21 18  1  0  0  0  0
M  RAD  1   2   2
M  END
