Coordinates from ORCA-job C6H6+AlCl4-+NH2--N2+-scan
 OpenBabel10221816113D

 22 19  0  0  0  0  0  0  0  0999 V2000
    5.8154   -0.2262   -5.3114 N   0  0  0  0  0  0  0  0  0  0  0  0
    6.7439   -0.4414   -5.8510 N   0  0  0  0  0  0  0  0  0  0  0  0
    2.7832    0.3422   -3.4475 N   0  0  0  0  0  0  0  0  0  0  0  0
    2.1249   -0.4363   -3.5357 H   0  0  0  0  0  0  0  0  0  0  0  0
    3.6904    0.0155   -3.7860 H   0  0  0  0  0  0  0  0  0  0  0  0
    1.5070   -1.4054   -6.5656 C   0  0  0  0  0  0  0  0  0  0  0  0
    0.3516   -0.7954   -6.0774 C   0  0  0  0  0  0  0  0  0  0  0  0
   -0.2049   -1.2204   -4.8710 C   0  0  0  0  0  0  0  0  0  0  0  0
    0.3961   -2.2546   -4.1505 C   0  0  0  0  0  0  0  0  0  0  0  0
    1.5534   -2.8653   -4.6397 C   0  0  0  0  0  0  0  0  0  0  0  0
    2.1075   -2.4406   -5.8480 C   0  0  0  0  0  0  0  0  0  0  0  0
    1.9371   -1.0765   -7.5054 H   0  0  0  0  0  0  0  0  0  0  0  0
   -0.1141    0.0092   -6.6355 H   0  0  0  0  0  0  0  0  0  0  0  0
   -1.1052   -0.7487   -4.4928 H   0  0  0  0  0  0  0  0  0  0  0  0
   -0.0343   -2.5890   -3.2133 H   0  0  0  0  0  0  0  0  0  0  0  0
    2.0181   -3.6681   -4.0786 H   0  0  0  0  0  0  0  0  0  0  0  0
    3.0031   -2.9183   -6.2299 H   0  0  0  0  0  0  0  0  0  0  0  0
    3.8891   -1.4909   -0.6818 Al  0  0  0  0  0  0  0  0  0  0  0  0
    4.4817   -0.6275    1.1469 Cl  0  0  0  0  0  0  0  0  0  0  0  0
    5.3828   -1.9896   -2.0991 Cl  0  0  0  0  0  0  0  0  0  0  0  0
    2.2042   -2.7668   -0.6627 Cl  0  0  0  0  0  0  0  0  0  0  0  0
    3.0138    0.5536   -1.6975 Cl  0  0  0  0  0  0  0  0  0  0  0  0
  2  1  3  0  0  0  0
  3 22  1  0  0  0  0
  4  3  1  0  0  0  0
  5  3  1  0  0  0  0
  6  7  2  0  0  0  0
  6 11  1  0  0  0  0
  7  8  1  0  0  0  0
  8 14  1  0  0  0  0
  8  9  2  0  0  0  0
  9 15  1  0  0  0  0
 10  9  1  0  0  0  0
 10 16  1  0  0  0  0
 11 10  2  0  0  0  0
 12  6  1  0  0  0  0
 13  7  1  0  0  0  0
 17 11  1  0  0  0  0
 18 21  1  0  0  0  0
 18 19  1  0  0  0  0
 20 18  1  0  0  0  0
M  END
