Coordinates from ORCA-job C6H6+AlCl4-+NH2--N2+-scan
 OpenBabel10221816113D

 22 19  0  0  0  0  0  0  0  0999 V2000
    5.7339   -0.2117   -5.2787 N   0  0  0  0  0  0  0  0  0  0  0  0
    6.6458   -0.4077   -5.8527 N   0  0  0  0  0  0  0  0  0  0  0  0
    2.8058    0.3379   -3.4530 N   0  0  0  0  0  0  0  0  0  0  0  0
    2.1434   -0.4373   -3.5397 H   0  0  0  0  0  0  0  0  0  0  0  0
    3.7114    0.0071   -3.7914 H   0  0  0  0  0  0  0  0  0  0  0  0
    1.5156   -1.4131   -6.5711 C   0  0  0  0  0  0  0  0  0  0  0  0
    0.3646   -0.7950   -6.0826 C   0  0  0  0  0  0  0  0  0  0  0  0
   -0.1920   -1.2129   -4.8737 C   0  0  0  0  0  0  0  0  0  0  0  0
    0.4045   -2.2481   -4.1510 C   0  0  0  0  0  0  0  0  0  0  0  0
    1.5575   -2.8669   -4.6404 C   0  0  0  0  0  0  0  0  0  0  0  0
    2.1116   -2.4493   -5.8512 C   0  0  0  0  0  0  0  0  0  0  0  0
    1.9455   -1.0898   -7.5128 H   0  0  0  0  0  0  0  0  0  0  0  0
   -0.0977    0.0104   -6.6425 H   0  0  0  0  0  0  0  0  0  0  0  0
   -1.0889   -0.7349   -4.4954 H   0  0  0  0  0  0  0  0  0  0  0  0
   -0.0259   -2.5771   -3.2119 H   0  0  0  0  0  0  0  0  0  0  0  0
    2.0187   -3.6705   -4.0776 H   0  0  0  0  0  0  0  0  0  0  0  0
    3.0036   -2.9336   -6.2334 H   0  0  0  0  0  0  0  0  0  0  0  0
    3.8896   -1.4963   -0.6773 Al  0  0  0  0  0  0  0  0  0  0  0  0
    4.4845   -0.6303    1.1496 Cl  0  0  0  0  0  0  0  0  0  0  0  0
    5.3837   -2.0175   -2.0858 Cl  0  0  0  0  0  0  0  0  0  0  0  0
    2.1924   -2.7560   -0.6577 Cl  0  0  0  0  0  0  0  0  0  0  0  0
    3.0372    0.5520   -1.7034 Cl  0  0  0  0  0  0  0  0  0  0  0  0
  2  1  3  0  0  0  0
  3 22  1  0  0  0  0
  4  3  1  0  0  0  0
  5  3  1  0  0  0  0
  6  7  2  0  0  0  0
  6 11  1  0  0  0  0
  7  8  1  0  0  0  0
  8 14  1  0  0  0  0
  8  9  2  0  0  0  0
  9 15  1  0  0  0  0
 10  9  1  0  0  0  0
 10 16  1  0  0  0  0
 11 10  2  0  0  0  0
 12  6  1  0  0  0  0
 13  7  1  0  0  0  0
 17 11  1  0  0  0  0
 18 21  1  0  0  0  0
 18 19  1  0  0  0  0
 20 18  1  0  0  0  0
M  END
