Coordinates from ORCA-job C6H6+AlCl4-+NH2--N2+-scan
 OpenBabel10221816123D

 22 19  0  0  0  0  0  0  0  0999 V2000
    6.4380   -2.6990   -6.5445 N   0  0  0  0  0  0  0  0  0  0  0  0
    7.4728   -3.0496   -6.4664 N   0  0  0  0  0  0  0  0  0  0  0  0
    1.6805    0.6361   -2.9544 N   0  0  0  0  0  0  0  0  0  0  0  0
    1.4298   -0.3082   -3.2609 H   0  0  0  0  0  0  0  0  0  0  0  0
    2.6333    0.8108   -3.2804 H   0  0  0  0  0  0  0  0  0  0  0  0
    1.5897   -0.9246   -6.3869 C   0  0  0  0  0  0  0  0  0  0  0  0
    0.2664   -0.8573   -5.9503 C   0  0  0  0  0  0  0  0  0  0  0  0
   -0.1655   -1.6750   -4.9051 C   0  0  0  0  0  0  0  0  0  0  0  0
    0.7289   -2.5561   -4.2934 C   0  0  0  0  0  0  0  0  0  0  0  0
    2.0538   -2.6224   -4.7314 C   0  0  0  0  0  0  0  0  0  0  0  0
    2.4837   -1.8077   -5.7795 C   0  0  0  0  0  0  0  0  0  0  0  0
    1.9231   -0.2927   -7.2030 H   0  0  0  0  0  0  0  0  0  0  0  0
   -0.4272   -0.1714   -6.4238 H   0  0  0  0  0  0  0  0  0  0  0  0
   -1.1956   -1.6273   -4.5692 H   0  0  0  0  0  0  0  0  0  0  0  0
    0.3963   -3.1953   -3.4829 H   0  0  0  0  0  0  0  0  0  0  0  0
    2.7462   -3.3061   -4.2541 H   0  0  0  0  0  0  0  0  0  0  0  0
    3.5099   -1.8665   -6.1244 H   0  0  0  0  0  0  0  0  0  0  0  0
    3.8115   -0.8633   -0.6574 Al  0  0  0  0  0  0  0  0  0  0  0  0
    4.0888   -0.1916    1.3193 Cl  0  0  0  0  0  0  0  0  0  0  0  0
    5.1154   -0.1422   -2.1681 Cl  0  0  0  0  0  0  0  0  0  0  0  0
    3.1123   -2.8376   -0.9294 Cl  0  0  0  0  0  0  0  0  0  0  0  0
    1.8526    0.5063   -1.1874 Cl  0  0  0  0  0  0  0  0  0  0  0  0
  1  2  3  0  0  0  0
  3 22  1  0  0  0  0
  4  3  1  0  0  0  0
  5  3  1  0  0  0  0
  6  7  2  0  0  0  0
  6 11  1  0  0  0  0
  7  8  1  0  0  0  0
  8 14  1  0  0  0  0
  8  9  2  0  0  0  0
  9 15  1  0  0  0  0
 10  9  1  0  0  0  0
 10 16  1  0  0  0  0
 11 10  2  0  0  0  0
 12  6  1  0  0  0  0
 13  7  1  0  0  0  0
 17 11  1  0  0  0  0
 18 19  1  0  0  0  0
 20 18  1  0  0  0  0
 21 18  1  0  0  0  0
M  END
