Coordinates from ORCA-job C6H6+AlCl4-+NH2--N2+-scan
 OpenBabel10221816123D

 22 19  0  0  0  0  0  0  0  0999 V2000
    7.4959   -0.9362   -5.6317 N   0  0  0  0  0  0  0  0  0  0  0  0
    8.4304   -1.2138   -5.1318 N   0  0  0  0  0  0  0  0  0  0  0  0
    2.3058    0.4509   -3.3724 N   0  0  0  0  0  0  0  0  0  0  0  0
    1.7566   -0.4048   -3.4921 H   0  0  0  0  0  0  0  0  0  0  0  0
    3.2361    0.2573   -3.7483 H   0  0  0  0  0  0  0  0  0  0  0  0
    1.2412   -1.1966   -6.4806 C   0  0  0  0  0  0  0  0  0  0  0  0
    0.0089   -0.8175   -5.9480 C   0  0  0  0  0  0  0  0  0  0  0  0
   -0.4716   -1.4350   -4.7930 C   0  0  0  0  0  0  0  0  0  0  0  0
    0.2820   -2.4309   -4.1685 C   0  0  0  0  0  0  0  0  0  0  0  0
    1.5155   -2.8114   -4.7026 C   0  0  0  0  0  0  0  0  0  0  0  0
    1.9942   -2.1940   -5.8593 C   0  0  0  0  0  0  0  0  0  0  0  0
    1.6130   -0.7178   -7.3798 H   0  0  0  0  0  0  0  0  0  0  0  0
   -0.5751   -0.0422   -6.4312 H   0  0  0  0  0  0  0  0  0  0  0  0
   -1.4309   -1.1423   -4.3805 H   0  0  0  0  0  0  0  0  0  0  0  0
   -0.0893   -2.9140   -3.2716 H   0  0  0  0  0  0  0  0  0  0  0  0
    2.0992   -3.5843   -4.2158 H   0  0  0  0  0  0  0  0  0  0  0  0
    2.9504   -2.4916   -6.2754 H   0  0  0  0  0  0  0  0  0  0  0  0
    3.9910   -1.2918   -0.8995 Al  0  0  0  0  0  0  0  0  0  0  0  0
    4.5984   -0.4838    0.9477 Cl  0  0  0  0  0  0  0  0  0  0  0  0
    5.3688   -1.2869   -2.5139 Cl  0  0  0  0  0  0  0  0  0  0  0  0
    2.6491   -2.9231   -0.8690 Cl  0  0  0  0  0  0  0  0  0  0  0  0
    2.5750    0.5691   -1.6161 Cl  0  0  0  0  0  0  0  0  0  0  0  0
  1  2  3  0  0  0  0
  3 22  1  0  0  0  0
  4  3  1  0  0  0  0
  5  3  1  0  0  0  0
  6  7  2  0  0  0  0
  6 11  1  0  0  0  0
  7  8  1  0  0  0  0
  8 14  1  0  0  0  0
  8  9  2  0  0  0  0
  9 15  1  0  0  0  0
 10 16  1  0  0  0  0
 10  9  1  0  0  0  0
 11 10  2  0  0  0  0
 12  6  1  0  0  0  0
 13  7  1  0  0  0  0
 17 11  1  0  0  0  0
 18 21  1  0  0  0  0
 18 19  1  0  0  0  0
 20 18  1  0  0  0  0
M  END
