Coordinates from ORCA-job C6H6+AlCl4-+NH2--N2+-scan
 OpenBabel10221816113D

 22 19  0  0  0  0  0  0  0  0999 V2000
    6.3054   -0.3266   -5.5103 N   0  0  0  0  0  0  0  0  0  0  0  0
    7.3121   -0.5972   -5.8468 N   0  0  0  0  0  0  0  0  0  0  0  0
    2.6541    0.3552   -3.4133 N   0  0  0  0  0  0  0  0  0  0  0  0
    2.0143   -0.4379   -3.5114 H   0  0  0  0  0  0  0  0  0  0  0  0
    3.5691    0.0446   -3.7454 H   0  0  0  0  0  0  0  0  0  0  0  0
    1.4619   -1.3591   -6.5275 C   0  0  0  0  0  0  0  0  0  0  0  0
    0.2785   -0.7957   -6.0500 C   0  0  0  0  0  0  0  0  0  0  0  0
   -0.2863   -1.2617   -4.8627 C   0  0  0  0  0  0  0  0  0  0  0  0
    0.3339   -2.2904   -4.1508 C   0  0  0  0  0  0  0  0  0  0  0  0
    1.5187   -2.8550   -4.6296 C   0  0  0  0  0  0  0  0  0  0  0  0
    2.0815   -2.3891   -5.8187 C   0  0  0  0  0  0  0  0  0  0  0  0
    1.8991   -0.9978   -7.4519 H   0  0  0  0  0  0  0  0  0  0  0  0
   -0.2019    0.0049   -6.6012 H   0  0  0  0  0  0  0  0  0  0  0  0
   -1.2079   -0.8258   -4.4927 H   0  0  0  0  0  0  0  0  0  0  0  0
   -0.1030   -2.6562   -3.2283 H   0  0  0  0  0  0  0  0  0  0  0  0
    1.9984   -3.6535   -4.0752 H   0  0  0  0  0  0  0  0  0  0  0  0
    2.9993   -2.8300   -6.1921 H   0  0  0  0  0  0  0  0  0  0  0  0
    3.8947   -1.4576   -0.7129 Al  0  0  0  0  0  0  0  0  0  0  0  0
    4.4789   -0.6121    1.1261 Cl  0  0  0  0  0  0  0  0  0  0  0  0
    5.3791   -1.8137   -2.1835 Cl  0  0  0  0  0  0  0  0  0  0  0  0
    2.2939   -2.8371   -0.6965 Cl  0  0  0  0  0  0  0  0  0  0  0  0
    2.8708    0.5511   -1.6589 Cl  0  0  0  0  0  0  0  0  0  0  0  0
  2  1  3  0  0  0  0
  3 22  1  0  0  0  0
  4  3  1  0  0  0  0
  5  3  1  0  0  0  0
  6  7  2  0  0  0  0
  6 11  1  0  0  0  0
  7  8  1  0  0  0  0
  8 14  1  0  0  0  0
  8  9  2  0  0  0  0
  9 15  1  0  0  0  0
 10  9  1  0  0  0  0
 10 16  1  0  0  0  0
 11 10  2  0  0  0  0
 12  6  1  0  0  0  0
 13  7  1  0  0  0  0
 17 11  1  0  0  0  0
 18 21  1  0  0  0  0
 18 19  1  0  0  0  0
 20 18  1  0  0  0  0
M  END
