Coordinates from ORCA-job C6H6+AlCl4-+NH2--N2+-scan
 OpenBabel10221816113D

 22 19  0  0  0  0  0  0  0  0999 V2000
    4.1778    0.2246   -5.3602 N   0  0  0  0  0  0  0  0  0  0  0  0
    4.4187    1.0387   -6.0564 N   0  0  0  0  0  0  0  0  0  0  0  0
    3.5682    0.1548   -3.4233 N   0  0  0  0  0  0  0  0  0  0  0  0
    2.7785   -0.4204   -3.7455 H   0  0  0  0  0  0  0  0  0  0  0  0
    4.3435   -0.5036   -3.2787 H   0  0  0  0  0  0  0  0  0  0  0  0
    1.6180   -1.8841   -6.8024 C   0  0  0  0  0  0  0  0  0  0  0  0
    0.7717   -0.8701   -6.3541 C   0  0  0  0  0  0  0  0  0  0  0  0
    0.3276   -0.8669   -5.0314 C   0  0  0  0  0  0  0  0  0  0  0  0
    0.7319   -1.8784   -4.1566 C   0  0  0  0  0  0  0  0  0  0  0  0
    1.5836   -2.8907   -4.6060 C   0  0  0  0  0  0  0  0  0  0  0  0
    2.0252   -2.8927   -5.9290 C   0  0  0  0  0  0  0  0  0  0  0  0
    1.9579   -1.8895   -7.8323 H   0  0  0  0  0  0  0  0  0  0  0  0
    0.4530   -0.0884   -7.0349 H   0  0  0  0  0  0  0  0  0  0  0  0
   -0.3412   -0.0863   -4.6853 H   0  0  0  0  0  0  0  0  0  0  0  0
    0.3746   -1.8917   -3.1329 H   0  0  0  0  0  0  0  0  0  0  0  0
    1.8916   -3.6758   -3.9247 H   0  0  0  0  0  0  0  0  0  0  0  0
    2.6812   -3.6818   -6.2795 H   0  0  0  0  0  0  0  0  0  0  0  0
    3.6909   -1.5828   -0.3802 Al  0  0  0  0  0  0  0  0  0  0  0  0
    4.0187   -0.7306    1.5174 Cl  0  0  0  0  0  0  0  0  0  0  0  0
    5.3936   -2.1415   -1.5346 Cl  0  0  0  0  0  0  0  0  0  0  0  0
    2.0278   -2.8747   -0.5866 Cl  0  0  0  0  0  0  0  0  0  0  0  0
    3.0517    0.3912   -1.6164 Cl  0  0  0  0  0  0  0  0  0  0  0  0
  2  1  3  0  0  0  0
  3  5  1  0  0  0  0
  3 22  1  0  0  0  0
  4  3  1  0  0  0  0
  6  7  2  0  0  0  0
  6 11  1  0  0  0  0
  7  8  1  0  0  0  0
  8 14  1  0  0  0  0
  8  9  2  0  0  0  0
  9 15  1  0  0  0  0
 10  9  1  0  0  0  0
 10 16  1  0  0  0  0
 11 10  2  0  0  0  0
 12  6  1  0  0  0  0
 13  7  1  0  0  0  0
 17 11  1  0  0  0  0
 18 19  1  0  0  0  0
 20 18  1  0  0  0  0
 21 18  1  0  0  0  0
M  END
