Coordinates from ORCA-job C6H6+AlCl4-+NH2--N2+-scan
 OpenBabel10221816123D

 22 19  0  0  0  0  0  0  0  0999 V2000
    6.3632   -2.7732   -5.7947 N   0  0  0  0  0  0  0  0  0  0  0  0
    7.3137   -3.0601   -5.3317 N   0  0  0  0  0  0  0  0  0  0  0  0
    1.7593    0.5979   -3.0110 N   0  0  0  0  0  0  0  0  0  0  0  0
    1.5091   -0.3474   -3.3146 H   0  0  0  0  0  0  0  0  0  0  0  0
    2.6948    0.7872   -3.3767 H   0  0  0  0  0  0  0  0  0  0  0  0
    1.3949   -0.8059   -6.4350 C   0  0  0  0  0  0  0  0  0  0  0  0
    0.1039   -0.8398   -5.9072 C   0  0  0  0  0  0  0  0  0  0  0  0
   -0.2069   -1.7323   -4.8804 C   0  0  0  0  0  0  0  0  0  0  0  0
    0.7759   -2.5881   -4.3785 C   0  0  0  0  0  0  0  0  0  0  0  0
    2.0681   -2.5539   -4.9082 C   0  0  0  0  0  0  0  0  0  0  0  0
    2.3771   -1.6638   -5.9374 C   0  0  0  0  0  0  0  0  0  0  0  0
    1.6343   -0.1150   -7.2360 H   0  0  0  0  0  0  0  0  0  0  0  0
   -0.6583   -0.1733   -6.2951 H   0  0  0  0  0  0  0  0  0  0  0  0
   -1.2116   -1.7622   -4.4734 H   0  0  0  0  0  0  0  0  0  0  0  0
    0.5379   -3.2845   -3.5822 H   0  0  0  0  0  0  0  0  0  0  0  0
    2.8299   -3.2185   -4.5177 H   0  0  0  0  0  0  0  0  0  0  0  0
    3.3796   -1.6446   -6.3499 H   0  0  0  0  0  0  0  0  0  0  0  0
    3.9936   -0.9309   -0.8459 Al  0  0  0  0  0  0  0  0  0  0  0  0
    4.3598   -0.3128    1.1336 Cl  0  0  0  0  0  0  0  0  0  0  0  0
    5.2326   -0.1734   -2.3933 Cl  0  0  0  0  0  0  0  0  0  0  0  0
    3.2789   -2.8962   -1.1434 Cl  0  0  0  0  0  0  0  0  0  0  0  0
    2.0149    0.4503   -1.2548 Cl  0  0  0  0  0  0  0  0  0  0  0  0
  1  2  3  0  0  0  0
  3 22  1  0  0  0  0
  4  3  1  0  0  0  0
  5  3  1  0  0  0  0
  6 11  2  0  0  0  0
  6  7  1  0  0  0  0
  7  8  2  0  0  0  0
  8 14  1  0  0  0  0
  8  9  1  0  0  0  0
  9 15  1  0  0  0  0
 10 16  1  0  0  0  0
 10  9  2  0  0  0  0
 11 10  1  0  0  0  0
 12  6  1  0  0  0  0
 13  7  1  0  0  0  0
 17 11  1  0  0  0  0
 18 19  1  0  0  0  0
 20 18  1  0  0  0  0
 21 18  1  0  0  0  0
M  END
