Coordinates from ORCA-job C6H6+AlCl4-+NH2--N2+-scan
 OpenBabel10221816113D

 22 19  0  0  0  0  0  0  0  0999 V2000
    5.1976   -0.0118   -5.6466 N   0  0  0  0  0  0  0  0  0  0  0  0
    5.5329    0.2776   -6.6482 N   0  0  0  0  0  0  0  0  0  0  0  0
    3.0953    0.2593   -3.3797 N   0  0  0  0  0  0  0  0  0  0  0  0
    2.3766   -0.4283   -3.6220 H   0  0  0  0  0  0  0  0  0  0  0  0
    4.0043   -0.1821   -3.5252 H   0  0  0  0  0  0  0  0  0  0  0  0
    1.6666   -1.5780   -6.5958 C   0  0  0  0  0  0  0  0  0  0  0  0
    0.6054   -0.7945   -6.1427 C   0  0  0  0  0  0  0  0  0  0  0  0
    0.0214   -1.0606   -4.9038 C   0  0  0  0  0  0  0  0  0  0  0  0
    0.5013   -2.1096   -4.1166 C   0  0  0  0  0  0  0  0  0  0  0  0
    1.5651   -2.8932   -4.5706 C   0  0  0  0  0  0  0  0  0  0  0  0
    2.1462   -2.6272   -5.8108 C   0  0  0  0  0  0  0  0  0  0  0  0
    2.1174   -1.3729   -7.5607 H   0  0  0  0  0  0  0  0  0  0  0  0
    0.2329    0.0202   -6.7537 H   0  0  0  0  0  0  0  0  0  0  0  0
   -0.8076   -0.4555   -4.5534 H   0  0  0  0  0  0  0  0  0  0  0  0
    0.0481   -2.3236   -3.1552 H   0  0  0  0  0  0  0  0  0  0  0  0
    1.9349   -3.7067   -3.9570 H   0  0  0  0  0  0  0  0  0  0  0  0
    2.9686   -3.2389   -6.1651 H   0  0  0  0  0  0  0  0  0  0  0  0
    3.7491   -1.5883   -0.4960 Al  0  0  0  0  0  0  0  0  0  0  0  0
    4.1633   -0.7187    1.3777 Cl  0  0  0  0  0  0  0  0  0  0  0  0
    5.3694   -2.0606   -1.7797 Cl  0  0  0  0  0  0  0  0  0  0  0  0
    2.0890   -2.8906   -0.6130 Cl  0  0  0  0  0  0  0  0  0  0  0  0
    2.9665    0.4434   -1.6155 Cl  0  0  0  0  0  0  0  0  0  0  0  0
  2  1  3  0  0  0  0
  3 22  1  0  0  0  0
  4  3  1  0  0  0  0
  5  3  1  0  0  0  0
  6  7  2  0  0  0  0
  6 11  1  0  0  0  0
  7  8  1  0  0  0  0
  8 14  1  0  0  0  0
  8  9  2  0  0  0  0
  9 15  1  0  0  0  0
 10  9  1  0  0  0  0
 10 16  1  0  0  0  0
 11 10  2  0  0  0  0
 12  6  1  0  0  0  0
 13  7  1  0  0  0  0
 17 11  1  0  0  0  0
 18 19  1  0  0  0  0
 20 18  1  0  0  0  0
 21 18  1  0  0  0  0
M  END
