Coordinates from ORCA-job C6H6+AlCl4-+NH2--N2+-scan
 OpenBabel10221816113D

 22 19  0  0  0  0  0  0  0  0999 V2000
    6.3131   -0.3282   -5.5128 N   0  0  0  0  0  0  0  0  0  0  0  0
    7.3208   -0.5993   -5.8459 N   0  0  0  0  0  0  0  0  0  0  0  0
    2.6522    0.3554   -3.4128 N   0  0  0  0  0  0  0  0  0  0  0  0
    2.0127   -0.4379   -3.5110 H   0  0  0  0  0  0  0  0  0  0  0  0
    3.5674    0.0451   -3.7447 H   0  0  0  0  0  0  0  0  0  0  0  0
    1.4610   -1.3585   -6.5270 C   0  0  0  0  0  0  0  0  0  0  0  0
    0.2774   -0.7957   -6.0496 C   0  0  0  0  0  0  0  0  0  0  0  0
   -0.2876   -1.2623   -4.8626 C   0  0  0  0  0  0  0  0  0  0  0  0
    0.3329   -2.2909   -4.1508 C   0  0  0  0  0  0  0  0  0  0  0  0
    1.5180   -2.8550   -4.6295 C   0  0  0  0  0  0  0  0  0  0  0  0
    2.0809   -2.3884   -5.8183 C   0  0  0  0  0  0  0  0  0  0  0  0
    1.8984   -0.9967   -7.4512 H   0  0  0  0  0  0  0  0  0  0  0  0
   -0.2033    0.0048   -6.6008 H   0  0  0  0  0  0  0  0  0  0  0  0
   -1.2095   -0.8269   -4.4927 H   0  0  0  0  0  0  0  0  0  0  0  0
   -0.1042   -2.6572   -3.2286 H   0  0  0  0  0  0  0  0  0  0  0  0
    1.9978   -3.6534   -4.0752 H   0  0  0  0  0  0  0  0  0  0  0  0
    2.9989   -2.8289   -6.1916 H   0  0  0  0  0  0  0  0  0  0  0  0
    3.8950   -1.4570   -0.7136 Al  0  0  0  0  0  0  0  0  0  0  0  0
    4.4792   -0.6119    1.1257 Cl  0  0  0  0  0  0  0  0  0  0  0  0
    5.3792   -1.8106   -2.1850 Cl  0  0  0  0  0  0  0  0  0  0  0  0
    2.2958   -2.8383   -0.6972 Cl  0  0  0  0  0  0  0  0  0  0  0  0
    2.8686    0.5510   -1.6583 Cl  0  0  0  0  0  0  0  0  0  0  0  0
  2  1  3  0  0  0  0
  3 22  1  0  0  0  0
  4  3  1  0  0  0  0
  5  3  1  0  0  0  0
  6  7  2  0  0  0  0
  6 11  1  0  0  0  0
  7  8  1  0  0  0  0
  8 14  1  0  0  0  0
  8  9  2  0  0  0  0
  9 15  1  0  0  0  0
 10  9  1  0  0  0  0
 10 16  1  0  0  0  0
 11 10  2  0  0  0  0
 12  6  1  0  0  0  0
 13  7  1  0  0  0  0
 17 11  1  0  0  0  0
 18 21  1  0  0  0  0
 18 19  1  0  0  0  0
 20 18  1  0  0  0  0
M  END
