Coordinates from ORCA-job C6H6+AlCl4-+NH2--N2+-scan
 OpenBabel10221816113D

 22 20  0  0  0  0  0  0  0  0999 V2000
    4.1262    0.2495   -5.2267 N   0  0  0  0  0  0  0  0  0  0  0  0
    4.4907    0.9961   -5.9505 N   0  0  0  0  0  0  0  0  0  0  0  0
    3.5142    0.1442   -3.5893 N   0  0  0  0  0  0  0  0  0  0  0  0
    2.7010   -0.4343   -3.8554 H   0  0  0  0  0  0  0  0  0  0  0  0
    4.2387   -0.5348   -3.2965 H   0  0  0  0  0  0  0  0  0  0  0  0
    1.6971   -1.8933   -6.7449 C   0  0  0  0  0  0  0  0  0  0  0  0
    0.8325   -0.8678   -6.3601 C   0  0  0  0  0  0  0  0  0  0  0  0
    0.3270   -0.8332   -5.0594 C   0  0  0  0  0  0  0  0  0  0  0  0
    0.6877   -1.8250   -4.1433 C   0  0  0  0  0  0  0  0  0  0  0  0
    1.5563   -2.8497   -4.5293 C   0  0  0  0  0  0  0  0  0  0  0  0
    2.0600   -2.8828   -5.8300 C   0  0  0  0  0  0  0  0  0  0  0  0
    2.0820   -1.9251   -7.7584 H   0  0  0  0  0  0  0  0  0  0  0  0
    0.5445   -0.1038   -7.0740 H   0  0  0  0  0  0  0  0  0  0  0  0
   -0.3541   -0.0434   -4.7620 H   0  0  0  0  0  0  0  0  0  0  0  0
    0.2890   -1.8100   -3.1351 H   0  0  0  0  0  0  0  0  0  0  0  0
    1.8319   -3.6168   -3.8148 H   0  0  0  0  0  0  0  0  0  0  0  0
    2.7281   -3.6820   -6.1312 H   0  0  0  0  0  0  0  0  0  0  0  0
    3.6854   -1.5558   -0.4796 Al  0  0  0  0  0  0  0  0  0  0  0  0
    4.2363   -0.8600    1.4349 Cl  0  0  0  0  0  0  0  0  0  0  0  0
    5.3176   -2.0235   -1.8122 Cl  0  0  0  0  0  0  0  0  0  0  0  0
    2.1344   -3.0065   -0.5585 Cl  0  0  0  0  0  0  0  0  0  0  0  0
    2.8179    0.3175   -1.5574 Cl  0  0  0  0  0  0  0  0  0  0  0  0
  1  3  1  0  0  0  0
  2  1  2  0  0  0  0
  3  5  1  0  0  0  0
  3 22  1  0  0  0  0
  4  3  1  0  0  0  0
  6  7  2  0  0  0  0
  6 11  1  0  0  0  0
  7  8  1  0  0  0  0
  8 14  1  0  0  0  0
  8  9  2  0  0  0  0
  9 15  1  0  0  0  0
 10  9  1  0  0  0  0
 10 16  1  0  0  0  0
 11 10  2  0  0  0  0
 12  6  1  0  0  0  0
 13  7  1  0  0  0  0
 17 11  1  0  0  0  0
 18 19  1  0  0  0  0
 20 18  1  0  0  0  0
 21 18  1  0  0  0  0
M  RAD  1   2   2
M  END
