Coordinates from ORCA-job C6H6+AlCl4-+NH2--N2+-scan
 OpenBabel10221816113D

 22 20  0  0  0  0  0  0  0  0999 V2000
    3.5787   -0.2038   -4.4297 N   0  0  0  0  0  0  0  0  0  0  0  0
    3.9277   -0.5464   -5.4147 N   0  0  0  0  0  0  0  0  0  0  0  0
    3.1380    0.6322   -3.1624 N   0  0  0  0  0  0  0  0  0  0  0  0
    2.5151   -0.0630   -2.6941 H   0  0  0  0  0  0  0  0  0  0  0  0
    4.0385    0.6015   -2.6043 H   0  0  0  0  0  0  0  0  0  0  0  0
    1.7021   -2.3957   -6.6684 C   0  0  0  0  0  0  0  0  0  0  0  0
    1.1011   -1.1549   -6.9003 C   0  0  0  0  0  0  0  0  0  0  0  0
    0.4482   -0.4925   -5.8622 C   0  0  0  0  0  0  0  0  0  0  0  0
    0.3988   -1.0703   -4.5907 C   0  0  0  0  0  0  0  0  0  0  0  0
    0.9976   -2.3121   -4.3595 C   0  0  0  0  0  0  0  0  0  0  0  0
    1.6479   -2.9749   -5.4003 C   0  0  0  0  0  0  0  0  0  0  0  0
    2.2035   -2.9133   -7.4789 H   0  0  0  0  0  0  0  0  0  0  0  0
    1.1346   -0.7135   -7.8904 H   0  0  0  0  0  0  0  0  0  0  0  0
   -0.0302    0.4639   -6.0426 H   0  0  0  0  0  0  0  0  0  0  0  0
   -0.1269   -0.5666   -3.7861 H   0  0  0  0  0  0  0  0  0  0  0  0
    0.9559   -2.7592   -3.3732 H   0  0  0  0  0  0  0  0  0  0  0  0
    2.1142   -3.9363   -5.2193 H   0  0  0  0  0  0  0  0  0  0  0  0
    4.3957   -1.8097   -0.7958 Al  0  0  0  0  0  0  0  0  0  0  0  0
    5.0334   -2.8200    0.9446 Cl  0  0  0  0  0  0  0  0  0  0  0  0
    5.3966    0.1461   -1.0633 Cl  0  0  0  0  0  0  0  0  0  0  0  0
    4.7202   -2.8509   -2.6658 Cl  0  0  0  0  0  0  0  0  0  0  0  0
    2.2542   -1.3012   -0.7763 Cl  0  0  0  0  0  0  0  0  0  0  0  0
  1  3  1  0  0  0  0
  2  1  1  0  0  0  0
  3  4  1  0  0  0  0
  3  5  1  0  0  0  0
  6 11  1  0  0  0  0
  7  6  2  0  0  0  0
  7  8  1  0  0  0  0
  8  9  2  0  0  0  0
  9 10  1  0  0  0  0
  9 15  1  0  0  0  0
 10 16  1  0  0  0  0
 11 17  1  0  0  0  0
 11 10  2  0  0  0  0
 12  6  1  0  0  0  0
 13  7  1  0  0  0  0
 14  8  1  0  0  0  0
 18 22  1  0  0  0  0
 18 19  1  0  0  0  0
 20 18  1  0  0  0  0
 21 18  1  0  0  0  0
M  RAD  2   1   2   2   3
M  END
