Coordinates from ORCA-job C6H6+AlCl4-+NH2--N2+-scan
 OpenBabel10221816113D

 22 19  0  0  0  0  0  0  0  0999 V2000
    6.0945   -0.2812   -5.4311 N   0  0  0  0  0  0  0  0  0  0  0  0
    7.0708   -0.5376   -5.8564 N   0  0  0  0  0  0  0  0  0  0  0  0
    2.7078    0.3508   -3.4283 N   0  0  0  0  0  0  0  0  0  0  0  0
    2.0611   -0.4371   -3.5219 H   0  0  0  0  0  0  0  0  0  0  0  0
    3.6194    0.0337   -3.7640 H   0  0  0  0  0  0  0  0  0  0  0  0
    1.4820   -1.3771   -6.5432 C   0  0  0  0  0  0  0  0  0  0  0  0
    0.3097   -0.7956   -6.0604 C   0  0  0  0  0  0  0  0  0  0  0  0
   -0.2509   -1.2454   -4.8648 C   0  0  0  0  0  0  0  0  0  0  0  0
    0.3628   -2.2760   -4.1500 C   0  0  0  0  0  0  0  0  0  0  0  0
    1.5367   -2.8586   -4.6340 C   0  0  0  0  0  0  0  0  0  0  0  0
    2.0952   -2.4088   -5.8312 C   0  0  0  0  0  0  0  0  0  0  0  0
    1.9157   -1.0285   -7.4741 H   0  0  0  0  0  0  0  0  0  0  0  0
   -0.1657    0.0064   -6.6140 H   0  0  0  0  0  0  0  0  0  0  0  0
   -1.1640   -0.7956   -4.4908 H   0  0  0  0  0  0  0  0  0  0  0  0
   -0.0707   -2.6294   -3.2211 H   0  0  0  0  0  0  0  0  0  0  0  0
    2.0112   -3.6586   -4.0772 H   0  0  0  0  0  0  0  0  0  0  0  0
    3.0042   -2.8641   -6.2088 H   0  0  0  0  0  0  0  0  0  0  0  0
    3.8888   -1.4728   -0.6982 Al  0  0  0  0  0  0  0  0  0  0  0  0
    4.4773   -0.6179    1.1355 Cl  0  0  0  0  0  0  0  0  0  0  0  0
    5.3789   -1.8959   -2.1443 Cl  0  0  0  0  0  0  0  0  0  0  0  0
    2.2480   -2.8046   -0.6794 Cl  0  0  0  0  0  0  0  0  0  0  0  0
    2.9319    0.5534   -1.6760 Cl  0  0  0  0  0  0  0  0  0  0  0  0
  2  1  3  0  0  0  0
  3 22  1  0  0  0  0
  4  3  1  0  0  0  0
  5  3  1  0  0  0  0
  6  7  2  0  0  0  0
  6 11  1  0  0  0  0
  7  8  1  0  0  0  0
  8 14  1  0  0  0  0
  8  9  2  0  0  0  0
  9 15  1  0  0  0  0
 10  9  1  0  0  0  0
 10 16  1  0  0  0  0
 11 10  2  0  0  0  0
 12  6  1  0  0  0  0
 13  7  1  0  0  0  0
 17 11  1  0  0  0  0
 18 21  1  0  0  0  0
 18 19  1  0  0  0  0
 20 18  1  0  0  0  0
M  END
