Coordinates from ORCA-job C6H6+AlCl4-+NH2--N2+-scan
 OpenBabel10221816113D

 22 19  0  0  0  0  0  0  0  0999 V2000
    5.2622   -0.0144   -5.6821 N   0  0  0  0  0  0  0  0  0  0  0  0
    5.6232    0.2625   -6.6784 N   0  0  0  0  0  0  0  0  0  0  0  0
    3.0730    0.2622   -3.3733 N   0  0  0  0  0  0  0  0  0  0  0  0
    2.3581   -0.4291   -3.6158 H   0  0  0  0  0  0  0  0  0  0  0  0
    3.9850   -0.1715   -3.5254 H   0  0  0  0  0  0  0  0  0  0  0  0
    1.6604   -1.5711   -6.5893 C   0  0  0  0  0  0  0  0  0  0  0  0
    0.5938   -0.7949   -6.1363 C   0  0  0  0  0  0  0  0  0  0  0  0
    0.0091   -1.0674   -4.8991 C   0  0  0  0  0  0  0  0  0  0  0  0
    0.4936   -2.1155   -4.1136 C   0  0  0  0  0  0  0  0  0  0  0  0
    1.5626   -2.8919   -4.5675 C   0  0  0  0  0  0  0  0  0  0  0  0
    2.1446   -2.6195   -5.8060 C   0  0  0  0  0  0  0  0  0  0  0  0
    2.1119   -1.3609   -7.5527 H   0  0  0  0  0  0  0  0  0  0  0  0
    0.2179    0.0193   -6.7458 H   0  0  0  0  0  0  0  0  0  0  0  0
   -0.8238   -0.4676   -4.5485 H   0  0  0  0  0  0  0  0  0  0  0  0
    0.0402   -2.3341   -3.1533 H   0  0  0  0  0  0  0  0  0  0  0  0
    1.9361   -3.7046   -3.9551 H   0  0  0  0  0  0  0  0  0  0  0  0
    2.9712   -3.2255   -6.1603 H   0  0  0  0  0  0  0  0  0  0  0  0
    3.7485   -1.5889   -0.4976 Al  0  0  0  0  0  0  0  0  0  0  0  0
    4.1623   -0.7217    1.3774 Cl  0  0  0  0  0  0  0  0  0  0  0  0
    5.3680   -2.0474   -1.7872 Cl  0  0  0  0  0  0  0  0  0  0  0  0
    2.0958   -2.9005   -0.6143 Cl  0  0  0  0  0  0  0  0  0  0  0  0
    2.9509    0.4417   -1.6092 Cl  0  0  0  0  0  0  0  0  0  0  0  0
  2  1  3  0  0  0  0
  3 22  1  0  0  0  0
  4  3  1  0  0  0  0
  5  3  1  0  0  0  0
  6  7  2  0  0  0  0
  6 11  1  0  0  0  0
  7  8  1  0  0  0  0
  8 14  1  0  0  0  0
  8  9  2  0  0  0  0
  9 15  1  0  0  0  0
 10  9  1  0  0  0  0
 10 16  1  0  0  0  0
 11 10  2  0  0  0  0
 12  6  1  0  0  0  0
 13  7  1  0  0  0  0
 17 11  1  0  0  0  0
 18 19  1  0  0  0  0
 20 18  1  0  0  0  0
 21 18  1  0  0  0  0
M  END
