Coordinates from ORCA-job C6H6+AlCl4-+NH2--N2+-scan
 OpenBabel10221816123D

 22 19  0  0  0  0  0  0  0  0999 V2000
    7.4589   -0.8615   -5.6630 N   0  0  0  0  0  0  0  0  0  0  0  0
    8.4067   -1.1690   -5.2074 N   0  0  0  0  0  0  0  0  0  0  0  0
    2.3268    0.4419   -3.3757 N   0  0  0  0  0  0  0  0  0  0  0  0
    1.7693   -0.4089   -3.4929 H   0  0  0  0  0  0  0  0  0  0  0  0
    3.2566    0.2371   -3.7468 H   0  0  0  0  0  0  0  0  0  0  0  0
    1.2577   -1.2096   -6.4793 C   0  0  0  0  0  0  0  0  0  0  0  0
    0.0274   -0.8144   -5.9536 C   0  0  0  0  0  0  0  0  0  0  0  0
   -0.4646   -1.4211   -4.7978 C   0  0  0  0  0  0  0  0  0  0  0  0
    0.2755   -2.4223   -4.1655 C   0  0  0  0  0  0  0  0  0  0  0  0
    1.5069   -2.8188   -4.6927 C   0  0  0  0  0  0  0  0  0  0  0  0
    1.9970   -2.2122   -5.8503 C   0  0  0  0  0  0  0  0  0  0  0  0
    1.6384   -0.7391   -7.3792 H   0  0  0  0  0  0  0  0  0  0  0  0
   -0.5460   -0.0350   -6.4428 H   0  0  0  0  0  0  0  0  0  0  0  0
   -1.4223   -1.1160   -4.3906 H   0  0  0  0  0  0  0  0  0  0  0  0
   -0.1047   -2.8969   -3.2678 H   0  0  0  0  0  0  0  0  0  0  0  0
    2.0800   -3.5957   -4.1998 H   0  0  0  0  0  0  0  0  0  0  0  0
    2.9516   -2.5224   -6.2611 H   0  0  0  0  0  0  0  0  0  0  0  0
    3.9771   -1.3050   -0.8810 Al  0  0  0  0  0  0  0  0  0  0  0  0
    4.5757   -0.4934    0.9677 Cl  0  0  0  0  0  0  0  0  0  0  0  0
    5.3715   -1.3271   -2.4805 Cl  0  0  0  0  0  0  0  0  0  0  0  0
    2.6154   -2.9199   -0.8541 Cl  0  0  0  0  0  0  0  0  0  0  0  0
    2.5898    0.5686   -1.6193 Cl  0  0  0  0  0  0  0  0  0  0  0  0
  1  2  3  0  0  0  0
  3 22  1  0  0  0  0
  4  3  1  0  0  0  0
  5  3  1  0  0  0  0
  6  7  2  0  0  0  0
  6 11  1  0  0  0  0
  7  8  1  0  0  0  0
  8 14  1  0  0  0  0
  8  9  2  0  0  0  0
  9 15  1  0  0  0  0
 10 16  1  0  0  0  0
 10  9  1  0  0  0  0
 11 10  2  0  0  0  0
 12  6  1  0  0  0  0
 13  7  1  0  0  0  0
 17 11  1  0  0  0  0
 18 21  1  0  0  0  0
 18 19  1  0  0  0  0
 20 18  1  0  0  0  0
M  END
