Coordinates from ORCA-job C6H6+AlCl4-+NH2--N2+-scan
 OpenBabel10221816113D

 22 19  0  0  0  0  0  0  0  0999 V2000
    5.8882   -0.2361   -5.3460 N   0  0  0  0  0  0  0  0  0  0  0  0
    6.8308   -0.4647   -5.8547 N   0  0  0  0  0  0  0  0  0  0  0  0
    2.7638    0.3455   -3.4424 N   0  0  0  0  0  0  0  0  0  0  0  0
    2.1088   -0.4358   -3.5318 H   0  0  0  0  0  0  0  0  0  0  0  0
    3.6723    0.0214   -3.7803 H   0  0  0  0  0  0  0  0  0  0  0  0
    1.5013   -1.3987   -6.5595 C   0  0  0  0  0  0  0  0  0  0  0  0
    0.3414   -0.7961   -6.0726 C   0  0  0  0  0  0  0  0  0  0  0  0
   -0.2160   -1.2274   -4.8688 C   0  0  0  0  0  0  0  0  0  0  0  0
    0.3887   -2.2604   -4.1496 C   0  0  0  0  0  0  0  0  0  0  0  0
    1.5504   -2.8637   -4.6375 C   0  0  0  0  0  0  0  0  0  0  0  0
    2.1054   -2.4327   -5.8432 C   0  0  0  0  0  0  0  0  0  0  0  0
    1.9321   -1.0648   -7.4971 H   0  0  0  0  0  0  0  0  0  0  0  0
   -0.1270    0.0076   -6.6297 H   0  0  0  0  0  0  0  0  0  0  0  0
   -1.1197   -0.7614   -4.4916 H   0  0  0  0  0  0  0  0  0  0  0  0
   -0.0424   -2.5995   -3.2144 H   0  0  0  0  0  0  0  0  0  0  0  0
    2.0179   -3.6655   -4.0775 H   0  0  0  0  0  0  0  0  0  0  0  0
    3.0046   -2.9045   -6.2241 H   0  0  0  0  0  0  0  0  0  0  0  0
    3.8855   -1.4874   -0.6860 Al  0  0  0  0  0  0  0  0  0  0  0  0
    4.4832   -0.6271    1.1424 Cl  0  0  0  0  0  0  0  0  0  0  0  0
    5.3736   -1.9704   -2.1147 Cl  0  0  0  0  0  0  0  0  0  0  0  0
    2.2086   -2.7736   -0.6625 Cl  0  0  0  0  0  0  0  0  0  0  0  0
    2.9928    0.5547   -1.6919 Cl  0  0  0  0  0  0  0  0  0  0  0  0
  2  1  3  0  0  0  0
  3 22  1  0  0  0  0
  4  3  1  0  0  0  0
  5  3  1  0  0  0  0
  6  7  2  0  0  0  0
  6 11  1  0  0  0  0
  7  8  1  0  0  0  0
  8 14  1  0  0  0  0
  8  9  2  0  0  0  0
  9 15  1  0  0  0  0
 10  9  1  0  0  0  0
 10 16  1  0  0  0  0
 11 10  2  0  0  0  0
 12  6  1  0  0  0  0
 13  7  1  0  0  0  0
 17 11  1  0  0  0  0
 18 21  1  0  0  0  0
 18 19  1  0  0  0  0
 20 18  1  0  0  0  0
M  END
