Coordinates from ORCA-job C6H6+AlCl4-+NH2--N2+-scan
 OpenBabel10221816123D

 22 19  0  0  0  0  0  0  0  0999 V2000
    6.4741   -2.7018   -6.5991 N   0  0  0  0  0  0  0  0  0  0  0  0
    7.5126   -3.0463   -6.5456 N   0  0  0  0  0  0  0  0  0  0  0  0
    1.6782    0.6375   -2.9496 N   0  0  0  0  0  0  0  0  0  0  0  0
    1.4252   -0.3062   -3.2560 H   0  0  0  0  0  0  0  0  0  0  0  0
    2.6331    0.8079   -3.2714 H   0  0  0  0  0  0  0  0  0  0  0  0
    1.5965   -0.9331   -6.3845 C   0  0  0  0  0  0  0  0  0  0  0  0
    0.2729   -0.8552   -5.9505 C   0  0  0  0  0  0  0  0  0  0  0  0
   -0.1671   -1.6679   -4.9046 C   0  0  0  0  0  0  0  0  0  0  0  0
    0.7197   -2.5543   -4.2895 C   0  0  0  0  0  0  0  0  0  0  0  0
    2.0449   -2.6311   -4.7249 C   0  0  0  0  0  0  0  0  0  0  0  0
    2.4827   -1.8219   -5.7738 C   0  0  0  0  0  0  0  0  0  0  0  0
    1.9361   -0.3054   -7.2011 H   0  0  0  0  0  0  0  0  0  0  0  0
   -0.4147   -0.1651   -6.4265 H   0  0  0  0  0  0  0  0  0  0  0  0
   -1.1975   -1.6121   -4.5711 H   0  0  0  0  0  0  0  0  0  0  0  0
    0.3808   -3.1896   -3.4786 H   0  0  0  0  0  0  0  0  0  0  0  0
    2.7313   -3.3191   -4.2450 H   0  0  0  0  0  0  0  0  0  0  0  0
    3.5088   -1.8894   -6.1174 H   0  0  0  0  0  0  0  0  0  0  0  0
    3.8010   -0.8546   -0.6405 Al  0  0  0  0  0  0  0  0  0  0  0  0
    4.0656   -0.1819    1.3377 Cl  0  0  0  0  0  0  0  0  0  0  0  0
    5.1113   -0.1305   -2.1440 Cl  0  0  0  0  0  0  0  0  0  0  0  0
    3.1077   -2.8305   -0.9160 Cl  0  0  0  0  0  0  0  0  0  0  0  0
    1.8415    0.5100   -1.1817 Cl  0  0  0  0  0  0  0  0  0  0  0  0
  1  2  3  0  0  0  0
  3 22  1  0  0  0  0
  4  3  1  0  0  0  0
  5  3  1  0  0  0  0
  6  7  2  0  0  0  0
  6 11  1  0  0  0  0
  7  8  1  0  0  0  0
  8 14  1  0  0  0  0
  8  9  2  0  0  0  0
  9 15  1  0  0  0  0
 10  9  1  0  0  0  0
 10 16  1  0  0  0  0
 11 10  2  0  0  0  0
 12  6  1  0  0  0  0
 13  7  1  0  0  0  0
 17 11  1  0  0  0  0
 18 19  1  0  0  0  0
 20 18  1  0  0  0  0
 21 18  1  0  0  0  0
M  END
