Coordinates from ORCA-job C6H6+AlCl4-+NH2--N2+-scan
 OpenBabel10221816113D

 22 19  0  0  0  0  0  0  0  0999 V2000
    4.2175    0.2199   -5.4655 N   0  0  0  0  0  0  0  0  0  0  0  0
    4.4028    1.0336   -6.1770 N   0  0  0  0  0  0  0  0  0  0  0  0
    3.5694    0.1724   -3.3511 N   0  0  0  0  0  0  0  0  0  0  0  0
    2.7934   -0.4031   -3.6990 H   0  0  0  0  0  0  0  0  0  0  0  0
    4.3723   -0.4578   -3.2630 H   0  0  0  0  0  0  0  0  0  0  0  0
    1.6011   -1.8817   -6.8131 C   0  0  0  0  0  0  0  0  0  0  0  0
    0.7556   -0.8724   -6.3534 C   0  0  0  0  0  0  0  0  0  0  0  0
    0.3252   -0.8743   -5.0263 C   0  0  0  0  0  0  0  0  0  0  0  0
    0.7424   -1.8864   -4.1586 C   0  0  0  0  0  0  0  0  0  0  0  0
    1.5935   -2.8940   -4.6193 C   0  0  0  0  0  0  0  0  0  0  0  0
    2.0214   -2.8909   -5.9466 C   0  0  0  0  0  0  0  0  0  0  0  0
    1.9307   -1.8829   -7.8464 H   0  0  0  0  0  0  0  0  0  0  0  0
    0.4274   -0.0898   -7.0287 H   0  0  0  0  0  0  0  0  0  0  0  0
   -0.3429   -0.0970   -4.6714 H   0  0  0  0  0  0  0  0  0  0  0  0
    0.3945   -1.9048   -3.1316 H   0  0  0  0  0  0  0  0  0  0  0  0
    1.9115   -3.6800   -3.9435 H   0  0  0  0  0  0  0  0  0  0  0  0
    2.6772   -3.6762   -6.3059 H   0  0  0  0  0  0  0  0  0  0  0  0
    3.6843   -1.6070   -0.3422 Al  0  0  0  0  0  0  0  0  0  0  0  0
    3.9645   -0.7339    1.5529 Cl  0  0  0  0  0  0  0  0  0  0  0  0
    5.4024   -2.1729   -1.4600 Cl  0  0  0  0  0  0  0  0  0  0  0  0
    2.0026   -2.8630   -0.5931 Cl  0  0  0  0  0  0  0  0  0  0  0  0
    3.0980    0.4017   -1.5908 Cl  0  0  0  0  0  0  0  0  0  0  0  0
  2  1  3  0  0  0  0
  3  5  1  0  0  0  0
  3 22  1  0  0  0  0
  4  3  1  0  0  0  0
  6  7  2  0  0  0  0
  6 11  1  0  0  0  0
  7  8  1  0  0  0  0
  8 14  1  0  0  0  0
  8  9  2  0  0  0  0
  9 15  1  0  0  0  0
 10  9  1  0  0  0  0
 10 16  1  0  0  0  0
 11 10  2  0  0  0  0
 12  6  1  0  0  0  0
 13  7  1  0  0  0  0
 17 11  1  0  0  0  0
 18 19  1  0  0  0  0
 20 18  1  0  0  0  0
 21 18  1  0  0  0  0
M  END
