Coordinates from ORCA-job C6H6+AlCl4-+NH2--N2+-scan
 OpenBabel10221816113D

 22 19  0  0  0  0  0  0  0  0999 V2000
    6.9707   -0.4429   -5.6293 N   0  0  0  0  0  0  0  0  0  0  0  0
    8.0117   -0.7803   -5.6816 N   0  0  0  0  0  0  0  0  0  0  0  0
    2.4915    0.3832   -3.3870 N   0  0  0  0  0  0  0  0  0  0  0  0
    1.8790   -0.4303   -3.4925 H   0  0  0  0  0  0  0  0  0  0  0  0
    3.4122    0.1070   -3.7335 H   0  0  0  0  0  0  0  0  0  0  0  0
    1.3741   -1.3119   -6.4928 C   0  0  0  0  0  0  0  0  0  0  0  0
    0.1663   -0.8039   -6.0142 C   0  0  0  0  0  0  0  0  0  0  0  0
   -0.3917   -1.3178   -4.8436 C   0  0  0  0  0  0  0  0  0  0  0  0
    0.2599   -2.3393   -4.1493 C   0  0  0  0  0  0  0  0  0  0  0  0
    1.4689   -2.8488   -4.6293 C   0  0  0  0  0  0  0  0  0  0  0  0
    2.0250   -2.3348   -5.8017 C   0  0  0  0  0  0  0  0  0  0  0  0
    1.8061   -0.9134   -7.4042 H   0  0  0  0  0  0  0  0  0  0  0  0
   -0.3384   -0.0089   -6.5517 H   0  0  0  0  0  0  0  0  0  0  0  0
   -1.3321   -0.9249   -4.4729 H   0  0  0  0  0  0  0  0  0  0  0  0
   -0.1718   -2.7423   -3.2400 H   0  0  0  0  0  0  0  0  0  0  0  0
    1.9732   -3.6413   -4.0883 H   0  0  0  0  0  0  0  0  0  0  0  0
    2.9619   -2.7327   -6.1758 H   0  0  0  0  0  0  0  0  0  0  0  0
    3.9259   -1.4098   -0.7865 Al  0  0  0  0  0  0  0  0  0  0  0  0
    4.5247   -0.5852    1.0569 Cl  0  0  0  0  0  0  0  0  0  0  0  0
    5.3703   -1.6064   -2.3273 Cl  0  0  0  0  0  0  0  0  0  0  0  0
    2.4304   -2.9022   -0.7586 Cl  0  0  0  0  0  0  0  0  0  0  0  0
    2.7268    0.5463   -1.6303 Cl  0  0  0  0  0  0  0  0  0  0  0  0
  2  1  3  0  0  0  0
  3 22  1  0  0  0  0
  4  3  1  0  0  0  0
  5  3  1  0  0  0  0
  6  7  2  0  0  0  0
  6 11  1  0  0  0  0
  7  8  1  0  0  0  0
  8 14  1  0  0  0  0
  8  9  2  0  0  0  0
  9 15  1  0  0  0  0
 10  9  1  0  0  0  0
 10 16  1  0  0  0  0
 11 10  2  0  0  0  0
 12  6  1  0  0  0  0
 13  7  1  0  0  0  0
 17 11  1  0  0  0  0
 18 21  1  0  0  0  0
 18 19  1  0  0  0  0
 20 18  1  0  0  0  0
M  END
