Coordinates from ORCA-job C6H6+AlCl4-+NH2--N2+-scan
 OpenBabel10221816113D

 22 19  0  0  0  0  0  0  0  0999 V2000
    4.1872    0.2234   -5.3893 N   0  0  0  0  0  0  0  0  0  0  0  0
    4.4135    1.0387   -6.0882 N   0  0  0  0  0  0  0  0  0  0  0  0
    3.5702    0.1591   -3.4021 N   0  0  0  0  0  0  0  0  0  0  0  0
    2.7841   -0.4159   -3.7318 H   0  0  0  0  0  0  0  0  0  0  0  0
    4.3536   -0.4920   -3.2750 H   0  0  0  0  0  0  0  0  0  0  0  0
    1.6125   -1.8830   -6.8061 C   0  0  0  0  0  0  0  0  0  0  0  0
    0.7665   -0.8708   -6.3535 C   0  0  0  0  0  0  0  0  0  0  0  0
    0.3268   -0.8697   -5.0294 C   0  0  0  0  0  0  0  0  0  0  0  0
    0.7352   -1.8819   -4.1574 C   0  0  0  0  0  0  0  0  0  0  0  0
    1.5867   -2.8925   -4.6109 C   0  0  0  0  0  0  0  0  0  0  0  0
    2.0238   -2.8922   -5.9353 C   0  0  0  0  0  0  0  0  0  0  0  0
    1.9491   -1.8866   -7.8371 H   0  0  0  0  0  0  0  0  0  0  0  0
    0.4447   -0.0885   -7.0322 H   0  0  0  0  0  0  0  0  0  0  0  0
   -0.3418   -0.0904   -4.6801 H   0  0  0  0  0  0  0  0  0  0  0  0
    0.3809   -1.8972   -3.1326 H   0  0  0  0  0  0  0  0  0  0  0  0
    1.8979   -3.6783   -3.9318 H   0  0  0  0  0  0  0  0  0  0  0  0
    2.6797   -3.6801   -6.2890 H   0  0  0  0  0  0  0  0  0  0  0  0
    3.6889   -1.5894   -0.3686 Al  0  0  0  0  0  0  0  0  0  0  0  0
    4.0013   -0.7283    1.5274 Cl  0  0  0  0  0  0  0  0  0  0  0  0
    5.3963   -2.1526   -1.5105 Cl  0  0  0  0  0  0  0  0  0  0  0  0
    2.0184   -2.8680   -0.5887 Cl  0  0  0  0  0  0  0  0  0  0  0  0
    3.0690    0.3957   -1.6113 Cl  0  0  0  0  0  0  0  0  0  0  0  0
  2  1  3  0  0  0  0
  3  5  1  0  0  0  0
  3 22  1  0  0  0  0
  4  3  1  0  0  0  0
  6  7  2  0  0  0  0
  6 11  1  0  0  0  0
  7  8  1  0  0  0  0
  8 14  1  0  0  0  0
  8  9  2  0  0  0  0
  9 15  1  0  0  0  0
 10  9  1  0  0  0  0
 10 16  1  0  0  0  0
 11 10  2  0  0  0  0
 12  6  1  0  0  0  0
 13  7  1  0  0  0  0
 17 11  1  0  0  0  0
 18 19  1  0  0  0  0
 20 18  1  0  0  0  0
 21 18  1  0  0  0  0
M  END
