Coordinates from ORCA-job C6H6+AlCl4-+NH2--N2+-scan
 OpenBabel10221816113D

 22 20  0  0  0  0  0  0  0  0999 V2000
    3.9412   -0.3747   -4.6689 N   0  0  0  0  0  0  0  0  0  0  0  0
    4.0715   -0.1526   -5.7766 N   0  0  0  0  0  0  0  0  0  0  0  0
    3.8520   -0.5585   -3.6798 N   0  0  0  0  0  0  0  0  0  0  0  0
    3.0684   -1.0662   -3.1751 H   0  0  0  0  0  0  0  0  0  0  0  0
    4.6081   -0.2611   -2.8532 H   0  0  0  0  0  0  0  0  0  0  0  0
    1.3195   -1.9141   -7.0463 C   0  0  0  0  0  0  0  0  0  0  0  0
    0.6580   -0.7166   -6.7746 C   0  0  0  0  0  0  0  0  0  0  0  0
    0.2132   -0.4423   -5.4815 C   0  0  0  0  0  0  0  0  0  0  0  0
    0.4269   -1.3680   -4.4586 C   0  0  0  0  0  0  0  0  0  0  0  0
    1.0904   -2.5676   -4.7303 C   0  0  0  0  0  0  0  0  0  0  0  0
    1.5380   -2.8384   -6.0249 C   0  0  0  0  0  0  0  0  0  0  0  0
    1.6633   -2.1267   -8.0524 H   0  0  0  0  0  0  0  0  0  0  0  0
    0.4876    0.0005   -7.5699 H   0  0  0  0  0  0  0  0  0  0  0  0
   -0.3095    0.4847   -5.2723 H   0  0  0  0  0  0  0  0  0  0  0  0
    0.0628   -1.1664   -3.4570 H   0  0  0  0  0  0  0  0  0  0  0  0
    1.2386   -3.2948   -3.9392 H   0  0  0  0  0  0  0  0  0  0  0  0
    2.0442   -3.7736   -6.2384 H   0  0  0  0  0  0  0  0  0  0  0  0
    4.3046   -1.4511   -0.0824 Al  0  0  0  0  0  0  0  0  0  0  0  0
    3.9326   -0.4904    1.7582 Cl  0  0  0  0  0  0  0  0  0  0  0  0
    5.4891   -0.0003   -1.3905 Cl  0  0  0  0  0  0  0  0  0  0  0  0
    5.3879   -3.2699   -0.0546 Cl  0  0  0  0  0  0  0  0  0  0  0  0
    2.4564   -1.6926   -1.2652 Cl  0  0  0  0  0  0  0  0  0  0  0  0
  1  3  1  0  0  0  0
  2  1  1  0  0  0  0
  3  4  1  0  0  0  0
  3  5  1  0  0  0  0
  6  7  2  0  0  0  0
  6 11  1  0  0  0  0
  7  8  1  0  0  0  0
  8 14  1  0  0  0  0
  8  9  2  0  0  0  0
  9 15  1  0  0  0  0
 10  9  1  0  0  0  0
 10 16  1  0  0  0  0
 11 10  2  0  0  0  0
 12  6  1  0  0  0  0
 13  7  1  0  0  0  0
 17 11  1  0  0  0  0
 18 21  1  0  0  0  0
 18 19  1  0  0  0  0
 20 18  1  0  0  0  0
 22 18  1  0  0  0  0
M  RAD  2   1   2   2   3
M  END
