Coordinates from ORCA-job C6H6+AlCl4-+NH2--N2+-scan
 OpenBabel10221816123D

 22 19  0  0  0  0  0  0  0  0999 V2000
    6.3226   -2.7344   -5.7354 N   0  0  0  0  0  0  0  0  0  0  0  0
    7.2669   -3.0211   -5.2599 N   0  0  0  0  0  0  0  0  0  0  0  0
    1.7813    0.5928   -3.0236 N   0  0  0  0  0  0  0  0  0  0  0  0
    1.5248   -0.3521   -3.3231 H   0  0  0  0  0  0  0  0  0  0  0  0
    2.7172    0.7745   -3.3918 H   0  0  0  0  0  0  0  0  0  0  0  0
    1.3873   -0.8032   -6.4373 C   0  0  0  0  0  0  0  0  0  0  0  0
    0.0959   -0.8438   -5.9110 C   0  0  0  0  0  0  0  0  0  0  0  0
   -0.2118   -1.7383   -4.8851 C   0  0  0  0  0  0  0  0  0  0  0  0
    0.7745   -2.5898   -4.3827 C   0  0  0  0  0  0  0  0  0  0  0  0
    2.0671   -2.5489   -4.9108 C   0  0  0  0  0  0  0  0  0  0  0  0
    2.3730   -1.6565   -5.9391 C   0  0  0  0  0  0  0  0  0  0  0  0
    1.6241   -0.1106   -7.2376 H   0  0  0  0  0  0  0  0  0  0  0  0
   -0.6691   -0.1807   -6.2993 H   0  0  0  0  0  0  0  0  0  0  0  0
   -1.2168   -1.7734   -4.4792 H   0  0  0  0  0  0  0  0  0  0  0  0
    0.5391   -3.2879   -3.5869 H   0  0  0  0  0  0  0  0  0  0  0  0
    2.8318   -3.2100   -4.5199 H   0  0  0  0  0  0  0  0  0  0  0  0
    3.3760   -1.6320   -6.3500 H   0  0  0  0  0  0  0  0  0  0  0  0
    4.0086   -0.9447   -0.8571 Al  0  0  0  0  0  0  0  0  0  0  0  0
    4.3871   -0.3181    1.1173 Cl  0  0  0  0  0  0  0  0  0  0  0  0
    5.2488   -0.2073   -2.4133 Cl  0  0  0  0  0  0  0  0  0  0  0  0
    3.2764   -2.9056   -1.1406 Cl  0  0  0  0  0  0  0  0  0  0  0  0
    2.0398    0.4503   -1.2673 Cl  0  0  0  0  0  0  0  0  0  0  0  0
  1  2  3  0  0  0  0
  3 22  1  0  0  0  0
  4  3  1  0  0  0  0
  5  3  1  0  0  0  0
  6 11  2  0  0  0  0
  6  7  1  0  0  0  0
  7  8  2  0  0  0  0
  8 14  1  0  0  0  0
  8  9  1  0  0  0  0
  9 15  1  0  0  0  0
 10 16  1  0  0  0  0
 10  9  2  0  0  0  0
 11 10  1  0  0  0  0
 12  6  1  0  0  0  0
 13  7  1  0  0  0  0
 17 11  1  0  0  0  0
 18 19  1  0  0  0  0
 20 18  1  0  0  0  0
 21 18  1  0  0  0  0
M  END
