Coordinates from ORCA-job C6H6+AlCl4-+NH2--N2+-scan
 OpenBabel10221816123D

 22 19  0  0  0  0  0  0  0  0999 V2000
    6.3038   -2.7183   -5.7157 N   0  0  0  0  0  0  0  0  0  0  0  0
    7.2465   -3.0052   -5.2370 N   0  0  0  0  0  0  0  0  0  0  0  0
    1.7902    0.5919   -3.0291 N   0  0  0  0  0  0  0  0  0  0  0  0
    1.5312   -0.3529   -3.3265 H   0  0  0  0  0  0  0  0  0  0  0  0
    2.7263    0.7706   -3.3983 H   0  0  0  0  0  0  0  0  0  0  0  0
    1.3855   -0.8038   -6.4380 C   0  0  0  0  0  0  0  0  0  0  0  0
    0.0938   -0.8460   -5.9123 C   0  0  0  0  0  0  0  0  0  0  0  0
   -0.2131   -1.7404   -4.8861 C   0  0  0  0  0  0  0  0  0  0  0  0
    0.7741   -2.5904   -4.3829 C   0  0  0  0  0  0  0  0  0  0  0  0
    2.0669   -2.5479   -4.9104 C   0  0  0  0  0  0  0  0  0  0  0  0
    2.3721   -1.6554   -5.9388 C   0  0  0  0  0  0  0  0  0  0  0  0
    1.6217   -0.1111   -7.2384 H   0  0  0  0  0  0  0  0  0  0  0  0
   -0.6718   -0.1841   -6.3011 H   0  0  0  0  0  0  0  0  0  0  0  0
   -1.2182   -1.7765   -4.4806 H   0  0  0  0  0  0  0  0  0  0  0  0
    0.5393   -3.2885   -3.5870 H   0  0  0  0  0  0  0  0  0  0  0  0
    2.8323   -3.2078   -4.5187 H   0  0  0  0  0  0  0  0  0  0  0  0
    3.3754   -1.6295   -6.3489 H   0  0  0  0  0  0  0  0  0  0  0  0
    4.0136   -0.9493   -0.8615 Al  0  0  0  0  0  0  0  0  0  0  0  0
    4.3923   -0.3252    1.1136 Cl  0  0  0  0  0  0  0  0  0  0  0  0
    5.2577   -0.2150   -2.4162 Cl  0  0  0  0  0  0  0  0  0  0  0  0
    3.2755   -2.9077   -1.1471 Cl  0  0  0  0  0  0  0  0  0  0  0  0
    2.0496    0.4521   -1.2727 Cl  0  0  0  0  0  0  0  0  0  0  0  0
  1  2  3  0  0  0  0
  3 22  1  0  0  0  0
  4  3  1  0  0  0  0
  5  3  1  0  0  0  0
  6 11  2  0  0  0  0
  6  7  1  0  0  0  0
  7  8  2  0  0  0  0
  8 14  1  0  0  0  0
  8  9  1  0  0  0  0
  9 15  1  0  0  0  0
 10 16  1  0  0  0  0
 10  9  2  0  0  0  0
 11 10  1  0  0  0  0
 12  6  1  0  0  0  0
 13  7  1  0  0  0  0
 17 11  1  0  0  0  0
 18 19  1  0  0  0  0
 20 18  1  0  0  0  0
 21 18  1  0  0  0  0
M  END
