Coordinates from ORCA-job C6H6+AlCl4-+NH2--N2+-scan
 OpenBabel10221816113D

 22 19  0  0  0  0  0  0  0  0999 V2000
    6.4926   -0.3215   -5.5457 N   0  0  0  0  0  0  0  0  0  0  0  0
    7.5170   -0.6023   -5.8138 N   0  0  0  0  0  0  0  0  0  0  0  0
    2.6189    0.3557   -3.4083 N   0  0  0  0  0  0  0  0  0  0  0  0
    1.9809   -0.4388   -3.5068 H   0  0  0  0  0  0  0  0  0  0  0  0
    3.5339    0.0468   -3.7418 H   0  0  0  0  0  0  0  0  0  0  0  0
    1.4402   -1.3567   -6.5171 C   0  0  0  0  0  0  0  0  0  0  0  0
    0.2527   -0.7986   -6.0439 C   0  0  0  0  0  0  0  0  0  0  0  0
   -0.3162   -1.2692   -4.8603 C   0  0  0  0  0  0  0  0  0  0  0  0
    0.3043   -2.2974   -4.1478 C   0  0  0  0  0  0  0  0  0  0  0  0
    1.4932   -2.8569   -4.6224 C   0  0  0  0  0  0  0  0  0  0  0  0
    2.0600   -2.3863   -5.8077 C   0  0  0  0  0  0  0  0  0  0  0  0
    1.8806   -0.9918   -7.4385 H   0  0  0  0  0  0  0  0  0  0  0  0
   -0.2279    0.0016   -6.5956 H   0  0  0  0  0  0  0  0  0  0  0  0
   -1.2410   -0.8373   -4.4937 H   0  0  0  0  0  0  0  0  0  0  0  0
   -0.1358   -2.6668   -3.2283 H   0  0  0  0  0  0  0  0  0  0  0  0
    1.9731   -3.6548   -4.0674 H   0  0  0  0  0  0  0  0  0  0  0  0
    2.9811   -2.8231   -6.1777 H   0  0  0  0  0  0  0  0  0  0  0  0
    3.9027   -1.4515   -0.7332 Al  0  0  0  0  0  0  0  0  0  0  0  0
    4.4960   -0.6138    1.1064 Cl  0  0  0  0  0  0  0  0  0  0  0  0
    5.3761   -1.7700   -2.2248 Cl  0  0  0  0  0  0  0  0  0  0  0  0
    2.3239   -2.8558   -0.7118 Cl  0  0  0  0  0  0  0  0  0  0  0  0
    2.8384    0.5478   -1.6536 Cl  0  0  0  0  0  0  0  0  0  0  0  0
  2  1  3  0  0  0  0
  3 22  1  0  0  0  0
  4  3  1  0  0  0  0
  5  3  1  0  0  0  0
  6  7  2  0  0  0  0
  6 11  1  0  0  0  0
  7  8  1  0  0  0  0
  8 14  1  0  0  0  0
  8  9  2  0  0  0  0
  9 15  1  0  0  0  0
 10  9  1  0  0  0  0
 10 16  1  0  0  0  0
 11 10  2  0  0  0  0
 12  6  1  0  0  0  0
 13  7  1  0  0  0  0
 17 11  1  0  0  0  0
 18 21  1  0  0  0  0
 18 19  1  0  0  0  0
 20 18  1  0  0  0  0
M  END
