Coordinates from ORCA-job C6H6+AlCl4-+NH2--N2+-scan
 OpenBabel10221816123D

 22 19  0  0  0  0  0  0  0  0999 V2000
    7.3580   -0.8156   -5.6204 N   0  0  0  0  0  0  0  0  0  0  0  0
    8.3121   -1.1397   -5.1906 N   0  0  0  0  0  0  0  0  0  0  0  0
    2.3481    0.4342   -3.3820 N   0  0  0  0  0  0  0  0  0  0  0  0
    1.7836   -0.4121   -3.4972 H   0  0  0  0  0  0  0  0  0  0  0  0
    3.2770    0.2197   -3.7501 H   0  0  0  0  0  0  0  0  0  0  0  0
    1.2713   -1.2195   -6.4821 C   0  0  0  0  0  0  0  0  0  0  0  0
    0.0435   -0.8112   -5.9605 C   0  0  0  0  0  0  0  0  0  0  0  0
   -0.4564   -1.4092   -4.8036 C   0  0  0  0  0  0  0  0  0  0  0  0
    0.2731   -2.4149   -4.1661 C   0  0  0  0  0  0  0  0  0  0  0  0
    1.5020   -2.8245   -4.6892 C   0  0  0  0  0  0  0  0  0  0  0  0
    2.0001   -2.2265   -5.8479 C   0  0  0  0  0  0  0  0  0  0  0  0
    1.6582   -0.7557   -7.3828 H   0  0  0  0  0  0  0  0  0  0  0  0
   -0.5217   -0.0283   -6.4537 H   0  0  0  0  0  0  0  0  0  0  0  0
   -1.4121   -1.0939   -4.3995 H   0  0  0  0  0  0  0  0  0  0  0  0
   -0.1135   -2.8829   -3.2677 H   0  0  0  0  0  0  0  0  0  0  0  0
    2.0670   -3.6048   -4.1923 H   0  0  0  0  0  0  0  0  0  0  0  0
    2.9527   -2.5467   -6.2554 H   0  0  0  0  0  0  0  0  0  0  0  0
    3.9912   -1.3122   -0.8845 Al  0  0  0  0  0  0  0  0  0  0  0  0
    4.6028   -0.4992    0.9590 Cl  0  0  0  0  0  0  0  0  0  0  0  0
    5.3746   -1.3380   -2.4936 Cl  0  0  0  0  0  0  0  0  0  0  0  0
    2.6256   -2.9235   -0.8482 Cl  0  0  0  0  0  0  0  0  0  0  0  0
    2.6074    0.5638   -1.6251 Cl  0  0  0  0  0  0  0  0  0  0  0  0
  1  2  3  0  0  0  0
  3 22  1  0  0  0  0
  4  3  1  0  0  0  0
  5  3  1  0  0  0  0
  6  7  2  0  0  0  0
  6 11  1  0  0  0  0
  7  8  1  0  0  0  0
  8 14  1  0  0  0  0
  8  9  2  0  0  0  0
  9 15  1  0  0  0  0
 10 16  1  0  0  0  0
 10  9  1  0  0  0  0
 11 10  2  0  0  0  0
 12  6  1  0  0  0  0
 13  7  1  0  0  0  0
 17 11  1  0  0  0  0
 18 21  1  0  0  0  0
 18 19  1  0  0  0  0
 20 18  1  0  0  0  0
M  END
