Coordinates from ORCA-job C6H6+AlCl4-+NH2--N2+-scan
 OpenBabel10221816113D

 22 19  0  0  0  0  0  0  0  0999 V2000
    4.2428    0.2173   -5.5288 N   0  0  0  0  0  0  0  0  0  0  0  0
    4.4095    1.0200   -6.2564 N   0  0  0  0  0  0  0  0  0  0  0  0
    3.5616    0.1818   -3.3195 N   0  0  0  0  0  0  0  0  0  0  0  0
    2.7920   -0.3946   -3.6776 H   0  0  0  0  0  0  0  0  0  0  0  0
    4.3765   -0.4343   -3.2526 H   0  0  0  0  0  0  0  0  0  0  0  0
    1.5984   -1.8777   -6.8127 C   0  0  0  0  0  0  0  0  0  0  0  0
    0.7508   -0.8714   -6.3504 C   0  0  0  0  0  0  0  0  0  0  0  0
    0.3223   -0.8764   -5.0227 C   0  0  0  0  0  0  0  0  0  0  0  0
    0.7435   -1.8887   -4.1571 C   0  0  0  0  0  0  0  0  0  0  0  0
    1.5969   -2.8930   -4.6203 C   0  0  0  0  0  0  0  0  0  0  0  0
    2.0229   -2.8867   -5.9483 C   0  0  0  0  0  0  0  0  0  0  0  0
    1.9266   -1.8764   -7.8464 H   0  0  0  0  0  0  0  0  0  0  0  0
    0.4196   -0.0887   -7.0240 H   0  0  0  0  0  0  0  0  0  0  0  0
   -0.3477   -0.1016   -4.6659 H   0  0  0  0  0  0  0  0  0  0  0  0
    0.3965   -1.9099   -3.1299 H   0  0  0  0  0  0  0  0  0  0  0  0
    1.9179   -3.6792   -3.9462 H   0  0  0  0  0  0  0  0  0  0  0  0
    2.6805   -3.6697   -6.3096 H   0  0  0  0  0  0  0  0  0  0  0  0
    3.6809   -1.6194   -0.3283 Al  0  0  0  0  0  0  0  0  0  0  0  0
    3.9430   -0.7456    1.5690 Cl  0  0  0  0  0  0  0  0  0  0  0  0
    5.4062   -2.1782   -1.4356 Cl  0  0  0  0  0  0  0  0  0  0  0  0
    1.9987   -2.8702   -0.5975 Cl  0  0  0  0  0  0  0  0  0  0  0  0
    3.1051    0.4019   -1.5728 Cl  0  0  0  0  0  0  0  0  0  0  0  0
  2  1  3  0  0  0  0
  3  5  1  0  0  0  0
  3 22  1  0  0  0  0
  4  3  1  0  0  0  0
  6  7  2  0  0  0  0
  6 11  1  0  0  0  0
  7  8  1  0  0  0  0
  8 14  1  0  0  0  0
  8  9  2  0  0  0  0
  9 15  1  0  0  0  0
 10  9  1  0  0  0  0
 10 16  1  0  0  0  0
 11 10  2  0  0  0  0
 12  6  1  0  0  0  0
 13  7  1  0  0  0  0
 17 11  1  0  0  0  0
 18 19  1  0  0  0  0
 20 18  1  0  0  0  0
 21 18  1  0  0  0  0
M  END
