Coordinates from ORCA-job C6H6+AlCl4-+NH2--N2+-scan
 OpenBabel10221816113D

 22 19  0  0  0  0  0  0  0  0999 V2000
    6.7233   -0.3532   -5.6030 N   0  0  0  0  0  0  0  0  0  0  0  0
    7.7620   -0.6584   -5.7707 N   0  0  0  0  0  0  0  0  0  0  0  0
    2.5603    0.3636   -3.3954 N   0  0  0  0  0  0  0  0  0  0  0  0
    1.9306   -0.4370   -3.4977 H   0  0  0  0  0  0  0  0  0  0  0  0
    3.4776    0.0652   -3.7326 H   0  0  0  0  0  0  0  0  0  0  0  0
    1.4158   -1.3420   -6.5025 C   0  0  0  0  0  0  0  0  0  0  0  0
    0.2188   -0.8006   -6.0336 C   0  0  0  0  0  0  0  0  0  0  0  0
   -0.3529   -1.2861   -4.8574 C   0  0  0  0  0  0  0  0  0  0  0  0
    0.2742   -2.3124   -4.1480 C   0  0  0  0  0  0  0  0  0  0  0  0
    1.4725   -2.8553   -4.6182 C   0  0  0  0  0  0  0  0  0  0  0  0
    2.0422   -2.3697   -5.7962 C   0  0  0  0  0  0  0  0  0  0  0  0
    1.8584   -0.9655   -7.4182 H   0  0  0  0  0  0  0  0  0  0  0  0
   -0.2670   -0.0019   -6.5829 H   0  0  0  0  0  0  0  0  0  0  0  0
   -1.2850   -0.8673   -4.4942 H   0  0  0  0  0  0  0  0  0  0  0  0
   -0.1682   -2.6934   -3.2343 H   0  0  0  0  0  0  0  0  0  0  0  0
    1.9576   -3.6516   -4.0656 H   0  0  0  0  0  0  0  0  0  0  0  0
    2.9707   -2.7935   -6.1627 H   0  0  0  0  0  0  0  0  0  0  0  0
    3.9131   -1.4371   -0.7573 Al  0  0  0  0  0  0  0  0  0  0  0  0
    4.5154   -0.6078    1.0829 Cl  0  0  0  0  0  0  0  0  0  0  0  0
    5.3688   -1.6965   -2.2782 Cl  0  0  0  0  0  0  0  0  0  0  0  0
    2.3728   -2.8833   -0.7285 Cl  0  0  0  0  0  0  0  0  0  0  0  0
    2.7835    0.5433   -1.6395 Cl  0  0  0  0  0  0  0  0  0  0  0  0
  2  1  3  0  0  0  0
  3 22  1  0  0  0  0
  4  3  1  0  0  0  0
  5  3  1  0  0  0  0
  6  7  2  0  0  0  0
  6 11  1  0  0  0  0
  7  8  1  0  0  0  0
  8 14  1  0  0  0  0
  8  9  2  0  0  0  0
  9 15  1  0  0  0  0
 10  9  1  0  0  0  0
 10 16  1  0  0  0  0
 11 10  2  0  0  0  0
 12  6  1  0  0  0  0
 13  7  1  0  0  0  0
 17 11  1  0  0  0  0
 18 21  1  0  0  0  0
 18 19  1  0  0  0  0
 20 18  1  0  0  0  0
M  END
