Coordinates from ORCA-job C6H6+AlCl4-+NH2--N2+-scan
 OpenBabel10221816113D

 22 19  0  0  0  0  0  0  0  0999 V2000
    5.2192   -0.0126   -5.6588 N   0  0  0  0  0  0  0  0  0  0  0  0
    5.5642    0.2748   -6.6577 N   0  0  0  0  0  0  0  0  0  0  0  0
    3.0882    0.2599   -3.3776 N   0  0  0  0  0  0  0  0  0  0  0  0
    2.3707   -0.4288   -3.6200 H   0  0  0  0  0  0  0  0  0  0  0  0
    3.9982   -0.1790   -3.5253 H   0  0  0  0  0  0  0  0  0  0  0  0
    1.6641   -1.5760   -6.5939 C   0  0  0  0  0  0  0  0  0  0  0  0
    0.6014   -0.7947   -6.1407 C   0  0  0  0  0  0  0  0  0  0  0  0
    0.0173   -1.0627   -4.9022 C   0  0  0  0  0  0  0  0  0  0  0  0
    0.4986   -2.1115   -4.1156 C   0  0  0  0  0  0  0  0  0  0  0  0
    1.5639   -2.8930   -4.5697 C   0  0  0  0  0  0  0  0  0  0  0  0
    2.1451   -2.6251   -5.8094 C   0  0  0  0  0  0  0  0  0  0  0  0
    2.1151   -1.3694   -7.5584 H   0  0  0  0  0  0  0  0  0  0  0  0
    0.2279    0.0199   -6.7512 H   0  0  0  0  0  0  0  0  0  0  0  0
   -0.8127   -0.4591   -4.5517 H   0  0  0  0  0  0  0  0  0  0  0  0
    0.0455   -2.3269   -3.1545 H   0  0  0  0  0  0  0  0  0  0  0  0
    1.9348   -3.7063   -3.9565 H   0  0  0  0  0  0  0  0  0  0  0  0
    2.9687   -3.2351   -6.1639 H   0  0  0  0  0  0  0  0  0  0  0  0
    3.7491   -1.5884   -0.4962 Al  0  0  0  0  0  0  0  0  0  0  0  0
    4.1624   -0.7193    1.3780 Cl  0  0  0  0  0  0  0  0  0  0  0  0
    5.3696   -2.0559   -1.7814 Cl  0  0  0  0  0  0  0  0  0  0  0  0
    2.0917   -2.8940   -0.6136 Cl  0  0  0  0  0  0  0  0  0  0  0  0
    2.9615    0.4428   -1.6134 Cl  0  0  0  0  0  0  0  0  0  0  0  0
  2  1  3  0  0  0  0
  3 22  1  0  0  0  0
  4  3  1  0  0  0  0
  5  3  1  0  0  0  0
  6  7  2  0  0  0  0
  6 11  1  0  0  0  0
  7  8  1  0  0  0  0
  8 14  1  0  0  0  0
  8  9  2  0  0  0  0
  9 15  1  0  0  0  0
 10  9  1  0  0  0  0
 10 16  1  0  0  0  0
 11 10  2  0  0  0  0
 12  6  1  0  0  0  0
 13  7  1  0  0  0  0
 17 11  1  0  0  0  0
 18 19  1  0  0  0  0
 20 18  1  0  0  0  0
 21 18  1  0  0  0  0
M  END
