Coordinates from ORCA-job C6H6+AlCl4-+NH2--N2+-scan
 OpenBabel10221816113D

 22 19  0  0  0  0  0  0  0  0999 V2000
    6.0031   -0.2576   -5.4003 N   0  0  0  0  0  0  0  0  0  0  0  0
    6.9670   -0.5034   -5.8589 N   0  0  0  0  0  0  0  0  0  0  0  0
    2.7317    0.3473   -3.4334 N   0  0  0  0  0  0  0  0  0  0  0  0
    2.0806   -0.4371   -3.5255 H   0  0  0  0  0  0  0  0  0  0  0  0
    3.6420    0.0255   -3.7685 H   0  0  0  0  0  0  0  0  0  0  0  0
    1.4927   -1.3872   -6.5489 C   0  0  0  0  0  0  0  0  0  0  0  0
    0.3254   -0.7954   -6.0664 C   0  0  0  0  0  0  0  0  0  0  0  0
   -0.2362   -1.2363   -4.8681 C   0  0  0  0  0  0  0  0  0  0  0  0
    0.3715   -2.2684   -4.1500 C   0  0  0  0  0  0  0  0  0  0  0  0
    1.5404   -2.8611   -4.6337 C   0  0  0  0  0  0  0  0  0  0  0  0
    2.0998   -2.4203   -5.8338 C   0  0  0  0  0  0  0  0  0  0  0  0
    1.9271   -1.0456   -7.4821 H   0  0  0  0  0  0  0  0  0  0  0  0
   -0.1452    0.0077   -6.6225 H   0  0  0  0  0  0  0  0  0  0  0  0
   -1.1454   -0.7786   -4.4942 H   0  0  0  0  0  0  0  0  0  0  0  0
   -0.0629   -2.6149   -3.2191 H   0  0  0  0  0  0  0  0  0  0  0  0
    2.0102   -3.6622   -4.0745 H   0  0  0  0  0  0  0  0  0  0  0  0
    3.0048   -2.8836   -6.2112 H   0  0  0  0  0  0  0  0  0  0  0  0
    3.8888   -1.4796   -0.6932 Al  0  0  0  0  0  0  0  0  0  0  0  0
    4.4807   -0.6239    1.1390 Cl  0  0  0  0  0  0  0  0  0  0  0  0
    5.3780   -1.9240   -2.1337 Cl  0  0  0  0  0  0  0  0  0  0  0  0
    2.2346   -2.7948   -0.6730 Cl  0  0  0  0  0  0  0  0  0  0  0  0
    2.9559    0.5530   -1.6816 Cl  0  0  0  0  0  0  0  0  0  0  0  0
  2  1  3  0  0  0  0
  3 22  1  0  0  0  0
  4  3  1  0  0  0  0
  5  3  1  0  0  0  0
  6  7  2  0  0  0  0
  6 11  1  0  0  0  0
  7  8  1  0  0  0  0
  8 14  1  0  0  0  0
  8  9  2  0  0  0  0
  9 15  1  0  0  0  0
 10  9  1  0  0  0  0
 10 16  1  0  0  0  0
 11 10  2  0  0  0  0
 12  6  1  0  0  0  0
 13  7  1  0  0  0  0
 17 11  1  0  0  0  0
 18 21  1  0  0  0  0
 18 19  1  0  0  0  0
 20 18  1  0  0  0  0
M  END
