Coordinates from ORCA-job C6H6+AlCl4-+NH2--N2+-scan
 OpenBabel10221816113D

 22 19  0  0  0  0  0  0  0  0999 V2000
    6.2291   -0.3105   -5.4832 N   0  0  0  0  0  0  0  0  0  0  0  0
    7.2250   -0.5771   -5.8534 N   0  0  0  0  0  0  0  0  0  0  0  0
    2.6730    0.3536   -3.4186 N   0  0  0  0  0  0  0  0  0  0  0  0
    2.0309   -0.4378   -3.5151 H   0  0  0  0  0  0  0  0  0  0  0  0
    3.5868    0.0407   -3.7521 H   0  0  0  0  0  0  0  0  0  0  0  0
    1.4696   -1.3650   -6.5329 C   0  0  0  0  0  0  0  0  0  0  0  0
    0.2899   -0.7956   -6.0535 C   0  0  0  0  0  0  0  0  0  0  0  0
   -0.2734   -1.2561   -4.8633 C   0  0  0  0  0  0  0  0  0  0  0  0
    0.3447   -2.2853   -4.1504 C   0  0  0  0  0  0  0  0  0  0  0  0
    1.5259   -2.8560   -4.6310 C   0  0  0  0  0  0  0  0  0  0  0  0
    2.0872   -2.3955   -5.8229 C   0  0  0  0  0  0  0  0  0  0  0  0
    1.9056   -1.0080   -7.4595 H   0  0  0  0  0  0  0  0  0  0  0  0
   -0.1889    0.0054   -6.6056 H   0  0  0  0  0  0  0  0  0  0  0  0
   -1.1921   -0.8155   -4.4919 H   0  0  0  0  0  0  0  0  0  0  0  0
   -0.0909   -2.6469   -3.2257 H   0  0  0  0  0  0  0  0  0  0  0  0
    2.0039   -3.6549   -4.0758 H   0  0  0  0  0  0  0  0  0  0  0  0
    3.0020   -2.8412   -6.1978 H   0  0  0  0  0  0  0  0  0  0  0  0
    3.8918   -1.4632   -0.7071 Al  0  0  0  0  0  0  0  0  0  0  0  0
    4.4774   -0.6140    1.1299 Cl  0  0  0  0  0  0  0  0  0  0  0  0
    5.3786   -1.8443   -2.1687 Cl  0  0  0  0  0  0  0  0  0  0  0  0
    2.2761   -2.8253   -0.6896 Cl  0  0  0  0  0  0  0  0  0  0  0  0
    2.8924    0.5521   -1.6650 Cl  0  0  0  0  0  0  0  0  0  0  0  0
  2  1  3  0  0  0  0
  3 22  1  0  0  0  0
  4  3  1  0  0  0  0
  5  3  1  0  0  0  0
  6  7  2  0  0  0  0
  6 11  1  0  0  0  0
  7  8  1  0  0  0  0
  8 14  1  0  0  0  0
  8  9  2  0  0  0  0
  9 15  1  0  0  0  0
 10  9  1  0  0  0  0
 10 16  1  0  0  0  0
 11 10  2  0  0  0  0
 12  6  1  0  0  0  0
 13  7  1  0  0  0  0
 17 11  1  0  0  0  0
 18 21  1  0  0  0  0
 18 19  1  0  0  0  0
 20 18  1  0  0  0  0
M  END
