Coordinates from ORCA-job C6H6+AlCl4-+NH2--N2+-scan
 OpenBabel10221816123D

 22 19  0  0  0  0  0  0  0  0999 V2000
    6.2110   -2.6537   -5.6335 N   0  0  0  0  0  0  0  0  0  0  0  0
    7.1449   -2.9489   -5.1428 N   0  0  0  0  0  0  0  0  0  0  0  0
    1.8282    0.5770   -3.0461 N   0  0  0  0  0  0  0  0  0  0  0  0
    1.5564   -0.3656   -3.3392 H   0  0  0  0  0  0  0  0  0  0  0  0
    2.7661    0.7423   -3.4168 H   0  0  0  0  0  0  0  0  0  0  0  0
    1.3805   -0.8014   -6.4406 C   0  0  0  0  0  0  0  0  0  0  0  0
    0.0863   -0.8510   -5.9219 C   0  0  0  0  0  0  0  0  0  0  0  0
   -0.2217   -1.7493   -4.8996 C   0  0  0  0  0  0  0  0  0  0  0  0
    0.7666   -2.5961   -4.3934 C   0  0  0  0  0  0  0  0  0  0  0  0
    2.0620   -2.5463   -4.9139 C   0  0  0  0  0  0  0  0  0  0  0  0
    2.3686   -1.6496   -5.9385 C   0  0  0  0  0  0  0  0  0  0  0  0
    1.6178   -0.1054   -7.2379 H   0  0  0  0  0  0  0  0  0  0  0  0
   -0.6803   -0.1916   -6.3131 H   0  0  0  0  0  0  0  0  0  0  0  0
   -1.2288   -1.7910   -4.4993 H   0  0  0  0  0  0  0  0  0  0  0  0
    0.5307   -3.2972   -3.6005 H   0  0  0  0  0  0  0  0  0  0  0  0
    2.8283   -3.2037   -4.5199 H   0  0  0  0  0  0  0  0  0  0  0  0
    3.3741   -1.6178   -6.3425 H   0  0  0  0  0  0  0  0  0  0  0  0
    4.0462   -0.9586   -0.8705 Al  0  0  0  0  0  0  0  0  0  0  0  0
    4.4227   -0.3281    1.1030 Cl  0  0  0  0  0  0  0  0  0  0  0  0
    5.2931   -0.2308   -2.4260 Cl  0  0  0  0  0  0  0  0  0  0  0  0
    3.3070   -2.9173   -1.1511 Cl  0  0  0  0  0  0  0  0  0  0  0  0
    2.0851    0.4433   -1.2891 Cl  0  0  0  0  0  0  0  0  0  0  0  0
  1  2  3  0  0  0  0
  3 22  1  0  0  0  0
  4  3  1  0  0  0  0
  5  3  1  0  0  0  0
  6 11  2  0  0  0  0
  6  7  1  0  0  0  0
  7  8  2  0  0  0  0
  8 14  1  0  0  0  0
  8  9  1  0  0  0  0
  9 15  1  0  0  0  0
 10 16  1  0  0  0  0
 10  9  2  0  0  0  0
 11 10  1  0  0  0  0
 12  6  1  0  0  0  0
 13  7  1  0  0  0  0
 17 11  1  0  0  0  0
 18 19  1  0  0  0  0
 20 18  1  0  0  0  0
 21 18  1  0  0  0  0
M  END
