Coordinates from ORCA-job C6H6+AlCl4-+NH2--N2+-scan
 OpenBabel10221816113D

 22 20  0  0  0  0  0  0  0  0999 V2000
    3.7407   -0.1494   -4.6045 N   0  0  0  0  0  0  0  0  0  0  0  0
    3.9555   -0.2571   -5.6970 N   0  0  0  0  0  0  0  0  0  0  0  0
    3.5421    0.0177   -3.4325 N   0  0  0  0  0  0  0  0  0  0  0  0
    2.7251   -0.4359   -2.9694 H   0  0  0  0  0  0  0  0  0  0  0  0
    4.3648    0.2037   -2.7559 H   0  0  0  0  0  0  0  0  0  0  0  0
    1.5718   -2.2041   -6.8358 C   0  0  0  0  0  0  0  0  0  0  0  0
    0.8788   -0.9926   -6.8644 C   0  0  0  0  0  0  0  0  0  0  0  0
    0.3021   -0.4909   -5.6974 C   0  0  0  0  0  0  0  0  0  0  0  0
    0.4176   -1.2023   -4.5011 C   0  0  0  0  0  0  0  0  0  0  0  0
    1.1132   -2.4144   -4.4718 C   0  0  0  0  0  0  0  0  0  0  0  0
    1.6902   -2.9141   -5.6405 C   0  0  0  0  0  0  0  0  0  0  0  0
    2.0141   -2.5962   -7.7450 H   0  0  0  0  0  0  0  0  0  0  0  0
    0.7823   -0.4457   -7.7958 H   0  0  0  0  0  0  0  0  0  0  0  0
   -0.2487    0.4431   -5.7221 H   0  0  0  0  0  0  0  0  0  0  0  0
   -0.0500   -0.8266   -3.5971 H   0  0  0  0  0  0  0  0  0  0  0  0
    1.1947   -2.9700   -3.5444 H   0  0  0  0  0  0  0  0  0  0  0  0
    2.2240   -3.8575   -5.6184 H   0  0  0  0  0  0  0  0  0  0  0  0
    4.2812   -1.6775   -0.4568 Al  0  0  0  0  0  0  0  0  0  0  0  0
    4.5827   -1.9858    1.6082 Cl  0  0  0  0  0  0  0  0  0  0  0  0
    5.4259    0.1189   -1.1606 Cl  0  0  0  0  0  0  0  0  0  0  0  0
    4.8385   -3.2628   -1.7850 Cl  0  0  0  0  0  0  0  0  0  0  0  0
    2.1979   -1.1410   -0.9463 Cl  0  0  0  0  0  0  0  0  0  0  0  0
  1  3  1  0  0  0  0
  2  1  1  0  0  0  0
  3  4  1  0  0  0  0
  3  5  1  0  0  0  0
  6 11  1  0  0  0  0
  7  6  2  0  0  0  0
  7  8  1  0  0  0  0
  8  9  2  0  0  0  0
  9 10  1  0  0  0  0
  9 15  1  0  0  0  0
 10 16  1  0  0  0  0
 11 17  1  0  0  0  0
 11 10  2  0  0  0  0
 12  6  1  0  0  0  0
 13  7  1  0  0  0  0
 14  8  1  0  0  0  0
 18 19  1  0  0  0  0
 20 18  1  0  0  0  0
 21 18  1  0  0  0  0
 22 18  1  0  0  0  0
M  RAD  2   1   2   2   3
M  END
