Coordinates from ORCA-job C6H6+AlCl4-+NH2--N2+-scan
 OpenBabel10221816123D

 22 19  0  0  0  0  0  0  0  0999 V2000
    6.2522   -2.6826   -5.6687 N   0  0  0  0  0  0  0  0  0  0  0  0
    7.1898   -2.9740   -5.1828 N   0  0  0  0  0  0  0  0  0  0  0  0
    1.8106    0.5830   -3.0377 N   0  0  0  0  0  0  0  0  0  0  0  0
    1.5447   -0.3605   -3.3333 H   0  0  0  0  0  0  0  0  0  0  0  0
    2.7478    0.7543   -3.4075 H   0  0  0  0  0  0  0  0  0  0  0  0
    1.3828   -0.8018   -6.4396 C   0  0  0  0  0  0  0  0  0  0  0  0
    0.0898   -0.8482   -5.9179 C   0  0  0  0  0  0  0  0  0  0  0  0
   -0.2179   -1.7453   -4.8943 C   0  0  0  0  0  0  0  0  0  0  0  0
    0.7698   -2.5938   -4.3898 C   0  0  0  0  0  0  0  0  0  0  0  0
    2.0641   -2.5472   -4.9135 C   0  0  0  0  0  0  0  0  0  0  0  0
    2.3702   -1.6519   -5.9393 C   0  0  0  0  0  0  0  0  0  0  0  0
    1.6198   -0.1069   -7.2379 H   0  0  0  0  0  0  0  0  0  0  0  0
   -0.6764   -0.1874   -6.3077 H   0  0  0  0  0  0  0  0  0  0  0  0
   -1.2241   -1.7845   -4.4916 H   0  0  0  0  0  0  0  0  0  0  0  0
    0.5343   -3.2939   -3.5959 H   0  0  0  0  0  0  0  0  0  0  0  0
    2.8299   -3.2060   -4.5208 H   0  0  0  0  0  0  0  0  0  0  0  0
    3.3748   -1.6225   -6.3459 H   0  0  0  0  0  0  0  0  0  0  0  0
    4.0322   -0.9543   -0.8661 Al  0  0  0  0  0  0  0  0  0  0  0  0
    4.4124   -0.3230    1.1064 Cl  0  0  0  0  0  0  0  0  0  0  0  0
    5.2754   -0.2260   -2.4244 Cl  0  0  0  0  0  0  0  0  0  0  0  0
    3.2939   -2.9137   -1.1443 Cl  0  0  0  0  0  0  0  0  0  0  0  0
    2.0684    0.4457   -1.2810 Cl  0  0  0  0  0  0  0  0  0  0  0  0
  1  2  3  0  0  0  0
  3 22  1  0  0  0  0
  4  3  1  0  0  0  0
  5  3  1  0  0  0  0
  6 11  2  0  0  0  0
  6  7  1  0  0  0  0
  7  8  2  0  0  0  0
  8 14  1  0  0  0  0
  8  9  1  0  0  0  0
  9 15  1  0  0  0  0
 10 16  1  0  0  0  0
 10  9  2  0  0  0  0
 11 10  1  0  0  0  0
 12  6  1  0  0  0  0
 13  7  1  0  0  0  0
 17 11  1  0  0  0  0
 18 19  1  0  0  0  0
 20 18  1  0  0  0  0
 21 18  1  0  0  0  0
M  END
