Coordinates from ORCA-job C6H6+AlCl4-+NH2--N2+-scan
 OpenBabel10221816113D

 22 20  0  0  0  0  0  0  0  0999 V2000
    4.1276    0.2452   -5.2371 N   0  0  0  0  0  0  0  0  0  0  0  0
    4.4825    0.9949   -5.9618 N   0  0  0  0  0  0  0  0  0  0  0  0
    3.5184    0.1466   -3.5768 N   0  0  0  0  0  0  0  0  0  0  0  0
    2.7069   -0.4324   -3.8458 H   0  0  0  0  0  0  0  0  0  0  0  0
    4.2458   -0.5327   -3.2946 H   0  0  0  0  0  0  0  0  0  0  0  0
    1.6946   -1.8895   -6.7469 C   0  0  0  0  0  0  0  0  0  0  0  0
    0.8294   -0.8665   -6.3570 C   0  0  0  0  0  0  0  0  0  0  0  0
    0.3257   -0.8374   -5.0556 C   0  0  0  0  0  0  0  0  0  0  0  0
    0.6887   -1.8322   -4.1438 C   0  0  0  0  0  0  0  0  0  0  0  0
    1.5582   -2.8542   -4.5347 C   0  0  0  0  0  0  0  0  0  0  0  0
    2.0599   -2.8817   -5.8363 C   0  0  0  0  0  0  0  0  0  0  0  0
    2.0783   -1.9170   -7.7610 H   0  0  0  0  0  0  0  0  0  0  0  0
    0.5397   -0.1001   -7.0677 H   0  0  0  0  0  0  0  0  0  0  0  0
   -0.3563   -0.0497   -4.7544 H   0  0  0  0  0  0  0  0  0  0  0  0
    0.2904   -1.8222   -3.1353 H   0  0  0  0  0  0  0  0  0  0  0  0
    1.8357   -3.6239   -3.8237 H   0  0  0  0  0  0  0  0  0  0  0  0
    2.7289   -3.6787   -6.1413 H   0  0  0  0  0  0  0  0  0  0  0  0
    3.6856   -1.5569   -0.4756 Al  0  0  0  0  0  0  0  0  0  0  0  0
    4.2218   -0.8494    1.4384 Cl  0  0  0  0  0  0  0  0  0  0  0  0
    5.3222   -2.0377   -1.7949 Cl  0  0  0  0  0  0  0  0  0  0  0  0
    2.1199   -2.9901   -0.5602 Cl  0  0  0  0  0  0  0  0  0  0  0  0
    2.8407    0.3252   -1.5676 Cl  0  0  0  0  0  0  0  0  0  0  0  0
  1  3  1  0  0  0  0
  2  1  2  0  0  0  0
  3  5  1  0  0  0  0
  3 22  1  0  0  0  0
  4  3  1  0  0  0  0
  6  7  2  0  0  0  0
  6 11  1  0  0  0  0
  7  8  1  0  0  0  0
  8 14  1  0  0  0  0
  8  9  2  0  0  0  0
  9 15  1  0  0  0  0
 10  9  1  0  0  0  0
 10 16  1  0  0  0  0
 11 10  2  0  0  0  0
 12  6  1  0  0  0  0
 13  7  1  0  0  0  0
 17 11  1  0  0  0  0
 18 19  1  0  0  0  0
 20 18  1  0  0  0  0
 21 18  1  0  0  0  0
M  RAD  1   2   2
M  END
