Coordinates from ORCA-job C6H6+AlCl4-+NH2--N2+-scan
 OpenBabel10221816113D

 22 19  0  0  0  0  0  0  0  0999 V2000
    4.6155    0.2001   -5.8211 N   0  0  0  0  0  0  0  0  0  0  0  0
    4.6709    0.8758   -6.6815 N   0  0  0  0  0  0  0  0  0  0  0  0
    3.4000    0.2128   -3.2731 N   0  0  0  0  0  0  0  0  0  0  0  0
    2.6651   -0.4011   -3.6376 H   0  0  0  0  0  0  0  0  0  0  0  0
    4.2737   -0.3161   -3.2917 H   0  0  0  0  0  0  0  0  0  0  0  0
    1.6466   -1.7994   -6.7280 C   0  0  0  0  0  0  0  0  0  0  0  0
    0.7336   -0.8452   -6.2798 C   0  0  0  0  0  0  0  0  0  0  0  0
    0.2433   -0.9084   -4.9752 C   0  0  0  0  0  0  0  0  0  0  0  0
    0.6684   -1.9263   -4.1183 C   0  0  0  0  0  0  0  0  0  0  0  0
    1.5860   -2.8793   -4.5672 C   0  0  0  0  0  0  0  0  0  0  0  0
    2.0737   -2.8151   -5.8724 C   0  0  0  0  0  0  0  0  0  0  0  0
    2.0234   -1.7526   -7.7439 H   0  0  0  0  0  0  0  0  0  0  0  0
    0.4011   -0.0570   -6.9463 H   0  0  0  0  0  0  0  0  0  0  0  0
   -0.4742   -0.1726   -4.6289 H   0  0  0  0  0  0  0  0  0  0  0  0
    0.2787   -1.9892   -3.1083 H   0  0  0  0  0  0  0  0  0  0  0  0
    1.9112   -3.6693   -3.8998 H   0  0  0  0  0  0  0  0  0  0  0  0
    2.7820   -3.5578   -6.2227 H   0  0  0  0  0  0  0  0  0  0  0  0
    3.6747   -1.6756   -0.3490 Al  0  0  0  0  0  0  0  0  0  0  0  0
    3.9364   -0.8152    1.5550 Cl  0  0  0  0  0  0  0  0  0  0  0  0
    5.3937   -2.1606   -1.4940 Cl  0  0  0  0  0  0  0  0  0  0  0  0
    2.0171   -2.9584   -0.6127 Cl  0  0  0  0  0  0  0  0  0  0  0  0
    3.0236    0.3701   -1.5371 Cl  0  0  0  0  0  0  0  0  0  0  0  0
  2  1  3  0  0  0  0
  3 22  1  0  0  0  0
  4  3  1  0  0  0  0
  5  3  1  0  0  0  0
  6  7  2  0  0  0  0
  6 11  1  0  0  0  0
  7  8  1  0  0  0  0
  8 14  1  0  0  0  0
  8  9  2  0  0  0  0
  9 15  1  0  0  0  0
 10  9  1  0  0  0  0
 10 16  1  0  0  0  0
 11 10  2  0  0  0  0
 12  6  1  0  0  0  0
 13  7  1  0  0  0  0
 17 11  1  0  0  0  0
 18 19  1  0  0  0  0
 20 18  1  0  0  0  0
 21 18  1  0  0  0  0
M  END
