Coordinates from ORCA-job C6H6+AlCl4-+NH2--N2+-scan
 OpenBabel10221816113D

 22 20  0  0  0  0  0  0  0  0999 V2000
    3.9051   -0.3497   -4.6801 N   0  0  0  0  0  0  0  0  0  0  0  0
    4.0065   -0.1465   -5.7895 N   0  0  0  0  0  0  0  0  0  0  0  0
    3.8383   -0.5237   -3.6467 N   0  0  0  0  0  0  0  0  0  0  0  0
    3.0604   -1.0301   -3.1327 H   0  0  0  0  0  0  0  0  0  0  0  0
    4.5960   -0.2160   -2.8725 H   0  0  0  0  0  0  0  0  0  0  0  0
    1.3388   -1.9402   -7.0393 C   0  0  0  0  0  0  0  0  0  0  0  0
    0.6906   -0.7311   -6.7865 C   0  0  0  0  0  0  0  0  0  0  0  0
    0.2329   -0.4395   -5.5016 C   0  0  0  0  0  0  0  0  0  0  0  0
    0.4205   -1.3592   -4.4683 C   0  0  0  0  0  0  0  0  0  0  0  0
    1.0704   -2.5702   -4.7211 C   0  0  0  0  0  0  0  0  0  0  0  0
    1.5305   -2.8588   -6.0072 C   0  0  0  0  0  0  0  0  0  0  0  0
    1.6913   -2.1671   -8.0392 H   0  0  0  0  0  0  0  0  0  0  0  0
    0.5395   -0.0192   -7.5904 H   0  0  0  0  0  0  0  0  0  0  0  0
   -0.2808    0.4958   -5.3075 H   0  0  0  0  0  0  0  0  0  0  0  0
    0.0459   -1.1442   -3.4734 H   0  0  0  0  0  0  0  0  0  0  0  0
    1.1994   -3.2917   -3.9217 H   0  0  0  0  0  0  0  0  0  0  0  0
    2.0256   -3.8031   -6.2060 H   0  0  0  0  0  0  0  0  0  0  0  0
    4.3280   -1.4551   -0.0921 Al  0  0  0  0  0  0  0  0  0  0  0  0
    3.9800   -0.6008    1.8057 Cl  0  0  0  0  0  0  0  0  0  0  0  0
    5.4878    0.0438   -1.3429 Cl  0  0  0  0  0  0  0  0  0  0  0  0
    5.3914   -3.2867   -0.1756 Cl  0  0  0  0  0  0  0  0  0  0  0  0
    2.4466   -1.6472   -1.2449 Cl  0  0  0  0  0  0  0  0  0  0  0  0
  1  3  1  0  0  0  0
  2  1  1  0  0  0  0
  3  4  1  0  0  0  0
  3  5  1  0  0  0  0
  6  7  2  0  0  0  0
  6 11  1  0  0  0  0
  7  8  1  0  0  0  0
  8 14  1  0  0  0  0
  8  9  2  0  0  0  0
  9 15  1  0  0  0  0
 10  9  1  0  0  0  0
 10 16  1  0  0  0  0
 11 10  2  0  0  0  0
 12  6  1  0  0  0  0
 13  7  1  0  0  0  0
 17 11  1  0  0  0  0
 18 19  1  0  0  0  0
 20 18  1  0  0  0  0
 21 18  1  0  0  0  0
 22 18  1  0  0  0  0
M  RAD  2   1   2   2   3
M  END
