Coordinates from ORCA-job C6H6+AlCl4-+NH2--N2+-scan
 OpenBabel10221816113D

 22 19  0  0  0  0  0  0  0  0999 V2000
    6.5594   -0.3251   -5.5605 N   0  0  0  0  0  0  0  0  0  0  0  0
    7.5888   -0.6121   -5.8013 N   0  0  0  0  0  0  0  0  0  0  0  0
    2.6037    0.3569   -3.4055 N   0  0  0  0  0  0  0  0  0  0  0  0
    1.9674   -0.4388   -3.5048 H   0  0  0  0  0  0  0  0  0  0  0  0
    3.5191    0.0500   -3.7400 H   0  0  0  0  0  0  0  0  0  0  0  0
    1.4330   -1.3539   -6.5131 C   0  0  0  0  0  0  0  0  0  0  0  0
    0.2432   -0.7993   -6.0413 C   0  0  0  0  0  0  0  0  0  0  0  0
   -0.3267   -1.2731   -4.8595 C   0  0  0  0  0  0  0  0  0  0  0  0
    0.2949   -2.3009   -4.1474 C   0  0  0  0  0  0  0  0  0  0  0  0
    1.4860   -2.8569   -4.6206 C   0  0  0  0  0  0  0  0  0  0  0  0
    2.0540   -2.3830   -5.8041 C   0  0  0  0  0  0  0  0  0  0  0  0
    1.8743   -0.9865   -7.4331 H   0  0  0  0  0  0  0  0  0  0  0  0
   -0.2382    0.0006   -6.5926 H   0  0  0  0  0  0  0  0  0  0  0  0
   -1.2532   -0.8440   -4.4940 H   0  0  0  0  0  0  0  0  0  0  0  0
   -0.1461   -2.6728   -3.2293 H   0  0  0  0  0  0  0  0  0  0  0  0
    1.9668   -3.6545   -4.0659 H   0  0  0  0  0  0  0  0  0  0  0  0
    2.9768   -2.8171   -6.1729 H   0  0  0  0  0  0  0  0  0  0  0  0
    3.9054   -1.4483   -0.7402 Al  0  0  0  0  0  0  0  0  0  0  0  0
    4.5029   -0.6129    1.0990 Cl  0  0  0  0  0  0  0  0  0  0  0  0
    5.3728   -1.7523   -2.2408 Cl  0  0  0  0  0  0  0  0  0  0  0  0
    2.3360   -2.8630   -0.7151 Cl  0  0  0  0  0  0  0  0  0  0  0  0
    2.8243    0.5464   -1.6507 Cl  0  0  0  0  0  0  0  0  0  0  0  0
  2  1  3  0  0  0  0
  3 22  1  0  0  0  0
  4  3  1  0  0  0  0
  5  3  1  0  0  0  0
  6  7  2  0  0  0  0
  6 11  1  0  0  0  0
  7  8  1  0  0  0  0
  8 14  1  0  0  0  0
  8  9  2  0  0  0  0
  9 15  1  0  0  0  0
 10  9  1  0  0  0  0
 10 16  1  0  0  0  0
 11 10  2  0  0  0  0
 12  6  1  0  0  0  0
 13  7  1  0  0  0  0
 17 11  1  0  0  0  0
 18 21  1  0  0  0  0
 18 19  1  0  0  0  0
 20 18  1  0  0  0  0
M  END
