Coordinates from ORCA-job C6H6+AlCl4-+NH2--N2+-scan
 OpenBabel10221816113D

 22 19  0  0  0  0  0  0  0  0999 V2000
    6.2671   -0.3184   -5.4971 N   0  0  0  0  0  0  0  0  0  0  0  0
    7.2684   -0.5871   -5.8507 N   0  0  0  0  0  0  0  0  0  0  0  0
    2.6635    0.3543   -3.4160 N   0  0  0  0  0  0  0  0  0  0  0  0
    2.0226   -0.4379   -3.5132 H   0  0  0  0  0  0  0  0  0  0  0  0
    3.5779    0.0426   -3.7487 H   0  0  0  0  0  0  0  0  0  0  0  0
    1.4659   -1.3620   -6.5302 C   0  0  0  0  0  0  0  0  0  0  0  0
    0.2843   -0.7957   -6.0518 C   0  0  0  0  0  0  0  0  0  0  0  0
   -0.2799   -1.2589   -4.8631 C   0  0  0  0  0  0  0  0  0  0  0  0
    0.3393   -2.2878   -4.1506 C   0  0  0  0  0  0  0  0  0  0  0  0
    1.5223   -2.8555   -4.6303 C   0  0  0  0  0  0  0  0  0  0  0  0
    2.0845   -2.3923   -5.8207 C   0  0  0  0  0  0  0  0  0  0  0  0
    1.9025   -1.0029   -7.4556 H   0  0  0  0  0  0  0  0  0  0  0  0
   -0.1953    0.0051   -6.6035 H   0  0  0  0  0  0  0  0  0  0  0  0
   -1.2000   -0.8207   -4.4924 H   0  0  0  0  0  0  0  0  0  0  0  0
   -0.0970   -2.6515   -3.2270 H   0  0  0  0  0  0  0  0  0  0  0  0
    2.0012   -3.6542   -4.0754 H   0  0  0  0  0  0  0  0  0  0  0  0
    3.0008   -2.8356   -6.1948 H   0  0  0  0  0  0  0  0  0  0  0  0
    3.8931   -1.4604   -0.7099 Al  0  0  0  0  0  0  0  0  0  0  0  0
    4.4781   -0.6131    1.1281 Cl  0  0  0  0  0  0  0  0  0  0  0  0
    5.3789   -1.8290   -2.1760 Cl  0  0  0  0  0  0  0  0  0  0  0  0
    2.2849   -2.8313   -0.6930 Cl  0  0  0  0  0  0  0  0  0  0  0  0
    2.8815    0.5516   -1.6619 Cl  0  0  0  0  0  0  0  0  0  0  0  0
  2  1  3  0  0  0  0
  3 22  1  0  0  0  0
  4  3  1  0  0  0  0
  5  3  1  0  0  0  0
  6  7  2  0  0  0  0
  6 11  1  0  0  0  0
  7  8  1  0  0  0  0
  8 14  1  0  0  0  0
  8  9  2  0  0  0  0
  9 15  1  0  0  0  0
 10  9  1  0  0  0  0
 10 16  1  0  0  0  0
 11 10  2  0  0  0  0
 12  6  1  0  0  0  0
 13  7  1  0  0  0  0
 17 11  1  0  0  0  0
 18 21  1  0  0  0  0
 18 19  1  0  0  0  0
 20 18  1  0  0  0  0
M  END
