Coordinates from ORCA-job C6H6+AlCl4-+NH2--N2+-scan
 OpenBabel10221816113D

 22 20  0  0  0  0  0  0  0  0999 V2000
    3.5835   -0.1824   -4.4039 N   0  0  0  0  0  0  0  0  0  0  0  0
    3.9459   -0.5209   -5.3902 N   0  0  0  0  0  0  0  0  0  0  0  0
    3.1690    0.4920   -3.2121 N   0  0  0  0  0  0  0  0  0  0  0  0
    2.5065   -0.1588   -2.7414 H   0  0  0  0  0  0  0  0  0  0  0  0
    4.0404    0.5445   -2.6055 H   0  0  0  0  0  0  0  0  0  0  0  0
    1.7140   -2.3734   -6.6541 C   0  0  0  0  0  0  0  0  0  0  0  0
    1.1029   -1.1409   -6.9009 C   0  0  0  0  0  0  0  0  0  0  0  0
    0.4248   -0.4818   -5.8765 C   0  0  0  0  0  0  0  0  0  0  0  0
    0.3582   -1.0558   -4.6044 C   0  0  0  0  0  0  0  0  0  0  0  0
    0.9678   -2.2893   -4.3579 C   0  0  0  0  0  0  0  0  0  0  0  0
    1.6452   -2.9479   -5.3846 C   0  0  0  0  0  0  0  0  0  0  0  0
    2.2362   -2.8878   -7.4533 H   0  0  0  0  0  0  0  0  0  0  0  0
    1.1488   -0.7023   -7.8917 H   0  0  0  0  0  0  0  0  0  0  0  0
   -0.0611    0.4685   -6.0691 H   0  0  0  0  0  0  0  0  0  0  0  0
   -0.1872   -0.5548   -3.8113 H   0  0  0  0  0  0  0  0  0  0  0  0
    0.9120   -2.7352   -3.3716 H   0  0  0  0  0  0  0  0  0  0  0  0
    2.1204   -3.9025   -5.1912 H   0  0  0  0  0  0  0  0  0  0  0  0
    4.4175   -1.8085   -0.7857 Al  0  0  0  0  0  0  0  0  0  0  0  0
    5.0822   -2.7614    0.9762 Cl  0  0  0  0  0  0  0  0  0  0  0  0
    5.3824    0.1662   -1.0938 Cl  0  0  0  0  0  0  0  0  0  0  0  0
    4.7655   -2.8731   -2.6357 Cl  0  0  0  0  0  0  0  0  0  0  0  0
    2.2696   -1.3351   -0.7748 Cl  0  0  0  0  0  0  0  0  0  0  0  0
  1  3  1  0  0  0  0
  2  1  1  0  0  0  0
  3  4  1  0  0  0  0
  3  5  1  0  0  0  0
  6 11  1  0  0  0  0
  7  6  2  0  0  0  0
  7  8  1  0  0  0  0
  8  9  2  0  0  0  0
  9 10  1  0  0  0  0
  9 15  1  0  0  0  0
 10 16  1  0  0  0  0
 11 17  1  0  0  0  0
 11 10  2  0  0  0  0
 12  6  1  0  0  0  0
 13  7  1  0  0  0  0
 14  8  1  0  0  0  0
 18 22  1  0  0  0  0
 18 19  1  0  0  0  0
 20 18  1  0  0  0  0
 21 18  1  0  0  0  0
M  RAD  2   1   2   2   3
M  END
