Coordinates from ORCA-job C6H6+AlCl4-+NH2--N2+-scan
 OpenBabel10221816123D

 22 19  0  0  0  0  0  0  0  0999 V2000
    6.4622   -2.8652   -5.9567 N   0  0  0  0  0  0  0  0  0  0  0  0
    7.4267   -3.1699   -5.5360 N   0  0  0  0  0  0  0  0  0  0  0  0
    1.7048    0.6046   -2.9769 N   0  0  0  0  0  0  0  0  0  0  0  0
    1.4684   -0.3405   -3.2921 H   0  0  0  0  0  0  0  0  0  0  0  0
    2.6405    0.8101   -3.3330 H   0  0  0  0  0  0  0  0  0  0  0  0
    1.4184   -0.8118   -6.4280 C   0  0  0  0  0  0  0  0  0  0  0  0
    0.1265   -0.8286   -5.9018 C   0  0  0  0  0  0  0  0  0  0  0  0
   -0.1971   -1.7170   -4.8753 C   0  0  0  0  0  0  0  0  0  0  0  0
    0.7741   -2.5850   -4.3717 C   0  0  0  0  0  0  0  0  0  0  0  0
    2.0672   -2.5677   -4.8999 C   0  0  0  0  0  0  0  0  0  0  0  0
    2.3887   -1.6825   -5.9293 C   0  0  0  0  0  0  0  0  0  0  0  0
    1.6676   -0.1246   -7.2292 H   0  0  0  0  0  0  0  0  0  0  0  0
   -0.6267   -0.1526   -6.2909 H   0  0  0  0  0  0  0  0  0  0  0  0
   -1.2029   -1.7343   -4.4700 H   0  0  0  0  0  0  0  0  0  0  0  0
    0.5260   -3.2783   -3.5756 H   0  0  0  0  0  0  0  0  0  0  0  0
    2.8199   -3.2421   -4.5084 H   0  0  0  0  0  0  0  0  0  0  0  0
    3.3913   -1.6774   -6.3422 H   0  0  0  0  0  0  0  0  0  0  0  0
    3.9594   -0.8889   -0.8083 Al  0  0  0  0  0  0  0  0  0  0  0  0
    4.2891   -0.2848    1.1819 Cl  0  0  0  0  0  0  0  0  0  0  0  0
    5.1904   -0.0774   -2.3345 Cl  0  0  0  0  0  0  0  0  0  0  0  0
    3.3027   -2.8695   -1.1357 Cl  0  0  0  0  0  0  0  0  0  0  0  0
    1.9475    0.4428   -1.2201 Cl  0  0  0  0  0  0  0  0  0  0  0  0
  1  2  3  0  0  0  0
  3 22  1  0  0  0  0
  4  3  1  0  0  0  0
  5  3  1  0  0  0  0
  6 11  2  0  0  0  0
  6  7  1  0  0  0  0
  7  8  2  0  0  0  0
  8 14  1  0  0  0  0
  8  9  1  0  0  0  0
  9 15  1  0  0  0  0
 10 16  1  0  0  0  0
 10  9  2  0  0  0  0
 11 10  1  0  0  0  0
 12  6  1  0  0  0  0
 13  7  1  0  0  0  0
 17 11  1  0  0  0  0
 18 19  1  0  0  0  0
 20 18  1  0  0  0  0
 21 18  1  0  0  0  0
M  END
