Coordinates from ORCA-job C6H6+AlCl4-+NH2--N2+-scan
 OpenBabel10221816113D

 22 19  0  0  0  0  0  0  0  0999 V2000
    6.6697   -0.3418   -5.5886 N   0  0  0  0  0  0  0  0  0  0  0  0
    7.7059   -0.6409   -5.7809 N   0  0  0  0  0  0  0  0  0  0  0  0
    2.5751    0.3610   -3.3991 N   0  0  0  0  0  0  0  0  0  0  0  0
    1.9429   -0.4378   -3.5002 H   0  0  0  0  0  0  0  0  0  0  0  0
    3.4916    0.0594   -3.7353 H   0  0  0  0  0  0  0  0  0  0  0  0
    1.4215   -1.3464   -6.5060 C   0  0  0  0  0  0  0  0  0  0  0  0
    0.2270   -0.8003   -6.0362 C   0  0  0  0  0  0  0  0  0  0  0  0
   -0.3444   -1.2815   -4.8581 C   0  0  0  0  0  0  0  0  0  0  0  0
    0.2806   -2.3083   -4.1476 C   0  0  0  0  0  0  0  0  0  0  0  0
    1.4764   -2.8559   -4.6187 C   0  0  0  0  0  0  0  0  0  0  0  0
    2.0458   -2.3746   -5.7985 C   0  0  0  0  0  0  0  0  0  0  0  0
    1.8638   -0.9732   -7.4231 H   0  0  0  0  0  0  0  0  0  0  0  0
   -0.2571   -0.0011   -6.5864 H   0  0  0  0  0  0  0  0  0  0  0  0
   -1.2745   -0.8589   -4.4943 H   0  0  0  0  0  0  0  0  0  0  0  0
   -0.1614   -2.6860   -3.2323 H   0  0  0  0  0  0  0  0  0  0  0  0
    1.9599   -3.6527   -4.0651 H   0  0  0  0  0  0  0  0  0  0  0  0
    2.9724   -2.8021   -6.1657 H   0  0  0  0  0  0  0  0  0  0  0  0
    3.9105   -1.4413   -0.7518 Al  0  0  0  0  0  0  0  0  0  0  0  0
    4.5120   -0.6099    1.0878 Cl  0  0  0  0  0  0  0  0  0  0  0  0
    5.3696   -1.7161   -2.2665 Cl  0  0  0  0  0  0  0  0  0  0  0  0
    2.3599   -2.8765   -0.7235 Cl  0  0  0  0  0  0  0  0  0  0  0  0
    2.7973    0.5443   -1.6436 Cl  0  0  0  0  0  0  0  0  0  0  0  0
  2  1  3  0  0  0  0
  3 22  1  0  0  0  0
  4  3  1  0  0  0  0
  5  3  1  0  0  0  0
  6  7  2  0  0  0  0
  6 11  1  0  0  0  0
  7  8  1  0  0  0  0
  8 14  1  0  0  0  0
  8  9  2  0  0  0  0
  9 15  1  0  0  0  0
 10  9  1  0  0  0  0
 10 16  1  0  0  0  0
 11 10  2  0  0  0  0
 12  6  1  0  0  0  0
 13  7  1  0  0  0  0
 17 11  1  0  0  0  0
 18 21  1  0  0  0  0
 18 19  1  0  0  0  0
 20 18  1  0  0  0  0
M  END
