Coordinates from ORCA-job C6H6+AlCl4-+NH2--N2+-scan
 OpenBabel10221816113D

 22 19  0  0  0  0  0  0  0  0999 V2000
    4.4319    0.2113   -5.7041 N   0  0  0  0  0  0  0  0  0  0  0  0
    4.5017    0.9535   -6.5069 N   0  0  0  0  0  0  0  0  0  0  0  0
    3.4784    0.2071   -3.2716 N   0  0  0  0  0  0  0  0  0  0  0  0
    2.7312   -0.3870   -3.6453 H   0  0  0  0  0  0  0  0  0  0  0  0
    4.3302   -0.3574   -3.2577 H   0  0  0  0  0  0  0  0  0  0  0  0
    1.6150   -1.8513   -6.7780 C   0  0  0  0  0  0  0  0  0  0  0  0
    0.7433   -0.8625   -6.3228 C   0  0  0  0  0  0  0  0  0  0  0  0
    0.2961   -0.8821   -5.0015 C   0  0  0  0  0  0  0  0  0  0  0  0
    0.7226   -1.8915   -4.1352 C   0  0  0  0  0  0  0  0  0  0  0  0
    1.5995   -2.8788   -4.5912 C   0  0  0  0  0  0  0  0  0  0  0  0
    2.0442   -2.8579   -5.9128 C   0  0  0  0  0  0  0  0  0  0  0  0
    1.9582   -1.8386   -7.8067 H   0  0  0  0  0  0  0  0  0  0  0  0
    0.4088   -0.0815   -6.9968 H   0  0  0  0  0  0  0  0  0  0  0  0
   -0.3910   -0.1201   -4.6500 H   0  0  0  0  0  0  0  0  0  0  0  0
    0.3635   -1.9218   -3.1124 H   0  0  0  0  0  0  0  0  0  0  0  0
    1.9249   -3.6626   -3.9165 H   0  0  0  0  0  0  0  0  0  0  0  0
    2.7203   -3.6275   -6.2686 H   0  0  0  0  0  0  0  0  0  0  0  0
    3.6735   -1.6639   -0.3301 Al  0  0  0  0  0  0  0  0  0  0  0  0
    3.9148   -0.8023    1.5756 Cl  0  0  0  0  0  0  0  0  0  0  0  0
    5.4061   -2.1684   -1.4475 Cl  0  0  0  0  0  0  0  0  0  0  0  0
    2.0115   -2.9369   -0.6156 Cl  0  0  0  0  0  0  0  0  0  0  0  0
    3.0600    0.3796   -1.5380 Cl  0  0  0  0  0  0  0  0  0  0  0  0
  2  1  3  0  0  0  0
  3  5  1  0  0  0  0
  3 22  1  0  0  0  0
  4  3  1  0  0  0  0
  6  7  2  0  0  0  0
  6 11  1  0  0  0  0
  7  8  1  0  0  0  0
  8 14  1  0  0  0  0
  8  9  2  0  0  0  0
  9 15  1  0  0  0  0
 10  9  1  0  0  0  0
 10 16  1  0  0  0  0
 11 10  2  0  0  0  0
 12  6  1  0  0  0  0
 13  7  1  0  0  0  0
 17 11  1  0  0  0  0
 18 19  1  0  0  0  0
 20 18  1  0  0  0  0
 21 18  1  0  0  0  0
M  END
