Coordinates from ORCA-job C6H6+AlCl4-+NH2--N2+-scan
 OpenBabel10221816113D

 22 19  0  0  0  0  0  0  0  0999 V2000
    4.5747    0.2042   -5.7460 N   0  0  0  0  0  0  0  0  0  0  0  0
    4.6289    0.9014   -6.5892 N   0  0  0  0  0  0  0  0  0  0  0  0
    3.4224    0.2063   -3.2901 N   0  0  0  0  0  0  0  0  0  0  0  0
    2.6819   -0.4034   -3.6509 H   0  0  0  0  0  0  0  0  0  0  0  0
    4.2885   -0.3354   -3.2989 H   0  0  0  0  0  0  0  0  0  0  0  0
    1.6389   -1.8123   -6.7397 C   0  0  0  0  0  0  0  0  0  0  0  0
    0.7342   -0.8505   -6.2910 C   0  0  0  0  0  0  0  0  0  0  0  0
    0.2514   -0.9042   -4.9832 C   0  0  0  0  0  0  0  0  0  0  0  0
    0.6759   -1.9199   -4.1235 C   0  0  0  0  0  0  0  0  0  0  0  0
    1.5850   -2.8807   -4.5730 C   0  0  0  0  0  0  0  0  0  0  0  0
    2.0652   -2.8261   -5.8814 C   0  0  0  0  0  0  0  0  0  0  0  0
    2.0099   -1.7729   -7.7580 H   0  0  0  0  0  0  0  0  0  0  0  0
    0.4022   -0.0638   -6.9596 H   0  0  0  0  0  0  0  0  0  0  0  0
   -0.4597   -0.1623   -4.6364 H   0  0  0  0  0  0  0  0  0  0  0  0
    0.2915   -1.9755   -3.1111 H   0  0  0  0  0  0  0  0  0  0  0  0
    1.9095   -3.6691   -3.9034 H   0  0  0  0  0  0  0  0  0  0  0  0
    2.7670   -3.5748   -6.2321 H   0  0  0  0  0  0  0  0  0  0  0  0
    3.6799   -1.6665   -0.3539 Al  0  0  0  0  0  0  0  0  0  0  0  0
    3.9421   -0.7988    1.5470 Cl  0  0  0  0  0  0  0  0  0  0  0  0
    5.3986   -2.1662   -1.4930 Cl  0  0  0  0  0  0  0  0  0  0  0  0
    2.0182   -2.9449   -0.6132 Cl  0  0  0  0  0  0  0  0  0  0  0  0
    3.0386    0.3748   -1.5530 Cl  0  0  0  0  0  0  0  0  0  0  0  0
  2  1  3  0  0  0  0
  3 22  1  0  0  0  0
  4  3  1  0  0  0  0
  5  3  1  0  0  0  0
  6  7  2  0  0  0  0
  6 11  1  0  0  0  0
  7  8  1  0  0  0  0
  8 14  1  0  0  0  0
  8  9  2  0  0  0  0
  9 15  1  0  0  0  0
 10  9  1  0  0  0  0
 10 16  1  0  0  0  0
 11 10  2  0  0  0  0
 12  6  1  0  0  0  0
 13  7  1  0  0  0  0
 17 11  1  0  0  0  0
 18 19  1  0  0  0  0
 20 18  1  0  0  0  0
 21 18  1  0  0  0  0
M  END
