Coordinates from ORCA-job C6H6+AlCl4-+NH2--N2+-scan
 OpenBabel10221816113D

 22 19  0  0  0  0  0  0  0  0999 V2000
    4.1994    0.2225   -5.4168 N   0  0  0  0  0  0  0  0  0  0  0  0
    4.4054    1.0412   -6.1174 N   0  0  0  0  0  0  0  0  0  0  0  0
    3.5734    0.1647   -3.3797 N   0  0  0  0  0  0  0  0  0  0  0  0
    2.7917   -0.4101   -3.7176 H   0  0  0  0  0  0  0  0  0  0  0  0
    4.3654   -0.4775   -3.2710 H   0  0  0  0  0  0  0  0  0  0  0  0
    1.6051   -1.8838   -6.8115 C   0  0  0  0  0  0  0  0  0  0  0  0
    0.7602   -0.8726   -6.3548 C   0  0  0  0  0  0  0  0  0  0  0  0
    0.3263   -0.8725   -5.0288 C   0  0  0  0  0  0  0  0  0  0  0  0
    0.7393   -1.8848   -4.1591 C   0  0  0  0  0  0  0  0  0  0  0  0
    1.5897   -2.8943   -4.6168 C   0  0  0  0  0  0  0  0  0  0  0  0
    2.0212   -2.8930   -5.9430 C   0  0  0  0  0  0  0  0  0  0  0  0
    1.9374   -1.8865   -7.8439 H   0  0  0  0  0  0  0  0  0  0  0  0
    0.4351   -0.0901   -7.0317 H   0  0  0  0  0  0  0  0  0  0  0  0
   -0.3415   -0.0938   -4.6762 H   0  0  0  0  0  0  0  0  0  0  0  0
    0.3890   -1.9014   -3.1329 H   0  0  0  0  0  0  0  0  0  0  0  0
    1.9046   -3.6802   -3.9395 H   0  0  0  0  0  0  0  0  0  0  0  0
    2.6764   -3.6800   -6.3000 H   0  0  0  0  0  0  0  0  0  0  0  0
    3.6873   -1.5965   -0.3550 Al  0  0  0  0  0  0  0  0  0  0  0  0
    3.9847   -0.7272    1.5394 Cl  0  0  0  0  0  0  0  0  0  0  0  0
    5.3988   -2.1645   -1.4847 Cl  0  0  0  0  0  0  0  0  0  0  0  0
    2.0088   -2.8608   -0.5891 Cl  0  0  0  0  0  0  0  0  0  0  0  0
    3.0870    0.4005   -1.6034 Cl  0  0  0  0  0  0  0  0  0  0  0  0
  2  1  3  0  0  0  0
  3  5  1  0  0  0  0
  3 22  1  0  0  0  0
  4  3  1  0  0  0  0
  6  7  2  0  0  0  0
  6 11  1  0  0  0  0
  7  8  1  0  0  0  0
  8 14  1  0  0  0  0
  8  9  2  0  0  0  0
  9 15  1  0  0  0  0
 10  9  1  0  0  0  0
 10 16  1  0  0  0  0
 11 10  2  0  0  0  0
 12  6  1  0  0  0  0
 13  7  1  0  0  0  0
 17 11  1  0  0  0  0
 18 19  1  0  0  0  0
 20 18  1  0  0  0  0
 21 18  1  0  0  0  0
M  END
