Coordinates from ORCA-job C6H6+AlCl4-+NH2--N2+-scan
 OpenBabel10221816123D

 22 19  0  0  0  0  0  0  0  0999 V2000
    6.2700   -2.6880   -5.6839 N   0  0  0  0  0  0  0  0  0  0  0  0
    7.2100   -2.9759   -5.2004 N   0  0  0  0  0  0  0  0  0  0  0  0
    1.8056    0.5902   -3.0374 N   0  0  0  0  0  0  0  0  0  0  0  0
    1.5425   -0.3546   -3.3319 H   0  0  0  0  0  0  0  0  0  0  0  0
    2.7419    0.7642   -3.4082 H   0  0  0  0  0  0  0  0  0  0  0  0
    1.3832   -0.8037   -6.4389 C   0  0  0  0  0  0  0  0  0  0  0  0
    0.0911   -0.8496   -5.9147 C   0  0  0  0  0  0  0  0  0  0  0  0
   -0.2144   -1.7446   -4.8888 C   0  0  0  0  0  0  0  0  0  0  0  0
    0.7746   -2.5917   -4.3844 C   0  0  0  0  0  0  0  0  0  0  0  0
    2.0680   -2.5457   -4.9104 C   0  0  0  0  0  0  0  0  0  0  0  0
    2.3719   -1.6525   -5.9386 C   0  0  0  0  0  0  0  0  0  0  0  0
    1.6183   -0.1104   -7.2391 H   0  0  0  0  0  0  0  0  0  0  0  0
   -0.6761   -0.1899   -6.3045 H   0  0  0  0  0  0  0  0  0  0  0  0
   -1.2198   -1.7834   -4.4843 H   0  0  0  0  0  0  0  0  0  0  0  0
    0.5409   -3.2902   -3.5886 H   0  0  0  0  0  0  0  0  0  0  0  0
    2.8348   -3.2033   -4.5179 H   0  0  0  0  0  0  0  0  0  0  0  0
    3.3758   -1.6237   -6.3473 H   0  0  0  0  0  0  0  0  0  0  0  0
    4.0200   -0.9592   -0.8672 Al  0  0  0  0  0  0  0  0  0  0  0  0
    4.4073   -0.3288    1.1042 Cl  0  0  0  0  0  0  0  0  0  0  0  0
    5.2662   -0.2412   -2.4278 Cl  0  0  0  0  0  0  0  0  0  0  0  0
    3.2672   -2.9134   -1.1425 Cl  0  0  0  0  0  0  0  0  0  0  0  0
    2.0657    0.4546   -1.2809 Cl  0  0  0  0  0  0  0  0  0  0  0  0
  1  2  3  0  0  0  0
  3 22  1  0  0  0  0
  4  3  1  0  0  0  0
  5  3  1  0  0  0  0
  6 11  2  0  0  0  0
  6  7  1  0  0  0  0
  7  8  2  0  0  0  0
  8 14  1  0  0  0  0
  8  9  1  0  0  0  0
  9 15  1  0  0  0  0
 10 16  1  0  0  0  0
 10  9  2  0  0  0  0
 11 10  1  0  0  0  0
 12  6  1  0  0  0  0
 13  7  1  0  0  0  0
 17 11  1  0  0  0  0
 18 19  1  0  0  0  0
 20 18  1  0  0  0  0
 21 18  1  0  0  0  0
M  END
