Coordinates from ORCA-job C6H6+AlCl4-+NH2--N2+-scan
 OpenBabel10221816113D

 22 20  0  0  0  0  0  0  0  0999 V2000
    3.6565   -0.1845   -4.4397 N   0  0  0  0  0  0  0  0  0  0  0  0
    3.9799   -0.4945   -5.4556 N   0  0  0  0  0  0  0  0  0  0  0  0
    3.3063    0.3039   -3.2864 N   0  0  0  0  0  0  0  0  0  0  0  0
    2.5739   -0.2709   -2.8222 H   0  0  0  0  0  0  0  0  0  0  0  0
    4.1425    0.4447   -2.6356 H   0  0  0  0  0  0  0  0  0  0  0  0
    1.6599   -2.3347   -6.7070 C   0  0  0  0  0  0  0  0  0  0  0  0
    1.0338   -1.1008   -6.8990 C   0  0  0  0  0  0  0  0  0  0  0  0
    0.3879   -0.4734   -5.8341 C   0  0  0  0  0  0  0  0  0  0  0  0
    0.3674   -1.0813   -4.5766 C   0  0  0  0  0  0  0  0  0  0  0  0
    0.9941   -2.3157   -4.3842 C   0  0  0  0  0  0  0  0  0  0  0  0
    1.6406   -2.9416   -5.4510 C   0  0  0  0  0  0  0  0  0  0  0  0
    2.1566   -2.8244   -7.5374 H   0  0  0  0  0  0  0  0  0  0  0  0
    1.0426   -0.6354   -7.8785 H   0  0  0  0  0  0  0  0  0  0  0  0
   -0.1101    0.4782   -5.9849 H   0  0  0  0  0  0  0  0  0  0  0  0
   -0.1543   -0.6061   -3.7522 H   0  0  0  0  0  0  0  0  0  0  0  0
    0.9730   -2.7890   -3.4092 H   0  0  0  0  0  0  0  0  0  0  0  0
    2.1260   -3.8990   -5.3004 H   0  0  0  0  0  0  0  0  0  0  0  0
    4.3840   -1.7537   -0.6941 Al  0  0  0  0  0  0  0  0  0  0  0  0
    4.9652   -2.5911    1.1526 Cl  0  0  0  0  0  0  0  0  0  0  0  0
    5.3335    0.2296   -1.0479 Cl  0  0  0  0  0  0  0  0  0  0  0  0
    4.8518   -2.8944   -2.4657 Cl  0  0  0  0  0  0  0  0  0  0  0  0
    2.2335   -1.3064   -0.8242 Cl  0  0  0  0  0  0  0  0  0  0  0  0
  1  3  1  0  0  0  0
  2  1  1  0  0  0  0
  3  4  1  0  0  0  0
  3  5  1  0  0  0  0
  6 11  1  0  0  0  0
  7  6  2  0  0  0  0
  7  8  1  0  0  0  0
  8  9  2  0  0  0  0
  9 10  1  0  0  0  0
  9 15  1  0  0  0  0
 10 16  1  0  0  0  0
 11 17  1  0  0  0  0
 11 10  2  0  0  0  0
 12  6  1  0  0  0  0
 13  7  1  0  0  0  0
 14  8  1  0  0  0  0
 18 19  1  0  0  0  0
 20 18  1  0  0  0  0
 21 18  1  0  0  0  0
 22 18  1  0  0  0  0
M  RAD  2   1   2   2   3
M  END
