Coordinates from ORCA-job C6H6+AlCl4-+NH2--N2+-scan
 OpenBabel10221816113D

 22 20  0  0  0  0  0  0  0  0999 V2000
    3.5815   -0.1796   -4.4041 N   0  0  0  0  0  0  0  0  0  0  0  0
    3.9454   -0.5207   -5.3883 N   0  0  0  0  0  0  0  0  0  0  0  0
    3.1621    0.5048   -3.2076 N   0  0  0  0  0  0  0  0  0  0  0  0
    2.5022   -0.1522   -2.7423 H   0  0  0  0  0  0  0  0  0  0  0  0
    4.0352    0.5544   -2.6045 H   0  0  0  0  0  0  0  0  0  0  0  0
    1.7166   -2.3767   -6.6495 C   0  0  0  0  0  0  0  0  0  0  0  0
    1.1061   -1.1446   -6.9004 C   0  0  0  0  0  0  0  0  0  0  0  0
    0.4267   -0.4825   -5.8787 C   0  0  0  0  0  0  0  0  0  0  0  0
    0.3585   -1.0527   -4.6049 C   0  0  0  0  0  0  0  0  0  0  0  0
    0.9677   -2.2857   -4.3543 C   0  0  0  0  0  0  0  0  0  0  0  0
    1.6461   -2.9474   -5.3783 C   0  0  0  0  0  0  0  0  0  0  0  0
    2.2391   -2.8937   -7.4469 H   0  0  0  0  0  0  0  0  0  0  0  0
    1.1531   -0.7089   -7.8924 H   0  0  0  0  0  0  0  0  0  0  0  0
   -0.0587    0.4673   -6.0747 H   0  0  0  0  0  0  0  0  0  0  0  0
   -0.1878   -0.5495   -3.8138 H   0  0  0  0  0  0  0  0  0  0  0  0
    0.9109   -2.7286   -3.3667 H   0  0  0  0  0  0  0  0  0  0  0  0
    2.1206   -3.9017   -5.1816 H   0  0  0  0  0  0  0  0  0  0  0  0
    4.4180   -1.8140   -0.7926 Al  0  0  0  0  0  0  0  0  0  0  0  0
    5.0853   -2.7746    0.9642 Cl  0  0  0  0  0  0  0  0  0  0  0  0
    5.3812    0.1626   -1.0920 Cl  0  0  0  0  0  0  0  0  0  0  0  0
    4.7658   -2.8712   -2.6473 Cl  0  0  0  0  0  0  0  0  0  0  0  0
    2.2690   -1.3453   -0.7768 Cl  0  0  0  0  0  0  0  0  0  0  0  0
  1  3  1  0  0  0  0
  2  1  1  0  0  0  0
  3  4  1  0  0  0  0
  3  5  1  0  0  0  0
  6 11  1  0  0  0  0
  7  6  2  0  0  0  0
  7  8  1  0  0  0  0
  8  9  2  0  0  0  0
  9 10  1  0  0  0  0
  9 15  1  0  0  0  0
 10 16  1  0  0  0  0
 11 17  1  0  0  0  0
 11 10  2  0  0  0  0
 12  6  1  0  0  0  0
 13  7  1  0  0  0  0
 14  8  1  0  0  0  0
 18 22  1  0  0  0  0
 18 19  1  0  0  0  0
 20 18  1  0  0  0  0
 21 18  1  0  0  0  0
M  RAD  2   1   2   2   3
M  END
