Coordinates from ORCA-job C6H6+AlCl4-+NH2--N2+-scan
 OpenBabel10221816113D

 22 19  0  0  0  0  0  0  0  0999 V2000
    4.2194    0.2195   -5.4721 N   0  0  0  0  0  0  0  0  0  0  0  0
    4.4033    1.0318   -6.1853 N   0  0  0  0  0  0  0  0  0  0  0  0
    3.5684    0.1732   -3.3480 N   0  0  0  0  0  0  0  0  0  0  0  0
    2.7931   -0.4024   -3.6969 H   0  0  0  0  0  0  0  0  0  0  0  0
    4.3726   -0.4557   -3.2619 H   0  0  0  0  0  0  0  0  0  0  0  0
    1.6010   -1.8811   -6.8129 C   0  0  0  0  0  0  0  0  0  0  0  0
    0.7553   -0.8721   -6.3529 C   0  0  0  0  0  0  0  0  0  0  0  0
    0.3250   -0.8744   -5.0258 C   0  0  0  0  0  0  0  0  0  0  0  0
    0.7425   -1.8867   -4.1583 C   0  0  0  0  0  0  0  0  0  0  0  0
    1.5939   -2.8938   -4.6193 C   0  0  0  0  0  0  0  0  0  0  0  0
    2.0217   -2.8903   -5.9466 C   0  0  0  0  0  0  0  0  0  0  0  0
    1.9306   -1.8820   -7.8462 H   0  0  0  0  0  0  0  0  0  0  0  0
    0.4269   -0.0895   -7.0280 H   0  0  0  0  0  0  0  0  0  0  0  0
   -0.3434   -0.0974   -4.6707 H   0  0  0  0  0  0  0  0  0  0  0  0
    0.3946   -1.9054   -3.1314 H   0  0  0  0  0  0  0  0  0  0  0  0
    1.9121   -3.6799   -3.9437 H   0  0  0  0  0  0  0  0  0  0  0  0
    2.6777   -3.6754   -6.3061 H   0  0  0  0  0  0  0  0  0  0  0  0
    3.6839   -1.6082   -0.3411 Al  0  0  0  0  0  0  0  0  0  0  0  0
    3.9622   -0.7349    1.5543 Cl  0  0  0  0  0  0  0  0  0  0  0  0
    5.4028   -2.1734   -1.4576 Cl  0  0  0  0  0  0  0  0  0  0  0  0
    2.0022   -2.8639   -0.5937 Cl  0  0  0  0  0  0  0  0  0  0  0  0
    3.0986    0.4016   -1.5894 Cl  0  0  0  0  0  0  0  0  0  0  0  0
  2  1  3  0  0  0  0
  3  5  1  0  0  0  0
  3 22  1  0  0  0  0
  4  3  1  0  0  0  0
  6  7  2  0  0  0  0
  6 11  1  0  0  0  0
  7  8  1  0  0  0  0
  8 14  1  0  0  0  0
  8  9  2  0  0  0  0
  9 15  1  0  0  0  0
 10  9  1  0  0  0  0
 10 16  1  0  0  0  0
 11 10  2  0  0  0  0
 12  6  1  0  0  0  0
 13  7  1  0  0  0  0
 17 11  1  0  0  0  0
 18 19  1  0  0  0  0
 20 18  1  0  0  0  0
 21 18  1  0  0  0  0
M  END
