Coordinates from ORCA-job C6H6+AlCl4-+NH2--N2+-scan
 OpenBabel10221816113D

 22 20  0  0  0  0  0  0  0  0999 V2000
    3.5705   -0.1812   -4.4063 N   0  0  0  0  0  0  0  0  0  0  0  0
    3.9424   -0.5234   -5.3852 N   0  0  0  0  0  0  0  0  0  0  0  0
    3.1282    0.5654   -3.1818 N   0  0  0  0  0  0  0  0  0  0  0  0
    2.4861   -0.1134   -2.7214 H   0  0  0  0  0  0  0  0  0  0  0  0
    4.0106    0.5815   -2.5919 H   0  0  0  0  0  0  0  0  0  0  0  0
    1.7255   -2.3861   -6.6421 C   0  0  0  0  0  0  0  0  0  0  0  0
    1.1166   -1.1546   -6.9008 C   0  0  0  0  0  0  0  0  0  0  0  0
    0.4352   -0.4870   -5.8844 C   0  0  0  0  0  0  0  0  0  0  0  0
    0.3638   -1.0508   -4.6078 C   0  0  0  0  0  0  0  0  0  0  0  0
    0.9713   -2.2830   -4.3495 C   0  0  0  0  0  0  0  0  0  0  0  0
    1.6512   -2.9506   -5.3684 C   0  0  0  0  0  0  0  0  0  0  0  0
    2.2494   -2.9076   -7.4356 H   0  0  0  0  0  0  0  0  0  0  0  0
    1.1662   -0.7240   -7.8950 H   0  0  0  0  0  0  0  0  0  0  0  0
   -0.0491    0.4622   -6.0862 H   0  0  0  0  0  0  0  0  0  0  0  0
   -0.1844   -0.5434   -3.8208 H   0  0  0  0  0  0  0  0  0  0  0  0
    0.9123   -2.7206   -3.3596 H   0  0  0  0  0  0  0  0  0  0  0  0
    2.1247   -3.9040   -5.1656 H   0  0  0  0  0  0  0  0  0  0  0  0
    4.4195   -1.8284   -0.8111 Al  0  0  0  0  0  0  0  0  0  0  0  0
    5.0975   -2.8099    0.9305 Cl  0  0  0  0  0  0  0  0  0  0  0  0
    5.3980    0.1387   -1.1087 Cl  0  0  0  0  0  0  0  0  0  0  0  0
    4.7340   -2.8795   -2.6759 Cl  0  0  0  0  0  0  0  0  0  0  0  0
    2.2753   -1.3409   -0.7659 Cl  0  0  0  0  0  0  0  0  0  0  0  0
  1  3  1  0  0  0  0
  2  1  1  0  0  0  0
  3  4  1  0  0  0  0
  3  5  1  0  0  0  0
  6 11  1  0  0  0  0
  7  6  2  0  0  0  0
  7  8  1  0  0  0  0
  8  9  2  0  0  0  0
  9 10  1  0  0  0  0
  9 15  1  0  0  0  0
 10 16  1  0  0  0  0
 11 17  1  0  0  0  0
 11 10  2  0  0  0  0
 12  6  1  0  0  0  0
 13  7  1  0  0  0  0
 14  8  1  0  0  0  0
 18 22  1  0  0  0  0
 18 19  1  0  0  0  0
 20 18  1  0  0  0  0
 21 18  1  0  0  0  0
M  RAD  2   1   2   2   3
M  END
