Coordinates from ORCA-job C6H6+AlCl4-+NH2--N2+-scan
 OpenBabel10221816123D

 22 19  0  0  0  0  0  0  0  0999 V2000
    6.4432   -2.8411   -5.9132 N   0  0  0  0  0  0  0  0  0  0  0  0
    7.4045   -3.1382   -5.4799 N   0  0  0  0  0  0  0  0  0  0  0  0
    1.7181    0.6044   -2.9867 N   0  0  0  0  0  0  0  0  0  0  0  0
    1.4785   -0.3411   -3.2985 H   0  0  0  0  0  0  0  0  0  0  0  0
    2.6534    0.8059   -3.3462 H   0  0  0  0  0  0  0  0  0  0  0  0
    1.4112   -0.8103   -6.4296 C   0  0  0  0  0  0  0  0  0  0  0  0
    0.1197   -0.8317   -5.9025 C   0  0  0  0  0  0  0  0  0  0  0  0
   -0.1999   -1.7207   -4.8752 C   0  0  0  0  0  0  0  0  0  0  0  0
    0.7748   -2.5851   -4.3722 C   0  0  0  0  0  0  0  0  0  0  0  0
    2.0675   -2.5633   -4.9012 C   0  0  0  0  0  0  0  0  0  0  0  0
    2.3850   -1.6771   -5.9311 C   0  0  0  0  0  0  0  0  0  0  0  0
    1.6573   -0.1225   -7.2313 H   0  0  0  0  0  0  0  0  0  0  0  0
   -0.6361   -0.1585   -6.2912 H   0  0  0  0  0  0  0  0  0  0  0  0
   -1.2052   -1.7412   -4.4689 H   0  0  0  0  0  0  0  0  0  0  0  0
    0.5299   -3.2789   -3.5755 H   0  0  0  0  0  0  0  0  0  0  0  0
    2.8229   -3.2347   -4.5098 H   0  0  0  0  0  0  0  0  0  0  0  0
    3.3876   -1.6678   -6.3440 H   0  0  0  0  0  0  0  0  0  0  0  0
    3.9667   -0.9029   -0.8205 Al  0  0  0  0  0  0  0  0  0  0  0  0
    4.3102   -0.2939    1.1659 Cl  0  0  0  0  0  0  0  0  0  0  0  0
    5.2002   -0.1105   -2.3547 Cl  0  0  0  0  0  0  0  0  0  0  0  0
    3.2890   -2.8782   -1.1371 Cl  0  0  0  0  0  0  0  0  0  0  0  0
    1.9661    0.4467   -1.2302 Cl  0  0  0  0  0  0  0  0  0  0  0  0
  1  2  3  0  0  0  0
  3 22  1  0  0  0  0
  4  3  1  0  0  0  0
  5  3  1  0  0  0  0
  6 11  2  0  0  0  0
  6  7  1  0  0  0  0
  7  8  2  0  0  0  0
  8 14  1  0  0  0  0
  8  9  1  0  0  0  0
  9 15  1  0  0  0  0
 10 16  1  0  0  0  0
 10  9  2  0  0  0  0
 11 10  1  0  0  0  0
 12  6  1  0  0  0  0
 13  7  1  0  0  0  0
 17 11  1  0  0  0  0
 18 19  1  0  0  0  0
 20 18  1  0  0  0  0
 21 18  1  0  0  0  0
M  END
