Coordinates from ORCA-job C6H6+AlCl4-+NH2--N2+-scan
 OpenBabel10221816113D

 22 19  0  0  0  0  0  0  0  0999 V2000
    4.1500    0.2311   -5.2845 N   0  0  0  0  0  0  0  0  0  0  0  0
    4.4425    1.0272   -5.9847 N   0  0  0  0  0  0  0  0  0  0  0  0
    3.5520    0.1459   -3.5026 N   0  0  0  0  0  0  0  0  0  0  0  0
    2.7497   -0.4312   -3.7954 H   0  0  0  0  0  0  0  0  0  0  0  0
    4.3006   -0.5304   -3.2931 H   0  0  0  0  0  0  0  0  0  0  0  0
    1.6523   -1.8840   -6.7794 C   0  0  0  0  0  0  0  0  0  0  0  0
    0.7975   -0.8673   -6.3535 C   0  0  0  0  0  0  0  0  0  0  0  0
    0.3267   -0.8567   -5.0398 C   0  0  0  0  0  0  0  0  0  0  0  0
    0.7127   -1.8639   -4.1516 C   0  0  0  0  0  0  0  0  0  0  0  0
    1.5727   -2.8792   -4.5786 C   0  0  0  0  0  0  0  0  0  0  0  0
    2.0411   -2.8883   -5.8926 C   0  0  0  0  0  0  0  0  0  0  0  0
    2.0119   -1.8958   -7.8026 H   0  0  0  0  0  0  0  0  0  0  0  0
    0.4917   -0.0898   -7.0451 H   0  0  0  0  0  0  0  0  0  0  0  0
   -0.3483   -0.0739   -4.7112 H   0  0  0  0  0  0  0  0  0  0  0  0
    0.3369   -1.8705   -3.1344 H   0  0  0  0  0  0  0  0  0  0  0  0
    1.8672   -3.6600   -3.8866 H   0  0  0  0  0  0  0  0  0  0  0  0
    2.7031   -3.6800   -6.2256 H   0  0  0  0  0  0  0  0  0  0  0  0
    3.6900   -1.5641   -0.4249 Al  0  0  0  0  0  0  0  0  0  0  0  0
    4.1149   -0.7681    1.4796 Cl  0  0  0  0  0  0  0  0  0  0  0  0
    5.3577   -2.1046   -1.6541 Cl  0  0  0  0  0  0  0  0  0  0  0  0
    2.0560   -2.9065   -0.5641 Cl  0  0  0  0  0  0  0  0  0  0  0  0
    2.9656    0.3697   -1.6088 Cl  0  0  0  0  0  0  0  0  0  0  0  0
  2  1  3  0  0  0  0
  3  5  1  0  0  0  0
  3 22  1  0  0  0  0
  4  3  1  0  0  0  0
  6  7  2  0  0  0  0
  6 11  1  0  0  0  0
  7  8  1  0  0  0  0
  8 14  1  0  0  0  0
  8  9  2  0  0  0  0
  9 15  1  0  0  0  0
 10  9  1  0  0  0  0
 10 16  1  0  0  0  0
 11 10  2  0  0  0  0
 12  6  1  0  0  0  0
 13  7  1  0  0  0  0
 17 11  1  0  0  0  0
 18 19  1  0  0  0  0
 20 18  1  0  0  0  0
 21 18  1  0  0  0  0
M  END
