Coordinates from ORCA-job C6H6+AlCl4-+NH2--N2+-scan
 OpenBabel10221816123D

 22 19  0  0  0  0  0  0  0  0999 V2000
    6.3586   -2.7166   -6.4345 N   0  0  0  0  0  0  0  0  0  0  0  0
    7.3824   -3.0841   -6.3049 N   0  0  0  0  0  0  0  0  0  0  0  0
    1.6737    0.6186   -2.9588 N   0  0  0  0  0  0  0  0  0  0  0  0
    1.4294   -0.3256   -3.2708 H   0  0  0  0  0  0  0  0  0  0  0  0
    2.6226    0.8045   -3.2898 H   0  0  0  0  0  0  0  0  0  0  0  0
    1.5781   -0.9028   -6.3929 C   0  0  0  0  0  0  0  0  0  0  0  0
    0.2558   -0.8543   -5.9503 C   0  0  0  0  0  0  0  0  0  0  0  0
   -0.1617   -1.6846   -4.9092 C   0  0  0  0  0  0  0  0  0  0  0  0
    0.7461   -2.5593   -4.3075 C   0  0  0  0  0  0  0  0  0  0  0  0
    2.0698   -2.6067   -4.7515 C   0  0  0  0  0  0  0  0  0  0  0  0
    2.4854   -1.7787   -5.7949 C   0  0  0  0  0  0  0  0  0  0  0  0
    1.9008   -0.2617   -7.2060 H   0  0  0  0  0  0  0  0  0  0  0  0
   -0.4478   -0.1735   -6.4163 H   0  0  0  0  0  0  0  0  0  0  0  0
   -1.1896   -1.6491   -4.5653 H   0  0  0  0  0  0  0  0  0  0  0  0
    0.4241   -3.2070   -3.4994 H   0  0  0  0  0  0  0  0  0  0  0  0
    2.7732   -3.2835   -4.2807 H   0  0  0  0  0  0  0  0  0  0  0  0
    3.5108   -1.8222   -6.1433 H   0  0  0  0  0  0  0  0  0  0  0  0
    3.8444   -0.8651   -0.6871 Al  0  0  0  0  0  0  0  0  0  0  0  0
    4.1219   -0.2058    1.2938 Cl  0  0  0  0  0  0  0  0  0  0  0  0
    5.1279   -0.1098   -2.1987 Cl  0  0  0  0  0  0  0  0  0  0  0  0
    3.1779   -2.8491   -0.9713 Cl  0  0  0  0  0  0  0  0  0  0  0  0
    1.8607    0.4760   -1.1940 Cl  0  0  0  0  0  0  0  0  0  0  0  0
  1  2  3  0  0  0  0
  3 22  1  0  0  0  0
  4  3  1  0  0  0  0
  5  3  1  0  0  0  0
  6  7  2  0  0  0  0
  6 11  1  0  0  0  0
  7  8  1  0  0  0  0
  8 14  1  0  0  0  0
  8  9  2  0  0  0  0
  9 15  1  0  0  0  0
 10  9  1  0  0  0  0
 10 16  1  0  0  0  0
 11 10  2  0  0  0  0
 12  6  1  0  0  0  0
 13  7  1  0  0  0  0
 17 11  1  0  0  0  0
 18 19  1  0  0  0  0
 20 18  1  0  0  0  0
 21 18  1  0  0  0  0
M  END
