Coordinates from ORCA-job C6H6+AlCl4-+NH2--N2+-scan
 OpenBabel10221816113D

 22 20  0  0  0  0  0  0  0  0999 V2000
    4.1294    0.2424   -5.2409 N   0  0  0  0  0  0  0  0  0  0  0  0
    4.4791    0.9968   -5.9629 N   0  0  0  0  0  0  0  0  0  0  0  0
    3.5210    0.1458   -3.5695 N   0  0  0  0  0  0  0  0  0  0  0  0
    2.7102   -0.4330   -3.8408 H   0  0  0  0  0  0  0  0  0  0  0  0
    4.2499   -0.5342   -3.2944 H   0  0  0  0  0  0  0  0  0  0  0  0
    1.6918   -1.8877   -6.7498 C   0  0  0  0  0  0  0  0  0  0  0  0
    0.8269   -0.8657   -6.3566 C   0  0  0  0  0  0  0  0  0  0  0  0
    0.3249   -0.8395   -5.0545 C   0  0  0  0  0  0  0  0  0  0  0  0
    0.6892   -1.8363   -4.1454 C   0  0  0  0  0  0  0  0  0  0  0  0
    1.5584   -2.8572   -4.5396 C   0  0  0  0  0  0  0  0  0  0  0  0
    2.0584   -2.8818   -5.8419 C   0  0  0  0  0  0  0  0  0  0  0  0
    2.0743   -1.9129   -7.7645 H   0  0  0  0  0  0  0  0  0  0  0  0
    0.5364   -0.0977   -7.0651 H   0  0  0  0  0  0  0  0  0  0  0  0
   -0.3569   -0.0526   -4.7508 H   0  0  0  0  0  0  0  0  0  0  0  0
    0.2918   -1.8288   -3.1365 H   0  0  0  0  0  0  0  0  0  0  0  0
    1.8368   -3.6286   -3.8307 H   0  0  0  0  0  0  0  0  0  0  0  0
    2.7272   -3.6780   -6.1495 H   0  0  0  0  0  0  0  0  0  0  0  0
    3.6876   -1.5567   -0.4704 Al  0  0  0  0  0  0  0  0  0  0  0  0
    4.2140   -0.8384    1.4420 Cl  0  0  0  0  0  0  0  0  0  0  0  0
    5.3264   -2.0447   -1.7817 Cl  0  0  0  0  0  0  0  0  0  0  0  0
    2.1147   -2.9811   -0.5569 Cl  0  0  0  0  0  0  0  0  0  0  0  0
    2.8529    0.3294   -1.5731 Cl  0  0  0  0  0  0  0  0  0  0  0  0
  1  3  1  0  0  0  0
  2  1  2  0  0  0  0
  3  5  1  0  0  0  0
  3 22  1  0  0  0  0
  4  3  1  0  0  0  0
  6  7  2  0  0  0  0
  6 11  1  0  0  0  0
  7  8  1  0  0  0  0
  8 14  1  0  0  0  0
  8  9  2  0  0  0  0
  9 15  1  0  0  0  0
 10  9  1  0  0  0  0
 10 16  1  0  0  0  0
 11 10  2  0  0  0  0
 12  6  1  0  0  0  0
 13  7  1  0  0  0  0
 17 11  1  0  0  0  0
 18 19  1  0  0  0  0
 20 18  1  0  0  0  0
 21 18  1  0  0  0  0
M  RAD  1   2   2
M  END
