Coordinates from ORCA-job C6H6+AlCl4-+NH2--N2+-scan
 OpenBabel10221816113D

 22 20  0  0  0  0  0  0  0  0999 V2000
    4.1344    0.2394   -5.2551 N   0  0  0  0  0  0  0  0  0  0  0  0
    4.4662    1.0086   -5.9692 N   0  0  0  0  0  0  0  0  0  0  0  0
    3.5303    0.1464   -3.5499 N   0  0  0  0  0  0  0  0  0  0  0  0
    2.7221   -0.4324   -3.8268 H   0  0  0  0  0  0  0  0  0  0  0  0
    4.2649   -0.5334   -3.2952 H   0  0  0  0  0  0  0  0  0  0  0  0
    1.6818   -1.8854   -6.7573 C   0  0  0  0  0  0  0  0  0  0  0  0
    0.8189   -0.8660   -6.3538 C   0  0  0  0  0  0  0  0  0  0  0  0
    0.3251   -0.8461   -5.0486 C   0  0  0  0  0  0  0  0  0  0  0  0
    0.6960   -1.8467   -4.1463 C   0  0  0  0  0  0  0  0  0  0  0  0
    1.5636   -2.8648   -4.5508 C   0  0  0  0  0  0  0  0  0  0  0  0
    2.0552   -2.8832   -5.8563 C   0  0  0  0  0  0  0  0  0  0  0  0
    2.0584   -1.9052   -7.7742 H   0  0  0  0  0  0  0  0  0  0  0  0
    0.5239   -0.0945   -7.0568 H   0  0  0  0  0  0  0  0  0  0  0  0
   -0.3556   -0.0612   -4.7373 H   0  0  0  0  0  0  0  0  0  0  0  0
    0.3041   -1.8448   -3.1353 H   0  0  0  0  0  0  0  0  0  0  0  0
    1.8469   -3.6396   -3.8475 H   0  0  0  0  0  0  0  0  0  0  0  0
    2.7229   -3.6773   -6.1717 H   0  0  0  0  0  0  0  0  0  0  0  0
    3.6874   -1.5594   -0.4592 Al  0  0  0  0  0  0  0  0  0  0  0  0
    4.1867   -0.8171    1.4505 Cl  0  0  0  0  0  0  0  0  0  0  0  0
    5.3316   -2.0696   -1.7474 Cl  0  0  0  0  0  0  0  0  0  0  0  0
    2.0894   -2.9525   -0.5578 Cl  0  0  0  0  0  0  0  0  0  0  0  0
    2.8904    0.3442   -1.5877 Cl  0  0  0  0  0  0  0  0  0  0  0  0
  1  3  1  0  0  0  0
  2  1  2  0  0  0  0
  3  5  1  0  0  0  0
  3 22  1  0  0  0  0
  4  3  1  0  0  0  0
  6  7  2  0  0  0  0
  6 11  1  0  0  0  0
  7  8  1  0  0  0  0
  8 14  1  0  0  0  0
  8  9  2  0  0  0  0
  9 15  1  0  0  0  0
 10  9  1  0  0  0  0
 10 16  1  0  0  0  0
 11 10  2  0  0  0  0
 12  6  1  0  0  0  0
 13  7  1  0  0  0  0
 17 11  1  0  0  0  0
 18 19  1  0  0  0  0
 20 18  1  0  0  0  0
 21 18  1  0  0  0  0
M  RAD  1   2   2
M  END
