Coordinates from ORCA-job C6H6+AlCl4-+NH2--N2+-scan
 OpenBabel10221816113D

 22 19  0  0  0  0  0  0  0  0999 V2000
    4.4395    0.2100   -5.7244 N   0  0  0  0  0  0  0  0  0  0  0  0
    4.5096    0.9477   -6.5313 N   0  0  0  0  0  0  0  0  0  0  0  0
    3.4758    0.2087   -3.2637 N   0  0  0  0  0  0  0  0  0  0  0  0
    2.7302   -0.3856   -3.6396 H   0  0  0  0  0  0  0  0  0  0  0  0
    4.3302   -0.3520   -3.2552 H   0  0  0  0  0  0  0  0  0  0  0  0
    1.6150   -1.8487   -6.7773 C   0  0  0  0  0  0  0  0  0  0  0  0
    0.7418   -0.8616   -6.3213 C   0  0  0  0  0  0  0  0  0  0  0  0
    0.2939   -0.8835   -5.0003 C   0  0  0  0  0  0  0  0  0  0  0  0
    0.7213   -1.8934   -4.1350 C   0  0  0  0  0  0  0  0  0  0  0  0
    1.5998   -2.8790   -4.5919 C   0  0  0  0  0  0  0  0  0  0  0  0
    2.0451   -2.8558   -5.9133 C   0  0  0  0  0  0  0  0  0  0  0  0
    1.9587   -1.8341   -7.8059 H   0  0  0  0  0  0  0  0  0  0  0  0
    0.4067   -0.0802   -6.9945 H   0  0  0  0  0  0  0  0  0  0  0  0
   -0.3943   -0.1226   -4.6481 H   0  0  0  0  0  0  0  0  0  0  0  0
    0.3615   -1.9258   -3.1124 H   0  0  0  0  0  0  0  0  0  0  0  0
    1.9260   -3.6632   -3.9181 H   0  0  0  0  0  0  0  0  0  0  0  0
    2.7225   -3.6240   -6.2698 H   0  0  0  0  0  0  0  0  0  0  0  0
    3.6727   -1.6655   -0.3255 Al  0  0  0  0  0  0  0  0  0  0  0  0
    3.9113   -0.8054    1.5814 Cl  0  0  0  0  0  0  0  0  0  0  0  0
    5.4065   -2.1680   -1.4415 Cl  0  0  0  0  0  0  0  0  0  0  0  0
    2.0113   -2.9383   -0.6146 Cl  0  0  0  0  0  0  0  0  0  0  0  0
    3.0594    0.3797   -1.5313 Cl  0  0  0  0  0  0  0  0  0  0  0  0
  2  1  3  0  0  0  0
  3  5  1  0  0  0  0
  3 22  1  0  0  0  0
  4  3  1  0  0  0  0
  6  7  2  0  0  0  0
  6 11  1  0  0  0  0
  7  8  1  0  0  0  0
  8 14  1  0  0  0  0
  8  9  2  0  0  0  0
  9 15  1  0  0  0  0
 10  9  1  0  0  0  0
 10 16  1  0  0  0  0
 11 10  2  0  0  0  0
 12  6  1  0  0  0  0
 13  7  1  0  0  0  0
 17 11  1  0  0  0  0
 18 19  1  0  0  0  0
 20 18  1  0  0  0  0
 21 18  1  0  0  0  0
M  END
