Coordinates from ORCA-job C6H6+AlCl4-+NH2--N2+-scan
 OpenBabel10221816123D

 22 19  0  0  0  0  0  0  0  0999 V2000
    6.3593   -2.7692   -5.7886 N   0  0  0  0  0  0  0  0  0  0  0  0
    7.3092   -3.0558   -5.3242 N   0  0  0  0  0  0  0  0  0  0  0  0
    1.7615    0.5972   -3.0120 N   0  0  0  0  0  0  0  0  0  0  0  0
    1.5106   -0.3481   -3.3154 H   0  0  0  0  0  0  0  0  0  0  0  0
    2.6970    0.7858   -3.3779 H   0  0  0  0  0  0  0  0  0  0  0  0
    1.3942   -0.8057   -6.4353 C   0  0  0  0  0  0  0  0  0  0  0  0
    0.1031   -0.8401   -5.9078 C   0  0  0  0  0  0  0  0  0  0  0  0
   -0.2075   -1.7327   -4.8811 C   0  0  0  0  0  0  0  0  0  0  0  0
    0.7755   -2.5883   -4.3793 C   0  0  0  0  0  0  0  0  0  0  0  0
    2.0678   -2.5536   -4.9087 C   0  0  0  0  0  0  0  0  0  0  0  0
    2.3766   -1.6632   -5.9376 C   0  0  0  0  0  0  0  0  0  0  0  0
    1.6334   -0.1145   -7.2362 H   0  0  0  0  0  0  0  0  0  0  0  0
   -0.6593   -0.1738   -6.2956 H   0  0  0  0  0  0  0  0  0  0  0  0
   -1.2123   -1.7629   -4.4741 H   0  0  0  0  0  0  0  0  0  0  0  0
    0.5376   -3.2850   -3.5830 H   0  0  0  0  0  0  0  0  0  0  0  0
    2.8298   -3.2180   -4.5180 H   0  0  0  0  0  0  0  0  0  0  0  0
    3.3794   -1.6433   -6.3497 H   0  0  0  0  0  0  0  0  0  0  0  0
    3.9953   -0.9323   -0.8469 Al  0  0  0  0  0  0  0  0  0  0  0  0
    4.3633   -0.3125    1.1317 Cl  0  0  0  0  0  0  0  0  0  0  0  0
    5.2338   -0.1771   -2.3959 Cl  0  0  0  0  0  0  0  0  0  0  0  0
    3.2792   -2.8973   -1.1421 Cl  0  0  0  0  0  0  0  0  0  0  0  0
    2.0172    0.4499   -1.2558 Cl  0  0  0  0  0  0  0  0  0  0  0  0
  1  2  3  0  0  0  0
  3 22  1  0  0  0  0
  4  3  1  0  0  0  0
  5  3  1  0  0  0  0
  6 11  2  0  0  0  0
  6  7  1  0  0  0  0
  7  8  2  0  0  0  0
  8 14  1  0  0  0  0
  8  9  1  0  0  0  0
  9 15  1  0  0  0  0
 10 16  1  0  0  0  0
 10  9  2  0  0  0  0
 11 10  1  0  0  0  0
 12  6  1  0  0  0  0
 13  7  1  0  0  0  0
 17 11  1  0  0  0  0
 18 19  1  0  0  0  0
 20 18  1  0  0  0  0
 21 18  1  0  0  0  0
M  END
