Coordinates from ORCA-job C6H6+AlCl4-+NH2--N2+-scan
 OpenBabel10221816113D

 22 19  0  0  0  0  0  0  0  0999 V2000
    4.8411    0.1431   -5.8395 N   0  0  0  0  0  0  0  0  0  0  0  0
    4.9374    0.7522   -6.7448 N   0  0  0  0  0  0  0  0  0  0  0  0
    3.3118    0.1893   -3.3369 N   0  0  0  0  0  0  0  0  0  0  0  0
    2.5767   -0.4479   -3.6573 H   0  0  0  0  0  0  0  0  0  0  0  0
    4.1983   -0.3145   -3.3909 H   0  0  0  0  0  0  0  0  0  0  0  0
    1.6848   -1.7057   -6.6538 C   0  0  0  0  0  0  0  0  0  0  0  0
    0.7017   -0.8185   -6.2162 C   0  0  0  0  0  0  0  0  0  0  0  0
    0.1485   -0.9632   -4.9436 C   0  0  0  0  0  0  0  0  0  0  0  0
    0.5806   -1.9952   -4.1076 C   0  0  0  0  0  0  0  0  0  0  0  0
    1.5674   -2.8818   -4.5458 C   0  0  0  0  0  0  0  0  0  0  0  0
    2.1181   -2.7366   -5.8194 C   0  0  0  0  0  0  0  0  0  0  0  0
    2.1111   -1.5953   -7.6448 H   0  0  0  0  0  0  0  0  0  0  0  0
    0.3647   -0.0184   -6.8660 H   0  0  0  0  0  0  0  0  0  0  0  0
   -0.6216   -0.2783   -4.6056 H   0  0  0  0  0  0  0  0  0  0  0  0
    0.1468   -2.1177   -3.1214 H   0  0  0  0  0  0  0  0  0  0  0  0
    1.8990   -3.6826   -3.8947 H   0  0  0  0  0  0  0  0  0  0  0  0
    2.8805   -3.4279   -6.1613 H   0  0  0  0  0  0  0  0  0  0  0  0
    3.6882   -1.6544   -0.3982 Al  0  0  0  0  0  0  0  0  0  0  0  0
    4.0015   -0.7681    1.4865 Cl  0  0  0  0  0  0  0  0  0  0  0  0
    5.3756   -2.1629   -1.5786 Cl  0  0  0  0  0  0  0  0  0  0  0  0
    2.0195   -2.9342   -0.6012 Cl  0  0  0  0  0  0  0  0  0  0  0  0
    3.0128    0.3779   -1.5926 Cl  0  0  0  0  0  0  0  0  0  0  0  0
  2  1  3  0  0  0  0
  3 22  1  0  0  0  0
  4  3  1  0  0  0  0
  5  3  1  0  0  0  0
  6  7  2  0  0  0  0
  6 11  1  0  0  0  0
  7  8  1  0  0  0  0
  8 14  1  0  0  0  0
  8  9  2  0  0  0  0
  9 15  1  0  0  0  0
 10  9  1  0  0  0  0
 10 16  1  0  0  0  0
 11 10  2  0  0  0  0
 12  6  1  0  0  0  0
 13  7  1  0  0  0  0
 17 11  1  0  0  0  0
 18 19  1  0  0  0  0
 20 18  1  0  0  0  0
 21 18  1  0  0  0  0
M  END
