Coordinates from ORCA-job C6H6+AlCl4-+NH2--N2+-scan
 OpenBabel10221816113D

 22 19  0  0  0  0  0  0  0  0999 V2000
    4.4336    0.2104   -5.7112 N   0  0  0  0  0  0  0  0  0  0  0  0
    4.5036    0.9512   -6.5153 N   0  0  0  0  0  0  0  0  0  0  0  0
    3.4774    0.2074   -3.2690 N   0  0  0  0  0  0  0  0  0  0  0  0
    2.7307   -0.3867   -3.6435 H   0  0  0  0  0  0  0  0  0  0  0  0
    4.3299   -0.3564   -3.2574 H   0  0  0  0  0  0  0  0  0  0  0  0
    1.6153   -1.8503   -6.7777 C   0  0  0  0  0  0  0  0  0  0  0  0
    0.7431   -0.8620   -6.3222 C   0  0  0  0  0  0  0  0  0  0  0  0
    0.2957   -0.8824   -5.0010 C   0  0  0  0  0  0  0  0  0  0  0  0
    0.7224   -1.8920   -4.1349 C   0  0  0  0  0  0  0  0  0  0  0  0
    1.5998   -2.8788   -4.5914 C   0  0  0  0  0  0  0  0  0  0  0  0
    2.0447   -2.8571   -5.9130 C   0  0  0  0  0  0  0  0  0  0  0  0
    1.9586   -1.8369   -7.8064 H   0  0  0  0  0  0  0  0  0  0  0  0
    0.4085   -0.0809   -6.9959 H   0  0  0  0  0  0  0  0  0  0  0  0
   -0.3918   -0.1207   -4.6492 H   0  0  0  0  0  0  0  0  0  0  0  0
    0.3631   -1.9230   -3.1122 H   0  0  0  0  0  0  0  0  0  0  0  0
    1.9255   -3.6628   -3.9171 H   0  0  0  0  0  0  0  0  0  0  0  0
    2.7213   -3.6262   -6.2690 H   0  0  0  0  0  0  0  0  0  0  0  0
    3.6730   -1.6643   -0.3285 Al  0  0  0  0  0  0  0  0  0  0  0  0
    3.9137   -0.8032    1.5776 Cl  0  0  0  0  0  0  0  0  0  0  0  0
    5.4059   -2.1681   -1.4456 Cl  0  0  0  0  0  0  0  0  0  0  0  0
    2.0114   -2.9376   -0.6150 Cl  0  0  0  0  0  0  0  0  0  0  0  0
    3.0593    0.3797   -1.5357 Cl  0  0  0  0  0  0  0  0  0  0  0  0
  2  1  3  0  0  0  0
  3  5  1  0  0  0  0
  3 22  1  0  0  0  0
  4  3  1  0  0  0  0
  6  7  2  0  0  0  0
  6 11  1  0  0  0  0
  7  8  1  0  0  0  0
  8 14  1  0  0  0  0
  8  9  2  0  0  0  0
  9 15  1  0  0  0  0
 10  9  1  0  0  0  0
 10 16  1  0  0  0  0
 11 10  2  0  0  0  0
 12  6  1  0  0  0  0
 13  7  1  0  0  0  0
 17 11  1  0  0  0  0
 18 19  1  0  0  0  0
 20 18  1  0  0  0  0
 21 18  1  0  0  0  0
M  END
