Coordinates from ORCA-job C6H6+AlCl4-+NH2--N2+-scan
 OpenBabel10221816113D

 22 19  0  0  0  0  0  0  0  0999 V2000
    4.8937    0.1472   -5.8960 N   0  0  0  0  0  0  0  0  0  0  0  0
    4.9880    0.7280   -6.8199 N   0  0  0  0  0  0  0  0  0  0  0  0
    3.2904    0.1963   -3.3215 N   0  0  0  0  0  0  0  0  0  0  0  0
    2.5604   -0.4447   -3.6457 H   0  0  0  0  0  0  0  0  0  0  0  0
    4.1825   -0.2961   -3.3835 H   0  0  0  0  0  0  0  0  0  0  0  0
    1.6860   -1.6972   -6.6458 C   0  0  0  0  0  0  0  0  0  0  0  0
    0.6968   -0.8166   -6.2085 C   0  0  0  0  0  0  0  0  0  0  0  0
    0.1409   -0.9678   -4.9379 C   0  0  0  0  0  0  0  0  0  0  0  0
    0.5762   -1.9999   -4.1037 C   0  0  0  0  0  0  0  0  0  0  0  0
    1.5689   -2.8801   -4.5416 C   0  0  0  0  0  0  0  0  0  0  0  0
    2.1224   -2.7282   -5.8132 C   0  0  0  0  0  0  0  0  0  0  0  0
    2.1145   -1.5815   -7.6353 H   0  0  0  0  0  0  0  0  0  0  0  0
    0.3575   -0.0163   -6.8569 H   0  0  0  0  0  0  0  0  0  0  0  0
   -0.6336   -0.2879   -4.5999 H   0  0  0  0  0  0  0  0  0  0  0  0
    0.1408   -2.1275   -3.1190 H   0  0  0  0  0  0  0  0  0  0  0  0
    1.9031   -3.6807   -3.8916 H   0  0  0  0  0  0  0  0  0  0  0  0
    2.8895   -3.4144   -6.1550 H   0  0  0  0  0  0  0  0  0  0  0  0
    3.6836   -1.6615   -0.3942 Al  0  0  0  0  0  0  0  0  0  0  0  0
    3.9960   -0.7821    1.4939 Cl  0  0  0  0  0  0  0  0  0  0  0  0
    5.3710   -2.1559   -1.5803 Cl  0  0  0  0  0  0  0  0  0  0  0  0
    2.0201   -2.9475   -0.6004 Cl  0  0  0  0  0  0  0  0  0  0  0  0
    2.9959    0.3738   -1.5774 Cl  0  0  0  0  0  0  0  0  0  0  0  0
  2  1  3  0  0  0  0
  3 22  1  0  0  0  0
  4  3  1  0  0  0  0
  5  3  1  0  0  0  0
  6  7  2  0  0  0  0
  6 11  1  0  0  0  0
  7  8  1  0  0  0  0
  8 14  1  0  0  0  0
  8  9  2  0  0  0  0
  9 15  1  0  0  0  0
 10  9  1  0  0  0  0
 10 16  1  0  0  0  0
 11 10  2  0  0  0  0
 12  6  1  0  0  0  0
 13  7  1  0  0  0  0
 17 11  1  0  0  0  0
 18 19  1  0  0  0  0
 20 18  1  0  0  0  0
 21 18  1  0  0  0  0
M  END
