Coordinates from ORCA-job C6H6+AlCl4-+NH2--N2+-scan
 OpenBabel10221816113D

 22 19  0  0  0  0  0  0  0  0999 V2000
    6.9790   -0.4463   -5.6294 N   0  0  0  0  0  0  0  0  0  0  0  0
    8.0198   -0.7847   -5.6778 N   0  0  0  0  0  0  0  0  0  0  0  0
    2.4893    0.3838   -3.3868 N   0  0  0  0  0  0  0  0  0  0  0  0
    1.8774   -0.4301   -3.4925 H   0  0  0  0  0  0  0  0  0  0  0  0
    3.4101    0.1084   -3.7336 H   0  0  0  0  0  0  0  0  0  0  0  0
    1.3725   -1.3109   -6.4926 C   0  0  0  0  0  0  0  0  0  0  0  0
    0.1644   -0.8040   -6.0135 C   0  0  0  0  0  0  0  0  0  0  0  0
   -0.3929   -1.3190   -4.8430 C   0  0  0  0  0  0  0  0  0  0  0  0
    0.2596   -2.3402   -4.1494 C   0  0  0  0  0  0  0  0  0  0  0  0
    1.4689   -2.8486   -4.6299 C   0  0  0  0  0  0  0  0  0  0  0  0
    2.0243   -2.3336   -5.8022 C   0  0  0  0  0  0  0  0  0  0  0  0
    1.8039   -0.9115   -7.4039 H   0  0  0  0  0  0  0  0  0  0  0  0
   -0.3411   -0.0091   -6.5505 H   0  0  0  0  0  0  0  0  0  0  0  0
   -1.3335   -0.9270   -4.4719 H   0  0  0  0  0  0  0  0  0  0  0  0
   -0.1716   -2.7440   -3.2401 H   0  0  0  0  0  0  0  0  0  0  0  0
    1.9739   -3.6410   -4.0894 H   0  0  0  0  0  0  0  0  0  0  0  0
    2.9614   -2.7305   -6.1767 H   0  0  0  0  0  0  0  0  0  0  0  0
    3.9264   -1.4087   -0.7875 Al  0  0  0  0  0  0  0  0  0  0  0  0
    4.5250   -0.5843    1.0560 Cl  0  0  0  0  0  0  0  0  0  0  0  0
    5.3704   -1.6033   -2.3290 Cl  0  0  0  0  0  0  0  0  0  0  0  0
    2.4324   -2.9026   -0.7597 Cl  0  0  0  0  0  0  0  0  0  0  0  0
    2.7250    0.5465   -1.6302 Cl  0  0  0  0  0  0  0  0  0  0  0  0
  2  1  3  0  0  0  0
  3 22  1  0  0  0  0
  4  3  1  0  0  0  0
  5  3  1  0  0  0  0
  6  7  2  0  0  0  0
  6 11  1  0  0  0  0
  7  8  1  0  0  0  0
  8 14  1  0  0  0  0
  8  9  2  0  0  0  0
  9 15  1  0  0  0  0
 10  9  1  0  0  0  0
 10 16  1  0  0  0  0
 11 10  2  0  0  0  0
 12  6  1  0  0  0  0
 13  7  1  0  0  0  0
 17 11  1  0  0  0  0
 18 21  1  0  0  0  0
 18 19  1  0  0  0  0
 20 18  1  0  0  0  0
M  END
