Coordinates from ORCA-job C6H6+AlCl4-+NH2--N2+-scan
 OpenBabel10221816123D

 22 19  0  0  0  0  0  0  0  0999 V2000
    7.3401   -0.6797   -5.6212 N   0  0  0  0  0  0  0  0  0  0  0  0
    8.3090   -1.0297   -5.2483 N   0  0  0  0  0  0  0  0  0  0  0  0
    2.3877    0.4138   -3.3981 N   0  0  0  0  0  0  0  0  0  0  0  0
    1.8049   -0.4211   -3.5054 H   0  0  0  0  0  0  0  0  0  0  0  0
    3.3124    0.1757   -3.7621 H   0  0  0  0  0  0  0  0  0  0  0  0
    1.2825   -1.2473   -6.4817 C   0  0  0  0  0  0  0  0  0  0  0  0
    0.0629   -0.8056   -5.9682 C   0  0  0  0  0  0  0  0  0  0  0  0
   -0.4546   -1.3808   -4.8074 C   0  0  0  0  0  0  0  0  0  0  0  0
    0.2493   -2.3969   -4.1579 C   0  0  0  0  0  0  0  0  0  0  0  0
    1.4700   -2.8400   -4.6727 C   0  0  0  0  0  0  0  0  0  0  0  0
    1.9856   -2.2650   -5.8353 C   0  0  0  0  0  0  0  0  0  0  0  0
    1.6831   -0.8013   -7.3854 H   0  0  0  0  0  0  0  0  0  0  0  0
   -0.4823   -0.0145   -6.4708 H   0  0  0  0  0  0  0  0  0  0  0  0
   -1.4040   -1.0395   -4.4097 H   0  0  0  0  0  0  0  0  0  0  0  0
   -0.1510   -2.8471   -3.2563 H   0  0  0  0  0  0  0  0  0  0  0  0
    2.0150   -3.6284   -4.1664 H   0  0  0  0  0  0  0  0  0  0  0  0
    2.9316   -2.6113   -6.2366 H   0  0  0  0  0  0  0  0  0  0  0  0
    3.9864   -1.3366   -0.8739 Al  0  0  0  0  0  0  0  0  0  0  0  0
    4.5901   -0.5188    0.9704 Cl  0  0  0  0  0  0  0  0  0  0  0  0
    5.3899   -1.4035   -2.4642 Cl  0  0  0  0  0  0  0  0  0  0  0  0
    2.5902   -2.9217   -0.8401 Cl  0  0  0  0  0  0  0  0  0  0  0  0
    2.6458    0.5586   -1.6424 Cl  0  0  0  0  0  0  0  0  0  0  0  0
  1  2  3  0  0  0  0
  3 22  1  0  0  0  0
  4  3  1  0  0  0  0
  5  3  1  0  0  0  0
  6  7  2  0  0  0  0
  6 11  1  0  0  0  0
  7  8  1  0  0  0  0
  8 14  1  0  0  0  0
  8  9  2  0  0  0  0
  9 15  1  0  0  0  0
 10 16  1  0  0  0  0
 10  9  1  0  0  0  0
 11 10  2  0  0  0  0
 12  6  1  0  0  0  0
 13  7  1  0  0  0  0
 17 11  1  0  0  0  0
 18 21  1  0  0  0  0
 18 19  1  0  0  0  0
 20 18  1  0  0  0  0
M  END
