Coordinates from ORCA-job C6H6+AlCl4-+NH2--N2+-scan
 OpenBabel10221816113D

 22 19  0  0  0  0  0  0  0  0999 V2000
    6.8365   -0.3822   -5.6329 N   0  0  0  0  0  0  0  0  0  0  0  0
    7.8789   -0.6995   -5.7471 N   0  0  0  0  0  0  0  0  0  0  0  0
    2.5281    0.3697   -3.3870 N   0  0  0  0  0  0  0  0  0  0  0  0
    1.9041   -0.4351   -3.4921 H   0  0  0  0  0  0  0  0  0  0  0  0
    3.4469    0.0792   -3.7267 H   0  0  0  0  0  0  0  0  0  0  0  0
    1.4033   -1.3318   -6.4953 C   0  0  0  0  0  0  0  0  0  0  0  0
    0.2009   -0.8013   -6.0277 C   0  0  0  0  0  0  0  0  0  0  0  0
   -0.3711   -1.2966   -4.8557 C   0  0  0  0  0  0  0  0  0  0  0  0
    0.2611   -2.3218   -4.1492 C   0  0  0  0  0  0  0  0  0  0  0  0
    1.4648   -2.8538   -4.6183 C   0  0  0  0  0  0  0  0  0  0  0  0
    2.0348   -2.3584   -5.7920 C   0  0  0  0  0  0  0  0  0  0  0  0
    1.8462   -0.9477   -7.4077 H   0  0  0  0  0  0  0  0  0  0  0  0
   -0.2888   -0.0034   -6.5747 H   0  0  0  0  0  0  0  0  0  0  0  0
   -1.3073   -0.8862   -4.4935 H   0  0  0  0  0  0  0  0  0  0  0  0
   -0.1815   -2.7104   -3.2389 H   0  0  0  0  0  0  0  0  0  0  0  0
    1.9540   -3.6492   -4.0678 H   0  0  0  0  0  0  0  0  0  0  0  0
    2.9676   -2.7737   -6.1575 H   0  0  0  0  0  0  0  0  0  0  0  0
    3.9195   -1.4273   -0.7691 Al  0  0  0  0  0  0  0  0  0  0  0  0
    4.5216   -0.6023    1.0730 Cl  0  0  0  0  0  0  0  0  0  0  0  0
    5.3687   -1.6523   -2.3021 Cl  0  0  0  0  0  0  0  0  0  0  0  0
    2.4025   -2.8978   -0.7410 Cl  0  0  0  0  0  0  0  0  0  0  0  0
    2.7536    0.5412   -1.6303 Cl  0  0  0  0  0  0  0  0  0  0  0  0
  2  1  3  0  0  0  0
  3 22  1  0  0  0  0
  4  3  1  0  0  0  0
  5  3  1  0  0  0  0
  6  7  2  0  0  0  0
  6 11  1  0  0  0  0
  7  8  1  0  0  0  0
  8 14  1  0  0  0  0
  8  9  2  0  0  0  0
  9 15  1  0  0  0  0
 10  9  1  0  0  0  0
 10 16  1  0  0  0  0
 11 10  2  0  0  0  0
 12  6  1  0  0  0  0
 13  7  1  0  0  0  0
 17 11  1  0  0  0  0
 18 21  1  0  0  0  0
 18 19  1  0  0  0  0
 20 18  1  0  0  0  0
M  END
