Coordinates from ORCA-job C6H6+AlCl4-+NH2--N2+-scan
 OpenBabel10221816113D

 22 20  0  0  0  0  0  0  0  0999 V2000
    3.8896   -0.3420   -4.7170 N   0  0  0  0  0  0  0  0  0  0  0  0
    3.9874   -0.1500   -5.8229 N   0  0  0  0  0  0  0  0  0  0  0  0
    3.8233   -0.5153   -3.6224 N   0  0  0  0  0  0  0  0  0  0  0  0
    3.0364   -1.0195   -3.1361 H   0  0  0  0  0  0  0  0  0  0  0  0
    4.5811   -0.1988   -2.8864 H   0  0  0  0  0  0  0  0  0  0  0  0
    1.3440   -1.9527   -7.0375 C   0  0  0  0  0  0  0  0  0  0  0  0
    0.6962   -0.7408   -6.7962 C   0  0  0  0  0  0  0  0  0  0  0  0
    0.2397   -0.4366   -5.5136 C   0  0  0  0  0  0  0  0  0  0  0  0
    0.4285   -1.3459   -4.4713 C   0  0  0  0  0  0  0  0  0  0  0  0
    1.0781   -2.5594   -4.7126 C   0  0  0  0  0  0  0  0  0  0  0  0
    1.5364   -2.8612   -5.9965 C   0  0  0  0  0  0  0  0  0  0  0  0
    1.6936   -2.1906   -8.0360 H   0  0  0  0  0  0  0  0  0  0  0  0
    0.5427   -0.0377   -7.6073 H   0  0  0  0  0  0  0  0  0  0  0  0
   -0.2741    0.5005   -5.3284 H   0  0  0  0  0  0  0  0  0  0  0  0
    0.0562   -1.1206   -3.4779 H   0  0  0  0  0  0  0  0  0  0  0  0
    1.2089   -3.2722   -3.9057 H   0  0  0  0  0  0  0  0  0  0  0  0
    2.0307   -3.8077   -6.1863 H   0  0  0  0  0  0  0  0  0  0  0  0
    4.3350   -1.4597   -0.0847 Al  0  0  0  0  0  0  0  0  0  0  0  0
    4.0094   -0.6683    1.8462 Cl  0  0  0  0  0  0  0  0  0  0  0  0
    5.4813    0.0626   -1.3021 Cl  0  0  0  0  0  0  0  0  0  0  0  0
    5.3875   -3.2972   -0.2296 Cl  0  0  0  0  0  0  0  0  0  0  0  0
    2.4329   -1.6274   -1.2092 Cl  0  0  0  0  0  0  0  0  0  0  0  0
  1  3  1  0  0  0  0
  2  1  1  0  0  0  0
  3  4  1  0  0  0  0
  3  5  1  0  0  0  0
  6  7  2  0  0  0  0
  6 11  1  0  0  0  0
  7  8  1  0  0  0  0
  8 14  1  0  0  0  0
  8  9  2  0  0  0  0
  9 15  1  0  0  0  0
 10  9  1  0  0  0  0
 10 16  1  0  0  0  0
 11 10  2  0  0  0  0
 12  6  1  0  0  0  0
 13  7  1  0  0  0  0
 17 11  1  0  0  0  0
 18 19  1  0  0  0  0
 20 18  1  0  0  0  0
 21 18  1  0  0  0  0
 22 18  1  0  0  0  0
M  RAD  2   1   2   2   3
M  END
