Coordinates from ORCA-job C6H6+AlCl4-+NH2--N2+-scan
 OpenBabel10221816113D

 22 19  0  0  0  0  0  0  0  0999 V2000
    5.7487   -0.2157   -5.2842 N   0  0  0  0  0  0  0  0  0  0  0  0
    6.6637   -0.4158   -5.8519 N   0  0  0  0  0  0  0  0  0  0  0  0
    2.8016    0.3385   -3.4521 N   0  0  0  0  0  0  0  0  0  0  0  0
    2.1397   -0.4372   -3.5390 H   0  0  0  0  0  0  0  0  0  0  0  0
    3.7074    0.0082   -3.7905 H   0  0  0  0  0  0  0  0  0  0  0  0
    1.5136   -1.4118   -6.5702 C   0  0  0  0  0  0  0  0  0  0  0  0
    0.3620   -0.7948   -6.0818 C   0  0  0  0  0  0  0  0  0  0  0  0
   -0.1947   -1.2138   -4.8733 C   0  0  0  0  0  0  0  0  0  0  0  0
    0.4024   -2.2490   -4.1510 C   0  0  0  0  0  0  0  0  0  0  0  0
    1.5559   -2.8666   -4.6403 C   0  0  0  0  0  0  0  0  0  0  0  0
    2.1102   -2.4480   -5.8506 C   0  0  0  0  0  0  0  0  0  0  0  0
    1.9436   -1.0877   -7.5116 H   0  0  0  0  0  0  0  0  0  0  0  0
   -0.1007    0.0105   -6.6413 H   0  0  0  0  0  0  0  0  0  0  0  0
   -1.0921   -0.7367   -4.4950 H   0  0  0  0  0  0  0  0  0  0  0  0
   -0.0282   -2.5788   -3.2122 H   0  0  0  0  0  0  0  0  0  0  0  0
    2.0175   -3.6702   -4.0778 H   0  0  0  0  0  0  0  0  0  0  0  0
    3.0027   -2.9313   -6.2328 H   0  0  0  0  0  0  0  0  0  0  0  0
    3.8910   -1.4947   -0.6781 Al  0  0  0  0  0  0  0  0  0  0  0  0
    4.4804   -0.6294    1.1509 Cl  0  0  0  0  0  0  0  0  0  0  0  0
    5.3888   -2.0082   -2.0857 Cl  0  0  0  0  0  0  0  0  0  0  0  0
    2.1982   -2.7603   -0.6627 Cl  0  0  0  0  0  0  0  0  0  0  0  0
    3.0328    0.5522   -1.7025 Cl  0  0  0  0  0  0  0  0  0  0  0  0
  2  1  3  0  0  0  0
  3 22  1  0  0  0  0
  4  3  1  0  0  0  0
  5  3  1  0  0  0  0
  6  7  2  0  0  0  0
  6 11  1  0  0  0  0
  7  8  1  0  0  0  0
  8 14  1  0  0  0  0
  8  9  2  0  0  0  0
  9 15  1  0  0  0  0
 10  9  1  0  0  0  0
 10 16  1  0  0  0  0
 11 10  2  0  0  0  0
 12  6  1  0  0  0  0
 13  7  1  0  0  0  0
 17 11  1  0  0  0  0
 18 21  1  0  0  0  0
 18 19  1  0  0  0  0
 20 18  1  0  0  0  0
M  END
