Coordinates from ORCA-job C6H6+AlCl4-+NH2--N2+-scan
 OpenBabel10221816113D

 22 19  0  0  0  0  0  0  0  0999 V2000
    4.2673    0.2156   -5.5339 N   0  0  0  0  0  0  0  0  0  0  0  0
    4.4014    1.0224   -6.2635 N   0  0  0  0  0  0  0  0  0  0  0  0
    3.5549    0.1866   -3.3133 N   0  0  0  0  0  0  0  0  0  0  0  0
    2.7888   -0.3920   -3.6751 H   0  0  0  0  0  0  0  0  0  0  0  0
    4.3749   -0.4225   -3.2535 H   0  0  0  0  0  0  0  0  0  0  0  0
    1.5953   -1.8814   -6.8137 C   0  0  0  0  0  0  0  0  0  0  0  0
    0.7490   -0.8735   -6.3523 C   0  0  0  0  0  0  0  0  0  0  0  0
    0.3236   -0.8746   -5.0237 C   0  0  0  0  0  0  0  0  0  0  0  0
    0.7466   -1.8844   -4.1561 C   0  0  0  0  0  0  0  0  0  0  0  0
    1.5984   -2.8905   -4.6185 C   0  0  0  0  0  0  0  0  0  0  0  0
    2.0213   -2.8882   -5.9474 C   0  0  0  0  0  0  0  0  0  0  0  0
    1.9212   -1.8831   -7.8481 H   0  0  0  0  0  0  0  0  0  0  0  0
    0.4168   -0.0924   -7.0273 H   0  0  0  0  0  0  0  0  0  0  0  0
   -0.3445   -0.0980   -4.6671 H   0  0  0  0  0  0  0  0  0  0  0  0
    0.4029   -1.9021   -3.1277 H   0  0  0  0  0  0  0  0  0  0  0  0
    1.9210   -3.6746   -3.9427 H   0  0  0  0  0  0  0  0  0  0  0  0
    2.6779   -3.6724   -6.3080 H   0  0  0  0  0  0  0  0  0  0  0  0
    3.6808   -1.6257   -0.3279 Al  0  0  0  0  0  0  0  0  0  0  0  0
    3.9389   -0.7534    1.5707 Cl  0  0  0  0  0  0  0  0  0  0  0  0
    5.4076   -2.1783   -1.4350 Cl  0  0  0  0  0  0  0  0  0  0  0  0
    2.0001   -2.8773   -0.6010 Cl  0  0  0  0  0  0  0  0  0  0  0  0
    3.1007    0.3993   -1.5688 Cl  0  0  0  0  0  0  0  0  0  0  0  0
  2  1  3  0  0  0  0
  3  5  1  0  0  0  0
  3 22  1  0  0  0  0
  4  3  1  0  0  0  0
  6  7  2  0  0  0  0
  6 11  1  0  0  0  0
  7  8  1  0  0  0  0
  8 14  1  0  0  0  0
  8  9  2  0  0  0  0
  9 15  1  0  0  0  0
 10  9  1  0  0  0  0
 10 16  1  0  0  0  0
 11 10  2  0  0  0  0
 12  6  1  0  0  0  0
 13  7  1  0  0  0  0
 17 11  1  0  0  0  0
 18 19  1  0  0  0  0
 20 18  1  0  0  0  0
 21 18  1  0  0  0  0
M  END
