Coordinates from ORCA-job C6H6+AlCl4-+NH2--N2+-scan
 OpenBabel10221816123D

 22 19  0  0  0  0  0  0  0  0999 V2000
    7.3708   -0.6929   -5.6287 N   0  0  0  0  0  0  0  0  0  0  0  0
    8.3370   -1.0425   -5.2487 N   0  0  0  0  0  0  0  0  0  0  0  0
    2.3810    0.4173   -3.3973 N   0  0  0  0  0  0  0  0  0  0  0  0
    1.8010   -0.4195   -3.5047 H   0  0  0  0  0  0  0  0  0  0  0  0
    3.3059    0.1827   -3.7630 H   0  0  0  0  0  0  0  0  0  0  0  0
    1.2768   -1.2437   -6.4814 C   0  0  0  0  0  0  0  0  0  0  0  0
    0.0565   -0.8070   -5.9653 C   0  0  0  0  0  0  0  0  0  0  0  0
   -0.4571   -1.3855   -4.8044 C   0  0  0  0  0  0  0  0  0  0  0  0
    0.2515   -2.3999   -4.1573 C   0  0  0  0  0  0  0  0  0  0  0  0
    1.4729   -2.8381   -4.6748 C   0  0  0  0  0  0  0  0  0  0  0  0
    1.9845   -2.2597   -5.8375 C   0  0  0  0  0  0  0  0  0  0  0  0
    1.6742   -0.7951   -7.3852 H   0  0  0  0  0  0  0  0  0  0  0  0
   -0.4924   -0.0173   -6.4660 H   0  0  0  0  0  0  0  0  0  0  0  0
   -1.4071   -1.0482   -4.4047 H   0  0  0  0  0  0  0  0  0  0  0  0
   -0.1456   -2.8527   -3.2556 H   0  0  0  0  0  0  0  0  0  0  0  0
    2.0216   -3.6251   -4.1704 H   0  0  0  0  0  0  0  0  0  0  0  0
    2.9312   -2.6022   -6.2408 H   0  0  0  0  0  0  0  0  0  0  0  0
    3.9821   -1.3344   -0.8738 Al  0  0  0  0  0  0  0  0  0  0  0  0
    4.5830   -0.5163    0.9713 Cl  0  0  0  0  0  0  0  0  0  0  0  0
    5.3897   -1.4027   -2.4606 Cl  0  0  0  0  0  0  0  0  0  0  0  0
    2.5850   -2.9186   -0.8428 Cl  0  0  0  0  0  0  0  0  0  0  0  0
    2.6418    0.5609   -1.6418 Cl  0  0  0  0  0  0  0  0  0  0  0  0
  1  2  3  0  0  0  0
  3 22  1  0  0  0  0
  4  3  1  0  0  0  0
  5  3  1  0  0  0  0
  6  7  2  0  0  0  0
  6 11  1  0  0  0  0
  7  8  1  0  0  0  0
  8 14  1  0  0  0  0
  8  9  2  0  0  0  0
  9 15  1  0  0  0  0
 10 16  1  0  0  0  0
 10  9  1  0  0  0  0
 11 10  2  0  0  0  0
 12  6  1  0  0  0  0
 13  7  1  0  0  0  0
 17 11  1  0  0  0  0
 18 21  1  0  0  0  0
 18 19  1  0  0  0  0
 20 18  1  0  0  0  0
M  END
