Coordinates from ORCA-job C6H6+AlCl4-+NH2--N2+-scan
 OpenBabel10221816113D

 22 19  0  0  0  0  0  0  0  0999 V2000
    4.2697    0.2141   -5.5479 N   0  0  0  0  0  0  0  0  0  0  0  0
    4.4037    1.0168   -6.2820 N   0  0  0  0  0  0  0  0  0  0  0  0
    3.5527    0.1879   -3.3078 N   0  0  0  0  0  0  0  0  0  0  0  0
    2.7877   -0.3909   -3.6713 H   0  0  0  0  0  0  0  0  0  0  0  0
    4.3747   -0.4189   -3.2513 H   0  0  0  0  0  0  0  0  0  0  0  0
    1.5960   -1.8795   -6.8126 C   0  0  0  0  0  0  0  0  0  0  0  0
    0.7490   -0.8725   -6.3509 C   0  0  0  0  0  0  0  0  0  0  0  0
    0.3232   -0.8747   -5.0224 C   0  0  0  0  0  0  0  0  0  0  0  0
    0.7465   -1.8848   -4.1553 C   0  0  0  0  0  0  0  0  0  0  0  0
    1.5992   -2.8900   -4.6180 C   0  0  0  0  0  0  0  0  0  0  0  0
    2.0225   -2.8866   -5.9468 C   0  0  0  0  0  0  0  0  0  0  0  0
    1.9222   -1.8804   -7.8470 H   0  0  0  0  0  0  0  0  0  0  0  0
    0.4163   -0.0913   -7.0255 H   0  0  0  0  0  0  0  0  0  0  0  0
   -0.3458   -0.0989   -4.6657 H   0  0  0  0  0  0  0  0  0  0  0  0
    0.4022   -1.9035   -3.1272 H   0  0  0  0  0  0  0  0  0  0  0  0
    1.9221   -3.6744   -3.9428 H   0  0  0  0  0  0  0  0  0  0  0  0
    2.6797   -3.6701   -6.3077 H   0  0  0  0  0  0  0  0  0  0  0  0
    3.6797   -1.6277   -0.3259 Al  0  0  0  0  0  0  0  0  0  0  0  0
    3.9347   -0.7562    1.5734 Cl  0  0  0  0  0  0  0  0  0  0  0  0
    5.4081   -2.1778   -1.4315 Cl  0  0  0  0  0  0  0  0  0  0  0  0
    2.0000   -2.8800   -0.6022 Cl  0  0  0  0  0  0  0  0  0  0  0  0
    3.1007    0.3990   -1.5651 Cl  0  0  0  0  0  0  0  0  0  0  0  0
  2  1  3  0  0  0  0
  3  5  1  0  0  0  0
  3 22  1  0  0  0  0
  4  3  1  0  0  0  0
  6  7  2  0  0  0  0
  6 11  1  0  0  0  0
  7  8  1  0  0  0  0
  8 14  1  0  0  0  0
  8  9  2  0  0  0  0
  9 15  1  0  0  0  0
 10  9  1  0  0  0  0
 10 16  1  0  0  0  0
 11 10  2  0  0  0  0
 12  6  1  0  0  0  0
 13  7  1  0  0  0  0
 17 11  1  0  0  0  0
 18 19  1  0  0  0  0
 20 18  1  0  0  0  0
 21 18  1  0  0  0  0
M  END
