Coordinates from ORCA-job C6H6+AlCl4-+NH2--N2+-scan
 OpenBabel10221816113D

 22 19  0  0  0  0  0  0  0  0999 V2000
    6.3285   -0.3312   -5.5172 N   0  0  0  0  0  0  0  0  0  0  0  0
    7.3379   -0.6034   -5.8443 N   0  0  0  0  0  0  0  0  0  0  0  0
    2.6482    0.3561   -3.4115 N   0  0  0  0  0  0  0  0  0  0  0  0
    2.0092   -0.4376   -3.5101 H   0  0  0  0  0  0  0  0  0  0  0  0
    3.5637    0.0463   -3.7432 H   0  0  0  0  0  0  0  0  0  0  0  0
    1.4597   -1.3575   -6.5258 C   0  0  0  0  0  0  0  0  0  0  0  0
    0.2752   -0.7959   -6.0489 C   0  0  0  0  0  0  0  0  0  0  0  0
   -0.2902   -1.2635   -4.8625 C   0  0  0  0  0  0  0  0  0  0  0  0
    0.3307   -2.2919   -4.1507 C   0  0  0  0  0  0  0  0  0  0  0  0
    1.5166   -2.8548   -4.6289 C   0  0  0  0  0  0  0  0  0  0  0  0
    2.0799   -2.3872   -5.8171 C   0  0  0  0  0  0  0  0  0  0  0  0
    1.8973   -0.9950   -7.4495 H   0  0  0  0  0  0  0  0  0  0  0  0
   -0.2057    0.0044   -6.6000 H   0  0  0  0  0  0  0  0  0  0  0  0
   -1.2126   -0.8290   -4.4930 H   0  0  0  0  0  0  0  0  0  0  0  0
   -0.1066   -2.6589   -3.2290 H   0  0  0  0  0  0  0  0  0  0  0  0
    1.9968   -3.6530   -4.0746 H   0  0  0  0  0  0  0  0  0  0  0  0
    2.9986   -2.8267   -6.1899 H   0  0  0  0  0  0  0  0  0  0  0  0
    3.8954   -1.4559   -0.7157 Al  0  0  0  0  0  0  0  0  0  0  0  0
    4.4801   -0.6124    1.1241 Cl  0  0  0  0  0  0  0  0  0  0  0  0
    5.3787   -1.8044   -2.1896 Cl  0  0  0  0  0  0  0  0  0  0  0  0
    2.2988   -2.8403   -0.6995 Cl  0  0  0  0  0  0  0  0  0  0  0  0
    2.8644    0.5514   -1.6569 Cl  0  0  0  0  0  0  0  0  0  0  0  0
  2  1  3  0  0  0  0
  3 22  1  0  0  0  0
  4  3  1  0  0  0  0
  5  3  1  0  0  0  0
  6  7  2  0  0  0  0
  6 11  1  0  0  0  0
  7  8  1  0  0  0  0
  8 14  1  0  0  0  0
  8  9  2  0  0  0  0
  9 15  1  0  0  0  0
 10  9  1  0  0  0  0
 10 16  1  0  0  0  0
 11 10  2  0  0  0  0
 12  6  1  0  0  0  0
 13  7  1  0  0  0  0
 17 11  1  0  0  0  0
 18 21  1  0  0  0  0
 18 19  1  0  0  0  0
 20 18  1  0  0  0  0
M  END
