Coordinates from ORCA-job C6H6+AlCl4-+NH2--N2+-scan
 OpenBabel10221816113D

 22 19  0  0  0  0  0  0  0  0999 V2000
    5.2479   -0.0138   -5.6744 N   0  0  0  0  0  0  0  0  0  0  0  0
    5.6038    0.2673   -6.6714 N   0  0  0  0  0  0  0  0  0  0  0  0
    3.0782    0.2613   -3.3747 N   0  0  0  0  0  0  0  0  0  0  0  0
    2.3624   -0.4291   -3.6172 H   0  0  0  0  0  0  0  0  0  0  0  0
    3.9895   -0.1741   -3.5253 H   0  0  0  0  0  0  0  0  0  0  0  0
    1.6615   -1.5729   -6.5909 C   0  0  0  0  0  0  0  0  0  0  0  0
    0.5963   -0.7948   -6.1378 C   0  0  0  0  0  0  0  0  0  0  0  0
    0.0118   -1.0658   -4.9002 C   0  0  0  0  0  0  0  0  0  0  0  0
    0.4952   -2.1142   -4.1143 C   0  0  0  0  0  0  0  0  0  0  0  0
    1.5629   -2.8923   -4.5683 C   0  0  0  0  0  0  0  0  0  0  0  0
    2.1446   -2.6215   -5.8072 C   0  0  0  0  0  0  0  0  0  0  0  0
    2.1128   -1.3639   -7.5547 H   0  0  0  0  0  0  0  0  0  0  0  0
    0.2212    0.0195   -6.7476 H   0  0  0  0  0  0  0  0  0  0  0  0
   -0.8200   -0.4646   -4.5495 H   0  0  0  0  0  0  0  0  0  0  0  0
    0.0420   -2.3316   -3.1536 H   0  0  0  0  0  0  0  0  0  0  0  0
    1.9355   -3.7053   -3.9556 H   0  0  0  0  0  0  0  0  0  0  0  0
    2.9701   -3.2289   -6.1616 H   0  0  0  0  0  0  0  0  0  0  0  0
    3.7488   -1.5887   -0.4970 Al  0  0  0  0  0  0  0  0  0  0  0  0
    4.1620   -0.7208    1.3777 Cl  0  0  0  0  0  0  0  0  0  0  0  0
    5.3688   -2.0501   -1.7849 Cl  0  0  0  0  0  0  0  0  0  0  0  0
    2.0946   -2.8984   -0.6142 Cl  0  0  0  0  0  0  0  0  0  0  0  0
    2.9545    0.4420   -1.6106 Cl  0  0  0  0  0  0  0  0  0  0  0  0
  2  1  3  0  0  0  0
  3 22  1  0  0  0  0
  4  3  1  0  0  0  0
  5  3  1  0  0  0  0
  6  7  2  0  0  0  0
  6 11  1  0  0  0  0
  7  8  1  0  0  0  0
  8 14  1  0  0  0  0
  8  9  2  0  0  0  0
  9 15  1  0  0  0  0
 10  9  1  0  0  0  0
 10 16  1  0  0  0  0
 11 10  2  0  0  0  0
 12  6  1  0  0  0  0
 13  7  1  0  0  0  0
 17 11  1  0  0  0  0
 18 19  1  0  0  0  0
 20 18  1  0  0  0  0
 21 18  1  0  0  0  0
M  END
