Coordinates from ORCA-job C6H6+AlCl4-+NH2--N2+-scan
 OpenBabel10221816113D

 22 19  0  0  0  0  0  0  0  0999 V2000
    6.2066   -0.3058   -5.4746 N   0  0  0  0  0  0  0  0  0  0  0  0
    7.1992   -0.5710   -5.8544 N   0  0  0  0  0  0  0  0  0  0  0  0
    2.6787    0.3532   -3.4203 N   0  0  0  0  0  0  0  0  0  0  0  0
    2.0359   -0.4377   -3.5162 H   0  0  0  0  0  0  0  0  0  0  0  0
    3.5921    0.0397   -3.7542 H   0  0  0  0  0  0  0  0  0  0  0  0
    1.4717   -1.3669   -6.5346 C   0  0  0  0  0  0  0  0  0  0  0  0
    0.2932   -0.7956   -6.0546 C   0  0  0  0  0  0  0  0  0  0  0  0
   -0.2696   -1.2544   -4.8635 C   0  0  0  0  0  0  0  0  0  0  0  0
    0.3480   -2.2838   -4.1503 C   0  0  0  0  0  0  0  0  0  0  0  0
    1.5280   -2.8563   -4.6316 C   0  0  0  0  0  0  0  0  0  0  0  0
    2.0887   -2.3975   -5.8244 C   0  0  0  0  0  0  0  0  0  0  0  0
    1.9072   -1.0112   -7.4620 H   0  0  0  0  0  0  0  0  0  0  0  0
   -0.1852    0.0055   -6.6069 H   0  0  0  0  0  0  0  0  0  0  0  0
   -1.1874   -0.8124   -4.4916 H   0  0  0  0  0  0  0  0  0  0  0  0
   -0.0872   -2.6441   -3.2249 H   0  0  0  0  0  0  0  0  0  0  0  0
    2.0055   -3.6554   -4.0761 H   0  0  0  0  0  0  0  0  0  0  0  0
    3.0026   -2.8447   -6.1997 H   0  0  0  0  0  0  0  0  0  0  0  0
    3.8910   -1.4648   -0.7055 Al  0  0  0  0  0  0  0  0  0  0  0  0
    4.4772   -0.6146    1.1309 Cl  0  0  0  0  0  0  0  0  0  0  0  0
    5.3785   -1.8533   -2.1645 Cl  0  0  0  0  0  0  0  0  0  0  0  0
    2.2709   -2.8217   -0.6877 Cl  0  0  0  0  0  0  0  0  0  0  0  0
    2.8990    0.5524   -1.6669 Cl  0  0  0  0  0  0  0  0  0  0  0  0
  2  1  3  0  0  0  0
  3 22  1  0  0  0  0
  4  3  1  0  0  0  0
  5  3  1  0  0  0  0
  6  7  2  0  0  0  0
  6 11  1  0  0  0  0
  7  8  1  0  0  0  0
  8 14  1  0  0  0  0
  8  9  2  0  0  0  0
  9 15  1  0  0  0  0
 10  9  1  0  0  0  0
 10 16  1  0  0  0  0
 11 10  2  0  0  0  0
 12  6  1  0  0  0  0
 13  7  1  0  0  0  0
 17 11  1  0  0  0  0
 18 21  1  0  0  0  0
 18 19  1  0  0  0  0
 20 18  1  0  0  0  0
M  END
