Coordinates from ORCA-job C6H6+AlCl4-+NH2--N2+-scan
 OpenBabel10221816113D

 22 19  0  0  0  0  0  0  0  0999 V2000
    4.8364    0.1428   -5.8336 N   0  0  0  0  0  0  0  0  0  0  0  0
    4.9329    0.7543   -6.7372 N   0  0  0  0  0  0  0  0  0  0  0  0
    3.3136    0.1888   -3.3388 N   0  0  0  0  0  0  0  0  0  0  0  0
    2.5779   -0.4481   -3.6586 H   0  0  0  0  0  0  0  0  0  0  0  0
    4.1994   -0.3162   -3.3918 H   0  0  0  0  0  0  0  0  0  0  0  0
    1.6849   -1.7065   -6.6543 C   0  0  0  0  0  0  0  0  0  0  0  0
    0.7022   -0.8188   -6.2168 C   0  0  0  0  0  0  0  0  0  0  0  0
    0.1491   -0.9628   -4.9441 C   0  0  0  0  0  0  0  0  0  0  0  0
    0.5809   -1.9947   -4.1078 C   0  0  0  0  0  0  0  0  0  0  0  0
    1.5672   -2.8819   -4.5459 C   0  0  0  0  0  0  0  0  0  0  0  0
    2.1179   -2.7373   -5.8196 C   0  0  0  0  0  0  0  0  0  0  0  0
    2.1112   -1.5966   -7.6454 H   0  0  0  0  0  0  0  0  0  0  0  0
    0.3655   -0.0187   -6.8668 H   0  0  0  0  0  0  0  0  0  0  0  0
   -0.6207   -0.2775   -4.6063 H   0  0  0  0  0  0  0  0  0  0  0  0
    0.1471   -2.1167   -3.1217 H   0  0  0  0  0  0  0  0  0  0  0  0
    1.8986   -3.6827   -3.8946 H   0  0  0  0  0  0  0  0  0  0  0  0
    2.8799   -3.4290   -6.1614 H   0  0  0  0  0  0  0  0  0  0  0  0
    3.6887   -1.6538   -0.3991 Al  0  0  0  0  0  0  0  0  0  0  0  0
    4.0027   -0.7669    1.4852 Cl  0  0  0  0  0  0  0  0  0  0  0  0
    5.3757   -2.1637   -1.5795 Cl  0  0  0  0  0  0  0  0  0  0  0  0
    2.0194   -2.9330   -0.6012 Cl  0  0  0  0  0  0  0  0  0  0  0  0
    3.0141    0.3782   -1.5943 Cl  0  0  0  0  0  0  0  0  0  0  0  0
  2  1  3  0  0  0  0
  3 22  1  0  0  0  0
  4  3  1  0  0  0  0
  5  3  1  0  0  0  0
  6  7  2  0  0  0  0
  6 11  1  0  0  0  0
  7  8  1  0  0  0  0
  8 14  1  0  0  0  0
  8  9  2  0  0  0  0
  9 15  1  0  0  0  0
 10  9  1  0  0  0  0
 10 16  1  0  0  0  0
 11 10  2  0  0  0  0
 12  6  1  0  0  0  0
 13  7  1  0  0  0  0
 17 11  1  0  0  0  0
 18 19  1  0  0  0  0
 20 18  1  0  0  0  0
 21 18  1  0  0  0  0
M  END
