Coordinates from ORCA-job C6H6+AlCl4-+NH2--N2+-scan
 OpenBabel10221816113D

 22 19  0  0  0  0  0  0  0  0999 V2000
    7.0620   -0.5326   -5.6390 N   0  0  0  0  0  0  0  0  0  0  0  0
    8.0648   -0.8950   -5.3877 N   0  0  0  0  0  0  0  0  0  0  0  0
    2.4587    0.3891   -3.4099 N   0  0  0  0  0  0  0  0  0  0  0  0
    1.8540   -0.4304   -3.5132 H   0  0  0  0  0  0  0  0  0  0  0  0
    3.3798    0.1226   -3.7631 H   0  0  0  0  0  0  0  0  0  0  0  0
    1.3457   -1.2780   -6.4769 C   0  0  0  0  0  0  0  0  0  0  0  0
    0.1322   -0.7954   -5.9864 C   0  0  0  0  0  0  0  0  0  0  0  0
   -0.4192   -1.3430   -4.8278 C   0  0  0  0  0  0  0  0  0  0  0  0
    0.2447   -2.3725   -4.1576 C   0  0  0  0  0  0  0  0  0  0  0  0
    1.4593   -2.8566   -4.6494 C   0  0  0  0  0  0  0  0  0  0  0  0
    2.0088   -2.3091   -5.8098 C   0  0  0  0  0  0  0  0  0  0  0  0
    1.7728   -0.8532   -7.3787 H   0  0  0  0  0  0  0  0  0  0  0  0
   -0.3819    0.0061   -6.5049 H   0  0  0  0  0  0  0  0  0  0  0  0
   -1.3639   -0.9698   -4.4480 H   0  0  0  0  0  0  0  0  0  0  0  0
   -0.1819   -2.8011   -3.2576 H   0  0  0  0  0  0  0  0  0  0  0  0
    1.9734   -3.6552   -4.1270 H   0  0  0  0  0  0  0  0  0  0  0  0
    2.9501   -2.6871   -6.1932 H   0  0  0  0  0  0  0  0  0  0  0  0
    3.9751   -1.3711   -0.8399 Al  0  0  0  0  0  0  0  0  0  0  0  0
    4.5721   -0.5451    1.0029 Cl  0  0  0  0  0  0  0  0  0  0  0  0
    5.4014   -1.4981   -2.4056 Cl  0  0  0  0  0  0  0  0  0  0  0  0
    2.5348   -2.9162   -0.8069 Cl  0  0  0  0  0  0  0  0  0  0  0  0
    2.7018    0.5511   -1.6542 Cl  0  0  0  0  0  0  0  0  0  0  0  0
  1  2  3  0  0  0  0
  3 22  1  0  0  0  0
  4  3  1  0  0  0  0
  5  3  1  0  0  0  0
  6  7  2  0  0  0  0
  6 11  1  0  0  0  0
  7  8  1  0  0  0  0
  8 14  1  0  0  0  0
  8  9  2  0  0  0  0
  9 15  1  0  0  0  0
 10  9  1  0  0  0  0
 10 16  1  0  0  0  0
 11 10  2  0  0  0  0
 12  6  1  0  0  0  0
 13  7  1  0  0  0  0
 17 11  1  0  0  0  0
 18 21  1  0  0  0  0
 18 19  1  0  0  0  0
 20 18  1  0  0  0  0
M  END
