Coordinates from ORCA-job C6H6+AlCl4-+NH2--N2+-scan
 OpenBabel10221816123D

 22 19  0  0  0  0  0  0  0  0999 V2000
    7.1803   -0.5830   -5.6344 N   0  0  0  0  0  0  0  0  0  0  0  0
    8.1726   -0.9441   -5.3425 N   0  0  0  0  0  0  0  0  0  0  0  0
    2.4309    0.3993   -3.4063 N   0  0  0  0  0  0  0  0  0  0  0  0
    1.8346   -0.4264   -3.5104 H   0  0  0  0  0  0  0  0  0  0  0  0
    3.3533    0.1425   -3.7634 H   0  0  0  0  0  0  0  0  0  0  0  0
    1.3198   -1.2671   -6.4788 C   0  0  0  0  0  0  0  0  0  0  0  0
    0.1040   -0.7998   -5.9792 C   0  0  0  0  0  0  0  0  0  0  0  0
   -0.4338   -1.3573   -4.8190 C   0  0  0  0  0  0  0  0  0  0  0  0
    0.2459   -2.3812   -4.1562 C   0  0  0  0  0  0  0  0  0  0  0  0
    1.4628   -2.8500   -4.6572 C   0  0  0  0  0  0  0  0  0  0  0  0
    1.9987   -2.2927   -5.8192 C   0  0  0  0  0  0  0  0  0  0  0  0
    1.7362   -0.8348   -7.3820 H   0  0  0  0  0  0  0  0  0  0  0  0
   -0.4224   -0.0026   -6.4920 H   0  0  0  0  0  0  0  0  0  0  0  0
   -1.3803   -0.9961   -4.4320 H   0  0  0  0  0  0  0  0  0  0  0  0
   -0.1701   -2.8176   -3.2550 H   0  0  0  0  0  0  0  0  0  0  0  0
    1.9891   -3.6444   -4.1406 H   0  0  0  0  0  0  0  0  0  0  0  0
    2.9418   -2.6588   -6.2098 H   0  0  0  0  0  0  0  0  0  0  0  0
    3.9769   -1.3594   -0.8521 Al  0  0  0  0  0  0  0  0  0  0  0  0
    4.5743   -0.5367    0.9921 Cl  0  0  0  0  0  0  0  0  0  0  0  0
    5.3986   -1.4676   -2.4238 Cl  0  0  0  0  0  0  0  0  0  0  0  0
    2.5500   -2.9170   -0.8214 Cl  0  0  0  0  0  0  0  0  0  0  0  0
    2.6813    0.5542   -1.6503 Cl  0  0  0  0  0  0  0  0  0  0  0  0
  1  2  3  0  0  0  0
  3 22  1  0  0  0  0
  4  3  1  0  0  0  0
  5  3  1  0  0  0  0
  6  7  2  0  0  0  0
  6 11  1  0  0  0  0
  7  8  1  0  0  0  0
  8 14  1  0  0  0  0
  8  9  2  0  0  0  0
  9 15  1  0  0  0  0
 10  9  1  0  0  0  0
 10 16  1  0  0  0  0
 11 10  2  0  0  0  0
 12  6  1  0  0  0  0
 13  7  1  0  0  0  0
 17 11  1  0  0  0  0
 18 21  1  0  0  0  0
 18 19  1  0  0  0  0
 20 18  1  0  0  0  0
M  END
