Coordinates from ORCA-job C6H6+AlCl4-+NH2--N2+-scan
 OpenBabel10221816123D

 22 19  0  0  0  0  0  0  0  0999 V2000
    6.2629   -2.6893   -5.6781 N   0  0  0  0  0  0  0  0  0  0  0  0
    7.2019   -2.9787   -5.1936 N   0  0  0  0  0  0  0  0  0  0  0  0
    1.8071    0.5863   -3.0371 N   0  0  0  0  0  0  0  0  0  0  0  0
    1.5426   -0.3577   -3.3323 H   0  0  0  0  0  0  0  0  0  0  0  0
    2.7439    0.7590   -3.4073 H   0  0  0  0  0  0  0  0  0  0  0  0
    1.3830   -0.8032   -6.4394 C   0  0  0  0  0  0  0  0  0  0  0  0
    0.0904   -0.8485   -5.9163 C   0  0  0  0  0  0  0  0  0  0  0  0
   -0.2166   -1.7443   -4.8914 C   0  0  0  0  0  0  0  0  0  0  0  0
    0.7713   -2.5928   -4.3870 C   0  0  0  0  0  0  0  0  0  0  0  0
    2.0650   -2.5472   -4.9119 C   0  0  0  0  0  0  0  0  0  0  0  0
    2.3705   -1.6531   -5.9389 C   0  0  0  0  0  0  0  0  0  0  0  0
    1.6194   -0.1093   -7.2387 H   0  0  0  0  0  0  0  0  0  0  0  0
   -0.6758   -0.1878   -6.3061 H   0  0  0  0  0  0  0  0  0  0  0  0
   -1.2224   -1.7827   -4.4877 H   0  0  0  0  0  0  0  0  0  0  0  0
    0.5363   -3.2919   -3.5920 H   0  0  0  0  0  0  0  0  0  0  0  0
    2.8310   -3.2058   -4.5192 H   0  0  0  0  0  0  0  0  0  0  0  0
    3.3747   -1.6245   -6.3465 H   0  0  0  0  0  0  0  0  0  0  0  0
    4.0274   -0.9543   -0.8664 Al  0  0  0  0  0  0  0  0  0  0  0  0
    4.4054   -0.3288    1.1084 Cl  0  0  0  0  0  0  0  0  0  0  0  0
    5.2739   -0.2233   -2.4207 Cl  0  0  0  0  0  0  0  0  0  0  0  0
    3.2868   -2.9119   -1.1509 Cl  0  0  0  0  0  0  0  0  0  0  0  0
    2.0660    0.4495   -1.2805 Cl  0  0  0  0  0  0  0  0  0  0  0  0
  1  2  3  0  0  0  0
  3 22  1  0  0  0  0
  4  3  1  0  0  0  0
  5  3  1  0  0  0  0
  6 11  2  0  0  0  0
  6  7  1  0  0  0  0
  7  8  2  0  0  0  0
  8 14  1  0  0  0  0
  8  9  1  0  0  0  0
  9 15  1  0  0  0  0
 10 16  1  0  0  0  0
 10  9  2  0  0  0  0
 11 10  1  0  0  0  0
 12  6  1  0  0  0  0
 13  7  1  0  0  0  0
 17 11  1  0  0  0  0
 18 19  1  0  0  0  0
 20 18  1  0  0  0  0
 21 18  1  0  0  0  0
M  END
