Coordinates from ORCA-job C6H6+AlCl4-+NH2--N2+-scan
 OpenBabel10221816113D

 22 19  0  0  0  0  0  0  0  0999 V2000
    5.8297   -0.2355   -5.3128 N   0  0  0  0  0  0  0  0  0  0  0  0
    6.7613   -0.4552   -5.8450 N   0  0  0  0  0  0  0  0  0  0  0  0
    2.7773    0.3413   -3.4456 N   0  0  0  0  0  0  0  0  0  0  0  0
    2.1187   -0.4369   -3.5346 H   0  0  0  0  0  0  0  0  0  0  0  0
    3.6847    0.0139   -3.7831 H   0  0  0  0  0  0  0  0  0  0  0  0
    1.5045   -1.4041   -6.5649 C   0  0  0  0  0  0  0  0  0  0  0  0
    0.3486   -0.7940   -6.0780 C   0  0  0  0  0  0  0  0  0  0  0  0
   -0.2098   -1.2195   -4.8726 C   0  0  0  0  0  0  0  0  0  0  0  0
    0.3899   -2.2542   -4.1518 C   0  0  0  0  0  0  0  0  0  0  0  0
    1.5477   -2.8650   -4.6397 C   0  0  0  0  0  0  0  0  0  0  0  0
    2.1037   -2.4398   -5.8469 C   0  0  0  0  0  0  0  0  0  0  0  0
    1.9360   -1.0748   -7.5038 H   0  0  0  0  0  0  0  0  0  0  0  0
   -0.1160    0.0110   -6.6364 H   0  0  0  0  0  0  0  0  0  0  0  0
   -1.1105   -0.7477   -4.4955 H   0  0  0  0  0  0  0  0  0  0  0  0
   -0.0420   -2.5890   -3.2154 H   0  0  0  0  0  0  0  0  0  0  0  0
    2.0113   -3.6682   -4.0784 H   0  0  0  0  0  0  0  0  0  0  0  0
    2.9997   -2.9176   -6.2278 H   0  0  0  0  0  0  0  0  0  0  0  0
    3.8986   -1.4872   -0.6836 Al  0  0  0  0  0  0  0  0  0  0  0  0
    4.4727   -0.6254    1.1518 Cl  0  0  0  0  0  0  0  0  0  0  0  0
    5.4045   -1.9631   -2.0957 Cl  0  0  0  0  0  0  0  0  0  0  0  0
    2.2277   -2.7815   -0.6785 Cl  0  0  0  0  0  0  0  0  0  0  0  0
    3.0063    0.5520   -1.6953 Cl  0  0  0  0  0  0  0  0  0  0  0  0
  2  1  3  0  0  0  0
  3 22  1  0  0  0  0
  4  3  1  0  0  0  0
  5  3  1  0  0  0  0
  6  7  2  0  0  0  0
  6 11  1  0  0  0  0
  7  8  1  0  0  0  0
  8 14  1  0  0  0  0
  8  9  2  0  0  0  0
  9 15  1  0  0  0  0
 10  9  1  0  0  0  0
 10 16  1  0  0  0  0
 11 10  2  0  0  0  0
 12  6  1  0  0  0  0
 13  7  1  0  0  0  0
 17 11  1  0  0  0  0
 18 21  1  0  0  0  0
 18 19  1  0  0  0  0
 20 18  1  0  0  0  0
M  END
