Coordinates from ORCA-job C6H6+AlCl4-+NH2--N2+-scan
 OpenBabel10221816113D

 22 19  0  0  0  0  0  0  0  0999 V2000
    5.2407   -0.0135   -5.6706 N   0  0  0  0  0  0  0  0  0  0  0  0
    5.5940    0.2695   -6.6679 N   0  0  0  0  0  0  0  0  0  0  0  0
    3.0808    0.2609   -3.3754 N   0  0  0  0  0  0  0  0  0  0  0  0
    2.3645   -0.4291   -3.6179 H   0  0  0  0  0  0  0  0  0  0  0  0
    3.9918   -0.1754   -3.5253 H   0  0  0  0  0  0  0  0  0  0  0  0
    1.6621   -1.5737   -6.5917 C   0  0  0  0  0  0  0  0  0  0  0  0
    0.5975   -0.7948   -6.1385 C   0  0  0  0  0  0  0  0  0  0  0  0
    0.0132   -1.0650   -4.9007 C   0  0  0  0  0  0  0  0  0  0  0  0
    0.4960   -2.1135   -4.1146 C   0  0  0  0  0  0  0  0  0  0  0  0
    1.5631   -2.8925   -4.5687 C   0  0  0  0  0  0  0  0  0  0  0  0
    2.1446   -2.6225   -5.8078 C   0  0  0  0  0  0  0  0  0  0  0  0
    2.1133   -1.3654   -7.5557 H   0  0  0  0  0  0  0  0  0  0  0  0
    0.2229    0.0196   -6.7485 H   0  0  0  0  0  0  0  0  0  0  0  0
   -0.8181   -0.4632   -4.5500 H   0  0  0  0  0  0  0  0  0  0  0  0
    0.0429   -2.3304   -3.1538 H   0  0  0  0  0  0  0  0  0  0  0  0
    1.9353   -3.7056   -3.9559 H   0  0  0  0  0  0  0  0  0  0  0  0
    2.9697   -3.2306   -6.1622 H   0  0  0  0  0  0  0  0  0  0  0  0
    3.7489   -1.5886   -0.4967 Al  0  0  0  0  0  0  0  0  0  0  0  0
    4.1620   -0.7203    1.3778 Cl  0  0  0  0  0  0  0  0  0  0  0  0
    5.3691   -2.0515   -1.7839 Cl  0  0  0  0  0  0  0  0  0  0  0  0
    2.0939   -2.8973   -0.6141 Cl  0  0  0  0  0  0  0  0  0  0  0  0
    2.9563    0.4422   -1.6113 Cl  0  0  0  0  0  0  0  0  0  0  0  0
  2  1  3  0  0  0  0
  3 22  1  0  0  0  0
  4  3  1  0  0  0  0
  5  3  1  0  0  0  0
  6  7  2  0  0  0  0
  6 11  1  0  0  0  0
  7  8  1  0  0  0  0
  8 14  1  0  0  0  0
  8  9  2  0  0  0  0
  9 15  1  0  0  0  0
 10  9  1  0  0  0  0
 10 16  1  0  0  0  0
 11 10  2  0  0  0  0
 12  6  1  0  0  0  0
 13  7  1  0  0  0  0
 17 11  1  0  0  0  0
 18 19  1  0  0  0  0
 20 18  1  0  0  0  0
 21 18  1  0  0  0  0
M  END
