Coordinates from ORCA-job C6H6+AlCl4-+NH2--N2+-scan
 OpenBabel10221816123D

 22 19  0  0  0  0  0  0  0  0999 V2000
    6.4145   -2.8161   -5.8673 N   0  0  0  0  0  0  0  0  0  0  0  0
    7.3718   -3.1078   -5.4216 N   0  0  0  0  0  0  0  0  0  0  0  0
    1.7326    0.6017   -2.9955 N   0  0  0  0  0  0  0  0  0  0  0  0
    1.4893   -0.3436   -3.3046 H   0  0  0  0  0  0  0  0  0  0  0  0
    2.6678    0.7989   -3.3575 H   0  0  0  0  0  0  0  0  0  0  0  0
    1.4049   -0.8080   -6.4316 C   0  0  0  0  0  0  0  0  0  0  0  0
    0.1137   -0.8343   -5.9041 C   0  0  0  0  0  0  0  0  0  0  0  0
   -0.2025   -1.7249   -4.8772 C   0  0  0  0  0  0  0  0  0  0  0  0
    0.7754   -2.5862   -4.3750 C   0  0  0  0  0  0  0  0  0  0  0  0
    2.0678   -2.5595   -4.9044 C   0  0  0  0  0  0  0  0  0  0  0  0
    2.3820   -1.6715   -5.9338 C   0  0  0  0  0  0  0  0  0  0  0  0
    1.6484   -0.1188   -7.2328 H   0  0  0  0  0  0  0  0  0  0  0  0
   -0.6446   -0.1635   -6.2922 H   0  0  0  0  0  0  0  0  0  0  0  0
   -1.2075   -1.7491   -4.4705 H   0  0  0  0  0  0  0  0  0  0  0  0
    0.5332   -3.2812   -3.5786 H   0  0  0  0  0  0  0  0  0  0  0  0
    2.8257   -3.2284   -4.5135 H   0  0  0  0  0  0  0  0  0  0  0  0
    3.3845   -1.6583   -6.3466 H   0  0  0  0  0  0  0  0  0  0  0  0
    3.9768   -0.9143   -0.8306 Al  0  0  0  0  0  0  0  0  0  0  0  0
    4.3323   -0.2985    1.1515 Cl  0  0  0  0  0  0  0  0  0  0  0  0
    5.2105   -0.1384   -2.3732 Cl  0  0  0  0  0  0  0  0  0  0  0  0
    3.2838   -2.8861   -1.1353 Cl  0  0  0  0  0  0  0  0  0  0  0  0
    1.9841    0.4473   -1.2392 Cl  0  0  0  0  0  0  0  0  0  0  0  0
  1  2  3  0  0  0  0
  3 22  1  0  0  0  0
  4  3  1  0  0  0  0
  5  3  1  0  0  0  0
  6 11  2  0  0  0  0
  6  7  1  0  0  0  0
  7  8  2  0  0  0  0
  8 14  1  0  0  0  0
  8  9  1  0  0  0  0
  9 15  1  0  0  0  0
 10 16  1  0  0  0  0
 10  9  2  0  0  0  0
 11 10  1  0  0  0  0
 12  6  1  0  0  0  0
 13  7  1  0  0  0  0
 17 11  1  0  0  0  0
 18 19  1  0  0  0  0
 20 18  1  0  0  0  0
 21 18  1  0  0  0  0
M  END
