Coordinates from ORCA-job C6H6+AlCl4-+NH2--N2+-scan
 OpenBabel10221816113D

 22 19  0  0  0  0  0  0  0  0999 V2000
    4.8612    0.1445   -5.8626 N   0  0  0  0  0  0  0  0  0  0  0  0
    4.9564    0.7432   -6.7749 N   0  0  0  0  0  0  0  0  0  0  0  0
    3.3041    0.1918   -3.3301 N   0  0  0  0  0  0  0  0  0  0  0  0
    2.5711   -0.4468   -3.6523 H   0  0  0  0  0  0  0  0  0  0  0  0
    4.1930   -0.3072   -3.3875 H   0  0  0  0  0  0  0  0  0  0  0  0
    1.6848   -1.7026   -6.6512 C   0  0  0  0  0  0  0  0  0  0  0  0
    0.6996   -0.8178   -6.2134 C   0  0  0  0  0  0  0  0  0  0  0  0
    0.1458   -0.9649   -4.9413 C   0  0  0  0  0  0  0  0  0  0  0  0
    0.5793   -1.9970   -4.1062 C   0  0  0  0  0  0  0  0  0  0  0  0
    1.5680   -2.8813   -4.5447 C   0  0  0  0  0  0  0  0  0  0  0  0
    2.1194   -2.7336   -5.8177 C   0  0  0  0  0  0  0  0  0  0  0  0
    2.1116   -1.5902   -7.6419 H   0  0  0  0  0  0  0  0  0  0  0  0
    0.3616   -0.0175   -6.8625 H   0  0  0  0  0  0  0  0  0  0  0  0
   -0.6258   -0.2818   -4.6031 H   0  0  0  0  0  0  0  0  0  0  0  0
    0.1451   -2.1215   -3.1205 H   0  0  0  0  0  0  0  0  0  0  0  0
    1.9008   -3.6821   -3.8941 H   0  0  0  0  0  0  0  0  0  0  0  0
    2.8834   -3.4230   -6.1598 H   0  0  0  0  0  0  0  0  0  0  0  0
    3.6863   -1.6570   -0.3957 Al  0  0  0  0  0  0  0  0  0  0  0  0
    3.9981   -0.7733    1.4905 Cl  0  0  0  0  0  0  0  0  0  0  0  0
    5.3745   -2.1600   -1.5773 Cl  0  0  0  0  0  0  0  0  0  0  0  0
    2.0198   -2.9391   -0.6011 Cl  0  0  0  0  0  0  0  0  0  0  0  0
    3.0067    0.3764   -1.5862 Cl  0  0  0  0  0  0  0  0  0  0  0  0
  2  1  3  0  0  0  0
  3 22  1  0  0  0  0
  4  3  1  0  0  0  0
  5  3  1  0  0  0  0
  6  7  2  0  0  0  0
  6 11  1  0  0  0  0
  7  8  1  0  0  0  0
  8 14  1  0  0  0  0
  8  9  2  0  0  0  0
  9 15  1  0  0  0  0
 10  9  1  0  0  0  0
 10 16  1  0  0  0  0
 11 10  2  0  0  0  0
 12  6  1  0  0  0  0
 13  7  1  0  0  0  0
 17 11  1  0  0  0  0
 18 19  1  0  0  0  0
 20 18  1  0  0  0  0
 21 18  1  0  0  0  0
M  END
