Coordinates from ORCA-job C6H6+AlCl4-+NH2--N2+-scan
 OpenBabel10221816113D

 22 19  0  0  0  0  0  0  0  0999 V2000
    4.6273    0.1993   -5.8409 N   0  0  0  0  0  0  0  0  0  0  0  0
    4.6827    0.8690   -6.7060 N   0  0  0  0  0  0  0  0  0  0  0  0
    3.3940    0.2130   -3.2682 N   0  0  0  0  0  0  0  0  0  0  0  0
    2.6605   -0.4015   -3.6339 H   0  0  0  0  0  0  0  0  0  0  0  0
    4.2700   -0.3121   -3.2911 H   0  0  0  0  0  0  0  0  0  0  0  0
    1.6480   -1.7958   -6.7253 C   0  0  0  0  0  0  0  0  0  0  0  0
    0.7330   -0.8436   -6.2768 C   0  0  0  0  0  0  0  0  0  0  0  0
    0.2413   -0.9095   -4.9729 C   0  0  0  0  0  0  0  0  0  0  0  0
    0.6668   -1.9281   -4.1170 C   0  0  0  0  0  0  0  0  0  0  0  0
    1.5864   -2.8791   -4.5663 C   0  0  0  0  0  0  0  0  0  0  0  0
    2.0755   -2.8122   -5.8708 C   0  0  0  0  0  0  0  0  0  0  0  0
    2.0259   -1.7469   -7.7407 H   0  0  0  0  0  0  0  0  0  0  0  0
    0.4003   -0.0549   -6.9425 H   0  0  0  0  0  0  0  0  0  0  0  0
   -0.4778   -0.1751   -4.6263 H   0  0  0  0  0  0  0  0  0  0  0  0
    0.2761   -1.9930   -3.1075 H   0  0  0  0  0  0  0  0  0  0  0  0
    1.9120   -3.6696   -3.8997 H   0  0  0  0  0  0  0  0  0  0  0  0
    2.7854   -3.5533   -6.2214 H   0  0  0  0  0  0  0  0  0  0  0  0
    3.6734   -1.6773   -0.3469 Al  0  0  0  0  0  0  0  0  0  0  0  0
    3.9333   -0.8180    1.5578 Cl  0  0  0  0  0  0  0  0  0  0  0  0
    5.3932   -2.1587   -1.4920 Cl  0  0  0  0  0  0  0  0  0  0  0  0
    2.0177   -2.9624   -0.6125 Cl  0  0  0  0  0  0  0  0  0  0  0  0
    3.0196    0.3690   -1.5328 Cl  0  0  0  0  0  0  0  0  0  0  0  0
  2  1  3  0  0  0  0
  3 22  1  0  0  0  0
  4  3  1  0  0  0  0
  5  3  1  0  0  0  0
  6  7  2  0  0  0  0
  6 11  1  0  0  0  0
  7  8  1  0  0  0  0
  8 14  1  0  0  0  0
  8  9  2  0  0  0  0
  9 15  1  0  0  0  0
 10  9  1  0  0  0  0
 10 16  1  0  0  0  0
 11 10  2  0  0  0  0
 12  6  1  0  0  0  0
 13  7  1  0  0  0  0
 17 11  1  0  0  0  0
 18 19  1  0  0  0  0
 20 18  1  0  0  0  0
 21 18  1  0  0  0  0
M  END
