Coordinates from ORCA-job C6H6+AlCl4-+NH2--N2+-scan
 OpenBabel10221816113D

 22 19  0  0  0  0  0  0  0  0999 V2000
    5.8229   -0.2268   -5.3148 N   0  0  0  0  0  0  0  0  0  0  0  0
    6.7528   -0.4433   -5.8514 N   0  0  0  0  0  0  0  0  0  0  0  0
    2.7814    0.3429   -3.4471 N   0  0  0  0  0  0  0  0  0  0  0  0
    2.1235   -0.4361   -3.5353 H   0  0  0  0  0  0  0  0  0  0  0  0
    3.6887    0.0166   -3.7857 H   0  0  0  0  0  0  0  0  0  0  0  0
    1.5064   -1.4047   -6.5651 C   0  0  0  0  0  0  0  0  0  0  0  0
    0.3505   -0.7956   -6.0768 C   0  0  0  0  0  0  0  0  0  0  0  0
   -0.2058   -1.2214   -4.8705 C   0  0  0  0  0  0  0  0  0  0  0  0
    0.3959   -2.2554   -4.1503 C   0  0  0  0  0  0  0  0  0  0  0  0
    1.5537   -2.8651   -4.6396 C   0  0  0  0  0  0  0  0  0  0  0  0
    2.1076   -2.4396   -5.8477 C   0  0  0  0  0  0  0  0  0  0  0  0
    1.9363   -1.0751   -7.5047 H   0  0  0  0  0  0  0  0  0  0  0  0
   -0.1157    0.0088   -6.6347 H   0  0  0  0  0  0  0  0  0  0  0  0
   -1.1065   -0.7505   -4.4923 H   0  0  0  0  0  0  0  0  0  0  0  0
   -0.0343   -2.5904   -3.2132 H   0  0  0  0  0  0  0  0  0  0  0  0
    2.0189   -3.6678   -4.0788 H   0  0  0  0  0  0  0  0  0  0  0  0
    3.0036   -2.9166   -6.2297 H   0  0  0  0  0  0  0  0  0  0  0  0
    3.8878   -1.4908   -0.6821 Al  0  0  0  0  0  0  0  0  0  0  0  0
    4.4831   -0.6275    1.1457 Cl  0  0  0  0  0  0  0  0  0  0  0  0
    5.3794   -1.9900   -2.1014 Cl  0  0  0  0  0  0  0  0  0  0  0  0
    2.2025   -2.7661   -0.6608 Cl  0  0  0  0  0  0  0  0  0  0  0  0
    3.0120    0.5539   -1.6971 Cl  0  0  0  0  0  0  0  0  0  0  0  0
  2  1  3  0  0  0  0
  3 22  1  0  0  0  0
  4  3  1  0  0  0  0
  5  3  1  0  0  0  0
  6  7  2  0  0  0  0
  6 11  1  0  0  0  0
  7  8  1  0  0  0  0
  8 14  1  0  0  0  0
  8  9  2  0  0  0  0
  9 15  1  0  0  0  0
 10  9  1  0  0  0  0
 10 16  1  0  0  0  0
 11 10  2  0  0  0  0
 12  6  1  0  0  0  0
 13  7  1  0  0  0  0
 17 11  1  0  0  0  0
 18 21  1  0  0  0  0
 18 19  1  0  0  0  0
 20 18  1  0  0  0  0
M  END
