Coordinates from ORCA-job C6H6+AlCl4-+NH2--N2+-scan
 OpenBabel10221816113D

 22 19  0  0  0  0  0  0  0  0999 V2000
    6.4113   -0.3257   -5.5317 N   0  0  0  0  0  0  0  0  0  0  0  0
    7.4286   -0.6015   -5.8302 N   0  0  0  0  0  0  0  0  0  0  0  0
    2.6341    0.3557   -3.4099 N   0  0  0  0  0  0  0  0  0  0  0  0
    1.9954   -0.4383   -3.5084 H   0  0  0  0  0  0  0  0  0  0  0  0
    3.5492    0.0459   -3.7425 H   0  0  0  0  0  0  0  0  0  0  0  0
    1.4497   -1.3575   -6.5214 C   0  0  0  0  0  0  0  0  0  0  0  0
    0.2639   -0.7973   -6.0464 C   0  0  0  0  0  0  0  0  0  0  0  0
   -0.3034   -1.2661   -4.8614 C   0  0  0  0  0  0  0  0  0  0  0  0
    0.3170   -2.2945   -4.1491 C   0  0  0  0  0  0  0  0  0  0  0  0
    1.5043   -2.8560   -4.6254 C   0  0  0  0  0  0  0  0  0  0  0  0
    2.0695   -2.3872   -5.8122 C   0  0  0  0  0  0  0  0  0  0  0  0
    1.8888   -0.9940   -7.4440 H   0  0  0  0  0  0  0  0  0  0  0  0
   -0.2167    0.0031   -6.5979 H   0  0  0  0  0  0  0  0  0  0  0  0
   -1.2269   -0.8327   -4.4934 H   0  0  0  0  0  0  0  0  0  0  0  0
   -0.1218   -2.6625   -3.2284 H   0  0  0  0  0  0  0  0  0  0  0  0
    1.9841   -3.6541   -4.0706 H   0  0  0  0  0  0  0  0  0  0  0  0
    2.9892   -2.8257   -6.1836 H   0  0  0  0  0  0  0  0  0  0  0  0
    3.8991   -1.4537   -0.7244 Al  0  0  0  0  0  0  0  0  0  0  0  0
    4.4865   -0.6138    1.1161 Cl  0  0  0  0  0  0  0  0  0  0  0  0
    5.3792   -1.7863   -2.2060 Cl  0  0  0  0  0  0  0  0  0  0  0  0
    2.3116   -2.8483   -0.7077 Cl  0  0  0  0  0  0  0  0  0  0  0  0
    2.8519    0.5498   -1.6553 Cl  0  0  0  0  0  0  0  0  0  0  0  0
  2  1  3  0  0  0  0
  3 22  1  0  0  0  0
  4  3  1  0  0  0  0
  5  3  1  0  0  0  0
  6  7  2  0  0  0  0
  6 11  1  0  0  0  0
  7  8  1  0  0  0  0
  8 14  1  0  0  0  0
  8  9  2  0  0  0  0
  9 15  1  0  0  0  0
 10  9  1  0  0  0  0
 10 16  1  0  0  0  0
 11 10  2  0  0  0  0
 12  6  1  0  0  0  0
 13  7  1  0  0  0  0
 17 11  1  0  0  0  0
 18 21  1  0  0  0  0
 18 19  1  0  0  0  0
 20 18  1  0  0  0  0
M  END
