Coordinates from ORCA-job C6H6+AlCl4-+NH2--N2+-scan
 OpenBabel10221816113D

 22 19  0  0  0  0  0  0  0  0999 V2000
    4.1760    0.2251   -5.3549 N   0  0  0  0  0  0  0  0  0  0  0  0
    4.4206    1.0382   -6.0511 N   0  0  0  0  0  0  0  0  0  0  0  0
    3.5673    0.1541   -3.4284 N   0  0  0  0  0  0  0  0  0  0  0  0
    2.7767   -0.4212   -3.7487 H   0  0  0  0  0  0  0  0  0  0  0  0
    4.3407   -0.5058   -3.2797 H   0  0  0  0  0  0  0  0  0  0  0  0
    1.6199   -1.8842   -6.8012 C   0  0  0  0  0  0  0  0  0  0  0  0
    0.7732   -0.8700   -6.3540 C   0  0  0  0  0  0  0  0  0  0  0  0
    0.3278   -0.8662   -5.0317 C   0  0  0  0  0  0  0  0  0  0  0  0
    0.7310   -1.8775   -4.1562 C   0  0  0  0  0  0  0  0  0  0  0  0
    1.5831   -2.8901   -4.6044 C   0  0  0  0  0  0  0  0  0  0  0  0
    2.0260   -2.8925   -5.9270 C   0  0  0  0  0  0  0  0  0  0  0  0
    1.9608   -1.8900   -7.8307 H   0  0  0  0  0  0  0  0  0  0  0  0
    0.4552   -0.0886   -7.0354 H   0  0  0  0  0  0  0  0  0  0  0  0
   -0.3412   -0.0854   -4.6866 H   0  0  0  0  0  0  0  0  0  0  0  0
    0.3728   -1.8903   -3.1328 H   0  0  0  0  0  0  0  0  0  0  0  0
    1.8904   -3.6749   -3.9226 H   0  0  0  0  0  0  0  0  0  0  0  0
    2.6823   -3.6819   -6.2765 H   0  0  0  0  0  0  0  0  0  0  0  0
    3.6908   -1.5814   -0.3831 Al  0  0  0  0  0  0  0  0  0  0  0  0
    4.0246   -0.7326    1.5151 Cl  0  0  0  0  0  0  0  0  0  0  0  0
    5.3914   -2.1390   -1.5423 Cl  0  0  0  0  0  0  0  0  0  0  0  0
    2.0294   -2.8764   -0.5853 Cl  0  0  0  0  0  0  0  0  0  0  0  0
    3.0457    0.3899   -1.6162 Cl  0  0  0  0  0  0  0  0  0  0  0  0
  2  1  3  0  0  0  0
  3  5  1  0  0  0  0
  3 22  1  0  0  0  0
  4  3  1  0  0  0  0
  6  7  2  0  0  0  0
  6 11  1  0  0  0  0
  7  8  1  0  0  0  0
  8 14  1  0  0  0  0
  8  9  2  0  0  0  0
  9 15  1  0  0  0  0
 10  9  1  0  0  0  0
 10 16  1  0  0  0  0
 11 10  2  0  0  0  0
 12  6  1  0  0  0  0
 13  7  1  0  0  0  0
 17 11  1  0  0  0  0
 18 19  1  0  0  0  0
 20 18  1  0  0  0  0
 21 18  1  0  0  0  0
M  END
