Coordinates from ORCA-job C6H6+AlCl4-+NH2--N2+-scan
 OpenBabel10221816113D

 22 19  0  0  0  0  0  0  0  0999 V2000
    4.1538    0.2267   -5.2928 N   0  0  0  0  0  0  0  0  0  0  0  0
    4.4378    1.0275   -5.9907 N   0  0  0  0  0  0  0  0  0  0  0  0
    3.5557    0.1449   -3.4896 N   0  0  0  0  0  0  0  0  0  0  0  0
    2.7549   -0.4312   -3.7874 H   0  0  0  0  0  0  0  0  0  0  0  0
    4.3079   -0.5296   -3.2904 H   0  0  0  0  0  0  0  0  0  0  0  0
    1.6443   -1.8841   -6.7851 C   0  0  0  0  0  0  0  0  0  0  0  0
    0.7922   -0.8671   -6.3545 C   0  0  0  0  0  0  0  0  0  0  0  0
    0.3273   -0.8574   -5.0388 C   0  0  0  0  0  0  0  0  0  0  0  0
    0.7163   -1.8658   -4.1532 C   0  0  0  0  0  0  0  0  0  0  0  0
    1.5736   -2.8813   -4.5849 C   0  0  0  0  0  0  0  0  0  0  0  0
    2.0361   -2.8896   -5.9009 C   0  0  0  0  0  0  0  0  0  0  0  0
    1.9996   -1.8951   -7.8098 H   0  0  0  0  0  0  0  0  0  0  0  0
    0.4843   -0.0886   -7.0440 H   0  0  0  0  0  0  0  0  0  0  0  0
   -0.3458   -0.0744   -4.7065 H   0  0  0  0  0  0  0  0  0  0  0  0
    0.3442   -1.8730   -3.1346 H   0  0  0  0  0  0  0  0  0  0  0  0
    1.8703   -3.6633   -3.8951 H   0  0  0  0  0  0  0  0  0  0  0  0
    2.6961   -3.6814   -6.2376 H   0  0  0  0  0  0  0  0  0  0  0  0
    3.6929   -1.5656   -0.4159 Al  0  0  0  0  0  0  0  0  0  0  0  0
    4.0918   -0.7575    1.4888 Cl  0  0  0  0  0  0  0  0  0  0  0  0
    5.3717   -2.1041   -1.6275 Cl  0  0  0  0  0  0  0  0  0  0  0  0
    2.0579   -2.9039   -0.5715 Cl  0  0  0  0  0  0  0  0  0  0  0  0
    2.9816    0.3735   -1.6118 Cl  0  0  0  0  0  0  0  0  0  0  0  0
  2  1  3  0  0  0  0
  3  5  1  0  0  0  0
  3 22  1  0  0  0  0
  4  3  1  0  0  0  0
  6  7  2  0  0  0  0
  6 11  1  0  0  0  0
  7  8  1  0  0  0  0
  8 14  1  0  0  0  0
  8  9  2  0  0  0  0
  9 15  1  0  0  0  0
 10  9  1  0  0  0  0
 10 16  1  0  0  0  0
 11 10  2  0  0  0  0
 12  6  1  0  0  0  0
 13  7  1  0  0  0  0
 17 11  1  0  0  0  0
 18 19  1  0  0  0  0
 20 18  1  0  0  0  0
 21 18  1  0  0  0  0
M  END
