Coordinates from ORCA-job C6H6+AlCl4-+NH2--N2+-scan
 OpenBabel10221816123D

 22 19  0  0  0  0  0  0  0  0999 V2000
    6.4980   -2.7031   -6.6340 N   0  0  0  0  0  0  0  0  0  0  0  0
    7.5385   -3.0436   -6.5955 N   0  0  0  0  0  0  0  0  0  0  0  0
    1.6761    0.6408   -2.9474 N   0  0  0  0  0  0  0  0  0  0  0  0
    1.4227   -0.3031   -3.2529 H   0  0  0  0  0  0  0  0  0  0  0  0
    2.6320    0.8098   -3.2672 H   0  0  0  0  0  0  0  0  0  0  0  0
    1.6003   -0.9388   -6.3831 C   0  0  0  0  0  0  0  0  0  0  0  0
    0.2770   -0.8550   -5.9495 C   0  0  0  0  0  0  0  0  0  0  0  0
   -0.1663   -1.6639   -4.9021 C   0  0  0  0  0  0  0  0  0  0  0  0
    0.7170   -2.5523   -4.2850 C   0  0  0  0  0  0  0  0  0  0  0  0
    2.0420   -2.6351   -4.7199 C   0  0  0  0  0  0  0  0  0  0  0  0
    2.4830   -1.8297   -5.7704 C   0  0  0  0  0  0  0  0  0  0  0  0
    1.9424   -0.3141   -7.2010 H   0  0  0  0  0  0  0  0  0  0  0  0
   -0.4079   -0.1633   -6.4271 H   0  0  0  0  0  0  0  0  0  0  0  0
   -1.1967   -1.6037   -4.5691 H   0  0  0  0  0  0  0  0  0  0  0  0
    0.3755   -3.1848   -3.4729 H   0  0  0  0  0  0  0  0  0  0  0  0
    2.7257   -3.3246   -4.2384 H   0  0  0  0  0  0  0  0  0  0  0  0
    3.5087   -1.9023   -6.1143 H   0  0  0  0  0  0  0  0  0  0  0  0
    3.7905   -0.8523   -0.6316 Al  0  0  0  0  0  0  0  0  0  0  0  0
    4.0516   -0.1784    1.3466 Cl  0  0  0  0  0  0  0  0  0  0  0  0
    5.1059   -0.1322   -2.1326 Cl  0  0  0  0  0  0  0  0  0  0  0  0
    3.0936   -2.8270   -0.9073 Cl  0  0  0  0  0  0  0  0  0  0  0  0
    1.8351    0.5159   -1.1789 Cl  0  0  0  0  0  0  0  0  0  0  0  0
  1  2  3  0  0  0  0
  3 22  1  0  0  0  0
  4  3  1  0  0  0  0
  5  3  1  0  0  0  0
  6  7  2  0  0  0  0
  6 11  1  0  0  0  0
  7  8  1  0  0  0  0
  8 14  1  0  0  0  0
  8  9  2  0  0  0  0
  9 15  1  0  0  0  0
 10  9  1  0  0  0  0
 10 16  1  0  0  0  0
 11 10  2  0  0  0  0
 12  6  1  0  0  0  0
 13  7  1  0  0  0  0
 17 11  1  0  0  0  0
 18 19  1  0  0  0  0
 20 18  1  0  0  0  0
 21 18  1  0  0  0  0
M  END
