Coordinates from ORCA-job C6H6+AlCl4-+NH2--N2+-scan
 OpenBabel10221816113D

 22 19  0  0  0  0  0  0  0  0999 V2000
    6.7309   -0.3550   -5.6050 N   0  0  0  0  0  0  0  0  0  0  0  0
    7.7699   -0.6611   -5.7692 N   0  0  0  0  0  0  0  0  0  0  0  0
    2.5582    0.3639   -3.3948 N   0  0  0  0  0  0  0  0  0  0  0  0
    1.9288   -0.4369   -3.4973 H   0  0  0  0  0  0  0  0  0  0  0  0
    3.4756    0.0661   -3.7323 H   0  0  0  0  0  0  0  0  0  0  0  0
    1.4150   -1.3414   -6.5020 C   0  0  0  0  0  0  0  0  0  0  0  0
    0.2176   -0.8007   -6.0332 C   0  0  0  0  0  0  0  0  0  0  0  0
   -0.3541   -1.2868   -4.8573 C   0  0  0  0  0  0  0  0  0  0  0  0
    0.2733   -2.3130   -4.1480 C   0  0  0  0  0  0  0  0  0  0  0  0
    1.4719   -2.8552   -4.6182 C   0  0  0  0  0  0  0  0  0  0  0  0
    2.0417   -2.3690   -5.7959 C   0  0  0  0  0  0  0  0  0  0  0  0
    1.8577   -0.9644   -7.4175 H   0  0  0  0  0  0  0  0  0  0  0  0
   -0.2684   -0.0020   -6.5824 H   0  0  0  0  0  0  0  0  0  0  0  0
   -1.2865   -0.8685   -4.4942 H   0  0  0  0  0  0  0  0  0  0  0  0
   -0.1691   -2.6945   -3.2345 H   0  0  0  0  0  0  0  0  0  0  0  0
    1.9573   -3.6514   -4.0657 H   0  0  0  0  0  0  0  0  0  0  0  0
    2.9705   -2.7922   -6.1623 H   0  0  0  0  0  0  0  0  0  0  0  0
    3.9135   -1.4365   -0.7581 Al  0  0  0  0  0  0  0  0  0  0  0  0
    4.5159   -0.6075    1.0823 Cl  0  0  0  0  0  0  0  0  0  0  0  0
    5.3687   -1.6936   -2.2799 Cl  0  0  0  0  0  0  0  0  0  0  0  0
    2.3747   -2.8842   -0.7292 Cl  0  0  0  0  0  0  0  0  0  0  0  0
    2.7815    0.5432   -1.6389 Cl  0  0  0  0  0  0  0  0  0  0  0  0
  2  1  3  0  0  0  0
  3 22  1  0  0  0  0
  4  3  1  0  0  0  0
  5  3  1  0  0  0  0
  6  7  2  0  0  0  0
  6 11  1  0  0  0  0
  7  8  1  0  0  0  0
  8 14  1  0  0  0  0
  8  9  2  0  0  0  0
  9 15  1  0  0  0  0
 10  9  1  0  0  0  0
 10 16  1  0  0  0  0
 11 10  2  0  0  0  0
 12  6  1  0  0  0  0
 13  7  1  0  0  0  0
 17 11  1  0  0  0  0
 18 21  1  0  0  0  0
 18 19  1  0  0  0  0
 20 18  1  0  0  0  0
M  END
