Coordinates from ORCA-job C6H6+AlCl4-+NH2--N2+-scan
 OpenBabel10221816123D

 22 19  0  0  0  0  0  0  0  0999 V2000
    6.2377   -2.6699   -5.6560 N   0  0  0  0  0  0  0  0  0  0  0  0
    7.1742   -2.9620   -5.1686 N   0  0  0  0  0  0  0  0  0  0  0  0
    1.8180    0.5834   -3.0425 N   0  0  0  0  0  0  0  0  0  0  0  0
    1.5503   -0.3602   -3.3360 H   0  0  0  0  0  0  0  0  0  0  0  0
    2.7553    0.7525   -3.4132 H   0  0  0  0  0  0  0  0  0  0  0  0
    1.3814   -0.8028   -6.4400 C   0  0  0  0  0  0  0  0  0  0  0  0
    0.0883   -0.8505   -5.9185 C   0  0  0  0  0  0  0  0  0  0  0  0
   -0.2184   -1.7472   -4.8944 C   0  0  0  0  0  0  0  0  0  0  0  0
    0.7703   -2.5941   -4.3891 C   0  0  0  0  0  0  0  0  0  0  0  0
    2.0647   -2.5462   -4.9124 C   0  0  0  0  0  0  0  0  0  0  0  0
    2.3699   -1.6512   -5.9387 C   0  0  0  0  0  0  0  0  0  0  0  0
    1.6176   -0.1082   -7.2388 H   0  0  0  0  0  0  0  0  0  0  0  0
   -0.6787   -0.1910   -6.3090 H   0  0  0  0  0  0  0  0  0  0  0  0
   -1.2246   -1.7874   -4.4919 H   0  0  0  0  0  0  0  0  0  0  0  0
    0.5356   -3.2939   -3.5947 H   0  0  0  0  0  0  0  0  0  0  0  0
    2.8313   -3.2036   -4.5191 H   0  0  0  0  0  0  0  0  0  0  0  0
    3.3746   -1.6208   -6.3451 H   0  0  0  0  0  0  0  0  0  0  0  0
    4.0344   -0.9584   -0.8692 Al  0  0  0  0  0  0  0  0  0  0  0  0
    4.4137   -0.3306    1.1047 Cl  0  0  0  0  0  0  0  0  0  0  0  0
    5.2826   -0.2327   -2.4247 Cl  0  0  0  0  0  0  0  0  0  0  0  0
    3.2897   -2.9149   -1.1509 Cl  0  0  0  0  0  0  0  0  0  0  0  0
    2.0765    0.4491   -1.2857 Cl  0  0  0  0  0  0  0  0  0  0  0  0
  1  2  3  0  0  0  0
  3 22  1  0  0  0  0
  4  3  1  0  0  0  0
  5  3  1  0  0  0  0
  6 11  2  0  0  0  0
  6  7  1  0  0  0  0
  7  8  2  0  0  0  0
  8 14  1  0  0  0  0
  8  9  1  0  0  0  0
  9 15  1  0  0  0  0
 10 16  1  0  0  0  0
 10  9  2  0  0  0  0
 11 10  1  0  0  0  0
 12  6  1  0  0  0  0
 13  7  1  0  0  0  0
 17 11  1  0  0  0  0
 18 19  1  0  0  0  0
 20 18  1  0  0  0  0
 21 18  1  0  0  0  0
M  END
