Coordinates from ORCA-job C6H6+AlCl4-+NH2--N2+-scan
 OpenBabel10221816123D

 22 19  0  0  0  0  0  0  0  0999 V2000
    7.2243   -0.6136   -5.6162 N   0  0  0  0  0  0  0  0  0  0  0  0
    8.2094   -0.9678   -5.2932 N   0  0  0  0  0  0  0  0  0  0  0  0
    2.4183    0.4006   -3.4035 N   0  0  0  0  0  0  0  0  0  0  0  0
    1.8245   -0.4266   -3.5089 H   0  0  0  0  0  0  0  0  0  0  0  0
    3.3415    0.1482   -3.7619 H   0  0  0  0  0  0  0  0  0  0  0  0
    1.3075   -1.2627   -6.4810 C   0  0  0  0  0  0  0  0  0  0  0  0
    0.0912   -0.8006   -5.9780 C   0  0  0  0  0  0  0  0  0  0  0  0
   -0.4421   -1.3617   -4.8175 C   0  0  0  0  0  0  0  0  0  0  0  0
    0.2427   -2.3843   -4.1578 C   0  0  0  0  0  0  0  0  0  0  0  0
    1.4602   -2.8480   -4.6622 C   0  0  0  0  0  0  0  0  0  0  0  0
    1.9916   -2.2869   -5.8245 C   0  0  0  0  0  0  0  0  0  0  0  0
    1.7204   -0.8275   -7.3845 H   0  0  0  0  0  0  0  0  0  0  0  0
   -0.4392   -0.0045   -6.4884 H   0  0  0  0  0  0  0  0  0  0  0  0
   -1.3890   -1.0045   -4.4279 H   0  0  0  0  0  0  0  0  0  0  0  0
   -0.1700   -2.8237   -3.2565 H   0  0  0  0  0  0  0  0  0  0  0  0
    1.9904   -3.6413   -4.1481 H   0  0  0  0  0  0  0  0  0  0  0  0
    2.9351   -2.6490   -6.2177 H   0  0  0  0  0  0  0  0  0  0  0  0
    3.9891   -1.3506   -0.8626 Al  0  0  0  0  0  0  0  0  0  0  0  0
    4.5915   -0.5318    0.9815 Cl  0  0  0  0  0  0  0  0  0  0  0  0
    5.3971   -1.4312   -2.4479 Cl  0  0  0  0  0  0  0  0  0  0  0  0
    2.5813   -2.9253   -0.8293 Cl  0  0  0  0  0  0  0  0  0  0  0  0
    2.6687    0.5523   -1.6475 Cl  0  0  0  0  0  0  0  0  0  0  0  0
  1  2  3  0  0  0  0
  3 22  1  0  0  0  0
  4  3  1  0  0  0  0
  5  3  1  0  0  0  0
  6  7  2  0  0  0  0
  6 11  1  0  0  0  0
  7  8  1  0  0  0  0
  8 14  1  0  0  0  0
  8  9  2  0  0  0  0
  9 15  1  0  0  0  0
 10  9  1  0  0  0  0
 10 16  1  0  0  0  0
 11 10  2  0  0  0  0
 12  6  1  0  0  0  0
 13  7  1  0  0  0  0
 17 11  1  0  0  0  0
 18 21  1  0  0  0  0
 18 19  1  0  0  0  0
 20 18  1  0  0  0  0
M  END
