Coordinates from ORCA-job C6H6+AlCl4-+NH2--N2+-scan
 OpenBabel10221816113D

 22 20  0  0  0  0  0  0  0  0999 V2000
    3.8556   -0.3273   -4.7254 N   0  0  0  0  0  0  0  0  0  0  0  0
    3.9601   -0.1674   -5.8318 N   0  0  0  0  0  0  0  0  0  0  0  0
    3.7793   -0.4746   -3.5771 N   0  0  0  0  0  0  0  0  0  0  0  0
    2.9832   -0.9688   -3.1083 H   0  0  0  0  0  0  0  0  0  0  0  0
    4.5379   -0.1433   -2.8656 H   0  0  0  0  0  0  0  0  0  0  0  0
    1.3734   -1.9962   -7.0200 C   0  0  0  0  0  0  0  0  0  0  0  0
    0.7255   -0.7763   -6.8219 C   0  0  0  0  0  0  0  0  0  0  0  0
    0.2564   -0.4329   -5.5538 C   0  0  0  0  0  0  0  0  0  0  0  0
    0.4326   -1.3110   -4.4827 C   0  0  0  0  0  0  0  0  0  0  0  0
    1.0823   -2.5325   -4.6807 C   0  0  0  0  0  0  0  0  0  0  0  0
    1.5532   -2.8734   -5.9501 C   0  0  0  0  0  0  0  0  0  0  0  0
    1.7317   -2.2652   -8.0075 H   0  0  0  0  0  0  0  0  0  0  0  0
    0.5806   -0.0981   -7.6556 H   0  0  0  0  0  0  0  0  0  0  0  0
   -0.2581    0.5097   -5.4020 H   0  0  0  0  0  0  0  0  0  0  0  0
    0.0495   -1.0560   -3.5005 H   0  0  0  0  0  0  0  0  0  0  0  0
    1.2032   -3.2210   -3.8514 H   0  0  0  0  0  0  0  0  0  0  0  0
    2.0472   -3.8262   -6.1060 H   0  0  0  0  0  0  0  0  0  0  0  0
    4.3409   -1.4809   -0.1125 Al  0  0  0  0  0  0  0  0  0  0  0  0
    4.1408   -0.8867    1.9046 Cl  0  0  0  0  0  0  0  0  0  0  0  0
    5.4352    0.1321   -1.2470 Cl  0  0  0  0  0  0  0  0  0  0  0  0
    5.3563   -3.3083   -0.5023 Cl  0  0  0  0  0  0  0  0  0  0  0  0
    2.3777   -1.5364   -1.1360 Cl  0  0  0  0  0  0  0  0  0  0  0  0
  1  3  1  0  0  0  0
  2  1  1  0  0  0  0
  3  4  1  0  0  0  0
  3  5  1  0  0  0  0
  6  7  2  0  0  0  0
  6 11  1  0  0  0  0
  7  8  1  0  0  0  0
  8 14  1  0  0  0  0
  8  9  2  0  0  0  0
  9 15  1  0  0  0  0
 10  9  1  0  0  0  0
 10 16  1  0  0  0  0
 11 10  2  0  0  0  0
 12  6  1  0  0  0  0
 13  7  1  0  0  0  0
 17 11  1  0  0  0  0
 18 19  1  0  0  0  0
 20 18  1  0  0  0  0
 21 18  1  0  0  0  0
 22 18  1  0  0  0  0
M  RAD  2   1   2   2   3
M  END
