Coordinates from ORCA-job C6H6+AlCl4-+NH2--N2+-scan
 OpenBabel10221816113D

 22 19  0  0  0  0  0  0  0  0999 V2000
    4.5774    0.2011   -5.7615 N   0  0  0  0  0  0  0  0  0  0  0  0
    4.6320    0.8957   -6.6068 N   0  0  0  0  0  0  0  0  0  0  0  0
    3.4195    0.2058   -3.2860 N   0  0  0  0  0  0  0  0  0  0  0  0
    2.6798   -0.4041   -3.6482 H   0  0  0  0  0  0  0  0  0  0  0  0
    4.2873   -0.3333   -3.2981 H   0  0  0  0  0  0  0  0  0  0  0  0
    1.6402   -1.8095   -6.7382 C   0  0  0  0  0  0  0  0  0  0  0  0
    0.7346   -0.8489   -6.2889 C   0  0  0  0  0  0  0  0  0  0  0  0
    0.2511   -0.9043   -4.9814 C   0  0  0  0  0  0  0  0  0  0  0  0
    0.6756   -1.9209   -4.1227 C   0  0  0  0  0  0  0  0  0  0  0  0
    1.5859   -2.8804   -4.5729 C   0  0  0  0  0  0  0  0  0  0  0  0
    2.0667   -2.8240   -5.8810 C   0  0  0  0  0  0  0  0  0  0  0  0
    2.0117   -1.7687   -7.7563 H   0  0  0  0  0  0  0  0  0  0  0  0
    0.4025   -0.0617   -6.9568 H   0  0  0  0  0  0  0  0  0  0  0  0
   -0.4608   -0.1633   -4.6342 H   0  0  0  0  0  0  0  0  0  0  0  0
    0.2909   -1.9779   -3.1104 H   0  0  0  0  0  0  0  0  0  0  0  0
    1.9106   -3.6695   -3.9041 H   0  0  0  0  0  0  0  0  0  0  0  0
    2.7693   -3.5717   -6.2321 H   0  0  0  0  0  0  0  0  0  0  0  0
    3.6784   -1.6675   -0.3512 Al  0  0  0  0  0  0  0  0  0  0  0  0
    3.9379   -0.8007    1.5503 Cl  0  0  0  0  0  0  0  0  0  0  0  0
    5.3987   -2.1638   -1.4894 Cl  0  0  0  0  0  0  0  0  0  0  0  0
    2.0180   -2.9472   -0.6140 Cl  0  0  0  0  0  0  0  0  0  0  0  0
    3.0372    0.3743   -1.5496 Cl  0  0  0  0  0  0  0  0  0  0  0  0
  2  1  3  0  0  0  0
  3 22  1  0  0  0  0
  4  3  1  0  0  0  0
  5  3  1  0  0  0  0
  6  7  2  0  0  0  0
  6 11  1  0  0  0  0
  7  8  1  0  0  0  0
  8 14  1  0  0  0  0
  8  9  2  0  0  0  0
  9 15  1  0  0  0  0
 10  9  1  0  0  0  0
 10 16  1  0  0  0  0
 11 10  2  0  0  0  0
 12  6  1  0  0  0  0
 13  7  1  0  0  0  0
 17 11  1  0  0  0  0
 18 19  1  0  0  0  0
 20 18  1  0  0  0  0
 21 18  1  0  0  0  0
M  END
