Coordinates from ORCA-job C6H6+AlCl4-+NH2--N2+-scan
 OpenBabel10221816113D

 22 19  0  0  0  0  0  0  0  0999 V2000
    6.0719   -0.2757   -5.4229 N   0  0  0  0  0  0  0  0  0  0  0  0
    7.0450   -0.5298   -5.8568 N   0  0  0  0  0  0  0  0  0  0  0  0
    2.7138    0.3501   -3.4297 N   0  0  0  0  0  0  0  0  0  0  0  0
    2.0661   -0.4370   -3.5229 H   0  0  0  0  0  0  0  0  0  0  0  0
    3.6250    0.0320   -3.7655 H   0  0  0  0  0  0  0  0  0  0  0  0
    1.4844   -1.3794   -6.5448 C   0  0  0  0  0  0  0  0  0  0  0  0
    0.3133   -0.7956   -6.0617 C   0  0  0  0  0  0  0  0  0  0  0  0
   -0.2472   -1.2434   -4.8654 C   0  0  0  0  0  0  0  0  0  0  0  0
    0.3653   -2.2743   -4.1500 C   0  0  0  0  0  0  0  0  0  0  0  0
    1.5380   -2.8591   -4.6342 C   0  0  0  0  0  0  0  0  0  0  0  0
    2.0963   -2.4115   -5.8323 C   0  0  0  0  0  0  0  0  0  0  0  0
    1.9179   -1.0324   -7.4763 H   0  0  0  0  0  0  0  0  0  0  0  0
   -0.1612    0.0066   -6.6158 H   0  0  0  0  0  0  0  0  0  0  0  0
   -1.1594   -0.7917   -4.4911 H   0  0  0  0  0  0  0  0  0  0  0  0
   -0.0682   -2.6261   -3.2205 H   0  0  0  0  0  0  0  0  0  0  0  0
    2.0115   -3.6594   -4.0770 H   0  0  0  0  0  0  0  0  0  0  0  0
    3.0043   -2.8685   -6.2101 H   0  0  0  0  0  0  0  0  0  0  0  0
    3.8887   -1.4744   -0.6968 Al  0  0  0  0  0  0  0  0  0  0  0  0
    4.4776   -0.6189    1.1365 Cl  0  0  0  0  0  0  0  0  0  0  0  0
    5.3791   -1.9037   -2.1407 Cl  0  0  0  0  0  0  0  0  0  0  0  0
    2.2441   -2.8017   -0.6780 Cl  0  0  0  0  0  0  0  0  0  0  0  0
    2.9382    0.5534   -1.6776 Cl  0  0  0  0  0  0  0  0  0  0  0  0
  2  1  3  0  0  0  0
  3 22  1  0  0  0  0
  4  3  1  0  0  0  0
  5  3  1  0  0  0  0
  6  7  2  0  0  0  0
  6 11  1  0  0  0  0
  7  8  1  0  0  0  0
  8 14  1  0  0  0  0
  8  9  2  0  0  0  0
  9 15  1  0  0  0  0
 10  9  1  0  0  0  0
 10 16  1  0  0  0  0
 11 10  2  0  0  0  0
 12  6  1  0  0  0  0
 13  7  1  0  0  0  0
 17 11  1  0  0  0  0
 18 21  1  0  0  0  0
 18 19  1  0  0  0  0
 20 18  1  0  0  0  0
M  END
