Coordinates from ORCA-job C6H6+AlCl4-+NH2--N2+-scan
 OpenBabel10221816113D

 22 19  0  0  0  0  0  0  0  0999 V2000
    6.0870   -0.2794   -5.4283 N   0  0  0  0  0  0  0  0  0  0  0  0
    7.0622   -0.5351   -5.8565 N   0  0  0  0  0  0  0  0  0  0  0  0
    2.7098    0.3505   -3.4288 N   0  0  0  0  0  0  0  0  0  0  0  0
    2.0627   -0.4371   -3.5222 H   0  0  0  0  0  0  0  0  0  0  0  0
    3.6213    0.0332   -3.7645 H   0  0  0  0  0  0  0  0  0  0  0  0
    1.4828   -1.3779   -6.5437 C   0  0  0  0  0  0  0  0  0  0  0  0
    0.3109   -0.7956   -6.0608 C   0  0  0  0  0  0  0  0  0  0  0  0
   -0.2497   -1.2448   -4.8650 C   0  0  0  0  0  0  0  0  0  0  0  0
    0.3636   -2.2755   -4.1500 C   0  0  0  0  0  0  0  0  0  0  0  0
    1.5372   -2.8588   -4.6341 C   0  0  0  0  0  0  0  0  0  0  0  0
    2.0956   -2.4097   -5.8316 C   0  0  0  0  0  0  0  0  0  0  0  0
    1.9164   -1.0298   -7.4749 H   0  0  0  0  0  0  0  0  0  0  0  0
   -0.1642    0.0065   -6.6146 H   0  0  0  0  0  0  0  0  0  0  0  0
   -1.1625   -0.7943   -4.4908 H   0  0  0  0  0  0  0  0  0  0  0  0
   -0.0698   -2.6283   -3.2209 H   0  0  0  0  0  0  0  0  0  0  0  0
    2.0114   -3.6588   -4.0772 H   0  0  0  0  0  0  0  0  0  0  0  0
    3.0042   -2.8655   -6.2093 H   0  0  0  0  0  0  0  0  0  0  0  0
    3.8888   -1.4733   -0.6977 Al  0  0  0  0  0  0  0  0  0  0  0  0
    4.4774   -0.6182    1.1358 Cl  0  0  0  0  0  0  0  0  0  0  0  0
    5.3790   -1.8986   -2.1431 Cl  0  0  0  0  0  0  0  0  0  0  0  0
    2.2467   -2.8036   -0.6789 Cl  0  0  0  0  0  0  0  0  0  0  0  0
    2.9340    0.5535   -1.6766 Cl  0  0  0  0  0  0  0  0  0  0  0  0
  2  1  3  0  0  0  0
  3 22  1  0  0  0  0
  4  3  1  0  0  0  0
  5  3  1  0  0  0  0
  6  7  2  0  0  0  0
  6 11  1  0  0  0  0
  7  8  1  0  0  0  0
  8 14  1  0  0  0  0
  8  9  2  0  0  0  0
  9 15  1  0  0  0  0
 10  9  1  0  0  0  0
 10 16  1  0  0  0  0
 11 10  2  0  0  0  0
 12  6  1  0  0  0  0
 13  7  1  0  0  0  0
 17 11  1  0  0  0  0
 18 21  1  0  0  0  0
 18 19  1  0  0  0  0
 20 18  1  0  0  0  0
M  END
