Coordinates from ORCA-job C6H6+AlCl4-+NH2--N2+-scan
 OpenBabel10221816113D

 22 19  0  0  0  0  0  0  0  0999 V2000
    5.3402   -0.0192   -5.7225 N   0  0  0  0  0  0  0  0  0  0  0  0
    5.7271    0.2269   -6.7172 N   0  0  0  0  0  0  0  0  0  0  0  0
    3.0427    0.2691   -3.3659 N   0  0  0  0  0  0  0  0  0  0  0  0
    2.3333   -0.4278   -3.6082 H   0  0  0  0  0  0  0  0  0  0  0  0
    3.9581   -0.1549   -3.5256 H   0  0  0  0  0  0  0  0  0  0  0  0
    1.6560   -1.5593   -6.5792 C   0  0  0  0  0  0  0  0  0  0  0  0
    0.5805   -0.7947   -6.1275 C   0  0  0  0  0  0  0  0  0  0  0  0
   -0.0065   -1.0772   -4.8937 C   0  0  0  0  0  0  0  0  0  0  0  0
    0.4845   -2.1238   -4.1102 C   0  0  0  0  0  0  0  0  0  0  0  0
    1.5623   -2.8887   -4.5628 C   0  0  0  0  0  0  0  0  0  0  0  0
    2.1466   -2.6063   -5.7979 C   0  0  0  0  0  0  0  0  0  0  0  0
    2.1095   -1.3412   -7.5399 H   0  0  0  0  0  0  0  0  0  0  0  0
    0.1996    0.0184   -6.7354 H   0  0  0  0  0  0  0  0  0  0  0  0
   -0.8460   -0.4862   -4.5439 H   0  0  0  0  0  0  0  0  0  0  0  0
    0.0297   -2.3497   -3.1523 H   0  0  0  0  0  0  0  0  0  0  0  0
    1.9409   -3.7002   -3.9518 H   0  0  0  0  0  0  0  0  0  0  0  0
    2.9802   -3.2032   -6.1512 H   0  0  0  0  0  0  0  0  0  0  0  0
    3.7469   -1.5903   -0.5023 Al  0  0  0  0  0  0  0  0  0  0  0  0
    4.1668   -0.7278    1.3734 Cl  0  0  0  0  0  0  0  0  0  0  0  0
    5.3608   -2.0330   -1.8043 Cl  0  0  0  0  0  0  0  0  0  0  0  0
    2.1016   -2.9116   -0.6143 Cl  0  0  0  0  0  0  0  0  0  0  0  0
    2.9297    0.4400   -1.6009 Cl  0  0  0  0  0  0  0  0  0  0  0  0
  2  1  3  0  0  0  0
  3 22  1  0  0  0  0
  4  3  1  0  0  0  0
  5  3  1  0  0  0  0
  6  7  2  0  0  0  0
  6 11  1  0  0  0  0
  7  8  1  0  0  0  0
  8 14  1  0  0  0  0
  8  9  2  0  0  0  0
  9 15  1  0  0  0  0
 10  9  1  0  0  0  0
 10 16  1  0  0  0  0
 11 10  2  0  0  0  0
 12  6  1  0  0  0  0
 13  7  1  0  0  0  0
 17 11  1  0  0  0  0
 18 19  1  0  0  0  0
 20 18  1  0  0  0  0
 21 18  1  0  0  0  0
M  END
