Coordinates from ORCA-job C6H6+AlCl4-+NH2--N2+-scan
 OpenBabel10221816123D

 22 19  0  0  0  0  0  0  0  0999 V2000
    7.4878   -0.9329   -5.6310 N   0  0  0  0  0  0  0  0  0  0  0  0
    8.4231   -1.2111   -5.1329 N   0  0  0  0  0  0  0  0  0  0  0  0
    2.3074    0.4500   -3.3724 N   0  0  0  0  0  0  0  0  0  0  0  0
    1.7576   -0.4053   -3.4921 H   0  0  0  0  0  0  0  0  0  0  0  0
    3.2379    0.2558   -3.7479 H   0  0  0  0  0  0  0  0  0  0  0  0
    1.2429   -1.1974   -6.4807 C   0  0  0  0  0  0  0  0  0  0  0  0
    0.0106   -0.8171   -5.9488 C   0  0  0  0  0  0  0  0  0  0  0  0
   -0.4709   -1.4339   -4.7939 C   0  0  0  0  0  0  0  0  0  0  0  0
    0.2816   -2.4303   -4.1688 C   0  0  0  0  0  0  0  0  0  0  0  0
    1.5151   -2.8119   -4.7022 C   0  0  0  0  0  0  0  0  0  0  0  0
    1.9948   -2.1953   -5.8588 C   0  0  0  0  0  0  0  0  0  0  0  0
    1.6155   -0.7191   -7.3799 H   0  0  0  0  0  0  0  0  0  0  0  0
   -0.5725   -0.0414   -6.4324 H   0  0  0  0  0  0  0  0  0  0  0  0
   -1.4301   -1.1403   -4.3818 H   0  0  0  0  0  0  0  0  0  0  0  0
   -0.0905   -2.9128   -3.2719 H   0  0  0  0  0  0  0  0  0  0  0  0
    2.0978   -3.5852   -4.2149 H   0  0  0  0  0  0  0  0  0  0  0  0
    2.9509   -2.4938   -6.2744 H   0  0  0  0  0  0  0  0  0  0  0  0
    3.9917   -1.2923   -0.8989 Al  0  0  0  0  0  0  0  0  0  0  0  0
    4.5999   -0.4842    0.9480 Cl  0  0  0  0  0  0  0  0  0  0  0  0
    5.3680   -1.2869   -2.5143 Cl  0  0  0  0  0  0  0  0  0  0  0  0
    2.6504   -2.9241   -0.8674 Cl  0  0  0  0  0  0  0  0  0  0  0  0
    2.5757    0.5685   -1.6161 Cl  0  0  0  0  0  0  0  0  0  0  0  0
  1  2  3  0  0  0  0
  3 22  1  0  0  0  0
  4  3  1  0  0  0  0
  5  3  1  0  0  0  0
  6  7  2  0  0  0  0
  6 11  1  0  0  0  0
  7  8  1  0  0  0  0
  8 14  1  0  0  0  0
  8  9  2  0  0  0  0
  9 15  1  0  0  0  0
 10 16  1  0  0  0  0
 10  9  1  0  0  0  0
 11 10  2  0  0  0  0
 12  6  1  0  0  0  0
 13  7  1  0  0  0  0
 17 11  1  0  0  0  0
 18 21  1  0  0  0  0
 18 19  1  0  0  0  0
 20 18  1  0  0  0  0
M  END
