Coordinates from ORCA-job C6H6+AlCl4-+NH2--N2+-scan
 OpenBabel10221816113D

 22 19  0  0  0  0  0  0  0  0999 V2000
    7.0038   -0.4564   -5.6298 N   0  0  0  0  0  0  0  0  0  0  0  0
    8.0442   -0.7976   -5.6666 N   0  0  0  0  0  0  0  0  0  0  0  0
    2.4828    0.3856   -3.3863 N   0  0  0  0  0  0  0  0  0  0  0  0
    1.8726   -0.4296   -3.4922 H   0  0  0  0  0  0  0  0  0  0  0  0
    3.4039    0.1125   -3.7341 H   0  0  0  0  0  0  0  0  0  0  0  0
    1.3676   -1.3077   -6.4920 C   0  0  0  0  0  0  0  0  0  0  0  0
    0.1586   -0.8043   -6.0114 C   0  0  0  0  0  0  0  0  0  0  0  0
   -0.3968   -1.3223   -4.8412 C   0  0  0  0  0  0  0  0  0  0  0  0
    0.2586   -2.3431   -4.1495 C   0  0  0  0  0  0  0  0  0  0  0  0
    1.4688   -2.8479   -4.6316 C   0  0  0  0  0  0  0  0  0  0  0  0
    2.0222   -2.3299   -5.8035 C   0  0  0  0  0  0  0  0  0  0  0  0
    1.7975   -0.9060   -7.4030 H   0  0  0  0  0  0  0  0  0  0  0  0
   -0.3491   -0.0098   -6.5468 H   0  0  0  0  0  0  0  0  0  0  0  0
   -1.3380   -0.9331   -4.4690 H   0  0  0  0  0  0  0  0  0  0  0  0
   -0.1710   -2.7492   -3.2406 H   0  0  0  0  0  0  0  0  0  0  0  0
    1.9759   -3.6399   -4.0926 H   0  0  0  0  0  0  0  0  0  0  0  0
    2.9600   -2.7242   -6.1792 H   0  0  0  0  0  0  0  0  0  0  0  0
    3.9279   -1.4054   -0.7907 Al  0  0  0  0  0  0  0  0  0  0  0  0
    4.5259   -0.5815    1.0532 Cl  0  0  0  0  0  0  0  0  0  0  0  0
    5.3709   -1.5937   -2.3339 Cl  0  0  0  0  0  0  0  0  0  0  0  0
    2.4386   -2.9040   -0.7632 Cl  0  0  0  0  0  0  0  0  0  0  0  0
    2.7197    0.5471   -1.6297 Cl  0  0  0  0  0  0  0  0  0  0  0  0
  2  1  3  0  0  0  0
  3 22  1  0  0  0  0
  4  3  1  0  0  0  0
  5  3  1  0  0  0  0
  6  7  2  0  0  0  0
  6 11  1  0  0  0  0
  7  8  1  0  0  0  0
  8 14  1  0  0  0  0
  8  9  2  0  0  0  0
  9 15  1  0  0  0  0
 10  9  1  0  0  0  0
 10 16  1  0  0  0  0
 11 10  2  0  0  0  0
 12  6  1  0  0  0  0
 13  7  1  0  0  0  0
 17 11  1  0  0  0  0
 18 21  1  0  0  0  0
 18 19  1  0  0  0  0
 20 18  1  0  0  0  0
M  END
