Coordinates from ORCA-job C6H6+AlCl4-+NH2--N2+-scan
 OpenBabel10221816113D

 22 19  0  0  0  0  0  0  0  0999 V2000
    7.0287   -0.4665   -5.6303 N   0  0  0  0  0  0  0  0  0  0  0  0
    8.0685   -0.8104   -5.6554 N   0  0  0  0  0  0  0  0  0  0  0  0
    2.4763    0.3873   -3.3858 N   0  0  0  0  0  0  0  0  0  0  0  0
    1.8679   -0.4292   -3.4919 H   0  0  0  0  0  0  0  0  0  0  0  0
    3.3977    0.1165   -3.7345 H   0  0  0  0  0  0  0  0  0  0  0  0
    1.3626   -1.3046   -6.4914 C   0  0  0  0  0  0  0  0  0  0  0  0
    0.1529   -0.8046   -6.0092 C   0  0  0  0  0  0  0  0  0  0  0  0
   -0.4006   -1.3256   -4.8395 C   0  0  0  0  0  0  0  0  0  0  0  0
    0.2576   -2.3459   -4.1497 C   0  0  0  0  0  0  0  0  0  0  0  0
    1.4685   -2.8473   -4.6332 C   0  0  0  0  0  0  0  0  0  0  0  0
    2.0200   -2.3263   -5.8048 C   0  0  0  0  0  0  0  0  0  0  0  0
    1.7910   -0.9007   -7.4021 H   0  0  0  0  0  0  0  0  0  0  0  0
   -0.3570   -0.0105   -6.5432 H   0  0  0  0  0  0  0  0  0  0  0  0
   -1.3425   -0.9390   -4.4661 H   0  0  0  0  0  0  0  0  0  0  0  0
   -0.1706   -2.7543   -3.2411 H   0  0  0  0  0  0  0  0  0  0  0  0
    1.9779   -3.6389   -4.0957 H   0  0  0  0  0  0  0  0  0  0  0  0
    2.9584   -2.7179   -6.1817 H   0  0  0  0  0  0  0  0  0  0  0  0
    3.9295   -1.4022   -0.7938 Al  0  0  0  0  0  0  0  0  0  0  0  0
    4.5267   -0.5787    1.0505 Cl  0  0  0  0  0  0  0  0  0  0  0  0
    5.3716   -1.5839   -2.3387 Cl  0  0  0  0  0  0  0  0  0  0  0  0
    2.4450   -2.9055   -0.7668 Cl  0  0  0  0  0  0  0  0  0  0  0  0
    2.7144    0.5476   -1.6292 Cl  0  0  0  0  0  0  0  0  0  0  0  0
  2  1  3  0  0  0  0
  3 22  1  0  0  0  0
  4  3  1  0  0  0  0
  5  3  1  0  0  0  0
  6  7  2  0  0  0  0
  6 11  1  0  0  0  0
  7  8  1  0  0  0  0
  8 14  1  0  0  0  0
  8  9  2  0  0  0  0
  9 15  1  0  0  0  0
 10  9  1  0  0  0  0
 10 16  1  0  0  0  0
 11 10  2  0  0  0  0
 12  6  1  0  0  0  0
 13  7  1  0  0  0  0
 17 11  1  0  0  0  0
 18 21  1  0  0  0  0
 18 19  1  0  0  0  0
 20 18  1  0  0  0  0
M  END
