Coordinates from ORCA-job C6H6+AlCl4-+NH2--N2+-scan
 OpenBabel10221816113D

 22 19  0  0  0  0  0  0  0  0999 V2000
    5.9514   -0.2439   -5.3807 N   0  0  0  0  0  0  0  0  0  0  0  0
    6.9069   -0.4818   -5.8604 N   0  0  0  0  0  0  0  0  0  0  0  0
    2.7462    0.3454   -3.4368 N   0  0  0  0  0  0  0  0  0  0  0  0
    2.0927   -0.4371   -3.5278 H   0  0  0  0  0  0  0  0  0  0  0  0
    3.6558    0.0218   -3.7721 H   0  0  0  0  0  0  0  0  0  0  0  0
    1.4982   -1.3932   -6.5527 C   0  0  0  0  0  0  0  0  0  0  0  0
    0.3342   -0.7956   -6.0696 C   0  0  0  0  0  0  0  0  0  0  0  0
   -0.2271   -1.2314   -4.8692 C   0  0  0  0  0  0  0  0  0  0  0  0
    0.3777   -2.2641   -4.1497 C   0  0  0  0  0  0  0  0  0  0  0  0
    1.5435   -2.8626   -4.6339 C   0  0  0  0  0  0  0  0  0  0  0  0
    2.1025   -2.4269   -5.8361 C   0  0  0  0  0  0  0  0  0  0  0  0
    1.9322   -1.0556   -7.4875 H   0  0  0  0  0  0  0  0  0  0  0  0
   -0.1343    0.0079   -6.6268 H   0  0  0  0  0  0  0  0  0  0  0  0
   -1.1339   -0.7692   -4.4949 H   0  0  0  0  0  0  0  0  0  0  0  0
   -0.0565   -2.6068   -3.2172 H   0  0  0  0  0  0  0  0  0  0  0  0
    2.0111   -3.6642   -4.0736 H   0  0  0  0  0  0  0  0  0  0  0  0
    3.0050   -2.8948   -6.2139 H   0  0  0  0  0  0  0  0  0  0  0  0
    3.8871   -1.4840   -0.6902 Al  0  0  0  0  0  0  0  0  0  0  0  0
    4.4828   -0.6272    1.1404 Cl  0  0  0  0  0  0  0  0  0  0  0  0
    5.3744   -1.9435   -2.1277 Cl  0  0  0  0  0  0  0  0  0  0  0  0
    2.2234   -2.7871   -0.6678 Cl  0  0  0  0  0  0  0  0  0  0  0  0
    2.9714    0.5531   -1.6855 Cl  0  0  0  0  0  0  0  0  0  0  0  0
  2  1  3  0  0  0  0
  3 22  1  0  0  0  0
  4  3  1  0  0  0  0
  5  3  1  0  0  0  0
  6  7  2  0  0  0  0
  6 11  1  0  0  0  0
  7  8  1  0  0  0  0
  8 14  1  0  0  0  0
  8  9  2  0  0  0  0
  9 15  1  0  0  0  0
 10  9  1  0  0  0  0
 10 16  1  0  0  0  0
 11 10  2  0  0  0  0
 12  6  1  0  0  0  0
 13  7  1  0  0  0  0
 17 11  1  0  0  0  0
 18 21  1  0  0  0  0
 18 19  1  0  0  0  0
 20 18  1  0  0  0  0
M  END
