Coordinates from ORCA-job C6H6+AlCl4-+NH2--N2+-scan
 OpenBabel10221816113D

 22 19  0  0  0  0  0  0  0  0999 V2000
    4.4591    0.2143   -5.7411 N   0  0  0  0  0  0  0  0  0  0  0  0
    4.5287    0.9462   -6.5532 N   0  0  0  0  0  0  0  0  0  0  0  0
    3.4713    0.2144   -3.2575 N   0  0  0  0  0  0  0  0  0  0  0  0
    2.7277   -0.3815   -3.6346 H   0  0  0  0  0  0  0  0  0  0  0  0
    4.3277   -0.3432   -3.2512 H   0  0  0  0  0  0  0  0  0  0  0  0
    1.6149   -1.8475   -6.7753 C   0  0  0  0  0  0  0  0  0  0  0  0
    0.7385   -0.8628   -6.3202 C   0  0  0  0  0  0  0  0  0  0  0  0
    0.2884   -0.8867   -5.0000 C   0  0  0  0  0  0  0  0  0  0  0  0
    0.7166   -1.8961   -4.1347 C   0  0  0  0  0  0  0  0  0  0  0  0
    1.5980   -2.8795   -4.5908 C   0  0  0  0  0  0  0  0  0  0  0  0
    2.0457   -2.8543   -5.9114 C   0  0  0  0  0  0  0  0  0  0  0  0
    1.9603   -1.8314   -7.8033 H   0  0  0  0  0  0  0  0  0  0  0  0
    0.4029   -0.0817   -6.9935 H   0  0  0  0  0  0  0  0  0  0  0  0
   -0.4021   -0.1277   -4.6481 H   0  0  0  0  0  0  0  0  0  0  0  0
    0.3550   -1.9309   -3.1129 H   0  0  0  0  0  0  0  0  0  0  0  0
    1.9251   -3.6632   -3.9168 H   0  0  0  0  0  0  0  0  0  0  0  0
    2.7256   -3.6206   -6.2672 H   0  0  0  0  0  0  0  0  0  0  0  0
    3.6735   -1.6692   -0.3239 Al  0  0  0  0  0  0  0  0  0  0  0  0
    3.9144   -0.8123    1.5841 Cl  0  0  0  0  0  0  0  0  0  0  0  0
    5.4051   -2.1692   -1.4437 Cl  0  0  0  0  0  0  0  0  0  0  0  0
    2.0092   -2.9375   -0.6139 Cl  0  0  0  0  0  0  0  0  0  0  0  0
    3.0588    0.3797   -1.5244 Cl  0  0  0  0  0  0  0  0  0  0  0  0
  2  1  3  0  0  0  0
  3  5  1  0  0  0  0
  3 22  1  0  0  0  0
  4  3  1  0  0  0  0
  6  7  2  0  0  0  0
  6 11  1  0  0  0  0
  7  8  1  0  0  0  0
  8 14  1  0  0  0  0
  8  9  2  0  0  0  0
  9 15  1  0  0  0  0
 10  9  1  0  0  0  0
 10 16  1  0  0  0  0
 11 10  2  0  0  0  0
 12  6  1  0  0  0  0
 13  7  1  0  0  0  0
 17 11  1  0  0  0  0
 18 19  1  0  0  0  0
 20 18  1  0  0  0  0
 21 18  1  0  0  0  0
M  END
