Coordinates from ORCA-job C6H6+AlCl4-+NH2--N2+-scan
 OpenBabel10221816113D

 22 19  0  0  0  0  0  0  0  0999 V2000
    5.3332   -0.0187   -5.7189 N   0  0  0  0  0  0  0  0  0  0  0  0
    5.7176    0.2305   -6.7137 N   0  0  0  0  0  0  0  0  0  0  0  0
    3.0455    0.2684   -3.3665 N   0  0  0  0  0  0  0  0  0  0  0  0
    2.3356   -0.4280   -3.6088 H   0  0  0  0  0  0  0  0  0  0  0  0
    3.9606   -0.1565   -3.5256 H   0  0  0  0  0  0  0  0  0  0  0  0
    1.6563   -1.5604   -6.5802 C   0  0  0  0  0  0  0  0  0  0  0  0
    0.5817   -0.7947   -6.1283 C   0  0  0  0  0  0  0  0  0  0  0  0
   -0.0051   -1.0762   -4.8942 C   0  0  0  0  0  0  0  0  0  0  0  0
    0.4853   -2.1230   -4.1105 C   0  0  0  0  0  0  0  0  0  0  0  0
    1.5623   -2.8890   -4.5633 C   0  0  0  0  0  0  0  0  0  0  0  0
    2.1464   -2.6076   -5.7987 C   0  0  0  0  0  0  0  0  0  0  0  0
    2.1097   -1.3431   -7.5412 H   0  0  0  0  0  0  0  0  0  0  0  0
    0.2013    0.0185   -6.7364 H   0  0  0  0  0  0  0  0  0  0  0  0
   -0.8439   -0.4844   -4.5443 H   0  0  0  0  0  0  0  0  0  0  0  0
    0.0307   -2.3482   -3.1523 H   0  0  0  0  0  0  0  0  0  0  0  0
    1.9404   -3.7006   -3.9522 H   0  0  0  0  0  0  0  0  0  0  0  0
    2.9793   -3.2054   -6.1521 H   0  0  0  0  0  0  0  0  0  0  0  0
    3.7470   -1.5902   -0.5018 Al  0  0  0  0  0  0  0  0  0  0  0  0
    4.1663   -0.7272    1.3738 Cl  0  0  0  0  0  0  0  0  0  0  0  0
    5.3616   -2.0343   -1.8025 Cl  0  0  0  0  0  0  0  0  0  0  0  0
    2.1011   -2.9106   -0.6143 Cl  0  0  0  0  0  0  0  0  0  0  0  0
    2.9316    0.4401   -1.6017 Cl  0  0  0  0  0  0  0  0  0  0  0  0
  2  1  3  0  0  0  0
  3 22  1  0  0  0  0
  4  3  1  0  0  0  0
  5  3  1  0  0  0  0
  6  7  2  0  0  0  0
  6 11  1  0  0  0  0
  7  8  1  0  0  0  0
  8 14  1  0  0  0  0
  8  9  2  0  0  0  0
  9 15  1  0  0  0  0
 10  9  1  0  0  0  0
 10 16  1  0  0  0  0
 11 10  2  0  0  0  0
 12  6  1  0  0  0  0
 13  7  1  0  0  0  0
 17 11  1  0  0  0  0
 18 19  1  0  0  0  0
 20 18  1  0  0  0  0
 21 18  1  0  0  0  0
M  END
