5
Coordinates from ORCA-job NH2-N2+-scan-d09-169-n800
  N   1.81149387404439    -10.84461810682693      0.05244988879279
  N   2.04839131514514    -11.92502841792451      0.05874965001749
  N   -0.73576834179552      5.86230978454769      0.05625428249152
  H   -0.74582195566816      6.49558368196187      0.89523789295507
  H   -0.74449489172584      6.49565305824166     -0.78269171425685
