5
Coordinates from ORCA-job NH2-N2+-scan-d09-169-n800
  N   0.68015044391871     -3.46922741267053      0.05598670342341
  N   0.91008153386775     -4.55064498814783      0.05598842966032
  N   0.35992889383758      1.12425519990226      0.05614278078953
  H   -0.15882528377229      1.48930887900522      0.89724968110041
  H   -0.15753558785173      1.49020832191087     -0.78536759497365
