5
Coordinates from ORCA-job NH2-N2+-scan-d09-169-n800
  N   0.66265435652144     -3.30566776698208      0.05598571596880
  N   0.86750045871387     -4.39201964528467      0.05606543844605
  N   0.43718728572350      1.13304004996267      0.05615661230378
  H   -0.16736458136899      1.32354378668144      0.89795116877701
  H   -0.16617751958981      1.32500357562264     -0.78615893549563
