5
Coordinates from ORCA-job NH2-N2+-scan-d09-169-n800
  N   0.66864440213844     -3.39732669320704      0.05599870123087
  N   0.90306795404433     -4.47776820651023      0.05599065535631
  N   0.35068298745612      1.05579181068696      0.05610637563501
  H   -0.14494485498411      1.45112036751055      0.89748745053495
  H   -0.14365048865476      1.45208272151975     -0.78558318275712
