5
Coordinates from ORCA-job NH2-N2+-scan-d09-169-n800
  N   1.21524632747999     -6.74277223453487      0.05586022619042
  N   1.40859972027894     -7.83173661046045      0.05588461944485
  N   -0.31502211934278      3.13070931997964      0.05612731042081
  H   -0.33822777557463      3.76390856593576      0.89557682085600
  H   -0.33679615284148      3.76379095907981     -0.78344897691207
