Coordinates from ORCA-job C6H4-N2-B3LYPG-aug-cc-pVDZ-scan-d09-49-n400
 OpenBabel11091809083D

 12 11  0  0  0  0  0  0  0  0999 V2000
   -2.3386    0.0563   -1.1805 C   0  0  0  0  0  0  0  0  0  0  0  0
   -0.9585    0.0183   -1.0278 C   0  0  0  0  0  0  0  0  0  0  0  0
   -0.2798    0.6783   -0.2064 C   0  0  0  0  0  0  0  0  0  0  0  0
   -0.7342    1.5908    0.7329 C   0  0  0  0  0  0  0  0  0  0  0  0
   -2.1432    1.7032    0.6581 C   0  0  0  0  0  0  0  0  0  0  0  0
   -2.9143    0.9655   -0.2617 C   0  0  0  0  0  0  0  0  0  0  0  0
   -2.9346   -0.5136   -1.8911 H   0  0  0  0  0  0  0  0  0  0  0  0
    2.7854    1.1958    0.7949 N   0  0  0  0  0  0  0  0  0  0  0  0
    3.6198    0.6521    0.3178 N   0  0  0  0  0  0  0  0  0  0  0  0
   -3.9981    1.0981   -0.2686 H   0  0  0  0  0  0  0  0  0  0  0  0
   -2.6487    2.3890    1.3410 H   0  0  0  0  0  0  0  0  0  0  0  0
   -0.1343    2.1581    1.4412 H   0  0  0  0  0  0  0  0  0  0  0  0
  1  2  2  0  0  0  0
  1  6  1  0  0  0  0
  2  3  1  0  0  0  0
  3  4  2  0  0  0  0
  4 12  1  0  0  0  0
  5  4  1  0  0  0  0
  5 11  1  0  0  0  0
  6  5  2  0  0  0  0
  7  1  1  0  0  0  0
  9  8  3  0  0  0  0
 10  6  1  0  0  0  0
M  RAD  2   2   2   3   2
M  END
