Coordinates from ORCA-job C6H4-N2-B3LYPG-aug-cc-pVDZ-scan-d09-49-n400
 OpenBabel11091809083D

 12 11  0  0  0  0  0  0  0  0999 V2000
   -2.3948    0.0551   -1.1897 C   0  0  0  0  0  0  0  0  0  0  0  0
   -1.0132   -0.0051   -1.0614 C   0  0  0  0  0  0  0  0  0  0  0  0
   -0.3083    0.6412   -0.2514 C   0  0  0  0  0  0  0  0  0  0  0  0
   -0.7314    1.5588    0.6980 C   0  0  0  0  0  0  0  0  0  0  0  0
   -2.1395    1.6942    0.6487 C   0  0  0  0  0  0  0  0  0  0  0  0
   -2.9388    0.9713   -0.2587 C   0  0  0  0  0  0  0  0  0  0  0  0
   -3.0126   -0.5033   -1.8908 H   0  0  0  0  0  0  0  0  0  0  0  0
    2.8993    1.2578    0.8791 N   0  0  0  0  0  0  0  0  0  0  0  0
    3.7123    0.6991    0.3828 N   0  0  0  0  0  0  0  0  0  0  0  0
   -4.0203    1.1216   -0.2458 H   0  0  0  0  0  0  0  0  0  0  0  0
   -2.6215    2.3864    1.3420 H   0  0  0  0  0  0  0  0  0  0  0  0
   -0.1102    2.1148    1.3970 H   0  0  0  0  0  0  0  0  0  0  0  0
  1  2  2  0  0  0  0
  1  6  1  0  0  0  0
  2  3  1  0  0  0  0
  3  4  2  0  0  0  0
  4 12  1  0  0  0  0
  5  4  1  0  0  0  0
  5 11  1  0  0  0  0
  6 10  1  0  0  0  0
  6  5  2  0  0  0  0
  7  1  1  0  0  0  0
  9  8  3  0  0  0  0
M  RAD  2   2   2   3   2
M  END
