Coordinates from ORCA-job C6H4-N2-B3LYPG-aug-cc-pVDZ-scan-d09-49-n400
 OpenBabel11091809083D

 12 12  0  0  0  0  0  0  0  0999 V2000
   -1.8698    0.1021   -1.0636 C   0  0  0  0  0  0  0  0  0  0  0  0
   -0.4644   -0.0651   -1.0490 C   0  0  0  0  0  0  0  0  0  0  0  0
    0.1995    0.8331    0.0325 C   0  0  0  0  0  0  0  0  0  0  0  0
   -0.6314    1.7041    0.8724 C   0  0  0  0  0  0  0  0  0  0  0  0
   -1.9877    1.7514    0.7329 C   0  0  0  0  0  0  0  0  0  0  0  0
   -2.6162    0.9418   -0.2460 C   0  0  0  0  0  0  0  0  0  0  0  0
   -2.4083   -0.5006   -1.8023 H   0  0  0  0  0  0  0  0  0  0  0  0
    1.1644    0.7945    0.1259 N   0  0  0  0  0  0  0  0  0  0  0  0
    2.3170    0.7268    0.2136 N   0  0  0  0  0  0  0  0  0  0  0  0
   -3.7029    0.9865   -0.3504 H   0  0  0  0  0  0  0  0  0  0  0  0
   -2.5772    2.4083    1.3716 H   0  0  0  0  0  0  0  0  0  0  0  0
   -0.1020    2.3089    1.6120 H   0  0  0  0  0  0  0  0  0  0  0  0
  1  2  2  0  0  0  0
  1  6  1  0  0  0  0
  2  3  1  0  0  0  0
  3  8  1  0  0  0  0
  3  4  2  0  0  0  0
  4 12  1  0  0  0  0
  5  4  1  0  0  0  0
  5 11  1  0  0  0  0
  6  5  2  0  0  0  0
  7  1  1  0  0  0  0
  8  9  1  0  0  0  0
 10  6  1  0  0  0  0
M  RAD  3   2   2   8   2   9   3
M  END
