Coordinates from ORCA-job C6H4-N2-B3LYPG-aug-cc-pVDZ-scan-d09-49-n400
 OpenBabel11091809083D

 12 11  0  0  0  0  0  0  0  0999 V2000
   -2.7638    0.0672   -1.2288 C   0  0  0  0  0  0  0  0  0  0  0  0
   -1.3946   -0.1566   -1.2831 C   0  0  0  0  0  0  0  0  0  0  0  0
   -0.5167    0.3812   -0.5682 C   0  0  0  0  0  0  0  0  0  0  0  0
   -0.7003    1.3187    0.4378 C   0  0  0  0  0  0  0  0  0  0  0  0
   -2.0772    1.6183    0.5743 C   0  0  0  0  0  0  0  0  0  0  0  0
   -3.0687    1.0175   -0.2259 C   0  0  0  0  0  0  0  0  0  0  0  0
   -3.5291   -0.3977   -1.8477 H   0  0  0  0  0  0  0  0  0  0  0  0
    3.4267    1.5810    1.3086 N   0  0  0  0  0  0  0  0  0  0  0  0
    4.3761    1.1374    0.9606 N   0  0  0  0  0  0  0  0  0  0  0  0
   -4.1133    1.2937   -0.0684 H   0  0  0  0  0  0  0  0  0  0  0  0
   -2.3793    2.3449    1.3315 H   0  0  0  0  0  0  0  0  0  0  0  0
    0.0610    1.7863    1.0591 H   0  0  0  0  0  0  0  0  0  0  0  0
  1  6  1  0  0  0  0
  2  1  2  0  0  0  0
  2  3  1  0  0  0  0
  3  4  2  0  0  0  0
  4  5  1  0  0  0  0
  4 12  1  0  0  0  0
  5 11  1  0  0  0  0
  6 10  1  0  0  0  0
  6  5  2  0  0  0  0
  7  1  1  0  0  0  0
  9  8  3  0  0  0  0
M  RAD  2   2   2   3   2
M  END
