Coordinates from ORCA-job C6H4-N2-B3LYPG-aug-cc-pVDZ-scan-d09-49-n400
 OpenBabel11091809083D

 12 11  0  0  0  0  0  0  0  0999 V2000
   -2.4507    0.0546   -1.1982 C   0  0  0  0  0  0  0  0  0  0  0  0
   -1.0681   -0.0302   -1.0969 C   0  0  0  0  0  0  0  0  0  0  0  0
   -0.3377    0.6022   -0.2986 C   0  0  0  0  0  0  0  0  0  0  0  0
   -0.7245    1.5244    0.6612 C   0  0  0  0  0  0  0  0  0  0  0  0
   -2.1312    1.6840    0.6388 C   0  0  0  0  0  0  0  0  0  0  0  0
   -2.9605    0.9778   -0.2546 C   0  0  0  0  0  0  0  0  0  0  0  0
   -3.0916   -0.4910   -1.8884 H   0  0  0  0  0  0  0  0  0  0  0  0
    2.9909    1.3140    0.9535 N   0  0  0  0  0  0  0  0  0  0  0  0
    3.8054    0.7562    0.4591 N   0  0  0  0  0  0  0  0  0  0  0  0
   -4.0386    1.1470   -0.2203 H   0  0  0  0  0  0  0  0  0  0  0  0
   -2.5878    2.3827    1.3428 H   0  0  0  0  0  0  0  0  0  0  0  0
   -0.0846    2.0702    1.3514 H   0  0  0  0  0  0  0  0  0  0  0  0
  1  2  2  0  0  0  0
  1  6  1  0  0  0  0
  2  3  1  0  0  0  0
  3  4  2  0  0  0  0
  4 12  1  0  0  0  0
  5  4  1  0  0  0  0
  5 11  1  0  0  0  0
  6 10  1  0  0  0  0
  6  5  2  0  0  0  0
  7  1  1  0  0  0  0
  9  8  3  0  0  0  0
M  RAD  2   2   2   3   2
M  END
