Coordinates from ORCA-job C6H4-N2-B3LYPG-aug-cc-pVDZ-scan-d09-49-n400
 OpenBabel11091809083D

 12 11  0  0  0  0  0  0  0  0999 V2000
   -2.6660    0.0610   -1.2218 C   0  0  0  0  0  0  0  0  0  0  0  0
   -1.2887   -0.1204   -1.2282 C   0  0  0  0  0  0  0  0  0  0  0  0
   -0.4592    0.4514   -0.4827 C   0  0  0  0  0  0  0  0  0  0  0  0
   -0.7055    1.3861    0.5113 C   0  0  0  0  0  0  0  0  0  0  0  0
   -2.0957    1.6413    0.5970 C   0  0  0  0  0  0  0  0  0  0  0  0
   -3.0374    1.0048   -0.2354 C   0  0  0  0  0  0  0  0  0  0  0  0
   -3.3940   -0.4306   -1.8648 H   0  0  0  0  0  0  0  0  0  0  0  0
    3.2895    1.4966    1.1961 N   0  0  0  0  0  0  0  0  0  0  0  0
    4.2013    1.0150    0.8012 N   0  0  0  0  0  0  0  0  0  0  0  0
   -4.0954    1.2475   -0.1169 H   0  0  0  0  0  0  0  0  0  0  0  0
   -2.4485    2.3606    1.3389 H   0  0  0  0  0  0  0  0  0  0  0  0
    0.0205    1.8786    1.1549 H   0  0  0  0  0  0  0  0  0  0  0  0
  1  6  1  0  0  0  0
  2  1  2  0  0  0  0
  2  3  1  0  0  0  0
  3  4  2  0  0  0  0
  4  5  1  0  0  0  0
  4 12  1  0  0  0  0
  5 11  1  0  0  0  0
  6 10  1  0  0  0  0
  6  5  2  0  0  0  0
  7  1  1  0  0  0  0
  9  8  3  0  0  0  0
M  RAD  2   2   2   3   2
M  END
