Coordinates from ORCA-job C6H4-N2-B3LYPG-aug-cc-pVDZ-scan-d09-49-n400
 OpenBabel11091809083D

 12 11  0  0  0  0  0  0  0  0999 V2000
   -2.4752    0.0547   -1.2015 C   0  0  0  0  0  0  0  0  0  0  0  0
   -1.0924   -0.0408   -1.1121 C   0  0  0  0  0  0  0  0  0  0  0  0
   -0.3520    0.5860   -0.3185 C   0  0  0  0  0  0  0  0  0  0  0  0
   -0.7228    1.5102    0.6457 C   0  0  0  0  0  0  0  0  0  0  0  0
   -2.1286    1.6797    0.6343 C   0  0  0  0  0  0  0  0  0  0  0  0
   -2.9704    0.9806   -0.2529 C   0  0  0  0  0  0  0  0  0  0  0  0
   -3.1259   -0.4853   -1.8870 H   0  0  0  0  0  0  0  0  0  0  0  0
    3.0278    1.3334    0.9800 N   0  0  0  0  0  0  0  0  0  0  0  0
    3.8551    0.7841    0.4972 N   0  0  0  0  0  0  0  0  0  0  0  0
   -4.0469    1.1579   -0.2093 H   0  0  0  0  0  0  0  0  0  0  0  0
   -2.5746    2.3808    1.3428 H   0  0  0  0  0  0  0  0  0  0  0  0
   -0.0732    2.0504    1.3312 H   0  0  0  0  0  0  0  0  0  0  0  0
  1  2  2  0  0  0  0
  1  6  1  0  0  0  0
  2  3  1  0  0  0  0
  3  4  2  0  0  0  0
  4 12  1  0  0  0  0
  5  4  1  0  0  0  0
  5 11  1  0  0  0  0
  6 10  1  0  0  0  0
  6  5  2  0  0  0  0
  7  1  1  0  0  0  0
  9  8  3  0  0  0  0
M  RAD  2   2   2   3   2
M  END
