Coordinates from ORCA-job C6H4-N2-B3LYPG-aug-cc-pVDZ-scan-d09-49-n400
 OpenBabel11091809083D

 12 11  0  0  0  0  0  0  0  0999 V2000
   -2.0552    0.0702   -1.1251 C   0  0  0  0  0  0  0  0  0  0  0  0
   -0.6777    0.1031   -0.8950 C   0  0  0  0  0  0  0  0  0  0  0  0
   -0.1576    0.8358   -0.0161 C   0  0  0  0  0  0  0  0  0  0  0  0
   -0.7190    1.7209    0.8781 C   0  0  0  0  0  0  0  0  0  0  0  0
   -2.1227    1.7375    0.6987 C   0  0  0  0  0  0  0  0  0  0  0  0
   -2.7663    0.9401   -0.2687 C   0  0  0  0  0  0  0  0  0  0  0  0
   -2.5616   -0.5428   -1.8705 H   0  0  0  0  0  0  0  0  0  0  0  0
    2.1379    0.9567    0.4406 N   0  0  0  0  0  0  0  0  0  0  0  0
    3.0243    0.4518    0.0135 N   0  0  0  0  0  0  0  0  0  0  0  0
   -3.8530    0.9970   -0.3592 H   0  0  0  0  0  0  0  0  0  0  0  0
   -2.7230    2.3920    1.3338 H   0  0  0  0  0  0  0  0  0  0  0  0
   -0.2051    2.3296    1.6197 H   0  0  0  0  0  0  0  0  0  0  0  0
  1  2  2  0  0  0  0
  1  6  1  0  0  0  0
  2  3  1  0  0  0  0
  3  4  2  0  0  0  0
  4 12  1  0  0  0  0
  5  4  1  0  0  0  0
  5 11  1  0  0  0  0
  6  5  2  0  0  0  0
  7  1  1  0  0  0  0
  9  8  3  0  0  0  0
 10  6  1  0  0  0  0
M  RAD  2   2   2   3   2
M  END
