Coordinates from ORCA-job C6H4-N2-B3LYPG-aug-cc-pVDZ-scan-d09-49-n400
 OpenBabel11091809083D

 12 12  0  0  0  0  0  0  0  0999 V2000
   -1.8892    0.0991   -1.0696 C   0  0  0  0  0  0  0  0  0  0  0  0
   -0.4699   -0.0370   -1.0191 C   0  0  0  0  0  0  0  0  0  0  0  0
    0.0610    0.8251    0.0028 C   0  0  0  0  0  0  0  0  0  0  0  0
   -0.6494    1.7136    0.8800 C   0  0  0  0  0  0  0  0  0  0  0  0
   -2.0148    1.7578    0.7360 C   0  0  0  0  0  0  0  0  0  0  0  0
   -2.6323    0.9413   -0.2486 C   0  0  0  0  0  0  0  0  0  0  0  0
   -2.4335   -0.5007   -1.8058 H   0  0  0  0  0  0  0  0  0  0  0  0
    1.3450    0.7719    0.1264 N   0  0  0  0  0  0  0  0  0  0  0  0
    2.4631    0.7054    0.2119 N   0  0  0  0  0  0  0  0  0  0  0  0
   -3.7197    0.9854   -0.3536 H   0  0  0  0  0  0  0  0  0  0  0  0
   -2.6152    2.4104    1.3690 H   0  0  0  0  0  0  0  0  0  0  0  0
   -0.1243    2.3195    1.6204 H   0  0  0  0  0  0  0  0  0  0  0  0
  1  2  2  0  0  0  0
  1  6  1  0  0  0  0
  2  3  1  0  0  0  0
  3  8  1  0  0  0  0
  3  4  2  0  0  0  0
  4 12  1  0  0  0  0
  5  4  1  0  0  0  0
  5 11  1  0  0  0  0
  6  5  2  0  0  0  0
  7  1  1  0  0  0  0
  8  9  1  0  0  0  0
 10  6  1  0  0  0  0
M  RAD  3   2   2   8   2   9   3
M  END
