Coordinates from ORCA-job C6H4-N2-B3LYPG-aug-cc-pVDZ-scan-d09-49-n400
 OpenBabel11091809083D

 12 11  0  0  0  0  0  0  0  0999 V2000
   -2.6944    0.0628   -1.2239 C   0  0  0  0  0  0  0  0  0  0  0  0
   -1.3192   -0.1317   -1.2449 C   0  0  0  0  0  0  0  0  0  0  0  0
   -0.4751    0.4301   -0.5083 C   0  0  0  0  0  0  0  0  0  0  0  0
   -0.7023    1.3660    0.4895 C   0  0  0  0  0  0  0  0  0  0  0  0
   -2.0889    1.6345    0.5905 C   0  0  0  0  0  0  0  0  0  0  0  0
   -3.0459    1.0087   -0.2323 C   0  0  0  0  0  0  0  0  0  0  0  0
   -3.4339   -0.4209   -1.8597 H   0  0  0  0  0  0  0  0  0  0  0  0
    3.3249    1.5218    1.2292 N   0  0  0  0  0  0  0  0  0  0  0  0
    4.2481    1.0514    0.8476 N   0  0  0  0  0  0  0  0  0  0  0  0
   -4.1001    1.2616   -0.1020 H   0  0  0  0  0  0  0  0  0  0  0  0
   -2.4264    2.3563    1.3373 H   0  0  0  0  0  0  0  0  0  0  0  0
    0.0341    1.8512    1.1268 H   0  0  0  0  0  0  0  0  0  0  0  0
  1  6  1  0  0  0  0
  2  1  2  0  0  0  0
  2  3  1  0  0  0  0
  3  4  2  0  0  0  0
  4  5  1  0  0  0  0
  4 12  1  0  0  0  0
  5 11  1  0  0  0  0
  6 10  1  0  0  0  0
  6  5  2  0  0  0  0
  7  1  1  0  0  0  0
  9  8  3  0  0  0  0
M  RAD  2   2   2   3   2
M  END
