Coordinates from ORCA-job C6H4-N2-B3LYPG-aug-cc-pVDZ-scan-d09-49-n400
 OpenBabel11091809083D

 12 12  0  0  0  0  0  0  0  0999 V2000
   -1.9068    0.0943   -1.0775 C   0  0  0  0  0  0  0  0  0  0  0  0
   -0.5029    0.0698   -0.9062 C   0  0  0  0  0  0  0  0  0  0  0  0
   -0.0732    0.8666    0.0305 C   0  0  0  0  0  0  0  0  0  0  0  0
   -0.6916    1.7430    0.9066 C   0  0  0  0  0  0  0  0  0  0  0  0
   -2.0799    1.7555    0.7243 C   0  0  0  0  0  0  0  0  0  0  0  0
   -2.6748    0.9375   -0.2589 C   0  0  0  0  0  0  0  0  0  0  0  0
   -2.4052   -0.5245   -1.8281 H   0  0  0  0  0  0  0  0  0  0  0  0
    1.6430    0.8587    0.2640 N   0  0  0  0  0  0  0  0  0  0  0  0
    2.6474    0.4717   -0.0198 N   0  0  0  0  0  0  0  0  0  0  0  0
   -3.7600    0.9652   -0.3817 H   0  0  0  0  0  0  0  0  0  0  0  0
   -2.6988    2.4017    1.3474 H   0  0  0  0  0  0  0  0  0  0  0  0
   -0.1763    2.3524    1.6493 H   0  0  0  0  0  0  0  0  0  0  0  0
  1  2  2  0  0  0  0
  1  6  1  0  0  0  0
  2  3  1  0  0  0  0
  3  8  1  0  0  0  0
  3  4  2  0  0  0  0
  4 12  1  0  0  0  0
  5  4  1  0  0  0  0
  5 11  1  0  0  0  0
  6  5  2  0  0  0  0
  7  1  1  0  0  0  0
  9  8  2  0  0  0  0
 10  6  1  0  0  0  0
M  RAD  2   2   2   9   2
M  END
