Coordinates from ORCA-job C6H4-N2-B3LYPG-aug-cc-pVDZ-scan-d09-49-n400
 OpenBabel11091809083D

 12 12  0  0  0  0  0  0  0  0999 V2000
   -1.8681    0.1019   -1.0636 C   0  0  0  0  0  0  0  0  0  0  0  0
   -0.4673   -0.0712   -1.0562 C   0  0  0  0  0  0  0  0  0  0  0  0
    0.2259    0.8411    0.0441 C   0  0  0  0  0  0  0  0  0  0  0  0
   -0.6302    1.7044    0.8727 C   0  0  0  0  0  0  0  0  0  0  0  0
   -1.9859    1.7503    0.7318 C   0  0  0  0  0  0  0  0  0  0  0  0
   -2.6152    0.9422   -0.2454 C   0  0  0  0  0  0  0  0  0  0  0  0
   -2.4054   -0.5015   -1.8028 H   0  0  0  0  0  0  0  0  0  0  0  0
    1.1412    0.7980    0.1265 N   0  0  0  0  0  0  0  0  0  0  0  0
    2.3033    0.7237    0.2092 N   0  0  0  0  0  0  0  0  0  0  0  0
   -3.7018    0.9864   -0.3501 H   0  0  0  0  0  0  0  0  0  0  0  0
   -2.5748    2.4072    1.3711 H   0  0  0  0  0  0  0  0  0  0  0  0
   -0.1008    2.3093    1.6125 H   0  0  0  0  0  0  0  0  0  0  0  0
  1  2  2  0  0  0  0
  1  6  1  0  0  0  0
  2  3  1  0  0  0  0
  3  8  1  0  0  0  0
  3  4  2  0  0  0  0
  4 12  1  0  0  0  0
  5  4  1  0  0  0  0
  5 11  1  0  0  0  0
  6  5  2  0  0  0  0
  7  1  1  0  0  0  0
  8  9  1  0  0  0  0
 10  6  1  0  0  0  0
M  RAD  3   2   2   8   2   9   3
M  END
