Coordinates from ORCA-job C6H4-N2-B3LYPG-aug-cc-pVDZ-scan-d09-49-n400
 OpenBabel11091809083D

 12 11  0  0  0  0  0  0  0  0999 V2000
   -2.5067    0.0552   -1.2055 C   0  0  0  0  0  0  0  0  0  0  0  0
   -1.1238   -0.0540   -1.1312 C   0  0  0  0  0  0  0  0  0  0  0  0
   -0.3697    0.5650   -0.3445 C   0  0  0  0  0  0  0  0  0  0  0  0
   -0.7209    1.4913    0.6250 C   0  0  0  0  0  0  0  0  0  0  0  0
   -2.1251    1.6741    0.6287 C   0  0  0  0  0  0  0  0  0  0  0  0
   -2.9829    0.9843   -0.2505 C   0  0  0  0  0  0  0  0  0  0  0  0
   -3.1698   -0.4776   -1.8847 H   0  0  0  0  0  0  0  0  0  0  0  0
    3.0751    1.3588    1.0143 N   0  0  0  0  0  0  0  0  0  0  0  0
    3.9177    0.8203    0.5462 N   0  0  0  0  0  0  0  0  0  0  0  0
   -4.0571    1.1719   -0.1951 H   0  0  0  0  0  0  0  0  0  0  0  0
   -2.5569    2.3784    1.3428 H   0  0  0  0  0  0  0  0  0  0  0  0
   -0.0589    2.0242    1.3042 H   0  0  0  0  0  0  0  0  0  0  0  0
  1  2  2  0  0  0  0
  1  6  1  0  0  0  0
  2  3  1  0  0  0  0
  3  4  2  0  0  0  0
  4  5  1  0  0  0  0
  4 12  1  0  0  0  0
  5 11  1  0  0  0  0
  6 10  1  0  0  0  0
  6  5  2  0  0  0  0
  7  1  1  0  0  0  0
  9  8  3  0  0  0  0
M  RAD  2   2   2   3   2
M  END
