Coordinates from ORCA-job C6H4-N2-B3LYPG-aug-cc-pVDZ-scan-d09-49-n400
 OpenBabel11091809083D

 12 11  0  0  0  0  0  0  0  0999 V2000
   -2.0383    0.0718   -1.1209 C   0  0  0  0  0  0  0  0  0  0  0  0
   -0.6609    0.1079   -0.8874 C   0  0  0  0  0  0  0  0  0  0  0  0
   -0.1493    0.8444   -0.0055 C   0  0  0  0  0  0  0  0  0  0  0  0
   -0.7192    1.7276    0.8854 C   0  0  0  0  0  0  0  0  0  0  0  0
   -2.1215    1.7394    0.7010 C   0  0  0  0  0  0  0  0  0  0  0  0
   -2.7574    0.9388   -0.2689 C   0  0  0  0  0  0  0  0  0  0  0  0
   -2.5394   -0.5435   -1.8681 H   0  0  0  0  0  0  0  0  0  0  0  0
    2.1012    0.9465    0.4242 N   0  0  0  0  0  0  0  0  0  0  0  0
    2.9843    0.4384   -0.0067 N   0  0  0  0  0  0  0  0  0  0  0  0
   -3.8440    0.9909   -0.3646 H   0  0  0  0  0  0  0  0  0  0  0  0
   -2.7267    2.3920    1.3333 H   0  0  0  0  0  0  0  0  0  0  0  0
   -0.2079    2.3375    1.6280 H   0  0  0  0  0  0  0  0  0  0  0  0
  1  2  2  0  0  0  0
  1  6  1  0  0  0  0
  2  3  1  0  0  0  0
  3  4  2  0  0  0  0
  4 12  1  0  0  0  0
  5  4  1  0  0  0  0
  5 11  1  0  0  0  0
  6  5  2  0  0  0  0
  7  1  1  0  0  0  0
  9  8  3  0  0  0  0
 10  6  1  0  0  0  0
M  RAD  2   2   2   3   2
M  END
