Coordinates from ORCA-job C6H4-N2-B3LYPG-aug-cc-pVDZ-scan-d09-49-n400
 OpenBabel11091809083D

 12 11  0  0  0  0  0  0  0  0999 V2000
   -2.7767    0.0682   -1.2296 C   0  0  0  0  0  0  0  0  0  0  0  0
   -1.4088   -0.1614   -1.2904 C   0  0  0  0  0  0  0  0  0  0  0  0
   -0.5251    0.3720   -0.5795 C   0  0  0  0  0  0  0  0  0  0  0  0
   -0.6999    1.3097    0.4279 C   0  0  0  0  0  0  0  0  0  0  0  0
   -2.0749    1.6152    0.5712 C   0  0  0  0  0  0  0  0  0  0  0  0
   -3.0728    1.0191   -0.2246 C   0  0  0  0  0  0  0  0  0  0  0  0
   -3.5470   -0.3930   -1.8451 H   0  0  0  0  0  0  0  0  0  0  0  0
    3.4456    1.5923    1.3237 N   0  0  0  0  0  0  0  0  0  0  0  0
    4.3996    1.1538    0.9820 N   0  0  0  0  0  0  0  0  0  0  0  0
   -4.1154    1.2997   -0.0620 H   0  0  0  0  0  0  0  0  0  0  0  0
   -2.3702    2.3426    1.3303 H   0  0  0  0  0  0  0  0  0  0  0  0
    0.0663    1.7737    1.0460 H   0  0  0  0  0  0  0  0  0  0  0  0
  1  6  1  0  0  0  0
  2  1  2  0  0  0  0
  2  3  1  0  0  0  0
  3  4  2  0  0  0  0
  4  5  1  0  0  0  0
  4 12  1  0  0  0  0
  5 11  1  0  0  0  0
  6 10  1  0  0  0  0
  6  5  2  0  0  0  0
  7  1  1  0  0  0  0
  9  8  3  0  0  0  0
M  RAD  2   2   2   3   2
M  END
