Coordinates from ORCA-job C6H4-N2-B3LYPG-aug-cc-pVDZ-scan-d09-49-n400
 OpenBabel11091809083D

 12 11  0  0  0  0  0  0  0  0999 V2000
   -2.3003    0.0573   -1.1739 C   0  0  0  0  0  0  0  0  0  0  0  0
   -0.9214    0.0333   -1.0059 C   0  0  0  0  0  0  0  0  0  0  0  0
   -0.2610    0.7024   -0.1771 C   0  0  0  0  0  0  0  0  0  0  0  0
   -0.7346    1.6114    0.7556 C   0  0  0  0  0  0  0  0  0  0  0  0
   -2.1437    1.7088    0.6641 C   0  0  0  0  0  0  0  0  0  0  0  0
   -2.8963    0.9617   -0.2634 C   0  0  0  0  0  0  0  0  0  0  0  0
   -2.8822   -0.5198   -1.8905 H   0  0  0  0  0  0  0  0  0  0  0  0
    2.7031    1.1558    0.7394 N   0  0  0  0  0  0  0  0  0  0  0  0
    3.5511    0.6222    0.2750 N   0  0  0  0  0  0  0  0  0  0  0  0
   -3.9812    1.0830   -0.2829 H   0  0  0  0  0  0  0  0  0  0  0  0
   -2.6644    2.3902    1.3400 H   0  0  0  0  0  0  0  0  0  0  0  0
   -0.1482    2.1856    1.4696 H   0  0  0  0  0  0  0  0  0  0  0  0
  1  2  2  0  0  0  0
  1  6  1  0  0  0  0
  2  3  1  0  0  0  0
  3  4  2  0  0  0  0
  4 12  1  0  0  0  0
  5  4  1  0  0  0  0
  5 11  1  0  0  0  0
  6  5  2  0  0  0  0
  7  1  1  0  0  0  0
  9  8  3  0  0  0  0
 10  6  1  0  0  0  0
M  RAD  2   2   2   3   2
M  END
