Coordinates from ORCA-job C6H4-N2-B3LYPG-aug-cc-pVDZ-scan-d09-49-n400
 OpenBabel11091809083D

 12 11  0  0  0  0  0  0  0  0999 V2000
   -2.1328    0.0650   -1.1418 C   0  0  0  0  0  0  0  0  0  0  0  0
   -0.7560    0.0852   -0.9256 C   0  0  0  0  0  0  0  0  0  0  0  0
   -0.1914    0.7984   -0.0617 C   0  0  0  0  0  0  0  0  0  0  0  0
   -0.7266    1.6911    0.8443 C   0  0  0  0  0  0  0  0  0  0  0  0
   -2.1337    1.7298    0.6886 C   0  0  0  0  0  0  0  0  0  0  0  0
   -2.8098    0.9466   -0.2679 C   0  0  0  0  0  0  0  0  0  0  0  0
   -2.6608   -0.5382   -1.8794 H   0  0  0  0  0  0  0  0  0  0  0  0
    2.3194    1.0009    0.5153 N   0  0  0  0  0  0  0  0  0  0  0  0
    3.2162    0.5067    0.1004 N   0  0  0  0  0  0  0  0  0  0  0  0
   -3.8968    1.0225   -0.3375 H   0  0  0  0  0  0  0  0  0  0  0  0
   -2.7121    2.3924    1.3357 H   0  0  0  0  0  0  0  0  0  0  0  0
   -0.1947    2.2914    1.5794 H   0  0  0  0  0  0  0  0  0  0  0  0
  1  2  2  0  0  0  0
  1  6  1  0  0  0  0
  2  3  1  0  0  0  0
  3  4  2  0  0  0  0
  4 12  1  0  0  0  0
  5  4  1  0  0  0  0
  5 11  1  0  0  0  0
  6  5  2  0  0  0  0
  7  1  1  0  0  0  0
  9  8  3  0  0  0  0
 10  6  1  0  0  0  0
M  RAD  2   2   2   3   2
M  END
