Coordinates from ORCA-job C6H4-N2-B3LYPG-aug-cc-pVDZ-scan-d09-49-n400
 OpenBabel11091809083D

 12 12  0  0  0  0  0  0  0  0999 V2000
   -1.8930    0.0994   -1.0699 C   0  0  0  0  0  0  0  0  0  0  0  0
   -0.4721   -0.0177   -0.9980 C   0  0  0  0  0  0  0  0  0  0  0  0
    0.0079    0.8331    0.0050 C   0  0  0  0  0  0  0  0  0  0  0  0
   -0.6622    1.7214    0.8870 C   0  0  0  0  0  0  0  0  0  0  0  0
   -2.0339    1.7602    0.7360 C   0  0  0  0  0  0  0  0  0  0  0  0
   -2.6428    0.9417   -0.2497 C   0  0  0  0  0  0  0  0  0  0  0  0
   -2.4317   -0.5029   -1.8080 H   0  0  0  0  0  0  0  0  0  0  0  0
    1.4218    0.7693    0.1345 N   0  0  0  0  0  0  0  0  0  0  0  0
    2.5328    0.6680    0.1799 N   0  0  0  0  0  0  0  0  0  0  0  0
   -3.7298    0.9816   -0.3594 H   0  0  0  0  0  0  0  0  0  0  0  0
   -2.6395    2.4109    1.3659 H   0  0  0  0  0  0  0  0  0  0  0  0
   -0.1365    2.3267    1.6267 H   0  0  0  0  0  0  0  0  0  0  0  0
  1  2  2  0  0  0  0
  1  6  1  0  0  0  0
  2  3  1  0  0  0  0
  3  8  1  0  0  0  0
  3  4  2  0  0  0  0
  4 12  1  0  0  0  0
  5  4  1  0  0  0  0
  5 11  1  0  0  0  0
  6  5  2  0  0  0  0
  7  1  1  0  0  0  0
  8  9  1  0  0  0  0
 10  6  1  0  0  0  0
M  RAD  3   2   2   8   2   9   3
M  END
