Coordinates from ORCA-job C6H4-N2-B3LYPG-aug-cc-pVDZ-scan-d09-49-n400
 OpenBabel11091809083D

 12 11  0  0  0  0  0  0  0  0999 V2000
   -2.6132    0.0584   -1.2172 C   0  0  0  0  0  0  0  0  0  0  0  0
   -1.2330   -0.0984   -1.1962 C   0  0  0  0  0  0  0  0  0  0  0  0
   -0.4289    0.4900   -0.4360 C   0  0  0  0  0  0  0  0  0  0  0  0
   -0.7111    1.4225    0.5504 C   0  0  0  0  0  0  0  0  0  0  0  0
   -2.1071    1.6529    0.6081 C   0  0  0  0  0  0  0  0  0  0  0  0
   -3.0207    0.9977   -0.2408 C   0  0  0  0  0  0  0  0  0  0  0  0
   -3.3195   -0.4477   -1.8730 H   0  0  0  0  0  0  0  0  0  0  0  0
    3.2214    1.4498    1.1344 N   0  0  0  0  0  0  0  0  0  0  0  0
    4.1116    0.9482    0.7159 N   0  0  0  0  0  0  0  0  0  0  0  0
   -4.0850    1.2216   -0.1437 H   0  0  0  0  0  0  0  0  0  0  0  0
   -2.4871    2.3676    1.3411 H   0  0  0  0  0  0  0  0  0  0  0  0
   -0.0066    1.9292    1.2066 H   0  0  0  0  0  0  0  0  0  0  0  0
  1  2  2  0  0  0  0
  1  6  1  0  0  0  0
  2  3  1  0  0  0  0
  3  4  2  0  0  0  0
  4  5  1  0  0  0  0
  4 12  1  0  0  0  0
  5 11  1  0  0  0  0
  6 10  1  0  0  0  0
  6  5  2  0  0  0  0
  7  1  1  0  0  0  0
  9  8  3  0  0  0  0
M  RAD  2   2   2   3   2
M  END
