Coordinates from ORCA-job C6H4-N2-B3LYPG-aug-cc-pVDZ-scan-d09-49-n400
 OpenBabel11091809083D

 12 12  0  0  0  0  0  0  0  0999 V2000
   -1.8917    0.0991   -1.0701 C   0  0  0  0  0  0  0  0  0  0  0  0
   -0.4714   -0.0293   -1.0107 C   0  0  0  0  0  0  0  0  0  0  0  0
    0.0368    0.8277    0.0033 C   0  0  0  0  0  0  0  0  0  0  0  0
   -0.6551    1.7169    0.8830 C   0  0  0  0  0  0  0  0  0  0  0  0
   -2.0230    1.7589    0.7361 C   0  0  0  0  0  0  0  0  0  0  0  0
   -2.6370    0.9415   -0.2492 C   0  0  0  0  0  0  0  0  0  0  0  0
   -2.4344   -0.5014   -1.8068 H   0  0  0  0  0  0  0  0  0  0  0  0
    1.3809    0.7687    0.1280 N   0  0  0  0  0  0  0  0  0  0  0  0
    2.4957    0.6921    0.2011 N   0  0  0  0  0  0  0  0  0  0  0  0
   -3.7242    0.9842   -0.3558 H   0  0  0  0  0  0  0  0  0  0  0  0
   -2.6258    2.4108    1.3676 H   0  0  0  0  0  0  0  0  0  0  0  0
   -0.1298    2.3226    1.6231 H   0  0  0  0  0  0  0  0  0  0  0  0
  1  2  2  0  0  0  0
  1  6  1  0  0  0  0
  2  3  1  0  0  0  0
  3  8  1  0  0  0  0
  3  4  2  0  0  0  0
  4 12  1  0  0  0  0
  5  4  1  0  0  0  0
  5 11  1  0  0  0  0
  6  5  2  0  0  0  0
  7  1  1  0  0  0  0
  8  9  1  0  0  0  0
 10  6  1  0  0  0  0
M  RAD  3   2   2   8   2   9   3
M  END
