Coordinates from ORCA-job C6H4-N2-B3LYPG-aug-cc-pVDZ-scan-d09-49-n400
 OpenBabel11091809083D

 12 11  0  0  0  0  0  0  0  0999 V2000
   -2.4129    0.0548   -1.1925 C   0  0  0  0  0  0  0  0  0  0  0  0
   -1.0309   -0.0130   -1.0727 C   0  0  0  0  0  0  0  0  0  0  0  0
   -0.3173    0.6287   -0.2665 C   0  0  0  0  0  0  0  0  0  0  0  0
   -0.7297    1.5478    0.6862 C   0  0  0  0  0  0  0  0  0  0  0  0
   -2.1373    1.6910    0.6455 C   0  0  0  0  0  0  0  0  0  0  0  0
   -2.9461    0.9733   -0.2575 C   0  0  0  0  0  0  0  0  0  0  0  0
   -3.0379   -0.4996   -1.8903 H   0  0  0  0  0  0  0  0  0  0  0  0
    2.9333    1.2789    0.9070 N   0  0  0  0  0  0  0  0  0  0  0  0
    3.7388    0.7151    0.4042 N   0  0  0  0  0  0  0  0  0  0  0  0
   -4.0266    1.1295   -0.2379 H   0  0  0  0  0  0  0  0  0  0  0  0
   -2.6113    2.3853    1.3423 H   0  0  0  0  0  0  0  0  0  0  0  0
   -0.1013    2.1000    1.3819 H   0  0  0  0  0  0  0  0  0  0  0  0
  1  2  2  0  0  0  0
  1  6  1  0  0  0  0
  2  3  1  0  0  0  0
  3  4  2  0  0  0  0
  4 12  1  0  0  0  0
  5  4  1  0  0  0  0
  5 11  1  0  0  0  0
  6 10  1  0  0  0  0
  6  5  2  0  0  0  0
  7  1  1  0  0  0  0
  9  8  3  0  0  0  0
M  RAD  2   2   2   3   2
M  END
