Coordinates from ORCA-job C6H4-N2-B3LYPG-aug-cc-pVDZ-scan-d09-49-n400
 OpenBabel11091809083D

 12 11  0  0  0  0  0  0  0  0999 V2000
   -2.1978    0.0618   -1.1544 C   0  0  0  0  0  0  0  0  0  0  0  0
   -0.8209    0.0682   -0.9532 C   0  0  0  0  0  0  0  0  0  0  0  0
   -0.2166    0.7639   -0.1032 C   0  0  0  0  0  0  0  0  0  0  0  0
   -0.7329    1.6628    0.8124 C   0  0  0  0  0  0  0  0  0  0  0  0
   -2.1410    1.7228    0.6799 C   0  0  0  0  0  0  0  0  0  0  0  0
   -2.8453    0.9524   -0.2665 C   0  0  0  0  0  0  0  0  0  0  0  0
   -2.7450   -0.5323   -1.8848 H   0  0  0  0  0  0  0  0  0  0  0  0
    2.4664    1.0470    0.5869 N   0  0  0  0  0  0  0  0  0  0  0  0
    3.3647    0.5545    0.1736 N   0  0  0  0  0  0  0  0  0  0  0  0
   -3.9320    1.0447   -0.3182 H   0  0  0  0  0  0  0  0  0  0  0  0
   -2.6987    2.3926    1.3376 H   0  0  0  0  0  0  0  0  0  0  0  0
   -0.1801    2.2534    1.5398 H   0  0  0  0  0  0  0  0  0  0  0  0
  1  2  2  0  0  0  0
  1  6  1  0  0  0  0
  2  3  1  0  0  0  0
  3  4  2  0  0  0  0
  4 12  1  0  0  0  0
  5  4  1  0  0  0  0
  5 11  1  0  0  0  0
  6  5  2  0  0  0  0
  7  1  1  0  0  0  0
  9  8  3  0  0  0  0
 10  6  1  0  0  0  0
M  RAD  2   2   2   3   2
M  END
