Coordinates from ORCA-job C6H4-N2-B3LYPG-aug-cc-pVDZ-scan-d09-49-n400
 OpenBabel11091809083D

 12 11  0  0  0  0  0  0  0  0999 V2000
   -2.1791    0.0626   -1.1510 C   0  0  0  0  0  0  0  0  0  0  0  0
   -0.8019    0.0722   -0.9462 C   0  0  0  0  0  0  0  0  0  0  0  0
   -0.2111    0.7739   -0.0914 C   0  0  0  0  0  0  0  0  0  0  0  0
   -0.7299    1.6710    0.8219 C   0  0  0  0  0  0  0  0  0  0  0  0
   -2.1383    1.7247    0.6823 C   0  0  0  0  0  0  0  0  0  0  0  0
   -2.8348    0.9507   -0.2668 C   0  0  0  0  0  0  0  0  0  0  0  0
   -2.7212   -0.5340   -1.8833 H   0  0  0  0  0  0  0  0  0  0  0  0
    2.4213    1.0308    0.5626 N   0  0  0  0  0  0  0  0  0  0  0  0
    3.3249    0.5432    0.1555 N   0  0  0  0  0  0  0  0  0  0  0  0
   -3.9217    1.0388   -0.3233 H   0  0  0  0  0  0  0  0  0  0  0  0
   -2.7021    2.3925    1.3371 H   0  0  0  0  0  0  0  0  0  0  0  0
   -0.1853    2.2655    1.5523 H   0  0  0  0  0  0  0  0  0  0  0  0
  1  2  2  0  0  0  0
  1  6  1  0  0  0  0
  2  3  1  0  0  0  0
  3  4  2  0  0  0  0
  4 12  1  0  0  0  0
  5  4  1  0  0  0  0
  5 11  1  0  0  0  0
  6  5  2  0  0  0  0
  7  1  1  0  0  0  0
  9  8  3  0  0  0  0
 10  6  1  0  0  0  0
M  RAD  2   2   2   3   2
M  END
