Coordinates from ORCA-job C6H4-N2-B3LYPG-aug-cc-pVDZ-scan-d09-49-n400
 OpenBabel11091809083D

 12 11  0  0  0  0  0  0  0  0999 V2000
   -2.3091    0.0570   -1.1754 C   0  0  0  0  0  0  0  0  0  0  0  0
   -0.9299    0.0299   -1.0109 C   0  0  0  0  0  0  0  0  0  0  0  0
   -0.2653    0.6970   -0.1837 C   0  0  0  0  0  0  0  0  0  0  0  0
   -0.7347    1.6067    0.7504 C   0  0  0  0  0  0  0  0  0  0  0  0
   -2.1438    1.7076    0.6628 C   0  0  0  0  0  0  0  0  0  0  0  0
   -2.9005    0.9625   -0.2631 C   0  0  0  0  0  0  0  0  0  0  0  0
   -2.8942   -0.5184   -1.8907 H   0  0  0  0  0  0  0  0  0  0  0  0
    2.7225    1.1648    0.7520 N   0  0  0  0  0  0  0  0  0  0  0  0
    3.5673    0.6288    0.2846 N   0  0  0  0  0  0  0  0  0  0  0  0
   -3.9852    1.0864   -0.2798 H   0  0  0  0  0  0  0  0  0  0  0  0
   -2.6611    2.3900    1.3403 H   0  0  0  0  0  0  0  0  0  0  0  0
   -0.1453    2.1794    1.4632 H   0  0  0  0  0  0  0  0  0  0  0  0
  1  2  2  0  0  0  0
  1  6  1  0  0  0  0
  2  3  1  0  0  0  0
  3  4  2  0  0  0  0
  4 12  1  0  0  0  0
  5  4  1  0  0  0  0
  5 11  1  0  0  0  0
  6  5  2  0  0  0  0
  7  1  1  0  0  0  0
  9  8  3  0  0  0  0
 10  6  1  0  0  0  0
M  RAD  2   2   2   3   2
M  END
