Coordinates from ORCA-job C6H4-N2-B3LYPG-aug-cc-pVDZ-scan-d09-49-n400
 OpenBabel11091809083D

 12 12  0  0  0  0  0  0  0  0999 V2000
   -1.8824    0.1002   -1.0676 C   0  0  0  0  0  0  0  0  0  0  0  0
   -0.4666   -0.0492   -1.0313 C   0  0  0  0  0  0  0  0  0  0  0  0
    0.1103    0.8212    0.0090 C   0  0  0  0  0  0  0  0  0  0  0  0
   -0.6404    1.7077    0.8757 C   0  0  0  0  0  0  0  0  0  0  0  0
   -2.0016    1.7553    0.7351 C   0  0  0  0  0  0  0  0  0  0  0  0
   -2.6247    0.9413   -0.2477 C   0  0  0  0  0  0  0  0  0  0  0  0
   -2.4264   -0.4996   -1.8042 H   0  0  0  0  0  0  0  0  0  0  0  0
    1.2743    0.7812    0.1269 N   0  0  0  0  0  0  0  0  0  0  0  0
    2.4018    0.7226    0.2192 N   0  0  0  0  0  0  0  0  0  0  0  0
   -3.7120    0.9871   -0.3515 H   0  0  0  0  0  0  0  0  0  0  0  0
   -2.5969    2.4102    1.3704 H   0  0  0  0  0  0  0  0  0  0  0  0
   -0.1146    2.3139    1.6159 H   0  0  0  0  0  0  0  0  0  0  0  0
  1  2  2  0  0  0  0
  1  6  1  0  0  0  0
  2  3  1  0  0  0  0
  3  8  1  0  0  0  0
  3  4  2  0  0  0  0
  4 12  1  0  0  0  0
  5  4  1  0  0  0  0
  5 11  1  0  0  0  0
  6  5  2  0  0  0  0
  7  1  1  0  0  0  0
  8  9  1  0  0  0  0
 10  6  1  0  0  0  0
M  RAD  3   2   2   8   2   9   3
M  END
