Coordinates from ORCA-job C6H4-N2-B3LYPG-aug-cc-pVDZ-scan-d09-49-n400
 OpenBabel11091809083D

 12 11  0  0  0  0  0  0  0  0999 V2000
   -2.3298    0.0565   -1.1790 C   0  0  0  0  0  0  0  0  0  0  0  0
   -0.9500    0.0218   -1.0228 C   0  0  0  0  0  0  0  0  0  0  0  0
   -0.2754    0.6839   -0.1997 C   0  0  0  0  0  0  0  0  0  0  0  0
   -0.7343    1.5955    0.7381 C   0  0  0  0  0  0  0  0  0  0  0  0
   -2.1433    1.7045    0.6595 C   0  0  0  0  0  0  0  0  0  0  0  0
   -2.9102    0.9646   -0.2621 C   0  0  0  0  0  0  0  0  0  0  0  0
   -2.9226   -0.5151   -1.8910 H   0  0  0  0  0  0  0  0  0  0  0  0
    2.7666    1.1866    0.7822 N   0  0  0  0  0  0  0  0  0  0  0  0
    3.6041    0.6452    0.3080 N   0  0  0  0  0  0  0  0  0  0  0  0
   -3.9943    1.0946   -0.2719 H   0  0  0  0  0  0  0  0  0  0  0  0
   -2.6524    2.3893    1.3408 H   0  0  0  0  0  0  0  0  0  0  0  0
   -0.1375    2.1645    1.4478 H   0  0  0  0  0  0  0  0  0  0  0  0
  1  2  2  0  0  0  0
  1  6  1  0  0  0  0
  2  3  1  0  0  0  0
  3  4  2  0  0  0  0
  4 12  1  0  0  0  0
  5  4  1  0  0  0  0
  5 11  1  0  0  0  0
  6  5  2  0  0  0  0
  7  1  1  0  0  0  0
  9  8  3  0  0  0  0
 10  6  1  0  0  0  0
M  RAD  2   2   2   3   2
M  END
