Coordinates from ORCA-job C6H4-N2-B3LYPG-aug-cc-pVDZ-scan-d09-49-n400
 OpenBabel11091809083D

 12 11  0  0  0  0  0  0  0  0999 V2000
   -2.2036    0.0615   -1.1556 C   0  0  0  0  0  0  0  0  0  0  0  0
   -0.8269    0.0671   -0.9554 C   0  0  0  0  0  0  0  0  0  0  0  0
   -0.2183    0.7607   -0.1069 C   0  0  0  0  0  0  0  0  0  0  0  0
   -0.7334    1.6601    0.8094 C   0  0  0  0  0  0  0  0  0  0  0  0
   -2.1415    1.7220    0.6790 C   0  0  0  0  0  0  0  0  0  0  0  0
   -2.8484    0.9528   -0.2665 C   0  0  0  0  0  0  0  0  0  0  0  0
   -2.7523   -0.5319   -1.8854 H   0  0  0  0  0  0  0  0  0  0  0  0
    2.4812    1.0534    0.5959 N   0  0  0  0  0  0  0  0  0  0  0  0
    3.3752    0.5571    0.1780 N   0  0  0  0  0  0  0  0  0  0  0  0
   -3.9351    1.0466   -0.3165 H   0  0  0  0  0  0  0  0  0  0  0  0
   -2.6974    2.3924    1.3377 H   0  0  0  0  0  0  0  0  0  0  0  0
   -0.1788    2.2499    1.5361 H   0  0  0  0  0  0  0  0  0  0  0  0
  1  2  2  0  0  0  0
  1  6  1  0  0  0  0
  2  3  1  0  0  0  0
  3  4  2  0  0  0  0
  4 12  1  0  0  0  0
  5  4  1  0  0  0  0
  5 11  1  0  0  0  0
  6  5  2  0  0  0  0
  7  1  1  0  0  0  0
  9  8  3  0  0  0  0
 10  6  1  0  0  0  0
M  RAD  2   2   2   3   2
M  END
