Coordinates from ORCA-job C6H4-N2-B3LYPG-aug-cc-pVDZ-scan-d09-49-n400
 OpenBabel11091809083D

 12 11  0  0  0  0  0  0  0  0999 V2000
   -2.0284    0.0731   -1.1181 C   0  0  0  0  0  0  0  0  0  0  0  0
   -0.6507    0.1102   -0.8833 C   0  0  0  0  0  0  0  0  0  0  0  0
   -0.1440    0.8491    0.0004 C   0  0  0  0  0  0  0  0  0  0  0  0
   -0.7200    1.7313    0.8893 C   0  0  0  0  0  0  0  0  0  0  0  0
   -2.1211    1.7407    0.7025 C   0  0  0  0  0  0  0  0  0  0  0  0
   -2.7524    0.9381   -0.2690 C   0  0  0  0  0  0  0  0  0  0  0  0
   -2.5266   -0.5435   -1.8663 H   0  0  0  0  0  0  0  0  0  0  0  0
    2.0794    0.9405    0.4145 N   0  0  0  0  0  0  0  0  0  0  0  0
    2.9614    0.4313   -0.0178 N   0  0  0  0  0  0  0  0  0  0  0  0
   -3.8388    0.9873   -0.3678 H   0  0  0  0  0  0  0  0  0  0  0  0
   -2.7288    2.3923    1.3333 H   0  0  0  0  0  0  0  0  0  0  0  0
   -0.2092    2.3415    1.6321 H   0  0  0  0  0  0  0  0  0  0  0  0
  1  2  2  0  0  0  0
  1  6  1  0  0  0  0
  2  3  1  0  0  0  0
  3  4  2  0  0  0  0
  4 12  1  0  0  0  0
  5  4  1  0  0  0  0
  5 11  1  0  0  0  0
  6  5  2  0  0  0  0
  7  1  1  0  0  0  0
  9  8  3  0  0  0  0
 10  6  1  0  0  0  0
M  RAD  2   2   2   3   2
M  END
