Coordinates from ORCA-job C6H4-N2-B3LYPG-aug-cc-pVDZ-scan-d09-49-n400
 OpenBabel11091809083D

 12 11  0  0  0  0  0  0  0  0999 V2000
   -2.5918    0.0575   -1.2151 C   0  0  0  0  0  0  0  0  0  0  0  0
   -1.2108   -0.0895   -1.1832 C   0  0  0  0  0  0  0  0  0  0  0  0
   -0.4169    0.5054   -0.4173 C   0  0  0  0  0  0  0  0  0  0  0  0
   -0.7134    1.4368    0.5658 C   0  0  0  0  0  0  0  0  0  0  0  0
   -2.1113    1.6574    0.6125 C   0  0  0  0  0  0  0  0  0  0  0  0
   -3.0136    0.9949   -0.2429 C   0  0  0  0  0  0  0  0  0  0  0  0
   -3.2894   -0.4542   -1.8758 H   0  0  0  0  0  0  0  0  0  0  0  0
    3.1934    1.4312    1.1098 N   0  0  0  0  0  0  0  0  0  0  0  0
    4.0745    0.9217    0.6816 N   0  0  0  0  0  0  0  0  0  0  0  0
   -4.0802    1.2113   -0.1543 H   0  0  0  0  0  0  0  0  0  0  0  0
   -2.5021    2.3701    1.3417 H   0  0  0  0  0  0  0  0  0  0  0  0
   -0.0174    1.9490    1.2269 H   0  0  0  0  0  0  0  0  0  0  0  0
  1  2  2  0  0  0  0
  1  6  1  0  0  0  0
  2  3  1  0  0  0  0
  3  4  2  0  0  0  0
  4  5  1  0  0  0  0
  4 12  1  0  0  0  0
  5 11  1  0  0  0  0
  6 10  1  0  0  0  0
  6  5  2  0  0  0  0
  7  1  1  0  0  0  0
  9  8  3  0  0  0  0
M  RAD  2   2   2   3   2
M  END
