Coordinates from ORCA-job C6H4-N2-B3LYPG-aug-cc-pVDZ-scan-d09-49-n400
 OpenBabel11091809083D

 12 11  0  0  0  0  0  0  0  0999 V2000
   -2.3622    0.0557   -1.1844 C   0  0  0  0  0  0  0  0  0  0  0  0
   -0.9814    0.0087   -1.0417 C   0  0  0  0  0  0  0  0  0  0  0  0
   -0.2918    0.6631   -0.2249 C   0  0  0  0  0  0  0  0  0  0  0  0
   -0.7335    1.5777    0.7186 C   0  0  0  0  0  0  0  0  0  0  0  0
   -2.1422    1.6995    0.6542 C   0  0  0  0  0  0  0  0  0  0  0  0
   -2.9249    0.9679   -0.2606 C   0  0  0  0  0  0  0  0  0  0  0  0
   -2.9671   -0.5095   -1.8912 H   0  0  0  0  0  0  0  0  0  0  0  0
    2.8344    1.2211    0.8297 N   0  0  0  0  0  0  0  0  0  0  0  0
    3.6602    0.6713    0.3447 N   0  0  0  0  0  0  0  0  0  0  0  0
   -4.0078    1.1077   -0.2593 H   0  0  0  0  0  0  0  0  0  0  0  0
   -2.6382    2.3880    1.3414 H   0  0  0  0  0  0  0  0  0  0  0  0
   -0.1248    2.1405    1.4232 H   0  0  0  0  0  0  0  0  0  0  0  0
  1  2  2  0  0  0  0
  1  6  1  0  0  0  0
  2  3  1  0  0  0  0
  3  4  2  0  0  0  0
  4 12  1  0  0  0  0
  5  4  1  0  0  0  0
  5 11  1  0  0  0  0
  6 10  1  0  0  0  0
  6  5  2  0  0  0  0
  7  1  1  0  0  0  0
  9  8  3  0  0  0  0
M  RAD  2   2   2   3   2
M  END
