Coordinates from ORCA-job C6H4-N2-B3LYPG-aug-cc-pVDZ-scan-d09-49-n400
 OpenBabel11091809083D

 12 12  0  0  0  0  0  0  0  0999 V2000
   -1.8901    0.0991   -1.0699 C   0  0  0  0  0  0  0  0  0  0  0  0
   -0.4704   -0.0347   -1.0164 C   0  0  0  0  0  0  0  0  0  0  0  0
    0.0529    0.8253    0.0033 C   0  0  0  0  0  0  0  0  0  0  0  0
   -0.6512    1.7145    0.8811 C   0  0  0  0  0  0  0  0  0  0  0  0
   -2.0175    1.7582    0.7361 C   0  0  0  0  0  0  0  0  0  0  0  0
   -2.6338    0.9414   -0.2489 C   0  0  0  0  0  0  0  0  0  0  0  0
   -2.4340   -0.5009   -1.8061 H   0  0  0  0  0  0  0  0  0  0  0  0
    1.3569    0.7706    0.1267 N   0  0  0  0  0  0  0  0  0  0  0  0
    2.4739    0.7019    0.2085 N   0  0  0  0  0  0  0  0  0  0  0  0
   -3.7211    0.9852   -0.3543 H   0  0  0  0  0  0  0  0  0  0  0  0
   -2.6186    2.4107    1.3684 H   0  0  0  0  0  0  0  0  0  0  0  0
   -0.1261    2.3205    1.6213 H   0  0  0  0  0  0  0  0  0  0  0  0
  1  2  2  0  0  0  0
  1  6  1  0  0  0  0
  2  3  1  0  0  0  0
  3  8  1  0  0  0  0
  3  4  2  0  0  0  0
  4 12  1  0  0  0  0
  5  4  1  0  0  0  0
  5 11  1  0  0  0  0
  6  5  2  0  0  0  0
  7  1  1  0  0  0  0
  8  9  1  0  0  0  0
 10  6  1  0  0  0  0
M  RAD  3   2   2   8   2   9   3
M  END
