Coordinates from ORCA-job C6H4-N2-B3LYPG-aug-cc-pVDZ-scan-d09-49-n400
 OpenBabel11091809083D

 12 11  0  0  0  0  0  0  0  0999 V2000
   -1.9658    0.0809   -1.1006 C   0  0  0  0  0  0  0  0  0  0  0  0
   -0.5790    0.1031   -0.8808 C   0  0  0  0  0  0  0  0  0  0  0  0
   -0.1126    0.8637    0.0213 C   0  0  0  0  0  0  0  0  0  0  0  0
   -0.7038    1.7416    0.9031 C   0  0  0  0  0  0  0  0  0  0  0  0
   -2.1005    1.7463    0.7114 C   0  0  0  0  0  0  0  0  0  0  0  0
   -2.7126    0.9357   -0.2661 C   0  0  0  0  0  0  0  0  0  0  0  0
   -2.4575   -0.5393   -1.8518 H   0  0  0  0  0  0  0  0  0  0  0  0
    1.8723    0.9098    0.3520 N   0  0  0  0  0  0  0  0  0  0  0  0
    2.7896    0.4293   -0.0451 N   0  0  0  0  0  0  0  0  0  0  0  0
   -3.7984    0.9734   -0.3776 H   0  0  0  0  0  0  0  0  0  0  0  0
   -2.7165    2.3942    1.3370 H   0  0  0  0  0  0  0  0  0  0  0  0
   -0.1944    2.3530    1.6470 H   0  0  0  0  0  0  0  0  0  0  0  0
  1  2  2  0  0  0  0
  1  6  1  0  0  0  0
  2  3  1  0  0  0  0
  3  4  2  0  0  0  0
  4 12  1  0  0  0  0
  5  4  1  0  0  0  0
  5 11  1  0  0  0  0
  6  5  2  0  0  0  0
  7  1  1  0  0  0  0
  9  8  3  0  0  0  0
 10  6  1  0  0  0  0
M  RAD  2   2   2   3   2
M  END
