Coordinates from ORCA-job C6H4-N2-B3LYPG-aug-cc-pVDZ-scan-d09-49-n400
 OpenBabel11091809083D

 12 11  0  0  0  0  0  0  0  0999 V2000
   -2.5173    0.0554   -1.2068 C   0  0  0  0  0  0  0  0  0  0  0  0
   -1.1345   -0.0584   -1.1377 C   0  0  0  0  0  0  0  0  0  0  0  0
   -0.3756    0.5578   -0.3533 C   0  0  0  0  0  0  0  0  0  0  0  0
   -0.7202    1.4848    0.6179 C   0  0  0  0  0  0  0  0  0  0  0  0
   -2.1237    1.6721    0.6268 C   0  0  0  0  0  0  0  0  0  0  0  0
   -2.9869    0.9856   -0.2496 C   0  0  0  0  0  0  0  0  0  0  0  0
   -3.1846   -0.4749   -1.8839 H   0  0  0  0  0  0  0  0  0  0  0  0
    3.0905    1.3675    1.0260 N   0  0  0  0  0  0  0  0  0  0  0  0
    3.9381    0.8325    0.5629 N   0  0  0  0  0  0  0  0  0  0  0  0
   -4.0603    1.1767   -0.1902 H   0  0  0  0  0  0  0  0  0  0  0  0
   -2.5506    2.3775    1.3428 H   0  0  0  0  0  0  0  0  0  0  0  0
   -0.0540    2.0153    1.2950 H   0  0  0  0  0  0  0  0  0  0  0  0
  1  2  2  0  0  0  0
  1  6  1  0  0  0  0
  2  3  1  0  0  0  0
  3  4  2  0  0  0  0
  4  5  1  0  0  0  0
  4 12  1  0  0  0  0
  5 11  1  0  0  0  0
  6 10  1  0  0  0  0
  6  5  2  0  0  0  0
  7  1  1  0  0  0  0
  9  8  3  0  0  0  0
M  RAD  2   2   2   3   2
M  END
