Coordinates from ORCA-job C6H4-N2-B3LYPG-aug-cc-pVDZ-scan-d09-49-n400
 OpenBabel11091809083D

 12 11  0  0  0  0  0  0  0  0999 V2000
   -2.1263    0.0653   -1.1405 C   0  0  0  0  0  0  0  0  0  0  0  0
   -0.7494    0.0868   -0.9229 C   0  0  0  0  0  0  0  0  0  0  0  0
   -0.1887    0.8017   -0.0578 C   0  0  0  0  0  0  0  0  0  0  0  0
   -0.7260    1.6937    0.8473 C   0  0  0  0  0  0  0  0  0  0  0  0
   -2.1328    1.7305    0.6894 C   0  0  0  0  0  0  0  0  0  0  0  0
   -2.8061    0.9460   -0.2680 C   0  0  0  0  0  0  0  0  0  0  0  0
   -2.6524   -0.5387   -1.8787 H   0  0  0  0  0  0  0  0  0  0  0  0
    2.3045    0.9970    0.5088 N   0  0  0  0  0  0  0  0  0  0  0  0
    3.2004    0.5019    0.0929 N   0  0  0  0  0  0  0  0  0  0  0  0
   -3.8932    1.0203   -0.3394 H   0  0  0  0  0  0  0  0  0  0  0  0
   -2.7132    2.3924    1.3355 H   0  0  0  0  0  0  0  0  0  0  0  0
   -0.1957    2.2949    1.5830 H   0  0  0  0  0  0  0  0  0  0  0  0
  1  2  2  0  0  0  0
  1  6  1  0  0  0  0
  2  3  1  0  0  0  0
  3  4  2  0  0  0  0
  4 12  1  0  0  0  0
  5  4  1  0  0  0  0
  5 11  1  0  0  0  0
  6  5  2  0  0  0  0
  7  1  1  0  0  0  0
  9  8  3  0  0  0  0
 10  6  1  0  0  0  0
M  RAD  2   2   2   3   2
M  END
