Coordinates from ORCA-job C6H4-N2-B3LYPG-aug-cc-pVDZ-scan-d09-49-n400
 OpenBabel11091809083D

 12 11  0  0  0  0  0  0  0  0999 V2000
   -2.4787    0.0548   -1.2020 C   0  0  0  0  0  0  0  0  0  0  0  0
   -1.0959   -0.0423   -1.1142 C   0  0  0  0  0  0  0  0  0  0  0  0
   -0.3540    0.5837   -0.3214 C   0  0  0  0  0  0  0  0  0  0  0  0
   -0.7226    1.5081    0.6434 C   0  0  0  0  0  0  0  0  0  0  0  0
   -2.1282    1.6791    0.6337 C   0  0  0  0  0  0  0  0  0  0  0  0
   -2.9718    0.9810   -0.2526 C   0  0  0  0  0  0  0  0  0  0  0  0
   -3.1308   -0.4845   -1.8868 H   0  0  0  0  0  0  0  0  0  0  0  0
    3.0331    1.3362    0.9838 N   0  0  0  0  0  0  0  0  0  0  0  0
    3.8621    0.7882    0.5026 N   0  0  0  0  0  0  0  0  0  0  0  0
   -4.0481    1.1595   -0.2077 H   0  0  0  0  0  0  0  0  0  0  0  0
   -2.5727    2.3806    1.3428 H   0  0  0  0  0  0  0  0  0  0  0  0
   -0.0716    2.0475    1.3282 H   0  0  0  0  0  0  0  0  0  0  0  0
  1  2  2  0  0  0  0
  1  6  1  0  0  0  0
  2  3  1  0  0  0  0
  3  4  2  0  0  0  0
  4 12  1  0  0  0  0
  5  4  1  0  0  0  0
  5 11  1  0  0  0  0
  6 10  1  0  0  0  0
  6  5  2  0  0  0  0
  7  1  1  0  0  0  0
  9  8  3  0  0  0  0
M  RAD  2   2   2   3   2
M  END
