Coordinates from ORCA-job C6H4-N2-B3LYPG-aug-cc-pVDZ-scan-d09-49-n400
 OpenBabel11091809083D

 12 12  0  0  0  0  0  0  0  0999 V2000
   -1.8700    0.1021   -1.0636 C   0  0  0  0  0  0  0  0  0  0  0  0
   -0.4637   -0.0644   -1.0469 C   0  0  0  0  0  0  0  0  0  0  0  0
    0.1935    0.8294    0.0324 C   0  0  0  0  0  0  0  0  0  0  0  0
   -0.6315    1.7034    0.8730 C   0  0  0  0  0  0  0  0  0  0  0  0
   -1.9879    1.7516    0.7331 C   0  0  0  0  0  0  0  0  0  0  0  0
   -2.6162    0.9417   -0.2461 C   0  0  0  0  0  0  0  0  0  0  0  0
   -2.4086   -0.5000   -1.8026 H   0  0  0  0  0  0  0  0  0  0  0  0
    1.1685    0.7936    0.1260 N   0  0  0  0  0  0  0  0  0  0  0  0
    2.3194    0.7295    0.2123 N   0  0  0  0  0  0  0  0  0  0  0  0
   -3.7029    0.9870   -0.3510 H   0  0  0  0  0  0  0  0  0  0  0  0
   -2.5775    2.4092    1.3711 H   0  0  0  0  0  0  0  0  0  0  0  0
   -0.1021    2.3086    1.6122 H   0  0  0  0  0  0  0  0  0  0  0  0
  1  2  2  0  0  0  0
  1  6  1  0  0  0  0
  2  3  1  0  0  0  0
  3  8  1  0  0  0  0
  3  4  2  0  0  0  0
  4 12  1  0  0  0  0
  5  4  1  0  0  0  0
  5 11  1  0  0  0  0
  6  5  2  0  0  0  0
  7  1  1  0  0  0  0
  8  9  1  0  0  0  0
 10  6  1  0  0  0  0
M  RAD  3   2   2   8   2   9   3
M  END
