Coordinates from ORCA-job C6H4-N2-B3LYPG-aug-cc-pVDZ-scan-d09-49-n400
 OpenBabel11091809083D

 12 11  0  0  0  0  0  0  0  0999 V2000
   -2.0000    0.0760   -1.1108 C   0  0  0  0  0  0  0  0  0  0  0  0
   -0.6190    0.1089   -0.8801 C   0  0  0  0  0  0  0  0  0  0  0  0
   -0.1304    0.8567    0.0109 C   0  0  0  0  0  0  0  0  0  0  0  0
   -0.7124    1.7369    0.8967 C   0  0  0  0  0  0  0  0  0  0  0  0
   -2.1118    1.7430    0.7062 C   0  0  0  0  0  0  0  0  0  0  0  0
   -2.7342    0.9367   -0.2680 C   0  0  0  0  0  0  0  0  0  0  0  0
   -2.4944   -0.5426   -1.8606 H   0  0  0  0  0  0  0  0  0  0  0  0
    1.9884    0.9273    0.3875 N   0  0  0  0  0  0  0  0  0  0  0  0
    2.8823    0.4275   -0.0339 N   0  0  0  0  0  0  0  0  0  0  0  0
   -3.8204    0.9807   -0.3727 H   0  0  0  0  0  0  0  0  0  0  0  0
   -2.7239    2.3928    1.3344 H   0  0  0  0  0  0  0  0  0  0  0  0
   -0.2033    2.3480    1.6403 H   0  0  0  0  0  0  0  0  0  0  0  0
  1  2  2  0  0  0  0
  1  6  1  0  0  0  0
  2  3  1  0  0  0  0
  3  4  2  0  0  0  0
  4 12  1  0  0  0  0
  5  4  1  0  0  0  0
  5 11  1  0  0  0  0
  6  5  2  0  0  0  0
  7  1  1  0  0  0  0
  9  8  3  0  0  0  0
 10  6  1  0  0  0  0
M  RAD  2   2   2   3   2
M  END
