Coordinates from ORCA-job C6H4-N2-B3LYPG-aug-cc-pVDZ-scan-d09-49-n400
 OpenBabel11091809083D

 12 11  0  0  0  0  0  0  0  0999 V2000
   -2.0907    0.0676   -1.1330 C   0  0  0  0  0  0  0  0  0  0  0  0
   -0.7136    0.0951   -0.9088 C   0  0  0  0  0  0  0  0  0  0  0  0
   -0.1735    0.8190   -0.0367 C   0  0  0  0  0  0  0  0  0  0  0  0
   -0.7224    1.7077    0.8631 C   0  0  0  0  0  0  0  0  0  0  0  0
   -2.1278    1.7340    0.6941 C   0  0  0  0  0  0  0  0  0  0  0  0
   -2.7862    0.9430   -0.2684 C   0  0  0  0  0  0  0  0  0  0  0  0
   -2.6069   -0.5410   -1.8749 H   0  0  0  0  0  0  0  0  0  0  0  0
    2.2214    0.9763    0.4742 N   0  0  0  0  0  0  0  0  0  0  0  0
    3.1128    0.4766    0.0530 N   0  0  0  0  0  0  0  0  0  0  0  0
   -3.8732    1.0086   -0.3494 H   0  0  0  0  0  0  0  0  0  0  0  0
   -2.7184    2.3922    1.3346 H   0  0  0  0  0  0  0  0  0  0  0  0
   -0.2006    2.3127    1.6018 H   0  0  0  0  0  0  0  0  0  0  0  0
  1  2  2  0  0  0  0
  1  6  1  0  0  0  0
  2  3  1  0  0  0  0
  3  4  2  0  0  0  0
  4 12  1  0  0  0  0
  5  4  1  0  0  0  0
  5 11  1  0  0  0  0
  6  5  2  0  0  0  0
  7  1  1  0  0  0  0
  9  8  3  0  0  0  0
 10  6  1  0  0  0  0
M  RAD  2   2   2   3   2
M  END
