Coordinates from ORCA-job C6H4-N2-B3LYPG-aug-cc-pVDZ-scan-d09-49-n400
 OpenBabel11091809083D

 12 12  0  0  0  0  0  0  0  0999 V2000
   -1.9344    0.0868   -1.0898 C   0  0  0  0  0  0  0  0  0  0  0  0
   -0.5412    0.0930   -0.8867 C   0  0  0  0  0  0  0  0  0  0  0  0
   -0.0912    0.8677    0.0285 C   0  0  0  0  0  0  0  0  0  0  0  0
   -0.6966    1.7435    0.9061 C   0  0  0  0  0  0  0  0  0  0  0  0
   -2.0897    1.7498    0.7169 C   0  0  0  0  0  0  0  0  0  0  0  0
   -2.6928    0.9356   -0.2633 C   0  0  0  0  0  0  0  0  0  0  0  0
   -2.4263   -0.5340   -1.8416 H   0  0  0  0  0  0  0  0  0  0  0  0
    1.7588    0.8920    0.3162 N   0  0  0  0  0  0  0  0  0  0  0  0
    2.7063    0.4384   -0.0464 N   0  0  0  0  0  0  0  0  0  0  0  0
   -3.7783    0.9678   -0.3809 H   0  0  0  0  0  0  0  0  0  0  0  0
   -2.7081    2.3965    1.3408 H   0  0  0  0  0  0  0  0  0  0  0  0
   -0.1857    2.3546    1.6500 H   0  0  0  0  0  0  0  0  0  0  0  0
  1  2  2  0  0  0  0
  1  6  1  0  0  0  0
  2  3  1  0  0  0  0
  3  8  1  0  0  0  0
  3  4  2  0  0  0  0
  4 12  1  0  0  0  0
  5  4  1  0  0  0  0
  5 11  1  0  0  0  0
  6  5  2  0  0  0  0
  7  1  1  0  0  0  0
  9  8  2  0  0  0  0
 10  6  1  0  0  0  0
M  RAD  2   2   2   9   2
M  END
