Coordinates from ORCA-job C6H4-N2-B3LYPG-aug-cc-pVDZ-scan-d09-49-n400
 OpenBabel11091809083D

 12 11  0  0  0  0  0  0  0  0999 V2000
   -2.7182    0.0642   -1.2257 C   0  0  0  0  0  0  0  0  0  0  0  0
   -1.3450   -0.1400   -1.2577 C   0  0  0  0  0  0  0  0  0  0  0  0
   -0.4883    0.4131   -0.5290 C   0  0  0  0  0  0  0  0  0  0  0  0
   -0.7012    1.3496    0.4717 C   0  0  0  0  0  0  0  0  0  0  0  0
   -2.0846    1.6290    0.5850 C   0  0  0  0  0  0  0  0  0  0  0  0
   -3.0537    1.0118   -0.2301 C   0  0  0  0  0  0  0  0  0  0  0  0
   -3.4665   -0.4132   -1.8559 H   0  0  0  0  0  0  0  0  0  0  0  0
    3.3587    1.5420    1.2561 N   0  0  0  0  0  0  0  0  0  0  0  0
    4.2913    1.0808    0.8861 N   0  0  0  0  0  0  0  0  0  0  0  0
   -4.1047    1.2727   -0.0904 H   0  0  0  0  0  0  0  0  0  0  0  0
   -2.4099    2.3525    1.3355 H   0  0  0  0  0  0  0  0  0  0  0  0
    0.0431    1.8295    1.1041 H   0  0  0  0  0  0  0  0  0  0  0  0
  1  6  1  0  0  0  0
  2  1  2  0  0  0  0
  2  3  1  0  0  0  0
  3  4  2  0  0  0  0
  4  5  1  0  0  0  0
  4 12  1  0  0  0  0
  5 11  1  0  0  0  0
  6 10  1  0  0  0  0
  6  5  2  0  0  0  0
  7  1  1  0  0  0  0
  9  8  3  0  0  0  0
M  RAD  2   2   2   3   2
M  END
