Coordinates from ORCA-job C6H4-N2-B3LYPG-aug-cc-pVDZ-scan-d09-49-n400
 OpenBabel11091809083D

 12 11  0  0  0  0  0  0  0  0999 V2000
   -2.8122    0.0711   -1.2314 C   0  0  0  0  0  0  0  0  0  0  0  0
   -1.4480   -0.1747   -1.3106 C   0  0  0  0  0  0  0  0  0  0  0  0
   -0.5484    0.3467   -0.6108 C   0  0  0  0  0  0  0  0  0  0  0  0
   -0.6988    1.2846    0.4005 C   0  0  0  0  0  0  0  0  0  0  0  0
   -2.0679    1.6063    0.5625 C   0  0  0  0  0  0  0  0  0  0  0  0
   -3.0834    1.0237   -0.2210 C   0  0  0  0  0  0  0  0  0  0  0  0
   -3.5960   -0.3797   -1.8374 H   0  0  0  0  0  0  0  0  0  0  0  0
    3.4965    1.6236    1.3654 N   0  0  0  0  0  0  0  0  0  0  0  0
    4.4629    1.1993    1.0410 N   0  0  0  0  0  0  0  0  0  0  0  0
   -4.1203    1.3166   -0.0441 H   0  0  0  0  0  0  0  0  0  0  0  0
   -2.3444    2.3358    1.3266 H   0  0  0  0  0  0  0  0  0  0  0  0
    0.0809    1.7384    1.0092 H   0  0  0  0  0  0  0  0  0  0  0  0
  1  6  1  0  0  0  0
  2  1  2  0  0  0  0
  2  3  1  0  0  0  0
  3  4  2  0  0  0  0
  4  5  1  0  0  0  0
  4 12  1  0  0  0  0
  5 11  1  0  0  0  0
  6 10  1  0  0  0  0
  6  5  2  0  0  0  0
  7  1  1  0  0  0  0
  9  8  3  0  0  0  0
M  RAD  2   2   2   3   2
M  END
