Coordinates from ORCA-job C6H4-N2-B3LYPG-aug-cc-pVDZ-scan-d09-49-n400
 OpenBabel11091809083D

 12 11  0  0  0  0  0  0  0  0999 V2000
   -2.1100    0.0663   -1.1371 C   0  0  0  0  0  0  0  0  0  0  0  0
   -0.7331    0.0907   -0.9163 C   0  0  0  0  0  0  0  0  0  0  0  0
   -0.1818    0.8097   -0.0480 C   0  0  0  0  0  0  0  0  0  0  0  0
   -0.7244    1.7002    0.8547 C   0  0  0  0  0  0  0  0  0  0  0  0
   -2.1307    1.7321    0.6916 C   0  0  0  0  0  0  0  0  0  0  0  0
   -2.7971    0.9446   -0.2682 C   0  0  0  0  0  0  0  0  0  0  0  0
   -2.6315   -0.5398   -1.8771 H   0  0  0  0  0  0  0  0  0  0  0  0
    2.2669    0.9874    0.4929 N   0  0  0  0  0  0  0  0  0  0  0  0
    3.1608    0.4901    0.0745 N   0  0  0  0  0  0  0  0  0  0  0  0
   -3.8841    1.0149   -0.3441 H   0  0  0  0  0  0  0  0  0  0  0  0
   -2.7158    2.3923    1.3351 H   0  0  0  0  0  0  0  0  0  0  0  0
   -0.1982    2.3032    1.5918 H   0  0  0  0  0  0  0  0  0  0  0  0
  1  2  2  0  0  0  0
  1  6  1  0  0  0  0
  2  3  1  0  0  0  0
  3  4  2  0  0  0  0
  4 12  1  0  0  0  0
  5  4  1  0  0  0  0
  5 11  1  0  0  0  0
  6  5  2  0  0  0  0
  7  1  1  0  0  0  0
  9  8  3  0  0  0  0
 10  6  1  0  0  0  0
M  RAD  2   2   2   3   2
M  END
