Coordinates from ORCA-job C6H4-N2-B3LYPG-aug-cc-pVDZ-scan-d09-49-n400
 OpenBabel11091809083D

 12 12  0  0  0  0  0  0  0  0999 V2000
   -1.8752    0.1015   -1.0651 C   0  0  0  0  0  0  0  0  0  0  0  0
   -0.4643   -0.0581   -1.0398 C   0  0  0  0  0  0  0  0  0  0  0  0
    0.1575    0.8227    0.0212 C   0  0  0  0  0  0  0  0  0  0  0  0
   -0.6349    1.7041    0.8737 C   0  0  0  0  0  0  0  0  0  0  0  0
   -1.9929    1.7531    0.7340 C   0  0  0  0  0  0  0  0  0  0  0  0
   -2.6196    0.9415   -0.2469 C   0  0  0  0  0  0  0  0  0  0  0  0
   -2.4161   -0.4993   -1.8032 H   0  0  0  0  0  0  0  0  0  0  0  0
    1.2121    0.7888    0.1268 N   0  0  0  0  0  0  0  0  0  0  0  0
    2.3520    0.7297    0.2162 N   0  0  0  0  0  0  0  0  0  0  0  0
   -3.7065    0.9875   -0.3513 H   0  0  0  0  0  0  0  0  0  0  0  0
   -2.5842    2.4102    1.3708 H   0  0  0  0  0  0  0  0  0  0  0  0
   -0.1070    2.3100    1.6131 H   0  0  0  0  0  0  0  0  0  0  0  0
  1  2  2  0  0  0  0
  1  6  1  0  0  0  0
  2  3  1  0  0  0  0
  3  8  1  0  0  0  0
  3  4  2  0  0  0  0
  4 12  1  0  0  0  0
  5  4  1  0  0  0  0
  5 11  1  0  0  0  0
  6  5  2  0  0  0  0
  7  1  1  0  0  0  0
  8  9  1  0  0  0  0
 10  6  1  0  0  0  0
M  RAD  3   2   2   8   2   9   3
M  END
