Coordinates from ORCA-job C6H4-N2-B3LYPG-aug-cc-pVDZ-scan-d09-49-n400
 OpenBabel11091809083D

 12 11  0  0  0  0  0  0  0  0999 V2000
   -2.5776    0.0570   -1.2136 C   0  0  0  0  0  0  0  0  0  0  0  0
   -1.1961   -0.0836   -1.1745 C   0  0  0  0  0  0  0  0  0  0  0  0
   -0.4090    0.5156   -0.4049 C   0  0  0  0  0  0  0  0  0  0  0  0
   -0.7148    1.4462    0.5760 C   0  0  0  0  0  0  0  0  0  0  0  0
   -2.1140    1.6603    0.6153 C   0  0  0  0  0  0  0  0  0  0  0  0
   -3.0087    0.9931   -0.2442 C   0  0  0  0  0  0  0  0  0  0  0  0
   -3.2694   -0.4584   -1.8776 H   0  0  0  0  0  0  0  0  0  0  0  0
    3.1744    1.4188    1.0936 N   0  0  0  0  0  0  0  0  0  0  0  0
    4.0494    0.9043    0.6588 N   0  0  0  0  0  0  0  0  0  0  0  0
   -4.0768    1.2046   -0.1613 H   0  0  0  0  0  0  0  0  0  0  0  0
   -2.5119    2.3716    1.3421 H   0  0  0  0  0  0  0  0  0  0  0  0
   -0.0246    1.9621    1.2403 H   0  0  0  0  0  0  0  0  0  0  0  0
  1  2  2  0  0  0  0
  1  6  1  0  0  0  0
  2  3  1  0  0  0  0
  3  4  2  0  0  0  0
  4  5  1  0  0  0  0
  4 12  1  0  0  0  0
  5 11  1  0  0  0  0
  6 10  1  0  0  0  0
  6  5  2  0  0  0  0
  7  1  1  0  0  0  0
  9  8  3  0  0  0  0
M  RAD  2   2   2   3   2
M  END
