Coordinates from ORCA-job C6H4-N2-B3LYPG-aug-cc-pVDZ-scan-d09-49-n400
 OpenBabel11091809083D

 12 11  0  0  0  0  0  0  0  0999 V2000
   -1.9705    0.0802   -1.1021 C   0  0  0  0  0  0  0  0  0  0  0  0
   -0.5847    0.1042   -0.8803 C   0  0  0  0  0  0  0  0  0  0  0  0
   -0.1152    0.8629    0.0201 C   0  0  0  0  0  0  0  0  0  0  0  0
   -0.7049    1.7411    0.9024 C   0  0  0  0  0  0  0  0  0  0  0  0
   -2.1020    1.7458    0.7106 C   0  0  0  0  0  0  0  0  0  0  0  0
   -2.7156    0.9358   -0.2664 C   0  0  0  0  0  0  0  0  0  0  0  0
   -2.4625   -0.5399   -1.8532 H   0  0  0  0  0  0  0  0  0  0  0  0
    1.8888    0.9124    0.3572 N   0  0  0  0  0  0  0  0  0  0  0  0
    2.8022    0.4286   -0.0443 N   0  0  0  0  0  0  0  0  0  0  0  0
   -3.8014    0.9744   -0.3770 H   0  0  0  0  0  0  0  0  0  0  0  0
   -2.7176    2.3940    1.3365 H   0  0  0  0  0  0  0  0  0  0  0  0
   -0.1958    2.3525    1.6463 H   0  0  0  0  0  0  0  0  0  0  0  0
  1  2  2  0  0  0  0
  1  6  1  0  0  0  0
  2  3  1  0  0  0  0
  3  4  2  0  0  0  0
  4 12  1  0  0  0  0
  5  4  1  0  0  0  0
  5 11  1  0  0  0  0
  6  5  2  0  0  0  0
  7  1  1  0  0  0  0
  9  8  3  0  0  0  0
 10  6  1  0  0  0  0
M  RAD  2   2   2   3   2
M  END
