Coordinates from ORCA-job C6H4-N2-B3LYPG-aug-cc-pVDZ-scan-d09-49-n400
 OpenBabel11091809083D

 12 11  0  0  0  0  0  0  0  0999 V2000
   -2.8727    0.0770   -1.2335 C   0  0  0  0  0  0  0  0  0  0  0  0
   -1.5162   -0.1971   -1.3450 C   0  0  0  0  0  0  0  0  0  0  0  0
   -0.5897    0.3028   -0.6649 C   0  0  0  0  0  0  0  0  0  0  0  0
   -0.6970    1.2406    0.3522 C   0  0  0  0  0  0  0  0  0  0  0  0
   -2.0549    1.5904    0.5468 C   0  0  0  0  0  0  0  0  0  0  0  0
   -3.1003    1.0318   -0.2145 C   0  0  0  0  0  0  0  0  0  0  0  0
   -3.6796   -0.3553   -1.8224 H   0  0  0  0  0  0  0  0  0  0  0  0
    3.5820    1.6783    1.4378 N   0  0  0  0  0  0  0  0  0  0  0  0
    4.5682    1.2785    1.1429 N   0  0  0  0  0  0  0  0  0  0  0  0
   -4.1265    1.3458   -0.0128 H   0  0  0  0  0  0  0  0  0  0  0  0
   -2.2982    2.3231    1.3192 H   0  0  0  0  0  0  0  0  0  0  0  0
    0.1058    1.6760    0.9441 H   0  0  0  0  0  0  0  0  0  0  0  0
  1  6  1  0  0  0  0
  2  1  2  0  0  0  0
  2  3  1  0  0  0  0
  3  4  2  0  0  0  0
  4  5  1  0  0  0  0
  4 12  1  0  0  0  0
  5 11  1  0  0  0  0
  6 10  1  0  0  0  0
  6  5  2  0  0  0  0
  7  1  1  0  0  0  0
  9  8  3  0  0  0  0
M  RAD  2   2   2   3   2
M  END
