Coordinates from ORCA-job C6H4-N2-B3LYPG-aug-cc-pVDZ-scan-d09-49-n400
 OpenBabel11091809083D

 12 11  0  0  0  0  0  0  0  0999 V2000
   -2.1133    0.0661   -1.1378 C   0  0  0  0  0  0  0  0  0  0  0  0
   -0.7364    0.0900   -0.9176 C   0  0  0  0  0  0  0  0  0  0  0  0
   -0.1832    0.8082   -0.0499 C   0  0  0  0  0  0  0  0  0  0  0  0
   -0.7248    1.6990    0.8532 C   0  0  0  0  0  0  0  0  0  0  0  0
   -2.1311    1.7318    0.6912 C   0  0  0  0  0  0  0  0  0  0  0  0
   -2.7989    0.9449   -0.2681 C   0  0  0  0  0  0  0  0  0  0  0  0
   -2.6357   -0.5396   -1.8774 H   0  0  0  0  0  0  0  0  0  0  0  0
    2.2745    0.9892    0.4960 N   0  0  0  0  0  0  0  0  0  0  0  0
    3.1687    0.4925    0.0781 N   0  0  0  0  0  0  0  0  0  0  0  0
   -3.8859    1.0160   -0.3431 H   0  0  0  0  0  0  0  0  0  0  0  0
   -2.7153    2.3923    1.3352 H   0  0  0  0  0  0  0  0  0  0  0  0
   -0.1977    2.3016    1.5900 H   0  0  0  0  0  0  0  0  0  0  0  0
  1  2  2  0  0  0  0
  1  6  1  0  0  0  0
  2  3  1  0  0  0  0
  3  4  2  0  0  0  0
  4 12  1  0  0  0  0
  5  4  1  0  0  0  0
  5 11  1  0  0  0  0
  6  5  2  0  0  0  0
  7  1  1  0  0  0  0
  9  8  3  0  0  0  0
 10  6  1  0  0  0  0
M  RAD  2   2   2   3   2
M  END
