Coordinates from ORCA-job C6H4-N2-B3LYPG-aug-cc-pVDZ-scan-d09-49-n400
 OpenBabel11091809083D

 12 12  0  0  0  0  0  0  0  0999 V2000
   -1.8812    0.1001   -1.0674 C   0  0  0  0  0  0  0  0  0  0  0  0
   -0.4654   -0.0491   -1.0321 C   0  0  0  0  0  0  0  0  0  0  0  0
    0.1135    0.8237    0.0072 C   0  0  0  0  0  0  0  0  0  0  0  0
   -0.6392    1.7082    0.8751 C   0  0  0  0  0  0  0  0  0  0  0  0
   -2.0004    1.7551    0.7352 C   0  0  0  0  0  0  0  0  0  0  0  0
   -2.6236    0.9412   -0.2476 C   0  0  0  0  0  0  0  0  0  0  0  0
   -2.4251   -0.5001   -1.8037 H   0  0  0  0  0  0  0  0  0  0  0  0
    1.2673    0.7819    0.1263 N   0  0  0  0  0  0  0  0  0  0  0  0
    2.3951    0.7210    0.2208 N   0  0  0  0  0  0  0  0  0  0  0  0
   -3.7109    0.9864   -0.3509 H   0  0  0  0  0  0  0  0  0  0  0  0
   -2.5956    2.4094    1.3711 H   0  0  0  0  0  0  0  0  0  0  0  0
   -0.1134    2.3140    1.6157 H   0  0  0  0  0  0  0  0  0  0  0  0
  1  2  2  0  0  0  0
  1  6  1  0  0  0  0
  2  3  1  0  0  0  0
  3  8  1  0  0  0  0
  3  4  2  0  0  0  0
  4 12  1  0  0  0  0
  5  4  1  0  0  0  0
  5 11  1  0  0  0  0
  6  5  2  0  0  0  0
  7  1  1  0  0  0  0
  8  9  1  0  0  0  0
 10  6  1  0  0  0  0
M  RAD  3   2   2   8   2   9   3
M  END
