Coordinates from ORCA-job C6H4-N2-B3LYPG-aug-cc-pVDZ-scan-d09-49-n400
 OpenBabel11091809083D

 12 11  0  0  0  0  0  0  0  0999 V2000
   -2.8026    0.0703   -1.2309 C   0  0  0  0  0  0  0  0  0  0  0  0
   -1.4373   -0.1711   -1.3051 C   0  0  0  0  0  0  0  0  0  0  0  0
   -0.5420    0.3535   -0.6023 C   0  0  0  0  0  0  0  0  0  0  0  0
   -0.6991    1.2915    0.4079 C   0  0  0  0  0  0  0  0  0  0  0  0
   -2.0698    1.6087    0.5649 C   0  0  0  0  0  0  0  0  0  0  0  0
   -3.0806    1.0225   -0.2220 C   0  0  0  0  0  0  0  0  0  0  0  0
   -3.5827   -0.3834   -1.8396 H   0  0  0  0  0  0  0  0  0  0  0  0
    3.4827    1.6151    1.3540 N   0  0  0  0  0  0  0  0  0  0  0  0
    4.4458    1.1869    1.0250 N   0  0  0  0  0  0  0  0  0  0  0  0
   -4.1191    1.3120   -0.0490 H   0  0  0  0  0  0  0  0  0  0  0  0
   -2.3514    2.3377    1.3277 H   0  0  0  0  0  0  0  0  0  0  0  0
    0.0770    1.7480    1.0192 H   0  0  0  0  0  0  0  0  0  0  0  0
  1  6  1  0  0  0  0
  2  1  2  0  0  0  0
  2  3  1  0  0  0  0
  3  4  2  0  0  0  0
  4  5  1  0  0  0  0
  4 12  1  0  0  0  0
  5 11  1  0  0  0  0
  6 10  1  0  0  0  0
  6  5  2  0  0  0  0
  7  1  1  0  0  0  0
  9  8  3  0  0  0  0
M  RAD  2   2   2   3   2
M  END
