Coordinates from ORCA-job C6H4-N2-B3LYPG-aug-cc-pVDZ-scan-d09-49-n400
 OpenBabel11091809083D

 12 11  0  0  0  0  0  0  0  0999 V2000
   -2.6731    0.0614   -1.2223 C   0  0  0  0  0  0  0  0  0  0  0  0
   -1.2963   -0.1234   -1.2325 C   0  0  0  0  0  0  0  0  0  0  0  0
   -0.4633    0.4460   -0.4891 C   0  0  0  0  0  0  0  0  0  0  0  0
   -0.7047    1.3811    0.5058 C   0  0  0  0  0  0  0  0  0  0  0  0
   -2.0939    1.6396    0.5954 C   0  0  0  0  0  0  0  0  0  0  0  0
   -3.0395    1.0058   -0.2346 C   0  0  0  0  0  0  0  0  0  0  0  0
   -3.4041   -0.4281   -1.8635 H   0  0  0  0  0  0  0  0  0  0  0  0
    3.2981    1.5030    1.2045 N   0  0  0  0  0  0  0  0  0  0  0  0
    4.2128    1.0242    0.8129 N   0  0  0  0  0  0  0  0  0  0  0  0
   -4.0965    1.2511   -0.1131 H   0  0  0  0  0  0  0  0  0  0  0  0
   -2.4429    2.3596    1.3386 H   0  0  0  0  0  0  0  0  0  0  0  0
    0.0243    1.8715    1.1477 H   0  0  0  0  0  0  0  0  0  0  0  0
  1  6  1  0  0  0  0
  2  1  2  0  0  0  0
  2  3  1  0  0  0  0
  3  4  2  0  0  0  0
  4  5  1  0  0  0  0
  4 12  1  0  0  0  0
  5 11  1  0  0  0  0
  6 10  1  0  0  0  0
  6  5  2  0  0  0  0
  7  1  1  0  0  0  0
  9  8  3  0  0  0  0
M  RAD  2   2   2   3   2
M  END
