Coordinates from ORCA-job C6H4-N2-B3LYPG-aug-cc-pVDZ-scan-d09-49-n400
 OpenBabel11091809083D

 12 11  0  0  0  0  0  0  0  0999 V2000
   -2.5741    0.0569   -1.2133 C   0  0  0  0  0  0  0  0  0  0  0  0
   -1.1924   -0.0821   -1.1723 C   0  0  0  0  0  0  0  0  0  0  0  0
   -0.4070    0.5181   -0.4018 C   0  0  0  0  0  0  0  0  0  0  0  0
   -0.7152    1.4486    0.5785 C   0  0  0  0  0  0  0  0  0  0  0  0
   -2.1146    1.6611    0.6160 C   0  0  0  0  0  0  0  0  0  0  0  0
   -3.0075    0.9926   -0.2446 C   0  0  0  0  0  0  0  0  0  0  0  0
   -3.2644   -0.4594   -1.8780 H   0  0  0  0  0  0  0  0  0  0  0  0
    3.1696    1.4158    1.0895 N   0  0  0  0  0  0  0  0  0  0  0  0
    4.0430    0.9000    0.6532 N   0  0  0  0  0  0  0  0  0  0  0  0
   -4.0759    1.2029   -0.1631 H   0  0  0  0  0  0  0  0  0  0  0  0
   -2.5143    2.3720    1.3421 H   0  0  0  0  0  0  0  0  0  0  0  0
   -0.0264    1.9653    1.2436 H   0  0  0  0  0  0  0  0  0  0  0  0
  1  2  2  0  0  0  0
  1  6  1  0  0  0  0
  2  3  1  0  0  0  0
  3  4  2  0  0  0  0
  4  5  1  0  0  0  0
  4 12  1  0  0  0  0
  5 11  1  0  0  0  0
  6 10  1  0  0  0  0
  6  5  2  0  0  0  0
  7  1  1  0  0  0  0
  9  8  3  0  0  0  0
M  RAD  2   2   2   3   2
M  END
