Coordinates from ORCA-job C6H4-N2-B3LYPG-aug-cc-pVDZ-scan-d09-49-n400
 OpenBabel11091809083D

 12 11  0  0  0  0  0  0  0  0999 V2000
   -1.9975    0.0763   -1.1101 C   0  0  0  0  0  0  0  0  0  0  0  0
   -0.6162    0.1086   -0.8800 C   0  0  0  0  0  0  0  0  0  0  0  0
   -0.1291    0.8573    0.0118 C   0  0  0  0  0  0  0  0  0  0  0  0
   -0.7117    1.7373    0.8972 C   0  0  0  0  0  0  0  0  0  0  0  0
   -2.1110    1.7432    0.7066 C   0  0  0  0  0  0  0  0  0  0  0  0
   -2.7326    0.9366   -0.2679 C   0  0  0  0  0  0  0  0  0  0  0  0
   -2.4916   -0.5424   -1.8601 H   0  0  0  0  0  0  0  0  0  0  0  0
    1.9801    0.9261    0.3851 N   0  0  0  0  0  0  0  0  0  0  0  0
    2.8753    0.4274   -0.0351 N   0  0  0  0  0  0  0  0  0  0  0  0
   -3.8187    0.9801   -0.3731 H   0  0  0  0  0  0  0  0  0  0  0  0
   -2.7234    2.3928    1.3345 H   0  0  0  0  0  0  0  0  0  0  0  0
   -0.2027    2.3485    1.6409 H   0  0  0  0  0  0  0  0  0  0  0  0
  1  2  2  0  0  0  0
  1  6  1  0  0  0  0
  2  3  1  0  0  0  0
  3  4  2  0  0  0  0
  4 12  1  0  0  0  0
  5  4  1  0  0  0  0
  5 11  1  0  0  0  0
  6  5  2  0  0  0  0
  7  1  1  0  0  0  0
  9  8  3  0  0  0  0
 10  6  1  0  0  0  0
M  RAD  2   2   2   3   2
M  END
