Coordinates from ORCA-job C6H4-N2-B3LYPG-aug-cc-pVDZ-scan-d09-49-n400
 OpenBabel11091809083D

 12 11  0  0  0  0  0  0  0  0999 V2000
   -2.3269    0.0565   -1.1785 C   0  0  0  0  0  0  0  0  0  0  0  0
   -0.9472    0.0229   -1.0211 C   0  0  0  0  0  0  0  0  0  0  0  0
   -0.2740    0.6857   -0.1975 C   0  0  0  0  0  0  0  0  0  0  0  0
   -0.7343    1.5970    0.7398 C   0  0  0  0  0  0  0  0  0  0  0  0
   -2.1433    1.7049    0.6600 C   0  0  0  0  0  0  0  0  0  0  0  0
   -2.9088    0.9643   -0.2623 C   0  0  0  0  0  0  0  0  0  0  0  0
   -2.9186   -0.5156   -1.8910 H   0  0  0  0  0  0  0  0  0  0  0  0
    2.7603    1.1836    0.7780 N   0  0  0  0  0  0  0  0  0  0  0  0
    3.5988    0.6429    0.3047 N   0  0  0  0  0  0  0  0  0  0  0  0
   -3.9930    1.0934   -0.2730 H   0  0  0  0  0  0  0  0  0  0  0  0
   -2.6535    2.3894    1.3408 H   0  0  0  0  0  0  0  0  0  0  0  0
   -0.1386    2.1666    1.4499 H   0  0  0  0  0  0  0  0  0  0  0  0
  1  2  2  0  0  0  0
  1  6  1  0  0  0  0
  2  3  1  0  0  0  0
  3  4  2  0  0  0  0
  4 12  1  0  0  0  0
  5  4  1  0  0  0  0
  5 11  1  0  0  0  0
  6  5  2  0  0  0  0
  7  1  1  0  0  0  0
  9  8  3  0  0  0  0
 10  6  1  0  0  0  0
M  RAD  2   2   2   3   2
M  END
