Coordinates from ORCA-job C6H4-N2-B3LYPG-aug-cc-pVDZ-scan-d09-49-n400
 OpenBabel11091809083D

 12 11  0  0  0  0  0  0  0  0999 V2000
   -2.3328    0.0564   -1.1795 C   0  0  0  0  0  0  0  0  0  0  0  0
   -0.9528    0.0206   -1.0244 C   0  0  0  0  0  0  0  0  0  0  0  0
   -0.2769    0.6820   -0.2019 C   0  0  0  0  0  0  0  0  0  0  0  0
   -0.7343    1.5939    0.7364 C   0  0  0  0  0  0  0  0  0  0  0  0
   -2.1433    1.7041    0.6590 C   0  0  0  0  0  0  0  0  0  0  0  0
   -2.9115    0.9649   -0.2620 C   0  0  0  0  0  0  0  0  0  0  0  0
   -2.9266   -0.5146   -1.8910 H   0  0  0  0  0  0  0  0  0  0  0  0
    2.7729    1.1897    0.7864 N   0  0  0  0  0  0  0  0  0  0  0  0
    3.6094    0.6475    0.3112 N   0  0  0  0  0  0  0  0  0  0  0  0
   -3.9955    1.0957   -0.2708 H   0  0  0  0  0  0  0  0  0  0  0  0
   -2.6512    2.3892    1.3409 H   0  0  0  0  0  0  0  0  0  0  0  0
   -0.1365    2.1624    1.4456 H   0  0  0  0  0  0  0  0  0  0  0  0
  1  2  2  0  0  0  0
  1  6  1  0  0  0  0
  2  3  1  0  0  0  0
  3  4  2  0  0  0  0
  4 12  1  0  0  0  0
  5  4  1  0  0  0  0
  5 11  1  0  0  0  0
  6  5  2  0  0  0  0
  7  1  1  0  0  0  0
  9  8  3  0  0  0  0
 10  6  1  0  0  0  0
M  RAD  2   2   2   3   2
M  END
