Coordinates from ORCA-job C6H4-N2-B3LYPG-aug-cc-pVDZ-scan-d09-49-n400
 OpenBabel11091809083D

 12 11  0  0  0  0  0  0  0  0999 V2000
   -2.4434    0.0546   -1.1972 C   0  0  0  0  0  0  0  0  0  0  0  0
   -1.0610   -0.0270   -1.0923 C   0  0  0  0  0  0  0  0  0  0  0  0
   -0.3336    0.6072   -0.2925 C   0  0  0  0  0  0  0  0  0  0  0  0
   -0.7253    1.5289    0.6660 C   0  0  0  0  0  0  0  0  0  0  0  0
   -2.1322    1.6853    0.6400 C   0  0  0  0  0  0  0  0  0  0  0  0
   -2.9576    0.9769   -0.2552 C   0  0  0  0  0  0  0  0  0  0  0  0
   -3.0814   -0.4927   -1.8889 H   0  0  0  0  0  0  0  0  0  0  0  0
    2.9806    1.3081    0.9457 N   0  0  0  0  0  0  0  0  0  0  0  0
    3.7912    0.7477    0.4477 N   0  0  0  0  0  0  0  0  0  0  0  0
   -4.0363    1.1437   -0.2236 H   0  0  0  0  0  0  0  0  0  0  0  0
   -2.5922    2.3831    1.3427 H   0  0  0  0  0  0  0  0  0  0  0  0
   -0.0879    2.0760    1.3574 H   0  0  0  0  0  0  0  0  0  0  0  0
  1  2  2  0  0  0  0
  1  6  1  0  0  0  0
  2  3  1  0  0  0  0
  3  4  2  0  0  0  0
  4 12  1  0  0  0  0
  5  4  1  0  0  0  0
  5 11  1  0  0  0  0
  6 10  1  0  0  0  0
  6  5  2  0  0  0  0
  7  1  1  0  0  0  0
  9  8  3  0  0  0  0
M  RAD  2   2   2   3   2
M  END
