Coordinates from ORCA-job C6H4-N2-B3LYPG-aug-cc-pVDZ-scan-d09-49-n400
 OpenBabel11091809083D

 12 12  0  0  0  0  0  0  0  0999 V2000
   -1.8766    0.1012   -1.0656 C   0  0  0  0  0  0  0  0  0  0  0  0
   -0.4645   -0.0557   -1.0389 C   0  0  0  0  0  0  0  0  0  0  0  0
    0.1491    0.8251    0.0155 C   0  0  0  0  0  0  0  0  0  0  0  0
   -0.6356    1.7056    0.8732 C   0  0  0  0  0  0  0  0  0  0  0  0
   -1.9942    1.7535    0.7342 C   0  0  0  0  0  0  0  0  0  0  0  0
   -2.6203    0.9413   -0.2470 C   0  0  0  0  0  0  0  0  0  0  0  0
   -2.4183   -0.4999   -1.8027 H   0  0  0  0  0  0  0  0  0  0  0  0
    1.2232    0.7877    0.1267 N   0  0  0  0  0  0  0  0  0  0  0  0
    2.3601    0.7261    0.2200 N   0  0  0  0  0  0  0  0  0  0  0  0
   -3.7074    0.9867   -0.3505 H   0  0  0  0  0  0  0  0  0  0  0  0
   -2.5863    2.4092    1.3717 H   0  0  0  0  0  0  0  0  0  0  0  0
   -0.1082    2.3110    1.6133 H   0  0  0  0  0  0  0  0  0  0  0  0
  1  2  2  0  0  0  0
  1  6  1  0  0  0  0
  2  3  1  0  0  0  0
  3  8  1  0  0  0  0
  3  4  2  0  0  0  0
  4 12  1  0  0  0  0
  5  4  1  0  0  0  0
  5 11  1  0  0  0  0
  6  5  2  0  0  0  0
  7  1  1  0  0  0  0
  8  9  1  0  0  0  0
 10  6  1  0  0  0  0
M  RAD  3   2   2   8   2   9   3
M  END
