Coordinates from ORCA-job C6H4-N2-B3LYPG-aug-cc-pVDZ-scan-d09-49-n400
 OpenBabel11091809083D

 12 12  0  0  0  0  0  0  0  0999 V2000
   -1.8919    0.0991   -1.0701 C   0  0  0  0  0  0  0  0  0  0  0  0
   -0.4713   -0.0241   -1.0050 C   0  0  0  0  0  0  0  0  0  0  0  0
    0.0237    0.8301    0.0040 C   0  0  0  0  0  0  0  0  0  0  0  0
   -0.6579    1.7190    0.8850 C   0  0  0  0  0  0  0  0  0  0  0  0
   -2.0275    1.7595    0.7362 C   0  0  0  0  0  0  0  0  0  0  0  0
   -2.6392    0.9416   -0.2494 C   0  0  0  0  0  0  0  0  0  0  0  0
   -2.4331   -0.5021   -1.8074 H   0  0  0  0  0  0  0  0  0  0  0  0
    1.3978    0.7683    0.1300 N   0  0  0  0  0  0  0  0  0  0  0  0
    2.5109    0.6819    0.1921 N   0  0  0  0  0  0  0  0  0  0  0  0
   -3.7263    0.9830   -0.3574 H   0  0  0  0  0  0  0  0  0  0  0  0
   -2.6318    2.4108    1.3669 H   0  0  0  0  0  0  0  0  0  0  0  0
   -0.1325    2.3246    1.6249 H   0  0  0  0  0  0  0  0  0  0  0  0
  1  2  2  0  0  0  0
  1  6  1  0  0  0  0
  2  3  1  0  0  0  0
  3  8  1  0  0  0  0
  3  4  2  0  0  0  0
  4 12  1  0  0  0  0
  5  4  1  0  0  0  0
  5 11  1  0  0  0  0
  6  5  2  0  0  0  0
  7  1  1  0  0  0  0
  8  9  1  0  0  0  0
 10  6  1  0  0  0  0
M  RAD  3   2   2   8   2   9   3
M  END
