Coordinates from ORCA-job C6H4-N2-B3LYPG-aug-cc-pVDZ-scan-d09-49-n400
 OpenBabel11091809083D

 12 12  0  0  0  0  0  0  0  0999 V2000
   -1.8688    0.1020   -1.0639 C   0  0  0  0  0  0  0  0  0  0  0  0
   -0.4716   -0.0739   -1.0586 C   0  0  0  0  0  0  0  0  0  0  0  0
    0.2358    0.8405    0.0518 C   0  0  0  0  0  0  0  0  0  0  0  0
   -0.6304    1.7025    0.8721 C   0  0  0  0  0  0  0  0  0  0  0  0
   -1.9861    1.7495    0.7311 C   0  0  0  0  0  0  0  0  0  0  0  0
   -2.6164    0.9427   -0.2448 C   0  0  0  0  0  0  0  0  0  0  0  0
   -2.4023   -0.5025   -1.8051 H   0  0  0  0  0  0  0  0  0  0  0  0
    1.1316    0.8003    0.1291 N   0  0  0  0  0  0  0  0  0  0  0  0
    2.2983    0.7298    0.2089 N   0  0  0  0  0  0  0  0  0  0  0  0
   -3.7026    0.9881   -0.3495 H   0  0  0  0  0  0  0  0  0  0  0  0
   -2.5734    2.4078    1.3703 H   0  0  0  0  0  0  0  0  0  0  0  0
   -0.0933    2.3050    1.6084 H   0  0  0  0  0  0  0  0  0  0  0  0
  1  2  2  0  0  0  0
  1  6  1  0  0  0  0
  2  3  1  0  0  0  0
  3  8  1  0  0  0  0
  3  4  2  0  0  0  0
  4 12  1  0  0  0  0
  5  4  1  0  0  0  0
  5 11  1  0  0  0  0
  6  5  2  0  0  0  0
  7  1  1  0  0  0  0
  8  9  1  0  0  0  0
 10  6  1  0  0  0  0
M  RAD  3   2   2   8   2   9   3
M  END
