Coordinates from ORCA-job C6H4-N2-B3LYPG-aug-cc-pVDZ-scan-d09-49-n400
 OpenBabel11091809083D

 12 11  0  0  0  0  0  0  0  0999 V2000
   -2.4683    0.0547   -1.2006 C   0  0  0  0  0  0  0  0  0  0  0  0
   -1.0855   -0.0378   -1.1077 C   0  0  0  0  0  0  0  0  0  0  0  0
   -0.3480    0.5907   -0.3128 C   0  0  0  0  0  0  0  0  0  0  0  0
   -0.7232    1.5144    0.6502 C   0  0  0  0  0  0  0  0  0  0  0  0
   -2.1293    1.6809    0.6356 C   0  0  0  0  0  0  0  0  0  0  0  0
   -2.9676    0.9798   -0.2534 C   0  0  0  0  0  0  0  0  0  0  0  0
   -3.1162   -0.4870   -1.8875 H   0  0  0  0  0  0  0  0  0  0  0  0
    3.0173    1.3278    0.9724 N   0  0  0  0  0  0  0  0  0  0  0  0
    3.8409    0.7762    0.4863 N   0  0  0  0  0  0  0  0  0  0  0  0
   -4.0446    1.1548   -0.2124 H   0  0  0  0  0  0  0  0  0  0  0  0
   -2.5784    2.3813    1.3428 H   0  0  0  0  0  0  0  0  0  0  0  0
   -0.0764    2.0561    1.3370 H   0  0  0  0  0  0  0  0  0  0  0  0
  1  2  2  0  0  0  0
  1  6  1  0  0  0  0
  2  3  1  0  0  0  0
  3  4  2  0  0  0  0
  4 12  1  0  0  0  0
  5  4  1  0  0  0  0
  5 11  1  0  0  0  0
  6 10  1  0  0  0  0
  6  5  2  0  0  0  0
  7  1  1  0  0  0  0
  9  8  3  0  0  0  0
M  RAD  2   2   2   3   2
M  END
