Coordinates from ORCA-job C6H4-N2-B3LYPG-aug-cc-pVDZ-scan-d09-49-n400
 OpenBabel11091809083D

 12 12  0  0  0  0  0  0  0  0999 V2000
   -1.8836    0.0998   -1.0679 C   0  0  0  0  0  0  0  0  0  0  0  0
   -0.4670   -0.0467   -1.0302 C   0  0  0  0  0  0  0  0  0  0  0  0
    0.1022    0.8244    0.0048 C   0  0  0  0  0  0  0  0  0  0  0  0
   -0.6415    1.7094    0.8756 C   0  0  0  0  0  0  0  0  0  0  0  0
   -2.0035    1.7557    0.7353 C   0  0  0  0  0  0  0  0  0  0  0  0
   -2.6258    0.9412   -0.2478 C   0  0  0  0  0  0  0  0  0  0  0  0
   -2.4280   -0.5003   -1.8039 H   0  0  0  0  0  0  0  0  0  0  0  0
    1.2859    0.7798    0.1265 N   0  0  0  0  0  0  0  0  0  0  0  0
    2.4112    0.7180    0.2212 N   0  0  0  0  0  0  0  0  0  0  0  0
   -3.7132    0.9862   -0.3511 H   0  0  0  0  0  0  0  0  0  0  0  0
   -2.5997    2.4094    1.3710 H   0  0  0  0  0  0  0  0  0  0  0  0
   -0.1160    2.3150    1.6164 H   0  0  0  0  0  0  0  0  0  0  0  0
  1  2  2  0  0  0  0
  1  6  1  0  0  0  0
  2  3  1  0  0  0  0
  3  8  1  0  0  0  0
  3  4  2  0  0  0  0
  4 12  1  0  0  0  0
  5  4  1  0  0  0  0
  5 11  1  0  0  0  0
  6  5  2  0  0  0  0
  7  1  1  0  0  0  0
  8  9  1  0  0  0  0
 10  6  1  0  0  0  0
M  RAD  3   2   2   8   2   9   3
M  END
