Coordinates from ORCA-job C6H4-N2-B3LYPG-aug-cc-pVDZ-scan-d09-49-n400
 OpenBabel11091809083D

 12 11  0  0  0  0  0  0  0  0999 V2000
   -2.7411    0.0656   -1.2274 C   0  0  0  0  0  0  0  0  0  0  0  0
   -1.3698   -0.1482   -1.2703 C   0  0  0  0  0  0  0  0  0  0  0  0
   -0.5023    0.3971   -0.5486 C   0  0  0  0  0  0  0  0  0  0  0  0
   -0.7008    1.3343    0.4548 C   0  0  0  0  0  0  0  0  0  0  0  0
   -2.0811    1.6237    0.5797 C   0  0  0  0  0  0  0  0  0  0  0  0
   -3.0614    1.0146   -0.2280 C   0  0  0  0  0  0  0  0  0  0  0  0
   -3.4979   -0.4056   -1.8520 H   0  0  0  0  0  0  0  0  0  0  0  0
    3.3931    1.5614    1.2823 N   0  0  0  0  0  0  0  0  0  0  0  0
    4.3342    1.1090    0.9233 N   0  0  0  0  0  0  0  0  0  0  0  0
   -4.1093    1.2832   -0.0795 H   0  0  0  0  0  0  0  0  0  0  0  0
   -2.3948    2.3488    1.3336 H   0  0  0  0  0  0  0  0  0  0  0  0
    0.0520    1.8081    1.0818 H   0  0  0  0  0  0  0  0  0  0  0  0
  1  6  1  0  0  0  0
  2  1  2  0  0  0  0
  2  3  1  0  0  0  0
  3  4  2  0  0  0  0
  4  5  1  0  0  0  0
  4 12  1  0  0  0  0
  5 11  1  0  0  0  0
  6 10  1  0  0  0  0
  6  5  2  0  0  0  0
  7  1  1  0  0  0  0
  9  8  3  0  0  0  0
M  RAD  2   2   2   3   2
M  END
