Coordinates from ORCA-job C6H4-N2-B3LYPG-aug-cc-pVDZ-scan-d09-49-n400
 OpenBabel11091809083D

 12 11  0  0  0  0  0  0  0  0999 V2000
   -2.4325    0.0546   -1.1956 C   0  0  0  0  0  0  0  0  0  0  0  0
   -1.0502   -0.0219   -1.0852 C   0  0  0  0  0  0  0  0  0  0  0  0
   -0.3275    0.6148   -0.2833 C   0  0  0  0  0  0  0  0  0  0  0  0
   -0.7268    1.5356    0.6732 C   0  0  0  0  0  0  0  0  0  0  0  0
   -2.1339    1.6873    0.6420 C   0  0  0  0  0  0  0  0  0  0  0  0
   -2.9535    0.9756   -0.2561 C   0  0  0  0  0  0  0  0  0  0  0  0
   -3.0658   -0.4953   -1.8895 H   0  0  0  0  0  0  0  0  0  0  0  0
    2.9653    1.2993    0.9339 N   0  0  0  0  0  0  0  0  0  0  0  0
    3.7698    0.7349    0.4306 N   0  0  0  0  0  0  0  0  0  0  0  0
   -4.0328    1.1386   -0.2288 H   0  0  0  0  0  0  0  0  0  0  0  0
   -2.5989    2.3839    1.3426 H   0  0  0  0  0  0  0  0  0  0  0  0
   -0.0923    2.0844    1.3660 H   0  0  0  0  0  0  0  0  0  0  0  0
  1  2  2  0  0  0  0
  1  6  1  0  0  0  0
  2  3  1  0  0  0  0
  3  4  2  0  0  0  0
  4 12  1  0  0  0  0
  5  4  1  0  0  0  0
  5 11  1  0  0  0  0
  6 10  1  0  0  0  0
  6  5  2  0  0  0  0
  7  1  1  0  0  0  0
  9  8  3  0  0  0  0
M  RAD  2   2   2   3   2
M  END
