Coordinates from ORCA-job C6H4-N2-B3LYPG-aug-cc-pVDZ-scan-d09-49-n400
 OpenBabel11091809083D

 12 11  0  0  0  0  0  0  0  0999 V2000
   -2.3240    0.0566   -1.1780 C   0  0  0  0  0  0  0  0  0  0  0  0
   -0.9443    0.0241   -1.0194 C   0  0  0  0  0  0  0  0  0  0  0  0
   -0.2725    0.6876   -0.1952 C   0  0  0  0  0  0  0  0  0  0  0  0
   -0.7344    1.5987    0.7416 C   0  0  0  0  0  0  0  0  0  0  0  0
   -2.1434    1.7054    0.6604 C   0  0  0  0  0  0  0  0  0  0  0  0
   -2.9074    0.9640   -0.2624 C   0  0  0  0  0  0  0  0  0  0  0  0
   -2.9146   -0.5160   -1.8909 H   0  0  0  0  0  0  0  0  0  0  0  0
    2.7540    1.1804    0.7736 N   0  0  0  0  0  0  0  0  0  0  0  0
    3.5936    0.6406    0.3013 N   0  0  0  0  0  0  0  0  0  0  0  0
   -3.9917    1.0922   -0.2741 H   0  0  0  0  0  0  0  0  0  0  0  0
   -2.6548    2.3895    1.3407 H   0  0  0  0  0  0  0  0  0  0  0  0
   -0.1397    2.1687    1.4522 H   0  0  0  0  0  0  0  0  0  0  0  0
  1  2  2  0  0  0  0
  1  6  1  0  0  0  0
  2  3  1  0  0  0  0
  3  4  2  0  0  0  0
  4 12  1  0  0  0  0
  5  4  1  0  0  0  0
  5 11  1  0  0  0  0
  6  5  2  0  0  0  0
  7  1  1  0  0  0  0
  9  8  3  0  0  0  0
 10  6  1  0  0  0  0
M  RAD  2   2   2   3   2
M  END
