Coordinates from ORCA-job C6H4-N2-B3LYPG-aug-cc-pVDZ-scan-d09-49-n400
 OpenBabel11091809083D

 12 12  0  0  0  0  0  0  0  0999 V2000
   -1.8997    0.0976   -1.0728 C   0  0  0  0  0  0  0  0  0  0  0  0
   -0.4903    0.0548   -0.9208 C   0  0  0  0  0  0  0  0  0  0  0  0
   -0.0673    0.8633    0.0277 C   0  0  0  0  0  0  0  0  0  0  0  0
   -0.6903    1.7410    0.9046 C   0  0  0  0  0  0  0  0  0  0  0  0
   -2.0761    1.7582    0.7278 C   0  0  0  0  0  0  0  0  0  0  0  0
   -2.6693    0.9389   -0.2567 C   0  0  0  0  0  0  0  0  0  0  0  0
   -2.4039   -0.5191   -1.8220 H   0  0  0  0  0  0  0  0  0  0  0  0
    1.6015    0.8386    0.2361 N   0  0  0  0  0  0  0  0  0  0  0  0
    2.6364    0.4985    0.0080 N   0  0  0  0  0  0  0  0  0  0  0  0
   -3.7547    0.9661   -0.3800 H   0  0  0  0  0  0  0  0  0  0  0  0
   -2.6936    2.4048    1.3514 H   0  0  0  0  0  0  0  0  0  0  0  0
   -0.1716    2.3491    1.6464 H   0  0  0  0  0  0  0  0  0  0  0  0
  1  2  2  0  0  0  0
  1  6  1  0  0  0  0
  2  3  1  0  0  0  0
  3  8  1  0  0  0  0
  3  4  2  0  0  0  0
  4 12  1  0  0  0  0
  5  4  1  0  0  0  0
  5 11  1  0  0  0  0
  6  5  2  0  0  0  0
  7  1  1  0  0  0  0
  9  8  2  0  0  0  0
 10  6  1  0  0  0  0
M  RAD  2   2   2   9   2
M  END
