Coordinates from ORCA-job C6H4-N2-B3LYPG-aug-cc-pVDZ-scan-d09-49-n400
 OpenBabel11091809083D

 12 11  0  0  0  0  0  0  0  0999 V2000
   -2.3978    0.0551   -1.1902 C   0  0  0  0  0  0  0  0  0  0  0  0
   -1.0162   -0.0064   -1.0633 C   0  0  0  0  0  0  0  0  0  0  0  0
   -0.3098    0.6392   -0.2539 C   0  0  0  0  0  0  0  0  0  0  0  0
   -0.7312    1.5570    0.6961 C   0  0  0  0  0  0  0  0  0  0  0  0
   -2.1392    1.6936    0.6482 C   0  0  0  0  0  0  0  0  0  0  0  0
   -2.9401    0.9717   -0.2585 C   0  0  0  0  0  0  0  0  0  0  0  0
   -3.0168   -0.5027   -1.8907 H   0  0  0  0  0  0  0  0  0  0  0  0
    2.9051    1.2612    0.8837 N   0  0  0  0  0  0  0  0  0  0  0  0
    3.7168    0.7017    0.3863 N   0  0  0  0  0  0  0  0  0  0  0  0
   -4.0214    1.1229   -0.2445 H   0  0  0  0  0  0  0  0  0  0  0  0
   -2.6199    2.3862    1.3421 H   0  0  0  0  0  0  0  0  0  0  0  0
   -0.1088    2.1124    1.3945 H   0  0  0  0  0  0  0  0  0  0  0  0
  1  2  2  0  0  0  0
  1  6  1  0  0  0  0
  2  3  1  0  0  0  0
  3  4  2  0  0  0  0
  4 12  1  0  0  0  0
  5  4  1  0  0  0  0
  5 11  1  0  0  0  0
  6 10  1  0  0  0  0
  6  5  2  0  0  0  0
  7  1  1  0  0  0  0
  9  8  3  0  0  0  0
M  RAD  2   2   2   3   2
M  END
