Coordinates from ORCA-job C6H4-N2-B3LYPG-aug-cc-pVDZ-scan-d09-49-n400
 OpenBabel11091809083D

 12 11  0  0  0  0  0  0  0  0999 V2000
   -2.1725    0.0629   -1.1497 C   0  0  0  0  0  0  0  0  0  0  0  0
   -0.7953    0.0742   -0.9431 C   0  0  0  0  0  0  0  0  0  0  0  0
   -0.2082    0.7775   -0.0870 C   0  0  0  0  0  0  0  0  0  0  0  0
   -0.7295    1.6740    0.8252 C   0  0  0  0  0  0  0  0  0  0  0  0
   -2.1377    1.7254    0.6832 C   0  0  0  0  0  0  0  0  0  0  0  0
   -2.8312    0.9501   -0.2670 C   0  0  0  0  0  0  0  0  0  0  0  0
   -2.7125   -0.5347   -1.8828 H   0  0  0  0  0  0  0  0  0  0  0  0
    2.4070    1.0263    0.5557 N   0  0  0  0  0  0  0  0  0  0  0  0
    3.3096    0.5377    0.1474 N   0  0  0  0  0  0  0  0  0  0  0  0
   -3.9182    1.0364   -0.3254 H   0  0  0  0  0  0  0  0  0  0  0  0
   -2.7037    2.3925    1.3369 H   0  0  0  0  0  0  0  0  0  0  0  0
   -0.1868    2.2694    1.5563 H   0  0  0  0  0  0  0  0  0  0  0  0
  1  2  2  0  0  0  0
  1  6  1  0  0  0  0
  2  3  1  0  0  0  0
  3  4  2  0  0  0  0
  4 12  1  0  0  0  0
  5  4  1  0  0  0  0
  5 11  1  0  0  0  0
  6  5  2  0  0  0  0
  7  1  1  0  0  0  0
  9  8  3  0  0  0  0
 10  6  1  0  0  0  0
M  RAD  2   2   2   3   2
M  END
