Coordinates from ORCA-job C6H4-N2-B3LYPG-aug-cc-pVDZ-scan-d09-49-n400
 OpenBabel11091809083D

 12 12  0  0  0  0  0  0  0  0999 V2000
   -1.8854    0.0996   -1.0685 C   0  0  0  0  0  0  0  0  0  0  0  0
   -0.4678   -0.0443   -1.0272 C   0  0  0  0  0  0  0  0  0  0  0  0
    0.0897    0.8239    0.0040 C   0  0  0  0  0  0  0  0  0  0  0  0
   -0.6437    1.7104    0.8768 C   0  0  0  0  0  0  0  0  0  0  0  0
   -2.0067    1.7563    0.7356 C   0  0  0  0  0  0  0  0  0  0  0  0
   -2.6277    0.9412   -0.2481 C   0  0  0  0  0  0  0  0  0  0  0  0
   -2.4300   -0.5002   -1.8045 H   0  0  0  0  0  0  0  0  0  0  0  0
    1.3034    0.7774    0.1265 N   0  0  0  0  0  0  0  0  0  0  0  0
    2.4263    0.7154    0.2191 N   0  0  0  0  0  0  0  0  0  0  0  0
   -3.7150    0.9861   -0.3517 H   0  0  0  0  0  0  0  0  0  0  0  0
   -2.6040    2.4098    1.3704 H   0  0  0  0  0  0  0  0  0  0  0  0
   -0.1183    2.3162    1.6174 H   0  0  0  0  0  0  0  0  0  0  0  0
  1  2  2  0  0  0  0
  1  6  1  0  0  0  0
  2  3  1  0  0  0  0
  3  8  1  0  0  0  0
  3  4  2  0  0  0  0
  4 12  1  0  0  0  0
  5  4  1  0  0  0  0
  5 11  1  0  0  0  0
  6  5  2  0  0  0  0
  7  1  1  0  0  0  0
  8  9  1  0  0  0  0
 10  6  1  0  0  0  0
M  RAD  3   2   2   8   2   9   3
M  END
