Coordinates from ORCA-job C6H4-N2-B3LYPG-aug-cc-pVDZ-scan-d09-49-n400
 OpenBabel11091809083D

 12 11  0  0  0  0  0  0  0  0999 V2000
   -2.4822    0.0548   -1.2024 C   0  0  0  0  0  0  0  0  0  0  0  0
   -1.0994   -0.0437   -1.1164 C   0  0  0  0  0  0  0  0  0  0  0  0
   -0.3560    0.5814   -0.3243 C   0  0  0  0  0  0  0  0  0  0  0  0
   -0.7224    1.5060    0.6412 C   0  0  0  0  0  0  0  0  0  0  0  0
   -2.1279    1.6784    0.6331 C   0  0  0  0  0  0  0  0  0  0  0  0
   -2.9732    0.9814   -0.2524 C   0  0  0  0  0  0  0  0  0  0  0  0
   -3.1357   -0.4837   -1.8866 H   0  0  0  0  0  0  0  0  0  0  0  0
    3.0384    1.3390    0.9876 N   0  0  0  0  0  0  0  0  0  0  0  0
    3.8691    0.7922    0.5081 N   0  0  0  0  0  0  0  0  0  0  0  0
   -4.0492    1.1611   -0.2061 H   0  0  0  0  0  0  0  0  0  0  0  0
   -2.5707    2.3803    1.3428 H   0  0  0  0  0  0  0  0  0  0  0  0
   -0.0700    2.0446    1.3252 H   0  0  0  0  0  0  0  0  0  0  0  0
  1  2  2  0  0  0  0
  1  6  1  0  0  0  0
  2  3  1  0  0  0  0
  3  4  2  0  0  0  0
  4 12  1  0  0  0  0
  5  4  1  0  0  0  0
  5 11  1  0  0  0  0
  6 10  1  0  0  0  0
  6  5  2  0  0  0  0
  7  1  1  0  0  0  0
  9  8  3  0  0  0  0
M  RAD  2   2   2   3   2
M  END
