Coordinates from ORCA-job C6H4-N2-B3LYPG-aug-cc-pVDZ-scan-d09-49-n400
 OpenBabel11091809083D

 12 11  0  0  0  0  0  0  0  0999 V2000
   -2.6025    0.0579   -1.2161 C   0  0  0  0  0  0  0  0  0  0  0  0
   -1.2219   -0.0940   -1.1897 C   0  0  0  0  0  0  0  0  0  0  0  0
   -0.4229    0.4978   -0.4266 C   0  0  0  0  0  0  0  0  0  0  0  0
   -0.7123    1.4297    0.5581 C   0  0  0  0  0  0  0  0  0  0  0  0
   -2.1092    1.6552    0.6103 C   0  0  0  0  0  0  0  0  0  0  0  0
   -3.0172    0.9963   -0.2418 C   0  0  0  0  0  0  0  0  0  0  0  0
   -3.3045   -0.4510   -1.8744 H   0  0  0  0  0  0  0  0  0  0  0  0
    3.2075    1.4405    1.1221 N   0  0  0  0  0  0  0  0  0  0  0  0
    4.0931    0.9349    0.6988 N   0  0  0  0  0  0  0  0  0  0  0  0
   -4.0826    1.2165   -0.1490 H   0  0  0  0  0  0  0  0  0  0  0  0
   -2.4947    2.3688    1.3415 H   0  0  0  0  0  0  0  0  0  0  0  0
   -0.0120    1.9392    1.2168 H   0  0  0  0  0  0  0  0  0  0  0  0
  1  2  2  0  0  0  0
  1  6  1  0  0  0  0
  2  3  1  0  0  0  0
  3  4  2  0  0  0  0
  4  5  1  0  0  0  0
  4 12  1  0  0  0  0
  5 11  1  0  0  0  0
  6 10  1  0  0  0  0
  6  5  2  0  0  0  0
  7  1  1  0  0  0  0
  9  8  3  0  0  0  0
M  RAD  2   2   2   3   2
M  END
