Coordinates from ORCA-job C6H4-N2-B3LYPG-aug-cc-pVDZ-scan-d09-49-n400
 OpenBabel11091809083D

 12 11  0  0  0  0  0  0  0  0999 V2000
   -2.4068    0.0549   -1.1916 C   0  0  0  0  0  0  0  0  0  0  0  0
   -1.0250   -0.0104   -1.0689 C   0  0  0  0  0  0  0  0  0  0  0  0
   -0.3143    0.6329   -0.2614 C   0  0  0  0  0  0  0  0  0  0  0  0
   -0.7303    1.5515    0.6902 C   0  0  0  0  0  0  0  0  0  0  0  0
   -2.1381    1.6921    0.6466 C   0  0  0  0  0  0  0  0  0  0  0  0
   -2.9437    0.9727   -0.2579 C   0  0  0  0  0  0  0  0  0  0  0  0
   -3.0294   -0.5009   -1.8904 H   0  0  0  0  0  0  0  0  0  0  0  0
    2.9221    1.2717    0.8976 N   0  0  0  0  0  0  0  0  0  0  0  0
    3.7301    0.7097    0.3970 N   0  0  0  0  0  0  0  0  0  0  0  0
   -4.0245    1.1268   -0.2405 H   0  0  0  0  0  0  0  0  0  0  0  0
   -2.6148    2.3857    1.3422 H   0  0  0  0  0  0  0  0  0  0  0  0
   -0.1043    2.1050    1.3870 H   0  0  0  0  0  0  0  0  0  0  0  0
  1  2  2  0  0  0  0
  1  6  1  0  0  0  0
  2  3  1  0  0  0  0
  3  4  2  0  0  0  0
  4 12  1  0  0  0  0
  5  4  1  0  0  0  0
  5 11  1  0  0  0  0
  6 10  1  0  0  0  0
  6  5  2  0  0  0  0
  7  1  1  0  0  0  0
  9  8  3  0  0  0  0
M  RAD  2   2   2   3   2
M  END
