Coordinates from ORCA-job C6H4-N2-B3LYPG-aug-cc-pVDZ-scan-d09-49-n400
 OpenBabel11091809083D

 12 11  0  0  0  0  0  0  0  0999 V2000
   -2.1525    0.0639   -1.1458 C   0  0  0  0  0  0  0  0  0  0  0  0
   -0.7756    0.0799   -0.9341 C   0  0  0  0  0  0  0  0  0  0  0  0
   -0.1998    0.7882   -0.0741 C   0  0  0  0  0  0  0  0  0  0  0  0
   -0.7282    1.6828    0.8350 C   0  0  0  0  0  0  0  0  0  0  0  0
   -2.1359    1.7277    0.6859 C   0  0  0  0  0  0  0  0  0  0  0  0
   -2.8205    0.9483   -0.2675 C   0  0  0  0  0  0  0  0  0  0  0  0
   -2.6864   -0.5366   -1.8812 H   0  0  0  0  0  0  0  0  0  0  0  0
    2.3636    1.0133    0.5352 N   0  0  0  0  0  0  0  0  0  0  0  0
    3.2631    0.5218    0.1235 N   0  0  0  0  0  0  0  0  0  0  0  0
   -3.9076    1.0293   -0.3316 H   0  0  0  0  0  0  0  0  0  0  0  0
   -2.7083    2.3925    1.3362 H   0  0  0  0  0  0  0  0  0  0  0  0
   -0.1911    2.2807    1.5681 H   0  0  0  0  0  0  0  0  0  0  0  0
  1  2  2  0  0  0  0
  1  6  1  0  0  0  0
  2  3  1  0  0  0  0
  3  4  2  0  0  0  0
  4 12  1  0  0  0  0
  5  4  1  0  0  0  0
  5 11  1  0  0  0  0
  6  5  2  0  0  0  0
  7  1  1  0  0  0  0
  9  8  3  0  0  0  0
 10  6  1  0  0  0  0
M  RAD  2   2   2   3   2
M  END
