Coordinates from ORCA-job C6H4-N2-B3LYPG-aug-cc-pVDZ-scan-d09-49-n400
 OpenBabel11091809083D

 12 11  0  0  0  0  0  0  0  0999 V2000
   -2.4220    0.0547   -1.1939 C   0  0  0  0  0  0  0  0  0  0  0  0
   -1.0399   -0.0171   -1.0784 C   0  0  0  0  0  0  0  0  0  0  0  0
   -0.3218    0.6222   -0.2742 C   0  0  0  0  0  0  0  0  0  0  0  0
   -0.7286    1.5422    0.6801 C   0  0  0  0  0  0  0  0  0  0  0  0
   -2.1359    1.6893    0.6439 C   0  0  0  0  0  0  0  0  0  0  0  0
   -2.9496    0.9744   -0.2569 C   0  0  0  0  0  0  0  0  0  0  0  0
   -3.0508   -0.4976   -1.8899 H   0  0  0  0  0  0  0  0  0  0  0  0
    2.9499    1.2897    0.9212 N   0  0  0  0  0  0  0  0  0  0  0  0
    3.7515    0.7234    0.4152 N   0  0  0  0  0  0  0  0  0  0  0  0
   -4.0296    1.1336   -0.2338 H   0  0  0  0  0  0  0  0  0  0  0  0
   -2.6058    2.3847    1.3425 H   0  0  0  0  0  0  0  0  0  0  0  0
   -0.0966    2.0923    1.3741 H   0  0  0  0  0  0  0  0  0  0  0  0
  1  2  2  0  0  0  0
  1  6  1  0  0  0  0
  2  3  1  0  0  0  0
  3  4  2  0  0  0  0
  4 12  1  0  0  0  0
  5  4  1  0  0  0  0
  5 11  1  0  0  0  0
  6 10  1  0  0  0  0
  6  5  2  0  0  0  0
  7  1  1  0  0  0  0
  9  8  3  0  0  0  0
M  RAD  2   2   2   3   2
M  END
