Coordinates from ORCA-job C6H4-N2-B3LYPG-aug-cc-pVDZ-scan-d09-49-n400
 OpenBabel11091809083D

 12 11  0  0  0  0  0  0  0  0999 V2000
   -2.1691    0.0630   -1.1490 C   0  0  0  0  0  0  0  0  0  0  0  0
   -0.7920    0.0752   -0.9415 C   0  0  0  0  0  0  0  0  0  0  0  0
   -0.2068    0.7793   -0.0848 C   0  0  0  0  0  0  0  0  0  0  0  0
   -0.7293    1.6755    0.8269 C   0  0  0  0  0  0  0  0  0  0  0  0
   -2.1374    1.7258    0.6837 C   0  0  0  0  0  0  0  0  0  0  0  0
   -2.8295    0.9498   -0.2671 C   0  0  0  0  0  0  0  0  0  0  0  0
   -2.7081   -0.5350   -1.8826 H   0  0  0  0  0  0  0  0  0  0  0  0
    2.3998    1.0241    0.5523 N   0  0  0  0  0  0  0  0  0  0  0  0
    3.3019    0.5350    0.1434 N   0  0  0  0  0  0  0  0  0  0  0  0
   -3.9164    1.0352   -0.3265 H   0  0  0  0  0  0  0  0  0  0  0  0
   -2.7045    2.3925    1.3367 H   0  0  0  0  0  0  0  0  0  0  0  0
   -0.1876    2.2713    1.5583 H   0  0  0  0  0  0  0  0  0  0  0  0
  1  2  2  0  0  0  0
  1  6  1  0  0  0  0
  2  3  1  0  0  0  0
  3  4  2  0  0  0  0
  4 12  1  0  0  0  0
  5  4  1  0  0  0  0
  5 11  1  0  0  0  0
  6  5  2  0  0  0  0
  7  1  1  0  0  0  0
  9  8  3  0  0  0  0
 10  6  1  0  0  0  0
M  RAD  2   2   2   3   2
M  END
