Coordinates from ORCA-job C6H4-N2-B3LYPG-aug-cc-pVDZ-scan-d09-49-n400
 OpenBabel11091809083D

 12 11  0  0  0  0  0  0  0  0999 V2000
   -2.0258    0.0734   -1.1174 C   0  0  0  0  0  0  0  0  0  0  0  0
   -0.6478    0.1102   -0.8829 C   0  0  0  0  0  0  0  0  0  0  0  0
   -0.1427    0.8498    0.0014 C   0  0  0  0  0  0  0  0  0  0  0  0
   -0.7193    1.7319    0.8900 C   0  0  0  0  0  0  0  0  0  0  0  0
   -2.1202    1.7410    0.7028 C   0  0  0  0  0  0  0  0  0  0  0  0
   -2.7507    0.9379   -0.2689 C   0  0  0  0  0  0  0  0  0  0  0  0
   -2.5235   -0.5435   -1.8658 H   0  0  0  0  0  0  0  0  0  0  0  0
    2.0711    0.9393    0.4120 N   0  0  0  0  0  0  0  0  0  0  0  0
    2.9540    0.4307   -0.0195 N   0  0  0  0  0  0  0  0  0  0  0  0
   -3.8371    0.9867   -0.3683 H   0  0  0  0  0  0  0  0  0  0  0  0
   -2.7284    2.3923    1.3334 H   0  0  0  0  0  0  0  0  0  0  0  0
   -0.2087    2.3422    1.6330 H   0  0  0  0  0  0  0  0  0  0  0  0
  1  2  2  0  0  0  0
  1  6  1  0  0  0  0
  2  3  1  0  0  0  0
  3  4  2  0  0  0  0
  4 12  1  0  0  0  0
  5  4  1  0  0  0  0
  5 11  1  0  0  0  0
  6  5  2  0  0  0  0
  7  1  1  0  0  0  0
  9  8  3  0  0  0  0
 10  6  1  0  0  0  0
M  RAD  2   2   2   3   2
M  END
