Coordinates from ORCA-job C6H4-N2-B3LYPG-aug-cc-pVDZ-scan-d09-49-n400
 OpenBabel11091809083D

 12 11  0  0  0  0  0  0  0  0999 V2000
   -2.2769    0.0581   -1.1697 C   0  0  0  0  0  0  0  0  0  0  0  0
   -0.8988    0.0423   -0.9928 C   0  0  0  0  0  0  0  0  0  0  0  0
   -0.2496    0.7169   -0.1595 C   0  0  0  0  0  0  0  0  0  0  0  0
   -0.7346    1.6236    0.7690 C   0  0  0  0  0  0  0  0  0  0  0  0
   -2.1436    1.7121    0.6677 C   0  0  0  0  0  0  0  0  0  0  0  0
   -2.8850    0.9594   -0.2643 C   0  0  0  0  0  0  0  0  0  0  0  0
   -2.8503   -0.5232   -1.8897 H   0  0  0  0  0  0  0  0  0  0  0  0
    2.6514    1.1313    0.7053 N   0  0  0  0  0  0  0  0  0  0  0  0
    3.5085    0.6048    0.2496 N   0  0  0  0  0  0  0  0  0  0  0  0
   -3.9705    1.0739   -0.2915 H   0  0  0  0  0  0  0  0  0  0  0  0
   -2.6732    2.3908    1.3394 H   0  0  0  0  0  0  0  0  0  0  0  0
   -0.1564    2.2019    1.4864 H   0  0  0  0  0  0  0  0  0  0  0  0
  1  2  2  0  0  0  0
  1  6  1  0  0  0  0
  2  3  1  0  0  0  0
  3  4  2  0  0  0  0
  4 12  1  0  0  0  0
  5  4  1  0  0  0  0
  5 11  1  0  0  0  0
  6  5  2  0  0  0  0
  7  1  1  0  0  0  0
  9  8  3  0  0  0  0
 10  6  1  0  0  0  0
M  RAD  2   2   2   3   2
M  END
