Coordinates from ORCA-job C6H4-N2-B3LYPG-aug-cc-pVDZ-scan-d09-49-n400
 OpenBabel11091809083D

 12 12  0  0  0  0  0  0  0  0999 V2000
   -1.8845    0.1000   -1.0682 C   0  0  0  0  0  0  0  0  0  0  0  0
   -0.4678   -0.0470   -1.0288 C   0  0  0  0  0  0  0  0  0  0  0  0
    0.0982    0.8206    0.0078 C   0  0  0  0  0  0  0  0  0  0  0  0
   -0.6426    1.7085    0.8766 C   0  0  0  0  0  0  0  0  0  0  0  0
   -2.0047    1.7558    0.7353 C   0  0  0  0  0  0  0  0  0  0  0  0
   -2.6268    0.9414   -0.2480 C   0  0  0  0  0  0  0  0  0  0  0  0
   -2.4288   -0.4996   -1.8046 H   0  0  0  0  0  0  0  0  0  0  0  0
    1.2923    0.7790    0.1270 N   0  0  0  0  0  0  0  0  0  0  0  0
    2.4173    0.7206    0.2181 N   0  0  0  0  0  0  0  0  0  0  0  0
   -3.7140    0.9872   -0.3520 H   0  0  0  0  0  0  0  0  0  0  0  0
   -2.6009    2.4107    1.3699 H   0  0  0  0  0  0  0  0  0  0  0  0
   -0.1169    2.3147    1.6167 H   0  0  0  0  0  0  0  0  0  0  0  0
  1  2  2  0  0  0  0
  1  6  1  0  0  0  0
  2  3  1  0  0  0  0
  3  8  1  0  0  0  0
  3  4  2  0  0  0  0
  4 12  1  0  0  0  0
  5  4  1  0  0  0  0
  5 11  1  0  0  0  0
  6  5  2  0  0  0  0
  7  1  1  0  0  0  0
  8  9  1  0  0  0  0
 10  6  1  0  0  0  0
M  RAD  3   2   2   8   2   9   3
M  END
