Coordinates from ORCA-job C6H4-N2-B3LYPG-aug-cc-pVDZ-scan-d09-49-n400
 OpenBabel11091809083D

 12 11  0  0  0  0  0  0  0  0999 V2000
   -2.5990    0.0578   -1.2158 C   0  0  0  0  0  0  0  0  0  0  0  0
   -1.2182   -0.0925   -1.1875 C   0  0  0  0  0  0  0  0  0  0  0  0
   -0.4209    0.5003   -0.4235 C   0  0  0  0  0  0  0  0  0  0  0  0
   -0.7126    1.4321    0.5607 C   0  0  0  0  0  0  0  0  0  0  0  0
   -2.1099    1.6559    0.6110 C   0  0  0  0  0  0  0  0  0  0  0  0
   -3.0160    0.9959   -0.2422 C   0  0  0  0  0  0  0  0  0  0  0  0
   -3.2995   -0.4520   -1.8749 H   0  0  0  0  0  0  0  0  0  0  0  0
    3.2028    1.4374    1.1180 N   0  0  0  0  0  0  0  0  0  0  0  0
    4.0869    0.9305    0.6931 N   0  0  0  0  0  0  0  0  0  0  0  0
   -4.0818    1.2148   -0.1508 H   0  0  0  0  0  0  0  0  0  0  0  0
   -2.4972    2.3692    1.3416 H   0  0  0  0  0  0  0  0  0  0  0  0
   -0.0138    1.9425    1.2202 H   0  0  0  0  0  0  0  0  0  0  0  0
  1  2  2  0  0  0  0
  1  6  1  0  0  0  0
  2  3  1  0  0  0  0
  3  4  2  0  0  0  0
  4  5  1  0  0  0  0
  4 12  1  0  0  0  0
  5 11  1  0  0  0  0
  6 10  1  0  0  0  0
  6  5  2  0  0  0  0
  7  1  1  0  0  0  0
  9  8  3  0  0  0  0
M  RAD  2   2   2   3   2
M  END
