Coordinates from ORCA-job C6H4-N2-B3LYPG-aug-cc-pVDZ-scan-d09-49-n400
 OpenBabel11091809083D

 12 11  0  0  0  0  0  0  0  0999 V2000
   -1.9496    0.0839   -1.0951 C   0  0  0  0  0  0  0  0  0  0  0  0
   -0.5595    0.0984   -0.8834 C   0  0  0  0  0  0  0  0  0  0  0  0
   -0.1028    0.8661    0.0251 C   0  0  0  0  0  0  0  0  0  0  0  0
   -0.7001    1.7429    0.9049 C   0  0  0  0  0  0  0  0  0  0  0  0
   -2.0951    1.7481    0.7142 C   0  0  0  0  0  0  0  0  0  0  0  0
   -2.7026    0.9356   -0.2647 C   0  0  0  0  0  0  0  0  0  0  0  0
   -2.4412   -0.5367   -1.8467 H   0  0  0  0  0  0  0  0  0  0  0  0
    1.8149    0.9006    0.3336 N   0  0  0  0  0  0  0  0  0  0  0  0
    2.7473    0.4332   -0.0463 N   0  0  0  0  0  0  0  0  0  0  0  0
   -3.7881    0.9703   -0.3795 H   0  0  0  0  0  0  0  0  0  0  0  0
   -2.7124    2.3953    1.3389 H   0  0  0  0  0  0  0  0  0  0  0  0
   -0.1898    2.3541    1.6488 H   0  0  0  0  0  0  0  0  0  0  0  0
  1  2  2  0  0  0  0
  1  6  1  0  0  0  0
  2  3  1  0  0  0  0
  3  4  2  0  0  0  0
  4 12  1  0  0  0  0
  5  4  1  0  0  0  0
  5 11  1  0  0  0  0
  6  5  2  0  0  0  0
  7  1  1  0  0  0  0
  9  8  3  0  0  0  0
 10  6  1  0  0  0  0
M  RAD  2   2   2   3   2
M  END
