Coordinates from ORCA-job C6H4-N2-B3LYPG-aug-cc-pVDZ-scan-d09-49-n400
 OpenBabel11091809083D

 12 11  0  0  0  0  0  0  0  0999 V2000
   -2.3061    0.0571   -1.1749 C   0  0  0  0  0  0  0  0  0  0  0  0
   -0.9270    0.0311   -1.0091 C   0  0  0  0  0  0  0  0  0  0  0  0
   -0.2639    0.6989   -0.1814 C   0  0  0  0  0  0  0  0  0  0  0  0
   -0.7347    1.6084    0.7523 C   0  0  0  0  0  0  0  0  0  0  0  0
   -2.1438    1.7080    0.6632 C   0  0  0  0  0  0  0  0  0  0  0  0
   -2.8991    0.9622   -0.2632 C   0  0  0  0  0  0  0  0  0  0  0  0
   -2.8900   -0.5189   -1.8906 H   0  0  0  0  0  0  0  0  0  0  0  0
    2.7161    1.1617    0.7477 N   0  0  0  0  0  0  0  0  0  0  0  0
    3.5619    0.6265    0.2812 N   0  0  0  0  0  0  0  0  0  0  0  0
   -3.9839    1.0852   -0.2809 H   0  0  0  0  0  0  0  0  0  0  0  0
   -2.6623    2.3901    1.3401 H   0  0  0  0  0  0  0  0  0  0  0  0
   -0.1463    2.1816    1.4654 H   0  0  0  0  0  0  0  0  0  0  0  0
  1  2  2  0  0  0  0
  1  6  1  0  0  0  0
  2  3  1  0  0  0  0
  3  4  2  0  0  0  0
  4 12  1  0  0  0  0
  5  4  1  0  0  0  0
  5 11  1  0  0  0  0
  6  5  2  0  0  0  0
  7  1  1  0  0  0  0
  9  8  3  0  0  0  0
 10  6  1  0  0  0  0
M  RAD  2   2   2   3   2
M  END
