Coordinates from ORCA-job C6H4-N2-B3LYPG-aug-cc-pVDZ-scan-d09-49-n400
 OpenBabel11091809083D

 12 11  0  0  0  0  0  0  0  0999 V2000
   -2.7379    0.0654   -1.2272 C   0  0  0  0  0  0  0  0  0  0  0  0
   -1.3663   -0.1470   -1.2685 C   0  0  0  0  0  0  0  0  0  0  0  0
   -0.5003    0.3994   -0.5458 C   0  0  0  0  0  0  0  0  0  0  0  0
   -0.7008    1.3364    0.4572 C   0  0  0  0  0  0  0  0  0  0  0  0
   -2.0816    1.6244    0.5805 C   0  0  0  0  0  0  0  0  0  0  0  0
   -3.0603    1.0142   -0.2283 C   0  0  0  0  0  0  0  0  0  0  0  0
   -3.4934   -0.4067   -1.8526 H   0  0  0  0  0  0  0  0  0  0  0  0
    3.3882    1.5586    1.2786 N   0  0  0  0  0  0  0  0  0  0  0  0
    4.3281    1.1050    0.9180 N   0  0  0  0  0  0  0  0  0  0  0  0
   -4.1086    1.2817   -0.0810 H   0  0  0  0  0  0  0  0  0  0  0  0
   -2.3970    2.3493    1.3338 H   0  0  0  0  0  0  0  0  0  0  0  0
    0.0507    1.8111    1.0850 H   0  0  0  0  0  0  0  0  0  0  0  0
  1  6  1  0  0  0  0
  2  1  2  0  0  0  0
  2  3  1  0  0  0  0
  3  4  2  0  0  0  0
  4  5  1  0  0  0  0
  4 12  1  0  0  0  0
  5 11  1  0  0  0  0
  6 10  1  0  0  0  0
  6  5  2  0  0  0  0
  7  1  1  0  0  0  0
  9  8  3  0  0  0  0
M  RAD  2   2   2   3   2
M  END
