Coordinates from ORCA-job C6H4-N2-B3LYPG-aug-cc-pVDZ-scan-d09-49-n400
 OpenBabel11091809083D

 12 11  0  0  0  0  0  0  0  0999 V2000
   -2.2475    0.0592   -1.1643 C   0  0  0  0  0  0  0  0  0  0  0  0
   -0.8703    0.0531   -0.9768 C   0  0  0  0  0  0  0  0  0  0  0  0
   -0.2359    0.7348   -0.1379 C   0  0  0  0  0  0  0  0  0  0  0  0
   -0.7345    1.6386    0.7855 C   0  0  0  0  0  0  0  0  0  0  0  0
   -2.1432    1.7161    0.6722 C   0  0  0  0  0  0  0  0  0  0  0  0
   -2.8706    0.9567   -0.2654 C   0  0  0  0  0  0  0  0  0  0  0  0
   -2.8106   -0.5272   -1.8884 H   0  0  0  0  0  0  0  0  0  0  0  0
    2.5852    1.1005    0.6623 N   0  0  0  0  0  0  0  0  0  0  0  0
    3.4548    0.5839    0.2189 N   0  0  0  0  0  0  0  0  0  0  0  0
   -3.9567    1.0627   -0.3019 H   0  0  0  0  0  0  0  0  0  0  0  0
   -2.6837    2.3915    1.3386 H   0  0  0  0  0  0  0  0  0  0  0  0
   -0.1662    2.2218    1.5069 H   0  0  0  0  0  0  0  0  0  0  0  0
  1  2  2  0  0  0  0
  1  6  1  0  0  0  0
  2  3  1  0  0  0  0
  3  4  2  0  0  0  0
  4 12  1  0  0  0  0
  5  4  1  0  0  0  0
  5 11  1  0  0  0  0
  6  5  2  0  0  0  0
  7  1  1  0  0  0  0
  9  8  3  0  0  0  0
 10  6  1  0  0  0  0
M  RAD  2   2   2   3   2
M  END
