Coordinates from ORCA-job C6H4-N2-B3LYPG-aug-cc-pVDZ-scan-d09-49-n400
 OpenBabel11091809083D

 12 11  0  0  0  0  0  0  0  0999 V2000
   -2.0418    0.0714   -1.1218 C   0  0  0  0  0  0  0  0  0  0  0  0
   -0.6644    0.1068   -0.8891 C   0  0  0  0  0  0  0  0  0  0  0  0
   -0.1511    0.8425   -0.0078 C   0  0  0  0  0  0  0  0  0  0  0  0
   -0.7189    1.7262    0.8839 C   0  0  0  0  0  0  0  0  0  0  0  0
   -2.1216    1.7390    0.7005 C   0  0  0  0  0  0  0  0  0  0  0  0
   -2.7591    0.9390   -0.2688 C   0  0  0  0  0  0  0  0  0  0  0  0
   -2.5440   -0.5434   -1.8686 H   0  0  0  0  0  0  0  0  0  0  0  0
    2.1084    0.9487    0.4277 N   0  0  0  0  0  0  0  0  0  0  0  0
    2.9922    0.4413   -0.0024 N   0  0  0  0  0  0  0  0  0  0  0  0
   -3.8457    0.9923   -0.3633 H   0  0  0  0  0  0  0  0  0  0  0  0
   -2.7258    2.3920    1.3334 H   0  0  0  0  0  0  0  0  0  0  0  0
   -0.2073    2.3359    1.6263 H   0  0  0  0  0  0  0  0  0  0  0  0
  1  2  2  0  0  0  0
  1  6  1  0  0  0  0
  2  3  1  0  0  0  0
  3  4  2  0  0  0  0
  4 12  1  0  0  0  0
  5  4  1  0  0  0  0
  5 11  1  0  0  0  0
  6  5  2  0  0  0  0
  7  1  1  0  0  0  0
  9  8  3  0  0  0  0
 10  6  1  0  0  0  0
M  RAD  2   2   2   3   2
M  END
