Coordinates from ORCA-job C6H4-N2-B3LYPG-aug-cc-pVDZ-scan-d09-49-n400
 OpenBabel11091809083D

 12 11  0  0  0  0  0  0  0  0999 V2000
   -2.0617    0.0697   -1.1266 C   0  0  0  0  0  0  0  0  0  0  0  0
   -0.6843    0.1015   -0.8977 C   0  0  0  0  0  0  0  0  0  0  0  0
   -0.1607    0.8326   -0.0200 C   0  0  0  0  0  0  0  0  0  0  0  0
   -0.7194    1.7185    0.8753 C   0  0  0  0  0  0  0  0  0  0  0  0
   -2.1235    1.7369    0.6978 C   0  0  0  0  0  0  0  0  0  0  0  0
   -2.7699    0.9407   -0.2686 C   0  0  0  0  0  0  0  0  0  0  0  0
   -2.5700   -0.5425   -1.8713 H   0  0  0  0  0  0  0  0  0  0  0  0
    2.1529    0.9603    0.4468 N   0  0  0  0  0  0  0  0  0  0  0  0
    3.0404    0.4565    0.0210 N   0  0  0  0  0  0  0  0  0  0  0  0
   -3.8567    0.9992   -0.3573 H   0  0  0  0  0  0  0  0  0  0  0  0
   -2.7220    2.3920    1.3340 H   0  0  0  0  0  0  0  0  0  0  0  0
   -0.2042    2.3265    1.6164 H   0  0  0  0  0  0  0  0  0  0  0  0
  1  2  2  0  0  0  0
  1  6  1  0  0  0  0
  2  3  1  0  0  0  0
  3  4  2  0  0  0  0
  4 12  1  0  0  0  0
  5  4  1  0  0  0  0
  5 11  1  0  0  0  0
  6  5  2  0  0  0  0
  7  1  1  0  0  0  0
  9  8  3  0  0  0  0
 10  6  1  0  0  0  0
M  RAD  2   2   2   3   2
M  END
