Coordinates from ORCA-job C6H4-N2-B3LYPG-aug-cc-pVDZ-scan-d09-49-n400
 OpenBabel11091809083D

 12 11  0  0  0  0  0  0  0  0999 V2000
   -2.0746    0.0687   -1.1295 C   0  0  0  0  0  0  0  0  0  0  0  0
   -0.6973    0.0986   -0.9026 C   0  0  0  0  0  0  0  0  0  0  0  0
   -0.1665    0.8265   -0.0275 C   0  0  0  0  0  0  0  0  0  0  0  0
   -0.7206    1.7137    0.8699 C   0  0  0  0  0  0  0  0  0  0  0  0
   -2.1254    1.7356    0.6962 C   0  0  0  0  0  0  0  0  0  0  0  0
   -2.7771    0.9417   -0.2685 C   0  0  0  0  0  0  0  0  0  0  0  0
   -2.5865   -0.5419   -1.8729 H   0  0  0  0  0  0  0  0  0  0  0  0
    2.1833    0.9674    0.4590 N   0  0  0  0  0  0  0  0  0  0  0  0
    3.0726    0.4656    0.0353 N   0  0  0  0  0  0  0  0  0  0  0  0
   -3.8640    1.0034   -0.3538 H   0  0  0  0  0  0  0  0  0  0  0  0
   -2.7204    2.3921    1.3343 H   0  0  0  0  0  0  0  0  0  0  0  0
   -0.2026    2.3204    1.6099 H   0  0  0  0  0  0  0  0  0  0  0  0
  1  2  2  0  0  0  0
  1  6  1  0  0  0  0
  2  3  1  0  0  0  0
  3  4  2  0  0  0  0
  4 12  1  0  0  0  0
  5  4  1  0  0  0  0
  5 11  1  0  0  0  0
  6  5  2  0  0  0  0
  7  1  1  0  0  0  0
  9  8  3  0  0  0  0
 10  6  1  0  0  0  0
M  RAD  2   2   2   3   2
M  END
