Coordinates from ORCA-job C6H4-N2-B3LYPG-aug-cc-pVDZ-scan-d09-49-n400
 OpenBabel11091809083D

 12 11  0  0  0  0  0  0  0  0999 V2000
   -2.8250    0.0723   -1.2319 C   0  0  0  0  0  0  0  0  0  0  0  0
   -1.4623   -0.1794   -1.3179 C   0  0  0  0  0  0  0  0  0  0  0  0
   -0.5570    0.3374   -0.6221 C   0  0  0  0  0  0  0  0  0  0  0  0
   -0.6984    1.2754    0.3904 C   0  0  0  0  0  0  0  0  0  0  0  0
   -2.0653    1.6030    0.5593 C   0  0  0  0  0  0  0  0  0  0  0  0
   -3.0871    1.0254   -0.2197 C   0  0  0  0  0  0  0  0  0  0  0  0
   -3.6137   -0.3747   -1.8344 H   0  0  0  0  0  0  0  0  0  0  0  0
    3.5147    1.6351    1.3806 N   0  0  0  0  0  0  0  0  0  0  0  0
    4.4855    1.2159    1.0625 N   0  0  0  0  0  0  0  0  0  0  0  0
   -4.1219    1.3227   -0.0376 H   0  0  0  0  0  0  0  0  0  0  0  0
   -2.3348    2.3333    1.3252 H   0  0  0  0  0  0  0  0  0  0  0  0
    0.0862    1.7254    0.9956 H   0  0  0  0  0  0  0  0  0  0  0  0
  1  6  1  0  0  0  0
  2  1  2  0  0  0  0
  2  3  1  0  0  0  0
  3  4  2  0  0  0  0
  4  5  1  0  0  0  0
  4 12  1  0  0  0  0
  5 11  1  0  0  0  0
  6 10  1  0  0  0  0
  6  5  2  0  0  0  0
  7  1  1  0  0  0  0
  9  8  3  0  0  0  0
M  RAD  2   2   2   3   2
M  END
