Coordinates from ORCA-job C6H4-N2-B3LYPG-aug-cc-pVDZ-scan-d09-49-n400
 OpenBabel11091809083D

 12 11  0  0  0  0  0  0  0  0999 V2000
   -2.1426    0.0644   -1.1438 C   0  0  0  0  0  0  0  0  0  0  0  0
   -0.7658    0.0826   -0.9297 C   0  0  0  0  0  0  0  0  0  0  0  0
   -0.1956    0.7934   -0.0678 C   0  0  0  0  0  0  0  0  0  0  0  0
   -0.7275    1.6870    0.8397 C   0  0  0  0  0  0  0  0  0  0  0  0
   -2.1348    1.7287    0.6873 C   0  0  0  0  0  0  0  0  0  0  0  0
   -2.8152    0.9474   -0.2677 C   0  0  0  0  0  0  0  0  0  0  0  0
   -2.6735   -0.5374   -1.8803 H   0  0  0  0  0  0  0  0  0  0  0  0
    2.3416    1.0070    0.5252 N   0  0  0  0  0  0  0  0  0  0  0  0
    3.2397    0.5141    0.1118 N   0  0  0  0  0  0  0  0  0  0  0  0
   -3.9022    1.0259   -0.3346 H   0  0  0  0  0  0  0  0  0  0  0  0
   -2.7103    2.3925    1.3359 H   0  0  0  0  0  0  0  0  0  0  0  0
   -0.1930    2.2862    1.5738 H   0  0  0  0  0  0  0  0  0  0  0  0
  1  2  2  0  0  0  0
  1  6  1  0  0  0  0
  2  3  1  0  0  0  0
  3  4  2  0  0  0  0
  4 12  1  0  0  0  0
  5  4  1  0  0  0  0
  5 11  1  0  0  0  0
  6  5  2  0  0  0  0
  7  1  1  0  0  0  0
  9  8  3  0  0  0  0
 10  6  1  0  0  0  0
M  RAD  2   2   2   3   2
M  END
