Coordinates from ORCA-job C6H4-N2-B3LYPG-aug-cc-pVDZ-scan-d09-49-n400
 OpenBabel11091809083D

 12 11  0  0  0  0  0  0  0  0999 V2000
   -2.6485    0.0600   -1.2203 C   0  0  0  0  0  0  0  0  0  0  0  0
   -1.2702   -0.1132   -1.2176 C   0  0  0  0  0  0  0  0  0  0  0  0
   -0.4490    0.4642   -0.4672 C   0  0  0  0  0  0  0  0  0  0  0  0
   -0.7073    1.3983    0.5243 C   0  0  0  0  0  0  0  0  0  0  0  0
   -2.0995    1.6452    0.6007 C   0  0  0  0  0  0  0  0  0  0  0  0
   -3.0319    1.0025   -0.2372 C   0  0  0  0  0  0  0  0  0  0  0  0
   -3.3694   -0.4364   -1.8676 H   0  0  0  0  0  0  0  0  0  0  0  0
    3.2670    1.4810    1.1756 N   0  0  0  0  0  0  0  0  0  0  0  0
    4.1718    0.9928    0.7730 N   0  0  0  0  0  0  0  0  0  0  0  0
   -4.0921    1.2389   -0.1258 H   0  0  0  0  0  0  0  0  0  0  0  0
   -2.4614    2.3630    1.3398 H   0  0  0  0  0  0  0  0  0  0  0  0
    0.0116    1.8955    1.1722 H   0  0  0  0  0  0  0  0  0  0  0  0
  1  2  2  0  0  0  0
  1  6  1  0  0  0  0
  2  3  1  0  0  0  0
  3  4  2  0  0  0  0
  4  5  1  0  0  0  0
  4 12  1  0  0  0  0
  5 11  1  0  0  0  0
  6 10  1  0  0  0  0
  6  5  2  0  0  0  0
  7  1  1  0  0  0  0
  9  8  3  0  0  0  0
M  RAD  2   2   2   3   2
M  END
