Coordinates from ORCA-job C6H4-N2-B3LYPG-aug-cc-pVDZ-scan-d09-49-n400
 OpenBabel11091809083D

 12 11  0  0  0  0  0  0  0  0999 V2000
   -2.0650    0.0694   -1.1273 C   0  0  0  0  0  0  0  0  0  0  0  0
   -0.6876    0.1007   -0.8989 C   0  0  0  0  0  0  0  0  0  0  0  0
   -0.1621    0.8311   -0.0219 C   0  0  0  0  0  0  0  0  0  0  0  0
   -0.7197    1.7172    0.8739 C   0  0  0  0  0  0  0  0  0  0  0  0
   -2.1240    1.7365    0.6974 C   0  0  0  0  0  0  0  0  0  0  0  0
   -2.7717    0.9409   -0.2686 C   0  0  0  0  0  0  0  0  0  0  0  0
   -2.5742   -0.5423   -1.8717 H   0  0  0  0  0  0  0  0  0  0  0  0
    2.1605    0.9621    0.4499 N   0  0  0  0  0  0  0  0  0  0  0  0
    3.0485    0.4588    0.0246 N   0  0  0  0  0  0  0  0  0  0  0  0
   -3.8585    1.0002   -0.3564 H   0  0  0  0  0  0  0  0  0  0  0  0
   -2.7216    2.3921    1.3341 H   0  0  0  0  0  0  0  0  0  0  0  0
   -0.2038    2.3250    1.6148 H   0  0  0  0  0  0  0  0  0  0  0  0
  1  2  2  0  0  0  0
  1  6  1  0  0  0  0
  2  3  1  0  0  0  0
  3  4  2  0  0  0  0
  4 12  1  0  0  0  0
  5  4  1  0  0  0  0
  5 11  1  0  0  0  0
  6  5  2  0  0  0  0
  7  1  1  0  0  0  0
  9  8  3  0  0  0  0
 10  6  1  0  0  0  0
M  RAD  2   2   2   3   2
M  END
