Coordinates from ORCA-job C6H4-N2-B3LYPG-aug-cc-pVDZ-scan-d09-49-n400
 OpenBabel11091809083D

 12 11  0  0  0  0  0  0  0  0999 V2000
   -2.2094    0.0611   -1.1568 C   0  0  0  0  0  0  0  0  0  0  0  0
   -0.8328    0.0656   -0.9578 C   0  0  0  0  0  0  0  0  0  0  0  0
   -0.2202    0.7574   -0.1108 C   0  0  0  0  0  0  0  0  0  0  0  0
   -0.7337    1.6574    0.8063 C   0  0  0  0  0  0  0  0  0  0  0  0
   -2.1418    1.7213    0.6781 C   0  0  0  0  0  0  0  0  0  0  0  0
   -2.8514    0.9533   -0.2664 C   0  0  0  0  0  0  0  0  0  0  0  0
   -2.7599   -0.5314   -1.8859 H   0  0  0  0  0  0  0  0  0  0  0  0
    2.4956    1.0597    0.6050 N   0  0  0  0  0  0  0  0  0  0  0  0
    3.3857    0.5601    0.1828 N   0  0  0  0  0  0  0  0  0  0  0  0
   -3.9380    1.0487   -0.3147 H   0  0  0  0  0  0  0  0  0  0  0  0
   -2.6959    2.3923    1.3377 H   0  0  0  0  0  0  0  0  0  0  0  0
   -0.1774    2.2464    1.5324 H   0  0  0  0  0  0  0  0  0  0  0  0
  1  2  2  0  0  0  0
  1  6  1  0  0  0  0
  2  3  1  0  0  0  0
  3  4  2  0  0  0  0
  4 12  1  0  0  0  0
  5  4  1  0  0  0  0
  5 11  1  0  0  0  0
  6  5  2  0  0  0  0
  7  1  1  0  0  0  0
  9  8  3  0  0  0  0
 10  6  1  0  0  0  0
M  RAD  2   2   2   3   2
M  END
