Coordinates from ORCA-job C6H4-N2-B3LYPG-aug-cc-pVDZ-scan-d09-49-n400
 OpenBabel11091809083D

 12 12  0  0  0  0  0  0  0  0999 V2000
   -1.8943    0.1005   -1.0689 C   0  0  0  0  0  0  0  0  0  0  0  0
   -0.4741    0.0001   -0.9788 C   0  0  0  0  0  0  0  0  0  0  0  0
   -0.0249    0.8417    0.0099 C   0  0  0  0  0  0  0  0  0  0  0  0
   -0.6735    1.7277    0.8923 C   0  0  0  0  0  0  0  0  0  0  0  0
   -2.0498    1.7613    0.7350 C   0  0  0  0  0  0  0  0  0  0  0  0
   -2.6520    0.9419   -0.2508 C   0  0  0  0  0  0  0  0  0  0  0  0
   -2.4249   -0.5054   -1.8099 H   0  0  0  0  0  0  0  0  0  0  0  0
    1.4784    0.7800    0.1543 N   0  0  0  0  0  0  0  0  0  0  0  0
    2.5810    0.6234    0.1377 N   0  0  0  0  0  0  0  0  0  0  0  0
   -3.7384    0.9770   -0.3656 H   0  0  0  0  0  0  0  0  0  0  0  0
   -2.6588    2.4108    1.3630 H   0  0  0  0  0  0  0  0  0  0  0  0
   -0.1478    2.3328    1.6317 H   0  0  0  0  0  0  0  0  0  0  0  0
  1  2  2  0  0  0  0
  1  6  1  0  0  0  0
  2  3  1  0  0  0  0
  3  8  1  0  0  0  0
  3  4  2  0  0  0  0
  4 12  1  0  0  0  0
  5  4  1  0  0  0  0
  5 11  1  0  0  0  0
  6  5  2  0  0  0  0
  7  1  1  0  0  0  0
  9  8  1  0  0  0  0
 10  6  1  0  0  0  0
M  RAD  3   2   2   8   2   9   3
M  END
