Coordinates from ORCA-job C6H4-N2-B3LYPG-aug-cc-pVDZ-scan-d09-49-n400
 OpenBabel11091809083D

 12 11  0  0  0  0  0  0  0  0999 V2000
   -2.5456    0.0560   -1.2101 C   0  0  0  0  0  0  0  0  0  0  0  0
   -1.1633   -0.0702   -1.1550 C   0  0  0  0  0  0  0  0  0  0  0  0
   -0.3912    0.5382   -0.3773 C   0  0  0  0  0  0  0  0  0  0  0  0
   -0.7178    1.4669    0.5985 C   0  0  0  0  0  0  0  0  0  0  0  0
   -2.1195    1.6667    0.6215 C   0  0  0  0  0  0  0  0  0  0  0  0
   -2.9974    0.9891   -0.2472 C   0  0  0  0  0  0  0  0  0  0  0  0
   -3.2244   -0.4674   -1.8812 H   0  0  0  0  0  0  0  0  0  0  0  0
    3.1307    1.3913    1.0574 N   0  0  0  0  0  0  0  0  0  0  0  0
    3.9914    0.8659    0.6078 N   0  0  0  0  0  0  0  0  0  0  0  0
   -4.0685    1.1896   -0.1769 H   0  0  0  0  0  0  0  0  0  0  0  0
   -2.5330    2.3749    1.3426 H   0  0  0  0  0  0  0  0  0  0  0  0
   -0.0404    1.9907    1.2697 H   0  0  0  0  0  0  0  0  0  0  0  0
  1  2  2  0  0  0  0
  1  6  1  0  0  0  0
  2  3  1  0  0  0  0
  3  4  2  0  0  0  0
  4  5  1  0  0  0  0
  4 12  1  0  0  0  0
  5 11  1  0  0  0  0
  6 10  1  0  0  0  0
  6  5  2  0  0  0  0
  7  1  1  0  0  0  0
  9  8  3  0  0  0  0
M  RAD  2   2   2   3   2
M  END
