Coordinates from ORCA-job C6H4-N2-B3LYPG-aug-cc-pVDZ-scan-d09-49-n400
 OpenBabel11091809083D

 12 12  0  0  0  0  0  0  0  0999 V2000
   -1.8942    0.1008   -1.0686 C   0  0  0  0  0  0  0  0  0  0  0  0
   -0.4751    0.0110   -0.9669 C   0  0  0  0  0  0  0  0  0  0  0  0
   -0.0385    0.8467    0.0134 C   0  0  0  0  0  0  0  0  0  0  0  0
   -0.6785    1.7309    0.8952 C   0  0  0  0  0  0  0  0  0  0  0  0
   -2.0571    1.7614    0.7341 C   0  0  0  0  0  0  0  0  0  0  0  0
   -2.6560    0.9417   -0.2516 C   0  0  0  0  0  0  0  0  0  0  0  0
   -2.4193   -0.5075   -1.8114 H   0  0  0  0  0  0  0  0  0  0  0  0
    1.5043    0.7899    0.1687 N   0  0  0  0  0  0  0  0  0  0  0  0
    2.5988    0.5962    0.1103 N   0  0  0  0  0  0  0  0  0  0  0  0
   -3.7422    0.9742   -0.3692 H   0  0  0  0  0  0  0  0  0  0  0  0
   -2.6680    2.4102    1.3611 H   0  0  0  0  0  0  0  0  0  0  0  0
   -0.1533    2.3362    1.6347 H   0  0  0  0  0  0  0  0  0  0  0  0
  1  2  2  0  0  0  0
  1  6  1  0  0  0  0
  2  3  1  0  0  0  0
  3  8  1  0  0  0  0
  3  4  2  0  0  0  0
  4 12  1  0  0  0  0
  5  4  1  0  0  0  0
  5 11  1  0  0  0  0
  6  5  2  0  0  0  0
  7  1  1  0  0  0  0
  9  8  1  0  0  0  0
 10  6  1  0  0  0  0
M  RAD  3   2   2   8   2   9   3
M  END
