Coordinates from ORCA-job C6H4-N2-B3LYPG-aug-cc-pVDZ-scan-d09-49-n400
 OpenBabel11091809083D

 12 11  0  0  0  0  0  0  0  0999 V2000
   -2.1825    0.0624   -1.1516 C   0  0  0  0  0  0  0  0  0  0  0  0
   -0.8052    0.0712   -0.9477 C   0  0  0  0  0  0  0  0  0  0  0  0
   -0.2125    0.7720   -0.0936 C   0  0  0  0  0  0  0  0  0  0  0  0
   -0.7301    1.6695    0.8202 C   0  0  0  0  0  0  0  0  0  0  0  0
   -2.1385    1.7243    0.6819 C   0  0  0  0  0  0  0  0  0  0  0  0
   -2.8365    0.9510   -0.2667 C   0  0  0  0  0  0  0  0  0  0  0  0
   -2.7256   -0.5337   -1.8836 H   0  0  0  0  0  0  0  0  0  0  0  0
    2.4284    1.0330    0.5661 N   0  0  0  0  0  0  0  0  0  0  0  0
    3.3326    0.5459    0.1596 N   0  0  0  0  0  0  0  0  0  0  0  0
   -3.9234    1.0400   -0.3222 H   0  0  0  0  0  0  0  0  0  0  0  0
   -2.7012    2.3925    1.3372 H   0  0  0  0  0  0  0  0  0  0  0  0
   -0.1845    2.2635    1.5502 H   0  0  0  0  0  0  0  0  0  0  0  0
  1  2  2  0  0  0  0
  1  6  1  0  0  0  0
  2  3  1  0  0  0  0
  3  4  2  0  0  0  0
  4 12  1  0  0  0  0
  5  4  1  0  0  0  0
  5 11  1  0  0  0  0
  6  5  2  0  0  0  0
  7  1  1  0  0  0  0
  9  8  3  0  0  0  0
 10  6  1  0  0  0  0
M  RAD  2   2   2   3   2
M  END
