Coordinates from ORCA-job C6H4-N2-B3LYPG-aug-cc-pVDZ-scan-d09-49-n400
 OpenBabel11091809083D

 12 11  0  0  0  0  0  0  0  0999 V2000
   -2.7476    0.0660   -1.2278 C   0  0  0  0  0  0  0  0  0  0  0  0
   -1.3768   -0.1506   -1.2739 C   0  0  0  0  0  0  0  0  0  0  0  0
   -0.5064    0.3926   -0.5541 C   0  0  0  0  0  0  0  0  0  0  0  0
   -0.7007    1.3299    0.4500 C   0  0  0  0  0  0  0  0  0  0  0  0
   -2.0800    1.6222    0.5782 C   0  0  0  0  0  0  0  0  0  0  0  0
   -3.0635    1.0154   -0.2274 C   0  0  0  0  0  0  0  0  0  0  0  0
   -3.5068   -0.4034   -1.8508 H   0  0  0  0  0  0  0  0  0  0  0  0
    3.4028    1.5670    1.2898 N   0  0  0  0  0  0  0  0  0  0  0  0
    4.3463    1.1170    0.9339 N   0  0  0  0  0  0  0  0  0  0  0  0
   -4.1105    1.2861   -0.0764 H   0  0  0  0  0  0  0  0  0  0  0  0
   -2.3905    2.3477    1.3330 H   0  0  0  0  0  0  0  0  0  0  0  0
    0.0545    1.8019    1.0754 H   0  0  0  0  0  0  0  0  0  0  0  0
  1  6  1  0  0  0  0
  2  1  2  0  0  0  0
  2  3  1  0  0  0  0
  3  4  2  0  0  0  0
  4  5  1  0  0  0  0
  4 12  1  0  0  0  0
  5 11  1  0  0  0  0
  6 10  1  0  0  0  0
  6  5  2  0  0  0  0
  7  1  1  0  0  0  0
  9  8  3  0  0  0  0
M  RAD  2   2   2   3   2
M  END
