Coordinates from ORCA-job C6H4-N2-B3LYPG-aug-cc-pVDZ-scan-d09-49-n400
 OpenBabel11091809083D

 12 11  0  0  0  0  0  0  0  0999 V2000
   -2.0051    0.0754   -1.1122 C   0  0  0  0  0  0  0  0  0  0  0  0
   -0.6248    0.1093   -0.8805 C   0  0  0  0  0  0  0  0  0  0  0  0
   -0.1329    0.8554    0.0092 C   0  0  0  0  0  0  0  0  0  0  0  0
   -0.7137    1.7360    0.8955 C   0  0  0  0  0  0  0  0  0  0  0  0
   -2.1135    1.7426    0.7055 C   0  0  0  0  0  0  0  0  0  0  0  0
   -2.7375    0.9369   -0.2683 C   0  0  0  0  0  0  0  0  0  0  0  0
   -2.5000   -0.5428   -1.8617 H   0  0  0  0  0  0  0  0  0  0  0  0
    2.0050    0.9297    0.3924 N   0  0  0  0  0  0  0  0  0  0  0  0
    2.8963    0.4278   -0.0314 N   0  0  0  0  0  0  0  0  0  0  0  0
   -3.8237    0.9818   -0.3719 H   0  0  0  0  0  0  0  0  0  0  0  0
   -2.7249    2.3926    1.3341 H   0  0  0  0  0  0  0  0  0  0  0  0
   -0.2044    2.3470    1.6390 H   0  0  0  0  0  0  0  0  0  0  0  0
  1  2  2  0  0  0  0
  1  6  1  0  0  0  0
  2  3  1  0  0  0  0
  3  4  2  0  0  0  0
  4 12  1  0  0  0  0
  5  4  1  0  0  0  0
  5 11  1  0  0  0  0
  6  5  2  0  0  0  0
  7  1  1  0  0  0  0
  9  8  3  0  0  0  0
 10  6  1  0  0  0  0
M  RAD  2   2   2   3   2
M  END
