Coordinates from ORCA-job C6H4-N2-B3LYPG-aug-cc-pVDZ-scan-d09-49-n400
 OpenBabel11091809083D

 12 11  0  0  0  0  0  0  0  0999 V2000
   -2.6061    0.0581   -1.2165 C   0  0  0  0  0  0  0  0  0  0  0  0
   -1.2256   -0.0955   -1.1918 C   0  0  0  0  0  0  0  0  0  0  0  0
   -0.4249    0.4952   -0.4297 C   0  0  0  0  0  0  0  0  0  0  0  0
   -0.7119    1.4273    0.5555 C   0  0  0  0  0  0  0  0  0  0  0  0
   -2.1085    1.6544    0.6096 C   0  0  0  0  0  0  0  0  0  0  0  0
   -3.0183    0.9968   -0.2415 C   0  0  0  0  0  0  0  0  0  0  0  0
   -3.3095   -0.4499   -1.8739 H   0  0  0  0  0  0  0  0  0  0  0  0
    3.2121    1.4436    1.1261 N   0  0  0  0  0  0  0  0  0  0  0  0
    4.0993    0.9393    0.7045 N   0  0  0  0  0  0  0  0  0  0  0  0
   -4.0834    1.2182   -0.1472 H   0  0  0  0  0  0  0  0  0  0  0  0
   -2.4922    2.3684    1.3414 H   0  0  0  0  0  0  0  0  0  0  0  0
   -0.0102    1.9359    1.2134 H   0  0  0  0  0  0  0  0  0  0  0  0
  1  2  2  0  0  0  0
  1  6  1  0  0  0  0
  2  3  1  0  0  0  0
  3  4  2  0  0  0  0
  4  5  1  0  0  0  0
  4 12  1  0  0  0  0
  5 11  1  0  0  0  0
  6 10  1  0  0  0  0
  6  5  2  0  0  0  0
  7  1  1  0  0  0  0
  9  8  3  0  0  0  0
M  RAD  2   2   2   3   2
M  END
