Coordinates from ORCA-job C6H4-N2-B3LYPG-aug-cc-pVDZ-scan-d09-49-n400
 OpenBabel11091809083D

 12 11  0  0  0  0  0  0  0  0999 V2000
   -2.8600    0.0757   -1.2332 C   0  0  0  0  0  0  0  0  0  0  0  0
   -1.5018   -0.1924   -1.3378 C   0  0  0  0  0  0  0  0  0  0  0  0
   -0.5809    0.3121   -0.6535 C   0  0  0  0  0  0  0  0  0  0  0  0
   -0.6974    1.2499    0.3625 C   0  0  0  0  0  0  0  0  0  0  0  0
   -2.0578    1.5938    0.5502 C   0  0  0  0  0  0  0  0  0  0  0  0
   -3.0969    1.0301   -0.2159 C   0  0  0  0  0  0  0  0  0  0  0  0
   -3.6621   -0.3606   -1.8258 H   0  0  0  0  0  0  0  0  0  0  0  0
    3.5643    1.6667    1.4225 N   0  0  0  0  0  0  0  0  0  0  0  0
    4.5465    1.2617    1.1214 N   0  0  0  0  0  0  0  0  0  0  0  0
   -4.1254    1.3396   -0.0195 H   0  0  0  0  0  0  0  0  0  0  0  0
   -2.3081    2.3259    1.3208 H   0  0  0  0  0  0  0  0  0  0  0  0
    0.1006    1.6893    0.9580 H   0  0  0  0  0  0  0  0  0  0  0  0
  1  6  1  0  0  0  0
  2  1  2  0  0  0  0
  2  3  1  0  0  0  0
  3  4  2  0  0  0  0
  4  5  1  0  0  0  0
  4 12  1  0  0  0  0
  5 11  1  0  0  0  0
  6 10  1  0  0  0  0
  6  5  2  0  0  0  0
  7  1  1  0  0  0  0
  9  8  3  0  0  0  0
M  RAD  2   2   2   3   2
M  END
