Coordinates from ORCA-job C6H4-N2-B3LYPG-aug-cc-pVDZ-scan-d09-49-n400
 OpenBabel11091809083D

 12 11  0  0  0  0  0  0  0  0999 V2000
   -2.2123    0.0609   -1.1574 C   0  0  0  0  0  0  0  0  0  0  0  0
   -0.8357    0.0648   -0.9591 C   0  0  0  0  0  0  0  0  0  0  0  0
   -0.2213    0.7557   -0.1128 C   0  0  0  0  0  0  0  0  0  0  0  0
   -0.7338    1.6560    0.8048 C   0  0  0  0  0  0  0  0  0  0  0  0
   -2.1420    1.7209    0.6776 C   0  0  0  0  0  0  0  0  0  0  0  0
   -2.8529    0.9535   -0.2663 C   0  0  0  0  0  0  0  0  0  0  0  0
   -2.7637   -0.5311   -1.8862 H   0  0  0  0  0  0  0  0  0  0  0  0
    2.5028    1.0629    0.6095 N   0  0  0  0  0  0  0  0  0  0  0  0
    3.3909    0.5617    0.1852 N   0  0  0  0  0  0  0  0  0  0  0  0
   -3.9395    1.0497   -0.3138 H   0  0  0  0  0  0  0  0  0  0  0  0
   -2.6951    2.3922    1.3378 H   0  0  0  0  0  0  0  0  0  0  0  0
   -0.1767    2.2446    1.5305 H   0  0  0  0  0  0  0  0  0  0  0  0
  1  2  2  0  0  0  0
  1  6  1  0  0  0  0
  2  3  1  0  0  0  0
  3  4  2  0  0  0  0
  4 12  1  0  0  0  0
  5  4  1  0  0  0  0
  5 11  1  0  0  0  0
  6  5  2  0  0  0  0
  7  1  1  0  0  0  0
  9  8  3  0  0  0  0
 10  6  1  0  0  0  0
M  RAD  2   2   2   3   2
M  END
