Coordinates from ORCA-job C6H4-N2-B3LYPG-aug-cc-pVDZ-scan-d09-49-n400
 OpenBabel11091809083D

 12 11  0  0  0  0  0  0  0  0999 V2000
   -2.3032    0.0572   -1.1744 C   0  0  0  0  0  0  0  0  0  0  0  0
   -0.9242    0.0322   -1.0076 C   0  0  0  0  0  0  0  0  0  0  0  0
   -0.2625    0.7007   -0.1793 C   0  0  0  0  0  0  0  0  0  0  0  0
   -0.7347    1.6098    0.7539 C   0  0  0  0  0  0  0  0  0  0  0  0
   -2.1437    1.7084    0.6637 C   0  0  0  0  0  0  0  0  0  0  0  0
   -2.8977    0.9619   -0.2633 C   0  0  0  0  0  0  0  0  0  0  0  0
   -2.8862   -0.5194   -1.8905 H   0  0  0  0  0  0  0  0  0  0  0  0
    2.7096    1.1588    0.7436 N   0  0  0  0  0  0  0  0  0  0  0  0
    3.5565    0.6243    0.2781 N   0  0  0  0  0  0  0  0  0  0  0  0
   -3.9826    1.0841   -0.2819 H   0  0  0  0  0  0  0  0  0  0  0  0
   -2.6633    2.3901    1.3401 H   0  0  0  0  0  0  0  0  0  0  0  0
   -0.1472    2.1835    1.4675 H   0  0  0  0  0  0  0  0  0  0  0  0
  1  2  2  0  0  0  0
  1  6  1  0  0  0  0
  2  3  1  0  0  0  0
  3  4  2  0  0  0  0
  4 12  1  0  0  0  0
  5  4  1  0  0  0  0
  5 11  1  0  0  0  0
  6  5  2  0  0  0  0
  7  1  1  0  0  0  0
  9  8  3  0  0  0  0
 10  6  1  0  0  0  0
M  RAD  2   2   2   3   2
M  END
