Coordinates from ORCA-job C6H4-N2-B3LYPG-aug-cc-pVDZ-scan-d09-49-n400
 OpenBabel11091809083D

 12 11  0  0  0  0  0  0  0  0999 V2000
   -2.1920    0.0621   -1.1533 C   0  0  0  0  0  0  0  0  0  0  0  0
   -0.8147    0.0689   -0.9516 C   0  0  0  0  0  0  0  0  0  0  0  0
   -0.2155    0.7668   -0.0997 C   0  0  0  0  0  0  0  0  0  0  0  0
   -0.7318    1.6653    0.8153 C   0  0  0  0  0  0  0  0  0  0  0  0
   -2.1400    1.7234    0.6807 C   0  0  0  0  0  0  0  0  0  0  0  0
   -2.8419    0.9520   -0.2665 C   0  0  0  0  0  0  0  0  0  0  0  0
   -2.7379   -0.5326   -1.8842 H   0  0  0  0  0  0  0  0  0  0  0  0
    2.4508    1.0407    0.5778 N   0  0  0  0  0  0  0  0  0  0  0  0
    3.3540    0.5523    0.1697 N   0  0  0  0  0  0  0  0  0  0  0  0
   -3.9287    1.0431   -0.3196 H   0  0  0  0  0  0  0  0  0  0  0  0
   -2.6996    2.3926    1.3376 H   0  0  0  0  0  0  0  0  0  0  0  0
   -0.1818    2.2572    1.5436 H   0  0  0  0  0  0  0  0  0  0  0  0
  1  2  2  0  0  0  0
  1  6  1  0  0  0  0
  2  3  1  0  0  0  0
  3  4  2  0  0  0  0
  4 12  1  0  0  0  0
  5  4  1  0  0  0  0
  5 11  1  0  0  0  0
  6  5  2  0  0  0  0
  7  1  1  0  0  0  0
  9  8  3  0  0  0  0
 10  6  1  0  0  0  0
M  RAD  2   2   2   3   2
M  END
