Coordinates from ORCA-job C6H4-N2-B3LYPG-aug-cc-pVDZ-scan-d09-49-n400
 OpenBabel11091809083D

 12 11  0  0  0  0  0  0  0  0999 V2000
   -2.2240    0.0603   -1.1597 C   0  0  0  0  0  0  0  0  0  0  0  0
   -0.8473    0.0612   -0.9647 C   0  0  0  0  0  0  0  0  0  0  0  0
   -0.2258    0.7489   -0.1209 C   0  0  0  0  0  0  0  0  0  0  0  0
   -0.7341    1.6503    0.7985 C   0  0  0  0  0  0  0  0  0  0  0  0
   -2.1425    1.7193    0.6758 C   0  0  0  0  0  0  0  0  0  0  0  0
   -2.8588    0.9545   -0.2661 C   0  0  0  0  0  0  0  0  0  0  0  0
   -2.7791   -0.5299   -1.8870 H   0  0  0  0  0  0  0  0  0  0  0  0
    2.5308    1.0756    0.6273 N   0  0  0  0  0  0  0  0  0  0  0  0
    3.4120    0.5685    0.1958 N   0  0  0  0  0  0  0  0  0  0  0  0
   -3.9453    1.0539   -0.3100 H   0  0  0  0  0  0  0  0  0  0  0  0
   -2.6915    2.3920    1.3380 H   0  0  0  0  0  0  0  0  0  0  0  0
   -0.1735    2.2372    1.5229 H   0  0  0  0  0  0  0  0  0  0  0  0
  1  2  2  0  0  0  0
  1  6  1  0  0  0  0
  2  3  1  0  0  0  0
  3  4  2  0  0  0  0
  4 12  1  0  0  0  0
  5  4  1  0  0  0  0
  5 11  1  0  0  0  0
  6  5  2  0  0  0  0
  7  1  1  0  0  0  0
  9  8  3  0  0  0  0
 10  6  1  0  0  0  0
M  RAD  2   2   2   3   2
M  END
