Coordinates from ORCA-job C6H4-N2-B3LYPG-aug-cc-pVDZ-scan-d09-49-n400
 OpenBabel11091809083D

 12 11  0  0  0  0  0  0  0  0999 V2000
   -2.2534    0.0590   -1.1654 C   0  0  0  0  0  0  0  0  0  0  0  0
   -0.8760    0.0510   -0.9800 C   0  0  0  0  0  0  0  0  0  0  0  0
   -0.2386    0.7313   -0.1422 C   0  0  0  0  0  0  0  0  0  0  0  0
   -0.7345    1.6356    0.7822 C   0  0  0  0  0  0  0  0  0  0  0  0
   -2.1433    1.7153    0.6713 C   0  0  0  0  0  0  0  0  0  0  0  0
   -2.8735    0.9572   -0.2652 C   0  0  0  0  0  0  0  0  0  0  0  0
   -2.8185   -0.5264   -1.8887 H   0  0  0  0  0  0  0  0  0  0  0  0
    2.5986    1.1067    0.6709 N   0  0  0  0  0  0  0  0  0  0  0  0
    3.4656    0.5880    0.2249 N   0  0  0  0  0  0  0  0  0  0  0  0
   -3.9595    1.0649   -0.2998 H   0  0  0  0  0  0  0  0  0  0  0  0
   -2.6817    2.3914    1.3388 H   0  0  0  0  0  0  0  0  0  0  0  0
   -0.1643    2.2179    1.5029 H   0  0  0  0  0  0  0  0  0  0  0  0
  1  2  2  0  0  0  0
  1  6  1  0  0  0  0
  2  3  1  0  0  0  0
  3  4  2  0  0  0  0
  4 12  1  0  0  0  0
  5  4  1  0  0  0  0
  5 11  1  0  0  0  0
  6  5  2  0  0  0  0
  7  1  1  0  0  0  0
  9  8  3  0  0  0  0
 10  6  1  0  0  0  0
M  RAD  2   2   2   3   2
M  END
