Coordinates from ORCA-job C6H4-N2-B3LYPG-aug-cc-pVDZ-scan-d09-49-n400
 OpenBabel11091809083D

 12 11  0  0  0  0  0  0  0  0999 V2000
   -2.4962    0.0550   -1.2042 C   0  0  0  0  0  0  0  0  0  0  0  0
   -1.1133   -0.0496   -1.1248 C   0  0  0  0  0  0  0  0  0  0  0  0
   -0.3638    0.5720   -0.3358 C   0  0  0  0  0  0  0  0  0  0  0  0
   -0.7216    1.4977    0.6320 C   0  0  0  0  0  0  0  0  0  0  0  0
   -2.1264    1.6760    0.6306 C   0  0  0  0  0  0  0  0  0  0  0  0
   -2.9787    0.9831   -0.2513 C   0  0  0  0  0  0  0  0  0  0  0  0
   -3.1552   -0.4802   -1.8856 H   0  0  0  0  0  0  0  0  0  0  0  0
    3.0594    1.3502    1.0028 N   0  0  0  0  0  0  0  0  0  0  0  0
    3.8970    0.8081    0.5298 N   0  0  0  0  0  0  0  0  0  0  0  0
   -4.0538    1.1672   -0.1999 H   0  0  0  0  0  0  0  0  0  0  0  0
   -2.5629    2.3793    1.3428 H   0  0  0  0  0  0  0  0  0  0  0  0
   -0.0637    2.0330    1.3133 H   0  0  0  0  0  0  0  0  0  0  0  0
  1  2  2  0  0  0  0
  1  6  1  0  0  0  0
  2  3  1  0  0  0  0
  3  4  2  0  0  0  0
  4 12  1  0  0  0  0
  5  4  1  0  0  0  0
  5 11  1  0  0  0  0
  6 10  1  0  0  0  0
  6  5  2  0  0  0  0
  7  1  1  0  0  0  0
  9  8  3  0  0  0  0
M  RAD  2   2   2   3   2
M  END
