Coordinates from ORCA-job C6H4-N2-B3LYPG-aug-cc-pVDZ-scan-d09-49-n400
 OpenBabel11091809083D

 12 11  0  0  0  0  0  0  0  0999 V2000
   -2.2007    0.0616   -1.1550 C   0  0  0  0  0  0  0  0  0  0  0  0
   -0.8239    0.0677   -0.9542 C   0  0  0  0  0  0  0  0  0  0  0  0
   -0.2174    0.7623   -0.1050 C   0  0  0  0  0  0  0  0  0  0  0  0
   -0.7331    1.6614    0.8109 C   0  0  0  0  0  0  0  0  0  0  0  0
   -2.1412    1.7224    0.6794 C   0  0  0  0  0  0  0  0  0  0  0  0
   -2.8468    0.9526   -0.2665 C   0  0  0  0  0  0  0  0  0  0  0  0
   -2.7486   -0.5321   -1.8851 H   0  0  0  0  0  0  0  0  0  0  0  0
    2.4738    1.0502    0.5914 N   0  0  0  0  0  0  0  0  0  0  0  0
    3.3700    0.5558    0.1757 N   0  0  0  0  0  0  0  0  0  0  0  0
   -3.9336    1.0457   -0.3174 H   0  0  0  0  0  0  0  0  0  0  0  0
   -2.6981    2.3925    1.3376 H   0  0  0  0  0  0  0  0  0  0  0  0
   -0.1794    2.2517    1.5379 H   0  0  0  0  0  0  0  0  0  0  0  0
  1  2  2  0  0  0  0
  1  6  1  0  0  0  0
  2  3  1  0  0  0  0
  3  4  2  0  0  0  0
  4 12  1  0  0  0  0
  5  4  1  0  0  0  0
  5 11  1  0  0  0  0
  6  5  2  0  0  0  0
  7  1  1  0  0  0  0
  9  8  3  0  0  0  0
 10  6  1  0  0  0  0
M  RAD  2   2   2   3   2
M  END
