Coordinates from ORCA-job C6H4-N2-B3LYPG-aug-cc-pVDZ-scan-d09-49-n400
 OpenBabel11091809083D

 12 11  0  0  0  0  0  0  0  0999 V2000
   -2.5954    0.0576   -1.2154 C   0  0  0  0  0  0  0  0  0  0  0  0
   -1.2145   -0.0910   -1.1853 C   0  0  0  0  0  0  0  0  0  0  0  0
   -0.4189    0.5029   -0.4204 C   0  0  0  0  0  0  0  0  0  0  0  0
   -0.7130    1.4344    0.5632 C   0  0  0  0  0  0  0  0  0  0  0  0
   -2.1106    1.6567    0.6118 C   0  0  0  0  0  0  0  0  0  0  0  0
   -3.0148    0.9954   -0.2425 C   0  0  0  0  0  0  0  0  0  0  0  0
   -3.2944   -0.4531   -1.8754 H   0  0  0  0  0  0  0  0  0  0  0  0
    3.1981    1.4343    1.1139 N   0  0  0  0  0  0  0  0  0  0  0  0
    4.0807    0.9261    0.6873 N   0  0  0  0  0  0  0  0  0  0  0  0
   -4.0810    1.2130   -0.1526 H   0  0  0  0  0  0  0  0  0  0  0  0
   -2.4997    2.3697    1.3417 H   0  0  0  0  0  0  0  0  0  0  0  0
   -0.0156    1.9458    1.2235 H   0  0  0  0  0  0  0  0  0  0  0  0
  1  2  2  0  0  0  0
  1  6  1  0  0  0  0
  2  3  1  0  0  0  0
  3  4  2  0  0  0  0
  4  5  1  0  0  0  0
  4 12  1  0  0  0  0
  5 11  1  0  0  0  0
  6 10  1  0  0  0  0
  6  5  2  0  0  0  0
  7  1  1  0  0  0  0
  9  8  3  0  0  0  0
M  RAD  2   2   2   3   2
M  END
