Coordinates from ORCA-job C6H4-N2-B3LYPG-aug-cc-pVDZ-scan-d09-49-n400
 OpenBabel11091809083D

 12 12  0  0  0  0  0  0  0  0999 V2000
   -1.8859    0.0995   -1.0690 C   0  0  0  0  0  0  0  0  0  0  0  0
   -0.4677   -0.0425   -1.0239 C   0  0  0  0  0  0  0  0  0  0  0  0
    0.0799    0.8217    0.0056 C   0  0  0  0  0  0  0  0  0  0  0  0
   -0.6449    1.7107    0.8786 C   0  0  0  0  0  0  0  0  0  0  0  0
   -2.0087    1.7568    0.7358 C   0  0  0  0  0  0  0  0  0  0  0  0
   -2.6284    0.9413   -0.2483 C   0  0  0  0  0  0  0  0  0  0  0  0
   -2.4305   -0.5001   -1.8052 H   0  0  0  0  0  0  0  0  0  0  0  0
    1.3140    0.7755    0.1261 N   0  0  0  0  0  0  0  0  0  0  0  0
    2.4355    0.7147    0.2149 N   0  0  0  0  0  0  0  0  0  0  0  0
   -3.7157    0.9865   -0.3529 H   0  0  0  0  0  0  0  0  0  0  0  0
   -2.6070    2.4107    1.3694 H   0  0  0  0  0  0  0  0  0  0  0  0
   -0.1196    2.3170    1.6187 H   0  0  0  0  0  0  0  0  0  0  0  0
  1  2  2  0  0  0  0
  1  6  1  0  0  0  0
  2  3  1  0  0  0  0
  3  8  1  0  0  0  0
  3  4  2  0  0  0  0
  4 12  1  0  0  0  0
  5  4  1  0  0  0  0
  5 11  1  0  0  0  0
  6  5  2  0  0  0  0
  7  1  1  0  0  0  0
  8  9  1  0  0  0  0
 10  6  1  0  0  0  0
M  RAD  3   2   2   8   2   9   3
M  END
