Coordinates from ORCA-job C6H4-N2-B3LYPG-aug-cc-pVDZ-scan-d09-49-n400
 OpenBabel11091809083D

 12 12  0  0  0  0  0  0  0  0999 V2000
   -1.8899    0.0990   -1.0700 C   0  0  0  0  0  0  0  0  0  0  0  0
   -0.4699   -0.0328   -1.0142 C   0  0  0  0  0  0  0  0  0  0  0  0
    0.0477    0.8261    0.0034 C   0  0  0  0  0  0  0  0  0  0  0  0
   -0.6518    1.7154    0.8820 C   0  0  0  0  0  0  0  0  0  0  0  0
   -2.0188    1.7584    0.7362 C   0  0  0  0  0  0  0  0  0  0  0  0
   -2.6342    0.9414   -0.2490 C   0  0  0  0  0  0  0  0  0  0  0  0
   -2.4334   -0.5012   -1.8064 H   0  0  0  0  0  0  0  0  0  0  0  0
    1.3618    0.7700    0.1267 N   0  0  0  0  0  0  0  0  0  0  0  0
    2.4781    0.6987    0.2056 N   0  0  0  0  0  0  0  0  0  0  0  0
   -3.7215    0.9847   -0.3549 H   0  0  0  0  0  0  0  0  0  0  0  0
   -2.6206    2.4107    1.3682 H   0  0  0  0  0  0  0  0  0  0  0  0
   -0.1268    2.3213    1.6222 H   0  0  0  0  0  0  0  0  0  0  0  0
  1  2  2  0  0  0  0
  1  6  1  0  0  0  0
  2  3  1  0  0  0  0
  3  8  1  0  0  0  0
  3  4  2  0  0  0  0
  4 12  1  0  0  0  0
  5  4  1  0  0  0  0
  5 11  1  0  0  0  0
  6  5  2  0  0  0  0
  7  1  1  0  0  0  0
  8  9  1  0  0  0  0
 10  6  1  0  0  0  0
M  RAD  3   2   2   8   2   9   3
M  END
