Coordinates from ORCA-job C6H4-N2-B3LYPG-aug-cc-pVDZ-scan-d09-49-n400
 OpenBabel11091809083D

 12 11  0  0  0  0  0  0  0  0999 V2000
   -2.6909    0.0625   -1.2236 C   0  0  0  0  0  0  0  0  0  0  0  0
   -1.3154   -0.1305   -1.2430 C   0  0  0  0  0  0  0  0  0  0  0  0
   -0.4733    0.4328   -0.5051 C   0  0  0  0  0  0  0  0  0  0  0  0
   -0.7026    1.3684    0.4922 C   0  0  0  0  0  0  0  0  0  0  0  0
   -2.0896    1.6354    0.5914 C   0  0  0  0  0  0  0  0  0  0  0  0
   -3.0447    1.0083   -0.2327 C   0  0  0  0  0  0  0  0  0  0  0  0
   -3.4290   -0.4220   -1.8603 H   0  0  0  0  0  0  0  0  0  0  0  0
    3.3201    1.5188    1.2252 N   0  0  0  0  0  0  0  0  0  0  0  0
    4.2419    1.0470    0.8420 N   0  0  0  0  0  0  0  0  0  0  0  0
   -4.0994    1.2599   -0.1038 H   0  0  0  0  0  0  0  0  0  0  0  0
   -2.4290    2.3569    1.3375 H   0  0  0  0  0  0  0  0  0  0  0  0
    0.0329    1.8543    1.1300 H   0  0  0  0  0  0  0  0  0  0  0  0
  1  6  1  0  0  0  0
  2  1  2  0  0  0  0
  2  3  1  0  0  0  0
  3  4  2  0  0  0  0
  4  5  1  0  0  0  0
  4 12  1  0  0  0  0
  5 11  1  0  0  0  0
  6 10  1  0  0  0  0
  6  5  2  0  0  0  0
  7  1  1  0  0  0  0
  9  8  3  0  0  0  0
M  RAD  2   2   2   3   2
M  END
