Coordinates from ORCA-job C6H4-N2-B3LYPG-aug-cc-pVDZ-scan-d09-49-n400
 OpenBabel11091809083D

 12 11  0  0  0  0  0  0  0  0999 V2000
   -2.7541    0.0665   -1.2282 C   0  0  0  0  0  0  0  0  0  0  0  0
   -1.3839   -0.1530   -1.2776 C   0  0  0  0  0  0  0  0  0  0  0  0
   -0.5105    0.3880   -0.5598 C   0  0  0  0  0  0  0  0  0  0  0  0
   -0.7005    1.3254    0.4451 C   0  0  0  0  0  0  0  0  0  0  0  0
   -2.0789    1.6206    0.5767 C   0  0  0  0  0  0  0  0  0  0  0  0
   -3.0656    1.0162   -0.2268 C   0  0  0  0  0  0  0  0  0  0  0  0
   -3.5157   -0.4011   -1.8496 H   0  0  0  0  0  0  0  0  0  0  0  0
    3.4124    1.5726    1.2973 N   0  0  0  0  0  0  0  0  0  0  0  0
    4.3583    1.1252    0.9446 N   0  0  0  0  0  0  0  0  0  0  0  0
   -4.1116    1.2892   -0.0732 H   0  0  0  0  0  0  0  0  0  0  0  0
   -2.3860    2.3466    1.3324 H   0  0  0  0  0  0  0  0  0  0  0  0
    0.0571    1.7957    1.0689 H   0  0  0  0  0  0  0  0  0  0  0  0
  1  6  1  0  0  0  0
  2  1  2  0  0  0  0
  2  3  1  0  0  0  0
  3  4  2  0  0  0  0
  4  5  1  0  0  0  0
  4 12  1  0  0  0  0
  5 11  1  0  0  0  0
  6 10  1  0  0  0  0
  6  5  2  0  0  0  0
  7  1  1  0  0  0  0
  9  8  3  0  0  0  0
M  RAD  2   2   2   3   2
M  END
