Coordinates from ORCA-job C6H4-N2-B3LYPG-aug-cc-pVDZ-scan-d09-49-n400
 OpenBabel11091809083D

 12 11  0  0  0  0  0  0  0  0999 V2000
   -2.8695    0.0767   -1.2334 C   0  0  0  0  0  0  0  0  0  0  0  0
   -1.5126   -0.1959   -1.3432 C   0  0  0  0  0  0  0  0  0  0  0  0
   -0.5875    0.3051   -0.6620 C   0  0  0  0  0  0  0  0  0  0  0  0
   -0.6971    1.2429    0.3548 C   0  0  0  0  0  0  0  0  0  0  0  0
   -2.0557    1.5912    0.5477 C   0  0  0  0  0  0  0  0  0  0  0  0
   -3.0995    1.0314   -0.2149 C   0  0  0  0  0  0  0  0  0  0  0  0
   -3.6752   -0.3566   -1.8233 H   0  0  0  0  0  0  0  0  0  0  0  0
    3.5776    1.6754    1.4340 N   0  0  0  0  0  0  0  0  0  0  0  0
    4.5628    1.2743    1.1375 N   0  0  0  0  0  0  0  0  0  0  0  0
   -4.1262    1.3443   -0.0145 H   0  0  0  0  0  0  0  0  0  0  0  0
   -2.3007    2.3238    1.3196 H   0  0  0  0  0  0  0  0  0  0  0  0
    0.1045    1.6793    0.9476 H   0  0  0  0  0  0  0  0  0  0  0  0
  1  6  1  0  0  0  0
  2  1  2  0  0  0  0
  2  3  1  0  0  0  0
  3  4  2  0  0  0  0
  4  5  1  0  0  0  0
  4 12  1  0  0  0  0
  5 11  1  0  0  0  0
  6 10  1  0  0  0  0
  6  5  2  0  0  0  0
  7  1  1  0  0  0  0
  9  8  3  0  0  0  0
M  RAD  2   2   2   3   2
M  END
