Coordinates from ORCA-job C6H4-N2-B3LYPG-aug-cc-pVDZ-scan-d09-49-n400
 OpenBabel11091809083D

 12 11  0  0  0  0  0  0  0  0999 V2000
   -2.4892    0.0549   -1.2033 C   0  0  0  0  0  0  0  0  0  0  0  0
   -1.1063   -0.0467   -1.1206 C   0  0  0  0  0  0  0  0  0  0  0  0
   -0.3599    0.5767   -0.3300 C   0  0  0  0  0  0  0  0  0  0  0  0
   -0.7220    1.5019    0.6366 C   0  0  0  0  0  0  0  0  0  0  0  0
   -2.1271    1.6772    0.6319 C   0  0  0  0  0  0  0  0  0  0  0  0
   -2.9760    0.9822   -0.2518 C   0  0  0  0  0  0  0  0  0  0  0  0
   -3.1454   -0.4820   -1.8861 H   0  0  0  0  0  0  0  0  0  0  0  0
    3.0489    1.3446    0.9952 N   0  0  0  0  0  0  0  0  0  0  0  0
    3.8831    0.8002    0.5189 N   0  0  0  0  0  0  0  0  0  0  0  0
   -4.0515    1.1641   -0.2030 H   0  0  0  0  0  0  0  0  0  0  0  0
   -2.5668    2.3798    1.3428 H   0  0  0  0  0  0  0  0  0  0  0  0
   -0.0668    2.0388    1.3193 H   0  0  0  0  0  0  0  0  0  0  0  0
  1  2  2  0  0  0  0
  1  6  1  0  0  0  0
  2  3  1  0  0  0  0
  3  4  2  0  0  0  0
  4 12  1  0  0  0  0
  5  4  1  0  0  0  0
  5 11  1  0  0  0  0
  6 10  1  0  0  0  0
  6  5  2  0  0  0  0
  7  1  1  0  0  0  0
  9  8  3  0  0  0  0
M  RAD  2   2   2   3   2
M  END
