Coordinates from ORCA-job C6H4-N2-B3LYPG-aug-cc-pVDZ-scan-d09-49-n400
 OpenBabel11091809083D

 12 11  0  0  0  0  0  0  0  0999 V2000
   -2.6590    0.0606   -1.2212 C   0  0  0  0  0  0  0  0  0  0  0  0
   -1.2813   -0.1175   -1.2239 C   0  0  0  0  0  0  0  0  0  0  0  0
   -0.4551    0.4565   -0.4765 C   0  0  0  0  0  0  0  0  0  0  0  0
   -0.7063    1.3910    0.5165 C   0  0  0  0  0  0  0  0  0  0  0  0
   -2.0973    1.6429    0.5985 C   0  0  0  0  0  0  0  0  0  0  0  0
   -3.0352    1.0039   -0.2361 C   0  0  0  0  0  0  0  0  0  0  0  0
   -3.3841   -0.4329   -1.8659 H   0  0  0  0  0  0  0  0  0  0  0  0
    3.2805    1.4903    1.1879 N   0  0  0  0  0  0  0  0  0  0  0  0
    4.1895    1.0061    0.7899 N   0  0  0  0  0  0  0  0  0  0  0  0
   -4.0941    1.2440   -0.1205 H   0  0  0  0  0  0  0  0  0  0  0  0
   -2.4537    2.3616    1.3393 H   0  0  0  0  0  0  0  0  0  0  0  0
    0.0170    1.8853    1.1618 H   0  0  0  0  0  0  0  0  0  0  0  0
  1  6  1  0  0  0  0
  2  1  2  0  0  0  0
  2  3  1  0  0  0  0
  3  4  2  0  0  0  0
  4  5  1  0  0  0  0
  4 12  1  0  0  0  0
  5 11  1  0  0  0  0
  6 10  1  0  0  0  0
  6  5  2  0  0  0  0
  7  1  1  0  0  0  0
  9  8  3  0  0  0  0
M  RAD  2   2   2   3   2
M  END
