Coordinates from ORCA-job C6H4-N2-B3LYPG-aug-cc-pVDZ-scan-d09-49-n400
 OpenBabel11091809083D

 12 11  0  0  0  0  0  0  0  0999 V2000
   -2.0205    0.0739   -1.1162 C   0  0  0  0  0  0  0  0  0  0  0  0
   -0.6420    0.1101   -0.8821 C   0  0  0  0  0  0  0  0  0  0  0  0
   -0.1403    0.8513    0.0035 C   0  0  0  0  0  0  0  0  0  0  0  0
   -0.7179    1.7330    0.8915 C   0  0  0  0  0  0  0  0  0  0  0  0
   -2.1185    1.7414    0.7035 C   0  0  0  0  0  0  0  0  0  0  0  0
   -2.7474    0.9376   -0.2688 C   0  0  0  0  0  0  0  0  0  0  0  0
   -2.5175   -0.5434   -1.8649 H   0  0  0  0  0  0  0  0  0  0  0  0
    2.0546    0.9369    0.4071 N   0  0  0  0  0  0  0  0  0  0  0  0
    2.9394    0.4297   -0.0228 N   0  0  0  0  0  0  0  0  0  0  0  0
   -3.8337    0.9854   -0.3692 H   0  0  0  0  0  0  0  0  0  0  0  0
   -2.7276    2.3924    1.3335 H   0  0  0  0  0  0  0  0  0  0  0  0
   -0.2077    2.3435    1.6346 H   0  0  0  0  0  0  0  0  0  0  0  0
  1  2  2  0  0  0  0
  1  6  1  0  0  0  0
  2  3  1  0  0  0  0
  3  4  2  0  0  0  0
  4 12  1  0  0  0  0
  5  4  1  0  0  0  0
  5 11  1  0  0  0  0
  6  5  2  0  0  0  0
  7  1  1  0  0  0  0
  9  8  3  0  0  0  0
 10  6  1  0  0  0  0
M  RAD  2   2   2   3   2
M  END
