Coordinates from ORCA-job C6H4-N2-B3LYPG-aug-cc-pVDZ-scan-d09-49-n400
 OpenBabel11091809083D

 12 11  0  0  0  0  0  0  0  0999 V2000
   -1.9588    0.0822   -1.0982 C   0  0  0  0  0  0  0  0  0  0  0  0
   -0.5706    0.1012   -0.8818 C   0  0  0  0  0  0  0  0  0  0  0  0
   -0.1085    0.8649    0.0230 C   0  0  0  0  0  0  0  0  0  0  0  0
   -0.7021    1.7422    0.9040 C   0  0  0  0  0  0  0  0  0  0  0  0
   -2.0981    1.7470    0.7126 C   0  0  0  0  0  0  0  0  0  0  0  0
   -2.7082    0.9356   -0.2655 C   0  0  0  0  0  0  0  0  0  0  0  0
   -2.4503   -0.5382   -1.8496 H   0  0  0  0  0  0  0  0  0  0  0  0
    1.8476    0.9059    0.3441 N   0  0  0  0  0  0  0  0  0  0  0  0
    2.7712    0.4307   -0.0459 N   0  0  0  0  0  0  0  0  0  0  0  0
   -3.7939    0.9720   -0.3785 H   0  0  0  0  0  0  0  0  0  0  0  0
   -2.7148    2.3947    1.3378 H   0  0  0  0  0  0  0  0  0  0  0  0
   -0.1924    2.3535    1.6479 H   0  0  0  0  0  0  0  0  0  0  0  0
  1  2  2  0  0  0  0
  1  6  1  0  0  0  0
  2  3  1  0  0  0  0
  3  4  2  0  0  0  0
  4 12  1  0  0  0  0
  5  4  1  0  0  0  0
  5 11  1  0  0  0  0
  6  5  2  0  0  0  0
  7  1  1  0  0  0  0
  9  8  3  0  0  0  0
 10  6  1  0  0  0  0
M  RAD  2   2   2   3   2
M  END
