Coordinates from ORCA-job C6H4-N2-B3LYPG-aug-cc-pVDZ-scan-d09-49-n400
 OpenBabel11091809083D

 12 11  0  0  0  0  0  0  0  0999 V2000
   -2.4008    0.0550   -1.1907 C   0  0  0  0  0  0  0  0  0  0  0  0
   -1.0191   -0.0077   -1.0651 C   0  0  0  0  0  0  0  0  0  0  0  0
   -0.3113    0.6371   -0.2564 C   0  0  0  0  0  0  0  0  0  0  0  0
   -0.7309    1.5552    0.6941 C   0  0  0  0  0  0  0  0  0  0  0  0
   -2.1388    1.6931    0.6476 C   0  0  0  0  0  0  0  0  0  0  0  0
   -2.9413    0.9720   -0.2583 C   0  0  0  0  0  0  0  0  0  0  0  0
   -3.0210   -0.5021   -1.8906 H   0  0  0  0  0  0  0  0  0  0  0  0
    2.9108    1.2647    0.8883 N   0  0  0  0  0  0  0  0  0  0  0  0
    3.7213    0.7043    0.3899 N   0  0  0  0  0  0  0  0  0  0  0  0
   -4.0224    1.1242   -0.2432 H   0  0  0  0  0  0  0  0  0  0  0  0
   -2.6182    2.3860    1.3421 H   0  0  0  0  0  0  0  0  0  0  0  0
   -0.1073    2.1100    1.3920 H   0  0  0  0  0  0  0  0  0  0  0  0
  1  2  2  0  0  0  0
  1  6  1  0  0  0  0
  2  3  1  0  0  0  0
  3  4  2  0  0  0  0
  4 12  1  0  0  0  0
  5  4  1  0  0  0  0
  5 11  1  0  0  0  0
  6 10  1  0  0  0  0
  6  5  2  0  0  0  0
  7  1  1  0  0  0  0
  9  8  3  0  0  0  0
M  RAD  2   2   2   3   2
M  END
