Coordinates from ORCA-job C6H4-N2-B3LYPG-aug-cc-pVDZ-scan-d09-49-n400
 OpenBabel11091809083D

 12 11  0  0  0  0  0  0  0  0999 V2000
   -2.1361    0.0648   -1.1424 C   0  0  0  0  0  0  0  0  0  0  0  0
   -0.7592    0.0843   -0.9269 C   0  0  0  0  0  0  0  0  0  0  0  0
   -0.1928    0.7968   -0.0638 C   0  0  0  0  0  0  0  0  0  0  0  0
   -0.7269    1.6897    0.8428 C   0  0  0  0  0  0  0  0  0  0  0  0
   -2.1341    1.7294    0.6881 C   0  0  0  0  0  0  0  0  0  0  0  0
   -2.8116    0.9468   -0.2678 C   0  0  0  0  0  0  0  0  0  0  0  0
   -2.6650   -0.5379   -1.8797 H   0  0  0  0  0  0  0  0  0  0  0  0
    2.3268    1.0030    0.5186 N   0  0  0  0  0  0  0  0  0  0  0  0
    3.2240    0.5092    0.1042 N   0  0  0  0  0  0  0  0  0  0  0  0
   -3.8986    1.0236   -0.3366 H   0  0  0  0  0  0  0  0  0  0  0  0
   -2.7115    2.3924    1.3358 H   0  0  0  0  0  0  0  0  0  0  0  0
   -0.1941    2.2897    1.5775 H   0  0  0  0  0  0  0  0  0  0  0  0
  1  2  2  0  0  0  0
  1  6  1  0  0  0  0
  2  3  1  0  0  0  0
  3  4  2  0  0  0  0
  4 12  1  0  0  0  0
  5  4  1  0  0  0  0
  5 11  1  0  0  0  0
  6  5  2  0  0  0  0
  7  1  1  0  0  0  0
  9  8  3  0  0  0  0
 10  6  1  0  0  0  0
M  RAD  2   2   2   3   2
M  END
