Coordinates from ORCA-job C6H4-N2-B3LYPG-aug-cc-pVDZ-scan-d09-49-n400
 OpenBabel11091809083D

 12 11  0  0  0  0  0  0  0  0999 V2000
   -2.2357    0.0598   -1.1620 C   0  0  0  0  0  0  0  0  0  0  0  0
   -0.8588    0.0572   -0.9707 C   0  0  0  0  0  0  0  0  0  0  0  0
   -0.2308    0.7419   -0.1293 C   0  0  0  0  0  0  0  0  0  0  0  0
   -0.7343    1.6445    0.7920 C   0  0  0  0  0  0  0  0  0  0  0  0
   -2.1429    1.7177    0.6740 C   0  0  0  0  0  0  0  0  0  0  0  0
   -2.8647    0.9556   -0.2657 C   0  0  0  0  0  0  0  0  0  0  0  0
   -2.7948   -0.5286   -1.8878 H   0  0  0  0  0  0  0  0  0  0  0  0
    2.5582    1.0881    0.6449 N   0  0  0  0  0  0  0  0  0  0  0  0
    3.4333    0.5760    0.2071 N   0  0  0  0  0  0  0  0  0  0  0  0
   -3.9510    1.0583   -0.3060 H   0  0  0  0  0  0  0  0  0  0  0  0
   -2.6877    2.3917    1.3383 H   0  0  0  0  0  0  0  0  0  0  0  0
   -0.1699    2.2296    1.5150 H   0  0  0  0  0  0  0  0  0  0  0  0
  1  2  2  0  0  0  0
  1  6  1  0  0  0  0
  2  3  1  0  0  0  0
  3  4  2  0  0  0  0
  4 12  1  0  0  0  0
  5  4  1  0  0  0  0
  5 11  1  0  0  0  0
  6  5  2  0  0  0  0
  7  1  1  0  0  0  0
  9  8  3  0  0  0  0
 10  6  1  0  0  0  0
M  RAD  2   2   2   3   2
M  END
