Coordinates from ORCA-job C6H4-N2-B3LYPG-aug-cc-pVDZ-scan-d09-49-n400
 OpenBabel11091809083D

 12 11  0  0  0  0  0  0  0  0999 V2000
   -2.4038    0.0550   -1.1911 C   0  0  0  0  0  0  0  0  0  0  0  0
   -1.0221   -0.0090   -1.0670 C   0  0  0  0  0  0  0  0  0  0  0  0
   -0.3128    0.6350   -0.2589 C   0  0  0  0  0  0  0  0  0  0  0  0
   -0.7306    1.5534    0.6922 C   0  0  0  0  0  0  0  0  0  0  0  0
   -2.1384    1.6926    0.6471 C   0  0  0  0  0  0  0  0  0  0  0  0
   -2.9425    0.9723   -0.2581 C   0  0  0  0  0  0  0  0  0  0  0  0
   -3.0252   -0.5015   -1.8905 H   0  0  0  0  0  0  0  0  0  0  0  0
    2.9164    1.2682    0.8929 N   0  0  0  0  0  0  0  0  0  0  0  0
    3.7257    0.7070    0.3935 N   0  0  0  0  0  0  0  0  0  0  0  0
   -4.0235    1.1255   -0.2419 H   0  0  0  0  0  0  0  0  0  0  0  0
   -2.6165    2.3858    1.3422 H   0  0  0  0  0  0  0  0  0  0  0  0
   -0.1058    2.1075    1.3895 H   0  0  0  0  0  0  0  0  0  0  0  0
  1  2  2  0  0  0  0
  1  6  1  0  0  0  0
  2  3  1  0  0  0  0
  3  4  2  0  0  0  0
  4 12  1  0  0  0  0
  5  4  1  0  0  0  0
  5 11  1  0  0  0  0
  6 10  1  0  0  0  0
  6  5  2  0  0  0  0
  7  1  1  0  0  0  0
  9  8  3  0  0  0  0
M  RAD  2   2   2   3   2
M  END
