Coordinates from ORCA-job C6H4-N2-B3LYPG-aug-cc-pVDZ-scan-d09-49-n400
 OpenBabel11091809083D

 12 12  0  0  0  0  0  0  0  0999 V2000
   -1.8870    0.0991   -1.0692 C   0  0  0  0  0  0  0  0  0  0  0  0
   -0.4682   -0.0396   -1.0223 C   0  0  0  0  0  0  0  0  0  0  0  0
    0.0721    0.8249    0.0027 C   0  0  0  0  0  0  0  0  0  0  0  0
   -0.6464    1.7126    0.8788 C   0  0  0  0  0  0  0  0  0  0  0  0
   -2.0110    1.7572    0.7359 C   0  0  0  0  0  0  0  0  0  0  0  0
   -2.6298    0.9412   -0.2484 C   0  0  0  0  0  0  0  0  0  0  0  0
   -2.4317   -0.5006   -1.8053 H   0  0  0  0  0  0  0  0  0  0  0  0
    1.3259    0.7739    0.1260 N   0  0  0  0  0  0  0  0  0  0  0  0
    2.4457    0.7093    0.2152 N   0  0  0  0  0  0  0  0  0  0  0  0
   -3.7171    0.9855   -0.3526 H   0  0  0  0  0  0  0  0  0  0  0  0
   -2.6103    2.4100    1.3697 H   0  0  0  0  0  0  0  0  0  0  0  0
   -0.1213    2.3184    1.6193 H   0  0  0  0  0  0  0  0  0  0  0  0
  1  2  2  0  0  0  0
  1  6  1  0  0  0  0
  2  3  1  0  0  0  0
  3  8  1  0  0  0  0
  3  4  2  0  0  0  0
  4 12  1  0  0  0  0
  5  4  1  0  0  0  0
  5 11  1  0  0  0  0
  6  5  2  0  0  0  0
  7  1  1  0  0  0  0
  8  9  1  0  0  0  0
 10  6  1  0  0  0  0
M  RAD  3   2   2   8   2   9   3
M  END
