Coordinates from ORCA-job C6H4-N2-B3LYPG-aug-cc-pVDZ-scan-d09-49-n400
 OpenBabel11091809083D

 12 11  0  0  0  0  0  0  0  0999 V2000
   -2.4098    0.0549   -1.1921 C   0  0  0  0  0  0  0  0  0  0  0  0
   -1.0280   -0.0117   -1.0708 C   0  0  0  0  0  0  0  0  0  0  0  0
   -0.3158    0.6308   -0.2639 C   0  0  0  0  0  0  0  0  0  0  0  0
   -0.7300    1.5497    0.6882 C   0  0  0  0  0  0  0  0  0  0  0  0
   -2.1377    1.6915    0.6461 C   0  0  0  0  0  0  0  0  0  0  0  0
   -2.9449    0.9730   -0.2577 C   0  0  0  0  0  0  0  0  0  0  0  0
   -3.0337   -0.5002   -1.8904 H   0  0  0  0  0  0  0  0  0  0  0  0
    2.9277    1.2753    0.9023 N   0  0  0  0  0  0  0  0  0  0  0  0
    3.7345    0.7124    0.4006 N   0  0  0  0  0  0  0  0  0  0  0  0
   -4.0256    1.1282   -0.2392 H   0  0  0  0  0  0  0  0  0  0  0  0
   -2.6130    2.3855    1.3423 H   0  0  0  0  0  0  0  0  0  0  0  0
   -0.1028    2.1025    1.3844 H   0  0  0  0  0  0  0  0  0  0  0  0
  1  2  2  0  0  0  0
  1  6  1  0  0  0  0
  2  3  1  0  0  0  0
  3  4  2  0  0  0  0
  4 12  1  0  0  0  0
  5  4  1  0  0  0  0
  5 11  1  0  0  0  0
  6 10  1  0  0  0  0
  6  5  2  0  0  0  0
  7  1  1  0  0  0  0
  9  8  3  0  0  0  0
M  RAD  2   2   2   3   2
M  END
