Coordinates from ORCA-job C6H4-N2-B3LYPG-aug-cc-pVDZ-scan-d09-49-n400
 OpenBabel11091809083D

 12 12  0  0  0  0  0  0  0  0999 V2000
   -1.8791    0.1008   -1.0664 C   0  0  0  0  0  0  0  0  0  0  0  0
   -0.4651   -0.0525   -1.0359 C   0  0  0  0  0  0  0  0  0  0  0  0
    0.1317    0.8246    0.0107 C   0  0  0  0  0  0  0  0  0  0  0  0
   -0.6375    1.7068    0.8737 C   0  0  0  0  0  0  0  0  0  0  0  0
   -1.9973    1.7543    0.7347 C   0  0  0  0  0  0  0  0  0  0  0  0
   -2.6222    0.9413   -0.2473 C   0  0  0  0  0  0  0  0  0  0  0  0
   -2.4219   -0.5000   -1.8031 H   0  0  0  0  0  0  0  0  0  0  0  0
    1.2455    0.7851    0.1267 N   0  0  0  0  0  0  0  0  0  0  0  0
    2.3777    0.7236    0.2213 N   0  0  0  0  0  0  0  0  0  0  0  0
   -3.7094    0.9865   -0.3505 H   0  0  0  0  0  0  0  0  0  0  0  0
   -2.5907    2.4092    1.3716 H   0  0  0  0  0  0  0  0  0  0  0  0
   -0.1109    2.3122    1.6141 H   0  0  0  0  0  0  0  0  0  0  0  0
  1  2  2  0  0  0  0
  1  6  1  0  0  0  0
  2  3  1  0  0  0  0
  3  8  1  0  0  0  0
  3  4  2  0  0  0  0
  4 12  1  0  0  0  0
  5  4  1  0  0  0  0
  5 11  1  0  0  0  0
  6  5  2  0  0  0  0
  7  1  1  0  0  0  0
  8  9  1  0  0  0  0
 10  6  1  0  0  0  0
M  RAD  3   2   2   8   2   9   3
M  END
