Coordinates from ORCA-job C6H4-N2-B3LYPG-aug-cc-pVDZ-scan-d09-49-n400
 OpenBabel11091809083D

 12 11  0  0  0  0  0  0  0  0999 V2000
   -2.8632    0.0760   -1.2333 C   0  0  0  0  0  0  0  0  0  0  0  0
   -1.5053   -0.1936   -1.3396 C   0  0  0  0  0  0  0  0  0  0  0  0
   -0.5831    0.3098   -0.6563 C   0  0  0  0  0  0  0  0  0  0  0  0
   -0.6973    1.2476    0.3599 C   0  0  0  0  0  0  0  0  0  0  0  0
   -2.0571    1.5930    0.5494 C   0  0  0  0  0  0  0  0  0  0  0  0
   -3.0978    1.0305   -0.2156 C   0  0  0  0  0  0  0  0  0  0  0  0
   -3.6664   -0.3593   -1.8250 H   0  0  0  0  0  0  0  0  0  0  0  0
    3.5688    1.6696    1.4263 N   0  0  0  0  0  0  0  0  0  0  0  0
    4.5519    1.2658    1.1267 N   0  0  0  0  0  0  0  0  0  0  0  0
   -4.1257    1.3412   -0.0178 H   0  0  0  0  0  0  0  0  0  0  0  0
   -2.3057    2.3252    1.3204 H   0  0  0  0  0  0  0  0  0  0  0  0
    0.1019    1.6860    0.9545 H   0  0  0  0  0  0  0  0  0  0  0  0
  1  6  1  0  0  0  0
  2  1  2  0  0  0  0
  2  3  1  0  0  0  0
  3  4  2  0  0  0  0
  4  5  1  0  0  0  0
  4 12  1  0  0  0  0
  5 11  1  0  0  0  0
  6 10  1  0  0  0  0
  6  5  2  0  0  0  0
  7  1  1  0  0  0  0
  9  8  3  0  0  0  0
M  RAD  2   2   2   3   2
M  END
