Coordinates from ORCA-job C6H4-N2-B3LYPG-aug-cc-pVDZ-scan-d09-49-n400
 OpenBabel11091809083D

 12 11  0  0  0  0  0  0  0  0999 V2000
   -2.8569    0.0754   -1.2331 C   0  0  0  0  0  0  0  0  0  0  0  0
   -1.4982   -0.1912   -1.3360 C   0  0  0  0  0  0  0  0  0  0  0  0
   -0.5787    0.3143   -0.6506 C   0  0  0  0  0  0  0  0  0  0  0  0
   -0.6975    1.2522    0.3650 C   0  0  0  0  0  0  0  0  0  0  0  0
   -2.0584    1.5946    0.5510 C   0  0  0  0  0  0  0  0  0  0  0  0
   -3.0960    1.0297   -0.2163 C   0  0  0  0  0  0  0  0  0  0  0  0
   -3.6578   -0.3619   -1.8266 H   0  0  0  0  0  0  0  0  0  0  0  0
    3.5598    1.6639    1.4187 N   0  0  0  0  0  0  0  0  0  0  0  0
    4.5409    1.2576    1.1161 N   0  0  0  0  0  0  0  0  0  0  0  0
   -4.1251    1.3381   -0.0211 H   0  0  0  0  0  0  0  0  0  0  0  0
   -2.3105    2.3266    1.3213 H   0  0  0  0  0  0  0  0  0  0  0  0
    0.0993    1.6925    0.9614 H   0  0  0  0  0  0  0  0  0  0  0  0
  1  6  1  0  0  0  0
  2  1  2  0  0  0  0
  2  3  1  0  0  0  0
  3  4  2  0  0  0  0
  4  5  1  0  0  0  0
  4 12  1  0  0  0  0
  5 11  1  0  0  0  0
  6 10  1  0  0  0  0
  6  5  2  0  0  0  0
  7  1  1  0  0  0  0
  9  8  3  0  0  0  0
M  RAD  2   2   2   3   2
M  END
