Coordinates from ORCA-job C6H4-N2-B3LYPG-aug-cc-pVDZ-scan-d09-49-n400
 OpenBabel11091809083D

 12 11  0  0  0  0  0  0  0  0999 V2000
   -2.8186    0.0717   -1.2317 C   0  0  0  0  0  0  0  0  0  0  0  0
   -1.4552   -0.1771   -1.3143 C   0  0  0  0  0  0  0  0  0  0  0  0
   -0.5527    0.3420   -0.6165 C   0  0  0  0  0  0  0  0  0  0  0  0
   -0.6985    1.2800    0.3954 C   0  0  0  0  0  0  0  0  0  0  0  0
   -2.0666    1.6047    0.5609 C   0  0  0  0  0  0  0  0  0  0  0  0
   -3.0853    1.0246   -0.2204 C   0  0  0  0  0  0  0  0  0  0  0  0
   -3.6049   -0.3772   -1.8359 H   0  0  0  0  0  0  0  0  0  0  0  0
    3.5055    1.6294    1.3730 N   0  0  0  0  0  0  0  0  0  0  0  0
    4.4742    1.2077    1.0518 N   0  0  0  0  0  0  0  0  0  0  0  0
   -4.1211    1.3197   -0.0408 H   0  0  0  0  0  0  0  0  0  0  0  0
   -2.3395    2.3345    1.3259 H   0  0  0  0  0  0  0  0  0  0  0  0
    0.0836    1.7318    1.0024 H   0  0  0  0  0  0  0  0  0  0  0  0
  1  6  1  0  0  0  0
  2  1  2  0  0  0  0
  2  3  1  0  0  0  0
  3  4  2  0  0  0  0
  4  5  1  0  0  0  0
  4 12  1  0  0  0  0
  5 11  1  0  0  0  0
  6 10  1  0  0  0  0
  6  5  2  0  0  0  0
  7  1  1  0  0  0  0
  9  8  3  0  0  0  0
M  RAD  2   2   2   3   2
M  END
