Coordinates from ORCA-job C6H4-N2-B3LYPG-aug-cc-pVDZ-scan-d09-49-n400
 OpenBabel11091809083D

 12 11  0  0  0  0  0  0  0  0999 V2000
   -2.7735    0.0679   -1.2294 C   0  0  0  0  0  0  0  0  0  0  0  0
   -1.4052   -0.1602   -1.2886 C   0  0  0  0  0  0  0  0  0  0  0  0
   -0.5230    0.3743   -0.5767 C   0  0  0  0  0  0  0  0  0  0  0  0
   -0.7000    1.3120    0.4304 C   0  0  0  0  0  0  0  0  0  0  0  0
   -2.0754    1.6159    0.5720 C   0  0  0  0  0  0  0  0  0  0  0  0
   -3.0717    1.0187   -0.2249 C   0  0  0  0  0  0  0  0  0  0  0  0
   -3.5426   -0.3942   -1.8458 H   0  0  0  0  0  0  0  0  0  0  0  0
    3.4408    1.5895    1.3200 N   0  0  0  0  0  0  0  0  0  0  0  0
    4.3938    1.1497    0.9767 N   0  0  0  0  0  0  0  0  0  0  0  0
   -4.1149    1.2982   -0.0636 H   0  0  0  0  0  0  0  0  0  0  0  0
   -2.3724    2.3431    1.3306 H   0  0  0  0  0  0  0  0  0  0  0  0
    0.0650    1.7768    1.0492 H   0  0  0  0  0  0  0  0  0  0  0  0
  1  6  1  0  0  0  0
  2  1  2  0  0  0  0
  2  3  1  0  0  0  0
  3  4  2  0  0  0  0
  4  5  1  0  0  0  0
  4 12  1  0  0  0  0
  5 11  1  0  0  0  0
  6 10  1  0  0  0  0
  6  5  2  0  0  0  0
  7  1  1  0  0  0  0
  9  8  3  0  0  0  0
M  RAD  2   2   2   3   2
M  END
