Coordinates from ORCA-job C6H4-N2-B3LYPG-aug-cc-pVDZ-scan-d09-49-n400
 OpenBabel11091809083D

 12 12  0  0  0  0  0  0  0  0999 V2000
   -1.8949    0.0982   -1.0715 C   0  0  0  0  0  0  0  0  0  0  0  0
   -0.4845    0.0509   -0.9242 C   0  0  0  0  0  0  0  0  0  0  0  0
   -0.0598    0.8631    0.0286 C   0  0  0  0  0  0  0  0  0  0  0  0
   -0.6887    1.7411    0.9050 C   0  0  0  0  0  0  0  0  0  0  0  0
   -2.0732    1.7589    0.7290 C   0  0  0  0  0  0  0  0  0  0  0  0
   -2.6652    0.9389   -0.2560 C   0  0  0  0  0  0  0  0  0  0  0  0
   -2.4007   -0.5179   -1.8202 H   0  0  0  0  0  0  0  0  0  0  0  0
    1.5798    0.8341    0.2281 N   0  0  0  0  0  0  0  0  0  0  0  0
    2.6209    0.5037    0.0115 N   0  0  0  0  0  0  0  0  0  0  0  0
   -3.7506    0.9658   -0.3798 H   0  0  0  0  0  0  0  0  0  0  0  0
   -2.6914    2.4052    1.3522 H   0  0  0  0  0  0  0  0  0  0  0  0
   -0.1709    2.3497    1.6471 H   0  0  0  0  0  0  0  0  0  0  0  0
  1  2  2  0  0  0  0
  1  6  1  0  0  0  0
  2  3  1  0  0  0  0
  3  8  1  0  0  0  0
  3  4  2  0  0  0  0
  4 12  1  0  0  0  0
  5  4  1  0  0  0  0
  5 11  1  0  0  0  0
  6  5  2  0  0  0  0
  7  1  1  0  0  0  0
  9  8  1  0  0  0  0
 10  6  1  0  0  0  0
M  RAD  3   2   2   8   2   9   3
M  END
