Coordinates from ORCA-job C6H4-N2-B3LYPG-aug-cc-pVDZ-scan-d09-49-n400
 OpenBabel11091809083D

 12 12  0  0  0  0  0  0  0  0999 V2000
   -1.8930    0.0992   -1.0701 C   0  0  0  0  0  0  0  0  0  0  0  0
   -0.4723   -0.0234   -1.0043 C   0  0  0  0  0  0  0  0  0  0  0  0
    0.0209    0.8304    0.0039 C   0  0  0  0  0  0  0  0  0  0  0  0
   -0.6592    1.7193    0.8851 C   0  0  0  0  0  0  0  0  0  0  0  0
   -2.0291    1.7597    0.7361 C   0  0  0  0  0  0  0  0  0  0  0  0
   -2.6404    0.9417   -0.2495 C   0  0  0  0  0  0  0  0  0  0  0  0
   -2.4339   -0.5021   -1.8075 H   0  0  0  0  0  0  0  0  0  0  0  0
    1.4049    0.7681    0.1307 N   0  0  0  0  0  0  0  0  0  0  0  0
    2.5177    0.6802    0.1912 N   0  0  0  0  0  0  0  0  0  0  0  0
   -3.7276    0.9829   -0.3576 H   0  0  0  0  0  0  0  0  0  0  0  0
   -2.6334    2.4109    1.3667 H   0  0  0  0  0  0  0  0  0  0  0  0
   -0.1337    2.3248    1.6250 H   0  0  0  0  0  0  0  0  0  0  0  0
  1  2  2  0  0  0  0
  1  6  1  0  0  0  0
  2  3  1  0  0  0  0
  3  8  1  0  0  0  0
  3  4  2  0  0  0  0
  4 12  1  0  0  0  0
  5  4  1  0  0  0  0
  5 11  1  0  0  0  0
  6  5  2  0  0  0  0
  7  1  1  0  0  0  0
  8  9  1  0  0  0  0
 10  6  1  0  0  0  0
M  RAD  3   2   2   8   2   9   3
M  END
