Coordinates from ORCA-job C6H4-N2-B3LYPG-aug-cc-pVDZ-scan-d09-49-n400
 OpenBabel11091809083D

 12 11  0  0  0  0  0  0  0  0999 V2000
   -2.2798    0.0580   -1.1703 C   0  0  0  0  0  0  0  0  0  0  0  0
   -0.9016    0.0412   -0.9945 C   0  0  0  0  0  0  0  0  0  0  0  0
   -0.2510    0.7151   -0.1617 C   0  0  0  0  0  0  0  0  0  0  0  0
   -0.7346    1.6220    0.7673 C   0  0  0  0  0  0  0  0  0  0  0  0
   -2.1436    1.7117    0.6673 C   0  0  0  0  0  0  0  0  0  0  0  0
   -2.8864    0.9597   -0.2642 C   0  0  0  0  0  0  0  0  0  0  0  0
   -2.8543   -0.5228   -1.8898 H   0  0  0  0  0  0  0  0  0  0  0  0
    2.6579    1.1344    0.7096 N   0  0  0  0  0  0  0  0  0  0  0  0
    3.5138    0.6069    0.2528 N   0  0  0  0  0  0  0  0  0  0  0  0
   -3.9719    1.0750   -0.2904 H   0  0  0  0  0  0  0  0  0  0  0  0
   -2.6721    2.3908    1.3395 H   0  0  0  0  0  0  0  0  0  0  0  0
   -0.1554    2.1999    1.4843 H   0  0  0  0  0  0  0  0  0  0  0  0
  1  2  2  0  0  0  0
  1  6  1  0  0  0  0
  2  3  1  0  0  0  0
  3  4  2  0  0  0  0
  4 12  1  0  0  0  0
  5  4  1  0  0  0  0
  5 11  1  0  0  0  0
  6  5  2  0  0  0  0
  7  1  1  0  0  0  0
  9  8  3  0  0  0  0
 10  6  1  0  0  0  0
M  RAD  2   2   2   3   2
M  END
