Coordinates from ORCA-job C6H4-N2-B3LYPG-aug-cc-pVDZ-scan-d09-49-n400
 OpenBabel11091809083D

 12 11  0  0  0  0  0  0  0  0999 V2000
   -2.3681    0.0556   -1.1854 C   0  0  0  0  0  0  0  0  0  0  0  0
   -0.9871    0.0062   -1.0452 C   0  0  0  0  0  0  0  0  0  0  0  0
   -0.2948    0.6592   -0.2296 C   0  0  0  0  0  0  0  0  0  0  0  0
   -0.7332    1.5744    0.7150 C   0  0  0  0  0  0  0  0  0  0  0  0
   -2.1418    1.6986    0.6532 C   0  0  0  0  0  0  0  0  0  0  0  0
   -2.9275    0.9685   -0.2603 C   0  0  0  0  0  0  0  0  0  0  0  0
   -2.9753   -0.5085   -1.8911 H   0  0  0  0  0  0  0  0  0  0  0  0
    2.8464    1.2276    0.8385 N   0  0  0  0  0  0  0  0  0  0  0  0
    3.6700    0.6762    0.3516 N   0  0  0  0  0  0  0  0  0  0  0  0
   -4.0101    1.1102   -0.2569 H   0  0  0  0  0  0  0  0  0  0  0  0
   -2.6353    2.3877    1.3416 H   0  0  0  0  0  0  0  0  0  0  0  0
   -0.1223    2.1360    1.4185 H   0  0  0  0  0  0  0  0  0  0  0  0
  1  2  2  0  0  0  0
  1  6  1  0  0  0  0
  2  3  1  0  0  0  0
  3  4  2  0  0  0  0
  4 12  1  0  0  0  0
  5  4  1  0  0  0  0
  5 11  1  0  0  0  0
  6 10  1  0  0  0  0
  6  5  2  0  0  0  0
  7  1  1  0  0  0  0
  9  8  3  0  0  0  0
M  RAD  2   2   2   3   2
M  END
