Coordinates from ORCA-job C6H4-N2-B3LYPG-aug-cc-pVDZ-scan-d09-49-n400
 OpenBabel11091809083D

 12 11  0  0  0  0  0  0  0  0999 V2000
   -2.5527    0.0562   -1.2109 C   0  0  0  0  0  0  0  0  0  0  0  0
   -1.1705   -0.0732   -1.1593 C   0  0  0  0  0  0  0  0  0  0  0  0
   -0.3952    0.5332   -0.3834 C   0  0  0  0  0  0  0  0  0  0  0  0
   -0.7172    1.4624    0.5935 C   0  0  0  0  0  0  0  0  0  0  0  0
   -2.1184    1.6653    0.6201 C   0  0  0  0  0  0  0  0  0  0  0  0
   -3.0000    0.9899   -0.2465 C   0  0  0  0  0  0  0  0  0  0  0  0
   -3.2344   -0.4654   -1.8804 H   0  0  0  0  0  0  0  0  0  0  0  0
    3.1405    1.3974    1.0654 N   0  0  0  0  0  0  0  0  0  0  0  0
    4.0044    0.8743    0.6191 N   0  0  0  0  0  0  0  0  0  0  0  0
   -4.0704    1.1929   -0.1734 H   0  0  0  0  0  0  0  0  0  0  0  0
   -2.5284    2.3742    1.3425 H   0  0  0  0  0  0  0  0  0  0  0  0
   -0.0370    1.9844    1.2632 H   0  0  0  0  0  0  0  0  0  0  0  0
  1  2  2  0  0  0  0
  1  6  1  0  0  0  0
  2  3  1  0  0  0  0
  3  4  2  0  0  0  0
  4  5  1  0  0  0  0
  4 12  1  0  0  0  0
  5 11  1  0  0  0  0
  6 10  1  0  0  0  0
  6  5  2  0  0  0  0
  7  1  1  0  0  0  0
  9  8  3  0  0  0  0
M  RAD  2   2   2   3   2
M  END
