Coordinates from ORCA-job C6H4-N2-B3LYPG-aug-cc-pVDZ-scan-d09-49-n400
 OpenBabel11091809083D

 12 11  0  0  0  0  0  0  0  0999 V2000
   -2.4288    0.0546   -1.1950 C   0  0  0  0  0  0  0  0  0  0  0  0
   -1.0466   -0.0202   -1.0828 C   0  0  0  0  0  0  0  0  0  0  0  0
   -0.3254    0.6174   -0.2801 C   0  0  0  0  0  0  0  0  0  0  0  0
   -0.7274    1.5379    0.6756 C   0  0  0  0  0  0  0  0  0  0  0  0
   -2.1346    1.6880    0.6427 C   0  0  0  0  0  0  0  0  0  0  0  0
   -2.9521    0.9751   -0.2564 C   0  0  0  0  0  0  0  0  0  0  0  0
   -3.0605   -0.4961   -1.8896 H   0  0  0  0  0  0  0  0  0  0  0  0
    2.9603    1.2964    0.9300 N   0  0  0  0  0  0  0  0  0  0  0  0
    3.7627    0.7306    0.4248 N   0  0  0  0  0  0  0  0  0  0  0  0
   -4.0317    1.1368   -0.2305 H   0  0  0  0  0  0  0  0  0  0  0  0
   -2.6013    2.3842    1.3426 H   0  0  0  0  0  0  0  0  0  0  0  0
   -0.0936    2.0871    1.3687 H   0  0  0  0  0  0  0  0  0  0  0  0
  1  2  2  0  0  0  0
  1  6  1  0  0  0  0
  2  3  1  0  0  0  0
  3  4  2  0  0  0  0
  4 12  1  0  0  0  0
  5  4  1  0  0  0  0
  5 11  1  0  0  0  0
  6 10  1  0  0  0  0
  6  5  2  0  0  0  0
  7  1  1  0  0  0  0
  9  8  3  0  0  0  0
M  RAD  2   2   2   3   2
M  END
