Coordinates from ORCA-job C6H4-N2-B3LYPG-aug-cc-pVDZ-scan-d09-49-n400
 OpenBabel11091809083D

 12 11  0  0  0  0  0  0  0  0999 V2000
   -2.2886    0.0577   -1.1718 C   0  0  0  0  0  0  0  0  0  0  0  0
   -0.9101    0.0378   -0.9994 C   0  0  0  0  0  0  0  0  0  0  0  0
   -0.2553    0.7097   -0.1683 C   0  0  0  0  0  0  0  0  0  0  0  0
   -0.7346    1.6175    0.7623 C   0  0  0  0  0  0  0  0  0  0  0  0
   -2.1437    1.7104    0.6659 C   0  0  0  0  0  0  0  0  0  0  0  0
   -2.8906    0.9605   -0.2639 C   0  0  0  0  0  0  0  0  0  0  0  0
   -2.8663   -0.5215   -1.8901 H   0  0  0  0  0  0  0  0  0  0  0  0
    2.6774    1.1435    0.7224 N   0  0  0  0  0  0  0  0  0  0  0  0
    3.5299    0.6134    0.2622 N   0  0  0  0  0  0  0  0  0  0  0  0
   -3.9759    1.0784   -0.2872 H   0  0  0  0  0  0  0  0  0  0  0  0
   -2.6689    2.3905    1.3397 H   0  0  0  0  0  0  0  0  0  0  0  0
   -0.1523    2.1938    1.4780 H   0  0  0  0  0  0  0  0  0  0  0  0
  1  2  2  0  0  0  0
  1  6  1  0  0  0  0
  2  3  1  0  0  0  0
  3  4  2  0  0  0  0
  4 12  1  0  0  0  0
  5  4  1  0  0  0  0
  5 11  1  0  0  0  0
  6  5  2  0  0  0  0
  7  1  1  0  0  0  0
  9  8  3  0  0  0  0
 10  6  1  0  0  0  0
M  RAD  2   2   2   3   2
M  END
