Coordinates from ORCA-job C6H4-N2-B3LYPG-aug-cc-pVDZ-scan-d09-49-n400
 OpenBabel11091809083D

 12 11  0  0  0  0  0  0  0  0999 V2000
   -2.4578    0.0546   -1.1992 C   0  0  0  0  0  0  0  0  0  0  0  0
   -1.0751   -0.0333   -1.1013 C   0  0  0  0  0  0  0  0  0  0  0  0
   -0.3418    0.5975   -0.3044 C   0  0  0  0  0  0  0  0  0  0  0  0
   -0.7239    1.5204    0.6568 C   0  0  0  0  0  0  0  0  0  0  0  0
   -2.1304    1.6827    0.6375 C   0  0  0  0  0  0  0  0  0  0  0  0
   -2.9633    0.9786   -0.2541 C   0  0  0  0  0  0  0  0  0  0  0  0
   -3.1016   -0.4894   -1.8880 H   0  0  0  0  0  0  0  0  0  0  0  0
    3.0013    1.3196    0.9612 N   0  0  0  0  0  0  0  0  0  0  0  0
    3.8196    0.7643    0.4701 N   0  0  0  0  0  0  0  0  0  0  0  0
   -4.0410    1.1502   -0.2171 H   0  0  0  0  0  0  0  0  0  0  0  0
   -2.5839    2.3821    1.3428 H   0  0  0  0  0  0  0  0  0  0  0  0
   -0.0813    2.0645    1.3457 H   0  0  0  0  0  0  0  0  0  0  0  0
  1  2  2  0  0  0  0
  1  6  1  0  0  0  0
  2  3  1  0  0  0  0
  3  4  2  0  0  0  0
  4 12  1  0  0  0  0
  5  4  1  0  0  0  0
  5 11  1  0  0  0  0
  6 10  1  0  0  0  0
  6  5  2  0  0  0  0
  7  1  1  0  0  0  0
  9  8  3  0  0  0  0
M  RAD  2   2   2   3   2
M  END
