Coordinates from ORCA-job C6H4-N2-B3LYPG-aug-cc-pVDZ-scan-d09-49-n400
 OpenBabel11091809083D

 12 11  0  0  0  0  0  0  0  0999 V2000
   -2.7346    0.0652   -1.2269 C   0  0  0  0  0  0  0  0  0  0  0  0
   -1.3628   -0.1459   -1.2667 C   0  0  0  0  0  0  0  0  0  0  0  0
   -0.4982    0.4016   -0.5430 C   0  0  0  0  0  0  0  0  0  0  0  0
   -0.7009    1.3386    0.4596 C   0  0  0  0  0  0  0  0  0  0  0  0
   -2.0821    1.6252    0.5812 C   0  0  0  0  0  0  0  0  0  0  0  0
   -3.0592    1.0138   -0.2286 C   0  0  0  0  0  0  0  0  0  0  0  0
   -3.4890   -0.4078   -1.8531 H   0  0  0  0  0  0  0  0  0  0  0  0
    3.3833    1.5559    1.2749 N   0  0  0  0  0  0  0  0  0  0  0  0
    4.3220    1.1009    0.9127 N   0  0  0  0  0  0  0  0  0  0  0  0
   -4.1080    1.2802   -0.0826 H   0  0  0  0  0  0  0  0  0  0  0  0
   -2.3991    2.3498    1.3341 H   0  0  0  0  0  0  0  0  0  0  0  0
    0.0494    1.8142    1.0882 H   0  0  0  0  0  0  0  0  0  0  0  0
  1  6  1  0  0  0  0
  2  1  2  0  0  0  0
  2  3  1  0  0  0  0
  3  4  2  0  0  0  0
  4  5  1  0  0  0  0
  4 12  1  0  0  0  0
  5 11  1  0  0  0  0
  6 10  1  0  0  0  0
  6  5  2  0  0  0  0
  7  1  1  0  0  0  0
  9  8  3  0  0  0  0
M  RAD  2   2   2   3   2
M  END
