Coordinates from ORCA-job C6H4-N2-B3LYPG-aug-cc-pVDZ-scan-d09-49-n400
 OpenBabel11091809083D

 12 12  0  0  0  0  0  0  0  0999 V2000
   -1.8943    0.1002   -1.0692 C   0  0  0  0  0  0  0  0  0  0  0  0
   -0.4739   -0.0046   -0.9840 C   0  0  0  0  0  0  0  0  0  0  0  0
   -0.0177    0.8394    0.0084 C   0  0  0  0  0  0  0  0  0  0  0  0
   -0.6709    1.7261    0.8909 C   0  0  0  0  0  0  0  0  0  0  0  0
   -2.0461    1.7611    0.7353 C   0  0  0  0  0  0  0  0  0  0  0  0
   -2.6499    0.9419   -0.2505 C   0  0  0  0  0  0  0  0  0  0  0  0
   -2.4273   -0.5046   -1.8094 H   0  0  0  0  0  0  0  0  0  0  0  0
    1.4658    0.7763    0.1484 N   0  0  0  0  0  0  0  0  0  0  0  0
    2.5711    0.6356    0.1497 N   0  0  0  0  0  0  0  0  0  0  0  0
   -3.7366    0.9783   -0.3639 H   0  0  0  0  0  0  0  0  0  0  0  0
   -2.6542    2.4109    1.3638 H   0  0  0  0  0  0  0  0  0  0  0  0
   -0.1451    2.3312    1.6304 H   0  0  0  0  0  0  0  0  0  0  0  0
  1  2  2  0  0  0  0
  1  6  1  0  0  0  0
  2  3  1  0  0  0  0
  3  8  1  0  0  0  0
  3  4  2  0  0  0  0
  4 12  1  0  0  0  0
  5  4  1  0  0  0  0
  5 11  1  0  0  0  0
  6  5  2  0  0  0  0
  7  1  1  0  0  0  0
  8  9  1  0  0  0  0
 10  6  1  0  0  0  0
M  RAD  3   2   2   8   2   9   3
M  END
