Coordinates from ORCA-job C6H4-N2-B3LYPG-aug-cc-pVDZ-scan-d09-49-n400
 OpenBabel11091809083D

 12 11  0  0  0  0  0  0  0  0999 V2000
   -2.2269    0.0602   -1.1603 C   0  0  0  0  0  0  0  0  0  0  0  0
   -0.8502    0.0602   -0.9662 C   0  0  0  0  0  0  0  0  0  0  0  0
   -0.2270    0.7472   -0.1230 C   0  0  0  0  0  0  0  0  0  0  0  0
   -0.7342    1.6488    0.7969 C   0  0  0  0  0  0  0  0  0  0  0  0
   -2.1426    1.7189    0.6754 C   0  0  0  0  0  0  0  0  0  0  0  0
   -2.8603    0.9548   -0.2660 C   0  0  0  0  0  0  0  0  0  0  0  0
   -2.7830   -0.5296   -1.8872 H   0  0  0  0  0  0  0  0  0  0  0  0
    2.5377    1.0787    0.6317 N   0  0  0  0  0  0  0  0  0  0  0  0
    3.4173    0.5703    0.1986 N   0  0  0  0  0  0  0  0  0  0  0  0
   -3.9467    1.0550   -0.3090 H   0  0  0  0  0  0  0  0  0  0  0  0
   -2.6906    2.3919    1.3381 H   0  0  0  0  0  0  0  0  0  0  0  0
   -0.1726    2.2353    1.5209 H   0  0  0  0  0  0  0  0  0  0  0  0
  1  2  2  0  0  0  0
  1  6  1  0  0  0  0
  2  3  1  0  0  0  0
  3  4  2  0  0  0  0
  4 12  1  0  0  0  0
  5  4  1  0  0  0  0
  5 11  1  0  0  0  0
  6  5  2  0  0  0  0
  7  1  1  0  0  0  0
  9  8  3  0  0  0  0
 10  6  1  0  0  0  0
M  RAD  2   2   2   3   2
M  END
