Coordinates from ORCA-job C6H4-N2-B3LYPG-aug-cc-pVDZ-scan-d09-49-n400
 OpenBabel11091809083D

 12 11  0  0  0  0  0  0  0  0999 V2000
   -2.5279    0.0556   -1.2081 C   0  0  0  0  0  0  0  0  0  0  0  0
   -1.1452   -0.0628   -1.1442 C   0  0  0  0  0  0  0  0  0  0  0  0
   -0.3815    0.5505   -0.3623 C   0  0  0  0  0  0  0  0  0  0  0  0
   -0.7193    1.4781    0.6107 C   0  0  0  0  0  0  0  0  0  0  0  0
   -2.1222    1.6701    0.6248 C   0  0  0  0  0  0  0  0  0  0  0  0
   -2.9909    0.9869   -0.2487 C   0  0  0  0  0  0  0  0  0  0  0  0
   -3.1995   -0.4721   -1.8829 H   0  0  0  0  0  0  0  0  0  0  0  0
    3.1057    1.3764    1.0377 N   0  0  0  0  0  0  0  0  0  0  0  0
    3.9583    0.8450    0.5797 N   0  0  0  0  0  0  0  0  0  0  0  0
   -4.0635    1.1815   -0.1853 H   0  0  0  0  0  0  0  0  0  0  0  0
   -2.5441    2.3766    1.3427 H   0  0  0  0  0  0  0  0  0  0  0  0
   -0.0490    2.0061    1.2856 H   0  0  0  0  0  0  0  0  0  0  0  0
  1  2  2  0  0  0  0
  1  6  1  0  0  0  0
  2  3  1  0  0  0  0
  3  4  2  0  0  0  0
  4  5  1  0  0  0  0
  4 12  1  0  0  0  0
  5 11  1  0  0  0  0
  6 10  1  0  0  0  0
  6  5  2  0  0  0  0
  7  1  1  0  0  0  0
  9  8  3  0  0  0  0
M  RAD  2   2   2   3   2
M  END
