Coordinates from ORCA-job C6H4-N2-B3LYPG-aug-cc-pVDZ-scan-d09-49-n400
 OpenBabel11091809083D

 12 12  0  0  0  0  0  0  0  0999 V2000
   -1.9386    0.0860   -1.0912 C   0  0  0  0  0  0  0  0  0  0  0  0
   -0.5463    0.0945   -0.8858 C   0  0  0  0  0  0  0  0  0  0  0  0
   -0.0948    0.8673    0.0276 C   0  0  0  0  0  0  0  0  0  0  0  0
   -0.6977    1.7434    0.9058 C   0  0  0  0  0  0  0  0  0  0  0  0
   -2.0913    1.7494    0.7162 C   0  0  0  0  0  0  0  0  0  0  0  0
   -2.6956    0.9356   -0.2637 C   0  0  0  0  0  0  0  0  0  0  0  0
   -2.4304   -0.5347   -1.8430 H   0  0  0  0  0  0  0  0  0  0  0  0
    1.7747    0.8942    0.3208 N   0  0  0  0  0  0  0  0  0  0  0  0
    2.7182    0.4369   -0.0463 N   0  0  0  0  0  0  0  0  0  0  0  0
   -3.7811    0.9684   -0.3806 H   0  0  0  0  0  0  0  0  0  0  0  0
   -2.7094    2.3962    1.3403 H   0  0  0  0  0  0  0  0  0  0  0  0
   -0.1868    2.3545    1.6496 H   0  0  0  0  0  0  0  0  0  0  0  0
  1  2  2  0  0  0  0
  1  6  1  0  0  0  0
  2  3  1  0  0  0  0
  3  8  1  0  0  0  0
  3  4  2  0  0  0  0
  4 12  1  0  0  0  0
  5  4  1  0  0  0  0
  5 11  1  0  0  0  0
  6  5  2  0  0  0  0
  7  1  1  0  0  0  0
  9  8  2  0  0  0  0
 10  6  1  0  0  0  0
M  RAD  2   2   2   9   2
M  END
