Coordinates from ORCA-job C6H4-N2-B3LYPG-aug-cc-pVDZ-scan-d09-49-n400
 OpenBabel11091809083D

 12 11  0  0  0  0  0  0  0  0999 V2000
   -2.0843    0.0680   -1.1316 C   0  0  0  0  0  0  0  0  0  0  0  0
   -0.7071    0.0965   -0.9063 C   0  0  0  0  0  0  0  0  0  0  0  0
   -0.1707    0.8220   -0.0330 C   0  0  0  0  0  0  0  0  0  0  0  0
   -0.7216    1.7101    0.8658 C   0  0  0  0  0  0  0  0  0  0  0  0
   -2.1268    1.7347    0.6949 C   0  0  0  0  0  0  0  0  0  0  0  0
   -2.7826    0.9425   -0.2684 C   0  0  0  0  0  0  0  0  0  0  0  0
   -2.5988   -0.5414   -1.8741 H   0  0  0  0  0  0  0  0  0  0  0  0
    2.2062    0.9728    0.4681 N   0  0  0  0  0  0  0  0  0  0  0  0
    3.0968    0.4722    0.0460 N   0  0  0  0  0  0  0  0  0  0  0  0
   -3.8695    1.0065   -0.3512 H   0  0  0  0  0  0  0  0  0  0  0  0
   -2.7192    2.3922    1.3345 H   0  0  0  0  0  0  0  0  0  0  0  0
   -0.2014    2.3158    1.6051 H   0  0  0  0  0  0  0  0  0  0  0  0
  1  2  2  0  0  0  0
  1  6  1  0  0  0  0
  2  3  1  0  0  0  0
  3  4  2  0  0  0  0
  4 12  1  0  0  0  0
  5  4  1  0  0  0  0
  5 11  1  0  0  0  0
  6  5  2  0  0  0  0
  7  1  1  0  0  0  0
  9  8  3  0  0  0  0
 10  6  1  0  0  0  0
M  RAD  2   2   2   3   2
M  END
