Coordinates from ORCA-job C6H4-N2-B3LYPG-aug-cc-pVDZ-scan-d09-49-n400
 OpenBabel11091809083D

 12 12  0  0  0  0  0  0  0  0999 V2000
   -1.9051    0.0942   -1.0773 C   0  0  0  0  0  0  0  0  0  0  0  0
   -0.5009    0.0692   -0.9066 C   0  0  0  0  0  0  0  0  0  0  0  0
   -0.0719    0.8666    0.0306 C   0  0  0  0  0  0  0  0  0  0  0  0
   -0.6902    1.7430    0.9068 C   0  0  0  0  0  0  0  0  0  0  0  0
   -2.0785    1.7555    0.7245 C   0  0  0  0  0  0  0  0  0  0  0  0
   -2.6731    0.9374   -0.2588 C   0  0  0  0  0  0  0  0  0  0  0  0
   -2.4036   -0.5245   -1.8279 H   0  0  0  0  0  0  0  0  0  0  0  0
    1.6345    0.8583    0.2624 N   0  0  0  0  0  0  0  0  0  0  0  0
    2.6403    0.4732   -0.0192 N   0  0  0  0  0  0  0  0  0  0  0  0
   -3.7584    0.9650   -0.3817 H   0  0  0  0  0  0  0  0  0  0  0  0
   -2.6974    2.4017    1.3476 H   0  0  0  0  0  0  0  0  0  0  0  0
   -0.1748    2.3524    1.6495 H   0  0  0  0  0  0  0  0  0  0  0  0
  1  2  2  0  0  0  0
  1  6  1  0  0  0  0
  2  3  1  0  0  0  0
  3  8  1  0  0  0  0
  3  4  2  0  0  0  0
  4 12  1  0  0  0  0
  5  4  1  0  0  0  0
  5 11  1  0  0  0  0
  6  5  2  0  0  0  0
  7  1  1  0  0  0  0
  9  8  2  0  0  0  0
 10  6  1  0  0  0  0
M  RAD  2   2   2   9   2
M  END
