Coordinates from ORCA-job C6H4-N2-B3LYPG-aug-cc-pVDZ-scan-d09-49-n400
 OpenBabel11091809083D

 12 11  0  0  0  0  0  0  0  0999 V2000
   -2.6625    0.0608   -1.2215 C   0  0  0  0  0  0  0  0  0  0  0  0
   -1.2850   -0.1190   -1.2260 C   0  0  0  0  0  0  0  0  0  0  0  0
   -0.4572    0.4540   -0.4795 C   0  0  0  0  0  0  0  0  0  0  0  0
   -0.7059    1.3886    0.5139 C   0  0  0  0  0  0  0  0  0  0  0  0
   -2.0965    1.6421    0.5977 C   0  0  0  0  0  0  0  0  0  0  0  0
   -3.0363    1.0044   -0.2358 C   0  0  0  0  0  0  0  0  0  0  0  0
   -3.3890   -0.4318   -1.8654 H   0  0  0  0  0  0  0  0  0  0  0  0
    3.2851    1.4934    1.1920 N   0  0  0  0  0  0  0  0  0  0  0  0
    4.1954    1.0104    0.7955 N   0  0  0  0  0  0  0  0  0  0  0  0
   -4.0948    1.2457   -0.1187 H   0  0  0  0  0  0  0  0  0  0  0  0
   -2.4511    2.3611    1.3391 H   0  0  0  0  0  0  0  0  0  0  0  0
    0.0187    1.8820    1.1584 H   0  0  0  0  0  0  0  0  0  0  0  0
  1  6  1  0  0  0  0
  2  1  2  0  0  0  0
  2  3  1  0  0  0  0
  3  4  2  0  0  0  0
  4  5  1  0  0  0  0
  4 12  1  0  0  0  0
  5 11  1  0  0  0  0
  6 10  1  0  0  0  0
  6  5  2  0  0  0  0
  7  1  1  0  0  0  0
  9  8  3  0  0  0  0
M  RAD  2   2   2   3   2
M  END
