Coordinates from ORCA-job C6H4-N2-B3LYPG-aug-cc-pVDZ-scan-d09-49-n400
 OpenBabel11091809083D

 12 12  0  0  0  0  0  0  0  0999 V2000
   -1.8925    0.0992   -1.0700 C   0  0  0  0  0  0  0  0  0  0  0  0
   -0.4717   -0.0210   -1.0016 C   0  0  0  0  0  0  0  0  0  0  0  0
    0.0158    0.8315    0.0044 C   0  0  0  0  0  0  0  0  0  0  0  0
   -0.6600    1.7202    0.8860 C   0  0  0  0  0  0  0  0  0  0  0  0
   -2.0307    1.7599    0.7361 C   0  0  0  0  0  0  0  0  0  0  0  0
   -2.6410    0.9417   -0.2496 C   0  0  0  0  0  0  0  0  0  0  0  0
   -2.4326   -0.5025   -1.8077 H   0  0  0  0  0  0  0  0  0  0  0  0
    1.4098    0.7686    0.1319 N   0  0  0  0  0  0  0  0  0  0  0  0
    2.5219    0.6753    0.1864 N   0  0  0  0  0  0  0  0  0  0  0  0
   -3.7281    0.9823   -0.3584 H   0  0  0  0  0  0  0  0  0  0  0  0
   -2.6356    2.4109    1.3664 H   0  0  0  0  0  0  0  0  0  0  0  0
   -0.1345    2.3256    1.6258 H   0  0  0  0  0  0  0  0  0  0  0  0
  1  2  2  0  0  0  0
  1  6  1  0  0  0  0
  2  3  1  0  0  0  0
  3  8  1  0  0  0  0
  3  4  2  0  0  0  0
  4 12  1  0  0  0  0
  5  4  1  0  0  0  0
  5 11  1  0  0  0  0
  6  5  2  0  0  0  0
  7  1  1  0  0  0  0
  8  9  1  0  0  0  0
 10  6  1  0  0  0  0
M  RAD  3   2   2   8   2   9   3
M  END
