Coordinates from ORCA-job C6H4-N2-B3LYPG-aug-cc-pVDZ-scan-d09-49-n400
 OpenBabel11091809083D

 12 11  0  0  0  0  0  0  0  0999 V2000
   -2.6415    0.0597   -1.2197 C   0  0  0  0  0  0  0  0  0  0  0  0
   -1.2627   -0.1102   -1.2133 C   0  0  0  0  0  0  0  0  0  0  0  0
   -0.4450    0.4694   -0.4609 C   0  0  0  0  0  0  0  0  0  0  0  0
   -0.7081    1.4032    0.5296 C   0  0  0  0  0  0  0  0  0  0  0  0
   -2.1011    1.6468    0.6022 C   0  0  0  0  0  0  0  0  0  0  0  0
   -3.0297    1.0015   -0.2379 C   0  0  0  0  0  0  0  0  0  0  0  0
   -3.3594   -0.4387   -1.8687 H   0  0  0  0  0  0  0  0  0  0  0  0
    3.2580    1.4747    1.1673 N   0  0  0  0  0  0  0  0  0  0  0  0
    4.1599    0.9838    0.7615 N   0  0  0  0  0  0  0  0  0  0  0  0
   -4.0908    1.2354   -0.1294 H   0  0  0  0  0  0  0  0  0  0  0  0
   -2.4667    2.3640    1.3401 H   0  0  0  0  0  0  0  0  0  0  0  0
    0.0080    1.9023    1.1791 H   0  0  0  0  0  0  0  0  0  0  0  0
  1  2  2  0  0  0  0
  1  6  1  0  0  0  0
  2  3  1  0  0  0  0
  3  4  2  0  0  0  0
  4  5  1  0  0  0  0
  4 12  1  0  0  0  0
  5 11  1  0  0  0  0
  6 10  1  0  0  0  0
  6  5  2  0  0  0  0
  7  1  1  0  0  0  0
  9  8  3  0  0  0  0
M  RAD  2   2   2   3   2
M  END
