Coordinates from ORCA-job C6H4-N2-B3LYPG-aug-cc-pVDZ-scan-d09-49-n400
 OpenBabel11091809083D

 12 11  0  0  0  0  0  0  0  0999 V2000
   -2.7800    0.0684   -1.2298 C   0  0  0  0  0  0  0  0  0  0  0  0
   -1.4123   -0.1626   -1.2923 C   0  0  0  0  0  0  0  0  0  0  0  0
   -0.5272    0.3697   -0.5824 C   0  0  0  0  0  0  0  0  0  0  0  0
   -0.6998    1.3074    0.4254 C   0  0  0  0  0  0  0  0  0  0  0  0
   -2.0742    1.6144    0.5704 C   0  0  0  0  0  0  0  0  0  0  0  0
   -3.0737    1.0195   -0.2243 C   0  0  0  0  0  0  0  0  0  0  0  0
   -3.5515   -0.3918   -1.8444 H   0  0  0  0  0  0  0  0  0  0  0  0
    3.4502    1.5952    1.3275 N   0  0  0  0  0  0  0  0  0  0  0  0
    4.4055    1.1579    0.9874 N   0  0  0  0  0  0  0  0  0  0  0  0
   -4.1159    1.3013   -0.0604 H   0  0  0  0  0  0  0  0  0  0  0  0
   -2.3678    2.3420    1.3300 H   0  0  0  0  0  0  0  0  0  0  0  0
    0.0676    1.7705    1.0426 H   0  0  0  0  0  0  0  0  0  0  0  0
  1  6  1  0  0  0  0
  2  1  2  0  0  0  0
  2  3  1  0  0  0  0
  3  4  2  0  0  0  0
  4  5  1  0  0  0  0
  4 12  1  0  0  0  0
  5 11  1  0  0  0  0
  6 10  1  0  0  0  0
  6  5  2  0  0  0  0
  7  1  1  0  0  0  0
  9  8  3  0  0  0  0
M  RAD  2   2   2   3   2
M  END
