Coordinates from ORCA-job C6H4-N2-B3LYPG-aug-cc-pVDZ-scan-d09-49-n400
 OpenBabel11091809083D

 12 11  0  0  0  0  0  0  0  0999 V2000
   -2.0311    0.0729   -1.1187 C   0  0  0  0  0  0  0  0  0  0  0  0
   -0.6536    0.1102   -0.8838 C   0  0  0  0  0  0  0  0  0  0  0  0
   -0.1452    0.8483   -0.0007 C   0  0  0  0  0  0  0  0  0  0  0  0
   -0.7207    1.7307    0.8885 C   0  0  0  0  0  0  0  0  0  0  0  0
   -2.1219    1.7405    0.7021 C   0  0  0  0  0  0  0  0  0  0  0  0
   -2.7541    0.9382   -0.2691 C   0  0  0  0  0  0  0  0  0  0  0  0
   -2.5296   -0.5436   -1.8668 H   0  0  0  0  0  0  0  0  0  0  0  0
    2.0876    0.9417    0.4170 N   0  0  0  0  0  0  0  0  0  0  0  0
    2.9689    0.4319   -0.0160 N   0  0  0  0  0  0  0  0  0  0  0  0
   -3.8405    0.9879   -0.3673 H   0  0  0  0  0  0  0  0  0  0  0  0
   -2.7292    2.3923    1.3333 H   0  0  0  0  0  0  0  0  0  0  0  0
   -0.2096    2.3408    1.6313 H   0  0  0  0  0  0  0  0  0  0  0  0
  1  2  2  0  0  0  0
  1  6  1  0  0  0  0
  2  3  1  0  0  0  0
  3  4  2  0  0  0  0
  4 12  1  0  0  0  0
  5  4  1  0  0  0  0
  5 11  1  0  0  0  0
  6  5  2  0  0  0  0
  7  1  1  0  0  0  0
  9  8  3  0  0  0  0
 10  6  1  0  0  0  0
M  RAD  2   2   2   3   2
M  END
