Coordinates from ORCA-job C6H4-N2-B3LYPG-aug-cc-pVDZ-scan-d09-49-n400
 OpenBabel11091809083D

 12 11  0  0  0  0  0  0  0  0999 V2000
   -2.7215    0.0643   -1.2260 C   0  0  0  0  0  0  0  0  0  0  0  0
   -1.3486   -0.1412   -1.2595 C   0  0  0  0  0  0  0  0  0  0  0  0
   -0.4903    0.4108   -0.5318 C   0  0  0  0  0  0  0  0  0  0  0  0
   -0.7011    1.3474    0.4693 C   0  0  0  0  0  0  0  0  0  0  0  0
   -2.0841    1.6282    0.5842 C   0  0  0  0  0  0  0  0  0  0  0  0
   -3.0548    1.0122   -0.2298 C   0  0  0  0  0  0  0  0  0  0  0  0
   -3.4710   -0.4121   -1.8554 H   0  0  0  0  0  0  0  0  0  0  0  0
    3.3637    1.5448    1.2599 N   0  0  0  0  0  0  0  0  0  0  0  0
    4.2975    1.0848    0.8915 N   0  0  0  0  0  0  0  0  0  0  0  0
   -4.1054    1.2742   -0.0888 H   0  0  0  0  0  0  0  0  0  0  0  0
   -2.4077    2.3520    1.3352 H   0  0  0  0  0  0  0  0  0  0  0  0
    0.0444    1.8264    1.1009 H   0  0  0  0  0  0  0  0  0  0  0  0
  1  6  1  0  0  0  0
  2  1  2  0  0  0  0
  2  3  1  0  0  0  0
  3  4  2  0  0  0  0
  4  5  1  0  0  0  0
  4 12  1  0  0  0  0
  5 11  1  0  0  0  0
  6 10  1  0  0  0  0
  6  5  2  0  0  0  0
  7  1  1  0  0  0  0
  9  8  3  0  0  0  0
M  RAD  2   2   2   3   2
M  END
