Coordinates from ORCA-job C6H4-N2-B3LYPG-aug-cc-pVDZ-scan-d09-49-n400
 OpenBabel11091809083D

 12 12  0  0  0  0  0  0  0  0999 V2000
   -1.8929    0.1006   -1.0686 C   0  0  0  0  0  0  0  0  0  0  0  0
   -0.4737    0.0102   -0.9676 C   0  0  0  0  0  0  0  0  0  0  0  0
   -0.0365    0.8463    0.0133 C   0  0  0  0  0  0  0  0  0  0  0  0
   -0.6769    1.7308    0.8952 C   0  0  0  0  0  0  0  0  0  0  0  0
   -2.0555    1.7613    0.7342 C   0  0  0  0  0  0  0  0  0  0  0  0
   -2.6545    0.9416   -0.2516 C   0  0  0  0  0  0  0  0  0  0  0  0
   -2.4183   -0.5076   -1.8113 H   0  0  0  0  0  0  0  0  0  0  0  0
    1.4964    0.7896    0.1673 N   0  0  0  0  0  0  0  0  0  0  0  0
    2.5916    0.5985    0.1118 N   0  0  0  0  0  0  0  0  0  0  0  0
   -3.7407    0.9742   -0.3690 H   0  0  0  0  0  0  0  0  0  0  0  0
   -2.6663    2.4102    1.3613 H   0  0  0  0  0  0  0  0  0  0  0  0
   -0.1518    2.3360    1.6347 H   0  0  0  0  0  0  0  0  0  0  0  0
  1  2  2  0  0  0  0
  1  6  1  0  0  0  0
  2  3  1  0  0  0  0
  3  8  1  0  0  0  0
  3  4  2  0  0  0  0
  4 12  1  0  0  0  0
  5  4  1  0  0  0  0
  5 11  1  0  0  0  0
  6  5  2  0  0  0  0
  7  1  1  0  0  0  0
  9  8  1  0  0  0  0
 10  6  1  0  0  0  0
M  RAD  3   2   2   8   2   9   3
M  END
