Coordinates from ORCA-job C6H4-N2-B3LYPG-aug-cc-pVDZ-scan-d09-49-n400
 OpenBabel11091809083D

 12 11  0  0  0  0  0  0  0  0999 V2000
   -2.0485    0.0708   -1.1235 C   0  0  0  0  0  0  0  0  0  0  0  0
   -0.6711    0.1048   -0.8922 C   0  0  0  0  0  0  0  0  0  0  0  0
   -0.1545    0.8390   -0.0121 C   0  0  0  0  0  0  0  0  0  0  0  0
   -0.7188    1.7235    0.8809 C   0  0  0  0  0  0  0  0  0  0  0  0
   -2.1220    1.7382    0.6996 C   0  0  0  0  0  0  0  0  0  0  0  0
   -2.7627    0.9396   -0.2687 C   0  0  0  0  0  0  0  0  0  0  0  0
   -2.5530   -0.5431   -1.8696 H   0  0  0  0  0  0  0  0  0  0  0  0
    2.1230    0.9528    0.4343 N   0  0  0  0  0  0  0  0  0  0  0  0
    3.0082    0.4468    0.0058 N   0  0  0  0  0  0  0  0  0  0  0  0
   -3.8493    0.9947   -0.3611 H   0  0  0  0  0  0  0  0  0  0  0  0
   -2.7242    2.3920    1.3336 H   0  0  0  0  0  0  0  0  0  0  0  0
   -0.2062    2.3327    1.6230 H   0  0  0  0  0  0  0  0  0  0  0  0
  1  2  2  0  0  0  0
  1  6  1  0  0  0  0
  2  3  1  0  0  0  0
  3  4  2  0  0  0  0
  4 12  1  0  0  0  0
  5  4  1  0  0  0  0
  5 11  1  0  0  0  0
  6  5  2  0  0  0  0
  7  1  1  0  0  0  0
  9  8  3  0  0  0  0
 10  6  1  0  0  0  0
M  RAD  2   2   2   3   2
M  END
