Coordinates from ORCA-job C6H4-N2-B3LYPG-aug-cc-pVDZ-scan-d09-49-n400
 OpenBabel11091809083D

 12 11  0  0  0  0  0  0  0  0999 V2000
   -2.0585    0.0699   -1.1259 C   0  0  0  0  0  0  0  0  0  0  0  0
   -0.6810    0.1023   -0.8964 C   0  0  0  0  0  0  0  0  0  0  0  0
   -0.1592    0.8342   -0.0181 C   0  0  0  0  0  0  0  0  0  0  0  0
   -0.7192    1.7197    0.8767 C   0  0  0  0  0  0  0  0  0  0  0  0
   -2.1231    1.7372    0.6983 C   0  0  0  0  0  0  0  0  0  0  0  0
   -2.7681    0.9404   -0.2686 C   0  0  0  0  0  0  0  0  0  0  0  0
   -2.5658   -0.5427   -1.8709 H   0  0  0  0  0  0  0  0  0  0  0  0
    2.1454    0.9585    0.4437 N   0  0  0  0  0  0  0  0  0  0  0  0
    3.0323    0.4542    0.0173 N   0  0  0  0  0  0  0  0  0  0  0  0
   -3.8548    0.9981   -0.3582 H   0  0  0  0  0  0  0  0  0  0  0  0
   -2.7225    2.3920    1.3339 H   0  0  0  0  0  0  0  0  0  0  0  0
   -0.2047    2.3280    1.6180 H   0  0  0  0  0  0  0  0  0  0  0  0
  1  2  2  0  0  0  0
  1  6  1  0  0  0  0
  2  3  1  0  0  0  0
  3  4  2  0  0  0  0
  4 12  1  0  0  0  0
  5  4  1  0  0  0  0
  5 11  1  0  0  0  0
  6  5  2  0  0  0  0
  7  1  1  0  0  0  0
  9  8  3  0  0  0  0
 10  6  1  0  0  0  0
M  RAD  2   2   2   3   2
M  END
