Coordinates from ORCA-job C6H4-N2-B3LYPG-aug-cc-pVDZ-scan-d09-49-n400
 OpenBabel11091809083D

 12 12  0  0  0  0  0  0  0  0999 V2000
   -1.8998    0.0958   -1.0748 C   0  0  0  0  0  0  0  0  0  0  0  0
   -0.4938    0.0638   -0.9115 C   0  0  0  0  0  0  0  0  0  0  0  0
   -0.0648    0.8664    0.0314 C   0  0  0  0  0  0  0  0  0  0  0  0
   -0.6902    1.7429    0.9066 C   0  0  0  0  0  0  0  0  0  0  0  0
   -2.0768    1.7569    0.7263 C   0  0  0  0  0  0  0  0  0  0  0  0
   -2.6695    0.9378   -0.2579 C   0  0  0  0  0  0  0  0  0  0  0  0
   -2.4002   -0.5222   -1.8249 H   0  0  0  0  0  0  0  0  0  0  0  0
    1.6128    0.8508    0.2510 N   0  0  0  0  0  0  0  0  0  0  0  0
    2.6292    0.4797   -0.0134 N   0  0  0  0  0  0  0  0  0  0  0  0
   -3.7549    0.9647   -0.3815 H   0  0  0  0  0  0  0  0  0  0  0  0
   -2.6962    2.4027    1.3489 H   0  0  0  0  0  0  0  0  0  0  0  0
   -0.1749    2.3525    1.6496 H   0  0  0  0  0  0  0  0  0  0  0  0
  1  2  2  0  0  0  0
  1  6  1  0  0  0  0
  2  3  1  0  0  0  0
  3  8  1  0  0  0  0
  3  4  2  0  0  0  0
  4 12  1  0  0  0  0
  5  4  1  0  0  0  0
  5 11  1  0  0  0  0
  6  5  2  0  0  0  0
  7  1  1  0  0  0  0
  9  8  2  0  0  0  0
 10  6  1  0  0  0  0
M  RAD  2   2   2   9   2
M  END
