Coordinates from ORCA-job C6H4-N2-B3LYPG-aug-cc-pVDZ-scan-d09-49-n400
 OpenBabel11091809083D

 12 11  0  0  0  0  0  0  0  0999 V2000
   -2.7897    0.0692   -1.2303 C   0  0  0  0  0  0  0  0  0  0  0  0
   -1.4230   -0.1663   -1.2978 C   0  0  0  0  0  0  0  0  0  0  0  0
   -0.5335    0.3628   -0.5909 C   0  0  0  0  0  0  0  0  0  0  0  0
   -0.6995    1.3006    0.4179 C   0  0  0  0  0  0  0  0  0  0  0  0
   -2.0724    1.6120    0.5681 C   0  0  0  0  0  0  0  0  0  0  0  0
   -3.0767    1.0208   -0.2233 C   0  0  0  0  0  0  0  0  0  0  0  0
   -3.5649   -0.3882   -1.8424 H   0  0  0  0  0  0  0  0  0  0  0  0
    3.4642    1.6037    1.3389 N   0  0  0  0  0  0  0  0  0  0  0  0
    4.4229    1.1703    1.0035 N   0  0  0  0  0  0  0  0  0  0  0  0
   -4.1173    1.3059   -0.0555 H   0  0  0  0  0  0  0  0  0  0  0  0
   -2.3609    2.3402    1.3290 H   0  0  0  0  0  0  0  0  0  0  0  0
    0.0716    1.7609    1.0326 H   0  0  0  0  0  0  0  0  0  0  0  0
  1  6  1  0  0  0  0
  2  1  2  0  0  0  0
  2  3  1  0  0  0  0
  3  4  2  0  0  0  0
  4  5  1  0  0  0  0
  4 12  1  0  0  0  0
  5 11  1  0  0  0  0
  6 10  1  0  0  0  0
  6  5  2  0  0  0  0
  7  1  1  0  0  0  0
  9  8  3  0  0  0  0
M  RAD  2   2   2   3   2
M  END
