Coordinates from ORCA-job C6H4-N2-B3LYPG-aug-cc-pVDZ-scan-d09-49-n400
 OpenBabel11091809083D

 12 11  0  0  0  0  0  0  0  0999 V2000
   -2.7082    0.0636   -1.2249 C   0  0  0  0  0  0  0  0  0  0  0  0
   -1.3341   -0.1364   -1.2522 C   0  0  0  0  0  0  0  0  0  0  0  0
   -0.4825    0.4202   -0.5203 C   0  0  0  0  0  0  0  0  0  0  0  0
   -0.7016    1.3565    0.4792 C   0  0  0  0  0  0  0  0  0  0  0  0
   -2.0863    1.6313    0.5873 C   0  0  0  0  0  0  0  0  0  0  0  0
   -3.0504    1.0105   -0.2310 C   0  0  0  0  0  0  0  0  0  0  0  0
   -3.4527   -0.4165   -1.8576 H   0  0  0  0  0  0  0  0  0  0  0  0
    3.3442    1.5334    1.2447 N   0  0  0  0  0  0  0  0  0  0  0  0
    4.2728    1.0683    0.8698 N   0  0  0  0  0  0  0  0  0  0  0  0
   -4.1028    1.2681   -0.0952 H   0  0  0  0  0  0  0  0  0  0  0  0
   -2.4167    2.3541    1.3362 H   0  0  0  0  0  0  0  0  0  0  0  0
    0.0392    1.8388    1.1138 H   0  0  0  0  0  0  0  0  0  0  0  0
  1  6  1  0  0  0  0
  2  1  2  0  0  0  0
  2  3  1  0  0  0  0
  3  4  2  0  0  0  0
  4  5  1  0  0  0  0
  4 12  1  0  0  0  0
  5 11  1  0  0  0  0
  6 10  1  0  0  0  0
  6  5  2  0  0  0  0
  7  1  1  0  0  0  0
  9  8  3  0  0  0  0
M  RAD  2   2   2   3   2
M  END
