Coordinates from ORCA-job C6H4-N2-B3LYPG-aug-cc-pVDZ-scan-d09-49-n400
 OpenBabel11091809083D

 12 11  0  0  0  0  0  0  0  0999 V2000
   -2.2181    0.0606   -1.1586 C   0  0  0  0  0  0  0  0  0  0  0  0
   -0.8415    0.0630   -0.9619 C   0  0  0  0  0  0  0  0  0  0  0  0
   -0.2235    0.7524   -0.1168 C   0  0  0  0  0  0  0  0  0  0  0  0
   -0.7340    1.6531    0.8016 C   0  0  0  0  0  0  0  0  0  0  0  0
   -2.1423    1.7201    0.6767 C   0  0  0  0  0  0  0  0  0  0  0  0
   -2.8559    0.9540   -0.2662 C   0  0  0  0  0  0  0  0  0  0  0  0
   -2.7713   -0.5306   -1.8866 H   0  0  0  0  0  0  0  0  0  0  0  0
    2.5169    1.0693    0.6184 N   0  0  0  0  0  0  0  0  0  0  0  0
    3.4014    0.5650    0.1904 N   0  0  0  0  0  0  0  0  0  0  0  0
   -3.9424    1.0518   -0.3119 H   0  0  0  0  0  0  0  0  0  0  0  0
   -2.6933    2.3921    1.3379 H   0  0  0  0  0  0  0  0  0  0  0  0
   -0.1751    2.2409    1.5267 H   0  0  0  0  0  0  0  0  0  0  0  0
  1  2  2  0  0  0  0
  1  6  1  0  0  0  0
  2  3  1  0  0  0  0
  3  4  2  0  0  0  0
  4 12  1  0  0  0  0
  5  4  1  0  0  0  0
  5 11  1  0  0  0  0
  6  5  2  0  0  0  0
  7  1  1  0  0  0  0
  9  8  3  0  0  0  0
 10  6  1  0  0  0  0
M  RAD  2   2   2   3   2
M  END
