Coordinates from ORCA-job C6H4-N2-B3LYPG-aug-cc-pVDZ-scan-d09-49-n400
 OpenBabel11091809083D

 12 12  0  0  0  0  0  0  0  0999 V2000
   -1.8841    0.0998   -1.0685 C   0  0  0  0  0  0  0  0  0  0  0  0
   -0.4667   -0.0452   -1.0271 C   0  0  0  0  0  0  0  0  0  0  0  0
    0.0921    0.8212    0.0067 C   0  0  0  0  0  0  0  0  0  0  0  0
   -0.6426    1.7095    0.8773 C   0  0  0  0  0  0  0  0  0  0  0  0
   -2.0053    1.7562    0.7356 C   0  0  0  0  0  0  0  0  0  0  0  0
   -2.6265    0.9412   -0.2480 C   0  0  0  0  0  0  0  0  0  0  0  0
   -2.4285   -0.4999   -1.8048 H   0  0  0  0  0  0  0  0  0  0  0  0
    1.2961    0.7778    0.1263 N   0  0  0  0  0  0  0  0  0  0  0  0
    2.4197    0.7184    0.2170 N   0  0  0  0  0  0  0  0  0  0  0  0
   -3.7138    0.9866   -0.3521 H   0  0  0  0  0  0  0  0  0  0  0  0
   -2.6024    2.4105    1.3699 H   0  0  0  0  0  0  0  0  0  0  0  0
   -0.1171    2.3157    1.6174 H   0  0  0  0  0  0  0  0  0  0  0  0
  1  2  2  0  0  0  0
  1  6  1  0  0  0  0
  2  3  1  0  0  0  0
  3  8  1  0  0  0  0
  3  4  2  0  0  0  0
  4 12  1  0  0  0  0
  5  4  1  0  0  0  0
  5 11  1  0  0  0  0
  6  5  2  0  0  0  0
  7  1  1  0  0  0  0
  8  9  1  0  0  0  0
 10  6  1  0  0  0  0
M  RAD  3   2   2   8   2   9   3
M  END
