Coordinates from ORCA-job C6H4-N2-B3LYPG-aug-cc-pVDZ-scan-d09-49-n400
 OpenBabel11091809083D

 12 11  0  0  0  0  0  0  0  0999 V2000
   -2.0452    0.0711   -1.1227 C   0  0  0  0  0  0  0  0  0  0  0  0
   -0.6678    0.1058   -0.8907 C   0  0  0  0  0  0  0  0  0  0  0  0
   -0.1528    0.8407   -0.0100 C   0  0  0  0  0  0  0  0  0  0  0  0
   -0.7188    1.7248    0.8824 C   0  0  0  0  0  0  0  0  0  0  0  0
   -2.1217    1.7386    0.7000 C   0  0  0  0  0  0  0  0  0  0  0  0
   -2.7609    0.9393   -0.2688 C   0  0  0  0  0  0  0  0  0  0  0  0
   -2.5486   -0.5433   -1.8691 H   0  0  0  0  0  0  0  0  0  0  0  0
    2.1156    0.9508    0.4310 N   0  0  0  0  0  0  0  0  0  0  0  0
    3.0002    0.4441    0.0018 N   0  0  0  0  0  0  0  0  0  0  0  0
   -3.8475    0.9935   -0.3622 H   0  0  0  0  0  0  0  0  0  0  0  0
   -2.7250    2.3919    1.3335 H   0  0  0  0  0  0  0  0  0  0  0  0
   -0.2067    2.3343    1.6246 H   0  0  0  0  0  0  0  0  0  0  0  0
  1  2  2  0  0  0  0
  1  6  1  0  0  0  0
  2  3  1  0  0  0  0
  3  4  2  0  0  0  0
  4 12  1  0  0  0  0
  5  4  1  0  0  0  0
  5 11  1  0  0  0  0
  6  5  2  0  0  0  0
  7  1  1  0  0  0  0
  9  8  3  0  0  0  0
 10  6  1  0  0  0  0
M  RAD  2   2   2   3   2
M  END
