Coordinates from ORCA-job C6H4-N2-B3LYPG-aug-cc-pVDZ-scan-d09-49-n400
 OpenBabel11091809083D

 12 12  0  0  0  0  0  0  0  0999 V2000
   -1.8944    0.0992   -1.0703 C   0  0  0  0  0  0  0  0  0  0  0  0
   -0.4810    0.0414   -0.9343 C   0  0  0  0  0  0  0  0  0  0  0  0
   -0.0594    0.8591    0.0242 C   0  0  0  0  0  0  0  0  0  0  0  0
   -0.6863    1.7387    0.9026 C   0  0  0  0  0  0  0  0  0  0  0  0
   -2.0701    1.7598    0.7304 C   0  0  0  0  0  0  0  0  0  0  0  0
   -2.6634    0.9398   -0.2548 C   0  0  0  0  0  0  0  0  0  0  0  0
   -2.4043   -0.5153   -1.8178 H   0  0  0  0  0  0  0  0  0  0  0  0
    1.5611    0.8229    0.2131 N   0  0  0  0  0  0  0  0  0  0  0  0
    2.6190    0.5261    0.0358 N   0  0  0  0  0  0  0  0  0  0  0  0
   -3.7489    0.9676   -0.3776 H   0  0  0  0  0  0  0  0  0  0  0  0
   -2.6861    2.4068    1.3547 H   0  0  0  0  0  0  0  0  0  0  0  0
   -0.1654    2.3458    1.6436 H   0  0  0  0  0  0  0  0  0  0  0  0
  1  2  2  0  0  0  0
  1  6  1  0  0  0  0
  2  3  1  0  0  0  0
  3  8  1  0  0  0  0
  3  4  2  0  0  0  0
  4 12  1  0  0  0  0
  5  4  1  0  0  0  0
  5 11  1  0  0  0  0
  6  5  2  0  0  0  0
  7  1  1  0  0  0  0
  9  8  1  0  0  0  0
 10  6  1  0  0  0  0
M  RAD  3   2   2   8   2   9   3
M  END
