Coordinates from ORCA-job C6H4-N2-B3LYPG-aug-cc-pVDZ-scan-d09-49-n400
 OpenBabel11091809083D

 12 11  0  0  0  0  0  0  0  0999 V2000
   -2.4189    0.0548   -1.1935 C   0  0  0  0  0  0  0  0  0  0  0  0
   -1.0369   -0.0157   -1.0765 C   0  0  0  0  0  0  0  0  0  0  0  0
   -0.3203    0.6244   -0.2716 C   0  0  0  0  0  0  0  0  0  0  0  0
   -0.7290    1.5441    0.6822 C   0  0  0  0  0  0  0  0  0  0  0  0
   -2.1364    1.6899    0.6445 C   0  0  0  0  0  0  0  0  0  0  0  0
   -2.9485    0.9740   -0.2571 C   0  0  0  0  0  0  0  0  0  0  0  0
   -3.0465   -0.4983   -1.8900 H   0  0  0  0  0  0  0  0  0  0  0  0
    2.9444    1.2861    0.9164 N   0  0  0  0  0  0  0  0  0  0  0  0
    3.7473    0.7206    0.4115 N   0  0  0  0  0  0  0  0  0  0  0  0
   -4.0286    1.1322   -0.2351 H   0  0  0  0  0  0  0  0  0  0  0  0
   -2.6076    2.3849    1.3424 H   0  0  0  0  0  0  0  0  0  0  0  0
   -0.0982    2.0949    1.3767 H   0  0  0  0  0  0  0  0  0  0  0  0
  1  2  2  0  0  0  0
  1  6  1  0  0  0  0
  2  3  1  0  0  0  0
  3  4  2  0  0  0  0
  4 12  1  0  0  0  0
  5  4  1  0  0  0  0
  5 11  1  0  0  0  0
  6 10  1  0  0  0  0
  6  5  2  0  0  0  0
  7  1  1  0  0  0  0
  9  8  3  0  0  0  0
M  RAD  2   2   2   3   2
M  END
