Coordinates from ORCA-job C6H4-N2-B3LYPG-aug-cc-pVDZ-scan-d09-49-n400
 OpenBabel11091809083D

 12 12  0  0  0  0  0  0  0  0999 V2000
   -1.8739    0.1015   -1.0649 C   0  0  0  0  0  0  0  0  0  0  0  0
   -0.4631   -0.0572   -1.0411 C   0  0  0  0  0  0  0  0  0  0  0  0
    0.1611    0.8280    0.0174 C   0  0  0  0  0  0  0  0  0  0  0  0
   -0.6337    1.7055    0.8725 C   0  0  0  0  0  0  0  0  0  0  0  0
   -1.9918    1.7530    0.7340 C   0  0  0  0  0  0  0  0  0  0  0  0
   -2.6185    0.9413   -0.2467 C   0  0  0  0  0  0  0  0  0  0  0  0
   -2.4148   -0.5004   -1.8022 H   0  0  0  0  0  0  0  0  0  0  0  0
    1.2051    0.7897    0.1260 N   0  0  0  0  0  0  0  0  0  0  0  0
    2.3451    0.7253    0.2198 N   0  0  0  0  0  0  0  0  0  0  0  0
   -3.7055    0.9861   -0.3501 H   0  0  0  0  0  0  0  0  0  0  0  0
   -2.5832    2.4085    1.3723 H   0  0  0  0  0  0  0  0  0  0  0  0
   -0.1059    2.3104    1.6127 H   0  0  0  0  0  0  0  0  0  0  0  0
  1  2  2  0  0  0  0
  1  6  1  0  0  0  0
  2  3  1  0  0  0  0
  3  8  1  0  0  0  0
  3  4  2  0  0  0  0
  4 12  1  0  0  0  0
  5  4  1  0  0  0  0
  5 11  1  0  0  0  0
  6  5  2  0  0  0  0
  7  1  1  0  0  0  0
  8  9  1  0  0  0  0
 10  6  1  0  0  0  0
M  RAD  3   2   2   8   2   9   3
M  END
