Coordinates from ORCA-job C6H4-N2-B3LYPG-aug-cc-pVDZ-scan-d09-49-n400
 OpenBabel11091809083D

 12 12  0  0  0  0  0  0  0  0999 V2000
   -1.8930    0.1005   -1.0687 C   0  0  0  0  0  0  0  0  0  0  0  0
   -0.4732    0.0045   -0.9738 C   0  0  0  0  0  0  0  0  0  0  0  0
   -0.0297    0.8438    0.0114 C   0  0  0  0  0  0  0  0  0  0  0  0
   -0.6745    1.7291    0.8937 C   0  0  0  0  0  0  0  0  0  0  0  0
   -2.0518    1.7613    0.7347 C   0  0  0  0  0  0  0  0  0  0  0  0
   -2.6525    0.9417   -0.2511 C   0  0  0  0  0  0  0  0  0  0  0  0
   -2.4214   -0.5064   -1.8105 H   0  0  0  0  0  0  0  0  0  0  0  0
    1.4834    0.7843    0.1597 N   0  0  0  0  0  0  0  0  0  0  0  0
    2.5831    0.6126    0.1262 N   0  0  0  0  0  0  0  0  0  0  0  0
   -3.7388    0.9757   -0.3671 H   0  0  0  0  0  0  0  0  0  0  0  0
   -2.6617    2.4105    1.3623 H   0  0  0  0  0  0  0  0  0  0  0  0
   -0.1490    2.3342    1.6331 H   0  0  0  0  0  0  0  0  0  0  0  0
  1  2  2  0  0  0  0
  1  6  1  0  0  0  0
  2  3  1  0  0  0  0
  3  8  1  0  0  0  0
  3  4  2  0  0  0  0
  4 12  1  0  0  0  0
  5  4  1  0  0  0  0
  5 11  1  0  0  0  0
  6  5  2  0  0  0  0
  7  1  1  0  0  0  0
  9  8  1  0  0  0  0
 10  6  1  0  0  0  0
M  RAD  3   2   2   8   2   9   3
M  END
