Coordinates from ORCA-job C6H4-N2-B3LYPG-aug-cc-pVDZ-scan-d09-49-n400
 OpenBabel11091809083D

 12 11  0  0  0  0  0  0  0  0999 V2000
   -2.6556    0.0604   -1.2209 C   0  0  0  0  0  0  0  0  0  0  0  0
   -1.2776   -0.1161   -1.2219 C   0  0  0  0  0  0  0  0  0  0  0  0
   -0.4531    0.4591   -0.4734 C   0  0  0  0  0  0  0  0  0  0  0  0
   -0.7066    1.3934    0.5191 C   0  0  0  0  0  0  0  0  0  0  0  0
   -2.0980    1.6436    0.5992 C   0  0  0  0  0  0  0  0  0  0  0  0
   -3.0341    1.0034   -0.2365 C   0  0  0  0  0  0  0  0  0  0  0  0
   -3.3792   -0.4341   -1.8665 H   0  0  0  0  0  0  0  0  0  0  0  0
    3.2760    1.4872    1.1838 N   0  0  0  0  0  0  0  0  0  0  0  0
    4.1836    1.0017    0.7843 N   0  0  0  0  0  0  0  0  0  0  0  0
   -4.0935    1.2423   -0.1222 H   0  0  0  0  0  0  0  0  0  0  0  0
   -2.4562    2.3621    1.3395 H   0  0  0  0  0  0  0  0  0  0  0  0
    0.0152    1.8887    1.1653 H   0  0  0  0  0  0  0  0  0  0  0  0
  1  6  1  0  0  0  0
  2  1  2  0  0  0  0
  2  3  1  0  0  0  0
  3  4  2  0  0  0  0
  4  5  1  0  0  0  0
  4 12  1  0  0  0  0
  5 11  1  0  0  0  0
  6 10  1  0  0  0  0
  6  5  2  0  0  0  0
  7  1  1  0  0  0  0
  9  8  3  0  0  0  0
M  RAD  2   2   2   3   2
M  END
