Coordinates from ORCA-job C6H4-N2-B3LYPG-aug-cc-pVDZ-scan-d09-49-n400
 OpenBabel11091809083D

 12 11  0  0  0  0  0  0  0  0999 V2000
   -2.2328    0.0599   -1.1615 C   0  0  0  0  0  0  0  0  0  0  0  0
   -0.8559    0.0582   -0.9692 C   0  0  0  0  0  0  0  0  0  0  0  0
   -0.2295    0.7437   -0.1272 C   0  0  0  0  0  0  0  0  0  0  0  0
   -0.7343    1.6459    0.7937 C   0  0  0  0  0  0  0  0  0  0  0  0
   -2.1428    1.7181    0.6745 C   0  0  0  0  0  0  0  0  0  0  0  0
   -2.8633    0.9553   -0.2658 C   0  0  0  0  0  0  0  0  0  0  0  0
   -2.7908   -0.5289   -1.8876 H   0  0  0  0  0  0  0  0  0  0  0  0
    2.5514    1.0850    0.6405 N   0  0  0  0  0  0  0  0  0  0  0  0
    3.4280    0.5741    0.2042 N   0  0  0  0  0  0  0  0  0  0  0  0
   -3.9496    1.0572   -0.3070 H   0  0  0  0  0  0  0  0  0  0  0  0
   -2.6887    2.3918    1.3382 H   0  0  0  0  0  0  0  0  0  0  0  0
   -0.1708    2.2315    1.5170 H   0  0  0  0  0  0  0  0  0  0  0  0
  1  2  2  0  0  0  0
  1  6  1  0  0  0  0
  2  3  1  0  0  0  0
  3  4  2  0  0  0  0
  4 12  1  0  0  0  0
  5  4  1  0  0  0  0
  5 11  1  0  0  0  0
  6  5  2  0  0  0  0
  7  1  1  0  0  0  0
  9  8  3  0  0  0  0
 10  6  1  0  0  0  0
M  RAD  2   2   2   3   2
M  END
