Coordinates from ORCA-job C6H4-N2-B3LYPG-aug-cc-pVDZ-scan-d09-49-n400
 OpenBabel11091809083D

 12 11  0  0  0  0  0  0  0  0999 V2000
   -1.9634    0.0814   -1.0998 C   0  0  0  0  0  0  0  0  0  0  0  0
   -0.5762    0.1025   -0.8811 C   0  0  0  0  0  0  0  0  0  0  0  0
   -0.1113    0.8641    0.0219 C   0  0  0  0  0  0  0  0  0  0  0  0
   -0.7032    1.7418    0.9034 C   0  0  0  0  0  0  0  0  0  0  0  0
   -2.0997    1.7465    0.7118 C   0  0  0  0  0  0  0  0  0  0  0  0
   -2.7111    0.9357   -0.2659 C   0  0  0  0  0  0  0  0  0  0  0  0
   -2.4551   -0.5389   -1.8511 H   0  0  0  0  0  0  0  0  0  0  0  0
    1.8640    0.9085    0.3494 N   0  0  0  0  0  0  0  0  0  0  0  0
    2.7834    0.4298   -0.0454 N   0  0  0  0  0  0  0  0  0  0  0  0
   -3.7969    0.9730   -0.3779 H   0  0  0  0  0  0  0  0  0  0  0  0
   -2.7159    2.3944    1.3372 H   0  0  0  0  0  0  0  0  0  0  0  0
   -0.1938    2.3532    1.6473 H   0  0  0  0  0  0  0  0  0  0  0  0
  1  2  2  0  0  0  0
  1  6  1  0  0  0  0
  2  3  1  0  0  0  0
  3  4  2  0  0  0  0
  4 12  1  0  0  0  0
  5  4  1  0  0  0  0
  5 11  1  0  0  0  0
  6  5  2  0  0  0  0
  7  1  1  0  0  0  0
  9  8  3  0  0  0  0
 10  6  1  0  0  0  0
M  RAD  2   2   2   3   2
M  END
