Coordinates from ORCA-job C6H4-N2-B3LYPG-aug-cc-pVDZ-scan-d09-49-n400
 OpenBabel11091809083D

 12 11  0  0  0  0  0  0  0  0999 V2000
   -2.2504    0.0591   -1.1648 C   0  0  0  0  0  0  0  0  0  0  0  0
   -0.8731    0.0521   -0.9784 C   0  0  0  0  0  0  0  0  0  0  0  0
   -0.2373    0.7331   -0.1400 C   0  0  0  0  0  0  0  0  0  0  0  0
   -0.7345    1.6371    0.7839 C   0  0  0  0  0  0  0  0  0  0  0  0
   -2.1432    1.7157    0.6718 C   0  0  0  0  0  0  0  0  0  0  0  0
   -2.8720    0.9569   -0.2653 C   0  0  0  0  0  0  0  0  0  0  0  0
   -2.8145   -0.5268   -1.8886 H   0  0  0  0  0  0  0  0  0  0  0  0
    2.5919    1.1036    0.6666 N   0  0  0  0  0  0  0  0  0  0  0  0
    3.4602    0.5860    0.2219 N   0  0  0  0  0  0  0  0  0  0  0  0
   -3.9581    1.0638   -0.3009 H   0  0  0  0  0  0  0  0  0  0  0  0
   -2.6827    2.3914    1.3387 H   0  0  0  0  0  0  0  0  0  0  0  0
   -0.1653    2.2199    1.5049 H   0  0  0  0  0  0  0  0  0  0  0  0
  1  2  2  0  0  0  0
  1  6  1  0  0  0  0
  2  3  1  0  0  0  0
  3  4  2  0  0  0  0
  4 12  1  0  0  0  0
  5  4  1  0  0  0  0
  5 11  1  0  0  0  0
  6  5  2  0  0  0  0
  7  1  1  0  0  0  0
  9  8  3  0  0  0  0
 10  6  1  0  0  0  0
M  RAD  2   2   2   3   2
M  END
