Coordinates from ORCA-job C6H4-N2-B3LYPG-aug-cc-pVDZ-scan-d09-49-n400
 OpenBabel11091809083D

 12 11  0  0  0  0  0  0  0  0999 V2000
   -2.2710    0.0583   -1.1687 C   0  0  0  0  0  0  0  0  0  0  0  0
   -0.8931    0.0445   -0.9896 C   0  0  0  0  0  0  0  0  0  0  0  0
   -0.2468    0.7205   -0.1552 C   0  0  0  0  0  0  0  0  0  0  0  0
   -0.7346    1.6266    0.7723 C   0  0  0  0  0  0  0  0  0  0  0  0
   -2.1435    1.7129    0.6687 C   0  0  0  0  0  0  0  0  0  0  0  0
   -2.8821    0.9589   -0.2646 C   0  0  0  0  0  0  0  0  0  0  0  0
   -2.8424   -0.5240   -1.8895 H   0  0  0  0  0  0  0  0  0  0  0  0
    2.6383    1.1252    0.6967 N   0  0  0  0  0  0  0  0  0  0  0  0
    3.4978    0.6005    0.2434 N   0  0  0  0  0  0  0  0  0  0  0  0
   -3.9678    1.0716   -0.2936 H   0  0  0  0  0  0  0  0  0  0  0  0
   -2.6754    2.3910    1.3393 H   0  0  0  0  0  0  0  0  0  0  0  0
   -0.1584    2.2059    1.4905 H   0  0  0  0  0  0  0  0  0  0  0  0
  1  2  2  0  0  0  0
  1  6  1  0  0  0  0
  2  3  1  0  0  0  0
  3  4  2  0  0  0  0
  4 12  1  0  0  0  0
  5  4  1  0  0  0  0
  5 11  1  0  0  0  0
  6  5  2  0  0  0  0
  7  1  1  0  0  0  0
  9  8  3  0  0  0  0
 10  6  1  0  0  0  0
M  RAD  2   2   2   3   2
M  END
