Coordinates from ORCA-job C6H4-N2-B3LYPG-aug-cc-pVDZ-scan-d09-49-n400
 OpenBabel11091809083D

 12 11  0  0  0  0  0  0  0  0999 V2000
   -2.1658    0.0632   -1.1484 C   0  0  0  0  0  0  0  0  0  0  0  0
   -0.7888    0.0761   -0.9400 C   0  0  0  0  0  0  0  0  0  0  0  0
   -0.2054    0.7811   -0.0826 C   0  0  0  0  0  0  0  0  0  0  0  0
   -0.7291    1.6770    0.8285 C   0  0  0  0  0  0  0  0  0  0  0  0
   -2.1371    1.7262    0.6841 C   0  0  0  0  0  0  0  0  0  0  0  0
   -2.8277    0.9495   -0.2672 C   0  0  0  0  0  0  0  0  0  0  0  0
   -2.7037   -0.5353   -1.8823 H   0  0  0  0  0  0  0  0  0  0  0  0
    2.3926    1.0219    0.5488 N   0  0  0  0  0  0  0  0  0  0  0  0
    3.2942    0.5323    0.1393 N   0  0  0  0  0  0  0  0  0  0  0  0
   -3.9146    1.0340   -0.3275 H   0  0  0  0  0  0  0  0  0  0  0  0
   -2.7053    2.3925    1.3366 H   0  0  0  0  0  0  0  0  0  0  0  0
   -0.1883    2.2732    1.5603 H   0  0  0  0  0  0  0  0  0  0  0  0
  1  2  2  0  0  0  0
  1  6  1  0  0  0  0
  2  3  1  0  0  0  0
  3  4  2  0  0  0  0
  4 12  1  0  0  0  0
  5  4  1  0  0  0  0
  5 11  1  0  0  0  0
  6  5  2  0  0  0  0
  7  1  1  0  0  0  0
  9  8  3  0  0  0  0
 10  6  1  0  0  0  0
M  RAD  2   2   2   3   2
M  END
