Coordinates from ORCA-job C6H4-N2-B3LYPG-aug-cc-pVDZ-scan-d09-49-n400
 OpenBabel11091809083D

 12 12  0  0  0  0  0  0  0  0999 V2000
   -1.8801    0.1004   -1.0671 C   0  0  0  0  0  0  0  0  0  0  0  0
   -0.4652   -0.0511   -1.0337 C   0  0  0  0  0  0  0  0  0  0  0  0
    0.1222    0.8225    0.0101 C   0  0  0  0  0  0  0  0  0  0  0  0
   -0.6382    1.7072    0.8749 C   0  0  0  0  0  0  0  0  0  0  0  0
   -1.9986    1.7547    0.7349 C   0  0  0  0  0  0  0  0  0  0  0  0
   -2.6227    0.9412   -0.2475 C   0  0  0  0  0  0  0  0  0  0  0  0
   -2.4237   -0.4998   -1.8036 H   0  0  0  0  0  0  0  0  0  0  0  0
    1.2561    0.7833    0.1265 N   0  0  0  0  0  0  0  0  0  0  0  0
    2.3862    0.7237    0.2201 N   0  0  0  0  0  0  0  0  0  0  0  0
   -3.7099    0.9867   -0.3509 H   0  0  0  0  0  0  0  0  0  0  0  0
   -2.5931    2.4097    1.3709 H   0  0  0  0  0  0  0  0  0  0  0  0
   -0.1122    2.3132    1.6152 H   0  0  0  0  0  0  0  0  0  0  0  0
  1  2  2  0  0  0  0
  1  6  1  0  0  0  0
  2  3  1  0  0  0  0
  3  8  1  0  0  0  0
  3  4  2  0  0  0  0
  4 12  1  0  0  0  0
  5  4  1  0  0  0  0
  5 11  1  0  0  0  0
  6  5  2  0  0  0  0
  7  1  1  0  0  0  0
  8  9  1  0  0  0  0
 10  6  1  0  0  0  0
M  RAD  3   2   2   8   2   9   3
M  END
