Coordinates from ORCA-job C6H4-N2-B3LYPG-aug-cc-pVDZ-scan-d09-49-n400
 OpenBabel11091809083D

 12 11  0  0  0  0  0  0  0  0999 V2000
   -2.1393    0.0646   -1.1431 C   0  0  0  0  0  0  0  0  0  0  0  0
   -0.7625    0.0835   -0.9283 C   0  0  0  0  0  0  0  0  0  0  0  0
   -0.1942    0.7951   -0.0658 C   0  0  0  0  0  0  0  0  0  0  0  0
   -0.7272    1.6884    0.8413 C   0  0  0  0  0  0  0  0  0  0  0  0
   -2.1345    1.7291    0.6877 C   0  0  0  0  0  0  0  0  0  0  0  0
   -2.8134    0.9471   -0.2677 C   0  0  0  0  0  0  0  0  0  0  0  0
   -2.6692   -0.5377   -1.8800 H   0  0  0  0  0  0  0  0  0  0  0  0
    2.3342    1.0050    0.5219 N   0  0  0  0  0  0  0  0  0  0  0  0
    3.2319    0.5116    0.1080 N   0  0  0  0  0  0  0  0  0  0  0  0
   -3.9004    1.0247   -0.3356 H   0  0  0  0  0  0  0  0  0  0  0  0
   -2.7109    2.3924    1.3358 H   0  0  0  0  0  0  0  0  0  0  0  0
   -0.1936    2.2880    1.5757 H   0  0  0  0  0  0  0  0  0  0  0  0
  1  2  2  0  0  0  0
  1  6  1  0  0  0  0
  2  3  1  0  0  0  0
  3  4  2  0  0  0  0
  4 12  1  0  0  0  0
  5  4  1  0  0  0  0
  5 11  1  0  0  0  0
  6  5  2  0  0  0  0
  7  1  1  0  0  0  0
  9  8  3  0  0  0  0
 10  6  1  0  0  0  0
M  RAD  2   2   2   3   2
M  END
