Coordinates from ORCA-job C6H4-N2-B3LYPG-aug-cc-pVDZ-scan-d09-49-n400
 OpenBabel11091809083D

 12 11  0  0  0  0  0  0  0  0999 V2000
   -2.4543    0.0546   -1.1987 C   0  0  0  0  0  0  0  0  0  0  0  0
   -1.0717   -0.0319   -1.0992 C   0  0  0  0  0  0  0  0  0  0  0  0
   -0.3397    0.5997   -0.3017 C   0  0  0  0  0  0  0  0  0  0  0  0
   -0.7242    1.5222    0.6588 C   0  0  0  0  0  0  0  0  0  0  0  0
   -2.1307    1.6834    0.6381 C   0  0  0  0  0  0  0  0  0  0  0  0
   -2.9619    0.9782   -0.2543 C   0  0  0  0  0  0  0  0  0  0  0  0
   -3.0967   -0.4901   -1.8882 H   0  0  0  0  0  0  0  0  0  0  0  0
    2.9960    1.3169    0.9575 N   0  0  0  0  0  0  0  0  0  0  0  0
    3.8125    0.7604    0.4648 N   0  0  0  0  0  0  0  0  0  0  0  0
   -4.0398    1.1486   -0.2186 H   0  0  0  0  0  0  0  0  0  0  0  0
   -2.5857    2.3824    1.3429 H   0  0  0  0  0  0  0  0  0  0  0  0
   -0.0830    2.0672    1.3484 H   0  0  0  0  0  0  0  0  0  0  0  0
  1  2  2  0  0  0  0
  1  6  1  0  0  0  0
  2  3  1  0  0  0  0
  3  4  2  0  0  0  0
  4 12  1  0  0  0  0
  5  4  1  0  0  0  0
  5 11  1  0  0  0  0
  6 10  1  0  0  0  0
  6  5  2  0  0  0  0
  7  1  1  0  0  0  0
  9  8  3  0  0  0  0
M  RAD  2   2   2   3   2
M  END
