Coordinates from ORCA-job C6H4-N2-B3LYPG-aug-cc-pVDZ-scan-d09-49-n400
 OpenBabel11091809083D

 12 11  0  0  0  0  0  0  0  0999 V2000
   -2.2446    0.0594   -1.1637 C   0  0  0  0  0  0  0  0  0  0  0  0
   -0.8674    0.0542   -0.9753 C   0  0  0  0  0  0  0  0  0  0  0  0
   -0.2346    0.7366   -0.1357 C   0  0  0  0  0  0  0  0  0  0  0  0
   -0.7344    1.6400    0.7872 C   0  0  0  0  0  0  0  0  0  0  0  0
   -2.1431    1.7165    0.6727 C   0  0  0  0  0  0  0  0  0  0  0  0
   -2.8691    0.9564   -0.2655 C   0  0  0  0  0  0  0  0  0  0  0  0
   -2.8066   -0.5275   -1.8883 H   0  0  0  0  0  0  0  0  0  0  0  0
    2.5785    1.0974    0.6579 N   0  0  0  0  0  0  0  0  0  0  0  0
    3.4494    0.5819    0.2159 N   0  0  0  0  0  0  0  0  0  0  0  0
   -3.9553    1.0616   -0.3029 H   0  0  0  0  0  0  0  0  0  0  0  0
   -2.6847    2.3916    1.3386 H   0  0  0  0  0  0  0  0  0  0  0  0
   -0.1672    2.2238    1.5089 H   0  0  0  0  0  0  0  0  0  0  0  0
  1  2  2  0  0  0  0
  1  6  1  0  0  0  0
  2  3  1  0  0  0  0
  3  4  2  0  0  0  0
  4 12  1  0  0  0  0
  5  4  1  0  0  0  0
  5 11  1  0  0  0  0
  6  5  2  0  0  0  0
  7  1  1  0  0  0  0
  9  8  3  0  0  0  0
 10  6  1  0  0  0  0
M  RAD  2   2   2   3   2
M  END
