Coordinates from ORCA-job C6H4-N2-B3LYPG-aug-cc-pVDZ-scan-d09-49-n400
 OpenBabel11091809083D

 12 11  0  0  0  0  0  0  0  0999 V2000
   -2.0179    0.0741   -1.1155 C   0  0  0  0  0  0  0  0  0  0  0  0
   -0.6391    0.1101   -0.8818 C   0  0  0  0  0  0  0  0  0  0  0  0
   -0.1390    0.8521    0.0045 C   0  0  0  0  0  0  0  0  0  0  0  0
   -0.7172    1.7335    0.8922 C   0  0  0  0  0  0  0  0  0  0  0  0
   -2.1177    1.7416    0.7038 C   0  0  0  0  0  0  0  0  0  0  0  0
   -2.7457    0.9375   -0.2687 C   0  0  0  0  0  0  0  0  0  0  0  0
   -2.5145   -0.5433   -1.8644 H   0  0  0  0  0  0  0  0  0  0  0  0
    2.0464    0.9357    0.4047 N   0  0  0  0  0  0  0  0  0  0  0  0
    2.9321    0.4293   -0.0244 N   0  0  0  0  0  0  0  0  0  0  0  0
   -3.8320    0.9848   -0.3697 H   0  0  0  0  0  0  0  0  0  0  0  0
   -2.7272    2.3924    1.3336 H   0  0  0  0  0  0  0  0  0  0  0  0
   -0.2072    2.3441    1.6354 H   0  0  0  0  0  0  0  0  0  0  0  0
  1  2  2  0  0  0  0
  1  6  1  0  0  0  0
  2  3  1  0  0  0  0
  3  4  2  0  0  0  0
  4 12  1  0  0  0  0
  5  4  1  0  0  0  0
  5 11  1  0  0  0  0
  6  5  2  0  0  0  0
  7  1  1  0  0  0  0
  9  8  3  0  0  0  0
 10  6  1  0  0  0  0
M  RAD  2   2   2   3   2
M  END
