10
Coordinates from ORCA-job Imidazole-4-N2+-scan-d09-160-n800
  N   1.34210206632249      0.74492727400921      0.11702573517504
  N   2.45057856777714      0.63513742452961      0.19107157207457
  C   -0.01053849641651      0.84864104046694      0.01323149181046
  C   -1.97521551853612      0.27244936135509     -0.45996161963450
  H   -2.85818124721723     -0.25684583158283     -0.79255491746026
  N   -2.03458440098542      1.54309652936659      0.09731357201154
  H   -2.87745595412836      2.09006378095883      0.24675764917095
  C   -0.78595997993685      1.93960388473299      0.41130399349634
  H   -0.53836202884330      2.89080616172838      0.86072440472916
  N   -0.75038300803585     -0.17427962556480     -0.52271188137330
