1,2-(CH3)2-C2H3-UB3LYP-aug-cc-pVDZ-Doublet.log
 OpenBabel04131813123D
Gaussian home/ubuntu/g09/g09 #p Temperature=298.15 opt freq UB3LYP/aug-cc-pVDZ
 13 12  0  0  0  0  0  0  0  0999 V2000
   -0.0001    0.0001   -0.1586 C   0  0  0  0  0  0  0  0  0  0  0  0
    0.0452    1.4854    0.0155 C   0  0  0  0  0  0  0  0  0  0  0  0
   -0.8319    1.9759   -0.4325 H   0  0  0  0  0  0  0  0  0  0  0  0
    0.0535    1.7730    1.0886 H   0  0  0  0  0  0  0  0  0  0  0  0
    0.9511    1.9210   -0.4316 H   0  0  0  0  0  0  0  0  0  0  0  0
    1.2640   -0.7818    0.0155 C   0  0  0  0  0  0  0  0  0  0  0  0
    1.5102   -0.9310    1.0886 H   0  0  0  0  0  0  0  0  0  0  0  0
    1.1879   -1.7849   -0.4300 H   0  0  0  0  0  0  0  0  0  0  0  0
    2.1269   -0.2683   -0.4342 H   0  0  0  0  0  0  0  0  0  0  0  0
   -1.3091   -0.7036    0.0155 C   0  0  0  0  0  0  0  0  0  0  0  0
   -1.5639   -0.8375    1.0886 H   0  0  0  0  0  0  0  0  0  0  0  0
   -2.1392   -0.1387   -0.4343 H   0  0  0  0  0  0  0  0  0  0  0  0
   -1.2942   -1.7095   -0.4298 H   0  0  0  0  0  0  0  0  0  0  0  0
  1  6  1  0  0  0  0
  1  2  1  0  0  0  0
  1 10  1  0  0  0  0
  2  4  1  0  0  0  0
  3  2  1  0  0  0  0
  5  2  1  0  0  0  0
  6  7  1  0  0  0  0
  8  6  1  0  0  0  0
  9  6  1  0  0  0  0
 10 11  1  0  0  0  0
 12 10  1  0  0  0  0
 13 10  1  0  0  0  0
M  RAD  1   1   2
M  END
