1,2,4-Triazine-6-N2+-UB3LYP-aug-cc-pVDZ-Triplet.log
 OpenBabel04131813123D
Gaussian home/ubuntu/g09/g09 #p Temperature=298.15 opt freq UB3LYP/aug-cc-pVDZ
 10 10  0  0  0  0  0  0  0  0999 V2000
    0.5782   -0.0080    0.0001 C   0  0  0  0  0  0  0  0  0  0  0  0
   -0.2201    1.2022   -0.0001 C   0  0  0  0  0  0  0  0  0  0  0  0
    1.9100   -0.0206    0.0002 N   0  0  0  0  0  0  0  0  0  0  0  0
    3.0495   -0.0145   -0.0001 N   0  0  0  0  0  0  0  0  0  0  0  0
    0.2702    2.1809   -0.0000 H   0  0  0  0  0  0  0  0  0  0  0  0
   -0.1274   -1.1904    0.0001 N   0  0  0  0  0  0  0  0  0  0  0  0
   -1.5117    1.1317    0.0001 N   0  0  0  0  0  0  0  0  0  0  0  0
   -1.3645   -1.1536   -0.0001 N   0  0  0  0  0  0  0  0  0  0  0  0
   -2.1470   -0.0740   -0.0000 C   0  0  0  0  0  0  0  0  0  0  0  0
   -3.2274   -0.1711    0.0003 H   0  0  0  0  0  0  0  0  0  0  0  0
  1  3  1  0  0  0  0
  2  5  1  0  0  0  0
  2  7  2  0  0  0  0
  2  1  1  0  0  0  0
  4  3  1  0  0  0  0
  6  1  2  0  0  0  0
  8  9  2  0  0  0  0
  8  6  1  0  0  0  0
  9  7  1  0  0  0  0
  9 10  1  0  0  0  0
M  RAD  2   3   2   4   3
M  END
