1,2,4-Triazine-3-N2+-UB3LYP-aug-cc-pVDZ-Triplet.log
 OpenBabel04131813123D
Gaussian home/ubuntu/g09/g09 #p Temperature=298.15 opt freq UB3LYP/aug-cc-pVDZ
 10 10  0  0  0  0  0  0  0  0999 V2000
   -0.5639    0.0313    0.0006 C   0  0  0  0  0  0  0  0  0  0  0  0
   -1.8970    0.0202    0.0003 N   0  0  0  0  0  0  0  0  0  0  0  0
   -3.0373    0.0097   -0.0006 N   0  0  0  0  0  0  0  0  0  0  0  0
    2.1472   -0.1278   -0.0001 C   0  0  0  0  0  0  0  0  0  0  0  0
    3.2270   -0.2478   -0.0000 H   0  0  0  0  0  0  0  0  0  0  0  0
    1.4390    1.1319   -0.0004 C   0  0  0  0  0  0  0  0  0  0  0  0
    2.0054    2.0683    0.0001 H   0  0  0  0  0  0  0  0  0  0  0  0
    0.1397    1.1863    0.0003 N   0  0  0  0  0  0  0  0  0  0  0  0
    0.1146   -1.1815    0.0001 N   0  0  0  0  0  0  0  0  0  0  0  0
    1.3420   -1.1822   -0.0001 N   0  0  0  0  0  0  0  0  0  0  0  0
  2  1  1  0  0  0  0
  3  2  1  0  0  0  0
  4 10  1  0  0  0  0
  4  5  1  0  0  0  0
  6  4  2  0  0  0  0
  6  7  1  0  0  0  0
  6  8  1  0  0  0  0
  8  1  2  0  0  0  0
  9  1  1  0  0  0  0
 10  9  2  0  0  0  0
M  RAD  2   2   2   3   3
M  END
