1,3,5-Triazine-2+-UB3LYP-aug-cc-pVDZ-Triplet.log
 OpenBabel04131813123D
Gaussian home/ubuntu/g09/g09 #p Temperature=298.15 opt freq UB3LYP/aug-cc-pVDZ
  8  8  0  0  0  0  0  0  0  0999 V2000
    1.1273   -0.6108   -0.0001 C   0  0  0  0  0  0  0  0  0  0  0  0
    0.0002    1.4385    0.0000 C   0  0  0  0  0  0  0  0  0  0  0  0
   -1.1275   -0.6104    0.0001 C   0  0  0  0  0  0  0  0  0  0  0  0
    2.0992   -1.1120    0.0001 H   0  0  0  0  0  0  0  0  0  0  0  0
   -2.0996   -1.1113   -0.0001 H   0  0  0  0  0  0  0  0  0  0  0  0
   -0.0002   -1.3233    0.0000 N   0  0  0  0  0  0  0  0  0  0  0  0
    1.0881    0.7272    0.0000 N   0  0  0  0  0  0  0  0  0  0  0  0
   -1.0879    0.7275   -0.0000 N   0  0  0  0  0  0  0  0  0  0  0  0
  1  6  2  0  0  0  0
  1  7  1  0  0  0  0
  1  4  1  0  0  0  0
  2  7  2  0  0  0  0
  5  3  1  0  0  0  0
  6  3  1  0  0  0  0
  8  2  1  0  0  0  0
  8  3  2  0  0  0  0
M  RAD  1   2   2
M  END
