1,3,5-Triazine-2+-UB3LYP-aug-cc-pVDZ-Singlet.log
 OpenBabel04131813123D
Gaussian home/ubuntu/g09/g09 #p Temperature=298.15 opt freq UB3LYP/aug-cc-pVDZ
  8  8  0  0  0  0  0  0  0  0999 V2000
    1.1487    0.6028   -0.0000 C   0  0  0  0  0  0  0  0  0  0  0  0
    0.0000   -1.1575    0.0000 C   0  0  0  0  0  0  0  0  0  0  0  0
   -1.1487    0.6028    0.0000 C   0  0  0  0  0  0  0  0  0  0  0  0
    2.1132    1.1127    0.0000 H   0  0  0  0  0  0  0  0  0  0  0  0
   -2.1132    1.1127    0.0000 H   0  0  0  0  0  0  0  0  0  0  0  0
   -0.0000    1.2504    0.0000 N   0  0  0  0  0  0  0  0  0  0  0  0
    1.1824   -0.8048    0.0000 N   0  0  0  0  0  0  0  0  0  0  0  0
   -1.1824   -0.8048   -0.0000 N   0  0  0  0  0  0  0  0  0  0  0  0
  1  6  2  0  0  0  0
  1  4  1  0  0  0  0
  1  7  1  0  0  0  0
  2  7  2  0  0  0  0
  5  3  1  0  0  0  0
  6  3  1  0  0  0  0
  8  2  1  0  0  0  0
  8  3  2  0  0  0  0
M  RAD  1   2   2
M  END
