1,3,5-(CH3)3-Pyrazole-4-N2+-RB3LYP-aug-cc-pVDZ-Singlet.log
 OpenBabel04131813123D
Gaussian home/ubuntu/g09/g09 #p Temperature=298.15 opt freq RB3LYP/aug-cc-pVDZ
 19 19  0  0  0  0  0  0  0  0999 V2000
    1.7831    1.0192   -0.0000 N   0  0  0  0  0  0  0  0  0  0  0  0
    2.7349    1.6131    0.0000 N   0  0  0  0  0  0  0  0  0  0  0  0
    0.6785    0.2659   -0.0000 C   0  0  0  0  0  0  0  0  0  0  0  0
    0.6184   -1.1809    0.0000 C   0  0  0  0  0  0  0  0  0  0  0  0
   -1.3906   -0.3593   -0.0000 N   0  0  0  0  0  0  0  0  0  0  0  0
   -0.6576    0.7544   -0.0000 C   0  0  0  0  0  0  0  0  0  0  0  0
   -0.6491   -1.5213   -0.0000 N   0  0  0  0  0  0  0  0  0  0  0  0
   -1.1744    2.1526   -0.0000 C   0  0  0  0  0  0  0  0  0  0  0  0
   -1.7902    2.3422    0.8900 H   0  0  0  0  0  0  0  0  0  0  0  0
   -0.3481    2.8716   -0.0000 H   0  0  0  0  0  0  0  0  0  0  0  0
   -1.7903    2.3422   -0.8899 H   0  0  0  0  0  0  0  0  0  0  0  0
    1.7362   -2.1655    0.0000 C   0  0  0  0  0  0  0  0  0  0  0  0
    2.3701   -2.0419   -0.8896 H   0  0  0  0  0  0  0  0  0  0  0  0
    2.3701   -2.0419    0.8895 H   0  0  0  0  0  0  0  0  0  0  0  0
    1.3230   -3.1789    0.0000 H   0  0  0  0  0  0  0  0  0  0  0  0
   -2.8476   -0.4887    0.0000 C   0  0  0  0  0  0  0  0  0  0  0  0
   -3.1516   -1.0431    0.8945 H   0  0  0  0  0  0  0  0  0  0  0  0
   -3.3005    0.5052   -0.0003 H   0  0  0  0  0  0  0  0  0  0  0  0
   -3.1516   -1.0437   -0.8941 H   0  0  0  0  0  0  0  0  0  0  0  0
  1  3  1  0  0  0  0
  1  2  1  0  0  0  0
  3  4  1  0  0  0  0
  5  7  1  0  0  0  0
  5 16  1  0  0  0  0
  6  3  2  0  0  0  0
  6  5  1  0  0  0  0
  6  8  1  0  0  0  0
  7  4  2  0  0  0  0
  8  9  1  0  0  0  0
 10  8  1  0  0  0  0
 11  8  1  0  0  0  0
 12  4  1  0  0  0  0
 12 14  1  0  0  0  0
 13 12  1  0  0  0  0
 15 12  1  0  0  0  0
 16 17  1  0  0  0  0
 18 16  1  0  0  0  0
 19 16  1  0  0  0  0
M  RAD  2   1   2   2   3
M  END
