1,3,5-Triazine-2-UB3LYP-aug-cc-pVDZ-Doublet.log
 OpenBabel04131813123D
Gaussian home/ubuntu/g09/g09 #p Temperature=298.15 opt freq UB3LYP/aug-cc-pVDZ
  8  8  0  0  0  0  0  0  0  0999 V2000
    1.1289    0.5909    0.0002 C   0  0  0  0  0  0  0  0  0  0  0  0
    0.0000   -1.3159    0.0000 C   0  0  0  0  0  0  0  0  0  0  0  0
   -1.1289    0.5909   -0.0002 C   0  0  0  0  0  0  0  0  0  0  0  0
    2.0758    1.1337   -0.0002 H   0  0  0  0  0  0  0  0  0  0  0  0
   -2.0759    1.1336    0.0002 H   0  0  0  0  0  0  0  0  0  0  0  0
   -0.0000    1.3030    0.0000 N   0  0  0  0  0  0  0  0  0  0  0  0
    1.1850   -0.7560   -0.0001 N   0  0  0  0  0  0  0  0  0  0  0  0
   -1.1850   -0.7560    0.0001 N   0  0  0  0  0  0  0  0  0  0  0  0
  2  8  2  0  0  0  0
  3  6  2  0  0  0  0
  3  8  1  0  0  0  0
  3  5  1  0  0  0  0
  4  1  1  0  0  0  0
  6  1  1  0  0  0  0
  7  2  1  0  0  0  0
  7  1  2  0  0  0  0
M  RAD  1   2   2
M  END
