1H-1,2,3-Triazole-5-N2+-RB3LYP-aug-cc-pVDZ-Singlet.log
 OpenBabel04131813123D
Gaussian home/ubuntu/g09/g09 #p Temperature=298.15 opt=(maxcycles=1024) SCF=(max
  9  9  0  0  0  0  0  0  0  0999 V2000
    1.6476    0.0056   -0.0001 N   0  0  0  0  0  0  0  0  0  0  0  0
    2.7662    0.0099   -0.0001 N   0  0  0  0  0  0  0  0  0  0  0  0
    0.3013    0.0539   -0.0001 C   0  0  0  0  0  0  0  0  0  0  0  0
   -0.5678    1.1527    0.0002 C   0  0  0  0  0  0  0  0  0  0  0  0
   -0.3473    2.2164    0.0004 H   0  0  0  0  0  0  0  0  0  0  0  0
   -0.5089   -1.0564    0.0004 N   0  0  0  0  0  0  0  0  0  0  0  0
   -0.2749   -2.0489    0.0006 H   0  0  0  0  0  0  0  0  0  0  0  0
   -1.7720   -0.6659   -0.0005 N   0  0  0  0  0  0  0  0  0  0  0  0
   -1.8156    0.6487   -0.0000 N   0  0  0  0  0  0  0  0  0  0  0  0
  1  3  1  0  0  0  0
  1  2  1  0  0  0  0
  3  4  2  0  0  0  0
  3  6  1  0  0  0  0
  4  5  1  0  0  0  0
  6  7  1  0  0  0  0
  8  9  2  0  0  0  0
  8  6  1  0  0  0  0
  9  4  1  0  0  0  0
M  RAD  2   1   2   2   3
M  END
