2H-1,2,3-Triazole-4+-UB3LYP-aug-cc-pVDZ-Triplet.log
 OpenBabel04131813133D
Gaussian home/ubuntu/g09/g09 #p Temperature=298.15 opt=(maxcycles=1024) SCF=(max
  7  7  0  0  0  0  0  0  0  0999 V2000
    0.0476    1.2084   -0.0000 C   0  0  0  0  0  0  0  0  0  0  0  0
    1.1838    0.2429    0.0001 C   0  0  0  0  0  0  0  0  0  0  0  0
    2.2542    0.4382    0.0002 H   0  0  0  0  0  0  0  0  0  0  0  0
   -0.7190   -0.6913    0.0001 N   0  0  0  0  0  0  0  0  0  0  0  0
   -1.3857   -1.4756    0.0004 H   0  0  0  0  0  0  0  0  0  0  0  0
   -1.1156    0.5428   -0.0001 N   0  0  0  0  0  0  0  0  0  0  0  0
    0.6551   -0.9472   -0.0002 N   0  0  0  0  0  0  0  0  0  0  0  0
  1  2  1  0  0  0  0
  2  3  1  0  0  0  0
  4  5  1  0  0  0  0
  6  1  2  0  0  0  0
  6  4  1  0  0  0  0
  7  4  1  0  0  0  0
  7  2  2  0  0  0  0
M  RAD  1   1   2
M  END
