4-CH3O-Ph-N2-UB3LYP-aug-cc-pVDZ-Doublet.log
 OpenBabel04131813133D
Gaussian home/ubuntu/g09/g09 #p Temperature=298.15 opt freq UB3LYP/aug-cc-pVDZ
 17 17  0  0  0  0  0  0  0  0999 V2000
    0.3184    1.3550   -0.0002 C   0  0  0  0  0  0  0  0  0  0  0  0
   -1.0462    1.1113   -0.0003 C   0  0  0  0  0  0  0  0  0  0  0  0
   -1.5123   -0.2141   -0.0002 C   0  0  0  0  0  0  0  0  0  0  0  0
   -0.6147   -1.2790   -0.0003 C   0  0  0  0  0  0  0  0  0  0  0  0
    0.7634   -1.0403   -0.0001 C   0  0  0  0  0  0  0  0  0  0  0  0
    1.2326    0.2817    0.0000 C   0  0  0  0  0  0  0  0  0  0  0  0
    0.7088    2.3721   -0.0007 H   0  0  0  0  0  0  0  0  0  0  0  0
   -1.7601    1.9343   -0.0005 H   0  0  0  0  0  0  0  0  0  0  0  0
   -1.0008   -2.2979   -0.0003 H   0  0  0  0  0  0  0  0  0  0  0  0
    1.4491   -1.8834   -0.0000 H   0  0  0  0  0  0  0  0  0  0  0  0
   -2.9248   -0.5442   -0.0003 N   0  0  0  0  0  0  0  0  0  0  0  0
   -3.8141    0.2400    0.0008 N   0  0  0  0  0  0  0  0  0  0  0  0
    2.5470    0.6337    0.0002 O   0  0  0  0  0  0  0  0  0  0  0  0
    3.5282   -0.4010    0.0002 C   0  0  0  0  0  0  0  0  0  0  0  0
    4.4957    0.1094    0.0003 H   0  0  0  0  0  0  0  0  0  0  0  0
    3.4436   -1.0285   -0.8998 H   0  0  0  0  0  0  0  0  0  0  0  0
    3.4435   -1.0285    0.9003 H   0  0  0  0  0  0  0  0  0  0  0  0
  1  6  1  0  0  0  0
  2  1  2  0  0  0  0
  2  3  1  0  0  0  0
  4  3  2  0  0  0  0
  4  5  1  0  0  0  0
  5 10  1  0  0  0  0
  5  6  2  0  0  0  0
  6 13  1  0  0  0  0
  7  1  1  0  0  0  0
  8  2  1  0  0  0  0
  9  4  1  0  0  0  0
 11  3  1  0  0  0  0
 11 12  2  0  0  0  0
 13 14  1  0  0  0  0
 14 15  1  0  0  0  0
 14 17  1  0  0  0  0
 16 14  1  0  0  0  0
M  RAD  1  12   2
M  END
