C13H18N6++-UB3LYP-aug-cc-pVDZ-Triplet.log
 OpenBabel04131813133D
Gaussian home/ubuntu/g09/g09 #p Temperature=298.15 opt freq UB3LYP/aug-cc-pVDZ
 37 38  0  0  0  0  0  0  0  0999 V2000
   -5.0033    0.3012    0.6527 C   0  0  0  0  0  0  0  0  0  0  0  0
   -4.4818   -1.0208    0.9207 C   0  0  0  0  0  0  0  0  0  0  0  0
   -3.1285    0.1204   -0.4280 N   0  0  0  0  0  0  0  0  0  0  0  0
   -4.0865    1.0009   -0.2315 C   0  0  0  0  0  0  0  0  0  0  0  0
   -3.3489   -1.1193    0.2691 N   0  0  0  0  0  0  0  0  0  0  0  0
   -4.2308    2.3681   -0.7802 C   0  0  0  0  0  0  0  0  0  0  0  0
   -5.1325    2.4098   -1.4118 H   0  0  0  0  0  0  0  0  0  0  0  0
   -4.3970    3.0748    0.0465 H   0  0  0  0  0  0  0  0  0  0  0  0
   -3.3662    2.6902   -1.3663 H   0  0  0  0  0  0  0  0  0  0  0  0
   -5.0651   -2.1022    1.7546 C   0  0  0  0  0  0  0  0  0  0  0  0
   -5.1988   -1.7494    2.7873 H   0  0  0  0  0  0  0  0  0  0  0  0
   -6.0605   -2.3712    1.3729 H   0  0  0  0  0  0  0  0  0  0  0  0
   -4.4183   -2.9845    1.7461 H   0  0  0  0  0  0  0  0  0  0  0  0
   -1.9281    0.1662   -1.2684 C   0  0  0  0  0  0  0  0  0  0  0  0
   -1.9778    1.0824   -1.8653 H   0  0  0  0  0  0  0  0  0  0  0  0
   -2.0054   -0.6956   -1.9459 H   0  0  0  0  0  0  0  0  0  0  0  0
   -0.6403    0.1005   -0.4287 C   0  0  0  0  0  0  0  0  0  0  0  0
   -0.5745    0.9812    0.2212 H   0  0  0  0  0  0  0  0  0  0  0  0
   -0.6607   -0.7935    0.2064 H   0  0  0  0  0  0  0  0  0  0  0  0
    0.5876    0.0598   -1.3529 C   0  0  0  0  0  0  0  0  0  0  0  0
    0.5941    0.9198   -2.0364 H   0  0  0  0  0  0  0  0  0  0  0  0
    0.6059   -0.8551   -1.9541 H   0  0  0  0  0  0  0  0  0  0  0  0
    1.8429    0.1094   -0.5925 N   0  0  0  0  0  0  0  0  0  0  0  0
    2.8877   -0.7253   -0.6616 C   0  0  0  0  0  0  0  0  0  0  0  0
    3.8339   -0.1299    0.2112 C   0  0  0  0  0  0  0  0  0  0  0  0
    3.2480    1.0769    0.7518 C   0  0  0  0  0  0  0  0  0  0  0  0
    2.0418    1.1900    0.2413 N   0  0  0  0  0  0  0  0  0  0  0  0
    2.9842   -1.9589   -1.4934 C   0  0  0  0  0  0  0  0  0  0  0  0
    2.1689   -2.6578   -1.2624 H   0  0  0  0  0  0  0  0  0  0  0  0
    2.9375   -1.7134   -2.5639 H   0  0  0  0  0  0  0  0  0  0  0  0
    3.9314   -2.4771   -1.3097 H   0  0  0  0  0  0  0  0  0  0  0  0
    3.8384    2.0569    1.7055 C   0  0  0  0  0  0  0  0  0  0  0  0
    4.0879    1.5750    2.6615 H   0  0  0  0  0  0  0  0  0  0  0  0
    4.7600    2.4952    1.2971 H   0  0  0  0  0  0  0  0  0  0  0  0
    3.1208    2.8614    1.8926 H   0  0  0  0  0  0  0  0  0  0  0  0
    5.0612   -0.6088    0.4748 N   0  0  0  0  0  0  0  0  0  0  0  0
    6.0918   -0.9705    0.7218 N   0  0  0  0  0  0  0  0  0  0  0  0
  1  2  1  0  0  0  0
  2 10  1  0  0  0  0
  3  4  1  0  0  0  0
  3  5  1  0  0  0  0
  4  1  2  0  0  0  0
  5  2  2  0  0  0  0
  6  4  1  0  0  0  0
  6  8  1  0  0  0  0
  7  6  1  0  0  0  0
  9  6  1  0  0  0  0
 10 11  1  0  0  0  0
 12 10  1  0  0  0  0
 13 10  1  0  0  0  0
 14 17  1  0  0  0  0
 14  3  1  0  0  0  0
 15 14  1  0  0  0  0
 16 14  1  0  0  0  0
 17 19  1  0  0  0  0
 17 18  1  0  0  0  0
 20 23  1  0  0  0  0
 20 17  1  0  0  0  0
 21 20  1  0  0  0  0
 22 20  1  0  0  0  0
 23 27  1  0  0  0  0
 24 23  1  0  0  0  0
 24 25  2  0  0  0  0
 25 36  1  0  0  0  0
 25 26  1  0  0  0  0
 26 32  1  0  0  0  0
 27 26  2  0  0  0  0
 28 31  1  0  0  0  0
 28 29  1  0  0  0  0
 28 24  1  0  0  0  0
 30 28  1  0  0  0  0
 32 35  1  0  0  0  0
 32 33  1  0  0  0  0
 34 32  1  0  0  0  0
 36 37  1  0  0  0  0
M  RAD  3   1   2  36   2  37   3
M  END
