C13H18N6-N2++-RB3LYP-aug-cc-pVDZ-Singlet.log
 OpenBabel04131813133D
Gaussian home/ubuntu/g09/g09 #p Temperature=298.15 opt freq RB3LYP/aug-cc-pVDZ
 39 40  0  0  0  0  0  0  0  0999 V2000
   -5.6589   -0.4927   -0.6427 N   0  0  0  0  0  0  0  0  0  0  0  0
   -6.6809   -0.8280   -0.9552 N   0  0  0  0  0  0  0  0  0  0  0  0
   -4.4410   -0.0447   -0.2986 C   0  0  0  0  0  0  0  0  0  0  0  0
   -3.8192    1.1835   -0.7426 C   0  0  0  0  0  0  0  0  0  0  0  0
   -2.4859    0.1248    0.6059 N   0  0  0  0  0  0  0  0  0  0  0  0
   -3.5394   -0.6996    0.5801 C   0  0  0  0  0  0  0  0  0  0  0  0
   -2.6363    1.2523   -0.1738 N   0  0  0  0  0  0  0  0  0  0  0  0
   -3.6849   -1.9772    1.3348 C   0  0  0  0  0  0  0  0  0  0  0  0
   -3.6956   -1.7916    2.4182 H   0  0  0  0  0  0  0  0  0  0  0  0
   -4.6224   -2.4782    1.0713 H   0  0  0  0  0  0  0  0  0  0  0  0
   -2.8602   -2.6667    1.1099 H   0  0  0  0  0  0  0  0  0  0  0  0
   -4.3564    2.2237   -1.6636 C   0  0  0  0  0  0  0  0  0  0  0  0
   -4.5672    1.8007   -2.6561 H   0  0  0  0  0  0  0  0  0  0  0  0
   -5.2909    2.6499   -1.2720 H   0  0  0  0  0  0  0  0  0  0  0  0
   -3.6227    3.0283   -1.7718 H   0  0  0  0  0  0  0  0  0  0  0  0
   -1.2593    0.0117    1.4065 C   0  0  0  0  0  0  0  0  0  0  0  0
   -1.3408   -0.9051    1.9997 H   0  0  0  0  0  0  0  0  0  0  0  0
   -1.2535    0.8665    2.0960 H   0  0  0  0  0  0  0  0  0  0  0  0
    0.0000    0.0002    0.5270 C   0  0  0  0  0  0  0  0  0  0  0  0
   -0.0002   -0.8875   -0.1170 H   0  0  0  0  0  0  0  0  0  0  0  0
    0.0003    0.8881   -0.1166 H   0  0  0  0  0  0  0  0  0  0  0  0
    1.2593   -0.0118    1.4066 C   0  0  0  0  0  0  0  0  0  0  0  0
    1.2534   -0.8668    2.0957 H   0  0  0  0  0  0  0  0  0  0  0  0
    1.3409    0.9048    2.0000 H   0  0  0  0  0  0  0  0  0  0  0  0
    2.4858   -0.1248    0.6060 N   0  0  0  0  0  0  0  0  0  0  0  0
    3.5394    0.6996    0.5802 C   0  0  0  0  0  0  0  0  0  0  0  0
    4.4410    0.0447   -0.2985 C   0  0  0  0  0  0  0  0  0  0  0  0
    3.8193   -1.1835   -0.7426 C   0  0  0  0  0  0  0  0  0  0  0  0
    2.6364   -1.2524   -0.1738 N   0  0  0  0  0  0  0  0  0  0  0  0
    3.6847    1.9772    1.3349 C   0  0  0  0  0  0  0  0  0  0  0  0
    2.8600    2.6666    1.1099 H   0  0  0  0  0  0  0  0  0  0  0  0
    3.6954    1.7917    2.4183 H   0  0  0  0  0  0  0  0  0  0  0  0
    4.6223    2.4783    1.0714 H   0  0  0  0  0  0  0  0  0  0  0  0
    4.3565   -2.2236   -1.6636 C   0  0  0  0  0  0  0  0  0  0  0  0
    4.5668   -1.8007   -2.6562 H   0  0  0  0  0  0  0  0  0  0  0  0
    5.2913   -2.6494   -1.2724 H   0  0  0  0  0  0  0  0  0  0  0  0
    3.6230   -3.0285   -1.7715 H   0  0  0  0  0  0  0  0  0  0  0  0
    5.6589    0.4927   -0.6427 N   0  0  0  0  0  0  0  0  0  0  0  0
    6.6809    0.8279   -0.9553 N   0  0  0  0  0  0  0  0  0  0  0  0
  1  3  1  0  0  0  0
  2  1  1  0  0  0  0
  3  6  2  0  0  0  0
  4  3  1  0  0  0  0
  4  7  2  0  0  0  0
  5 16  1  0  0  0  0
  6  5  1  0  0  0  0
  6  8  1  0  0  0  0
  7  5  1  0  0  0  0
  8  9  1  0  0  0  0
 10  8  1  0  0  0  0
 11  8  1  0  0  0  0
 12 14  1  0  0  0  0
 12  4  1  0  0  0  0
 13 12  1  0  0  0  0
 15 12  1  0  0  0  0
 16 17  1  0  0  0  0
 16 18  1  0  0  0  0
 19 16  1  0  0  0  0
 19 22  1  0  0  0  0
 20 19  1  0  0  0  0
 21 19  1  0  0  0  0
 22 24  1  0  0  0  0
 22 23  1  0  0  0  0
 25 22  1  0  0  0  0
 26 25  1  0  0  0  0
 26 30  1  0  0  0  0
 27 26  2  0  0  0  0
 28 27  1  0  0  0  0
 28 29  2  0  0  0  0
 29 25  1  0  0  0  0
 30 32  1  0  0  0  0
 31 30  1  0  0  0  0
 33 30  1  0  0  0  0
 34 36  1  0  0  0  0
 34 28  1  0  0  0  0
 35 34  1  0  0  0  0
 37 34  1  0  0  0  0
 38 27  1  0  0  0  0
 39 38  1  0  0  0  0
M  RAD  4   1   2   2   3  38   2  39   3
M  END
