C13H18N6++-RB3LYP-aug-cc-pVDZ-Singlet.log
 OpenBabel04131813133D
Gaussian home/ubuntu/g09/g09 #p Temperature=298.15 opt freq RB3LYP/aug-cc-pVDZ
 37 38  0  0  1  0  0  0  0  0999 V2000
   -4.7013    0.5479    0.6988 C   0  0  0  0  0  0  0  0  0  0  0  0
   -4.7803   -0.7982    0.9154 C   0  0  1  0  0  0  0  0  0  0  0  0
   -3.1390    0.0303   -0.4863 N   0  0  0  0  0  0  0  0  0  0  0  0
   -3.8874    1.1245   -0.2677 C   0  0  0  0  0  0  0  0  0  0  0  0
   -3.6182   -1.0398    0.2579 N   0  0  0  0  0  0  0  0  0  0  0  0
   -3.7987    2.4885   -0.8485 C   0  0  0  0  0  0  0  0  0  0  0  0
   -4.7181    3.0428   -0.6286 H   0  0  0  0  0  0  0  0  0  0  0  0
   -2.9536    3.0460   -0.4206 H   0  0  0  0  0  0  0  0  0  0  0  0
   -3.6740    2.4367   -1.9377 H   0  0  0  0  0  0  0  0  0  0  0  0
   -5.5590   -1.7740    1.7118 C   0  0  0  0  0  0  0  0  0  0  0  0
   -5.6631   -1.4186    2.7448 H   0  0  0  0  0  0  0  0  0  0  0  0
   -6.5638   -1.8836    1.2818 H   0  0  0  0  0  0  0  0  0  0  0  0
   -5.0535   -2.7446    1.7009 H   0  0  0  0  0  0  0  0  0  0  0  0
   -1.9157   -0.1849   -1.2664 C   0  0  0  0  0  0  0  0  0  0  0  0
   -1.9439    0.5279   -2.0996 H   0  0  0  0  0  0  0  0  0  0  0  0
   -2.0183   -1.1988   -1.6776 H   0  0  0  0  0  0  0  0  0  0  0  0
   -0.6341   -0.0348   -0.4323 C   0  0  0  0  0  0  0  0  0  0  0  0
   -0.5653    0.9817   -0.0266 H   0  0  0  0  0  0  0  0  0  0  0  0
   -0.6621   -0.7363    0.4116 H   0  0  0  0  0  0  0  0  0  0  0  0
    0.6008   -0.3111   -1.3041 C   0  0  0  0  0  0  0  0  0  0  0  0
    0.6169    0.3504   -2.1814 H   0  0  0  0  0  0  0  0  0  0  0  0
    0.6168   -1.3470   -1.6587 H   0  0  0  0  0  0  0  0  0  0  0  0
    1.8534   -0.0819   -0.5714 N   0  0  0  0  0  0  0  0  0  0  0  0
    2.9097   -0.8977   -0.4646 C   0  0  0  0  0  0  0  0  0  0  0  0
    3.8499   -0.1159    0.2543 C   0  0  0  0  0  0  0  0  0  0  0  0
    3.2486    1.1711    0.5247 C   0  0  0  0  0  0  0  0  0  0  0  0
    2.0398    1.1559    0.0080 N   0  0  0  0  0  0  0  0  0  0  0  0
    3.0236   -2.2796   -1.0126 C   0  0  0  0  0  0  0  0  0  0  0  0
    2.2139   -2.9220   -0.6411 H   0  0  0  0  0  0  0  0  0  0  0  0
    2.9821   -2.2698   -2.1110 H   0  0  0  0  0  0  0  0  0  0  0  0
    3.9745   -2.7355   -0.7173 H   0  0  0  0  0  0  0  0  0  0  0  0
    3.8282    2.3411    1.2416 C   0  0  0  0  0  0  0  0  0  0  0  0
    4.0824    2.0812    2.2790 H   0  0  0  0  0  0  0  0  0  0  0  0
    4.7454    2.6894    0.7458 H   0  0  0  0  0  0  0  0  0  0  0  0
    3.1023    3.1597    1.2509 H   0  0  0  0  0  0  0  0  0  0  0  0
    5.0838   -0.5115    0.6092 N   0  0  0  0  0  0  0  0  0  0  0  0
    6.1196   -0.7988    0.9229 N   0  0  0  0  0  0  0  0  0  0  0  0
  1  2  1  0  0  0  0
  2 10  1  1  0  0  0
  3  4  1  0  0  0  0
  3  5  1  0  0  0  0
  4  1  2  0  0  0  0
  5  2  1  0  0  0  0
  6  7  1  0  0  0  0
  6  8  1  0  0  0  0
  6  4  1  0  0  0  0
  9  6  1  0  0  0  0
 10 11  1  0  0  0  0
 12 10  1  0  0  0  0
 13 10  1  0  0  0  0
 14  3  1  0  0  0  0
 14 17  1  0  0  0  0
 15 14  1  0  0  0  0
 16 14  1  0  0  0  0
 17 18  1  0  0  0  0
 17 19  1  0  0  0  0
 20 23  1  0  0  0  0
 20 17  1  0  0  0  0
 21 20  1  0  0  0  0
 22 20  1  0  0  0  0
 23 24  1  0  0  0  0
 23 27  1  0  0  0  0
 24 25  2  0  0  0  0
 25 26  1  0  0  0  0
 25 36  1  0  0  0  0
 26 32  1  0  0  0  0
 27 26  2  0  0  0  0
 28 31  1  0  0  0  0
 28 29  1  0  0  0  0
 28 24  1  0  0  0  0
 30 28  1  0  0  0  0
 32 35  1  0  0  0  0
 32 33  1  0  0  0  0
 34 32  1  0  0  0  0
 36 37  1  0  0  0  0
M  RAD  5   1   2   2   2   5   2  36   2  37   3
M  END
