C2H5+-UB3LYP-aug-cc-pVDZ-Singlet.log
 OpenBabel04131813133D
Gaussian home/ubuntu/g09/g09 #p Temperature=298.15 opt freq UB3LYP/aug-cc-pVDZ
  7  6  0  0  0  0  0  0  0  0999 V2000
    0.6929    0.0000   -0.0645 C   0  0  0  0  0  0  0  0  0  0  0  0
    1.2517   -0.9405   -0.0739 H   0  0  0  0  0  0  0  0  0  0  0  0
    1.2517    0.9405   -0.0739 H   0  0  0  0  0  0  0  0  0  0  0  0
   -0.6929    0.0000   -0.0645 C   0  0  0  0  0  0  0  0  0  0  0  0
   -1.2516   -0.9406   -0.0740 H   0  0  0  0  0  0  0  0  0  0  0  0
   -0.0002   -0.0001    1.0693 H   0  0  0  0  0  0  0  0  0  0  0  0
   -1.2516    0.9406   -0.0739 H   0  0  0  0  0  0  0  0  0  0  0  0
  2  1  1  0  0  0  0
  3  1  1  0  0  0  0
  4  1  1  0  0  0  0
  4  6  1  0  0  0  0
  5  4  1  0  0  0  0
  7  4  1  0  0  0  0
M  RAD  1   1   2
M  END
