C2H5+-UB3LYP-aug-cc-pVDZ-Triplet.log
 OpenBabel04131813133D
Gaussian home/ubuntu/g09/g09 #p Temperature=298.15 opt freq UB3LYP/aug-cc-pVDZ
  7  6  0  0  0  0  0  0  0  0999 V2000
   -0.7722    0.0001   -0.0342 C   0  0  0  0  0  0  0  0  0  0  0  0
   -1.3930    0.9208    0.0115 H   0  0  0  0  0  0  0  0  0  0  0  0
   -1.3910   -0.9223    0.0077 H   0  0  0  0  0  0  0  0  0  0  0  0
    0.6403   -0.0000    0.0860 C   0  0  0  0  0  0  0  0  0  0  0  0
    1.2107    0.6745   -0.6937 H   0  0  0  0  0  0  0  0  0  0  0  0
    1.1522   -0.0022    1.0595 H   0  0  0  0  0  0  0  0  0  0  0  0
    1.2123   -0.6713   -0.6953 H   0  0  0  0  0  0  0  0  0  0  0  0
  1  3  1  0  0  0  0
  1  2  1  0  0  0  0
  1  4  1  0  0  0  0
  4  6  1  0  0  0  0
  5  4  1  0  0  0  0
  7  4  1  0  0  0  0
M  RAD  1   1   2
M  END
