Furan-3-N2+-UB3LYP-aug-cc-pVDZ-Singlet.log
 OpenBabel04131813133D
Gaussian home/ubuntu/g09/g09 #p Temperature=298.15 opt freq UB3LYP/aug-cc-pVDZ
 10 10  0  0  0  0  0  0  0  0999 V2000
    1.6928    0.0095    0.0000 N   0  0  0  0  0  0  0  0  0  0  0  0
    2.8085    0.0240   -0.0000 N   0  0  0  0  0  0  0  0  0  0  0  0
    0.3373    0.0236    0.0000 C   0  0  0  0  0  0  0  0  0  0  0  0
   -0.5253    1.1834   -0.0000 C   0  0  0  0  0  0  0  0  0  0  0  0
   -0.2373    2.2291   -0.0002 H   0  0  0  0  0  0  0  0  0  0  0  0
   -1.7738    0.6549    0.0001 C   0  0  0  0  0  0  0  0  0  0  0  0
   -2.7682    1.0866    0.0002 H   0  0  0  0  0  0  0  0  0  0  0  0
   -0.4581   -1.1185    0.0001 C   0  0  0  0  0  0  0  0  0  0  0  0
   -0.2338   -2.1811    0.0002 H   0  0  0  0  0  0  0  0  0  0  0  0
   -1.7187   -0.7288   -0.0001 O   0  0  0  0  0  0  0  0  0  0  0  0
  1  3  1  0  0  0  0
  2  1  1  0  0  0  0
  3  8  2  0  0  0  0
  4  3  1  0  0  0  0
  4  6  2  0  0  0  0
  5  4  1  0  0  0  0
  6  7  1  0  0  0  0
  8  9  1  0  0  0  0
 10  8  1  0  0  0  0
 10  6  1  0  0  0  0
M  RAD  2   1   2   2   3
M  END
