Furan-3+-UB3LYP-aug-cc-pVDZ-Triplet.log
 OpenBabel04131813133D
Gaussian home/ubuntu/g09/g09 #p Temperature=298.15 opt freq UB3LYP/aug-cc-pVDZ
  8  8  0  0  0  0  0  0  0  0999 V2000
   -0.1280   -1.2326   -0.0001 C   0  0  0  0  0  0  0  0  0  0  0  0
   -1.1990   -0.3701    0.0001 C   0  0  0  0  0  0  0  0  0  0  0  0
   -2.2664   -0.5776    0.0002 H   0  0  0  0  0  0  0  0  0  0  0  0
   -0.5945    0.9066   -0.0001 C   0  0  0  0  0  0  0  0  0  0  0  0
   -1.0064    1.9150    0.0000 H   0  0  0  0  0  0  0  0  0  0  0  0
    1.0809   -0.4897    0.0000 C   0  0  0  0  0  0  0  0  0  0  0  0
    2.1333   -0.7687   -0.0001 H   0  0  0  0  0  0  0  0  0  0  0  0
    0.7729    0.8182    0.0001 O   0  0  0  0  0  0  0  0  0  0  0  0
  1  6  2  0  0  0  0
  1  2  1  0  0  0  0
  2  3  1  0  0  0  0
  4  5  1  0  0  0  0
  4  2  2  0  0  0  0
  4  8  1  0  0  0  0
  6  8  1  0  0  0  0
  7  6  1  0  0  0  0
M  RAD  1   1   2
M  END
