Imidazole-2-N2-UB3LYP-aug-cc-pVDZ-Doublet.log
 OpenBabel04131813133D
Gaussian home/ubuntu/g09/g09 #p Temperature=298.15 opt freq UB3LYP/aug-cc-pVDZ
 10 10  0  0  0  0  0  0  0  0999 V2000
    1.6931   -0.5222    0.0000 N   0  0  0  0  0  0  0  0  0  0  0  0
    2.5257    0.3293    0.0002 N   0  0  0  0  0  0  0  0  0  0  0  0
    0.3001   -0.2642   -0.0002 C   0  0  0  0  0  0  0  0  0  0  0  0
   -1.6028    0.8407    0.0001 C   0  0  0  0  0  0  0  0  0  0  0  0
   -2.2827    1.6849    0.0000 H   0  0  0  0  0  0  0  0  0  0  0  0
   -0.2388    0.9954   -0.0002 N   0  0  0  0  0  0  0  0  0  0  0  0
    0.2880    1.8587   -0.0000 H   0  0  0  0  0  0  0  0  0  0  0  0
   -1.8177   -0.5260    0.0001 C   0  0  0  0  0  0  0  0  0  0  0  0
   -2.7677   -1.0499    0.0002 H   0  0  0  0  0  0  0  0  0  0  0  0
   -0.6250   -1.2020   -0.0001 N   0  0  0  0  0  0  0  0  0  0  0  0
  1  2  2  0  0  0  0
  3  6  1  0  0  0  0
  3 10  2  0  0  0  0
  3  1  1  0  0  0  0
  4  8  2  0  0  0  0
  5  4  1  0  0  0  0
  6  7  1  0  0  0  0
  6  4  1  0  0  0  0
  8  9  1  0  0  0  0
 10  8  1  0  0  0  0
M  RAD  1   2   2
M  END
