N-O-Pyridine-3-N2+-UB3LYP-aug-cc-pVDZ-Triplet.log
 OpenBabel04131813133D
Gaussian home/ubuntu/g09/g09 #p Temperature=298.15 opt freq UB3LYP/aug-cc-pVDZ
 13 13  0  0  0  0  0  0  0  0999 V2000
    0.0746   -0.9554    0.0001 C   0  0  0  0  0  0  0  0  0  0  0  0
   -0.9043    0.0469    0.0001 C   0  0  0  0  0  0  0  0  0  0  0  0
   -0.5041    1.4492    0.0003 C   0  0  0  0  0  0  0  0  0  0  0  0
    0.8496    1.7527   -0.0000 C   0  0  0  0  0  0  0  0  0  0  0  0
   -0.1138   -2.0265    0.0004 H   0  0  0  0  0  0  0  0  0  0  0  0
   -2.1978   -0.3024   -0.0005 N   0  0  0  0  0  0  0  0  0  0  0  0
   -3.3119   -0.5627    0.0002 N   0  0  0  0  0  0  0  0  0  0  0  0
    1.1733    2.7927    0.0001 H   0  0  0  0  0  0  0  0  0  0  0  0
   -1.2649    2.2273    0.0008 H   0  0  0  0  0  0  0  0  0  0  0  0
    1.3832   -0.5836   -0.0002 N   0  0  0  0  0  0  0  0  0  0  0  0
    1.8142    0.7530   -0.0003 C   0  0  0  0  0  0  0  0  0  0  0  0
    2.8925    0.8785   -0.0003 H   0  0  0  0  0  0  0  0  0  0  0  0
    2.2772   -1.5010    0.0002 O   0  0  0  0  0  0  0  0  0  0  0  0
  1  2  2  0  0  0  0
  1  5  1  0  0  0  0
  2  3  1  0  0  0  0
  3  9  1  0  0  0  0
  4  8  1  0  0  0  0
  4  3  2  0  0  0  0
  6  2  1  0  0  0  0
  6  7  1  0  0  0  0
 10  1  1  0  0  0  0
 10 13  1  0  0  0  0
 11 10  1  0  0  0  0
 11  4  1  0  0  0  0
 12 11  1  0  0  0  0
M  RAD  3   6   2   7   3  13   2
M  END
