Ph+-UB3LYP-aug-cc-pVDZ-Singlet.log
 OpenBabel04131813133D
Gaussian home/ubuntu/g09/g09 #p Temperature=298.15 opt freq UB3LYP/aug-cc-pVDZ
 11 11  0  0  0  0  0  0  0  0999 V2000
   -1.2168    0.6151    0.0000 C   0  0  0  0  0  0  0  0  0  0  0  0
   -1.2753   -0.8216    0.0000 C   0  0  0  0  0  0  0  0  0  0  0  0
    0.0002   -1.1941   -0.0000 C   0  0  0  0  0  0  0  0  0  0  0  0
    1.2755   -0.8213    0.0000 C   0  0  0  0  0  0  0  0  0  0  0  0
    1.2166    0.6154   -0.0000 C   0  0  0  0  0  0  0  0  0  0  0  0
   -0.0002    1.3000   -0.0000 C   0  0  0  0  0  0  0  0  0  0  0  0
   -2.1822    1.1265   -0.0000 H   0  0  0  0  0  0  0  0  0  0  0  0
   -2.1953   -1.4022    0.0000 H   0  0  0  0  0  0  0  0  0  0  0  0
   -0.0003    2.3895    0.0000 H   0  0  0  0  0  0  0  0  0  0  0  0
    2.1819    1.1270    0.0000 H   0  0  0  0  0  0  0  0  0  0  0  0
    2.1957   -1.4016    0.0000 H   0  0  0  0  0  0  0  0  0  0  0  0
  1  2  2  0  0  0  0
  3  4  2  0  0  0  0
  3  2  1  0  0  0  0
  4 11  1  0  0  0  0
  5  6  2  0  0  0  0
  5 10  1  0  0  0  0
  5  4  1  0  0  0  0
  6  9  1  0  0  0  0
  6  1  1  0  0  0  0
  7  1  1  0  0  0  0
  8  2  1  0  0  0  0
M  RAD  1   3   2
M  END
