Pyrazole-5-N2+-UB3LYP-aug-cc-pVDZ-Triplet.log
 OpenBabel04131813133D
Gaussian home/ubuntu/g09/g09 #p Temperature=298.15 opt freq UB3LYP/aug-cc-pVDZ
 10 10  0  0  0  0  0  0  0  0999 V2000
   -1.6995   -0.4733   -0.0005 N   0  0  0  0  0  0  0  0  0  0  0  0
   -2.5647    0.3653   -0.0003 N   0  0  0  0  0  0  0  0  0  0  0  0
   -0.3544   -0.1055    0.0010 C   0  0  0  0  0  0  0  0  0  0  0  0
    0.6044   -1.0918    0.0004 N   0  0  0  0  0  0  0  0  0  0  0  0
    0.4541   -2.1015    0.0004 H   0  0  0  0  0  0  0  0  0  0  0  0
    1.6696    0.8018   -0.0004 C   0  0  0  0  0  0  0  0  0  0  0  0
    2.5658    1.4161   -0.0011 H   0  0  0  0  0  0  0  0  0  0  0  0
    0.3485    1.1550    0.0004 C   0  0  0  0  0  0  0  0  0  0  0  0
   -0.1081    2.1405    0.0012 H   0  0  0  0  0  0  0  0  0  0  0  0
    1.8178   -0.5950   -0.0005 N   0  0  0  0  0  0  0  0  0  0  0  0
  1  2  2  0  0  0  0
  1  3  1  0  0  0  0
  4  3  1  0  0  0  0
  5  4  1  0  0  0  0
  6  8  1  0  0  0  0
  7  6  1  0  0  0  0
  8  3  2  0  0  0  0
  8  9  1  0  0  0  0
 10  6  2  0  0  0  0
 10  4  1  0  0  0  0
M  RAD  1   2   2
M  END
