Pyrimidine-2-N2+-UB3LYP-aug-cc-pVDZ-Triplet.log
 OpenBabel04131813133D
Gaussian home/ubuntu/g09/g09 #p Temperature=298.15 opt freq UB3LYP/aug-cc-pVDZ
 11 11  0  0  0  0  0  0  0  0999 V2000
    0.6073   -0.0001    0.0000 C   0  0  0  0  0  0  0  0  0  0  0  0
    1.9383   -0.0001   -0.0006 N   0  0  0  0  0  0  0  0  0  0  0  0
    3.0833    0.0000    0.0004 N   0  0  0  0  0  0  0  0  0  0  0  0
   -2.1881    0.0000   -0.0001 C   0  0  0  0  0  0  0  0  0  0  0  0
   -3.2751    0.0001   -0.0002 H   0  0  0  0  0  0  0  0  0  0  0  0
   -1.4211   -1.1838    0.0001 C   0  0  0  0  0  0  0  0  0  0  0  0
   -1.8883   -2.1745    0.0002 H   0  0  0  0  0  0  0  0  0  0  0  0
   -0.1116   -1.1460    0.0000 N   0  0  0  0  0  0  0  0  0  0  0  0
   -1.4210    1.1838    0.0001 C   0  0  0  0  0  0  0  0  0  0  0  0
   -1.8882    2.1745    0.0002 H   0  0  0  0  0  0  0  0  0  0  0  0
   -0.1115    1.1460    0.0001 N   0  0  0  0  0  0  0  0  0  0  0  0
  1  8  1  0  0  0  0
  1 11  2  0  0  0  0
  2  1  1  0  0  0  0
  2  3  1  0  0  0  0
  4  9  2  0  0  0  0
  4  6  1  0  0  0  0
  5  4  1  0  0  0  0
  6  7  1  0  0  0  0
  8  6  2  0  0  0  0
  9 10  1  0  0  0  0
 11  9  1  0  0  0  0
M  RAD  2   2   2   3   3
M  END
