Pyridine-2-UB3LYP-aug-cc-pVDZ-Doublet.log
 OpenBabel04131813133D
Gaussian home/ubuntu/g09/g09 #p Temperature=298.15 opt freq UB3LYP/aug-cc-pVDZ
 10 10  0  0  0  0  0  0  0  0999 V2000
   -0.2428   -1.3580    0.0000 C   0  0  0  0  0  0  0  0  0  0  0  0
   -1.3388   -0.4924   -0.0000 C   0  0  0  0  0  0  0  0  0  0  0  0
   -1.0226    0.8698    0.0000 C   0  0  0  0  0  0  0  0  0  0  0  0
   -1.8191    1.6167   -0.0000 H   0  0  0  0  0  0  0  0  0  0  0  0
   -2.3672   -0.8497   -0.0000 H   0  0  0  0  0  0  0  0  0  0  0  0
    0.3226    1.2695    0.0000 C   0  0  0  0  0  0  0  0  0  0  0  0
    0.5933    2.3251    0.0001 H   0  0  0  0  0  0  0  0  0  0  0  0
    1.3177    0.2941   -0.0001 C   0  0  0  0  0  0  0  0  0  0  0  0
    2.3777    0.5526   -0.0000 H   0  0  0  0  0  0  0  0  0  0  0  0
    0.9999   -1.0204    0.0000 N   0  0  0  0  0  0  0  0  0  0  0  0
  1 10  2  0  0  0  0
  2  5  1  0  0  0  0
  2  1  1  0  0  0  0
  2  3  2  0  0  0  0
  4  3  1  0  0  0  0
  6  3  1  0  0  0  0
  6  7  1  0  0  0  0
  8  9  1  0  0  0  0
  8  6  2  0  0  0  0
  8 10  1  0  0  0  0
M  RAD  1   1   2
M  END
