Pyrimidine-2-N2-UB3LYP-aug-cc-pVDZ-Doublet.log
 OpenBabel04131813133D
Gaussian home/ubuntu/g09/g09 #p Temperature=298.15 opt freq UB3LYP/aug-cc-pVDZ
 11 11  0  0  0  0  0  0  0  0999 V2000
    0.5254   -0.1388   -0.1012 C   0  0  0  0  0  0  0  0  0  0  0  0
    1.9704   -0.3427   -0.2730 N   0  0  0  0  0  0  0  0  0  0  0  0
    2.7958    0.2441    0.3340 N   0  0  0  0  0  0  0  0  0  0  0  0
   -2.0960    0.1659    0.0861 C   0  0  0  0  0  0  0  0  0  0  0  0
   -3.1749    0.2911    0.1608 H   0  0  0  0  0  0  0  0  0  0  0  0
   -1.5036   -1.0985    0.0763 C   0  0  0  0  0  0  0  0  0  0  0  0
   -2.1020   -2.0087    0.1514 H   0  0  0  0  0  0  0  0  0  0  0  0
   -0.1794   -1.2634   -0.0389 N   0  0  0  0  0  0  0  0  0  0  0  0
   -1.2368    1.2608   -0.0163 C   0  0  0  0  0  0  0  0  0  0  0  0
   -1.6171    2.2846   -0.0271 H   0  0  0  0  0  0  0  0  0  0  0  0
    0.0932    1.1187   -0.1013 N   0  0  0  0  0  0  0  0  0  0  0  0
  1  8  1  0  0  0  0
  2  1  1  0  0  0  0
  2  3  2  0  0  0  0
  4  5  1  0  0  0  0
  6  4  1  0  0  0  0
  6  7  1  0  0  0  0
  8  6  2  0  0  0  0
  9  4  2  0  0  0  0
 10  9  1  0  0  0  0
 11  1  2  0  0  0  0
 11  9  1  0  0  0  0
M  RAD  1   3   2
M  END
