Pyrimidine-2-UB3LYP-aug-cc-pVDZ-Doublet.log
 OpenBabel04131813133D
Gaussian home/ubuntu/g09/g09 #p Temperature=298.15 opt freq UB3LYP/aug-cc-pVDZ
  9  9  0  0  0  0  0  0  0  0999 V2000
    0.0002   -1.3277   -0.0001 C   0  0  0  0  0  0  0  0  0  0  0  0
   -0.0003    1.2881   -0.0002 C   0  0  0  0  0  0  0  0  0  0  0  0
   -0.0004    2.3773   -0.0001 H   0  0  0  0  0  0  0  0  0  0  0  0
   -1.1934    0.5625    0.0001 C   0  0  0  0  0  0  0  0  0  0  0  0
   -2.1672    1.0571    0.0002 H   0  0  0  0  0  0  0  0  0  0  0  0
   -1.1930   -0.7865    0.0000 N   0  0  0  0  0  0  0  0  0  0  0  0
    1.1932    0.5628    0.0001 C   0  0  0  0  0  0  0  0  0  0  0  0
    2.1667    1.0579    0.0002 H   0  0  0  0  0  0  0  0  0  0  0  0
    1.1934   -0.7860   -0.0000 N   0  0  0  0  0  0  0  0  0  0  0  0
  1  9  1  0  0  0  0
  1  6  2  0  0  0  0
  2  3  1  0  0  0  0
  2  4  2  0  0  0  0
  2  7  1  0  0  0  0
  4  5  1  0  0  0  0
  6  4  1  0  0  0  0
  7  8  1  0  0  0  0
  9  7  2  0  0  0  0
M  RAD  1   1   2
M  END
