Pyrrole-2+-UB3LYP-aug-cc-pVDZ-Triplet.log
 OpenBabel04131813133D
Gaussian home/ubuntu/g09/g09 #p Temperature=298.15 opt freq UB3LYP/aug-cc-pVDZ
  9  9  0  0  0  0  0  0  0  0999 V2000
    0.0722   -1.1953    0.0000 C   0  0  0  0  0  0  0  0  0  0  0  0
   -1.1688   -0.4880   -0.0000 C   0  0  0  0  0  0  0  0  0  0  0  0
   -2.1595   -0.9322   -0.0000 H   0  0  0  0  0  0  0  0  0  0  0  0
   -0.8094    0.8450    0.0000 C   0  0  0  0  0  0  0  0  0  0  0  0
   -1.4731    1.7064    0.0001 H   0  0  0  0  0  0  0  0  0  0  0  0
    0.6284    0.9223   -0.0000 C   0  0  0  0  0  0  0  0  0  0  0  0
    1.2810    1.7938   -0.0001 H   0  0  0  0  0  0  0  0  0  0  0  0
    1.1296   -0.3508   -0.0000 N   0  0  0  0  0  0  0  0  0  0  0  0
    2.1107   -0.6167    0.0002 H   0  0  0  0  0  0  0  0  0  0  0  0
  2  3  1  0  0  0  0
  2  1  2  0  0  0  0
  2  4  1  0  0  0  0
  4  5  1  0  0  0  0
  6  8  1  0  0  0  0
  6  4  2  0  0  0  0
  7  6  1  0  0  0  0
  8  1  1  0  0  0  0
  8  9  1  0  0  0  0
M  RAD  1   1   2
M  END
