Tetrazole-5+-RB3LYP-aug-cc-pVDZ-Singlet.log
 OpenBabel04131813133D
Gaussian home/ubuntu/g09/g09 #p Temperature=298.15 opt freq RB3LYP/aug-cc-pVDZ
  6  5  0  0  0  0  0  0  0  0999 V2000
   -0.0097    0.7148   -0.0014 N   0  0  0  0  0  0  0  0  0  0  0  0
   -1.1224    0.0448    0.0013 N   0  0  0  0  0  0  0  0  0  0  0  0
    2.2032   -0.5006    0.0006 N   0  0  0  0  0  0  0  0  0  0  0  0
   -2.0685   -0.5491   -0.0004 N   0  0  0  0  0  0  0  0  0  0  0  0
    1.1806    0.0488   -0.0008 C   0  0  0  0  0  0  0  0  0  0  0  0
   -0.1011    1.7377    0.0041 H   0  0  0  0  0  0  0  0  0  0  0  0
  1  5  1  0  0  0  0
  1  2  1  0  0  0  0
  1  6  1  0  0  0  0
  4  2  1  0  0  0  0
  5  3  3  0  0  0  0
M  RAD  2   2   2   4   3
M  END
