Coordinates from ORCA-job 2-HOOC-4-Br-C6H2-N2-B3LYPG-aug-cc-pVDZ-scan-d09-49-n400
 OpenBabel11091809123D

 15 14  0  0  0  0  0  0  0  0999 V2000
   -1.6239   -1.5178   -1.0359 C   0  0  0  0  0  0  0  0  0  0  0  0
   -0.3034   -1.0985   -1.0203 C   0  0  0  0  0  0  0  0  0  0  0  0
    0.1162    0.0688   -0.8543 C   0  0  0  0  0  0  0  0  0  0  0  0
   -0.6435    1.2130   -0.6432 C   0  0  0  0  0  0  0  0  0  0  0  0
   -2.0257    0.9057   -0.6351 C   0  0  0  0  0  0  0  0  0  0  0  0
   -2.4823   -0.4107   -0.8250 C   0  0  0  0  0  0  0  0  0  0  0  0
   -2.0016   -2.5269   -1.1819 H   0  0  0  0  0  0  0  0  0  0  0  0
   -2.7360    1.7157   -0.4786 H   0  0  0  0  0  0  0  0  0  0  0  0
    3.4143    0.0627   -0.6259 N   0  0  0  0  0  0  0  0  0  0  0  0
    4.0931   -0.0179   -1.4937 N   0  0  0  0  0  0  0  0  0  0  0  0
   -4.3724   -0.7388   -0.7996 Br  0  0  0  0  0  0  0  0  0  0  0  0
   -0.1693    2.6068   -0.4460 C   0  0  0  0  0  0  0  0  0  0  0  0
   -0.8963    3.5584   -0.2555 O   0  0  0  0  0  0  0  0  0  0  0  0
    1.1803    2.7025   -0.5039 O   0  0  0  0  0  0  0  0  0  0  0  0
    1.3996    3.6382   -0.3651 H   0  0  0  0  0  0  0  0  0  0  0  0
  1  2  2  0  0  0  0
  1  6  1  0  0  0  0
  2  3  1  0  0  0  0
  3  4  2  0  0  0  0
  4  5  1  0  0  0  0
  4 12  1  0  0  0  0
  5  8  1  0  0  0  0
  6 11  1  0  0  0  0
  6  5  2  0  0  0  0
  7  1  1  0  0  0  0
 10  9  3  0  0  0  0
 12 13  2  0  0  0  0
 14 12  1  0  0  0  0
 14 15  1  0  0  0  0
M  RAD  2   2   2   3   2
M  END
