Coordinates from ORCA-job 2-HOOC-4-Br-C6H2-N2-B3LYPG-aug-cc-pVDZ-scan-d09-49-n400
 OpenBabel11091809123D

 15 14  0  0  0  0  0  0  0  0999 V2000
   -1.7192   -1.5174   -1.0402 C   0  0  0  0  0  0  0  0  0  0  0  0
   -0.3941   -1.1128   -1.0413 C   0  0  0  0  0  0  0  0  0  0  0  0
    0.0410    0.0490   -0.8765 C   0  0  0  0  0  0  0  0  0  0  0  0
   -0.7022    1.2011   -0.6509 C   0  0  0  0  0  0  0  0  0  0  0  0
   -2.0876    0.9097   -0.6264 C   0  0  0  0  0  0  0  0  0  0  0  0
   -2.5618   -0.4008   -0.8148 C   0  0  0  0  0  0  0  0  0  0  0  0
   -2.1103   -2.5217   -1.1839 H   0  0  0  0  0  0  0  0  0  0  0  0
   -2.7867    1.7270   -0.4578 H   0  0  0  0  0  0  0  0  0  0  0  0
    3.8381    0.1033   -0.6032 N   0  0  0  0  0  0  0  0  0  0  0  0
    4.4875    0.0401   -1.4946 N   0  0  0  0  0  0  0  0  0  0  0  0
   -4.4550   -0.7072   -0.7664 Br  0  0  0  0  0  0  0  0  0  0  0  0
   -0.2064    2.5871   -0.4532 C   0  0  0  0  0  0  0  0  0  0  0  0
   -0.9179    3.5488   -0.2550 O   0  0  0  0  0  0  0  0  0  0  0  0
    1.1440    2.6617   -0.5195 O   0  0  0  0  0  0  0  0  0  0  0  0
    1.3798    3.5933   -0.3800 H   0  0  0  0  0  0  0  0  0  0  0  0
  1  6  1  0  0  0  0
  2  1  2  0  0  0  0
  2  3  1  0  0  0  0
  3  4  2  0  0  0  0
  4  5  1  0  0  0  0
  4 12  1  0  0  0  0
  5  8  1  0  0  0  0
  6 11  1  0  0  0  0
  6  5  2  0  0  0  0
  7  1  1  0  0  0  0
 10  9  3  0  0  0  0
 12 13  2  0  0  0  0
 14 12  1  0  0  0  0
 14 15  1  0  0  0  0
M  RAD  2   2   2   3   2
M  END
