Coordinates from ORCA-job 2-HOOC-4-Br-C6H2-N2-B3LYPG-aug-cc-pVDZ-scan-d09-49-n400
 OpenBabel11091809123D

 15 14  0  0  0  0  0  0  0  0999 V2000
   -1.5985   -1.5190   -1.0348 C   0  0  0  0  0  0  0  0  0  0  0  0
   -0.2807   -1.0936   -1.0146 C   0  0  0  0  0  0  0  0  0  0  0  0
    0.1388    0.0735   -0.8484 C   0  0  0  0  0  0  0  0  0  0  0  0
   -0.6263    1.2153   -0.6414 C   0  0  0  0  0  0  0  0  0  0  0  0
   -2.0077    0.9041   -0.6379 C   0  0  0  0  0  0  0  0  0  0  0  0
   -2.4606   -0.4136   -0.8281 C   0  0  0  0  0  0  0  0  0  0  0  0
   -1.9724   -2.5295   -1.1809 H   0  0  0  0  0  0  0  0  0  0  0  0
   -2.7210    1.7123   -0.4849 H   0  0  0  0  0  0  0  0  0  0  0  0
    3.2969    0.0550   -0.6310 N   0  0  0  0  0  0  0  0  0  0  0  0
    3.9818   -0.0316   -1.4933 N   0  0  0  0  0  0  0  0  0  0  0  0
   -4.3500   -0.7462   -0.8085 Br  0  0  0  0  0  0  0  0  0  0  0  0
   -0.1583    2.6113   -0.4441 C   0  0  0  0  0  0  0  0  0  0  0  0
   -0.8897    3.5599   -0.2551 O   0  0  0  0  0  0  0  0  0  0  0  0
    1.1910    2.7132   -0.4998 O   0  0  0  0  0  0  0  0  0  0  0  0
    1.4058    3.6499   -0.3612 H   0  0  0  0  0  0  0  0  0  0  0  0
  1  2  2  0  0  0  0
  1  6  1  0  0  0  0
  2  3  1  0  0  0  0
  3  4  2  0  0  0  0
  4  5  1  0  0  0  0
  4 12  1  0  0  0  0
  5  8  1  0  0  0  0
  6 11  1  0  0  0  0
  6  5  2  0  0  0  0
  7  1  1  0  0  0  0
 10  9  3  0  0  0  0
 12 13  2  0  0  0  0
 14 12  1  0  0  0  0
 14 15  1  0  0  0  0
M  RAD  2   2   2   3   2
M  END
