Coordinates from ORCA-job 2-HOOC-4-Br-C6H2-N2-B3LYPG-aug-cc-pVDZ-scan-d09-49-n400
 OpenBabel11091809123D

 15 14  0  0  0  0  0  0  0  0999 V2000
   -1.5152   -1.5267   -1.0831 C   0  0  0  0  0  0  0  0  0  0  0  0
   -0.1878   -1.1254   -1.0705 C   0  0  0  0  0  0  0  0  0  0  0  0
    0.2348    0.0406   -0.8886 C   0  0  0  0  0  0  0  0  0  0  0  0
   -0.5144    1.1863   -0.6421 C   0  0  0  0  0  0  0  0  0  0  0  0
   -1.8975    0.8823   -0.6140 C   0  0  0  0  0  0  0  0  0  0  0  0
   -2.3655   -0.4258   -0.8264 C   0  0  0  0  0  0  0  0  0  0  0  0
   -1.9011   -2.5294   -1.2533 H   0  0  0  0  0  0  0  0  0  0  0  0
   -2.5994    1.6937   -0.4303 H   0  0  0  0  0  0  0  0  0  0  0  0
    2.6461    0.1885   -0.5930 N   0  0  0  0  0  0  0  0  0  0  0  0
    3.4691   -0.0246   -1.2996 N   0  0  0  0  0  0  0  0  0  0  0  0
   -4.2572   -0.7436   -0.7671 Br  0  0  0  0  0  0  0  0  0  0  0  0
   -0.0675    2.5910   -0.4447 C   0  0  0  0  0  0  0  0  0  0  0  0
   -0.8121    3.5090   -0.1732 O   0  0  0  0  0  0  0  0  0  0  0  0
    1.2670    2.7511   -0.6105 O   0  0  0  0  0  0  0  0  0  0  0  0
    1.4499    3.6941   -0.4673 H   0  0  0  0  0  0  0  0  0  0  0  0
  1  2  2  0  0  0  0
  1  6  1  0  0  0  0
  2  3  1  0  0  0  0
  3  4  2  0  0  0  0
  4  5  1  0  0  0  0
  4 12  1  0  0  0  0
  5  8  1  0  0  0  0
  6 11  1  0  0  0  0
  6  5  2  0  0  0  0
  7  1  1  0  0  0  0
 10  9  3  0  0  0  0
 12 13  2  0  0  0  0
 14 15  1  0  0  0  0
 14 12  1  0  0  0  0
M  RAD  2   2   2   3   2
M  END
