Coordinates from ORCA-job 2-HOOC-4-Br-C6H2-N2-B3LYPG-aug-cc-pVDZ-scan-d09-49-n400
 OpenBabel11091809123D

 15 15  0  0  0  0  0  0  0  0999 V2000
   -1.4130   -1.5064   -1.0551 C   0  0  0  0  0  0  0  0  0  0  0  0
   -0.0385   -1.2089   -1.0861 C   0  0  0  0  0  0  0  0  0  0  0  0
    0.2887    0.0250   -0.8985 C   0  0  0  0  0  0  0  0  0  0  0  0
   -0.4502    1.1817   -0.6613 C   0  0  0  0  0  0  0  0  0  0  0  0
   -1.8279    0.8881   -0.6295 C   0  0  0  0  0  0  0  0  0  0  0  0
   -2.2803   -0.4270   -0.8233 C   0  0  0  0  0  0  0  0  0  0  0  0
   -1.8148   -2.5101   -1.1997 H   0  0  0  0  0  0  0  0  0  0  0  0
   -2.5270    1.7019   -0.4520 H   0  0  0  0  0  0  0  0  0  0  0  0
    2.0898    0.2954   -0.9591 N   0  0  0  0  0  0  0  0  0  0  0  0
    3.1098   -0.1199   -1.0883 N   0  0  0  0  0  0  0  0  0  0  0  0
   -4.1745   -0.7497   -0.7660 Br  0  0  0  0  0  0  0  0  0  0  0  0
   -0.0237    2.5930   -0.4498 C   0  0  0  0  0  0  0  0  0  0  0  0
   -0.7899    3.5099   -0.2501 O   0  0  0  0  0  0  0  0  0  0  0  0
    1.3216    2.7706   -0.4977 O   0  0  0  0  0  0  0  0  0  0  0  0
    1.4792    3.7175   -0.3474 H   0  0  0  0  0  0  0  0  0  0  0  0
  1  6  1  0  0  0  0
  2  1  2  0  0  0  0
  2  3  1  0  0  0  0
  3  4  2  0  0  0  0
  4  5  1  0  0  0  0
  4 12  1  0  0  0  0
  5  8  1  0  0  0  0
  6 11  1  0  0  0  0
  6  5  2  0  0  0  0
  7  1  1  0  0  0  0
  9  3  1  0  0  0  0
 10  9  2  0  0  0  0
 12 13  2  0  0  0  0
 14 12  1  0  0  0  0
 14 15  1  0  0  0  0
M  RAD  2   2   2  10   2
M  END
