Coordinates from ORCA-job 2-HOOC-4-Br-C6H2-N2-B3LYPG-aug-cc-pVDZ-scan-d09-49-n400
 OpenBabel11091809123D

 15 14  0  0  0  0  0  0  0  0999 V2000
   -1.6433   -1.5179   -1.0365 C   0  0  0  0  0  0  0  0  0  0  0  0
   -0.3217   -1.1017   -1.0240 C   0  0  0  0  0  0  0  0  0  0  0  0
    0.1008    0.0645   -0.8584 C   0  0  0  0  0  0  0  0  0  0  0  0
   -0.6554    1.2105   -0.6447 C   0  0  0  0  0  0  0  0  0  0  0  0
   -2.0383    0.9065   -0.6335 C   0  0  0  0  0  0  0  0  0  0  0  0
   -2.4985   -0.4087   -0.8230 C   0  0  0  0  0  0  0  0  0  0  0  0
   -2.0238   -2.5260   -1.1819 H   0  0  0  0  0  0  0  0  0  0  0  0
   -2.7464    1.7181   -0.4749 H   0  0  0  0  0  0  0  0  0  0  0  0
    3.4988    0.0718   -0.6215 N   0  0  0  0  0  0  0  0  0  0  0  0
    4.1721   -0.0038   -1.4940 N   0  0  0  0  0  0  0  0  0  0  0  0
   -4.3893   -0.7323   -0.7934 Br  0  0  0  0  0  0  0  0  0  0  0  0
   -0.1764    2.6025   -0.4475 C   0  0  0  0  0  0  0  0  0  0  0  0
   -0.8997    3.5566   -0.2555 O   0  0  0  0  0  0  0  0  0  0  0  0
    1.1735    2.6931   -0.5069 O   0  0  0  0  0  0  0  0  0  0  0  0
    1.3967    3.6279   -0.3680 H   0  0  0  0  0  0  0  0  0  0  0  0
  1  2  2  0  0  0  0
  1  6  1  0  0  0  0
  2  3  1  0  0  0  0
  3  4  2  0  0  0  0
  4  5  1  0  0  0  0
  4 12  1  0  0  0  0
  5  8  1  0  0  0  0
  6 11  1  0  0  0  0
  6  5  2  0  0  0  0
  7  1  1  0  0  0  0
 10  9  3  0  0  0  0
 12 13  2  0  0  0  0
 14 12  1  0  0  0  0
 14 15  1  0  0  0  0
M  RAD  2   2   2   3   2
M  END
