Coordinates from ORCA-job 2-HOOC-4-Br-C6H2-N2-B3LYPG-aug-cc-pVDZ-scan-d09-49-n400
 OpenBabel11091809123D

 15 14  0  0  0  0  0  0  0  0999 V2000
   -1.5292   -1.5246   -1.0716 C   0  0  0  0  0  0  0  0  0  0  0  0
   -0.2032   -1.1176   -1.0541 C   0  0  0  0  0  0  0  0  0  0  0  0
    0.2133    0.0503   -0.8788 C   0  0  0  0  0  0  0  0  0  0  0  0
   -0.5397    1.1948   -0.6417 C   0  0  0  0  0  0  0  0  0  0  0  0
   -1.9218    0.8873   -0.6189 C   0  0  0  0  0  0  0  0  0  0  0  0
   -2.3839   -0.4238   -0.8270 C   0  0  0  0  0  0  0  0  0  0  0  0
   -1.9115   -2.5292   -1.2378 H   0  0  0  0  0  0  0  0  0  0  0  0
   -2.6278    1.6971   -0.4429 H   0  0  0  0  0  0  0  0  0  0  0  0
    2.7698    0.1564   -0.5964 N   0  0  0  0  0  0  0  0  0  0  0  0
    3.5643   -0.0166   -1.3447 N   0  0  0  0  0  0  0  0  0  0  0  0
   -4.2746   -0.7481   -0.7804 Br  0  0  0  0  0  0  0  0  0  0  0  0
   -0.0856    2.5966   -0.4462 C   0  0  0  0  0  0  0  0  0  0  0  0
   -0.8242    3.5232   -0.1886 O   0  0  0  0  0  0  0  0  0  0  0  0
    1.2536    2.7375   -0.5892 O   0  0  0  0  0  0  0  0  0  0  0  0
    1.4497    3.6777   -0.4455 H   0  0  0  0  0  0  0  0  0  0  0  0
  1  2  2  0  0  0  0
  1  6  1  0  0  0  0
  2  3  1  0  0  0  0
  3  4  2  0  0  0  0
  4  5  1  0  0  0  0
  4 12  1  0  0  0  0
  5  8  1  0  0  0  0
  6 11  1  0  0  0  0
  6  5  2  0  0  0  0
  7  1  1  0  0  0  0
 10  9  3  0  0  0  0
 12 13  2  0  0  0  0
 14 12  1  0  0  0  0
 14 15  1  0  0  0  0
M  RAD  2   2   2   3   2
M  END
