Coordinates from ORCA-job 2-HOOC-4-Br-C6H2-N2-B3LYPG-aug-cc-pVDZ-scan-d09-49-n400
 OpenBabel11091809123D

 15 15  0  0  0  0  0  0  0  0999 V2000
   -1.4011   -1.5009   -1.0553 C   0  0  0  0  0  0  0  0  0  0  0  0
   -0.0188   -1.2235   -1.0900 C   0  0  0  0  0  0  0  0  0  0  0  0
    0.2993    0.0256   -0.8988 C   0  0  0  0  0  0  0  0  0  0  0  0
   -0.4489    1.1804   -0.6608 C   0  0  0  0  0  0  0  0  0  0  0  0
   -1.8242    0.8901   -0.6289 C   0  0  0  0  0  0  0  0  0  0  0  0
   -2.2720   -0.4266   -0.8237 C   0  0  0  0  0  0  0  0  0  0  0  0
   -1.8057   -2.5040   -1.2001 H   0  0  0  0  0  0  0  0  0  0  0  0
   -2.5240    1.7031   -0.4512 H   0  0  0  0  0  0  0  0  0  0  0  0
    2.0213    0.2827   -0.9566 N   0  0  0  0  0  0  0  0  0  0  0  0
    3.0631   -0.0793   -1.0782 N   0  0  0  0  0  0  0  0  0  0  0  0
   -4.1663   -0.7523   -0.7672 Br  0  0  0  0  0  0  0  0  0  0  0  0
   -0.0184    2.5897   -0.4493 C   0  0  0  0  0  0  0  0  0  0  0  0
   -0.7784    3.5115   -0.2506 O   0  0  0  0  0  0  0  0  0  0  0  0
    1.3290    2.7594   -0.5008 O   0  0  0  0  0  0  0  0  0  0  0  0
    1.4942    3.7052   -0.3523 H   0  0  0  0  0  0  0  0  0  0  0  0
  1  6  1  0  0  0  0
  2  1  2  0  0  0  0
  2  3  1  0  0  0  0
  3  4  2  0  0  0  0
  4  5  1  0  0  0  0
  4 12  1  0  0  0  0
  5  8  1  0  0  0  0
  6 11  1  0  0  0  0
  6  5  2  0  0  0  0
  7  1  1  0  0  0  0
  9  3  1  0  0  0  0
 10  9  2  0  0  0  0
 12 13  2  0  0  0  0
 14 12  1  0  0  0  0
 14 15  1  0  0  0  0
M  RAD  2   2   2  10   2
M  END
