Coordinates from ORCA-job 2-HOOC-4-Br-C6H2-N2-B3LYPG-aug-cc-pVDZ-scan-d09-49-n400
 OpenBabel11091809123D

 15 14  0  0  0  0  0  0  0  0999 V2000
   -1.8733   -1.5099   -1.0532 C   0  0  0  0  0  0  0  0  0  0  0  0
   -0.5447   -1.1196   -1.0837 C   0  0  0  0  0  0  0  0  0  0  0  0
   -0.0864    0.0330   -0.9182 C   0  0  0  0  0  0  0  0  0  0  0  0
   -0.8122    1.1910   -0.6637 C   0  0  0  0  0  0  0  0  0  0  0  0
   -2.1998    0.9176   -0.6084 C   0  0  0  0  0  0  0  0  0  0  0  0
   -2.6957   -0.3850   -0.7973 C   0  0  0  0  0  0  0  0  0  0  0  0
   -2.2799   -2.5081   -1.1963 H   0  0  0  0  0  0  0  0  0  0  0  0
   -2.8840    1.7421   -0.4149 H   0  0  0  0  0  0  0  0  0  0  0  0
    4.6758    0.1244   -0.5201 N   0  0  0  0  0  0  0  0  0  0  0  0
    5.1282    0.0814   -1.5268 N   0  0  0  0  0  0  0  0  0  0  0  0
   -4.5909   -0.6677   -0.7058 Br  0  0  0  0  0  0  0  0  0  0  0  0
   -0.2893    2.5665   -0.4641 C   0  0  0  0  0  0  0  0  0  0  0  0
   -0.9784    3.5399   -0.2455 O   0  0  0  0  0  0  0  0  0  0  0  0
    1.0611    2.6150   -0.5540 O   0  0  0  0  0  0  0  0  0  0  0  0
    1.3184    3.5404   -0.4118 H   0  0  0  0  0  0  0  0  0  0  0  0
  1  6  1  0  0  0  0
  2  1  2  0  0  0  0
  2  3  1  0  0  0  0
  3  4  2  0  0  0  0
  4  5  1  0  0  0  0
  4 12  1  0  0  0  0
  5  8  1  0  0  0  0
  6 11  1  0  0  0  0
  6  5  2  0  0  0  0
  7  1  1  0  0  0  0
 10  9  3  0  0  0  0
 12 13  2  0  0  0  0
 14 12  1  0  0  0  0
 14 15  1  0  0  0  0
M  RAD  2   2   2   3   2
M  END
