Coordinates from ORCA-job 2-HOOC-4-Br-C6H2-N2-B3LYPG-aug-cc-pVDZ-scan-d09-49-n400
 OpenBabel11091809123D

 15 14  0  0  0  0  0  0  0  0999 V2000
   -1.8147   -1.5138   -1.0472 C   0  0  0  0  0  0  0  0  0  0  0  0
   -0.4868   -1.1197   -1.0660 C   0  0  0  0  0  0  0  0  0  0  0  0
   -0.0357    0.0358   -0.9010 C   0  0  0  0  0  0  0  0  0  0  0  0
   -0.7674    1.1925   -0.6588 C   0  0  0  0  0  0  0  0  0  0  0  0
   -2.1545    0.9142   -0.6158 C   0  0  0  0  0  0  0  0  0  0  0  0
   -2.6437   -0.3910   -0.8040 C   0  0  0  0  0  0  0  0  0  0  0  0
   -2.2165   -2.5139   -1.1903 H   0  0  0  0  0  0  0  0  0  0  0  0
   -2.8435    1.7371   -0.4326 H   0  0  0  0  0  0  0  0  0  0  0  0
    4.3187    0.1292   -0.5603 N   0  0  0  0  0  0  0  0  0  0  0  0
    4.8836    0.0782   -1.5080 N   0  0  0  0  0  0  0  0  0  0  0  0
   -4.5387   -0.6803   -0.7300 Br  0  0  0  0  0  0  0  0  0  0  0  0
   -0.2522    2.5711   -0.4603 C   0  0  0  0  0  0  0  0  0  0  0  0
   -0.9478    3.5420   -0.2509 O   0  0  0  0  0  0  0  0  0  0  0  0
    1.0986    2.6262   -0.5399 O   0  0  0  0  0  0  0  0  0  0  0  0
    1.3497    3.5534   -0.3988 H   0  0  0  0  0  0  0  0  0  0  0  0
  1  6  1  0  0  0  0
  2  1  2  0  0  0  0
  2  3  1  0  0  0  0
  3  4  2  0  0  0  0
  4  5  1  0  0  0  0
  4 12  1  0  0  0  0
  5  8  1  0  0  0  0
  6 11  1  0  0  0  0
  6  5  2  0  0  0  0
  7  1  1  0  0  0  0
 10  9  3  0  0  0  0
 12 13  2  0  0  0  0
 14 12  1  0  0  0  0
 14 15  1  0  0  0  0
M  RAD  2   2   2   3   2
M  END
