Coordinates from ORCA-job 2-HOOC-4-Br-C6H2-N2-B3LYPG-aug-cc-pVDZ-scan-d09-49-n400
 OpenBabel11091809123D

 15 14  0  0  0  0  0  0  0  0999 V2000
   -1.4844   -1.5308   -1.0690 C   0  0  0  0  0  0  0  0  0  0  0  0
   -0.1439   -1.1627   -1.0270 C   0  0  0  0  0  0  0  0  0  0  0  0
    0.2619    0.0148   -0.8484 C   0  0  0  0  0  0  0  0  0  0  0  0
   -0.4744    1.1725   -0.6245 C   0  0  0  0  0  0  0  0  0  0  0  0
   -1.8601    0.8794   -0.6245 C   0  0  0  0  0  0  0  0  0  0  0  0
   -2.3331   -0.4259   -0.8387 C   0  0  0  0  0  0  0  0  0  0  0  0
   -1.8786   -2.5306   -1.2416 H   0  0  0  0  0  0  0  0  0  0  0  0
   -2.5579    1.6988   -0.4632 H   0  0  0  0  0  0  0  0  0  0  0  0
    2.4446    0.2323   -0.6414 N   0  0  0  0  0  0  0  0  0  0  0  0
    3.2880   -0.0134   -1.3146 N   0  0  0  0  0  0  0  0  0  0  0  0
   -4.2290   -0.7270   -0.8140 Br  0  0  0  0  0  0  0  0  0  0  0  0
   -0.0385    2.5824   -0.4294 C   0  0  0  0  0  0  0  0  0  0  0  0
   -0.7924    3.4891   -0.1465 O   0  0  0  0  0  0  0  0  0  0  0  0
    1.2909    2.7679   -0.6125 O   0  0  0  0  0  0  0  0  0  0  0  0
    1.4560    3.7143   -0.4686 H   0  0  0  0  0  0  0  0  0  0  0  0
  1  2  2  0  0  0  0
  1  6  1  0  0  0  0
  2  3  1  0  0  0  0
  3  4  2  0  0  0  0
  4 12  1  0  0  0  0
  5  4  1  0  0  0  0
  5  8  1  0  0  0  0
  6 11  1  0  0  0  0
  6  5  2  0  0  0  0
  7  1  1  0  0  0  0
 10  9  3  0  0  0  0
 12 13  2  0  0  0  0
 14 15  1  0  0  0  0
 14 12  1  0  0  0  0
M  RAD  2   2   2   3   2
M  END
