Coordinates from ORCA-job 2-HOOC-4-Br-C6H2-N2-B3LYPG-aug-cc-pVDZ-scan-d09-49-n400
 OpenBabel11091809123D

 15 14  0  0  0  0  0  0  0  0999 V2000
   -1.7210   -1.5174   -1.0403 C   0  0  0  0  0  0  0  0  0  0  0  0
   -0.3958   -1.1130   -1.0418 C   0  0  0  0  0  0  0  0  0  0  0  0
    0.0396    0.0486   -0.8770 C   0  0  0  0  0  0  0  0  0  0  0  0
   -0.7034    1.2009   -0.6511 C   0  0  0  0  0  0  0  0  0  0  0  0
   -2.0889    0.9097   -0.6262 C   0  0  0  0  0  0  0  0  0  0  0  0
   -2.5633   -0.4006   -0.8146 C   0  0  0  0  0  0  0  0  0  0  0  0
   -2.1124   -2.5216   -1.1840 H   0  0  0  0  0  0  0  0  0  0  0  0
   -2.7878    1.7272   -0.4573 H   0  0  0  0  0  0  0  0  0  0  0  0
    3.8466    0.1040   -0.6027 N   0  0  0  0  0  0  0  0  0  0  0  0
    4.4952    0.0409   -1.4947 N   0  0  0  0  0  0  0  0  0  0  0  0
   -4.4566   -0.7066   -0.7658 Br  0  0  0  0  0  0  0  0  0  0  0  0
   -0.2072    2.5867   -0.4533 C   0  0  0  0  0  0  0  0  0  0  0  0
   -0.9184    3.5486   -0.2549 O   0  0  0  0  0  0  0  0  0  0  0  0
    1.1432    2.6610   -0.5199 O   0  0  0  0  0  0  0  0  0  0  0  0
    1.3793    3.5925   -0.3803 H   0  0  0  0  0  0  0  0  0  0  0  0
  1  6  1  0  0  0  0
  2  1  2  0  0  0  0
  2  3  1  0  0  0  0
  3  4  2  0  0  0  0
  4  5  1  0  0  0  0
  4 12  1  0  0  0  0
  5  8  1  0  0  0  0
  6 11  1  0  0  0  0
  6  5  2  0  0  0  0
  7  1  1  0  0  0  0
 10  9  3  0  0  0  0
 12 13  2  0  0  0  0
 14 12  1  0  0  0  0
 14 15  1  0  0  0  0
M  RAD  2   2   2   3   2
M  END
