Coordinates from ORCA-job 2-HOOC-4-Br-C6H2-N2-B3LYPG-aug-cc-pVDZ-scan-d09-49-n400
 OpenBabel11091809123D

 15 14  0  0  0  0  0  0  0  0999 V2000
   -1.5900   -1.5197   -1.0339 C   0  0  0  0  0  0  0  0  0  0  0  0
   -0.2729   -1.0928   -1.0106 C   0  0  0  0  0  0  0  0  0  0  0  0
    0.1486    0.0734   -0.8446 C   0  0  0  0  0  0  0  0  0  0  0  0
   -0.6195    1.2145   -0.6402 C   0  0  0  0  0  0  0  0  0  0  0  0
   -2.0004    0.9031   -0.6391 C   0  0  0  0  0  0  0  0  0  0  0  0
   -2.4528   -0.4148   -0.8295 C   0  0  0  0  0  0  0  0  0  0  0  0
   -1.9626   -2.5306   -1.1806 H   0  0  0  0  0  0  0  0  0  0  0  0
   -2.7141    1.7112   -0.4880 H   0  0  0  0  0  0  0  0  0  0  0  0
    3.2468    0.0596   -0.6323 N   0  0  0  0  0  0  0  0  0  0  0  0
    3.9342   -0.0277   -1.4925 N   0  0  0  0  0  0  0  0  0  0  0  0
   -4.3422   -0.7478   -0.8136 Br  0  0  0  0  0  0  0  0  0  0  0  0
   -0.1519    2.6107   -0.4433 C   0  0  0  0  0  0  0  0  0  0  0  0
   -0.8831    3.5593   -0.2543 O   0  0  0  0  0  0  0  0  0  0  0  0
    1.1975    2.7129   -0.4999 O   0  0  0  0  0  0  0  0  0  0  0  0
    1.4116    3.6498   -0.3615 H   0  0  0  0  0  0  0  0  0  0  0  0
  1  2  2  0  0  0  0
  1  6  1  0  0  0  0
  2  3  1  0  0  0  0
  3  4  2  0  0  0  0
  4  5  1  0  0  0  0
  4 12  1  0  0  0  0
  5  8  1  0  0  0  0
  6 11  1  0  0  0  0
  6  5  2  0  0  0  0
  7  1  1  0  0  0  0
 10  9  3  0  0  0  0
 12 13  2  0  0  0  0
 14 12  1  0  0  0  0
 14 15  1  0  0  0  0
M  RAD  2   2   2   3   2
M  END
