Coordinates from ORCA-job 2-HOOC-4-Br-C6H2-N2-B3LYPG-aug-cc-pVDZ-scan-d09-49-n400
 OpenBabel11091809123D

 15 14  0  0  0  0  0  0  0  0999 V2000
   -1.8535   -1.5112   -1.0513 C   0  0  0  0  0  0  0  0  0  0  0  0
   -0.5252   -1.1195   -1.0782 C   0  0  0  0  0  0  0  0  0  0  0  0
   -0.0694    0.0341   -0.9129 C   0  0  0  0  0  0  0  0  0  0  0  0
   -0.7972    1.1916   -0.6622 C   0  0  0  0  0  0  0  0  0  0  0  0
   -2.1846    0.9165   -0.6107 C   0  0  0  0  0  0  0  0  0  0  0  0
   -2.6781   -0.3870   -0.7994 C   0  0  0  0  0  0  0  0  0  0  0  0
   -2.2585   -2.5101   -1.1944 H   0  0  0  0  0  0  0  0  0  0  0  0
   -2.8704    1.7403   -0.4205 H   0  0  0  0  0  0  0  0  0  0  0  0
    4.5535    0.1260   -0.5335 N   0  0  0  0  0  0  0  0  0  0  0  0
    5.0478    0.0803   -1.5202 N   0  0  0  0  0  0  0  0  0  0  0  0
   -4.5733   -0.6721   -0.7133 Br  0  0  0  0  0  0  0  0  0  0  0  0
   -0.2767    2.5681   -0.4629 C   0  0  0  0  0  0  0  0  0  0  0  0
   -0.9680    3.5407   -0.2473 O   0  0  0  0  0  0  0  0  0  0  0  0
    1.0738    2.6187   -0.5494 O   0  0  0  0  0  0  0  0  0  0  0  0
    1.3291    3.5447   -0.4076 H   0  0  0  0  0  0  0  0  0  0  0  0
  1  6  1  0  0  0  0
  2  1  2  0  0  0  0
  2  3  1  0  0  0  0
  3  4  2  0  0  0  0
  4  5  1  0  0  0  0
  4 12  1  0  0  0  0
  5  8  1  0  0  0  0
  6 11  1  0  0  0  0
  6  5  2  0  0  0  0
  7  1  1  0  0  0  0
 10  9  3  0  0  0  0
 12 13  2  0  0  0  0
 14 12  1  0  0  0  0
 14 15  1  0  0  0  0
M  RAD  2   2   2   3   2
M  END
