Coordinates from ORCA-job 2-HOOC-4-Br-C6H2-N2-B3LYPG-aug-cc-pVDZ-scan-d09-49-n400
 OpenBabel11091809123D

 15 14  0  0  0  0  0  0  0  0999 V2000
   -1.5176   -1.5250   -1.0815 C   0  0  0  0  0  0  0  0  0  0  0  0
   -0.1898   -1.1227   -1.0663 C   0  0  0  0  0  0  0  0  0  0  0  0
    0.2270    0.0451   -0.8860 C   0  0  0  0  0  0  0  0  0  0  0  0
   -0.5227    1.1902   -0.6405 C   0  0  0  0  0  0  0  0  0  0  0  0
   -1.9051    0.8839   -0.6134 C   0  0  0  0  0  0  0  0  0  0  0  0
   -2.3700   -0.4254   -0.8262 C   0  0  0  0  0  0  0  0  0  0  0  0
   -1.9023   -2.5280   -1.2529 H   0  0  0  0  0  0  0  0  0  0  0  0
   -2.6090    1.6939   -0.4309 H   0  0  0  0  0  0  0  0  0  0  0  0
    2.6798    0.1777   -0.5913 N   0  0  0  0  0  0  0  0  0  0  0  0
    3.4947   -0.0260   -1.3097 N   0  0  0  0  0  0  0  0  0  0  0  0
   -4.2611   -0.7470   -0.7709 Br  0  0  0  0  0  0  0  0  0  0  0  0
   -0.0730    2.5937   -0.4436 C   0  0  0  0  0  0  0  0  0  0  0  0
   -0.8149    3.5147   -0.1753 O   0  0  0  0  0  0  0  0  0  0  0  0
    1.2622    2.7471   -0.6089 O   0  0  0  0  0  0  0  0  0  0  0  0
    1.4509    3.6891   -0.4665 H   0  0  0  0  0  0  0  0  0  0  0  0
  1  2  2  0  0  0  0
  1  6  1  0  0  0  0
  2  3  1  0  0  0  0
  3  4  2  0  0  0  0
  4  5  1  0  0  0  0
  4 12  1  0  0  0  0
  5  8  1  0  0  0  0
  6 11  1  0  0  0  0
  6  5  2  0  0  0  0
  7  1  1  0  0  0  0
 10  9  3  0  0  0  0
 12 13  2  0  0  0  0
 14 15  1  0  0  0  0
 14 12  1  0  0  0  0
M  RAD  2   2   2   3   2
M  END
