Coordinates from ORCA-job 2-HOOC-4-Br-C6H2-N2-B3LYPG-aug-cc-pVDZ-scan-d09-49-n400
 OpenBabel11091809123D

 15 14  0  0  0  0  0  0  0  0999 V2000
   -1.6452   -1.5179   -1.0365 C   0  0  0  0  0  0  0  0  0  0  0  0
   -0.3236   -1.1020   -1.0244 C   0  0  0  0  0  0  0  0  0  0  0  0
    0.0993    0.0641   -0.8588 C   0  0  0  0  0  0  0  0  0  0  0  0
   -0.6566    1.2102   -0.6449 C   0  0  0  0  0  0  0  0  0  0  0  0
   -2.0396    0.9066   -0.6334 C   0  0  0  0  0  0  0  0  0  0  0  0
   -2.5001   -0.4085   -0.8228 C   0  0  0  0  0  0  0  0  0  0  0  0
   -2.0260   -2.5259   -1.1819 H   0  0  0  0  0  0  0  0  0  0  0  0
   -2.7474    1.7183   -0.4745 H   0  0  0  0  0  0  0  0  0  0  0  0
    3.5073    0.0727   -0.6211 N   0  0  0  0  0  0  0  0  0  0  0  0
    4.1800   -0.0024   -1.4941 N   0  0  0  0  0  0  0  0  0  0  0  0
   -4.3910   -0.7317   -0.7928 Br  0  0  0  0  0  0  0  0  0  0  0  0
   -0.1771    2.6021   -0.4476 C   0  0  0  0  0  0  0  0  0  0  0  0
   -0.9001    3.5564   -0.2555 O   0  0  0  0  0  0  0  0  0  0  0  0
    1.1728    2.6922   -0.5072 O   0  0  0  0  0  0  0  0  0  0  0  0
    1.3964    3.6269   -0.3683 H   0  0  0  0  0  0  0  0  0  0  0  0
  1  2  2  0  0  0  0
  1  6  1  0  0  0  0
  2  3  1  0  0  0  0
  3  4  2  0  0  0  0
  4  5  1  0  0  0  0
  4 12  1  0  0  0  0
  5  8  1  0  0  0  0
  6 11  1  0  0  0  0
  6  5  2  0  0  0  0
  7  1  1  0  0  0  0
 10  9  3  0  0  0  0
 12 13  2  0  0  0  0
 14 12  1  0  0  0  0
 14 15  1  0  0  0  0
M  RAD  2   2   2   3   2
M  END
