Coordinates from ORCA-job 2-HOOC-4-Br-C6H2-N2-B3LYPG-aug-cc-pVDZ-scan-d09-49-n400
 OpenBabel11091809123D

 15 14  0  0  0  0  0  0  0  0999 V2000
   -1.4874   -1.5308   -1.0698 C   0  0  0  0  0  0  0  0  0  0  0  0
   -0.1479   -1.1603   -1.0299 C   0  0  0  0  0  0  0  0  0  0  0  0
    0.2592    0.0161   -0.8509 C   0  0  0  0  0  0  0  0  0  0  0  0
   -0.4773    1.1733   -0.6255 C   0  0  0  0  0  0  0  0  0  0  0  0
   -1.8630    0.8795   -0.6237 C   0  0  0  0  0  0  0  0  0  0  0  0
   -2.3359   -0.4259   -0.8378 C   0  0  0  0  0  0  0  0  0  0  0  0
   -1.8813   -2.5308   -1.2423 H   0  0  0  0  0  0  0  0  0  0  0  0
   -2.5610    1.6985   -0.4609 H   0  0  0  0  0  0  0  0  0  0  0  0
    2.4620    0.2297   -0.6385 N   0  0  0  0  0  0  0  0  0  0  0  0
    3.3040   -0.0138   -1.3140 N   0  0  0  0  0  0  0  0  0  0  0  0
   -4.2317   -0.7276   -0.8111 Br  0  0  0  0  0  0  0  0  0  0  0  0
   -0.0406    2.5828   -0.4304 C   0  0  0  0  0  0  0  0  0  0  0  0
   -0.7941    3.4903   -0.1490 O   0  0  0  0  0  0  0  0  0  0  0  0
    1.2892    2.7668   -0.6118 O   0  0  0  0  0  0  0  0  0  0  0  0
    1.4548    3.7132   -0.4684 H   0  0  0  0  0  0  0  0  0  0  0  0
  1  2  2  0  0  0  0
  1  6  1  0  0  0  0
  2  3  1  0  0  0  0
  3  4  2  0  0  0  0
  4  5  1  0  0  0  0
  4 12  1  0  0  0  0
  5  8  1  0  0  0  0
  6 11  1  0  0  0  0
  6  5  2  0  0  0  0
  7  1  1  0  0  0  0
 10  9  3  0  0  0  0
 12 13  2  0  0  0  0
 14 15  1  0  0  0  0
 14 12  1  0  0  0  0
M  RAD  2   2   2   3   2
M  END
