Coordinates from ORCA-job 2-HOOC-4-Br-C6H2-N2-B3LYPG-aug-cc-pVDZ-scan-d09-49-n400
 OpenBabel11091809123D

 15 14  0  0  0  0  0  0  0  0999 V2000
   -1.8492   -1.5115   -1.0509 C   0  0  0  0  0  0  0  0  0  0  0  0
   -0.5210   -1.1195   -1.0770 C   0  0  0  0  0  0  0  0  0  0  0  0
   -0.0657    0.0343   -0.9117 C   0  0  0  0  0  0  0  0  0  0  0  0
   -0.7939    1.1917   -0.6619 C   0  0  0  0  0  0  0  0  0  0  0  0
   -2.1813    0.9162   -0.6113 C   0  0  0  0  0  0  0  0  0  0  0  0
   -2.6743   -0.3875   -0.7999 C   0  0  0  0  0  0  0  0  0  0  0  0
   -2.2538   -2.5105   -1.1940 H   0  0  0  0  0  0  0  0  0  0  0  0
   -2.8675    1.7400   -0.4217 H   0  0  0  0  0  0  0  0  0  0  0  0
    4.5273    0.1263   -0.5364 N   0  0  0  0  0  0  0  0  0  0  0  0
    5.0302    0.0800   -1.5187 N   0  0  0  0  0  0  0  0  0  0  0  0
   -4.5695   -0.6730   -0.7150 Br  0  0  0  0  0  0  0  0  0  0  0  0
   -0.2741    2.5684   -0.4627 C   0  0  0  0  0  0  0  0  0  0  0  0
   -0.9658    3.5409   -0.2477 O   0  0  0  0  0  0  0  0  0  0  0  0
    1.0765    2.6195   -0.5484 O   0  0  0  0  0  0  0  0  0  0  0  0
    1.3314    3.5456   -0.4066 H   0  0  0  0  0  0  0  0  0  0  0  0
  1  6  1  0  0  0  0
  2  1  2  0  0  0  0
  2  3  1  0  0  0  0
  3  4  2  0  0  0  0
  4  5  1  0  0  0  0
  4 12  1  0  0  0  0
  5  8  1  0  0  0  0
  6 11  1  0  0  0  0
  6  5  2  0  0  0  0
  7  1  1  0  0  0  0
 10  9  3  0  0  0  0
 12 13  2  0  0  0  0
 14 12  1  0  0  0  0
 14 15  1  0  0  0  0
M  RAD  2   2   2   3   2
M  END
