Coordinates from ORCA-job 2-HOOC-4-Br-C6H2-N2-B3LYPG-aug-cc-pVDZ-scan-d09-49-n400
 OpenBabel11091809123D

 15 15  0  0  0  0  0  0  0  0999 V2000
   -1.3618   -1.4874   -1.0743 C   0  0  0  0  0  0  0  0  0  0  0  0
    0.0461   -1.3855   -1.1302 C   0  0  0  0  0  0  0  0  0  0  0  0
    0.5604    0.0478   -0.9041 C   0  0  0  0  0  0  0  0  0  0  0  0
   -0.3974    1.1463   -0.6645 C   0  0  0  0  0  0  0  0  0  0  0  0
   -1.7437    0.8899   -0.6210 C   0  0  0  0  0  0  0  0  0  0  0  0
   -2.2181   -0.4262   -0.8219 C   0  0  0  0  0  0  0  0  0  0  0  0
   -1.7915   -2.4794   -1.2356 H   0  0  0  0  0  0  0  0  0  0  0  0
   -2.4295    1.7125   -0.4360 H   0  0  0  0  0  0  0  0  0  0  0  0
    1.5449    0.1506   -0.9319 N   0  0  0  0  0  0  0  0  0  0  0  0
    2.6951    0.1946   -0.9764 N   0  0  0  0  0  0  0  0  0  0  0  0
   -4.1050   -0.7026   -0.7391 Br  0  0  0  0  0  0  0  0  0  0  0  0
    0.0195    2.5724   -0.4568 C   0  0  0  0  0  0  0  0  0  0  0  0
   -0.7565    3.4760   -0.2384 O   0  0  0  0  0  0  0  0  0  0  0  0
    1.3571    2.7536   -0.5395 O   0  0  0  0  0  0  0  0  0  0  0  0
    1.5294    3.6985   -0.3943 H   0  0  0  0  0  0  0  0  0  0  0  0
  1  6  1  0  0  0  0
  2  1  2  0  0  0  0
  2  3  1  0  0  0  0
  3  4  2  0  0  0  0
  4  5  1  0  0  0  0
  4 12  1  0  0  0  0
  5  8  1  0  0  0  0
  6 11  1  0  0  0  0
  6  5  2  0  0  0  0
  7  1  1  0  0  0  0
  9  3  1  0  0  0  0
 10  9  1  0  0  0  0
 12 13  2  0  0  0  0
 14 12  1  0  0  0  0
 14 15  1  0  0  0  0
M  RAD  3   2   2   9   2  10   3
M  END
