Coordinates from ORCA-job 2-HOOC-4-Br-C6H2-N2-B3LYPG-aug-cc-pVDZ-scan-d09-49-n400
 OpenBabel11091809123D

 15 14  0  0  0  0  0  0  0  0999 V2000
   -1.8521   -1.5113   -1.0512 C   0  0  0  0  0  0  0  0  0  0  0  0
   -0.5238   -1.1195   -1.0778 C   0  0  0  0  0  0  0  0  0  0  0  0
   -0.0682    0.0341   -0.9125 C   0  0  0  0  0  0  0  0  0  0  0  0
   -0.7961    1.1916   -0.6621 C   0  0  0  0  0  0  0  0  0  0  0  0
   -2.1835    0.9164   -0.6109 C   0  0  0  0  0  0  0  0  0  0  0  0
   -2.6769   -0.3872   -0.7996 C   0  0  0  0  0  0  0  0  0  0  0  0
   -2.2569   -2.5102   -1.1943 H   0  0  0  0  0  0  0  0  0  0  0  0
   -2.8694    1.7402   -0.4209 H   0  0  0  0  0  0  0  0  0  0  0  0
    4.5447    0.1261   -0.5345 N   0  0  0  0  0  0  0  0  0  0  0  0
    5.0419    0.0802   -1.5197 N   0  0  0  0  0  0  0  0  0  0  0  0
   -4.5721   -0.6724   -0.7139 Br  0  0  0  0  0  0  0  0  0  0  0  0
   -0.2759    2.5682   -0.4628 C   0  0  0  0  0  0  0  0  0  0  0  0
   -0.9672    3.5408   -0.2475 O   0  0  0  0  0  0  0  0  0  0  0  0
    1.0747    2.6190   -0.5491 O   0  0  0  0  0  0  0  0  0  0  0  0
    1.3299    3.5450   -0.4072 H   0  0  0  0  0  0  0  0  0  0  0  0
  1  6  1  0  0  0  0
  2  1  2  0  0  0  0
  2  3  1  0  0  0  0
  3  4  2  0  0  0  0
  4  5  1  0  0  0  0
  4 12  1  0  0  0  0
  5  8  1  0  0  0  0
  6 11  1  0  0  0  0
  6  5  2  0  0  0  0
  7  1  1  0  0  0  0
 10  9  3  0  0  0  0
 12 13  2  0  0  0  0
 14 12  1  0  0  0  0
 14 15  1  0  0  0  0
M  RAD  2   2   2   3   2
M  END
