Coordinates from ORCA-job 2-HOOC-4-Br-C6H2-N2-B3LYPG-aug-cc-pVDZ-scan-d09-49-n400
 OpenBabel11091809123D

 15 14  0  0  0  0  0  0  0  0999 V2000
   -1.6838   -1.5180   -1.0382 C   0  0  0  0  0  0  0  0  0  0  0  0
   -0.3603   -1.1081   -1.0330 C   0  0  0  0  0  0  0  0  0  0  0  0
    0.0691    0.0557   -0.8680 C   0  0  0  0  0  0  0  0  0  0  0  0
   -0.6799    1.2052   -0.6481 C   0  0  0  0  0  0  0  0  0  0  0  0
   -2.0643    0.9081   -0.6300 C   0  0  0  0  0  0  0  0  0  0  0  0
   -2.5321   -0.4046   -0.8187 C   0  0  0  0  0  0  0  0  0  0  0  0
   -2.0702   -2.5240   -1.1826 H   0  0  0  0  0  0  0  0  0  0  0  0
   -2.7675    1.7229   -0.4662 H   0  0  0  0  0  0  0  0  0  0  0  0
    3.6767    0.0896   -0.6123 N   0  0  0  0  0  0  0  0  0  0  0  0
    4.3385    0.0219   -1.4942 N   0  0  0  0  0  0  0  0  0  0  0  0
   -4.4243   -0.7186   -0.7793 Br  0  0  0  0  0  0  0  0  0  0  0  0
   -0.1915    2.5939   -0.4506 C   0  0  0  0  0  0  0  0  0  0  0  0
   -0.9087    3.5522   -0.2556 O   0  0  0  0  0  0  0  0  0  0  0  0
    1.1586    2.6759   -0.5132 O   0  0  0  0  0  0  0  0  0  0  0  0
    1.3886    3.6090   -0.3740 H   0  0  0  0  0  0  0  0  0  0  0  0
  1  2  2  0  0  0  0
  1  6  1  0  0  0  0
  2  3  1  0  0  0  0
  3  4  2  0  0  0  0
  4  5  1  0  0  0  0
  4 12  1  0  0  0  0
  5  8  1  0  0  0  0
  6 11  1  0  0  0  0
  6  5  2  0  0  0  0
  7  1  1  0  0  0  0
 10  9  3  0  0  0  0
 12 13  2  0  0  0  0
 14 12  1  0  0  0  0
 14 15  1  0  0  0  0
M  RAD  2   2   2   3   2
M  END
