Coordinates from ORCA-job 2-HOOC-4-Br-C6H2-N2-B3LYPG-aug-cc-pVDZ-scan-d09-49-n400
 OpenBabel11091809123D

 15 14  0  0  0  0  0  0  0  0999 V2000
   -1.6491   -1.5179   -1.0367 C   0  0  0  0  0  0  0  0  0  0  0  0
   -0.3272   -1.1026   -1.0252 C   0  0  0  0  0  0  0  0  0  0  0  0
    0.0962    0.0633   -0.8597 C   0  0  0  0  0  0  0  0  0  0  0  0
   -0.6590    1.2097   -0.6452 C   0  0  0  0  0  0  0  0  0  0  0  0
   -2.0421    0.9067   -0.6331 C   0  0  0  0  0  0  0  0  0  0  0  0
   -2.5033   -0.4081   -0.8224 C   0  0  0  0  0  0  0  0  0  0  0  0
   -2.0304   -2.5257   -1.1820 H   0  0  0  0  0  0  0  0  0  0  0  0
   -2.7495    1.7188   -0.4738 H   0  0  0  0  0  0  0  0  0  0  0  0
    3.5242    0.0745   -0.6201 N   0  0  0  0  0  0  0  0  0  0  0  0
    4.1956    0.0004   -1.4942 N   0  0  0  0  0  0  0  0  0  0  0  0
   -4.3943   -0.7304   -0.7915 Br  0  0  0  0  0  0  0  0  0  0  0  0
   -0.1785    2.6012   -0.4479 C   0  0  0  0  0  0  0  0  0  0  0  0
   -0.9008    3.5560   -0.2555 O   0  0  0  0  0  0  0  0  0  0  0  0
    1.1715    2.6904   -0.5078 O   0  0  0  0  0  0  0  0  0  0  0  0
    1.3958    3.6249   -0.3688 H   0  0  0  0  0  0  0  0  0  0  0  0
  1  2  2  0  0  0  0
  1  6  1  0  0  0  0
  2  3  1  0  0  0  0
  3  4  2  0  0  0  0
  4  5  1  0  0  0  0
  4 12  1  0  0  0  0
  5  8  1  0  0  0  0
  6 11  1  0  0  0  0
  6  5  2  0  0  0  0
  7  1  1  0  0  0  0
 10  9  3  0  0  0  0
 12 13  2  0  0  0  0
 14 12  1  0  0  0  0
 14 15  1  0  0  0  0
M  RAD  2   2   2   3   2
M  END
