Coordinates from ORCA-job 2-HOOC-4-Br-C6H2-N2-B3LYPG-aug-cc-pVDZ-scan-d09-49-n400
 OpenBabel11091809123D

 15 15  0  0  0  0  0  0  0  0999 V2000
   -1.3972   -1.4970   -1.0552 C   0  0  0  0  0  0  0  0  0  0  0  0
   -0.0099   -1.2331   -1.0921 C   0  0  0  0  0  0  0  0  0  0  0  0
    0.3031    0.0257   -0.8987 C   0  0  0  0  0  0  0  0  0  0  0  0
   -0.4514    1.1791   -0.6604 C   0  0  0  0  0  0  0  0  0  0  0  0
   -1.8250    0.8918   -0.6282 C   0  0  0  0  0  0  0  0  0  0  0  0
   -2.2703   -0.4261   -0.8238 C   0  0  0  0  0  0  0  0  0  0  0  0
   -1.8035   -2.4996   -1.2001 H   0  0  0  0  0  0  0  0  0  0  0  0
   -2.5250    1.7045   -0.4505 H   0  0  0  0  0  0  0  0  0  0  0  0
    1.9962    0.2731   -0.9563 N   0  0  0  0  0  0  0  0  0  0  0  0
    3.0516   -0.0492   -1.0723 N   0  0  0  0  0  0  0  0  0  0  0  0
   -4.1645   -0.7532   -0.7678 Br  0  0  0  0  0  0  0  0  0  0  0  0
   -0.0172    2.5870   -0.4489 C   0  0  0  0  0  0  0  0  0  0  0  0
   -0.7721    3.5128   -0.2510 O   0  0  0  0  0  0  0  0  0  0  0  0
    1.3317    2.7502   -0.5030 O   0  0  0  0  0  0  0  0  0  0  0  0
    1.5027    3.6952   -0.3557 H   0  0  0  0  0  0  0  0  0  0  0  0
  1  6  1  0  0  0  0
  2  1  2  0  0  0  0
  2  3  1  0  0  0  0
  3  4  2  0  0  0  0
  4  5  1  0  0  0  0
  4 12  1  0  0  0  0
  5  8  1  0  0  0  0
  6 11  1  0  0  0  0
  6  5  2  0  0  0  0
  7  1  1  0  0  0  0
  9  3  1  0  0  0  0
 10  9  2  0  0  0  0
 12 13  2  0  0  0  0
 14 12  1  0  0  0  0
 14 15  1  0  0  0  0
M  RAD  2   2   2  10   2
M  END
