Coordinates from ORCA-job 2-HOOC-4-Br-C6H2-N2-B3LYPG-aug-cc-pVDZ-scan-d09-49-n400
 OpenBabel11091809123D

 15 14  0  0  0  0  0  0  0  0999 V2000
   -1.5515   -1.5245   -1.0541 C   0  0  0  0  0  0  0  0  0  0  0  0
   -0.2287   -1.1108   -1.0309 C   0  0  0  0  0  0  0  0  0  0  0  0
    0.1915    0.0561   -0.8609 C   0  0  0  0  0  0  0  0  0  0  0  0
   -0.5675    1.2002   -0.6398 C   0  0  0  0  0  0  0  0  0  0  0  0
   -1.9495    0.8929   -0.6285 C   0  0  0  0  0  0  0  0  0  0  0  0
   -2.4087   -0.4207   -0.8291 C   0  0  0  0  0  0  0  0  0  0  0  0
   -1.9306   -2.5314   -1.2124 H   0  0  0  0  0  0  0  0  0  0  0  0
   -2.6580    1.7031   -0.4650 H   0  0  0  0  0  0  0  0  0  0  0  0
    2.9337    0.1280   -0.6098 N   0  0  0  0  0  0  0  0  0  0  0  0
    3.6841   -0.0029   -1.4102 N   0  0  0  0  0  0  0  0  0  0  0  0
   -4.2993   -0.7463   -0.8000 Br  0  0  0  0  0  0  0  0  0  0  0  0
   -0.1063    2.5992   -0.4443 C   0  0  0  0  0  0  0  0  0  0  0  0
   -0.8418    3.5370   -0.2209 O   0  0  0  0  0  0  0  0  0  0  0  0
    1.2382    2.7212   -0.5488 O   0  0  0  0  0  0  0  0  0  0  0  0
    1.4434    3.6601   -0.4093 H   0  0  0  0  0  0  0  0  0  0  0  0
  1  2  2  0  0  0  0
  1  6  1  0  0  0  0
  2  3  1  0  0  0  0
  3  4  2  0  0  0  0
  4  5  1  0  0  0  0
  4 12  1  0  0  0  0
  5  8  1  0  0  0  0
  6 11  1  0  0  0  0
  6  5  2  0  0  0  0
  7  1  1  0  0  0  0
 10  9  3  0  0  0  0
 12 13  2  0  0  0  0
 14 12  1  0  0  0  0
 14 15  1  0  0  0  0
M  RAD  2   2   2   3   2
M  END
