Coordinates from ORCA-job 2-HOOC-4-Br-C6H2-N2-B3LYPG-aug-cc-pVDZ-scan-d09-49-n400
 OpenBabel11091809123D

 15 14  0  0  0  0  0  0  0  0999 V2000
   -1.6317   -1.5178   -1.0361 C   0  0  0  0  0  0  0  0  0  0  0  0
   -0.3107   -1.0998   -1.0218 C   0  0  0  0  0  0  0  0  0  0  0  0
    0.1100    0.0671   -0.8559 C   0  0  0  0  0  0  0  0  0  0  0  0
   -0.6483    1.2120   -0.6438 C   0  0  0  0  0  0  0  0  0  0  0  0
   -2.0307    0.9060   -0.6344 C   0  0  0  0  0  0  0  0  0  0  0  0
   -2.4888   -0.4099   -0.8242 C   0  0  0  0  0  0  0  0  0  0  0  0
   -2.0105   -2.5266   -1.1819 H   0  0  0  0  0  0  0  0  0  0  0  0
   -2.7402    1.7167   -0.4772 H   0  0  0  0  0  0  0  0  0  0  0  0
    3.4481    0.0664   -0.6242 N   0  0  0  0  0  0  0  0  0  0  0  0
    4.1248   -0.0122   -1.4938 N   0  0  0  0  0  0  0  0  0  0  0  0
   -4.3792   -0.7362   -0.7971 Br  0  0  0  0  0  0  0  0  0  0  0  0
   -0.1721    2.6051   -0.4466 C   0  0  0  0  0  0  0  0  0  0  0  0
   -0.8977    3.5576   -0.2555 O   0  0  0  0  0  0  0  0  0  0  0  0
    1.1776    2.6987   -0.5051 O   0  0  0  0  0  0  0  0  0  0  0  0
    1.3984    3.6341   -0.3663 H   0  0  0  0  0  0  0  0  0  0  0  0
  1  2  2  0  0  0  0
  1  6  1  0  0  0  0
  2  3  1  0  0  0  0
  3  4  2  0  0  0  0
  4  5  1  0  0  0  0
  4 12  1  0  0  0  0
  5  8  1  0  0  0  0
  6 11  1  0  0  0  0
  6  5  2  0  0  0  0
  7  1  1  0  0  0  0
 10  9  3  0  0  0  0
 12 13  2  0  0  0  0
 14 12  1  0  0  0  0
 14 15  1  0  0  0  0
M  RAD  2   2   2   3   2
M  END
