Coordinates from ORCA-job 2-HOOC-4-Br-C6H2-N2-B3LYPG-aug-cc-pVDZ-scan-d09-49-n400
 OpenBabel11091809123D

 15 14  0  0  0  0  0  0  0  0999 V2000
   -1.5686   -1.5239   -1.0416 C   0  0  0  0  0  0  0  0  0  0  0  0
   -0.2469   -1.1083   -1.0117 C   0  0  0  0  0  0  0  0  0  0  0  0
    0.1740    0.0587   -0.8450 C   0  0  0  0  0  0  0  0  0  0  0  0
   -0.5878    1.2032   -0.6363 C   0  0  0  0  0  0  0  0  0  0  0  0
   -1.9699    0.8970   -0.6351 C   0  0  0  0  0  0  0  0  0  0  0  0
   -2.4274   -0.4180   -0.8313 C   0  0  0  0  0  0  0  0  0  0  0  0
   -1.9463   -2.5320   -1.1954 H   0  0  0  0  0  0  0  0  0  0  0  0
   -2.6797    1.7080   -0.4818 H   0  0  0  0  0  0  0  0  0  0  0  0
    3.0598    0.1118   -0.6209 N   0  0  0  0  0  0  0  0  0  0  0  0
    3.7742    0.0032   -1.4568 N   0  0  0  0  0  0  0  0  0  0  0  0
   -4.3180   -0.7438   -0.8170 Br  0  0  0  0  0  0  0  0  0  0  0  0
   -0.1217    2.6004   -0.4413 C   0  0  0  0  0  0  0  0  0  0  0  0
   -0.8543    3.5452   -0.2383 O   0  0  0  0  0  0  0  0  0  0  0  0
    1.2253    2.7108   -0.5240 O   0  0  0  0  0  0  0  0  0  0  0  0
    1.4364    3.6488   -0.3875 H   0  0  0  0  0  0  0  0  0  0  0  0
  1  2  2  0  0  0  0
  1  6  1  0  0  0  0
  2  3  1  0  0  0  0
  3  4  2  0  0  0  0
  4  5  1  0  0  0  0
  4 12  1  0  0  0  0
  5  8  1  0  0  0  0
  6 11  1  0  0  0  0
  6  5  2  0  0  0  0
  7  1  1  0  0  0  0
 10  9  3  0  0  0  0
 12 13  2  0  0  0  0
 14 12  1  0  0  0  0
 14 15  1  0  0  0  0
M  RAD  2   2   2   3   2
M  END
