Coordinates from ORCA-job 2-HOOC-4-Br-C6H2-N2-B3LYPG-aug-cc-pVDZ-scan-d09-49-n400
 OpenBabel11091809123D

 15 15  0  0  0  0  0  0  0  0999 V2000
   -1.3805   -1.4906   -1.0547 C   0  0  0  0  0  0  0  0  0  0  0  0
    0.0287   -1.3013   -1.1061 C   0  0  0  0  0  0  0  0  0  0  0  0
    0.3698    0.0248   -0.9034 C   0  0  0  0  0  0  0  0  0  0  0  0
   -0.4425    1.1698   -0.6636 C   0  0  0  0  0  0  0  0  0  0  0  0
   -1.8036    0.8973   -0.6291 C   0  0  0  0  0  0  0  0  0  0  0  0
   -2.2488   -0.4266   -0.8250 C   0  0  0  0  0  0  0  0  0  0  0  0
   -1.8026   -2.4879   -1.1971 H   0  0  0  0  0  0  0  0  0  0  0  0
   -2.5032    1.7100   -0.4515 H   0  0  0  0  0  0  0  0  0  0  0  0
    1.8214    0.1833   -0.9621 N   0  0  0  0  0  0  0  0  0  0  0  0
    2.9309    0.1370   -1.0335 N   0  0  0  0  0  0  0  0  0  0  0  0
   -4.1461   -0.7348   -0.7650 Br  0  0  0  0  0  0  0  0  0  0  0  0
   -0.0050    2.5777   -0.4533 C   0  0  0  0  0  0  0  0  0  0  0  0
   -0.7500    3.5102   -0.2521 O   0  0  0  0  0  0  0  0  0  0  0  0
    1.3470    2.7254   -0.5074 O   0  0  0  0  0  0  0  0  0  0  0  0
    1.5336    3.6669   -0.3599 H   0  0  0  0  0  0  0  0  0  0  0  0
  1  6  1  0  0  0  0
  2  1  2  0  0  0  0
  2  3  1  0  0  0  0
  3  4  2  0  0  0  0
  4  5  1  0  0  0  0
  4 12  1  0  0  0  0
  5  8  1  0  0  0  0
  6 11  1  0  0  0  0
  6  5  2  0  0  0  0
  7  1  1  0  0  0  0
  9  3  1  0  0  0  0
 10  9  1  0  0  0  0
 12 13  2  0  0  0  0
 14 12  1  0  0  0  0
 14 15  1  0  0  0  0
M  RAD  3   2   2   9   2  10   3
M  END
