Coordinates from ORCA-job 2-HOOC-4-Br-C6H2-N2-B3LYPG-aug-cc-pVDZ-scan-d09-49-n400
 OpenBabel11091809123D

 15 15  0  0  0  0  0  0  0  0999 V2000
   -1.3814   -1.4904   -1.0552 C   0  0  0  0  0  0  0  0  0  0  0  0
    0.0275   -1.3002   -1.1061 C   0  0  0  0  0  0  0  0  0  0  0  0
    0.3671    0.0246   -0.9028 C   0  0  0  0  0  0  0  0  0  0  0  0
   -0.4436    1.1697   -0.6625 C   0  0  0  0  0  0  0  0  0  0  0  0
   -1.8049    0.8972   -0.6284 C   0  0  0  0  0  0  0  0  0  0  0  0
   -2.2501   -0.4265   -0.8250 C   0  0  0  0  0  0  0  0  0  0  0  0
   -1.8033   -2.4876   -1.1984 H   0  0  0  0  0  0  0  0  0  0  0  0
   -2.5045    1.7099   -0.4504 H   0  0  0  0  0  0  0  0  0  0  0  0
    1.8286    0.1847   -0.9615 N   0  0  0  0  0  0  0  0  0  0  0  0
    2.9377    0.1349   -1.0334 N   0  0  0  0  0  0  0  0  0  0  0  0
   -4.1473   -0.7352   -0.7655 Br  0  0  0  0  0  0  0  0  0  0  0  0
   -0.0056    2.5773   -0.4512 C   0  0  0  0  0  0  0  0  0  0  0  0
   -0.7504    3.5104   -0.2524 O   0  0  0  0  0  0  0  0  0  0  0  0
    1.3463    2.7252   -0.5085 O   0  0  0  0  0  0  0  0  0  0  0  0
    1.5329    3.6670   -0.3627 H   0  0  0  0  0  0  0  0  0  0  0  0
  1  6  1  0  0  0  0
  2  1  2  0  0  0  0
  2  3  1  0  0  0  0
  3  4  2  0  0  0  0
  4  5  1  0  0  0  0
  4 12  1  0  0  0  0
  5  8  1  0  0  0  0
  6 11  1  0  0  0  0
  6  5  2  0  0  0  0
  7  1  1  0  0  0  0
  9  3  1  0  0  0  0
 10  9  1  0  0  0  0
 12 13  2  0  0  0  0
 14 12  1  0  0  0  0
 14 15  1  0  0  0  0
M  RAD  3   2   2   9   2  10   3
M  END
