Coordinates from ORCA-job 2-HOOC-4-Br-C6H2-N2-B3LYPG-aug-cc-pVDZ-scan-d09-49-n400
 OpenBabel11091809123D

 15 15  0  0  0  0  0  0  0  0999 V2000
   -1.3771   -1.4710   -1.1589 C   0  0  0  0  0  0  0  0  0  0  0  0
    0.0350   -1.3382   -1.1574 C   0  0  0  0  0  0  0  0  0  0  0  0
    0.4704    0.0200   -0.8813 C   0  0  0  0  0  0  0  0  0  0  0  0
   -0.4124    1.1501   -0.6400 C   0  0  0  0  0  0  0  0  0  0  0  0
   -1.7624    0.8843   -0.5756 C   0  0  0  0  0  0  0  0  0  0  0  0
   -2.2274   -0.4305   -0.8103 C   0  0  0  0  0  0  0  0  0  0  0  0
   -1.8122   -2.4404   -1.4131 H   0  0  0  0  0  0  0  0  0  0  0  0
   -2.4544    1.6975   -0.3721 H   0  0  0  0  0  0  0  0  0  0  0  0
    1.6748    0.1321   -0.8284 N   0  0  0  0  0  0  0  0  0  0  0  0
    2.8000    0.1695   -0.7871 N   0  0  0  0  0  0  0  0  0  0  0  0
   -4.1137   -0.7331   -0.6569 Br  0  0  0  0  0  0  0  0  0  0  0  0
    0.0108    2.5731   -0.4675 C   0  0  0  0  0  0  0  0  0  0  0  0
   -0.7343    3.4772   -0.1617 O   0  0  0  0  0  0  0  0  0  0  0  0
    1.3366    2.7624   -0.6923 O   0  0  0  0  0  0  0  0  0  0  0  0
    1.5153    3.7079   -0.5612 H   0  0  0  0  0  0  0  0  0  0  0  0
  1  2  2  0  0  0  0
  1  6  1  0  0  0  0
  2  3  1  0  0  0  0
  3  9  1  0  0  0  0
  3  4  2  0  0  0  0
  4  5  1  0  0  0  0
  4 12  1  0  0  0  0
  5  8  1  0  0  0  0
  6 11  1  0  0  0  0
  6  5  2  0  0  0  0
  7  1  1  0  0  0  0
  9 10  1  0  0  0  0
 12 13  2  0  0  0  0
 14 15  1  0  0  0  0
 14 12  1  0  0  0  0
M  RAD  3   2   2   9   2  10   3
M  END
