Coordinates from ORCA-job 2-HOOC-4-Br-C6H2-N2-B3LYPG-aug-cc-pVDZ-scan-d09-49-n400
 OpenBabel11091809123D

 15 15  0  0  0  0  0  0  0  0999 V2000
   -1.3928   -1.4935   -1.0547 C   0  0  0  0  0  0  0  0  0  0  0  0
    0.0002   -1.2457   -1.0947 C   0  0  0  0  0  0  0  0  0  0  0  0
    0.3085    0.0252   -0.8991 C   0  0  0  0  0  0  0  0  0  0  0  0
   -0.4527    1.1777   -0.6607 C   0  0  0  0  0  0  0  0  0  0  0  0
   -1.8245    0.8935   -0.6281 C   0  0  0  0  0  0  0  0  0  0  0  0
   -2.2675   -0.4257   -0.8239 C   0  0  0  0  0  0  0  0  0  0  0  0
   -1.8016   -2.4955   -1.1992 H   0  0  0  0  0  0  0  0  0  0  0  0
   -2.5245    1.7062   -0.4505 H   0  0  0  0  0  0  0  0  0  0  0  0
    1.9631    0.2584   -0.9570 N   0  0  0  0  0  0  0  0  0  0  0  0
    3.0346   -0.0089   -1.0649 N   0  0  0  0  0  0  0  0  0  0  0  0
   -4.1619   -0.7531   -0.7679 Br  0  0  0  0  0  0  0  0  0  0  0  0
   -0.0149    2.5842   -0.4499 C   0  0  0  0  0  0  0  0  0  0  0  0
   -0.7648    3.5136   -0.2512 O   0  0  0  0  0  0  0  0  0  0  0  0
    1.3354    2.7405   -0.5046 O   0  0  0  0  0  0  0  0  0  0  0  0
    1.5125    3.6843   -0.3575 H   0  0  0  0  0  0  0  0  0  0  0  0
  1  6  1  0  0  0  0
  2  1  2  0  0  0  0
  2  3  1  0  0  0  0
  3  4  2  0  0  0  0
  4  5  1  0  0  0  0
  4 12  1  0  0  0  0
  5  8  1  0  0  0  0
  6 11  1  0  0  0  0
  6  5  2  0  0  0  0
  7  1  1  0  0  0  0
  9  3  1  0  0  0  0
 10  9  1  0  0  0  0
 12 13  2  0  0  0  0
 14 12  1  0  0  0  0
 14 15  1  0  0  0  0
M  RAD  3   2   2   9   2  10   3
M  END
