Coordinates from ORCA-job 2-HOOC-4-Br-C6H2-N2-B3LYPG-aug-cc-pVDZ-scan-d09-49-n400
 OpenBabel11091809123D

 15 14  0  0  0  0  0  0  0  0999 V2000
   -1.6297   -1.5178   -1.0361 C   0  0  0  0  0  0  0  0  0  0  0  0
   -0.3089   -1.0995   -1.0214 C   0  0  0  0  0  0  0  0  0  0  0  0
    0.1115    0.0675   -0.8555 C   0  0  0  0  0  0  0  0  0  0  0  0
   -0.6471    1.2123   -0.6437 C   0  0  0  0  0  0  0  0  0  0  0  0
   -2.0295    0.9059   -0.6346 C   0  0  0  0  0  0  0  0  0  0  0  0
   -2.4872   -0.4101   -0.8244 C   0  0  0  0  0  0  0  0  0  0  0  0
   -2.0083   -2.5267   -1.1819 H   0  0  0  0  0  0  0  0  0  0  0  0
   -2.7392    1.7164   -0.4775 H   0  0  0  0  0  0  0  0  0  0  0  0
    3.4396    0.0655   -0.6246 N   0  0  0  0  0  0  0  0  0  0  0  0
    4.1169   -0.0137   -1.4937 N   0  0  0  0  0  0  0  0  0  0  0  0
   -4.3775   -0.7369   -0.7977 Br  0  0  0  0  0  0  0  0  0  0  0  0
   -0.1714    2.6055   -0.4465 C   0  0  0  0  0  0  0  0  0  0  0  0
   -0.8973    3.5578   -0.2555 O   0  0  0  0  0  0  0  0  0  0  0  0
    1.1783    2.6997   -0.5048 O   0  0  0  0  0  0  0  0  0  0  0  0
    1.3987    3.6351   -0.3660 H   0  0  0  0  0  0  0  0  0  0  0  0
  1  2  2  0  0  0  0
  1  6  1  0  0  0  0
  2  3  1  0  0  0  0
  3  4  2  0  0  0  0
  4  5  1  0  0  0  0
  4 12  1  0  0  0  0
  5  8  1  0  0  0  0
  6 11  1  0  0  0  0
  6  5  2  0  0  0  0
  7  1  1  0  0  0  0
 10  9  3  0  0  0  0
 12 13  2  0  0  0  0
 14 12  1  0  0  0  0
 14 15  1  0  0  0  0
M  RAD  2   2   2   3   2
M  END
