Coordinates from ORCA-job 2-HOOC-4-Br-C6H2-N2-B3LYPG-aug-cc-pVDZ-scan-d09-49-n400
 OpenBabel11091809123D

 15 14  0  0  0  0  0  0  0  0999 V2000
   -1.5196   -1.5249   -1.0794 C   0  0  0  0  0  0  0  0  0  0  0  0
   -0.1921   -1.1218   -1.0638 C   0  0  0  0  0  0  0  0  0  0  0  0
    0.2239    0.0464   -0.8850 C   0  0  0  0  0  0  0  0  0  0  0  0
   -0.5263    1.1915   -0.6415 C   0  0  0  0  0  0  0  0  0  0  0  0
   -1.9085    0.8846   -0.6147 C   0  0  0  0  0  0  0  0  0  0  0  0
   -2.3726   -0.4252   -0.8263 C   0  0  0  0  0  0  0  0  0  0  0  0
   -1.9039   -2.5282   -1.2494 H   0  0  0  0  0  0  0  0  0  0  0  0
   -2.6130    1.6945   -0.4337 H   0  0  0  0  0  0  0  0  0  0  0  0
    2.6974    0.1731   -0.5921 N   0  0  0  0  0  0  0  0  0  0  0  0
    3.5083   -0.0248   -1.3165 N   0  0  0  0  0  0  0  0  0  0  0  0
   -4.2636   -0.7476   -0.7725 Br  0  0  0  0  0  0  0  0  0  0  0  0
   -0.0758    2.5948   -0.4461 C   0  0  0  0  0  0  0  0  0  0  0  0
   -0.8165    3.5163   -0.1761 O   0  0  0  0  0  0  0  0  0  0  0  0
    1.2604    2.7455   -0.6055 O   0  0  0  0  0  0  0  0  0  0  0  0
    1.4510    3.6868   -0.4613 H   0  0  0  0  0  0  0  0  0  0  0  0
  1  2  2  0  0  0  0
  1  6  1  0  0  0  0
  2  3  1  0  0  0  0
  3  4  2  0  0  0  0
  4  5  1  0  0  0  0
  4 12  1  0  0  0  0
  5  8  1  0  0  0  0
  6 11  1  0  0  0  0
  6  5  2  0  0  0  0
  7  1  1  0  0  0  0
 10  9  3  0  0  0  0
 12 13  2  0  0  0  0
 14 15  1  0  0  0  0
 14 12  1  0  0  0  0
M  RAD  2   2   2   3   2
M  END
