Coordinates from ORCA-job 2-HOOC-4-Br-C6H2-N2-B3LYPG-aug-cc-pVDZ-scan-d09-49-n400
 OpenBabel11091809123D

 15 14  0  0  0  0  0  0  0  0999 V2000
   -1.8263   -1.5130   -1.0485 C   0  0  0  0  0  0  0  0  0  0  0  0
   -0.4983   -1.1196   -1.0699 C   0  0  0  0  0  0  0  0  0  0  0  0
   -0.0458    0.0353   -0.9047 C   0  0  0  0  0  0  0  0  0  0  0  0
   -0.7763    1.1922   -0.6599 C   0  0  0  0  0  0  0  0  0  0  0  0
   -2.1635    0.9149   -0.6142 C   0  0  0  0  0  0  0  0  0  0  0  0
   -2.6540   -0.3898   -0.8026 C   0  0  0  0  0  0  0  0  0  0  0  0
   -2.2290   -2.5127   -1.1917 H   0  0  0  0  0  0  0  0  0  0  0  0
   -2.8515    1.7380   -0.4288 H   0  0  0  0  0  0  0  0  0  0  0  0
    4.3881    0.1281   -0.5523 N   0  0  0  0  0  0  0  0  0  0  0  0
    4.9337    0.0786   -1.5114 N   0  0  0  0  0  0  0  0  0  0  0  0
   -4.5490   -0.6779   -0.7248 Br  0  0  0  0  0  0  0  0  0  0  0  0
   -0.2596    2.5702   -0.4611 C   0  0  0  0  0  0  0  0  0  0  0  0
   -0.9539    3.5416   -0.2499 O   0  0  0  0  0  0  0  0  0  0  0  0
    1.0911    2.6241   -0.5428 O   0  0  0  0  0  0  0  0  0  0  0  0
    1.3434    3.5510   -0.4015 H   0  0  0  0  0  0  0  0  0  0  0  0
  1  6  1  0  0  0  0
  2  1  2  0  0  0  0
  2  3  1  0  0  0  0
  3  4  2  0  0  0  0
  4  5  1  0  0  0  0
  4 12  1  0  0  0  0
  5  8  1  0  0  0  0
  6 11  1  0  0  0  0
  6  5  2  0  0  0  0
  7  1  1  0  0  0  0
 10  9  3  0  0  0  0
 12 13  2  0  0  0  0
 14 12  1  0  0  0  0
 14 15  1  0  0  0  0
M  RAD  2   2   2   3   2
M  END
