Coordinates from ORCA-job 2-HOOC-4-Br-C6H2-N2-B3LYPG-aug-cc-pVDZ-scan-d09-49-n400
 OpenBabel11091809123D

 15 15  0  0  0  0  0  0  0  0999 V2000
   -1.3773   -1.4857   -1.0994 C   0  0  0  0  0  0  0  0  0  0  0  0
    0.0360   -1.3342   -1.1310 C   0  0  0  0  0  0  0  0  0  0  0  0
    0.4404    0.0209   -0.8980 C   0  0  0  0  0  0  0  0  0  0  0  0
   -0.4209    1.1571   -0.6554 C   0  0  0  0  0  0  0  0  0  0  0  0
   -1.7741    0.8918   -0.6078 C   0  0  0  0  0  0  0  0  0  0  0  0
   -2.2329   -0.4290   -0.8194 C   0  0  0  0  0  0  0  0  0  0  0  0
   -1.8095   -2.4707   -1.2899 H   0  0  0  0  0  0  0  0  0  0  0  0
   -2.4692    1.7059   -0.4196 H   0  0  0  0  0  0  0  0  0  0  0  0
    1.7153    0.1452   -0.9040 N   0  0  0  0  0  0  0  0  0  0  0  0
    2.8361    0.1774   -0.9190 N   0  0  0  0  0  0  0  0  0  0  0  0
   -4.1270   -0.7225   -0.7166 Br  0  0  0  0  0  0  0  0  0  0  0  0
    0.0052    2.5752   -0.4604 C   0  0  0  0  0  0  0  0  0  0  0  0
   -0.7464    3.4900   -0.2078 O   0  0  0  0  0  0  0  0  0  0  0  0
    1.3470    2.7481   -0.5895 O   0  0  0  0  0  0  0  0  0  0  0  0
    1.5263    3.6917   -0.4461 H   0  0  0  0  0  0  0  0  0  0  0  0
  1  6  1  0  0  0  0
  2  1  2  0  0  0  0
  2  3  1  0  0  0  0
  3  4  2  0  0  0  0
  4  5  1  0  0  0  0
  4 12  1  0  0  0  0
  5  8  1  0  0  0  0
  6 11  1  0  0  0  0
  6  5  2  0  0  0  0
  7  1  1  0  0  0  0
  9  3  1  0  0  0  0
 10  9  1  0  0  0  0
 12 13  2  0  0  0  0
 14 12  1  0  0  0  0
 14 15  1  0  0  0  0
M  RAD  3   2   2   9   2  10   3
M  END
