Coordinates from ORCA-job 2-HOOC-4-Br-C6H2-N2-B3LYPG-aug-cc-pVDZ-scan-d09-49-n400
 OpenBabel11091809123D

 15 14  0  0  0  0  0  0  0  0999 V2000
   -1.7301   -1.5172   -1.0409 C   0  0  0  0  0  0  0  0  0  0  0  0
   -0.4046   -1.1141   -1.0440 C   0  0  0  0  0  0  0  0  0  0  0  0
    0.0323    0.0470   -0.8792 C   0  0  0  0  0  0  0  0  0  0  0  0
   -0.7092    1.1999   -0.6518 C   0  0  0  0  0  0  0  0  0  0  0  0
   -2.0950    0.9101   -0.6253 C   0  0  0  0  0  0  0  0  0  0  0  0
   -2.5710   -0.3997   -0.8136 C   0  0  0  0  0  0  0  0  0  0  0  0
   -2.1228   -2.5209   -1.1844 H   0  0  0  0  0  0  0  0  0  0  0  0
   -2.7928    1.7283   -0.4551 H   0  0  0  0  0  0  0  0  0  0  0  0
    3.8892    0.1073   -0.6002 N   0  0  0  0  0  0  0  0  0  0  0  0
    4.5339    0.0452   -1.4950 N   0  0  0  0  0  0  0  0  0  0  0  0
   -4.4646   -0.7037   -0.7624 Br  0  0  0  0  0  0  0  0  0  0  0  0
   -0.2112    2.5851   -0.4540 C   0  0  0  0  0  0  0  0  0  0  0  0
   -0.9210    3.5478   -0.2546 O   0  0  0  0  0  0  0  0  0  0  0  0
    1.1392    2.6576   -0.5216 O   0  0  0  0  0  0  0  0  0  0  0  0
    1.3768    3.5886   -0.3819 H   0  0  0  0  0  0  0  0  0  0  0  0
  1  6  1  0  0  0  0
  2  1  2  0  0  0  0
  2  3  1  0  0  0  0
  3  4  2  0  0  0  0
  4  5  1  0  0  0  0
  4 12  1  0  0  0  0
  5  8  1  0  0  0  0
  6 11  1  0  0  0  0
  6  5  2  0  0  0  0
  7  1  1  0  0  0  0
 10  9  3  0  0  0  0
 12 13  2  0  0  0  0
 14 12  1  0  0  0  0
 14 15  1  0  0  0  0
M  RAD  2   2   2   3   2
M  END
