Coordinates from ORCA-job 2-HOOC-4-Br-C6H2-N2-B3LYPG-aug-cc-pVDZ-scan-d09-49-n400
 OpenBabel11091809123D

 15 15  0  0  0  0  0  0  0  0999 V2000
   -1.3722   -1.4684   -1.1635 C   0  0  0  0  0  0  0  0  0  0  0  0
    0.0389   -1.3512   -1.1613 C   0  0  0  0  0  0  0  0  0  0  0  0
    0.5064    0.0256   -0.8804 C   0  0  0  0  0  0  0  0  0  0  0  0
   -0.4043    1.1462   -0.6427 C   0  0  0  0  0  0  0  0  0  0  0  0
   -1.7518    0.8829   -0.5736 C   0  0  0  0  0  0  0  0  0  0  0  0
   -2.2216   -0.4299   -0.8097 C   0  0  0  0  0  0  0  0  0  0  0  0
   -1.8071   -2.4375   -1.4195 H   0  0  0  0  0  0  0  0  0  0  0  0
   -2.4406    1.6979   -0.3667 H   0  0  0  0  0  0  0  0  0  0  0  0
    1.6206    0.1312   -0.8241 N   0  0  0  0  0  0  0  0  0  0  0  0
    2.7537    0.1696   -0.7763 N   0  0  0  0  0  0  0  0  0  0  0  0
   -4.1049   -0.7298   -0.6515 Br  0  0  0  0  0  0  0  0  0  0  0  0
    0.0154    2.5726   -0.4707 C   0  0  0  0  0  0  0  0  0  0  0  0
   -0.7354    3.4706   -0.1602 O   0  0  0  0  0  0  0  0  0  0  0  0
    1.3379    2.7677   -0.6977 O   0  0  0  0  0  0  0  0  0  0  0  0
    1.5141    3.7136   -0.5658 H   0  0  0  0  0  0  0  0  0  0  0  0
  1  2  2  0  0  0  0
  1  6  1  0  0  0  0
  2  3  1  0  0  0  0
  3  9  1  0  0  0  0
  3  4  2  0  0  0  0
  4  5  1  0  0  0  0
  4 12  1  0  0  0  0
  5  8  1  0  0  0  0
  6 11  1  0  0  0  0
  6  5  2  0  0  0  0
  7  1  1  0  0  0  0
  9 10  1  0  0  0  0
 12 13  2  0  0  0  0
 14 15  1  0  0  0  0
 14 12  1  0  0  0  0
M  RAD  3   2   2   9   2  10   3
M  END
