Coordinates from ORCA-job 2-HOOC-4-Br-C6H2-N2-B3LYPG-aug-cc-pVDZ-scan-d09-49-n400
 OpenBabel11091809123D

 15 14  0  0  0  0  0  0  0  0999 V2000
   -1.5874   -1.5210   -1.0334 C   0  0  0  0  0  0  0  0  0  0  0  0
   -0.2698   -1.0954   -1.0086 C   0  0  0  0  0  0  0  0  0  0  0  0
    0.1524    0.0705   -0.8428 C   0  0  0  0  0  0  0  0  0  0  0  0
   -0.6148    1.2125   -0.6397 C   0  0  0  0  0  0  0  0  0  0  0  0
   -1.9960    0.9023   -0.6399 C   0  0  0  0  0  0  0  0  0  0  0  0
   -2.4494   -0.4153   -0.8303 C   0  0  0  0  0  0  0  0  0  0  0  0
   -1.9608   -2.5315   -1.1802 H   0  0  0  0  0  0  0  0  0  0  0  0
   -2.7091    1.7111   -0.4899 H   0  0  0  0  0  0  0  0  0  0  0  0
    3.2206    0.0685   -0.6321 N   0  0  0  0  0  0  0  0  0  0  0  0
    3.9093   -0.0194   -1.4912 N   0  0  0  0  0  0  0  0  0  0  0  0
   -4.3391   -0.7465   -0.8163 Br  0  0  0  0  0  0  0  0  0  0  0  0
   -0.1470    2.6087   -0.4431 C   0  0  0  0  0  0  0  0  0  0  0  0
   -0.8783    3.5572   -0.2535 O   0  0  0  0  0  0  0  0  0  0  0  0
    1.2023    2.7112   -0.5006 O   0  0  0  0  0  0  0  0  0  0  0  0
    1.4162    3.6482   -0.3623 H   0  0  0  0  0  0  0  0  0  0  0  0
  1  2  2  0  0  0  0
  1  6  1  0  0  0  0
  2  3  1  0  0  0  0
  3  4  2  0  0  0  0
  4 12  1  0  0  0  0
  5  4  1  0  0  0  0
  5  8  1  0  0  0  0
  6 11  1  0  0  0  0
  6  5  2  0  0  0  0
  7  1  1  0  0  0  0
 10  9  3  0  0  0  0
 12 13  2  0  0  0  0
 14 12  1  0  0  0  0
 14 15  1  0  0  0  0
M  RAD  2   2   2   3   2
M  END
