Coordinates from ORCA-job 2-HOOC-4-Br-C6H2-N2-B3LYPG-aug-cc-pVDZ-scan-d09-49-n400
 OpenBabel11091809123D

 15 15  0  0  0  0  0  0  0  0999 V2000
   -1.3905   -1.4926   -1.0539 C   0  0  0  0  0  0  0  0  0  0  0  0
    0.0044   -1.2504   -1.0953 C   0  0  0  0  0  0  0  0  0  0  0  0
    0.3132    0.0260   -0.8999 C   0  0  0  0  0  0  0  0  0  0  0  0
   -0.4528    1.1777   -0.6622 C   0  0  0  0  0  0  0  0  0  0  0  0
   -1.8235    0.8944   -0.6290 C   0  0  0  0  0  0  0  0  0  0  0  0
   -2.2655   -0.4256   -0.8239 C   0  0  0  0  0  0  0  0  0  0  0  0
   -1.8003   -2.4944   -1.1973 H   0  0  0  0  0  0  0  0  0  0  0  0
   -2.5238    1.7067   -0.4519 H   0  0  0  0  0  0  0  0  0  0  0  0
    1.9483    0.2533   -0.9581 N   0  0  0  0  0  0  0  0  0  0  0  0
    3.0243    0.0028   -1.0634 N   0  0  0  0  0  0  0  0  0  0  0  0
   -4.1601   -0.7529   -0.7673 Br  0  0  0  0  0  0  0  0  0  0  0  0
   -0.0144    2.5840   -0.4527 C   0  0  0  0  0  0  0  0  0  0  0  0
   -0.7627    3.5141   -0.2508 O   0  0  0  0  0  0  0  0  0  0  0  0
    1.3366    2.7375   -0.5037 O   0  0  0  0  0  0  0  0  0  0  0  0
    1.5159    3.6805   -0.3546 H   0  0  0  0  0  0  0  0  0  0  0  0
  1  6  1  0  0  0  0
  2  1  2  0  0  0  0
  2  3  1  0  0  0  0
  3  4  2  0  0  0  0
  4  5  1  0  0  0  0
  4 12  1  0  0  0  0
  5  8  1  0  0  0  0
  6 11  1  0  0  0  0
  6  5  2  0  0  0  0
  7  1  1  0  0  0  0
  9  3  1  0  0  0  0
 10  9  1  0  0  0  0
 12 13  2  0  0  0  0
 14 12  1  0  0  0  0
 14 15  1  0  0  0  0
M  RAD  3   2   2   9   2  10   3
M  END
