Coordinates from ORCA-job 2-HOOC-4-Br-C6H2-N2-B3LYPG-aug-cc-pVDZ-scan-d09-49-n400
 OpenBabel11091809123D

 15 14  0  0  0  0  0  0  0  0999 V2000
   -1.7518   -1.5167   -1.0422 C   0  0  0  0  0  0  0  0  0  0  0  0
   -0.4255   -1.1165   -1.0491 C   0  0  0  0  0  0  0  0  0  0  0  0
    0.0148    0.0433   -0.8845 C   0  0  0  0  0  0  0  0  0  0  0  0
   -0.7234    1.1976   -0.6535 C   0  0  0  0  0  0  0  0  0  0  0  0
   -2.1097    0.9111   -0.6230 C   0  0  0  0  0  0  0  0  0  0  0  0
   -2.5894   -0.3974   -0.8112 C   0  0  0  0  0  0  0  0  0  0  0  0
   -2.1472   -2.5194   -1.1854 H   0  0  0  0  0  0  0  0  0  0  0  0
   -2.8051    1.7307   -0.4499 H   0  0  0  0  0  0  0  0  0  0  0  0
    3.9912    0.1156   -0.5935 N   0  0  0  0  0  0  0  0  0  0  0  0
    4.6252    0.0553   -1.4961 N   0  0  0  0  0  0  0  0  0  0  0  0
   -4.4835   -0.6971   -0.7545 Br  0  0  0  0  0  0  0  0  0  0  0  0
   -0.2207    2.5810   -0.4555 C   0  0  0  0  0  0  0  0  0  0  0  0
   -0.9267    3.5460   -0.2538 O   0  0  0  0  0  0  0  0  0  0  0  0
    1.1299    2.6487   -0.5259 O   0  0  0  0  0  0  0  0  0  0  0  0
    1.3711    3.5787   -0.3857 H   0  0  0  0  0  0  0  0  0  0  0  0
  1  6  1  0  0  0  0
  2  1  2  0  0  0  0
  2  3  1  0  0  0  0
  3  4  2  0  0  0  0
  4  5  1  0  0  0  0
  4 12  1  0  0  0  0
  5  8  1  0  0  0  0
  6 11  1  0  0  0  0
  6  5  2  0  0  0  0
  7  1  1  0  0  0  0
 10  9  3  0  0  0  0
 12 13  2  0  0  0  0
 14 12  1  0  0  0  0
 14 15  1  0  0  0  0
M  RAD  2   2   2   3   2
M  END
