Coordinates from ORCA-job 2-HOOC-4-Br-C6H2-N2-B3LYPG-aug-cc-pVDZ-scan-d09-49-n400
 OpenBabel11091809123D

 15 14  0  0  0  0  0  0  0  0999 V2000
   -1.5914   -1.5198   -1.0341 C   0  0  0  0  0  0  0  0  0  0  0  0
   -0.2742   -1.0933   -1.0114 C   0  0  0  0  0  0  0  0  0  0  0  0
    0.1468    0.0731   -0.8453 C   0  0  0  0  0  0  0  0  0  0  0  0
   -0.6202    1.2145   -0.6404 C   0  0  0  0  0  0  0  0  0  0  0  0
   -2.0014    0.9033   -0.6390 C   0  0  0  0  0  0  0  0  0  0  0  0
   -2.4540   -0.4145   -0.8293 C   0  0  0  0  0  0  0  0  0  0  0  0
   -1.9644   -2.5305   -1.1806 H   0  0  0  0  0  0  0  0  0  0  0  0
   -2.7150    1.7114   -0.4876 H   0  0  0  0  0  0  0  0  0  0  0  0
    3.2550    0.0585   -0.6321 N   0  0  0  0  0  0  0  0  0  0  0  0
    3.9419   -0.0285   -1.4927 N   0  0  0  0  0  0  0  0  0  0  0  0
   -4.3434   -0.7472   -0.8127 Br  0  0  0  0  0  0  0  0  0  0  0  0
   -0.1529    2.6109   -0.4434 C   0  0  0  0  0  0  0  0  0  0  0  0
   -0.8846    3.5592   -0.2544 O   0  0  0  0  0  0  0  0  0  0  0  0
    1.1963    2.7135   -0.4997 O   0  0  0  0  0  0  0  0  0  0  0  0
    1.4104    3.6505   -0.3613 H   0  0  0  0  0  0  0  0  0  0  0  0
  1  2  2  0  0  0  0
  1  6  1  0  0  0  0
  2  3  1  0  0  0  0
  3  4  2  0  0  0  0
  4  5  1  0  0  0  0
  4 12  1  0  0  0  0
  5  8  1  0  0  0  0
  6 11  1  0  0  0  0
  6  5  2  0  0  0  0
  7  1  1  0  0  0  0
 10  9  3  0  0  0  0
 12 13  2  0  0  0  0
 14 12  1  0  0  0  0
 14 15  1  0  0  0  0
M  RAD  2   2   2   3   2
M  END
