Coordinates from ORCA-job 2-HOOC-4-Br-C6H2-N2-B3LYPG-aug-cc-pVDZ-scan-d09-49-n400
 OpenBabel11091809123D

 15 15  0  0  0  0  0  0  0  0999 V2000
   -1.3759   -1.4682   -1.1685 C   0  0  0  0  0  0  0  0  0  0  0  0
    0.0356   -1.3412   -1.1620 C   0  0  0  0  0  0  0  0  0  0  0  0
    0.4827    0.0212   -0.8792 C   0  0  0  0  0  0  0  0  0  0  0  0
   -0.4093    1.1485   -0.6388 C   0  0  0  0  0  0  0  0  0  0  0  0
   -1.7583    0.8828   -0.5707 C   0  0  0  0  0  0  0  0  0  0  0  0
   -2.2251   -0.4306   -0.8089 C   0  0  0  0  0  0  0  0  0  0  0  0
   -1.8114   -2.4349   -1.4319 H   0  0  0  0  0  0  0  0  0  0  0  0
   -2.4493    1.6961   -0.3639 H   0  0  0  0  0  0  0  0  0  0  0  0
    1.6567    0.1301   -0.8170 N   0  0  0  0  0  0  0  0  0  0  0  0
    2.7841    0.1682   -0.7654 N   0  0  0  0  0  0  0  0  0  0  0  0
   -4.1095   -0.7344   -0.6469 Br  0  0  0  0  0  0  0  0  0  0  0  0
    0.0127    2.5728   -0.4696 C   0  0  0  0  0  0  0  0  0  0  0  0
   -0.7323    3.4741   -0.1552 O   0  0  0  0  0  0  0  0  0  0  0  0
    1.3351    2.7653   -0.7079 O   0  0  0  0  0  0  0  0  0  0  0  0
    1.5133    3.7111   -0.5781 H   0  0  0  0  0  0  0  0  0  0  0  0
  1  2  2  0  0  0  0
  1  6  1  0  0  0  0
  2  3  1  0  0  0  0
  3  9  1  0  0  0  0
  3  4  2  0  0  0  0
  4  5  1  0  0  0  0
  4 12  1  0  0  0  0
  5  8  1  0  0  0  0
  6 11  1  0  0  0  0
  6  5  2  0  0  0  0
  7  1  1  0  0  0  0
  9 10  1  0  0  0  0
 12 13  2  0  0  0  0
 14 15  1  0  0  0  0
 14 12  1  0  0  0  0
M  RAD  3   2   2   9   2  10   3
M  END
