Coordinates from ORCA-job 2-HOOC-4-Br-C6H2-N2-B3LYPG-aug-cc-pVDZ-scan-d09-49-n400
 OpenBabel11091809123D

 15 14  0  0  0  0  0  0  0  0999 V2000
   -1.8349   -1.5124   -1.0494 C   0  0  0  0  0  0  0  0  0  0  0  0
   -0.5068   -1.1195   -1.0727 C   0  0  0  0  0  0  0  0  0  0  0  0
   -0.0533    0.0350   -0.9074 C   0  0  0  0  0  0  0  0  0  0  0  0
   -0.7830    1.1921   -0.6607 C   0  0  0  0  0  0  0  0  0  0  0  0
   -2.1702    0.9154   -0.6130 C   0  0  0  0  0  0  0  0  0  0  0  0
   -2.6616   -0.3889   -0.8015 C   0  0  0  0  0  0  0  0  0  0  0  0
   -2.2383   -2.5119   -1.1926 H   0  0  0  0  0  0  0  0  0  0  0  0
   -2.8576    1.7387   -0.4260 H   0  0  0  0  0  0  0  0  0  0  0  0
    4.4403    0.1274   -0.5463 N   0  0  0  0  0  0  0  0  0  0  0  0
    4.9704    0.0790   -1.5141 N   0  0  0  0  0  0  0  0  0  0  0  0
   -4.5567   -0.6761   -0.7210 Br  0  0  0  0  0  0  0  0  0  0  0  0
   -0.2651    2.5696   -0.4617 C   0  0  0  0  0  0  0  0  0  0  0  0
   -0.9584    3.5414   -0.2491 O   0  0  0  0  0  0  0  0  0  0  0  0
    1.0856    2.6224   -0.5449 O   0  0  0  0  0  0  0  0  0  0  0  0
    1.3388    3.5490   -0.4034 H   0  0  0  0  0  0  0  0  0  0  0  0
  1  6  1  0  0  0  0
  2  1  2  0  0  0  0
  2  3  1  0  0  0  0
  3  4  2  0  0  0  0
  4  5  1  0  0  0  0
  4 12  1  0  0  0  0
  5  8  1  0  0  0  0
  6 11  1  0  0  0  0
  6  5  2  0  0  0  0
  7  1  1  0  0  0  0
 10  9  3  0  0  0  0
 12 13  2  0  0  0  0
 14 12  1  0  0  0  0
 14 15  1  0  0  0  0
M  RAD  2   2   2   3   2
M  END
