Coordinates from ORCA-job 2-HOOC-4-Br-C6H2-N2-B3LYPG-aug-cc-pVDZ-scan-d09-49-n400
 OpenBabel11091809123D

 15 14  0  0  0  0  0  0  0  0999 V2000
   -1.7677   -1.5163   -1.0431 C   0  0  0  0  0  0  0  0  0  0  0  0
   -0.4408   -1.1181   -1.0526 C   0  0  0  0  0  0  0  0  0  0  0  0
    0.0019    0.0407   -0.8880 C   0  0  0  0  0  0  0  0  0  0  0  0
   -0.7339    1.1960   -0.6546 C   0  0  0  0  0  0  0  0  0  0  0  0
   -2.1206    0.9119   -0.6216 C   0  0  0  0  0  0  0  0  0  0  0  0
   -2.6029   -0.3958   -0.8097 C   0  0  0  0  0  0  0  0  0  0  0  0
   -2.1650   -2.5183   -1.1860 H   0  0  0  0  0  0  0  0  0  0  0  0
   -2.8143    1.7325   -0.4463 H   0  0  0  0  0  0  0  0  0  0  0  0
    4.0679    0.1220   -0.5870 N   0  0  0  0  0  0  0  0  0  0  0  0
    4.6896    0.0633   -1.4982 N   0  0  0  0  0  0  0  0  0  0  0  0
   -4.4974   -0.6923   -0.7492 Br  0  0  0  0  0  0  0  0  0  0  0  0
   -0.2277    2.5780   -0.4565 C   0  0  0  0  0  0  0  0  0  0  0  0
   -0.9306    3.5448   -0.2529 O   0  0  0  0  0  0  0  0  0  0  0  0
    1.1231    2.6418   -0.5293 O   0  0  0  0  0  0  0  0  0  0  0  0
    1.3675    3.5710   -0.3888 H   0  0  0  0  0  0  0  0  0  0  0  0
  1  6  1  0  0  0  0
  2  1  2  0  0  0  0
  2  3  1  0  0  0  0
  3  4  2  0  0  0  0
  4  5  1  0  0  0  0
  4 12  1  0  0  0  0
  5  8  1  0  0  0  0
  6 11  1  0  0  0  0
  6  5  2  0  0  0  0
  7  1  1  0  0  0  0
 10  9  3  0  0  0  0
 12 13  2  0  0  0  0
 14 12  1  0  0  0  0
 14 15  1  0  0  0  0
M  RAD  2   2   2   3   2
M  END
