Coordinates from ORCA-job 2-HOOC-4-Br-C6H2-N2-B3LYPG-aug-cc-pVDZ-scan-d09-49-n400
 OpenBabel11091809123D

 15 15  0  0  0  0  0  0  0  0999 V2000
   -1.3596   -1.4892   -1.0645 C   0  0  0  0  0  0  0  0  0  0  0  0
    0.0446   -1.3984   -1.1291 C   0  0  0  0  0  0  0  0  0  0  0  0
    0.5847    0.0642   -0.9074 C   0  0  0  0  0  0  0  0  0  0  0  0
   -0.3959    1.1471   -0.6672 C   0  0  0  0  0  0  0  0  0  0  0  0
   -1.7415    0.8895   -0.6265 C   0  0  0  0  0  0  0  0  0  0  0  0
   -2.2175   -0.4250   -0.8230 C   0  0  0  0  0  0  0  0  0  0  0  0
   -1.7879   -2.4837   -1.2152 H   0  0  0  0  0  0  0  0  0  0  0  0
   -2.4264    1.7134   -0.4436 H   0  0  0  0  0  0  0  0  0  0  0  0
    1.5197    0.1550   -0.9430 N   0  0  0  0  0  0  0  0  0  0  0  0
    2.6790    0.1918   -0.9959 N   0  0  0  0  0  0  0  0  0  0  0  0
   -4.1024   -0.7008   -0.7483 Br  0  0  0  0  0  0  0  0  0  0  0  0
    0.0206    2.5732   -0.4553 C   0  0  0  0  0  0  0  0  0  0  0  0
   -0.7586    3.4765   -0.2462 O   0  0  0  0  0  0  0  0  0  0  0  0
    1.3582    2.7516   -0.5229 O   0  0  0  0  0  0  0  0  0  0  0  0
    1.5320    3.6960   -0.3759 H   0  0  0  0  0  0  0  0  0  0  0  0
  1  6  1  0  0  0  0
  2  1  2  0  0  0  0
  2  3  1  0  0  0  0
  3  4  2  0  0  0  0
  4  5  1  0  0  0  0
  4 12  1  0  0  0  0
  5  8  1  0  0  0  0
  6 11  1  0  0  0  0
  6  5  2  0  0  0  0
  7  1  1  0  0  0  0
  9  3  1  0  0  0  0
 10  9  1  0  0  0  0
 12 13  2  0  0  0  0
 14 12  1  0  0  0  0
 14 15  1  0  0  0  0
M  RAD  3   2   2   9   2  10   3
M  END
