Coordinates from ORCA-job 2-HOOC-4-Br-C6H2-N2-B3LYPG-aug-cc-pVDZ-scan-d09-49-n400
 OpenBabel11091809123D

 15 14  0  0  0  0  0  0  0  0999 V2000
   -1.5842   -1.5228   -1.0326 C   0  0  0  0  0  0  0  0  0  0  0  0
   -0.2657   -1.0998   -1.0053 C   0  0  0  0  0  0  0  0  0  0  0  0
    0.1572    0.0661   -0.8399 C   0  0  0  0  0  0  0  0  0  0  0  0
   -0.6083    1.2095   -0.6387 C   0  0  0  0  0  0  0  0  0  0  0  0
   -1.9900    0.9011   -0.6411 C   0  0  0  0  0  0  0  0  0  0  0  0
   -2.4449   -0.4159   -0.8316 C   0  0  0  0  0  0  0  0  0  0  0  0
   -1.9588   -2.5329   -1.1796 H   0  0  0  0  0  0  0  0  0  0  0  0
   -2.7021    1.7111   -0.4929 H   0  0  0  0  0  0  0  0  0  0  0  0
    3.1854    0.0817   -0.6315 N   0  0  0  0  0  0  0  0  0  0  0  0
    3.8752   -0.0071   -1.4897 N   0  0  0  0  0  0  0  0  0  0  0  0
   -4.3351   -0.7443   -0.8207 Br  0  0  0  0  0  0  0  0  0  0  0  0
   -0.1401    2.6057   -0.4425 C   0  0  0  0  0  0  0  0  0  0  0  0
   -0.8713    3.5540   -0.2514 O   0  0  0  0  0  0  0  0  0  0  0  0
    1.2090    2.7088   -0.5024 O   0  0  0  0  0  0  0  0  0  0  0  0
    1.4229    3.6458   -0.3640 H   0  0  0  0  0  0  0  0  0  0  0  0
  1  2  2  0  0  0  0
  1  6  1  0  0  0  0
  2  3  1  0  0  0  0
  3  4  2  0  0  0  0
  4 12  1  0  0  0  0
  5  4  1  0  0  0  0
  5  8  1  0  0  0  0
  6 11  1  0  0  0  0
  6  5  2  0  0  0  0
  7  1  1  0  0  0  0
 10  9  3  0  0  0  0
 12 13  2  0  0  0  0
 14 12  1  0  0  0  0
 14 15  1  0  0  0  0
M  RAD  2   2   2   3   2
M  END
