Coordinates from ORCA-job 2-HOOC-4-Br-C6H2-N2-B3LYPG-aug-cc-pVDZ-scan-d09-49-n400
 OpenBabel11091809123D

 15 14  0  0  0  0  0  0  0  0999 V2000
   -1.7607   -1.5165   -1.0427 C   0  0  0  0  0  0  0  0  0  0  0  0
   -0.4340   -1.1173   -1.0511 C   0  0  0  0  0  0  0  0  0  0  0  0
    0.0076    0.0419   -0.8865 C   0  0  0  0  0  0  0  0  0  0  0  0
   -0.7294    1.1967   -0.6541 C   0  0  0  0  0  0  0  0  0  0  0  0
   -2.1159    0.9116   -0.6222 C   0  0  0  0  0  0  0  0  0  0  0  0
   -2.5969   -0.3965   -0.8104 C   0  0  0  0  0  0  0  0  0  0  0  0
   -2.1570   -2.5188   -1.1858 H   0  0  0  0  0  0  0  0  0  0  0  0
   -2.8104    1.7317   -0.4479 H   0  0  0  0  0  0  0  0  0  0  0  0
    4.0338    0.1192   -0.5899 N   0  0  0  0  0  0  0  0  0  0  0  0
    4.6611    0.0598   -1.4972 N   0  0  0  0  0  0  0  0  0  0  0  0
   -4.4913   -0.6945   -0.7516 Br  0  0  0  0  0  0  0  0  0  0  0  0
   -0.2246    2.5794   -0.4561 C   0  0  0  0  0  0  0  0  0  0  0  0
   -0.9288    3.5455   -0.2533 O   0  0  0  0  0  0  0  0  0  0  0  0
    1.1261    2.6447   -0.5279 O   0  0  0  0  0  0  0  0  0  0  0  0
    1.3693    3.5742   -0.3875 H   0  0  0  0  0  0  0  0  0  0  0  0
  1  6  1  0  0  0  0
  2  1  2  0  0  0  0
  2  3  1  0  0  0  0
  3  4  2  0  0  0  0
  4  5  1  0  0  0  0
  4 12  1  0  0  0  0
  5  8  1  0  0  0  0
  6 11  1  0  0  0  0
  6  5  2  0  0  0  0
  7  1  1  0  0  0  0
 10  9  3  0  0  0  0
 12 13  2  0  0  0  0
 14 12  1  0  0  0  0
 14 15  1  0  0  0  0
M  RAD  2   2   2   3   2
M  END
