Coordinates from ORCA-job 2-HOOC-4-Br-C6H2-N2-B3LYPG-aug-cc-pVDZ-scan-d09-49-n400
 OpenBabel11091809123D

 15 15  0  0  0  0  0  0  0  0999 V2000
   -1.3837   -1.4897   -1.0545 C   0  0  0  0  0  0  0  0  0  0  0  0
    0.0197   -1.2751   -1.1007 C   0  0  0  0  0  0  0  0  0  0  0  0
    0.3359    0.0260   -0.9008 C   0  0  0  0  0  0  0  0  0  0  0  0
   -0.4501    1.1749   -0.6617 C   0  0  0  0  0  0  0  0  0  0  0  0
   -1.8164    0.8966   -0.6283 C   0  0  0  0  0  0  0  0  0  0  0  0
   -2.2575   -0.4256   -0.8245 C   0  0  0  0  0  0  0  0  0  0  0  0
   -1.7994   -2.4894   -1.1980 H   0  0  0  0  0  0  0  0  0  0  0  0
   -2.5169    1.7086   -0.4508 H   0  0  0  0  0  0  0  0  0  0  0  0
    1.8844    0.2197   -0.9591 N   0  0  0  0  0  0  0  0  0  0  0  0
    2.9812    0.0697   -1.0486 N   0  0  0  0  0  0  0  0  0  0  0  0
   -4.1533   -0.7471   -0.7673 Br  0  0  0  0  0  0  0  0  0  0  0  0
   -0.0101    2.5805   -0.4514 C   0  0  0  0  0  0  0  0  0  0  0  0
   -0.7542    3.5140   -0.2516 O   0  0  0  0  0  0  0  0  0  0  0  0
    1.3420    2.7280   -0.5068 O   0  0  0  0  0  0  0  0  0  0  0  0
    1.5276    3.6700   -0.3601 H   0  0  0  0  0  0  0  0  0  0  0  0
  1  6  1  0  0  0  0
  2  1  2  0  0  0  0
  2  3  1  0  0  0  0
  3  4  2  0  0  0  0
  4  5  1  0  0  0  0
  4 12  1  0  0  0  0
  5  8  1  0  0  0  0
  6 11  1  0  0  0  0
  6  5  2  0  0  0  0
  7  1  1  0  0  0  0
  9  3  1  0  0  0  0
 10  9  1  0  0  0  0
 12 13  2  0  0  0  0
 14 12  1  0  0  0  0
 14 15  1  0  0  0  0
M  RAD  3   2   2   9   2  10   3
M  END
