Coordinates from ORCA-job 2-HOOC-4-Br-C6H2-N2-B3LYPG-aug-cc-pVDZ-scan-d09-49-n400
 OpenBabel11091809123D

 15 14  0  0  0  0  0  0  0  0999 V2000
   -1.8406   -1.5120   -1.0500 C   0  0  0  0  0  0  0  0  0  0  0  0
   -0.5125   -1.1195   -1.0744 C   0  0  0  0  0  0  0  0  0  0  0  0
   -0.0583    0.0347   -0.9092 C   0  0  0  0  0  0  0  0  0  0  0  0
   -0.7874    1.1919   -0.6612 C   0  0  0  0  0  0  0  0  0  0  0  0
   -2.1747    0.9157   -0.6123 C   0  0  0  0  0  0  0  0  0  0  0  0
   -2.6667   -0.3883   -0.8009 C   0  0  0  0  0  0  0  0  0  0  0  0
   -2.2445   -2.5113   -1.1931 H   0  0  0  0  0  0  0  0  0  0  0  0
   -2.8615    1.7392   -0.4242 H   0  0  0  0  0  0  0  0  0  0  0  0
    4.4751    0.1270   -0.5423 N   0  0  0  0  0  0  0  0  0  0  0  0
    4.9945    0.0793   -1.5159 N   0  0  0  0  0  0  0  0  0  0  0  0
   -4.5618   -0.6749   -0.7185 Br  0  0  0  0  0  0  0  0  0  0  0  0
   -0.2687    2.5692   -0.4621 C   0  0  0  0  0  0  0  0  0  0  0  0
   -0.9614    3.5412   -0.2485 O   0  0  0  0  0  0  0  0  0  0  0  0
    1.0819    2.6213   -0.5463 O   0  0  0  0  0  0  0  0  0  0  0  0
    1.3358    3.5477   -0.4047 H   0  0  0  0  0  0  0  0  0  0  0  0
  1  6  1  0  0  0  0
  2  1  2  0  0  0  0
  2  3  1  0  0  0  0
  3  4  2  0  0  0  0
  4  5  1  0  0  0  0
  4 12  1  0  0  0  0
  5  8  1  0  0  0  0
  6 11  1  0  0  0  0
  6  5  2  0  0  0  0
  7  1  1  0  0  0  0
 10  9  3  0  0  0  0
 12 13  2  0  0  0  0
 14 12  1  0  0  0  0
 14 15  1  0  0  0  0
M  RAD  2   2   2   3   2
M  END
