Coordinates from ORCA-job 2-HOOC-4-Br-C6H2-N2-B3LYPG-aug-cc-pVDZ-scan-d09-49-n400
 OpenBabel11091809123D

 15 14  0  0  0  0  0  0  0  0999 V2000
   -1.8677   -1.5103   -1.0527 C   0  0  0  0  0  0  0  0  0  0  0  0
   -0.5392   -1.1196   -1.0822 C   0  0  0  0  0  0  0  0  0  0  0  0
   -0.0816    0.0333   -0.9167 C   0  0  0  0  0  0  0  0  0  0  0  0
   -0.8079    1.1911   -0.6633 C   0  0  0  0  0  0  0  0  0  0  0  0
   -2.1955    0.9173   -0.6091 C   0  0  0  0  0  0  0  0  0  0  0  0
   -2.6907   -0.3856   -0.7979 C   0  0  0  0  0  0  0  0  0  0  0  0
   -2.2738   -2.5087   -1.1958 H   0  0  0  0  0  0  0  0  0  0  0  0
   -2.8801    1.7416   -0.4165 H   0  0  0  0  0  0  0  0  0  0  0  0
    4.6408    0.1250   -0.5239 N   0  0  0  0  0  0  0  0  0  0  0  0
    5.1055    0.0813   -1.5249 N   0  0  0  0  0  0  0  0  0  0  0  0
   -4.5859   -0.6689   -0.7079 Br  0  0  0  0  0  0  0  0  0  0  0  0
   -0.2857    2.5669   -0.4637 C   0  0  0  0  0  0  0  0  0  0  0  0
   -0.9754    3.5402   -0.2460 O   0  0  0  0  0  0  0  0  0  0  0  0
    1.0648    2.6160   -0.5527 O   0  0  0  0  0  0  0  0  0  0  0  0
    1.3216    3.5415   -0.4106 H   0  0  0  0  0  0  0  0  0  0  0  0
  1  6  1  0  0  0  0
  2  1  2  0  0  0  0
  2  3  1  0  0  0  0
  3  4  2  0  0  0  0
  4  5  1  0  0  0  0
  4 12  1  0  0  0  0
  5  8  1  0  0  0  0
  6 11  1  0  0  0  0
  6  5  2  0  0  0  0
  7  1  1  0  0  0  0
 10  9  3  0  0  0  0
 12 13  2  0  0  0  0
 14 12  1  0  0  0  0
 14 15  1  0  0  0  0
M  RAD  2   2   2   3   2
M  END
