Coordinates from ORCA-job 2-HOOC-4-Br-C6H2-N2-B3LYPG-aug-cc-pVDZ-scan-d09-49-n400
 OpenBabel11091809123D

 15 14  0  0  0  0  0  0  0  0999 V2000
   -1.4990   -1.5302   -1.0738 C   0  0  0  0  0  0  0  0  0  0  0  0
   -0.1635   -1.1492   -1.0429 C   0  0  0  0  0  0  0  0  0  0  0  0
    0.2490    0.0229   -0.8622 C   0  0  0  0  0  0  0  0  0  0  0  0
   -0.4901    1.1772   -0.6303 C   0  0  0  0  0  0  0  0  0  0  0  0
   -1.8753    0.8803   -0.6203 C   0  0  0  0  0  0  0  0  0  0  0  0
   -2.3474   -0.4257   -0.8339 C   0  0  0  0  0  0  0  0  0  0  0  0
   -1.8907   -2.5309   -1.2457 H   0  0  0  0  0  0  0  0  0  0  0  0
   -2.5744    1.6971   -0.4507 H   0  0  0  0  0  0  0  0  0  0  0  0
    2.5320    0.2175   -0.6251 N   0  0  0  0  0  0  0  0  0  0  0  0
    3.3681   -0.0163   -1.3104 N   0  0  0  0  0  0  0  0  0  0  0  0
   -4.2420   -0.7316   -0.7976 Br  0  0  0  0  0  0  0  0  0  0  0  0
   -0.0498    2.5849   -0.4341 C   0  0  0  0  0  0  0  0  0  0  0  0
   -0.8012    3.4962   -0.1587 O   0  0  0  0  0  0  0  0  0  0  0  0
    1.2816    2.7615   -0.6099 O   0  0  0  0  0  0  0  0  0  0  0  0
    1.4514    3.7073   -0.4682 H   0  0  0  0  0  0  0  0  0  0  0  0
  1  2  2  0  0  0  0
  1  6  1  0  0  0  0
  2  3  1  0  0  0  0
  3  4  2  0  0  0  0
  4  5  1  0  0  0  0
  4 12  1  0  0  0  0
  5  8  1  0  0  0  0
  6 11  1  0  0  0  0
  6  5  2  0  0  0  0
  7  1  1  0  0  0  0
 10  9  3  0  0  0  0
 12 13  2  0  0  0  0
 14 15  1  0  0  0  0
 14 12  1  0  0  0  0
M  RAD  2   2   2   3   2
M  END
