Coordinates from ORCA-job 2-HOOC-4-Br-C6H2-N2-B3LYPG-aug-cc-pVDZ-scan-d09-49-n400
 OpenBabel11091809123D

 15 14  0  0  0  0  0  0  0  0999 V2000
   -1.5574   -1.5242   -1.0498 C   0  0  0  0  0  0  0  0  0  0  0  0
   -0.2351   -1.1096   -1.0244 C   0  0  0  0  0  0  0  0  0  0  0  0
    0.1853    0.0574   -0.8555 C   0  0  0  0  0  0  0  0  0  0  0  0
   -0.5749    1.2015   -0.6385 C   0  0  0  0  0  0  0  0  0  0  0  0
   -1.9568    0.8944   -0.6307 C   0  0  0  0  0  0  0  0  0  0  0  0
   -2.4153   -0.4198   -0.8298 C   0  0  0  0  0  0  0  0  0  0  0  0
   -1.9359   -2.5316   -1.2065 H   0  0  0  0  0  0  0  0  0  0  0  0
   -2.6659    1.7048   -0.4707 H   0  0  0  0  0  0  0  0  0  0  0  0
    2.9788    0.1221   -0.6133 N   0  0  0  0  0  0  0  0  0  0  0  0
    3.7162   -0.0018   -1.4270 N   0  0  0  0  0  0  0  0  0  0  0  0
   -4.3059   -0.7457   -0.8058 Br  0  0  0  0  0  0  0  0  0  0  0  0
   -0.1119    2.5997   -0.4428 C   0  0  0  0  0  0  0  0  0  0  0  0
   -0.8465    3.5402   -0.2277 O   0  0  0  0  0  0  0  0  0  0  0  0
    1.2335    2.7176   -0.5397 O   0  0  0  0  0  0  0  0  0  0  0  0
    1.4409    3.6561   -0.4016 H   0  0  0  0  0  0  0  0  0  0  0  0
  1  2  2  0  0  0  0
  1  6  1  0  0  0  0
  2  3  1  0  0  0  0
  3  4  2  0  0  0  0
  4  5  1  0  0  0  0
  4 12  1  0  0  0  0
  5  8  1  0  0  0  0
  6 11  1  0  0  0  0
  6  5  2  0  0  0  0
  7  1  1  0  0  0  0
 10  9  3  0  0  0  0
 12 13  2  0  0  0  0
 14 12  1  0  0  0  0
 14 15  1  0  0  0  0
M  RAD  2   2   2   3   2
M  END
