Coordinates from ORCA-job 2-HOOC-4-Br-C6H2-N2-B3LYPG-aug-cc-pVDZ-scan-d09-49-n400
 OpenBabel11091809123D

 15 15  0  0  0  0  0  0  0  0999 V2000
   -1.3756   -1.4695   -1.1640 C   0  0  0  0  0  0  0  0  0  0  0  0
    0.0363   -1.3393   -1.1599 C   0  0  0  0  0  0  0  0  0  0  0  0
    0.4769    0.0206   -0.8799 C   0  0  0  0  0  0  0  0  0  0  0  0
   -0.4102    1.1496   -0.6399 C   0  0  0  0  0  0  0  0  0  0  0  0
   -1.7598    0.8836   -0.5733 C   0  0  0  0  0  0  0  0  0  0  0  0
   -2.2254   -0.4307   -0.8093 C   0  0  0  0  0  0  0  0  0  0  0  0
   -1.8107   -2.4376   -1.4232 H   0  0  0  0  0  0  0  0  0  0  0  0
   -2.4514    1.6967   -0.3684 H   0  0  0  0  0  0  0  0  0  0  0  0
    1.6612    0.1306   -0.8223 N   0  0  0  0  0  0  0  0  0  0  0  0
    2.7875    0.1685   -0.7755 N   0  0  0  0  0  0  0  0  0  0  0  0
   -4.1106   -0.7345   -0.6506 Br  0  0  0  0  0  0  0  0  0  0  0  0
    0.0120    2.5735   -0.4705 C   0  0  0  0  0  0  0  0  0  0  0  0
   -0.7325    3.4757   -0.1576 O   0  0  0  0  0  0  0  0  0  0  0  0
    1.3364    2.7642   -0.7006 O   0  0  0  0  0  0  0  0  0  0  0  0
    1.5150    3.7097   -0.5689 H   0  0  0  0  0  0  0  0  0  0  0  0
  1  2  2  0  0  0  0
  1  6  1  0  0  0  0
  2  3  1  0  0  0  0
  3  9  1  0  0  0  0
  3  4  2  0  0  0  0
  4  5  1  0  0  0  0
  4 12  1  0  0  0  0
  5  8  1  0  0  0  0
  6 11  1  0  0  0  0
  6  5  2  0  0  0  0
  7  1  1  0  0  0  0
  9 10  1  0  0  0  0
 12 13  2  0  0  0  0
 14 15  1  0  0  0  0
 14 12  1  0  0  0  0
M  RAD  3   2   2   9   2  10   3
M  END
