Coordinates from ORCA-job 2-HOOC-4-Br-C6H2-N2-B3LYPG-aug-cc-pVDZ-scan-d09-49-n400
 OpenBabel11091809123D

 15 15  0  0  0  0  0  0  0  0999 V2000
   -1.3767   -1.4852   -1.1032 C   0  0  0  0  0  0  0  0  0  0  0  0
    0.0369   -1.3347   -1.1329 C   0  0  0  0  0  0  0  0  0  0  0  0
    0.4436    0.0206   -0.8970 C   0  0  0  0  0  0  0  0  0  0  0  0
   -0.4190    1.1569   -0.6535 C   0  0  0  0  0  0  0  0  0  0  0  0
   -1.7722    0.8913   -0.6055 C   0  0  0  0  0  0  0  0  0  0  0  0
   -2.2315   -0.4291   -0.8191 C   0  0  0  0  0  0  0  0  0  0  0  0
   -1.8095   -2.4693   -1.2974 H   0  0  0  0  0  0  0  0  0  0  0  0
   -2.4672    1.7052   -0.4160 H   0  0  0  0  0  0  0  0  0  0  0  0
    1.7086    0.1430   -0.8993 N   0  0  0  0  0  0  0  0  0  0  0  0
    2.8302    0.1750   -0.9109 N   0  0  0  0  0  0  0  0  0  0  0  0
   -4.1254   -0.7224   -0.7143 Br  0  0  0  0  0  0  0  0  0  0  0  0
    0.0061    2.5751   -0.4581 C   0  0  0  0  0  0  0  0  0  0  0  0
   -0.7463    3.4891   -0.2052 O   0  0  0  0  0  0  0  0  0  0  0  0
    1.3467    2.7507   -0.5962 O   0  0  0  0  0  0  0  0  0  0  0  0
    1.5248    3.6949   -0.4553 H   0  0  0  0  0  0  0  0  0  0  0  0
  1  6  1  0  0  0  0
  2  1  2  0  0  0  0
  2  3  1  0  0  0  0
  3  4  2  0  0  0  0
  4  5  1  0  0  0  0
  4 12  1  0  0  0  0
  5  8  1  0  0  0  0
  6 11  1  0  0  0  0
  6  5  2  0  0  0  0
  7  1  1  0  0  0  0
  9  3  1  0  0  0  0
 10  9  1  0  0  0  0
 12 13  2  0  0  0  0
 14 12  1  0  0  0  0
 14 15  1  0  0  0  0
M  RAD  3   2   2   9   2  10   3
M  END
