Coordinates from ORCA-job 2-HOOC-4-Br-C6H2-N2-B3LYPG-aug-cc-pVDZ-scan-d09-49-n400
 OpenBabel11091809123D

 15 14  0  0  0  0  0  0  0  0999 V2000
   -1.7932   -1.5150   -1.0450 C   0  0  0  0  0  0  0  0  0  0  0  0
   -0.4657   -1.1190   -1.0593 C   0  0  0  0  0  0  0  0  0  0  0  0
   -0.0177    0.0376   -0.8945 C   0  0  0  0  0  0  0  0  0  0  0  0
   -0.7519    1.1936   -0.6568 C   0  0  0  0  0  0  0  0  0  0  0  0
   -2.1386    0.9131   -0.6185 C   0  0  0  0  0  0  0  0  0  0  0  0
   -2.6249   -0.3932   -0.8067 C   0  0  0  0  0  0  0  0  0  0  0  0
   -2.1929   -2.5159   -1.1882 H   0  0  0  0  0  0  0  0  0  0  0  0
   -2.8296    1.7351   -0.4392 H   0  0  0  0  0  0  0  0  0  0  0  0
    4.1974    0.1290   -0.5735 N   0  0  0  0  0  0  0  0  0  0  0  0
    4.7923    0.0746   -1.5026 N   0  0  0  0  0  0  0  0  0  0  0  0
   -4.5197   -0.6856   -0.7393 Br  0  0  0  0  0  0  0  0  0  0  0  0
   -0.2397    2.5734   -0.4587 C   0  0  0  0  0  0  0  0  0  0  0  0
   -0.9377    3.5432   -0.2523 O   0  0  0  0  0  0  0  0  0  0  0  0
    1.1112    2.6311   -0.5349 O   0  0  0  0  0  0  0  0  0  0  0  0
    1.3598    3.5591   -0.3943 H   0  0  0  0  0  0  0  0  0  0  0  0
  1  6  1  0  0  0  0
  2  1  2  0  0  0  0
  2  3  1  0  0  0  0
  3  4  2  0  0  0  0
  4  5  1  0  0  0  0
  4 12  1  0  0  0  0
  5  8  1  0  0  0  0
  6 11  1  0  0  0  0
  6  5  2  0  0  0  0
  7  1  1  0  0  0  0
 10  9  3  0  0  0  0
 12 13  2  0  0  0  0
 14 12  1  0  0  0  0
 14 15  1  0  0  0  0
M  RAD  2   2   2   3   2
M  END
