Coordinates from ORCA-job 2-HOOC-4-Br-C6H2-N2-B3LYPG-aug-cc-pVDZ-scan-d09-49-n400
 OpenBabel11091809123D

 15 15  0  0  0  0  0  0  0  0999 V2000
   -1.3775   -1.4898   -1.0756 C   0  0  0  0  0  0  0  0  0  0  0  0
    0.0353   -1.3290   -1.1200 C   0  0  0  0  0  0  0  0  0  0  0  0
    0.4242    0.0218   -0.9025 C   0  0  0  0  0  0  0  0  0  0  0  0
   -0.4259    1.1604   -0.6602 C   0  0  0  0  0  0  0  0  0  0  0  0
   -1.7809    0.8945   -0.6198 C   0  0  0  0  0  0  0  0  0  0  0  0
   -2.2365   -0.4282   -0.8230 C   0  0  0  0  0  0  0  0  0  0  0  0
   -1.8070   -2.4806   -1.2401 H   0  0  0  0  0  0  0  0  0  0  0  0
   -2.4773    1.7089   -0.4372 H   0  0  0  0  0  0  0  0  0  0  0  0
    1.7383    0.1526   -0.9351 N   0  0  0  0  0  0  0  0  0  0  0  0
    2.8563    0.1772   -0.9749 N   0  0  0  0  0  0  0  0  0  0  0  0
   -4.1327   -0.7212   -0.7423 Br  0  0  0  0  0  0  0  0  0  0  0  0
    0.0028    2.5754   -0.4556 C   0  0  0  0  0  0  0  0  0  0  0  0
   -0.7494    3.4969   -0.2310 O   0  0  0  0  0  0  0  0  0  0  0  0
    1.3494    2.7396   -0.5461 O   0  0  0  0  0  0  0  0  0  0  0  0
    1.5300    3.6826   -0.4006 H   0  0  0  0  0  0  0  0  0  0  0  0
  1  6  1  0  0  0  0
  2  1  2  0  0  0  0
  2  3  1  0  0  0  0
  3  4  2  0  0  0  0
  4  5  1  0  0  0  0
  4 12  1  0  0  0  0
  5  8  1  0  0  0  0
  6 11  1  0  0  0  0
  6  5  2  0  0  0  0
  7  1  1  0  0  0  0
  9  3  1  0  0  0  0
 10  9  1  0  0  0  0
 12 13  2  0  0  0  0
 14 12  1  0  0  0  0
 14 15  1  0  0  0  0
M  RAD  3   2   2   9   2  10   3
M  END
