Coordinates from ORCA-job 2-HOOC-4-Br-C6H2-N2-B3LYPG-aug-cc-pVDZ-scan-d09-49-n400
 OpenBabel11091809123D

 15 14  0  0  0  0  0  0  0  0999 V2000
   -1.6181   -1.5178   -1.0357 C   0  0  0  0  0  0  0  0  0  0  0  0
   -0.2979   -1.0974   -1.0191 C   0  0  0  0  0  0  0  0  0  0  0  0
    0.1209    0.0700   -0.8531 C   0  0  0  0  0  0  0  0  0  0  0  0
   -0.6399    1.2138   -0.6428 C   0  0  0  0  0  0  0  0  0  0  0  0
   -2.0218    0.9054   -0.6355 C   0  0  0  0  0  0  0  0  0  0  0  0
   -2.4774   -0.4113   -0.8256 C   0  0  0  0  0  0  0  0  0  0  0  0
   -1.9949   -2.5273   -1.1819 H   0  0  0  0  0  0  0  0  0  0  0  0
   -2.7329    1.7150   -0.4798 H   0  0  0  0  0  0  0  0  0  0  0  0
    3.3890    0.0601   -0.6271 N   0  0  0  0  0  0  0  0  0  0  0  0
    4.0692   -0.0222   -1.4936 N   0  0  0  0  0  0  0  0  0  0  0  0
   -4.3673   -0.7407   -0.8014 Br  0  0  0  0  0  0  0  0  0  0  0  0
   -0.1672    2.6080   -0.4456 C   0  0  0  0  0  0  0  0  0  0  0  0
   -0.8953    3.5589   -0.2555 O   0  0  0  0  0  0  0  0  0  0  0  0
    1.1823    2.7053   -0.5029 O   0  0  0  0  0  0  0  0  0  0  0  0
    1.4004    3.6413   -0.3643 H   0  0  0  0  0  0  0  0  0  0  0  0
  1  2  2  0  0  0  0
  1  6  1  0  0  0  0
  2  3  1  0  0  0  0
  3  4  2  0  0  0  0
  4  5  1  0  0  0  0
  4 12  1  0  0  0  0
  5  8  1  0  0  0  0
  6 11  1  0  0  0  0
  6  5  2  0  0  0  0
  7  1  1  0  0  0  0
 10  9  3  0  0  0  0
 12 13  2  0  0  0  0
 14 12  1  0  0  0  0
 14 15  1  0  0  0  0
M  RAD  2   2   2   3   2
M  END
