Coordinates from ORCA-job 2-HOOC-4-Br-C6H2-N2-B3LYPG-aug-cc-pVDZ-scan-d09-49-n400
 OpenBabel11091809123D

 15 14  0  0  0  0  0  0  0  0999 V2000
   -1.6913   -1.5179   -1.0386 C   0  0  0  0  0  0  0  0  0  0  0  0
   -0.3675   -1.1091   -1.0347 C   0  0  0  0  0  0  0  0  0  0  0  0
    0.0632    0.0542   -0.8698 C   0  0  0  0  0  0  0  0  0  0  0  0
   -0.6847    1.2043   -0.6487 C   0  0  0  0  0  0  0  0  0  0  0  0
   -2.0692    0.9084   -0.6292 C   0  0  0  0  0  0  0  0  0  0  0  0
   -2.5384   -0.4038   -0.8179 C   0  0  0  0  0  0  0  0  0  0  0  0
   -2.0788   -2.5235   -1.1828 H   0  0  0  0  0  0  0  0  0  0  0  0
   -2.7716    1.7238   -0.4645 H   0  0  0  0  0  0  0  0  0  0  0  0
    3.7107    0.0928   -0.6105 N   0  0  0  0  0  0  0  0  0  0  0  0
    4.3701    0.0261   -1.4942 N   0  0  0  0  0  0  0  0  0  0  0  0
   -4.4309   -0.7161   -0.7766 Br  0  0  0  0  0  0  0  0  0  0  0  0
   -0.1946    2.5924   -0.4512 C   0  0  0  0  0  0  0  0  0  0  0  0
   -0.9105    3.5514   -0.2556 O   0  0  0  0  0  0  0  0  0  0  0  0
    1.1556    2.6727   -0.5145 O   0  0  0  0  0  0  0  0  0  0  0  0
    1.3869    3.6054   -0.3752 H   0  0  0  0  0  0  0  0  0  0  0  0
  1  2  2  0  0  0  0
  1  6  1  0  0  0  0
  2  3  1  0  0  0  0
  3  4  2  0  0  0  0
  4  5  1  0  0  0  0
  4 12  1  0  0  0  0
  5  8  1  0  0  0  0
  6 11  1  0  0  0  0
  6  5  2  0  0  0  0
  7  1  1  0  0  0  0
 10  9  3  0  0  0  0
 12 13  2  0  0  0  0
 14 12  1  0  0  0  0
 14 15  1  0  0  0  0
M  RAD  2   2   2   3   2
M  END
