Coordinates from ORCA-job 2-HOOC-4-Br-C6H2-N2-B3LYPG-aug-cc-pVDZ-scan-d09-49-n400
 OpenBabel11091809123D

 15 14  0  0  0  0  0  0  0  0999 V2000
   -1.8363   -1.5123   -1.0496 C   0  0  0  0  0  0  0  0  0  0  0  0
   -0.5082   -1.1195   -1.0731 C   0  0  0  0  0  0  0  0  0  0  0  0
   -0.0546    0.0349   -0.9079 C   0  0  0  0  0  0  0  0  0  0  0  0
   -0.7841    1.1920   -0.6608 C   0  0  0  0  0  0  0  0  0  0  0  0
   -2.1713    0.9155   -0.6129 C   0  0  0  0  0  0  0  0  0  0  0  0
   -2.6629   -0.3888   -0.8014 C   0  0  0  0  0  0  0  0  0  0  0  0
   -2.2399   -2.5117   -1.1927 H   0  0  0  0  0  0  0  0  0  0  0  0
   -2.8586    1.7388   -0.4256 H   0  0  0  0  0  0  0  0  0  0  0  0
    4.4490    0.1273   -0.5453 N   0  0  0  0  0  0  0  0  0  0  0  0
    4.9764    0.0791   -1.5146 N   0  0  0  0  0  0  0  0  0  0  0  0
   -4.5580   -0.6758   -0.7203 Br  0  0  0  0  0  0  0  0  0  0  0  0
   -0.2660    2.5695   -0.4618 C   0  0  0  0  0  0  0  0  0  0  0  0
   -0.9592    3.5414   -0.2489 O   0  0  0  0  0  0  0  0  0  0  0  0
    1.0847    2.6221   -0.5453 O   0  0  0  0  0  0  0  0  0  0  0  0
    1.3381    3.5487   -0.4038 H   0  0  0  0  0  0  0  0  0  0  0  0
  1  6  1  0  0  0  0
  2  1  2  0  0  0  0
  2  3  1  0  0  0  0
  3  4  2  0  0  0  0
  4  5  1  0  0  0  0
  4 12  1  0  0  0  0
  5  8  1  0  0  0  0
  6 11  1  0  0  0  0
  6  5  2  0  0  0  0
  7  1  1  0  0  0  0
 10  9  3  0  0  0  0
 12 13  2  0  0  0  0
 14 12  1  0  0  0  0
 14 15  1  0  0  0  0
M  RAD  2   2   2   3   2
M  END
