Coordinates from ORCA-job 2-HOOC-4-Br-C6H2-N2-B3LYPG-aug-cc-pVDZ-scan-d09-49-n400
 OpenBabel11091809123D

 15 15  0  0  0  0  0  0  0  0999 V2000
   -1.4160   -1.5082   -1.0552 C   0  0  0  0  0  0  0  0  0  0  0  0
   -0.0439   -1.2042   -1.0849 C   0  0  0  0  0  0  0  0  0  0  0  0
    0.2857    0.0250   -0.8983 C   0  0  0  0  0  0  0  0  0  0  0  0
   -0.4499    1.1825   -0.6612 C   0  0  0  0  0  0  0  0  0  0  0  0
   -1.8284    0.8874   -0.6296 C   0  0  0  0  0  0  0  0  0  0  0  0
   -2.2822   -0.4272   -0.8232 C   0  0  0  0  0  0  0  0  0  0  0  0
   -1.8167   -2.5123   -1.1999 H   0  0  0  0  0  0  0  0  0  0  0  0
   -2.5274    1.7015   -0.4521 H   0  0  0  0  0  0  0  0  0  0  0  0
    2.1068    0.2974   -0.9598 N   0  0  0  0  0  0  0  0  0  0  0  0
    3.1204   -0.1317   -1.0911 N   0  0  0  0  0  0  0  0  0  0  0  0
   -4.1762   -0.7492   -0.7659 Br  0  0  0  0  0  0  0  0  0  0  0  0
   -0.0248    2.5943   -0.4496 C   0  0  0  0  0  0  0  0  0  0  0  0
   -0.7932    3.5096   -0.2499 O   0  0  0  0  0  0  0  0  0  0  0  0
    1.3198    2.7745   -0.4969 O   0  0  0  0  0  0  0  0  0  0  0  0
    1.4750    3.7218   -0.3463 H   0  0  0  0  0  0  0  0  0  0  0  0
  1  6  1  0  0  0  0
  2  1  2  0  0  0  0
  2  3  1  0  0  0  0
  3  4  2  0  0  0  0
  4  5  1  0  0  0  0
  4 12  1  0  0  0  0
  5  8  1  0  0  0  0
  6 11  1  0  0  0  0
  6  5  2  0  0  0  0
  7  1  1  0  0  0  0
  9  3  1  0  0  0  0
 10  9  2  0  0  0  0
 12 13  2  0  0  0  0
 14 12  1  0  0  0  0
 14 15  1  0  0  0  0
M  RAD  2   2   2  10   2
M  END
