Coordinates from ORCA-job 2-HOOC-4-Br-C6H2-N2-B3LYPG-aug-cc-pVDZ-scan-d09-49-n400
 OpenBabel11091809123D

 15 14  0  0  0  0  0  0  0  0999 V2000
   -1.5468   -1.5247   -1.0574 C   0  0  0  0  0  0  0  0  0  0  0  0
   -0.2236   -1.1121   -1.0356 C   0  0  0  0  0  0  0  0  0  0  0  0
    0.1964    0.0549   -0.8648 C   0  0  0  0  0  0  0  0  0  0  0  0
   -0.5616    1.1990   -0.6406 C   0  0  0  0  0  0  0  0  0  0  0  0
   -1.9436    0.8917   -0.6267 C   0  0  0  0  0  0  0  0  0  0  0  0
   -2.4035   -0.4214   -0.8286 C   0  0  0  0  0  0  0  0  0  0  0  0
   -1.9265   -2.5313   -1.2170 H   0  0  0  0  0  0  0  0  0  0  0  0
   -2.6516    1.7019   -0.4608 H   0  0  0  0  0  0  0  0  0  0  0  0
    2.8976    0.1325   -0.6072 N   0  0  0  0  0  0  0  0  0  0  0  0
    3.6586   -0.0030   -1.3969 N   0  0  0  0  0  0  0  0  0  0  0  0
   -4.2941   -0.7467   -0.7958 Br  0  0  0  0  0  0  0  0  0  0  0  0
   -0.1017    2.5986   -0.4453 C   0  0  0  0  0  0  0  0  0  0  0  0
   -0.8379    3.5343   -0.2150 O   0  0  0  0  0  0  0  0  0  0  0  0
    1.2419    2.7241   -0.5563 O   0  0  0  0  0  0  0  0  0  0  0  0
    1.4454    3.6631   -0.4158 H   0  0  0  0  0  0  0  0  0  0  0  0
  1  2  2  0  0  0  0
  1  6  1  0  0  0  0
  2  3  1  0  0  0  0
  3  4  2  0  0  0  0
  4  5  1  0  0  0  0
  4 12  1  0  0  0  0
  5  8  1  0  0  0  0
  6 11  1  0  0  0  0
  6  5  2  0  0  0  0
  7  1  1  0  0  0  0
 10  9  3  0  0  0  0
 12 13  2  0  0  0  0
 14 12  1  0  0  0  0
 14 15  1  0  0  0  0
M  RAD  2   2   2   3   2
M  END
