Coordinates from ORCA-job 2-HOOC-4-Br-C6H2-N2-B3LYPG-aug-cc-pVDZ-scan-d09-49-n400
 OpenBabel11091809123D

 15 15  0  0  0  0  0  0  0  0999 V2000
   -1.3765   -1.4912   -1.0677 C   0  0  0  0  0  0  0  0  0  0  0  0
    0.0361   -1.3261   -1.1163 C   0  0  0  0  0  0  0  0  0  0  0  0
    0.4186    0.0224   -0.9037 C   0  0  0  0  0  0  0  0  0  0  0  0
   -0.4268    1.1621   -0.6615 C   0  0  0  0  0  0  0  0  0  0  0  0
   -1.7827    0.8954   -0.6236 C   0  0  0  0  0  0  0  0  0  0  0  0
   -2.2367   -0.4279   -0.8243 C   0  0  0  0  0  0  0  0  0  0  0  0
   -1.8051   -2.4838   -1.2232 H   0  0  0  0  0  0  0  0  0  0  0  0
   -2.4798    1.7095   -0.4428 H   0  0  0  0  0  0  0  0  0  0  0  0
    1.7424    0.1549   -0.9455 N   0  0  0  0  0  0  0  0  0  0  0  0
    2.8594    0.1737   -0.9943 N   0  0  0  0  0  0  0  0  0  0  0  0
   -4.1337   -0.7216   -0.7516 Br  0  0  0  0  0  0  0  0  0  0  0  0
    0.0024    2.5759   -0.4532 C   0  0  0  0  0  0  0  0  0  0  0  0
   -0.7500    3.4997   -0.2396 O   0  0  0  0  0  0  0  0  0  0  0  0
    1.3504    2.7375   -0.5310 O   0  0  0  0  0  0  0  0  0  0  0  0
    1.5310    3.6805   -0.3855 H   0  0  0  0  0  0  0  0  0  0  0  0
  1  6  1  0  0  0  0
  2  1  2  0  0  0  0
  2  3  1  0  0  0  0
  3  4  2  0  0  0  0
  4  5  1  0  0  0  0
  4 12  1  0  0  0  0
  5  8  1  0  0  0  0
  6 11  1  0  0  0  0
  6  5  2  0  0  0  0
  7  1  1  0  0  0  0
  9  3  1  0  0  0  0
 10  9  1  0  0  0  0
 12 13  2  0  0  0  0
 14 12  1  0  0  0  0
 14 15  1  0  0  0  0
M  RAD  3   2   2   9   2  10   3
M  END
