Coordinates from ORCA-job 2-HOOC-4-Br-C6H2-N2-B3LYPG-aug-cc-pVDZ-scan-d09-49-n400
 OpenBabel11091809123D

 15 15  0  0  0  0  0  0  0  0999 V2000
   -1.3803   -1.4911   -1.0552 C   0  0  0  0  0  0  0  0  0  0  0  0
    0.0296   -1.3065   -1.1073 C   0  0  0  0  0  0  0  0  0  0  0  0
    0.3779    0.0243   -0.9039 C   0  0  0  0  0  0  0  0  0  0  0  0
   -0.4403    1.1685   -0.6636 C   0  0  0  0  0  0  0  0  0  0  0  0
   -1.8004    0.8972   -0.6289 C   0  0  0  0  0  0  0  0  0  0  0  0
   -2.2472   -0.4268   -0.8251 C   0  0  0  0  0  0  0  0  0  0  0  0
   -1.8038   -2.4878   -1.1980 H   0  0  0  0  0  0  0  0  0  0  0  0
   -2.4996    1.7102   -0.4511 H   0  0  0  0  0  0  0  0  0  0  0  0
    1.8100    0.1769   -0.9620 N   0  0  0  0  0  0  0  0  0  0  0  0
    2.9211    0.1472   -1.0301 N   0  0  0  0  0  0  0  0  0  0  0  0
   -4.1447   -0.7317   -0.7644 Br  0  0  0  0  0  0  0  0  0  0  0  0
   -0.0041    2.5772   -0.4528 C   0  0  0  0  0  0  0  0  0  0  0  0
   -0.7502    3.5088   -0.2521 O   0  0  0  0  0  0  0  0  0  0  0  0
    1.3476    2.7265   -0.5082 O   0  0  0  0  0  0  0  0  0  0  0  0
    1.5334    3.6682   -0.3612 H   0  0  0  0  0  0  0  0  0  0  0  0
  1  6  1  0  0  0  0
  2  1  2  0  0  0  0
  2  3  1  0  0  0  0
  3  4  2  0  0  0  0
  4  5  1  0  0  0  0
  4 12  1  0  0  0  0
  5  8  1  0  0  0  0
  6 11  1  0  0  0  0
  6  5  2  0  0  0  0
  7  1  1  0  0  0  0
  9  3  1  0  0  0  0
 10  9  1  0  0  0  0
 12 13  2  0  0  0  0
 14 12  1  0  0  0  0
 14 15  1  0  0  0  0
M  RAD  3   2   2   9   2  10   3
M  END
