Coordinates from ORCA-job 2-HOOC-4-Br-C6H2-N2-B3LYPG-aug-cc-pVDZ-scan-d09-49-n400
 OpenBabel11091809123D

 15 14  0  0  0  0  0  0  0  0999 V2000
   -1.4919   -1.5308   -1.0709 C   0  0  0  0  0  0  0  0  0  0  0  0
   -0.1538   -1.1564   -1.0343 C   0  0  0  0  0  0  0  0  0  0  0  0
    0.2553    0.0183   -0.8551 C   0  0  0  0  0  0  0  0  0  0  0  0
   -0.4819    1.1748   -0.6280 C   0  0  0  0  0  0  0  0  0  0  0  0
   -1.8675    0.8798   -0.6229 C   0  0  0  0  0  0  0  0  0  0  0  0
   -2.3402   -0.4258   -0.8364 C   0  0  0  0  0  0  0  0  0  0  0  0
   -1.8850   -2.5311   -1.2426 H   0  0  0  0  0  0  0  0  0  0  0  0
   -2.5658    1.6981   -0.4580 H   0  0  0  0  0  0  0  0  0  0  0  0
    2.4882    0.2254   -0.6341 N   0  0  0  0  0  0  0  0  0  0  0  0
    3.3279   -0.0144   -1.3134 N   0  0  0  0  0  0  0  0  0  0  0  0
   -4.2356   -0.7289   -0.8060 Br  0  0  0  0  0  0  0  0  0  0  0  0
   -0.0441    2.5838   -0.4334 C   0  0  0  0  0  0  0  0  0  0  0  0
   -0.7967    3.4921   -0.1521 O   0  0  0  0  0  0  0  0  0  0  0  0
    1.2867    2.7650   -0.6103 O   0  0  0  0  0  0  0  0  0  0  0  0
    1.4535    3.7111   -0.4665 H   0  0  0  0  0  0  0  0  0  0  0  0
  1  2  2  0  0  0  0
  1  6  1  0  0  0  0
  2  3  1  0  0  0  0
  3  4  2  0  0  0  0
  4  5  1  0  0  0  0
  4 12  1  0  0  0  0
  5  8  1  0  0  0  0
  6 11  1  0  0  0  0
  6  5  2  0  0  0  0
  7  1  1  0  0  0  0
 10  9  3  0  0  0  0
 12 13  2  0  0  0  0
 14 15  1  0  0  0  0
 14 12  1  0  0  0  0
M  RAD  2   2   2   3   2
M  END
