Coordinates from ORCA-job 2-HOOC-4-Br-C6H2-N2-B3LYPG-aug-cc-pVDZ-scan-d09-49-n400
 OpenBabel11091809123D

 15 14  0  0  0  0  0  0  0  0999 V2000
   -1.8191   -1.5135   -1.0476 C   0  0  0  0  0  0  0  0  0  0  0  0
   -0.4912   -1.1197   -1.0674 C   0  0  0  0  0  0  0  0  0  0  0  0
   -0.0395    0.0355   -0.9024 C   0  0  0  0  0  0  0  0  0  0  0  0
   -0.7707    1.1923   -0.6592 C   0  0  0  0  0  0  0  0  0  0  0  0
   -2.1579    0.9145   -0.6152 C   0  0  0  0  0  0  0  0  0  0  0  0
   -2.6475   -0.3905   -0.8035 C   0  0  0  0  0  0  0  0  0  0  0  0
   -2.2213   -2.5135   -1.1908 H   0  0  0  0  0  0  0  0  0  0  0  0
   -2.8465    1.7374   -0.4312 H   0  0  0  0  0  0  0  0  0  0  0  0
    4.3447    0.1289   -0.5573 N   0  0  0  0  0  0  0  0  0  0  0  0
    4.9025    0.0785   -1.5093 N   0  0  0  0  0  0  0  0  0  0  0  0
   -4.5426   -0.6793   -0.7280 Br  0  0  0  0  0  0  0  0  0  0  0  0
   -0.2550    2.5707   -0.4606 C   0  0  0  0  0  0  0  0  0  0  0  0
   -0.9501    3.5418   -0.2505 O   0  0  0  0  0  0  0  0  0  0  0  0
    1.0958    2.6254   -0.5410 O   0  0  0  0  0  0  0  0  0  0  0  0
    1.3474    3.5525   -0.3998 H   0  0  0  0  0  0  0  0  0  0  0  0
  1  6  1  0  0  0  0
  2  1  2  0  0  0  0
  2  3  1  0  0  0  0
  3  4  2  0  0  0  0
  4  5  1  0  0  0  0
  4 12  1  0  0  0  0
  5  8  1  0  0  0  0
  6 11  1  0  0  0  0
  6  5  2  0  0  0  0
  7  1  1  0  0  0  0
 10  9  3  0  0  0  0
 12 13  2  0  0  0  0
 14 12  1  0  0  0  0
 14 15  1  0  0  0  0
M  RAD  2   2   2   3   2
M  END
