Coordinates from ORCA-job 2-HOOC-4-Br-C6H2-N2-B3LYPG-aug-cc-pVDZ-scan-d09-49-n400
 OpenBabel11091809123D

 15 15  0  0  0  0  0  0  0  0999 V2000
   -1.3749   -1.4669   -1.1709 C   0  0  0  0  0  0  0  0  0  0  0  0
    0.0363   -1.3440   -1.1635 C   0  0  0  0  0  0  0  0  0  0  0  0
    0.4910    0.0226   -0.8781 C   0  0  0  0  0  0  0  0  0  0  0  0
   -0.4077    1.1474   -0.6391 C   0  0  0  0  0  0  0  0  0  0  0  0
   -1.7561    0.8824   -0.5695 C   0  0  0  0  0  0  0  0  0  0  0  0
   -2.2240   -0.4304   -0.8085 C   0  0  0  0  0  0  0  0  0  0  0  0
   -1.8101   -2.4333   -1.4362 H   0  0  0  0  0  0  0  0  0  0  0  0
   -2.4461    1.6962   -0.3617 H   0  0  0  0  0  0  0  0  0  0  0  0
    1.6449    0.1299   -0.8141 N   0  0  0  0  0  0  0  0  0  0  0  0
    2.7740    0.1677   -0.7602 N   0  0  0  0  0  0  0  0  0  0  0  0
   -4.1074   -0.7343   -0.6443 Br  0  0  0  0  0  0  0  0  0  0  0  0
    0.0136    2.5726   -0.4711 C   0  0  0  0  0  0  0  0  0  0  0  0
   -0.7322    3.4724   -0.1538 O   0  0  0  0  0  0  0  0  0  0  0  0
    1.3349    2.7665   -0.7114 O   0  0  0  0  0  0  0  0  0  0  0  0
    1.5128    3.7124   -0.5815 H   0  0  0  0  0  0  0  0  0  0  0  0
  1  2  2  0  0  0  0
  1  6  1  0  0  0  0
  2  3  1  0  0  0  0
  3  9  1  0  0  0  0
  3  4  2  0  0  0  0
  4  5  1  0  0  0  0
  4 12  1  0  0  0  0
  5  8  1  0  0  0  0
  6 11  1  0  0  0  0
  6  5  2  0  0  0  0
  7  1  1  0  0  0  0
  9 10  1  0  0  0  0
 12 13  2  0  0  0  0
 14 15  1  0  0  0  0
 14 12  1  0  0  0  0
M  RAD  3   2   2   9   2  10   3
M  END
