Coordinates from ORCA-job 2-HOOC-4-Br-C6H2-N2-B3LYPG-aug-cc-pVDZ-scan-d09-49-n400
 OpenBabel11091809123D

 15 14  0  0  0  0  0  0  0  0999 V2000
   -1.6258   -1.5178   -1.0360 C   0  0  0  0  0  0  0  0  0  0  0  0
   -0.3052   -1.0988   -1.0206 C   0  0  0  0  0  0  0  0  0  0  0  0
    0.1146    0.0683   -0.8547 C   0  0  0  0  0  0  0  0  0  0  0  0
   -0.6447    1.2128   -0.6433 C   0  0  0  0  0  0  0  0  0  0  0  0
   -2.0269    0.9058   -0.6349 C   0  0  0  0  0  0  0  0  0  0  0  0
   -2.4839   -0.4105   -0.8248 C   0  0  0  0  0  0  0  0  0  0  0  0
   -2.0038   -2.5269   -1.1819 H   0  0  0  0  0  0  0  0  0  0  0  0
   -2.7371    1.7159   -0.4783 H   0  0  0  0  0  0  0  0  0  0  0  0
    3.4227    0.0636   -0.6255 N   0  0  0  0  0  0  0  0  0  0  0  0
    4.1010   -0.0165   -1.4937 N   0  0  0  0  0  0  0  0  0  0  0  0
   -4.3741   -0.7381   -0.7989 Br  0  0  0  0  0  0  0  0  0  0  0  0
   -0.1700    2.6063   -0.4462 C   0  0  0  0  0  0  0  0  0  0  0  0
   -0.8967    3.5582   -0.2554 O   0  0  0  0  0  0  0  0  0  0  0  0
    1.1796    2.7016   -0.5042 O   0  0  0  0  0  0  0  0  0  0  0  0
    1.3993    3.6372   -0.3654 H   0  0  0  0  0  0  0  0  0  0  0  0
  1  2  2  0  0  0  0
  1  6  1  0  0  0  0
  2  3  1  0  0  0  0
  3  4  2  0  0  0  0
  4  5  1  0  0  0  0
  4 12  1  0  0  0  0
  5  8  1  0  0  0  0
  6 11  1  0  0  0  0
  6  5  2  0  0  0  0
  7  1  1  0  0  0  0
 10  9  3  0  0  0  0
 12 13  2  0  0  0  0
 14 12  1  0  0  0  0
 14 15  1  0  0  0  0
M  RAD  2   2   2   3   2
M  END
