Coordinates from ORCA-job 2-HOOC-4-Br-C6H2-N2-B3LYPG-aug-cc-pVDZ-scan-d09-49-n400
 OpenBabel11091809123D

 15 14  0  0  0  0  0  0  0  0999 V2000
   -1.7118   -1.5176   -1.0398 C   0  0  0  0  0  0  0  0  0  0  0  0
   -0.3870   -1.1118   -1.0396 C   0  0  0  0  0  0  0  0  0  0  0  0
    0.0469    0.0503   -0.8747 C   0  0  0  0  0  0  0  0  0  0  0  0
   -0.6976    1.2019   -0.6503 C   0  0  0  0  0  0  0  0  0  0  0  0
   -2.0827    0.9093   -0.6272 C   0  0  0  0  0  0  0  0  0  0  0  0
   -2.5556   -0.4016   -0.8156 C   0  0  0  0  0  0  0  0  0  0  0  0
   -2.1020   -2.5222   -1.1836 H   0  0  0  0  0  0  0  0  0  0  0  0
   -2.7827    1.7262   -0.4596 H   0  0  0  0  0  0  0  0  0  0  0  0
    3.8041    0.1007   -0.6052 N   0  0  0  0  0  0  0  0  0  0  0  0
    4.4563    0.0366   -1.4944 N   0  0  0  0  0  0  0  0  0  0  0  0
   -4.4487   -0.7095   -0.7691 Br  0  0  0  0  0  0  0  0  0  0  0  0
   -0.2032    2.5884   -0.4527 C   0  0  0  0  0  0  0  0  0  0  0  0
   -0.9158    3.5495   -0.2552 O   0  0  0  0  0  0  0  0  0  0  0  0
    1.1471    2.6645   -0.5182 O   0  0  0  0  0  0  0  0  0  0  0  0
    1.3818    3.5964   -0.3787 H   0  0  0  0  0  0  0  0  0  0  0  0
  1  2  2  0  0  0  0
  1  6  1  0  0  0  0
  2  3  1  0  0  0  0
  3  4  2  0  0  0  0
  4  5  1  0  0  0  0
  4 12  1  0  0  0  0
  5  8  1  0  0  0  0
  6 11  1  0  0  0  0
  6  5  2  0  0  0  0
  7  1  1  0  0  0  0
 10  9  3  0  0  0  0
 12 13  2  0  0  0  0
 14 12  1  0  0  0  0
 14 15  1  0  0  0  0
M  RAD  2   2   2   3   2
M  END
