Coordinates from ORCA-job 2-HOOC-4-Br-C6H2-N2-B3LYPG-aug-cc-pVDZ-scan-d09-49-n400
 OpenBabel11091809123D

 15 15  0  0  0  0  0  0  0  0999 V2000
   -1.3765   -1.4874   -1.0896 C   0  0  0  0  0  0  0  0  0  0  0  0
    0.0368   -1.3324   -1.1267 C   0  0  0  0  0  0  0  0  0  0  0  0
    0.4351    0.0211   -0.8997 C   0  0  0  0  0  0  0  0  0  0  0  0
   -0.4219    1.1583   -0.6570 C   0  0  0  0  0  0  0  0  0  0  0  0
   -1.7759    0.8929   -0.6126 C   0  0  0  0  0  0  0  0  0  0  0  0
   -2.2335   -0.4287   -0.8210 C   0  0  0  0  0  0  0  0  0  0  0  0
   -1.8076   -2.4749   -1.2694 H   0  0  0  0  0  0  0  0  0  0  0  0
   -2.4714    1.7072   -0.4267 H   0  0  0  0  0  0  0  0  0  0  0  0
    1.7198    0.1470   -0.9166 N   0  0  0  0  0  0  0  0  0  0  0  0
    2.8397    0.1766   -0.9420 N   0  0  0  0  0  0  0  0  0  0  0  0
   -4.1285   -0.7216   -0.7277 Br  0  0  0  0  0  0  0  0  0  0  0  0
    0.0048    2.5753   -0.4574 C   0  0  0  0  0  0  0  0  0  0  0  0
   -0.7478    3.4926   -0.2175 O   0  0  0  0  0  0  0  0  0  0  0  0
    1.3485    2.7457   -0.5717 O   0  0  0  0  0  0  0  0  0  0  0  0
    1.5276    3.6893   -0.4281 H   0  0  0  0  0  0  0  0  0  0  0  0
  1  6  1  0  0  0  0
  2  1  2  0  0  0  0
  2  3  1  0  0  0  0
  3  4  2  0  0  0  0
  4  5  1  0  0  0  0
  4 12  1  0  0  0  0
  5  8  1  0  0  0  0
  6 11  1  0  0  0  0
  6  5  2  0  0  0  0
  7  1  1  0  0  0  0
  9  3  1  0  0  0  0
 10  9  1  0  0  0  0
 12 13  2  0  0  0  0
 14 12  1  0  0  0  0
 14 15  1  0  0  0  0
M  RAD  3   2   2   9   2  10   3
M  END
