Coordinates from ORCA-job 2-HOOC-4-Br-C6H2-N2-B3LYPG-aug-cc-pVDZ-scan-d09-49-n400
 OpenBabel11091809123D

 15 15  0  0  0  0  0  0  0  0999 V2000
   -1.3774   -1.4878   -1.0872 C   0  0  0  0  0  0  0  0  0  0  0  0
    0.0358   -1.3318   -1.1256 C   0  0  0  0  0  0  0  0  0  0  0  0
    0.4323    0.0212   -0.9002 C   0  0  0  0  0  0  0  0  0  0  0  0
   -0.4233    1.1585   -0.6570 C   0  0  0  0  0  0  0  0  0  0  0  0
   -1.7775    0.8932   -0.6136 C   0  0  0  0  0  0  0  0  0  0  0  0
   -2.2348   -0.4285   -0.8214 C   0  0  0  0  0  0  0  0  0  0  0  0
   -1.8082   -2.4758   -1.2646 H   0  0  0  0  0  0  0  0  0  0  0  0
   -2.4730    1.7075   -0.4280 H   0  0  0  0  0  0  0  0  0  0  0  0
    1.7269    0.1485   -0.9198 N   0  0  0  0  0  0  0  0  0  0  0  0
    2.8463    0.1775   -0.9475 N   0  0  0  0  0  0  0  0  0  0  0  0
   -4.1300   -0.7214   -0.7307 Br  0  0  0  0  0  0  0  0  0  0  0  0
    0.0042    2.5749   -0.4559 C   0  0  0  0  0  0  0  0  0  0  0  0
   -0.7483    3.4934   -0.2202 O   0  0  0  0  0  0  0  0  0  0  0  0
    1.3483    2.7441   -0.5676 O   0  0  0  0  0  0  0  0  0  0  0  0
    1.5279    3.6876   -0.4246 H   0  0  0  0  0  0  0  0  0  0  0  0
  1  6  1  0  0  0  0
  2  1  2  0  0  0  0
  2  3  1  0  0  0  0
  3  4  2  0  0  0  0
  4  5  1  0  0  0  0
  4 12  1  0  0  0  0
  5  8  1  0  0  0  0
  6 11  1  0  0  0  0
  6  5  2  0  0  0  0
  7  1  1  0  0  0  0
  9  3  1  0  0  0  0
 10  9  1  0  0  0  0
 12 13  2  0  0  0  0
 14 12  1  0  0  0  0
 14 15  1  0  0  0  0
M  RAD  3   2   2   9   2  10   3
M  END
