Coordinates from ORCA-job 2-HOOC-4-Br-C6H2-N2-B3LYPG-aug-cc-pVDZ-scan-d09-49-n400
 OpenBabel11091809123D

 15 14  0  0  0  0  0  0  0  0999 V2000
   -1.5812   -1.5245   -1.0320 C   0  0  0  0  0  0  0  0  0  0  0  0
   -0.2610   -1.1060   -1.0000 C   0  0  0  0  0  0  0  0  0  0  0  0
    0.1611    0.0605   -0.8359 C   0  0  0  0  0  0  0  0  0  0  0  0
   -0.6016    1.2059   -0.6363 C   0  0  0  0  0  0  0  0  0  0  0  0
   -1.9838    0.8998   -0.6418 C   0  0  0  0  0  0  0  0  0  0  0  0
   -2.4406   -0.4164   -0.8332 C   0  0  0  0  0  0  0  0  0  0  0  0
   -1.9577   -2.5338   -1.1802 H   0  0  0  0  0  0  0  0  0  0  0  0
   -2.6946    1.7114   -0.4958 H   0  0  0  0  0  0  0  0  0  0  0  0
    3.1491    0.0981   -0.6302 N   0  0  0  0  0  0  0  0  0  0  0  0
    3.8393    0.0081   -1.4881 N   0  0  0  0  0  0  0  0  0  0  0  0
   -4.3313   -0.7416   -0.8268 Br  0  0  0  0  0  0  0  0  0  0  0  0
   -0.1325    2.6020   -0.4412 C   0  0  0  0  0  0  0  0  0  0  0  0
   -0.8631    3.5502   -0.2476 O   0  0  0  0  0  0  0  0  0  0  0  0
    1.2162    2.7052   -0.5062 O   0  0  0  0  0  0  0  0  0  0  0  0
    1.4308    3.6421   -0.3685 H   0  0  0  0  0  0  0  0  0  0  0  0
  1  2  2  0  0  0  0
  1  6  1  0  0  0  0
  2  3  1  0  0  0  0
  3  4  2  0  0  0  0
  4 12  1  0  0  0  0
  5  4  1  0  0  0  0
  5  8  1  0  0  0  0
  6 11  1  0  0  0  0
  6  5  2  0  0  0  0
  7  1  1  0  0  0  0
 10  9  3  0  0  0  0
 12 13  2  0  0  0  0
 14 12  1  0  0  0  0
 14 15  1  0  0  0  0
M  RAD  2   2   2   3   2
M  END
