Coordinates from ORCA-job 2-HOOC-4-Br-C6H2-N2-B3LYPG-aug-cc-pVDZ-scan-d09-49-n400
 OpenBabel11091809123D

 15 14  0  0  0  0  0  0  0  0999 V2000
   -1.4401   -1.5184   -1.0553 C   0  0  0  0  0  0  0  0  0  0  0  0
   -0.0838   -1.1760   -1.0763 C   0  0  0  0  0  0  0  0  0  0  0  0
    0.2708    0.0294   -0.8953 C   0  0  0  0  0  0  0  0  0  0  0  0
   -0.4578    1.1882   -0.6589 C   0  0  0  0  0  0  0  0  0  0  0  0
   -1.8392    0.8852   -0.6295 C   0  0  0  0  0  0  0  0  0  0  0  0
   -2.2994   -0.4274   -0.8227 C   0  0  0  0  0  0  0  0  0  0  0  0
   -1.8356   -2.5233   -1.2007 H   0  0  0  0  0  0  0  0  0  0  0  0
   -2.5391    1.6991   -0.4526 H   0  0  0  0  0  0  0  0  0  0  0  0
    2.2531    0.3069   -0.9629 N   0  0  0  0  0  0  0  0  0  0  0  0
    3.2229   -0.2055   -1.1141 N   0  0  0  0  0  0  0  0  0  0  0  0
   -4.1934   -0.7444   -0.7656 Br  0  0  0  0  0  0  0  0  0  0  0  0
   -0.0398    2.6026   -0.4468 C   0  0  0  0  0  0  0  0  0  0  0  0
   -0.8179    3.5106   -0.2472 O   0  0  0  0  0  0  0  0  0  0  0  0
    1.3012    2.7927   -0.4935 O   0  0  0  0  0  0  0  0  0  0  0  0
    1.4473    3.7413   -0.3424 H   0  0  0  0  0  0  0  0  0  0  0  0
  1  6  1  0  0  0  0
  2  1  2  0  0  0  0
  2  3  1  0  0  0  0
  3  4  2  0  0  0  0
  4  5  1  0  0  0  0
  4 12  1  0  0  0  0
  5  8  1  0  0  0  0
  6 11  1  0  0  0  0
  6  5  2  0  0  0  0
  7  1  1  0  0  0  0
 10  9  3  0  0  0  0
 12 13  2  0  0  0  0
 14 12  1  0  0  0  0
 14 15  1  0  0  0  0
M  RAD  2   2   2   3   2
M  END
