Coordinates from ORCA-job 2-HOOC-4-Br-C6H2-N2-B3LYPG-aug-cc-pVDZ-scan-d09-49-n400
 OpenBabel11091809123D

 15 14  0  0  0  0  0  0  0  0999 V2000
   -1.5766   -1.5240   -1.0360 C   0  0  0  0  0  0  0  0  0  0  0  0
   -0.2550   -1.1083   -1.0028 C   0  0  0  0  0  0  0  0  0  0  0  0
    0.1662    0.0586   -0.8375 C   0  0  0  0  0  0  0  0  0  0  0  0
   -0.5960    1.2039   -0.6347 C   0  0  0  0  0  0  0  0  0  0  0  0
   -1.9782    0.8986   -0.6382 C   0  0  0  0  0  0  0  0  0  0  0  0
   -2.4355   -0.4168   -0.8324 C   0  0  0  0  0  0  0  0  0  0  0  0
   -1.9541   -2.5324   -1.1879 H   0  0  0  0  0  0  0  0  0  0  0  0
   -2.6882    1.7103   -0.4896 H   0  0  0  0  0  0  0  0  0  0  0  0
    3.1134    0.1060   -0.6260 N   0  0  0  0  0  0  0  0  0  0  0  0
    3.8120    0.0091   -1.4765 N   0  0  0  0  0  0  0  0  0  0  0  0
   -4.3263   -0.7417   -0.8248 Br  0  0  0  0  0  0  0  0  0  0  0  0
   -0.1277    2.6003   -0.4404 C   0  0  0  0  0  0  0  0  0  0  0  0
   -0.8589    3.5478   -0.2450 O   0  0  0  0  0  0  0  0  0  0  0  0
    1.2203    2.7061   -0.5138 O   0  0  0  0  0  0  0  0  0  0  0  0
    1.4337    3.6436   -0.3782 H   0  0  0  0  0  0  0  0  0  0  0  0
  1  2  2  0  0  0  0
  1  6  1  0  0  0  0
  2  3  1  0  0  0  0
  3  4  2  0  0  0  0
  4 12  1  0  0  0  0
  5  4  1  0  0  0  0
  5  8  1  0  0  0  0
  6 11  1  0  0  0  0
  6  5  2  0  0  0  0
  7  1  1  0  0  0  0
 10  9  3  0  0  0  0
 12 13  2  0  0  0  0
 14 12  1  0  0  0  0
 14 15  1  0  0  0  0
M  RAD  2   2   2   3   2
M  END
