Coordinates from ORCA-job 2-HOOC-4-Br-C6H2-N2-B3LYPG-aug-cc-pVDZ-scan-d09-49-n400
 OpenBabel11091809123D

 15 14  0  0  0  0  0  0  0  0999 V2000
   -1.8057   -1.5144   -1.0462 C   0  0  0  0  0  0  0  0  0  0  0  0
   -0.4780   -1.1195   -1.0631 C   0  0  0  0  0  0  0  0  0  0  0  0
   -0.0280    0.0364   -0.8983 C   0  0  0  0  0  0  0  0  0  0  0  0
   -0.7608    1.1929   -0.6580 C   0  0  0  0  0  0  0  0  0  0  0  0
   -2.1477    0.9137   -0.6170 C   0  0  0  0  0  0  0  0  0  0  0  0
   -2.6357   -0.3919   -0.8052 C   0  0  0  0  0  0  0  0  0  0  0  0
   -2.2066   -2.5148   -1.1894 H   0  0  0  0  0  0  0  0  0  0  0  0
   -2.8375    1.7362   -0.4354 H   0  0  0  0  0  0  0  0  0  0  0  0
    4.2667    0.1296   -0.5660 N   0  0  0  0  0  0  0  0  0  0  0  0
    4.8450    0.0772   -1.5056 N   0  0  0  0  0  0  0  0  0  0  0  0
   -4.5307   -0.6824   -0.7340 Br  0  0  0  0  0  0  0  0  0  0  0  0
   -0.2467    2.5719   -0.4596 C   0  0  0  0  0  0  0  0  0  0  0  0
   -0.9433    3.5425   -0.2516 O   0  0  0  0  0  0  0  0  0  0  0  0
    1.1041    2.6280   -0.5378 O   0  0  0  0  0  0  0  0  0  0  0  0
    1.3542    3.5556   -0.3969 H   0  0  0  0  0  0  0  0  0  0  0  0
  1  6  1  0  0  0  0
  2  1  2  0  0  0  0
  2  3  1  0  0  0  0
  3  4  2  0  0  0  0
  4  5  1  0  0  0  0
  4 12  1  0  0  0  0
  5  8  1  0  0  0  0
  6 11  1  0  0  0  0
  6  5  2  0  0  0  0
  7  1  1  0  0  0  0
 10  9  3  0  0  0  0
 12 13  2  0  0  0  0
 14 12  1  0  0  0  0
 14 15  1  0  0  0  0
M  RAD  2   2   2   3   2
M  END
