Coordinates from ORCA-job 2-HOOC-4-Br-C6H2-N2-B3LYPG-aug-cc-pVDZ-scan-d09-49-n400
 OpenBabel11091809123D

 15 15  0  0  0  0  0  0  0  0999 V2000
   -1.3769   -1.4792   -1.1285 C   0  0  0  0  0  0  0  0  0  0  0  0
    0.0363   -1.3348   -1.1443 C   0  0  0  0  0  0  0  0  0  0  0  0
    0.4518    0.0200   -0.8914 C   0  0  0  0  0  0  0  0  0  0  0  0
   -0.4165    1.1542   -0.6474 C   0  0  0  0  0  0  0  0  0  0  0  0
   -1.7686    0.8883   -0.5922 C   0  0  0  0  0  0  0  0  0  0  0  0
   -2.2300   -0.4297   -0.8152 C   0  0  0  0  0  0  0  0  0  0  0  0
   -1.8106   -2.4570   -1.3503 H   0  0  0  0  0  0  0  0  0  0  0  0
   -2.4625    1.7018   -0.3962 H   0  0  0  0  0  0  0  0  0  0  0  0
    1.6969    0.1374   -0.8666 N   0  0  0  0  0  0  0  0  0  0  0  0
    2.8196    0.1713   -0.8528 N   0  0  0  0  0  0  0  0  0  0  0  0
   -4.1208   -0.7276   -0.6877 Br  0  0  0  0  0  0  0  0  0  0  0  0
    0.0080    2.5744   -0.4620 C   0  0  0  0  0  0  0  0  0  0  0  0
   -0.7409    3.4839   -0.1831 O   0  0  0  0  0  0  0  0  0  0  0  0
    1.3425    2.7567   -0.6415 O   0  0  0  0  0  0  0  0  0  0  0  0
    1.5208    3.7014   -0.5046 H   0  0  0  0  0  0  0  0  0  0  0  0
  1  6  1  0  0  0  0
  2  1  2  0  0  0  0
  2  3  1  0  0  0  0
  3  9  1  0  0  0  0
  3  4  2  0  0  0  0
  4  5  1  0  0  0  0
  4 12  1  0  0  0  0
  5  8  1  0  0  0  0
  6 11  1  0  0  0  0
  6  5  2  0  0  0  0
  7  1  1  0  0  0  0
  9 10  1  0  0  0  0
 12 13  2  0  0  0  0
 14 15  1  0  0  0  0
 14 12  1  0  0  0  0
M  RAD  3   2   2   9   2  10   3
M  END
