Coordinates from ORCA-job 2-HOOC-4-Br-C6H2-N2-B3LYPG-aug-cc-pVDZ-scan-d09-49-n400
 OpenBabel11091809123D

 15 14  0  0  0  0  0  0  0  0999 V2000
   -1.4706   -1.5291   -1.0669 C   0  0  0  0  0  0  0  0  0  0  0  0
   -0.1273   -1.1684   -1.0173 C   0  0  0  0  0  0  0  0  0  0  0  0
    0.2738    0.0139   -0.8406 C   0  0  0  0  0  0  0  0  0  0  0  0
   -0.4653    1.1715   -0.6207 C   0  0  0  0  0  0  0  0  0  0  0  0
   -1.8502    0.8792   -0.6268 C   0  0  0  0  0  0  0  0  0  0  0  0
   -2.3217   -0.4263   -0.8417 C   0  0  0  0  0  0  0  0  0  0  0  0
   -1.8648   -2.5290   -1.2406 H   0  0  0  0  0  0  0  0  0  0  0  0
   -2.5483    1.6992   -0.4704 H   0  0  0  0  0  0  0  0  0  0  0  0
    2.3765    0.2377   -0.6507 N   0  0  0  0  0  0  0  0  0  0  0  0
    3.2250   -0.0164   -1.3155 N   0  0  0  0  0  0  0  0  0  0  0  0
   -4.2180   -0.7278   -0.8229 Br  0  0  0  0  0  0  0  0  0  0  0  0
   -0.0328    2.5830   -0.4264 C   0  0  0  0  0  0  0  0  0  0  0  0
   -0.7867    3.4878   -0.1383 O   0  0  0  0  0  0  0  0  0  0  0  0
    1.2952    2.7703   -0.6160 O   0  0  0  0  0  0  0  0  0  0  0  0
    1.4641    3.7156   -0.4694 H   0  0  0  0  0  0  0  0  0  0  0  0
  1  2  2  0  0  0  0
  1  6  1  0  0  0  0
  2  3  1  0  0  0  0
  3  4  2  0  0  0  0
  4 12  1  0  0  0  0
  5  4  1  0  0  0  0
  5  8  1  0  0  0  0
  6 11  1  0  0  0  0
  6  5  2  0  0  0  0
  7  1  1  0  0  0  0
 10  9  3  0  0  0  0
 12 13  2  0  0  0  0
 14 15  1  0  0  0  0
 14 12  1  0  0  0  0
M  RAD  2   2   2   3   2
M  END
