Coordinates from ORCA-job 2-HOOC-4-Br-C6H2-N2-B3LYPG-aug-cc-pVDZ-scan-d09-49-n400
 OpenBabel11091809123D

 15 14  0  0  0  0  0  0  0  0999 V2000
   -1.8761   -1.5097   -1.0535 C   0  0  0  0  0  0  0  0  0  0  0  0
   -0.5475   -1.1197   -1.0844 C   0  0  0  0  0  0  0  0  0  0  0  0
   -0.0888    0.0328   -0.9189 C   0  0  0  0  0  0  0  0  0  0  0  0
   -0.8143    1.1909   -0.6640 C   0  0  0  0  0  0  0  0  0  0  0  0
   -2.2019    0.9178   -0.6081 C   0  0  0  0  0  0  0  0  0  0  0  0
   -2.6982   -0.3847   -0.7970 C   0  0  0  0  0  0  0  0  0  0  0  0
   -2.2830   -2.5078   -1.1966 H   0  0  0  0  0  0  0  0  0  0  0  0
   -2.8859    1.7424   -0.4142 H   0  0  0  0  0  0  0  0  0  0  0  0
    4.6933    0.1241   -0.5183 N   0  0  0  0  0  0  0  0  0  0  0  0
    5.1397    0.0817   -1.5277 N   0  0  0  0  0  0  0  0  0  0  0  0
   -4.5935   -0.6670   -0.7048 Br  0  0  0  0  0  0  0  0  0  0  0  0
   -0.2910    2.5662   -0.4642 C   0  0  0  0  0  0  0  0  0  0  0  0
   -0.9799    3.5398   -0.2452 O   0  0  0  0  0  0  0  0  0  0  0  0
    1.0593    2.6145   -0.5547 O   0  0  0  0  0  0  0  0  0  0  0  0
    1.3169    3.5398   -0.4124 H   0  0  0  0  0  0  0  0  0  0  0  0
  1  6  1  0  0  0  0
  2  1  2  0  0  0  0
  2  3  1  0  0  0  0
  3  4  2  0  0  0  0
  4  5  1  0  0  0  0
  4 12  1  0  0  0  0
  5  8  1  0  0  0  0
  6 11  1  0  0  0  0
  6  5  2  0  0  0  0
  7  1  1  0  0  0  0
 10  9  3  0  0  0  0
 12 13  2  0  0  0  0
 14 12  1  0  0  0  0
 14 15  1  0  0  0  0
M  RAD  2   2   2   3   2
M  END
