Coordinates from ORCA-job 2-HOOC-4-Br-C6H2-N2-B3LYPG-aug-cc-pVDZ-scan-d09-49-n400
 OpenBabel11091809123D

 15 14  0  0  0  0  0  0  0  0999 V2000
   -1.7536   -1.5166   -1.0423 C   0  0  0  0  0  0  0  0  0  0  0  0
   -0.4272   -1.1166   -1.0495 C   0  0  0  0  0  0  0  0  0  0  0  0
    0.0134    0.0431   -0.8849 C   0  0  0  0  0  0  0  0  0  0  0  0
   -0.7246    1.1974   -0.6536 C   0  0  0  0  0  0  0  0  0  0  0  0
   -2.1110    0.9112   -0.6229 C   0  0  0  0  0  0  0  0  0  0  0  0
   -2.5909   -0.3972   -0.8111 C   0  0  0  0  0  0  0  0  0  0  0  0
   -2.1491   -2.5192   -1.1855 H   0  0  0  0  0  0  0  0  0  0  0  0
   -2.8062    1.7309   -0.4495 H   0  0  0  0  0  0  0  0  0  0  0  0
    3.9997    0.1164   -0.5928 N   0  0  0  0  0  0  0  0  0  0  0  0
    4.6324    0.0562   -1.4963 N   0  0  0  0  0  0  0  0  0  0  0  0
   -4.4851   -0.6966   -0.7540 Br  0  0  0  0  0  0  0  0  0  0  0  0
   -0.2215    2.5807   -0.4556 C   0  0  0  0  0  0  0  0  0  0  0  0
   -0.9271    3.5460   -0.2537 O   0  0  0  0  0  0  0  0  0  0  0  0
    1.1291    2.6478   -0.5263 O   0  0  0  0  0  0  0  0  0  0  0  0
    1.3708    3.5777   -0.3861 H   0  0  0  0  0  0  0  0  0  0  0  0
  1  6  1  0  0  0  0
  2  1  2  0  0  0  0
  2  3  1  0  0  0  0
  3  4  2  0  0  0  0
  4  5  1  0  0  0  0
  4 12  1  0  0  0  0
  5  8  1  0  0  0  0
  6 11  1  0  0  0  0
  6  5  2  0  0  0  0
  7  1  1  0  0  0  0
 10  9  3  0  0  0  0
 12 13  2  0  0  0  0
 14 12  1  0  0  0  0
 14 15  1  0  0  0  0
M  RAD  2   2   2   3   2
M  END
