Coordinates from ORCA-job 2-HOOC-4-Br-C6H2-N2-B3LYPG-aug-cc-pVDZ-scan-d09-49-n400
 OpenBabel11091809123D

 15 15  0  0  0  0  0  0  0  0999 V2000
   -1.3733   -1.4669   -1.1697 C   0  0  0  0  0  0  0  0  0  0  0  0
    0.0379   -1.3467   -1.1628 C   0  0  0  0  0  0  0  0  0  0  0  0
    0.4981    0.0229   -0.8739 C   0  0  0  0  0  0  0  0  0  0  0  0
   -0.4057    1.1465   -0.6379 C   0  0  0  0  0  0  0  0  0  0  0  0
   -1.7538    0.8823   -0.5694 C   0  0  0  0  0  0  0  0  0  0  0  0
   -2.2225   -0.4303   -0.8086 C   0  0  0  0  0  0  0  0  0  0  0  0
   -1.8083   -2.4337   -1.4339 H   0  0  0  0  0  0  0  0  0  0  0  0
   -2.4434    1.6967   -0.3624 H   0  0  0  0  0  0  0  0  0  0  0  0
    1.6322    0.1298   -0.8159 N   0  0  0  0  0  0  0  0  0  0  0  0
    2.7632    0.1684   -0.7674 N   0  0  0  0  0  0  0  0  0  0  0  0
   -4.1058   -0.7328   -0.6476 Br  0  0  0  0  0  0  0  0  0  0  0  0
    0.0149    2.5724   -0.4696 C   0  0  0  0  0  0  0  0  0  0  0  0
   -0.7333    3.4719   -0.1573 O   0  0  0  0  0  0  0  0  0  0  0  0
    1.3360    2.7671   -0.7079 O   0  0  0  0  0  0  0  0  0  0  0  0
    1.5129    3.7134   -0.5796 H   0  0  0  0  0  0  0  0  0  0  0  0
  1  2  2  0  0  0  0
  1  6  1  0  0  0  0
  2  3  1  0  0  0  0
  3  9  1  0  0  0  0
  3  4  2  0  0  0  0
  4  5  1  0  0  0  0
  4 12  1  0  0  0  0
  5  8  1  0  0  0  0
  6 11  1  0  0  0  0
  6  5  2  0  0  0  0
  7  1  1  0  0  0  0
  9 10  1  0  0  0  0
 12 13  2  0  0  0  0
 14 15  1  0  0  0  0
 14 12  1  0  0  0  0
M  RAD  3   2   2   9   2  10   3
M  END
