Coordinates from ORCA-job 2-HOOC-4-Br-C6H2-N2-B3LYPG-aug-cc-pVDZ-scan-d09-49-n400
 OpenBabel11091809123D

 15 15  0  0  0  0  0  0  0  0999 V2000
   -1.3910   -1.4930   -1.0543 C   0  0  0  0  0  0  0  0  0  0  0  0
    0.0023   -1.2459   -1.0946 C   0  0  0  0  0  0  0  0  0  0  0  0
    0.3095    0.0256   -0.8995 C   0  0  0  0  0  0  0  0  0  0  0  0
   -0.4523    1.1778   -0.6615 C   0  0  0  0  0  0  0  0  0  0  0  0
   -1.8238    0.8937   -0.6287 C   0  0  0  0  0  0  0  0  0  0  0  0
   -2.2663   -0.4258   -0.8239 C   0  0  0  0  0  0  0  0  0  0  0  0
   -1.7994   -2.4953   -1.1983 H   0  0  0  0  0  0  0  0  0  0  0  0
   -2.5239    1.7062   -0.4513 H   0  0  0  0  0  0  0  0  0  0  0  0
    1.9542    0.2571   -0.9573 N   0  0  0  0  0  0  0  0  0  0  0  0
    3.0266   -0.0059   -1.0645 N   0  0  0  0  0  0  0  0  0  0  0  0
   -4.1606   -0.7540   -0.7678 Br  0  0  0  0  0  0  0  0  0  0  0  0
   -0.0140    2.5843   -0.4514 C   0  0  0  0  0  0  0  0  0  0  0  0
   -0.7632    3.5139   -0.2510 O   0  0  0  0  0  0  0  0  0  0  0  0
    1.3366    2.7395   -0.5040 O   0  0  0  0  0  0  0  0  0  0  0  0
    1.5144    3.6830   -0.3558 H   0  0  0  0  0  0  0  0  0  0  0  0
  1  6  1  0  0  0  0
  2  1  2  0  0  0  0
  2  3  1  0  0  0  0
  3  4  2  0  0  0  0
  4  5  1  0  0  0  0
  4 12  1  0  0  0  0
  5  8  1  0  0  0  0
  6 11  1  0  0  0  0
  6  5  2  0  0  0  0
  7  1  1  0  0  0  0
  9  3  1  0  0  0  0
 10  9  1  0  0  0  0
 12 13  2  0  0  0  0
 14 12  1  0  0  0  0
 14 15  1  0  0  0  0
M  RAD  3   2   2   9   2  10   3
M  END
