Coordinates from ORCA-job 2-HOOC-4-Br-C6H2-N2-B3LYPG-aug-cc-pVDZ-scan-d09-49-n400
 OpenBabel11091809123D

 15 14  0  0  0  0  0  0  0  0999 V2000
   -1.6067   -1.5180   -1.0354 C   0  0  0  0  0  0  0  0  0  0  0  0
   -0.2876   -1.0951   -1.0168 C   0  0  0  0  0  0  0  0  0  0  0  0
    0.1306    0.0725   -0.8506 C   0  0  0  0  0  0  0  0  0  0  0  0
   -0.6326    1.2150   -0.6419 C   0  0  0  0  0  0  0  0  0  0  0  0
   -2.0142    0.9048   -0.6366 C   0  0  0  0  0  0  0  0  0  0  0  0
   -2.4679   -0.4125   -0.8268 C   0  0  0  0  0  0  0  0  0  0  0  0
   -1.9818   -2.5281   -1.1817 H   0  0  0  0  0  0  0  0  0  0  0  0
   -2.7266    1.7135   -0.4822 H   0  0  0  0  0  0  0  0  0  0  0  0
    3.3387    0.0555   -0.6294 N   0  0  0  0  0  0  0  0  0  0  0  0
    4.0214   -0.0299   -1.4936 N   0  0  0  0  0  0  0  0  0  0  0  0
   -4.3574   -0.7443   -0.8051 Br  0  0  0  0  0  0  0  0  0  0  0  0
   -0.1628    2.6104   -0.4448 C   0  0  0  0  0  0  0  0  0  0  0  0
   -0.8930    3.5598   -0.2555 O   0  0  0  0  0  0  0  0  0  0  0  0
    1.1865    2.7105   -0.5010 O   0  0  0  0  0  0  0  0  0  0  0  0
    1.4025    3.6470   -0.3625 H   0  0  0  0  0  0  0  0  0  0  0  0
  1  2  2  0  0  0  0
  1  6  1  0  0  0  0
  2  3  1  0  0  0  0
  3  4  2  0  0  0  0
  4  5  1  0  0  0  0
  4 12  1  0  0  0  0
  5  8  1  0  0  0  0
  6 11  1  0  0  0  0
  6  5  2  0  0  0  0
  7  1  1  0  0  0  0
 10  9  3  0  0  0  0
 12 13  2  0  0  0  0
 14 12  1  0  0  0  0
 14 15  1  0  0  0  0
M  RAD  2   2   2   3   2
M  END
