Coordinates from ORCA-job 2-HOOC-4-Br-C6H2-N2-B3LYPG-aug-cc-pVDZ-scan-d09-49-n400
 OpenBabel11091809123D

 15 14  0  0  0  0  0  0  0  0999 V2000
   -1.4484   -1.5205   -1.0548 C   0  0  0  0  0  0  0  0  0  0  0  0
   -0.0974   -1.1657   -1.0706 C   0  0  0  0  0  0  0  0  0  0  0  0
    0.2660    0.0328   -0.8914 C   0  0  0  0  0  0  0  0  0  0  0  0
   -0.4636    1.1910   -0.6564 C   0  0  0  0  0  0  0  0  0  0  0  0
   -1.8456    0.8854   -0.6294 C   0  0  0  0  0  0  0  0  0  0  0  0
   -2.3066   -0.4271   -0.8230 C   0  0  0  0  0  0  0  0  0  0  0  0
   -1.8414   -2.5260   -1.2011 H   0  0  0  0  0  0  0  0  0  0  0  0
   -2.5465    1.6988   -0.4540 H   0  0  0  0  0  0  0  0  0  0  0  0
    2.3099    0.3046   -0.9570 N   0  0  0  0  0  0  0  0  0  0  0  0
    3.2641   -0.2285   -1.1310 N   0  0  0  0  0  0  0  0  0  0  0  0
   -4.2003   -0.7439   -0.7683 Br  0  0  0  0  0  0  0  0  0  0  0  0
   -0.0469    2.6058   -0.4448 C   0  0  0  0  0  0  0  0  0  0  0  0
   -0.8263    3.5125   -0.2441 O   0  0  0  0  0  0  0  0  0  0  0  0
    1.2932    2.7966   -0.4942 O   0  0  0  0  0  0  0  0  0  0  0  0
    1.4390    3.7452   -0.3436 H   0  0  0  0  0  0  0  0  0  0  0  0
  1  6  1  0  0  0  0
  2  1  2  0  0  0  0
  2  3  1  0  0  0  0
  3  4  2  0  0  0  0
  4  5  1  0  0  0  0
  4 12  1  0  0  0  0
  5  8  1  0  0  0  0
  6 11  1  0  0  0  0
  6  5  2  0  0  0  0
  7  1  1  0  0  0  0
 10  9  3  0  0  0  0
 12 13  2  0  0  0  0
 14 12  1  0  0  0  0
 14 15  1  0  0  0  0
M  RAD  2   2   2   3   2
M  END
