Coordinates from ORCA-job 2-HOOC-4-Br-C6H2-N2-B3LYPG-aug-cc-pVDZ-scan-d09-49-n400
 OpenBabel11091809123D

 15 14  0  0  0  0  0  0  0  0999 V2000
   -1.5586   -1.5242   -1.0489 C   0  0  0  0  0  0  0  0  0  0  0  0
   -0.2364   -1.1094   -1.0231 C   0  0  0  0  0  0  0  0  0  0  0  0
    0.1841    0.0576   -0.8544 C   0  0  0  0  0  0  0  0  0  0  0  0
   -0.5763    1.2017   -0.6383 C   0  0  0  0  0  0  0  0  0  0  0  0
   -1.9583    0.8947   -0.6312 C   0  0  0  0  0  0  0  0  0  0  0  0
   -2.4166   -0.4196   -0.8300 C   0  0  0  0  0  0  0  0  0  0  0  0
   -1.9370   -2.5317   -1.2053 H   0  0  0  0  0  0  0  0  0  0  0  0
   -2.6675    1.7051   -0.4719 H   0  0  0  0  0  0  0  0  0  0  0  0
    2.9879    0.1209   -0.6141 N   0  0  0  0  0  0  0  0  0  0  0  0
    3.7226   -0.0014   -1.4304 N   0  0  0  0  0  0  0  0  0  0  0  0
   -4.3072   -0.7455   -0.8071 Br  0  0  0  0  0  0  0  0  0  0  0  0
   -0.1130    2.5998   -0.4426 C   0  0  0  0  0  0  0  0  0  0  0  0
   -0.8474    3.5408   -0.2290 O   0  0  0  0  0  0  0  0  0  0  0  0
    1.2326    2.7168   -0.5379 O   0  0  0  0  0  0  0  0  0  0  0  0
    1.4404    3.6553   -0.4000 H   0  0  0  0  0  0  0  0  0  0  0  0
  1  2  2  0  0  0  0
  1  6  1  0  0  0  0
  2  3  1  0  0  0  0
  3  4  2  0  0  0  0
  4  5  1  0  0  0  0
  4 12  1  0  0  0  0
  5  8  1  0  0  0  0
  6 11  1  0  0  0  0
  6  5  2  0  0  0  0
  7  1  1  0  0  0  0
 10  9  3  0  0  0  0
 12 13  2  0  0  0  0
 14 12  1  0  0  0  0
 14 15  1  0  0  0  0
M  RAD  2   2   2   3   2
M  END
