Coordinates from ORCA-job 2-HOOC-4-Br-C6H2-N2-B3LYPG-aug-cc-pVDZ-scan-d09-49-n400
 OpenBabel11091809123D

 15 14  0  0  0  0  0  0  0  0999 V2000
   -1.4762   -1.5301   -1.0673 C   0  0  0  0  0  0  0  0  0  0  0  0
   -0.1337   -1.1674   -1.0204 C   0  0  0  0  0  0  0  0  0  0  0  0
    0.2690    0.0131   -0.8431 C   0  0  0  0  0  0  0  0  0  0  0  0
   -0.4683    1.1713   -0.6222 C   0  0  0  0  0  0  0  0  0  0  0  0
   -1.8536    0.8791   -0.6262 C   0  0  0  0  0  0  0  0  0  0  0  0
   -2.3261   -0.4262   -0.8407 C   0  0  0  0  0  0  0  0  0  0  0  0
   -1.8708   -2.5299   -1.2404 H   0  0  0  0  0  0  0  0  0  0  0  0
   -2.5514    1.6992   -0.4684 H   0  0  0  0  0  0  0  0  0  0  0  0
    2.4015    0.2372   -0.6479 N   0  0  0  0  0  0  0  0  0  0  0  0
    3.2484   -0.0137   -1.3154 N   0  0  0  0  0  0  0  0  0  0  0  0
   -4.2223   -0.7268   -0.8201 Br  0  0  0  0  0  0  0  0  0  0  0  0
   -0.0342    2.5822   -0.4280 C   0  0  0  0  0  0  0  0  0  0  0  0
   -0.7882    3.4873   -0.1408 O   0  0  0  0  0  0  0  0  0  0  0  0
    1.2945    2.7699   -0.6145 O   0  0  0  0  0  0  0  0  0  0  0  0
    1.4604    3.7158   -0.4685 H   0  0  0  0  0  0  0  0  0  0  0  0
  1  2  2  0  0  0  0
  1  6  1  0  0  0  0
  2  3  1  0  0  0  0
  3  4  2  0  0  0  0
  4 12  1  0  0  0  0
  5  4  1  0  0  0  0
  5  8  1  0  0  0  0
  6 11  1  0  0  0  0
  6  5  2  0  0  0  0
  7  1  1  0  0  0  0
 10  9  3  0  0  0  0
 12 13  2  0  0  0  0
 14 15  1  0  0  0  0
 14 12  1  0  0  0  0
M  RAD  2   2   2   3   2
M  END
