Coordinates from ORCA-job 2-HOOC-4-Br-C6H2-N2-B3LYPG-aug-cc-pVDZ-scan-d09-49-n400
 OpenBabel11091809123D

 15 15  0  0  0  0  0  0  0  0999 V2000
   -1.3611   -1.4881   -1.0677 C   0  0  0  0  0  0  0  0  0  0  0  0
    0.0448   -1.3917   -1.1295 C   0  0  0  0  0  0  0  0  0  0  0  0
    0.5713    0.0569   -0.9099 C   0  0  0  0  0  0  0  0  0  0  0  0
   -0.3976    1.1467   -0.6679 C   0  0  0  0  0  0  0  0  0  0  0  0
   -1.7435    0.8900   -0.6251 C   0  0  0  0  0  0  0  0  0  0  0  0
   -2.2188   -0.4254   -0.8227 C   0  0  0  0  0  0  0  0  0  0  0  0
   -1.7895   -2.4821   -1.2212 H   0  0  0  0  0  0  0  0  0  0  0  0
   -2.4285    1.7134   -0.4407 H   0  0  0  0  0  0  0  0  0  0  0  0
    1.5362    0.1535   -0.9397 N   0  0  0  0  0  0  0  0  0  0  0  0
    2.6904    0.1928   -0.9863 N   0  0  0  0  0  0  0  0  0  0  0  0
   -4.1044   -0.7018   -0.7438 Br  0  0  0  0  0  0  0  0  0  0  0  0
    0.0196    2.5727   -0.4566 C   0  0  0  0  0  0  0  0  0  0  0  0
   -0.7579    3.4760   -0.2420 O   0  0  0  0  0  0  0  0  0  0  0  0
    1.3573    2.7519   -0.5293 O   0  0  0  0  0  0  0  0  0  0  0  0
    1.5307    3.6962   -0.3815 H   0  0  0  0  0  0  0  0  0  0  0  0
  1  6  1  0  0  0  0
  2  1  2  0  0  0  0
  2  3  1  0  0  0  0
  3  4  2  0  0  0  0
  4  5  1  0  0  0  0
  4 12  1  0  0  0  0
  5  8  1  0  0  0  0
  6 11  1  0  0  0  0
  6  5  2  0  0  0  0
  7  1  1  0  0  0  0
  9  3  1  0  0  0  0
 10  9  1  0  0  0  0
 12 13  2  0  0  0  0
 14 12  1  0  0  0  0
 14 15  1  0  0  0  0
M  RAD  3   2   2   9   2  10   3
M  END
