Coordinates from ORCA-job 2-HOOC-4-Br-C6H2-N2-B3LYPG-aug-cc-pVDZ-scan-d09-49-n400
 OpenBabel11091809123D

 15 14  0  0  0  0  0  0  0  0999 V2000
   -1.6988   -1.5178   -1.0390 C   0  0  0  0  0  0  0  0  0  0  0  0
   -0.3746   -1.1101   -1.0365 C   0  0  0  0  0  0  0  0  0  0  0  0
    0.0572    0.0528   -0.8716 C   0  0  0  0  0  0  0  0  0  0  0  0
   -0.6894    1.2034   -0.6493 C   0  0  0  0  0  0  0  0  0  0  0  0
   -2.0742    0.9088   -0.6285 C   0  0  0  0  0  0  0  0  0  0  0  0
   -2.5447   -0.4030   -0.8171 C   0  0  0  0  0  0  0  0  0  0  0  0
   -2.0873   -2.5231   -1.1831 H   0  0  0  0  0  0  0  0  0  0  0  0
   -2.7756    1.7247   -0.4627 H   0  0  0  0  0  0  0  0  0  0  0  0
    3.7446    0.0958   -0.6086 N   0  0  0  0  0  0  0  0  0  0  0  0
    4.4016    0.0301   -1.4942 N   0  0  0  0  0  0  0  0  0  0  0  0
   -4.4374   -0.7137   -0.7739 Br  0  0  0  0  0  0  0  0  0  0  0  0
   -0.1977    2.5909   -0.4517 C   0  0  0  0  0  0  0  0  0  0  0  0
   -0.9123    3.5507   -0.2555 O   0  0  0  0  0  0  0  0  0  0  0  0
    1.1526    2.6696   -0.5158 O   0  0  0  0  0  0  0  0  0  0  0  0
    1.3851    3.6020   -0.3765 H   0  0  0  0  0  0  0  0  0  0  0  0
  1  2  2  0  0  0  0
  1  6  1  0  0  0  0
  2  3  1  0  0  0  0
  3  4  2  0  0  0  0
  4  5  1  0  0  0  0
  4 12  1  0  0  0  0
  5  8  1  0  0  0  0
  6 11  1  0  0  0  0
  6  5  2  0  0  0  0
  7  1  1  0  0  0  0
 10  9  3  0  0  0  0
 12 13  2  0  0  0  0
 14 12  1  0  0  0  0
 14 15  1  0  0  0  0
M  RAD  2   2   2   3   2
M  END
