Coordinates from ORCA-job 2-HOOC-4-Br-C6H2-N2-B3LYPG-aug-cc-pVDZ-scan-d09-49-n400
 OpenBabel11091809123D

 15 14  0  0  0  0  0  0  0  0999 V2000
   -1.7501   -1.5168   -1.0421 C   0  0  0  0  0  0  0  0  0  0  0  0
   -0.4238   -1.1164   -1.0487 C   0  0  0  0  0  0  0  0  0  0  0  0
    0.0163    0.0435   -0.8841 C   0  0  0  0  0  0  0  0  0  0  0  0
   -0.7221    1.1977   -0.6533 C   0  0  0  0  0  0  0  0  0  0  0  0
   -2.1084    0.9110   -0.6232 C   0  0  0  0  0  0  0  0  0  0  0  0
   -2.5879   -0.3976   -0.8114 C   0  0  0  0  0  0  0  0  0  0  0  0
   -2.1453   -2.5196   -1.1853 H   0  0  0  0  0  0  0  0  0  0  0  0
   -2.8040    1.7305   -0.4503 H   0  0  0  0  0  0  0  0  0  0  0  0
    3.9827    0.1148   -0.5942 N   0  0  0  0  0  0  0  0  0  0  0  0
    4.6180    0.0543   -1.4959 N   0  0  0  0  0  0  0  0  0  0  0  0
   -4.4820   -0.6975   -0.7552 Br  0  0  0  0  0  0  0  0  0  0  0  0
   -0.2199    2.5813   -0.4554 C   0  0  0  0  0  0  0  0  0  0  0  0
   -0.9265    3.5460   -0.2539 O   0  0  0  0  0  0  0  0  0  0  0  0
    1.1306    2.6498   -0.5254 O   0  0  0  0  0  0  0  0  0  0  0  0
    1.3714    3.5800   -0.3855 H   0  0  0  0  0  0  0  0  0  0  0  0
  1  6  1  0  0  0  0
  2  1  2  0  0  0  0
  2  3  1  0  0  0  0
  3  4  2  0  0  0  0
  4  5  1  0  0  0  0
  4 12  1  0  0  0  0
  5  8  1  0  0  0  0
  6 11  1  0  0  0  0
  6  5  2  0  0  0  0
  7  1  1  0  0  0  0
 10  9  3  0  0  0  0
 12 13  2  0  0  0  0
 14 12  1  0  0  0  0
 14 15  1  0  0  0  0
M  RAD  2   2   2   3   2
M  END
