Coordinates from ORCA-job 2-HOOC-4-Br-C6H2-N2-B3LYPG-aug-cc-pVDZ-scan-d09-49-n400
 OpenBabel11091809123D

 15 14  0  0  0  0  0  0  0  0999 V2000
   -1.4828   -1.5307   -1.0685 C   0  0  0  0  0  0  0  0  0  0  0  0
   -0.1419   -1.1639   -1.0255 C   0  0  0  0  0  0  0  0  0  0  0  0
    0.2632    0.0143   -0.8473 C   0  0  0  0  0  0  0  0  0  0  0  0
   -0.4731    1.1722   -0.6243 C   0  0  0  0  0  0  0  0  0  0  0  0
   -1.8587    0.8793   -0.6250 C   0  0  0  0  0  0  0  0  0  0  0  0
   -2.3317   -0.4260   -0.8391 C   0  0  0  0  0  0  0  0  0  0  0  0
   -1.8772   -2.5306   -1.2409 H   0  0  0  0  0  0  0  0  0  0  0  0
   -2.5565    1.6989   -0.4646 H   0  0  0  0  0  0  0  0  0  0  0  0
    2.4359    0.2334   -0.6430 N   0  0  0  0  0  0  0  0  0  0  0  0
    3.2801   -0.0132   -1.3150 N   0  0  0  0  0  0  0  0  0  0  0  0
   -4.2277   -0.7268   -0.8153 Br  0  0  0  0  0  0  0  0  0  0  0  0
   -0.0376    2.5824   -0.4298 C   0  0  0  0  0  0  0  0  0  0  0  0
   -0.7915    3.4885   -0.1450 O   0  0  0  0  0  0  0  0  0  0  0  0
    1.2918    2.7685   -0.6126 O   0  0  0  0  0  0  0  0  0  0  0  0
    1.4568    3.7148   -0.4679 H   0  0  0  0  0  0  0  0  0  0  0  0
  1  2  2  0  0  0  0
  1  6  1  0  0  0  0
  2  3  1  0  0  0  0
  3  4  2  0  0  0  0
  4 12  1  0  0  0  0
  5  4  1  0  0  0  0
  5  8  1  0  0  0  0
  6 11  1  0  0  0  0
  6  5  2  0  0  0  0
  7  1  1  0  0  0  0
 10  9  3  0  0  0  0
 12 13  2  0  0  0  0
 14 15  1  0  0  0  0
 14 12  1  0  0  0  0
M  RAD  2   2   2   3   2
M  END
