Coordinates from ORCA-job 2-HOOC-4-Br-C6H2-N2-B3LYPG-aug-cc-pVDZ-scan-d09-49-n400
 OpenBabel11091809123D

 15 14  0  0  0  0  0  0  0  0999 V2000
   -1.6086   -1.5179   -1.0354 C   0  0  0  0  0  0  0  0  0  0  0  0
   -0.2892   -1.0955   -1.0172 C   0  0  0  0  0  0  0  0  0  0  0  0
    0.1289    0.0721   -0.8510 C   0  0  0  0  0  0  0  0  0  0  0  0
   -0.6338    1.2149   -0.6421 C   0  0  0  0  0  0  0  0  0  0  0  0
   -2.0155    0.9050   -0.6364 C   0  0  0  0  0  0  0  0  0  0  0  0
   -2.4694   -0.4123   -0.8266 C   0  0  0  0  0  0  0  0  0  0  0  0
   -1.9839   -2.5279   -1.1818 H   0  0  0  0  0  0  0  0  0  0  0  0
   -2.7276    1.7137   -0.4818 H   0  0  0  0  0  0  0  0  0  0  0  0
    3.3470    0.0561   -0.6290 N   0  0  0  0  0  0  0  0  0  0  0  0
    4.0293   -0.0289   -1.4936 N   0  0  0  0  0  0  0  0  0  0  0  0
   -4.3590   -0.7438   -0.8045 Br  0  0  0  0  0  0  0  0  0  0  0  0
   -0.1636    2.6100   -0.4449 C   0  0  0  0  0  0  0  0  0  0  0  0
   -0.8935    3.5597   -0.2555 O   0  0  0  0  0  0  0  0  0  0  0  0
    1.1858    2.7097   -0.5013 O   0  0  0  0  0  0  0  0  0  0  0  0
    1.4021    3.6462   -0.3628 H   0  0  0  0  0  0  0  0  0  0  0  0
  1  2  2  0  0  0  0
  1  6  1  0  0  0  0
  2  3  1  0  0  0  0
  3  4  2  0  0  0  0
  4  5  1  0  0  0  0
  4 12  1  0  0  0  0
  5  8  1  0  0  0  0
  6 11  1  0  0  0  0
  6  5  2  0  0  0  0
  7  1  1  0  0  0  0
 10  9  3  0  0  0  0
 12 13  2  0  0  0  0
 14 12  1  0  0  0  0
 14 15  1  0  0  0  0
M  RAD  2   2   2   3   2
M  END
