Coordinates from ORCA-job 2-HOOC-4-Br-C6H2-N2-B3LYPG-aug-cc-pVDZ-scan-d09-49-n400
 OpenBabel11091809123D

 15 14  0  0  0  0  0  0  0  0999 V2000
   -1.8578   -1.5109   -1.0517 C   0  0  0  0  0  0  0  0  0  0  0  0
   -0.5294   -1.1195   -1.0794 C   0  0  0  0  0  0  0  0  0  0  0  0
   -0.0731    0.0338   -0.9141 C   0  0  0  0  0  0  0  0  0  0  0  0
   -0.8004    1.1914   -0.6626 C   0  0  0  0  0  0  0  0  0  0  0  0
   -2.1879    0.9167   -0.6102 C   0  0  0  0  0  0  0  0  0  0  0  0
   -2.6819   -0.3866   -0.7990 C   0  0  0  0  0  0  0  0  0  0  0  0
   -2.2631   -2.5096   -1.1948 H   0  0  0  0  0  0  0  0  0  0  0  0
   -2.8733    1.7407   -0.4193 H   0  0  0  0  0  0  0  0  0  0  0  0
    4.5796    0.1257   -0.5306 N   0  0  0  0  0  0  0  0  0  0  0  0
    5.0653    0.0807   -1.5216 N   0  0  0  0  0  0  0  0  0  0  0  0
   -4.5771   -0.6711   -0.7117 Br  0  0  0  0  0  0  0  0  0  0  0  0
   -0.2794    2.5677   -0.4632 C   0  0  0  0  0  0  0  0  0  0  0  0
   -0.9702    3.5406   -0.2469 O   0  0  0  0  0  0  0  0  0  0  0  0
    1.0711    2.6178   -0.5504 O   0  0  0  0  0  0  0  0  0  0  0  0
    1.3269    3.5437   -0.4085 H   0  0  0  0  0  0  0  0  0  0  0  0
  1  6  1  0  0  0  0
  2  1  2  0  0  0  0
  2  3  1  0  0  0  0
  3  4  2  0  0  0  0
  4  5  1  0  0  0  0
  4 12  1  0  0  0  0
  5  8  1  0  0  0  0
  6 11  1  0  0  0  0
  6  5  2  0  0  0  0
  7  1  1  0  0  0  0
 10  9  3  0  0  0  0
 12 13  2  0  0  0  0
 14 12  1  0  0  0  0
 14 15  1  0  0  0  0
M  RAD  2   2   2   3   2
M  END
