Coordinates from ORCA-job 2-HOOC-4-Br-C6H2-N2-B3LYPG-aug-cc-pVDZ-scan-d09-49-n400
 OpenBabel11091809123D

 15 14  0  0  0  0  0  0  0  0999 V2000
   -1.5456   -1.5248   -1.0582 C   0  0  0  0  0  0  0  0  0  0  0  0
   -0.2223   -1.1124   -1.0367 C   0  0  0  0  0  0  0  0  0  0  0  0
    0.1977    0.0546   -0.8656 C   0  0  0  0  0  0  0  0  0  0  0  0
   -0.5601    1.1988   -0.6407 C   0  0  0  0  0  0  0  0  0  0  0  0
   -1.9422    0.8914   -0.6263 C   0  0  0  0  0  0  0  0  0  0  0  0
   -2.4022   -0.4216   -0.8285 C   0  0  0  0  0  0  0  0  0  0  0  0
   -1.9255   -2.5312   -1.2182 H   0  0  0  0  0  0  0  0  0  0  0  0
   -2.6500    1.7016   -0.4598 H   0  0  0  0  0  0  0  0  0  0  0  0
    2.8886    0.1336   -0.6067 N   0  0  0  0  0  0  0  0  0  0  0  0
    3.6522   -0.0030   -1.3937 N   0  0  0  0  0  0  0  0  0  0  0  0
   -4.2928   -0.7468   -0.7948 Br  0  0  0  0  0  0  0  0  0  0  0  0
   -0.1006    2.5985   -0.4455 C   0  0  0  0  0  0  0  0  0  0  0  0
   -0.8369    3.5336   -0.2134 O   0  0  0  0  0  0  0  0  0  0  0  0
    1.2428    2.7248   -0.5583 O   0  0  0  0  0  0  0  0  0  0  0  0
    1.4460    3.6639   -0.4175 H   0  0  0  0  0  0  0  0  0  0  0  0
  1  2  2  0  0  0  0
  1  6  1  0  0  0  0
  2  3  1  0  0  0  0
  3  4  2  0  0  0  0
  4  5  1  0  0  0  0
  4 12  1  0  0  0  0
  5  8  1  0  0  0  0
  6 11  1  0  0  0  0
  6  5  2  0  0  0  0
  7  1  1  0  0  0  0
 10  9  3  0  0  0  0
 12 13  2  0  0  0  0
 14 12  1  0  0  0  0
 14 15  1  0  0  0  0
M  RAD  2   2   2   3   2
M  END
