Coordinates from ORCA-job 2-HOOC-4-Br-C6H2-N2-B3LYPG-aug-cc-pVDZ-scan-d09-49-n400
 OpenBabel11091809123D

 15 14  0  0  0  0  0  0  0  0999 V2000
   -1.5420   -1.5248   -1.0606 C   0  0  0  0  0  0  0  0  0  0  0  0
   -0.2183   -1.1133   -1.0396 C   0  0  0  0  0  0  0  0  0  0  0  0
    0.2015    0.0537   -0.8680 C   0  0  0  0  0  0  0  0  0  0  0  0
   -0.5557    1.1979   -0.6410 C   0  0  0  0  0  0  0  0  0  0  0  0
   -1.9378    0.8906   -0.6250 C   0  0  0  0  0  0  0  0  0  0  0  0
   -2.3983   -0.4220   -0.8282 C   0  0  0  0  0  0  0  0  0  0  0  0
   -1.9222   -2.5309   -1.2217 H   0  0  0  0  0  0  0  0  0  0  0  0
   -2.6452    1.7008   -0.4569 H   0  0  0  0  0  0  0  0  0  0  0  0
    2.8617    0.1362   -0.6052 N   0  0  0  0  0  0  0  0  0  0  0  0
    3.6334   -0.0031   -1.3839 N   0  0  0  0  0  0  0  0  0  0  0  0
   -4.2890   -0.7470   -0.7923 Br  0  0  0  0  0  0  0  0  0  0  0  0
   -0.0974    2.5981   -0.4459 C   0  0  0  0  0  0  0  0  0  0  0  0
   -0.8342    3.5315   -0.2083 O   0  0  0  0  0  0  0  0  0  0  0  0
    1.2452    2.7271   -0.5645 O   0  0  0  0  0  0  0  0  0  0  0  0
    1.4474    3.6663   -0.4228 H   0  0  0  0  0  0  0  0  0  0  0  0
  1  2  2  0  0  0  0
  1  6  1  0  0  0  0
  2  3  1  0  0  0  0
  3  4  2  0  0  0  0
  4  5  1  0  0  0  0
  4 12  1  0  0  0  0
  5  8  1  0  0  0  0
  6 11  1  0  0  0  0
  6  5  2  0  0  0  0
  7  1  1  0  0  0  0
 10  9  3  0  0  0  0
 12 13  2  0  0  0  0
 14 12  1  0  0  0  0
 14 15  1  0  0  0  0
M  RAD  2   2   2   3   2
M  END
