Coordinates from ORCA-job 2-HOOC-4-Br-C6H2-N2-B3LYPG-aug-cc-pVDZ-scan-d09-49-n400
 OpenBabel11091809123D

 15 14  0  0  0  0  0  0  0  0999 V2000
   -1.5136   -1.5268   -1.0824 C   0  0  0  0  0  0  0  0  0  0  0  0
   -0.1859   -1.1262   -1.0689 C   0  0  0  0  0  0  0  0  0  0  0  0
    0.2362    0.0402   -0.8872 C   0  0  0  0  0  0  0  0  0  0  0  0
   -0.5130    1.1862   -0.6417 C   0  0  0  0  0  0  0  0  0  0  0  0
   -1.8961    0.8822   -0.6145 C   0  0  0  0  0  0  0  0  0  0  0  0
   -2.3641   -0.4259   -0.8268 C   0  0  0  0  0  0  0  0  0  0  0  0
   -1.8996   -2.5296   -1.2526 H   0  0  0  0  0  0  0  0  0  0  0  0
   -2.5981    1.6938   -0.4318 H   0  0  0  0  0  0  0  0  0  0  0  0
    2.6377    0.1897   -0.5949 N   0  0  0  0  0  0  0  0  0  0  0  0
    3.4611   -0.0251   -1.3007 N   0  0  0  0  0  0  0  0  0  0  0  0
   -4.2558   -0.7435   -0.7686 Br  0  0  0  0  0  0  0  0  0  0  0  0
   -0.0667    2.5912   -0.4450 C   0  0  0  0  0  0  0  0  0  0  0  0
   -0.8114    3.5087   -0.1724 O   0  0  0  0  0  0  0  0  0  0  0  0
    1.2679    2.7516   -0.6100 O   0  0  0  0  0  0  0  0  0  0  0  0
    1.4507    3.6946   -0.4662 H   0  0  0  0  0  0  0  0  0  0  0  0
  1  2  2  0  0  0  0
  1  6  1  0  0  0  0
  2  3  1  0  0  0  0
  3  4  2  0  0  0  0
  4  5  1  0  0  0  0
  4 12  1  0  0  0  0
  5  8  1  0  0  0  0
  6 11  1  0  0  0  0
  6  5  2  0  0  0  0
  7  1  1  0  0  0  0
 10  9  3  0  0  0  0
 12 13  2  0  0  0  0
 14 15  1  0  0  0  0
 14 12  1  0  0  0  0
M  RAD  2   2   2   3   2
M  END
