Coordinates from ORCA-job 2-HOOC-4-Br-C6H2-N2-B3LYPG-aug-cc-pVDZ-scan-d09-49-n400
 OpenBabel11091809123D

 15 14  0  0  0  0  0  0  0  0999 V2000
   -1.7228   -1.5173   -1.0404 C   0  0  0  0  0  0  0  0  0  0  0  0
   -0.3976   -1.1132   -1.0422 C   0  0  0  0  0  0  0  0  0  0  0  0
    0.0381    0.0483   -0.8774 C   0  0  0  0  0  0  0  0  0  0  0  0
   -0.7046    1.2007   -0.6512 C   0  0  0  0  0  0  0  0  0  0  0  0
   -2.0901    0.9098   -0.6260 C   0  0  0  0  0  0  0  0  0  0  0  0
   -2.5649   -0.4004   -0.8144 C   0  0  0  0  0  0  0  0  0  0  0  0
   -2.1145   -2.5214   -1.1841 H   0  0  0  0  0  0  0  0  0  0  0  0
   -2.7888    1.7274   -0.4569 H   0  0  0  0  0  0  0  0  0  0  0  0
    3.8551    0.1046   -0.6022 N   0  0  0  0  0  0  0  0  0  0  0  0
    4.5030    0.0418   -1.4947 N   0  0  0  0  0  0  0  0  0  0  0  0
   -4.4582   -0.7060   -0.7651 Br  0  0  0  0  0  0  0  0  0  0  0  0
   -0.2080    2.5864   -0.4535 C   0  0  0  0  0  0  0  0  0  0  0  0
   -0.9190    3.5485   -0.2549 O   0  0  0  0  0  0  0  0  0  0  0  0
    1.1424    2.6603   -0.5202 O   0  0  0  0  0  0  0  0  0  0  0  0
    1.3788    3.5917   -0.3806 H   0  0  0  0  0  0  0  0  0  0  0  0
  1  6  1  0  0  0  0
  2  1  2  0  0  0  0
  2  3  1  0  0  0  0
  3  4  2  0  0  0  0
  4  5  1  0  0  0  0
  4 12  1  0  0  0  0
  5  8  1  0  0  0  0
  6 11  1  0  0  0  0
  6  5  2  0  0  0  0
  7  1  1  0  0  0  0
 10  9  3  0  0  0  0
 12 13  2  0  0  0  0
 14 12  1  0  0  0  0
 14 15  1  0  0  0  0
M  RAD  2   2   2   3   2
M  END
