Coordinates from ORCA-job 2-HOOC-4-Br-C6H2-N2-B3LYPG-aug-cc-pVDZ-scan-d09-49-n400
 OpenBabel11091809123D

 15 15  0  0  0  0  0  0  0  0999 V2000
   -1.3618   -1.4862   -1.0783 C   0  0  0  0  0  0  0  0  0  0  0  0
    0.0466   -1.3825   -1.1307 C   0  0  0  0  0  0  0  0  0  0  0  0
    0.5550    0.0449   -0.8988 C   0  0  0  0  0  0  0  0  0  0  0  0
   -0.3978    1.1456   -0.6617 C   0  0  0  0  0  0  0  0  0  0  0  0
   -1.7443    0.8896   -0.6180 C   0  0  0  0  0  0  0  0  0  0  0  0
   -2.2182   -0.4264   -0.8212 C   0  0  0  0  0  0  0  0  0  0  0  0
   -1.7912   -2.4774   -1.2448 H   0  0  0  0  0  0  0  0  0  0  0  0
   -2.4301    1.7121   -0.4329 H   0  0  0  0  0  0  0  0  0  0  0  0
    1.5493    0.1497   -0.9268 N   0  0  0  0  0  0  0  0  0  0  0  0
    2.6967    0.1943   -0.9716 N   0  0  0  0  0  0  0  0  0  0  0  0
   -4.1053   -0.7037   -0.7371 Br  0  0  0  0  0  0  0  0  0  0  0  0
    0.0196    2.5719   -0.4563 C   0  0  0  0  0  0  0  0  0  0  0  0
   -0.7555    3.4761   -0.2368 O   0  0  0  0  0  0  0  0  0  0  0  0
    1.3569    2.7539   -0.5458 O   0  0  0  0  0  0  0  0  0  0  0  0
    1.5291    3.6992   -0.4029 H   0  0  0  0  0  0  0  0  0  0  0  0
  1  6  1  0  0  0  0
  2  1  2  0  0  0  0
  2  3  1  0  0  0  0
  3  4  2  0  0  0  0
  4  5  1  0  0  0  0
  4 12  1  0  0  0  0
  5  8  1  0  0  0  0
  6 11  1  0  0  0  0
  6  5  2  0  0  0  0
  7  1  1  0  0  0  0
  9  3  1  0  0  0  0
 10  9  1  0  0  0  0
 12 13  2  0  0  0  0
 14 12  1  0  0  0  0
 14 15  1  0  0  0  0
M  RAD  3   2   2   9   2  10   3
M  END
