Coordinates from ORCA-job 2-HOOC-4-Br-C6H2-N2-B3LYPG-aug-cc-pVDZ-scan-d09-49-n400
 OpenBabel11091809123D

 15 15  0  0  0  0  0  0  0  0999 V2000
   -1.3750   -1.4680   -1.1694 C   0  0  0  0  0  0  0  0  0  0  0  0
    0.0365   -1.3419   -1.1628 C   0  0  0  0  0  0  0  0  0  0  0  0
    0.4857    0.0216   -0.8799 C   0  0  0  0  0  0  0  0  0  0  0  0
   -0.4079    1.1486   -0.6392 C   0  0  0  0  0  0  0  0  0  0  0  0
   -1.7568    0.8827   -0.5705 C   0  0  0  0  0  0  0  0  0  0  0  0
   -2.2239   -0.4306   -0.8089 C   0  0  0  0  0  0  0  0  0  0  0  0
   -1.8107   -2.4346   -1.4331 H   0  0  0  0  0  0  0  0  0  0  0  0
   -2.4477    1.6959   -0.3631 H   0  0  0  0  0  0  0  0  0  0  0  0
    1.6497    0.1292   -0.8161 N   0  0  0  0  0  0  0  0  0  0  0  0
    2.7777    0.1670   -0.7624 N   0  0  0  0  0  0  0  0  0  0  0  0
   -4.1080   -0.7344   -0.6457 Br  0  0  0  0  0  0  0  0  0  0  0  0
    0.0134    2.5730   -0.4696 C   0  0  0  0  0  0  0  0  0  0  0  0
   -0.7321    3.4736   -0.1542 O   0  0  0  0  0  0  0  0  0  0  0  0
    1.3353    2.7666   -0.7094 O   0  0  0  0  0  0  0  0  0  0  0  0
    1.5130    3.7125   -0.5796 H   0  0  0  0  0  0  0  0  0  0  0  0
  1  2  2  0  0  0  0
  1  6  1  0  0  0  0
  2  3  1  0  0  0  0
  3  9  1  0  0  0  0
  3  4  2  0  0  0  0
  4  5  1  0  0  0  0
  4 12  1  0  0  0  0
  5  8  1  0  0  0  0
  6 11  1  0  0  0  0
  6  5  2  0  0  0  0
  7  1  1  0  0  0  0
  9 10  1  0  0  0  0
 12 13  2  0  0  0  0
 14 15  1  0  0  0  0
 14 12  1  0  0  0  0
M  RAD  3   2   2   9   2  10   3
M  END
