Coordinates from ORCA-job 2-HOOC-4-Br-C6H2-N2-B3LYPG-aug-cc-pVDZ-scan-d09-49-n400
 OpenBabel11091809123D

 15 14  0  0  0  0  0  0  0  0999 V2000
   -1.7712   -1.5163   -1.0433 C   0  0  0  0  0  0  0  0  0  0  0  0
   -0.4442   -1.1185   -1.0534 C   0  0  0  0  0  0  0  0  0  0  0  0
   -0.0009    0.0401   -0.8888 C   0  0  0  0  0  0  0  0  0  0  0  0
   -0.7362    1.1956   -0.6549 C   0  0  0  0  0  0  0  0  0  0  0  0
   -2.1230    0.9120   -0.6212 C   0  0  0  0  0  0  0  0  0  0  0  0
   -2.6059   -0.3954   -0.8093 C   0  0  0  0  0  0  0  0  0  0  0  0
   -2.1690   -2.5181   -1.1862 H   0  0  0  0  0  0  0  0  0  0  0  0
   -2.8163    1.7329   -0.4456 H   0  0  0  0  0  0  0  0  0  0  0  0
    4.0850    0.1233   -0.5855 N   0  0  0  0  0  0  0  0  0  0  0  0
    4.7037    0.0650   -1.4988 N   0  0  0  0  0  0  0  0  0  0  0  0
   -4.5005   -0.6912   -0.7481 Br  0  0  0  0  0  0  0  0  0  0  0  0
   -0.2292    2.5774   -0.4568 C   0  0  0  0  0  0  0  0  0  0  0  0
   -0.9315    3.5445   -0.2527 O   0  0  0  0  0  0  0  0  0  0  0  0
    1.1216    2.6404   -0.5300 O   0  0  0  0  0  0  0  0  0  0  0  0
    1.3666    3.5694   -0.3894 H   0  0  0  0  0  0  0  0  0  0  0  0
  1  6  1  0  0  0  0
  2  1  2  0  0  0  0
  2  3  1  0  0  0  0
  3  4  2  0  0  0  0
  4  5  1  0  0  0  0
  4 12  1  0  0  0  0
  5  8  1  0  0  0  0
  6 11  1  0  0  0  0
  6  5  2  0  0  0  0
  7  1  1  0  0  0  0
 10  9  3  0  0  0  0
 12 13  2  0  0  0  0
 14 12  1  0  0  0  0
 14 15  1  0  0  0  0
M  RAD  2   2   2   3   2
M  END
