Coordinates from ORCA-job 2-HOOC-4-Br-C6H2-N2-B3LYPG-aug-cc-pVDZ-scan-d09-49-n400
 OpenBabel11091809123D

 15 14  0  0  0  0  0  0  0  0999 V2000
   -1.8220   -1.5133   -1.0480 C   0  0  0  0  0  0  0  0  0  0  0  0
   -0.4940   -1.1197   -1.0684 C   0  0  0  0  0  0  0  0  0  0  0  0
   -0.0420    0.0354   -0.9033 C   0  0  0  0  0  0  0  0  0  0  0  0
   -0.7730    1.1923   -0.6595 C   0  0  0  0  0  0  0  0  0  0  0  0
   -2.1601    0.9147   -0.6148 C   0  0  0  0  0  0  0  0  0  0  0  0
   -2.6501   -0.3902   -0.8031 C   0  0  0  0  0  0  0  0  0  0  0  0
   -2.2244   -2.5132   -1.1912 H   0  0  0  0  0  0  0  0  0  0  0  0
   -2.8485    1.7377   -0.4302 H   0  0  0  0  0  0  0  0  0  0  0  0
    4.3621    0.1286   -0.5553 N   0  0  0  0  0  0  0  0  0  0  0  0
    4.9151    0.0786   -1.5101 N   0  0  0  0  0  0  0  0  0  0  0  0
   -4.5452   -0.6787   -0.7267 Br  0  0  0  0  0  0  0  0  0  0  0  0
   -0.2568    2.5705   -0.4608 C   0  0  0  0  0  0  0  0  0  0  0  0
   -0.9516    3.5417   -0.2503 O   0  0  0  0  0  0  0  0  0  0  0  0
    1.0939    2.6248   -0.5417 O   0  0  0  0  0  0  0  0  0  0  0  0
    1.3458    3.5519   -0.4005 H   0  0  0  0  0  0  0  0  0  0  0  0
  1  6  1  0  0  0  0
  2  1  2  0  0  0  0
  2  3  1  0  0  0  0
  3  4  2  0  0  0  0
  4  5  1  0  0  0  0
  4 12  1  0  0  0  0
  5  8  1  0  0  0  0
  6 11  1  0  0  0  0
  6  5  2  0  0  0  0
  7  1  1  0  0  0  0
 10  9  3  0  0  0  0
 12 13  2  0  0  0  0
 14 12  1  0  0  0  0
 14 15  1  0  0  0  0
M  RAD  2   2   2   3   2
M  END
