Coordinates from ORCA-job 2-HOOC-4-Br-C6H2-N2-B3LYPG-aug-cc-pVDZ-scan-d09-49-n400
 OpenBabel11091809123D

 15 14  0  0  0  0  0  0  0  0999 V2000
   -1.5032   -1.5300   -1.0747 C   0  0  0  0  0  0  0  0  0  0  0  0
   -0.1692   -1.1450   -1.0477 C   0  0  0  0  0  0  0  0  0  0  0  0
    0.2453    0.0259   -0.8676 C   0  0  0  0  0  0  0  0  0  0  0  0
   -0.4952    1.1791   -0.6340 C   0  0  0  0  0  0  0  0  0  0  0  0
   -1.8802    0.8808   -0.6199 C   0  0  0  0  0  0  0  0  0  0  0  0
   -2.3517   -0.4257   -0.8324 C   0  0  0  0  0  0  0  0  0  0  0  0
   -1.8939   -2.5311   -1.2451 H   0  0  0  0  0  0  0  0  0  0  0  0
   -2.5797    1.6968   -0.4483 H   0  0  0  0  0  0  0  0  0  0  0  0
    2.5582    0.2124   -0.6205 N   0  0  0  0  0  0  0  0  0  0  0  0
    3.3923   -0.0170   -1.3095 N   0  0  0  0  0  0  0  0  0  0  0  0
   -4.2458   -0.7335   -0.7914 Br  0  0  0  0  0  0  0  0  0  0  0  0
   -0.0538    2.5865   -0.4394 C   0  0  0  0  0  0  0  0  0  0  0  0
   -0.8035    3.4982   -0.1608 O   0  0  0  0  0  0  0  0  0  0  0  0
    1.2789    2.7594   -0.6083 O   0  0  0  0  0  0  0  0  0  0  0  0
    1.4508    3.7045   -0.4643 H   0  0  0  0  0  0  0  0  0  0  0  0
  1  2  2  0  0  0  0
  1  6  1  0  0  0  0
  2  3  1  0  0  0  0
  3  4  2  0  0  0  0
  4  5  1  0  0  0  0
  4 12  1  0  0  0  0
  5  8  1  0  0  0  0
  6 11  1  0  0  0  0
  6  5  2  0  0  0  0
  7  1  1  0  0  0  0
 10  9  3  0  0  0  0
 12 13  2  0  0  0  0
 14 15  1  0  0  0  0
 14 12  1  0  0  0  0
M  RAD  2   2   2   3   2
M  END
