Coordinates from ORCA-job 2-HOOC-4-Br-C6H2-N2-B3LYPG-aug-cc-pVDZ-scan-d09-49-n400
 OpenBabel11091809123D

 15 15  0  0  0  0  0  0  0  0999 V2000
   -1.3808   -1.4903   -1.0547 C   0  0  0  0  0  0  0  0  0  0  0  0
    0.0275   -1.2962   -1.1051 C   0  0  0  0  0  0  0  0  0  0  0  0
    0.3620    0.0248   -0.9028 C   0  0  0  0  0  0  0  0  0  0  0  0
   -0.4440    1.1709   -0.6629 C   0  0  0  0  0  0  0  0  0  0  0  0
   -1.8063    0.8972   -0.6288 C   0  0  0  0  0  0  0  0  0  0  0  0
   -2.2505   -0.4264   -0.8249 C   0  0  0  0  0  0  0  0  0  0  0  0
   -1.8017   -2.4880   -1.1975 H   0  0  0  0  0  0  0  0  0  0  0  0
   -2.5061    1.7098   -0.4512 H   0  0  0  0  0  0  0  0  0  0  0  0
    1.8331    0.1893   -0.9615 N   0  0  0  0  0  0  0  0  0  0  0  0
    2.9409    0.1244   -1.0363 N   0  0  0  0  0  0  0  0  0  0  0  0
   -4.1475   -0.7375   -0.7657 Br  0  0  0  0  0  0  0  0  0  0  0  0
   -0.0059    2.5783   -0.4524 C   0  0  0  0  0  0  0  0  0  0  0  0
   -0.7505    3.5111   -0.2521 O   0  0  0  0  0  0  0  0  0  0  0  0
    1.3462    2.7260   -0.5075 O   0  0  0  0  0  0  0  0  0  0  0  0
    1.5325    3.6677   -0.3605 H   0  0  0  0  0  0  0  0  0  0  0  0
  1  6  1  0  0  0  0
  2  1  2  0  0  0  0
  2  3  1  0  0  0  0
  3  4  2  0  0  0  0
  4  5  1  0  0  0  0
  4 12  1  0  0  0  0
  5  8  1  0  0  0  0
  6 11  1  0  0  0  0
  6  5  2  0  0  0  0
  7  1  1  0  0  0  0
  9  3  1  0  0  0  0
 10  9  1  0  0  0  0
 12 13  2  0  0  0  0
 14 12  1  0  0  0  0
 14 15  1  0  0  0  0
M  RAD  3   2   2   9   2  10   3
M  END
