Coordinates from ORCA-job 2-HOOC-4-Br-C6H2-N2-B3LYPG-aug-cc-pVDZ-scan-d09-49-n400
 OpenBabel11091809123D

 15 15  0  0  0  0  0  0  0  0999 V2000
   -1.3861   -1.4899   -1.0543 C   0  0  0  0  0  0  0  0  0  0  0  0
    0.0154   -1.2687   -1.0994 C   0  0  0  0  0  0  0  0  0  0  0  0
    0.3273    0.0256   -0.9004 C   0  0  0  0  0  0  0  0  0  0  0  0
   -0.4521    1.1753   -0.6616 C   0  0  0  0  0  0  0  0  0  0  0  0
   -1.8197    0.8961   -0.6282 C   0  0  0  0  0  0  0  0  0  0  0  0
   -2.2608   -0.4255   -0.8242 C   0  0  0  0  0  0  0  0  0  0  0  0
   -1.8001   -2.4902   -1.1979 H   0  0  0  0  0  0  0  0  0  0  0  0
   -2.5200    1.7083   -0.4508 H   0  0  0  0  0  0  0  0  0  0  0  0
    1.9049    0.2289   -0.9588 N   0  0  0  0  0  0  0  0  0  0  0  0
    2.9975    0.0562   -1.0520 N   0  0  0  0  0  0  0  0  0  0  0  0
   -4.1562   -0.7491   -0.7674 Br  0  0  0  0  0  0  0  0  0  0  0  0
   -0.0114    2.5807   -0.4514 C   0  0  0  0  0  0  0  0  0  0  0  0
   -0.7556    3.5142   -0.2515 O   0  0  0  0  0  0  0  0  0  0  0  0
    1.3407    2.7285   -0.5065 O   0  0  0  0  0  0  0  0  0  0  0  0
    1.5255    3.6707   -0.3596 H   0  0  0  0  0  0  0  0  0  0  0  0
  1  6  1  0  0  0  0
  2  1  2  0  0  0  0
  2  3  1  0  0  0  0
  3  4  2  0  0  0  0
  4  5  1  0  0  0  0
  4 12  1  0  0  0  0
  5  8  1  0  0  0  0
  6 11  1  0  0  0  0
  6  5  2  0  0  0  0
  7  1  1  0  0  0  0
  9  3  1  0  0  0  0
 10  9  1  0  0  0  0
 12 13  2  0  0  0  0
 14 12  1  0  0  0  0
 14 15  1  0  0  0  0
M  RAD  3   2   2   9   2  10   3
M  END
