Coordinates from ORCA-job 2-HOOC-4-Br-C6H2-N2-B3LYPG-aug-cc-pVDZ-scan-d09-49-n400
 OpenBabel11091809123D

 15 14  0  0  0  0  0  0  0  0999 V2000
   -1.4976   -1.5305   -1.0727 C   0  0  0  0  0  0  0  0  0  0  0  0
   -0.1616   -1.1508   -1.0409 C   0  0  0  0  0  0  0  0  0  0  0  0
    0.2502    0.0219   -0.8611 C   0  0  0  0  0  0  0  0  0  0  0  0
   -0.4884    1.1768   -0.6308 C   0  0  0  0  0  0  0  0  0  0  0  0
   -1.8737    0.8803   -0.6214 C   0  0  0  0  0  0  0  0  0  0  0  0
   -2.3460   -0.4258   -0.8344 C   0  0  0  0  0  0  0  0  0  0  0  0
   -1.8896   -2.5312   -1.2439 H   0  0  0  0  0  0  0  0  0  0  0  0
   -2.5727    1.6975   -0.4532 H   0  0  0  0  0  0  0  0  0  0  0  0
    2.5232    0.2192   -0.6274 N   0  0  0  0  0  0  0  0  0  0  0  0
    3.3600   -0.0157   -1.3117 N   0  0  0  0  0  0  0  0  0  0  0  0
   -4.2407   -0.7311   -0.7990 Br  0  0  0  0  0  0  0  0  0  0  0  0
   -0.0488    2.5851   -0.4362 C   0  0  0  0  0  0  0  0  0  0  0  0
   -0.8001    3.4951   -0.1566 O   0  0  0  0  0  0  0  0  0  0  0  0
    1.2829    2.7623   -0.6091 O   0  0  0  0  0  0  0  0  0  0  0  0
    1.4521    3.7080   -0.4655 H   0  0  0  0  0  0  0  0  0  0  0  0
  1  2  2  0  0  0  0
  1  6  1  0  0  0  0
  2  3  1  0  0  0  0
  3  4  2  0  0  0  0
  4  5  1  0  0  0  0
  4 12  1  0  0  0  0
  5  8  1  0  0  0  0
  6 11  1  0  0  0  0
  6  5  2  0  0  0  0
  7  1  1  0  0  0  0
 10  9  3  0  0  0  0
 12 13  2  0  0  0  0
 14 15  1  0  0  0  0
 14 12  1  0  0  0  0
M  RAD  2   2   2   3   2
M  END
