Coordinates from ORCA-job 2-HOOC-4-Br-C6H2-N2-B3LYPG-aug-cc-pVDZ-scan-d09-49-n400
 OpenBabel11091809123D

 15 14  0  0  0  0  0  0  0  0999 V2000
   -1.8132   -1.5139   -1.0470 C   0  0  0  0  0  0  0  0  0  0  0  0
   -0.4854   -1.1196   -1.0655 C   0  0  0  0  0  0  0  0  0  0  0  0
   -0.0344    0.0359   -0.9006 C   0  0  0  0  0  0  0  0  0  0  0  0
   -0.7663    1.1925   -0.6587 C   0  0  0  0  0  0  0  0  0  0  0  0
   -2.1534    0.9142   -0.6160 C   0  0  0  0  0  0  0  0  0  0  0  0
   -2.6424   -0.3911   -0.8042 C   0  0  0  0  0  0  0  0  0  0  0  0
   -2.2149   -2.5141   -1.1902 H   0  0  0  0  0  0  0  0  0  0  0  0
   -2.8425    1.7369   -0.4331 H   0  0  0  0  0  0  0  0  0  0  0  0
    4.3100    0.1293   -0.5612 N   0  0  0  0  0  0  0  0  0  0  0  0
    4.8773    0.0781   -1.5076 N   0  0  0  0  0  0  0  0  0  0  0  0
   -4.5374   -0.6806   -0.7307 Br  0  0  0  0  0  0  0  0  0  0  0  0
   -0.2513    2.5712   -0.4602 C   0  0  0  0  0  0  0  0  0  0  0  0
   -0.9470    3.5421   -0.2510 O   0  0  0  0  0  0  0  0  0  0  0  0
    1.0995    2.6265   -0.5395 O   0  0  0  0  0  0  0  0  0  0  0  0
    1.3505    3.5538   -0.3985 H   0  0  0  0  0  0  0  0  0  0  0  0
  1  6  1  0  0  0  0
  2  1  2  0  0  0  0
  2  3  1  0  0  0  0
  3  4  2  0  0  0  0
  4  5  1  0  0  0  0
  4 12  1  0  0  0  0
  5  8  1  0  0  0  0
  6 11  1  0  0  0  0
  6  5  2  0  0  0  0
  7  1  1  0  0  0  0
 10  9  3  0  0  0  0
 12 13  2  0  0  0  0
 14 12  1  0  0  0  0
 14 15  1  0  0  0  0
M  RAD  2   2   2   3   2
M  END
