Coordinates from ORCA-job 2-HOOC-4-Br-C6H2-N2-B3LYPG-aug-cc-pVDZ-scan-d09-49-n400
 OpenBabel11091809123D

 15 14  0  0  0  0  0  0  0  0999 V2000
   -1.4889   -1.5309   -1.0700 C   0  0  0  0  0  0  0  0  0  0  0  0
   -0.1499   -1.1591   -1.0313 C   0  0  0  0  0  0  0  0  0  0  0  0
    0.2579    0.0168   -0.8524 C   0  0  0  0  0  0  0  0  0  0  0  0
   -0.4788    1.1738   -0.6267 C   0  0  0  0  0  0  0  0  0  0  0  0
   -1.8645    0.8796   -0.6236 C   0  0  0  0  0  0  0  0  0  0  0  0
   -2.3374   -0.4259   -0.8373 C   0  0  0  0  0  0  0  0  0  0  0  0
   -1.8825   -2.5310   -1.2420 H   0  0  0  0  0  0  0  0  0  0  0  0
   -2.5626    1.6984   -0.4603 H   0  0  0  0  0  0  0  0  0  0  0  0
    2.4707    0.2283   -0.6372 N   0  0  0  0  0  0  0  0  0  0  0  0
    3.3119   -0.0139   -1.3141 N   0  0  0  0  0  0  0  0  0  0  0  0
   -4.2330   -0.7280   -0.8093 Br  0  0  0  0  0  0  0  0  0  0  0  0
   -0.0418    2.5832   -0.4321 C   0  0  0  0  0  0  0  0  0  0  0  0
   -0.7949    3.4908   -0.1497 O   0  0  0  0  0  0  0  0  0  0  0  0
    1.2885    2.7663   -0.6110 O   0  0  0  0  0  0  0  0  0  0  0  0
    1.4544    3.7125   -0.4670 H   0  0  0  0  0  0  0  0  0  0  0  0
  1  2  2  0  0  0  0
  1  6  1  0  0  0  0
  2  3  1  0  0  0  0
  3  4  2  0  0  0  0
  4  5  1  0  0  0  0
  4 12  1  0  0  0  0
  5  8  1  0  0  0  0
  6 11  1  0  0  0  0
  6  5  2  0  0  0  0
  7  1  1  0  0  0  0
 10  9  3  0  0  0  0
 12 13  2  0  0  0  0
 14 15  1  0  0  0  0
 14 12  1  0  0  0  0
M  RAD  2   2   2   3   2
M  END
