Coordinates from ORCA-job 2-HOOC-4-Br-C6H2-N2-B3LYPG-aug-cc-pVDZ-scan-d09-49-n400
 OpenBabel11091809123D

 15 14  0  0  0  0  0  0  0  0999 V2000
   -1.4948   -1.5307   -1.0718 C   0  0  0  0  0  0  0  0  0  0  0  0
   -0.1577   -1.1536   -1.0376 C   0  0  0  0  0  0  0  0  0  0  0  0
    0.2527    0.0201   -0.8580 C   0  0  0  0  0  0  0  0  0  0  0  0
   -0.4852    1.1758   -0.6294 C   0  0  0  0  0  0  0  0  0  0  0  0
   -1.8706    0.8800   -0.6222 C   0  0  0  0  0  0  0  0  0  0  0  0
   -2.3431   -0.4258   -0.8354 C   0  0  0  0  0  0  0  0  0  0  0  0
   -1.8873   -2.5312   -1.2432 H   0  0  0  0  0  0  0  0  0  0  0  0
   -2.5692    1.6978   -0.4556 H   0  0  0  0  0  0  0  0  0  0  0  0
    2.5057    0.2224   -0.6308 N   0  0  0  0  0  0  0  0  0  0  0  0
    3.3439   -0.0150   -1.3126 N   0  0  0  0  0  0  0  0  0  0  0  0
   -4.2382   -0.7299   -0.8026 Br  0  0  0  0  0  0  0  0  0  0  0  0
   -0.0464    2.5844   -0.4348 C   0  0  0  0  0  0  0  0  0  0  0  0
   -0.7984    3.4936   -0.1544 O   0  0  0  0  0  0  0  0  0  0  0  0
    1.2848    2.7637   -0.6097 O   0  0  0  0  0  0  0  0  0  0  0  0
    1.4528    3.7096   -0.4660 H   0  0  0  0  0  0  0  0  0  0  0  0
  1  2  2  0  0  0  0
  1  6  1  0  0  0  0
  2  3  1  0  0  0  0
  3  4  2  0  0  0  0
  4  5  1  0  0  0  0
  4 12  1  0  0  0  0
  5  8  1  0  0  0  0
  6 11  1  0  0  0  0
  6  5  2  0  0  0  0
  7  1  1  0  0  0  0
 10  9  3  0  0  0  0
 12 13  2  0  0  0  0
 14 15  1  0  0  0  0
 14 12  1  0  0  0  0
M  RAD  2   2   2   3   2
M  END
