Coordinates from ORCA-job 2-HOOC-4-Br-C6H2-N2-B3LYPG-aug-cc-pVDZ-scan-d09-49-n400
 OpenBabel11091809123D

 15 15  0  0  0  0  0  0  0  0999 V2000
   -1.3860   -1.4907   -1.0541 C   0  0  0  0  0  0  0  0  0  0  0  0
    0.0137   -1.2632   -1.0982 C   0  0  0  0  0  0  0  0  0  0  0  0
    0.3245    0.0261   -0.9003 C   0  0  0  0  0  0  0  0  0  0  0  0
   -0.4514    1.1765   -0.6619 C   0  0  0  0  0  0  0  0  0  0  0  0
   -1.8199    0.8957   -0.6286 C   0  0  0  0  0  0  0  0  0  0  0  0
   -2.2609   -0.4256   -0.8242 C   0  0  0  0  0  0  0  0  0  0  0  0
   -1.7988   -2.4914   -1.1976 H   0  0  0  0  0  0  0  0  0  0  0  0
   -2.5205    1.7078   -0.4513 H   0  0  0  0  0  0  0  0  0  0  0  0
    1.9113    0.2361   -0.9584 N   0  0  0  0  0  0  0  0  0  0  0  0
    2.9994    0.0380   -1.0555 N   0  0  0  0  0  0  0  0  0  0  0  0
   -4.1560   -0.7507   -0.7674 Br  0  0  0  0  0  0  0  0  0  0  0  0
   -0.0119    2.5822   -0.4521 C   0  0  0  0  0  0  0  0  0  0  0  0
   -0.7574    3.5144   -0.2512 O   0  0  0  0  0  0  0  0  0  0  0  0
    1.3399    2.7318   -0.5054 O   0  0  0  0  0  0  0  0  0  0  0  0
    1.5230    3.6742   -0.3576 H   0  0  0  0  0  0  0  0  0  0  0  0
  1  6  1  0  0  0  0
  2  1  2  0  0  0  0
  2  3  1  0  0  0  0
  3  4  2  0  0  0  0
  4  5  1  0  0  0  0
  4 12  1  0  0  0  0
  5  8  1  0  0  0  0
  6 11  1  0  0  0  0
  6  5  2  0  0  0  0
  7  1  1  0  0  0  0
  9  3  1  0  0  0  0
 10  9  1  0  0  0  0
 12 13  2  0  0  0  0
 14 12  1  0  0  0  0
 14 15  1  0  0  0  0
M  RAD  3   2   2   9   2  10   3
M  END
