Coordinates from ORCA-job 2-HOOC-4-Br-C6H2-N2-B3LYPG-aug-cc-pVDZ-scan-d09-49-n400
 OpenBabel11091809123D

 15 15  0  0  0  0  0  0  0  0999 V2000
   -1.3688   -1.4756   -1.1329 C   0  0  0  0  0  0  0  0  0  0  0  0
    0.0425   -1.3625   -1.1507 C   0  0  0  0  0  0  0  0  0  0  0  0
    0.5219    0.0308   -0.8914 C   0  0  0  0  0  0  0  0  0  0  0  0
   -0.4017    1.1459   -0.6524 C   0  0  0  0  0  0  0  0  0  0  0  0
   -1.7488    0.8858   -0.5904 C   0  0  0  0  0  0  0  0  0  0  0  0
   -2.2202   -0.4286   -0.8142 C   0  0  0  0  0  0  0  0  0  0  0  0
   -1.8023   -2.4538   -1.3550 H   0  0  0  0  0  0  0  0  0  0  0  0
   -2.4362    1.7035   -0.3899 H   0  0  0  0  0  0  0  0  0  0  0  0
    1.5967    0.1371   -0.8624 N   0  0  0  0  0  0  0  0  0  0  0  0
    2.7350    0.1774   -0.8425 N   0  0  0  0  0  0  0  0  0  0  0  0
   -4.1058   -0.7188   -0.6807 Br  0  0  0  0  0  0  0  0  0  0  0  0
    0.0164    2.5727   -0.4669 C   0  0  0  0  0  0  0  0  0  0  0  0
   -0.7448    3.4714   -0.1852 O   0  0  0  0  0  0  0  0  0  0  0  0
    1.3458    2.7650   -0.6437 O   0  0  0  0  0  0  0  0  0  0  0  0
    1.5193    3.7107   -0.5056 H   0  0  0  0  0  0  0  0  0  0  0  0
  1  6  1  0  0  0  0
  2  1  2  0  0  0  0
  2  3  1  0  0  0  0
  3  9  1  0  0  0  0
  3  4  2  0  0  0  0
  4  5  1  0  0  0  0
  4 12  1  0  0  0  0
  5  8  1  0  0  0  0
  6 11  1  0  0  0  0
  6  5  2  0  0  0  0
  7  1  1  0  0  0  0
  9 10  1  0  0  0  0
 12 13  2  0  0  0  0
 14 15  1  0  0  0  0
 14 12  1  0  0  0  0
M  RAD  3   2   2   9   2  10   3
M  END
