Coordinates from ORCA-job 2-HOOC-4-Br-C6H2-N2-B3LYPG-aug-cc-pVDZ-scan-d09-49-n400
 OpenBabel11091809123D

 15 14  0  0  0  0  0  0  0  0999 V2000
   -1.5171   -1.5256   -1.0815 C   0  0  0  0  0  0  0  0  0  0  0  0
   -0.1895   -1.1235   -1.0668 C   0  0  0  0  0  0  0  0  0  0  0  0
    0.2301    0.0446   -0.8866 C   0  0  0  0  0  0  0  0  0  0  0  0
   -0.5204    1.1899   -0.6416 C   0  0  0  0  0  0  0  0  0  0  0  0
   -1.9029    0.8834   -0.6139 C   0  0  0  0  0  0  0  0  0  0  0  0
   -2.3687   -0.4256   -0.8262 C   0  0  0  0  0  0  0  0  0  0  0  0
   -1.9022   -2.5285   -1.2523 H   0  0  0  0  0  0  0  0  0  0  0  0
   -2.6065    1.6937   -0.4316 H   0  0  0  0  0  0  0  0  0  0  0  0
    2.6727    0.1785   -0.5916 N   0  0  0  0  0  0  0  0  0  0  0  0
    3.4886   -0.0265   -1.3085 N   0  0  0  0  0  0  0  0  0  0  0  0
   -4.2600   -0.7461   -0.7697 Br  0  0  0  0  0  0  0  0  0  0  0  0
   -0.0728    2.5942   -0.4461 C   0  0  0  0  0  0  0  0  0  0  0  0
   -0.8151    3.5137   -0.1739 O   0  0  0  0  0  0  0  0  0  0  0  0
    1.2623    2.7484   -0.6087 O   0  0  0  0  0  0  0  0  0  0  0  0
    1.4507    3.6902   -0.4647 H   0  0  0  0  0  0  0  0  0  0  0  0
  1  2  2  0  0  0  0
  1  6  1  0  0  0  0
  2  3  1  0  0  0  0
  3  4  2  0  0  0  0
  4  5  1  0  0  0  0
  4 12  1  0  0  0  0
  5  8  1  0  0  0  0
  6 11  1  0  0  0  0
  6  5  2  0  0  0  0
  7  1  1  0  0  0  0
 10  9  3  0  0  0  0
 12 13  2  0  0  0  0
 14 15  1  0  0  0  0
 14 12  1  0  0  0  0
M  RAD  2   2   2   3   2
M  END
