Coordinates from ORCA-job 2-HOOC-4-Br-C6H2-N2-B3LYPG-aug-cc-pVDZ-scan-d09-49-n400
 OpenBabel11091809123D

 15 14  0  0  0  0  0  0  0  0999 V2000
   -1.6032   -1.5182   -1.0352 C   0  0  0  0  0  0  0  0  0  0  0  0
   -0.2846   -1.0943   -1.0160 C   0  0  0  0  0  0  0  0  0  0  0  0
    0.1340    0.0731   -0.8498 C   0  0  0  0  0  0  0  0  0  0  0  0
   -0.6302    1.2153   -0.6417 C   0  0  0  0  0  0  0  0  0  0  0  0
   -2.0116    0.9046   -0.6371 C   0  0  0  0  0  0  0  0  0  0  0  0
   -2.4648   -0.4129   -0.8273 C   0  0  0  0  0  0  0  0  0  0  0  0
   -1.9777   -2.5285   -1.1814 H   0  0  0  0  0  0  0  0  0  0  0  0
   -2.7244    1.7130   -0.4832 H   0  0  0  0  0  0  0  0  0  0  0  0
    3.3221    0.0545   -0.6301 N   0  0  0  0  0  0  0  0  0  0  0  0
    4.0057   -0.0316   -1.4936 N   0  0  0  0  0  0  0  0  0  0  0  0
   -4.3543   -0.7453   -0.8064 Br  0  0  0  0  0  0  0  0  0  0  0  0
   -0.1612    2.6110   -0.4445 C   0  0  0  0  0  0  0  0  0  0  0  0
   -0.8920    3.5600   -0.2554 O   0  0  0  0  0  0  0  0  0  0  0  0
    1.1881    2.7119   -0.5004 O   0  0  0  0  0  0  0  0  0  0  0  0
    1.4035    3.6485   -0.3618 H   0  0  0  0  0  0  0  0  0  0  0  0
  1  2  2  0  0  0  0
  1  6  1  0  0  0  0
  2  3  1  0  0  0  0
  3  4  2  0  0  0  0
  4  5  1  0  0  0  0
  4 12  1  0  0  0  0
  5  8  1  0  0  0  0
  6 11  1  0  0  0  0
  6  5  2  0  0  0  0
  7  1  1  0  0  0  0
 10  9  3  0  0  0  0
 12 13  2  0  0  0  0
 14 12  1  0  0  0  0
 14 15  1  0  0  0  0
M  RAD  2   2   2   3   2
M  END
