Coordinates from ORCA-job 2-HOOC-4-Br-C6H2-N2-B3LYPG-aug-cc-pVDZ-scan-d09-49-n400
 OpenBabel11091809123D

 15 15  0  0  0  0  0  0  0  0999 V2000
   -1.3793   -1.4913   -1.0553 C   0  0  0  0  0  0  0  0  0  0  0  0
    0.0308   -1.3074   -1.1076 C   0  0  0  0  0  0  0  0  0  0  0  0
    0.3805    0.0243   -0.9041 C   0  0  0  0  0  0  0  0  0  0  0  0
   -0.4388    1.1684   -0.6637 C   0  0  0  0  0  0  0  0  0  0  0  0
   -1.7988    0.8972   -0.6291 C   0  0  0  0  0  0  0  0  0  0  0  0
   -2.2459   -0.4269   -0.8252 C   0  0  0  0  0  0  0  0  0  0  0  0
   -1.8030   -2.4879   -1.1981 H   0  0  0  0  0  0  0  0  0  0  0  0
   -2.4980    1.7101   -0.4512 H   0  0  0  0  0  0  0  0  0  0  0  0
    1.8027    0.1749   -0.9619 N   0  0  0  0  0  0  0  0  0  0  0  0
    2.9142    0.1477   -1.0295 N   0  0  0  0  0  0  0  0  0  0  0  0
   -4.1434   -0.7312   -0.7643 Br  0  0  0  0  0  0  0  0  0  0  0  0
   -0.0033    2.5775   -0.4529 C   0  0  0  0  0  0  0  0  0  0  0  0
   -0.7501    3.5085   -0.2520 O   0  0  0  0  0  0  0  0  0  0  0  0
    1.3482    2.7277   -0.5081 O   0  0  0  0  0  0  0  0  0  0  0  0
    1.5333    3.6696   -0.3609 H   0  0  0  0  0  0  0  0  0  0  0  0
  1  6  1  0  0  0  0
  2  1  2  0  0  0  0
  2  3  1  0  0  0  0
  3  4  2  0  0  0  0
  4  5  1  0  0  0  0
  4 12  1  0  0  0  0
  5  8  1  0  0  0  0
  6 11  1  0  0  0  0
  6  5  2  0  0  0  0
  7  1  1  0  0  0  0
  9  3  1  0  0  0  0
 10  9  1  0  0  0  0
 12 13  2  0  0  0  0
 14 12  1  0  0  0  0
 14 15  1  0  0  0  0
M  RAD  3   2   2   9   2  10   3
M  END
