Coordinates from ORCA-job 2-HOOC-4-Br-C6H2-N2-B3LYPG-aug-cc-pVDZ-scan-d09-49-n400
 OpenBabel11091809123D

 15 14  0  0  0  0  0  0  0  0999 V2000
   -1.6015   -1.5184   -1.0351 C   0  0  0  0  0  0  0  0  0  0  0  0
   -0.2832   -1.0939   -1.0156 C   0  0  0  0  0  0  0  0  0  0  0  0
    0.1356    0.0734   -0.8494 C   0  0  0  0  0  0  0  0  0  0  0  0
   -0.6290    1.2154   -0.6417 C   0  0  0  0  0  0  0  0  0  0  0  0
   -2.0104    0.9045   -0.6374 C   0  0  0  0  0  0  0  0  0  0  0  0
   -2.4634   -0.4132   -0.8275 C   0  0  0  0  0  0  0  0  0  0  0  0
   -1.9757   -2.5288   -1.1812 H   0  0  0  0  0  0  0  0  0  0  0  0
   -2.7234    1.7127   -0.4837 H   0  0  0  0  0  0  0  0  0  0  0  0
    3.3137    0.0543   -0.6305 N   0  0  0  0  0  0  0  0  0  0  0  0
    3.9978   -0.0322   -1.4935 N   0  0  0  0  0  0  0  0  0  0  0  0
   -4.3528   -0.7457   -0.8070 Br  0  0  0  0  0  0  0  0  0  0  0  0
   -0.1604    2.6112   -0.4443 C   0  0  0  0  0  0  0  0  0  0  0  0
   -0.8914    3.5601   -0.2553 O   0  0  0  0  0  0  0  0  0  0  0  0
    1.1889    2.7125   -0.5002 O   0  0  0  0  0  0  0  0  0  0  0  0
    1.4041    3.6492   -0.3615 H   0  0  0  0  0  0  0  0  0  0  0  0
  1  2  2  0  0  0  0
  1  6  1  0  0  0  0
  2  3  1  0  0  0  0
  3  4  2  0  0  0  0
  4  5  1  0  0  0  0
  4 12  1  0  0  0  0
  5  8  1  0  0  0  0
  6 11  1  0  0  0  0
  6  5  2  0  0  0  0
  7  1  1  0  0  0  0
 10  9  3  0  0  0  0
 12 13  2  0  0  0  0
 14 12  1  0  0  0  0
 14 15  1  0  0  0  0
M  RAD  2   2   2   3   2
M  END
