Coordinates from ORCA-job 2-HOOC-4-Br-C6H2-N2-B3LYPG-aug-cc-pVDZ-scan-d09-49-n400
 OpenBabel11091809123D

 15 14  0  0  0  0  0  0  0  0999 V2000
   -1.6162   -1.5178   -1.0357 C   0  0  0  0  0  0  0  0  0  0  0  0
   -0.2962   -1.0971   -1.0188 C   0  0  0  0  0  0  0  0  0  0  0  0
    0.1225    0.0705   -0.8527 C   0  0  0  0  0  0  0  0  0  0  0  0
   -0.6387    1.2140   -0.6426 C   0  0  0  0  0  0  0  0  0  0  0  0
   -2.0206    0.9053   -0.6357 C   0  0  0  0  0  0  0  0  0  0  0  0
   -2.4758   -0.4115   -0.8258 C   0  0  0  0  0  0  0  0  0  0  0  0
   -1.9927   -2.5274   -1.1819 H   0  0  0  0  0  0  0  0  0  0  0  0
   -2.7318    1.7147   -0.4802 H   0  0  0  0  0  0  0  0  0  0  0  0
    3.3806    0.0592   -0.6275 N   0  0  0  0  0  0  0  0  0  0  0  0
    4.0613   -0.0236   -1.4936 N   0  0  0  0  0  0  0  0  0  0  0  0
   -4.3656   -0.7413   -0.8020 Br  0  0  0  0  0  0  0  0  0  0  0  0
   -0.1665    2.6085   -0.4455 C   0  0  0  0  0  0  0  0  0  0  0  0
   -0.8950    3.5590   -0.2555 O   0  0  0  0  0  0  0  0  0  0  0  0
    1.1830    2.7062   -0.5026 O   0  0  0  0  0  0  0  0  0  0  0  0
    1.4007    3.6423   -0.3640 H   0  0  0  0  0  0  0  0  0  0  0  0
  1  2  2  0  0  0  0
  1  6  1  0  0  0  0
  2  3  1  0  0  0  0
  3  4  2  0  0  0  0
  4  5  1  0  0  0  0
  4 12  1  0  0  0  0
  5  8  1  0  0  0  0
  6 11  1  0  0  0  0
  6  5  2  0  0  0  0
  7  1  1  0  0  0  0
 10  9  3  0  0  0  0
 12 13  2  0  0  0  0
 14 12  1  0  0  0  0
 14 15  1  0  0  0  0
M  RAD  2   2   2   3   2
M  END
