Coordinates from ORCA-job 2-HOOC-4-Br-C6H2-N2-B3LYPG-aug-cc-pVDZ-scan-d09-49-n400
 OpenBabel11091809123D

 15 14  0  0  0  0  0  0  0  0999 V2000
   -1.8663   -1.5104   -1.0525 C   0  0  0  0  0  0  0  0  0  0  0  0
   -0.5378   -1.1196   -1.0818 C   0  0  0  0  0  0  0  0  0  0  0  0
   -0.0804    0.0333   -0.9163 C   0  0  0  0  0  0  0  0  0  0  0  0
   -0.8069    1.1912   -0.6632 C   0  0  0  0  0  0  0  0  0  0  0  0
   -2.1944    0.9172   -0.6092 C   0  0  0  0  0  0  0  0  0  0  0  0
   -2.6894   -0.3857   -0.7981 C   0  0  0  0  0  0  0  0  0  0  0  0
   -2.2723   -2.5088   -1.1956 H   0  0  0  0  0  0  0  0  0  0  0  0
   -2.8791    1.7415   -0.4169 H   0  0  0  0  0  0  0  0  0  0  0  0
    4.6320    0.1251   -0.5248 N   0  0  0  0  0  0  0  0  0  0  0  0
    5.0998    0.0812   -1.5244 N   0  0  0  0  0  0  0  0  0  0  0  0
   -4.5847   -0.6692   -0.7084 Br  0  0  0  0  0  0  0  0  0  0  0  0
   -0.2848    2.5670   -0.4637 C   0  0  0  0  0  0  0  0  0  0  0  0
   -0.9746    3.5402   -0.2461 O   0  0  0  0  0  0  0  0  0  0  0  0
    1.0657    2.6162   -0.5524 O   0  0  0  0  0  0  0  0  0  0  0  0
    1.3223    3.5418   -0.4103 H   0  0  0  0  0  0  0  0  0  0  0  0
  1  6  1  0  0  0  0
  2  1  2  0  0  0  0
  2  3  1  0  0  0  0
  3  4  2  0  0  0  0
  4  5  1  0  0  0  0
  4 12  1  0  0  0  0
  5  8  1  0  0  0  0
  6 11  1  0  0  0  0
  6  5  2  0  0  0  0
  7  1  1  0  0  0  0
 10  9  3  0  0  0  0
 12 13  2  0  0  0  0
 14 12  1  0  0  0  0
 14 15  1  0  0  0  0
M  RAD  2   2   2   3   2
M  END
