Coordinates from ORCA-job 2-HOOC-4-Br-C6H2-N2-B3LYPG-aug-cc-pVDZ-scan-d09-49-n400
 OpenBabel11091809123D

 15 14  0  0  0  0  0  0  0  0999 V2000
   -1.5819   -1.5242   -1.0320 C   0  0  0  0  0  0  0  0  0  0  0  0
   -0.2623   -1.1041   -1.0016 C   0  0  0  0  0  0  0  0  0  0  0  0
    0.1603    0.0621   -0.8372 C   0  0  0  0  0  0  0  0  0  0  0  0
   -0.6033    1.2070   -0.6374 C   0  0  0  0  0  0  0  0  0  0  0  0
   -1.9853    0.9002   -0.6419 C   0  0  0  0  0  0  0  0  0  0  0  0
   -2.4416   -0.4163   -0.8328 C   0  0  0  0  0  0  0  0  0  0  0  0
   -1.9578   -2.5338   -1.1794 H   0  0  0  0  0  0  0  0  0  0  0  0
   -2.6966    1.7112   -0.4953 H   0  0  0  0  0  0  0  0  0  0  0  0
    3.1583    0.0935   -0.6308 N   0  0  0  0  0  0  0  0  0  0  0  0
    3.8485    0.0039   -1.4887 N   0  0  0  0  0  0  0  0  0  0  0  0
   -4.3323   -0.7422   -0.8250 Br  0  0  0  0  0  0  0  0  0  0  0  0
   -0.1345    2.6031   -0.4417 C   0  0  0  0  0  0  0  0  0  0  0  0
   -0.8653    3.5512   -0.2486 O   0  0  0  0  0  0  0  0  0  0  0  0
    1.2143    2.7063   -0.5048 O   0  0  0  0  0  0  0  0  0  0  0  0
    1.4287    3.6432   -0.3666 H   0  0  0  0  0  0  0  0  0  0  0  0
  1  2  2  0  0  0  0
  1  6  1  0  0  0  0
  2  3  1  0  0  0  0
  3  4  2  0  0  0  0
  4 12  1  0  0  0  0
  5  4  1  0  0  0  0
  5  8  1  0  0  0  0
  6 11  1  0  0  0  0
  6  5  2  0  0  0  0
  7  1  1  0  0  0  0
 10  9  3  0  0  0  0
 12 13  2  0  0  0  0
 14 12  1  0  0  0  0
 14 15  1  0  0  0  0
M  RAD  2   2   2   3   2
M  END
