Coordinates from ORCA-job 2-HOOC-4-Br-C6H2-N2-B3LYPG-aug-cc-pVDZ-scan-d09-49-n400
 OpenBabel11091809123D

 15 15  0  0  0  0  0  0  0  0999 V2000
   -1.3706   -1.4713   -1.1500 C   0  0  0  0  0  0  0  0  0  0  0  0
    0.0407   -1.3571   -1.1555 C   0  0  0  0  0  0  0  0  0  0  0  0
    0.5147    0.0270   -0.8787 C   0  0  0  0  0  0  0  0  0  0  0  0
   -0.4029    1.1451   -0.6435 C   0  0  0  0  0  0  0  0  0  0  0  0
   -1.7503    0.8840   -0.5796 C   0  0  0  0  0  0  0  0  0  0  0  0
   -2.2211   -0.4292   -0.8116 C   0  0  0  0  0  0  0  0  0  0  0  0
   -1.8048   -2.4444   -1.3923 H   0  0  0  0  0  0  0  0  0  0  0  0
   -2.4384    1.7006   -0.3766 H   0  0  0  0  0  0  0  0  0  0  0  0
    1.6093    0.1340   -0.8409 N   0  0  0  0  0  0  0  0  0  0  0  0
    2.7452    0.1743   -0.8123 N   0  0  0  0  0  0  0  0  0  0  0  0
   -4.1058   -0.7239   -0.6682 Br  0  0  0  0  0  0  0  0  0  0  0  0
    0.0162    2.5719   -0.4659 C   0  0  0  0  0  0  0  0  0  0  0  0
   -0.7406    3.4713   -0.1749 O   0  0  0  0  0  0  0  0  0  0  0  0
    1.3416    2.7661   -0.6724 O   0  0  0  0  0  0  0  0  0  0  0  0
    1.5160    3.7126   -0.5415 H   0  0  0  0  0  0  0  0  0  0  0  0
  1  6  1  0  0  0  0
  2  1  2  0  0  0  0
  2  3  1  0  0  0  0
  3  9  1  0  0  0  0
  3  4  2  0  0  0  0
  4  5  1  0  0  0  0
  4 12  1  0  0  0  0
  5  8  1  0  0  0  0
  6 11  1  0  0  0  0
  6  5  2  0  0  0  0
  7  1  1  0  0  0  0
  9 10  1  0  0  0  0
 12 13  2  0  0  0  0
 14 15  1  0  0  0  0
 14 12  1  0  0  0  0
M  RAD  3   2   2   9   2  10   3
M  END
