Coordinates from ORCA-job 2-HOOC-4-Br-C6H2-N2-B3LYPG-aug-cc-pVDZ-scan-d09-49-n400
 OpenBabel11091809123D

 15 15  0  0  0  0  0  0  0  0999 V2000
   -1.3608   -1.4877   -1.0698 C   0  0  0  0  0  0  0  0  0  0  0  0
    0.0463   -1.3879   -1.1291 C   0  0  0  0  0  0  0  0  0  0  0  0
    0.5648    0.0521   -0.9067 C   0  0  0  0  0  0  0  0  0  0  0  0
   -0.3973    1.1465   -0.6665 C   0  0  0  0  0  0  0  0  0  0  0  0
   -1.7436    0.8902   -0.6237 C   0  0  0  0  0  0  0  0  0  0  0  0
   -2.2182   -0.4257   -0.8223 C   0  0  0  0  0  0  0  0  0  0  0  0
   -1.7895   -2.4810   -1.2262 H   0  0  0  0  0  0  0  0  0  0  0  0
   -2.4289    1.7134   -0.4396 H   0  0  0  0  0  0  0  0  0  0  0  0
    1.5394    0.1519   -0.9371 N   0  0  0  0  0  0  0  0  0  0  0  0
    2.6911    0.1931   -0.9847 N   0  0  0  0  0  0  0  0  0  0  0  0
   -4.1045   -0.7025   -0.7425 Br  0  0  0  0  0  0  0  0  0  0  0  0
    0.0196    2.5727   -0.4573 C   0  0  0  0  0  0  0  0  0  0  0  0
   -0.7571    3.4763   -0.2412 O   0  0  0  0  0  0  0  0  0  0  0  0
    1.3575    2.7525   -0.5322 O   0  0  0  0  0  0  0  0  0  0  0  0
    1.5303    3.6971   -0.3851 H   0  0  0  0  0  0  0  0  0  0  0  0
  1  6  1  0  0  0  0
  2  1  2  0  0  0  0
  2  3  1  0  0  0  0
  3  4  2  0  0  0  0
  4  5  1  0  0  0  0
  4 12  1  0  0  0  0
  5  8  1  0  0  0  0
  6 11  1  0  0  0  0
  6  5  2  0  0  0  0
  7  1  1  0  0  0  0
  9  3  1  0  0  0  0
 10  9  1  0  0  0  0
 12 13  2  0  0  0  0
 14 12  1  0  0  0  0
 14 15  1  0  0  0  0
M  RAD  3   2   2   9   2  10   3
M  END
