Coordinates from ORCA-job 2-HOOC-4-Br-C6H2-N2-B3LYPG-aug-cc-pVDZ-scan-d09-49-n400
 OpenBabel11091809123D

 15 14  0  0  0  0  0  0  0  0999 V2000
   -1.5433   -1.5248   -1.0598 C   0  0  0  0  0  0  0  0  0  0  0  0
   -0.2197   -1.1130   -1.0387 C   0  0  0  0  0  0  0  0  0  0  0  0
    0.2002    0.0540   -0.8673 C   0  0  0  0  0  0  0  0  0  0  0  0
   -0.5572    1.1982   -0.6409 C   0  0  0  0  0  0  0  0  0  0  0  0
   -1.9393    0.8909   -0.6254 C   0  0  0  0  0  0  0  0  0  0  0  0
   -2.3996   -0.4219   -0.8283 C   0  0  0  0  0  0  0  0  0  0  0  0
   -1.9234   -2.5311   -1.2205 H   0  0  0  0  0  0  0  0  0  0  0  0
   -2.6468    1.7010   -0.4578 H   0  0  0  0  0  0  0  0  0  0  0  0
    2.8706    0.1355   -0.6056 N   0  0  0  0  0  0  0  0  0  0  0  0
    3.6396   -0.0030   -1.3871 N   0  0  0  0  0  0  0  0  0  0  0  0
   -4.2902   -0.7469   -0.7931 Br  0  0  0  0  0  0  0  0  0  0  0  0
   -0.0984    2.5982   -0.4458 C   0  0  0  0  0  0  0  0  0  0  0  0
   -0.8350    3.5322   -0.2101 O   0  0  0  0  0  0  0  0  0  0  0  0
    1.2445    2.7263   -0.5624 O   0  0  0  0  0  0  0  0  0  0  0  0
    1.4470    3.6655   -0.4210 H   0  0  0  0  0  0  0  0  0  0  0  0
  1  2  2  0  0  0  0
  1  6  1  0  0  0  0
  2  3  1  0  0  0  0
  3  4  2  0  0  0  0
  4  5  1  0  0  0  0
  4 12  1  0  0  0  0
  5  8  1  0  0  0  0
  6 11  1  0  0  0  0
  6  5  2  0  0  0  0
  7  1  1  0  0  0  0
 10  9  3  0  0  0  0
 12 13  2  0  0  0  0
 14 12  1  0  0  0  0
 14 15  1  0  0  0  0
M  RAD  2   2   2   3   2
M  END
