Coordinates from ORCA-job 2-HOOC-4-Br-C6H2-N2-B3LYPG-aug-cc-pVDZ-scan-d09-49-n400
 OpenBabel11091809123D

 15 14  0  0  0  0  0  0  0  0999 V2000
   -1.6220   -1.5178   -1.0359 C   0  0  0  0  0  0  0  0  0  0  0  0
   -0.3016   -1.0981   -1.0199 C   0  0  0  0  0  0  0  0  0  0  0  0
    0.1178    0.0692   -0.8539 C   0  0  0  0  0  0  0  0  0  0  0  0
   -0.6423    1.2133   -0.6431 C   0  0  0  0  0  0  0  0  0  0  0  0
   -2.0244    0.9056   -0.6352 C   0  0  0  0  0  0  0  0  0  0  0  0
   -2.4807   -0.4109   -0.8252 C   0  0  0  0  0  0  0  0  0  0  0  0
   -1.9994   -2.5270   -1.1819 H   0  0  0  0  0  0  0  0  0  0  0  0
   -2.7350    1.7155   -0.4790 H   0  0  0  0  0  0  0  0  0  0  0  0
    3.4059    0.0618   -0.6263 N   0  0  0  0  0  0  0  0  0  0  0  0
    4.0852   -0.0194   -1.4936 N   0  0  0  0  0  0  0  0  0  0  0  0
   -4.3707   -0.7394   -0.8002 Br  0  0  0  0  0  0  0  0  0  0  0  0
   -0.1686    2.6072   -0.4459 C   0  0  0  0  0  0  0  0  0  0  0  0
   -0.8960    3.5585   -0.2555 O   0  0  0  0  0  0  0  0  0  0  0  0
    1.1810    2.7034   -0.5036 O   0  0  0  0  0  0  0  0  0  0  0  0
    1.3998    3.6393   -0.3649 H   0  0  0  0  0  0  0  0  0  0  0  0
  1  2  2  0  0  0  0
  1  6  1  0  0  0  0
  2  3  1  0  0  0  0
  3  4  2  0  0  0  0
  4  5  1  0  0  0  0
  4 12  1  0  0  0  0
  5  8  1  0  0  0  0
  6 11  1  0  0  0  0
  6  5  2  0  0  0  0
  7  1  1  0  0  0  0
 10  9  3  0  0  0  0
 12 13  2  0  0  0  0
 14 12  1  0  0  0  0
 14 15  1  0  0  0  0
M  RAD  2   2   2   3   2
M  END
