Coordinates from ORCA-job 2-HOOC-4-Br-C6H2-N2-B3LYPG-aug-cc-pVDZ-scan-d09-49-n400
 OpenBabel11091809123D

 15 14  0  0  0  0  0  0  0  0999 V2000
   -1.6143   -1.5179   -1.0356 C   0  0  0  0  0  0  0  0  0  0  0  0
   -0.2944   -1.0967   -1.0184 C   0  0  0  0  0  0  0  0  0  0  0  0
    0.1241    0.0709   -0.8523 C   0  0  0  0  0  0  0  0  0  0  0  0
   -0.6375    1.2142   -0.6425 C   0  0  0  0  0  0  0  0  0  0  0  0
   -2.0193    0.9052   -0.6359 C   0  0  0  0  0  0  0  0  0  0  0  0
   -2.4742   -0.4117   -0.8260 C   0  0  0  0  0  0  0  0  0  0  0  0
   -1.9905   -2.5275   -1.1819 H   0  0  0  0  0  0  0  0  0  0  0  0
   -2.7308    1.7145   -0.4806 H   0  0  0  0  0  0  0  0  0  0  0  0
    3.3722    0.0584   -0.6279 N   0  0  0  0  0  0  0  0  0  0  0  0
    4.0533   -0.0250   -1.4936 N   0  0  0  0  0  0  0  0  0  0  0  0
   -4.3640   -0.7419   -0.8026 Br  0  0  0  0  0  0  0  0  0  0  0  0
   -0.1658    2.6089   -0.4453 C   0  0  0  0  0  0  0  0  0  0  0  0
   -0.8946    3.5592   -0.2555 O   0  0  0  0  0  0  0  0  0  0  0  0
    1.1837    2.7071   -0.5023 O   0  0  0  0  0  0  0  0  0  0  0  0
    1.4010    3.6433   -0.3636 H   0  0  0  0  0  0  0  0  0  0  0  0
  1  2  2  0  0  0  0
  1  6  1  0  0  0  0
  2  3  1  0  0  0  0
  3  4  2  0  0  0  0
  4  5  1  0  0  0  0
  4 12  1  0  0  0  0
  5  8  1  0  0  0  0
  6 11  1  0  0  0  0
  6  5  2  0  0  0  0
  7  1  1  0  0  0  0
 10  9  3  0  0  0  0
 12 13  2  0  0  0  0
 14 12  1  0  0  0  0
 14 15  1  0  0  0  0
M  RAD  2   2   2   3   2
M  END
