Coordinates from ORCA-job 2-HOOC-4-Br-C6H2-N2-B3LYPG-aug-cc-pVDZ-scan-d09-49-n400
 OpenBabel11091809123D

 15 14  0  0  0  0  0  0  0  0999 V2000
   -1.5367   -1.5244   -1.0656 C   0  0  0  0  0  0  0  0  0  0  0  0
   -0.2119   -1.1149   -1.0461 C   0  0  0  0  0  0  0  0  0  0  0  0
    0.2057    0.0526   -0.8726 C   0  0  0  0  0  0  0  0  0  0  0  0
   -0.5495    1.1968   -0.6405 C   0  0  0  0  0  0  0  0  0  0  0  0
   -1.9316    0.8893   -0.6221 C   0  0  0  0  0  0  0  0  0  0  0  0
   -2.3925   -0.4227   -0.8277 C   0  0  0  0  0  0  0  0  0  0  0  0
   -1.9177   -2.5299   -1.2292 H   0  0  0  0  0  0  0  0  0  0  0  0
   -2.6385    1.6991   -0.4501 H   0  0  0  0  0  0  0  0  0  0  0  0
    2.8244    0.1439   -0.6012 N   0  0  0  0  0  0  0  0  0  0  0  0
    3.6062   -0.0088   -1.3669 N   0  0  0  0  0  0  0  0  0  0  0  0
   -4.2831   -0.7477   -0.7875 Br  0  0  0  0  0  0  0  0  0  0  0  0
   -0.0925    2.5972   -0.4437 C   0  0  0  0  0  0  0  0  0  0  0  0
   -0.8301    3.5285   -0.2006 O   0  0  0  0  0  0  0  0  0  0  0  0
    1.2485    2.7311   -0.5756 O   0  0  0  0  0  0  0  0  0  0  0  0
    1.4482    3.6710   -0.4345 H   0  0  0  0  0  0  0  0  0  0  0  0
  1  2  2  0  0  0  0
  1  6  1  0  0  0  0
  2  3  1  0  0  0  0
  3  4  2  0  0  0  0
  4  5  1  0  0  0  0
  4 12  1  0  0  0  0
  5  8  1  0  0  0  0
  6 11  1  0  0  0  0
  6  5  2  0  0  0  0
  7  1  1  0  0  0  0
 10  9  3  0  0  0  0
 12 13  2  0  0  0  0
 14 12  1  0  0  0  0
 14 15  1  0  0  0  0
M  RAD  2   2   2   3   2
M  END
