Coordinates from ORCA-job 2-HOOC-4-Br-C6H2-N2-B3LYPG-aug-cc-pVDZ-scan-d09-49-n400
 OpenBabel11091809123D

 15 14  0  0  0  0  0  0  0  0999 V2000
   -1.5480   -1.5247   -1.0566 C   0  0  0  0  0  0  0  0  0  0  0  0
   -0.2248   -1.1117   -1.0345 C   0  0  0  0  0  0  0  0  0  0  0  0
    0.1952    0.0552   -0.8639 C   0  0  0  0  0  0  0  0  0  0  0  0
   -0.5631    1.1993   -0.6404 C   0  0  0  0  0  0  0  0  0  0  0  0
   -1.9451    0.8920   -0.6271 C   0  0  0  0  0  0  0  0  0  0  0  0
   -2.4048   -0.4212   -0.8287 C   0  0  0  0  0  0  0  0  0  0  0  0
   -1.9275   -2.5313   -1.2159 H   0  0  0  0  0  0  0  0  0  0  0  0
   -2.6532    1.7022   -0.4618 H   0  0  0  0  0  0  0  0  0  0  0  0
    2.9066    0.1314   -0.6078 N   0  0  0  0  0  0  0  0  0  0  0  0
    3.6649   -0.0030   -1.4002 N   0  0  0  0  0  0  0  0  0  0  0  0
   -4.2954   -0.7466   -0.7968 Br  0  0  0  0  0  0  0  0  0  0  0  0
   -0.1029    2.5988   -0.4451 C   0  0  0  0  0  0  0  0  0  0  0  0
   -0.8389    3.5350   -0.2165 O   0  0  0  0  0  0  0  0  0  0  0  0
    1.2410    2.7234   -0.5544 O   0  0  0  0  0  0  0  0  0  0  0  0
    1.4449    3.6624   -0.4141 H   0  0  0  0  0  0  0  0  0  0  0  0
  1  2  2  0  0  0  0
  1  6  1  0  0  0  0
  2  3  1  0  0  0  0
  3  4  2  0  0  0  0
  4  5  1  0  0  0  0
  4 12  1  0  0  0  0
  5  8  1  0  0  0  0
  6 11  1  0  0  0  0
  6  5  2  0  0  0  0
  7  1  1  0  0  0  0
 10  9  3  0  0  0  0
 12 13  2  0  0  0  0
 14 12  1  0  0  0  0
 14 15  1  0  0  0  0
M  RAD  2   2   2   3   2
M  END
