Coordinates from ORCA-job 2-HOOC-4-Br-C6H2-N2-B3LYPG-aug-cc-pVDZ-scan-d09-49-n400
 OpenBabel11091809123D

 15 14  0  0  0  0  0  0  0  0999 V2000
   -1.5312   -1.5250   -1.0701 C   0  0  0  0  0  0  0  0  0  0  0  0
   -0.2057   -1.1174   -1.0524 C   0  0  0  0  0  0  0  0  0  0  0  0
    0.2139    0.0510   -0.8774 C   0  0  0  0  0  0  0  0  0  0  0  0
   -0.5406    1.1954   -0.6417 C   0  0  0  0  0  0  0  0  0  0  0  0
   -1.9229    0.8875   -0.6199 C   0  0  0  0  0  0  0  0  0  0  0  0
   -2.3854   -0.4237   -0.8272 C   0  0  0  0  0  0  0  0  0  0  0  0
   -1.9134   -2.5298   -1.2355 H   0  0  0  0  0  0  0  0  0  0  0  0
   -2.6289    1.6974   -0.4450 H   0  0  0  0  0  0  0  0  0  0  0  0
    2.7809    0.1528   -0.5976 N   0  0  0  0  0  0  0  0  0  0  0  0
    3.5723   -0.0153   -1.3502 N   0  0  0  0  0  0  0  0  0  0  0  0
   -4.2762   -0.7471   -0.7818 Br  0  0  0  0  0  0  0  0  0  0  0  0
   -0.0875    2.5974   -0.4460 C   0  0  0  0  0  0  0  0  0  0  0  0
   -0.8266    3.5244   -0.1913 O   0  0  0  0  0  0  0  0  0  0  0  0
    1.2516    2.7368   -0.5856 O   0  0  0  0  0  0  0  0  0  0  0  0
    1.4488    3.6769   -0.4421 H   0  0  0  0  0  0  0  0  0  0  0  0
  1  2  2  0  0  0  0
  1  6  1  0  0  0  0
  2  3  1  0  0  0  0
  3  4  2  0  0  0  0
  4  5  1  0  0  0  0
  4 12  1  0  0  0  0
  5  8  1  0  0  0  0
  6 11  1  0  0  0  0
  6  5  2  0  0  0  0
  7  1  1  0  0  0  0
 10  9  3  0  0  0  0
 12 13  2  0  0  0  0
 14 12  1  0  0  0  0
 14 15  1  0  0  0  0
M  RAD  2   2   2   3   2
M  END
