Coordinates from ORCA-job 2-HOOC-4-Br-C6H2-N2-B3LYPG-aug-cc-pVDZ-scan-d09-49-n400
 OpenBabel11091809123D

 15 14  0  0  0  0  0  0  0  0999 V2000
   -1.6704   -1.5180   -1.0376 C   0  0  0  0  0  0  0  0  0  0  0  0
   -0.3475   -1.1061   -1.0299 C   0  0  0  0  0  0  0  0  0  0  0  0
    0.0797    0.0585   -0.8647 C   0  0  0  0  0  0  0  0  0  0  0  0
   -0.6717    1.2069   -0.6470 C   0  0  0  0  0  0  0  0  0  0  0  0
   -2.0555    0.9076   -0.6312 C   0  0  0  0  0  0  0  0  0  0  0  0
   -2.5209   -0.4059   -0.8202 C   0  0  0  0  0  0  0  0  0  0  0  0
   -2.0549   -2.5248   -1.1822 H   0  0  0  0  0  0  0  0  0  0  0  0
   -2.7604    1.7214   -0.4693 H   0  0  0  0  0  0  0  0  0  0  0  0
    3.6174    0.0837   -0.6154 N   0  0  0  0  0  0  0  0  0  0  0  0
    4.2829    0.0140   -1.4943 N   0  0  0  0  0  0  0  0  0  0  0  0
   -4.4127   -0.7230   -0.7841 Br  0  0  0  0  0  0  0  0  0  0  0  0
   -0.1863    2.5967   -0.4496 C   0  0  0  0  0  0  0  0  0  0  0  0
   -0.9057    3.5535   -0.2557 O   0  0  0  0  0  0  0  0  0  0  0  0
    1.1637    2.6817   -0.5110 O   0  0  0  0  0  0  0  0  0  0  0  0
    1.3914    3.6153   -0.3719 H   0  0  0  0  0  0  0  0  0  0  0  0
  1  2  2  0  0  0  0
  1  6  1  0  0  0  0
  2  3  1  0  0  0  0
  3  4  2  0  0  0  0
  4  5  1  0  0  0  0
  4 12  1  0  0  0  0
  5  8  1  0  0  0  0
  6 11  1  0  0  0  0
  6  5  2  0  0  0  0
  7  1  1  0  0  0  0
 10  9  3  0  0  0  0
 12 13  2  0  0  0  0
 14 12  1  0  0  0  0
 14 15  1  0  0  0  0
M  RAD  2   2   2   3   2
M  END
