Coordinates from ORCA-job 2-HOOC-4-Br-C6H2-N2-B3LYPG-aug-cc-pVDZ-scan-d09-49-n400
 OpenBabel11091809123D

 15 15  0  0  0  0  0  0  0  0999 V2000
   -1.3775   -1.4915   -1.0649 C   0  0  0  0  0  0  0  0  0  0  0  0
    0.0349   -1.3257   -1.1147 C   0  0  0  0  0  0  0  0  0  0  0  0
    0.4160    0.0227   -0.9047 C   0  0  0  0  0  0  0  0  0  0  0  0
   -0.4285    1.1625   -0.6639 C   0  0  0  0  0  0  0  0  0  0  0  0
   -1.7844    0.8958   -0.6257 C   0  0  0  0  0  0  0  0  0  0  0  0
   -2.2381   -0.4279   -0.8242 C   0  0  0  0  0  0  0  0  0  0  0  0
   -1.8057   -2.4847   -1.2177 H   0  0  0  0  0  0  0  0  0  0  0  0
   -2.4816    1.7101   -0.4460 H   0  0  0  0  0  0  0  0  0  0  0  0
    1.7496    0.1570   -0.9491 N   0  0  0  0  0  0  0  0  0  0  0  0
    2.8661    0.1754   -0.9999 N   0  0  0  0  0  0  0  0  0  0  0  0
   -4.1351   -0.7219   -0.7519 Br  0  0  0  0  0  0  0  0  0  0  0  0
    0.0014    2.5763   -0.4573 C   0  0  0  0  0  0  0  0  0  0  0  0
   -0.7501    3.5002   -0.2405 O   0  0  0  0  0  0  0  0  0  0  0  0
    1.3502    2.7353   -0.5262 O   0  0  0  0  0  0  0  0  0  0  0  0
    1.5319    3.6775   -0.3773 H   0  0  0  0  0  0  0  0  0  0  0  0
  1  6  1  0  0  0  0
  2  1  2  0  0  0  0
  2  3  1  0  0  0  0
  3  4  2  0  0  0  0
  4  5  1  0  0  0  0
  4 12  1  0  0  0  0
  5  8  1  0  0  0  0
  6 11  1  0  0  0  0
  6  5  2  0  0  0  0
  7  1  1  0  0  0  0
  9  3  1  0  0  0  0
 10  9  1  0  0  0  0
 12 13  2  0  0  0  0
 14 12  1  0  0  0  0
 14 15  1  0  0  0  0
M  RAD  3   2   2   9   2  10   3
M  END
