Coordinates from ORCA-job 2-HOOC-4-Br-C6H2-N2-B3LYPG-aug-cc-pVDZ-scan-d09-49-n400
 OpenBabel11091809123D

 15 14  0  0  0  0  0  0  0  0999 V2000
   -1.6781   -1.5180   -1.0379 C   0  0  0  0  0  0  0  0  0  0  0  0
   -0.3548   -1.1072   -1.0317 C   0  0  0  0  0  0  0  0  0  0  0  0
    0.0737    0.0569   -0.8666 C   0  0  0  0  0  0  0  0  0  0  0  0
   -0.6764    1.2059   -0.6476 C   0  0  0  0  0  0  0  0  0  0  0  0
   -2.0605    0.9079   -0.6305 C   0  0  0  0  0  0  0  0  0  0  0  0
   -2.5273   -0.4051   -0.8194 C   0  0  0  0  0  0  0  0  0  0  0  0
   -2.0637   -2.5243   -1.1824 H   0  0  0  0  0  0  0  0  0  0  0  0
   -2.7644    1.7223   -0.4675 H   0  0  0  0  0  0  0  0  0  0  0  0
    3.6513    0.0871   -0.6136 N   0  0  0  0  0  0  0  0  0  0  0  0
    4.3148    0.0185   -1.4942 N   0  0  0  0  0  0  0  0  0  0  0  0
   -4.4194   -0.7205   -0.7814 Br  0  0  0  0  0  0  0  0  0  0  0  0
   -0.1893    2.5951   -0.4502 C   0  0  0  0  0  0  0  0  0  0  0  0
   -0.9074    3.5527   -0.2557 O   0  0  0  0  0  0  0  0  0  0  0  0
    1.1608    2.6783   -0.5122 O   0  0  0  0  0  0  0  0  0  0  0  0
    1.3898    3.6117   -0.3731 H   0  0  0  0  0  0  0  0  0  0  0  0
  1  2  2  0  0  0  0
  1  6  1  0  0  0  0
  2  3  1  0  0  0  0
  3  4  2  0  0  0  0
  4  5  1  0  0  0  0
  4 12  1  0  0  0  0
  5  8  1  0  0  0  0
  6 11  1  0  0  0  0
  6  5  2  0  0  0  0
  7  1  1  0  0  0  0
 10  9  3  0  0  0  0
 12 13  2  0  0  0  0
 14 12  1  0  0  0  0
 14 15  1  0  0  0  0
M  RAD  2   2   2   3   2
M  END
