Coordinates from ORCA-job 2-HOOC-4-Br-C6H2-N2-B3LYPG-aug-cc-pVDZ-scan-d09-49-n400
 OpenBabel11091809123D

 15 15  0  0  0  0  0  0  0  0999 V2000
   -1.4223   -1.5112   -1.0552 C   0  0  0  0  0  0  0  0  0  0  0  0
   -0.0541   -1.1975   -1.0830 C   0  0  0  0  0  0  0  0  0  0  0  0
    0.2816    0.0252   -0.8979 C   0  0  0  0  0  0  0  0  0  0  0  0
   -0.4510    1.1835   -0.6609 C   0  0  0  0  0  0  0  0  0  0  0  0
   -1.8305    0.8865   -0.6297 C   0  0  0  0  0  0  0  0  0  0  0  0
   -2.2863   -0.4273   -0.8230 C   0  0  0  0  0  0  0  0  0  0  0  0
   -1.8220   -2.5154   -1.1999 H   0  0  0  0  0  0  0  0  0  0  0  0
   -2.5294    1.7008   -0.4523 H   0  0  0  0  0  0  0  0  0  0  0  0
    2.1426    0.3017   -0.9609 N   0  0  0  0  0  0  0  0  0  0  0  0
    3.1453   -0.1505   -1.0964 N   0  0  0  0  0  0  0  0  0  0  0  0
   -4.1805   -0.7474   -0.7655 Br  0  0  0  0  0  0  0  0  0  0  0  0
   -0.0280    2.5962   -0.4492 C   0  0  0  0  0  0  0  0  0  0  0  0
   -0.7994    3.5092   -0.2496 O   0  0  0  0  0  0  0  0  0  0  0  0
    1.3155    2.7798   -0.4956 O   0  0  0  0  0  0  0  0  0  0  0  0
    1.4675    3.7275   -0.3448 H   0  0  0  0  0  0  0  0  0  0  0  0
  1  6  1  0  0  0  0
  2  1  2  0  0  0  0
  2  3  1  0  0  0  0
  3  4  2  0  0  0  0
  4  5  1  0  0  0  0
  4 12  1  0  0  0  0
  5  8  1  0  0  0  0
  6 11  1  0  0  0  0
  6  5  2  0  0  0  0
  7  1  1  0  0  0  0
  9  3  1  0  0  0  0
 10  9  2  0  0  0  0
 12 13  2  0  0  0  0
 14 12  1  0  0  0  0
 14 15  1  0  0  0  0
M  RAD  2   2   2  10   2
M  END
