Coordinates from ORCA-job 2-HOOC-4-Br-C6H2-N2-B3LYPG-aug-cc-pVDZ-scan-d09-49-n400
 OpenBabel11091809123D

 15 14  0  0  0  0  0  0  0  0999 V2000
   -1.5648   -1.5240   -1.0443 C   0  0  0  0  0  0  0  0  0  0  0  0
   -0.2429   -1.1085   -1.0160 C   0  0  0  0  0  0  0  0  0  0  0  0
    0.1778    0.0584   -0.8486 C   0  0  0  0  0  0  0  0  0  0  0  0
   -0.5836    1.2027   -0.6371 C   0  0  0  0  0  0  0  0  0  0  0  0
   -1.9656    0.8961   -0.6336 C   0  0  0  0  0  0  0  0  0  0  0  0
   -2.4233   -0.4186   -0.8308 C   0  0  0  0  0  0  0  0  0  0  0  0
   -1.9427   -2.5319   -1.1991 H   0  0  0  0  0  0  0  0  0  0  0  0
   -2.6752    1.7069   -0.4780 H   0  0  0  0  0  0  0  0  0  0  0  0
    3.0329    0.1151   -0.6183 N   0  0  0  0  0  0  0  0  0  0  0  0
    3.7549    0.0011   -1.4470 N   0  0  0  0  0  0  0  0  0  0  0  0
   -4.3139   -0.7445   -0.8132 Br  0  0  0  0  0  0  0  0  0  0  0  0
   -0.1185    2.6003   -0.4418 C   0  0  0  0  0  0  0  0  0  0  0  0
   -0.8518    3.5436   -0.2349 O   0  0  0  0  0  0  0  0  0  0  0  0
    1.2280    2.7131   -0.5291 O   0  0  0  0  0  0  0  0  0  0  0  0
    1.4379    3.6513   -0.3921 H   0  0  0  0  0  0  0  0  0  0  0  0
  1  2  2  0  0  0  0
  1  6  1  0  0  0  0
  2  3  1  0  0  0  0
  3  4  2  0  0  0  0
  4  5  1  0  0  0  0
  4 12  1  0  0  0  0
  5  8  1  0  0  0  0
  6 11  1  0  0  0  0
  6  5  2  0  0  0  0
  7  1  1  0  0  0  0
 10  9  3  0  0  0  0
 12 13  2  0  0  0  0
 14 12  1  0  0  0  0
 14 15  1  0  0  0  0
M  RAD  2   2   2   3   2
M  END
