Coordinates from ORCA-job 2-HOOC-4-Br-C6H2-N2-B3LYPG-aug-cc-pVDZ-scan-d09-49-n400
 OpenBabel11091809123D

 15 14  0  0  0  0  0  0  0  0999 V2000
   -1.5779   -1.5240   -1.0350 C   0  0  0  0  0  0  0  0  0  0  0  0
   -0.2564   -1.1084   -1.0013 C   0  0  0  0  0  0  0  0  0  0  0  0
    0.1649    0.0586   -0.8363 C   0  0  0  0  0  0  0  0  0  0  0  0
   -0.5973    1.2040   -0.6344 C   0  0  0  0  0  0  0  0  0  0  0  0
   -1.9795    0.8988   -0.6387 C   0  0  0  0  0  0  0  0  0  0  0  0
   -2.4369   -0.4166   -0.8326 C   0  0  0  0  0  0  0  0  0  0  0  0
   -1.9555   -2.5324   -1.1866 H   0  0  0  0  0  0  0  0  0  0  0  0
   -2.6896    1.7107   -0.4910 H   0  0  0  0  0  0  0  0  0  0  0  0
    3.1223    0.1051   -0.6268 N   0  0  0  0  0  0  0  0  0  0  0  0
    3.8182    0.0103   -1.4798 N   0  0  0  0  0  0  0  0  0  0  0  0
   -4.3277   -0.7413   -0.8261 Br  0  0  0  0  0  0  0  0  0  0  0  0
   -0.1287    2.6003   -0.4403 C   0  0  0  0  0  0  0  0  0  0  0  0
   -0.8596    3.5482   -0.2461 O   0  0  0  0  0  0  0  0  0  0  0  0
    1.2194    2.7053   -0.5121 O   0  0  0  0  0  0  0  0  0  0  0  0
    1.4333    3.6427   -0.3766 H   0  0  0  0  0  0  0  0  0  0  0  0
  1  2  2  0  0  0  0
  1  6  1  0  0  0  0
  2  3  1  0  0  0  0
  3  4  2  0  0  0  0
  4 12  1  0  0  0  0
  5  4  1  0  0  0  0
  5  8  1  0  0  0  0
  6 11  1  0  0  0  0
  6  5  2  0  0  0  0
  7  1  1  0  0  0  0
 10  9  3  0  0  0  0
 12 13  2  0  0  0  0
 14 12  1  0  0  0  0
 14 15  1  0  0  0  0
M  RAD  2   2   2   3   2
M  END
