Coordinates from ORCA-job 2-HOOC-4-Br-C6H2-N2-B3LYPG-aug-cc-pVDZ-scan-d09-49-n400
 OpenBabel11091809123D

 15 14  0  0  0  0  0  0  0  0999 V2000
   -1.8306   -1.5127   -1.0490 C   0  0  0  0  0  0  0  0  0  0  0  0
   -0.5025   -1.1196   -1.0713 C   0  0  0  0  0  0  0  0  0  0  0  0
   -0.0496    0.0351   -0.9061 C   0  0  0  0  0  0  0  0  0  0  0  0
   -0.7797    1.1921   -0.6603 C   0  0  0  0  0  0  0  0  0  0  0  0
   -2.1668    0.9152   -0.6136 C   0  0  0  0  0  0  0  0  0  0  0  0
   -2.6578   -0.3894   -0.8020 C   0  0  0  0  0  0  0  0  0  0  0  0
   -2.2337   -2.5123   -1.1921 H   0  0  0  0  0  0  0  0  0  0  0  0
   -2.8545    1.7384   -0.4274 H   0  0  0  0  0  0  0  0  0  0  0  0
    4.4142    0.1277   -0.5493 N   0  0  0  0  0  0  0  0  0  0  0  0
    4.9521    0.0788   -1.5128 N   0  0  0  0  0  0  0  0  0  0  0  0
   -4.5529   -0.6770   -0.7228 Br  0  0  0  0  0  0  0  0  0  0  0  0
   -0.2624    2.5699   -0.4614 C   0  0  0  0  0  0  0  0  0  0  0  0
   -0.9562    3.5415   -0.2495 O   0  0  0  0  0  0  0  0  0  0  0  0
    1.0883    2.6233   -0.5439 O   0  0  0  0  0  0  0  0  0  0  0  0
    1.3411    3.5500   -0.4025 H   0  0  0  0  0  0  0  0  0  0  0  0
  1  6  1  0  0  0  0
  2  1  2  0  0  0  0
  2  3  1  0  0  0  0
  3  4  2  0  0  0  0
  4  5  1  0  0  0  0
  4 12  1  0  0  0  0
  5  8  1  0  0  0  0
  6 11  1  0  0  0  0
  6  5  2  0  0  0  0
  7  1  1  0  0  0  0
 10  9  3  0  0  0  0
 12 13  2  0  0  0  0
 14 12  1  0  0  0  0
 14 15  1  0  0  0  0
M  RAD  2   2   2   3   2
M  END
