Coordinates from ORCA-job 2-HOOC-4-Br-C6H2-N2-B3LYPG-aug-cc-pVDZ-scan-d09-49-n400
 OpenBabel11091809123D

 15 14  0  0  0  0  0  0  0  0999 V2000
   -1.5005   -1.5303   -1.0737 C   0  0  0  0  0  0  0  0  0  0  0  0
   -0.1654   -1.1479   -1.0442 C   0  0  0  0  0  0  0  0  0  0  0  0
    0.2477    0.0239   -0.8643 C   0  0  0  0  0  0  0  0  0  0  0  0
   -0.4918    1.1779   -0.6323 C   0  0  0  0  0  0  0  0  0  0  0  0
   -1.8769    0.8805   -0.6206 C   0  0  0  0  0  0  0  0  0  0  0  0
   -2.3488   -0.4257   -0.8334 C   0  0  0  0  0  0  0  0  0  0  0  0
   -1.8918   -2.5312   -1.2445 H   0  0  0  0  0  0  0  0  0  0  0  0
   -2.5762    1.6971   -0.4507 H   0  0  0  0  0  0  0  0  0  0  0  0
    2.5407    0.2158   -0.6240 N   0  0  0  0  0  0  0  0  0  0  0  0
    3.3761   -0.0164   -1.3106 N   0  0  0  0  0  0  0  0  0  0  0  0
   -4.2433   -0.7323   -0.7952 Br  0  0  0  0  0  0  0  0  0  0  0  0
   -0.0513    2.5858   -0.4378 C   0  0  0  0  0  0  0  0  0  0  0  0
   -0.8018    3.4966   -0.1588 O   0  0  0  0  0  0  0  0  0  0  0  0
    1.2809    2.7609   -0.6087 O   0  0  0  0  0  0  0  0  0  0  0  0
    1.4514    3.7063   -0.4649 H   0  0  0  0  0  0  0  0  0  0  0  0
  1  2  2  0  0  0  0
  1  6  1  0  0  0  0
  2  3  1  0  0  0  0
  3  4  2  0  0  0  0
  4  5  1  0  0  0  0
  4 12  1  0  0  0  0
  5  8  1  0  0  0  0
  6 11  1  0  0  0  0
  6  5  2  0  0  0  0
  7  1  1  0  0  0  0
 10  9  3  0  0  0  0
 12 13  2  0  0  0  0
 14 15  1  0  0  0  0
 14 12  1  0  0  0  0
M  RAD  2   2   2   3   2
M  END
