Coordinates from ORCA-job 2-HOOC-4-Br-C6H2-N2-B3LYPG-aug-cc-pVDZ-scan-d09-49-n400
 OpenBabel11091809123D

 15 14  0  0  0  0  0  0  0  0999 V2000
   -1.6200   -1.5178   -1.0358 C   0  0  0  0  0  0  0  0  0  0  0  0
   -0.2997   -1.0978   -1.0195 C   0  0  0  0  0  0  0  0  0  0  0  0
    0.1193    0.0696   -0.8535 C   0  0  0  0  0  0  0  0  0  0  0  0
   -0.6411    1.2135   -0.6429 C   0  0  0  0  0  0  0  0  0  0  0  0
   -2.0231    0.9055   -0.6354 C   0  0  0  0  0  0  0  0  0  0  0  0
   -2.4790   -0.4111   -0.8254 C   0  0  0  0  0  0  0  0  0  0  0  0
   -1.9972   -2.5272   -1.1819 H   0  0  0  0  0  0  0  0  0  0  0  0
   -2.7339    1.7152   -0.4794 H   0  0  0  0  0  0  0  0  0  0  0  0
    3.3974    0.0610   -0.6267 N   0  0  0  0  0  0  0  0  0  0  0  0
    4.0772   -0.0208   -1.4936 N   0  0  0  0  0  0  0  0  0  0  0  0
   -4.3690   -0.7401   -0.8008 Br  0  0  0  0  0  0  0  0  0  0  0  0
   -0.1679    2.6076   -0.4458 C   0  0  0  0  0  0  0  0  0  0  0  0
   -0.8957    3.5587   -0.2555 O   0  0  0  0  0  0  0  0  0  0  0  0
    1.1816    2.7044   -0.5032 O   0  0  0  0  0  0  0  0  0  0  0  0
    1.4001    3.6403   -0.3646 H   0  0  0  0  0  0  0  0  0  0  0  0
  1  2  2  0  0  0  0
  1  6  1  0  0  0  0
  2  3  1  0  0  0  0
  3  4  2  0  0  0  0
  4  5  1  0  0  0  0
  4 12  1  0  0  0  0
  5  8  1  0  0  0  0
  6 11  1  0  0  0  0
  6  5  2  0  0  0  0
  7  1  1  0  0  0  0
 10  9  3  0  0  0  0
 12 13  2  0  0  0  0
 14 12  1  0  0  0  0
 14 15  1  0  0  0  0
M  RAD  2   2   2   3   2
M  END
