Coordinates from ORCA-job 2-HOOC-4-Br-C6H2-N2-B3LYPG-aug-cc-pVDZ-scan-d09-49-n400
 OpenBabel11091809123D

 15 14  0  0  0  0  0  0  0  0999 V2000
   -1.4859   -1.5309   -1.0692 C   0  0  0  0  0  0  0  0  0  0  0  0
   -0.1459   -1.1616   -1.0283 C   0  0  0  0  0  0  0  0  0  0  0  0
    0.2605    0.0154   -0.8498 C   0  0  0  0  0  0  0  0  0  0  0  0
   -0.4759    1.1730   -0.6255 C   0  0  0  0  0  0  0  0  0  0  0  0
   -1.8615    0.8795   -0.6244 C   0  0  0  0  0  0  0  0  0  0  0  0
   -2.3345   -0.4259   -0.8382 C   0  0  0  0  0  0  0  0  0  0  0  0
   -1.8800   -2.5308   -1.2414 H   0  0  0  0  0  0  0  0  0  0  0  0
   -2.5594    1.6987   -0.4625 H   0  0  0  0  0  0  0  0  0  0  0  0
    2.4533    0.2310   -0.6402 N   0  0  0  0  0  0  0  0  0  0  0  0
    3.2960   -0.0134   -1.3146 N   0  0  0  0  0  0  0  0  0  0  0  0
   -4.2304   -0.7273   -0.8124 Br  0  0  0  0  0  0  0  0  0  0  0  0
   -0.0396    2.5828   -0.4309 C   0  0  0  0  0  0  0  0  0  0  0  0
   -0.7932    3.4895   -0.1474 O   0  0  0  0  0  0  0  0  0  0  0  0
    1.2902    2.7674   -0.6118 O   0  0  0  0  0  0  0  0  0  0  0  0
    1.4555    3.7137   -0.4675 H   0  0  0  0  0  0  0  0  0  0  0  0
  1  2  2  0  0  0  0
  1  6  1  0  0  0  0
  2  3  1  0  0  0  0
  3  4  2  0  0  0  0
  4  5  1  0  0  0  0
  4 12  1  0  0  0  0
  5  8  1  0  0  0  0
  6 11  1  0  0  0  0
  6  5  2  0  0  0  0
  7  1  1  0  0  0  0
 10  9  3  0  0  0  0
 12 13  2  0  0  0  0
 14 15  1  0  0  0  0
 14 12  1  0  0  0  0
M  RAD  2   2   2   3   2
M  END
