Coordinates from ORCA-job 2-HOOC-4-Br-C6H2-N2-B3LYPG-aug-cc-pVDZ-scan-d09-49-n400
 OpenBabel11091809123D

 15 14  0  0  0  0  0  0  0  0999 V2000
   -1.5712   -1.5239   -1.0397 C   0  0  0  0  0  0  0  0  0  0  0  0
   -0.2496   -1.1082   -1.0087 C   0  0  0  0  0  0  0  0  0  0  0  0
    0.1714    0.0587   -0.8425 C   0  0  0  0  0  0  0  0  0  0  0  0
   -0.5906    1.2035   -0.6358 C   0  0  0  0  0  0  0  0  0  0  0  0
   -1.9727    0.8975   -0.6361 C   0  0  0  0  0  0  0  0  0  0  0  0
   -2.4301   -0.4176   -0.8317 C   0  0  0  0  0  0  0  0  0  0  0  0
   -1.9488   -2.5321   -1.1929 H   0  0  0  0  0  0  0  0  0  0  0  0
   -2.6826    1.7088   -0.4844 H   0  0  0  0  0  0  0  0  0  0  0  0
    3.0777    0.1097   -0.6226 N   0  0  0  0  0  0  0  0  0  0  0  0
    3.7869    0.0049   -1.4634 N   0  0  0  0  0  0  0  0  0  0  0  0
   -4.3208   -0.7431   -0.8196 Br  0  0  0  0  0  0  0  0  0  0  0  0
   -0.1238    2.6004   -0.4410 C   0  0  0  0  0  0  0  0  0  0  0  0
   -0.8559    3.5461   -0.2406 O   0  0  0  0  0  0  0  0  0  0  0  0
    1.2236    2.7093   -0.5205 O   0  0  0  0  0  0  0  0  0  0  0  0
    1.4355    3.6471   -0.3843 H   0  0  0  0  0  0  0  0  0  0  0  0
  1  2  2  0  0  0  0
  1  6  1  0  0  0  0
  2  3  1  0  0  0  0
  3  4  2  0  0  0  0
  4 12  1  0  0  0  0
  5  4  1  0  0  0  0
  5  8  1  0  0  0  0
  6 11  1  0  0  0  0
  6  5  2  0  0  0  0
  7  1  1  0  0  0  0
 10  9  3  0  0  0  0
 12 13  2  0  0  0  0
 14 12  1  0  0  0  0
 14 15  1  0  0  0  0
M  RAD  2   2   2   3   2
M  END
