Coordinates from ORCA-job 2-HOOC-4-Br-C6H2-N2-B3LYPG-aug-cc-pVDZ-scan-d09-49-n400
 OpenBabel11091809123D

 15 14  0  0  0  0  0  0  0  0999 V2000
   -1.4904   -1.5308   -1.0707 C   0  0  0  0  0  0  0  0  0  0  0  0
   -0.1518   -1.1577   -1.0330 C   0  0  0  0  0  0  0  0  0  0  0  0
    0.2566    0.0175   -0.8535 C   0  0  0  0  0  0  0  0  0  0  0  0
   -0.4803    1.1742   -0.6267 C   0  0  0  0  0  0  0  0  0  0  0  0
   -1.8659    0.8797   -0.6229 C   0  0  0  0  0  0  0  0  0  0  0  0
   -2.3388   -0.4258   -0.8368 C   0  0  0  0  0  0  0  0  0  0  0  0
   -1.8838   -2.5309   -1.2430 H   0  0  0  0  0  0  0  0  0  0  0  0
   -2.5642    1.6982   -0.4585 H   0  0  0  0  0  0  0  0  0  0  0  0
    2.4795    0.2269   -0.6353 N   0  0  0  0  0  0  0  0  0  0  0  0
    3.3199   -0.0142   -1.3134 N   0  0  0  0  0  0  0  0  0  0  0  0
   -4.2343   -0.7284   -0.8079 Br  0  0  0  0  0  0  0  0  0  0  0  0
   -0.0428    2.5833   -0.4313 C   0  0  0  0  0  0  0  0  0  0  0  0
   -0.7959    3.4916   -0.1514 O   0  0  0  0  0  0  0  0  0  0  0  0
    1.2874    2.7656   -0.6111 O   0  0  0  0  0  0  0  0  0  0  0  0
    1.4538    3.7119   -0.4683 H   0  0  0  0  0  0  0  0  0  0  0  0
  1  2  2  0  0  0  0
  1  6  1  0  0  0  0
  2  3  1  0  0  0  0
  3  4  2  0  0  0  0
  4  5  1  0  0  0  0
  4 12  1  0  0  0  0
  5  8  1  0  0  0  0
  6 11  1  0  0  0  0
  6  5  2  0  0  0  0
  7  1  1  0  0  0  0
 10  9  3  0  0  0  0
 12 13  2  0  0  0  0
 14 15  1  0  0  0  0
 14 12  1  0  0  0  0
M  RAD  2   2   2   3   2
M  END
