Coordinates from ORCA-job 2-HOOC-4-Br-C6H2-N2-B3LYPG-aug-cc-pVDZ-scan-d09-49-n400
 OpenBabel11091809123D

 15 14  0  0  0  0  0  0  0  0999 V2000
   -1.5491   -1.5246   -1.0558 C   0  0  0  0  0  0  0  0  0  0  0  0
   -0.2261   -1.1114   -1.0333 C   0  0  0  0  0  0  0  0  0  0  0  0
    0.1940    0.0555   -0.8629 C   0  0  0  0  0  0  0  0  0  0  0  0
   -0.5646    1.1996   -0.6402 C   0  0  0  0  0  0  0  0  0  0  0  0
   -1.9466    0.8923   -0.6276 C   0  0  0  0  0  0  0  0  0  0  0  0
   -2.4061   -0.4211   -0.8288 C   0  0  0  0  0  0  0  0  0  0  0  0
   -1.9285   -2.5313   -1.2147 H   0  0  0  0  0  0  0  0  0  0  0  0
   -2.6548    1.7025   -0.4629 H   0  0  0  0  0  0  0  0  0  0  0  0
    2.9157    0.1303   -0.6085 N   0  0  0  0  0  0  0  0  0  0  0  0
    3.6713   -0.0030   -1.4035 N   0  0  0  0  0  0  0  0  0  0  0  0
   -4.2967   -0.7465   -0.7978 Br  0  0  0  0  0  0  0  0  0  0  0  0
   -0.1040    2.5989   -0.4449 C   0  0  0  0  0  0  0  0  0  0  0  0
   -0.8399    3.5357   -0.2180 O   0  0  0  0  0  0  0  0  0  0  0  0
    1.2401    2.7226   -0.5525 O   0  0  0  0  0  0  0  0  0  0  0  0
    1.4444    3.6616   -0.4125 H   0  0  0  0  0  0  0  0  0  0  0  0
  1  2  2  0  0  0  0
  1  6  1  0  0  0  0
  2  3  1  0  0  0  0
  3  4  2  0  0  0  0
  4  5  1  0  0  0  0
  4 12  1  0  0  0  0
  5  8  1  0  0  0  0
  6 11  1  0  0  0  0
  6  5  2  0  0  0  0
  7  1  1  0  0  0  0
 10  9  3  0  0  0  0
 12 13  2  0  0  0  0
 14 12  1  0  0  0  0
 14 15  1  0  0  0  0
M  RAD  2   2   2   3   2
M  END
