Coordinates from ORCA-job 2-HOOC-4-Br-C6H2-N2-B3LYPG-aug-cc-pVDZ-scan-d09-49-n400
 OpenBabel11091809123D

 15 14  0  0  0  0  0  0  0  0999 V2000
   -1.4779   -1.5303   -1.0676 C   0  0  0  0  0  0  0  0  0  0  0  0
   -0.1357   -1.1666   -1.0216 C   0  0  0  0  0  0  0  0  0  0  0  0
    0.2675    0.0132   -0.8440 C   0  0  0  0  0  0  0  0  0  0  0  0
   -0.4694    1.1714   -0.6225 C   0  0  0  0  0  0  0  0  0  0  0  0
   -1.8548    0.8792   -0.6258 C   0  0  0  0  0  0  0  0  0  0  0  0
   -2.3275   -0.4261   -0.8403 C   0  0  0  0  0  0  0  0  0  0  0  0
   -1.8725   -2.5300   -1.2407 H   0  0  0  0  0  0  0  0  0  0  0  0
   -2.5525    1.6992   -0.4673 H   0  0  0  0  0  0  0  0  0  0  0  0
    2.4100    0.2365   -0.6466 N   0  0  0  0  0  0  0  0  0  0  0  0
    3.2563   -0.0135   -1.3152 N   0  0  0  0  0  0  0  0  0  0  0  0
   -4.2237   -0.7266   -0.8192 Br  0  0  0  0  0  0  0  0  0  0  0  0
   -0.0349    2.5820   -0.4278 C   0  0  0  0  0  0  0  0  0  0  0  0
   -0.7890    3.4875   -0.1420 O   0  0  0  0  0  0  0  0  0  0  0  0
    1.2939    2.7696   -0.6143 O   0  0  0  0  0  0  0  0  0  0  0  0
    1.4593    3.7157   -0.4690 H   0  0  0  0  0  0  0  0  0  0  0  0
  1  2  2  0  0  0  0
  1  6  1  0  0  0  0
  2  3  1  0  0  0  0
  3  4  2  0  0  0  0
  4 12  1  0  0  0  0
  5  4  1  0  0  0  0
  5  8  1  0  0  0  0
  6 11  1  0  0  0  0
  6  5  2  0  0  0  0
  7  1  1  0  0  0  0
 10  9  3  0  0  0  0
 12 13  2  0  0  0  0
 14 15  1  0  0  0  0
 14 12  1  0  0  0  0
M  RAD  2   2   2   3   2
M  END
