Coordinates from ORCA-job 2-HOOC-4-Br-C6H2-N2-B3LYPG-aug-cc-pVDZ-scan-d09-49-n400
 OpenBabel11091809123D

 15 14  0  0  0  0  0  0  0  0999 V2000
   -1.6355   -1.5178   -1.0362 C   0  0  0  0  0  0  0  0  0  0  0  0
   -0.3144   -1.1004   -1.0225 C   0  0  0  0  0  0  0  0  0  0  0  0
    0.1069    0.0662   -0.8568 C   0  0  0  0  0  0  0  0  0  0  0  0
   -0.6507    1.2115   -0.6441 C   0  0  0  0  0  0  0  0  0  0  0  0
   -2.0333    0.9062   -0.6341 C   0  0  0  0  0  0  0  0  0  0  0  0
   -2.4920   -0.4095   -0.8238 C   0  0  0  0  0  0  0  0  0  0  0  0
   -2.0149   -2.5264   -1.1819 H   0  0  0  0  0  0  0  0  0  0  0  0
   -2.7423    1.7171   -0.4764 H   0  0  0  0  0  0  0  0  0  0  0  0
    3.4650    0.0682   -0.6233 N   0  0  0  0  0  0  0  0  0  0  0  0
    4.1406   -0.0094   -1.4939 N   0  0  0  0  0  0  0  0  0  0  0  0
   -4.3825   -0.7349   -0.7959 Br  0  0  0  0  0  0  0  0  0  0  0  0
   -0.1735    2.6042   -0.4469 C   0  0  0  0  0  0  0  0  0  0  0  0
   -0.8984    3.5573   -0.2555 O   0  0  0  0  0  0  0  0  0  0  0  0
    1.1762    2.6969   -0.5057 O   0  0  0  0  0  0  0  0  0  0  0  0
    1.3979    3.6320   -0.3669 H   0  0  0  0  0  0  0  0  0  0  0  0
  1  2  2  0  0  0  0
  1  6  1  0  0  0  0
  2  3  1  0  0  0  0
  3  4  2  0  0  0  0
  4  5  1  0  0  0  0
  4 12  1  0  0  0  0
  5  8  1  0  0  0  0
  6 11  1  0  0  0  0
  6  5  2  0  0  0  0
  7  1  1  0  0  0  0
 10  9  3  0  0  0  0
 12 13  2  0  0  0  0
 14 12  1  0  0  0  0
 14 15  1  0  0  0  0
M  RAD  2   2   2   3   2
M  END
