Coordinates from ORCA-job 2-HOOC-4-Br-C6H2-N2-B3LYPG-aug-cc-pVDZ-scan-d09-49-n400
 OpenBabel11091809123D

 15 14  0  0  0  0  0  0  0  0999 V2000
   -1.5699   -1.5239   -1.0406 C   0  0  0  0  0  0  0  0  0  0  0  0
   -0.2482   -1.1082   -1.0102 C   0  0  0  0  0  0  0  0  0  0  0  0
    0.1727    0.0587   -0.8437 C   0  0  0  0  0  0  0  0  0  0  0  0
   -0.5892    1.2034   -0.6360 C   0  0  0  0  0  0  0  0  0  0  0  0
   -1.9713    0.8972   -0.6356 C   0  0  0  0  0  0  0  0  0  0  0  0
   -2.4287   -0.4178   -0.8315 C   0  0  0  0  0  0  0  0  0  0  0  0
   -1.9476   -2.5320   -1.1942 H   0  0  0  0  0  0  0  0  0  0  0  0
   -2.6812    1.7084   -0.4831 H   0  0  0  0  0  0  0  0  0  0  0  0
    3.0688    0.1107   -0.6218 N   0  0  0  0  0  0  0  0  0  0  0  0
    3.7806    0.0040   -1.4601 N   0  0  0  0  0  0  0  0  0  0  0  0
   -4.3194   -0.7434   -0.8183 Br  0  0  0  0  0  0  0  0  0  0  0  0
   -0.1227    2.6004   -0.4412 C   0  0  0  0  0  0  0  0  0  0  0  0
   -0.8551    3.5456   -0.2394 O   0  0  0  0  0  0  0  0  0  0  0  0
    1.2245    2.7101   -0.5223 O   0  0  0  0  0  0  0  0  0  0  0  0
    1.4359    3.6479   -0.3859 H   0  0  0  0  0  0  0  0  0  0  0  0
  1  2  2  0  0  0  0
  1  6  1  0  0  0  0
  2  3  1  0  0  0  0
  3  4  2  0  0  0  0
  4  5  1  0  0  0  0
  4 12  1  0  0  0  0
  5  8  1  0  0  0  0
  6 11  1  0  0  0  0
  6  5  2  0  0  0  0
  7  1  1  0  0  0  0
 10  9  3  0  0  0  0
 12 13  2  0  0  0  0
 14 12  1  0  0  0  0
 14 15  1  0  0  0  0
M  RAD  2   2   2   3   2
M  END
