Coordinates from ORCA-job 2-HOOC-4-Br-C6H2-N2-B3LYPG-aug-cc-pVDZ-scan-d09-49-n400
 OpenBabel11091809123D

 15 14  0  0  0  0  0  0  0  0999 V2000
   -1.7589   -1.5165   -1.0426 C   0  0  0  0  0  0  0  0  0  0  0  0
   -0.4323   -1.1171   -1.0507 C   0  0  0  0  0  0  0  0  0  0  0  0
    0.0090    0.0422   -0.8861 C   0  0  0  0  0  0  0  0  0  0  0  0
   -0.7282    1.1969   -0.6540 C   0  0  0  0  0  0  0  0  0  0  0  0
   -2.1147    0.9115   -0.6224 C   0  0  0  0  0  0  0  0  0  0  0  0
   -2.5954   -0.3967   -0.8105 C   0  0  0  0  0  0  0  0  0  0  0  0
   -2.1550   -2.5189   -1.1857 H   0  0  0  0  0  0  0  0  0  0  0  0
   -2.8093    1.7315   -0.4483 H   0  0  0  0  0  0  0  0  0  0  0  0
    4.0253    0.1185   -0.5906 N   0  0  0  0  0  0  0  0  0  0  0  0
    4.6540    0.0589   -1.4969 N   0  0  0  0  0  0  0  0  0  0  0  0
   -4.4897   -0.6951   -0.7522 Br  0  0  0  0  0  0  0  0  0  0  0  0
   -0.2238    2.5797   -0.4560 C   0  0  0  0  0  0  0  0  0  0  0  0
   -0.9283    3.5456   -0.2534 O   0  0  0  0  0  0  0  0  0  0  0  0
    1.1268    2.6454   -0.5275 O   0  0  0  0  0  0  0  0  0  0  0  0
    1.3697    3.5750   -0.3871 H   0  0  0  0  0  0  0  0  0  0  0  0
  1  6  1  0  0  0  0
  2  1  2  0  0  0  0
  2  3  1  0  0  0  0
  3  4  2  0  0  0  0
  4  5  1  0  0  0  0
  4 12  1  0  0  0  0
  5  8  1  0  0  0  0
  6 11  1  0  0  0  0
  6  5  2  0  0  0  0
  7  1  1  0  0  0  0
 10  9  3  0  0  0  0
 12 13  2  0  0  0  0
 14 12  1  0  0  0  0
 14 15  1  0  0  0  0
M  RAD  2   2   2   3   2
M  END
