Coordinates from ORCA-job 2-HOOC-4-Br-C6H2-N2-B3LYPG-aug-cc-pVDZ-scan-d09-49-n400
 OpenBabel11091809123D

 15 14  0  0  0  0  0  0  0  0999 V2000
   -1.5046   -1.5266   -1.0803 C   0  0  0  0  0  0  0  0  0  0  0  0
   -0.1761   -1.1275   -1.0620 C   0  0  0  0  0  0  0  0  0  0  0  0
    0.2436    0.0403   -0.8803 C   0  0  0  0  0  0  0  0  0  0  0  0
   -0.5068    1.1866   -0.6388 C   0  0  0  0  0  0  0  0  0  0  0  0
   -1.8897    0.8819   -0.6161 C   0  0  0  0  0  0  0  0  0  0  0  0
   -2.3566   -0.4264   -0.8286 C   0  0  0  0  0  0  0  0  0  0  0  0
   -1.8899   -2.5296   -1.2512 H   0  0  0  0  0  0  0  0  0  0  0  0
   -2.5925    1.6936   -0.4369 H   0  0  0  0  0  0  0  0  0  0  0  0
    2.5962    0.1915   -0.6035 N   0  0  0  0  0  0  0  0  0  0  0  0
    3.4218   -0.0311   -1.3046 N   0  0  0  0  0  0  0  0  0  0  0  0
   -4.2486   -0.7445   -0.7754 Br  0  0  0  0  0  0  0  0  0  0  0  0
   -0.0637    2.5929   -0.4423 C   0  0  0  0  0  0  0  0  0  0  0  0
   -0.8098    3.5095   -0.1710 O   0  0  0  0  0  0  0  0  0  0  0  0
    1.2702    2.7540   -0.6083 O   0  0  0  0  0  0  0  0  0  0  0  0
    1.4555    3.6965   -0.4647 H   0  0  0  0  0  0  0  0  0  0  0  0
  1  2  2  0  0  0  0
  1  6  1  0  0  0  0
  2  3  1  0  0  0  0
  3  4  2  0  0  0  0
  4  5  1  0  0  0  0
  4 12  1  0  0  0  0
  5  8  1  0  0  0  0
  6 11  1  0  0  0  0
  6  5  2  0  0  0  0
  7  1  1  0  0  0  0
 10  9  3  0  0  0  0
 12 13  2  0  0  0  0
 14 15  1  0  0  0  0
 14 12  1  0  0  0  0
M  RAD  2   2   2   3   2
M  END
