Coordinates from ORCA-job 2-HOOC-4-Br-C6H2-N2-B3LYPG-aug-cc-pVDZ-scan-d09-49-n400
 OpenBabel11091809123D

 15 15  0  0  0  0  0  0  0  0999 V2000
   -1.3890   -1.4914   -1.0540 C   0  0  0  0  0  0  0  0  0  0  0  0
    0.0085   -1.2570   -1.0968 C   0  0  0  0  0  0  0  0  0  0  0  0
    0.3171    0.0256   -0.9000 C   0  0  0  0  0  0  0  0  0  0  0  0
   -0.4529    1.1768   -0.6618 C   0  0  0  0  0  0  0  0  0  0  0  0
   -1.8226    0.8950   -0.6286 C   0  0  0  0  0  0  0  0  0  0  0  0
   -2.2641   -0.4255   -0.8240 C   0  0  0  0  0  0  0  0  0  0  0  0
   -1.8002   -2.4927   -1.1976 H   0  0  0  0  0  0  0  0  0  0  0  0
   -2.5228    1.7074   -0.4513 H   0  0  0  0  0  0  0  0  0  0  0  0
    1.9331    0.2447   -0.9583 N   0  0  0  0  0  0  0  0  0  0  0  0
    3.0159    0.0231   -1.0591 N   0  0  0  0  0  0  0  0  0  0  0  0
   -4.1589   -0.7518   -0.7674 Br  0  0  0  0  0  0  0  0  0  0  0  0
   -0.0133    2.5826   -0.4521 C   0  0  0  0  0  0  0  0  0  0  0  0
   -0.7597    3.5142   -0.2511 O   0  0  0  0  0  0  0  0  0  0  0  0
    1.3382    2.7337   -0.5049 O   0  0  0  0  0  0  0  0  0  0  0  0
    1.5198    3.6764   -0.3568 H   0  0  0  0  0  0  0  0  0  0  0  0
  1  6  1  0  0  0  0
  2  1  2  0  0  0  0
  2  3  1  0  0  0  0
  3  4  2  0  0  0  0
  4  5  1  0  0  0  0
  4 12  1  0  0  0  0
  5  8  1  0  0  0  0
  6 11  1  0  0  0  0
  6  5  2  0  0  0  0
  7  1  1  0  0  0  0
  9  3  1  0  0  0  0
 10  9  1  0  0  0  0
 12 13  2  0  0  0  0
 14 12  1  0  0  0  0
 14 15  1  0  0  0  0
M  RAD  3   2   2   9   2  10   3
M  END
