Coordinates from ORCA-job 2-HOOC-4-Br-C6H2-N2-B3LYPG-aug-cc-pVDZ-scan-d09-49-n400
 OpenBabel11091809123D

 15 14  0  0  0  0  0  0  0  0999 V2000
   -1.5526   -1.5244   -1.0532 C   0  0  0  0  0  0  0  0  0  0  0  0
   -0.2300   -1.1105   -1.0296 C   0  0  0  0  0  0  0  0  0  0  0  0
    0.1903    0.0564   -0.8599 C   0  0  0  0  0  0  0  0  0  0  0  0
   -0.5690    1.2004   -0.6396 C   0  0  0  0  0  0  0  0  0  0  0  0
   -1.9510    0.8932   -0.6289 C   0  0  0  0  0  0  0  0  0  0  0  0
   -2.4100   -0.4205   -0.8292 C   0  0  0  0  0  0  0  0  0  0  0  0
   -1.9316   -2.5315   -1.2112 H   0  0  0  0  0  0  0  0  0  0  0  0
   -2.6596    1.7035   -0.4661 H   0  0  0  0  0  0  0  0  0  0  0  0
    2.9427    0.1268   -0.6104 N   0  0  0  0  0  0  0  0  0  0  0  0
    3.6905   -0.0028   -1.4135 N   0  0  0  0  0  0  0  0  0  0  0  0
   -4.3006   -0.7462   -0.8011 Br  0  0  0  0  0  0  0  0  0  0  0  0
   -0.1074    2.5993   -0.4440 C   0  0  0  0  0  0  0  0  0  0  0  0
   -0.8428    3.5377   -0.2223 O   0  0  0  0  0  0  0  0  0  0  0  0
    1.2373    2.7205   -0.5469 O   0  0  0  0  0  0  0  0  0  0  0  0
    1.4429    3.6593   -0.4078 H   0  0  0  0  0  0  0  0  0  0  0  0
  1  2  2  0  0  0  0
  1  6  1  0  0  0  0
  2  3  1  0  0  0  0
  3  4  2  0  0  0  0
  4  5  1  0  0  0  0
  4 12  1  0  0  0  0
  5  8  1  0  0  0  0
  6 11  1  0  0  0  0
  6  5  2  0  0  0  0
  7  1  1  0  0  0  0
 10  9  3  0  0  0  0
 12 13  2  0  0  0  0
 14 12  1  0  0  0  0
 14 15  1  0  0  0  0
M  RAD  2   2   2   3   2
M  END
