Coordinates from ORCA-job 2-HOOC-4-Br-C6H2-N2-B3LYPG-aug-cc-pVDZ-scan-d09-49-n400
 OpenBabel11091809123D

 15 14  0  0  0  0  0  0  0  0999 V2000
   -1.5214   -1.5252   -1.0781 C   0  0  0  0  0  0  0  0  0  0  0  0
   -0.1942   -1.1215   -1.0623 C   0  0  0  0  0  0  0  0  0  0  0  0
    0.2242    0.0473   -0.8840 C   0  0  0  0  0  0  0  0  0  0  0  0
   -0.5273    1.1923   -0.6416 C   0  0  0  0  0  0  0  0  0  0  0  0
   -1.9097    0.8848   -0.6156 C   0  0  0  0  0  0  0  0  0  0  0  0
   -2.3740   -0.4250   -0.8265 C   0  0  0  0  0  0  0  0  0  0  0  0
   -1.9055   -2.5287   -1.2474 H   0  0  0  0  0  0  0  0  0  0  0  0
   -2.6143    1.6948   -0.4354 H   0  0  0  0  0  0  0  0  0  0  0  0
    2.7082    0.1695   -0.5926 N   0  0  0  0  0  0  0  0  0  0  0  0
    3.5162   -0.0242   -1.3214 N   0  0  0  0  0  0  0  0  0  0  0  0
   -4.2651   -0.7470   -0.7737 Br  0  0  0  0  0  0  0  0  0  0  0  0
   -0.0778    2.5957   -0.4459 C   0  0  0  0  0  0  0  0  0  0  0  0
   -0.8188    3.5175   -0.1780 O   0  0  0  0  0  0  0  0  0  0  0  0
    1.2583    2.7449   -0.6028 O   0  0  0  0  0  0  0  0  0  0  0  0
    1.4502    3.6859   -0.4586 H   0  0  0  0  0  0  0  0  0  0  0  0
  1  2  2  0  0  0  0
  1  6  1  0  0  0  0
  2  3  1  0  0  0  0
  3  4  2  0  0  0  0
  4  5  1  0  0  0  0
  4 12  1  0  0  0  0
  5  8  1  0  0  0  0
  6 11  1  0  0  0  0
  6  5  2  0  0  0  0
  7  1  1  0  0  0  0
 10  9  3  0  0  0  0
 12 13  2  0  0  0  0
 14 15  1  0  0  0  0
 14 12  1  0  0  0  0
M  RAD  2   2   2   3   2
M  END
