Coordinates from ORCA-job 2-HOOC-4-Br-C6H2-N2-B3LYPG-aug-cc-pVDZ-scan-d09-49-n400
 OpenBabel11091809123D

 15 14  0  0  0  0  0  0  0  0999 V2000
   -1.5191   -1.5252   -1.0803 C   0  0  0  0  0  0  0  0  0  0  0  0
   -0.1916   -1.1224   -1.0649 C   0  0  0  0  0  0  0  0  0  0  0  0
    0.2271    0.0461   -0.8851 C   0  0  0  0  0  0  0  0  0  0  0  0
   -0.5239    1.1911   -0.6407 C   0  0  0  0  0  0  0  0  0  0  0  0
   -1.9063    0.8841   -0.6142 C   0  0  0  0  0  0  0  0  0  0  0  0
   -2.3713   -0.4253   -0.8264 C   0  0  0  0  0  0  0  0  0  0  0  0
   -1.9037   -2.5283   -1.2510 H   0  0  0  0  0  0  0  0  0  0  0  0
   -2.6105    1.6941   -0.4325 H   0  0  0  0  0  0  0  0  0  0  0  0
    2.6903    0.1738   -0.5916 N   0  0  0  0  0  0  0  0  0  0  0  0
    3.5023   -0.0258   -1.3143 N   0  0  0  0  0  0  0  0  0  0  0  0
   -4.2625   -0.7466   -0.7720 Br  0  0  0  0  0  0  0  0  0  0  0  0
   -0.0751    2.5947   -0.4436 C   0  0  0  0  0  0  0  0  0  0  0  0
   -0.8170    3.5160   -0.1765 O   0  0  0  0  0  0  0  0  0  0  0  0
    1.2600    2.7466   -0.6067 O   0  0  0  0  0  0  0  0  0  0  0  0
    1.4503    3.6882   -0.4641 H   0  0  0  0  0  0  0  0  0  0  0  0
  1  2  2  0  0  0  0
  1  6  1  0  0  0  0
  2  3  1  0  0  0  0
  3  4  2  0  0  0  0
  4  5  1  0  0  0  0
  4 12  1  0  0  0  0
  5  8  1  0  0  0  0
  6 11  1  0  0  0  0
  6  5  2  0  0  0  0
  7  1  1  0  0  0  0
 10  9  3  0  0  0  0
 12 13  2  0  0  0  0
 14 15  1  0  0  0  0
 14 12  1  0  0  0  0
M  RAD  2   2   2   3   2
M  END
