Coordinates from ORCA-job 2-HOOC-4-Br-C6H2-N2-B3LYPG-aug-cc-pVDZ-scan-d09-49-n400
 OpenBabel11091809123D

 15 15  0  0  0  0  0  0  0  0999 V2000
   -1.3592   -1.4901   -1.0619 C   0  0  0  0  0  0  0  0  0  0  0  0
    0.0431   -1.4048   -1.1296 C   0  0  0  0  0  0  0  0  0  0  0  0
    0.5954    0.0726   -0.9073 C   0  0  0  0  0  0  0  0  0  0  0  0
   -0.3953    1.1477   -0.6680 C   0  0  0  0  0  0  0  0  0  0  0  0
   -1.7408    0.8891   -0.6280 C   0  0  0  0  0  0  0  0  0  0  0  0
   -2.2175   -0.4244   -0.8230 C   0  0  0  0  0  0  0  0  0  0  0  0
   -1.7873   -2.4853   -1.2098 H   0  0  0  0  0  0  0  0  0  0  0  0
   -2.4254    1.7134   -0.4457 H   0  0  0  0  0  0  0  0  0  0  0  0
    1.5107    0.1571   -0.9469 N   0  0  0  0  0  0  0  0  0  0  0  0
    2.6743    0.1893   -1.0005 N   0  0  0  0  0  0  0  0  0  0  0  0
   -4.1013   -0.7005   -0.7505 Br  0  0  0  0  0  0  0  0  0  0  0  0
    0.0207    2.5739   -0.4559 C   0  0  0  0  0  0  0  0  0  0  0  0
   -0.7595    3.4767   -0.2480 O   0  0  0  0  0  0  0  0  0  0  0  0
    1.3582    2.7511   -0.5184 O   0  0  0  0  0  0  0  0  0  0  0  0
    1.5329    3.6952   -0.3704 H   0  0  0  0  0  0  0  0  0  0  0  0
  1  6  1  0  0  0  0
  2  1  2  0  0  0  0
  2  3  1  0  0  0  0
  3  4  2  0  0  0  0
  4  5  1  0  0  0  0
  4 12  1  0  0  0  0
  5  8  1  0  0  0  0
  6 11  1  0  0  0  0
  6  5  2  0  0  0  0
  7  1  1  0  0  0  0
  9  3  1  0  0  0  0
 10  9  1  0  0  0  0
 12 13  2  0  0  0  0
 14 12  1  0  0  0  0
 14 15  1  0  0  0  0
M  RAD  3   2   2   9   2  10   3
M  END
