Coordinates from ORCA-job 2-HOOC-4-Br-C6H2-N2-B3LYPG-aug-cc-pVDZ-scan-d09-49-n400
 OpenBabel11091809123D

 15 14  0  0  0  0  0  0  0  0999 V2000
   -1.4389   -1.5176   -1.0562 C   0  0  0  0  0  0  0  0  0  0  0  0
   -0.0813   -1.1784   -1.0776 C   0  0  0  0  0  0  0  0  0  0  0  0
    0.2715    0.0285   -0.8951 C   0  0  0  0  0  0  0  0  0  0  0  0
   -0.4570    1.1873   -0.6577 C   0  0  0  0  0  0  0  0  0  0  0  0
   -1.8384    0.8851   -0.6285 C   0  0  0  0  0  0  0  0  0  0  0  0
   -2.2984   -0.4274   -0.8227 C   0  0  0  0  0  0  0  0  0  0  0  0
   -1.8350   -2.5223   -1.2025 H   0  0  0  0  0  0  0  0  0  0  0  0
   -2.5380    1.6991   -0.4509 H   0  0  0  0  0  0  0  0  0  0  0  0
    2.2435    0.3070   -0.9620 N   0  0  0  0  0  0  0  0  0  0  0  0
    3.2169   -0.1997   -1.1110 N   0  0  0  0  0  0  0  0  0  0  0  0
   -4.1925   -0.7443   -0.7660 Br  0  0  0  0  0  0  0  0  0  0  0  0
   -0.0385    2.6013   -0.4441 C   0  0  0  0  0  0  0  0  0  0  0  0
   -0.8161    3.5103   -0.2484 O   0  0  0  0  0  0  0  0  0  0  0  0
    1.3025    2.7916   -0.4950 O   0  0  0  0  0  0  0  0  0  0  0  0
    1.4489    3.7405   -0.3463 H   0  0  0  0  0  0  0  0  0  0  0  0
  1  6  1  0  0  0  0
  2  1  2  0  0  0  0
  2  3  1  0  0  0  0
  3  4  2  0  0  0  0
  4  5  1  0  0  0  0
  4 12  1  0  0  0  0
  5  8  1  0  0  0  0
  6 11  1  0  0  0  0
  6  5  2  0  0  0  0
  7  1  1  0  0  0  0
 10  9  3  0  0  0  0
 12 13  2  0  0  0  0
 14 12  1  0  0  0  0
 14 15  1  0  0  0  0
M  RAD  2   2   2   3   2
M  END
