Coordinates from ORCA-job 2-HOOC-4-Br-C6H2-N2-B3LYPG-aug-cc-pVDZ-scan-d09-49-n400
 OpenBabel11091809123D

 15 14  0  0  0  0  0  0  0  0999 V2000
   -1.7338   -1.5171   -1.0411 C   0  0  0  0  0  0  0  0  0  0  0  0
   -0.4081   -1.1145   -1.0448 C   0  0  0  0  0  0  0  0  0  0  0  0
    0.0294    0.0463   -0.8801 C   0  0  0  0  0  0  0  0  0  0  0  0
   -0.7116    1.1995   -0.6521 C   0  0  0  0  0  0  0  0  0  0  0  0
   -2.0974    0.9103   -0.6249 C   0  0  0  0  0  0  0  0  0  0  0  0
   -2.5741   -0.3993   -0.8132 C   0  0  0  0  0  0  0  0  0  0  0  0
   -2.1269   -2.5207   -1.1846 H   0  0  0  0  0  0  0  0  0  0  0  0
   -2.7948    1.7287   -0.4542 H   0  0  0  0  0  0  0  0  0  0  0  0
    3.9062    0.1086   -0.5991 N   0  0  0  0  0  0  0  0  0  0  0  0
    4.5493    0.0469   -1.4951 N   0  0  0  0  0  0  0  0  0  0  0  0
   -4.4678   -0.7026   -0.7611 Br  0  0  0  0  0  0  0  0  0  0  0  0
   -0.2127    2.5844   -0.4542 C   0  0  0  0  0  0  0  0  0  0  0  0
   -0.9220    3.5475   -0.2545 O   0  0  0  0  0  0  0  0  0  0  0  0
    1.1377    2.6562   -0.5223 O   0  0  0  0  0  0  0  0  0  0  0  0
    1.3758    3.5871   -0.3825 H   0  0  0  0  0  0  0  0  0  0  0  0
  1  6  1  0  0  0  0
  2  1  2  0  0  0  0
  2  3  1  0  0  0  0
  3  4  2  0  0  0  0
  4  5  1  0  0  0  0
  4 12  1  0  0  0  0
  5  8  1  0  0  0  0
  6 11  1  0  0  0  0
  6  5  2  0  0  0  0
  7  1  1  0  0  0  0
 10  9  3  0  0  0  0
 12 13  2  0  0  0  0
 14 12  1  0  0  0  0
 14 15  1  0  0  0  0
M  RAD  2   2   2   3   2
M  END
