Coordinates from ORCA-job 2-HOOC-4-Br-C6H2-N2-B3LYPG-aug-cc-pVDZ-scan-d09-49-n400
 OpenBabel11091809123D

 15 14  0  0  0  0  0  0  0  0999 V2000
   -1.5598   -1.5241   -1.0480 C   0  0  0  0  0  0  0  0  0  0  0  0
   -0.2377   -1.1092   -1.0217 C   0  0  0  0  0  0  0  0  0  0  0  0
    0.1828    0.0578   -0.8532 C   0  0  0  0  0  0  0  0  0  0  0  0
   -0.5778    1.2019   -0.6380 C   0  0  0  0  0  0  0  0  0  0  0  0
   -1.9598    0.8950   -0.6317 C   0  0  0  0  0  0  0  0  0  0  0  0
   -2.4180   -0.4194   -0.8301 C   0  0  0  0  0  0  0  0  0  0  0  0
   -1.9381   -2.5317   -1.2041 H   0  0  0  0  0  0  0  0  0  0  0  0
   -2.6691    1.7055   -0.4730 H   0  0  0  0  0  0  0  0  0  0  0  0
    2.9969    0.1197   -0.6149 N   0  0  0  0  0  0  0  0  0  0  0  0
    3.7291   -0.0010   -1.4337 N   0  0  0  0  0  0  0  0  0  0  0  0
   -4.3085   -0.7454   -0.8083 Br  0  0  0  0  0  0  0  0  0  0  0  0
   -0.1141    2.6000   -0.4424 C   0  0  0  0  0  0  0  0  0  0  0  0
   -0.8483    3.5414   -0.2302 O   0  0  0  0  0  0  0  0  0  0  0  0
    1.2317    2.7161   -0.5361 O   0  0  0  0  0  0  0  0  0  0  0  0
    1.4399    3.6545   -0.3985 H   0  0  0  0  0  0  0  0  0  0  0  0
  1  2  2  0  0  0  0
  1  6  1  0  0  0  0
  2  3  1  0  0  0  0
  3  4  2  0  0  0  0
  4  5  1  0  0  0  0
  4 12  1  0  0  0  0
  5  8  1  0  0  0  0
  6 11  1  0  0  0  0
  6  5  2  0  0  0  0
  7  1  1  0  0  0  0
 10  9  3  0  0  0  0
 12 13  2  0  0  0  0
 14 12  1  0  0  0  0
 14 15  1  0  0  0  0
M  RAD  2   2   2   3   2
M  END
