Coordinates from ORCA-job 2-HOOC-4-Br-C6H2-N2-B3LYPG-aug-cc-pVDZ-scan-d09-49-n400
 OpenBabel11091809123D

 15 14  0  0  0  0  0  0  0  0999 V2000
   -1.6336   -1.5178   -1.0362 C   0  0  0  0  0  0  0  0  0  0  0  0
   -0.3125   -1.1001   -1.0221 C   0  0  0  0  0  0  0  0  0  0  0  0
    0.1085    0.0666   -0.8564 C   0  0  0  0  0  0  0  0  0  0  0  0
   -0.6495    1.2118   -0.6440 C   0  0  0  0  0  0  0  0  0  0  0  0
   -2.0320    0.9061   -0.6343 C   0  0  0  0  0  0  0  0  0  0  0  0
   -2.4904   -0.4097   -0.8240 C   0  0  0  0  0  0  0  0  0  0  0  0
   -2.0127   -2.5265   -1.1819 H   0  0  0  0  0  0  0  0  0  0  0  0
   -2.7412    1.7169   -0.4768 H   0  0  0  0  0  0  0  0  0  0  0  0
    3.4565    0.0673   -0.6238 N   0  0  0  0  0  0  0  0  0  0  0  0
    4.1327   -0.0108   -1.4938 N   0  0  0  0  0  0  0  0  0  0  0  0
   -4.3809   -0.7356   -0.7965 Br  0  0  0  0  0  0  0  0  0  0  0  0
   -0.1728    2.6046   -0.4468 C   0  0  0  0  0  0  0  0  0  0  0  0
   -0.8980    3.5575   -0.2555 O   0  0  0  0  0  0  0  0  0  0  0  0
    1.1769    2.6978   -0.5054 O   0  0  0  0  0  0  0  0  0  0  0  0
    1.3982    3.6330   -0.3666 H   0  0  0  0  0  0  0  0  0  0  0  0
  1  2  2  0  0  0  0
  1  6  1  0  0  0  0
  2  3  1  0  0  0  0
  3  4  2  0  0  0  0
  4  5  1  0  0  0  0
  4 12  1  0  0  0  0
  5  8  1  0  0  0  0
  6 11  1  0  0  0  0
  6  5  2  0  0  0  0
  7  1  1  0  0  0  0
 10  9  3  0  0  0  0
 12 13  2  0  0  0  0
 14 12  1  0  0  0  0
 14 15  1  0  0  0  0
M  RAD  2   2   2   3   2
M  END
