Coordinates from ORCA-job 2-HOOC-4-Br-C6H2-N2-B3LYPG-aug-cc-pVDZ-scan-d09-49-n400
 OpenBabel11091809123D

 15 14  0  0  0  0  0  0  0  0999 V2000
   -1.5752   -1.5239   -1.0369 C   0  0  0  0  0  0  0  0  0  0  0  0
   -0.2536   -1.1083   -1.0043 C   0  0  0  0  0  0  0  0  0  0  0  0
    0.1675    0.0587   -0.8388 C   0  0  0  0  0  0  0  0  0  0  0  0
   -0.5946    1.2038   -0.6350 C   0  0  0  0  0  0  0  0  0  0  0  0
   -1.9768    0.8983   -0.6376 C   0  0  0  0  0  0  0  0  0  0  0  0
   -2.4342   -0.4170   -0.8322 C   0  0  0  0  0  0  0  0  0  0  0  0
   -1.9528   -2.5323   -1.1891 H   0  0  0  0  0  0  0  0  0  0  0  0
   -2.6868    1.7099   -0.4883 H   0  0  0  0  0  0  0  0  0  0  0  0
    3.1045    0.1069   -0.6252 N   0  0  0  0  0  0  0  0  0  0  0  0
    3.8058    0.0080   -1.4733 N   0  0  0  0  0  0  0  0  0  0  0  0
   -4.3249   -0.7421   -0.8235 Br  0  0  0  0  0  0  0  0  0  0  0  0
   -0.1268    2.6004   -0.4406 C   0  0  0  0  0  0  0  0  0  0  0  0
   -0.8582    3.5474   -0.2439 O   0  0  0  0  0  0  0  0  0  0  0  0
    1.2211    2.7069   -0.5154 O   0  0  0  0  0  0  0  0  0  0  0  0
    1.4341    3.6445   -0.3797 H   0  0  0  0  0  0  0  0  0  0  0  0
  1  2  2  0  0  0  0
  1  6  1  0  0  0  0
  2  3  1  0  0  0  0
  3  4  2  0  0  0  0
  4 12  1  0  0  0  0
  5  4  1  0  0  0  0
  5  8  1  0  0  0  0
  6 11  1  0  0  0  0
  6  5  2  0  0  0  0
  7  1  1  0  0  0  0
 10  9  3  0  0  0  0
 12 13  2  0  0  0  0
 14 12  1  0  0  0  0
 14 15  1  0  0  0  0
M  RAD  2   2   2   3   2
M  END
