Coordinates from ORCA-job 2-HOOC-4-Br-C6H2-N2-B3LYPG-aug-cc-pVDZ-scan-d09-49-n400
 OpenBabel11091809123D

 15 15  0  0  0  0  0  0  0  0999 V2000
   -1.3784   -1.4919   -1.0556 C   0  0  0  0  0  0  0  0  0  0  0  0
    0.0325   -1.3136   -1.1087 C   0  0  0  0  0  0  0  0  0  0  0  0
    0.3918    0.0239   -0.9052 C   0  0  0  0  0  0  0  0  0  0  0  0
   -0.4356    1.1668   -0.6652 C   0  0  0  0  0  0  0  0  0  0  0  0
   -1.7942    0.8971   -0.6297 C   0  0  0  0  0  0  0  0  0  0  0  0
   -2.2432   -0.4272   -0.8252 C   0  0  0  0  0  0  0  0  0  0  0  0
   -1.8034   -2.4879   -1.1983 H   0  0  0  0  0  0  0  0  0  0  0  0
   -2.4929    1.7105   -0.4521 H   0  0  0  0  0  0  0  0  0  0  0  0
    1.7844    0.1681   -0.9618 N   0  0  0  0  0  0  0  0  0  0  0  0
    2.8975    0.1593   -1.0257 N   0  0  0  0  0  0  0  0  0  0  0  0
   -4.1407   -0.7278   -0.7624 Br  0  0  0  0  0  0  0  0  0  0  0  0
   -0.0018    2.5773   -0.4555 C   0  0  0  0  0  0  0  0  0  0  0  0
   -0.7500    3.5065   -0.2509 O   0  0  0  0  0  0  0  0  0  0  0  0
    1.3494    2.7291   -0.5084 O   0  0  0  0  0  0  0  0  0  0  0  0
    1.5335    3.6708   -0.3593 H   0  0  0  0  0  0  0  0  0  0  0  0
  1  6  1  0  0  0  0
  2  1  2  0  0  0  0
  2  3  1  0  0  0  0
  3  4  2  0  0  0  0
  4  5  1  0  0  0  0
  4 12  1  0  0  0  0
  5  8  1  0  0  0  0
  6 11  1  0  0  0  0
  6  5  2  0  0  0  0
  7  1  1  0  0  0  0
  9  3  1  0  0  0  0
 10  9  1  0  0  0  0
 12 13  2  0  0  0  0
 14 12  1  0  0  0  0
 14 15  1  0  0  0  0
M  RAD  3   2   2   9   2  10   3
M  END
