Coordinates from ORCA-job 2-HOOC-4-Br-C6H2-N2-B3LYPG-aug-cc-pVDZ-scan-d09-49-n400
 OpenBabel11091809123D

 15 14  0  0  0  0  0  0  0  0999 V2000
   -1.5562   -1.5243   -1.0506 C   0  0  0  0  0  0  0  0  0  0  0  0
   -0.2338   -1.1098   -1.0258 C   0  0  0  0  0  0  0  0  0  0  0  0
    0.1866    0.0571   -0.8566 C   0  0  0  0  0  0  0  0  0  0  0  0
   -0.5734    1.2012   -0.6388 C   0  0  0  0  0  0  0  0  0  0  0  0
   -1.9554    0.8941   -0.6303 C   0  0  0  0  0  0  0  0  0  0  0  0
   -2.4140   -0.4200   -0.8296 C   0  0  0  0  0  0  0  0  0  0  0  0
   -1.9348   -2.5316   -1.2077 H   0  0  0  0  0  0  0  0  0  0  0  0
   -2.6644    1.7044   -0.4695 H   0  0  0  0  0  0  0  0  0  0  0  0
    2.9698    0.1232   -0.6126 N   0  0  0  0  0  0  0  0  0  0  0  0
    3.7098   -0.0021   -1.4236 N   0  0  0  0  0  0  0  0  0  0  0  0
   -4.3045   -0.7458   -0.8046 Br  0  0  0  0  0  0  0  0  0  0  0  0
   -0.1108    2.5997   -0.4431 C   0  0  0  0  0  0  0  0  0  0  0  0
   -0.8456    3.5396   -0.2264 O   0  0  0  0  0  0  0  0  0  0  0  0
    1.2345    2.7183   -0.5415 O   0  0  0  0  0  0  0  0  0  0  0  0
    1.4414    3.6569   -0.4032 H   0  0  0  0  0  0  0  0  0  0  0  0
  1  2  2  0  0  0  0
  1  6  1  0  0  0  0
  2  3  1  0  0  0  0
  3  4  2  0  0  0  0
  4  5  1  0  0  0  0
  4 12  1  0  0  0  0
  5  8  1  0  0  0  0
  6 11  1  0  0  0  0
  6  5  2  0  0  0  0
  7  1  1  0  0  0  0
 10  9  3  0  0  0  0
 12 13  2  0  0  0  0
 14 12  1  0  0  0  0
 14 15  1  0  0  0  0
M  RAD  2   2   2   3   2
M  END
