Coordinates from ORCA-job 2-HOOC-4-Br-C6H2-N2-B3LYPG-aug-cc-pVDZ-scan-d09-49-n400
 OpenBabel11091809123D

 15 15  0  0  0  0  0  0  0  0999 V2000
   -1.3763   -1.4746   -1.1472 C   0  0  0  0  0  0  0  0  0  0  0  0
    0.0364   -1.3370   -1.1528 C   0  0  0  0  0  0  0  0  0  0  0  0
    0.4642    0.0201   -0.8868 C   0  0  0  0  0  0  0  0  0  0  0  0
   -0.4129    1.1521   -0.6434 C   0  0  0  0  0  0  0  0  0  0  0  0
   -1.7638    0.8859   -0.5823 C   0  0  0  0  0  0  0  0  0  0  0  0
   -2.2274   -0.4303   -0.8123 C   0  0  0  0  0  0  0  0  0  0  0  0
   -1.8112   -2.4473   -1.3885 H   0  0  0  0  0  0  0  0  0  0  0  0
   -2.4566    1.6990   -0.3814 H   0  0  0  0  0  0  0  0  0  0  0  0
    1.6789    0.1331   -0.8432 N   0  0  0  0  0  0  0  0  0  0  0  0
    2.8033    0.1692   -0.8109 N   0  0  0  0  0  0  0  0  0  0  0  0
   -4.1156   -0.7307   -0.6683 Br  0  0  0  0  0  0  0  0  0  0  0  0
    0.0102    2.5740   -0.4652 C   0  0  0  0  0  0  0  0  0  0  0  0
   -0.7368    3.4796   -0.1689 O   0  0  0  0  0  0  0  0  0  0  0  0
    1.3393    2.7614   -0.6733 O   0  0  0  0  0  0  0  0  0  0  0  0
    1.5174    3.7067   -0.5395 H   0  0  0  0  0  0  0  0  0  0  0  0
  1  6  1  0  0  0  0
  2  1  2  0  0  0  0
  2  3  1  0  0  0  0
  3  9  1  0  0  0  0
  3  4  2  0  0  0  0
  4  5  1  0  0  0  0
  4 12  1  0  0  0  0
  5  8  1  0  0  0  0
  6 11  1  0  0  0  0
  6  5  2  0  0  0  0
  7  1  1  0  0  0  0
  9 10  1  0  0  0  0
 12 13  2  0  0  0  0
 14 15  1  0  0  0  0
 14 12  1  0  0  0  0
M  RAD  3   2   2   9   2  10   3
M  END
