Coordinates from ORCA-job 2-HOOC-4-Br-C6H2-N2-B3LYPG-aug-cc-pVDZ-scan-d09-49-n400
 OpenBabel11091809123D

 15 14  0  0  0  0  0  0  0  0999 V2000
   -1.5287   -1.5249   -1.0726 C   0  0  0  0  0  0  0  0  0  0  0  0
   -0.2028   -1.1183   -1.0553 C   0  0  0  0  0  0  0  0  0  0  0  0
    0.2165    0.0502   -0.8789 C   0  0  0  0  0  0  0  0  0  0  0  0
   -0.5373    1.1946   -0.6409 C   0  0  0  0  0  0  0  0  0  0  0  0
   -1.9196    0.8868   -0.6184 C   0  0  0  0  0  0  0  0  0  0  0  0
   -2.3825   -0.4240   -0.8270 C   0  0  0  0  0  0  0  0  0  0  0  0
   -1.9113   -2.5293   -1.2395 H   0  0  0  0  0  0  0  0  0  0  0  0
   -2.6253    1.6966   -0.4416 H   0  0  0  0  0  0  0  0  0  0  0  0
    2.7627    0.1569   -0.5957 N   0  0  0  0  0  0  0  0  0  0  0  0
    3.5583   -0.0179   -1.3424 N   0  0  0  0  0  0  0  0  0  0  0  0
   -4.2734   -0.7472   -0.7800 Br  0  0  0  0  0  0  0  0  0  0  0  0
   -0.0849    2.5966   -0.4437 C   0  0  0  0  0  0  0  0  0  0  0  0
   -0.8247    3.5230   -0.1886 O   0  0  0  0  0  0  0  0  0  0  0  0
    1.2531    2.7388   -0.5908 O   0  0  0  0  0  0  0  0  0  0  0  0
    1.4491    3.6793   -0.4486 H   0  0  0  0  0  0  0  0  0  0  0  0
  1  2  2  0  0  0  0
  1  6  1  0  0  0  0
  2  3  1  0  0  0  0
  3  4  2  0  0  0  0
  4  5  1  0  0  0  0
  4 12  1  0  0  0  0
  5  8  1  0  0  0  0
  6 11  1  0  0  0  0
  6  5  2  0  0  0  0
  7  1  1  0  0  0  0
 10  9  3  0  0  0  0
 12 13  2  0  0  0  0
 14 15  1  0  0  0  0
 14 12  1  0  0  0  0
M  RAD  2   2   2   3   2
M  END
