Coordinates from ORCA-job 2-HOOC-4-Br-C6H2-N2-B3LYPG-aug-cc-pVDZ-scan-d09-49-n400
 OpenBabel11091809123D

 15 14  0  0  0  0  0  0  0  0999 V2000
   -1.8789   -1.5096   -1.0537 C   0  0  0  0  0  0  0  0  0  0  0  0
   -0.5503   -1.1197   -1.0852 C   0  0  0  0  0  0  0  0  0  0  0  0
   -0.0912    0.0326   -0.9196 C   0  0  0  0  0  0  0  0  0  0  0  0
   -0.8164    1.1908   -0.6642 C   0  0  0  0  0  0  0  0  0  0  0  0
   -2.2041    0.9180   -0.6078 C   0  0  0  0  0  0  0  0  0  0  0  0
   -2.7006   -0.3844   -0.7967 C   0  0  0  0  0  0  0  0  0  0  0  0
   -2.2860   -2.5075   -1.1968 H   0  0  0  0  0  0  0  0  0  0  0  0
   -2.8878    1.7426   -0.4134 H   0  0  0  0  0  0  0  0  0  0  0  0
    4.7108    0.1237   -0.5165 N   0  0  0  0  0  0  0  0  0  0  0  0
    5.1511    0.0819   -1.5286 N   0  0  0  0  0  0  0  0  0  0  0  0
   -4.5960   -0.6663   -0.7037 Br  0  0  0  0  0  0  0  0  0  0  0  0
   -0.2928    2.5660   -0.4644 C   0  0  0  0  0  0  0  0  0  0  0  0
   -0.9814    3.5397   -0.2450 O   0  0  0  0  0  0  0  0  0  0  0  0
    1.0575    2.6140   -0.5553 O   0  0  0  0  0  0  0  0  0  0  0  0
    1.3153    3.5392   -0.4130 H   0  0  0  0  0  0  0  0  0  0  0  0
  1  6  1  0  0  0  0
  2  1  2  0  0  0  0
  2  3  1  0  0  0  0
  3  4  2  0  0  0  0
  4  5  1  0  0  0  0
  4 12  1  0  0  0  0
  5  8  1  0  0  0  0
  6 11  1  0  0  0  0
  6  5  2  0  0  0  0
  7  1  1  0  0  0  0
 10  9  3  0  0  0  0
 12 13  2  0  0  0  0
 14 12  1  0  0  0  0
 14 15  1  0  0  0  0
M  RAD  2   2   2   3   2
M  END
