Coordinates from ORCA-job 2-HOOC-4-Br-C6H2-N2-B3LYPG-aug-cc-pVDZ-scan-d09-49-n400
 OpenBabel11091809123D

 15 14  0  0  0  0  0  0  0  0999 V2000
   -1.4314   -1.5152   -1.0553 C   0  0  0  0  0  0  0  0  0  0  0  0
   -0.0693   -1.1866   -1.0798 C   0  0  0  0  0  0  0  0  0  0  0  0
    0.2759    0.0267   -0.8969 C   0  0  0  0  0  0  0  0  0  0  0  0
   -0.4536    1.1857   -0.6602 C   0  0  0  0  0  0  0  0  0  0  0  0
   -1.8342    0.8856   -0.6297 C   0  0  0  0  0  0  0  0  0  0  0  0
   -2.2927   -0.4275   -0.8228 C   0  0  0  0  0  0  0  0  0  0  0  0
   -1.8291   -2.5198   -1.2003 H   0  0  0  0  0  0  0  0  0  0  0  0
   -2.5334    1.6999   -0.4525 H   0  0  0  0  0  0  0  0  0  0  0  0
    2.1973    0.3056   -0.9625 N   0  0  0  0  0  0  0  0  0  0  0  0
    3.1832   -0.1791   -1.1047 N   0  0  0  0  0  0  0  0  0  0  0  0
   -4.1868   -0.7455   -0.7653 Br  0  0  0  0  0  0  0  0  0  0  0  0
   -0.0335    2.5994   -0.4481 C   0  0  0  0  0  0  0  0  0  0  0  0
   -0.8088    3.5094   -0.2488 O   0  0  0  0  0  0  0  0  0  0  0  0
    1.3086    2.7871   -0.4941 O   0  0  0  0  0  0  0  0  0  0  0  0
    1.4568    3.7354   -0.3430 H   0  0  0  0  0  0  0  0  0  0  0  0
  1  6  1  0  0  0  0
  2  1  2  0  0  0  0
  2  3  1  0  0  0  0
  3  4  2  0  0  0  0
  4  5  1  0  0  0  0
  4 12  1  0  0  0  0
  5  8  1  0  0  0  0
  6 11  1  0  0  0  0
  6  5  2  0  0  0  0
  7  1  1  0  0  0  0
 10  9  3  0  0  0  0
 12 13  2  0  0  0  0
 14 12  1  0  0  0  0
 14 15  1  0  0  0  0
M  RAD  2   2   2   3   2
M  END
