14
Coordinates from ORCA-job 4-NO2-C6H3-N2-B3LYPG-aug-cc-pVDZ-scan-d09-49-n400
  C   -2.97560120980801     -0.48353996229308     -0.74282862262082
  C   -1.67201926101178     -0.83376722425501     -1.04120406149604
  C   -0.63478276479870     -0.19285937112038     -0.75643727487831
  C   -0.53400606188505      1.01480364460294     -0.07833738906180
  C   -1.81517169862390      1.47801952019355      0.28246975163287
  C   -2.97702435277853      0.74745019771272     -0.04374610735133
  H   -3.89361930058402     -1.01516249449273     -0.97465608231461
  H   0.37207033629439      1.56506875221983      0.16497255588890
  H   -1.92650669999949      2.41545694455659      0.82327041205541
  N   -4.28754480875174      1.29744366938327      0.36850532064153
  O   -5.28995356087671      0.64900225503961      0.08007141104924
  O   -4.29985789060670      2.36373624189320      0.97775414167672
  N   3.27785264671025      2.49068843285926      0.46824850839839
  N   4.37566462671991      2.60705939370025      0.45131743637984
