14
Coordinates from ORCA-job 4-NO2-C6H3-N2-B3LYPG-aug-cc-pVDZ-scan-d09-49-n400
  C   -2.45213879863832     -0.34210703768149     -0.70181624307978
  C   -1.07220003362546     -0.31916692015467     -0.79463281139603
  C   -0.30923038234003      0.56774323768388     -0.34887899923637
  C   -0.63939565602036      1.72767575468985      0.33597010357627
  C   -2.03771761331116      1.81424896262383      0.49246869052460
  C   -2.89364163882228      0.81238504536599     -0.01147210577717
  H   -3.14603235018008     -1.09000510815200     -1.07380743991201
  H   0.03917308366118      2.48733153404232      0.71585307885778
  H   -2.48046096340385      2.66318512010074      1.00914353742990
  N   -4.35093258566290      0.97176493995590      0.19102688645211
  O   -5.08421927015442      0.09402583647370     -0.25653961894923
  O   -4.74493728233041      1.97178084774294      0.78521791451016
  N   3.00741686781692      1.64778428508255      0.01031265399756
  N   3.88381662301116      1.09675350222646     -0.37344564699779
