14
Coordinates from ORCA-job 4-NO2-C6H3-N2-B3LYPG-aug-cc-pVDZ-scan-d09-49-n400
  C   -2.81800422130734     -0.45190694799443     -0.73709630290438
  C   -1.46951636498902     -0.66103947557198     -0.95870329546460
  C   -0.52433540437135      0.08180121966302     -0.60893007505772
  C   -0.58988412484207      1.28608592368970      0.07992739787354
  C   -1.93192144362542      1.60838082520284      0.36525399098365
  C   -2.98959983399674      0.76432759769331     -0.03343318932779
  H   -3.65999147625502     -1.07375880173918     -1.02602935836901
  H   0.23830208201238      1.92416637328211      0.37911248178788
  H   -2.17323679472443      2.52293908640612      0.90296337697328
  N   -4.37255120265090      1.17019663578483      0.30239601568231
  O   -5.28266106145957      0.42351956568573     -0.04781365446992
  O   -4.53233092195258      2.22208913827860      0.91581409722879
  N   3.37576490008897      2.23378933266578      0.31447837997318
  N   4.44946586807304      2.05280952695355      0.13146013509080
