14
Coordinates from ORCA-job 4-NO2-C6H3-N2-B3LYPG-aug-cc-pVDZ-scan-d09-49-n400
  C   -2.87678780125578     -0.46550872312042     -0.74049160190799
  C   -1.54193988671277     -0.72486827609943     -0.98907244693191
  C   -0.56215220723334     -0.01717504467638     -0.66195423681313
  C   -0.57014842648566      1.19029448991791      0.02375788142150
  C   -1.89265557754154      1.56379670209520      0.33612364934043
  C   -2.98874905416370      0.75829037242386     -0.03773481585329
  H   -3.74698504492392     -1.05656841304359     -1.00979487035976
  H   0.28716525307426      1.79824358598669      0.30358420940601
  H   -2.08823259657077      2.48821501683895      0.87543296607765
  N   -4.34858180006278      1.21577400382143      0.32494913133539
  O   -5.29244048963249      0.50078358029661     -0.00123327677511
  O   -4.45648631516502      2.27297966500137      0.94053916641045
  N   3.35189396680265      2.33003932855664      0.37151881865291
  N   4.44559997987081      2.24910371200116      0.24377542599685
