14
Coordinates from ORCA-job 4-NO2-C6H3-N2-B3LYPG-aug-cc-pVDZ-scan-d09-49-n400
  C   -2.41637482775673     -0.33088466012138     -0.69617972108437
  C   -1.03633936789360     -0.28780753099953     -0.77891978908668
  C   -0.28772011037900      0.60836350241531     -0.32715470841336
  C   -0.64141272899761      1.76236721238648      0.35697291179865
  C   -2.04143306143385      1.82930911319621      0.50396150701127
  C   -2.87930076249917      0.81596740284211     -0.00730380686020
  H   -3.09674338341334     -1.08817812079442     -1.07409793894822
  H   0.02720338618272      2.52865878807800      0.74105721424264
  H   -2.49975093716354      2.67108573788839      1.01872423076976
  N   -4.34011433996589      0.95390506346568      0.18526701895266
  O   -5.05818839904697      0.07250517343185     -0.27943200370774
  O   -4.75328496467188      1.95314158477943      0.76761197186982
  N   2.94611925683281      1.59817596642576     -0.01569964009417
  N   3.79684024020604      1.01679076700612     -0.41540724645007
