14
Coordinates from ORCA-job 4-NO2-C6H3-N2-B3LYPG-aug-cc-pVDZ-scan-d09-49-n400
  C   -2.37252194364723     -0.31661389828367     -0.69049289662114
  C   -0.99240559187984     -0.25187424587263     -0.76147131956078
  C   -0.26351754084756      0.65636165816127     -0.30155196012281
  C   -0.64137923846655      1.80350153165933      0.38075478272329
  C   -2.04355113035107      1.84767914640997      0.51555379000372
  C   -2.86023821098053      0.82149505365005     -0.00431203827531
  H   -3.03725482184073     -1.08429290259068     -1.07526634652955
  H   0.01177171986730      2.57968322039076      0.77144556682594
  H   -2.51999155275317      2.68118220769647      1.02729929542030
  N   -4.32470386366814      0.93550478798407      0.17571122307813
  O   -5.02461902811709      0.04570971459303     -0.30055694321329
  O   -4.75929746340748      1.92949665192668      0.75145060771048
  N   2.84613134442747      1.51665931477136     -0.05532163775659
  N   3.70107732166459      0.93890775950399     -0.45384212368238
