14
Coordinates from ORCA-job 4-NO2-C6H3-N2-B3LYPG-aug-cc-pVDZ-scan-d09-49-n400
  C   -2.34134806231704     -0.30315182866232     -0.69293887021688
  C   -0.96099529026270     -0.22652244396058     -0.75231404499620
  C   -0.24624394100099      0.68934912698889     -0.28551205201070
  C   -0.63979800272343      1.83288090256058      0.39328384521698
  C   -2.04339188389367      1.86421483215980      0.51567950407646
  C   -2.84586120337185      0.83070804427305     -0.01174231335099
  H   -2.99567208045774     -1.07679087983937     -1.08365531292031
  H   0.00323513821612      2.61469725844116      0.78937499829946
  H   -2.53207783334451      2.69341045838948      1.02292474313149
  N   -4.31289845364993      0.93181114593684      0.15440135695689
  O   -4.99752150163905      0.01416105392620     -0.29020624115955
  O   -4.75902018867977      1.90083940409265      0.76297214074351
  N   2.76600882371117      1.45643992954386     -0.07459263707241
  N   3.62508447941334      0.88135299614977     -0.46827511669775
