14
Coordinates from ORCA-job 4-NO2-C6H3-N2-B3LYPG-aug-cc-pVDZ-scan-d09-49-n400
  C   -2.42980786869512     -0.33311562459223     -0.70228064462251
  C   -1.04960516298282     -0.29890452895533     -0.78617927804129
  C   -0.29597494964606      0.59367654408538     -0.33593171977377
  C   -0.64016660722921      1.75087429870646      0.34678764917191
  C   -2.03998747274004      1.82650058410156      0.49445114909029
  C   -2.88480675118228      0.81802769888416     -0.01507283548991
  H   -3.11532701234749     -1.08646713240609     -1.07874881288580
  H   0.03063003220880      2.51542024241802      0.73061328682714
  H   -2.49271958525412      2.67196018145125      1.00815394991816
  N   -4.34461130567797      0.96615984578959      0.17768808830916
  O   -5.06636766584554      0.07126364313138     -0.25437816133262
  O   -4.74860611046002      1.95176858854976      0.78898780012680
  N   2.96842231974548      1.61367722085343     -0.00164539189542
  N   3.82842814010637      1.04255843798266     -0.39304507940214
