14
Coordinates from ORCA-job 4-NO2-C6H3-N2-B3LYPG-aug-cc-pVDZ-scan-d09-49-n400
  C   -2.64283383405436     -0.40204865457298     -0.72262366735626
  C   -1.27124991018190     -0.49031804502075     -0.87654924407319
  C   -0.41884672943448      0.33336335698593     -0.47342796565040
  C   -0.62408804711590      1.52030579127782      0.21597684845542
  C   -2.00250194793308      1.71944652540401      0.43334564342037
  C   -2.95827911009572      0.78770676623953     -0.02338523378181
  H   -3.41052667579017     -1.09340078969045     -1.05707555466559
  H   0.12971491066223      2.22480444292261      0.55889605875579
  H   -2.35204454403998      2.60387976105414      0.96188611307017
  N   -4.38736742144604      1.06557128202890      0.24233594850458
  O   -5.20767535344315      0.24238988954146     -0.15507286217078
  O   -4.67162466649515      2.09191494854774      0.85399450806750
  N   3.27363911415334      1.94401128511488      0.15981423201667
  N   4.26318421521436      1.55577344016718     -0.13871482459245
