14
Coordinates from ORCA-job 4-NO2-C6H3-N2-B3LYPG-aug-cc-pVDZ-scan-d09-49-n400
  C   -1.99105289508736     -0.18488031826536     -0.64742459283359
  C   -0.57238279699606     -0.18988294184470     -0.75925716544751
  C   -0.05102902753448      0.90089989207234     -0.17988677483947
  C   -0.58304404152103      2.00671488392471      0.48884384636652
  C   -1.96809360002220      1.96985217020818      0.57428759803394
  C   -2.63889067952979      0.86919723251613      0.00064406254503
  H   -2.59679172391950     -0.99187524996304     -1.05891415155555
  H   0.01198549816664      2.81960244266485      0.90477693303313
  H   -2.53371211472319      2.75662782638811      1.06469320968383
  N   -4.12308853762883      0.85085179036748      0.10423371051649
  O   -4.71944287762097     -0.09562076205384     -0.39749481095508
  O   -4.66661046961896      1.78869130796792      0.68439623323502
  N   1.54688678888350      0.92881085414690     -0.28713941692043
  N   2.60476647715222      0.67441087187033     -0.51235868086232
