14
Coordinates from ORCA-job 4-NO2-C6H3-N2-B3LYPG-aug-cc-pVDZ-scan-d09-49-n400
  C   -2.50448435292273     -0.35868484501668     -0.70817510234366
  C   -1.12553829589502     -0.36446710605031     -0.81630980032639
  C   -0.33939009807279      0.50715662444579     -0.38082330074841
  C   -0.63719794376086      1.67531074293168      0.30560807227305
  C   -2.03172501390606      1.79054885321758      0.47710772654773
  C   -2.91399372135413      0.80599424434225     -0.01529285651460
  H   -3.21787436463020     -1.09261746195286     -1.07097307106732
  H   0.06155855862343      2.42108295466475      0.67626566201463
  H   -2.45119856222248      2.64935024456213      0.99697286229525
  N   -4.36527724927493      0.99632881142286      0.20311353471665
  O   -5.12127316461827      0.13003988021602     -0.22870052928155
  O   -4.73121756949177      2.00228210433513      0.80517475536398
  N   3.09290506019983      1.72409802368688      0.04892770441348
  N   4.00420671732598      1.21697692919480     -0.31349565734285
