14
Coordinates from ORCA-job 4-NO2-C6H3-N2-B3LYPG-aug-cc-pVDZ-scan-d09-49-n400
  C   -2.76030919233298     -0.43688033212717     -0.73287707706061
  C   -1.40251660597634     -0.60424139166493     -0.93167296866702
  C   -0.48643327134357      0.16599010990690     -0.56413609538297
  C   -0.60041651782076      1.36579615478575      0.12607431956235
  C   -1.95635858548972      1.64643489681307      0.38902865491833
  C   -2.98085868927181      0.77169025826671     -0.02960046866530
  H   -3.57790796822718     -1.08325817960251     -1.03758037464689
  H   0.20296459726435      2.02763681190942      0.44063924283952
  H   -2.23461532509867      2.55176900537505      0.92450146799024
  N   -4.38109481299335      1.13436509567165      0.28328596060676
  O   -5.26195992212828      0.36187403419483     -0.08523116832073
  O   -4.58342905614063      2.17981175583846      0.89515206080533
  N   3.34579246976905      2.13874968701044      0.26238956700290
  N   4.39664287978985      1.88366209362233      0.03942687901809
