14
Coordinates from ORCA-job 4-NO2-C6H3-N2-B3LYPG-aug-cc-pVDZ-scan-d09-49-n400
  C   -2.51440341959719     -0.36118276153791     -0.71016043265986
  C   -1.13570503490190     -0.37276237410714     -0.82054237970540
  C   -0.34488007820188      0.49566525292895     -0.38708712369082
  C   -0.63697051210819      1.66553024642829      0.29908084666681
  C   -2.03064014276453      1.78683384919175      0.47285707310172
  C   -2.91787560458452      0.80570744632110     -0.01750242237496
  H   -3.23144635383311     -1.09234676926277     -1.07133333377124
  H   0.06584267064265      2.40839783815273      0.66793400408275
  H   -2.44559302451860      2.64777068084307      0.99280455694002
  N   -4.36799846756463      1.00236411234895      0.20297453575810
  O   -5.12767771699719      0.13455885696213     -0.21922271128223
  O   -4.72807244093313      2.00592388019280      0.81251784728567
  N   3.10864534001975      1.73799522129662      0.05735833292612
  N   4.02627478534247      1.23894452024144     -0.30027879327668
