14
Coordinates from ORCA-job 4-NO2-C6H3-N2-B3LYPG-aug-cc-pVDZ-scan-d09-49-n400
  C   -2.47181384796814     -0.34846957041597     -0.70388597248662
  C   -1.09218209155966     -0.33610976339048     -0.80261578207241
  C   -0.32032532641231      0.54507324388930     -0.36077751087116
  C   -0.63879477066388      1.70796580348321      0.32482619715025
  C   -2.03569780408176      1.80532103788208      0.48726258485405
  C   -2.90145916201815      0.80975951180339     -0.01236308732379
  H   -3.17299650025547     -1.09126068617709     -1.07242133840952
  H   0.04727430856613      2.46258274351549      0.70130510444577
  H   -2.46967939445056      2.65793136142271      1.00532411061991
  N   -4.35660249805921      0.98041583028644      0.19631508014055
  O   -5.09851182148969      0.10806041941124     -0.24754338809451
  O   -4.74035953370443      1.98381525842314      0.79150456222988
  N   3.04024213446551      1.67622650652334      0.02417646676549
  N   3.93040630763158      1.14208830334321     -0.35170702694789
