14
Coordinates from ORCA-job 4-NO2-C6H3-N2-B3LYPG-aug-cc-pVDZ-scan-d09-49-n400
  C   -2.35122195739698     -0.30996323292894     -0.68778978686221
  C   -0.97109823392600     -0.23559305954636     -0.75365166906040
  C   -0.25187578841881      0.67832406155929     -0.28987889249472
  C   -0.64040994511167      1.82219764136293      0.39157266525389
  C   -2.04336100217739      1.85601857104041      0.52083882795942
  C   -2.85026036652600      0.82411159687098     -0.00286550471774
  H   -3.00881415692201     -1.08227060894167     -1.07561607049199
  H   0.00581815651486      2.60264670230393      0.78509312340886
  H   -2.52802945584040      2.68569976051886      1.03114163141401
  N   -4.31621553873337      0.92721111946861      0.17142515718878
  O   -5.00771170216545      0.03383948143541     -0.31042373170933
  O   -4.76063654723666      1.91886022735326      0.74370405933815
  N   2.79284119711431      1.47883912009963     -0.07324083144092
  N   3.65047534082556      0.90347861940367     -0.47090897778579
