14
Coordinates from ORCA-job 4-NO2-C6H3-N2-B3LYPG-aug-cc-pVDZ-scan-d09-49-n400
  C   -2.70693917124387     -0.42168375813714     -0.72828990622734
  C   -1.34203994937790     -0.55108145060679     -0.90587462254628
  C   -0.45397542732042      0.24367468325517     -0.52211922558960
  C   -0.61182851468166      1.43811559975859      0.16841684091528
  C   -1.97908278852939      1.68048116810723      0.41032877421684
  C   -2.97208928647944      0.77863392956607     -0.02626835009043
  H   -3.50138944249479     -1.08971310989695     -1.04720291968423
  H   0.16798773091415      2.12098216936480      0.49684456017906
  H   -2.29085554080434      2.57646791753756      0.94305626924061
  N   -4.38664622170959      1.10157364081926      0.26498220862929
  O   -5.23976594229128      0.30599983137995     -0.11936701994696
  O   -4.62765663943174      2.13963709232529      0.87539696734785
  N   3.31983250734286      2.05034030034960      0.21475837855635
  N   4.34394868610738      1.72997198617736     -0.04526195500044
