14
Coordinates from ORCA-job 4-NO2-C6H3-N2-B3LYPG-aug-cc-pVDZ-scan-d09-49-n400
  C   -2.95086985673238     -0.47972158896942     -0.74260155462825
  C   -1.63861858902111     -0.80710052574906     -1.02854374218626
  C   -0.61528518750364     -0.14896618675614     -0.73293444165677
  C   -0.54201257022060      1.05935714636228     -0.05248767394951
  C   -1.83437636668124      1.50011359268366      0.29628502596505
  C   -2.98026082857570      0.75016114231080     -0.04216177035489
  H   -3.85731704285583     -1.02669966915228     -0.98404211551493
  H   0.35225019292559      1.62451398247436      0.20019043228886
  H   -1.96708693564848      2.43479333654305      0.83703986305136
  N   -4.30401882174951      1.27704445364181      0.35781444036181
  O   -5.29221275819876      0.61150970102359      0.05944649322128
  O   -4.34054334998845      2.34175778591874      0.96884193997906
  N   3.29435248741003      2.44990735279438      0.44381272389797
  N   4.39549962684001      2.51672947687423      0.39874037952523
