14
Coordinates from ORCA-job 4-NO2-C6H3-N2-B3LYPG-aug-cc-pVDZ-scan-d09-49-n400
  C   -2.69602457062899     -0.41813016553171     -0.72778437618431
  C   -1.32986265030250     -0.54043441357330     -0.90065513418287
  C   -0.44732662930456      0.25898963085027     -0.51380454526574
  C   -0.61396246786973      1.45254688265550      0.17616864936378
  C   -1.98324116704780      1.68786000787308      0.41334819458009
  C   -2.96993668686918      0.78080672977596     -0.02679267553265
  H   -3.48585971055802     -1.09028614693385     -1.04948330220135
  H   0.16160959208586      2.13904910552228      0.50703992626905
  H   -2.30154628772141      2.58221032037341      0.94494615293022
  N   -4.38720619678421      1.09635104340559      0.25934963148330
  O   -5.23433263402321      0.29327992870133     -0.12264937016192
  O   -4.63538231058474      2.13016352293082      0.87409122043274
  N   3.31203252110415      2.03185790817771      0.20603972758718
  N   4.33053919850431      1.69913564577290     -0.06041409911753
