14
Coordinates from ORCA-job 4-NO2-C6H3-N2-B3LYPG-aug-cc-pVDZ-scan-d09-49-n400
  C   -2.65305187871491     -0.40546474645701     -0.72323344577047
  C   -1.28232816773607     -0.50005448663519     -0.88121110272010
  C   -0.42509102286980      0.31981132958995     -0.48065636767782
  C   -0.62255162224402      1.50784507188203      0.20924211310917
  C   -1.99945819482766      1.71315863858368      0.43057810399537
  C   -2.96089296175484      0.78577541971740     -0.02315169891838
  H   -3.42492029872307     -1.09330846240311     -1.05529858123233
  H   0.13516678014310      2.20917425703705      0.55001577974023
  H   -2.34343089920699      2.59921841714592      0.96006576802354
  N   -4.38787217521858      1.07025918422794      0.24690929510314
  O   -5.21349123441574      0.25300421484421     -0.15173293008030
  O   -4.66584594355973      2.10006832651626      0.85563197535051
  N   3.28436786704727      1.96143458752859      0.16804730326890
  N   4.27889975208100      1.58247824842227     -0.12580621219146
