14
Coordinates from ORCA-job 4-NO2-C6H3-N2-B3LYPG-aug-cc-pVDZ-scan-d09-49-n400
  C   -2.46192887454352     -0.34523079474681     -0.70288124200704
  C   -1.08212580446813     -0.32754323905745     -0.79859555417233
  C   -0.31476697082956      0.55655300110267     -0.35476233159100
  C   -0.63917693691779      1.71796798507435      0.33044762300603
  C   -2.03680899838262      1.80988454619256      0.48984901107527
  C   -2.89759645338472      0.81112374125273     -0.01197453331427
  H   -3.15942429109770     -1.09061737496393     -1.07317345933435
  H   0.04314833770389      2.47510870906010      0.70863916148935
  H   -2.47522679663396      2.66065567800158      1.00719755783560
  N   -4.35384606330535      0.97608456084959      0.19354080750699
  O   -5.09137146343821      0.10083142382691     -0.25191725437763
  O   -4.74277561039988      1.97763133885136      0.78849354096809
  N   3.02403359644925      1.66179262656504      0.01717211970418
  N   3.90736632924828      1.11915779799133     -0.36263544678888
