14
Coordinates from ORCA-job 4-NO2-C6H3-N2-B3LYPG-aug-cc-pVDZ-scan-d09-49-n400
  C   -2.69977729115384     -0.41954405234812     -0.72739660669167
  C   -1.33411781774907     -0.54418446248830     -0.90254465911872
  C   -0.44946352343696      0.25354020945961     -0.51681442853089
  C   -0.61350800058392      1.44675904266650      0.17374076372383
  C   -1.98177195817532      1.68484487240179      0.41356289394364
  C   -2.97061044848293      0.77954682432102     -0.02530758844989
  H   -3.49126378841659     -1.09024787897220     -1.04807125850226
  H   0.16442372302899      2.13130902233027      0.50326890423573
  H   -2.29747811222208      2.57954990322290      0.94607699412775
  N   -4.38685764675390      1.09711807430244      0.26335741004525
  O   -5.23644579614086      0.29962669383155     -0.12482884401609
  O   -4.63295651169564      2.13504464681557      0.87195966626547
  N   3.31428456967806      2.03876437847064      0.20835562425433
  N   4.33504260210403      1.71127272598634     -0.05595887128647
