14
Coordinates from ORCA-job 4-NO2-C6H3-N2-B3LYPG-aug-cc-pVDZ-scan-d09-49-n400
  C   -2.61884051734878     -0.39486907924355     -0.71959869083050
  C   -1.24548641718061     -0.46781466114420     -0.86569032127229
  C   -0.40452183471947      0.36475197247553     -0.45663482499683
  C   -0.62744103094501      1.54819714448392      0.23287194933495
  C   -2.00907663965604      1.73214654976935      0.44267956103923
  C   -2.95163138964653      0.79034591546331     -0.02068165593141
  H   -3.37684221466532     -1.09433083486105     -1.05928774183329
  H   0.11708421417133      2.26009838439988      0.58069700282643
  H   -2.37135404744185      2.61198470697091      0.97030299227107
  N   -4.38519088476280      1.05172854730735      0.23713984911303
  O   -5.19432291558895      0.22318104092957     -0.17185033777169
  O   -4.68493101066148      2.07727166893162      0.84270496735635
  N   3.24732252316402      1.90484355214588      0.13865192560899
  N   4.22473216528148      1.49586509237148     -0.17190467491404
