14
Coordinates from ORCA-job 4-NO2-C6H3-N2-B3LYPG-aug-cc-pVDZ-scan-d09-49-n400
  C   -2.60856431154163     -0.39153446240993     -0.71849712444513
  C   -1.23446685921086     -0.45823071484700     -0.86108831093824
  C   -0.39825213170348      0.37799456143954     -0.44957908783035
  C   -0.62896997207106      1.55986806721929      0.23962319543131
  C   -2.01183976546932      1.73779921618669      0.44608606814018
  C   -2.94882838548119      0.79188100840977     -0.02006664694551
  H   -3.36241899696329     -1.09435833669419     -1.06045974993916
  H   0.11175587666197      2.27462431425391      0.58936746147393
  H   -2.37935437040281      2.61583688914106      0.97305578209997
  N   -4.38430421708208      1.04649365454264      0.23402353364345
  O   -5.18846398755571      0.21424568802812     -0.17725423830782
  O   -4.69041898937657      2.07034067209781      0.83925993223064
  N   3.23571286157051      1.88807100494193      0.13009214953341
  N   4.20791324862552      1.47036843769035     -0.18516296414667
