14
Coordinates from ORCA-job 4-NO2-C6H3-N2-B3LYPG-aug-cc-pVDZ-scan-d09-49-n400
  C   -2.77924182003902     -0.44188313547287     -0.73404460430776
  C   -1.42443085355440     -0.62311257586944     -0.94080738924421
  C   -0.49821097304947      0.13794726616845     -0.57923969185274
  C   -0.59712730462565      1.33871111561413      0.11068212253665
  C   -1.94812212647318      1.63405098184119      0.38196668279338
  C   -2.98365376095643      0.76927283124956     -0.03014077062903
  H   -3.60506919226690     -1.08019740923567     -1.03352429742795
  H   0.21628763871212      1.99119642065838      0.41916375656836
  H   -2.21370753539885      2.54249699699011      0.91853095731820
  N   -4.37834852891084      1.14589132682673      0.29068078158019
  O   -5.26910300943770      0.38311868467989     -0.07428030785884
  O   -4.56685701168159      2.19478915370332      0.90103894495558
  N   3.35369061881810      2.17000032426431      0.27923451365193
  N   4.41339385886377      1.94111801858190      0.07013930191624
