14
Coordinates from ORCA-job 4-NO2-C6H3-N2-B3LYPG-aug-cc-pVDZ-scan-d09-49-n400
  C   -2.78992206799564     -0.44473987344817     -0.73485501343161
  C   -1.43678646987917     -0.63361945030338     -0.94582641211837
  C   -0.50531819685283      0.12250097679327     -0.58745646292960
  C   -0.59511655873933      1.32410857808314      0.10224764816317
  C   -1.94365814704903      1.62695359818588      0.37760172817719
  C   -2.98533267233855      0.76783346010258     -0.03082920618255
  H   -3.62023248836128     -1.07856847526413     -1.03145462779959
  H   0.22243835144403      1.97263404551764      0.40816563697798
  H   -2.20252152233075      2.53708663931492      0.91460649357464
  N   -4.37684969415398      1.15242115456346      0.29427337274679
  O   -5.27302232356880      0.39450056217822     -0.06753016130600
  O   -4.55754501541550      2.20261579062599      0.90476447038614
  N   3.35974535079712      2.18761155202849      0.28882456433442
  N   4.42362145444366      1.97206144162210      0.08686796940739
