14
Coordinates from ORCA-job 4-NO2-C6H3-N2-B3LYPG-aug-cc-pVDZ-scan-d09-49-n400
  C   -2.49810073114293     -0.35656849888178     -0.70710662503350
  C   -1.11900560915384     -0.35874526646876     -0.81348885027341
  C   -0.33513409482271      0.51451295535117     -0.37694261839427
  C   -0.63792740246652      1.68142239480297      0.30937808089416
  C   -2.03274914309811      1.79349886107899      0.47941083700480
  C   -2.91170383721972      0.80674988492753     -0.01440195592987
  H   -3.20905562678778     -1.09230291826596     -1.07104900196200
  H   0.05905641482520      2.42844840592879      0.68083889461841
  H   -2.45489903096865      2.65111446782345      0.99901788227634
  N   -4.36376475927056      0.99298006645189      0.20213085672292
  O   -5.11696759388117      0.12595422750042     -0.23307783445435
  O   -4.73339478259578      1.99891135867508      0.80195678703778
  N   3.08278426052332      1.71467827415042      0.04386269514271
  N   3.99036193605924      1.20274578692580     -0.32112914764972
