14
Coordinates from ORCA-job 4-NO2-C6H3-N2-B3LYPG-aug-cc-pVDZ-scan-d09-49-n400
  C   -2.55759985421867     -0.37556735158999     -0.71332057637767
  C   -1.18065448938576     -0.41143721672124     -0.83858501192662
  C   -0.36921816817905      0.44281042578822     -0.41490996777445
  C   -0.63414138362574      1.61813462592004      0.27322918038902
  C   -2.02329150266479      1.76446742005040      0.46219419703445
  C   -2.93290743865978      0.79868972162602     -0.01737183927357
  H   -3.29125787412785     -1.09434362760195     -1.06590161203752
  H   0.08591027980144      2.34865045624007      0.63355141512028
  H   -2.41716410643779      2.63303227824175      0.98582316390501
  N   -4.37679863686748      1.02080787353966      0.21886803675217
  O   -5.15695754092559      0.17171470349921     -0.20404099656944
  O   -4.71332751378131      2.03654586343104      0.82163955251221
  N   3.17154567434933      1.80578766878553      0.08872623288406
  N   4.11536255472304      1.34410715879125     -0.25050177463792
