14
Coordinates from ORCA-job 4-NO2-C6H3-N2-B3LYPG-aug-cc-pVDZ-scan-d09-49-n400
  C   -2.53754068994520     -0.36915768398977     -0.71121895463323
  C   -1.15973381531746     -0.39336300636358     -0.82991509224569
  C   -0.35772556040532      0.46751211921123     -0.40174763432639
  C   -0.63580527535475      1.64005514723667      0.28582326450944
  C   -2.02703488372892      1.77454823292993      0.46821315501677
  C   -2.92611404018429      0.80141889857365     -0.01633671652315
  H   -3.26340799178318     -1.09386144944778     -1.06778053561786
  H   0.07645135771935      2.37626319036420      0.64998308580476
  H   -2.43075434436918      2.63940810719995      0.99047366358720
  N   -4.37294809151558      1.01114953208249      0.21308124442072
  O   -5.14384077612866      0.15576896738238     -0.21412211720509
  O   -4.72095938993445      2.02359312096241      0.81487488147021
  N   3.14344914808612      1.77433057211986      0.07317868776720
  N   4.07546435286151      1.29573425173837     -0.27510693202489
