14
Coordinates from ORCA-job 4-NO2-C6H3-N2-B3LYPG-aug-cc-pVDZ-scan-d09-49-n400
  C   -2.81105178632838     -0.45016432478458     -0.73632911884910
  C   -1.46143643115818     -0.65428416115029     -0.95566610943178
  C   -0.51952645610720      0.09185393022654     -0.60374594105869
  C   -0.59150908055391      1.29495328496725      0.08544013342791
  C   -1.93488188866665      1.61289958284319      0.36895976784397
  C   -2.98857273452310      0.76506373183127     -0.03216025010944
  H   -3.65019108987652     -1.07498293496107     -1.02714781789682
  H   0.23484407596846      1.93490378116104      0.38582677160171
  H   -2.18025165334589      2.52628344012630      0.90678155655886
  N   -4.37364851832744      1.16535630200663      0.30135983529798
  O   -5.28045618162156      0.41716009172193     -0.05413422248666
  O   -4.53881601157879      2.21798797528612      0.91205675091710
  N   3.37170594191925      2.22252773641530      0.30786729380521
  N   4.44329181419987      2.03384156431038      0.12029135037976
