14
Coordinates from ORCA-job 4-NO2-C6H3-N2-B3LYPG-aug-cc-pVDZ-scan-d09-49-n400
  C   -1.98592387280700     -0.20301026796141     -0.62686515750089
  C   -0.56394609909879     -0.25836455134470     -0.76872377446016
  C   0.01123280711495      0.87667667741851     -0.19011926317664
  C   -0.56819472545958      1.99364577962446      0.46984784559512
  C   -1.94326053674195      1.97156460219226      0.55656070708447
  C   -2.62134941299230      0.86524286853276     -0.00638677084418
  H   -2.60569162408918     -1.01315415370727     -1.01174341450106
  H   0.02330115087129      2.81144719799252      0.88210422257955
  H   -2.50460824799602      2.76626947890408      1.03889424537580
  N   -4.10931698652164      0.86477748123897      0.09901192279110
  O   -4.72457842404972     -0.00323282226867     -0.50817275357502
  O   -4.62867929441976      1.73521507358254      0.79455144276992
  N   1.41732556404874      0.88001252693847     -0.31094218602105
  N   2.52318970214095      0.81631010885745     -0.43861706611694
