Coordinates from ORCA-job CH3-N2+-scan-d09-169-n800
 OpenBabel09191813373D

  6  4  0  0  0  0  0  0  0  0999 V2000
   -1.8194    4.6911    0.0411 C   0  0  0  0  0  0  0  0  0  0  0  0
   -1.2025    4.2504    0.8378 H   0  0  0  0  0  0  0  0  0  0  0  0
   -1.3415    5.1365   -0.8437 H   0  0  0  0  0  0  0  0  0  0  0  0
   -2.9156    4.6858    0.1302 H   0  0  0  0  0  0  0  0  0  0  0  0
    3.6770  -10.7597    0.0781 N   0  0  0  0  0  0  0  0  0  0  0  0
    4.0436  -11.8016    0.0926 N   0  0  0  0  0  0  0  0  0  0  0  0
  1  4  1  0  0  0  0
  1  2  1  0  0  0  0
  3  1  1  0  0  0  0
  5  6  3  0  0  0  0
M  RAD  1   1   2
M  END
