Coordinates from ORCA-job CH3-N2+-scan-d09-169-n800
 OpenBabel09191813373D

  6  4  0  0  0  0  0  0  0  0999 V2000
   -1.6438    4.2293    0.0546 C   0  0  0  0  0  0  0  0  0  0  0  0
   -1.1190    4.3946    1.0071 H   0  0  0  0  0  0  0  0  0  0  0  0
   -1.1454    4.4657   -0.8970 H   0  0  0  0  0  0  0  0  0  0  0  0
   -2.6679    3.8272    0.0539 H   0  0  0  0  0  0  0  0  0  0  0  0
    3.3265   -9.8359    0.0586 N   0  0  0  0  0  0  0  0  0  0  0  0
    3.6913  -10.8785    0.0589 N   0  0  0  0  0  0  0  0  0  0  0  0
  1  2  1  0  0  0  0
  3  1  1  0  0  0  0
  4  1  1  0  0  0  0
  5  6  3  0  0  0  0
M  RAD  1   1   2
M  END
