Coordinates from ORCA-job CH3-N2+-scan-d09-169-n800
 OpenBabel09191813373D

  6  4  0  0  0  0  0  0  0  0999 V2000
   -1.6572    4.2670    0.0544 C   0  0  0  0  0  0  0  0  0  0  0  0
   -1.1301    4.4263    1.0067 H   0  0  0  0  0  0  0  0  0  0  0  0
   -1.1610    4.5094   -0.8969 H   0  0  0  0  0  0  0  0  0  0  0  0
   -2.6813    3.8652    0.0536 H   0  0  0  0  0  0  0  0  0  0  0  0
    3.3531   -9.9114    0.0590 N   0  0  0  0  0  0  0  0  0  0  0  0
    3.7180  -10.9540    0.0593 N   0  0  0  0  0  0  0  0  0  0  0  0
  1  2  1  0  0  0  0
  3  1  1  0  0  0  0
  4  1  1  0  0  0  0
  5  6  3  0  0  0  0
M  RAD  1   1   2
M  END
