Coordinates from ORCA-job CH3-N2+-scan-d09-169-n800
 OpenBabel09191813373D

  6  4  0  0  0  0  0  0  0  0999 V2000
   -1.3259    3.3292    0.0559 C   0  0  0  0  0  0  0  0  0  0  0  0
   -0.8130    3.5270    1.0090 H   0  0  0  0  0  0  0  0  0  0  0  0
   -0.8154    3.5335   -0.8972 H   0  0  0  0  0  0  0  0  0  0  0  0
   -2.3501    2.9270    0.0558 H   0  0  0  0  0  0  0  0  0  0  0  0
    2.6904   -8.0360    0.0563 N   0  0  0  0  0  0  0  0  0  0  0  0
    3.0555   -9.0784    0.0563 N   0  0  0  0  0  0  0  0  0  0  0  0
  1  2  1  0  0  0  0
  3  1  1  0  0  0  0
  4  1  1  0  0  0  0
  5  6  3  0  0  0  0
M  RAD  1   1   2
M  END
