Coordinates from ORCA-job CH3-N2+-scan-d09-169-n800
 OpenBabel09191813373D

  6  4  0  0  0  0  0  0  0  0999 V2000
   -1.3614    3.4299    0.0558 C   0  0  0  0  0  0  0  0  0  0  0  0
   -0.8482    3.6269    1.0089 H   0  0  0  0  0  0  0  0  0  0  0  0
   -0.8513    3.6352   -0.8971 H   0  0  0  0  0  0  0  0  0  0  0  0
   -2.3856    3.0276    0.0557 H   0  0  0  0  0  0  0  0  0  0  0  0
    2.7616   -8.2374    0.0563 N   0  0  0  0  0  0  0  0  0  0  0  0
    3.1266   -9.2798    0.0564 N   0  0  0  0  0  0  0  0  0  0  0  0
  1  2  1  0  0  0  0
  3  1  1  0  0  0  0
  4  1  1  0  0  0  0
  5  6  3  0  0  0  0
M  RAD  1   1   2
M  END
