Coordinates from ORCA-job CH3-N2+-scan-d09-169-n800
 OpenBabel09191813373D

  6  4  0  0  0  0  0  0  0  0999 V2000
   -1.7816    4.5841    0.0412 C   0  0  0  0  0  0  0  0  0  0  0  0
   -1.1662    4.1345    0.8342 H   0  0  0  0  0  0  0  0  0  0  0  0
   -1.3024    5.0297   -0.8427 H   0  0  0  0  0  0  0  0  0  0  0  0
   -2.8776    4.5875    0.1333 H   0  0  0  0  0  0  0  0  0  0  0  0
    3.6008  -10.5459    0.0778 N   0  0  0  0  0  0  0  0  0  0  0  0
    3.9686  -11.5875    0.0923 N   0  0  0  0  0  0  0  0  0  0  0  0
  1  4  1  0  0  0  0
  1  2  1  0  0  0  0
  3  1  1  0  0  0  0
  5  6  3  0  0  0  0
M  RAD  1   1   2
M  END
