Coordinates from ORCA-job CH3-N2+-scan-d09-169-n800
 OpenBabel09191813373D

  6  4  0  0  0  0  0  0  0  0999 V2000
   -1.0769    2.6243    0.0560 C   0  0  0  0  0  0  0  0  0  0  0  0
   -0.5644    2.8237    1.0094 H   0  0  0  0  0  0  0  0  0  0  0  0
   -0.5649    2.8250   -0.8974 H   0  0  0  0  0  0  0  0  0  0  0  0
   -2.1023    2.2239    0.0560 H   0  0  0  0  0  0  0  0  0  0  0  0
    2.1923   -6.6262    0.0560 N   0  0  0  0  0  0  0  0  0  0  0  0
    2.5578   -7.6684    0.0560 N   0  0  0  0  0  0  0  0  0  0  0  0
  1  2  1  0  0  0  0
  3  1  1  0  0  0  0
  4  1  1  0  0  0  0
  5  6  3  0  0  0  0
M  RAD  1   1   2
M  END
