Coordinates from ORCA-job CH3-N2+-scan-d09-169-n800
 OpenBabel09191813373D

  6  4  0  0  0  0  0  0  0  0999 V2000
   -0.8838    2.0766    0.0560 C   0  0  0  0  0  0  0  0  0  0  0  0
   -0.3699    2.2729    1.0097 H   0  0  0  0  0  0  0  0  0  0  0  0
   -0.3700    2.2732   -0.8976 H   0  0  0  0  0  0  0  0  0  0  0  0
   -1.9122    1.6834    0.0560 H   0  0  0  0  0  0  0  0  0  0  0  0
    1.8059   -5.5309    0.0560 N   0  0  0  0  0  0  0  0  0  0  0  0
    2.1716   -6.5729    0.0560 N   0  0  0  0  0  0  0  0  0  0  0  0
  1  2  1  0  0  0  0
  3  1  1  0  0  0  0
  4  1  1  0  0  0  0
  5  6  3  0  0  0  0
M  RAD  1   1   2
M  END
