Coordinates from ORCA-job CH3-N2+-scan-d09-169-n800
 OpenBabel09191813373D

  6  5  0  0  0  0  0  0  0  0999 V2000
   -0.0709   -0.2258    0.0560 C   0  0  0  0  0  0  0  0  0  0  0  0
    0.2966    0.2984    0.9563 H   0  0  0  0  0  0  0  0  0  0  0  0
    0.2966    0.2985   -0.8443 H   0  0  0  0  0  0  0  0  0  0  0  0
   -1.1757   -0.2222    0.0560 H   0  0  0  0  0  0  0  0  0  0  0  0
    0.3632   -1.4517    0.0560 N   0  0  0  0  0  0  0  0  0  0  0  0
    0.7318   -2.4949    0.0560 N   0  0  0  0  0  0  0  0  0  0  0  0
  1  2  1  0  0  0  0
  3  1  1  0  0  0  0
  4  1  1  0  0  0  0
  5  1  1  0  0  0  0
  6  5  1  0  0  0  0
M  RAD  2   5   2   6   3
M  END
