Coordinates from ORCA-job CH3-N2+-scan-d09-169-n800
 OpenBabel09191813373D

  6  4  0  0  0  0  0  0  0  0999 V2000
   -1.2125    3.0082    0.0560 C   0  0  0  0  0  0  0  0  0  0  0  0
   -0.7001    3.2075    1.0092 H   0  0  0  0  0  0  0  0  0  0  0  0
   -0.7011    3.2105   -0.8972 H   0  0  0  0  0  0  0  0  0  0  0  0
   -2.2371    2.6066    0.0559 H   0  0  0  0  0  0  0  0  0  0  0  0
    2.4635   -7.3940    0.0561 N   0  0  0  0  0  0  0  0  0  0  0  0
    2.8289   -8.4363    0.0561 N   0  0  0  0  0  0  0  0  0  0  0  0
  1  2  1  0  0  0  0
  3  1  1  0  0  0  0
  4  1  1  0  0  0  0
  5  6  3  0  0  0  0
M  RAD  1   1   2
M  END
