Coordinates from ORCA-job CH3-N2+-scan-d09-169-n800
 OpenBabel09191813373D

  6  4  0  0  0  0  0  0  0  0999 V2000
   -1.8016    4.6408    0.0411 C   0  0  0  0  0  0  0  0  0  0  0  0
   -1.1853    4.1963    0.8363 H   0  0  0  0  0  0  0  0  0  0  0  0
   -1.3231    5.0862   -0.8433 H   0  0  0  0  0  0  0  0  0  0  0  0
   -2.8978    4.6391    0.1315 H   0  0  0  0  0  0  0  0  0  0  0  0
    3.6411  -10.6591    0.0779 N   0  0  0  0  0  0  0  0  0  0  0  0
    4.0083  -11.7009    0.0925 N   0  0  0  0  0  0  0  0  0  0  0  0
  1  4  1  0  0  0  0
  1  2  1  0  0  0  0
  3  1  1  0  0  0  0
  5  6  3  0  0  0  0
M  RAD  1   1   2
M  END
