Coordinates from ORCA-job CH3-N2+-scan-d09-169-n800
 OpenBabel09191813373D

  6  4  0  0  0  0  0  0  0  0999 V2000
   -1.6706    4.3048    0.0542 C   0  0  0  0  0  0  0  0  0  0  0  0
   -1.1407    4.4567    1.0061 H   0  0  0  0  0  0  0  0  0  0  0  0
   -1.1769    4.5540   -0.8967 H   0  0  0  0  0  0  0  0  0  0  0  0
   -2.6947    3.9033    0.0532 H   0  0  0  0  0  0  0  0  0  0  0  0
    3.3798   -9.9869    0.0594 N   0  0  0  0  0  0  0  0  0  0  0  0
    3.7447  -11.0296    0.0598 N   0  0  0  0  0  0  0  0  0  0  0  0
  1  2  1  0  0  0  0
  3  1  1  0  0  0  0
  4  1  1  0  0  0  0
  5  6  3  0  0  0  0
M  RAD  1   1   2
M  END
