Coordinates from ORCA-job CH3-N2+-scan-d09-169-n800
 OpenBabel09191813373D

  6  4  0  0  0  0  0  0  0  0999 V2000
   -0.8351    1.9381    0.0560 C   0  0  0  0  0  0  0  0  0  0  0  0
   -0.3203    2.1321    1.0097 H   0  0  0  0  0  0  0  0  0  0  0  0
   -0.3204    2.1323   -0.8976 H   0  0  0  0  0  0  0  0  0  0  0  0
   -1.8652    1.5495    0.0560 H   0  0  0  0  0  0  0  0  0  0  0  0
    1.7083   -5.2538    0.0560 N   0  0  0  0  0  0  0  0  0  0  0  0
    2.0743   -6.2957    0.0560 N   0  0  0  0  0  0  0  0  0  0  0  0
  1  2  1  0  0  0  0
  3  1  1  0  0  0  0
  4  1  1  0  0  0  0
  5  6  3  0  0  0  0
M  RAD  1   1   2
M  END
