Coordinates from ORCA-job CH3-N2+-scan-d09-169-n800
 OpenBabel09191813373D

  6  4  0  0  0  0  0  0  0  0999 V2000
   -1.8483    4.7729    0.0409 C   0  0  0  0  0  0  0  0  0  0  0  0
   -1.2307    4.3369    0.8396 H   0  0  0  0  0  0  0  0  0  0  0  0
   -1.3712    5.2183   -0.8442 H   0  0  0  0  0  0  0  0  0  0  0  0
   -2.9447    4.7628    0.1285 H   0  0  0  0  0  0  0  0  0  0  0  0
    3.7351  -10.9232    0.0784 N   0  0  0  0  0  0  0  0  0  0  0  0
    4.1013  -11.9653    0.0929 N   0  0  0  0  0  0  0  0  0  0  0  0
  1  4  1  0  0  0  0
  1  2  1  0  0  0  0
  3  1  1  0  0  0  0
  5  6  3  0  0  0  0
M  RAD  1   1   2
M  END
