Coordinates from ORCA-job CH3-N2+-scan-d09-169-n800
 OpenBabel09191813373D

  6  4  0  0  0  0  0  0  0  0999 V2000
   -0.6535    1.4218    0.0560 C   0  0  0  0  0  0  0  0  0  0  0  0
   -0.1355    1.6068    1.0097 H   0  0  0  0  0  0  0  0  0  0  0  0
   -0.1355    1.6069   -0.8976 H   0  0  0  0  0  0  0  0  0  0  0  0
   -1.6902    1.0508    0.0560 H   0  0  0  0  0  0  0  0  0  0  0  0
    1.3443   -4.2213    0.0560 N   0  0  0  0  0  0  0  0  0  0  0  0
    1.7120   -5.2626    0.0560 N   0  0  0  0  0  0  0  0  0  0  0  0
  1  2  1  0  0  0  0
  3  1  1  0  0  0  0
  4  1  1  0  0  0  0
  5  6  3  0  0  0  0
M  RAD  1   1   2
M  END
