Coordinates from ORCA-job CH3-N2+-scan-d09-169-n800
 OpenBabel09191813373D

  6  4  0  0  0  0  0  0  0  0999 V2000
   -1.0436    2.5299    0.0560 C   0  0  0  0  0  0  0  0  0  0  0  0
   -0.5310    2.7292    1.0095 H   0  0  0  0  0  0  0  0  0  0  0  0
   -0.5313    2.7302   -0.8974 H   0  0  0  0  0  0  0  0  0  0  0  0
   -2.0692    2.1300    0.0560 H   0  0  0  0  0  0  0  0  0  0  0  0
    2.1256   -6.4374    0.0560 N   0  0  0  0  0  0  0  0  0  0  0  0
    2.4911   -7.4795    0.0560 N   0  0  0  0  0  0  0  0  0  0  0  0
  1  2  1  0  0  0  0
  3  1  1  0  0  0  0
  4  1  1  0  0  0  0
  5  6  3  0  0  0  0
M  RAD  1   1   2
M  END
