Coordinates from ORCA-job CH3-N2+-scan-d09-169-n800
 OpenBabel09191813373D

  6  4  0  0  0  0  0  0  0  0999 V2000
   -1.4504    3.6817    0.0557 C   0  0  0  0  0  0  0  0  0  0  0  0
   -0.9359    3.8751    1.0087 H   0  0  0  0  0  0  0  0  0  0  0  0
   -0.9417    3.8906   -0.8972 H   0  0  0  0  0  0  0  0  0  0  0  0
   -2.4744    3.2793    0.0555 H   0  0  0  0  0  0  0  0  0  0  0  0
    2.9395   -8.7408    0.0566 N   0  0  0  0  0  0  0  0  0  0  0  0
    3.3045   -9.7834    0.0567 N   0  0  0  0  0  0  0  0  0  0  0  0
  1  2  1  0  0  0  0
  3  1  1  0  0  0  0
  4  1  1  0  0  0  0
  5  6  3  0  0  0  0
M  RAD  1   1   2
M  END
