Coordinates from ORCA-job CH3-N2+-scan-d09-169-n800
 OpenBabel09191813373D

  6  4  0  0  0  0  0  0  0  0999 V2000
   -0.8240    1.9066    0.0560 C   0  0  0  0  0  0  0  0  0  0  0  0
   -0.3091    2.1002    1.0097 H   0  0  0  0  0  0  0  0  0  0  0  0
   -0.3091    2.1004   -0.8976 H   0  0  0  0  0  0  0  0  0  0  0  0
   -1.8545    1.5188    0.0560 H   0  0  0  0  0  0  0  0  0  0  0  0
    1.6861   -5.1909    0.0560 N   0  0  0  0  0  0  0  0  0  0  0  0
    2.0521   -6.2328    0.0560 N   0  0  0  0  0  0  0  0  0  0  0  0
  1  2  1  0  0  0  0
  3  1  1  0  0  0  0
  4  1  1  0  0  0  0
  5  6  3  0  0  0  0
M  RAD  1   1   2
M  END
