Coordinates from ORCA-job CH3-N2+-scan-d09-169-n800
 OpenBabel09191813373D

  6  4  0  0  0  0  0  0  0  0999 V2000
   -0.5383    1.0944    0.0560 C   0  0  0  0  0  0  0  0  0  0  0  0
   -0.0184    1.2738    1.0096 H   0  0  0  0  0  0  0  0  0  0  0  0
   -0.0184    1.2739   -0.8976 H   0  0  0  0  0  0  0  0  0  0  0  0
   -1.5787    0.7342    0.0560 H   0  0  0  0  0  0  0  0  0  0  0  0
    1.1131   -3.5667    0.0561 N   0  0  0  0  0  0  0  0  0  0  0  0
    1.4824   -4.6073    0.0559 N   0  0  0  0  0  0  0  0  0  0  0  0
  1  2  1  0  0  0  0
  3  1  1  0  0  0  0
  4  1  1  0  0  0  0
  6  5  3  0  0  0  0
M  RAD  1   1   2
M  END
