Coordinates from ORCA-job CH3-N2+-scan-d09-169-n800
 OpenBabel09191813373D

  6  4  0  0  0  0  0  0  0  0999 V2000
   -0.7863    1.7996    0.0560 C   0  0  0  0  0  0  0  0  0  0  0  0
   -0.2708    1.9916    1.0097 H   0  0  0  0  0  0  0  0  0  0  0  0
   -0.2709    1.9918   -0.8976 H   0  0  0  0  0  0  0  0  0  0  0  0
   -1.8180    1.4149    0.0560 H   0  0  0  0  0  0  0  0  0  0  0  0
    1.6107   -4.9768    0.0560 N   0  0  0  0  0  0  0  0  0  0  0  0
    1.9769   -6.0186    0.0560 N   0  0  0  0  0  0  0  0  0  0  0  0
  1  2  1  0  0  0  0
  3  1  1  0  0  0  0
  4  1  1  0  0  0  0
  5  6  3  0  0  0  0
M  RAD  1   1   2
M  END
