Coordinates from ORCA-job CH3-N2+-scan-d09-169-n800
 OpenBabel09191813373D

  6  4  0  0  0  0  0  0  0  0999 V2000
   -1.4304    3.6250    0.0557 C   0  0  0  0  0  0  0  0  0  0  0  0
   -0.9163    3.8194    1.0088 H   0  0  0  0  0  0  0  0  0  0  0  0
   -0.9213    3.8329   -0.8972 H   0  0  0  0  0  0  0  0  0  0  0  0
   -2.4544    3.2226    0.0556 H   0  0  0  0  0  0  0  0  0  0  0  0
    2.8995   -8.6276    0.0565 N   0  0  0  0  0  0  0  0  0  0  0  0
    3.2645   -9.6701    0.0566 N   0  0  0  0  0  0  0  0  0  0  0  0
  1  2  1  0  0  0  0
  3  1  1  0  0  0  0
  4  1  1  0  0  0  0
  5  6  3  0  0  0  0
M  RAD  1   1   2
M  END
