Coordinates from ORCA-job CH3-N2+-scan-d09-169-n800
 OpenBabel09191813373D

  6  4  0  0  0  0  0  0  0  0999 V2000
   -1.7972    4.6282    0.0412 C   0  0  0  0  0  0  0  0  0  0  0  0
   -1.1810    4.1827    0.8359 H   0  0  0  0  0  0  0  0  0  0  0  0
   -1.3185    5.0737   -0.8431 H   0  0  0  0  0  0  0  0  0  0  0  0
   -2.8933    4.6275    0.1319 H   0  0  0  0  0  0  0  0  0  0  0  0
    3.6322  -10.6340    0.0779 N   0  0  0  0  0  0  0  0  0  0  0  0
    3.9995  -11.6757    0.0924 N   0  0  0  0  0  0  0  0  0  0  0  0
  1  4  1  0  0  0  0
  1  2  1  0  0  0  0
  3  1  1  0  0  0  0
  5  6  3  0  0  0  0
M  RAD  1   1   2
M  END
