Coordinates from ORCA-job CH3-N2+-scan-d09-169-n800
 OpenBabel09191813373D

  6  4  0  0  0  0  0  0  0  0999 V2000
   -1.4659    3.7257    0.0556 C   0  0  0  0  0  0  0  0  0  0  0  0
   -0.9511    3.9182    1.0087 H   0  0  0  0  0  0  0  0  0  0  0  0
   -0.9576    3.9356   -0.8972 H   0  0  0  0  0  0  0  0  0  0  0  0
   -2.4900    3.3233    0.0555 H   0  0  0  0  0  0  0  0  0  0  0  0
    2.9706   -8.8290    0.0567 N   0  0  0  0  0  0  0  0  0  0  0  0
    3.3356   -9.8715    0.0568 N   0  0  0  0  0  0  0  0  0  0  0  0
  1  2  1  0  0  0  0
  3  1  1  0  0  0  0
  4  1  1  0  0  0  0
  5  6  3  0  0  0  0
M  RAD  1   1   2
M  END
