Coordinates from ORCA-job CH3-N2+-scan-d09-169-n800
 OpenBabel09191813373D

  6  4  0  0  0  0  0  0  0  0999 V2000
   -0.6469    1.4029    0.0560 C   0  0  0  0  0  0  0  0  0  0  0  0
   -0.1287    1.5875    1.0097 H   0  0  0  0  0  0  0  0  0  0  0  0
   -0.1287    1.5876   -0.8976 H   0  0  0  0  0  0  0  0  0  0  0  0
   -1.6838    1.0327    0.0560 H   0  0  0  0  0  0  0  0  0  0  0  0
    1.3310   -4.1836    0.0560 N   0  0  0  0  0  0  0  0  0  0  0  0
    1.6988   -5.2247    0.0560 N   0  0  0  0  0  0  0  0  0  0  0  0
  1  2  1  0  0  0  0
  3  1  1  0  0  0  0
  4  1  1  0  0  0  0
  5  6  3  0  0  0  0
M  RAD  1   1   2
M  END
