Coordinates from ORCA-job CH3-N2+-scan-d09-169-n800
 OpenBabel09191813373D

  6  4  0  0  0  0  0  0  0  0999 V2000
   -0.3524    0.5705    0.0560 C   0  0  0  0  0  0  0  0  0  0  0  0
    0.1653    0.7540    1.0084 H   0  0  0  0  0  0  0  0  0  0  0  0
    0.1653    0.7541   -0.8963 H   0  0  0  0  0  0  0  0  0  0  0  0
   -1.3922    0.2127    0.0560 H   0  0  0  0  0  0  0  0  0  0  0  0
    0.7430   -2.5243    0.0558 N   0  0  0  0  0  0  0  0  0  0  0  0
    1.1125   -3.5645    0.0561 N   0  0  0  0  0  0  0  0  0  0  0  0
  1  2  1  0  0  0  0
  3  1  1  0  0  0  0
  4  1  1  0  0  0  0
  5  6  3  0  0  0  0
M  RAD  1   1   2
M  END
