Coordinates from ORCA-job CH3-N2+-scan-d09-169-n800
 OpenBabel09191813373D

  6  5  0  0  0  0  0  0  0  0999 V2000
   -0.1489   -0.0035    0.0560 C   0  0  0  0  0  0  0  0  0  0  0  0
    0.2945    0.3574    0.9885 H   0  0  0  0  0  0  0  0  0  0  0  0
    0.2945    0.3575   -0.8764 H   0  0  0  0  0  0  0  0  0  0  0  0
   -1.2286   -0.1807    0.0560 H   0  0  0  0  0  0  0  0  0  0  0  0
    0.4314   -1.6450    0.0560 N   0  0  0  0  0  0  0  0  0  0  0  0
    0.7987   -2.6834    0.0561 N   0  0  0  0  0  0  0  0  0  0  0  0
  1  2  1  0  0  0  0
  3  1  1  0  0  0  0
  4  1  1  0  0  0  0
  5  1  1  0  0  0  0
  5  6  1  0  0  0  0
M  RAD  2   5   2   6   3
M  END
