Coordinates from ORCA-job CH3-N2+-scan-d09-169-n800
 OpenBabel09191813373D

  6  4  0  0  0  0  0  0  0  0999 V2000
   -0.7885    1.8059    0.0560 C   0  0  0  0  0  0  0  0  0  0  0  0
   -0.2731    1.9980    1.0097 H   0  0  0  0  0  0  0  0  0  0  0  0
   -0.2731    1.9982   -0.8976 H   0  0  0  0  0  0  0  0  0  0  0  0
   -1.8201    1.4210    0.0560 H   0  0  0  0  0  0  0  0  0  0  0  0
    1.6151   -4.9894    0.0560 N   0  0  0  0  0  0  0  0  0  0  0  0
    1.9813   -6.0312    0.0560 N   0  0  0  0  0  0  0  0  0  0  0  0
  1  2  1  0  0  0  0
  3  1  1  0  0  0  0
  4  1  1  0  0  0  0
  5  6  3  0  0  0  0
M  RAD  1   1   2
M  END
