Coordinates from ORCA-job CH3-N2+-scan-d09-169-n800
 OpenBabel09191813373D

  6  4  0  0  0  0  0  0  0  0999 V2000
   -0.3502    0.5641    0.0560 C   0  0  0  0  0  0  0  0  0  0  0  0
    0.1675    0.7478    1.0084 H   0  0  0  0  0  0  0  0  0  0  0  0
    0.1675    0.7480   -0.8963 H   0  0  0  0  0  0  0  0  0  0  0  0
   -1.3899    0.2064    0.0560 H   0  0  0  0  0  0  0  0  0  0  0  0
    0.7385   -2.5118    0.0558 N   0  0  0  0  0  0  0  0  0  0  0  0
    1.1081   -3.5520    0.0561 N   0  0  0  0  0  0  0  0  0  0  0  0
  1  2  1  0  0  0  0
  3  1  1  0  0  0  0
  4  1  1  0  0  0  0
  5  6  3  0  0  0  0
M  RAD  1   1   2
M  END
