Coordinates from ORCA-job CH3-N2+-scan-d09-169-n800
 OpenBabel09191813373D

  6  4  0  0  0  0  0  0  0  0999 V2000
   -0.8794    2.0640    0.0560 C   0  0  0  0  0  0  0  0  0  0  0  0
   -0.3654    2.2600    1.0097 H   0  0  0  0  0  0  0  0  0  0  0  0
   -0.3654    2.2603   -0.8976 H   0  0  0  0  0  0  0  0  0  0  0  0
   -1.9080    1.6714    0.0560 H   0  0  0  0  0  0  0  0  0  0  0  0
    1.7970   -5.5057    0.0560 N   0  0  0  0  0  0  0  0  0  0  0  0
    2.1628   -6.5477    0.0560 N   0  0  0  0  0  0  0  0  0  0  0  0
  1  2  1  0  0  0  0
  3  1  1  0  0  0  0
  4  1  1  0  0  0  0
  5  6  3  0  0  0  0
M  RAD  1   1   2
M  END
