Coordinates from ORCA-job CH3-N2+-scan-d09-169-n800
 OpenBabel09191813373D

  6  4  0  0  0  0  0  0  0  0999 V2000
   -0.4134    0.7417    0.0560 C   0  0  0  0  0  0  0  0  0  0  0  0
    0.1062    0.9212    1.0092 H   0  0  0  0  0  0  0  0  0  0  0  0
    0.1062    0.9213   -0.8971 H   0  0  0  0  0  0  0  0  0  0  0  0
   -1.4539    0.3835    0.0560 H   0  0  0  0  0  0  0  0  0  0  0  0
    0.8634   -2.8625    0.0559 N   0  0  0  0  0  0  0  0  0  0  0  0
    1.2330   -3.9028    0.0561 N   0  0  0  0  0  0  0  0  0  0  0  0
  1  2  1  0  0  0  0
  3  1  1  0  0  0  0
  4  1  1  0  0  0  0
  5  6  3  0  0  0  0
M  RAD  1   1   2
M  END
