Coordinates from ORCA-job CH3-N2+-scan-d09-169-n800
 OpenBabel09191813373D

  6  4  0  0  0  0  0  0  0  0999 V2000
   -0.6447    1.3966    0.0560 C   0  0  0  0  0  0  0  0  0  0  0  0
   -0.1265    1.5811    1.0097 H   0  0  0  0  0  0  0  0  0  0  0  0
   -0.1265    1.5812   -0.8976 H   0  0  0  0  0  0  0  0  0  0  0  0
   -1.6817    1.0266    0.0560 H   0  0  0  0  0  0  0  0  0  0  0  0
    1.3265   -4.1710    0.0560 N   0  0  0  0  0  0  0  0  0  0  0  0
    1.6944   -5.2121    0.0560 N   0  0  0  0  0  0  0  0  0  0  0  0
  1  2  1  0  0  0  0
  3  1  1  0  0  0  0
  4  1  1  0  0  0  0
  5  6  3  0  0  0  0
M  RAD  1   1   2
M  END
