Coordinates from ORCA-job CH3-N2+-scan-d09-169-n800
 OpenBabel09191813373D

  6  4  0  0  0  0  0  0  0  0999 V2000
   -0.4805    0.9308    0.0560 C   0  0  0  0  0  0  0  0  0  0  0  0
    0.0397    1.1095    1.0095 H   0  0  0  0  0  0  0  0  0  0  0  0
    0.0397    1.1096   -0.8975 H   0  0  0  0  0  0  0  0  0  0  0  0
   -1.5213    0.5722    0.0560 H   0  0  0  0  0  0  0  0  0  0  0  0
    0.9972   -3.2396    0.0560 N   0  0  0  0  0  0  0  0  0  0  0  0
    1.3668   -4.2800    0.0560 N   0  0  0  0  0  0  0  0  0  0  0  0
  1  2  1  0  0  0  0
  3  1  1  0  0  0  0
  4  1  1  0  0  0  0
  5  6  3  0  0  0  0
M  RAD  1   1   2
M  END
