Coordinates from ORCA-job CH3-N2+-scan-d09-169-n800
 OpenBabel09191813373D

  6  4  0  0  0  0  0  0  0  0999 V2000
   -0.4626    0.8804    0.0560 C   0  0  0  0  0  0  0  0  0  0  0  0
    0.0575    1.0590    1.0095 H   0  0  0  0  0  0  0  0  0  0  0  0
    0.0575    1.0591   -0.8974 H   0  0  0  0  0  0  0  0  0  0  0  0
   -1.5035    0.5223    0.0560 H   0  0  0  0  0  0  0  0  0  0  0  0
    0.9616   -3.1390    0.0560 N   0  0  0  0  0  0  0  0  0  0  0  0
    1.3312   -4.1793    0.0560 N   0  0  0  0  0  0  0  0  0  0  0  0
  1  2  1  0  0  0  0
  3  1  1  0  0  0  0
  4  1  1  0  0  0  0
  5  6  3  0  0  0  0
M  RAD  1   1   2
M  END
