Coordinates from ORCA-job CH3-N2+-scan-d09-169-n800
 OpenBabel09191813373D

  6  4  0  0  0  0  0  0  0  0999 V2000
   -1.1725    2.8949    0.0560 C   0  0  0  0  0  0  0  0  0  0  0  0
   -0.6601    3.0944    1.0093 H   0  0  0  0  0  0  0  0  0  0  0  0
   -0.6609    3.0967   -0.8973 H   0  0  0  0  0  0  0  0  0  0  0  0
   -2.1973    2.4936    0.0559 H   0  0  0  0  0  0  0  0  0  0  0  0
    2.3835   -7.1675    0.0561 N   0  0  0  0  0  0  0  0  0  0  0  0
    2.7489   -8.2097    0.0561 N   0  0  0  0  0  0  0  0  0  0  0  0
  1  2  1  0  0  0  0
  3  1  1  0  0  0  0
  4  1  1  0  0  0  0
  5  6  3  0  0  0  0
M  RAD  1   1   2
M  END
