Coordinates from ORCA-job CH3-N2+-scan-d09-169-n800
 OpenBabel09191813373D

  6  4  0  0  0  0  0  0  0  0999 V2000
   -0.2947    0.4085    0.0560 C   0  0  0  0  0  0  0  0  0  0  0  0
    0.2184    0.6028    1.0070 H   0  0  0  0  0  0  0  0  0  0  0  0
    0.2184    0.6029   -0.8949 H   0  0  0  0  0  0  0  0  0  0  0  0
   -1.3353    0.0576    0.0560 H   0  0  0  0  0  0  0  0  0  0  0  0
    0.6328   -2.2147    0.0559 N   0  0  0  0  0  0  0  0  0  0  0  0
    1.0020   -3.2548    0.0561 N   0  0  0  0  0  0  0  0  0  0  0  0
  1  2  1  0  0  0  0
  3  1  1  0  0  0  0
  4  1  1  0  0  0  0
  5  6  3  0  0  0  0
M  RAD  1   1   2
M  END
