Coordinates from ORCA-job CH3-N2+-scan-d09-169-n800
 OpenBabel09191813373D

  6  5  0  0  0  0  0  0  0  0999 V2000
   -0.0673   -0.2359    0.0560 C   0  0  0  0  0  0  0  0  0  0  0  0
    0.2965    0.2958    0.9546 H   0  0  0  0  0  0  0  0  0  0  0  0
    0.2965    0.2959   -0.8426 H   0  0  0  0  0  0  0  0  0  0  0  0
   -1.1731   -0.2238    0.0560 H   0  0  0  0  0  0  0  0  0  0  0  0
    0.3601   -1.4429    0.0560 N   0  0  0  0  0  0  0  0  0  0  0  0
    0.7289   -2.4867    0.0560 N   0  0  0  0  0  0  0  0  0  0  0  0
  1  2  1  0  0  0  0
  3  1  1  0  0  0  0
  4  1  1  0  0  0  0
  5  1  1  0  0  0  0
  6  5  1  0  0  0  0
M  RAD  2   5   2   6   3
M  END
