Coordinates from ORCA-job CH3-N2+-scan-d09-169-n800
 OpenBabel09191813373D

  6  4  0  0  0  0  0  0  0  0999 V2000
   -1.5504    3.9649    0.0554 C   0  0  0  0  0  0  0  0  0  0  0  0
   -1.0330    4.1501    1.0083 H   0  0  0  0  0  0  0  0  0  0  0  0
   -1.0447    4.1819   -0.8972 H   0  0  0  0  0  0  0  0  0  0  0  0
   -2.5744    3.5626    0.0550 H   0  0  0  0  0  0  0  0  0  0  0  0
    3.1396   -9.3073    0.0572 N   0  0  0  0  0  0  0  0  0  0  0  0
    3.5045  -10.3498    0.0574 N   0  0  0  0  0  0  0  0  0  0  0  0
  1  2  1  0  0  0  0
  3  1  1  0  0  0  0
  4  1  1  0  0  0  0
  5  6  3  0  0  0  0
M  RAD  1   1   2
M  END
