Coordinates from ORCA-job CH3-N2+-scan-d09-169-n800
 OpenBabel09191813373D

  6  4  0  0  0  0  0  0  0  0999 V2000
   -0.2126    0.1771    0.0560 C   0  0  0  0  0  0  0  0  0  0  0  0
    0.2761    0.4311    1.0016 H   0  0  0  0  0  0  0  0  0  0  0  0
    0.2760    0.4314   -0.8895 H   0  0  0  0  0  0  0  0  0  0  0  0
   -1.2678   -0.1136    0.0560 H   0  0  0  0  0  0  0  0  0  0  0  0
    0.5007   -1.8421    0.0558 N   0  0  0  0  0  0  0  0  0  0  0  0
    0.8692   -2.8814    0.0562 N   0  0  0  0  0  0  0  0  0  0  0  0
  1  2  1  0  0  0  0
  3  1  1  0  0  0  0
  4  1  1  0  0  0  0
  5  6  3  0  0  0  0
M  RAD  1   1   2
M  END
