Coordinates from ORCA-job CH3-N2+-scan-d09-169-n800
 OpenBabel09191813373D

  6  5  0  0  0  0  0  0  0  0999 V2000
   -0.0852   -0.1853    0.0560 C   0  0  0  0  0  0  0  0  0  0  0  0
    0.2970    0.3089    0.9631 H   0  0  0  0  0  0  0  0  0  0  0  0
    0.2970    0.3089   -0.8510 H   0  0  0  0  0  0  0  0  0  0  0  0
   -1.1863   -0.2155    0.0560 H   0  0  0  0  0  0  0  0  0  0  0  0
    0.3756   -1.4867    0.0560 N   0  0  0  0  0  0  0  0  0  0  0  0
    0.7435   -2.5279    0.0560 N   0  0  0  0  0  0  0  0  0  0  0  0
  1  2  1  0  0  0  0
  3  1  1  0  0  0  0
  4  1  1  0  0  0  0
  5  1  1  0  0  0  0
  6  5  1  0  0  0  0
M  RAD  2   5   2   6   3
M  END
