Coordinates from ORCA-job CH3-N2+-scan-d09-169-n800
 OpenBabel09191813373D

  6  4  0  0  0  0  0  0  0  0999 V2000
   -1.6861    4.3489    0.0538 C   0  0  0  0  0  0  0  0  0  0  0  0
   -1.1525    4.4905    1.0052 H   0  0  0  0  0  0  0  0  0  0  0  0
   -1.1960    4.6076   -0.8963 H   0  0  0  0  0  0  0  0  0  0  0  0
   -2.7106    3.9482    0.0527 H   0  0  0  0  0  0  0  0  0  0  0  0
    3.4110  -10.0750    0.0601 N   0  0  0  0  0  0  0  0  0  0  0  0
    3.7759  -11.1176    0.0605 N   0  0  0  0  0  0  0  0  0  0  0  0
  1  2  1  0  0  0  0
  3  1  1  0  0  0  0
  4  1  1  0  0  0  0
  5  6  3  0  0  0  0
M  RAD  1   1   2
M  END
