Coordinates from ORCA-job CH3-N2+-scan-d09-169-n800
 OpenBabel09191813373D

  6  4  0  0  0  0  0  0  0  0999 V2000
   -0.6801    1.4974    0.0560 C   0  0  0  0  0  0  0  0  0  0  0  0
   -0.1626    1.6839    1.0097 H   0  0  0  0  0  0  0  0  0  0  0  0
   -0.1626    1.6840   -0.8976 H   0  0  0  0  0  0  0  0  0  0  0  0
   -1.7156    1.1233    0.0560 H   0  0  0  0  0  0  0  0  0  0  0  0
    1.3977   -4.3724    0.0560 N   0  0  0  0  0  0  0  0  0  0  0  0
    1.7648   -5.4138    0.0560 N   0  0  0  0  0  0  0  0  0  0  0  0
  1  2  1  0  0  0  0
  3  1  1  0  0  0  0
  4  1  1  0  0  0  0
  5  6  3  0  0  0  0
M  RAD  1   1   2
M  END
