Coordinates from ORCA-job CH3-N2+-scan-d09-169-n800
 OpenBabel09191813373D

  6  4  0  0  0  0  0  0  0  0999 V2000
   -0.5849    1.2266    0.0560 C   0  0  0  0  0  0  0  0  0  0  0  0
   -0.0656    1.4080    1.0097 H   0  0  0  0  0  0  0  0  0  0  0  0
   -0.0656    1.4081   -0.8976 H   0  0  0  0  0  0  0  0  0  0  0  0
   -1.6240    0.8626    0.0560 H   0  0  0  0  0  0  0  0  0  0  0  0
    1.2064   -3.8311    0.0561 N   0  0  0  0  0  0  0  0  0  0  0  0
    1.5753   -4.8718    0.0559 N   0  0  0  0  0  0  0  0  0  0  0  0
  1  2  1  0  0  0  0
  3  1  1  0  0  0  0
  4  1  1  0  0  0  0
  6  5  3  0  0  0  0
M  RAD  1   1   2
M  END
