Coordinates from ORCA-job CH3-N2+-scan-d09-169-n800
 OpenBabel09191813373D

  6  4  0  0  0  0  0  0  0  0999 V2000
   -0.2507    0.2846    0.0560 C   0  0  0  0  0  0  0  0  0  0  0  0
    0.2536    0.5003    1.0049 H   0  0  0  0  0  0  0  0  0  0  0  0
    0.2535    0.5006   -0.8929 H   0  0  0  0  0  0  0  0  0  0  0  0
   -1.2961   -0.0455    0.0560 H   0  0  0  0  0  0  0  0  0  0  0  0
    0.5562   -1.9989    0.0558 N   0  0  0  0  0  0  0  0  0  0  0  0
    0.9251   -3.0387    0.0562 N   0  0  0  0  0  0  0  0  0  0  0  0
  1  2  1  0  0  0  0
  3  1  1  0  0  0  0
  4  1  1  0  0  0  0
  5  6  3  0  0  0  0
M  RAD  1   1   2
M  END
