Coordinates from ORCA-job CH3-N2+-scan-d09-169-n800
 OpenBabel09191813373D

  6  4  0  0  0  0  0  0  0  0999 V2000
   -1.8461    4.7666    0.0409 C   0  0  0  0  0  0  0  0  0  0  0  0
   -1.2285    4.3303    0.8395 H   0  0  0  0  0  0  0  0  0  0  0  0
   -1.3689    5.2120   -0.8441 H   0  0  0  0  0  0  0  0  0  0  0  0
   -2.9424    4.7569    0.1286 H   0  0  0  0  0  0  0  0  0  0  0  0
    3.7307  -10.9106    0.0784 N   0  0  0  0  0  0  0  0  0  0  0  0
    4.0968  -11.9527    0.0929 N   0  0  0  0  0  0  0  0  0  0  0  0
  1  4  1  0  0  0  0
  1  2  1  0  0  0  0
  3  1  1  0  0  0  0
  5  6  3  0  0  0  0
M  RAD  1   1   2
M  END
