Coordinates from ORCA-job CH3-N2+-scan-d09-169-n800
 OpenBabel09191813373D

  6  4  0  0  0  0  0  0  0  0999 V2000
   -0.5783    1.2078    0.0560 C   0  0  0  0  0  0  0  0  0  0  0  0
   -0.0589    1.3888    1.0097 H   0  0  0  0  0  0  0  0  0  0  0  0
   -0.0588    1.3888   -0.8976 H   0  0  0  0  0  0  0  0  0  0  0  0
   -1.6176    0.8444    0.0560 H   0  0  0  0  0  0  0  0  0  0  0  0
    1.1931   -3.7933    0.0561 N   0  0  0  0  0  0  0  0  0  0  0  0
    1.5621   -4.8340    0.0559 N   0  0  0  0  0  0  0  0  0  0  0  0
  1  2  1  0  0  0  0
  3  1  1  0  0  0  0
  4  1  1  0  0  0  0
  6  5  3  0  0  0  0
M  RAD  1   1   2
M  END
