Coordinates from ORCA-job CH3-N2+-scan-d09-169-n800
 OpenBabel09191813373D

  6  4  0  0  0  0  0  0  0  0999 V2000
   -0.9281    2.2026    0.0560 C   0  0  0  0  0  0  0  0  0  0  0  0
   -0.4149    2.4008    1.0097 H   0  0  0  0  0  0  0  0  0  0  0  0
   -0.4151    2.4013   -0.8976 H   0  0  0  0  0  0  0  0  0  0  0  0
   -1.9549    1.8053    0.0560 H   0  0  0  0  0  0  0  0  0  0  0  0
    1.8945   -5.7827    0.0560 N   0  0  0  0  0  0  0  0  0  0  0  0
    2.2601   -6.8248    0.0560 N   0  0  0  0  0  0  0  0  0  0  0  0
  1  2  1  0  0  0  0
  3  1  1  0  0  0  0
  4  1  1  0  0  0  0
  5  6  3  0  0  0  0
M  RAD  1   1   2
M  END
