Coordinates from ORCA-job CH3-N2+-scan-d09-169-n800
 OpenBabel09191813373D

  6  4  0  0  0  0  0  0  0  0999 V2000
   -1.8417    4.7540    0.0409 C   0  0  0  0  0  0  0  0  0  0  0  0
   -1.2241    4.3170    0.8393 H   0  0  0  0  0  0  0  0  0  0  0  0
   -1.3643    5.1994   -0.8441 H   0  0  0  0  0  0  0  0  0  0  0  0
   -2.9380    4.7449    0.1288 H   0  0  0  0  0  0  0  0  0  0  0  0
    3.7217  -10.8855    0.0783 N   0  0  0  0  0  0  0  0  0  0  0  0
    4.0880  -11.9276    0.0928 N   0  0  0  0  0  0  0  0  0  0  0  0
  1  4  1  0  0  0  0
  1  2  1  0  0  0  0
  3  1  1  0  0  0  0
  5  6  3  0  0  0  0
M  RAD  1   1   2
M  END
