Coordinates from ORCA-job CH3-N2+-scan-d09-169-n800
 OpenBabel09191813373D

  6  4  0  0  0  0  0  0  0  0999 V2000
   -1.4993    3.8201    0.0555 C   0  0  0  0  0  0  0  0  0  0  0  0
   -0.9836    4.0103    1.0086 H   0  0  0  0  0  0  0  0  0  0  0  0
   -0.9918    4.0323   -0.8972 H   0  0  0  0  0  0  0  0  0  0  0  0
   -2.5233    3.4178    0.0553 H   0  0  0  0  0  0  0  0  0  0  0  0
    3.0373   -9.0178    0.0569 N   0  0  0  0  0  0  0  0  0  0  0  0
    3.4023  -10.0603    0.0570 N   0  0  0  0  0  0  0  0  0  0  0  0
  1  2  1  0  0  0  0
  3  1  1  0  0  0  0
  4  1  1  0  0  0  0
  5  6  3  0  0  0  0
M  RAD  1   1   2
M  END
