Coordinates from ORCA-job CH3-N2+-scan-d09-169-n800
 OpenBabel09191813373D

  6  4  0  0  0  0  0  0  0  0999 V2000
   -0.6956    1.5415    0.0560 C   0  0  0  0  0  0  0  0  0  0  0  0
   -0.1784    1.7289    1.0097 H   0  0  0  0  0  0  0  0  0  0  0  0
   -0.1784    1.7290   -0.8976 H   0  0  0  0  0  0  0  0  0  0  0  0
   -1.7305    1.1657    0.0560 H   0  0  0  0  0  0  0  0  0  0  0  0
    1.4288   -4.4605    0.0560 N   0  0  0  0  0  0  0  0  0  0  0  0
    1.7957   -5.5020    0.0560 N   0  0  0  0  0  0  0  0  0  0  0  0
  1  2  1  0  0  0  0
  3  1  1  0  0  0  0
  4  1  1  0  0  0  0
  5  6  3  0  0  0  0
M  RAD  1   1   2
M  END
