Coordinates from ORCA-job CH3-N2+-scan-d09-169-n800
 OpenBabel09191813373D

  6  4  0  0  0  0  0  0  0  0999 V2000
   -1.6750    4.3174    0.0541 C   0  0  0  0  0  0  0  0  0  0  0  0
   -1.1441    4.4664    1.0059 H   0  0  0  0  0  0  0  0  0  0  0  0
   -1.1823    4.5694   -0.8966 H   0  0  0  0  0  0  0  0  0  0  0  0
   -2.6993    3.9161    0.0531 H   0  0  0  0  0  0  0  0  0  0  0  0
    3.3887  -10.0121    0.0596 N   0  0  0  0  0  0  0  0  0  0  0  0
    3.7536  -11.0547    0.0600 N   0  0  0  0  0  0  0  0  0  0  0  0
  1  2  1  0  0  0  0
  3  1  1  0  0  0  0
  4  1  1  0  0  0  0
  5  6  3  0  0  0  0
M  RAD  1   1   2
M  END
