Coordinates from ORCA-job CH3-N2+-scan-d09-169-n800
 OpenBabel09191813373D

  6  4  0  0  0  0  0  0  0  0999 V2000
   -1.1214    2.7502    0.0560 C   0  0  0  0  0  0  0  0  0  0  0  0
   -0.6090    2.9497    1.0093 H   0  0  0  0  0  0  0  0  0  0  0  0
   -0.6095    2.9514   -0.8973 H   0  0  0  0  0  0  0  0  0  0  0  0
   -2.1464    2.3493    0.0560 H   0  0  0  0  0  0  0  0  0  0  0  0
    2.2812   -6.8779    0.0561 N   0  0  0  0  0  0  0  0  0  0  0  0
    2.6467   -7.9202    0.0561 N   0  0  0  0  0  0  0  0  0  0  0  0
  1  2  1  0  0  0  0
  3  1  1  0  0  0  0
  4  1  1  0  0  0  0
  5  6  3  0  0  0  0
M  RAD  1   1   2
M  END
