Coordinates from ORCA-job CH3-N2+-scan-d09-169-n800
 OpenBabel09191813373D

  6  4  0  0  0  0  0  0  0  0999 V2000
   -1.4726    3.7446    0.0556 C   0  0  0  0  0  0  0  0  0  0  0  0
   -0.9577    3.9367    1.0087 H   0  0  0  0  0  0  0  0  0  0  0  0
   -0.9644    3.9549   -0.8972 H   0  0  0  0  0  0  0  0  0  0  0  0
   -2.4966    3.3422    0.0554 H   0  0  0  0  0  0  0  0  0  0  0  0
    2.9840   -8.8667    0.0567 N   0  0  0  0  0  0  0  0  0  0  0  0
    3.3489   -9.9093    0.0568 N   0  0  0  0  0  0  0  0  0  0  0  0
  1  2  1  0  0  0  0
  3  1  1  0  0  0  0
  4  1  1  0  0  0  0
  5  6  3  0  0  0  0
M  RAD  1   1   2
M  END
