Coordinates from ORCA-job CH3-N2+-scan-d09-169-n800
 OpenBabel09191813373D

  6  4  0  0  0  0  0  0  0  0999 V2000
   -0.3547    0.5769    0.0560 C   0  0  0  0  0  0  0  0  0  0  0  0
    0.1632    0.7601    1.0084 H   0  0  0  0  0  0  0  0  0  0  0  0
    0.1632    0.7603   -0.8964 H   0  0  0  0  0  0  0  0  0  0  0  0
   -1.3945    0.2189    0.0560 H   0  0  0  0  0  0  0  0  0  0  0  0
    0.7474   -2.5368    0.0558 N   0  0  0  0  0  0  0  0  0  0  0  0
    1.1170   -3.5770    0.0561 N   0  0  0  0  0  0  0  0  0  0  0  0
  1  2  1  0  0  0  0
  3  1  1  0  0  0  0
  4  1  1  0  0  0  0
  5  6  3  0  0  0  0
M  RAD  1   1   2
M  END
