Coordinates from ORCA-job CH3-N2+-scan-d09-169-n800
 OpenBabel09191813373D

  6  4  0  0  0  0  0  0  0  0999 V2000
   -1.5104    3.8516    0.0555 C   0  0  0  0  0  0  0  0  0  0  0  0
   -0.9944    4.0408    1.0085 H   0  0  0  0  0  0  0  0  0  0  0  0
   -1.0032    4.0647   -0.8972 H   0  0  0  0  0  0  0  0  0  0  0  0
   -2.5344    3.4492    0.0553 H   0  0  0  0  0  0  0  0  0  0  0  0
    3.0596   -9.0807    0.0569 N   0  0  0  0  0  0  0  0  0  0  0  0
    3.4245  -10.1233    0.0571 N   0  0  0  0  0  0  0  0  0  0  0  0
  1  2  1  0  0  0  0
  3  1  1  0  0  0  0
  4  1  1  0  0  0  0
  5  6  3  0  0  0  0
M  RAD  1   1   2
M  END
