Coordinates from ORCA-job CH3-N2+-scan-d09-169-n800
 OpenBabel09191813373D

  6  4  0  0  0  0  0  0  0  0999 V2000
   -1.4081    3.5621    0.0558 C   0  0  0  0  0  0  0  0  0  0  0  0
   -0.8944    3.7575    1.0088 H   0  0  0  0  0  0  0  0  0  0  0  0
   -0.8986    3.7690   -0.8971 H   0  0  0  0  0  0  0  0  0  0  0  0
   -2.4322    3.1597    0.0556 H   0  0  0  0  0  0  0  0  0  0  0  0
    2.8550   -8.5017    0.0565 N   0  0  0  0  0  0  0  0  0  0  0  0
    3.2200   -9.5442    0.0565 N   0  0  0  0  0  0  0  0  0  0  0  0
  1  2  1  0  0  0  0
  3  1  1  0  0  0  0
  4  1  1  0  0  0  0
  5  6  3  0  0  0  0
M  RAD  1   1   2
M  END
