Coordinates from ORCA-job CH3-N2+-scan-d09-169-n800
 OpenBabel09191813373D

  6  4  0  0  0  0  0  0  0  0999 V2000
   -1.6728    4.3111    0.0541 C   0  0  0  0  0  0  0  0  0  0  0  0
   -1.1424    4.4615    1.0060 H   0  0  0  0  0  0  0  0  0  0  0  0
   -1.1796    4.5617   -0.8966 H   0  0  0  0  0  0  0  0  0  0  0  0
   -2.6970    3.9097    0.0532 H   0  0  0  0  0  0  0  0  0  0  0  0
    3.3843   -9.9995    0.0595 N   0  0  0  0  0  0  0  0  0  0  0  0
    3.7491  -11.0421    0.0599 N   0  0  0  0  0  0  0  0  0  0  0  0
  1  2  1  0  0  0  0
  3  1  1  0  0  0  0
  4  1  1  0  0  0  0
  5  6  3  0  0  0  0
M  RAD  1   1   2
M  END
