Coordinates from ORCA-job CH3-N2+-scan-d09-169-n800
 OpenBabel09191813373D

  6  4  0  0  0  0  0  0  0  0999 V2000
   -1.0191    2.4606    0.0560 C   0  0  0  0  0  0  0  0  0  0  0  0
   -0.5065    2.6598    1.0095 H   0  0  0  0  0  0  0  0  0  0  0  0
   -0.5068    2.6606   -0.8975 H   0  0  0  0  0  0  0  0  0  0  0  0
   -2.0450    2.0612    0.0560 H   0  0  0  0  0  0  0  0  0  0  0  0
    2.0767   -6.2989    0.0560 N   0  0  0  0  0  0  0  0  0  0  0  0
    2.4423   -7.3410    0.0560 N   0  0  0  0  0  0  0  0  0  0  0  0
  1  2  1  0  0  0  0
  3  1  1  0  0  0  0
  4  1  1  0  0  0  0
  5  6  3  0  0  0  0
M  RAD  1   1   2
M  END
