Coordinates from ORCA-job CH3-N2+-scan-d09-169-n800
 OpenBabel09191813373D

  6  4  0  0  0  0  0  0  0  0999 V2000
   -0.2683    0.3341    0.0560 C   0  0  0  0  0  0  0  0  0  0  0  0
    0.2405    0.5389    1.0059 H   0  0  0  0  0  0  0  0  0  0  0  0
    0.2404    0.5391   -0.8938 H   0  0  0  0  0  0  0  0  0  0  0  0
   -1.3110   -0.0068    0.0560 H   0  0  0  0  0  0  0  0  0  0  0  0
    0.5855   -2.0815    0.0558 N   0  0  0  0  0  0  0  0  0  0  0  0
    0.9545   -3.1214    0.0562 N   0  0  0  0  0  0  0  0  0  0  0  0
  1  2  1  0  0  0  0
  3  1  1  0  0  0  0
  4  1  1  0  0  0  0
  5  6  3  0  0  0  0
M  RAD  1   1   2
M  END
