Coordinates from ORCA-job CH3-N2+-scan-d09-169-n800
 OpenBabel09191813373D

  6  4  0  0  0  0  0  0  0  0999 V2000
   -1.5882    4.0719    0.0552 C   0  0  0  0  0  0  0  0  0  0  0  0
   -1.0689    4.2521    1.0080 H   0  0  0  0  0  0  0  0  0  0  0  0
   -1.0844    4.2937   -0.8972 H   0  0  0  0  0  0  0  0  0  0  0  0
   -2.6123    3.6698    0.0548 H   0  0  0  0  0  0  0  0  0  0  0  0
    3.2153   -9.5212    0.0576 N   0  0  0  0  0  0  0  0  0  0  0  0
    3.5801  -10.5638    0.0578 N   0  0  0  0  0  0  0  0  0  0  0  0
  1  2  1  0  0  0  0
  3  1  1  0  0  0  0
  4  1  1  0  0  0  0
  5  6  3  0  0  0  0
M  RAD  1   1   2
M  END
