Coordinates from ORCA-job CH3-N2+-scan-d09-169-n800
 OpenBabel09191813373D

  6  4  0  0  0  0  0  0  0  0999 V2000
   -0.8639    2.0200    0.0560 C   0  0  0  0  0  0  0  0  0  0  0  0
   -0.3495    2.2151    1.0097 H   0  0  0  0  0  0  0  0  0  0  0  0
   -0.3496    2.2153   -0.8976 H   0  0  0  0  0  0  0  0  0  0  0  0
   -1.8932    1.6291    0.0560 H   0  0  0  0  0  0  0  0  0  0  0  0
    1.7660   -5.4175    0.0560 N   0  0  0  0  0  0  0  0  0  0  0  0
    2.1318   -6.4595    0.0560 N   0  0  0  0  0  0  0  0  0  0  0  0
  1  2  1  0  0  0  0
  3  1  1  0  0  0  0
  4  1  1  0  0  0  0
  5  6  3  0  0  0  0
M  RAD  1   1   2
M  END
