Coordinates from ORCA-job CH3-N2+-scan-d09-169-n800
 OpenBabel09191813373D

  6  4  0  0  0  0  0  0  0  0999 V2000
   -1.0347    2.5047    0.0560 C   0  0  0  0  0  0  0  0  0  0  0  0
   -0.5221    2.7039    1.0095 H   0  0  0  0  0  0  0  0  0  0  0  0
   -0.5224    2.7049   -0.8974 H   0  0  0  0  0  0  0  0  0  0  0  0
   -2.0604    2.1050    0.0560 H   0  0  0  0  0  0  0  0  0  0  0  0
    2.1078   -6.3870    0.0560 N   0  0  0  0  0  0  0  0  0  0  0  0
    2.4734   -7.4291    0.0560 N   0  0  0  0  0  0  0  0  0  0  0  0
  1  2  1  0  0  0  0
  3  1  1  0  0  0  0
  4  1  1  0  0  0  0
  5  6  3  0  0  0  0
M  RAD  1   1   2
M  END
