Coordinates from ORCA-job CH3-N2+-scan-d09-169-n800
 OpenBabel09191813373D

  6  4  0  0  0  0  0  0  0  0999 V2000
   -1.7462    4.4833    0.0413 C   0  0  0  0  0  0  0  0  0  0  0  0
   -1.1331    4.0210    0.8288 H   0  0  0  0  0  0  0  0  0  0  0  0
   -1.2650    4.9291   -0.8415 H   0  0  0  0  0  0  0  0  0  0  0  0
   -2.8417    4.4994    0.1378 H   0  0  0  0  0  0  0  0  0  0  0  0
    3.5293  -10.3447    0.0777 N   0  0  0  0  0  0  0  0  0  0  0  0
    3.8983  -11.3858    0.0921 N   0  0  0  0  0  0  0  0  0  0  0  0
  1  4  1  0  0  0  0
  1  2  1  0  0  0  0
  3  1  1  0  0  0  0
  5  6  3  0  0  0  0
M  RAD  1   1   2
M  END
