Coordinates from ORCA-job CH3-N2+-scan-d09-169-n800
 OpenBabel09191813373D

  6  4  0  0  0  0  0  0  0  0999 V2000
   -1.1280    2.7690    0.0560 C   0  0  0  0  0  0  0  0  0  0  0  0
   -0.6156    2.9686    1.0093 H   0  0  0  0  0  0  0  0  0  0  0  0
   -0.6162    2.9703   -0.8973 H   0  0  0  0  0  0  0  0  0  0  0  0
   -2.1530    2.3681    0.0560 H   0  0  0  0  0  0  0  0  0  0  0  0
    2.2945   -6.9157    0.0561 N   0  0  0  0  0  0  0  0  0  0  0  0
    2.6600   -7.9579    0.0561 N   0  0  0  0  0  0  0  0  0  0  0  0
  1  2  1  0  0  0  0
  3  1  1  0  0  0  0
  4  1  1  0  0  0  0
  5  6  3  0  0  0  0
M  RAD  1   1   2
M  END
