Coordinates from ORCA-job CH3-N2+-scan-d09-169-n800
 OpenBabel09191813373D

  6  4  0  0  0  0  0  0  0  0999 V2000
   -1.4971    3.8138    0.0556 C   0  0  0  0  0  0  0  0  0  0  0  0
   -0.9815    4.0042    1.0086 H   0  0  0  0  0  0  0  0  0  0  0  0
   -0.9895    4.0258   -0.8972 H   0  0  0  0  0  0  0  0  0  0  0  0
   -2.5211    3.4115    0.0553 H   0  0  0  0  0  0  0  0  0  0  0  0
    3.0329   -9.0052    0.0569 N   0  0  0  0  0  0  0  0  0  0  0  0
    3.3978  -10.0477    0.0570 N   0  0  0  0  0  0  0  0  0  0  0  0
  1  2  1  0  0  0  0
  3  1  1  0  0  0  0
  4  1  1  0  0  0  0
  5  6  3  0  0  0  0
M  RAD  1   1   2
M  END
