Coordinates from ORCA-job CH3-N2+-scan-d09-169-n800
 OpenBabel09191813373D

  6  4  0  0  0  0  0  0  0  0999 V2000
   -1.6105    4.1348    0.0550 C   0  0  0  0  0  0  0  0  0  0  0  0
   -1.0898    4.3113    1.0078 H   0  0  0  0  0  0  0  0  0  0  0  0
   -1.1079    4.3602   -0.8972 H   0  0  0  0  0  0  0  0  0  0  0  0
   -2.6346    3.7330    0.0546 H   0  0  0  0  0  0  0  0  0  0  0  0
    3.2598   -9.6471    0.0578 N   0  0  0  0  0  0  0  0  0  0  0  0
    3.6246  -10.6897    0.0581 N   0  0  0  0  0  0  0  0  0  0  0  0
  1  2  1  0  0  0  0
  3  1  1  0  0  0  0
  4  1  1  0  0  0  0
  5  6  3  0  0  0  0
M  RAD  1   1   2
M  END
