Coordinates from ORCA-job CH3-N2+-scan-d09-169-n800
 OpenBabel09191813373D

  6  4  0  0  0  0  0  0  0  0999 V2000
   -0.8993    2.1207    0.0560 C   0  0  0  0  0  0  0  0  0  0  0  0
   -0.3857    2.3178    1.0097 H   0  0  0  0  0  0  0  0  0  0  0  0
   -0.3858    2.3181   -0.8976 H   0  0  0  0  0  0  0  0  0  0  0  0
   -1.9271    1.7258    0.0560 H   0  0  0  0  0  0  0  0  0  0  0  0
    1.8369   -5.6190    0.0560 N   0  0  0  0  0  0  0  0  0  0  0  0
    2.2025   -6.6610    0.0560 N   0  0  0  0  0  0  0  0  0  0  0  0
  1  2  1  0  0  0  0
  3  1  1  0  0  0  0
  4  1  1  0  0  0  0
  5  6  3  0  0  0  0
M  RAD  1   1   2
M  END
