Coordinates from ORCA-job CH3-N2+-scan-d09-169-n800
 OpenBabel09191813373D

  6  4  0  0  0  0  0  0  0  0999 V2000
   -0.6756    1.4848    0.0560 C   0  0  0  0  0  0  0  0  0  0  0  0
   -0.1581    1.6710    1.0097 H   0  0  0  0  0  0  0  0  0  0  0  0
   -0.1581    1.6711   -0.8976 H   0  0  0  0  0  0  0  0  0  0  0  0
   -1.7114    1.1113    0.0560 H   0  0  0  0  0  0  0  0  0  0  0  0
    1.3888   -4.3472    0.0560 N   0  0  0  0  0  0  0  0  0  0  0  0
    1.7560   -5.3886    0.0560 N   0  0  0  0  0  0  0  0  0  0  0  0
  1  2  1  0  0  0  0
  3  1  1  0  0  0  0
  4  1  1  0  0  0  0
  5  6  3  0  0  0  0
M  RAD  1   1   2
M  END
