Coordinates from ORCA-job CH3-N2+-scan-d09-169-n800
 OpenBabel09191813373D

  6  4  0  0  0  0  0  0  0  0999 V2000
   -0.4111    0.7354    0.0560 C   0  0  0  0  0  0  0  0  0  0  0  0
    0.1085    0.9149    1.0091 H   0  0  0  0  0  0  0  0  0  0  0  0
    0.1084    0.9150   -0.8971 H   0  0  0  0  0  0  0  0  0  0  0  0
   -1.4516    0.3772    0.0560 H   0  0  0  0  0  0  0  0  0  0  0  0
    0.8589   -2.8499    0.0559 N   0  0  0  0  0  0  0  0  0  0  0  0
    1.2286   -3.8902    0.0561 N   0  0  0  0  0  0  0  0  0  0  0  0
  1  2  1  0  0  0  0
  3  1  1  0  0  0  0
  4  1  1  0  0  0  0
  5  6  3  0  0  0  0
M  RAD  1   1   2
M  END
