Coordinates from ORCA-job CH3-N2+-scan-d09-169-n800
 OpenBabel09191813373D

  6  4  0  0  0  0  0  0  0  0999 V2000
   -1.1947    2.9579    0.0560 C   0  0  0  0  0  0  0  0  0  0  0  0
   -0.6823    3.1572    1.0092 H   0  0  0  0  0  0  0  0  0  0  0  0
   -0.6833    3.1599   -0.8972 H   0  0  0  0  0  0  0  0  0  0  0  0
   -2.2194    2.5563    0.0559 H   0  0  0  0  0  0  0  0  0  0  0  0
    2.4279   -7.2933    0.0561 N   0  0  0  0  0  0  0  0  0  0  0  0
    2.7933   -8.3356    0.0561 N   0  0  0  0  0  0  0  0  0  0  0  0
  1  2  1  0  0  0  0
  3  1  1  0  0  0  0
  4  1  1  0  0  0  0
  5  6  3  0  0  0  0
M  RAD  1   1   2
M  END
