Coordinates from ORCA-job CH3-N2+-scan-d09-169-n800
 OpenBabel09191813373D

  6  4  0  0  0  0  0  0  0  0999 V2000
   -1.3036    3.2663    0.0559 C   0  0  0  0  0  0  0  0  0  0  0  0
   -0.7909    3.4645    1.0090 H   0  0  0  0  0  0  0  0  0  0  0  0
   -0.7929    3.4701   -0.8972 H   0  0  0  0  0  0  0  0  0  0  0  0
   -2.3280    2.8642    0.0558 H   0  0  0  0  0  0  0  0  0  0  0  0
    2.6459   -7.9101    0.0562 N   0  0  0  0  0  0  0  0  0  0  0  0
    3.0111   -8.9525    0.0563 N   0  0  0  0  0  0  0  0  0  0  0  0
  1  2  1  0  0  0  0
  3  1  1  0  0  0  0
  4  1  1  0  0  0  0
  5  6  3  0  0  0  0
M  RAD  1   1   2
M  END
