Coordinates from ORCA-job CH3-N2+-scan-d09-169-n800
 OpenBabel09191813373D

  6  4  0  0  0  0  0  0  0  0999 V2000
   -0.5139    1.0252    0.0560 C   0  0  0  0  0  0  0  0  0  0  0  0
    0.0062    1.2041    1.0096 H   0  0  0  0  0  0  0  0  0  0  0  0
    0.0062    1.2042   -0.8975 H   0  0  0  0  0  0  0  0  0  0  0  0
   -1.5545    0.6659    0.0560 H   0  0  0  0  0  0  0  0  0  0  0  0
    1.0641   -3.4283    0.0560 N   0  0  0  0  0  0  0  0  0  0  0  0
    1.4335   -4.4688    0.0559 N   0  0  0  0  0  0  0  0  0  0  0  0
  1  2  1  0  0  0  0
  3  1  1  0  0  0  0
  4  1  1  0  0  0  0
  6  5  3  0  0  0  0
M  RAD  1   1   2
M  END
