Coordinates from ORCA-job CH3-N2+-scan-d09-169-n800
 OpenBabel09191813373D

  6  5  0  0  0  0  0  0  0  0999 V2000
   -0.0126   -0.3893    0.0560 C   0  0  0  0  0  0  0  0  0  0  0  0
    0.2922    0.2617    0.9278 H   0  0  0  0  0  0  0  0  0  0  0  0
    0.2922    0.2617   -0.8158 H   0  0  0  0  0  0  0  0  0  0  0  0
   -1.1332   -0.2437    0.0560 H   0  0  0  0  0  0  0  0  0  0  0  0
    0.3141   -1.3133    0.0560 N   0  0  0  0  0  0  0  0  0  0  0  0
    0.6889   -2.3747    0.0560 N   0  0  0  0  0  0  0  0  0  0  0  0
  1  2  1  0  0  0  0
  3  1  1  0  0  0  0
  4  1  1  0  0  0  0
  5  1  1  0  0  0  0
  6  5  1  0  0  0  0
M  RAD  2   5   2   6   3
M  END
