Coordinates from ORCA-job CH3-N2+-scan-d09-169-n800
 OpenBabel09191813373D

  6  4  0  0  0  0  0  0  0  0999 V2000
   -1.4237    3.6061    0.0557 C   0  0  0  0  0  0  0  0  0  0  0  0
   -0.9097    3.8009    1.0088 H   0  0  0  0  0  0  0  0  0  0  0  0
   -0.9145    3.8137   -0.8972 H   0  0  0  0  0  0  0  0  0  0  0  0
   -2.4478    3.2038    0.0556 H   0  0  0  0  0  0  0  0  0  0  0  0
    2.8861   -8.5898    0.0565 N   0  0  0  0  0  0  0  0  0  0  0  0
    3.2511   -9.6323    0.0566 N   0  0  0  0  0  0  0  0  0  0  0  0
  1  2  1  0  0  0  0
  3  1  1  0  0  0  0
  4  1  1  0  0  0  0
  5  6  3  0  0  0  0
M  RAD  1   1   2
M  END
