Coordinates from ORCA-job CH3-N2+-scan-d09-169-n800
 OpenBabel09191813373D

  6  4  0  0  0  0  0  0  0  0999 V2000
   -1.2392    3.0837    0.0559 C   0  0  0  0  0  0  0  0  0  0  0  0
   -0.7267    3.2828    1.0091 H   0  0  0  0  0  0  0  0  0  0  0  0
   -0.7280    3.2864   -0.8972 H   0  0  0  0  0  0  0  0  0  0  0  0
   -2.2637    2.6819    0.0559 H   0  0  0  0  0  0  0  0  0  0  0  0
    2.5169   -7.5451    0.0561 N   0  0  0  0  0  0  0  0  0  0  0  0
    2.8822   -8.5874    0.0562 N   0  0  0  0  0  0  0  0  0  0  0  0
  1  2  1  0  0  0  0
  3  1  1  0  0  0  0
  4  1  1  0  0  0  0
  5  6  3  0  0  0  0
M  RAD  1   1   2
M  END
