Coordinates from ORCA-job CH3-N2+-scan-d09-169-n800
 OpenBabel09191813373D

  6  4  0  0  0  0  0  0  0  0999 V2000
   -1.8261    4.7100    0.0410 C   0  0  0  0  0  0  0  0  0  0  0  0
   -1.2090    4.2704    0.8383 H   0  0  0  0  0  0  0  0  0  0  0  0
   -1.3483    5.1554   -0.8438 H   0  0  0  0  0  0  0  0  0  0  0  0
   -2.9223    4.7035    0.1298 H   0  0  0  0  0  0  0  0  0  0  0  0
    3.6904  -10.7975    0.0781 N   0  0  0  0  0  0  0  0  0  0  0  0
    4.0569  -11.8394    0.0927 N   0  0  0  0  0  0  0  0  0  0  0  0
  1  4  1  0  0  0  0
  1  2  1  0  0  0  0
  3  1  1  0  0  0  0
  5  6  3  0  0  0  0
M  RAD  1   1   2
M  END
