Coordinates from ORCA-job CH3-N2+-scan-d09-169-n800
 OpenBabel09191813373D

  6  4  0  0  0  0  0  0  0  0999 V2000
   -0.5871    1.2329    0.0560 C   0  0  0  0  0  0  0  0  0  0  0  0
   -0.0679    1.4144    1.0097 H   0  0  0  0  0  0  0  0  0  0  0  0
   -0.0679    1.4145   -0.8976 H   0  0  0  0  0  0  0  0  0  0  0  0
   -1.6261    0.8687    0.0560 H   0  0  0  0  0  0  0  0  0  0  0  0
    1.2109   -3.8437    0.0561 N   0  0  0  0  0  0  0  0  0  0  0  0
    1.5797   -4.8844    0.0559 N   0  0  0  0  0  0  0  0  0  0  0  0
  1  2  1  0  0  0  0
  3  1  1  0  0  0  0
  4  1  1  0  0  0  0
  6  5  3  0  0  0  0
M  RAD  1   1   2
M  END
