Coordinates from ORCA-job CH3-N2+-scan-d09-169-n800
 OpenBabel09191813373D

  6  4  0  0  0  0  0  0  0  0999 V2000
   -0.5627    1.1637    0.0560 C   0  0  0  0  0  0  0  0  0  0  0  0
   -0.0431    1.3440    1.0097 H   0  0  0  0  0  0  0  0  0  0  0  0
   -0.0431    1.3440   -0.8976 H   0  0  0  0  0  0  0  0  0  0  0  0
   -1.6026    0.8017    0.0560 H   0  0  0  0  0  0  0  0  0  0  0  0
    1.1620   -3.7052    0.0561 N   0  0  0  0  0  0  0  0  0  0  0  0
    1.5311   -4.7458    0.0559 N   0  0  0  0  0  0  0  0  0  0  0  0
  1  2  1  0  0  0  0
  3  1  1  0  0  0  0
  4  1  1  0  0  0  0
  6  5  3  0  0  0  0
M  RAD  1   1   2
M  END
