Coordinates from ORCA-job CH3-N2+-scan-d09-169-n800
 OpenBabel09191813373D

  6  4  0  0  0  0  0  0  0  0999 V2000
   -0.3864    0.6659    0.0560 C   0  0  0  0  0  0  0  0  0  0  0  0
    0.1327    0.8464    1.0089 H   0  0  0  0  0  0  0  0  0  0  0  0
    0.1326    0.8466   -0.8968 H   0  0  0  0  0  0  0  0  0  0  0  0
   -1.4266    0.3077    0.0560 H   0  0  0  0  0  0  0  0  0  0  0  0
    0.8098   -2.7119    0.0559 N   0  0  0  0  0  0  0  0  0  0  0  0
    1.1795   -3.7522    0.0561 N   0  0  0  0  0  0  0  0  0  0  0  0
  1  2  1  0  0  0  0
  3  1  1  0  0  0  0
  4  1  1  0  0  0  0
  5  6  3  0  0  0  0
M  RAD  1   1   2
M  END
