Coordinates from ORCA-job CH3-N2+-scan-d09-169-n800
 OpenBabel09191813373D

  6  4  0  0  0  0  0  0  0  0999 V2000
   -1.1591    2.8572    0.0560 C   0  0  0  0  0  0  0  0  0  0  0  0
   -0.6468    3.0567    1.0093 H   0  0  0  0  0  0  0  0  0  0  0  0
   -0.6475    3.0588   -0.8973 H   0  0  0  0  0  0  0  0  0  0  0  0
   -2.1840    2.4559    0.0559 H   0  0  0  0  0  0  0  0  0  0  0  0
    2.3568   -7.0919    0.0561 N   0  0  0  0  0  0  0  0  0  0  0  0
    2.7222   -8.1342    0.0561 N   0  0  0  0  0  0  0  0  0  0  0  0
  1  2  1  0  0  0  0
  3  1  1  0  0  0  0
  4  1  1  0  0  0  0
  5  6  3  0  0  0  0
M  RAD  1   1   2
M  END
