Coordinates from ORCA-job CH3-N2+-scan-d09-169-n800
 OpenBabel09191813373D

  6  4  0  0  0  0  0  0  0  0999 V2000
   -0.4268    0.7796    0.0560 C   0  0  0  0  0  0  0  0  0  0  0  0
    0.0930    0.9586    1.0093 H   0  0  0  0  0  0  0  0  0  0  0  0
    0.0930    0.9587   -0.8972 H   0  0  0  0  0  0  0  0  0  0  0  0
   -1.4675    0.4214    0.0560 H   0  0  0  0  0  0  0  0  0  0  0  0
    0.8902   -2.9378    0.0559 N   0  0  0  0  0  0  0  0  0  0  0  0
    1.2598   -3.9781    0.0560 N   0  0  0  0  0  0  0  0  0  0  0  0
  1  2  1  0  0  0  0
  3  1  1  0  0  0  0
  4  1  1  0  0  0  0
  5  6  3  0  0  0  0
M  RAD  1   1   2
M  END
