Coordinates from ORCA-job CH3-N2+-scan-d09-169-n800
 OpenBabel09191813373D

  6  4  0  0  0  0  0  0  0  0999 V2000
   -1.3703    3.4551    0.0558 C   0  0  0  0  0  0  0  0  0  0  0  0
   -0.8570    3.6518    1.0089 H   0  0  0  0  0  0  0  0  0  0  0  0
   -0.8603    3.6606   -0.8971 H   0  0  0  0  0  0  0  0  0  0  0  0
   -2.3945    3.0528    0.0557 H   0  0  0  0  0  0  0  0  0  0  0  0
    2.7794   -8.2877    0.0564 N   0  0  0  0  0  0  0  0  0  0  0  0
    3.1444   -9.3302    0.0564 N   0  0  0  0  0  0  0  0  0  0  0  0
  1  2  1  0  0  0  0
  3  1  1  0  0  0  0
  4  1  1  0  0  0  0
  5  6  3  0  0  0  0
M  RAD  1   1   2
M  END
