Coordinates from ORCA-job CH3-N2+-scan-d09-169-n800
 OpenBabel09191813373D

  6  4  0  0  0  0  0  0  0  0999 V2000
   -1.1791    2.9138    0.0560 C   0  0  0  0  0  0  0  0  0  0  0  0
   -0.6668    3.1132    1.0092 H   0  0  0  0  0  0  0  0  0  0  0  0
   -0.6676    3.1157   -0.8972 H   0  0  0  0  0  0  0  0  0  0  0  0
   -2.2039    2.5124    0.0559 H   0  0  0  0  0  0  0  0  0  0  0  0
    2.3968   -7.2052    0.0561 N   0  0  0  0  0  0  0  0  0  0  0  0
    2.7622   -8.2475    0.0561 N   0  0  0  0  0  0  0  0  0  0  0  0
  1  2  1  0  0  0  0
  3  1  1  0  0  0  0
  4  1  1  0  0  0  0
  5  6  3  0  0  0  0
M  RAD  1   1   2
M  END
