Coordinates from ORCA-job CH3-N2+-scan-d09-169-n800
 OpenBabel09191813373D

  6  4  0  0  0  0  0  0  0  0999 V2000
   -0.5406    1.1007    0.0560 C   0  0  0  0  0  0  0  0  0  0  0  0
   -0.0207    1.2802    1.0096 H   0  0  0  0  0  0  0  0  0  0  0  0
   -0.0206    1.2803   -0.8976 H   0  0  0  0  0  0  0  0  0  0  0  0
   -1.5809    0.7404    0.0560 H   0  0  0  0  0  0  0  0  0  0  0  0
    1.1175   -3.5793    0.0561 N   0  0  0  0  0  0  0  0  0  0  0  0
    1.4869   -4.6199    0.0559 N   0  0  0  0  0  0  0  0  0  0  0  0
  1  2  1  0  0  0  0
  3  1  1  0  0  0  0
  4  1  1  0  0  0  0
  6  5  3  0  0  0  0
M  RAD  1   1   2
M  END
