Coordinates from ORCA-job CH3-N2+-scan-d09-169-n800
 OpenBabel09191813373D

  6  4  0  0  0  0  0  0  0  0999 V2000
   -0.4515    0.8489    0.0560 C   0  0  0  0  0  0  0  0  0  0  0  0
    0.0686    1.0274    1.0094 H   0  0  0  0  0  0  0  0  0  0  0  0
    0.0686    1.0275   -0.8973 H   0  0  0  0  0  0  0  0  0  0  0  0
   -1.4924    0.4911    0.0560 H   0  0  0  0  0  0  0  0  0  0  0  0
    0.9393   -3.0761    0.0559 N   0  0  0  0  0  0  0  0  0  0  0  0
    1.3090   -4.1164    0.0560 N   0  0  0  0  0  0  0  0  0  0  0  0
  1  2  1  0  0  0  0
  3  1  1  0  0  0  0
  4  1  1  0  0  0  0
  5  6  3  0  0  0  0
M  RAD  1   1   2
M  END
