Coordinates from ORCA-job CH3-N2+-scan-d09-169-n800
 OpenBabel09191813373D

  6  4  0  0  0  0  0  0  0  0999 V2000
   -1.4904    3.7950    0.0556 C   0  0  0  0  0  0  0  0  0  0  0  0
   -0.9750    3.9858    1.0086 H   0  0  0  0  0  0  0  0  0  0  0  0
   -0.9826    4.0065   -0.8972 H   0  0  0  0  0  0  0  0  0  0  0  0
   -2.5144    3.3926    0.0554 H   0  0  0  0  0  0  0  0  0  0  0  0
    3.0195   -8.9674    0.0568 N   0  0  0  0  0  0  0  0  0  0  0  0
    3.3845  -10.0100    0.0569 N   0  0  0  0  0  0  0  0  0  0  0  0
  1  2  1  0  0  0  0
  3  1  1  0  0  0  0
  4  1  1  0  0  0  0
  5  6  3  0  0  0  0
M  RAD  1   1   2
M  END
