Coordinates from ORCA-job CH3-N2+-scan-d09-169-n800
 OpenBabel09191813373D

  6  4  0  0  0  0  0  0  0  0999 V2000
   -0.3728    0.6278    0.0560 C   0  0  0  0  0  0  0  0  0  0  0  0
    0.1458    0.8094    1.0087 H   0  0  0  0  0  0  0  0  0  0  0  0
    0.1458    0.8096   -0.8966 H   0  0  0  0  0  0  0  0  0  0  0  0
   -1.4127    0.2694    0.0560 H   0  0  0  0  0  0  0  0  0  0  0  0
    0.7830   -2.6368    0.0559 N   0  0  0  0  0  0  0  0  0  0  0  0
    1.1526   -3.6770    0.0561 N   0  0  0  0  0  0  0  0  0  0  0  0
  1  2  1  0  0  0  0
  3  1  1  0  0  0  0
  4  1  1  0  0  0  0
  5  6  3  0  0  0  0
M  RAD  1   1   2
M  END
