Coordinates from ORCA-job CH3-N2+-scan-d09-169-n800
 OpenBabel09191813373D

  6  4  0  0  0  0  0  0  0  0999 V2000
   -0.9925    2.3851    0.0560 C   0  0  0  0  0  0  0  0  0  0  0  0
   -0.4797    2.5840    1.0096 H   0  0  0  0  0  0  0  0  0  0  0  0
   -0.4799    2.5848   -0.8975 H   0  0  0  0  0  0  0  0  0  0  0  0
   -2.0186    1.9862    0.0560 H   0  0  0  0  0  0  0  0  0  0  0  0
    2.0234   -6.1478    0.0560 N   0  0  0  0  0  0  0  0  0  0  0  0
    2.3889   -7.1899    0.0560 N   0  0  0  0  0  0  0  0  0  0  0  0
  1  2  1  0  0  0  0
  3  1  1  0  0  0  0
  4  1  1  0  0  0  0
  5  6  3  0  0  0  0
M  RAD  1   1   2
M  END
