Coordinates from ORCA-job CH3-N2+-scan-d09-169-n800
 OpenBabel09191813373D

  6  4  0  0  0  0  0  0  0  0999 V2000
   -1.6683    4.2985    0.0542 C   0  0  0  0  0  0  0  0  0  0  0  0
   -1.1390    4.4518    1.0062 H   0  0  0  0  0  0  0  0  0  0  0  0
   -1.1742    4.5465   -0.8967 H   0  0  0  0  0  0  0  0  0  0  0  0
   -2.6925    3.8969    0.0533 H   0  0  0  0  0  0  0  0  0  0  0  0
    3.3754   -9.9743    0.0593 N   0  0  0  0  0  0  0  0  0  0  0  0
    3.7402  -11.0170    0.0597 N   0  0  0  0  0  0  0  0  0  0  0  0
  1  2  1  0  0  0  0
  3  1  1  0  0  0  0
  4  1  1  0  0  0  0
  5  6  3  0  0  0  0
M  RAD  1   1   2
M  END
