Coordinates from ORCA-job CH3-N2+-scan-d09-169-n800
 OpenBabel09191813373D

  6  4  0  0  0  0  0  0  0  0999 V2000
   -1.3414    3.3733    0.0559 C   0  0  0  0  0  0  0  0  0  0  0  0
   -0.8284    3.5707    1.0090 H   0  0  0  0  0  0  0  0  0  0  0  0
   -0.8311    3.5780   -0.8972 H   0  0  0  0  0  0  0  0  0  0  0  0
   -2.3657    2.9710    0.0558 H   0  0  0  0  0  0  0  0  0  0  0  0
    2.7215   -8.1241    0.0563 N   0  0  0  0  0  0  0  0  0  0  0  0
    3.0866   -9.1665    0.0563 N   0  0  0  0  0  0  0  0  0  0  0  0
  1  2  1  0  0  0  0
  3  1  1  0  0  0  0
  4  1  1  0  0  0  0
  5  6  3  0  0  0  0
M  RAD  1   1   2
M  END
