Coordinates from ORCA-job CH3-N2+-scan-d09-169-n800
 OpenBabel09191813373D

  6  4  0  0  0  0  0  0  0  0999 V2000
   -1.0547    2.5613    0.0560 C   0  0  0  0  0  0  0  0  0  0  0  0
   -0.5422    2.7607    1.0094 H   0  0  0  0  0  0  0  0  0  0  0  0
   -0.5425    2.7618   -0.8974 H   0  0  0  0  0  0  0  0  0  0  0  0
   -2.0802    2.1613    0.0560 H   0  0  0  0  0  0  0  0  0  0  0  0
    2.1478   -6.5003    0.0560 N   0  0  0  0  0  0  0  0  0  0  0  0
    2.5134   -7.5425    0.0560 N   0  0  0  0  0  0  0  0  0  0  0  0
  1  2  1  0  0  0  0
  3  1  1  0  0  0  0
  4  1  1  0  0  0  0
  5  6  3  0  0  0  0
M  RAD  1   1   2
M  END
