Coordinates from ORCA-job CH3-N2+-scan-d09-169-n800
 OpenBabel09191813373D

  6  4  0  0  0  0  0  0  0  0999 V2000
   -1.7307    4.4392    0.0413 C   0  0  0  0  0  0  0  0  0  0  0  0
   -1.1190    3.9696    0.8256 H   0  0  0  0  0  0  0  0  0  0  0  0
   -1.2485    4.8851   -0.8409 H   0  0  0  0  0  0  0  0  0  0  0  0
   -2.8259    4.4625    0.1403 H   0  0  0  0  0  0  0  0  0  0  0  0
    3.4980  -10.2566    0.0777 N   0  0  0  0  0  0  0  0  0  0  0  0
    3.8677  -11.2975    0.0920 N   0  0  0  0  0  0  0  0  0  0  0  0
  1  4  1  0  0  0  0
  1  2  1  0  0  0  0
  3  1  1  0  0  0  0
  5  6  3  0  0  0  0
M  RAD  1   1   2
M  END
