Coordinates from ORCA-job CH3-N2+-scan-d09-169-n800
 OpenBabel09191813373D

  6  4  0  0  0  0  0  0  0  0999 V2000
   -0.7000    1.5540    0.0560 C   0  0  0  0  0  0  0  0  0  0  0  0
   -0.1829    1.7417    1.0097 H   0  0  0  0  0  0  0  0  0  0  0  0
   -0.1829    1.7418   -0.8976 H   0  0  0  0  0  0  0  0  0  0  0  0
   -1.7348    1.1778    0.0560 H   0  0  0  0  0  0  0  0  0  0  0  0
    1.4376   -4.4857    0.0560 N   0  0  0  0  0  0  0  0  0  0  0  0
    1.8045   -5.5272    0.0560 N   0  0  0  0  0  0  0  0  0  0  0  0
  1  2  1  0  0  0  0
  3  1  1  0  0  0  0
  4  1  1  0  0  0  0
  5  6  3  0  0  0  0
M  RAD  1   1   2
M  END
