Coordinates from ORCA-job CH3-N2+-scan-d09-169-n800
 OpenBabel09191813373D

  6  4  0  0  0  0  0  0  0  0999 V2000
   -1.8550    4.7918    0.0409 C   0  0  0  0  0  0  0  0  0  0  0  0
   -1.2372    4.3567    0.8399 H   0  0  0  0  0  0  0  0  0  0  0  0
   -1.3780    5.2372   -0.8443 H   0  0  0  0  0  0  0  0  0  0  0  0
   -2.9513    4.7808    0.1281 H   0  0  0  0  0  0  0  0  0  0  0  0
    3.7486  -10.9610    0.0785 N   0  0  0  0  0  0  0  0  0  0  0  0
    4.1146  -12.0031    0.0930 N   0  0  0  0  0  0  0  0  0  0  0  0
  1  4  1  0  0  0  0
  1  2  1  0  0  0  0
  3  1  1  0  0  0  0
  5  6  3  0  0  0  0
M  RAD  1   1   2
M  END
