Coordinates from ORCA-job CH3-N2+-scan-d09-169-n800
 OpenBabel09191813373D

  6  4  0  0  0  0  0  0  0  0999 V2000
   -1.1125    2.7250    0.0560 C   0  0  0  0  0  0  0  0  0  0  0  0
   -0.6001    2.9245    1.0094 H   0  0  0  0  0  0  0  0  0  0  0  0
   -0.6006    2.9261   -0.8973 H   0  0  0  0  0  0  0  0  0  0  0  0
   -2.1376    2.3242    0.0560 H   0  0  0  0  0  0  0  0  0  0  0  0
    2.2634   -6.8276    0.0560 N   0  0  0  0  0  0  0  0  0  0  0  0
    2.6289   -7.8698    0.0561 N   0  0  0  0  0  0  0  0  0  0  0  0
  1  2  1  0  0  0  0
  3  1  1  0  0  0  0
  4  1  1  0  0  0  0
  5  6  3  0  0  0  0
M  RAD  1   1   2
M  END
