Coordinates from ORCA-job CH3-N2+-scan-d09-169-n800
 OpenBabel09191813373D

  6  4  0  0  0  0  0  0  0  0999 V2000
   -0.5005    0.9874    0.0560 C   0  0  0  0  0  0  0  0  0  0  0  0
    0.0196    1.1662    1.0096 H   0  0  0  0  0  0  0  0  0  0  0  0
    0.0196    1.1663   -0.8975 H   0  0  0  0  0  0  0  0  0  0  0  0
   -1.5413    0.6286    0.0560 H   0  0  0  0  0  0  0  0  0  0  0  0
    1.0373   -3.3528    0.0560 N   0  0  0  0  0  0  0  0  0  0  0  0
    1.4069   -4.3932    0.0560 N   0  0  0  0  0  0  0  0  0  0  0  0
  1  2  1  0  0  0  0
  3  1  1  0  0  0  0
  4  1  1  0  0  0  0
  6  5  3  0  0  0  0
M  RAD  1   1   2
M  END
