Coordinates from ORCA-job CH3-N2+-scan-d09-169-n800
 OpenBabel09191813373D

  6  4  0  0  0  0  0  0  0  0999 V2000
   -0.2900    0.3952    0.0560 C   0  0  0  0  0  0  0  0  0  0  0  0
    0.2225    0.5910    1.0068 H   0  0  0  0  0  0  0  0  0  0  0  0
    0.2225    0.5911   -0.8947 H   0  0  0  0  0  0  0  0  0  0  0  0
   -1.3308    0.0457    0.0560 H   0  0  0  0  0  0  0  0  0  0  0  0
    0.6241   -2.1903    0.0559 N   0  0  0  0  0  0  0  0  0  0  0  0
    0.9933   -3.2303    0.0561 N   0  0  0  0  0  0  0  0  0  0  0  0
  1  2  1  0  0  0  0
  3  1  1  0  0  0  0
  4  1  1  0  0  0  0
  5  6  3  0  0  0  0
M  RAD  1   1   2
M  END
