Coordinates from ORCA-job CH3-N2+-scan-d09-169-n800
 OpenBabel09191813373D

  6  4  0  0  0  0  0  0  0  0999 V2000
   -0.2068    0.1606    0.0560 C   0  0  0  0  0  0  0  0  0  0  0  0
    0.2788    0.4223    1.0008 H   0  0  0  0  0  0  0  0  0  0  0  0
    0.2787    0.4226   -0.8888 H   0  0  0  0  0  0  0  0  0  0  0  0
   -1.2639   -0.1221    0.0560 H   0  0  0  0  0  0  0  0  0  0  0  0
    0.4932   -1.8209    0.0558 N   0  0  0  0  0  0  0  0  0  0  0  0
    0.8616   -2.8601    0.0562 N   0  0  0  0  0  0  0  0  0  0  0  0
  1  2  1  0  0  0  0
  3  1  1  0  0  0  0
  4  1  1  0  0  0  0
  5  6  3  0  0  0  0
M  RAD  1   1   2
M  END
