Coordinates from ORCA-job CH3-N2+-scan-d09-169-n800
 OpenBabel09191813373D

  6  4  0  0  0  0  0  0  0  0999 V2000
   -0.7752    1.7681    0.0560 C   0  0  0  0  0  0  0  0  0  0  0  0
   -0.2596    1.9596    1.0097 H   0  0  0  0  0  0  0  0  0  0  0  0
   -0.2596    1.9598   -0.8976 H   0  0  0  0  0  0  0  0  0  0  0  0
   -1.8073    1.3844    0.0560 H   0  0  0  0  0  0  0  0  0  0  0  0
    1.5885   -4.9139    0.0560 N   0  0  0  0  0  0  0  0  0  0  0  0
    1.9548   -5.9556    0.0560 N   0  0  0  0  0  0  0  0  0  0  0  0
  1  2  1  0  0  0  0
  3  1  1  0  0  0  0
  4  1  1  0  0  0  0
  5  6  3  0  0  0  0
M  RAD  1   1   2
M  END
