Coordinates from ORCA-job CH3-N2+-scan-d09-169-n800
 OpenBabel09191813373D

  6  4  0  0  0  0  0  0  0  0999 V2000
   -1.4059    3.5558    0.0558 C   0  0  0  0  0  0  0  0  0  0  0  0
   -0.8922    3.7513    1.0088 H   0  0  0  0  0  0  0  0  0  0  0  0
   -0.8964    3.7626   -0.8971 H   0  0  0  0  0  0  0  0  0  0  0  0
   -2.4300    3.1534    0.0556 H   0  0  0  0  0  0  0  0  0  0  0  0
    2.8505   -8.4891    0.0565 N   0  0  0  0  0  0  0  0  0  0  0  0
    3.2156   -9.5316    0.0565 N   0  0  0  0  0  0  0  0  0  0  0  0
  1  2  1  0  0  0  0
  3  1  1  0  0  0  0
  4  1  1  0  0  0  0
  5  6  3  0  0  0  0
M  RAD  1   1   2
M  END
