Coordinates from ORCA-job CH3-N2+-scan-d09-169-n800
 OpenBabel09191813373D

  6  4  0  0  0  0  0  0  0  0999 V2000
   -0.8395    1.9507    0.0560 C   0  0  0  0  0  0  0  0  0  0  0  0
   -0.3248    2.1448    1.0097 H   0  0  0  0  0  0  0  0  0  0  0  0
   -0.3249    2.1451   -0.8976 H   0  0  0  0  0  0  0  0  0  0  0  0
   -1.8696    1.5617    0.0560 H   0  0  0  0  0  0  0  0  0  0  0  0
    1.7172   -5.2790    0.0560 N   0  0  0  0  0  0  0  0  0  0  0  0
    2.0831   -6.3209    0.0560 N   0  0  0  0  0  0  0  0  0  0  0  0
  1  2  1  0  0  0  0
  3  1  1  0  0  0  0
  4  1  1  0  0  0  0
  5  6  3  0  0  0  0
M  RAD  1   1   2
M  END
