Coordinates from ORCA-job CH3-N2+-scan-d09-169-n800
 OpenBabel09191813373D

  6  4  0  0  0  0  0  0  0  0999 V2000
   -0.3570    0.5833    0.0560 C   0  0  0  0  0  0  0  0  0  0  0  0
    0.1610    0.7663    1.0085 H   0  0  0  0  0  0  0  0  0  0  0  0
    0.1610    0.7664   -0.8964 H   0  0  0  0  0  0  0  0  0  0  0  0
   -1.3967    0.2252    0.0560 H   0  0  0  0  0  0  0  0  0  0  0  0
    0.7519   -2.5493    0.0559 N   0  0  0  0  0  0  0  0  0  0  0  0
    1.1214   -3.5895    0.0561 N   0  0  0  0  0  0  0  0  0  0  0  0
  1  2  1  0  0  0  0
  3  1  1  0  0  0  0
  4  1  1  0  0  0  0
  5  6  3  0  0  0  0
M  RAD  1   1   2
M  END
