Coordinates from ORCA-job CH3-N2+-scan-d09-169-n800
 OpenBabel09191813373D

  6  4  0  0  0  0  0  0  0  0999 V2000
   -1.3592    3.4236    0.0558 C   0  0  0  0  0  0  0  0  0  0  0  0
   -0.8460    3.6206    1.0089 H   0  0  0  0  0  0  0  0  0  0  0  0
   -0.8491    3.6288   -0.8971 H   0  0  0  0  0  0  0  0  0  0  0  0
   -2.3834    3.0214    0.0557 H   0  0  0  0  0  0  0  0  0  0  0  0
    2.7571   -8.2248    0.0563 N   0  0  0  0  0  0  0  0  0  0  0  0
    3.1222   -9.2672    0.0564 N   0  0  0  0  0  0  0  0  0  0  0  0
  1  2  1  0  0  0  0
  3  1  1  0  0  0  0
  4  1  1  0  0  0  0
  5  6  3  0  0  0  0
M  RAD  1   1   2
M  END
