Coordinates from ORCA-job CH3-N2+-scan-d09-169-n800
 OpenBabel09191813373D

  6  4  0  0  0  0  0  0  0  0999 V2000
   -0.9369    2.2277    0.0560 C   0  0  0  0  0  0  0  0  0  0  0  0
   -0.4239    2.4261    1.0097 H   0  0  0  0  0  0  0  0  0  0  0  0
   -0.4240    2.4266   -0.8976 H   0  0  0  0  0  0  0  0  0  0  0  0
   -1.9637    1.8302    0.0560 H   0  0  0  0  0  0  0  0  0  0  0  0
    1.9123   -5.8331    0.0560 N   0  0  0  0  0  0  0  0  0  0  0  0
    2.2779   -6.8751    0.0560 N   0  0  0  0  0  0  0  0  0  0  0  0
  1  2  1  0  0  0  0
  3  1  1  0  0  0  0
  4  1  1  0  0  0  0
  5  6  3  0  0  0  0
M  RAD  1   1   2
M  END
