Coordinates from ORCA-job CH3-N2+-scan-d09-169-n800
 OpenBabel09191813373D

  6  4  0  0  0  0  0  0  0  0999 V2000
   -1.0080    2.4292    0.0560 C   0  0  0  0  0  0  0  0  0  0  0  0
   -0.4953    2.6282    1.0095 H   0  0  0  0  0  0  0  0  0  0  0  0
   -0.4956    2.6290   -0.8975 H   0  0  0  0  0  0  0  0  0  0  0  0
   -2.0340    2.0300    0.0560 H   0  0  0  0  0  0  0  0  0  0  0  0
    2.0545   -6.2359    0.0560 N   0  0  0  0  0  0  0  0  0  0  0  0
    2.4200   -7.2781    0.0560 N   0  0  0  0  0  0  0  0  0  0  0  0
  1  2  1  0  0  0  0
  3  1  1  0  0  0  0
  4  1  1  0  0  0  0
  5  6  3  0  0  0  0
M  RAD  1   1   2
M  END
