Coordinates from ORCA-job CH3-N2+-scan-d09-169-n800
 OpenBabel09191813373D

  6  4  0  0  0  0  0  0  0  0999 V2000
   -1.6372    4.2104    0.0547 C   0  0  0  0  0  0  0  0  0  0  0  0
   -1.1134    4.3785    1.0073 H   0  0  0  0  0  0  0  0  0  0  0  0
   -1.1378    4.4442   -0.8971 H   0  0  0  0  0  0  0  0  0  0  0  0
   -2.6612    3.8083    0.0541 H   0  0  0  0  0  0  0  0  0  0  0  0
    3.3131   -9.7981    0.0584 N   0  0  0  0  0  0  0  0  0  0  0  0
    3.6779  -10.8408    0.0587 N   0  0  0  0  0  0  0  0  0  0  0  0
  1  2  1  0  0  0  0
  3  1  1  0  0  0  0
  4  1  1  0  0  0  0
  5  6  3  0  0  0  0
M  RAD  1   1   2
M  END
