Coordinates from ORCA-job CH3-N2+-scan-d09-169-n800
 OpenBabel09191813373D

  6  4  0  0  0  0  0  0  0  0999 V2000
   -0.9947    2.3914    0.0560 C   0  0  0  0  0  0  0  0  0  0  0  0
   -0.4819    2.5903    1.0096 H   0  0  0  0  0  0  0  0  0  0  0  0
   -0.4822    2.5911   -0.8975 H   0  0  0  0  0  0  0  0  0  0  0  0
   -2.0208    1.9925    0.0560 H   0  0  0  0  0  0  0  0  0  0  0  0
    2.0278   -6.1604    0.0560 N   0  0  0  0  0  0  0  0  0  0  0  0
    2.3934   -7.2025    0.0560 N   0  0  0  0  0  0  0  0  0  0  0  0
  1  2  1  0  0  0  0
  3  1  1  0  0  0  0
  4  1  1  0  0  0  0
  5  6  3  0  0  0  0
M  RAD  1   1   2
M  END
