Coordinates from ORCA-job CH3-N2+-scan-d09-169-n800
 OpenBabel09191813373D

  6  4  0  0  0  0  0  0  0  0999 V2000
   -1.2481    3.1089    0.0559 C   0  0  0  0  0  0  0  0  0  0  0  0
   -0.7355    3.3079    1.0091 H   0  0  0  0  0  0  0  0  0  0  0  0
   -0.7369    3.3117   -0.8972 H   0  0  0  0  0  0  0  0  0  0  0  0
   -2.2725    2.7071    0.0559 H   0  0  0  0  0  0  0  0  0  0  0  0
    2.5347   -7.5954    0.0562 N   0  0  0  0  0  0  0  0  0  0  0  0
    2.9000   -8.6378    0.0562 N   0  0  0  0  0  0  0  0  0  0  0  0
  1  2  1  0  0  0  0
  3  1  1  0  0  0  0
  4  1  1  0  0  0  0
  5  6  3  0  0  0  0
M  RAD  1   1   2
M  END
