Coordinates from ORCA-job CH3-N2+-scan-d09-169-n800
 OpenBabel09191813373D

  6  4  0  0  0  0  0  0  0  0999 V2000
   -0.9414    2.2403    0.0560 C   0  0  0  0  0  0  0  0  0  0  0  0
   -0.4283    2.4387    1.0097 H   0  0  0  0  0  0  0  0  0  0  0  0
   -0.4285    2.4393   -0.8976 H   0  0  0  0  0  0  0  0  0  0  0  0
   -1.9681    1.8427    0.0560 H   0  0  0  0  0  0  0  0  0  0  0  0
    1.9212   -5.8583    0.0560 N   0  0  0  0  0  0  0  0  0  0  0  0
    2.2868   -6.9003    0.0560 N   0  0  0  0  0  0  0  0  0  0  0  0
  1  2  1  0  0  0  0
  3  1  1  0  0  0  0
  4  1  1  0  0  0  0
  5  6  3  0  0  0  0
M  RAD  1   1   2
M  END
