Coordinates from ORCA-job CH3-N2+-scan-d09-169-n800
 OpenBabel09191813373D

  6  4  0  0  0  0  0  0  0  0999 V2000
   -1.7417    4.4707    0.0413 C   0  0  0  0  0  0  0  0  0  0  0  0
   -1.1290    4.0064    0.8279 H   0  0  0  0  0  0  0  0  0  0  0  0
   -1.2603    4.9165   -0.8414 H   0  0  0  0  0  0  0  0  0  0  0  0
   -2.8372    4.4888    0.1385 H   0  0  0  0  0  0  0  0  0  0  0  0
    3.5204  -10.3195    0.0777 N   0  0  0  0  0  0  0  0  0  0  0  0
    3.8895  -11.3605    0.0921 N   0  0  0  0  0  0  0  0  0  0  0  0
  1  4  1  0  0  0  0
  1  2  1  0  0  0  0
  3  1  1  0  0  0  0
  5  6  3  0  0  0  0
M  RAD  1   1   2
M  END
