Coordinates from ORCA-job CH3-N2+-scan-d09-169-n800
 OpenBabel09191813373D

  6  4  0  0  0  0  0  0  0  0999 V2000
   -1.7550    4.5085    0.0413 C   0  0  0  0  0  0  0  0  0  0  0  0
   -1.1413    4.0498    0.8303 H   0  0  0  0  0  0  0  0  0  0  0  0
   -1.2744    4.9542   -0.8419 H   0  0  0  0  0  0  0  0  0  0  0  0
   -2.8507    4.5211    0.1365 H   0  0  0  0  0  0  0  0  0  0  0  0
    3.5472  -10.3950    0.0777 N   0  0  0  0  0  0  0  0  0  0  0  0
    3.9158  -11.4362    0.0921 N   0  0  0  0  0  0  0  0  0  0  0  0
  1  4  1  0  0  0  0
  1  2  1  0  0  0  0
  3  1  1  0  0  0  0
  5  6  3  0  0  0  0
M  RAD  1   1   2
M  END
