Coordinates from ORCA-job CH3-N2+-scan-d09-169-n800
 OpenBabel09191813373D

  6  5  0  0  0  0  0  0  0  0999 V2000
   -0.0959   -0.1547    0.0560 C   0  0  0  0  0  0  0  0  0  0  0  0
    0.2971    0.3167    0.9680 H   0  0  0  0  0  0  0  0  0  0  0  0
    0.2971    0.3167   -0.8559 H   0  0  0  0  0  0  0  0  0  0  0  0
   -1.1940   -0.2104    0.0560 H   0  0  0  0  0  0  0  0  0  0  0  0
    0.3849   -1.5128    0.0560 N   0  0  0  0  0  0  0  0  0  0  0  0
    0.7524   -2.5530    0.0560 N   0  0  0  0  0  0  0  0  0  0  0  0
  1  2  1  0  0  0  0
  3  1  1  0  0  0  0
  4  1  1  0  0  0  0
  5  1  1  0  0  0  0
  6  5  1  0  0  0  0
M  RAD  2   5   2   6   3
M  END
