Coordinates from ORCA-job CH3-N2+-scan-d09-169-n800
 OpenBabel09191813373D

  6  4  0  0  0  0  0  0  0  0999 V2000
   -0.4738    0.9119    0.0560 C   0  0  0  0  0  0  0  0  0  0  0  0
    0.0463    1.0906    1.0095 H   0  0  0  0  0  0  0  0  0  0  0  0
    0.0463    1.0907   -0.8974 H   0  0  0  0  0  0  0  0  0  0  0  0
   -1.5146    0.5534    0.0560 H   0  0  0  0  0  0  0  0  0  0  0  0
    0.9838   -3.2019    0.0560 N   0  0  0  0  0  0  0  0  0  0  0  0
    1.3534   -4.2422    0.0560 N   0  0  0  0  0  0  0  0  0  0  0  0
  1  2  1  0  0  0  0
  3  1  1  0  0  0  0
  4  1  1  0  0  0  0
  5  6  3  0  0  0  0
M  RAD  1   1   2
M  END
