Coordinates from ORCA-job CH3-N2+-scan-d09-169-n800
 OpenBabel09191813373D

  6  4  0  0  0  0  0  0  0  0999 V2000
   -1.7683    4.5463    0.0413 C   0  0  0  0  0  0  0  0  0  0  0  0
   -1.1537    4.0924    0.8324 H   0  0  0  0  0  0  0  0  0  0  0  0
   -1.2884    4.9919   -0.8423 H   0  0  0  0  0  0  0  0  0  0  0  0
   -2.8642    4.5540    0.1349 H   0  0  0  0  0  0  0  0  0  0  0  0
    3.5740  -10.4705    0.0777 N   0  0  0  0  0  0  0  0  0  0  0  0
    3.9421  -11.5118    0.0922 N   0  0  0  0  0  0  0  0  0  0  0  0
  1  4  1  0  0  0  0
  1  2  1  0  0  0  0
  3  1  1  0  0  0  0
  5  6  3  0  0  0  0
M  RAD  1   1   2
M  END
