Coordinates from ORCA-job CH3-N2+-scan-d09-169-n800
 OpenBabel09191813373D

  6  4  0  0  0  0  0  0  0  0999 V2000
   -0.2455    0.2700    0.0560 C   0  0  0  0  0  0  0  0  0  0  0  0
    0.2571    0.4897    1.0046 H   0  0  0  0  0  0  0  0  0  0  0  0
    0.2571    0.4900   -0.8925 H   0  0  0  0  0  0  0  0  0  0  0  0
   -1.2919   -0.0560    0.0560 H   0  0  0  0  0  0  0  0  0  0  0  0
    0.5480   -1.9758    0.0558 N   0  0  0  0  0  0  0  0  0  0  0  0
    0.9168   -3.0154    0.0562 N   0  0  0  0  0  0  0  0  0  0  0  0
  1  2  1  0  0  0  0
  3  1  1  0  0  0  0
  4  1  1  0  0  0  0
  5  6  3  0  0  0  0
M  RAD  1   1   2
M  END
