Coordinates from ORCA-job CH3-N2+-scan-d09-169-n800
 OpenBabel09191813373D

  6  4  0  0  0  0  0  0  0  0999 V2000
   -1.7238    4.4203    0.0441 C   0  0  0  0  0  0  0  0  0  0  0  0
   -1.1244    4.0273    0.8783 H   0  0  0  0  0  0  0  0  0  0  0  0
   -1.2286    4.7853   -0.8676 H   0  0  0  0  0  0  0  0  0  0  0  0
   -2.8206    4.4483    0.1225 H   0  0  0  0  0  0  0  0  0  0  0  0
    3.4799  -10.2207    0.0785 N   0  0  0  0  0  0  0  0  0  0  0  0
    3.8593  -11.2581    0.0803 N   0  0  0  0  0  0  0  0  0  0  0  0
  1  4  1  0  0  0  0
  1  2  1  0  0  0  0
  3  1  1  0  0  0  0
  5  6  3  0  0  0  0
M  RAD  1   1   2
M  END
