Coordinates from ORCA-job CH3-N2+-scan-d09-169-n800
 OpenBabel09191813373D

  6  4  0  0  0  0  0  0  0  0999 V2000
   -1.3792    3.4803    0.0558 C   0  0  0  0  0  0  0  0  0  0  0  0
   -0.8658    3.6767    1.0089 H   0  0  0  0  0  0  0  0  0  0  0  0
   -0.8693    3.6861   -0.8971 H   0  0  0  0  0  0  0  0  0  0  0  0
   -2.4034    3.0779    0.0557 H   0  0  0  0  0  0  0  0  0  0  0  0
    2.7972   -8.3381    0.0564 N   0  0  0  0  0  0  0  0  0  0  0  0
    3.1622   -9.3805    0.0564 N   0  0  0  0  0  0  0  0  0  0  0  0
  1  2  1  0  0  0  0
  3  1  1  0  0  0  0
  4  1  1  0  0  0  0
  5  6  3  0  0  0  0
M  RAD  1   1   2
M  END
