Coordinates from ORCA-job CH3-N2+-scan-d09-169-n800
 OpenBabel09191813373D

  6  4  0  0  0  0  0  0  0  0999 V2000
   -1.5193    3.8768    0.0555 C   0  0  0  0  0  0  0  0  0  0  0  0
   -1.0030    4.0652    1.0085 H   0  0  0  0  0  0  0  0  0  0  0  0
   -1.0124    4.0906   -0.8972 H   0  0  0  0  0  0  0  0  0  0  0  0
   -2.5433    3.4744    0.0552 H   0  0  0  0  0  0  0  0  0  0  0  0
    3.0774   -9.1310    0.0570 N   0  0  0  0  0  0  0  0  0  0  0  0
    3.4423  -10.1736    0.0571 N   0  0  0  0  0  0  0  0  0  0  0  0
  1  2  1  0  0  0  0
  3  1  1  0  0  0  0
  4  1  1  0  0  0  0
  5  6  3  0  0  0  0
M  RAD  1   1   2
M  END
