Coordinates from ORCA-job CH3-N2+-scan-d09-169-n800
 OpenBabel09191813373D

  6  4  0  0  0  0  0  0  0  0999 V2000
   -0.9325    2.2152    0.0560 C   0  0  0  0  0  0  0  0  0  0  0  0
   -0.4194    2.4134    1.0097 H   0  0  0  0  0  0  0  0  0  0  0  0
   -0.4196    2.4139   -0.8976 H   0  0  0  0  0  0  0  0  0  0  0  0
   -1.9593    1.8178    0.0560 H   0  0  0  0  0  0  0  0  0  0  0  0
    1.9034   -5.8079    0.0560 N   0  0  0  0  0  0  0  0  0  0  0  0
    2.2690   -6.8500    0.0560 N   0  0  0  0  0  0  0  0  0  0  0  0
  1  2  1  0  0  0  0
  3  1  1  0  0  0  0
  4  1  1  0  0  0  0
  5  6  3  0  0  0  0
M  RAD  1   1   2
M  END
