Coordinates from ORCA-job CH3-N2+-scan-d09-169-n800
 OpenBabel09191813373D

  6  4  0  0  0  0  0  0  0  0999 V2000
   -1.0902    2.6620    0.0560 C   0  0  0  0  0  0  0  0  0  0  0  0
   -0.5778    2.8615    1.0094 H   0  0  0  0  0  0  0  0  0  0  0  0
   -0.5783    2.8629   -0.8974 H   0  0  0  0  0  0  0  0  0  0  0  0
   -2.1155    2.2615    0.0560 H   0  0  0  0  0  0  0  0  0  0  0  0
    2.2189   -6.7017    0.0560 N   0  0  0  0  0  0  0  0  0  0  0  0
    2.5844   -7.7439    0.0561 N   0  0  0  0  0  0  0  0  0  0  0  0
  1  2  1  0  0  0  0
  3  1  1  0  0  0  0
  4  1  1  0  0  0  0
  5  6  3  0  0  0  0
M  RAD  1   1   2
M  END
