Coordinates from ORCA-job CH3-N2+-scan-d09-169-n800
 OpenBabel09191813373D

  6  4  0  0  0  0  0  0  0  0999 V2000
   -1.7750    4.5652    0.0412 C   0  0  0  0  0  0  0  0  0  0  0  0
   -1.1599    4.1135    0.8333 H   0  0  0  0  0  0  0  0  0  0  0  0
   -1.2954    5.0108   -0.8425 H   0  0  0  0  0  0  0  0  0  0  0  0
   -2.8709    4.5707    0.1341 H   0  0  0  0  0  0  0  0  0  0  0  0
    3.5874  -10.5082    0.0777 N   0  0  0  0  0  0  0  0  0  0  0  0
    3.9554  -11.5497    0.0923 N   0  0  0  0  0  0  0  0  0  0  0  0
  1  4  1  0  0  0  0
  1  2  1  0  0  0  0
  3  1  1  0  0  0  0
  5  6  3  0  0  0  0
M  RAD  1   1   2
M  END
