Coordinates from ORCA-job CH3-N2+-scan-d09-169-n800
 OpenBabel09191813373D

  6  4  0  0  0  0  0  0  0  0999 V2000
   -0.2558    0.2990    0.0560 C   0  0  0  0  0  0  0  0  0  0  0  0
    0.2499    0.5111    1.0052 H   0  0  0  0  0  0  0  0  0  0  0  0
    0.2499    0.5114   -0.8932 H   0  0  0  0  0  0  0  0  0  0  0  0
   -1.3003   -0.0347    0.0560 H   0  0  0  0  0  0  0  0  0  0  0  0
    0.5645   -2.0223    0.0558 N   0  0  0  0  0  0  0  0  0  0  0  0
    0.9334   -3.0621    0.0562 N   0  0  0  0  0  0  0  0  0  0  0  0
  1  2  1  0  0  0  0
  3  1  1  0  0  0  0
  4  1  1  0  0  0  0
  5  6  3  0  0  0  0
M  RAD  1   1   2
M  END
