Coordinates from ORCA-job CH3-N2+-scan-d09-169-n800
 OpenBabel09191813373D

  6  4  0  0  0  0  0  0  0  0999 V2000
   -1.5371    3.9271    0.0554 C   0  0  0  0  0  0  0  0  0  0  0  0
   -1.0202    4.1138    1.0084 H   0  0  0  0  0  0  0  0  0  0  0  0
   -1.0309    4.1427   -0.8972 H   0  0  0  0  0  0  0  0  0  0  0  0
   -2.5611    3.5248    0.0551 H   0  0  0  0  0  0  0  0  0  0  0  0
    3.1130   -9.2317    0.0571 N   0  0  0  0  0  0  0  0  0  0  0  0
    3.4779  -10.2743    0.0573 N   0  0  0  0  0  0  0  0  0  0  0  0
  1  2  1  0  0  0  0
  3  1  1  0  0  0  0
  4  1  1  0  0  0  0
  5  6  3  0  0  0  0
M  RAD  1   1   2
M  END
