Coordinates from ORCA-job CH3-N2+-scan-d09-169-n800
 OpenBabel09191813373D

  6  4  0  0  0  0  0  0  0  0999 V2000
   -1.0725    2.6117    0.0560 C   0  0  0  0  0  0  0  0  0  0  0  0
   -0.5600    2.8111    1.0094 H   0  0  0  0  0  0  0  0  0  0  0  0
   -0.5604    2.8123   -0.8974 H   0  0  0  0  0  0  0  0  0  0  0  0
   -2.0978    2.2114    0.0560 H   0  0  0  0  0  0  0  0  0  0  0  0
    2.1834   -6.6010    0.0560 N   0  0  0  0  0  0  0  0  0  0  0  0
    2.5489   -7.6432    0.0560 N   0  0  0  0  0  0  0  0  0  0  0  0
  1  2  1  0  0  0  0
  3  1  1  0  0  0  0
  4  1  1  0  0  0  0
  5  6  3  0  0  0  0
M  RAD  1   1   2
M  END
