Coordinates from ORCA-job CH3-N2+-scan-d09-169-n800
 OpenBabel09191813373D

  6  4  0  0  0  0  0  0  0  0999 V2000
   -1.5215    3.8831    0.0555 C   0  0  0  0  0  0  0  0  0  0  0  0
   -1.0052    4.0713    1.0085 H   0  0  0  0  0  0  0  0  0  0  0  0
   -1.0147    4.0971   -0.8972 H   0  0  0  0  0  0  0  0  0  0  0  0
   -2.5455    3.4807    0.0552 H   0  0  0  0  0  0  0  0  0  0  0  0
    3.0818   -9.1436    0.0570 N   0  0  0  0  0  0  0  0  0  0  0  0
    3.4467  -10.1862    0.0571 N   0  0  0  0  0  0  0  0  0  0  0  0
  1  2  1  0  0  0  0
  3  1  1  0  0  0  0
  4  1  1  0  0  0  0
  5  6  3  0  0  0  0
M  RAD  1   1   2
M  END
