Coordinates from ORCA-job CH3-N2+-scan-d09-169-n800
 OpenBabel09191813373D

  6  4  0  0  0  0  0  0  0  0999 V2000
   -1.6060    4.1222    0.0551 C   0  0  0  0  0  0  0  0  0  0  0  0
   -1.0856    4.2995    1.0079 H   0  0  0  0  0  0  0  0  0  0  0  0
   -1.1032    4.3468   -0.8972 H   0  0  0  0  0  0  0  0  0  0  0  0
   -2.6301    3.7203    0.0546 H   0  0  0  0  0  0  0  0  0  0  0  0
    3.2509   -9.6219    0.0578 N   0  0  0  0  0  0  0  0  0  0  0  0
    3.6157  -10.6645    0.0580 N   0  0  0  0  0  0  0  0  0  0  0  0
  1  2  1  0  0  0  0
  3  1  1  0  0  0  0
  4  1  1  0  0  0  0
  5  6  3  0  0  0  0
M  RAD  1   1   2
M  END
