Coordinates from ORCA-job CH3-N2+-scan-d09-169-n800
 OpenBabel09191813373D

  6  4  0  0  0  0  0  0  0  0999 V2000
   -0.9303    2.2089    0.0560 C   0  0  0  0  0  0  0  0  0  0  0  0
   -0.4172    2.4071    1.0097 H   0  0  0  0  0  0  0  0  0  0  0  0
   -0.4173    2.4076   -0.8976 H   0  0  0  0  0  0  0  0  0  0  0  0
   -1.9571    1.8115    0.0560 H   0  0  0  0  0  0  0  0  0  0  0  0
    1.8990   -5.7953    0.0560 N   0  0  0  0  0  0  0  0  0  0  0  0
    2.2645   -6.8374    0.0560 N   0  0  0  0  0  0  0  0  0  0  0  0
  1  2  1  0  0  0  0
  3  1  1  0  0  0  0
  4  1  1  0  0  0  0
  5  6  3  0  0  0  0
M  RAD  1   1   2
M  END
