Coordinates from ORCA-job CH3-N2+-scan-d09-169-n800
 OpenBabel09191813373D

  6  4  0  0  0  0  0  0  0  0999 V2000
   -0.2322    0.2325    0.0560 C   0  0  0  0  0  0  0  0  0  0  0  0
    0.2656    0.4641    1.0036 H   0  0  0  0  0  0  0  0  0  0  0  0
    0.2655    0.4644   -0.8915 H   0  0  0  0  0  0  0  0  0  0  0  0
   -1.2816   -0.0814    0.0560 H   0  0  0  0  0  0  0  0  0  0  0  0
    0.5278   -1.9189    0.0558 N   0  0  0  0  0  0  0  0  0  0  0  0
    0.8965   -2.9584    0.0562 N   0  0  0  0  0  0  0  0  0  0  0  0
  1  2  1  0  0  0  0
  3  1  1  0  0  0  0
  4  1  1  0  0  0  0
  5  6  3  0  0  0  0
M  RAD  1   1   2
M  END
