Coordinates from ORCA-job CH3-N2+-scan-d09-169-n800
 OpenBabel09191813373D

  6  4  0  0  0  0  0  0  0  0999 V2000
   -0.1916    0.1177    0.0560 C   0  0  0  0  0  0  0  0  0  0  0  0
    0.2847    0.4018    0.9986 H   0  0  0  0  0  0  0  0  0  0  0  0
    0.2846    0.4021   -0.8865 H   0  0  0  0  0  0  0  0  0  0  0  0
   -1.2543   -0.1415    0.0560 H   0  0  0  0  0  0  0  0  0  0  0  0
    0.4751   -1.7694    0.0558 N   0  0  0  0  0  0  0  0  0  0  0  0
    0.8432   -2.8083    0.0562 N   0  0  0  0  0  0  0  0  0  0  0  0
  1  2  1  0  0  0  0
  3  1  1  0  0  0  0
  4  1  1  0  0  0  0
  5  6  3  0  0  0  0
M  RAD  1   1   2
M  END
