Coordinates from ORCA-job CH3-N2+-scan-d09-169-n800
 OpenBabel09191813373D

  6  4  0  0  0  0  0  0  0  0999 V2000
   -0.2403    0.2552    0.0560 C   0  0  0  0  0  0  0  0  0  0  0  0
    0.2606    0.4793    1.0042 H   0  0  0  0  0  0  0  0  0  0  0  0
    0.2605    0.4796   -0.8921 H   0  0  0  0  0  0  0  0  0  0  0  0
   -1.2878   -0.0664    0.0560 H   0  0  0  0  0  0  0  0  0  0  0  0
    0.5399   -1.9528    0.0558 N   0  0  0  0  0  0  0  0  0  0  0  0
    0.9086   -2.9925    0.0562 N   0  0  0  0  0  0  0  0  0  0  0  0
  1  2  1  0  0  0  0
  3  1  1  0  0  0  0
  4  1  1  0  0  0  0
  5  6  3  0  0  0  0
M  RAD  1   1   2
M  END
