Coordinates from ORCA-job CH3-N2+-scan-d09-169-n800
 OpenBabel09191813373D

  6  4  0  0  0  0  0  0  0  0999 V2000
   -1.7883    4.6030    0.0412 C   0  0  0  0  0  0  0  0  0  0  0  0
   -1.1725    4.1553    0.8350 H   0  0  0  0  0  0  0  0  0  0  0  0
   -1.3093    5.0486   -0.8429 H   0  0  0  0  0  0  0  0  0  0  0  0
   -2.8843    4.6045    0.1327 H   0  0  0  0  0  0  0  0  0  0  0  0
    3.6142  -10.5837    0.0778 N   0  0  0  0  0  0  0  0  0  0  0  0
    3.9818  -11.6253    0.0923 N   0  0  0  0  0  0  0  0  0  0  0  0
  1  4  1  0  0  0  0
  1  2  1  0  0  0  0
  3  1  1  0  0  0  0
  5  6  3  0  0  0  0
M  RAD  1   1   2
M  END
