Coordinates from ORCA-job CH3-N2+-scan-d09-169-n800
 OpenBabel09191813373D

  6  4  0  0  0  0  0  0  0  0999 V2000
   -0.9680    2.3159    0.0560 C   0  0  0  0  0  0  0  0  0  0  0  0
   -0.4552    2.5146    1.0096 H   0  0  0  0  0  0  0  0  0  0  0  0
   -0.4553    2.5152   -0.8975 H   0  0  0  0  0  0  0  0  0  0  0  0
   -1.9944    1.9176    0.0560 H   0  0  0  0  0  0  0  0  0  0  0  0
    1.9745   -6.0093    0.0560 N   0  0  0  0  0  0  0  0  0  0  0  0
    2.3401   -7.0514    0.0560 N   0  0  0  0  0  0  0  0  0  0  0  0
  1  2  1  0  0  0  0
  3  1  1  0  0  0  0
  4  1  1  0  0  0  0
  5  6  3  0  0  0  0
M  RAD  1   1   2
M  END
