Coordinates from ORCA-job CH3-N2+-scan-d09-169-n800
 OpenBabel09191813373D

  6  4  0  0  0  0  0  0  0  0999 V2000
   -0.6225    1.3337    0.0560 C   0  0  0  0  0  0  0  0  0  0  0  0
   -0.1039    1.5169    1.0097 H   0  0  0  0  0  0  0  0  0  0  0  0
   -0.1039    1.5170   -0.8976 H   0  0  0  0  0  0  0  0  0  0  0  0
   -1.6604    0.9660    0.0560 H   0  0  0  0  0  0  0  0  0  0  0  0
    1.2820   -4.0451    0.0560 N   0  0  0  0  0  0  0  0  0  0  0  0
    1.6504   -5.0861    0.0560 N   0  0  0  0  0  0  0  0  0  0  0  0
  1  2  1  0  0  0  0
  3  1  1  0  0  0  0
  4  1  1  0  0  0  0
  5  6  3  0  0  0  0
M  RAD  1   1   2
M  END
