Coordinates from ORCA-job CH3-N2+-scan-d09-169-n800
 OpenBabel09191813373D

  6  4  0  0  0  0  0  0  0  0999 V2000
   -1.2280    3.0523    0.0560 C   0  0  0  0  0  0  0  0  0  0  0  0
   -0.7156    3.2514    1.0092 H   0  0  0  0  0  0  0  0  0  0  0  0
   -0.7168    3.2548   -0.8972 H   0  0  0  0  0  0  0  0  0  0  0  0
   -2.2526    2.6505    0.0559 H   0  0  0  0  0  0  0  0  0  0  0  0
    2.4947   -7.4821    0.0561 N   0  0  0  0  0  0  0  0  0  0  0  0
    2.8600   -8.5245    0.0562 N   0  0  0  0  0  0  0  0  0  0  0  0
  1  2  1  0  0  0  0
  3  1  1  0  0  0  0
  4  1  1  0  0  0  0
  5  6  3  0  0  0  0
M  RAD  1   1   2
M  END
