Coordinates from ORCA-job CH3-N2+-scan-d09-169-n800
 OpenBabel09191813373D

  6  4  0  0  0  0  0  0  0  0999 V2000
   -1.6550    4.2607    0.0545 C   0  0  0  0  0  0  0  0  0  0  0  0
   -1.1283    4.4211    1.0068 H   0  0  0  0  0  0  0  0  0  0  0  0
   -1.1583    4.5020   -0.8969 H   0  0  0  0  0  0  0  0  0  0  0  0
   -2.6790    3.8588    0.0537 H   0  0  0  0  0  0  0  0  0  0  0  0
    3.3487   -9.8988    0.0589 N   0  0  0  0  0  0  0  0  0  0  0  0
    3.7135  -10.9415    0.0592 N   0  0  0  0  0  0  0  0  0  0  0  0
  1  2  1  0  0  0  0
  3  1  1  0  0  0  0
  4  1  1  0  0  0  0
  5  6  3  0  0  0  0
M  RAD  1   1   2
M  END
