Coordinates from ORCA-job CH3-N2+-scan-d09-169-n800
 OpenBabel09191813373D

  6  4  0  0  0  0  0  0  0  0999 V2000
   -1.3325    3.3481    0.0559 C   0  0  0  0  0  0  0  0  0  0  0  0
   -0.8196    3.5457    1.0090 H   0  0  0  0  0  0  0  0  0  0  0  0
   -0.8221    3.5526   -0.8972 H   0  0  0  0  0  0  0  0  0  0  0  0
   -2.3568    2.9459    0.0558 H   0  0  0  0  0  0  0  0  0  0  0  0
    2.7037   -8.0737    0.0563 N   0  0  0  0  0  0  0  0  0  0  0  0
    3.0689   -9.1162    0.0563 N   0  0  0  0  0  0  0  0  0  0  0  0
  1  2  1  0  0  0  0
  3  1  1  0  0  0  0
  4  1  1  0  0  0  0
  5  6  3  0  0  0  0
M  RAD  1   1   2
M  END
