Coordinates from ORCA-job CH3-N2+-scan-d09-169-n800
 OpenBabel09191813373D

  6  4  0  0  0  0  0  0  0  0999 V2000
   -1.8662    4.8232    0.0408 C   0  0  0  0  0  0  0  0  0  0  0  0
   -1.2481    4.3895    0.8404 H   0  0  0  0  0  0  0  0  0  0  0  0
   -1.3894    5.2688   -0.8444 H   0  0  0  0  0  0  0  0  0  0  0  0
   -2.9625    4.8108    0.1276 H   0  0  0  0  0  0  0  0  0  0  0  0
    3.7709  -11.0239    0.0786 N   0  0  0  0  0  0  0  0  0  0  0  0
    4.1368  -12.0660    0.0931 N   0  0  0  0  0  0  0  0  0  0  0  0
  1  4  1  0  0  0  0
  1  2  1  0  0  0  0
  3  1  1  0  0  0  0
  5  6  3  0  0  0  0
M  RAD  1   1   2
M  END
