Coordinates from ORCA-job CH3-N2+-scan-d09-169-n800
 OpenBabel09191813373D

  6  4  0  0  0  0  0  0  0  0999 V2000
   -0.9747    2.3347    0.0560 C   0  0  0  0  0  0  0  0  0  0  0  0
   -0.4618    2.5335    1.0096 H   0  0  0  0  0  0  0  0  0  0  0  0
   -0.4621    2.5342   -0.8975 H   0  0  0  0  0  0  0  0  0  0  0  0
   -2.0010    1.9363    0.0560 H   0  0  0  0  0  0  0  0  0  0  0  0
    1.9878   -6.0471    0.0560 N   0  0  0  0  0  0  0  0  0  0  0  0
    2.3534   -7.0892    0.0560 N   0  0  0  0  0  0  0  0  0  0  0  0
  1  2  1  0  0  0  0
  3  1  1  0  0  0  0
  4  1  1  0  0  0  0
  5  6  3  0  0  0  0
M  RAD  1   1   2
M  END
