Coordinates from ORCA-job CH3-N2+-scan-d09-169-n800
 OpenBabel09191813373D

  6  4  0  0  0  0  0  0  0  0999 V2000
   -1.8350    4.7352    0.0410 C   0  0  0  0  0  0  0  0  0  0  0  0
   -1.2176    4.2971    0.8389 H   0  0  0  0  0  0  0  0  0  0  0  0
   -1.3575    5.1806   -0.8440 H   0  0  0  0  0  0  0  0  0  0  0  0
   -2.9313    4.7271    0.1292 H   0  0  0  0  0  0  0  0  0  0  0  0
    3.7083  -10.8478    0.0782 N   0  0  0  0  0  0  0  0  0  0  0  0
    4.0747  -11.8898    0.0928 N   0  0  0  0  0  0  0  0  0  0  0  0
  1  4  1  0  0  0  0
  1  2  1  0  0  0  0
  3  1  1  0  0  0  0
  5  6  3  0  0  0  0
M  RAD  1   1   2
M  END
