Coordinates from ORCA-job CH3-N2+-scan-d09-169-n800
 OpenBabel09191813373D

  6  4  0  0  0  0  0  0  0  0999 V2000
   -1.3481    3.3921    0.0559 C   0  0  0  0  0  0  0  0  0  0  0  0
   -0.8350    3.5894    1.0090 H   0  0  0  0  0  0  0  0  0  0  0  0
   -0.8378    3.5970   -0.8971 H   0  0  0  0  0  0  0  0  0  0  0  0
   -2.3723    2.9899    0.0558 H   0  0  0  0  0  0  0  0  0  0  0  0
    2.7349   -8.1618    0.0563 N   0  0  0  0  0  0  0  0  0  0  0  0
    3.1000   -9.2043    0.0564 N   0  0  0  0  0  0  0  0  0  0  0  0
  1  2  1  0  0  0  0
  3  1  1  0  0  0  0
  4  1  1  0  0  0  0
  5  6  3  0  0  0  0
M  RAD  1   1   2
M  END
