Coordinates from ORCA-job CH3-N2+-scan-d09-169-n800
 OpenBabel09191813373D

  6  4  0  0  0  0  0  0  0  0999 V2000
   -0.4336    0.7985    0.0560 C   0  0  0  0  0  0  0  0  0  0  0  0
    0.0864    0.9773    1.0093 H   0  0  0  0  0  0  0  0  0  0  0  0
    0.0864    0.9774   -0.8972 H   0  0  0  0  0  0  0  0  0  0  0  0
   -1.4744    0.4406    0.0560 H   0  0  0  0  0  0  0  0  0  0  0  0
    0.9036   -2.9755    0.0559 N   0  0  0  0  0  0  0  0  0  0  0  0
    1.2733   -4.0158    0.0560 N   0  0  0  0  0  0  0  0  0  0  0  0
  1  2  1  0  0  0  0
  3  1  1  0  0  0  0
  4  1  1  0  0  0  0
  5  6  3  0  0  0  0
M  RAD  1   1   2
M  END
