Coordinates from ORCA-job CH3-N2+-scan-d09-169-n800
 OpenBabel09191813373D

  6  4  0  0  0  0  0  0  0  0999 V2000
   -1.5393    3.9334    0.0554 C   0  0  0  0  0  0  0  0  0  0  0  0
   -1.0223    4.1199    1.0084 H   0  0  0  0  0  0  0  0  0  0  0  0
   -1.0332    4.1492   -0.8972 H   0  0  0  0  0  0  0  0  0  0  0  0
   -2.5633    3.5311    0.0551 H   0  0  0  0  0  0  0  0  0  0  0  0
    3.1174   -9.2443    0.0571 N   0  0  0  0  0  0  0  0  0  0  0  0
    3.4823  -10.2869    0.0573 N   0  0  0  0  0  0  0  0  0  0  0  0
  1  2  1  0  0  0  0
  3  1  1  0  0  0  0
  4  1  1  0  0  0  0
  5  6  3  0  0  0  0
M  RAD  1   1   2
M  END
