Coordinates from ORCA-job CH3-N2+-scan-d09-169-n800
 OpenBabel09191813373D

  6  4  0  0  0  0  0  0  0  0999 V2000
   -0.4470    0.8363    0.0560 C   0  0  0  0  0  0  0  0  0  0  0  0
    0.0731    1.0148    1.0094 H   0  0  0  0  0  0  0  0  0  0  0  0
    0.0731    1.0149   -0.8973 H   0  0  0  0  0  0  0  0  0  0  0  0
   -1.4880    0.4786    0.0560 H   0  0  0  0  0  0  0  0  0  0  0  0
    0.9304   -3.0509    0.0559 N   0  0  0  0  0  0  0  0  0  0  0  0
    1.3001   -4.0912    0.0560 N   0  0  0  0  0  0  0  0  0  0  0  0
  1  2  1  0  0  0  0
  3  1  1  0  0  0  0
  4  1  1  0  0  0  0
  5  6  3  0  0  0  0
M  RAD  1   1   2
M  END
