Coordinates from ORCA-job CH3-N2+-scan-d09-169-n800
 OpenBabel09191813373D

  6  4  0  0  0  0  0  0  0  0999 V2000
   -0.4381    0.8111    0.0560 C   0  0  0  0  0  0  0  0  0  0  0  0
    0.0819    0.9897    1.0094 H   0  0  0  0  0  0  0  0  0  0  0  0
    0.0819    0.9898   -0.8973 H   0  0  0  0  0  0  0  0  0  0  0  0
   -1.4790    0.4534    0.0560 H   0  0  0  0  0  0  0  0  0  0  0  0
    0.9125   -3.0007    0.0559 N   0  0  0  0  0  0  0  0  0  0  0  0
    1.2822   -4.0409    0.0561 N   0  0  0  0  0  0  0  0  0  0  0  0
  1  2  1  0  0  0  0
  3  1  1  0  0  0  0
  4  1  1  0  0  0  0
  5  6  3  0  0  0  0
M  RAD  1   1   2
M  END
