Coordinates from ORCA-job CH3-N2+-scan-d09-169-n800
 OpenBabel09191813373D

  6  4  0  0  0  0  0  0  0  0999 V2000
   -1.2947    3.2411    0.0559 C   0  0  0  0  0  0  0  0  0  0  0  0
   -0.7820    3.4395    1.0091 H   0  0  0  0  0  0  0  0  0  0  0  0
   -0.7840    3.4447   -0.8972 H   0  0  0  0  0  0  0  0  0  0  0  0
   -2.3191    2.8390    0.0558 H   0  0  0  0  0  0  0  0  0  0  0  0
    2.6281   -7.8597    0.0562 N   0  0  0  0  0  0  0  0  0  0  0  0
    2.9933   -8.9021    0.0562 N   0  0  0  0  0  0  0  0  0  0  0  0
  1  2  1  0  0  0  0
  3  1  1  0  0  0  0
  4  1  1  0  0  0  0
  5  6  3  0  0  0  0
M  RAD  1   1   2
M  END
