Coordinates from ORCA-job CH3-N2+-scan-d09-169-n800
 OpenBabel09191813373D

  6  4  0  0  0  0  0  0  0  0999 V2000
   -0.5760    1.2015    0.0560 C   0  0  0  0  0  0  0  0  0  0  0  0
   -0.0566    1.3824    1.0097 H   0  0  0  0  0  0  0  0  0  0  0  0
   -0.0566    1.3824   -0.8976 H   0  0  0  0  0  0  0  0  0  0  0  0
   -1.6155    0.8383    0.0560 H   0  0  0  0  0  0  0  0  0  0  0  0
    1.1887   -3.7807    0.0561 N   0  0  0  0  0  0  0  0  0  0  0  0
    1.5576   -4.8214    0.0559 N   0  0  0  0  0  0  0  0  0  0  0  0
  1  2  1  0  0  0  0
  3  1  1  0  0  0  0
  4  1  1  0  0  0  0
  6  5  3  0  0  0  0
M  RAD  1   1   2
M  END
