Coordinates from ORCA-job CH3-N2+-scan-d09-169-n800
 OpenBabel09191813373D

  6  4  0  0  0  0  0  0  0  0999 V2000
   -1.2303    3.0586    0.0560 C   0  0  0  0  0  0  0  0  0  0  0  0
   -0.7178    3.2577    1.0092 H   0  0  0  0  0  0  0  0  0  0  0  0
   -0.7190    3.2611   -0.8972 H   0  0  0  0  0  0  0  0  0  0  0  0
   -2.2548    2.6568    0.0559 H   0  0  0  0  0  0  0  0  0  0  0  0
    2.4991   -7.4947    0.0561 N   0  0  0  0  0  0  0  0  0  0  0  0
    2.8644   -8.5371    0.0562 N   0  0  0  0  0  0  0  0  0  0  0  0
  1  2  1  0  0  0  0
  3  1  1  0  0  0  0
  4  1  1  0  0  0  0
  5  6  3  0  0  0  0
M  RAD  1   1   2
M  END
