Coordinates from ORCA-job CH3-N2+-scan-d09-169-n800
 OpenBabel09191813373D

  6  4  0  0  0  0  0  0  0  0999 V2000
   -1.3103    3.2852    0.0559 C   0  0  0  0  0  0  0  0  0  0  0  0
   -0.7975    3.4832    1.0090 H   0  0  0  0  0  0  0  0  0  0  0  0
   -0.7997    3.4891   -0.8972 H   0  0  0  0  0  0  0  0  0  0  0  0
   -2.3346    2.8830    0.0558 H   0  0  0  0  0  0  0  0  0  0  0  0
    2.6593   -7.9479    0.0562 N   0  0  0  0  0  0  0  0  0  0  0  0
    3.0244   -8.9903    0.0563 N   0  0  0  0  0  0  0  0  0  0  0  0
  1  2  1  0  0  0  0
  3  1  1  0  0  0  0
  4  1  1  0  0  0  0
  5  6  3  0  0  0  0
M  RAD  1   1   2
M  END
