Coordinates from ORCA-job CH3-N2+-scan-d09-169-n800
 OpenBabel09191813373D

  6  4  0  0  0  0  0  0  0  0999 V2000
   -0.4201    0.7607    0.0560 C   0  0  0  0  0  0  0  0  0  0  0  0
    0.0996    0.9399    1.0092 H   0  0  0  0  0  0  0  0  0  0  0  0
    0.0996    0.9400   -0.8971 H   0  0  0  0  0  0  0  0  0  0  0  0
   -1.4607    0.4024    0.0560 H   0  0  0  0  0  0  0  0  0  0  0  0
    0.8768   -2.9001    0.0559 N   0  0  0  0  0  0  0  0  0  0  0  0
    1.2464   -3.9404    0.0560 N   0  0  0  0  0  0  0  0  0  0  0  0
  1  2  1  0  0  0  0
  3  1  1  0  0  0  0
  4  1  1  0  0  0  0
  5  6  3  0  0  0  0
M  RAD  1   1   2
M  END
