Coordinates from ORCA-job CH3-N2+-scan-d09-169-n800
 OpenBabel09191813373D

  6  4  0  0  0  0  0  0  0  0999 V2000
   -1.4548    3.6943    0.0557 C   0  0  0  0  0  0  0  0  0  0  0  0
   -0.9403    3.8874    1.0087 H   0  0  0  0  0  0  0  0  0  0  0  0
   -0.9462    3.9035   -0.8972 H   0  0  0  0  0  0  0  0  0  0  0  0
   -2.4789    3.2919    0.0555 H   0  0  0  0  0  0  0  0  0  0  0  0
    2.9484   -8.7660    0.0566 N   0  0  0  0  0  0  0  0  0  0  0  0
    3.3134   -9.8085    0.0567 N   0  0  0  0  0  0  0  0  0  0  0  0
  1  2  1  0  0  0  0
  3  1  1  0  0  0  0
  4  1  1  0  0  0  0
  5  6  3  0  0  0  0
M  RAD  1   1   2
M  END
