Coordinates from ORCA-job CH3-N2+-scan-d09-169-n800
 OpenBabel09191813373D

  6  4  0  0  0  0  0  0  0  0999 V2000
   -0.5272    1.0630    0.0560 C   0  0  0  0  0  0  0  0  0  0  0  0
   -0.0072    1.2420    1.0096 H   0  0  0  0  0  0  0  0  0  0  0  0
   -0.0072    1.2421   -0.8976 H   0  0  0  0  0  0  0  0  0  0  0  0
   -1.5678    0.7034    0.0560 H   0  0  0  0  0  0  0  0  0  0  0  0
    1.0908   -3.5038    0.0561 N   0  0  0  0  0  0  0  0  0  0  0  0
    1.4602   -4.5443    0.0559 N   0  0  0  0  0  0  0  0  0  0  0  0
  1  2  1  0  0  0  0
  3  1  1  0  0  0  0
  4  1  1  0  0  0  0
  6  5  3  0  0  0  0
M  RAD  1   1   2
M  END
