Coordinates from ORCA-job CH3-N2+-scan-d09-169-n800
 OpenBabel09191813373D

  6  4  0  0  0  0  0  0  0  0999 V2000
   -1.4593    3.7068    0.0557 C   0  0  0  0  0  0  0  0  0  0  0  0
   -0.9446    3.8997    1.0087 H   0  0  0  0  0  0  0  0  0  0  0  0
   -0.9507    3.9163   -0.8972 H   0  0  0  0  0  0  0  0  0  0  0  0
   -2.4833    3.3044    0.0555 H   0  0  0  0  0  0  0  0  0  0  0  0
    2.9573   -8.7912    0.0567 N   0  0  0  0  0  0  0  0  0  0  0  0
    3.3222   -9.8337    0.0568 N   0  0  0  0  0  0  0  0  0  0  0  0
  1  2  1  0  0  0  0
  3  1  1  0  0  0  0
  4  1  1  0  0  0  0
  5  6  3  0  0  0  0
M  RAD  1   1   2
M  END
