Coordinates from ORCA-job CH3-N2+-scan-d09-169-n800
 OpenBabel09191813373D

  6  4  0  0  0  0  0  0  0  0999 V2000
   -0.5094    1.0126    0.0560 C   0  0  0  0  0  0  0  0  0  0  0  0
    0.0106    1.1915    1.0096 H   0  0  0  0  0  0  0  0  0  0  0  0
    0.0107    1.1916   -0.8975 H   0  0  0  0  0  0  0  0  0  0  0  0
   -1.5501    0.6534    0.0560 H   0  0  0  0  0  0  0  0  0  0  0  0
    1.0552   -3.4031    0.0560 N   0  0  0  0  0  0  0  0  0  0  0  0
    1.4247   -4.4436    0.0560 N   0  0  0  0  0  0  0  0  0  0  0  0
  1  2  1  0  0  0  0
  3  1  1  0  0  0  0
  4  1  1  0  0  0  0
  6  5  3  0  0  0  0
M  RAD  1   1   2
M  END
