Coordinates from ORCA-job CH3-N2+-scan-d09-169-n800
 OpenBabel09191813373D

  6  4  0  0  0  0  0  0  0  0999 V2000
   -0.5183    1.0378    0.0560 C   0  0  0  0  0  0  0  0  0  0  0  0
    0.0017    1.2168    1.0096 H   0  0  0  0  0  0  0  0  0  0  0  0
    0.0017    1.2168   -0.8976 H   0  0  0  0  0  0  0  0  0  0  0  0
   -1.5590    0.6784    0.0560 H   0  0  0  0  0  0  0  0  0  0  0  0
    1.0730   -3.4535    0.0560 N   0  0  0  0  0  0  0  0  0  0  0  0
    1.4425   -4.4939    0.0559 N   0  0  0  0  0  0  0  0  0  0  0  0
  1  2  1  0  0  0  0
  3  1  1  0  0  0  0
  4  1  1  0  0  0  0
  6  5  3  0  0  0  0
M  RAD  1   1   2
M  END
