Coordinates from ORCA-job CH3-N2+-scan-d09-169-n800
 OpenBabel09191813373D

  6  4  0  0  0  0  0  0  0  0999 V2000
   -1.2058    2.9893    0.0560 C   0  0  0  0  0  0  0  0  0  0  0  0
   -0.6934    3.1886    1.0092 H   0  0  0  0  0  0  0  0  0  0  0  0
   -0.6944    3.1915   -0.8972 H   0  0  0  0  0  0  0  0  0  0  0  0
   -2.2305    2.5877    0.0559 H   0  0  0  0  0  0  0  0  0  0  0  0
    2.4502   -7.3563    0.0561 N   0  0  0  0  0  0  0  0  0  0  0  0
    2.8155   -8.3986    0.0561 N   0  0  0  0  0  0  0  0  0  0  0  0
  1  2  1  0  0  0  0
  3  1  1  0  0  0  0
  4  1  1  0  0  0  0
  5  6  3  0  0  0  0
M  RAD  1   1   2
M  END
