Coordinates from ORCA-job CH3-N2+-scan-d09-169-n800
 OpenBabel09191813373D

  6  4  0  0  0  0  0  0  0  0999 V2000
   -1.8706    4.8358    0.0408 C   0  0  0  0  0  0  0  0  0  0  0  0
   -1.2525    4.4026    0.8406 H   0  0  0  0  0  0  0  0  0  0  0  0
   -1.3939    5.2814   -0.8445 H   0  0  0  0  0  0  0  0  0  0  0  0
   -2.9670    4.8228    0.1274 H   0  0  0  0  0  0  0  0  0  0  0  0
    3.7799  -11.0490    0.0787 N   0  0  0  0  0  0  0  0  0  0  0  0
    4.1457  -12.0912    0.0931 N   0  0  0  0  0  0  0  0  0  0  0  0
  1  4  1  0  0  0  0
  1  2  1  0  0  0  0
  3  1  1  0  0  0  0
  5  6  3  0  0  0  0
M  RAD  1   1   2
M  END
