Coordinates from ORCA-job CH3-N2+-scan-d09-169-n800
 OpenBabel09191813373D

  6  4  0  0  0  0  0  0  0  0999 V2000
   -0.5650    1.1700    0.0560 C   0  0  0  0  0  0  0  0  0  0  0  0
   -0.0454    1.3504    1.0097 H   0  0  0  0  0  0  0  0  0  0  0  0
   -0.0453    1.3504   -0.8976 H   0  0  0  0  0  0  0  0  0  0  0  0
   -1.6047    0.8078    0.0560 H   0  0  0  0  0  0  0  0  0  0  0  0
    1.1664   -3.7178    0.0561 N   0  0  0  0  0  0  0  0  0  0  0  0
    1.5356   -4.7584    0.0559 N   0  0  0  0  0  0  0  0  0  0  0  0
  1  2  1  0  0  0  0
  3  1  1  0  0  0  0
  4  1  1  0  0  0  0
  6  5  3  0  0  0  0
M  RAD  1   1   2
M  END
