Coordinates from ORCA-job CH3-N2+-scan-d09-169-n800
 OpenBabel09191813373D

  6  4  0  0  0  0  0  0  0  0999 V2000
   -0.3706    0.6215    0.0560 C   0  0  0  0  0  0  0  0  0  0  0  0
    0.1479    0.8033    1.0087 H   0  0  0  0  0  0  0  0  0  0  0  0
    0.1479    0.8034   -0.8966 H   0  0  0  0  0  0  0  0  0  0  0  0
   -1.4104    0.2630    0.0560 H   0  0  0  0  0  0  0  0  0  0  0  0
    0.7786   -2.6243    0.0559 N   0  0  0  0  0  0  0  0  0  0  0  0
    1.1482   -3.6645    0.0561 N   0  0  0  0  0  0  0  0  0  0  0  0
  1  2  1  0  0  0  0
  3  1  1  0  0  0  0
  4  1  1  0  0  0  0
  5  6  3  0  0  0  0
M  RAD  1   1   2
M  END
