Coordinates from ORCA-job CH3-N2+-scan-d09-169-n800
 OpenBabel09191813373D

  6  4  0  0  0  0  0  0  0  0999 V2000
   -0.4671    0.8930    0.0560 C   0  0  0  0  0  0  0  0  0  0  0  0
    0.0530    1.0716    1.0095 H   0  0  0  0  0  0  0  0  0  0  0  0
    0.0530    1.0717   -0.8974 H   0  0  0  0  0  0  0  0  0  0  0  0
   -1.5080    0.5347    0.0560 H   0  0  0  0  0  0  0  0  0  0  0  0
    0.9705   -3.1641    0.0560 N   0  0  0  0  0  0  0  0  0  0  0  0
    1.3401   -4.2045    0.0560 N   0  0  0  0  0  0  0  0  0  0  0  0
  1  2  1  0  0  0  0
  3  1  1  0  0  0  0
  4  1  1  0  0  0  0
  5  6  3  0  0  0  0
M  RAD  1   1   2
M  END
