Coordinates from ORCA-job CH3-N2+-scan-d09-169-n800
 OpenBabel09191813373D

  6  4  0  0  0  0  0  0  0  0999 V2000
   -0.2429    0.2626    0.0560 C   0  0  0  0  0  0  0  0  0  0  0  0
    0.2589    0.4845    1.0044 H   0  0  0  0  0  0  0  0  0  0  0  0
    0.2588    0.4847   -0.8923 H   0  0  0  0  0  0  0  0  0  0  0  0
   -1.2898   -0.0612    0.0560 H   0  0  0  0  0  0  0  0  0  0  0  0
    0.5439   -1.9643    0.0558 N   0  0  0  0  0  0  0  0  0  0  0  0
    0.9127   -3.0039    0.0562 N   0  0  0  0  0  0  0  0  0  0  0  0
  1  2  1  0  0  0  0
  3  1  1  0  0  0  0
  4  1  1  0  0  0  0
  5  6  3  0  0  0  0
M  RAD  1   1   2
M  END
