Coordinates from ORCA-job CH3-N2+-scan-d09-169-n800
 OpenBabel09191813373D

  6  4  0  0  0  0  0  0  0  0999 V2000
   -0.5072    1.0063    0.0560 C   0  0  0  0  0  0  0  0  0  0  0  0
    0.0129    1.1852    1.0096 H   0  0  0  0  0  0  0  0  0  0  0  0
    0.0129    1.1853   -0.8975 H   0  0  0  0  0  0  0  0  0  0  0  0
   -1.5479    0.6472    0.0560 H   0  0  0  0  0  0  0  0  0  0  0  0
    1.0507   -3.3906    0.0560 N   0  0  0  0  0  0  0  0  0  0  0  0
    1.4202   -4.4310    0.0560 N   0  0  0  0  0  0  0  0  0  0  0  0
  1  2  1  0  0  0  0
  3  1  1  0  0  0  0
  4  1  1  0  0  0  0
  6  5  3  0  0  0  0
M  RAD  1   1   2
M  END
