Coordinates from ORCA-job CH3-N2+-scan-d09-169-n800
 OpenBabel09191813373D

  6  4  0  0  0  0  0  0  0  0999 V2000
   -0.5161    1.0315    0.0560 C   0  0  0  0  0  0  0  0  0  0  0  0
    0.0040    1.2105    1.0096 H   0  0  0  0  0  0  0  0  0  0  0  0
    0.0040    1.2105   -0.8975 H   0  0  0  0  0  0  0  0  0  0  0  0
   -1.5568    0.6722    0.0560 H   0  0  0  0  0  0  0  0  0  0  0  0
    1.0685   -3.4409    0.0560 N   0  0  0  0  0  0  0  0  0  0  0  0
    1.4380   -4.4814    0.0559 N   0  0  0  0  0  0  0  0  0  0  0  0
  1  2  1  0  0  0  0
  3  1  1  0  0  0  0
  4  1  1  0  0  0  0
  6  5  3  0  0  0  0
M  RAD  1   1   2
M  END
