Coordinates from ORCA-job CH3-N2+-scan-d09-169-n800
 OpenBabel09191813373D

  6  4  0  0  0  0  0  0  0  0999 V2000
   -0.8572    2.0011    0.0560 C   0  0  0  0  0  0  0  0  0  0  0  0
   -0.3428    2.1959    1.0097 H   0  0  0  0  0  0  0  0  0  0  0  0
   -0.3428    2.1961   -0.8976 H   0  0  0  0  0  0  0  0  0  0  0  0
   -1.8868    1.6108    0.0560 H   0  0  0  0  0  0  0  0  0  0  0  0
    1.7527   -5.3797    0.0560 N   0  0  0  0  0  0  0  0  0  0  0  0
    2.1186   -6.4217    0.0560 N   0  0  0  0  0  0  0  0  0  0  0  0
  1  2  1  0  0  0  0
  3  1  1  0  0  0  0
  4  1  1  0  0  0  0
  5  6  3  0  0  0  0
M  RAD  1   1   2
M  END
