Coordinates from ORCA-job CH3-N2+-scan-d09-169-n800
 OpenBabel09191813373D

  6  4  0  0  0  0  0  0  0  0999 V2000
   -1.2836    3.2096    0.0559 C   0  0  0  0  0  0  0  0  0  0  0  0
   -0.7710    3.4082    1.0091 H   0  0  0  0  0  0  0  0  0  0  0  0
   -0.7728    3.4130   -0.8972 H   0  0  0  0  0  0  0  0  0  0  0  0
   -2.3080    2.8076    0.0559 H   0  0  0  0  0  0  0  0  0  0  0  0
    2.6059   -7.7968    0.0562 N   0  0  0  0  0  0  0  0  0  0  0  0
    2.9711   -8.8392    0.0562 N   0  0  0  0  0  0  0  0  0  0  0  0
  1  2  1  0  0  0  0
  3  1  1  0  0  0  0
  4  1  1  0  0  0  0
  5  6  3  0  0  0  0
M  RAD  1   1   2
M  END
