Coordinates from ORCA-job CH3-N2+-scan-d09-169-n800
 OpenBabel09191813373D

  6  4  0  0  0  0  0  0  0  0999 V2000
   -1.6149    4.1474    0.0550 C   0  0  0  0  0  0  0  0  0  0  0  0
   -1.0938    4.3229    1.0078 H   0  0  0  0  0  0  0  0  0  0  0  0
   -1.1127    4.3738   -0.8972 H   0  0  0  0  0  0  0  0  0  0  0  0
   -2.6390    3.7455    0.0545 H   0  0  0  0  0  0  0  0  0  0  0  0
    3.2686   -9.6723    0.0579 N   0  0  0  0  0  0  0  0  0  0  0  0
    3.6335  -10.7149    0.0581 N   0  0  0  0  0  0  0  0  0  0  0  0
  1  2  1  0  0  0  0
  3  1  1  0  0  0  0
  4  1  1  0  0  0  0
  5  6  3  0  0  0  0
M  RAD  1   1   2
M  END
