Coordinates from ORCA-job CH3-N2+-scan-d09-169-n800
 OpenBabel09191813373D

  6  4  0  0  0  0  0  0  0  0999 V2000
   -1.5438    3.9460    0.0554 C   0  0  0  0  0  0  0  0  0  0  0  0
   -1.0266    4.1320    1.0083 H   0  0  0  0  0  0  0  0  0  0  0  0
   -1.0378    4.1623   -0.8972 H   0  0  0  0  0  0  0  0  0  0  0  0
   -2.5678    3.5437    0.0551 H   0  0  0  0  0  0  0  0  0  0  0  0
    3.1263   -9.2695    0.0572 N   0  0  0  0  0  0  0  0  0  0  0  0
    3.4912  -10.3121    0.0573 N   0  0  0  0  0  0  0  0  0  0  0  0
  1  2  1  0  0  0  0
  3  1  1  0  0  0  0
  4  1  1  0  0  0  0
  5  6  3  0  0  0  0
M  RAD  1   1   2
M  END
