Coordinates from ORCA-job CH3-N2+-scan-d09-169-n800
 OpenBabel09191813373D

  6  5  0  0  0  0  0  0  0  0999 V2000
   -0.0312   -0.3370    0.0560 C   0  0  0  0  0  0  0  0  0  0  0  0
    0.2945    0.2713    0.9372 H   0  0  0  0  0  0  0  0  0  0  0  0
    0.2945    0.2713   -0.8251 H   0  0  0  0  0  0  0  0  0  0  0  0
   -1.1462   -0.2391    0.0560 H   0  0  0  0  0  0  0  0  0  0  0  0
    0.3290   -1.3554    0.0560 N   0  0  0  0  0  0  0  0  0  0  0  0
    0.7010   -2.4087    0.0560 N   0  0  0  0  0  0  0  0  0  0  0  0
  1  2  1  0  0  0  0
  3  1  1  0  0  0  0
  4  1  1  0  0  0  0
  5  1  1  0  0  0  0
  6  5  1  0  0  0  0
M  RAD  2   5   2   6   3
M  END
