Coordinates from ORCA-job CH3-N2+-scan-d09-169-n800
 OpenBabel09191813373D

  6  4  0  0  0  0  0  0  0  0999 V2000
   -0.6978    1.5477    0.0560 C   0  0  0  0  0  0  0  0  0  0  0  0
   -0.1807    1.7353    1.0097 H   0  0  0  0  0  0  0  0  0  0  0  0
   -0.1807    1.7354   -0.8976 H   0  0  0  0  0  0  0  0  0  0  0  0
   -1.7326    1.1717    0.0560 H   0  0  0  0  0  0  0  0  0  0  0  0
    1.4332   -4.4731    0.0560 N   0  0  0  0  0  0  0  0  0  0  0  0
    1.8001   -5.5146    0.0560 N   0  0  0  0  0  0  0  0  0  0  0  0
  1  2  1  0  0  0  0
  3  1  1  0  0  0  0
  4  1  1  0  0  0  0
  5  6  3  0  0  0  0
M  RAD  1   1   2
M  END
