Coordinates from ORCA-job CH3-N2+-scan-d09-169-n800
 OpenBabel09191813373D

  6  4  0  0  0  0  0  0  0  0999 V2000
   -1.8216    4.6974    0.0410 C   0  0  0  0  0  0  0  0  0  0  0  0
   -1.2047    4.2571    0.8380 H   0  0  0  0  0  0  0  0  0  0  0  0
   -1.3438    5.1428   -0.8437 H   0  0  0  0  0  0  0  0  0  0  0  0
   -2.9179    4.6917    0.1301 H   0  0  0  0  0  0  0  0  0  0  0  0
    3.6814  -10.7723    0.0781 N   0  0  0  0  0  0  0  0  0  0  0  0
    4.0481  -11.8142    0.0926 N   0  0  0  0  0  0  0  0  0  0  0  0
  1  4  1  0  0  0  0
  1  2  1  0  0  0  0
  3  1  1  0  0  0  0
  5  6  3  0  0  0  0
M  RAD  1   1   2
M  END
