Coordinates from ORCA-job CH3-N2+-scan-d09-169-n800
 OpenBabel09191813373D

  6  4  0  0  0  0  0  0  0  0999 V2000
   -0.4648    0.8867    0.0560 C   0  0  0  0  0  0  0  0  0  0  0  0
    0.0553    1.0653    1.0095 H   0  0  0  0  0  0  0  0  0  0  0  0
    0.0552    1.0654   -0.8974 H   0  0  0  0  0  0  0  0  0  0  0  0
   -1.5057    0.5285    0.0560 H   0  0  0  0  0  0  0  0  0  0  0  0
    0.9660   -3.1516    0.0560 N   0  0  0  0  0  0  0  0  0  0  0  0
    1.3357   -4.1919    0.0560 N   0  0  0  0  0  0  0  0  0  0  0  0
  1  2  1  0  0  0  0
  3  1  1  0  0  0  0
  4  1  1  0  0  0  0
  5  6  3  0  0  0  0
M  RAD  1   1   2
M  END
