Coordinates from ORCA-job CH3-N2+-scan-d09-169-n800
 OpenBabel09191813373D

  6  4  0  0  0  0  0  0  0  0999 V2000
   -1.4948    3.8075    0.0556 C   0  0  0  0  0  0  0  0  0  0  0  0
   -0.9793    3.9980    1.0086 H   0  0  0  0  0  0  0  0  0  0  0  0
   -0.9872    4.0194   -0.8972 H   0  0  0  0  0  0  0  0  0  0  0  0
   -2.5189    3.4052    0.0553 H   0  0  0  0  0  0  0  0  0  0  0  0
    3.0284   -8.9926    0.0568 N   0  0  0  0  0  0  0  0  0  0  0  0
    3.3934  -10.0351    0.0570 N   0  0  0  0  0  0  0  0  0  0  0  0
  1  2  1  0  0  0  0
  3  1  1  0  0  0  0
  4  1  1  0  0  0  0
  5  6  3  0  0  0  0
M  RAD  1   1   2
M  END
