Coordinates from ORCA-job CH3-N2+-scan-d09-169-n800
 OpenBabel09191813373D

  6  4  0  0  0  0  0  0  0  0999 V2000
   -0.2583    0.3061    0.0560 C   0  0  0  0  0  0  0  0  0  0  0  0
    0.2481    0.5166    1.0054 H   0  0  0  0  0  0  0  0  0  0  0  0
    0.2480    0.5169   -0.8933 H   0  0  0  0  0  0  0  0  0  0  0  0
   -1.3024   -0.0292    0.0560 H   0  0  0  0  0  0  0  0  0  0  0  0
    0.5686   -2.0341    0.0558 N   0  0  0  0  0  0  0  0  0  0  0  0
    0.9376   -3.0739    0.0562 N   0  0  0  0  0  0  0  0  0  0  0  0
  1  2  1  0  0  0  0
  3  1  1  0  0  0  0
  4  1  1  0  0  0  0
  5  6  3  0  0  0  0
M  RAD  1   1   2
M  END
