Coordinates from ORCA-job CH3-N2+-scan-d09-169-n800
 OpenBabel09191813373D

  6  4  0  0  0  0  0  0  0  0999 V2000
   -1.4837    3.7761    0.0556 C   0  0  0  0  0  0  0  0  0  0  0  0
   -0.9685    3.9674    1.0086 H   0  0  0  0  0  0  0  0  0  0  0  0
   -0.9758    3.9871   -0.8972 H   0  0  0  0  0  0  0  0  0  0  0  0
   -2.5077    3.3737    0.0554 H   0  0  0  0  0  0  0  0  0  0  0  0
    3.0062   -8.9297    0.0568 N   0  0  0  0  0  0  0  0  0  0  0  0
    3.3712   -9.9722    0.0569 N   0  0  0  0  0  0  0  0  0  0  0  0
  1  2  1  0  0  0  0
  3  1  1  0  0  0  0
  4  1  1  0  0  0  0
  5  6  3  0  0  0  0
M  RAD  1   1   2
M  END
