Coordinates from ORCA-job CH3-N2+-scan-d09-169-n800
 OpenBabel09191813373D

  6  4  0  0  0  0  0  0  0  0999 V2000
   -0.8661    2.0262    0.0560 C   0  0  0  0  0  0  0  0  0  0  0  0
   -0.3518    2.2214    1.0097 H   0  0  0  0  0  0  0  0  0  0  0  0
   -0.3519    2.2217   -0.8976 H   0  0  0  0  0  0  0  0  0  0  0  0
   -1.8954    1.6352    0.0560 H   0  0  0  0  0  0  0  0  0  0  0  0
    1.7704   -5.4301    0.0560 N   0  0  0  0  0  0  0  0  0  0  0  0
    2.1363   -6.4721    0.0560 N   0  0  0  0  0  0  0  0  0  0  0  0
  1  2  1  0  0  0  0
  3  1  1  0  0  0  0
  4  1  1  0  0  0  0
  5  6  3  0  0  0  0
M  RAD  1   1   2
M  END
