Coordinates from ORCA-job CH3-N2+-scan-d09-169-n800
 OpenBabel09191813373D

  6  4  0  0  0  0  0  0  0  0999 V2000
   -1.6461    4.2355    0.0546 C   0  0  0  0  0  0  0  0  0  0  0  0
   -1.1209    4.4000    1.0070 H   0  0  0  0  0  0  0  0  0  0  0  0
   -1.1480    4.4730   -0.8970 H   0  0  0  0  0  0  0  0  0  0  0  0
   -2.6701    3.8335    0.0539 H   0  0  0  0  0  0  0  0  0  0  0  0
    3.3309   -9.8485    0.0586 N   0  0  0  0  0  0  0  0  0  0  0  0
    3.6957  -10.8911    0.0589 N   0  0  0  0  0  0  0  0  0  0  0  0
  1  2  1  0  0  0  0
  3  1  1  0  0  0  0
  4  1  1  0  0  0  0
  5  6  3  0  0  0  0
M  RAD  1   1   2
M  END
