Coordinates from ORCA-job CH3-N2+-scan-d09-169-n800
 OpenBabel09191813373D

  6  4  0  0  0  0  0  0  0  0999 V2000
   -1.7506    4.4959    0.0413 C   0  0  0  0  0  0  0  0  0  0  0  0
   -1.1372    4.0355    0.8296 H   0  0  0  0  0  0  0  0  0  0  0  0
   -1.2697    4.9416   -0.8417 H   0  0  0  0  0  0  0  0  0  0  0  0
   -2.8462    4.5102    0.1371 H   0  0  0  0  0  0  0  0  0  0  0  0
    3.5383  -10.3698    0.0777 N   0  0  0  0  0  0  0  0  0  0  0  0
    3.9070  -11.4110    0.0921 N   0  0  0  0  0  0  0  0  0  0  0  0
  1  4  1  0  0  0  0
  1  2  1  0  0  0  0
  3  1  1  0  0  0  0
  5  6  3  0  0  0  0
M  RAD  1   1   2
M  END
