Coordinates from ORCA-job CH3-N2+-scan-d09-169-n800
 OpenBabel09191813373D

  6  4  0  0  0  0  0  0  0  0999 V2000
   -1.0258    2.4795    0.0560 C   0  0  0  0  0  0  0  0  0  0  0  0
   -0.5132    2.6787    1.0095 H   0  0  0  0  0  0  0  0  0  0  0  0
   -0.5135    2.6796   -0.8974 H   0  0  0  0  0  0  0  0  0  0  0  0
   -2.0516    2.0800    0.0560 H   0  0  0  0  0  0  0  0  0  0  0  0
    2.0900   -6.3366    0.0560 N   0  0  0  0  0  0  0  0  0  0  0  0
    2.4556   -7.3788    0.0560 N   0  0  0  0  0  0  0  0  0  0  0  0
  1  2  1  0  0  0  0
  3  1  1  0  0  0  0
  4  1  1  0  0  0  0
  5  6  3  0  0  0  0
M  RAD  1   1   2
M  END
