Coordinates from ORCA-job CH3-N2+-scan-d09-169-n800
 OpenBabel09191813373D

  6  4  0  0  0  0  0  0  0  0999 V2000
   -0.9170    2.1711    0.0560 C   0  0  0  0  0  0  0  0  0  0  0  0
   -0.4037    2.3689    1.0097 H   0  0  0  0  0  0  0  0  0  0  0  0
   -0.4038    2.3694   -0.8976 H   0  0  0  0  0  0  0  0  0  0  0  0
   -1.9442    1.7746    0.0560 H   0  0  0  0  0  0  0  0  0  0  0  0
    1.8723   -5.7198    0.0560 N   0  0  0  0  0  0  0  0  0  0  0  0
    2.2379   -6.7618    0.0560 N   0  0  0  0  0  0  0  0  0  0  0  0
  1  2  1  0  0  0  0
  3  1  1  0  0  0  0
  4  1  1  0  0  0  0
  5  6  3  0  0  0  0
M  RAD  1   1   2
M  END
