Coordinates from ORCA-job CH3-N2+-scan-d09-169-n800
 OpenBabel09191813373D

  6  4  0  0  0  0  0  0  0  0999 V2000
   -1.3659    3.4425    0.0558 C   0  0  0  0  0  0  0  0  0  0  0  0
   -0.8526    3.6393    1.0089 H   0  0  0  0  0  0  0  0  0  0  0  0
   -0.8558    3.6479   -0.8971 H   0  0  0  0  0  0  0  0  0  0  0  0
   -2.3901    3.0402    0.0557 H   0  0  0  0  0  0  0  0  0  0  0  0
    2.7705   -8.2625    0.0564 N   0  0  0  0  0  0  0  0  0  0  0  0
    3.1355   -9.3050    0.0564 N   0  0  0  0  0  0  0  0  0  0  0  0
  1  2  1  0  0  0  0
  3  1  1  0  0  0  0
  4  1  1  0  0  0  0
  5  6  3  0  0  0  0
M  RAD  1   1   2
M  END
