Coordinates from ORCA-job CH3-N2+-scan-d09-169-n800
 OpenBabel09191813373D

  6  4  0  0  0  0  0  0  0  0999 V2000
   -0.6336    1.3652    0.0560 C   0  0  0  0  0  0  0  0  0  0  0  0
   -0.1152    1.5490    1.0097 H   0  0  0  0  0  0  0  0  0  0  0  0
   -0.1152    1.5491   -0.8976 H   0  0  0  0  0  0  0  0  0  0  0  0
   -1.6710    0.9963    0.0560 H   0  0  0  0  0  0  0  0  0  0  0  0
    1.3043   -4.1080    0.0560 N   0  0  0  0  0  0  0  0  0  0  0  0
    1.6723   -5.1491    0.0560 N   0  0  0  0  0  0  0  0  0  0  0  0
  1  2  1  0  0  0  0
  3  1  1  0  0  0  0
  4  1  1  0  0  0  0
  5  6  3  0  0  0  0
M  RAD  1   1   2
M  END
