Coordinates from ORCA-job CH3-N2+-scan-d09-169-n800
 OpenBabel09191813373D

  6  4  0  0  0  0  0  0  0  0999 V2000
   -0.4871    0.9496    0.0560 C   0  0  0  0  0  0  0  0  0  0  0  0
    0.0330    1.1283    1.0096 H   0  0  0  0  0  0  0  0  0  0  0  0
    0.0330    1.1284   -0.8975 H   0  0  0  0  0  0  0  0  0  0  0  0
   -1.5280    0.5910    0.0560 H   0  0  0  0  0  0  0  0  0  0  0  0
    1.0106   -3.2773    0.0560 N   0  0  0  0  0  0  0  0  0  0  0  0
    1.3802   -4.3177    0.0560 N   0  0  0  0  0  0  0  0  0  0  0  0
  1  2  1  0  0  0  0
  3  1  1  0  0  0  0
  4  1  1  0  0  0  0
  5  6  3  0  0  0  0
M  RAD  1   1   2
M  END
