Coordinates from ORCA-job CH3-N2+-scan-d09-169-n800
 OpenBabel09191813373D

  6  4  0  0  0  0  0  0  0  0999 V2000
   -0.7398    1.6674    0.0560 C   0  0  0  0  0  0  0  0  0  0  0  0
   -0.2235    1.8571    1.0097 H   0  0  0  0  0  0  0  0  0  0  0  0
   -0.2235    1.8573   -0.8976 H   0  0  0  0  0  0  0  0  0  0  0  0
   -1.7731    1.2870    0.0560 H   0  0  0  0  0  0  0  0  0  0  0  0
    1.5175   -4.7124    0.0560 N   0  0  0  0  0  0  0  0  0  0  0  0
    1.8840   -5.7541    0.0560 N   0  0  0  0  0  0  0  0  0  0  0  0
  1  2  1  0  0  0  0
  3  1  1  0  0  0  0
  4  1  1  0  0  0  0
  5  6  3  0  0  0  0
M  RAD  1   1   2
M  END
