Coordinates from ORCA-job CH3-N2+-scan-d09-169-n800
 OpenBabel09191813373D

  6  4  0  0  0  0  0  0  0  0999 V2000
   -1.6839    4.3426    0.0539 C   0  0  0  0  0  0  0  0  0  0  0  0
   -1.1509    4.4859    1.0054 H   0  0  0  0  0  0  0  0  0  0  0  0
   -1.1931    4.5997   -0.8963 H   0  0  0  0  0  0  0  0  0  0  0  0
   -2.7083    3.9417    0.0528 H   0  0  0  0  0  0  0  0  0  0  0  0
    3.4065  -10.0624    0.0600 N   0  0  0  0  0  0  0  0  0  0  0  0
    3.7714  -11.1050    0.0604 N   0  0  0  0  0  0  0  0  0  0  0  0
  1  2  1  0  0  0  0
  3  1  1  0  0  0  0
  4  1  1  0  0  0  0
  5  6  3  0  0  0  0
M  RAD  1   1   2
M  END
