Coordinates from ORCA-job CH3-N2+-scan-d09-169-n800
 OpenBabel09191813373D

  6  4  0  0  0  0  0  0  0  0999 V2000
   -1.3926    3.5180    0.0558 C   0  0  0  0  0  0  0  0  0  0  0  0
   -0.8790    3.7140    1.0089 H   0  0  0  0  0  0  0  0  0  0  0  0
   -0.8828    3.7243   -0.8971 H   0  0  0  0  0  0  0  0  0  0  0  0
   -2.4167    3.1157    0.0557 H   0  0  0  0  0  0  0  0  0  0  0  0
    2.8238   -8.4136    0.0564 N   0  0  0  0  0  0  0  0  0  0  0  0
    3.1889   -9.4561    0.0565 N   0  0  0  0  0  0  0  0  0  0  0  0
  1  2  1  0  0  0  0
  3  1  1  0  0  0  0
  4  1  1  0  0  0  0
  5  6  3  0  0  0  0
M  RAD  1   1   2
M  END
