Coordinates from ORCA-job CH3-N2+-scan-d09-169-n800
 OpenBabel09191813373D

  6  4  0  0  0  0  0  0  0  0999 V2000
   -0.4022    0.7101    0.0560 C   0  0  0  0  0  0  0  0  0  0  0  0
    0.1173    0.8899    1.0091 H   0  0  0  0  0  0  0  0  0  0  0  0
    0.1173    0.8900   -0.8970 H   0  0  0  0  0  0  0  0  0  0  0  0
   -1.4426    0.3520    0.0560 H   0  0  0  0  0  0  0  0  0  0  0  0
    0.8411   -2.7997    0.0559 N   0  0  0  0  0  0  0  0  0  0  0  0
    1.2108   -3.8400    0.0561 N   0  0  0  0  0  0  0  0  0  0  0  0
  1  2  1  0  0  0  0
  3  1  1  0  0  0  0
  4  1  1  0  0  0  0
  5  6  3  0  0  0  0
M  RAD  1   1   2
M  END
