Coordinates from ORCA-job CH3-N2+-scan-d09-169-n800
 OpenBabel09191813373D

  6  4  0  0  0  0  0  0  0  0999 V2000
   -1.5727    4.0278    0.0552 C   0  0  0  0  0  0  0  0  0  0  0  0
   -1.0542    4.2103    1.0082 H   0  0  0  0  0  0  0  0  0  0  0  0
   -1.0680    4.2475   -0.8972 H   0  0  0  0  0  0  0  0  0  0  0  0
   -2.5967    3.6257    0.0549 H   0  0  0  0  0  0  0  0  0  0  0  0
    3.1841   -9.4331    0.0574 N   0  0  0  0  0  0  0  0  0  0  0  0
    3.5490  -10.4757    0.0576 N   0  0  0  0  0  0  0  0  0  0  0  0
  1  2  1  0  0  0  0
  3  1  1  0  0  0  0
  4  1  1  0  0  0  0
  5  6  3  0  0  0  0
M  RAD  1   1   2
M  END
