Coordinates from ORCA-job CH3-N2+-scan-d09-169-n800
 OpenBabel09191813373D

  6  4  0  0  0  0  0  0  0  0999 V2000
   -0.3999    0.7038    0.0560 C   0  0  0  0  0  0  0  0  0  0  0  0
    0.1195    0.8837    1.0090 H   0  0  0  0  0  0  0  0  0  0  0  0
    0.1195    0.8838   -0.8970 H   0  0  0  0  0  0  0  0  0  0  0  0
   -1.4403    0.3457    0.0560 H   0  0  0  0  0  0  0  0  0  0  0  0
    0.8366   -2.7872    0.0559 N   0  0  0  0  0  0  0  0  0  0  0  0
    1.2063   -3.8274    0.0561 N   0  0  0  0  0  0  0  0  0  0  0  0
  1  2  1  0  0  0  0
  3  1  1  0  0  0  0
  4  1  1  0  0  0  0
  5  6  3  0  0  0  0
M  RAD  1   1   2
M  END
