Coordinates from ORCA-job CH3-N2+-scan-d09-169-n800
 OpenBabel09191813373D

  6  4  0  0  0  0  0  0  0  0999 V2000
   -1.2681    3.1656    0.0559 C   0  0  0  0  0  0  0  0  0  0  0  0
   -0.7555    3.3643    1.0091 H   0  0  0  0  0  0  0  0  0  0  0  0
   -0.7571    3.3687   -0.8972 H   0  0  0  0  0  0  0  0  0  0  0  0
   -2.2925    2.7636    0.0559 H   0  0  0  0  0  0  0  0  0  0  0  0
    2.5747   -7.7087    0.0562 N   0  0  0  0  0  0  0  0  0  0  0  0
    2.9400   -8.7511    0.0562 N   0  0  0  0  0  0  0  0  0  0  0  0
  1  2  1  0  0  0  0
  3  1  1  0  0  0  0
  4  1  1  0  0  0  0
  5  6  3  0  0  0  0
M  RAD  1   1   2
M  END
