Coordinates from ORCA-job CH3-N2+-scan-d09-169-n800
 OpenBabel09191813373D

  6  4  0  0  0  0  0  0  0  0999 V2000
   -1.7905    4.6093    0.0412 C   0  0  0  0  0  0  0  0  0  0  0  0
   -1.1746    4.1621    0.8352 H   0  0  0  0  0  0  0  0  0  0  0  0
   -1.3116    5.0549   -0.8430 H   0  0  0  0  0  0  0  0  0  0  0  0
   -2.8866    4.6102    0.1325 H   0  0  0  0  0  0  0  0  0  0  0  0
    3.6187  -10.5962    0.0778 N   0  0  0  0  0  0  0  0  0  0  0  0
    3.9862  -11.6379    0.0924 N   0  0  0  0  0  0  0  0  0  0  0  0
  1  4  1  0  0  0  0
  1  2  1  0  0  0  0
  3  1  1  0  0  0  0
  5  6  3  0  0  0  0
M  RAD  1   1   2
M  END
