Coordinates from ORCA-job CH3-N2+-scan-d09-169-n800
 OpenBabel09191813373D

  6  4  0  0  0  0  0  0  0  0999 V2000
   -0.3932    0.6848    0.0560 C   0  0  0  0  0  0  0  0  0  0  0  0
    0.1261    0.8650    1.0090 H   0  0  0  0  0  0  0  0  0  0  0  0
    0.1261    0.8651   -0.8969 H   0  0  0  0  0  0  0  0  0  0  0  0
   -1.4335    0.3267    0.0560 H   0  0  0  0  0  0  0  0  0  0  0  0
    0.8232   -2.7495    0.0559 N   0  0  0  0  0  0  0  0  0  0  0  0
    1.1929   -3.7898    0.0561 N   0  0  0  0  0  0  0  0  0  0  0  0
  1  2  1  0  0  0  0
  3  1  1  0  0  0  0
  4  1  1  0  0  0  0
  5  6  3  0  0  0  0
M  RAD  1   1   2
M  END
