Coordinates from ORCA-job CH3-N2+-scan-d09-169-n800
 OpenBabel09191813373D

  6  4  0  0  0  0  0  0  0  0999 V2000
   -1.0014    2.4103    0.0560 C   0  0  0  0  0  0  0  0  0  0  0  0
   -0.4886    2.6093    1.0095 H   0  0  0  0  0  0  0  0  0  0  0  0
   -0.4889    2.6101   -0.8975 H   0  0  0  0  0  0  0  0  0  0  0  0
   -2.0274    2.0112    0.0560 H   0  0  0  0  0  0  0  0  0  0  0  0
    2.0411   -6.1982    0.0560 N   0  0  0  0  0  0  0  0  0  0  0  0
    2.4067   -7.2403    0.0560 N   0  0  0  0  0  0  0  0  0  0  0  0
  1  2  1  0  0  0  0
  3  1  1  0  0  0  0
  4  1  1  0  0  0  0
  5  6  3  0  0  0  0
M  RAD  1   1   2
M  END
