Coordinates from ORCA-job CH3-N2+-scan-d09-169-n800
 OpenBabel09191813373D

  6  4  0  0  0  0  0  0  0  0999 V2000
   -0.4961    0.9748    0.0560 C   0  0  0  0  0  0  0  0  0  0  0  0
    0.0241    1.1535    1.0096 H   0  0  0  0  0  0  0  0  0  0  0  0
    0.0241    1.1536   -0.8975 H   0  0  0  0  0  0  0  0  0  0  0  0
   -1.5369    0.6161    0.0560 H   0  0  0  0  0  0  0  0  0  0  0  0
    1.0284   -3.3276    0.0560 N   0  0  0  0  0  0  0  0  0  0  0  0
    1.3980   -4.3681    0.0560 N   0  0  0  0  0  0  0  0  0  0  0  0
  1  2  1  0  0  0  0
  3  1  1  0  0  0  0
  4  1  1  0  0  0  0
  5  6  3  0  0  0  0
M  RAD  1   1   2
M  END
