Coordinates from ORCA-job CH3-N2+-scan-d09-169-n800
 OpenBabel09191813373D

  6  4  0  0  0  0  0  0  0  0999 V2000
   -0.4448    0.8300    0.0560 C   0  0  0  0  0  0  0  0  0  0  0  0
    0.0753    1.0085    1.0094 H   0  0  0  0  0  0  0  0  0  0  0  0
    0.0753    1.0086   -0.8973 H   0  0  0  0  0  0  0  0  0  0  0  0
   -1.4858    0.4723    0.0560 H   0  0  0  0  0  0  0  0  0  0  0  0
    0.9259   -3.0384    0.0559 N   0  0  0  0  0  0  0  0  0  0  0  0
    1.2956   -4.0787    0.0560 N   0  0  0  0  0  0  0  0  0  0  0  0
  1  2  1  0  0  0  0
  3  1  1  0  0  0  0
  4  1  1  0  0  0  0
  5  6  3  0  0  0  0
M  RAD  1   1   2
M  END
