Coordinates from ORCA-job CH3-N2+-scan-d09-169-n800
 OpenBabel09191813373D

  6  4  0  0  0  0  0  0  0  0999 V2000
   -1.8573    4.7981    0.0409 C   0  0  0  0  0  0  0  0  0  0  0  0
   -1.2394    4.3632    0.8400 H   0  0  0  0  0  0  0  0  0  0  0  0
   -1.3803    5.2435   -0.8443 H   0  0  0  0  0  0  0  0  0  0  0  0
   -2.9536    4.7868    0.1280 H   0  0  0  0  0  0  0  0  0  0  0  0
    3.7530  -10.9735    0.0785 N   0  0  0  0  0  0  0  0  0  0  0  0
    4.1190  -12.0157    0.0930 N   0  0  0  0  0  0  0  0  0  0  0  0
  1  4  1  0  0  0  0
  1  2  1  0  0  0  0
  3  1  1  0  0  0  0
  5  6  3  0  0  0  0
M  RAD  1   1   2
M  END
