Coordinates from ORCA-job CH3-N2+-scan-d09-169-n800
 OpenBabel09191813373D

  6  4  0  0  0  0  0  0  0  0999 V2000
   -0.8948    2.1081    0.0560 C   0  0  0  0  0  0  0  0  0  0  0  0
   -0.3812    2.3049    1.0097 H   0  0  0  0  0  0  0  0  0  0  0  0
   -0.3813    2.3053   -0.8976 H   0  0  0  0  0  0  0  0  0  0  0  0
   -1.9228    1.7137    0.0560 H   0  0  0  0  0  0  0  0  0  0  0  0
    1.8280   -5.5938    0.0560 N   0  0  0  0  0  0  0  0  0  0  0  0
    2.1937   -6.6358    0.0560 N   0  0  0  0  0  0  0  0  0  0  0  0
  1  2  1  0  0  0  0
  3  1  1  0  0  0  0
  4  1  1  0  0  0  0
  5  6  3  0  0  0  0
M  RAD  1   1   2
M  END
