Coordinates from ORCA-job CH3-N2+-scan-d09-169-n800
 OpenBabel09191813373D

  6  4  0  0  0  0  0  0  0  0999 V2000
   -0.9725    2.3285    0.0560 C   0  0  0  0  0  0  0  0  0  0  0  0
   -0.4596    2.5272    1.0096 H   0  0  0  0  0  0  0  0  0  0  0  0
   -0.4598    2.5278   -0.8975 H   0  0  0  0  0  0  0  0  0  0  0  0
   -1.9988    1.9300    0.0560 H   0  0  0  0  0  0  0  0  0  0  0  0
    1.9834   -6.0345    0.0560 N   0  0  0  0  0  0  0  0  0  0  0  0
    2.3490   -7.0766    0.0560 N   0  0  0  0  0  0  0  0  0  0  0  0
  1  2  1  0  0  0  0
  3  1  1  0  0  0  0
  4  1  1  0  0  0  0
  5  6  3  0  0  0  0
M  RAD  1   1   2
M  END
