Coordinates from ORCA-job CH3-N2+-scan-d09-169-n800
 OpenBabel09191813373D

  6  4  0  0  0  0  0  0  0  0999 V2000
   -1.3903    3.5117    0.0558 C   0  0  0  0  0  0  0  0  0  0  0  0
   -0.8768    3.7078    1.0089 H   0  0  0  0  0  0  0  0  0  0  0  0
   -0.8806    3.7180   -0.8971 H   0  0  0  0  0  0  0  0  0  0  0  0
   -2.4145    3.1094    0.0557 H   0  0  0  0  0  0  0  0  0  0  0  0
    2.8194   -8.4010    0.0564 N   0  0  0  0  0  0  0  0  0  0  0  0
    3.1844   -9.4435    0.0565 N   0  0  0  0  0  0  0  0  0  0  0  0
  1  2  1  0  0  0  0
  3  1  1  0  0  0  0
  4  1  1  0  0  0  0
  5  6  3  0  0  0  0
M  RAD  1   1   2
M  END
