Coordinates from ORCA-job CH3-N2+-scan-d09-169-n800
 OpenBabel09191813373D

  6  4  0  0  0  0  0  0  0  0999 V2000
   -1.5860    4.0656    0.0552 C   0  0  0  0  0  0  0  0  0  0  0  0
   -1.0668    4.2461    1.0080 H   0  0  0  0  0  0  0  0  0  0  0  0
   -1.0820    4.2871   -0.8972 H   0  0  0  0  0  0  0  0  0  0  0  0
   -2.6101    3.6635    0.0548 H   0  0  0  0  0  0  0  0  0  0  0  0
    3.2108   -9.5087    0.0576 N   0  0  0  0  0  0  0  0  0  0  0  0
    3.5757  -10.5513    0.0577 N   0  0  0  0  0  0  0  0  0  0  0  0
  1  2  1  0  0  0  0
  3  1  1  0  0  0  0
  4  1  1  0  0  0  0
  5  6  3  0  0  0  0
M  RAD  1   1   2
M  END
