Coordinates from ORCA-job CH3-N2+-scan-d09-169-n800
 OpenBabel09191813373D

  6  4  0  0  0  0  0  0  0  0999 V2000
   -1.2258    3.0460    0.0560 C   0  0  0  0  0  0  0  0  0  0  0  0
   -0.7134    3.2451    1.0092 H   0  0  0  0  0  0  0  0  0  0  0  0
   -0.7146    3.2484   -0.8972 H   0  0  0  0  0  0  0  0  0  0  0  0
   -2.2504    2.6443    0.0559 H   0  0  0  0  0  0  0  0  0  0  0  0
    2.4902   -7.4695    0.0561 N   0  0  0  0  0  0  0  0  0  0  0  0
    2.8555   -8.5119    0.0562 N   0  0  0  0  0  0  0  0  0  0  0  0
  1  2  1  0  0  0  0
  3  1  1  0  0  0  0
  4  1  1  0  0  0  0
  5  6  3  0  0  0  0
M  RAD  1   1   2
M  END
