Coordinates from ORCA-job CH3-N2+-scan-d09-169-n800
 OpenBabel09191813373D

  6  4  0  0  0  0  0  0  0  0999 V2000
   -1.0058    2.4229    0.0560 C   0  0  0  0  0  0  0  0  0  0  0  0
   -0.4931    2.6219    1.0095 H   0  0  0  0  0  0  0  0  0  0  0  0
   -0.4934    2.6227   -0.8975 H   0  0  0  0  0  0  0  0  0  0  0  0
   -2.0318    2.0237    0.0560 H   0  0  0  0  0  0  0  0  0  0  0  0
    2.0500   -6.2234    0.0560 N   0  0  0  0  0  0  0  0  0  0  0  0
    2.4156   -7.2655    0.0560 N   0  0  0  0  0  0  0  0  0  0  0  0
  1  2  1  0  0  0  0
  3  1  1  0  0  0  0
  4  1  1  0  0  0  0
  5  6  3  0  0  0  0
M  RAD  1   1   2
M  END
