Coordinates from ORCA-job CH3-N2+-scan-d09-169-n800
 OpenBabel09191813373D

  6  4  0  0  0  0  0  0  0  0999 V2000
   -1.0925    2.6683    0.0560 C   0  0  0  0  0  0  0  0  0  0  0  0
   -0.5800    2.8678    1.0094 H   0  0  0  0  0  0  0  0  0  0  0  0
   -0.5805    2.8692   -0.8973 H   0  0  0  0  0  0  0  0  0  0  0  0
   -2.1177    2.2678    0.0560 H   0  0  0  0  0  0  0  0  0  0  0  0
    2.2234   -6.7143    0.0560 N   0  0  0  0  0  0  0  0  0  0  0  0
    2.5889   -7.7565    0.0561 N   0  0  0  0  0  0  0  0  0  0  0  0
  1  2  1  0  0  0  0
  3  1  1  0  0  0  0
  4  1  1  0  0  0  0
  5  6  3  0  0  0  0
M  RAD  1   1   2
M  END
