Coordinates from ORCA-job CH3-N2+-scan-d09-169-n800
 OpenBabel09191813373D

  6  4  0  0  0  0  0  0  0  0999 V2000
   -0.5472    1.1196    0.0560 C   0  0  0  0  0  0  0  0  0  0  0  0
   -0.0274    1.2994    1.0097 H   0  0  0  0  0  0  0  0  0  0  0  0
   -0.0274    1.2994   -0.8976 H   0  0  0  0  0  0  0  0  0  0  0  0
   -1.5874    0.7588    0.0560 H   0  0  0  0  0  0  0  0  0  0  0  0
    1.1309   -3.6171    0.0561 N   0  0  0  0  0  0  0  0  0  0  0  0
    1.5001   -4.6577    0.0559 N   0  0  0  0  0  0  0  0  0  0  0  0
  1  2  1  0  0  0  0
  3  1  1  0  0  0  0
  4  1  1  0  0  0  0
  6  5  3  0  0  0  0
M  RAD  1   1   2
M  END
