Coordinates from ORCA-job CH3-N2+-scan-d09-169-n800
 OpenBabel09191813373D

  6  4  0  0  0  0  0  0  0  0999 V2000
   -1.8506    4.7792    0.0409 C   0  0  0  0  0  0  0  0  0  0  0  0
   -1.2328    4.3435    0.8397 H   0  0  0  0  0  0  0  0  0  0  0  0
   -1.3734    5.2246   -0.8442 H   0  0  0  0  0  0  0  0  0  0  0  0
   -2.9469    4.7688    0.1284 H   0  0  0  0  0  0  0  0  0  0  0  0
    3.7396  -10.9358    0.0784 N   0  0  0  0  0  0  0  0  0  0  0  0
    4.1057  -11.9779    0.0929 N   0  0  0  0  0  0  0  0  0  0  0  0
  1  4  1  0  0  0  0
  1  2  1  0  0  0  0
  3  1  1  0  0  0  0
  5  6  3  0  0  0  0
M  RAD  1   1   2
M  END
