Coordinates from ORCA-job CH3-N2+-scan-d09-169-n800
 OpenBabel09191813373D

  6  4  0  0  0  0  0  0  0  0999 V2000
   -1.5838    4.0593    0.0552 C   0  0  0  0  0  0  0  0  0  0  0  0
   -1.0647    4.2401    1.0081 H   0  0  0  0  0  0  0  0  0  0  0  0
   -1.0797    4.2805   -0.8972 H   0  0  0  0  0  0  0  0  0  0  0  0
   -2.6078    3.6572    0.0548 H   0  0  0  0  0  0  0  0  0  0  0  0
    3.2064   -9.4961    0.0575 N   0  0  0  0  0  0  0  0  0  0  0  0
    3.5712  -10.5387    0.0577 N   0  0  0  0  0  0  0  0  0  0  0  0
  1  2  1  0  0  0  0
  3  1  1  0  0  0  0
  4  1  1  0  0  0  0
  5  6  3  0  0  0  0
M  RAD  1   1   2
M  END
