Coordinates from ORCA-job CH3-N2+-scan-d09-169-n800
 OpenBabel09191813373D

  6  4  0  0  0  0  0  0  0  0999 V2000
   -1.7085    4.4118    0.0532 C   0  0  0  0  0  0  0  0  0  0  0  0
   -1.1673    4.5330    1.0031 H   0  0  0  0  0  0  0  0  0  0  0  0
   -1.2249    4.6885   -0.8952 H   0  0  0  0  0  0  0  0  0  0  0  0
   -2.7337    4.0133    0.0518 H   0  0  0  0  0  0  0  0  0  0  0  0
    3.4555  -10.2008    0.0613 N   0  0  0  0  0  0  0  0  0  0  0  0
    3.8205  -11.2434    0.0619 N   0  0  0  0  0  0  0  0  0  0  0  0
  1  2  1  0  0  0  0
  3  1  1  0  0  0  0
  4  1  1  0  0  0  0
  5  6  3  0  0  0  0
M  RAD  1   1   2
M  END
