Coordinates from ORCA-job CH3-N2+-scan-d09-169-n800
 OpenBabel09191813373D

  6  5  0  0  0  0  0  0  0  0999 V2000
   -0.1102   -0.1140    0.0560 C   0  0  0  0  0  0  0  0  0  0  0  0
    0.2971    0.3271    0.9742 H   0  0  0  0  0  0  0  0  0  0  0  0
    0.2971    0.3272   -0.8622 H   0  0  0  0  0  0  0  0  0  0  0  0
   -1.2038   -0.2035    0.0560 H   0  0  0  0  0  0  0  0  0  0  0  0
    0.3972   -1.5476    0.0560 N   0  0  0  0  0  0  0  0  0  0  0  0
    0.7643   -2.5868    0.0560 N   0  0  0  0  0  0  0  0  0  0  0  0
  1  2  1  0  0  0  0
  3  1  1  0  0  0  0
  4  1  1  0  0  0  0
  5  1  1  0  0  0  0
  6  5  1  0  0  0  0
M  RAD  2   5   2   6   3
M  END
