Coordinates from ORCA-job CH3-N2+-scan-d09-169-n800
 OpenBabel09191813373D

  6  4  0  0  0  0  0  0  0  0999 V2000
   -0.1885    0.1089    0.0560 C   0  0  0  0  0  0  0  0  0  0  0  0
    0.2857    0.3979    0.9980 H   0  0  0  0  0  0  0  0  0  0  0  0
    0.2857    0.3981   -0.8860 H   0  0  0  0  0  0  0  0  0  0  0  0
   -1.2524   -0.1451    0.0560 H   0  0  0  0  0  0  0  0  0  0  0  0
    0.4715   -1.7593    0.0558 N   0  0  0  0  0  0  0  0  0  0  0  0
    0.8395   -2.7981    0.0562 N   0  0  0  0  0  0  0  0  0  0  0  0
  1  2  1  0  0  0  0
  3  1  1  0  0  0  0
  4  1  1  0  0  0  0
  5  6  3  0  0  0  0
M  RAD  1   1   2
M  END
