Coordinates from ORCA-job CH3-N2+-scan-d09-169-n800
 OpenBabel09191813373D

  6  5  0  0  0  0  0  0  0  0999 V2000
   -0.1315   -0.0532    0.0560 C   0  0  0  0  0  0  0  0  0  0  0  0
    0.2962    0.3432    0.9826 H   0  0  0  0  0  0  0  0  0  0  0  0
    0.2962    0.3432   -0.8706 H   0  0  0  0  0  0  0  0  0  0  0  0
   -1.2178   -0.1919    0.0560 H   0  0  0  0  0  0  0  0  0  0  0  0
    0.4157   -1.6002    0.0560 N   0  0  0  0  0  0  0  0  0  0  0  0
    0.7828   -2.6387    0.0560 N   0  0  0  0  0  0  0  0  0  0  0  0
  1  2  1  0  0  0  0
  3  1  1  0  0  0  0
  4  1  1  0  0  0  0
  5  1  1  0  0  0  0
  6  5  1  0  0  0  0
M  RAD  2   5   2   6   3
M  END
