Coordinates from ORCA-job CH3-N2+-scan-d09-169-n800
 OpenBabel09191813373D

  6  4  0  0  0  0  0  0  0  0999 V2000
   -0.2295    0.2248    0.0560 C   0  0  0  0  0  0  0  0  0  0  0  0
    0.2672    0.4592    1.0033 H   0  0  0  0  0  0  0  0  0  0  0  0
    0.2671    0.4595   -0.8912 H   0  0  0  0  0  0  0  0  0  0  0  0
   -1.2796   -0.0862    0.0560 H   0  0  0  0  0  0  0  0  0  0  0  0
    0.5239   -1.9077    0.0558 N   0  0  0  0  0  0  0  0  0  0  0  0
    0.8925   -2.9472    0.0562 N   0  0  0  0  0  0  0  0  0  0  0  0
  1  2  1  0  0  0  0
  3  1  1  0  0  0  0
  4  1  1  0  0  0  0
  5  6  3  0  0  0  0
M  RAD  1   1   2
M  END
