Coordinates from ORCA-job CH3-N2+-scan-d09-169-n800
 OpenBabel09191813373D

  6  4  0  0  0  0  0  0  0  0999 V2000
   -1.5905    4.0782    0.0551 C   0  0  0  0  0  0  0  0  0  0  0  0
   -1.0710    4.2580    1.0080 H   0  0  0  0  0  0  0  0  0  0  0  0
   -1.0867    4.3003   -0.8972 H   0  0  0  0  0  0  0  0  0  0  0  0
   -2.6145    3.6761    0.0547 H   0  0  0  0  0  0  0  0  0  0  0  0
    3.2197   -9.5338    0.0576 N   0  0  0  0  0  0  0  0  0  0  0  0
    3.5846  -10.5764    0.0578 N   0  0  0  0  0  0  0  0  0  0  0  0
  1  2  1  0  0  0  0
  3  1  1  0  0  0  0
  4  1  1  0  0  0  0
  5  6  3  0  0  0  0
M  RAD  1   1   2
M  END
