Coordinates from ORCA-job CH3-N2+-scan-d09-169-n800
 OpenBabel09191813373D

  6  4  0  0  0  0  0  0  0  0999 V2000
   -1.1236    2.7565    0.0560 C   0  0  0  0  0  0  0  0  0  0  0  0
   -0.6112    2.9560    1.0093 H   0  0  0  0  0  0  0  0  0  0  0  0
   -0.6118    2.9577   -0.8973 H   0  0  0  0  0  0  0  0  0  0  0  0
   -2.1486    2.3555    0.0560 H   0  0  0  0  0  0  0  0  0  0  0  0
    2.2856   -6.8905    0.0561 N   0  0  0  0  0  0  0  0  0  0  0  0
    2.6511   -7.9328    0.0561 N   0  0  0  0  0  0  0  0  0  0  0  0
  1  2  1  0  0  0  0
  3  1  1  0  0  0  0
  4  1  1  0  0  0  0
  5  6  3  0  0  0  0
M  RAD  1   1   2
M  END
