Coordinates from ORCA-job CH3-N2+-scan-d09-169-n800
 OpenBabel09191813373D

  6  4  0  0  0  0  0  0  0  0999 V2000
   -1.2925    3.2348    0.0559 C   0  0  0  0  0  0  0  0  0  0  0  0
   -0.7798    3.4332    1.0091 H   0  0  0  0  0  0  0  0  0  0  0  0
   -0.7817    3.4384   -0.8972 H   0  0  0  0  0  0  0  0  0  0  0  0
   -2.3169    2.8327    0.0558 H   0  0  0  0  0  0  0  0  0  0  0  0
    2.6237   -7.8472    0.0562 N   0  0  0  0  0  0  0  0  0  0  0  0
    2.9889   -8.8896    0.0562 N   0  0  0  0  0  0  0  0  0  0  0  0
  1  2  1  0  0  0  0
  3  1  1  0  0  0  0
  4  1  1  0  0  0  0
  5  6  3  0  0  0  0
M  RAD  1   1   2
M  END
