Coordinates from ORCA-job CH3-N2+-scan-d09-169-n800
 OpenBabel09191813373D

  6  5  0  0  0  0  0  0  0  0999 V2000
   -0.0995   -0.1446    0.0560 C   0  0  0  0  0  0  0  0  0  0  0  0
    0.2971    0.3193    0.9696 H   0  0  0  0  0  0  0  0  0  0  0  0
    0.2971    0.3193   -0.8575 H   0  0  0  0  0  0  0  0  0  0  0  0
   -1.1965   -0.2087    0.0560 H   0  0  0  0  0  0  0  0  0  0  0  0
    0.3880   -1.5215    0.0560 N   0  0  0  0  0  0  0  0  0  0  0  0
    0.7553   -2.5614    0.0560 N   0  0  0  0  0  0  0  0  0  0  0  0
  1  2  1  0  0  0  0
  3  1  1  0  0  0  0
  4  1  1  0  0  0  0
  5  1  1  0  0  0  0
  6  5  1  0  0  0  0
M  RAD  2   5   2   6   3
M  END
