Coordinates from ORCA-job CH3-N2+-scan-d09-169-n800
 OpenBabel09191813373D

  6  4  0  0  0  0  0  0  0  0999 V2000
   -0.8439    1.9633    0.0560 C   0  0  0  0  0  0  0  0  0  0  0  0
   -0.3293    2.1576    1.0097 H   0  0  0  0  0  0  0  0  0  0  0  0
   -0.3294    2.1578   -0.8976 H   0  0  0  0  0  0  0  0  0  0  0  0
   -1.8739    1.5740    0.0560 H   0  0  0  0  0  0  0  0  0  0  0  0
    1.7261   -5.3042    0.0560 N   0  0  0  0  0  0  0  0  0  0  0  0
    2.0920   -6.3461    0.0560 N   0  0  0  0  0  0  0  0  0  0  0  0
  1  2  1  0  0  0  0
  3  1  1  0  0  0  0
  4  1  1  0  0  0  0
  5  6  3  0  0  0  0
M  RAD  1   1   2
M  END
