Coordinates from ORCA-job CH3-N2+-scan-d09-169-n800
 OpenBabel09191813373D

  6  4  0  0  0  0  0  0  0  0999 V2000
   -0.5938    1.2518    0.0560 C   0  0  0  0  0  0  0  0  0  0  0  0
   -0.0746    1.4336    1.0097 H   0  0  0  0  0  0  0  0  0  0  0  0
   -0.0746    1.4337   -0.8976 H   0  0  0  0  0  0  0  0  0  0  0  0
   -1.6326    0.8869    0.0560 H   0  0  0  0  0  0  0  0  0  0  0  0
    1.2242   -3.8814    0.0560 N   0  0  0  0  0  0  0  0  0  0  0  0
    1.5930   -4.9222    0.0559 N   0  0  0  0  0  0  0  0  0  0  0  0
  1  2  1  0  0  0  0
  3  1  1  0  0  0  0
  4  1  1  0  0  0  0
  6  5  3  0  0  0  0
M  RAD  1   1   2
M  END
