Coordinates from ORCA-job CH3-N2+-scan-d09-169-n800
 OpenBabel09191813373D

  6  4  0  0  0  0  0  0  0  0999 V2000
   -1.5149    3.8642    0.0555 C   0  0  0  0  0  0  0  0  0  0  0  0
   -0.9987    4.0530    1.0085 H   0  0  0  0  0  0  0  0  0  0  0  0
   -1.0078    4.0776   -0.8972 H   0  0  0  0  0  0  0  0  0  0  0  0
   -2.5389    3.4618    0.0553 H   0  0  0  0  0  0  0  0  0  0  0  0
    3.0685   -9.1059    0.0570 N   0  0  0  0  0  0  0  0  0  0  0  0
    3.4334  -10.1484    0.0571 N   0  0  0  0  0  0  0  0  0  0  0  0
  1  2  1  0  0  0  0
  3  1  1  0  0  0  0
  4  1  1  0  0  0  0
  5  6  3  0  0  0  0
M  RAD  1   1   2
M  END
