Coordinates from ORCA-job CH3-N2+-scan-d09-169-n800
 OpenBabel09191813373D

  6  4  0  0  0  0  0  0  0  0999 V2000
   -0.2097    0.1689    0.0560 C   0  0  0  0  0  0  0  0  0  0  0  0
    0.2775    0.4267    1.0012 H   0  0  0  0  0  0  0  0  0  0  0  0
    0.2774    0.4270   -0.8891 H   0  0  0  0  0  0  0  0  0  0  0  0
   -1.2659   -0.1179    0.0560 H   0  0  0  0  0  0  0  0  0  0  0  0
    0.4970   -1.8315    0.0558 N   0  0  0  0  0  0  0  0  0  0  0  0
    0.8654   -2.8707    0.0562 N   0  0  0  0  0  0  0  0  0  0  0  0
  1  2  1  0  0  0  0
  3  1  1  0  0  0  0
  4  1  1  0  0  0  0
  5  6  3  0  0  0  0
M  RAD  1   1   2
M  END
