Coordinates from ORCA-job CH3-N2+-scan-d09-169-n800
 OpenBabel09191813373D

  6  4  0  0  0  0  0  0  0  0999 V2000
   -1.7062    4.4055    0.0533 C   0  0  0  0  0  0  0  0  0  0  0  0
   -1.1660    4.5292    1.0034 H   0  0  0  0  0  0  0  0  0  0  0  0
   -1.2218    4.6800   -0.8953 H   0  0  0  0  0  0  0  0  0  0  0  0
   -2.7314    4.0067    0.0519 H   0  0  0  0  0  0  0  0  0  0  0  0
    3.4511  -10.1882    0.0611 N   0  0  0  0  0  0  0  0  0  0  0  0
    3.8160  -11.2308    0.0617 N   0  0  0  0  0  0  0  0  0  0  0  0
  1  2  1  0  0  0  0
  3  1  1  0  0  0  0
  4  1  1  0  0  0  0
  5  6  3  0  0  0  0
M  RAD  1   1   2
M  END
