Coordinates from ORCA-job CH3-N2+-scan-d09-169-n800
 OpenBabel09191813373D

  6  4  0  0  0  0  0  0  0  0999 V2000
   -0.5317    1.0755    0.0560 C   0  0  0  0  0  0  0  0  0  0  0  0
   -0.0117    1.2547    1.0096 H   0  0  0  0  0  0  0  0  0  0  0  0
   -0.0117    1.2548   -0.8976 H   0  0  0  0  0  0  0  0  0  0  0  0
   -1.5722    0.7158    0.0560 H   0  0  0  0  0  0  0  0  0  0  0  0
    1.0997   -3.5290    0.0561 N   0  0  0  0  0  0  0  0  0  0  0  0
    1.4691   -4.5695    0.0559 N   0  0  0  0  0  0  0  0  0  0  0  0
  1  2  1  0  0  0  0
  3  1  1  0  0  0  0
  4  1  1  0  0  0  0
  6  5  3  0  0  0  0
M  RAD  1   1   2
M  END
