Coordinates from ORCA-job CH3-N2+-scan-d09-169-n800
 OpenBabel09191813373D

  6  4  0  0  0  0  0  0  0  0999 V2000
   -1.2036    2.9830    0.0560 C   0  0  0  0  0  0  0  0  0  0  0  0
   -0.6912    3.1824    1.0092 H   0  0  0  0  0  0  0  0  0  0  0  0
   -0.6922    3.1852   -0.8972 H   0  0  0  0  0  0  0  0  0  0  0  0
   -2.2283    2.5815    0.0559 H   0  0  0  0  0  0  0  0  0  0  0  0
    2.4457   -7.3437    0.0561 N   0  0  0  0  0  0  0  0  0  0  0  0
    2.8111   -8.3860    0.0561 N   0  0  0  0  0  0  0  0  0  0  0  0
  1  2  1  0  0  0  0
  3  1  1  0  0  0  0
  4  1  1  0  0  0  0
  5  6  3  0  0  0  0
M  RAD  1   1   2
M  END
