Coordinates from ORCA-job CH3-N2+-scan-d09-169-n800
 OpenBabel09191813373D

  6  4  0  0  0  0  0  0  0  0999 V2000
   -1.2414    3.0900    0.0559 C   0  0  0  0  0  0  0  0  0  0  0  0
   -0.7289    3.2891    1.0091 H   0  0  0  0  0  0  0  0  0  0  0  0
   -0.7302    3.2927   -0.8972 H   0  0  0  0  0  0  0  0  0  0  0  0
   -2.2659    2.6882    0.0559 H   0  0  0  0  0  0  0  0  0  0  0  0
    2.5213   -7.5577    0.0561 N   0  0  0  0  0  0  0  0  0  0  0  0
    2.8867   -8.6000    0.0562 N   0  0  0  0  0  0  0  0  0  0  0  0
  1  2  1  0  0  0  0
  3  1  1  0  0  0  0
  4  1  1  0  0  0  0
  5  6  3  0  0  0  0
M  RAD  1   1   2
M  END
