Coordinates from ORCA-job CH3-N2+-scan-d09-169-n800
 OpenBabel09191813373D

  6  4  0  0  0  0  0  0  0  0999 V2000
   -0.4938    0.9685    0.0560 C   0  0  0  0  0  0  0  0  0  0  0  0
    0.0263    1.1472    1.0096 H   0  0  0  0  0  0  0  0  0  0  0  0
    0.0263    1.1473   -0.8975 H   0  0  0  0  0  0  0  0  0  0  0  0
   -1.5347    0.6099    0.0560 H   0  0  0  0  0  0  0  0  0  0  0  0
    1.0240   -3.3151    0.0560 N   0  0  0  0  0  0  0  0  0  0  0  0
    1.3936   -4.3555    0.0560 N   0  0  0  0  0  0  0  0  0  0  0  0
  1  2  1  0  0  0  0
  3  1  1  0  0  0  0
  4  1  1  0  0  0  0
  5  6  3  0  0  0  0
M  RAD  1   1   2
M  END
