Coordinates from ORCA-job CH3-N2+-scan-d09-169-n800
 OpenBabel09191813373D

  6  4  0  0  0  0  0  0  0  0999 V2000
   -0.8616    2.0137    0.0560 C   0  0  0  0  0  0  0  0  0  0  0  0
   -0.3473    2.2086    1.0097 H   0  0  0  0  0  0  0  0  0  0  0  0
   -0.3473    2.2089   -0.8976 H   0  0  0  0  0  0  0  0  0  0  0  0
   -1.8911    1.6230    0.0560 H   0  0  0  0  0  0  0  0  0  0  0  0
    1.7615   -5.4049    0.0560 N   0  0  0  0  0  0  0  0  0  0  0  0
    2.1274   -6.4469    0.0560 N   0  0  0  0  0  0  0  0  0  0  0  0
  1  2  1  0  0  0  0
  3  1  1  0  0  0  0
  4  1  1  0  0  0  0
  5  6  3  0  0  0  0
M  RAD  1   1   2
M  END
