Coordinates from ORCA-job CH3-N2+-scan-d09-169-n800
 OpenBabel09191813373D

  6  4  0  0  0  0  0  0  0  0999 V2000
   -1.5771    4.0404    0.0552 C   0  0  0  0  0  0  0  0  0  0  0  0
   -1.0584    4.2222    1.0081 H   0  0  0  0  0  0  0  0  0  0  0  0
   -1.0727    4.2607   -0.8972 H   0  0  0  0  0  0  0  0  0  0  0  0
   -2.6012    3.6383    0.0549 H   0  0  0  0  0  0  0  0  0  0  0  0
    3.1930   -9.4583    0.0575 N   0  0  0  0  0  0  0  0  0  0  0  0
    3.5579  -10.5009    0.0576 N   0  0  0  0  0  0  0  0  0  0  0  0
  1  2  1  0  0  0  0
  3  1  1  0  0  0  0
  4  1  1  0  0  0  0
  5  6  3  0  0  0  0
M  RAD  1   1   2
M  END
