Coordinates from ORCA-job CH3-N2+-scan-d09-169-n800
 OpenBabel09191813373D

  6  4  0  0  0  0  0  0  0  0999 V2000
   -1.3081    3.2789    0.0559 C   0  0  0  0  0  0  0  0  0  0  0  0
   -0.7953    3.4770    1.0090 H   0  0  0  0  0  0  0  0  0  0  0  0
   -0.7974    3.4828   -0.8972 H   0  0  0  0  0  0  0  0  0  0  0  0
   -2.3324    2.8767    0.0558 H   0  0  0  0  0  0  0  0  0  0  0  0
    2.6548   -7.9353    0.0562 N   0  0  0  0  0  0  0  0  0  0  0  0
    3.0200   -8.9777    0.0563 N   0  0  0  0  0  0  0  0  0  0  0  0
  1  2  1  0  0  0  0
  3  1  1  0  0  0  0
  4  1  1  0  0  0  0
  5  6  3  0  0  0  0
M  RAD  1   1   2
M  END
