Coordinates from ORCA-job CH3-N2+-scan-d09-169-n800
 OpenBabel09191813373D

  6  4  0  0  0  0  0  0  0  0999 V2000
   -0.4089    0.7291    0.0560 C   0  0  0  0  0  0  0  0  0  0  0  0
    0.1107    0.9087    1.0091 H   0  0  0  0  0  0  0  0  0  0  0  0
    0.1107    0.9088   -0.8971 H   0  0  0  0  0  0  0  0  0  0  0  0
   -1.4494    0.3709    0.0560 H   0  0  0  0  0  0  0  0  0  0  0  0
    0.8544   -2.8374    0.0559 N   0  0  0  0  0  0  0  0  0  0  0  0
    1.2241   -3.8776    0.0561 N   0  0  0  0  0  0  0  0  0  0  0  0
  1  2  1  0  0  0  0
  3  1  1  0  0  0  0
  4  1  1  0  0  0  0
  5  6  3  0  0  0  0
M  RAD  1   1   2
M  END
