Coordinates from ORCA-job CH3-N2+-scan-d09-169-n800
 OpenBabel09191813373D

  6  4  0  0  0  0  0  0  0  0999 V2000
   -0.6137    1.3085    0.0560 C   0  0  0  0  0  0  0  0  0  0  0  0
   -0.0949    1.4912    1.0097 H   0  0  0  0  0  0  0  0  0  0  0  0
   -0.0949    1.4913   -0.8976 H   0  0  0  0  0  0  0  0  0  0  0  0
   -1.6519    0.9418    0.0560 H   0  0  0  0  0  0  0  0  0  0  0  0
    1.2642   -3.9948    0.0560 N   0  0  0  0  0  0  0  0  0  0  0  0
    1.6327   -5.0356    0.0560 N   0  0  0  0  0  0  0  0  0  0  0  0
  1  2  1  0  0  0  0
  3  1  1  0  0  0  0
  4  1  1  0  0  0  0
  5  6  3  0  0  0  0
M  RAD  1   1   2
M  END
