Coordinates from ORCA-job CH3-N2+-scan-d09-169-n800
 OpenBabel09191813373D

  6  5  0  0  0  0  0  0  0  0999 V2000
   -0.0457   -0.2963    0.0560 C   0  0  0  0  0  0  0  0  0  0  0  0
    0.2955    0.2806    0.9443 H   0  0  0  0  0  0  0  0  0  0  0  0
    0.2955    0.2806   -0.8322 H   0  0  0  0  0  0  0  0  0  0  0  0
   -1.1569   -0.2335    0.0560 H   0  0  0  0  0  0  0  0  0  0  0  0
    0.3414   -1.3901    0.0560 N   0  0  0  0  0  0  0  0  0  0  0  0
    0.7118   -2.4388    0.0560 N   0  0  0  0  0  0  0  0  0  0  0  0
  1  2  1  0  0  0  0
  3  1  1  0  0  0  0
  4  1  1  0  0  0  0
  5  1  1  0  0  0  0
  6  5  1  0  0  0  0
M  RAD  2   5   2   6   3
M  END
