Coordinates from ORCA-job CH3-N2+-scan-d09-169-n800
 OpenBabel09191813373D

  6  4  0  0  0  0  0  0  0  0999 V2000
   -1.7262    4.4266    0.0414 C   0  0  0  0  0  0  0  0  0  0  0  0
   -1.1151    3.9547    0.8247 H   0  0  0  0  0  0  0  0  0  0  0  0
   -1.2439    4.8726   -0.8407 H   0  0  0  0  0  0  0  0  0  0  0  0
   -2.8213    4.4522    0.1410 H   0  0  0  0  0  0  0  0  0  0  0  0
    3.4891  -10.2315    0.0777 N   0  0  0  0  0  0  0  0  0  0  0  0
    3.8590  -11.2723    0.0920 N   0  0  0  0  0  0  0  0  0  0  0  0
  1  4  1  0  0  0  0
  1  2  1  0  0  0  0
  3  1  1  0  0  0  0
  5  6  3  0  0  0  0
M  RAD  1   1   2
M  END
