Coordinates from ORCA-job CH3-N2+-scan-d09-169-n800
 OpenBabel09191813373D

  6  5  0  0  0  0  0  0  0  0999 V2000
   -0.0276   -0.3473    0.0560 C   0  0  0  0  0  0  0  0  0  0  0  0
    0.2941    0.2691    0.9354 H   0  0  0  0  0  0  0  0  0  0  0  0
    0.2942    0.2691   -0.8233 H   0  0  0  0  0  0  0  0  0  0  0  0
   -1.1436   -0.2403    0.0560 H   0  0  0  0  0  0  0  0  0  0  0  0
    0.3260   -1.3468    0.0560 N   0  0  0  0  0  0  0  0  0  0  0  0
    0.6984   -2.4015    0.0560 N   0  0  0  0  0  0  0  0  0  0  0  0
  1  2  1  0  0  0  0
  3  1  1  0  0  0  0
  4  1  1  0  0  0  0
  5  1  1  0  0  0  0
  6  5  1  0  0  0  0
M  RAD  2   5   2   6   3
M  END
