Coordinates from ORCA-job CH3-N2+-scan-d09-169-n800
 OpenBabel09191813373D

  6  4  0  0  0  0  0  0  0  0999 V2000
   -1.3236    3.3229    0.0559 C   0  0  0  0  0  0  0  0  0  0  0  0
   -0.8108    3.5208    1.0090 H   0  0  0  0  0  0  0  0  0  0  0  0
   -0.8131    3.5272   -0.8972 H   0  0  0  0  0  0  0  0  0  0  0  0
   -2.3479    2.9207    0.0558 H   0  0  0  0  0  0  0  0  0  0  0  0
    2.6859   -8.0234    0.0563 N   0  0  0  0  0  0  0  0  0  0  0  0
    3.0511   -9.0658    0.0563 N   0  0  0  0  0  0  0  0  0  0  0  0
  1  2  1  0  0  0  0
  3  1  1  0  0  0  0
  4  1  1  0  0  0  0
  5  6  3  0  0  0  0
M  RAD  1   1   2
M  END
