Coordinates from ORCA-job CH3-N2+-scan-d09-169-n800
 OpenBabel09191813373D

  6  4  0  0  0  0  0  0  0  0999 V2000
   -0.4559    0.8615    0.0560 C   0  0  0  0  0  0  0  0  0  0  0  0
    0.0642    1.0400    1.0094 H   0  0  0  0  0  0  0  0  0  0  0  0
    0.0642    1.0401   -0.8974 H   0  0  0  0  0  0  0  0  0  0  0  0
   -1.4969    0.5036    0.0560 H   0  0  0  0  0  0  0  0  0  0  0  0
    0.9482   -3.1012    0.0559 N   0  0  0  0  0  0  0  0  0  0  0  0
    1.3179   -4.1416    0.0560 N   0  0  0  0  0  0  0  0  0  0  0  0
  1  2  1  0  0  0  0
  3  1  1  0  0  0  0
  4  1  1  0  0  0  0
  5  6  3  0  0  0  0
M  RAD  1   1   2
M  END
