Coordinates from ORCA-job CH3-N2+-scan-d09-169-n800
 OpenBabel09191813373D

  6  4  0  0  0  0  0  0  0  0999 V2000
   -0.8373    1.9444    0.0560 C   0  0  0  0  0  0  0  0  0  0  0  0
   -0.3226    2.1385    1.0097 H   0  0  0  0  0  0  0  0  0  0  0  0
   -0.3226    2.1387   -0.8976 H   0  0  0  0  0  0  0  0  0  0  0  0
   -1.8674    1.5556    0.0560 H   0  0  0  0  0  0  0  0  0  0  0  0
    1.7127   -5.2664    0.0560 N   0  0  0  0  0  0  0  0  0  0  0  0
    2.0787   -6.3083    0.0560 N   0  0  0  0  0  0  0  0  0  0  0  0
  1  2  1  0  0  0  0
  3  1  1  0  0  0  0
  4  1  1  0  0  0  0
  5  6  3  0  0  0  0
M  RAD  1   1   2
M  END
