Coordinates from ORCA-job CH3-N2+-scan-d09-169-n800
 OpenBabel09191813373D

  6  5  0  0  0  0  0  0  0  0999 V2000
   -0.0349   -0.3267    0.0560 C   0  0  0  0  0  0  0  0  0  0  0  0
    0.2948    0.2735    0.9390 H   0  0  0  0  0  0  0  0  0  0  0  0
    0.2948    0.2735   -0.8269 H   0  0  0  0  0  0  0  0  0  0  0  0
   -1.1489   -0.2378    0.0560 H   0  0  0  0  0  0  0  0  0  0  0  0
    0.3321   -1.3640    0.0560 N   0  0  0  0  0  0  0  0  0  0  0  0
    0.7036   -2.4160    0.0560 N   0  0  0  0  0  0  0  0  0  0  0  0
  1  2  1  0  0  0  0
  3  1  1  0  0  0  0
  4  1  1  0  0  0  0
  5  1  1  0  0  0  0
  6  5  1  0  0  0  0
M  RAD  2   5   2   6   3
M  END
