Coordinates from ORCA-job CH3-N2+-scan-d09-169-n800
 OpenBabel09191813373D

  6  4  0  0  0  0  0  0  0  0999 V2000
   -1.6083    4.1285    0.0550 C   0  0  0  0  0  0  0  0  0  0  0  0
   -1.0877    4.3054    1.0078 H   0  0  0  0  0  0  0  0  0  0  0  0
   -1.1055    4.3535   -0.8972 H   0  0  0  0  0  0  0  0  0  0  0  0
   -2.6324    3.7266    0.0546 H   0  0  0  0  0  0  0  0  0  0  0  0
    3.2553   -9.6345    0.0578 N   0  0  0  0  0  0  0  0  0  0  0  0
    3.6202  -10.6771    0.0580 N   0  0  0  0  0  0  0  0  0  0  0  0
  1  2  1  0  0  0  0
  3  1  1  0  0  0  0
  4  1  1  0  0  0  0
  5  6  3  0  0  0  0
M  RAD  1   1   2
M  END
