Coordinates from ORCA-job CH3-N2+-scan-d09-169-n800
 OpenBabel09191813373D

  6  4  0  0  0  0  0  0  0  0999 V2000
   -0.3638    0.6024    0.0560 C   0  0  0  0  0  0  0  0  0  0  0  0
    0.1545    0.7848    1.0086 H   0  0  0  0  0  0  0  0  0  0  0  0
    0.1545    0.7849   -0.8965 H   0  0  0  0  0  0  0  0  0  0  0  0
   -1.4036    0.2441    0.0560 H   0  0  0  0  0  0  0  0  0  0  0  0
    0.7652   -2.5868    0.0559 N   0  0  0  0  0  0  0  0  0  0  0  0
    1.1348   -3.6270    0.0561 N   0  0  0  0  0  0  0  0  0  0  0  0
  1  2  1  0  0  0  0
  3  1  1  0  0  0  0
  4  1  1  0  0  0  0
  5  6  3  0  0  0  0
M  RAD  1   1   2
M  END
