Coordinates from ORCA-job CH3-N2+-scan-d09-169-n800
 OpenBabel09191813373D

  6  4  0  0  0  0  0  0  0  0999 V2000
   -0.4782    0.9245    0.0560 C   0  0  0  0  0  0  0  0  0  0  0  0
    0.0419    1.1032    1.0095 H   0  0  0  0  0  0  0  0  0  0  0  0
    0.0419    1.1033   -0.8974 H   0  0  0  0  0  0  0  0  0  0  0  0
   -1.5190    0.5659    0.0560 H   0  0  0  0  0  0  0  0  0  0  0  0
    0.9928   -3.2270    0.0560 N   0  0  0  0  0  0  0  0  0  0  0  0
    1.3624   -4.2674    0.0560 N   0  0  0  0  0  0  0  0  0  0  0  0
  1  2  1  0  0  0  0
  3  1  1  0  0  0  0
  4  1  1  0  0  0  0
  5  6  3  0  0  0  0
M  RAD  1   1   2
M  END
