Coordinates from ORCA-job CH3-N2+-scan-d09-169-n800
 OpenBabel09191813373D

  6  4  0  0  0  0  0  0  0  0999 V2000
   -0.3887    0.6722    0.0560 C   0  0  0  0  0  0  0  0  0  0  0  0
    0.1305    0.8526    1.0089 H   0  0  0  0  0  0  0  0  0  0  0  0
    0.1305    0.8527   -0.8968 H   0  0  0  0  0  0  0  0  0  0  0  0
   -1.4289    0.3140    0.0560 H   0  0  0  0  0  0  0  0  0  0  0  0
    0.8143   -2.7245    0.0559 N   0  0  0  0  0  0  0  0  0  0  0  0
    1.1840   -3.7647    0.0561 N   0  0  0  0  0  0  0  0  0  0  0  0
  1  2  1  0  0  0  0
  3  1  1  0  0  0  0
  4  1  1  0  0  0  0
  5  6  3  0  0  0  0
M  RAD  1   1   2
M  END
