Coordinates from ORCA-job CH3-N2+-scan-d09-169-n800
 OpenBabel09191813373D

  6  4  0  0  0  0  0  0  0  0999 V2000
   -0.3410    0.5385    0.0560 C   0  0  0  0  0  0  0  0  0  0  0  0
    0.1761    0.7234    1.0082 H   0  0  0  0  0  0  0  0  0  0  0  0
    0.1761    0.7235   -0.8961 H   0  0  0  0  0  0  0  0  0  0  0  0
   -1.3807    0.1811    0.0560 H   0  0  0  0  0  0  0  0  0  0  0  0
    0.7208   -2.4620    0.0559 N   0  0  0  0  0  0  0  0  0  0  0  0
    1.0903   -3.5022    0.0561 N   0  0  0  0  0  0  0  0  0  0  0  0
  1  2  1  0  0  0  0
  3  1  1  0  0  0  0
  4  1  1  0  0  0  0
  5  6  3  0  0  0  0
M  RAD  1   1   2
M  END
