Coordinates from ORCA-job CH3-N2+-scan-d09-169-n800
 OpenBabel09191813373D

  6  4  0  0  0  0  0  0  0  0999 V2000
   -1.0102    2.4355    0.0560 C   0  0  0  0  0  0  0  0  0  0  0  0
   -0.4976    2.6345    1.0095 H   0  0  0  0  0  0  0  0  0  0  0  0
   -0.4978    2.6354   -0.8975 H   0  0  0  0  0  0  0  0  0  0  0  0
   -2.0362    2.0362    0.0560 H   0  0  0  0  0  0  0  0  0  0  0  0
    2.0589   -6.2485    0.0560 N   0  0  0  0  0  0  0  0  0  0  0  0
    2.4245   -7.2907    0.0560 N   0  0  0  0  0  0  0  0  0  0  0  0
  1  2  1  0  0  0  0
  3  1  1  0  0  0  0
  4  1  1  0  0  0  0
  5  6  3  0  0  0  0
M  RAD  1   1   2
M  END
