Coordinates from ORCA-job CH3-N2+-scan-d09-169-n800
 OpenBabel09191813373D

  6  4  0  0  0  0  0  0  0  0999 V2000
   -0.9015    2.1270    0.0560 C   0  0  0  0  0  0  0  0  0  0  0  0
   -0.3879    2.3242    1.0097 H   0  0  0  0  0  0  0  0  0  0  0  0
   -0.3880    2.3245   -0.8976 H   0  0  0  0  0  0  0  0  0  0  0  0
   -1.9292    1.7319    0.0560 H   0  0  0  0  0  0  0  0  0  0  0  0
    1.8413   -5.6316    0.0560 N   0  0  0  0  0  0  0  0  0  0  0  0
    2.2069   -6.6736    0.0560 N   0  0  0  0  0  0  0  0  0  0  0  0
  1  2  1  0  0  0  0
  3  1  1  0  0  0  0
  4  1  1  0  0  0  0
  5  6  3  0  0  0  0
M  RAD  1   1   2
M  END
