Coordinates from ORCA-job CH3-N2+-scan-d09-169-n800
 OpenBabel09191813373D

  6  4  0  0  0  0  0  0  0  0999 V2000
   -1.3948    3.5243    0.0558 C   0  0  0  0  0  0  0  0  0  0  0  0
   -0.8812    3.7202    1.0089 H   0  0  0  0  0  0  0  0  0  0  0  0
   -0.8851    3.7307   -0.8971 H   0  0  0  0  0  0  0  0  0  0  0  0
   -2.4189    3.1220    0.0557 H   0  0  0  0  0  0  0  0  0  0  0  0
    2.8283   -8.4262    0.0564 N   0  0  0  0  0  0  0  0  0  0  0  0
    3.1933   -9.4687    0.0565 N   0  0  0  0  0  0  0  0  0  0  0  0
  1  2  1  0  0  0  0
  3  1  1  0  0  0  0
  4  1  1  0  0  0  0
  5  6  3  0  0  0  0
M  RAD  1   1   2
M  END
