Coordinates from ORCA-job CH3-N2+-scan-d09-169-n800
 OpenBabel09191813373D

  6  4  0  0  0  0  0  0  0  0999 V2000
   -1.8083    4.6596    0.0411 C   0  0  0  0  0  0  0  0  0  0  0  0
   -1.1917    4.2167    0.8369 H   0  0  0  0  0  0  0  0  0  0  0  0
   -1.3300    5.1051   -0.8434 H   0  0  0  0  0  0  0  0  0  0  0  0
   -2.9045    4.6565    0.1310 H   0  0  0  0  0  0  0  0  0  0  0  0
    3.6546  -10.6968    0.0780 N   0  0  0  0  0  0  0  0  0  0  0  0
    4.0215  -11.7387    0.0925 N   0  0  0  0  0  0  0  0  0  0  0  0
  1  4  1  0  0  0  0
  1  2  1  0  0  0  0
  3  1  1  0  0  0  0
  5  6  3  0  0  0  0
M  RAD  1   1   2
M  END
