Coordinates from ORCA-job CH3-N2+-scan-d09-169-n800
 OpenBabel09191813373D

  6  5  0  0  0  0  0  0  0  0999 V2000
   -0.0088   -0.4000    0.0560 C   0  0  0  0  0  0  0  0  0  0  0  0
    0.2916    0.2602    0.9258 H   0  0  0  0  0  0  0  0  0  0  0  0
    0.2916    0.2602   -0.8138 H   0  0  0  0  0  0  0  0  0  0  0  0
   -1.1306   -0.2441    0.0560 H   0  0  0  0  0  0  0  0  0  0  0  0
    0.3112   -1.3052    0.0560 N   0  0  0  0  0  0  0  0  0  0  0  0
    0.6867   -2.3686    0.0560 N   0  0  0  0  0  0  0  0  0  0  0  0
  1  2  1  0  0  0  0
  3  1  1  0  0  0  0
  4  1  1  0  0  0  0
  5  1  1  0  0  0  0
  6  5  1  0  0  0  0
M  RAD  2   5   2   6   3
M  END
