Coordinates from ORCA-job CH3-N2+-scan-d09-169-n800
 OpenBabel09191813373D

  6  4  0  0  0  0  0  0  0  0999 V2000
   -0.9658    2.3096    0.0560 C   0  0  0  0  0  0  0  0  0  0  0  0
   -0.4529    2.5082    1.0096 H   0  0  0  0  0  0  0  0  0  0  0  0
   -0.4531    2.5089   -0.8976 H   0  0  0  0  0  0  0  0  0  0  0  0
   -1.9922    1.9113    0.0560 H   0  0  0  0  0  0  0  0  0  0  0  0
    1.9700   -5.9968    0.0560 N   0  0  0  0  0  0  0  0  0  0  0  0
    2.3356   -7.0388    0.0560 N   0  0  0  0  0  0  0  0  0  0  0  0
  1  2  1  0  0  0  0
  3  1  1  0  0  0  0
  4  1  1  0  0  0  0
  5  6  3  0  0  0  0
M  RAD  1   1   2
M  END
