Coordinates from ORCA-job CH3-N2+-scan-d09-169-n800
 OpenBabel09191813373D

  6  4  0  0  0  0  0  0  0  0999 V2000
   -1.6283    4.1852    0.0548 C   0  0  0  0  0  0  0  0  0  0  0  0
   -1.1056    4.3565    1.0075 H   0  0  0  0  0  0  0  0  0  0  0  0
   -1.1277    4.4158   -0.8971 H   0  0  0  0  0  0  0  0  0  0  0  0
   -2.6523    3.7832    0.0543 H   0  0  0  0  0  0  0  0  0  0  0  0
    3.2953   -9.7478    0.0582 N   0  0  0  0  0  0  0  0  0  0  0  0
    3.6602  -10.7904    0.0584 N   0  0  0  0  0  0  0  0  0  0  0  0
  1  2  1  0  0  0  0
  3  1  1  0  0  0  0
  4  1  1  0  0  0  0
  5  6  3  0  0  0  0
M  RAD  1   1   2
M  END
