Coordinates from ORCA-job CH3-N2+-scan-d09-169-n800
 OpenBabel09191813373D

  6  5  0  0  0  0  0  0  0  0999 V2000
   -0.1385   -0.0332    0.0560 C   0  0  0  0  0  0  0  0  0  0  0  0
    0.2957    0.3488    0.9851 H   0  0  0  0  0  0  0  0  0  0  0  0
    0.2957    0.3488   -0.8731 H   0  0  0  0  0  0  0  0  0  0  0  0
   -1.2222   -0.1876    0.0560 H   0  0  0  0  0  0  0  0  0  0  0  0
    0.4219   -1.6180    0.0560 N   0  0  0  0  0  0  0  0  0  0  0  0
    0.7891   -2.6564    0.0560 N   0  0  0  0  0  0  0  0  0  0  0  0
  1  2  1  0  0  0  0
  3  1  1  0  0  0  0
  4  1  1  0  0  0  0
  5  1  1  0  0  0  0
  6  5  1  0  0  0  0
M  RAD  2   5   2   6   3
M  END
