Coordinates from ORCA-job CH3-N2+-scan-d09-169-n800
 OpenBabel09191813373D

  6  4  0  0  0  0  0  0  0  0999 V2000
   -0.9902    2.3788    0.0560 C   0  0  0  0  0  0  0  0  0  0  0  0
   -0.4775    2.5777    1.0096 H   0  0  0  0  0  0  0  0  0  0  0  0
   -0.4777    2.5784   -0.8975 H   0  0  0  0  0  0  0  0  0  0  0  0
   -2.0164    1.9800    0.0560 H   0  0  0  0  0  0  0  0  0  0  0  0
    2.0189   -6.1352    0.0560 N   0  0  0  0  0  0  0  0  0  0  0  0
    2.3845   -7.1773    0.0560 N   0  0  0  0  0  0  0  0  0  0  0  0
  1  2  1  0  0  0  0
  3  1  1  0  0  0  0
  4  1  1  0  0  0  0
  5  6  3  0  0  0  0
M  RAD  1   1   2
M  END
