Coordinates from ORCA-job CH3-N2+-scan-d09-169-n800
 OpenBabel09191813373D

  6  4  0  0  0  0  0  0  0  0999 V2000
   -1.4370    3.6439    0.0557 C   0  0  0  0  0  0  0  0  0  0  0  0
   -0.9228    3.8380    1.0088 H   0  0  0  0  0  0  0  0  0  0  0  0
   -0.9280    3.8522   -0.8972 H   0  0  0  0  0  0  0  0  0  0  0  0
   -2.4611    3.2415    0.0556 H   0  0  0  0  0  0  0  0  0  0  0  0
    2.9128   -8.6653    0.0566 N   0  0  0  0  0  0  0  0  0  0  0  0
    3.2778   -9.7078    0.0567 N   0  0  0  0  0  0  0  0  0  0  0  0
  1  2  1  0  0  0  0
  3  1  1  0  0  0  0
  4  1  1  0  0  0  0
  5  6  3  0  0  0  0
M  RAD  1   1   2
M  END
