Coordinates from ORCA-job CH3-N2+-scan-d09-169-n800
 OpenBabel09191813373D

  6  4  0  0  0  0  0  0  0  0999 V2000
   -1.6038    4.1159    0.0551 C   0  0  0  0  0  0  0  0  0  0  0  0
   -1.0836    4.2936    1.0079 H   0  0  0  0  0  0  0  0  0  0  0  0
   -1.1008    4.3402   -0.8972 H   0  0  0  0  0  0  0  0  0  0  0  0
   -2.6279    3.7140    0.0546 H   0  0  0  0  0  0  0  0  0  0  0  0
    3.2464   -9.6094    0.0577 N   0  0  0  0  0  0  0  0  0  0  0  0
    3.6113  -10.6520    0.0580 N   0  0  0  0  0  0  0  0  0  0  0  0
  1  2  1  0  0  0  0
  3  1  1  0  0  0  0
  4  1  1  0  0  0  0
  5  6  3  0  0  0  0
M  RAD  1   1   2
M  END
