Coordinates from ORCA-job CH3-N2+-scan-d09-169-n800
 OpenBabel09191813373D

  6  4  0  0  0  0  0  0  0  0999 V2000
   -1.3370    3.3607    0.0559 C   0  0  0  0  0  0  0  0  0  0  0  0
   -0.8240    3.5582    1.0090 H   0  0  0  0  0  0  0  0  0  0  0  0
   -0.8266    3.5653   -0.8972 H   0  0  0  0  0  0  0  0  0  0  0  0
   -2.3612    2.9585    0.0558 H   0  0  0  0  0  0  0  0  0  0  0  0
    2.7126   -8.0989    0.0563 N   0  0  0  0  0  0  0  0  0  0  0  0
    3.0778   -9.1413    0.0563 N   0  0  0  0  0  0  0  0  0  0  0  0
  1  2  1  0  0  0  0
  3  1  1  0  0  0  0
  4  1  1  0  0  0  0
  5  6  3  0  0  0  0
M  RAD  1   1   2
M  END
