Coordinates from ORCA-job CH3-N2+-scan-d09-169-n800
 OpenBabel09191813373D

  6  4  0  0  0  0  0  0  0  0999 V2000
   -1.0880    2.6558    0.0560 C   0  0  0  0  0  0  0  0  0  0  0  0
   -0.5756    2.8552    1.0094 H   0  0  0  0  0  0  0  0  0  0  0  0
   -0.5760    2.8566   -0.8974 H   0  0  0  0  0  0  0  0  0  0  0  0
   -2.1133    2.2553    0.0560 H   0  0  0  0  0  0  0  0  0  0  0  0
    2.2145   -6.6891    0.0560 N   0  0  0  0  0  0  0  0  0  0  0  0
    2.5800   -7.7313    0.0560 N   0  0  0  0  0  0  0  0  0  0  0  0
  1  2  1  0  0  0  0
  3  1  1  0  0  0  0
  4  1  1  0  0  0  0
  5  6  3  0  0  0  0
M  RAD  1   1   2
M  END
