Coordinates from ORCA-job CH3-N2+-scan-d09-169-n800
 OpenBabel09191813373D

  6  4  0  0  0  0  0  0  0  0999 V2000
   -1.3059    3.2726    0.0559 C   0  0  0  0  0  0  0  0  0  0  0  0
   -0.7931    3.4707    1.0090 H   0  0  0  0  0  0  0  0  0  0  0  0
   -0.7952    3.4764   -0.8972 H   0  0  0  0  0  0  0  0  0  0  0  0
   -2.3302    2.8705    0.0558 H   0  0  0  0  0  0  0  0  0  0  0  0
    2.6504   -7.9227    0.0562 N   0  0  0  0  0  0  0  0  0  0  0  0
    3.0155   -8.9651    0.0563 N   0  0  0  0  0  0  0  0  0  0  0  0
  1  2  1  0  0  0  0
  3  1  1  0  0  0  0
  4  1  1  0  0  0  0
  5  6  3  0  0  0  0
M  RAD  1   1   2
M  END
