Coordinates from ORCA-job CH3-N2+-scan-d09-169-n800
 OpenBabel09191813373D

  6  4  0  0  0  0  0  0  0  0999 V2000
   -0.9836    2.3599    0.0560 C   0  0  0  0  0  0  0  0  0  0  0  0
   -0.4708    2.5588    1.0096 H   0  0  0  0  0  0  0  0  0  0  0  0
   -0.4710    2.5595   -0.8975 H   0  0  0  0  0  0  0  0  0  0  0  0
   -2.0098    1.9613    0.0560 H   0  0  0  0  0  0  0  0  0  0  0  0
    2.0056   -6.0975    0.0560 N   0  0  0  0  0  0  0  0  0  0  0  0
    2.3712   -7.1396    0.0560 N   0  0  0  0  0  0  0  0  0  0  0  0
  1  2  1  0  0  0  0
  3  1  1  0  0  0  0
  4  1  1  0  0  0  0
  5  6  3  0  0  0  0
M  RAD  1   1   2
M  END
