Coordinates from ORCA-job CH3-N2+-scan-d09-169-n800
 OpenBabel09191813373D

  6  4  0  0  0  0  0  0  0  0999 V2000
   -1.4415    3.6565    0.0557 C   0  0  0  0  0  0  0  0  0  0  0  0
   -0.9272    3.8504    1.0087 H   0  0  0  0  0  0  0  0  0  0  0  0
   -0.9326    3.8650   -0.8972 H   0  0  0  0  0  0  0  0  0  0  0  0
   -2.4655    3.2541    0.0555 H   0  0  0  0  0  0  0  0  0  0  0  0
    2.9217   -8.6905    0.0566 N   0  0  0  0  0  0  0  0  0  0  0  0
    3.2867   -9.7330    0.0567 N   0  0  0  0  0  0  0  0  0  0  0  0
  1  2  1  0  0  0  0
  3  1  1  0  0  0  0
  4  1  1  0  0  0  0
  5  6  3  0  0  0  0
M  RAD  1   1   2
M  END
