Coordinates from ORCA-job CH3-N2+-scan-d09-169-n800
 OpenBabel09191813373D

  6  4  0  0  0  0  0  0  0  0999 V2000
   -1.1436    2.8131    0.0560 C   0  0  0  0  0  0  0  0  0  0  0  0
   -0.6312    3.0126    1.0093 H   0  0  0  0  0  0  0  0  0  0  0  0
   -0.6319    3.0145   -0.8973 H   0  0  0  0  0  0  0  0  0  0  0  0
   -2.1685    2.4120    0.0560 H   0  0  0  0  0  0  0  0  0  0  0  0
    2.3257   -7.0038    0.0561 N   0  0  0  0  0  0  0  0  0  0  0  0
    2.6911   -8.0461    0.0561 N   0  0  0  0  0  0  0  0  0  0  0  0
  1  2  1  0  0  0  0
  3  1  1  0  0  0  0
  4  1  1  0  0  0  0
  5  6  3  0  0  0  0
M  RAD  1   1   2
M  END
