Coordinates from ORCA-job CH3-N2+-scan-d09-169-n800
 OpenBabel09191813373D

  6  4  0  0  0  0  0  0  0  0999 V2000
   -1.0214    2.4669    0.0560 C   0  0  0  0  0  0  0  0  0  0  0  0
   -0.5087    2.6661    1.0095 H   0  0  0  0  0  0  0  0  0  0  0  0
   -0.5090    2.6670   -0.8975 H   0  0  0  0  0  0  0  0  0  0  0  0
   -2.0472    2.0675    0.0560 H   0  0  0  0  0  0  0  0  0  0  0  0
    2.0811   -6.3115    0.0560 N   0  0  0  0  0  0  0  0  0  0  0  0
    2.4467   -7.3536    0.0560 N   0  0  0  0  0  0  0  0  0  0  0  0
  1  2  1  0  0  0  0
  3  1  1  0  0  0  0
  4  1  1  0  0  0  0
  5  6  3  0  0  0  0
M  RAD  1   1   2
M  END
