Coordinates from ORCA-job CH3-N2+-scan-d09-169-n800
 OpenBabel09191813373D

  6  4  0  0  0  0  0  0  0  0999 V2000
   -1.8751    4.8484    0.0407 C   0  0  0  0  0  0  0  0  0  0  0  0
   -1.2568    4.4157    0.8408 H   0  0  0  0  0  0  0  0  0  0  0  0
   -1.3985    5.2940   -0.8446 H   0  0  0  0  0  0  0  0  0  0  0  0
   -2.9714    4.8349    0.1272 H   0  0  0  0  0  0  0  0  0  0  0  0
    3.7888  -11.0742    0.0787 N   0  0  0  0  0  0  0  0  0  0  0  0
    4.1546  -12.1164    0.0932 N   0  0  0  0  0  0  0  0  0  0  0  0
  1  4  1  0  0  0  0
  1  2  1  0  0  0  0
  3  1  1  0  0  0  0
  5  6  3  0  0  0  0
M  RAD  1   1   2
M  END
