Coordinates from ORCA-job CH3-N2+-scan-d09-169-n800
 OpenBabel09191813373D

  6  4  0  0  0  0  0  0  0  0999 V2000
   -0.2240    0.2092    0.0560 C   0  0  0  0  0  0  0  0  0  0  0  0
    0.2703    0.4496    1.0028 H   0  0  0  0  0  0  0  0  0  0  0  0
    0.2702    0.4499   -0.8907 H   0  0  0  0  0  0  0  0  0  0  0  0
   -1.2756   -0.0957    0.0560 H   0  0  0  0  0  0  0  0  0  0  0  0
    0.5161   -1.8855    0.0558 N   0  0  0  0  0  0  0  0  0  0  0  0
    0.8846   -2.9250    0.0562 N   0  0  0  0  0  0  0  0  0  0  0  0
  1  2  1  0  0  0  0
  3  1  1  0  0  0  0
  4  1  1  0  0  0  0
  5  6  3  0  0  0  0
M  RAD  1   1   2
M  END
