Coordinates from ORCA-job CH3-N2+-scan-d09-169-n800
 OpenBabel09191813373D

  6  4  0  0  0  0  0  0  0  0999 V2000
   -1.0836    2.6432    0.0560 C   0  0  0  0  0  0  0  0  0  0  0  0
   -0.5711    2.8426    1.0094 H   0  0  0  0  0  0  0  0  0  0  0  0
   -0.5716    2.8439   -0.8974 H   0  0  0  0  0  0  0  0  0  0  0  0
   -2.1089    2.2427    0.0560 H   0  0  0  0  0  0  0  0  0  0  0  0
    2.2056   -6.6639    0.0560 N   0  0  0  0  0  0  0  0  0  0  0  0
    2.5711   -7.7061    0.0560 N   0  0  0  0  0  0  0  0  0  0  0  0
  1  2  1  0  0  0  0
  3  1  1  0  0  0  0
  4  1  1  0  0  0  0
  5  6  3  0  0  0  0
M  RAD  1   1   2
M  END
