Coordinates from ORCA-job CH3-N2+-scan-d09-169-n800
 OpenBabel09191813373D

  6  4  0  0  0  0  0  0  0  0999 V2000
   -0.5561    1.1448    0.0560 C   0  0  0  0  0  0  0  0  0  0  0  0
   -0.0364    1.3249    1.0097 H   0  0  0  0  0  0  0  0  0  0  0  0
   -0.0364    1.3249   -0.8976 H   0  0  0  0  0  0  0  0  0  0  0  0
   -1.5961    0.7833    0.0560 H   0  0  0  0  0  0  0  0  0  0  0  0
    1.1486   -3.6674    0.0561 N   0  0  0  0  0  0  0  0  0  0  0  0
    1.5178   -4.7080    0.0558 N   0  0  0  0  0  0  0  0  0  0  0  0
  1  2  1  0  0  0  0
  3  1  1  0  0  0  0
  4  1  1  0  0  0  0
  6  5  3  0  0  0  0
M  RAD  1   1   2
M  END
