Coordinates from ORCA-job CH3-N2+-scan-d09-169-n800
 OpenBabel09191813373D

  6  4  0  0  0  0  0  0  0  0999 V2000
   -0.6425    1.3903    0.0560 C   0  0  0  0  0  0  0  0  0  0  0  0
   -0.1242    1.5747    1.0097 H   0  0  0  0  0  0  0  0  0  0  0  0
   -0.1242    1.5748   -0.8976 H   0  0  0  0  0  0  0  0  0  0  0  0
   -1.6796    1.0206    0.0560 H   0  0  0  0  0  0  0  0  0  0  0  0
    1.3221   -4.1584    0.0560 N   0  0  0  0  0  0  0  0  0  0  0  0
    1.6899   -5.1995    0.0560 N   0  0  0  0  0  0  0  0  0  0  0  0
  1  2  1  0  0  0  0
  3  1  1  0  0  0  0
  4  1  1  0  0  0  0
  5  6  3  0  0  0  0
M  RAD  1   1   2
M  END
