Coordinates from ORCA-job CH3-N2+-scan-d09-169-n800
 OpenBabel09191813373D

  6  4  0  0  0  0  0  0  0  0999 V2000
   -0.9059    2.1396    0.0560 C   0  0  0  0  0  0  0  0  0  0  0  0
   -0.3924    2.3370    1.0097 H   0  0  0  0  0  0  0  0  0  0  0  0
   -0.3926    2.3374   -0.8976 H   0  0  0  0  0  0  0  0  0  0  0  0
   -1.9335    1.7441    0.0560 H   0  0  0  0  0  0  0  0  0  0  0  0
    1.8502   -5.6568    0.0560 N   0  0  0  0  0  0  0  0  0  0  0  0
    2.2158   -6.6988    0.0560 N   0  0  0  0  0  0  0  0  0  0  0  0
  1  2  1  0  0  0  0
  3  1  1  0  0  0  0
  4  1  1  0  0  0  0
  5  6  3  0  0  0  0
M  RAD  1   1   2
M  END
