Coordinates from ORCA-job CH3-N2+-scan-d09-169-n800
 OpenBabel09191813373D

  6  4  0  0  0  0  0  0  0  0999 V2000
   -1.6194    4.1600    0.0549 C   0  0  0  0  0  0  0  0  0  0  0  0
   -1.0978    4.3341    1.0077 H   0  0  0  0  0  0  0  0  0  0  0  0
   -1.1177    4.3877   -0.8972 H   0  0  0  0  0  0  0  0  0  0  0  0
   -2.6434    3.7580    0.0544 H   0  0  0  0  0  0  0  0  0  0  0  0
    3.2775   -9.6974    0.0580 N   0  0  0  0  0  0  0  0  0  0  0  0
    3.6424  -10.7401    0.0582 N   0  0  0  0  0  0  0  0  0  0  0  0
  1  2  1  0  0  0  0
  3  1  1  0  0  0  0
  4  1  1  0  0  0  0
  5  6  3  0  0  0  0
M  RAD  1   1   2
M  END
