Coordinates from ORCA-job CH3-N2+-scan-d09-169-n800
 OpenBabel09191813373D

  6  4  0  0  0  0  0  0  0  0999 V2000
   -1.0458    2.5362    0.0560 C   0  0  0  0  0  0  0  0  0  0  0  0
   -0.5332    2.7355    1.0095 H   0  0  0  0  0  0  0  0  0  0  0  0
   -0.5336    2.7365   -0.8974 H   0  0  0  0  0  0  0  0  0  0  0  0
   -2.0714    2.1363    0.0560 H   0  0  0  0  0  0  0  0  0  0  0  0
    2.1300   -6.4499    0.0560 N   0  0  0  0  0  0  0  0  0  0  0  0
    2.4956   -7.4921    0.0560 N   0  0  0  0  0  0  0  0  0  0  0  0
  1  2  1  0  0  0  0
  3  1  1  0  0  0  0
  4  1  1  0  0  0  0
  5  6  3  0  0  0  0
M  RAD  1   1   2
M  END
