Coordinates from ORCA-job CH3-N2+-scan-d09-169-n800
 OpenBabel09191813373D

  6  5  0  0  0  0  0  0  0  0999 V2000
   -0.1173   -0.0936    0.0560 C   0  0  0  0  0  0  0  0  0  0  0  0
    0.2969    0.3324    0.9772 H   0  0  0  0  0  0  0  0  0  0  0  0
    0.2969    0.3324   -0.8651 H   0  0  0  0  0  0  0  0  0  0  0  0
   -1.2086   -0.1998    0.0560 H   0  0  0  0  0  0  0  0  0  0  0  0
    0.4033   -1.5651    0.0560 N   0  0  0  0  0  0  0  0  0  0  0  0
    0.7704   -2.6040    0.0560 N   0  0  0  0  0  0  0  0  0  0  0  0
  1  2  1  0  0  0  0
  3  1  1  0  0  0  0
  4  1  1  0  0  0  0
  5  1  1  0  0  0  0
  6  5  1  0  0  0  0
M  RAD  2   5   2   6   3
M  END
