Coordinates from ORCA-job CH3-N2+-scan-d09-169-n800
 OpenBabel09191813373D

  6  4  0  0  0  0  0  0  0  0999 V2000
   -0.8506    1.9822    0.0560 C   0  0  0  0  0  0  0  0  0  0  0  0
   -0.3360    2.1767    1.0097 H   0  0  0  0  0  0  0  0  0  0  0  0
   -0.3361    2.1770   -0.8976 H   0  0  0  0  0  0  0  0  0  0  0  0
   -1.8803    1.5924    0.0560 H   0  0  0  0  0  0  0  0  0  0  0  0
    1.7394   -5.3420    0.0560 N   0  0  0  0  0  0  0  0  0  0  0  0
    2.1053   -6.3839    0.0560 N   0  0  0  0  0  0  0  0  0  0  0  0
  1  2  1  0  0  0  0
  3  1  1  0  0  0  0
  4  1  1  0  0  0  0
  5  6  3  0  0  0  0
M  RAD  1   1   2
M  END
