Coordinates from ORCA-job CH3-N2+-scan-d09-169-n800
 OpenBabel09191813373D

  6  4  0  0  0  0  0  0  0  0999 V2000
   -0.8550    1.9948    0.0560 C   0  0  0  0  0  0  0  0  0  0  0  0
   -0.3405    2.1895    1.0097 H   0  0  0  0  0  0  0  0  0  0  0  0
   -0.3406    2.1898   -0.8976 H   0  0  0  0  0  0  0  0  0  0  0  0
   -1.8846    1.6046    0.0560 H   0  0  0  0  0  0  0  0  0  0  0  0
    1.7482   -5.3672    0.0560 N   0  0  0  0  0  0  0  0  0  0  0  0
    2.1141   -6.4091    0.0560 N   0  0  0  0  0  0  0  0  0  0  0  0
  1  2  1  0  0  0  0
  3  1  1  0  0  0  0
  4  1  1  0  0  0  0
  5  6  3  0  0  0  0
M  RAD  1   1   2
M  END
