Coordinates from ORCA-job CH3-N2+-scan-d09-169-n800
 OpenBabel09191813373D

  6  4  0  0  0  0  0  0  0  0999 V2000
   -1.0036    2.4166    0.0560 C   0  0  0  0  0  0  0  0  0  0  0  0
   -0.4909    2.6156    1.0095 H   0  0  0  0  0  0  0  0  0  0  0  0
   -0.4911    2.6164   -0.8975 H   0  0  0  0  0  0  0  0  0  0  0  0
   -2.0296    2.0175    0.0560 H   0  0  0  0  0  0  0  0  0  0  0  0
    2.0456   -6.2108    0.0560 N   0  0  0  0  0  0  0  0  0  0  0  0
    2.4112   -7.2529    0.0560 N   0  0  0  0  0  0  0  0  0  0  0  0
  1  2  1  0  0  0  0
  3  1  1  0  0  0  0
  4  1  1  0  0  0  0
  5  6  3  0  0  0  0
M  RAD  1   1   2
M  END
