Coordinates from ORCA-job CH3-N2+-scan-d09-169-n800
 OpenBabel09191813373D

  6  4  0  0  0  0  0  0  0  0999 V2000
   -1.5994    4.1034    0.0551 C   0  0  0  0  0  0  0  0  0  0  0  0
   -1.0794    4.2818    1.0079 H   0  0  0  0  0  0  0  0  0  0  0  0
   -1.0961    4.3269   -0.8972 H   0  0  0  0  0  0  0  0  0  0  0  0
   -2.6234    3.7014    0.0547 H   0  0  0  0  0  0  0  0  0  0  0  0
    3.2375   -9.5842    0.0577 N   0  0  0  0  0  0  0  0  0  0  0  0
    3.6024  -10.6268    0.0579 N   0  0  0  0  0  0  0  0  0  0  0  0
  1  2  1  0  0  0  0
  3  1  1  0  0  0  0
  4  1  1  0  0  0  0
  5  6  3  0  0  0  0
M  RAD  1   1   2
M  END
