6
Coordinates from ORCA-job CH3-N2+-scan-d09-169-n800
  C   -1.87509177577847      4.84841753039430      0.04074741127757
  H   -1.25682069915941      4.41566525623428      0.84076464428010
  H   -1.39846968876463      5.29397962713543     -0.84455388154335
  H   -2.97143372982987      4.83490309870552      0.12721385684329
  N   3.78881955921039    -11.07416600405030      0.07873711807635
  N   4.15459633432202    -12.11639950841932      0.09319085106605
