15
Coordinates from ORCA-job 4-NO2-Ph-N2+-scan-d090-169-n800
  C   -4.03673352311824     -0.20374660929701     -0.48512853578306
  C   -2.61438248184181     -0.23352645860676     -0.60138047077675
  C   -2.22815914987145      0.89333838904241     -0.00905791273358
  C   -2.55986821417221      2.01235982056911      0.62937774169669
  C   -3.98441962127288      1.95147395965249      0.69595246088980
  C   -4.67028143166187      0.86665743798068      0.14778405588045
  H   -4.60992784001054     -1.03088215340610     -0.89956344302061
  H   -2.04206200041263     -1.02358351614553     -1.07587615786786
  H   -1.94890038416733      2.81535066352967      1.02788679783130
  H   -4.51774751036716      2.76652553461282      1.18145643432671
  N   -6.15366029594058      0.85044078848146      0.24307478415763
  O   -6.71375463051020     -0.11800867635585     -0.24999133144356
  O   -6.66702636914238      1.80714695486372      0.80511192365236
  N   14.62769759886929      0.82124896649052     -1.22762159880334
  N   15.73072585362018      0.82670489858841     -1.30092474800622
