1,2-(CH3)2-C2H3-N2+-RB3LYP-aug-cc-pVDZ-Singlet.log
 OpenBabel04131813123D
Gaussian home/ubuntu/g09/g09 #p Temperature=298.15 opt freq RB3LYP/aug-cc-pVDZ
 15 13  0  0  0  0  0  0  0  0999 V2000
   -1.1250    0.0024   -0.0288 C   0  0  0  0  0  0  0  0  0  0  0  0
    2.1493   -0.0033    0.0806 N   0  0  0  0  0  0  0  0  0  0  0  0
    3.2525    0.0007    0.0424 N   0  0  0  0  0  0  0  0  0  0  0  0
   -1.0540   -1.2226   -0.8288 C   0  0  0  0  0  0  0  0  0  0  0  0
   -0.5877   -2.0486   -0.2736 H   0  0  0  0  0  0  0  0  0  0  0  0
   -2.1136   -1.5369   -0.9573 H   0  0  0  0  0  0  0  0  0  0  0  0
   -0.6165   -1.0865   -1.8219 H   0  0  0  0  0  0  0  0  0  0  0  0
   -1.0637    1.3163   -0.6712 C   0  0  0  0  0  0  0  0  0  0  0  0
   -2.1109    1.5021   -1.0035 H   0  0  0  0  0  0  0  0  0  0  0  0
   -0.8120    2.1277    0.0212 H   0  0  0  0  0  0  0  0  0  0  0  0
   -0.4513    1.3264   -1.5799 H   0  0  0  0  0  0  0  0  0  0  0  0
   -1.3079   -0.0898    1.4195 C   0  0  0  0  0  0  0  0  0  0  0  0
   -1.8317    0.7755    1.8451 H   0  0  0  0  0  0  0  0  0  0  0  0
   -1.7193   -1.0480    1.7558 H   0  0  0  0  0  0  0  0  0  0  0  0
   -0.2657   -0.0312    1.8090 H   0  0  0  0  0  0  0  0  0  0  0  0
  1 12  1  0  0  0  0
  3  2  3  0  0  0  0
  4  5  1  0  0  0  0
  4  1  1  0  0  0  0
  6  4  1  0  0  0  0
  7  4  1  0  0  0  0
  8  1  1  0  0  0  0
  8 10  1  0  0  0  0
  9  8  1  0  0  0  0
 11  8  1  0  0  0  0
 12 14  1  0  0  0  0
 12 15  1  0  0  0  0
 12 13  1  0  0  0  0
M  RAD  1   1   2
M  END
