1,2,4-Triazine-5-N2-UB3LYP-aug-cc-pVDZ-Doublet.log
 OpenBabel04131813123D
Gaussian home/ubuntu/g09/g09 #p Temperature=298.15 opt freq UB3LYP/aug-cc-pVDZ
 10 10  0  0  0  0  0  0  0  0999 V2000
   -0.5313   -0.2073   -0.0664 C   0  0  0  0  0  0  0  0  0  0  0  0
   -0.0104    1.0952   -0.0712 C   0  0  0  0  0  0  0  0  0  0  0  0
   -1.9704   -0.4641   -0.1880 N   0  0  0  0  0  0  0  0  0  0  0  0
   -2.7947    0.2752    0.2274 N   0  0  0  0  0  0  0  0  0  0  0  0
   -0.6465    1.9781   -0.1295 H   0  0  0  0  0  0  0  0  0  0  0  0
    1.5577   -0.9867    0.0576 C   0  0  0  0  0  0  0  0  0  0  0  0
    2.2497   -1.8264    0.1164 H   0  0  0  0  0  0  0  0  0  0  0  0
    0.2469   -1.2679   -0.0176 N   0  0  0  0  0  0  0  0  0  0  0  0
    2.1120    0.2298    0.0606 N   0  0  0  0  0  0  0  0  0  0  0  0
    1.3062    1.2899   -0.0119 N   0  0  0  0  0  0  0  0  0  0  0  0
  1  8  1  0  0  0  0
  2  1  2  0  0  0  0
  2 10  1  0  0  0  0
  3  1  1  0  0  0  0
  3  4  2  0  0  0  0
  5  2  1  0  0  0  0
  6  9  1  0  0  0  0
  6  7  1  0  0  0  0
  8  6  2  0  0  0  0
 10  9  2  0  0  0  0
M  RAD  1   4   2
M  END
