1,2,4-Triazine-6-N2-UB3LYP-aug-cc-pVDZ-Doublet.log
 OpenBabel04131813123D
Gaussian home/ubuntu/g09/g09 #p Temperature=298.15 opt freq UB3LYP/aug-cc-pVDZ
 10 10  0  0  0  0  0  0  0  0999 V2000
    0.5254   -0.2056   -0.0193 C   0  0  0  0  0  0  0  0  0  0  0  0
    0.0185    1.1041   -0.0236 C   0  0  0  0  0  0  0  0  0  0  0  0
    1.9570   -0.5016   -0.0517 N   0  0  0  0  0  0  0  0  0  0  0  0
    2.7904    0.3304    0.0660 N   0  0  0  0  0  0  0  0  0  0  0  0
    0.6806    1.9720   -0.0451 H   0  0  0  0  0  0  0  0  0  0  0  0
   -0.2569   -1.2755   -0.0054 N   0  0  0  0  0  0  0  0  0  0  0  0
   -1.2931    1.2944   -0.0054 N   0  0  0  0  0  0  0  0  0  0  0  0
   -1.5756   -1.0864    0.0186 N   0  0  0  0  0  0  0  0  0  0  0  0
   -2.0304    0.1712    0.0184 C   0  0  0  0  0  0  0  0  0  0  0  0
   -3.1147    0.2804    0.0370 H   0  0  0  0  0  0  0  0  0  0  0  0
  1  6  1  0  0  0  0
  2  1  2  0  0  0  0
  2  7  1  0  0  0  0
  3  1  1  0  0  0  0
  3  4  2  0  0  0  0
  5  2  1  0  0  0  0
  6  8  2  0  0  0  0
  7  9  2  0  0  0  0
  9  8  1  0  0  0  0
  9 10  1  0  0  0  0
M  RAD  1   4   2
M  END
