1,2,4-Triazine-3+-UB3LYP-aug-cc-pVDZ-Triplet.log
 OpenBabel04131813123D
Gaussian home/ubuntu/g09/g09 #p Temperature=298.15 opt freq UB3LYP/aug-cc-pVDZ
  8  8  0  0  0  0  0  0  0  0999 V2000
   -0.7730   -1.1464   -0.0002 C   0  0  0  0  0  0  0  0  0  0  0  0
    0.6481    1.1216   -0.0002 C   0  0  0  0  0  0  0  0  0  0  0  0
    1.1808    2.0717   -0.0001 H   0  0  0  0  0  0  0  0  0  0  0  0
    1.2722   -0.1616    0.0002 C   0  0  0  0  0  0  0  0  0  0  0  0
    2.3621   -0.2575    0.0002 H   0  0  0  0  0  0  0  0  0  0  0  0
    0.5215   -1.2526   -0.0001 N   0  0  0  0  0  0  0  0  0  0  0  0
   -1.3302    0.0471    0.0002 N   0  0  0  0  0  0  0  0  0  0  0  0
   -0.6808    1.1062    0.0000 N   0  0  0  0  0  0  0  0  0  0  0  0
  1  6  1  0  0  0  0
  1  7  2  0  0  0  0
  2  3  1  0  0  0  0
  2  8  2  0  0  0  0
  2  4  1  0  0  0  0
  4  5  1  0  0  0  0
  6  4  2  0  0  0  0
  8  7  1  0  0  0  0
M  RAD  1   1   2
M  END
