1-CH3-C2H4-N2+-UB3LYP-aug-cc-pVDZ-Triplet.log
 OpenBabel04131813123D
Gaussian home/ubuntu/g09/g09 #p Temperature=298.15 opt freq UB3LYP/aug-cc-pVDZ
 12 11  0  0  0  0  0  0  0  0999 V2000
    0.1824    0.1277    0.3650 C   0  0  0  0  0  0  0  0  0  0  0  0
    0.2370   -0.1254    1.4373 H   0  0  0  0  0  0  0  0  0  0  0  0
   -0.9566   -0.4397   -0.2914 N   0  0  0  0  0  0  0  0  0  0  0  0
   -2.0760   -0.2275    0.0690 N   0  0  0  0  0  0  0  0  0  0  0  0
    0.6230    1.4631   -0.1046 C   0  0  0  0  0  0  0  0  0  0  0  0
   -0.1216    2.1799    0.3134 H   0  0  0  0  0  0  0  0  0  0  0  0
    1.6038    1.7441    0.2947 H   0  0  0  0  0  0  0  0  0  0  0  0
    0.5838    1.5692   -1.1964 H   0  0  0  0  0  0  0  0  0  0  0  0
    1.5165   -1.0930   -0.0778 C   0  0  0  0  0  0  0  0  0  0  0  0
    2.3543   -0.6968    0.5000 H   0  0  0  0  0  0  0  0  0  0  0  0
    1.0883   -2.0338    0.2738 H   0  0  0  0  0  0  0  0  0  0  0  0
    1.5513   -0.9536   -1.1611 H   0  0  0  0  0  0  0  0  0  0  0  0
  1  2  1  0  0  0  0
  3  4  2  0  0  0  0
  3  1  1  0  0  0  0
  5  7  1  0  0  0  0
  5  6  1  0  0  0  0
  5  1  1  0  0  0  0
  8  5  1  0  0  0  0
  9 11  1  0  0  0  0
  9  1  1  0  0  0  0
  9 10  1  0  0  0  0
 12  9  1  0  0  0  0
M  RAD  1   4   2
M  END
