1H-1,2,4-Triazole-5+-UB3LYP-aug-cc-pVDZ-Singlet.log
 OpenBabel04131813133D
Gaussian home/ubuntu/g09/g09 #p Temperature=298.15 opt=(maxcycles=1024) SCF=(max
  7  7  0  0  0  0  0  0  0  0999 V2000
    0.0878   -0.9830    0.0894 C   0  0  0  0  0  0  0  0  0  0  0  0
   -0.8126    0.6966    0.0025 C   0  0  0  0  0  0  0  0  0  0  0  0
   -1.6006    1.4437    0.0713 H   0  0  0  0  0  0  0  0  0  0  0  0
    1.1484   -0.2253   -0.0739 N   0  0  0  0  0  0  0  0  0  0  0  0
    2.1435   -0.3520    0.1172 H   0  0  0  0  0  0  0  0  0  0  0  0
    0.4979    1.0015    0.0157 N   0  0  0  0  0  0  0  0  0  0  0  0
   -1.1027   -0.6867   -0.0475 N   0  0  0  0  0  0  0  0  0  0  0  0
  2  6  1  0  0  0  0
  2  3  1  0  0  0  0
  4  6  1  0  0  0  0
  4  1  1  0  0  0  0
  4  5  1  0  0  0  0
  7  2  1  0  0  0  0
  7  1  1  0  0  0  0
M  RAD  4   1   3   2   2   6   2   7   2
M  END
