4-CH3O-Ph-N2+-RB3LYP-aug-cc-pVDZ-Singlet.log
 OpenBabel04131813133D
Gaussian home/ubuntu/g09/g09 #p Temperature=298.15 opt freq RB3LYP/aug-cc-pVDZ
 17 17  0  0  0  0  0  0  0  0999 V2000
   -0.6890   -1.0320   -0.0001 C   0  0  0  0  0  0  0  0  0  0  0  0
    0.6819   -1.1858   -0.0002 C   0  0  0  0  0  0  0  0  0  0  0  0
    1.4926   -0.0258   -0.0001 C   0  0  0  0  0  0  0  0  0  0  0  0
    0.9513    1.2880   -0.0001 C   0  0  0  0  0  0  0  0  0  0  0  0
   -0.4153    1.4213   -0.0001 C   0  0  0  0  0  0  0  0  0  0  0  0
   -1.2548    0.2716    0.0000 C   0  0  0  0  0  0  0  0  0  0  0  0
   -1.3206   -1.9160   -0.0003 H   0  0  0  0  0  0  0  0  0  0  0  0
    1.1356   -2.1757   -0.0003 H   0  0  0  0  0  0  0  0  0  0  0  0
    1.6065    2.1575   -0.0001 H   0  0  0  0  0  0  0  0  0  0  0  0
   -0.8821    2.4048   -0.0001 H   0  0  0  0  0  0  0  0  0  0  0  0
    2.8478   -0.1769    0.0001 N   0  0  0  0  0  0  0  0  0  0  0  0
    3.9607   -0.2962    0.0002 N   0  0  0  0  0  0  0  0  0  0  0  0
   -2.5518    0.5220    0.0001 O   0  0  0  0  0  0  0  0  0  0  0  0
   -3.5157   -0.5594    0.0001 C   0  0  0  0  0  0  0  0  0  0  0  0
   -4.4896   -0.0663   -0.0000 H   0  0  0  0  0  0  0  0  0  0  0  0
   -3.4002   -1.1678    0.9059 H   0  0  0  0  0  0  0  0  0  0  0  0
   -3.4001   -1.1680   -0.9055 H   0  0  0  0  0  0  0  0  0  0  0  0
  1  6  1  0  0  0  0
  2  1  2  0  0  0  0
  2  3  1  0  0  0  0
  3 11  1  0  0  0  0
  4  5  1  0  0  0  0
  4  3  2  0  0  0  0
  5  6  2  0  0  0  0
  6 13  1  0  0  0  0
  7  1  1  0  0  0  0
  8  2  1  0  0  0  0
  9  4  1  0  0  0  0
 10  5  1  0  0  0  0
 11 12  1  0  0  0  0
 13 14  1  0  0  0  0
 14 16  1  0  0  0  0
 15 14  1  0  0  0  0
 17 14  1  0  0  0  0
M  RAD  2  11   2  12   3
M  END
