4-NO2-Ph+-UB3LYP-aug-cc-pVDZ-Triplet.log
 OpenBabel04131813133D
Gaussian home/ubuntu/g09/g09 #p Temperature=298.15 opt freq UB3LYP/aug-cc-pVDZ
 13 13  0  0  0  0  0  0  0  0999 V2000
   -0.4763   -1.2466   -0.2094 C   0  0  0  0  0  0  0  0  0  0  0  0
   -1.8580   -1.2468   -0.2113 C   0  0  0  0  0  0  0  0  0  0  0  0
   -2.4755    0.0000   -0.0000 C   0  0  0  0  0  0  0  0  0  0  0  0
   -1.8580    1.2468    0.2113 C   0  0  0  0  0  0  0  0  0  0  0  0
   -0.4763    1.2466    0.2094 C   0  0  0  0  0  0  0  0  0  0  0  0
    0.1850    0.0000   -0.0000 C   0  0  0  0  0  0  0  0  0  0  0  0
    0.1071   -2.1562   -0.3542 H   0  0  0  0  0  0  0  0  0  0  0  0
   -2.4376   -2.1578   -0.3639 H   0  0  0  0  0  0  0  0  0  0  0  0
   -2.4376    2.1578    0.3639 H   0  0  0  0  0  0  0  0  0  0  0  0
    0.1071    2.1562    0.3542 H   0  0  0  0  0  0  0  0  0  0  0  0
    1.6404   -0.0000   -0.0000 N   0  0  0  0  0  0  0  0  0  0  0  0
    2.1832   -0.6988    0.8400 O   0  0  0  0  0  0  0  0  0  0  0  0
    2.1834    0.6988   -0.8399 O   0  0  0  0  0  0  0  0  0  0  0  0
  1  6  1  0  0  0  0
  2  1  2  0  0  0  0
  2  3  1  0  0  0  0
  3  4  2  0  0  0  0
  4  9  1  0  0  0  0
  5  4  1  0  0  0  0
  5 10  1  0  0  0  0
  6  5  2  0  0  0  0
  7  1  1  0  0  0  0
  8  2  1  0  0  0  0
 11  6  1  0  0  0  0
 11 12  2  0  0  0  0
 13 11  2  0  0  0  0
M  RAD  1   3   2
M  END
