4H-1,2,4-Triazole-3-UB3LYP-aug-cc-pVDZ-Doublet.log
 OpenBabel04131813133D
Gaussian home/ubuntu/g09/g09 #p Temperature=298.15 opt=(maxcycles=1024) SCF=(max
  7  7  0  0  0  0  0  0  0  0999 V2000
    0.2387   -1.1243    0.0006 C   0  0  0  0  0  0  0  0  0  0  0  0
   -0.6789    0.8169    0.0000 C   0  0  0  0  0  0  0  0  0  0  0  0
   -1.4160    1.6125    0.0009 H   0  0  0  0  0  0  0  0  0  0  0  0
   -0.9883   -0.5220   -0.0004 N   0  0  0  0  0  0  0  0  0  0  0  0
   -1.8947   -0.9658   -0.0001 H   0  0  0  0  0  0  0  0  0  0  0  0
    1.2160   -0.2987   -0.0003 N   0  0  0  0  0  0  0  0  0  0  0  0
    0.6226    0.9918    0.0001 N   0  0  0  0  0  0  0  0  0  0  0  0
  2  7  2  0  0  0  0
  2  3  1  0  0  0  0
  4  5  1  0  0  0  0
  4  2  1  0  0  0  0
  4  1  1  0  0  0  0
  6  7  1  0  0  0  0
  6  1  2  0  0  0  0
M  RAD  1   1   2
M  END
