4H-1,2,4-Triazole-3-N2+-RB3LYP-aug-cc-pVDZ-Singlet.log
 OpenBabel04131813133D
Gaussian home/ubuntu/g09/g09 #p Temperature=298.15 opt=(maxcycles=1024) SCF=(max
  9  9  0  0  0  0  0  0  0  0999 V2000
   -1.6327    0.0407    0.0001 N   0  0  0  0  0  0  0  0  0  0  0  0
   -2.7489   -0.0084    0.0004 N   0  0  0  0  0  0  0  0  0  0  0  0
   -0.2785   -0.0098   -0.0005 C   0  0  0  0  0  0  0  0  0  0  0  0
    1.7891    0.5130   -0.0004 C   0  0  0  0  0  0  0  0  0  0  0  0
    2.7174    1.0777    0.0009 H   0  0  0  0  0  0  0  0  0  0  0  0
    0.5594    1.0746   -0.0002 N   0  0  0  0  0  0  0  0  0  0  0  0
    0.3266    2.0652    0.0005 H   0  0  0  0  0  0  0  0  0  0  0  0
    0.4009   -1.1624   -0.0007 N   0  0  0  0  0  0  0  0  0  0  0  0
    1.6917   -0.8249    0.0010 N   0  0  0  0  0  0  0  0  0  0  0  0
  1  2  1  0  0  0  0
  3  6  1  0  0  0  0
  3  1  1  0  0  0  0
  4  6  1  0  0  0  0
  4  5  1  0  0  0  0
  4  9  2  0  0  0  0
  6  7  1  0  0  0  0
  8  3  2  0  0  0  0
  8  9  1  0  0  0  0
M  RAD  2   1   2   2   3
M  END
