Imidazole-5-N2+-UB3LYP-aug-cc-pVDZ-Triplet.log
 OpenBabel04131813133D
Gaussian home/ubuntu/g09/g09 #p Temperature=298.15 opt freq UB3LYP/aug-cc-pVDZ
 10 10  0  0  0  0  0  0  0  0999 V2000
   -1.7063   -0.4997   -0.0010 N   0  0  0  0  0  0  0  0  0  0  0  0
   -2.5700    0.3387    0.0015 N   0  0  0  0  0  0  0  0  0  0  0  0
   -0.3585   -0.1409   -0.0007 C   0  0  0  0  0  0  0  0  0  0  0  0
    0.3634    1.1384   -0.0006 C   0  0  0  0  0  0  0  0  0  0  0  0
   -0.0815    2.1324   -0.0015 H   0  0  0  0  0  0  0  0  0  0  0  0
    1.8108   -0.4406    0.0007 C   0  0  0  0  0  0  0  0  0  0  0  0
    2.7664   -0.9612    0.0014 H   0  0  0  0  0  0  0  0  0  0  0  0
    0.6093   -1.0913   -0.0002 N   0  0  0  0  0  0  0  0  0  0  0  0
    0.4512   -2.0984    0.0000 H   0  0  0  0  0  0  0  0  0  0  0  0
    1.6627    0.9074    0.0003 N   0  0  0  0  0  0  0  0  0  0  0  0
  1  3  1  0  0  0  0
  1  2  2  0  0  0  0
  3  4  2  0  0  0  0
  3  8  1  0  0  0  0
  4 10  1  0  0  0  0
  5  4  1  0  0  0  0
  6  7  1  0  0  0  0
  8  9  1  0  0  0  0
  8  6  1  0  0  0  0
 10  6  2  0  0  0  0
M  RAD  1   2   2
M  END
