N-O-Pyridine-3-N2-UB3LYP-aug-cc-pVDZ-Doublet.log
 OpenBabel04131813133D
Gaussian home/ubuntu/g09/g09 #p Temperature=298.15 opt freq UB3LYP/aug-cc-pVDZ
 13 13  0  0  0  0  0  0  0  0999 V2000
    0.0553   -0.8366    0.0001 C   0  0  0  0  0  0  0  0  0  0  0  0
    0.9095    0.2605   -0.0001 C   0  0  0  0  0  0  0  0  0  0  0  0
    0.4258    1.5663   -0.0002 C   0  0  0  0  0  0  0  0  0  0  0  0
   -0.9635    1.7284   -0.0000 C   0  0  0  0  0  0  0  0  0  0  0  0
    0.3869   -1.8703   -0.0000 H   0  0  0  0  0  0  0  0  0  0  0  0
    2.3601    0.0836    0.0000 N   0  0  0  0  0  0  0  0  0  0  0  0
    2.9102   -0.9639    0.0001 N   0  0  0  0  0  0  0  0  0  0  0  0
   -1.4113    2.7212   -0.0001 H   0  0  0  0  0  0  0  0  0  0  0  0
    1.1138    2.4088    0.0002 H   0  0  0  0  0  0  0  0  0  0  0  0
   -1.3011   -0.6563    0.0001 N   0  0  0  0  0  0  0  0  0  0  0  0
   -1.8016    0.6278    0.0002 C   0  0  0  0  0  0  0  0  0  0  0  0
   -2.8867    0.6735    0.0003 H   0  0  0  0  0  0  0  0  0  0  0  0
   -2.0924   -1.6569   -0.0002 O   0  0  0  0  0  0  0  0  0  0  0  0
  2  6  1  0  0  0  0
  2  1  2  0  0  0  0
  3  2  1  0  0  0  0
  3  4  1  0  0  0  0
  3  9  1  0  0  0  0
  4 11  2  0  0  0  0
  5  1  1  0  0  0  0
  6  7  2  0  0  0  0
  8  4  1  0  0  0  0
 10  1  1  0  0  0  0
 10 11  1  0  0  0  0
 11 12  1  0  0  0  0
 13 10  1  0  0  0  0
M  RAD  2   7   2  13   2
M  END
