Ph-N2+-UB3LYP-aug-cc-pVDZ-Triplet.log
 OpenBabel04131813133D
Gaussian home/ubuntu/g09/g09 #p Temperature=298.15 opt freq UB3LYP/aug-cc-pVDZ
 13 13  0  0  0  0  0  0  0  0999 V2000
    1.4859   -1.2228    0.0504 C   0  0  0  0  0  0  0  0  0  0  0  0
    0.1183   -1.2747   -0.0509 C   0  0  0  0  0  0  0  0  0  0  0  0
   -0.6052   -0.0375   -0.1214 C   0  0  0  0  0  0  0  0  0  0  0  0
    0.0469    1.2410   -0.0714 C   0  0  0  0  0  0  0  0  0  0  0  0
    1.4159    1.2693    0.0265 C   0  0  0  0  0  0  0  0  0  0  0  0
    2.1483    0.0441    0.0895 C   0  0  0  0  0  0  0  0  0  0  0  0
    2.0739   -2.1387    0.1037 H   0  0  0  0  0  0  0  0  0  0  0  0
   -0.4284   -2.2161   -0.0879 H   0  0  0  0  0  0  0  0  0  0  0  0
   -1.9900   -0.0838   -0.3788 N   0  0  0  0  0  0  0  0  0  0  0  0
   -2.8583    0.0546    0.4251 N   0  0  0  0  0  0  0  0  0  0  0  0
    3.2351    0.0757    0.1767 H   0  0  0  0  0  0  0  0  0  0  0  0
    1.9506    2.2181    0.0654 H   0  0  0  0  0  0  0  0  0  0  0  0
   -0.5537    2.1486   -0.1192 H   0  0  0  0  0  0  0  0  0  0  0  0
  1  6  1  0  0  0  0
  1  7  1  0  0  0  0
  2  1  2  0  0  0  0
  3  4  2  0  0  0  0
  3  2  1  0  0  0  0
  4  5  1  0  0  0  0
  5 12  1  0  0  0  0
  5  6  2  0  0  0  0
  6 11  1  0  0  0  0
  8  2  1  0  0  0  0
  9  3  1  0  0  0  0
  9 10  2  0  0  0  0
 13  4  1  0  0  0  0
M  RAD  1  10   2
M  END
