Pyrazole-4-N2+-RB3LYP-aug-cc-pVDZ-Singlet.log
 OpenBabel04131813133D
Gaussian home/ubuntu/g09/g09 #p Temperature=298.15 opt freq RB3LYP/aug-cc-pVDZ
 10 10  0  0  0  0  0  0  0  0999 V2000
    1.6932   -0.0348   -0.0001 N   0  0  0  0  0  0  0  0  0  0  0  0
    2.8100   -0.0133    0.0002 N   0  0  0  0  0  0  0  0  0  0  0  0
    0.3442   -0.0048   -0.0004 C   0  0  0  0  0  0  0  0  0  0  0  0
   -0.5019    1.1587    0.0003 C   0  0  0  0  0  0  0  0  0  0  0  0
   -0.2209    2.2078    0.0002 H   0  0  0  0  0  0  0  0  0  0  0  0
   -1.7282   -0.5928    0.0001 N   0  0  0  0  0  0  0  0  0  0  0  0
   -2.6130   -1.0938    0.0000 H   0  0  0  0  0  0  0  0  0  0  0  0
   -0.5085   -1.1253    0.0001 C   0  0  0  0  0  0  0  0  0  0  0  0
   -0.3039   -2.1917    0.0001 H   0  0  0  0  0  0  0  0  0  0  0  0
   -1.7556    0.7704   -0.0002 N   0  0  0  0  0  0  0  0  0  0  0  0
  1  2  1  0  0  0  0
  3  1  1  0  0  0  0
  3  8  2  0  0  0  0
  3  4  1  0  0  0  0
  5  4  1  0  0  0  0
  6  8  1  0  0  0  0
  7  6  1  0  0  0  0
  9  8  1  0  0  0  0
 10  6  1  0  0  0  0
 10  4  2  0  0  0  0
M  RAD  2   1   2   2   3
M  END
