Pyrazine-2-N2-UB3LYP-aug-cc-pVDZ-Doublet.log
 OpenBabel04131813133D
Gaussian home/ubuntu/g09/g09 #p Temperature=298.15 opt freq UB3LYP/aug-cc-pVDZ
 11 11  0  0  0  0  0  0  0  0999 V2000
    0.5452   -0.1598    0.0000 C   0  0  0  0  0  0  0  0  0  0  0  0
   -0.3217   -1.2560    0.0000 C   0  0  0  0  0  0  0  0  0  0  0  0
    1.9793   -0.4617    0.0001 N   0  0  0  0  0  0  0  0  0  0  0  0
    2.8275    0.3644   -0.0001 N   0  0  0  0  0  0  0  0  0  0  0  0
    0.0706   -2.2738    0.0000 H   0  0  0  0  0  0  0  0  0  0  0  0
   -2.0813    0.1798   -0.0000 C   0  0  0  0  0  0  0  0  0  0  0  0
   -3.1615    0.3380   -0.0001 H   0  0  0  0  0  0  0  0  0  0  0  0
   -1.1979    1.2696    0.0000 C   0  0  0  0  0  0  0  0  0  0  0  0
   -1.5718    2.2956    0.0001 H   0  0  0  0  0  0  0  0  0  0  0  0
    0.1264    1.1019    0.0000 N   0  0  0  0  0  0  0  0  0  0  0  0
   -1.6479   -1.0849   -0.0000 N   0  0  0  0  0  0  0  0  0  0  0  0
  1 10  1  0  0  0  0
  1  3  1  0  0  0  0
  2  1  2  0  0  0  0
  2  5  1  0  0  0  0
  4  3  2  0  0  0  0
  6  8  1  0  0  0  0
  7  6  1  0  0  0  0
  8 10  2  0  0  0  0
  8  9  1  0  0  0  0
 11  6  2  0  0  0  0
 11  2  1  0  0  0  0
M  RAD  1   4   2
M  END
