Pyrazine-2-N2+-UB3LYP-aug-cc-pVDZ-Triplet.log
 OpenBabel04131813133D
Gaussian home/ubuntu/g09/g09 #p Temperature=298.15 opt freq UB3LYP/aug-cc-pVDZ
 11 11  0  0  0  0  0  0  0  0999 V2000
    0.5756   -0.0343    0.1128 C   0  0  0  0  0  0  0  0  0  0  0  0
   -0.1532    1.2442    0.0694 C   0  0  0  0  0  0  0  0  0  0  0  0
    1.9068   -0.0457   -0.1035 N   0  0  0  0  0  0  0  0  0  0  0  0
    3.0466   -0.0583    0.0012 N   0  0  0  0  0  0  0  0  0  0  0  0
    0.3859    2.1888   -0.0442 H   0  0  0  0  0  0  0  0  0  0  0  0
   -2.1589    0.0666   -0.0731 C   0  0  0  0  0  0  0  0  0  0  0  0
   -3.2416    0.0827    0.0502 H   0  0  0  0  0  0  0  0  0  0  0  0
   -1.4202   -1.1744   -0.0349 C   0  0  0  0  0  0  0  0  0  0  0  0
   -1.9756   -2.1106    0.0799 H   0  0  0  0  0  0  0  0  0  0  0  0
   -0.1231   -1.1811    0.0426 N   0  0  0  0  0  0  0  0  0  0  0  0
   -1.4343    1.1747   -0.0160 N   0  0  0  0  0  0  0  0  0  0  0  0
  2  1  1  0  0  0  0
  3  4  1  0  0  0  0
  3  1  1  0  0  0  0
  5  2  1  0  0  0  0
  6  8  2  0  0  0  0
  6 11  1  0  0  0  0
  6  7  1  0  0  0  0
  8 10  1  0  0  0  0
  8  9  1  0  0  0  0
 10  1  2  0  0  0  0
 11  2  2  0  0  0  0
M  RAD  2   3   2   4   3
M  END
