Pyrazine-2+-UB3LYP-aug-cc-pVDZ-Triplet.log
 OpenBabel04131813133D
Gaussian home/ubuntu/g09/g09 #p Temperature=298.15 opt freq UB3LYP/aug-cc-pVDZ
  9  9  0  0  0  0  0  0  0  0999 V2000
   -0.3855   -1.3273   -0.1197 C   0  0  0  0  0  0  0  0  0  0  0  0
   -1.3563   -0.2798    0.0210 C   0  0  0  0  0  0  0  0  0  0  0  0
   -2.3888   -0.4959    0.3151 H   0  0  0  0  0  0  0  0  0  0  0  0
    0.3582    1.2520   -0.0020 C   0  0  0  0  0  0  0  0  0  0  0  0
    0.6945    2.2729   -0.1991 H   0  0  0  0  0  0  0  0  0  0  0  0
    1.3124    0.1587    0.0711 C   0  0  0  0  0  0  0  0  0  0  0  0
    2.3831    0.3607   -0.0298 H   0  0  0  0  0  0  0  0  0  0  0  0
    0.8805   -1.0954    0.0305 N   0  0  0  0  0  0  0  0  0  0  0  0
   -0.9179    0.9584   -0.0175 N   0  0  0  0  0  0  0  0  0  0  0  0
  1  2  2  0  0  0  0
  1  8  1  0  0  0  0
  2  3  1  0  0  0  0
  4  6  1  0  0  0  0
  5  4  1  0  0  0  0
  7  6  1  0  0  0  0
  8  6  2  0  0  0  0
  9  4  2  0  0  0  0
  9  2  1  0  0  0  0
M  RAD  1   1   2
M  END
