Pyrimidine-4-N2+-RB3LYP-aug-cc-pVDZ-Singlet.log
 OpenBabel04131813133D
Gaussian home/ubuntu/g09/g09 #p Temperature=298.15 opt freq RB3LYP/aug-cc-pVDZ
 11 11  0  0  0  0  0  0  0  0999 V2000
    1.3744   -1.1913    0.0000 C   0  0  0  0  0  0  0  0  0  0  0  0
   -0.4865    0.0267    0.0000 C   0  0  0  0  0  0  0  0  0  0  0  0
    0.1677    1.2481    0.0000 C   0  0  0  0  0  0  0  0  0  0  0  0
    1.5698    1.0976   -0.0000 C   0  0  0  0  0  0  0  0  0  0  0  0
    1.8621   -2.1656   -0.0000 H   0  0  0  0  0  0  0  0  0  0  0  0
   -1.9355    0.0128    0.0000 N   0  0  0  0  0  0  0  0  0  0  0  0
   -3.0410   -0.0304   -0.0000 N   0  0  0  0  0  0  0  0  0  0  0  0
    2.2193    1.9751    0.0000 H   0  0  0  0  0  0  0  0  0  0  0  0
   -0.3308    2.2159    0.0000 H   0  0  0  0  0  0  0  0  0  0  0  0
    2.1562   -0.0994   -0.0000 N   0  0  0  0  0  0  0  0  0  0  0  0
    0.0341   -1.1847   -0.0000 N   0  0  0  0  0  0  0  0  0  0  0  0
  2  3  2  0  0  0  0
  2  6  1  0  0  0  0
  3  9  1  0  0  0  0
  4 10  2  0  0  0  0
  4  8  1  0  0  0  0
  4  3  1  0  0  0  0
  5  1  1  0  0  0  0
  7  6  1  0  0  0  0
 10  1  1  0  0  0  0
 11  2  1  0  0  0  0
 11  1  2  0  0  0  0
M  RAD  2   6   2   7   3
M  END
