Pyrimidine-5-N2+-UB3LYP-aug-cc-pVDZ-Singlet.log
 OpenBabel04131813133D
Gaussian home/ubuntu/g09/g09 #p Temperature=298.15 opt freq UB3LYP/aug-cc-pVDZ
 11 11  0  0  0  0  0  0  0  0999 V2000
   -0.1674    1.2257   -0.0001 C   0  0  0  0  0  0  0  0  0  0  0  0
    0.5421    0.0000   -0.0000 C   0  0  0  0  0  0  0  0  0  0  0  0
   -0.1674   -1.2256    0.0000 C   0  0  0  0  0  0  0  0  0  0  0  0
   -2.0924   -0.0000   -0.0001 C   0  0  0  0  0  0  0  0  0  0  0  0
    0.3443    2.1912    0.0000 H   0  0  0  0  0  0  0  0  0  0  0  0
    1.9166    0.0000   -0.0000 N   0  0  0  0  0  0  0  0  0  0  0  0
    3.0314   -0.0000    0.0000 N   0  0  0  0  0  0  0  0  0  0  0  0
   -3.1830   -0.0000    0.0004 H   0  0  0  0  0  0  0  0  0  0  0  0
    0.3444   -2.1911   -0.0000 H   0  0  0  0  0  0  0  0  0  0  0  0
   -1.4878   -1.2021   -0.0000 N   0  0  0  0  0  0  0  0  0  0  0  0
   -1.4878    1.2021    0.0001 N   0  0  0  0  0  0  0  0  0  0  0  0
  1  2  1  0  0  0  0
  1  5  1  0  0  0  0
  1 11  2  0  0  0  0
  2  6  1  0  0  0  0
  2  3  2  0  0  0  0
  4 10  2  0  0  0  0
  4 11  1  0  0  0  0
  4  8  1  0  0  0  0
  6  7  1  0  0  0  0
  9  3  1  0  0  0  0
 10  3  1  0  0  0  0
M  RAD  2   6   2   7   3
M  END
