Pyrrole-2-N2-UB3LYP-aug-cc-pVDZ-Doublet.log
 OpenBabel04131813133D
Gaussian home/ubuntu/g09/g09 #p Temperature=298.15 opt freq UB3LYP/aug-cc-pVDZ
 11 11  0  0  0  0  0  0  0  0999 V2000
   -1.7135   -0.4481   -0.0001 N   0  0  0  0  0  0  0  0  0  0  0  0
   -2.6421    0.3017    0.0003 N   0  0  0  0  0  0  0  0  0  0  0  0
   -0.3549   -0.0772   -0.0002 C   0  0  0  0  0  0  0  0  0  0  0  0
    0.3149    1.1412   -0.0002 C   0  0  0  0  0  0  0  0  0  0  0  0
   -0.1565    2.1179   -0.0005 H   0  0  0  0  0  0  0  0  0  0  0  0
    1.7006    0.8422    0.0002 C   0  0  0  0  0  0  0  0  0  0  0  0
    2.5182    1.5562    0.0003 H   0  0  0  0  0  0  0  0  0  0  0  0
    1.8354   -0.5419    0.0001 C   0  0  0  0  0  0  0  0  0  0  0  0
    2.7222   -1.1655    0.0001 H   0  0  0  0  0  0  0  0  0  0  0  0
    0.5827   -1.0859   -0.0002 N   0  0  0  0  0  0  0  0  0  0  0  0
    0.3512   -2.0692    0.0007 H   0  0  0  0  0  0  0  0  0  0  0  0
  1  2  2  0  0  0  0
  3 10  1  0  0  0  0
  3  4  2  0  0  0  0
  3  1  1  0  0  0  0
  4  6  1  0  0  0  0
  5  4  1  0  0  0  0
  6  7  1  0  0  0  0
  8  9  1  0  0  0  0
  8  6  2  0  0  0  0
 10  8  1  0  0  0  0
 10 11  1  0  0  0  0
M  RAD  1   2   2
M  END
