Tetrazole-5-N2+-UB3LYP-aug-cc-pVDZ-Singlet.log
 OpenBabel04131813133D
Gaussian home/ubuntu/g09/g09 #p Temperature=298.15 opt freq UB3LYP/aug-cc-pVDZ
  8  8  0  0  0  0  0  0  0  0999 V2000
    1.6241    0.0156    0.0000 N   0  0  0  0  0  0  0  0  0  0  0  0
    2.7375   -0.0213   -0.0000 N   0  0  0  0  0  0  0  0  0  0  0  0
   -0.5691    1.0530    0.0002 N   0  0  0  0  0  0  0  0  0  0  0  0
   -1.8054    0.5674   -0.0003 N   0  0  0  0  0  0  0  0  0  0  0  0
   -0.4392   -1.1494   -0.0002 N   0  0  0  0  0  0  0  0  0  0  0  0
   -1.7146   -0.7423    0.0003 N   0  0  0  0  0  0  0  0  0  0  0  0
    0.2604   -0.0199    0.0000 C   0  0  0  0  0  0  0  0  0  0  0  0
   -0.3955    2.0592    0.0002 H   0  0  0  0  0  0  0  0  0  0  0  0
  1  7  1  0  0  0  0
  2  1  1  0  0  0  0
  3  8  1  0  0  0  0
  4  3  1  0  0  0  0
  4  6  2  0  0  0  0
  5  7  2  0  0  0  0
  5  6  1  0  0  0  0
  7  3  1  0  0  0  0
M  RAD  2   1   2   2   3
M  END
