Thiophene-2+-RB3LYP-aug-cc-pVDZ-Singlet.log
 OpenBabel04131813133D
Gaussian home/ubuntu/g09/g09 #p Temperature=298.15 opt freq RB3LYP/aug-cc-pVDZ
  8  8  0  0  0  0  0  0  0  0999 V2000
   -0.1949   -1.0563    0.2985 C   0  0  0  0  0  0  0  0  0  0  0  0
   -1.4216   -0.6861   -0.1392 C   0  0  0  0  0  0  0  0  0  0  0  0
   -2.3476   -1.2477   -0.2415 H   0  0  0  0  0  0  0  0  0  0  0  0
   -1.2276    0.7235   -0.0300 C   0  0  0  0  0  0  0  0  0  0  0  0
   -2.0389    1.4093    0.2243 H   0  0  0  0  0  0  0  0  0  0  0  0
    0.1281    1.1277   -0.0062 C   0  0  0  0  0  0  0  0  0  0  0  0
    0.4784    2.1073    0.3238 H   0  0  0  0  0  0  0  0  0  0  0  0
    1.2628   -0.1826   -0.0653 S   0  0  0  0  0  0  0  0  0  0  0  0
  2  4  1  0  0  0  0
  2  1  1  0  0  0  0
  3  2  1  0  0  0  0
  4  6  2  0  0  0  0
  4  5  1  0  0  0  0
  6  7  1  0  0  0  0
  8  6  1  0  0  0  0
  8  1  1  0  0  0  0
M  RAD  2   1   3   2   2
M  END
