11
Coordinates from ORCA-job Pyrrole-3-N2+-scan-d09-169-n800
  N   1.99268724939314      0.82611769828041      0.22816558139490
  N   3.09103314842529      0.80349322008385      0.33628793798368
  C   -0.23528742402071      0.81013087151286     -0.01879488849535
  C   -0.87378142861735     -0.26713029766159     -0.57412563544686
  H   -0.56362745727709     -1.22480713963056     -0.95863599803601
  C   -2.16503314569358      0.27091717533248     -0.48154438165334
  H   -3.08160502002590     -0.21322968109090     -0.79172782983841
  N   -2.15013748069787      1.52697402916484      0.07526037120502
  H   -2.97320282594687      2.09720489681916      0.23695350674324
  C   -0.87136626310068      1.93159434006766      0.39838032104366
  H   -0.58627935243838      2.87073488712178      0.84098101509946
