Coordinates from ORCA-job 4-CH3O-C6H3-N2-B3LYPG-aug-cc-pVDZ-scan-d09-49-n400
 OpenBabel11091809133D

 16 15  0  0  0  0  0  0  0  0999 V2000
   -2.0037   -0.1917    0.2058 C   0  0  0  0  0  0  0  0  0  0  0  0
   -0.6609   -0.3023   -0.2162 C   0  0  0  0  0  0  0  0  0  0  0  0
   -0.0763    0.9416   -0.2781 C   0  0  0  0  0  0  0  0  0  0  0  0
   -0.5438    2.0841   -0.0271 C   0  0  0  0  0  0  0  0  0  0  0  0
   -1.8535    2.2791    0.3927 C   0  0  0  0  0  0  0  0  0  0  0  0
   -2.5864    1.0668    0.5031 C   0  0  0  0  0  0  0  0  0  0  0  0
   -2.5900   -1.1030    0.2997 H   0  0  0  0  0  0  0  0  0  0  0  0
   -0.1906   -1.2561   -0.4503 H   0  0  0  0  0  0  0  0  0  0  0  0
   -2.3312    3.2293    0.6287 H   0  0  0  0  0  0  0  0  0  0  0  0
    2.0322    0.5876   -0.9575 N   0  0  0  0  0  0  0  0  0  0  0  0
    2.9046    1.2369   -1.1622 N   0  0  0  0  0  0  0  0  0  0  0  0
   -3.8821    1.2180    0.9145 O   0  0  0  0  0  0  0  0  0  0  0  0
   -4.6975    0.0603    1.0555 C   0  0  0  0  0  0  0  0  0  0  0  0
   -5.6746    0.4233    1.3892 H   0  0  0  0  0  0  0  0  0  0  0  0
   -4.2859   -0.6285    1.8096 H   0  0  0  0  0  0  0  0  0  0  0  0
   -4.8113   -0.4671    0.0956 H   0  0  0  0  0  0  0  0  0  0  0  0
  1  7  1  0  0  0  0
  1  6  2  0  0  0  0
  2  1  1  0  0  0  0
  3  2  2  0  0  0  0
  3  4  1  0  0  0  0
  4  5  2  0  0  0  0
  5  6  1  0  0  0  0
  5  9  1  0  0  0  0
  6 12  1  0  0  0  0
  8  2  1  0  0  0  0
 11 10  3  0  0  0  0
 12 13  1  0  0  0  0
 13 14  1  0  0  0  0
 13 15  1  0  0  0  0
 16 13  1  0  0  0  0
M  RAD  2   3   2   4   2
M  END
