Coordinates from ORCA-job 4-CH3O-C6H3-N2-B3LYPG-aug-cc-pVDZ-scan-d09-49-n400
 OpenBabel11091809133D

 16 16  0  0  0  0  0  0  0  0999 V2000
   -1.9781   -0.2225    0.1953 C   0  0  0  0  0  0  0  0  0  0  0  0
   -0.6430   -0.3286   -0.2238 C   0  0  0  0  0  0  0  0  0  0  0  0
   -0.0319    0.9044   -0.2948 C   0  0  0  0  0  0  0  0  0  0  0  0
   -0.4462    2.1030   -0.0549 C   0  0  0  0  0  0  0  0  0  0  0  0
   -1.7737    2.2354    0.3644 C   0  0  0  0  0  0  0  0  0  0  0  0
   -2.5352    1.0482    0.4858 C   0  0  0  0  0  0  0  0  0  0  0  0
   -2.5708   -1.1284    0.2915 H   0  0  0  0  0  0  0  0  0  0  0  0
   -0.1690   -1.2820   -0.4589 H   0  0  0  0  0  0  0  0  0  0  0  0
   -2.2526    3.1876    0.6009 H   0  0  0  0  0  0  0  0  0  0  0  0
    1.6859    0.7118   -0.8394 N   0  0  0  0  0  0  0  0  0  0  0  0
    2.6302    1.2494   -1.0784 N   0  0  0  0  0  0  0  0  0  0  0  0
   -3.8260    1.2223    0.8977 O   0  0  0  0  0  0  0  0  0  0  0  0
   -4.6615    0.0797    1.0460 C   0  0  0  0  0  0  0  0  0  0  0  0
   -5.6316    0.4613    1.3792 H   0  0  0  0  0  0  0  0  0  0  0  0
   -4.2612   -0.6123    1.8032 H   0  0  0  0  0  0  0  0  0  0  0  0
   -4.7863   -0.4508    0.0892 H   0  0  0  0  0  0  0  0  0  0  0  0
  1  7  1  0  0  0  0
  1  6  2  0  0  0  0
  2  1  1  0  0  0  0
  3  2  2  0  0  0  0
  3  4  1  0  0  0  0
  4  5  2  0  0  0  0
  5  6  1  0  0  0  0
  5  9  1  0  0  0  0
  6 12  1  0  0  0  0
  8  2  1  0  0  0  0
 10  3  1  0  0  0  0
 11 10  2  0  0  0  0
 12 13  1  0  0  0  0
 13 14  1  0  0  0  0
 13 15  1  0  0  0  0
 16 13  1  0  0  0  0
M  RAD  2   4   2  11   2
M  END
