Coordinates from ORCA-job 4-CH3O-C6H3-N2-B3LYPG-aug-cc-pVDZ-scan-d09-49-n400
 OpenBabel11091809133D

 16 16  0  0  0  0  0  0  0  0999 V2000
   -1.9693   -0.2334    0.1915 C   0  0  0  0  0  0  0  0  0  0  0  0
   -0.6416   -0.3212   -0.2237 C   0  0  0  0  0  0  0  0  0  0  0  0
   -0.0106    0.9141   -0.3005 C   0  0  0  0  0  0  0  0  0  0  0  0
   -0.4080    2.1656   -0.0608 C   0  0  0  0  0  0  0  0  0  0  0  0
   -1.7506    2.2203    0.3558 C   0  0  0  0  0  0  0  0  0  0  0  0
   -2.5190    1.0428    0.4803 C   0  0  0  0  0  0  0  0  0  0  0  0
   -2.5593   -1.1407    0.2868 H   0  0  0  0  0  0  0  0  0  0  0  0
   -0.1626   -1.2722   -0.4601 H   0  0  0  0  0  0  0  0  0  0  0  0
   -2.2456    3.1649    0.5965 H   0  0  0  0  0  0  0  0  0  0  0  0
    1.5435    0.8079   -0.7867 N   0  0  0  0  0  0  0  0  0  0  0  0
    2.5695    1.1381   -1.0697 N   0  0  0  0  0  0  0  0  0  0  0  0
   -3.8071    1.2175    0.8915 O   0  0  0  0  0  0  0  0  0  0  0  0
   -4.6479    0.0777    1.0417 C   0  0  0  0  0  0  0  0  0  0  0  0
   -5.6158    0.4645    1.3748 H   0  0  0  0  0  0  0  0  0  0  0  0
   -4.2506   -0.6146    1.7999 H   0  0  0  0  0  0  0  0  0  0  0  0
   -4.7759   -0.4530    0.0858 H   0  0  0  0  0  0  0  0  0  0  0  0
  1  7  1  0  0  0  0
  1  6  2  0  0  0  0
  2  1  1  0  0  0  0
  3  2  2  0  0  0  0
  3  4  1  0  0  0  0
  4  5  2  0  0  0  0
  5  6  1  0  0  0  0
  5  9  1  0  0  0  0
  6 12  1  0  0  0  0
  8  2  1  0  0  0  0
 10  3  1  0  0  0  0
 11 10  1  0  0  0  0
 12 13  1  0  0  0  0
 13 14  1  0  0  0  0
 13 15  1  0  0  0  0
 16 13  1  0  0  0  0
M  RAD  3   4   2  10   2  11   3
M  END
