Coordinates from ORCA-job 4-CH3O-C6H3-N2-B3LYPG-aug-cc-pVDZ-scan-d09-49-n400
 OpenBabel11091809133D

 16 16  0  0  0  0  0  0  0  0999 V2000
   -1.9659   -0.2332    0.1906 C   0  0  0  0  0  0  0  0  0  0  0  0
   -0.6405   -0.3153   -0.2233 C   0  0  0  0  0  0  0  0  0  0  0  0
   -0.0032    0.9219   -0.3020 C   0  0  0  0  0  0  0  0  0  0  0  0
   -0.4034    2.1876   -0.0601 C   0  0  0  0  0  0  0  0  0  0  0  0
   -1.7490    2.2207    0.3554 C   0  0  0  0  0  0  0  0  0  0  0  0
   -2.5164    1.0439    0.4796 C   0  0  0  0  0  0  0  0  0  0  0  0
   -2.5542   -1.1415    0.2852 H   0  0  0  0  0  0  0  0  0  0  0  0
   -0.1607   -1.2659   -0.4600 H   0  0  0  0  0  0  0  0  0  0  0  0
   -2.2499    3.1622    0.5976 H   0  0  0  0  0  0  0  0  0  0  0  0
    1.5139    0.8324   -0.7754 N   0  0  0  0  0  0  0  0  0  0  0  0
    2.5575    1.0876   -1.0712 N   0  0  0  0  0  0  0  0  0  0  0  0
   -3.8040    1.2153    0.8904 O   0  0  0  0  0  0  0  0  0  0  0  0
   -4.6443    0.0746    1.0403 C   0  0  0  0  0  0  0  0  0  0  0  0
   -5.6123    0.4611    1.3733 H   0  0  0  0  0  0  0  0  0  0  0  0
   -4.2468   -0.6173    1.7985 H   0  0  0  0  0  0  0  0  0  0  0  0
   -4.7720   -0.4557    0.0842 H   0  0  0  0  0  0  0  0  0  0  0  0
  1  7  1  0  0  0  0
  1  6  2  0  0  0  0
  2  1  1  0  0  0  0
  3  2  2  0  0  0  0
  3  4  1  0  0  0  0
  4  5  2  0  0  0  0
  5  6  1  0  0  0  0
  5  9  1  0  0  0  0
  6 12  1  0  0  0  0
  8  2  1  0  0  0  0
 10  3  1  0  0  0  0
 11 10  1  0  0  0  0
 12 13  1  0  0  0  0
 13 14  1  0  0  0  0
 13 15  1  0  0  0  0
 16 13  1  0  0  0  0
M  RAD  3   4   2  10   2  11   3
M  END
