Coordinates from ORCA-job 4-CH3O-C6H3-N2-B3LYPG-aug-cc-pVDZ-scan-d09-49-n400
 OpenBabel11091809133D

 16 15  0  0  0  0  0  0  0  0999 V2000
   -2.0290   -0.1087    0.2217 C   0  0  0  0  0  0  0  0  0  0  0  0
   -0.6794   -0.1530   -0.1960 C   0  0  0  0  0  0  0  0  0  0  0  0
   -0.1378    1.1183   -0.2421 C   0  0  0  0  0  0  0  0  0  0  0  0
   -0.7045    2.2020    0.0336 C   0  0  0  0  0  0  0  0  0  0  0  0
   -2.0120    2.3668    0.4498 C   0  0  0  0  0  0  0  0  0  0  0  0
   -2.6789    1.1122    0.5359 C   0  0  0  0  0  0  0  0  0  0  0  0
   -2.5720   -1.0481    0.2995 H   0  0  0  0  0  0  0  0  0  0  0  0
   -0.1750   -1.0862   -0.4385 H   0  0  0  0  0  0  0  0  0  0  0  0
   -2.5299    3.2916    0.6956 H   0  0  0  0  0  0  0  0  0  0  0  0
    2.4812    0.2885   -1.1228 N   0  0  0  0  0  0  0  0  0  0  0  0
    3.3609    0.9222   -1.3335 N   0  0  0  0  0  0  0  0  0  0  0  0
   -3.9826    1.1919    0.9428 O   0  0  0  0  0  0  0  0  0  0  0  0
   -4.7392   -0.0081    1.0615 C   0  0  0  0  0  0  0  0  0  0  0  0
   -5.7347    0.3005    1.3955 H   0  0  0  0  0  0  0  0  0  0  0  0
   -4.2964   -0.6865    1.8071 H   0  0  0  0  0  0  0  0  0  0  0  0
   -4.8216   -0.5250    0.0929 H   0  0  0  0  0  0  0  0  0  0  0  0
  1  7  1  0  0  0  0
  1  6  2  0  0  0  0
  2  1  1  0  0  0  0
  3  2  2  0  0  0  0
  3  4  1  0  0  0  0
  4  5  2  0  0  0  0
  5  6  1  0  0  0  0
  5  9  1  0  0  0  0
  6 12  1  0  0  0  0
  8  2  1  0  0  0  0
 11 10  3  0  0  0  0
 12 13  1  0  0  0  0
 13 14  1  0  0  0  0
 13 15  1  0  0  0  0
 16 13  1  0  0  0  0
M  RAD  2   3   2   4   2
M  END
