Coordinates from ORCA-job 4-CH3O-C6H3-N2-B3LYPG-aug-cc-pVDZ-scan-d09-49-n400
 OpenBabel11091809133D

 16 15  0  0  0  0  0  0  0  0999 V2000
   -2.0229    0.1561    0.2449 C   0  0  0  0  0  0  0  0  0  0  0  0
   -0.6784    0.3452   -0.1492 C   0  0  0  0  0  0  0  0  0  0  0  0
   -0.3405    1.6890   -0.1263 C   0  0  0  0  0  0  0  0  0  0  0  0
   -1.0853    2.6456    0.1918 C   0  0  0  0  0  0  0  0  0  0  0  0
   -2.4056    2.5873    0.5908 C   0  0  0  0  0  0  0  0  0  0  0  0
   -2.8639    1.2398    0.6045 C   0  0  0  0  0  0  0  0  0  0  0  0
   -2.4100   -0.8603    0.2679 H   0  0  0  0  0  0  0  0  0  0  0  0
   -0.0392   -0.4918   -0.4238 H   0  0  0  0  0  0  0  0  0  0  0  0
   -3.0653    3.4060    0.8700 H   0  0  0  0  0  0  0  0  0  0  0  0
    3.1342   -0.6462   -1.4094 N   0  0  0  0  0  0  0  0  0  0  0  0
    4.0766   -0.1247   -1.6525 N   0  0  0  0  0  0  0  0  0  0  0  0
   -4.1680    1.0904    0.9900 O   0  0  0  0  0  0  0  0  0  0  0  0
   -4.7241   -0.2193    1.0370 C   0  0  0  0  0  0  0  0  0  0  0  0
   -5.7598   -0.0902    1.3664 H   0  0  0  0  0  0  0  0  0  0  0  0
   -4.1869   -0.8550    1.7577 H   0  0  0  0  0  0  0  0  0  0  0  0
   -4.7120   -0.6936    0.0434 H   0  0  0  0  0  0  0  0  0  0  0  0
  1  7  1  0  0  0  0
  1  6  2  0  0  0  0
  2  3  2  0  0  0  0
  2  1  1  0  0  0  0
  3  4  1  0  0  0  0
  4  5  2  0  0  0  0
  5  6  1  0  0  0  0
  5  9  1  0  0  0  0
  6 12  1  0  0  0  0
  8  2  1  0  0  0  0
 11 10  3  0  0  0  0
 12 13  1  0  0  0  0
 13 14  1  0  0  0  0
 13 15  1  0  0  0  0
 16 13  1  0  0  0  0
M  RAD  2   3   2   4   2
M  END
