Coordinates from ORCA-job 4-CH3O-C6H3-N2-B3LYPG-aug-cc-pVDZ-scan-d09-49-n400
 OpenBabel11091809133D

 16 15  0  0  0  0  0  0  0  0999 V2000
   -2.0146   -0.1586    0.2124 C   0  0  0  0  0  0  0  0  0  0  0  0
   -0.6674   -0.2462   -0.2088 C   0  0  0  0  0  0  0  0  0  0  0  0
   -0.1053    1.0098   -0.2627 C   0  0  0  0  0  0  0  0  0  0  0  0
   -0.6106    2.1291   -0.0023 C   0  0  0  0  0  0  0  0  0  0  0  0
   -1.9185    2.3164    0.4162 C   0  0  0  0  0  0  0  0  0  0  0  0
   -2.6243    1.0852    0.5165 C   0  0  0  0  0  0  0  0  0  0  0  0
   -2.5851   -1.0807    0.3004 H   0  0  0  0  0  0  0  0  0  0  0  0
   -0.1884   -1.1945   -0.4450 H   0  0  0  0  0  0  0  0  0  0  0  0
   -2.4120    3.2568    0.6561 H   0  0  0  0  0  0  0  0  0  0  0  0
    2.2203    0.4804   -1.0251 N   0  0  0  0  0  0  0  0  0  0  0  0
    3.1052    1.1078   -1.2363 N   0  0  0  0  0  0  0  0  0  0  0  0
   -3.9238    1.2079    0.9263 O   0  0  0  0  0  0  0  0  0  0  0  0
   -4.7161    0.0330    1.0585 C   0  0  0  0  0  0  0  0  0  0  0  0
   -5.7009    0.3745    1.3925 H   0  0  0  0  0  0  0  0  0  0  0  0
   -4.2921   -0.6519    1.8092 H   0  0  0  0  0  0  0  0  0  0  0  0
   -4.8174   -0.4904    0.0951 H   0  0  0  0  0  0  0  0  0  0  0  0
  1  7  1  0  0  0  0
  1  6  2  0  0  0  0
  2  1  1  0  0  0  0
  3  2  2  0  0  0  0
  3  4  1  0  0  0  0
  4  5  2  0  0  0  0
  5  6  1  0  0  0  0
  5  9  1  0  0  0  0
  6 12  1  0  0  0  0
  8  2  1  0  0  0  0
 11 10  3  0  0  0  0
 12 13  1  0  0  0  0
 13 14  1  0  0  0  0
 13 15  1  0  0  0  0
 16 13  1  0  0  0  0
M  RAD  2   3   2   4   2
M  END
