Coordinates from ORCA-job 4-CH3O-C6H3-N2-B3LYPG-aug-cc-pVDZ-scan-d09-49-n400
 OpenBabel11091809133D

 16 15  0  0  0  0  0  0  0  0999 V2000
   -2.0104   -0.1697    0.2100 C   0  0  0  0  0  0  0  0  0  0  0  0
   -0.6642   -0.2660   -0.2117 C   0  0  0  0  0  0  0  0  0  0  0  0
   -0.0964    0.9862   -0.2677 C   0  0  0  0  0  0  0  0  0  0  0  0
   -0.5877    2.1137   -0.0108 C   0  0  0  0  0  0  0  0  0  0  0  0
   -1.8961    2.3044    0.4082 C   0  0  0  0  0  0  0  0  0  0  0  0
   -2.6109    1.0791    0.5118 C   0  0  0  0  0  0  0  0  0  0  0  0
   -2.5866   -1.0879    0.3001 H   0  0  0  0  0  0  0  0  0  0  0  0
   -0.1896   -1.2169   -0.4468 H   0  0  0  0  0  0  0  0  0  0  0  0
   -2.3843    3.2481    0.6467 H   0  0  0  0  0  0  0  0  0  0  0  0
    2.1547    0.5171   -1.0016 N   0  0  0  0  0  0  0  0  0  0  0  0
    3.0352    1.1522   -1.2104 N   0  0  0  0  0  0  0  0  0  0  0  0
   -3.9093    1.2114    0.9222 O   0  0  0  0  0  0  0  0  0  0  0  0
   -4.7094    0.0423    1.0574 C   0  0  0  0  0  0  0  0  0  0  0  0
   -5.6916    0.3911    1.3913 H   0  0  0  0  0  0  0  0  0  0  0  0
   -4.2895   -0.6440    1.8092 H   0  0  0  0  0  0  0  0  0  0  0  0
   -4.8149   -0.4825    0.0952 H   0  0  0  0  0  0  0  0  0  0  0  0
  1  7  1  0  0  0  0
  1  6  2  0  0  0  0
  2  1  1  0  0  0  0
  3  2  2  0  0  0  0
  3  4  1  0  0  0  0
  4  5  2  0  0  0  0
  5  6  1  0  0  0  0
  5  9  1  0  0  0  0
  6 12  1  0  0  0  0
  8  2  1  0  0  0  0
 11 10  3  0  0  0  0
 12 13  1  0  0  0  0
 13 14  1  0  0  0  0
 13 15  1  0  0  0  0
 16 13  1  0  0  0  0
M  RAD  2   3   2   4   2
M  END
