Coordinates from ORCA-job 4-CH3O-C6H3-N2-B3LYPG-aug-cc-pVDZ-scan-d09-49-n400
 OpenBabel11091809133D

 16 15  0  0  0  0  0  0  0  0999 V2000
   -1.9954   -0.2018    0.2025 C   0  0  0  0  0  0  0  0  0  0  0  0
   -0.6542   -0.3153   -0.2191 C   0  0  0  0  0  0  0  0  0  0  0  0
   -0.0652    0.9252   -0.2826 C   0  0  0  0  0  0  0  0  0  0  0  0
   -0.5134    2.0818   -0.0362 C   0  0  0  0  0  0  0  0  0  0  0  0
   -1.8274    2.2658    0.3837 C   0  0  0  0  0  0  0  0  0  0  0  0
   -2.5695    1.0609    0.4975 C   0  0  0  0  0  0  0  0  0  0  0  0
   -2.5850   -1.1106    0.2975 H   0  0  0  0  0  0  0  0  0  0  0  0
   -0.1839   -1.2695   -0.4532 H   0  0  0  0  0  0  0  0  0  0  0  0
   -2.3032    3.2178    0.6192 H   0  0  0  0  0  0  0  0  0  0  0  0
    1.9265    0.6252   -0.9213 N   0  0  0  0  0  0  0  0  0  0  0  0
    2.8124    1.2557   -1.1336 N   0  0  0  0  0  0  0  0  0  0  0  0
   -3.8638    1.2205    0.9091 O   0  0  0  0  0  0  0  0  0  0  0  0
   -4.6861    0.0680    1.0525 C   0  0  0  0  0  0  0  0  0  0  0  0
   -5.6609    0.4372    1.3859 H   0  0  0  0  0  0  0  0  0  0  0  0
   -4.2784   -0.6220    1.8076 H   0  0  0  0  0  0  0  0  0  0  0  0
   -4.8035   -0.4605    0.0936 H   0  0  0  0  0  0  0  0  0  0  0  0
  1  7  1  0  0  0  0
  1  6  2  0  0  0  0
  2  1  1  0  0  0  0
  3  2  2  0  0  0  0
  3  4  1  0  0  0  0
  4  5  2  0  0  0  0
  5  6  1  0  0  0  0
  5  9  1  0  0  0  0
  6 12  1  0  0  0  0
  8  2  1  0  0  0  0
 11 10  3  0  0  0  0
 12 13  1  0  0  0  0
 13 14  1  0  0  0  0
 13 15  1  0  0  0  0
 16 13  1  0  0  0  0
M  RAD  2   3   2   4   2
M  END
