Coordinates from ORCA-job 4-CH3O-C6H3-N2-B3LYPG-aug-cc-pVDZ-scan-d09-49-n400
 OpenBabel11091809133D

 16 15  0  0  0  0  0  0  0  0999 V2000
   -2.0225    0.1621    0.2453 C   0  0  0  0  0  0  0  0  0  0  0  0
   -0.6786    0.3565   -0.1481 C   0  0  0  0  0  0  0  0  0  0  0  0
   -0.3450    1.7014   -0.1238 C   0  0  0  0  0  0  0  0  0  0  0  0
   -1.0938    2.6545    0.1953 C   0  0  0  0  0  0  0  0  0  0  0  0
   -2.4140    2.5916    0.5938 C   0  0  0  0  0  0  0  0  0  0  0  0
   -2.8675    1.2424    0.6058 C   0  0  0  0  0  0  0  0  0  0  0  0
   -2.4060   -0.8557    0.2671 H   0  0  0  0  0  0  0  0  0  0  0  0
   -0.0367   -0.4783   -0.4233 H   0  0  0  0  0  0  0  0  0  0  0  0
   -3.0765    3.4077    0.8736 H   0  0  0  0  0  0  0  0  0  0  0  0
    3.1444   -0.6642   -1.4142 N   0  0  0  0  0  0  0  0  0  0  0  0
    4.0903   -0.1498   -1.6591 N   0  0  0  0  0  0  0  0  0  0  0  0
   -4.1712    1.0880    0.9907 O   0  0  0  0  0  0  0  0  0  0  0  0
   -4.7227   -0.2238    1.0361 C   0  0  0  0  0  0  0  0  0  0  0  0
   -5.7590   -0.0986    1.3653 H   0  0  0  0  0  0  0  0  0  0  0  0
   -4.1835   -0.8583    1.7564 H   0  0  0  0  0  0  0  0  0  0  0  0
   -4.7085   -0.6969    0.0421 H   0  0  0  0  0  0  0  0  0  0  0  0
  1  7  1  0  0  0  0
  1  6  2  0  0  0  0
  2  3  2  0  0  0  0
  2  1  1  0  0  0  0
  3  4  1  0  0  0  0
  4  5  2  0  0  0  0
  5  6  1  0  0  0  0
  5  9  1  0  0  0  0
  6 12  1  0  0  0  0
  8  2  1  0  0  0  0
 11 10  3  0  0  0  0
 12 13  1  0  0  0  0
 13 14  1  0  0  0  0
 13 15  1  0  0  0  0
 16 13  1  0  0  0  0
M  RAD  2   3   2   4   2
M  END
