Coordinates from ORCA-job 4-CH3O-C6H3-N2-B3LYPG-aug-cc-pVDZ-scan-d09-49-n400
 OpenBabel11091809133D

 16 15  0  0  0  0  0  0  0  0999 V2000
   -2.0202   -0.1416    0.2158 C   0  0  0  0  0  0  0  0  0  0  0  0
   -0.6717   -0.2153   -0.2044 C   0  0  0  0  0  0  0  0  0  0  0  0
   -0.1180    1.0463   -0.2552 C   0  0  0  0  0  0  0  0  0  0  0  0
   -0.6437    2.1539    0.0103 C   0  0  0  0  0  0  0  0  0  0  0  0
   -1.9514    2.3341    0.4280 C   0  0  0  0  0  0  0  0  0  0  0  0
   -2.6437    1.0945    0.5234 C   0  0  0  0  0  0  0  0  0  0  0  0
   -2.5816   -1.0695    0.3004 H   0  0  0  0  0  0  0  0  0  0  0  0
   -0.1856   -1.1593   -0.4423 H   0  0  0  0  0  0  0  0  0  0  0  0
   -2.4533    3.2692    0.6700 H   0  0  0  0  0  0  0  0  0  0  0  0
    2.3122    0.4233   -1.0585 N   0  0  0  0  0  0  0  0  0  0  0  0
    3.2039    1.0389   -1.2737 N   0  0  0  0  0  0  0  0  0  0  0  0
   -3.9449    1.2024    0.9323 O   0  0  0  0  0  0  0  0  0  0  0  0
   -4.7250    0.0188    1.0598 C   0  0  0  0  0  0  0  0  0  0  0  0
   -5.7136    0.3490    1.3938 H   0  0  0  0  0  0  0  0  0  0  0  0
   -4.2946   -0.6640    1.8087 H   0  0  0  0  0  0  0  0  0  0  0  0
   -4.8198   -0.5025    0.0946 H   0  0  0  0  0  0  0  0  0  0  0  0
  1  7  1  0  0  0  0
  1  6  2  0  0  0  0
  2  1  1  0  0  0  0
  3  2  2  0  0  0  0
  3  4  1  0  0  0  0
  4  5  2  0  0  0  0
  5  6  1  0  0  0  0
  5  9  1  0  0  0  0
  6 12  1  0  0  0  0
  8  2  1  0  0  0  0
 11 10  3  0  0  0  0
 12 13  1  0  0  0  0
 13 14  1  0  0  0  0
 13 15  1  0  0  0  0
 16 13  1  0  0  0  0
M  RAD  2   3   2   4   2
M  END
