Coordinates from ORCA-job 4-CH3O-C6H3-N2-B3LYPG-aug-cc-pVDZ-scan-d09-49-n400
 OpenBabel11091809133D

 16 15  0  0  0  0  0  0  0  0999 V2000
   -2.0148    0.2576    0.2520 C   0  0  0  0  0  0  0  0  0  0  0  0
   -0.6823    0.5340   -0.1303 C   0  0  0  0  0  0  0  0  0  0  0  0
   -0.4237    1.8951   -0.0815 C   0  0  0  0  0  0  0  0  0  0  0  0
   -1.2280    2.7974    0.2498 C   0  0  0  0  0  0  0  0  0  0  0  0
   -2.5443    2.6546    0.6397 C   0  0  0  0  0  0  0  0  0  0  0  0
   -2.9212    1.2821    0.6261 C   0  0  0  0  0  0  0  0  0  0  0  0
   -2.3403   -0.7805    0.2541 H   0  0  0  0  0  0  0  0  0  0  0  0
    0.0061   -0.2593   -0.4158 H   0  0  0  0  0  0  0  0  0  0  0  0
   -3.2528    3.4274    0.9295 H   0  0  0  0  0  0  0  0  0  0  0  0
    3.2859   -0.9484   -1.4844 N   0  0  0  0  0  0  0  0  0  0  0  0
    4.2783   -0.5462   -1.7540 N   0  0  0  0  0  0  0  0  0  0  0  0
   -4.2159    1.0478    1.0007 O   0  0  0  0  0  0  0  0  0  0  0  0
   -4.6928   -0.2935    1.0204 C   0  0  0  0  0  0  0  0  0  0  0  0
   -5.7360   -0.2328    1.3456 H   0  0  0  0  0  0  0  0  0  0  0  0
   -4.1221   -0.9092    1.7327 H   0  0  0  0  0  0  0  0  0  0  0  0
   -4.6471   -0.7476    0.0184 H   0  0  0  0  0  0  0  0  0  0  0  0
  1  7  1  0  0  0  0
  1  6  2  0  0  0  0
  2  3  2  0  0  0  0
  2  1  1  0  0  0  0
  3  4  1  0  0  0  0
  4  5  2  0  0  0  0
  5  9  1  0  0  0  0
  6  5  1  0  0  0  0
  6 12  1  0  0  0  0
  8  2  1  0  0  0  0
 11 10  3  0  0  0  0
 12 13  1  0  0  0  0
 13 14  1  0  0  0  0
 13 15  1  0  0  0  0
 16 13  1  0  0  0  0
M  RAD  2   3   2   4   2
M  END
