Coordinates from ORCA-job 4-CH3O-C6H3-N2-B3LYPG-aug-cc-pVDZ-scan-d09-49-n400
 OpenBabel11091809133D

 16 16  0  0  0  0  0  0  0  0999 V2000
   -1.9705   -0.2326    0.1919 C   0  0  0  0  0  0  0  0  0  0  0  0
   -0.6417   -0.3208   -0.2236 C   0  0  0  0  0  0  0  0  0  0  0  0
   -0.0162    0.9145   -0.2988 C   0  0  0  0  0  0  0  0  0  0  0  0
   -0.4109    2.1607   -0.0604 C   0  0  0  0  0  0  0  0  0  0  0  0
   -1.7529    2.2209    0.3565 C   0  0  0  0  0  0  0  0  0  0  0  0
   -2.5212    1.0430    0.4810 C   0  0  0  0  0  0  0  0  0  0  0  0
   -2.5599   -1.1403    0.2870 H   0  0  0  0  0  0  0  0  0  0  0  0
   -0.1615   -1.2711   -0.4604 H   0  0  0  0  0  0  0  0  0  0  0  0
   -2.2464    3.1664    0.5969 H   0  0  0  0  0  0  0  0  0  0  0  0
    1.5565    0.8014   -0.7913 N   0  0  0  0  0  0  0  0  0  0  0  0
    2.5786    1.1435   -1.0720 N   0  0  0  0  0  0  0  0  0  0  0  0
   -3.8095    1.2180    0.8923 O   0  0  0  0  0  0  0  0  0  0  0  0
   -4.6494    0.0779    1.0422 C   0  0  0  0  0  0  0  0  0  0  0  0
   -5.6177    0.4639    1.3753 H   0  0  0  0  0  0  0  0  0  0  0  0
   -4.2516   -0.6143    1.8003 H   0  0  0  0  0  0  0  0  0  0  0  0
   -4.7769   -0.4528    0.0861 H   0  0  0  0  0  0  0  0  0  0  0  0
  1  7  1  0  0  0  0
  1  6  2  0  0  0  0
  2  1  1  0  0  0  0
  3  2  2  0  0  0  0
  3  4  1  0  0  0  0
  4  5  2  0  0  0  0
  5  6  1  0  0  0  0
  5  9  1  0  0  0  0
  6 12  1  0  0  0  0
  8  2  1  0  0  0  0
 10  3  1  0  0  0  0
 11 10  1  0  0  0  0
 12 13  1  0  0  0  0
 13 14  1  0  0  0  0
 13 15  1  0  0  0  0
 16 13  1  0  0  0  0
M  RAD  3   4   2  10   2  11   3
M  END
