Coordinates from ORCA-job 4-CH3O-C6H3-N2-B3LYPG-aug-cc-pVDZ-scan-d09-49-n400
 OpenBabel11091809133D

 16 15  0  0  0  0  0  0  0  0999 V2000
   -2.0156    0.2493    0.2515 C   0  0  0  0  0  0  0  0  0  0  0  0
   -0.6819    0.5186   -0.1318 C   0  0  0  0  0  0  0  0  0  0  0  0
   -0.4167    1.8785   -0.0852 C   0  0  0  0  0  0  0  0  0  0  0  0
   -1.2164    2.7853    0.2451 C   0  0  0  0  0  0  0  0  0  0  0  0
   -2.5332    2.6494    0.6358 C   0  0  0  0  0  0  0  0  0  0  0  0
   -2.9168    1.2788    0.6244 C   0  0  0  0  0  0  0  0  0  0  0  0
   -2.3461   -0.7872    0.2553 H   0  0  0  0  0  0  0  0  0  0  0  0
    0.0024   -0.2784   -0.4165 H   0  0  0  0  0  0  0  0  0  0  0  0
   -3.2378    3.4262    0.9248 H   0  0  0  0  0  0  0  0  0  0  0  0
    3.2750   -0.9239   -1.4787 N   0  0  0  0  0  0  0  0  0  0  0  0
    4.2640   -0.5123   -1.7464 N   0  0  0  0  0  0  0  0  0  0  0  0
   -4.2125    1.0514    1.0000 O   0  0  0  0  0  0  0  0  0  0  0  0
   -4.6959   -0.2876    1.0219 C   0  0  0  0  0  0  0  0  0  0  0  0
   -5.7387   -0.2212    1.3475 H   0  0  0  0  0  0  0  0  0  0  0  0
   -4.1279   -0.9050    1.7349 H   0  0  0  0  0  0  0  0  0  0  0  0
   -4.6529   -0.7434    0.0206 H   0  0  0  0  0  0  0  0  0  0  0  0
  1  7  1  0  0  0  0
  1  6  2  0  0  0  0
  2  3  2  0  0  0  0
  2  1  1  0  0  0  0
  3  4  1  0  0  0  0
  4  5  2  0  0  0  0
  5  9  1  0  0  0  0
  6  5  1  0  0  0  0
  6 12  1  0  0  0  0
  8  2  1  0  0  0  0
 11 10  3  0  0  0  0
 12 13  1  0  0  0  0
 13 14  1  0  0  0  0
 13 15  1  0  0  0  0
 16 13  1  0  0  0  0
M  RAD  2   3   2   4   2
M  END
