Coordinates from ORCA-job 4-CH3O-C6H3-N2-B3LYPG-aug-cc-pVDZ-scan-d09-49-n400
 OpenBabel11091809133D

 16 16  0  0  0  0  0  0  0  0999 V2000
   -1.9407   -0.2217    0.1839 C   0  0  0  0  0  0  0  0  0  0  0  0
   -0.6282   -0.2851   -0.2243 C   0  0  0  0  0  0  0  0  0  0  0  0
    0.0704    0.9520   -0.3218 C   0  0  0  0  0  0  0  0  0  0  0  0
   -0.3981    2.2718   -0.0538 C   0  0  0  0  0  0  0  0  0  0  0  0
   -1.7461    2.2332    0.3557 C   0  0  0  0  0  0  0  0  0  0  0  0
   -2.5036    1.0562    0.4769 C   0  0  0  0  0  0  0  0  0  0  0  0
   -2.5215   -1.1350    0.2758 H   0  0  0  0  0  0  0  0  0  0  0  0
   -0.1536   -1.2394   -0.4597 H   0  0  0  0  0  0  0  0  0  0  0  0
   -2.2661    3.1640    0.6027 H   0  0  0  0  0  0  0  0  0  0  0  0
    1.3688    0.8900   -0.7254 N   0  0  0  0  0  0  0  0  0  0  0  0
    2.4413    0.8859   -1.0544 N   0  0  0  0  0  0  0  0  0  0  0  0
   -3.7873    1.2064    0.8844 O   0  0  0  0  0  0  0  0  0  0  0  0
   -4.6236    0.0580    1.0324 C   0  0  0  0  0  0  0  0  0  0  0  0
   -5.5923    0.4419    1.3654 H   0  0  0  0  0  0  0  0  0  0  0  0
   -4.2225   -0.6307    1.7905 H   0  0  0  0  0  0  0  0  0  0  0  0
   -4.7481   -0.4690    0.0750 H   0  0  0  0  0  0  0  0  0  0  0  0
  1  7  1  0  0  0  0
  1  6  2  0  0  0  0
  2  1  1  0  0  0  0
  3  2  2  0  0  0  0
  3  4  1  0  0  0  0
  4  5  2  0  0  0  0
  5  6  1  0  0  0  0
  5  9  1  0  0  0  0
  6 12  1  0  0  0  0
  8  2  1  0  0  0  0
 10  3  1  0  0  0  0
 11 10  1  0  0  0  0
 12 13  1  0  0  0  0
 13 14  1  0  0  0  0
 13 15  1  0  0  0  0
 16 13  1  0  0  0  0
M  RAD  3   4   2  10   2  11   3
M  END
