Coordinates from ORCA-job 4-CH3O-C6H3-N2-B3LYPG-aug-cc-pVDZ-scan-d09-49-n400
 OpenBabel11091809133D

 16 16  0  0  0  0  0  0  0  0999 V2000
   -1.9303   -0.2181    0.1810 C   0  0  0  0  0  0  0  0  0  0  0  0
   -0.6230   -0.2767   -0.2254 C   0  0  0  0  0  0  0  0  0  0  0  0
    0.1144    0.9522   -0.3365 C   0  0  0  0  0  0  0  0  0  0  0  0
   -0.3954    2.2922   -0.0528 C   0  0  0  0  0  0  0  0  0  0  0  0
   -1.7407    2.2337    0.3541 C   0  0  0  0  0  0  0  0  0  0  0  0
   -2.4982    1.0585    0.4754 C   0  0  0  0  0  0  0  0  0  0  0  0
   -2.5074   -1.1339    0.2719 H   0  0  0  0  0  0  0  0  0  0  0  0
   -0.1506   -1.2329   -0.4601 H   0  0  0  0  0  0  0  0  0  0  0  0
   -2.2612    3.1643    0.6013 H   0  0  0  0  0  0  0  0  0  0  0  0
    1.2976    0.8850   -0.7042 N   0  0  0  0  0  0  0  0  0  0  0  0
    2.3771    0.8582   -1.0363 N   0  0  0  0  0  0  0  0  0  0  0  0
   -3.7786    1.2046    0.8817 O   0  0  0  0  0  0  0  0  0  0  0  0
   -4.6162    0.0547    1.0299 C   0  0  0  0  0  0  0  0  0  0  0  0
   -5.5841    0.4400    1.3628 H   0  0  0  0  0  0  0  0  0  0  0  0
   -4.2143   -0.6327    1.7881 H   0  0  0  0  0  0  0  0  0  0  0  0
   -4.7402   -0.4708    0.0720 H   0  0  0  0  0  0  0  0  0  0  0  0
  1  7  1  0  0  0  0
  1  6  2  0  0  0  0
  2  1  1  0  0  0  0
  3  2  2  0  0  0  0
  3  4  1  0  0  0  0
  4  5  2  0  0  0  0
  5  6  1  0  0  0  0
  5  9  1  0  0  0  0
  6 12  1  0  0  0  0
  8  2  1  0  0  0  0
 10  3  1  0  0  0  0
 11 10  1  0  0  0  0
 12 13  1  0  0  0  0
 13 14  1  0  0  0  0
 13 15  1  0  0  0  0
 16 13  1  0  0  0  0
M  RAD  3   4   2  10   2  11   3
M  END
