Coordinates from ORCA-job 4-CH3O-C6H3-N2-B3LYPG-aug-cc-pVDZ-scan-d09-49-n400
 OpenBabel11091809133D

 16 15  0  0  0  0  0  0  0  0999 V2000
   -2.0219    0.1740    0.2463 C   0  0  0  0  0  0  0  0  0  0  0  0
   -0.6792    0.3785   -0.1459 C   0  0  0  0  0  0  0  0  0  0  0  0
   -0.3544    1.7257   -0.1186 C   0  0  0  0  0  0  0  0  0  0  0  0
   -1.1107    2.6723    0.2021 C   0  0  0  0  0  0  0  0  0  0  0  0
   -2.4306    2.5998    0.5997 C   0  0  0  0  0  0  0  0  0  0  0  0
   -2.8747    1.2475    0.6085 C   0  0  0  0  0  0  0  0  0  0  0  0
   -2.3982   -0.8466    0.2656 H   0  0  0  0  0  0  0  0  0  0  0  0
   -0.0316   -0.4514   -0.4223 H   0  0  0  0  0  0  0  0  0  0  0  0
   -3.0988    3.4108    0.8807 H   0  0  0  0  0  0  0  0  0  0  0  0
    3.1648   -0.6998   -1.4239 N   0  0  0  0  0  0  0  0  0  0  0  0
    4.1174   -0.1996   -1.6720 N   0  0  0  0  0  0  0  0  0  0  0  0
   -4.1775    1.0832    0.9922 O   0  0  0  0  0  0  0  0  0  0  0  0
   -4.7199   -0.2325    1.0344 C   0  0  0  0  0  0  0  0  0  0  0  0
   -5.7572   -0.1153    1.3632 H   0  0  0  0  0  0  0  0  0  0  0  0
   -4.1767   -0.8648    1.7537 H   0  0  0  0  0  0  0  0  0  0  0  0
   -4.7017   -0.7034    0.0394 H   0  0  0  0  0  0  0  0  0  0  0  0
  1  7  1  0  0  0  0
  1  6  2  0  0  0  0
  2  3  2  0  0  0  0
  2  1  1  0  0  0  0
  3  4  1  0  0  0  0
  4  5  2  0  0  0  0
  5  6  1  0  0  0  0
  5  9  1  0  0  0  0
  6 12  1  0  0  0  0
  8  2  1  0  0  0  0
 11 10  3  0  0  0  0
 12 13  1  0  0  0  0
 13 14  1  0  0  0  0
 13 15  1  0  0  0  0
 16 13  1  0  0  0  0
M  RAD  2   3   2   4   2
M  END
