Coordinates from ORCA-job 4-CH3O-C6H3-N2-B3LYPG-aug-cc-pVDZ-scan-d09-49-n400
 OpenBabel11091809133D

 16 15  0  0  0  0  0  0  0  0999 V2000
   -2.0325    0.0852    0.2407 C   0  0  0  0  0  0  0  0  0  0  0  0
   -0.6829    0.2120   -0.1612 C   0  0  0  0  0  0  0  0  0  0  0  0
   -0.2907    1.5403   -0.1563 C   0  0  0  0  0  0  0  0  0  0  0  0
   -0.9894    2.5343    0.1516 C   0  0  0  0  0  0  0  0  0  0  0  0
   -2.3096    2.5353    0.5565 C   0  0  0  0  0  0  0  0  0  0  0  0
   -2.8247    1.2087    0.5895 C   0  0  0  0  0  0  0  0  0  0  0  0
   -2.4627   -0.9133    0.2786 H   0  0  0  0  0  0  0  0  0  0  0  0
   -0.0782   -0.6526   -0.4280 H   0  0  0  0  0  0  0  0  0  0  0  0
   -2.9334    3.3844    0.8277 H   0  0  0  0  0  0  0  0  0  0  0  0
    3.0437   -0.4322   -1.3634 N   0  0  0  0  0  0  0  0  0  0  0  0
    3.9432    0.1703   -1.5803 N   0  0  0  0  0  0  0  0  0  0  0  0
   -4.1322    1.1201    0.9820 O   0  0  0  0  0  0  0  0  0  0  0  0
   -4.7435   -0.1639    1.0486 C   0  0  0  0  0  0  0  0  0  0  0  0
   -5.7712    0.0136    1.3805 H   0  0  0  0  0  0  0  0  0  0  0  0
   -4.2306   -0.8126    1.7754 H   0  0  0  0  0  0  0  0  0  0  0  0
   -4.7562   -0.6511    0.0613 H   0  0  0  0  0  0  0  0  0  0  0  0
  1  7  1  0  0  0  0
  1  6  2  0  0  0  0
  2  3  2  0  0  0  0
  2  1  1  0  0  0  0
  3  4  1  0  0  0  0
  4  5  2  0  0  0  0
  5  6  1  0  0  0  0
  5  9  1  0  0  0  0
  6 12  1  0  0  0  0
  8  2  1  0  0  0  0
 11 10  3  0  0  0  0
 12 13  1  0  0  0  0
 13 14  1  0  0  0  0
 13 15  1  0  0  0  0
 16 13  1  0  0  0  0
M  RAD  2   3   2   4   2
M  END
