Coordinates from ORCA-job 4-CH3O-C6H3-N2-B3LYPG-aug-cc-pVDZ-scan-d09-49-n400
 OpenBabel11091809133D

 16 15  0  0  0  0  0  0  0  0999 V2000
   -2.0380   -0.0198    0.2326 C   0  0  0  0  0  0  0  0  0  0  0  0
   -0.6862    0.0149   -0.1785 C   0  0  0  0  0  0  0  0  0  0  0  0
   -0.2068    1.3143   -0.2030 C   0  0  0  0  0  0  0  0  0  0  0  0
   -0.8421    2.3544    0.0898 C   0  0  0  0  0  0  0  0  0  0  0  0
   -2.1564    2.4487    0.5016 C   0  0  0  0  0  0  0  0  0  0  0  0
   -2.7547    1.1584    0.5633 C   0  0  0  0  0  0  0  0  0  0  0  0
   -2.5300   -0.9882    0.2921 H   0  0  0  0  0  0  0  0  0  0  0  0
   -0.1348   -0.8882   -0.4327 H   0  0  0  0  0  0  0  0  0  0  0  0
   -2.7228    3.3410    0.7593 H   0  0  0  0  0  0  0  0  0  0  0  0
    2.8328   -0.0979   -1.2674 N   0  0  0  0  0  0  0  0  0  0  0  0
    3.6532    0.6183   -1.4500 N   0  0  0  0  0  0  0  0  0  0  0  0
   -4.0625    1.1614    0.9645 O   0  0  0  0  0  0  0  0  0  0  0  0
   -4.7540   -0.0795    1.0596 C   0  0  0  0  0  0  0  0  0  0  0  0
   -5.7661    0.1697    1.3933 H   0  0  0  0  0  0  0  0  0  0  0  0
   -4.2786   -0.7453    1.7964 H   0  0  0  0  0  0  0  0  0  0  0  0
   -4.8041   -0.5838    0.0822 H   0  0  0  0  0  0  0  0  0  0  0  0
  1  7  1  0  0  0  0
  1  6  2  0  0  0  0
  2  1  1  0  0  0  0
  3  2  2  0  0  0  0
  3  4  1  0  0  0  0
  4  5  2  0  0  0  0
  5  6  1  0  0  0  0
  5  9  1  0  0  0  0
  6 12  1  0  0  0  0
  8  2  1  0  0  0  0
 11 10  3  0  0  0  0
 12 13  1  0  0  0  0
 13 14  1  0  0  0  0
 13 15  1  0  0  0  0
 16 13  1  0  0  0  0
M  RAD  2   3   2   4   2
M  END
