Coordinates from ORCA-job 4-CH3O-C6H3-N2-B3LYPG-aug-cc-pVDZ-scan-d09-49-n400
 OpenBabel11091809133D

 16 15  0  0  0  0  0  0  0  0999 V2000
   -2.0285   -0.1113    0.2213 C   0  0  0  0  0  0  0  0  0  0  0  0
   -0.6790   -0.1579   -0.1966 C   0  0  0  0  0  0  0  0  0  0  0  0
   -0.1361    1.1127   -0.2432 C   0  0  0  0  0  0  0  0  0  0  0  0
   -0.7000    2.1980    0.0319 C   0  0  0  0  0  0  0  0  0  0  0  0
   -2.0076    2.3642    0.4481 C   0  0  0  0  0  0  0  0  0  0  0  0
   -2.6764    1.1108    0.5350 C   0  0  0  0  0  0  0  0  0  0  0  0
   -2.5729   -1.0498    0.2997 H   0  0  0  0  0  0  0  0  0  0  0  0
   -0.1758   -1.0918   -0.4387 H   0  0  0  0  0  0  0  0  0  0  0  0
   -2.5241    3.2899    0.6936 H   0  0  0  0  0  0  0  0  0  0  0  0
    2.4684    0.3006   -1.1177 N   0  0  0  0  0  0  0  0  0  0  0  0
    3.3510    0.9300   -1.3297 N   0  0  0  0  0  0  0  0  0  0  0  0
   -3.9799    1.1927    0.9420 O   0  0  0  0  0  0  0  0  0  0  0  0
   -4.7383   -0.0060    1.0614 C   0  0  0  0  0  0  0  0  0  0  0  0
   -5.7333    0.3042    1.3955 H   0  0  0  0  0  0  0  0  0  0  0  0
   -4.2965   -0.6848    1.8073 H   0  0  0  0  0  0  0  0  0  0  0  0
   -4.8217   -0.5233    0.0931 H   0  0  0  0  0  0  0  0  0  0  0  0
  1  7  1  0  0  0  0
  1  6  2  0  0  0  0
  2  1  1  0  0  0  0
  3  2  2  0  0  0  0
  3  4  1  0  0  0  0
  4  5  2  0  0  0  0
  5  6  1  0  0  0  0
  5  9  1  0  0  0  0
  6 12  1  0  0  0  0
  8  2  1  0  0  0  0
 11 10  3  0  0  0  0
 12 13  1  0  0  0  0
 13 14  1  0  0  0  0
 13 15  1  0  0  0  0
 16 13  1  0  0  0  0
M  RAD  2   3   2   4   2
M  END
