Coordinates from ORCA-job 4-CH3O-C6H3-N2-B3LYPG-aug-cc-pVDZ-scan-d09-49-n400
 OpenBabel11091809133D

 16 15  0  0  0  0  0  0  0  0999 V2000
   -2.0224   -0.1333    0.2173 C   0  0  0  0  0  0  0  0  0  0  0  0
   -0.6734   -0.1999   -0.2023 C   0  0  0  0  0  0  0  0  0  0  0  0
   -0.1242    1.0644   -0.2515 C   0  0  0  0  0  0  0  0  0  0  0  0
   -0.6590    2.1667    0.0163 C   0  0  0  0  0  0  0  0  0  0  0  0
   -1.9669    2.3426    0.4336 C   0  0  0  0  0  0  0  0  0  0  0  0
   -2.6527    1.0990    0.5266 C   0  0  0  0  0  0  0  0  0  0  0  0
   -2.5793   -1.0641    0.3003 H   0  0  0  0  0  0  0  0  0  0  0  0
   -0.1836   -1.1417   -0.4412 H   0  0  0  0  0  0  0  0  0  0  0  0
   -2.4730    3.2750    0.6766 H   0  0  0  0  0  0  0  0  0  0  0  0
    2.3531    0.3953   -1.0736 N   0  0  0  0  0  0  0  0  0  0  0  0
    3.2484    1.0046   -1.2908 N   0  0  0  0  0  0  0  0  0  0  0  0
   -3.9546    1.1996    0.9350 O   0  0  0  0  0  0  0  0  0  0  0  0
   -4.7288    0.0118    1.0602 C   0  0  0  0  0  0  0  0  0  0  0  0
   -5.7191    0.3365    1.3943 H   0  0  0  0  0  0  0  0  0  0  0  0
   -4.2952   -0.6699    1.8083 H   0  0  0  0  0  0  0  0  0  0  0  0
   -4.8203   -0.5083    0.0941 H   0  0  0  0  0  0  0  0  0  0  0  0
  1  7  1  0  0  0  0
  1  6  2  0  0  0  0
  2  1  1  0  0  0  0
  3  2  2  0  0  0  0
  3  4  1  0  0  0  0
  4  5  2  0  0  0  0
  5  6  1  0  0  0  0
  5  9  1  0  0  0  0
  6 12  1  0  0  0  0
  8  2  1  0  0  0  0
 11 10  3  0  0  0  0
 12 13  1  0  0  0  0
 13 14  1  0  0  0  0
 13 15  1  0  0  0  0
 16 13  1  0  0  0  0
M  RAD  2   3   2   4   2
M  END
