Coordinates from ORCA-job 4-CH3O-C6H3-N2-B3LYPG-aug-cc-pVDZ-scan-d09-49-n400
 OpenBabel11091809133D

 16 15  0  0  0  0  0  0  0  0999 V2000
   -2.0366    0.0101    0.2349 C   0  0  0  0  0  0  0  0  0  0  0  0
   -0.6844    0.0697   -0.1741 C   0  0  0  0  0  0  0  0  0  0  0  0
   -0.2313    1.3783   -0.1896 C   0  0  0  0  0  0  0  0  0  0  0  0
   -0.8833    2.4067    0.1072 C   0  0  0  0  0  0  0  0  0  0  0  0
   -2.2000    2.4745    0.5173 C   0  0  0  0  0  0  0  0  0  0  0  0
   -2.7750    1.1733    0.5709 C   0  0  0  0  0  0  0  0  0  0  0  0
   -2.5117   -0.9671    0.2884 H   0  0  0  0  0  0  0  0  0  0  0  0
   -0.1204   -0.8246   -0.4313 H   0  0  0  0  0  0  0  0  0  0  0  0
   -2.7829    3.3550    0.7790 H   0  0  0  0  0  0  0  0  0  0  0  0
    2.9004   -0.1979   -1.2977 N   0  0  0  0  0  0  0  0  0  0  0  0
    3.7377    0.4966   -1.4867 N   0  0  0  0  0  0  0  0  0  0  0  0
   -4.0833    1.1501    0.9699 O   0  0  0  0  0  0  0  0  0  0  0  0
   -4.7524   -0.1035    1.0569 C   0  0  0  0  0  0  0  0  0  0  0  0
   -5.7694    0.1255    1.3903 H   0  0  0  0  0  0  0  0  0  0  0  0
   -4.2663   -0.7648    1.7909 H   0  0  0  0  0  0  0  0  0  0  0  0
   -4.7919   -0.6033    0.0767 H   0  0  0  0  0  0  0  0  0  0  0  0
  1  7  1  0  0  0  0
  1  6  2  0  0  0  0
  2  1  1  0  0  0  0
  3  2  2  0  0  0  0
  3  4  1  0  0  0  0
  4  5  2  0  0  0  0
  5  6  1  0  0  0  0
  5  9  1  0  0  0  0
  6 12  1  0  0  0  0
  8  2  1  0  0  0  0
 11 10  3  0  0  0  0
 12 13  1  0  0  0  0
 13 14  1  0  0  0  0
 13 15  1  0  0  0  0
 16 13  1  0  0  0  0
M  RAD  2   3   2   4   2
M  END
