Coordinates from ORCA-job 4-CH3O-C6H3-N2-B3LYPG-aug-cc-pVDZ-scan-d09-49-n400
 OpenBabel11091809133D

 16 15  0  0  0  0  0  0  0  0999 V2000
   -2.0076   -0.1771    0.2084 C   0  0  0  0  0  0  0  0  0  0  0  0
   -0.6622   -0.2789   -0.2136 C   0  0  0  0  0  0  0  0  0  0  0  0
   -0.0901    0.9707   -0.2711 C   0  0  0  0  0  0  0  0  0  0  0  0
   -0.5725    2.1036   -0.0165 C   0  0  0  0  0  0  0  0  0  0  0  0
   -1.8812    2.2962    0.4028 C   0  0  0  0  0  0  0  0  0  0  0  0
   -2.6020    1.0750    0.5087 C   0  0  0  0  0  0  0  0  0  0  0  0
   -2.5875   -1.0928    0.2999 H   0  0  0  0  0  0  0  0  0  0  0  0
   -0.1902   -1.2313   -0.4480 H   0  0  0  0  0  0  0  0  0  0  0  0
   -2.3658    3.2421    0.6405 H   0  0  0  0  0  0  0  0  0  0  0  0
    2.1108    0.5411   -0.9859 N   0  0  0  0  0  0  0  0  0  0  0  0
    2.9882    1.1816   -1.1930 N   0  0  0  0  0  0  0  0  0  0  0  0
   -3.8995    1.2137    0.9194 O   0  0  0  0  0  0  0  0  0  0  0  0
   -4.7049    0.0484    1.0566 C   0  0  0  0  0  0  0  0  0  0  0  0
   -5.6854    0.4021    1.3905 H   0  0  0  0  0  0  0  0  0  0  0  0
   -4.2878   -0.6387    1.8092 H   0  0  0  0  0  0  0  0  0  0  0  0
   -4.8133   -0.4773    0.0952 H   0  0  0  0  0  0  0  0  0  0  0  0
  1  7  1  0  0  0  0
  1  6  2  0  0  0  0
  2  1  1  0  0  0  0
  3  2  2  0  0  0  0
  3  4  1  0  0  0  0
  4  5  2  0  0  0  0
  5  6  1  0  0  0  0
  5  9  1  0  0  0  0
  6 12  1  0  0  0  0
  8  2  1  0  0  0  0
 11 10  3  0  0  0  0
 12 13  1  0  0  0  0
 13 14  1  0  0  0  0
 13 15  1  0  0  0  0
 16 13  1  0  0  0  0
M  RAD  2   3   2   4   2
M  END
