Coordinates from ORCA-job 4-CH3O-C6H3-N2-B3LYPG-aug-cc-pVDZ-scan-d09-49-n400
 OpenBabel11091809133D

 16 16  0  0  0  0  0  0  0  0999 V2000
   -1.9840   -0.2166    0.1978 C   0  0  0  0  0  0  0  0  0  0  0  0
   -0.6464   -0.3263   -0.2223 C   0  0  0  0  0  0  0  0  0  0  0  0
   -0.0458    0.9091   -0.2898 C   0  0  0  0  0  0  0  0  0  0  0  0
   -0.4667    2.0932   -0.0492 C   0  0  0  0  0  0  0  0  0  0  0  0
   -1.7902    2.2441    0.3704 C   0  0  0  0  0  0  0  0  0  0  0  0
   -2.5461    1.0517    0.4895 C   0  0  0  0  0  0  0  0  0  0  0  0
   -2.5759   -1.1234    0.2936 H   0  0  0  0  0  0  0  0  0  0  0  0
   -0.1729   -1.2796   -0.4572 H   0  0  0  0  0  0  0  0  0  0  0  0
   -2.2670    3.1968    0.6063 H   0  0  0  0  0  0  0  0  0  0  0  0
    1.7642    0.6857   -0.8657 N   0  0  0  0  0  0  0  0  0  0  0  0
    2.6882    1.2571   -1.0965 N   0  0  0  0  0  0  0  0  0  0  0  0
   -3.8381    1.2223    0.9014 O   0  0  0  0  0  0  0  0  0  0  0  0
   -4.6697    0.0769    1.0481 C   0  0  0  0  0  0  0  0  0  0  0  0
   -5.6413    0.4548    1.3812 H   0  0  0  0  0  0  0  0  0  0  0  0
   -4.2673   -0.6146    1.8047 H   0  0  0  0  0  0  0  0  0  0  0  0
   -4.7922   -0.4530    0.0907 H   0  0  0  0  0  0  0  0  0  0  0  0
  1  7  1  0  0  0  0
  1  6  2  0  0  0  0
  2  1  1  0  0  0  0
  3  2  2  0  0  0  0
  3  4  1  0  0  0  0
  4  5  2  0  0  0  0
  5  6  1  0  0  0  0
  5  9  1  0  0  0  0
  6 12  1  0  0  0  0
  8  2  1  0  0  0  0
 10  3  1  0  0  0  0
 11 10  2  0  0  0  0
 12 13  1  0  0  0  0
 13 14  1  0  0  0  0
 13 15  1  0  0  0  0
 16 13  1  0  0  0  0
M  RAD  2   4   2  11   2
M  END
