Coordinates from ORCA-job 4-CH3O-C6H3-N2-B3LYPG-aug-cc-pVDZ-scan-d09-49-n400
 OpenBabel11091809133D

 16 16  0  0  0  0  0  0  0  0999 V2000
   -1.9682   -0.2324    0.1913 C   0  0  0  0  0  0  0  0  0  0  0  0
   -0.6414   -0.3151   -0.2230 C   0  0  0  0  0  0  0  0  0  0  0  0
   -0.0109    0.9220   -0.2996 C   0  0  0  0  0  0  0  0  0  0  0  0
   -0.4070    2.1815   -0.0595 C   0  0  0  0  0  0  0  0  0  0  0  0
   -1.7520    2.2210    0.3563 C   0  0  0  0  0  0  0  0  0  0  0  0
   -2.5195    1.0437    0.4806 C   0  0  0  0  0  0  0  0  0  0  0  0
   -2.5559   -1.1412    0.2858 H   0  0  0  0  0  0  0  0  0  0  0  0
   -0.1601   -1.2648   -0.4601 H   0  0  0  0  0  0  0  0  0  0  0  0
   -2.2511    3.1635    0.5981 H   0  0  0  0  0  0  0  0  0  0  0  0
    1.5343    0.8246   -0.7823 N   0  0  0  0  0  0  0  0  0  0  0  0
    2.5738    1.0965   -1.0753 N   0  0  0  0  0  0  0  0  0  0  0  0
   -3.8074    1.2159    0.8915 O   0  0  0  0  0  0  0  0  0  0  0  0
   -4.6469    0.0749    1.0411 C   0  0  0  0  0  0  0  0  0  0  0  0
   -5.6153    0.4606    1.3741 H   0  0  0  0  0  0  0  0  0  0  0  0
   -4.2490   -0.6170    1.7992 H   0  0  0  0  0  0  0  0  0  0  0  0
   -4.7741   -0.4554    0.0849 H   0  0  0  0  0  0  0  0  0  0  0  0
  1  7  1  0  0  0  0
  1  6  2  0  0  0  0
  2  1  1  0  0  0  0
  3  2  2  0  0  0  0
  3  4  1  0  0  0  0
  4  5  2  0  0  0  0
  5  6  1  0  0  0  0
  5  9  1  0  0  0  0
  6 12  1  0  0  0  0
  8  2  1  0  0  0  0
 10  3  1  0  0  0  0
 11 10  1  0  0  0  0
 12 13  1  0  0  0  0
 13 14  1  0  0  0  0
 13 15  1  0  0  0  0
 16 13  1  0  0  0  0
M  RAD  3   4   2  10   2  11   3
M  END
