Coordinates from ORCA-job 4-CH3O-C6H3-N2-B3LYPG-aug-cc-pVDZ-scan-d09-49-n400
 OpenBabel11091809133D

 16 15  0  0  0  0  0  0  0  0999 V2000
   -2.0118   -0.1661    0.2108 C   0  0  0  0  0  0  0  0  0  0  0  0
   -0.6653   -0.2596   -0.2107 C   0  0  0  0  0  0  0  0  0  0  0  0
   -0.0994    0.9939   -0.2660 C   0  0  0  0  0  0  0  0  0  0  0  0
   -0.5953    2.1187   -0.0080 C   0  0  0  0  0  0  0  0  0  0  0  0
   -1.9035    2.3084    0.4108 C   0  0  0  0  0  0  0  0  0  0  0  0
   -2.6154    1.0812    0.5134 C   0  0  0  0  0  0  0  0  0  0  0  0
   -2.5862   -1.0855    0.3002 H   0  0  0  0  0  0  0  0  0  0  0  0
   -0.1893   -1.2096   -0.4462 H   0  0  0  0  0  0  0  0  0  0  0  0
   -2.3934    3.2510    0.6498 H   0  0  0  0  0  0  0  0  0  0  0  0
    2.1767    0.5050   -1.0095 N   0  0  0  0  0  0  0  0  0  0  0  0
    3.0586    1.1376   -1.2190 N   0  0  0  0  0  0  0  0  0  0  0  0
   -3.9141    1.2102    0.9236 O   0  0  0  0  0  0  0  0  0  0  0  0
   -4.7117    0.0392    1.0578 C   0  0  0  0  0  0  0  0  0  0  0  0
   -5.6947    0.3856    1.3917 H   0  0  0  0  0  0  0  0  0  0  0  0
   -4.2904   -0.6466    1.8092 H   0  0  0  0  0  0  0  0  0  0  0  0
   -4.8158   -0.4852    0.0952 H   0  0  0  0  0  0  0  0  0  0  0  0
  1  7  1  0  0  0  0
  1  6  2  0  0  0  0
  2  1  1  0  0  0  0
  3  2  2  0  0  0  0
  3  4  1  0  0  0  0
  4  5  2  0  0  0  0
  5  6  1  0  0  0  0
  5  9  1  0  0  0  0
  6 12  1  0  0  0  0
  8  2  1  0  0  0  0
 11 10  3  0  0  0  0
 12 13  1  0  0  0  0
 13 14  1  0  0  0  0
 13 15  1  0  0  0  0
 16 13  1  0  0  0  0
M  RAD  2   3   2   4   2
M  END
