Coordinates from ORCA-job 4-CH3O-C6H3-N2-B3LYPG-aug-cc-pVDZ-scan-d09-49-n400
 OpenBabel11091809133D

 16 15  0  0  0  0  0  0  0  0999 V2000
   -2.0294    0.1128    0.2427 C   0  0  0  0  0  0  0  0  0  0  0  0
   -0.6814    0.2640   -0.1562 C   0  0  0  0  0  0  0  0  0  0  0  0
   -0.3113    1.5988   -0.1440 C   0  0  0  0  0  0  0  0  0  0  0  0
   -1.0272    2.5792    0.1676 C   0  0  0  0  0  0  0  0  0  0  0  0
   -2.3479    2.5563    0.5702 C   0  0  0  0  0  0  0  0  0  0  0  0
   -2.8408    1.2211    0.5956 C   0  0  0  0  0  0  0  0  0  0  0  0
   -2.4429   -0.8929    0.2747 H   0  0  0  0  0  0  0  0  0  0  0  0
   -0.0622   -0.5892   -0.4263 H   0  0  0  0  0  0  0  0  0  0  0  0
   -2.9862    3.3934    0.8446 H   0  0  0  0  0  0  0  0  0  0  0  0
    3.0844   -0.5170   -1.3826 N   0  0  0  0  0  0  0  0  0  0  0  0
    4.0015    0.0535   -1.6116 N   0  0  0  0  0  0  0  0  0  0  0  0
   -4.1473    1.1086    0.9854 O   0  0  0  0  0  0  0  0  0  0  0  0
   -4.7372   -0.1857    1.0443 C   0  0  0  0  0  0  0  0  0  0  0  0
   -5.7683   -0.0271    1.3752 H   0  0  0  0  0  0  0  0  0  0  0  0
   -4.2148   -0.8295    1.7687 H   0  0  0  0  0  0  0  0  0  0  0  0
   -4.7401   -0.6680    0.0545 H   0  0  0  0  0  0  0  0  0  0  0  0
  1  7  1  0  0  0  0
  1  6  2  0  0  0  0
  2  3  2  0  0  0  0
  2  1  1  0  0  0  0
  3  4  1  0  0  0  0
  4  5  2  0  0  0  0
  5  6  1  0  0  0  0
  5  9  1  0  0  0  0
  6 12  1  0  0  0  0
  8  2  1  0  0  0  0
 11 10  3  0  0  0  0
 12 13  1  0  0  0  0
 13 14  1  0  0  0  0
 13 15  1  0  0  0  0
 16 13  1  0  0  0  0
M  RAD  2   3   2   4   2
M  END
