Coordinates from ORCA-job 4-CH3O-C6H3-N2-B3LYPG-aug-cc-pVDZ-scan-d09-49-n400
 OpenBabel11091809133D

 16 15  0  0  0  0  0  0  0  0999 V2000
   -2.0349   -0.0727    0.2267 C   0  0  0  0  0  0  0  0  0  0  0  0
   -0.6839   -0.0850   -0.1884 C   0  0  0  0  0  0  0  0  0  0  0  0
   -0.1652    1.1980   -0.2264 C   0  0  0  0  0  0  0  0  0  0  0  0
   -0.7630    2.2626    0.0571 C   0  0  0  0  0  0  0  0  0  0  0  0
   -2.0731    2.4009    0.4716 C   0  0  0  0  0  0  0  0  0  0  0  0
   -2.7123    1.1313    0.5478 C   0  0  0  0  0  0  0  0  0  0  0  0
   -2.5573   -1.0242    0.2971 H   0  0  0  0  0  0  0  0  0  0  0  0
   -0.1611   -1.0067   -0.4355 H   0  0  0  0  0  0  0  0  0  0  0  0
   -2.6103    3.3132    0.7222 H   0  0  0  0  0  0  0  0  0  0  0  0
    2.6434    0.1278   -1.1879 N   0  0  0  0  0  0  0  0  0  0  0  0
    3.4951    0.8024   -1.3851 N   0  0  0  0  0  0  0  0  0  0  0  0
   -4.0181    1.1800    0.9526 O   0  0  0  0  0  0  0  0  0  0  0  0
   -4.7486   -0.0370    1.0618 C   0  0  0  0  0  0  0  0  0  0  0  0
   -5.7512    0.2476    1.3958 H   0  0  0  0  0  0  0  0  0  0  0  0
   -4.2925   -0.7106    1.8038 H   0  0  0  0  0  0  0  0  0  0  0  0
   -4.8178   -0.5491    0.0896 H   0  0  0  0  0  0  0  0  0  0  0  0
  1  7  1  0  0  0  0
  1  6  2  0  0  0  0
  2  1  1  0  0  0  0
  3  2  2  0  0  0  0
  3  4  1  0  0  0  0
  4  5  2  0  0  0  0
  5  6  1  0  0  0  0
  5  9  1  0  0  0  0
  6 12  1  0  0  0  0
  8  2  1  0  0  0  0
 11 10  3  0  0  0  0
 12 13  1  0  0  0  0
 13 14  1  0  0  0  0
 13 15  1  0  0  0  0
 16 13  1  0  0  0  0
M  RAD  2   3   2   4   2
M  END
