Coordinates from ORCA-job 4-CH3O-C6H3-N2-B3LYPG-aug-cc-pVDZ-scan-d09-49-n400
 OpenBabel11091809133D

 16 15  0  0  0  0  0  0  0  0999 V2000
   -2.0347   -0.0741    0.2266 C   0  0  0  0  0  0  0  0  0  0  0  0
   -0.6837   -0.0876   -0.1887 C   0  0  0  0  0  0  0  0  0  0  0  0
   -0.1642    1.1949   -0.2270 C   0  0  0  0  0  0  0  0  0  0  0  0
   -0.7608    2.2602    0.0563 C   0  0  0  0  0  0  0  0  0  0  0  0
   -2.0708    2.3997    0.4708 C   0  0  0  0  0  0  0  0  0  0  0  0
   -2.7111    1.1305    0.5474 C   0  0  0  0  0  0  0  0  0  0  0  0
   -2.5579   -1.0252    0.2972 H   0  0  0  0  0  0  0  0  0  0  0  0
   -0.1617   -1.0098   -0.4356 H   0  0  0  0  0  0  0  0  0  0  0  0
   -2.6073    3.3124    0.7212 H   0  0  0  0  0  0  0  0  0  0  0  0
    2.6376    0.1338   -1.1855 N   0  0  0  0  0  0  0  0  0  0  0  0
    3.4902    0.8072   -1.3832 N   0  0  0  0  0  0  0  0  0  0  0  0
   -4.0168    1.1805    0.9522 O   0  0  0  0  0  0  0  0  0  0  0  0
   -4.7483   -0.0359    1.0618 C   0  0  0  0  0  0  0  0  0  0  0  0
   -5.7507    0.2496    1.3959 H   0  0  0  0  0  0  0  0  0  0  0  0
   -4.2927   -0.7096    1.8039 H   0  0  0  0  0  0  0  0  0  0  0  0
   -4.8181   -0.5482    0.0897 H   0  0  0  0  0  0  0  0  0  0  0  0
  1  7  1  0  0  0  0
  1  6  2  0  0  0  0
  2  1  1  0  0  0  0
  3  2  2  0  0  0  0
  3  4  1  0  0  0  0
  4  5  2  0  0  0  0
  5  6  1  0  0  0  0
  5  9  1  0  0  0  0
  6 12  1  0  0  0  0
  8  2  1  0  0  0  0
 11 10  3  0  0  0  0
 12 13  1  0  0  0  0
 13 14  1  0  0  0  0
 13 15  1  0  0  0  0
 16 13  1  0  0  0  0
M  RAD  2   3   2   4   2
M  END
