Coordinates from ORCA-job 4-CH3O-C6H3-N2-B3LYPG-aug-cc-pVDZ-scan-d09-49-n400
 OpenBabel11091809133D

 16 15  0  0  0  0  0  0  0  0999 V2000
   -2.0173   -0.1509    0.2140 C   0  0  0  0  0  0  0  0  0  0  0  0
   -0.6695   -0.2323   -0.2068 C   0  0  0  0  0  0  0  0  0  0  0  0
   -0.1111    1.0262   -0.2593 C   0  0  0  0  0  0  0  0  0  0  0  0
   -0.6259    2.1401    0.0035 C   0  0  0  0  0  0  0  0  0  0  0  0
   -1.9336    2.3245    0.4216 C   0  0  0  0  0  0  0  0  0  0  0  0
   -2.6333    1.0895    0.5197 C   0  0  0  0  0  0  0  0  0  0  0  0
   -2.5838   -1.0756    0.3005 H   0  0  0  0  0  0  0  0  0  0  0  0
   -0.1874   -1.1787   -0.4437 H   0  0  0  0  0  0  0  0  0  0  0  0
   -2.4308    3.2626    0.6624 H   0  0  0  0  0  0  0  0  0  0  0  0
    2.2633    0.4547   -1.0406 N   0  0  0  0  0  0  0  0  0  0  0  0
    3.1511    1.0769   -1.2536 N   0  0  0  0  0  0  0  0  0  0  0  0
   -3.9336    1.2054    0.9291 O   0  0  0  0  0  0  0  0  0  0  0  0
   -4.7204    0.0266    1.0591 C   0  0  0  0  0  0  0  0  0  0  0  0
   -5.7069    0.3629    1.3932 H   0  0  0  0  0  0  0  0  0  0  0  0
   -4.2934   -0.6574    1.8090 H   0  0  0  0  0  0  0  0  0  0  0  0
   -4.8187   -0.4959    0.0949 H   0  0  0  0  0  0  0  0  0  0  0  0
  1  7  1  0  0  0  0
  1  6  2  0  0  0  0
  2  1  1  0  0  0  0
  3  2  2  0  0  0  0
  3  4  1  0  0  0  0
  4  5  2  0  0  0  0
  5  6  1  0  0  0  0
  5  9  1  0  0  0  0
  6 12  1  0  0  0  0
  8  2  1  0  0  0  0
 11 10  3  0  0  0  0
 12 13  1  0  0  0  0
 13 14  1  0  0  0  0
 13 15  1  0  0  0  0
 16 13  1  0  0  0  0
M  RAD  2   3   2   4   2
M  END
