Coordinates from ORCA-job 4-CH3O-C6H3-N2-B3LYPG-aug-cc-pVDZ-scan-d09-49-n400
 OpenBabel11091809133D

 16 15  0  0  0  0  0  0  0  0999 V2000
   -1.9942   -0.2033    0.2020 C   0  0  0  0  0  0  0  0  0  0  0  0
   -0.6532   -0.3169   -0.2195 C   0  0  0  0  0  0  0  0  0  0  0  0
   -0.0635    0.9231   -0.2833 C   0  0  0  0  0  0  0  0  0  0  0  0
   -0.5087    2.0821   -0.0375 C   0  0  0  0  0  0  0  0  0  0  0  0
   -1.8235    2.2637    0.3823 C   0  0  0  0  0  0  0  0  0  0  0  0
   -2.5670    1.0600    0.4966 C   0  0  0  0  0  0  0  0  0  0  0  0
   -2.5842   -1.1118    0.2971 H   0  0  0  0  0  0  0  0  0  0  0  0
   -0.1828   -1.2711   -0.4536 H   0  0  0  0  0  0  0  0  0  0  0  0
   -2.2991    3.2159    0.6178 H   0  0  0  0  0  0  0  0  0  0  0  0
    1.9102    0.6310   -0.9157 N   0  0  0  0  0  0  0  0  0  0  0  0
    2.7988    1.2575   -1.1296 N   0  0  0  0  0  0  0  0  0  0  0  0
   -3.8611    1.2208    0.9083 O   0  0  0  0  0  0  0  0  0  0  0  0
   -4.6844    0.0691    1.0520 C   0  0  0  0  0  0  0  0  0  0  0  0
   -5.6589    0.4392    1.3854 H   0  0  0  0  0  0  0  0  0  0  0  0
   -4.2772   -0.6211    1.8073 H   0  0  0  0  0  0  0  0  0  0  0  0
   -4.8023   -0.4596    0.0933 H   0  0  0  0  0  0  0  0  0  0  0  0
  1  7  1  0  0  0  0
  1  6  2  0  0  0  0
  2  1  1  0  0  0  0
  3  2  2  0  0  0  0
  3  4  1  0  0  0  0
  4  5  2  0  0  0  0
  5  6  1  0  0  0  0
  5  9  1  0  0  0  0
  6 12  1  0  0  0  0
  8  2  1  0  0  0  0
 11 10  3  0  0  0  0
 12 13  1  0  0  0  0
 13 14  1  0  0  0  0
 13 15  1  0  0  0  0
 16 13  1  0  0  0  0
M  RAD  2   3   2   4   2
M  END
