Coordinates from ORCA-job 4-CH3O-C6H3-N2-B3LYPG-aug-cc-pVDZ-scan-d09-49-n400
 OpenBabel11091809133D

 16 15  0  0  0  0  0  0  0  0999 V2000
   -2.0276    0.1259    0.2434 C   0  0  0  0  0  0  0  0  0  0  0  0
   -0.6806    0.2888   -0.1540 C   0  0  0  0  0  0  0  0  0  0  0  0
   -0.3210    1.6264   -0.1383 C   0  0  0  0  0  0  0  0  0  0  0  0
   -1.0450    2.6003    0.1752 C   0  0  0  0  0  0  0  0  0  0  0  0
   -2.3658    2.5660    0.5766 C   0  0  0  0  0  0  0  0  0  0  0  0
   -2.8481    1.2269    0.5984 C   0  0  0  0  0  0  0  0  0  0  0  0
   -2.4331   -0.8831    0.2728 H   0  0  0  0  0  0  0  0  0  0  0  0
   -0.0545   -0.5590   -0.4255 H   0  0  0  0  0  0  0  0  0  0  0  0
   -3.0109    3.3974    0.8525 H   0  0  0  0  0  0  0  0  0  0  0  0
    3.1013   -0.5569   -1.3911 N   0  0  0  0  0  0  0  0  0  0  0  0
    4.0266   -0.0017   -1.6252 N   0  0  0  0  0  0  0  0  0  0  0  0
   -4.1540    1.1031    0.9869 O   0  0  0  0  0  0  0  0  0  0  0  0
   -4.7336   -0.1960    1.0421 C   0  0  0  0  0  0  0  0  0  0  0  0
   -5.7662   -0.0464    1.3726 H   0  0  0  0  0  0  0  0  0  0  0  0
   -4.2067   -0.8374    1.7655 H   0  0  0  0  0  0  0  0  0  0  0  0
   -4.7319   -0.6759    0.0512 H   0  0  0  0  0  0  0  0  0  0  0  0
  1  7  1  0  0  0  0
  1  6  2  0  0  0  0
  2  3  2  0  0  0  0
  2  1  1  0  0  0  0
  3  4  1  0  0  0  0
  4  5  2  0  0  0  0
  5  6  1  0  0  0  0
  5  9  1  0  0  0  0
  6 12  1  0  0  0  0
  8  2  1  0  0  0  0
 11 10  3  0  0  0  0
 12 13  1  0  0  0  0
 13 14  1  0  0  0  0
 13 15  1  0  0  0  0
 16 13  1  0  0  0  0
M  RAD  2   3   2   4   2
M  END
