Coordinates from ORCA-job 4-CH3O-C6H3-N2-B3LYPG-aug-cc-pVDZ-scan-d09-49-n400
 OpenBabel11091809133D

 16 15  0  0  0  0  0  0  0  0999 V2000
   -2.0235   -0.1290    0.2181 C   0  0  0  0  0  0  0  0  0  0  0  0
   -0.6742   -0.1919   -0.2013 C   0  0  0  0  0  0  0  0  0  0  0  0
   -0.1273    1.0737   -0.2496 C   0  0  0  0  0  0  0  0  0  0  0  0
   -0.6667    2.1734    0.0193 C   0  0  0  0  0  0  0  0  0  0  0  0
   -1.9747    2.3468    0.4364 C   0  0  0  0  0  0  0  0  0  0  0  0
   -2.6572    1.1013    0.5282 C   0  0  0  0  0  0  0  0  0  0  0  0
   -2.5780   -1.0614    0.3002 H   0  0  0  0  0  0  0  0  0  0  0  0
   -0.1824   -1.1326   -0.4406 H   0  0  0  0  0  0  0  0  0  0  0  0
   -2.4830    3.2779    0.6799 H   0  0  0  0  0  0  0  0  0  0  0  0
    2.3731    0.3808   -1.0810 N   0  0  0  0  0  0  0  0  0  0  0  0
    3.2703    0.9869   -1.2994 N   0  0  0  0  0  0  0  0  0  0  0  0
   -3.9594    1.1982    0.9363 O   0  0  0  0  0  0  0  0  0  0  0  0
   -4.7305    0.0083    1.0604 C   0  0  0  0  0  0  0  0  0  0  0  0
   -5.7218    0.3301    1.3944 H   0  0  0  0  0  0  0  0  0  0  0  0
   -4.2953   -0.6729    1.8080 H   0  0  0  0  0  0  0  0  0  0  0  0
   -4.8205   -0.5113    0.0938 H   0  0  0  0  0  0  0  0  0  0  0  0
  1  7  1  0  0  0  0
  1  6  2  0  0  0  0
  2  1  1  0  0  0  0
  3  2  2  0  0  0  0
  3  4  1  0  0  0  0
  4  5  2  0  0  0  0
  5  6  1  0  0  0  0
  5  9  1  0  0  0  0
  6 12  1  0  0  0  0
  8  2  1  0  0  0  0
 11 10  3  0  0  0  0
 12 13  1  0  0  0  0
 13 14  1  0  0  0  0
 13 15  1  0  0  0  0
 16 13  1  0  0  0  0
M  RAD  2   3   2   4   2
M  END
