Coordinates from ORCA-job 4-CH3O-C6H3-N2-B3LYPG-aug-cc-pVDZ-scan-d09-49-n400
 OpenBabel11091809133D

 16 16  0  0  0  0  0  0  0  0999 V2000
   -1.9544   -0.2275    0.1876 C   0  0  0  0  0  0  0  0  0  0  0  0
   -0.6346   -0.2982   -0.2236 C   0  0  0  0  0  0  0  0  0  0  0  0
    0.0236    0.9420   -0.3084 C   0  0  0  0  0  0  0  0  0  0  0  0
   -0.3999    2.2362   -0.0566 C   0  0  0  0  0  0  0  0  0  0  0  0
   -1.7490    2.2276    0.3560 C   0  0  0  0  0  0  0  0  0  0  0  0
   -2.5107    1.0501    0.4785 C   0  0  0  0  0  0  0  0  0  0  0  0
   -2.5383   -1.1387    0.2806 H   0  0  0  0  0  0  0  0  0  0  0  0
   -0.1554   -1.2492   -0.4600 H   0  0  0  0  0  0  0  0  0  0  0  0
   -2.2623    3.1621    0.6014 H   0  0  0  0  0  0  0  0  0  0  0  0
    1.4464    0.8748   -0.7507 N   0  0  0  0  0  0  0  0  0  0  0  0
    2.5124    0.9631   -1.0691 N   0  0  0  0  0  0  0  0  0  0  0  0
   -3.7972    1.2104    0.8878 O   0  0  0  0  0  0  0  0  0  0  0  0
   -4.6342    0.0653    1.0363 C   0  0  0  0  0  0  0  0  0  0  0  0
   -5.6031    0.4492    1.3693 H   0  0  0  0  0  0  0  0  0  0  0  0
   -4.2345   -0.6252    1.7943 H   0  0  0  0  0  0  0  0  0  0  0  0
   -4.7598   -0.4636    0.0795 H   0  0  0  0  0  0  0  0  0  0  0  0
  1  7  1  0  0  0  0
  1  6  2  0  0  0  0
  2  1  1  0  0  0  0
  3  2  2  0  0  0  0
  3  4  1  0  0  0  0
  4  5  2  0  0  0  0
  5  6  1  0  0  0  0
  5  9  1  0  0  0  0
  6 12  1  0  0  0  0
  8  2  1  0  0  0  0
 10  3  1  0  0  0  0
 11 10  1  0  0  0  0
 12 13  1  0  0  0  0
 13 14  1  0  0  0  0
 13 15  1  0  0  0  0
 16 13  1  0  0  0  0
M  RAD  3   4   2  10   2  11   3
M  END
