Coordinates from ORCA-job 4-CH3O-C6H3-N2-B3LYPG-aug-cc-pVDZ-scan-d09-49-n400
 OpenBabel11091809133D

 16 16  0  0  0  0  0  0  0  0999 V2000
   -1.9446   -0.2231    0.1849 C   0  0  0  0  0  0  0  0  0  0  0  0
   -0.6302   -0.2883   -0.2240 C   0  0  0  0  0  0  0  0  0  0  0  0
    0.0561    0.9503   -0.3176 C   0  0  0  0  0  0  0  0  0  0  0  0
   -0.3990    2.2632   -0.0543 C   0  0  0  0  0  0  0  0  0  0  0  0
   -1.7476    2.2321    0.3560 C   0  0  0  0  0  0  0  0  0  0  0  0
   -2.5059    1.0547    0.4774 C   0  0  0  0  0  0  0  0  0  0  0  0
   -2.5263   -1.1359    0.2772 H   0  0  0  0  0  0  0  0  0  0  0  0
   -0.1543   -1.2417   -0.4597 H   0  0  0  0  0  0  0  0  0  0  0  0
   -2.2663    3.1635    0.6027 H   0  0  0  0  0  0  0  0  0  0  0  0
    1.3930    0.8890   -0.7329 N   0  0  0  0  0  0  0  0  0  0  0  0
    2.4639    0.9018   -1.0598 N   0  0  0  0  0  0  0  0  0  0  0  0
   -3.7904    1.2072    0.8854 O   0  0  0  0  0  0  0  0  0  0  0  0
   -4.6267    0.0596    1.0335 C   0  0  0  0  0  0  0  0  0  0  0  0
   -5.5954    0.4434    1.3665 H   0  0  0  0  0  0  0  0  0  0  0  0
   -4.2258   -0.6296    1.7915 H   0  0  0  0  0  0  0  0  0  0  0  0
   -4.7514   -0.4679    0.0762 H   0  0  0  0  0  0  0  0  0  0  0  0
  1  7  1  0  0  0  0
  1  6  2  0  0  0  0
  2  1  1  0  0  0  0
  3  2  2  0  0  0  0
  3  4  1  0  0  0  0
  4  5  2  0  0  0  0
  5  6  1  0  0  0  0
  5  9  1  0  0  0  0
  6 12  1  0  0  0  0
  8  2  1  0  0  0  0
 10  3  1  0  0  0  0
 11 10  1  0  0  0  0
 12 13  1  0  0  0  0
 13 14  1  0  0  0  0
 13 15  1  0  0  0  0
 16 13  1  0  0  0  0
M  RAD  3   4   2  10   2  11   3
M  END
