Coordinates from ORCA-job 4-CH3O-C6H3-N2-B3LYPG-aug-cc-pVDZ-scan-d09-49-n400
 OpenBabel11091809133D

 16 15  0  0  0  0  0  0  0  0999 V2000
   -2.0337    0.0728    0.2398 C   0  0  0  0  0  0  0  0  0  0  0  0
   -0.6835    0.1884   -0.1634 C   0  0  0  0  0  0  0  0  0  0  0  0
   -0.2813    1.5137   -0.1619 C   0  0  0  0  0  0  0  0  0  0  0  0
   -0.9722    2.5137    0.1442 C   0  0  0  0  0  0  0  0  0  0  0  0
   -2.2920    2.5256    0.5502 C   0  0  0  0  0  0  0  0  0  0  0  0
   -2.8171    1.2030    0.5866 C   0  0  0  0  0  0  0  0  0  0  0  0
   -2.4714   -0.9224    0.2803 H   0  0  0  0  0  0  0  0  0  0  0  0
   -0.0855   -0.6812   -0.4288 H   0  0  0  0  0  0  0  0  0  0  0  0
   -2.9091    3.3800    0.8199 H   0  0  0  0  0  0  0  0  0  0  0  0
    3.0236   -0.3936   -1.3541 N   0  0  0  0  0  0  0  0  0  0  0  0
    3.9144    0.2235   -1.5656 N   0  0  0  0  0  0  0  0  0  0  0  0
   -4.1249    1.1252    0.9804 O   0  0  0  0  0  0  0  0  0  0  0  0
   -4.7459   -0.1540    1.0503 C   0  0  0  0  0  0  0  0  0  0  0  0
   -5.7719    0.0321    1.3826 H   0  0  0  0  0  0  0  0  0  0  0  0
   -4.2373   -0.8049    1.7783 H   0  0  0  0  0  0  0  0  0  0  0  0
   -4.7631   -0.6434    0.0642 H   0  0  0  0  0  0  0  0  0  0  0  0
  1  7  1  0  0  0  0
  1  6  2  0  0  0  0
  2  3  2  0  0  0  0
  2  1  1  0  0  0  0
  3  4  1  0  0  0  0
  4  5  2  0  0  0  0
  5  6  1  0  0  0  0
  5  9  1  0  0  0  0
  6 12  1  0  0  0  0
  8  2  1  0  0  0  0
 11 10  3  0  0  0  0
 12 13  1  0  0  0  0
 13 14  1  0  0  0  0
 13 15  1  0  0  0  0
 16 13  1  0  0  0  0
M  RAD  2   3   2   4   2
M  END
