Coordinates from ORCA-job 4-CH3O-C6H3-N2-B3LYPG-aug-cc-pVDZ-scan-d09-49-n400
 OpenBabel11091809133D

 16 15  0  0  0  0  0  0  0  0999 V2000
   -2.0245   -0.1247    0.2188 C   0  0  0  0  0  0  0  0  0  0  0  0
   -0.6750   -0.1839   -0.2003 C   0  0  0  0  0  0  0  0  0  0  0  0
   -0.1305    1.0831   -0.2477 C   0  0  0  0  0  0  0  0  0  0  0  0
   -0.6743    2.1803    0.0223 C   0  0  0  0  0  0  0  0  0  0  0  0
   -1.9825    2.3511    0.4392 C   0  0  0  0  0  0  0  0  0  0  0  0
   -2.6616    1.1036    0.5298 C   0  0  0  0  0  0  0  0  0  0  0  0
   -2.5766   -1.0586    0.3000 H   0  0  0  0  0  0  0  0  0  0  0  0
   -0.1811   -1.1233   -0.4401 H   0  0  0  0  0  0  0  0  0  0  0  0
   -2.4930    3.2807    0.6833 H   0  0  0  0  0  0  0  0  0  0  0  0
    2.3929    0.3663   -1.0884 N   0  0  0  0  0  0  0  0  0  0  0  0
    3.2920    0.9690   -1.3079 N   0  0  0  0  0  0  0  0  0  0  0  0
   -3.9642    1.1968    0.9377 O   0  0  0  0  0  0  0  0  0  0  0  0
   -4.7322    0.0047    1.0606 C   0  0  0  0  0  0  0  0  0  0  0  0
   -5.7244    0.3237    1.3946 H   0  0  0  0  0  0  0  0  0  0  0  0
   -4.2954   -0.6759    1.8077 H   0  0  0  0  0  0  0  0  0  0  0  0
   -4.8205   -0.5144    0.0935 H   0  0  0  0  0  0  0  0  0  0  0  0
  1  7  1  0  0  0  0
  1  6  2  0  0  0  0
  2  1  1  0  0  0  0
  3  2  2  0  0  0  0
  3  4  1  0  0  0  0
  4  5  2  0  0  0  0
  5  6  1  0  0  0  0
  5  9  1  0  0  0  0
  6 12  1  0  0  0  0
  8  2  1  0  0  0  0
 11 10  3  0  0  0  0
 12 13  1  0  0  0  0
 13 14  1  0  0  0  0
 13 15  1  0  0  0  0
 16 13  1  0  0  0  0
M  RAD  2   3   2   4   2
M  END
