Coordinates from ORCA-job 4-CH3O-C6H3-N2-B3LYPG-aug-cc-pVDZ-scan-d09-49-n400
 OpenBabel11091809133D

 16 15  0  0  0  0  0  0  0  0999 V2000
   -2.0341   -0.0782    0.2260 C   0  0  0  0  0  0  0  0  0  0  0  0
   -0.6834   -0.0958   -0.1895 C   0  0  0  0  0  0  0  0  0  0  0  0
   -0.1610    1.1855   -0.2288 C   0  0  0  0  0  0  0  0  0  0  0  0
   -0.7542    2.2529    0.0536 C   0  0  0  0  0  0  0  0  0  0  0  0
   -2.0638    2.3958    0.4683 C   0  0  0  0  0  0  0  0  0  0  0  0
   -2.7074    1.1284    0.5460 C   0  0  0  0  0  0  0  0  0  0  0  0
   -2.5600   -1.0278    0.2976 H   0  0  0  0  0  0  0  0  0  0  0  0
   -0.1634   -1.0193   -0.4359 H   0  0  0  0  0  0  0  0  0  0  0  0
   -2.5980    3.3101    0.7182 H   0  0  0  0  0  0  0  0  0  0  0  0
    2.6204    0.1519   -1.1785 N   0  0  0  0  0  0  0  0  0  0  0  0
    3.4754    0.8219   -1.3774 N   0  0  0  0  0  0  0  0  0  0  0  0
   -4.0129    1.1819    0.9511 O   0  0  0  0  0  0  0  0  0  0  0  0
   -4.7475   -0.0326    1.0618 C   0  0  0  0  0  0  0  0  0  0  0  0
   -5.7490    0.2558    1.3959 H   0  0  0  0  0  0  0  0  0  0  0  0
   -4.2934   -0.7069    1.8044 H   0  0  0  0  0  0  0  0  0  0  0  0
   -4.8187   -0.5454    0.0902 H   0  0  0  0  0  0  0  0  0  0  0  0
  1  7  1  0  0  0  0
  1  6  2  0  0  0  0
  2  1  1  0  0  0  0
  3  2  2  0  0  0  0
  3  4  1  0  0  0  0
  4  5  2  0  0  0  0
  5  6  1  0  0  0  0
  5  9  1  0  0  0  0
  6 12  1  0  0  0  0
  8  2  1  0  0  0  0
 11 10  3  0  0  0  0
 12 13  1  0  0  0  0
 13 14  1  0  0  0  0
 13 15  1  0  0  0  0
 16 13  1  0  0  0  0
M  RAD  2   3   2   4   2
M  END
