Coordinates from ORCA-job 4-CH3O-C6H3-N2-B3LYPG-aug-cc-pVDZ-scan-d09-49-n400
 OpenBabel11091809133D

 16 15  0  0  0  0  0  0  0  0999 V2000
   -2.0371   -0.0547    0.2291 C   0  0  0  0  0  0  0  0  0  0  0  0
   -0.6857   -0.0511   -0.1847 C   0  0  0  0  0  0  0  0  0  0  0  0
   -0.1799    1.2376   -0.2183 C   0  0  0  0  0  0  0  0  0  0  0  0
   -0.7911    2.2936    0.0686 C   0  0  0  0  0  0  0  0  0  0  0  0
   -2.1027    2.4175    0.4822 C   0  0  0  0  0  0  0  0  0  0  0  0
   -2.7280    1.1406    0.5535 C   0  0  0  0  0  0  0  0  0  0  0  0
   -2.5493   -1.0121    0.2958 H   0  0  0  0  0  0  0  0  0  0  0  0
   -0.1533   -0.9667   -0.4342 H   0  0  0  0  0  0  0  0  0  0  0  0
   -2.6497    3.3231    0.7352 H   0  0  0  0  0  0  0  0  0  0  0  0
    2.7166    0.0506   -1.2177 N   0  0  0  0  0  0  0  0  0  0  0  0
    3.5577    0.7398   -1.4098 N   0  0  0  0  0  0  0  0  0  0  0  0
   -4.0347    1.1738    0.9571 O   0  0  0  0  0  0  0  0  0  0  0  0
   -4.7520   -0.0515    1.0615 C   0  0  0  0  0  0  0  0  0  0  0  0
   -5.7579    0.2211    1.3955 H   0  0  0  0  0  0  0  0  0  0  0  0
   -4.2893   -0.7225    1.8017 H   0  0  0  0  0  0  0  0  0  0  0  0
   -4.8147   -0.5610    0.0875 H   0  0  0  0  0  0  0  0  0  0  0  0
  1  7  1  0  0  0  0
  1  6  2  0  0  0  0
  2  1  1  0  0  0  0
  3  2  2  0  0  0  0
  3  4  1  0  0  0  0
  4  5  2  0  0  0  0
  5  6  1  0  0  0  0
  5  9  1  0  0  0  0
  6 12  1  0  0  0  0
  8  2  1  0  0  0  0
 11 10  3  0  0  0  0
 12 13  1  0  0  0  0
 13 14  1  0  0  0  0
 13 15  1  0  0  0  0
 16 13  1  0  0  0  0
M  RAD  2   3   2   4   2
M  END
