Coordinates from ORCA-job 4-CH3O-C6H3-N2-B3LYPG-aug-cc-pVDZ-scan-d09-49-n400
 OpenBabel11091809133D

 16 15  0  0  0  0  0  0  0  0999 V2000
   -2.0366    0.0175    0.2355 C   0  0  0  0  0  0  0  0  0  0  0  0
   -0.6845    0.0838   -0.1728 C   0  0  0  0  0  0  0  0  0  0  0  0
   -0.2377    1.3945   -0.1862 C   0  0  0  0  0  0  0  0  0  0  0  0
   -0.8941    2.4198    0.1117 C   0  0  0  0  0  0  0  0  0  0  0  0
   -2.2113    2.4808    0.5213 C   0  0  0  0  0  0  0  0  0  0  0  0
   -2.7804    1.1769    0.5729 C   0  0  0  0  0  0  0  0  0  0  0  0
   -2.5073   -0.9619    0.2875 H   0  0  0  0  0  0  0  0  0  0  0  0
   -0.1164   -0.8076   -0.4311 H   0  0  0  0  0  0  0  0  0  0  0  0
   -2.7984    3.3581    0.7841 H   0  0  0  0  0  0  0  0  0  0  0  0
    2.9172   -0.2213   -1.3052 N   0  0  0  0  0  0  0  0  0  0  0  0
    3.7618    0.4636   -1.4969 N   0  0  0  0  0  0  0  0  0  0  0  0
   -4.0888    1.1472    0.9713 O   0  0  0  0  0  0  0  0  0  0  0  0
   -4.7522   -0.1096    1.0563 C   0  0  0  0  0  0  0  0  0  0  0  0
   -5.7703    0.1144    1.3897 H   0  0  0  0  0  0  0  0  0  0  0  0
   -4.2634   -0.7696    1.7895 H   0  0  0  0  0  0  0  0  0  0  0  0
   -4.7890   -0.6082    0.0754 H   0  0  0  0  0  0  0  0  0  0  0  0
  1  7  1  0  0  0  0
  1  6  2  0  0  0  0
  2  1  1  0  0  0  0
  3  2  2  0  0  0  0
  3  4  1  0  0  0  0
  4  5  2  0  0  0  0
  5  6  1  0  0  0  0
  5  9  1  0  0  0  0
  6 12  1  0  0  0  0
  8  2  1  0  0  0  0
 11 10  3  0  0  0  0
 12 13  1  0  0  0  0
 13 14  1  0  0  0  0
 13 15  1  0  0  0  0
 16 13  1  0  0  0  0
M  RAD  2   3   2   4   2
M  END
