Coordinates from ORCA-job 4-CH3O-C6H3-N2-B3LYPG-aug-cc-pVDZ-scan-d09-49-n400
 OpenBabel11091809133D

 16 15  0  0  0  0  0  0  0  0999 V2000
   -2.0206    0.1939    0.2477 C   0  0  0  0  0  0  0  0  0  0  0  0
   -0.6800    0.4157   -0.1422 C   0  0  0  0  0  0  0  0  0  0  0  0
   -0.3707    1.7665   -0.1099 C   0  0  0  0  0  0  0  0  0  0  0  0
   -1.1389    2.7026    0.2136 C   0  0  0  0  0  0  0  0  0  0  0  0
   -2.4582    2.6135    0.6094 C   0  0  0  0  0  0  0  0  0  0  0  0
   -2.8864    1.2560    0.6129 C   0  0  0  0  0  0  0  0  0  0  0  0
   -2.3848   -0.8311    0.2629 H   0  0  0  0  0  0  0  0  0  0  0  0
   -0.0226   -0.4058   -0.4208 H   0  0  0  0  0  0  0  0  0  0  0  0
   -3.1362    3.4156    0.8926 H   0  0  0  0  0  0  0  0  0  0  0  0
    3.1969   -0.7596   -1.4394 N   0  0  0  0  0  0  0  0  0  0  0  0
    4.1603   -0.2832   -1.6929 N   0  0  0  0  0  0  0  0  0  0  0  0
   -4.1876    1.0749    0.9946 O   0  0  0  0  0  0  0  0  0  0  0  0
   -4.7144   -0.2472    1.0314 C   0  0  0  0  0  0  0  0  0  0  0  0
   -5.7534   -0.1435    1.3594 H   0  0  0  0  0  0  0  0  0  0  0  0
   -4.1646   -0.8757    1.7489 H   0  0  0  0  0  0  0  0  0  0  0  0
   -4.6896   -0.7142    0.0347 H   0  0  0  0  0  0  0  0  0  0  0  0
  1  7  1  0  0  0  0
  1  6  2  0  0  0  0
  2  3  2  0  0  0  0
  2  1  1  0  0  0  0
  3  4  1  0  0  0  0
  4  5  2  0  0  0  0
  5  6  1  0  0  0  0
  5  9  1  0  0  0  0
  6 12  1  0  0  0  0
  8  2  1  0  0  0  0
 11 10  3  0  0  0  0
 12 13  1  0  0  0  0
 13 14  1  0  0  0  0
 13 15  1  0  0  0  0
 16 13  1  0  0  0  0
M  RAD  2   3   2   4   2
M  END
