Coordinates from ORCA-job 4-CH3O-C6H3-N2-B3LYPG-aug-cc-pVDZ-scan-d09-49-n400
 OpenBabel11091809133D

 16 15  0  0  0  0  0  0  0  0999 V2000
   -2.0299    0.1085    0.2424 C   0  0  0  0  0  0  0  0  0  0  0  0
   -0.6816    0.2559   -0.1570 C   0  0  0  0  0  0  0  0  0  0  0  0
   -0.3081    1.5897   -0.1459 C   0  0  0  0  0  0  0  0  0  0  0  0
   -1.0214    2.5723    0.1651 C   0  0  0  0  0  0  0  0  0  0  0  0
   -2.3420    2.5530    0.5681 C   0  0  0  0  0  0  0  0  0  0  0  0
   -2.8383    1.2192    0.5947 C   0  0  0  0  0  0  0  0  0  0  0  0
   -2.4460   -0.8961    0.2754 H   0  0  0  0  0  0  0  0  0  0  0  0
   -0.0647   -0.5991   -0.4265 H   0  0  0  0  0  0  0  0  0  0  0  0
   -2.9780    3.3921    0.8420 H   0  0  0  0  0  0  0  0  0  0  0  0
    3.0784   -0.5039   -1.3797 N   0  0  0  0  0  0  0  0  0  0  0  0
    3.9929    0.0716   -1.6069 N   0  0  0  0  0  0  0  0  0  0  0  0
   -4.1450    1.1104    0.9849 O   0  0  0  0  0  0  0  0  0  0  0  0
   -4.7383   -0.1823    1.0450 C   0  0  0  0  0  0  0  0  0  0  0  0
   -5.7689   -0.0207    1.3760 H   0  0  0  0  0  0  0  0  0  0  0  0
   -4.2173   -0.8269    1.7698 H   0  0  0  0  0  0  0  0  0  0  0  0
   -4.7427   -0.6654    0.0556 H   0  0  0  0  0  0  0  0  0  0  0  0
  1  7  1  0  0  0  0
  1  6  2  0  0  0  0
  2  3  2  0  0  0  0
  2  1  1  0  0  0  0
  3  4  1  0  0  0  0
  4  5  2  0  0  0  0
  5  6  1  0  0  0  0
  5  9  1  0  0  0  0
  6 12  1  0  0  0  0
  8  2  1  0  0  0  0
 11 10  3  0  0  0  0
 12 13  1  0  0  0  0
 13 14  1  0  0  0  0
 13 15  1  0  0  0  0
 16 13  1  0  0  0  0
M  RAD  2   3   2   4   2
M  END
