Coordinates from ORCA-job 4-CH3O-C6H3-N2-B3LYPG-aug-cc-pVDZ-scan-d09-49-n400
 OpenBabel11091809133D

 16 15  0  0  0  0  0  0  0  0999 V2000
   -2.0123   -0.1648    0.2111 C   0  0  0  0  0  0  0  0  0  0  0  0
   -0.6656   -0.2574   -0.2104 C   0  0  0  0  0  0  0  0  0  0  0  0
   -0.1004    0.9965   -0.2655 C   0  0  0  0  0  0  0  0  0  0  0  0
   -0.5979    2.1204   -0.0071 C   0  0  0  0  0  0  0  0  0  0  0  0
   -1.9060    2.3097    0.4117 C   0  0  0  0  0  0  0  0  0  0  0  0
   -2.6169    1.0818    0.5139 C   0  0  0  0  0  0  0  0  0  0  0  0
   -2.5860   -1.0847    0.3002 H   0  0  0  0  0  0  0  0  0  0  0  0
   -0.1892   -1.2071   -0.4460 H   0  0  0  0  0  0  0  0  0  0  0  0
   -2.3965    3.2520    0.6509 H   0  0  0  0  0  0  0  0  0  0  0  0
    2.1840    0.5010   -1.0121 N   0  0  0  0  0  0  0  0  0  0  0  0
    3.0664    1.1327   -1.2219 N   0  0  0  0  0  0  0  0  0  0  0  0
   -3.9157    1.2099    0.9241 O   0  0  0  0  0  0  0  0  0  0  0  0
   -4.7124    0.0382    1.0579 C   0  0  0  0  0  0  0  0  0  0  0  0
   -5.6958    0.3838    1.3918 H   0  0  0  0  0  0  0  0  0  0  0  0
   -4.2907   -0.6474    1.8092 H   0  0  0  0  0  0  0  0  0  0  0  0
   -4.8161   -0.4860    0.0952 H   0  0  0  0  0  0  0  0  0  0  0  0
  1  7  1  0  0  0  0
  1  6  2  0  0  0  0
  2  1  1  0  0  0  0
  3  2  2  0  0  0  0
  3  4  1  0  0  0  0
  4  5  2  0  0  0  0
  5  6  1  0  0  0  0
  5  9  1  0  0  0  0
  6 12  1  0  0  0  0
  8  2  1  0  0  0  0
 11 10  3  0  0  0  0
 12 13  1  0  0  0  0
 13 14  1  0  0  0  0
 13 15  1  0  0  0  0
 16 13  1  0  0  0  0
M  RAD  2   3   2   4   2
M  END
