Coordinates from ORCA-job 4-CH3O-C6H3-N2-B3LYPG-aug-cc-pVDZ-scan-d09-49-n400
 OpenBabel11091809133D

 16 16  0  0  0  0  0  0  0  0999 V2000
   -1.9436   -0.2230    0.1846 C   0  0  0  0  0  0  0  0  0  0  0  0
   -0.6294   -0.2881   -0.2242 C   0  0  0  0  0  0  0  0  0  0  0  0
    0.0585    0.9503   -0.3183 C   0  0  0  0  0  0  0  0  0  0  0  0
   -0.3981    2.2642   -0.0545 C   0  0  0  0  0  0  0  0  0  0  0  0
   -1.7467    2.2323    0.3557 C   0  0  0  0  0  0  0  0  0  0  0  0
   -2.5050    1.0549    0.4771 C   0  0  0  0  0  0  0  0  0  0  0  0
   -2.5253   -1.1358    0.2769 H   0  0  0  0  0  0  0  0  0  0  0  0
   -0.1537   -1.2416   -0.4599 H   0  0  0  0  0  0  0  0  0  0  0  0
   -2.2656    3.1636    0.6025 H   0  0  0  0  0  0  0  0  0  0  0  0
    1.3857    0.8893   -0.7307 N   0  0  0  0  0  0  0  0  0  0  0  0
    2.4570    0.8998   -1.0579 N   0  0  0  0  0  0  0  0  0  0  0  0
   -3.7894    1.2072    0.8851 O   0  0  0  0  0  0  0  0  0  0  0  0
   -4.6257    0.0595    1.0332 C   0  0  0  0  0  0  0  0  0  0  0  0
   -5.5944    0.4433    1.3662 H   0  0  0  0  0  0  0  0  0  0  0  0
   -4.2248   -0.6296    1.7912 H   0  0  0  0  0  0  0  0  0  0  0  0
   -4.7503   -0.4680    0.0759 H   0  0  0  0  0  0  0  0  0  0  0  0
  1  7  1  0  0  0  0
  1  6  2  0  0  0  0
  2  1  1  0  0  0  0
  3  2  2  0  0  0  0
  3  4  1  0  0  0  0
  4  5  2  0  0  0  0
  5  6  1  0  0  0  0
  5  9  1  0  0  0  0
  6 12  1  0  0  0  0
  8  2  1  0  0  0  0
 10  3  1  0  0  0  0
 11 10  1  0  0  0  0
 12 13  1  0  0  0  0
 13 14  1  0  0  0  0
 13 15  1  0  0  0  0
 16 13  1  0  0  0  0
M  RAD  3   4   2  10   2  11   3
M  END
