Coordinates from ORCA-job 4-CH3O-C6H3-N2-B3LYPG-aug-cc-pVDZ-scan-d09-49-n400
 OpenBabel11091809133D

 16 15  0  0  0  0  0  0  0  0999 V2000
   -2.0044   -0.1909    0.2061 C   0  0  0  0  0  0  0  0  0  0  0  0
   -0.6615   -0.3011   -0.2159 C   0  0  0  0  0  0  0  0  0  0  0  0
   -0.0771    0.9430   -0.2777 C   0  0  0  0  0  0  0  0  0  0  0  0
   -0.5461    2.0846   -0.0264 C   0  0  0  0  0  0  0  0  0  0  0  0
   -1.8556    2.2801    0.3934 C   0  0  0  0  0  0  0  0  0  0  0  0
   -2.5877    1.0673    0.5035 C   0  0  0  0  0  0  0  0  0  0  0  0
   -2.5903   -1.1024    0.2998 H   0  0  0  0  0  0  0  0  0  0  0  0
   -0.1910   -1.2548   -0.4500 H   0  0  0  0  0  0  0  0  0  0  0  0
   -2.3335    3.2301    0.6295 H   0  0  0  0  0  0  0  0  0  0  0  0
    2.0403    0.5846   -0.9603 N   0  0  0  0  0  0  0  0  0  0  0  0
    2.9119    1.2350   -1.1645 N   0  0  0  0  0  0  0  0  0  0  0  0
   -3.8835    1.2178    0.9149 O   0  0  0  0  0  0  0  0  0  0  0  0
   -4.6984    0.0597    1.0557 C   0  0  0  0  0  0  0  0  0  0  0  0
   -5.6757    0.4222    1.3894 H   0  0  0  0  0  0  0  0  0  0  0  0
   -4.2865   -0.6290    1.8097 H   0  0  0  0  0  0  0  0  0  0  0  0
   -4.8119   -0.4676    0.0957 H   0  0  0  0  0  0  0  0  0  0  0  0
  1  7  1  0  0  0  0
  1  6  2  0  0  0  0
  2  1  1  0  0  0  0
  3  2  2  0  0  0  0
  3  4  1  0  0  0  0
  4  5  2  0  0  0  0
  5  6  1  0  0  0  0
  5  9  1  0  0  0  0
  6 12  1  0  0  0  0
  8  2  1  0  0  0  0
 11 10  3  0  0  0  0
 12 13  1  0  0  0  0
 13 14  1  0  0  0  0
 13 15  1  0  0  0  0
 16 13  1  0  0  0  0
M  RAD  2   3   2   4   2
M  END
