Coordinates from ORCA-job 4-CH3O-C6H3-N2-B3LYPG-aug-cc-pVDZ-scan-d09-49-n400
 OpenBabel11091809133D

 16 16  0  0  0  0  0  0  0  0999 V2000
   -1.9824   -0.2187    0.1971 C   0  0  0  0  0  0  0  0  0  0  0  0
   -0.6456   -0.3270   -0.2227 C   0  0  0  0  0  0  0  0  0  0  0  0
   -0.0421    0.9075   -0.2912 C   0  0  0  0  0  0  0  0  0  0  0  0
   -0.4601    2.0964   -0.0510 C   0  0  0  0  0  0  0  0  0  0  0  0
   -1.7850    2.2410    0.3685 C   0  0  0  0  0  0  0  0  0  0  0  0
   -2.5429    1.0504    0.4884 C   0  0  0  0  0  0  0  0  0  0  0  0
   -2.5744   -1.1253    0.2930 H   0  0  0  0  0  0  0  0  0  0  0  0
   -0.1716   -1.2802   -0.4577 H   0  0  0  0  0  0  0  0  0  0  0  0
   -2.2624    3.1936    0.6045 H   0  0  0  0  0  0  0  0  0  0  0  0
    1.7405    0.6948   -0.8576 N   0  0  0  0  0  0  0  0  0  0  0  0
    2.6714    1.2547   -1.0913 N   0  0  0  0  0  0  0  0  0  0  0  0
   -3.8344    1.2223    0.9003 O   0  0  0  0  0  0  0  0  0  0  0  0
   -4.6673    0.0779    1.0475 C   0  0  0  0  0  0  0  0  0  0  0  0
   -5.6384    0.4570    1.3807 H   0  0  0  0  0  0  0  0  0  0  0  0
   -4.2656   -0.6138    1.8043 H   0  0  0  0  0  0  0  0  0  0  0  0
   -4.7906   -0.4522    0.0903 H   0  0  0  0  0  0  0  0  0  0  0  0
  1  7  1  0  0  0  0
  1  6  2  0  0  0  0
  2  1  1  0  0  0  0
  3  2  2  0  0  0  0
  3  4  1  0  0  0  0
  4  5  2  0  0  0  0
  5  6  1  0  0  0  0
  5  9  1  0  0  0  0
  6 12  1  0  0  0  0
  8  2  1  0  0  0  0
 10  3  1  0  0  0  0
 11 10  2  0  0  0  0
 12 13  1  0  0  0  0
 13 14  1  0  0  0  0
 13 15  1  0  0  0  0
 16 13  1  0  0  0  0
M  RAD  2   4   2  11   2
M  END
