Coordinates from ORCA-job 4-CH3O-C6H3-N2-B3LYPG-aug-cc-pVDZ-scan-d09-49-n400
 OpenBabel11091809133D

 16 15  0  0  0  0  0  0  0  0999 V2000
   -2.0319    0.0915    0.2412 C   0  0  0  0  0  0  0  0  0  0  0  0
   -0.6826    0.2239   -0.1601 C   0  0  0  0  0  0  0  0  0  0  0  0
   -0.2954    1.5537   -0.1535 C   0  0  0  0  0  0  0  0  0  0  0  0
   -0.9981    2.5446    0.1552 C   0  0  0  0  0  0  0  0  0  0  0  0
   -2.3185    2.5402    0.5597 C   0  0  0  0  0  0  0  0  0  0  0  0
   -2.8284    1.2116    0.5909 C   0  0  0  0  0  0  0  0  0  0  0  0
   -2.4582   -0.9086    0.2777 H   0  0  0  0  0  0  0  0  0  0  0  0
   -0.0746   -0.6381   -0.4276 H   0  0  0  0  0  0  0  0  0  0  0  0
   -2.9455    3.3865    0.8316 H   0  0  0  0  0  0  0  0  0  0  0  0
    3.0534   -0.4517   -1.3679 N   0  0  0  0  0  0  0  0  0  0  0  0
    3.9571    0.1435   -1.5877 N   0  0  0  0  0  0  0  0  0  0  0  0
   -4.1358    1.1175    0.9829 O   0  0  0  0  0  0  0  0  0  0  0  0
   -4.7422   -0.1689    1.0476 C   0  0  0  0  0  0  0  0  0  0  0  0
   -5.7707    0.0043    1.3793 H   0  0  0  0  0  0  0  0  0  0  0  0
   -4.2271   -0.8165    1.7739 H   0  0  0  0  0  0  0  0  0  0  0  0
   -4.7527   -0.6550    0.0598 H   0  0  0  0  0  0  0  0  0  0  0  0
  1  7  1  0  0  0  0
  1  6  2  0  0  0  0
  2  3  2  0  0  0  0
  2  1  1  0  0  0  0
  3  4  1  0  0  0  0
  4  5  2  0  0  0  0
  5  6  1  0  0  0  0
  5  9  1  0  0  0  0
  6 12  1  0  0  0  0
  8  2  1  0  0  0  0
 11 10  3  0  0  0  0
 12 13  1  0  0  0  0
 13 14  1  0  0  0  0
 13 15  1  0  0  0  0
 16 13  1  0  0  0  0
M  RAD  2   3   2   4   2
M  END
