Coordinates from ORCA-job 4-CH3O-C6H3-N2-B3LYPG-aug-cc-pVDZ-scan-d09-49-n400
 OpenBabel11091809133D

 16 15  0  0  0  0  0  0  0  0999 V2000
   -1.9936   -0.2041    0.2018 C   0  0  0  0  0  0  0  0  0  0  0  0
   -0.6527   -0.3177   -0.2197 C   0  0  0  0  0  0  0  0  0  0  0  0
   -0.0626    0.9221   -0.2836 C   0  0  0  0  0  0  0  0  0  0  0  0
   -0.5064    2.0823   -0.0382 C   0  0  0  0  0  0  0  0  0  0  0  0
   -1.8216    2.2626    0.3817 C   0  0  0  0  0  0  0  0  0  0  0  0
   -2.5658    1.0595    0.4962 C   0  0  0  0  0  0  0  0  0  0  0  0
   -2.5837   -1.1124    0.2969 H   0  0  0  0  0  0  0  0  0  0  0  0
   -0.1822   -1.2718   -0.4538 H   0  0  0  0  0  0  0  0  0  0  0  0
   -2.2971    3.2149    0.6172 H   0  0  0  0  0  0  0  0  0  0  0  0
    1.9020    0.6339   -0.9129 N   0  0  0  0  0  0  0  0  0  0  0  0
    2.7921    1.2582   -1.1277 N   0  0  0  0  0  0  0  0  0  0  0  0
   -3.8598    1.2209    0.9079 O   0  0  0  0  0  0  0  0  0  0  0  0
   -4.6835    0.0696    1.0517 C   0  0  0  0  0  0  0  0  0  0  0  0
   -5.6579    0.4402    1.3851 H   0  0  0  0  0  0  0  0  0  0  0  0
   -4.2767   -0.6206    1.8071 H   0  0  0  0  0  0  0  0  0  0  0  0
   -4.8017   -0.4592    0.0931 H   0  0  0  0  0  0  0  0  0  0  0  0
  1  7  1  0  0  0  0
  1  6  2  0  0  0  0
  2  1  1  0  0  0  0
  3  2  2  0  0  0  0
  3  4  1  0  0  0  0
  4  5  2  0  0  0  0
  5  6  1  0  0  0  0
  5  9  1  0  0  0  0
  6 12  1  0  0  0  0
  8  2  1  0  0  0  0
 11 10  3  0  0  0  0
 12 13  1  0  0  0  0
 13 14  1  0  0  0  0
 13 15  1  0  0  0  0
 16 13  1  0  0  0  0
M  RAD  2   3   2   4   2
M  END
