Coordinates from ORCA-job 4-CH3O-C6H3-N2-B3LYPG-aug-cc-pVDZ-scan-d09-49-n400
 OpenBabel11091809133D

 16 16  0  0  0  0  0  0  0  0999 V2000
   -1.9138   -0.2148    0.1769 C   0  0  0  0  0  0  0  0  0  0  0  0
   -0.6137   -0.2704   -0.2258 C   0  0  0  0  0  0  0  0  0  0  0  0
    0.2281    0.9167   -0.3689 C   0  0  0  0  0  0  0  0  0  0  0  0
   -0.3925    2.3249   -0.0495 C   0  0  0  0  0  0  0  0  0  0  0  0
   -1.7263    2.2276    0.3495 C   0  0  0  0  0  0  0  0  0  0  0  0
   -2.4894    1.0559    0.4730 C   0  0  0  0  0  0  0  0  0  0  0  0
   -2.4841   -1.1355    0.2637 H   0  0  0  0  0  0  0  0  0  0  0  0
   -0.1393   -1.2263   -0.4622 H   0  0  0  0  0  0  0  0  0  0  0  0
   -2.2407    3.1626    0.5944 H   0  0  0  0  0  0  0  0  0  0  0  0
    1.1429    0.8745   -0.6576 N   0  0  0  0  0  0  0  0  0  0  0  0
    2.2520    0.8604   -1.0046 N   0  0  0  0  0  0  0  0  0  0  0  0
   -3.7613    1.2029    0.8759 O   0  0  0  0  0  0  0  0  0  0  0  0
   -4.6066    0.0538    1.0262 C   0  0  0  0  0  0  0  0  0  0  0  0
   -5.5715    0.4461    1.3580 H   0  0  0  0  0  0  0  0  0  0  0  0
   -4.2049   -0.6307    1.7860 H   0  0  0  0  0  0  0  0  0  0  0  0
   -4.7300   -0.4693    0.0680 H   0  0  0  0  0  0  0  0  0  0  0  0
  1  7  1  0  0  0  0
  1  6  2  0  0  0  0
  2  1  1  0  0  0  0
  3  2  2  0  0  0  0
  3  4  1  0  0  0  0
  4  5  2  0  0  0  0
  5  6  1  0  0  0  0
  5  9  1  0  0  0  0
  6 12  1  0  0  0  0
  8  2  1  0  0  0  0
 10  3  1  0  0  0  0
 11 10  1  0  0  0  0
 12 13  1  0  0  0  0
 13 14  1  0  0  0  0
 13 15  1  0  0  0  0
 16 13  1  0  0  0  0
M  RAD  3   4   2  10   2  11   3
M  END
