Coordinates from ORCA-job 4-CH3O-C6H3-N2-B3LYPG-aug-cc-pVDZ-scan-d09-49-n400
 OpenBabel11091809133D

 16 16  0  0  0  0  0  0  0  0999 V2000
   -1.9829   -0.2180    0.1973 C   0  0  0  0  0  0  0  0  0  0  0  0
   -0.6459   -0.3268   -0.2225 C   0  0  0  0  0  0  0  0  0  0  0  0
   -0.0434    0.9080   -0.2907 C   0  0  0  0  0  0  0  0  0  0  0  0
   -0.4623    2.0953   -0.0504 C   0  0  0  0  0  0  0  0  0  0  0  0
   -1.7867    2.2420    0.3691 C   0  0  0  0  0  0  0  0  0  0  0  0
   -2.5440    1.0509    0.4888 C   0  0  0  0  0  0  0  0  0  0  0  0
   -2.5749   -1.1247    0.2932 H   0  0  0  0  0  0  0  0  0  0  0  0
   -0.1720   -1.2800   -0.4575 H   0  0  0  0  0  0  0  0  0  0  0  0
   -2.2639    3.1946    0.6051 H   0  0  0  0  0  0  0  0  0  0  0  0
    1.7484    0.6918   -0.8603 N   0  0  0  0  0  0  0  0  0  0  0  0
    2.6770    1.2555   -1.0930 N   0  0  0  0  0  0  0  0  0  0  0  0
   -3.8356    1.2223    0.9006 O   0  0  0  0  0  0  0  0  0  0  0  0
   -4.6681    0.0776    1.0477 C   0  0  0  0  0  0  0  0  0  0  0  0
   -5.6394    0.4563    1.3809 H   0  0  0  0  0  0  0  0  0  0  0  0
   -4.2662   -0.6140    1.8044 H   0  0  0  0  0  0  0  0  0  0  0  0
   -4.7911   -0.4525    0.0904 H   0  0  0  0  0  0  0  0  0  0  0  0
  1  7  1  0  0  0  0
  1  6  2  0  0  0  0
  2  1  1  0  0  0  0
  3  2  2  0  0  0  0
  3  4  1  0  0  0  0
  4  5  2  0  0  0  0
  5  6  1  0  0  0  0
  5  9  1  0  0  0  0
  6 12  1  0  0  0  0
  8  2  1  0  0  0  0
 10  3  1  0  0  0  0
 11 10  2  0  0  0  0
 12 13  1  0  0  0  0
 13 14  1  0  0  0  0
 13 15  1  0  0  0  0
 16 13  1  0  0  0  0
M  RAD  2   4   2  11   2
M  END
