Coordinates from ORCA-job 4-CH3O-C6H3-N2-B3LYPG-aug-cc-pVDZ-scan-d09-49-n400
 OpenBabel11091809133D

 16 16  0  0  0  0  0  0  0  0999 V2000
   -1.9802   -0.2212    0.1961 C   0  0  0  0  0  0  0  0  0  0  0  0
   -0.6445   -0.3278   -0.2232 C   0  0  0  0  0  0  0  0  0  0  0  0
   -0.0363    0.9056   -0.2933 C   0  0  0  0  0  0  0  0  0  0  0  0
   -0.4518    2.1005   -0.0533 C   0  0  0  0  0  0  0  0  0  0  0  0
   -1.7783    2.2371    0.3660 C   0  0  0  0  0  0  0  0  0  0  0  0
   -2.5386    1.0489    0.4869 C   0  0  0  0  0  0  0  0  0  0  0  0
   -2.5725   -1.1275    0.2921 H   0  0  0  0  0  0  0  0  0  0  0  0
   -0.1701   -1.2810   -0.4584 H   0  0  0  0  0  0  0  0  0  0  0  0
   -2.2566    3.1895    0.6023 H   0  0  0  0  0  0  0  0  0  0  0  0
    1.7095    0.7058   -0.8471 N   0  0  0  0  0  0  0  0  0  0  0  0
    2.6489    1.2515   -1.0842 N   0  0  0  0  0  0  0  0  0  0  0  0
   -3.8296    1.2223    0.8988 O   0  0  0  0  0  0  0  0  0  0  0  0
   -4.6642    0.0790    1.0467 C   0  0  0  0  0  0  0  0  0  0  0  0
   -5.6347    0.4598    1.3799 H   0  0  0  0  0  0  0  0  0  0  0  0
   -4.2634   -0.6128    1.8038 H   0  0  0  0  0  0  0  0  0  0  0  0
   -4.7884   -0.4513    0.0898 H   0  0  0  0  0  0  0  0  0  0  0  0
  1  7  1  0  0  0  0
  1  6  2  0  0  0  0
  2  1  1  0  0  0  0
  3  2  2  0  0  0  0
  3  4  1  0  0  0  0
  4  5  2  0  0  0  0
  5  6  1  0  0  0  0
  5  9  1  0  0  0  0
  6 12  1  0  0  0  0
  8  2  1  0  0  0  0
 10  3  1  0  0  0  0
 11 10  2  0  0  0  0
 12 13  1  0  0  0  0
 13 14  1  0  0  0  0
 13 15  1  0  0  0  0
 16 13  1  0  0  0  0
M  RAD  2   4   2  11   2
M  END
