Coordinates from ORCA-job 4-CH3O-C6H3-N2-B3LYPG-aug-cc-pVDZ-scan-d09-49-n400
 OpenBabel11091809133D

 16 15  0  0  0  0  0  0  0  0999 V2000
   -2.0381   -0.0371    0.2310 C   0  0  0  0  0  0  0  0  0  0  0  0
   -0.6864   -0.0178   -0.1815 C   0  0  0  0  0  0  0  0  0  0  0  0
   -0.1938    1.2764   -0.2105 C   0  0  0  0  0  0  0  0  0  0  0  0
   -0.8174    2.3244    0.0795 C   0  0  0  0  0  0  0  0  0  0  0  0
   -2.1304    2.4334    0.4922 C   0  0  0  0  0  0  0  0  0  0  0  0
   -2.7421    1.1497    0.5587 C   0  0  0  0  0  0  0  0  0  0  0  0
   -2.5401   -1.0001    0.2941 H   0  0  0  0  0  0  0  0  0  0  0  0
   -0.1444   -0.9271   -0.4333 H   0  0  0  0  0  0  0  0  0  0  0  0
   -2.6873    3.3324    0.7476 H   0  0  0  0  0  0  0  0  0  0  0  0
    2.7796   -0.0246   -1.2441 N   0  0  0  0  0  0  0  0  0  0  0  0
    3.6103    0.6783   -1.4314 N   0  0  0  0  0  0  0  0  0  0  0  0
   -4.0494    1.1676    0.9611 O   0  0  0  0  0  0  0  0  0  0  0  0
   -4.7537   -0.0656    1.0608 C   0  0  0  0  0  0  0  0  0  0  0  0
   -5.7628    0.1952    1.3947 H   0  0  0  0  0  0  0  0  0  0  0  0
   -4.2846   -0.7340    1.7992 H   0  0  0  0  0  0  0  0  0  0  0  0
   -4.8101   -0.5726    0.0851 H   0  0  0  0  0  0  0  0  0  0  0  0
  1  7  1  0  0  0  0
  1  6  2  0  0  0  0
  2  1  1  0  0  0  0
  3  2  2  0  0  0  0
  3  4  1  0  0  0  0
  4  5  2  0  0  0  0
  5  6  1  0  0  0  0
  5  9  1  0  0  0  0
  6 12  1  0  0  0  0
  8  2  1  0  0  0  0
 11 10  3  0  0  0  0
 12 13  1  0  0  0  0
 13 14  1  0  0  0  0
 13 15  1  0  0  0  0
 16 13  1  0  0  0  0
M  RAD  2   3   2   4   2
M  END
