Coordinates from ORCA-job 4-CH3O-C6H3-N2-B3LYPG-aug-cc-pVDZ-scan-d09-49-n400
 OpenBabel11091809133D

 16 16  0  0  0  0  0  0  0  0999 V2000
   -1.9736   -0.2297    0.1933 C   0  0  0  0  0  0  0  0  0  0  0  0
   -0.6421   -0.3279   -0.2240 C   0  0  0  0  0  0  0  0  0  0  0  0
   -0.0198    0.9045   -0.2985 C   0  0  0  0  0  0  0  0  0  0  0  0
   -0.4236    2.1276   -0.0595 C   0  0  0  0  0  0  0  0  0  0  0  0
   -1.7584    2.2252    0.3587 C   0  0  0  0  0  0  0  0  0  0  0  0
   -2.5254    1.0440    0.4824 C   0  0  0  0  0  0  0  0  0  0  0  0
   -2.5660   -1.1356    0.2894 H   0  0  0  0  0  0  0  0  0  0  0  0
   -0.1659   -1.2805   -0.4597 H   0  0  0  0  0  0  0  0  0  0  0  0
   -2.2434    3.1747    0.5969 H   0  0  0  0  0  0  0  0  0  0  0  0
    1.6070    0.7565   -0.8110 N   0  0  0  0  0  0  0  0  0  0  0  0
    2.5896    1.2138   -1.0694 N   0  0  0  0  0  0  0  0  0  0  0  0
   -3.8146    1.2207    0.8941 O   0  0  0  0  0  0  0  0  0  0  0  0
   -4.6542    0.0808    1.0439 C   0  0  0  0  0  0  0  0  0  0  0  0
   -5.6228    0.4663    1.3769 H   0  0  0  0  0  0  0  0  0  0  0  0
   -4.2563   -0.6117    1.8017 H   0  0  0  0  0  0  0  0  0  0  0  0
   -4.7813   -0.4501    0.0877 H   0  0  0  0  0  0  0  0  0  0  0  0
  1  7  1  0  0  0  0
  1  6  2  0  0  0  0
  2  1  1  0  0  0  0
  3  2  2  0  0  0  0
  3  4  1  0  0  0  0
  4  5  2  0  0  0  0
  5  6  1  0  0  0  0
  5  9  1  0  0  0  0
  6 12  1  0  0  0  0
  8  2  1  0  0  0  0
 10  3  1  0  0  0  0
 11 10  2  0  0  0  0
 12 13  1  0  0  0  0
 13 14  1  0  0  0  0
 13 15  1  0  0  0  0
 16 13  1  0  0  0  0
M  RAD  2   4   2  11   2
M  END
