Coordinates from ORCA-job 4-CH3O-C6H3-N2-B3LYPG-aug-cc-pVDZ-scan-d09-49-n400
 OpenBabel11091809133D

 16 15  0  0  0  0  0  0  0  0999 V2000
   -1.9966   -0.2003    0.2030 C   0  0  0  0  0  0  0  0  0  0  0  0
   -0.6551   -0.3135   -0.2187 C   0  0  0  0  0  0  0  0  0  0  0  0
   -0.0669    0.9275   -0.2820 C   0  0  0  0  0  0  0  0  0  0  0  0
   -0.5181    2.0818   -0.0349 C   0  0  0  0  0  0  0  0  0  0  0  0
   -1.8314    2.2679    0.3851 C   0  0  0  0  0  0  0  0  0  0  0  0
   -2.5720    1.0618    0.4983 C   0  0  0  0  0  0  0  0  0  0  0  0
   -2.5858   -1.1094    0.2978 H   0  0  0  0  0  0  0  0  0  0  0  0
   -0.1850   -1.2677   -0.4528 H   0  0  0  0  0  0  0  0  0  0  0  0
   -2.3073    3.2196    0.6206 H   0  0  0  0  0  0  0  0  0  0  0  0
    1.9428    0.6194   -0.9269 N   0  0  0  0  0  0  0  0  0  0  0  0
    2.8261    1.2536   -1.1377 N   0  0  0  0  0  0  0  0  0  0  0  0
   -3.8666    1.2202    0.9099 O   0  0  0  0  0  0  0  0  0  0  0  0
   -4.6878    0.0669    1.0529 C   0  0  0  0  0  0  0  0  0  0  0  0
   -5.6630    0.4352    1.3864 H   0  0  0  0  0  0  0  0  0  0  0  0
   -4.2795   -0.6229    1.8079 H   0  0  0  0  0  0  0  0  0  0  0  0
   -4.8047   -0.4615    0.0939 H   0  0  0  0  0  0  0  0  0  0  0  0
  1  7  1  0  0  0  0
  1  6  2  0  0  0  0
  2  1  1  0  0  0  0
  3  2  2  0  0  0  0
  3  4  1  0  0  0  0
  4  5  2  0  0  0  0
  5  6  1  0  0  0  0
  5  9  1  0  0  0  0
  6 12  1  0  0  0  0
  8  2  1  0  0  0  0
 11 10  3  0  0  0  0
 12 13  1  0  0  0  0
 13 14  1  0  0  0  0
 13 15  1  0  0  0  0
 16 13  1  0  0  0  0
M  RAD  2   3   2   4   2
M  END
