Coordinates from ORCA-job 4-CH3O-C6H3-N2-B3LYPG-aug-cc-pVDZ-scan-d09-49-n400
 OpenBabel11091809133D

 16 15  0  0  0  0  0  0  0  0999 V2000
   -2.0267    0.1306    0.2436 C   0  0  0  0  0  0  0  0  0  0  0  0
   -0.6801    0.2980   -0.1532 C   0  0  0  0  0  0  0  0  0  0  0  0
   -0.3243    1.6366   -0.1363 C   0  0  0  0  0  0  0  0  0  0  0  0
   -1.0513    2.6081    0.1779 C   0  0  0  0  0  0  0  0  0  0  0  0
   -2.3721    2.5694    0.5789 C   0  0  0  0  0  0  0  0  0  0  0  0
   -2.8505    1.2289    0.5993 C   0  0  0  0  0  0  0  0  0  0  0  0
   -2.4292   -0.8797    0.2719 H   0  0  0  0  0  0  0  0  0  0  0  0
   -0.0502   -0.5465   -0.4256 H   0  0  0  0  0  0  0  0  0  0  0  0
   -3.0197    3.3987    0.8553 H   0  0  0  0  0  0  0  0  0  0  0  0
    3.1050   -0.5720   -1.3936 N   0  0  0  0  0  0  0  0  0  0  0  0
    4.0329   -0.0219   -1.6293 N   0  0  0  0  0  0  0  0  0  0  0  0
   -4.1561    1.1010    0.9873 O   0  0  0  0  0  0  0  0  0  0  0  0
   -4.7319   -0.1999    1.0412 C   0  0  0  0  0  0  0  0  0  0  0  0
   -5.7651   -0.0536    1.3715 H   0  0  0  0  0  0  0  0  0  0  0  0
   -4.2033   -0.8403    1.7641 H   0  0  0  0  0  0  0  0  0  0  0  0
   -4.7285   -0.6789    0.0499 H   0  0  0  0  0  0  0  0  0  0  0  0
  1  7  1  0  0  0  0
  1  6  2  0  0  0  0
  2  3  2  0  0  0  0
  2  1  1  0  0  0  0
  3  4  1  0  0  0  0
  4  5  2  0  0  0  0
  5  6  1  0  0  0  0
  5  9  1  0  0  0  0
  6 12  1  0  0  0  0
  8  2  1  0  0  0  0
 11 10  3  0  0  0  0
 12 13  1  0  0  0  0
 13 14  1  0  0  0  0
 13 15  1  0  0  0  0
 16 13  1  0  0  0  0
M  RAD  2   3   2   4   2
M  END
