Coordinates from ORCA-job 4-CH3O-C6H3-N2-B3LYPG-aug-cc-pVDZ-scan-d09-49-n400
 OpenBabel11091809133D

 16 15  0  0  0  0  0  0  0  0999 V2000
   -1.9929   -0.2048    0.2015 C   0  0  0  0  0  0  0  0  0  0  0  0
   -0.6523   -0.3184   -0.2198 C   0  0  0  0  0  0  0  0  0  0  0  0
   -0.0617    0.9211   -0.2839 C   0  0  0  0  0  0  0  0  0  0  0  0
   -0.5040    2.0826   -0.0389 C   0  0  0  0  0  0  0  0  0  0  0  0
   -1.8197    2.2615    0.3810 C   0  0  0  0  0  0  0  0  0  0  0  0
   -2.5645    1.0591    0.4958 C   0  0  0  0  0  0  0  0  0  0  0  0
   -2.5833   -1.1131    0.2968 H   0  0  0  0  0  0  0  0  0  0  0  0
   -0.1816   -1.2726   -0.4540 H   0  0  0  0  0  0  0  0  0  0  0  0
   -2.2952    3.2139    0.6165 H   0  0  0  0  0  0  0  0  0  0  0  0
    1.8939    0.6369   -0.9101 N   0  0  0  0  0  0  0  0  0  0  0  0
    2.7855    1.2589   -1.1257 N   0  0  0  0  0  0  0  0  0  0  0  0
   -3.8585    1.2211    0.9075 O   0  0  0  0  0  0  0  0  0  0  0  0
   -4.6827    0.0701    1.0515 C   0  0  0  0  0  0  0  0  0  0  0  0
   -5.6569    0.4411    1.3849 H   0  0  0  0  0  0  0  0  0  0  0  0
   -4.2761   -0.6202    1.8070 H   0  0  0  0  0  0  0  0  0  0  0  0
   -4.8011   -0.4588    0.0929 H   0  0  0  0  0  0  0  0  0  0  0  0
  1  7  1  0  0  0  0
  1  6  2  0  0  0  0
  2  1  1  0  0  0  0
  3  2  2  0  0  0  0
  3  4  1  0  0  0  0
  4  5  2  0  0  0  0
  5  6  1  0  0  0  0
  5  9  1  0  0  0  0
  6 12  1  0  0  0  0
  8  2  1  0  0  0  0
 11 10  3  0  0  0  0
 12 13  1  0  0  0  0
 13 14  1  0  0  0  0
 13 15  1  0  0  0  0
 16 13  1  0  0  0  0
M  RAD  2   3   2   4   2
M  END
