Coordinates from ORCA-job 4-CH3O-C6H3-N2-B3LYPG-aug-cc-pVDZ-scan-d09-49-n400
 OpenBabel11091809133D

 16 16  0  0  0  0  0  0  0  0999 V2000
   -1.9566   -0.2281    0.1882 C   0  0  0  0  0  0  0  0  0  0  0  0
   -0.6357   -0.2996   -0.2233 C   0  0  0  0  0  0  0  0  0  0  0  0
    0.0172    0.9405   -0.3065 C   0  0  0  0  0  0  0  0  0  0  0  0
   -0.4007    2.2304   -0.0569 C   0  0  0  0  0  0  0  0  0  0  0  0
   -1.7496    2.2265    0.3561 C   0  0  0  0  0  0  0  0  0  0  0  0
   -2.5123    1.0491    0.4789 C   0  0  0  0  0  0  0  0  0  0  0  0
   -2.5406   -1.1393    0.2813 H   0  0  0  0  0  0  0  0  0  0  0  0
   -0.1555   -1.2500   -0.4601 H   0  0  0  0  0  0  0  0  0  0  0  0
   -2.2613    3.1620    0.6011 H   0  0  0  0  0  0  0  0  0  0  0  0
    1.4590    0.8704   -0.7550 N   0  0  0  0  0  0  0  0  0  0  0  0
    2.5234    0.9761   -1.0712 N   0  0  0  0  0  0  0  0  0  0  0  0
   -3.7990    1.2109    0.8884 O   0  0  0  0  0  0  0  0  0  0  0  0
   -4.6361    0.0663    1.0370 C   0  0  0  0  0  0  0  0  0  0  0  0
   -5.6050    0.4503    1.3700 H   0  0  0  0  0  0  0  0  0  0  0  0
   -4.2365   -0.6243    1.7949 H   0  0  0  0  0  0  0  0  0  0  0  0
   -4.7618   -0.4628    0.0802 H   0  0  0  0  0  0  0  0  0  0  0  0
  1  7  1  0  0  0  0
  1  6  2  0  0  0  0
  2  1  1  0  0  0  0
  3  2  2  0  0  0  0
  3  4  1  0  0  0  0
  4  5  2  0  0  0  0
  5  6  1  0  0  0  0
  5  9  1  0  0  0  0
  6 12  1  0  0  0  0
  8  2  1  0  0  0  0
 10  3  1  0  0  0  0
 11 10  1  0  0  0  0
 12 13  1  0  0  0  0
 13 14  1  0  0  0  0
 13 15  1  0  0  0  0
 16 13  1  0  0  0  0
M  RAD  3   4   2  10   2  11   3
M  END
