Coordinates from ORCA-job 4-CH3O-C6H3-N2-B3LYPG-aug-cc-pVDZ-scan-d09-49-n400
 OpenBabel11091809133D

 16 15  0  0  0  0  0  0  0  0999 V2000
   -2.0353    0.0524    0.2383 C   0  0  0  0  0  0  0  0  0  0  0  0
   -0.6842    0.1499   -0.1670 C   0  0  0  0  0  0  0  0  0  0  0  0
   -0.2658    1.4700   -0.1708 C   0  0  0  0  0  0  0  0  0  0  0  0
   -0.9438    2.4797    0.1323 C   0  0  0  0  0  0  0  0  0  0  0  0
   -2.2629    2.5094    0.5397 C   0  0  0  0  0  0  0  0  0  0  0  0
   -2.8042    1.1935    0.5817 C   0  0  0  0  0  0  0  0  0  0  0  0
   -2.4852   -0.9371    0.2830 H   0  0  0  0  0  0  0  0  0  0  0  0
   -0.0971   -0.7278   -0.4298 H   0  0  0  0  0  0  0  0  0  0  0  0
   -2.8691    3.3724    0.8070 H   0  0  0  0  0  0  0  0  0  0  0  0
    2.9881   -0.3304   -1.3376 N   0  0  0  0  0  0  0  0  0  0  0  0
    3.8635    0.3110   -1.5412 N   0  0  0  0  0  0  0  0  0  0  0  0
   -4.1124    1.1334    0.9773 O   0  0  0  0  0  0  0  0  0  0  0  0
   -4.7491   -0.1377    1.0529 C   0  0  0  0  0  0  0  0  0  0  0  0
   -5.7723    0.0623    1.3857 H   0  0  0  0  0  0  0  0  0  0  0  0
   -4.2477   -0.7921    1.7827 H   0  0  0  0  0  0  0  0  0  0  0  0
   -4.7735   -0.6306    0.0687 H   0  0  0  0  0  0  0  0  0  0  0  0
  1  7  1  0  0  0  0
  1  6  2  0  0  0  0
  2  1  1  0  0  0  0
  3  2  2  0  0  0  0
  3  4  1  0  0  0  0
  4  5  2  0  0  0  0
  5  6  1  0  0  0  0
  5  9  1  0  0  0  0
  6 12  1  0  0  0  0
  8  2  1  0  0  0  0
 11 10  3  0  0  0  0
 12 13  1  0  0  0  0
 13 14  1  0  0  0  0
 13 15  1  0  0  0  0
 16 13  1  0  0  0  0
M  RAD  2   3   2   4   2
M  END
