Coordinates from ORCA-job 4-CH3O-C6H3-N2-B3LYPG-aug-cc-pVDZ-scan-d09-49-n400
 OpenBabel11091809133D

 16 15  0  0  0  0  0  0  0  0999 V2000
   -2.0085   -0.1746    0.2089 C   0  0  0  0  0  0  0  0  0  0  0  0
   -0.6628   -0.2746   -0.2130 C   0  0  0  0  0  0  0  0  0  0  0  0
   -0.0923    0.9759   -0.2699 C   0  0  0  0  0  0  0  0  0  0  0  0
   -0.5776    2.1070   -0.0146 C   0  0  0  0  0  0  0  0  0  0  0  0
   -1.8862    2.2989    0.4046 C   0  0  0  0  0  0  0  0  0  0  0  0
   -2.6050    1.0764    0.5097 C   0  0  0  0  0  0  0  0  0  0  0  0
   -2.5872   -1.0912    0.2999 H   0  0  0  0  0  0  0  0  0  0  0  0
   -0.1900   -1.2265   -0.4476 H   0  0  0  0  0  0  0  0  0  0  0  0
   -2.3720    3.2441    0.6426 H   0  0  0  0  0  0  0  0  0  0  0  0
    2.1254    0.5330   -0.9912 N   0  0  0  0  0  0  0  0  0  0  0  0
    3.0038    1.1716   -1.1988 N   0  0  0  0  0  0  0  0  0  0  0  0
   -3.9028    1.2129    0.9204 O   0  0  0  0  0  0  0  0  0  0  0  0
   -4.7064    0.0464    1.0569 C   0  0  0  0  0  0  0  0  0  0  0  0
   -5.6875    0.3984    1.3908 H   0  0  0  0  0  0  0  0  0  0  0  0
   -4.2884   -0.6405    1.8092 H   0  0  0  0  0  0  0  0  0  0  0  0
   -4.8138   -0.4791    0.0952 H   0  0  0  0  0  0  0  0  0  0  0  0
  1  7  1  0  0  0  0
  1  6  2  0  0  0  0
  2  1  1  0  0  0  0
  3  2  2  0  0  0  0
  3  4  1  0  0  0  0
  4  5  2  0  0  0  0
  5  6  1  0  0  0  0
  5  9  1  0  0  0  0
  6 12  1  0  0  0  0
  8  2  1  0  0  0  0
 11 10  3  0  0  0  0
 12 13  1  0  0  0  0
 13 14  1  0  0  0  0
 13 15  1  0  0  0  0
 16 13  1  0  0  0  0
M  RAD  2   3   2   4   2
M  END
