Coordinates from ORCA-job 4-CH3O-C6H3-N2-B3LYPG-aug-cc-pVDZ-scan-d09-49-n400
 OpenBabel11091809133D

 16 15  0  0  0  0  0  0  0  0999 V2000
   -2.0334    0.0769    0.2401 C   0  0  0  0  0  0  0  0  0  0  0  0
   -0.6833    0.1962   -0.1627 C   0  0  0  0  0  0  0  0  0  0  0  0
   -0.2845    1.5225   -0.1600 C   0  0  0  0  0  0  0  0  0  0  0  0
   -0.9779    2.5205    0.1467 C   0  0  0  0  0  0  0  0  0  0  0  0
   -2.2979    2.5288    0.5523 C   0  0  0  0  0  0  0  0  0  0  0  0
   -2.8196    1.2049    0.5875 C   0  0  0  0  0  0  0  0  0  0  0  0
   -2.4686   -0.9194    0.2797 H   0  0  0  0  0  0  0  0  0  0  0  0
   -0.0831   -0.6717   -0.4286 H   0  0  0  0  0  0  0  0  0  0  0  0
   -2.9172    3.3814    0.8225 H   0  0  0  0  0  0  0  0  0  0  0  0
    3.0304   -0.4064   -1.3573 N   0  0  0  0  0  0  0  0  0  0  0  0
    3.9241    0.2058   -1.5705 N   0  0  0  0  0  0  0  0  0  0  0  0
   -4.1274    1.1235    0.9809 O   0  0  0  0  0  0  0  0  0  0  0  0
   -4.7451   -0.1573    1.0498 C   0  0  0  0  0  0  0  0  0  0  0  0
   -5.7717    0.0260    1.3819 H   0  0  0  0  0  0  0  0  0  0  0  0
   -4.2351   -0.8074    1.7773 H   0  0  0  0  0  0  0  0  0  0  0  0
   -4.7609   -0.6460    0.0633 H   0  0  0  0  0  0  0  0  0  0  0  0
  1  7  1  0  0  0  0
  1  6  2  0  0  0  0
  2  3  2  0  0  0  0
  2  1  1  0  0  0  0
  3  4  1  0  0  0  0
  4  5  2  0  0  0  0
  5  6  1  0  0  0  0
  5  9  1  0  0  0  0
  6 12  1  0  0  0  0
  8  2  1  0  0  0  0
 11 10  3  0  0  0  0
 12 13  1  0  0  0  0
 13 14  1  0  0  0  0
 13 15  1  0  0  0  0
 16 13  1  0  0  0  0
M  RAD  2   3   2   4   2
M  END
