Coordinates from ORCA-job 4-CH3O-C6H3-N2-B3LYPG-aug-cc-pVDZ-scan-d09-49-n400
 OpenBabel11091809133D

 16 15  0  0  0  0  0  0  0  0999 V2000
   -2.0305   -0.1008    0.2228 C   0  0  0  0  0  0  0  0  0  0  0  0
   -0.6805   -0.1384   -0.1943 C   0  0  0  0  0  0  0  0  0  0  0  0
   -0.1433    1.1355   -0.2388 C   0  0  0  0  0  0  0  0  0  0  0  0
   -0.7176    2.2146    0.0388 C   0  0  0  0  0  0  0  0  0  0  0  0
   -2.0255    2.3743    0.4546 C   0  0  0  0  0  0  0  0  0  0  0  0
   -2.6864    1.1164    0.5385 C   0  0  0  0  0  0  0  0  0  0  0  0
   -2.5691   -1.0429    0.2991 H   0  0  0  0  0  0  0  0  0  0  0  0
   -0.1723   -1.0692   -0.4377 H   0  0  0  0  0  0  0  0  0  0  0  0
   -2.5474    3.2966    0.7014 H   0  0  0  0  0  0  0  0  0  0  0  0
    2.5187    0.2526   -1.1377 N   0  0  0  0  0  0  0  0  0  0  0  0
    3.3910    0.8975   -1.3449 N   0  0  0  0  0  0  0  0  0  0  0  0
   -3.9906    1.1894    0.9450 O   0  0  0  0  0  0  0  0  0  0  0  0
   -4.7416   -0.0143    1.0617 C   0  0  0  0  0  0  0  0  0  0  0  0
   -5.7387    0.2890    1.3957 H   0  0  0  0  0  0  0  0  0  0  0  0
   -4.2959   -0.6917    1.8065 H   0  0  0  0  0  0  0  0  0  0  0  0
   -4.8211   -0.5302    0.0923 H   0  0  0  0  0  0  0  0  0  0  0  0
  1  7  1  0  0  0  0
  1  6  2  0  0  0  0
  2  1  1  0  0  0  0
  3  2  2  0  0  0  0
  3  4  1  0  0  0  0
  4  5  2  0  0  0  0
  5  6  1  0  0  0  0
  5  9  1  0  0  0  0
  6 12  1  0  0  0  0
  8  2  1  0  0  0  0
 11 10  3  0  0  0  0
 12 13  1  0  0  0  0
 13 14  1  0  0  0  0
 13 15  1  0  0  0  0
 16 13  1  0  0  0  0
M  RAD  2   3   2   4   2
M  END
