Coordinates from ORCA-job 4-CH3O-C6H3-N2-B3LYPG-aug-cc-pVDZ-scan-d09-49-n400
 OpenBabel11091809133D

 16 16  0  0  0  0  0  0  0  0999 V2000
   -1.9265   -0.2173    0.1797 C   0  0  0  0  0  0  0  0  0  0  0  0
   -0.6206   -0.2750   -0.2265 C   0  0  0  0  0  0  0  0  0  0  0  0
    0.1308    0.9501   -0.3430 C   0  0  0  0  0  0  0  0  0  0  0  0
   -0.3934    2.2972   -0.0533 C   0  0  0  0  0  0  0  0  0  0  0  0
   -1.7375    2.2331    0.3529 C   0  0  0  0  0  0  0  0  0  0  0  0
   -2.4957    1.0588    0.4745 C   0  0  0  0  0  0  0  0  0  0  0  0
   -2.5023   -1.1340    0.2704 H   0  0  0  0  0  0  0  0  0  0  0  0
   -0.1487   -1.2316   -0.4609 H   0  0  0  0  0  0  0  0  0  0  0  0
   -2.2573    3.1641    0.6002 H   0  0  0  0  0  0  0  0  0  0  0  0
    1.2665    0.8829   -0.6946 N   0  0  0  0  0  0  0  0  0  0  0  0
    2.3498    0.8545   -1.0266 N   0  0  0  0  0  0  0  0  0  0  0  0
   -3.7747    1.2043    0.8806 O   0  0  0  0  0  0  0  0  0  0  0  0
   -4.6131    0.0543    1.0291 C   0  0  0  0  0  0  0  0  0  0  0  0
   -5.5805    0.4404    1.3623 H   0  0  0  0  0  0  0  0  0  0  0  0
   -4.2109   -0.6328    1.7873 H   0  0  0  0  0  0  0  0  0  0  0  0
   -4.7372   -0.4707    0.0711 H   0  0  0  0  0  0  0  0  0  0  0  0
  1  7  1  0  0  0  0
  1  6  2  0  0  0  0
  2  1  1  0  0  0  0
  3  2  2  0  0  0  0
  3  4  1  0  0  0  0
  4  5  2  0  0  0  0
  5  6  1  0  0  0  0
  5  9  1  0  0  0  0
  6 12  1  0  0  0  0
  8  2  1  0  0  0  0
 10  3  1  0  0  0  0
 11 10  1  0  0  0  0
 12 13  1  0  0  0  0
 13 14  1  0  0  0  0
 13 15  1  0  0  0  0
 16 13  1  0  0  0  0
M  RAD  3   4   2  10   2  11   3
M  END
