Coordinates from ORCA-job 4-CH3O-C6H3-N2-B3LYPG-aug-cc-pVDZ-scan-d09-49-n400
 OpenBabel11091809133D

 16 16  0  0  0  0  0  0  0  0999 V2000
   -1.9167   -0.2152    0.1774 C   0  0  0  0  0  0  0  0  0  0  0  0
   -0.6158   -0.2701   -0.2262 C   0  0  0  0  0  0  0  0  0  0  0  0
    0.2021    0.9292   -0.3632 C   0  0  0  0  0  0  0  0  0  0  0  0
   -0.3923    2.3171   -0.0511 C   0  0  0  0  0  0  0  0  0  0  0  0
   -1.7291    2.2287    0.3502 C   0  0  0  0  0  0  0  0  0  0  0  0
   -2.4912    1.0571    0.4733 C   0  0  0  0  0  0  0  0  0  0  0  0
   -2.4877   -1.1353    0.2654 H   0  0  0  0  0  0  0  0  0  0  0  0
   -0.1419   -1.2261   -0.4618 H   0  0  0  0  0  0  0  0  0  0  0  0
   -2.2446    3.1627    0.5960 H   0  0  0  0  0  0  0  0  0  0  0  0
    1.1745    0.8760   -0.6673 N   0  0  0  0  0  0  0  0  0  0  0  0
    2.2763    0.8552   -1.0083 N   0  0  0  0  0  0  0  0  0  0  0  0
   -3.7648    1.2031    0.8771 O   0  0  0  0  0  0  0  0  0  0  0  0
   -4.6081    0.0535    1.0270 C   0  0  0  0  0  0  0  0  0  0  0  0
   -5.5737    0.4441    1.3595 H   0  0  0  0  0  0  0  0  0  0  0  0
   -4.2061   -0.6317    1.7863 H   0  0  0  0  0  0  0  0  0  0  0  0
   -4.7319   -0.4699    0.0688 H   0  0  0  0  0  0  0  0  0  0  0  0
  1  7  1  0  0  0  0
  1  6  2  0  0  0  0
  2  1  1  0  0  0  0
  3  2  2  0  0  0  0
  3  4  1  0  0  0  0
  4  5  2  0  0  0  0
  5  6  1  0  0  0  0
  5  9  1  0  0  0  0
  6 12  1  0  0  0  0
  8  2  1  0  0  0  0
 10  3  1  0  0  0  0
 11 10  1  0  0  0  0
 12 13  1  0  0  0  0
 13 14  1  0  0  0  0
 13 15  1  0  0  0  0
 16 13  1  0  0  0  0
M  RAD  3   4   2  10   2  11   3
M  END
