Coordinates from ORCA-job 4-CH3O-C6H3-N2-B3LYPG-aug-cc-pVDZ-scan-d09-49-n400
 OpenBabel11091809133D

 16 16  0  0  0  0  0  0  0  0999 V2000
   -1.9531   -0.2263    0.1873 C   0  0  0  0  0  0  0  0  0  0  0  0
   -0.6344   -0.2953   -0.2233 C   0  0  0  0  0  0  0  0  0  0  0  0
    0.0284    0.9449   -0.3096 C   0  0  0  0  0  0  0  0  0  0  0  0
   -0.4008    2.2428   -0.0557 C   0  0  0  0  0  0  0  0  0  0  0  0
   -1.7499    2.2287    0.3564 C   0  0  0  0  0  0  0  0  0  0  0  0
   -2.5108    1.0511    0.4786 C   0  0  0  0  0  0  0  0  0  0  0  0
   -2.5362   -1.1381    0.2800 H   0  0  0  0  0  0  0  0  0  0  0  0
   -0.1554   -1.2465   -0.4598 H   0  0  0  0  0  0  0  0  0  0  0  0
   -2.2646    3.1624    0.6022 H   0  0  0  0  0  0  0  0  0  0  0  0
    1.4417    0.8794   -0.7488 N   0  0  0  0  0  0  0  0  0  0  0  0
    2.5090    0.9461   -1.0696 N   0  0  0  0  0  0  0  0  0  0  0  0
   -3.7969    1.2095    0.8876 O   0  0  0  0  0  0  0  0  0  0  0  0
   -4.6335    0.0637    1.0359 C   0  0  0  0  0  0  0  0  0  0  0  0
   -5.6024    0.4474    1.3689 H   0  0  0  0  0  0  0  0  0  0  0  0
   -4.2334   -0.6265    1.7939 H   0  0  0  0  0  0  0  0  0  0  0  0
   -4.7588   -0.4649    0.0790 H   0  0  0  0  0  0  0  0  0  0  0  0
  1  7  1  0  0  0  0
  1  6  2  0  0  0  0
  2  1  1  0  0  0  0
  3  2  2  0  0  0  0
  3  4  1  0  0  0  0
  4  5  2  0  0  0  0
  5  6  1  0  0  0  0
  5  9  1  0  0  0  0
  6 12  1  0  0  0  0
  8  2  1  0  0  0  0
 10  3  1  0  0  0  0
 11 10  1  0  0  0  0
 12 13  1  0  0  0  0
 13 14  1  0  0  0  0
 13 15  1  0  0  0  0
 16 13  1  0  0  0  0
M  RAD  3   4   2  10   2  11   3
M  END
