Coordinates from ORCA-job 4-CH3O-C6H3-N2-B3LYPG-aug-cc-pVDZ-scan-d09-49-n400
 OpenBabel11091809133D

 16 15  0  0  0  0  0  0  0  0999 V2000
   -2.0162    0.2430    0.2511 C   0  0  0  0  0  0  0  0  0  0  0  0
   -0.6817    0.5071   -0.1330 C   0  0  0  0  0  0  0  0  0  0  0  0
   -0.4115    1.8660   -0.0880 C   0  0  0  0  0  0  0  0  0  0  0  0
   -1.2077    2.7761    0.2416 C   0  0  0  0  0  0  0  0  0  0  0  0
   -2.5249    2.6455    0.6329 C   0  0  0  0  0  0  0  0  0  0  0  0
   -2.9135    1.2763    0.6232 C   0  0  0  0  0  0  0  0  0  0  0  0
   -2.3506   -0.7922    0.2562 H   0  0  0  0  0  0  0  0  0  0  0  0
   -0.0003   -0.2928   -0.4170 H   0  0  0  0  0  0  0  0  0  0  0  0
   -3.2265    3.4252    0.9212 H   0  0  0  0  0  0  0  0  0  0  0  0
    3.2668   -0.9055   -1.4745 N   0  0  0  0  0  0  0  0  0  0  0  0
    4.2533   -0.4867   -1.7407 N   0  0  0  0  0  0  0  0  0  0  0  0
   -4.2099    1.0541    0.9995 O   0  0  0  0  0  0  0  0  0  0  0  0
   -4.6982   -0.2831    1.0230 C   0  0  0  0  0  0  0  0  0  0  0  0
   -5.7406   -0.2125    1.3489 H   0  0  0  0  0  0  0  0  0  0  0  0
   -4.1322   -0.9018    1.7365 H   0  0  0  0  0  0  0  0  0  0  0  0
   -4.6572   -0.7402    0.0222 H   0  0  0  0  0  0  0  0  0  0  0  0
  1  7  1  0  0  0  0
  1  6  2  0  0  0  0
  2  3  2  0  0  0  0
  2  1  1  0  0  0  0
  3  4  1  0  0  0  0
  4  5  2  0  0  0  0
  5  9  1  0  0  0  0
  6  5  1  0  0  0  0
  6 12  1  0  0  0  0
  8  2  1  0  0  0  0
 11 10  3  0  0  0  0
 12 13  1  0  0  0  0
 13 14  1  0  0  0  0
 13 15  1  0  0  0  0
 16 13  1  0  0  0  0
M  RAD  2   3   2   4   2
M  END
