Coordinates from ORCA-job 4-CH3O-C6H3-N2-B3LYPG-aug-cc-pVDZ-scan-d09-49-n400
 OpenBabel11091809133D

 16 15  0  0  0  0  0  0  0  0999 V2000
   -2.0160   -0.1548    0.2132 C   0  0  0  0  0  0  0  0  0  0  0  0
   -0.6685   -0.2394   -0.2078 C   0  0  0  0  0  0  0  0  0  0  0  0
   -0.1082    1.0179   -0.2610 C   0  0  0  0  0  0  0  0  0  0  0  0
   -0.6182    2.1345    0.0006 C   0  0  0  0  0  0  0  0  0  0  0  0
   -1.9260    2.3205    0.4189 C   0  0  0  0  0  0  0  0  0  0  0  0
   -2.6288    1.0874    0.5181 C   0  0  0  0  0  0  0  0  0  0  0  0
   -2.5845   -1.0781    0.3004 H   0  0  0  0  0  0  0  0  0  0  0  0
   -0.1880   -1.1867   -0.4443 H   0  0  0  0  0  0  0  0  0  0  0  0
   -2.4214    3.2597    0.6592 H   0  0  0  0  0  0  0  0  0  0  0  0
    2.2419    0.4676   -1.0329 N   0  0  0  0  0  0  0  0  0  0  0  0
    3.1282    1.0925   -1.2450 N   0  0  0  0  0  0  0  0  0  0  0  0
   -3.9287    1.2067    0.9277 O   0  0  0  0  0  0  0  0  0  0  0  0
   -4.7182    0.0298    1.0588 C   0  0  0  0  0  0  0  0  0  0  0  0
   -5.7039    0.3687    1.3928 H   0  0  0  0  0  0  0  0  0  0  0  0
   -4.2927   -0.6546    1.8091 H   0  0  0  0  0  0  0  0  0  0  0  0
   -4.8180   -0.4932    0.0950 H   0  0  0  0  0  0  0  0  0  0  0  0
  1  7  1  0  0  0  0
  1  6  2  0  0  0  0
  2  1  1  0  0  0  0
  3  2  2  0  0  0  0
  3  4  1  0  0  0  0
  4  5  2  0  0  0  0
  5  6  1  0  0  0  0
  5  9  1  0  0  0  0
  6 12  1  0  0  0  0
  8  2  1  0  0  0  0
 11 10  3  0  0  0  0
 12 13  1  0  0  0  0
 13 14  1  0  0  0  0
 13 15  1  0  0  0  0
 16 13  1  0  0  0  0
M  RAD  2   3   2   4   2
M  END
