Coordinates from ORCA-job 4-CH3O-C6H3-N2-B3LYPG-aug-cc-pVDZ-scan-d09-49-n400
 OpenBabel11091809133D

 16 15  0  0  0  0  0  0  0  0999 V2000
   -2.0337   -0.0809    0.2256 C   0  0  0  0  0  0  0  0  0  0  0  0
   -0.6831   -0.1009   -0.1901 C   0  0  0  0  0  0  0  0  0  0  0  0
   -0.1589    1.1795   -0.2300 C   0  0  0  0  0  0  0  0  0  0  0  0
   -0.7499    2.2483    0.0518 C   0  0  0  0  0  0  0  0  0  0  0  0
   -2.0593    2.3933    0.4667 C   0  0  0  0  0  0  0  0  0  0  0  0
   -2.7049    1.1270    0.5452 C   0  0  0  0  0  0  0  0  0  0  0  0
   -2.5611   -1.0296    0.2978 H   0  0  0  0  0  0  0  0  0  0  0  0
   -0.1645   -1.0252   -0.4361 H   0  0  0  0  0  0  0  0  0  0  0  0
   -2.5920    3.3085    0.7162 H   0  0  0  0  0  0  0  0  0  0  0  0
    2.6087    0.1638   -1.1738 N   0  0  0  0  0  0  0  0  0  0  0  0
    3.4656    0.8311   -1.3736 N   0  0  0  0  0  0  0  0  0  0  0  0
   -4.0103    1.1828    0.9504 O   0  0  0  0  0  0  0  0  0  0  0  0
   -4.7469   -0.0304    1.0618 C   0  0  0  0  0  0  0  0  0  0  0  0
   -5.7479    0.2598    1.3959 H   0  0  0  0  0  0  0  0  0  0  0  0
   -4.2938   -0.7051    1.8047 H   0  0  0  0  0  0  0  0  0  0  0  0
   -4.8191   -0.5436    0.0905 H   0  0  0  0  0  0  0  0  0  0  0  0
  1  7  1  0  0  0  0
  1  6  2  0  0  0  0
  2  1  1  0  0  0  0
  3  2  2  0  0  0  0
  3  4  1  0  0  0  0
  4  5  2  0  0  0  0
  5  6  1  0  0  0  0
  5  9  1  0  0  0  0
  6 12  1  0  0  0  0
  8  2  1  0  0  0  0
 11 10  3  0  0  0  0
 12 13  1  0  0  0  0
 13 14  1  0  0  0  0
 13 15  1  0  0  0  0
 16 13  1  0  0  0  0
M  RAD  2   3   2   4   2
M  END
