Coordinates from ORCA-job 4-CH3O-C6H3-N2-B3LYPG-aug-cc-pVDZ-scan-d09-49-n400
 OpenBabel11091809133D

 16 15  0  0  0  0  0  0  0  0999 V2000
   -1.9923   -0.2056    0.2013 C   0  0  0  0  0  0  0  0  0  0  0  0
   -0.6518   -0.3191   -0.2200 C   0  0  0  0  0  0  0  0  0  0  0  0
   -0.0608    0.9201   -0.2843 C   0  0  0  0  0  0  0  0  0  0  0  0
   -0.5016    2.0829   -0.0395 C   0  0  0  0  0  0  0  0  0  0  0  0
   -1.8177    2.2605    0.3803 C   0  0  0  0  0  0  0  0  0  0  0  0
   -2.5633    1.0586    0.4954 C   0  0  0  0  0  0  0  0  0  0  0  0
   -2.5829   -1.1137    0.2966 H   0  0  0  0  0  0  0  0  0  0  0  0
   -0.1811   -1.2733   -0.4541 H   0  0  0  0  0  0  0  0  0  0  0  0
   -2.2932    3.2129    0.6158 H   0  0  0  0  0  0  0  0  0  0  0  0
    1.8857    0.6398   -0.9073 N   0  0  0  0  0  0  0  0  0  0  0  0
    2.7790    1.2595   -1.1238 N   0  0  0  0  0  0  0  0  0  0  0  0
   -3.8571    1.2212    0.9071 O   0  0  0  0  0  0  0  0  0  0  0  0
   -4.6818    0.0706    1.0513 C   0  0  0  0  0  0  0  0  0  0  0  0
   -5.6559    0.4421    1.3846 H   0  0  0  0  0  0  0  0  0  0  0  0
   -4.2755   -0.6198    1.8068 H   0  0  0  0  0  0  0  0  0  0  0  0
   -4.8005   -0.4583    0.0928 H   0  0  0  0  0  0  0  0  0  0  0  0
  1  7  1  0  0  0  0
  1  6  2  0  0  0  0
  2  1  1  0  0  0  0
  3  2  2  0  0  0  0
  3  4  1  0  0  0  0
  4  5  2  0  0  0  0
  5  6  1  0  0  0  0
  5  9  1  0  0  0  0
  6 12  1  0  0  0  0
  8  2  1  0  0  0  0
 11 10  3  0  0  0  0
 12 13  1  0  0  0  0
 13 14  1  0  0  0  0
 13 15  1  0  0  0  0
 16 13  1  0  0  0  0
M  RAD  2   3   2   4   2
M  END
