Coordinates from ORCA-job 4-CH3O-C6H3-N2-B3LYPG-aug-cc-pVDZ-scan-d09-49-n400
 OpenBabel11091809133D

 16 16  0  0  0  0  0  0  0  0999 V2000
   -1.9352   -0.2197    0.1823 C   0  0  0  0  0  0  0  0  0  0  0  0
   -0.6253   -0.2808   -0.2247 C   0  0  0  0  0  0  0  0  0  0  0  0
    0.0921    0.9530   -0.3281 C   0  0  0  0  0  0  0  0  0  0  0  0
   -0.3966    2.2827   -0.0532 C   0  0  0  0  0  0  0  0  0  0  0  0
   -1.7436    2.2340    0.3549 C   0  0  0  0  0  0  0  0  0  0  0  0
   -2.5006    1.0577    0.4760 C   0  0  0  0  0  0  0  0  0  0  0  0
   -2.5144   -1.1342    0.2736 H   0  0  0  0  0  0  0  0  0  0  0  0
   -0.1522   -1.2362   -0.4598 H   0  0  0  0  0  0  0  0  0  0  0  0
   -2.2643    3.1643    0.6022 H   0  0  0  0  0  0  0  0  0  0  0  0
    1.3328    0.8885   -0.7145 N   0  0  0  0  0  0  0  0  0  0  0  0
    2.4080    0.8690   -1.0460 N   0  0  0  0  0  0  0  0  0  0  0  0
   -3.7828    1.2054    0.8829 O   0  0  0  0  0  0  0  0  0  0  0  0
   -4.6195    0.0561    1.0310 C   0  0  0  0  0  0  0  0  0  0  0  0
   -5.5879    0.4406    1.3639 H   0  0  0  0  0  0  0  0  0  0  0  0
   -4.2179   -0.6319    1.7892 H   0  0  0  0  0  0  0  0  0  0  0  0
   -4.7436   -0.4703    0.0734 H   0  0  0  0  0  0  0  0  0  0  0  0
  1  7  1  0  0  0  0
  1  6  2  0  0  0  0
  2  1  1  0  0  0  0
  3  2  2  0  0  0  0
  3  4  1  0  0  0  0
  4  5  2  0  0  0  0
  5  6  1  0  0  0  0
  5  9  1  0  0  0  0
  6 12  1  0  0  0  0
  8  2  1  0  0  0  0
 10  3  1  0  0  0  0
 11 10  1  0  0  0  0
 12 13  1  0  0  0  0
 13 14  1  0  0  0  0
 13 15  1  0  0  0  0
 16 13  1  0  0  0  0
M  RAD  3   4   2  10   2  11   3
M  END
