Coordinates from ORCA-job 4-CH3O-C6H3-N2-B3LYPG-aug-cc-pVDZ-scan-d09-49-n400
 OpenBabel11091809133D

 16 16  0  0  0  0  0  0  0  0999 V2000
   -1.9633   -0.2313    0.1899 C   0  0  0  0  0  0  0  0  0  0  0  0
   -0.6387   -0.3093   -0.2234 C   0  0  0  0  0  0  0  0  0  0  0  0
   -0.0005    0.9295   -0.3022 C   0  0  0  0  0  0  0  0  0  0  0  0
   -0.4025    2.2022   -0.0590 C   0  0  0  0  0  0  0  0  0  0  0  0
   -1.7498    2.2226    0.3558 C   0  0  0  0  0  0  0  0  0  0  0  0
   -2.5157    1.0455    0.4795 C   0  0  0  0  0  0  0  0  0  0  0  0
   -2.5496   -1.1410    0.2838 H   0  0  0  0  0  0  0  0  0  0  0  0
   -0.1575   -1.2591   -0.4604 H   0  0  0  0  0  0  0  0  0  0  0  0
   -2.2544    3.1621    0.5989 H   0  0  0  0  0  0  0  0  0  0  0  0
    1.4978    0.8456   -0.7692 N   0  0  0  0  0  0  0  0  0  0  0  0
    2.5508    1.0469   -1.0728 N   0  0  0  0  0  0  0  0  0  0  0  0
   -3.8032    1.2140    0.8900 O   0  0  0  0  0  0  0  0  0  0  0  0
   -4.6419    0.0718    1.0393 C   0  0  0  0  0  0  0  0  0  0  0  0
   -5.6104    0.4569    1.3724 H   0  0  0  0  0  0  0  0  0  0  0  0
   -4.2434   -0.6197    1.7973 H   0  0  0  0  0  0  0  0  0  0  0  0
   -4.7687   -0.4582    0.0830 H   0  0  0  0  0  0  0  0  0  0  0  0
  1  7  1  0  0  0  0
  1  6  2  0  0  0  0
  2  1  1  0  0  0  0
  3  2  2  0  0  0  0
  3  4  1  0  0  0  0
  4  5  2  0  0  0  0
  5  6  1  0  0  0  0
  5  9  1  0  0  0  0
  6 12  1  0  0  0  0
  8  2  1  0  0  0  0
 10  3  1  0  0  0  0
 11 10  1  0  0  0  0
 12 13  1  0  0  0  0
 13 14  1  0  0  0  0
 13 15  1  0  0  0  0
 16 13  1  0  0  0  0
M  RAD  3   4   2  10   2  11   3
M  END
