Coordinates from ORCA-job 4-CH3O-C6H3-N2-B3LYPG-aug-cc-pVDZ-scan-d09-49-n400
 OpenBabel11091809133D

 16 16  0  0  0  0  0  0  0  0999 V2000
   -1.9169   -0.2154    0.1771 C   0  0  0  0  0  0  0  0  0  0  0  0
   -0.6155   -0.2707   -0.2272 C   0  0  0  0  0  0  0  0  0  0  0  0
    0.1948    0.9324   -0.3627 C   0  0  0  0  0  0  0  0  0  0  0  0
   -0.3911    2.3146   -0.0521 C   0  0  0  0  0  0  0  0  0  0  0  0
   -1.7290    2.2292    0.3500 C   0  0  0  0  0  0  0  0  0  0  0  0
   -2.4906    1.0575    0.4729 C   0  0  0  0  0  0  0  0  0  0  0  0
   -2.4884   -1.1351    0.2658 H   0  0  0  0  0  0  0  0  0  0  0  0
   -0.1423   -1.2271   -0.4621 H   0  0  0  0  0  0  0  0  0  0  0  0
   -2.2449    3.1628    0.5962 H   0  0  0  0  0  0  0  0  0  0  0  0
    1.1772    0.8768   -0.6680 N   0  0  0  0  0  0  0  0  0  0  0  0
    2.2776    0.8543   -1.0061 N   0  0  0  0  0  0  0  0  0  0  0  0
   -3.7647    1.2033    0.8773 O   0  0  0  0  0  0  0  0  0  0  0  0
   -4.6074    0.0537    1.0271 C   0  0  0  0  0  0  0  0  0  0  0  0
   -5.5731    0.4437    1.3599 H   0  0  0  0  0  0  0  0  0  0  0  0
   -4.2052   -0.6318    1.7861 H   0  0  0  0  0  0  0  0  0  0  0  0
   -4.7315   -0.4699    0.0689 H   0  0  0  0  0  0  0  0  0  0  0  0
  1  7  1  0  0  0  0
  1  6  2  0  0  0  0
  2  1  1  0  0  0  0
  3  2  2  0  0  0  0
  3  4  1  0  0  0  0
  4  5  2  0  0  0  0
  5  6  1  0  0  0  0
  5  9  1  0  0  0  0
  6 12  1  0  0  0  0
  8  2  1  0  0  0  0
 10  3  1  0  0  0  0
 11 10  1  0  0  0  0
 12 13  1  0  0  0  0
 13 14  1  0  0  0  0
 13 15  1  0  0  0  0
 16 13  1  0  0  0  0
M  RAD  3   4   2  10   2  11   3
M  END
