Coordinates from ORCA-job 4-CH3O-C6H3-N2-B3LYPG-aug-cc-pVDZ-scan-d09-49-n400
 OpenBabel11091809133D

 16 15  0  0  0  0  0  0  0  0999 V2000
   -2.0137   -0.1611    0.2119 C   0  0  0  0  0  0  0  0  0  0  0  0
   -0.6667   -0.2508   -0.2094 C   0  0  0  0  0  0  0  0  0  0  0  0
   -0.1033    1.0044   -0.2638 C   0  0  0  0  0  0  0  0  0  0  0  0
   -0.6055    2.1255   -0.0042 C   0  0  0  0  0  0  0  0  0  0  0  0
   -1.9135    2.3137    0.4144 C   0  0  0  0  0  0  0  0  0  0  0  0
   -2.6213    1.0838    0.5154 C   0  0  0  0  0  0  0  0  0  0  0  0
   -2.5855   -1.0823    0.3003 H   0  0  0  0  0  0  0  0  0  0  0  0
   -0.1887   -1.1996   -0.4454 H   0  0  0  0  0  0  0  0  0  0  0  0
   -2.4058    3.2548    0.6540 H   0  0  0  0  0  0  0  0  0  0  0  0
    2.2059    0.4887   -1.0199 N   0  0  0  0  0  0  0  0  0  0  0  0
    3.0897    1.1179   -1.2306 N   0  0  0  0  0  0  0  0  0  0  0  0
   -3.9206    1.2087    0.9254 O   0  0  0  0  0  0  0  0  0  0  0  0
   -4.7147    0.0351    1.0583 C   0  0  0  0  0  0  0  0  0  0  0  0
   -5.6989    0.3783    1.3922 H   0  0  0  0  0  0  0  0  0  0  0  0
   -4.2916   -0.6501    1.8092 H   0  0  0  0  0  0  0  0  0  0  0  0
   -4.8169   -0.4887    0.0951 H   0  0  0  0  0  0  0  0  0  0  0  0
  1  7  1  0  0  0  0
  1  6  2  0  0  0  0
  2  1  1  0  0  0  0
  3  2  2  0  0  0  0
  3  4  1  0  0  0  0
  4  5  2  0  0  0  0
  5  6  1  0  0  0  0
  5  9  1  0  0  0  0
  6 12  1  0  0  0  0
  8  2  1  0  0  0  0
 11 10  3  0  0  0  0
 12 13  1  0  0  0  0
 13 14  1  0  0  0  0
 13 15  1  0  0  0  0
 16 13  1  0  0  0  0
M  RAD  2   3   2   4   2
M  END
