Coordinates from ORCA-job 4-CH3O-C6H3-N2-B3LYPG-aug-cc-pVDZ-scan-d09-49-n400
 OpenBabel11091809133D

 16 15  0  0  0  0  0  0  0  0999 V2000
   -2.0218    0.1759    0.2464 C   0  0  0  0  0  0  0  0  0  0  0  0
   -0.6793    0.3822   -0.1455 C   0  0  0  0  0  0  0  0  0  0  0  0
   -0.3560    1.7297   -0.1178 C   0  0  0  0  0  0  0  0  0  0  0  0
   -1.1135    2.6753    0.2033 C   0  0  0  0  0  0  0  0  0  0  0  0
   -2.4333    2.6012    0.6006 C   0  0  0  0  0  0  0  0  0  0  0  0
   -2.8759    1.2484    0.6090 C   0  0  0  0  0  0  0  0  0  0  0  0
   -2.3969   -0.8451    0.2653 H   0  0  0  0  0  0  0  0  0  0  0  0
   -0.0307   -0.4469   -0.4222 H   0  0  0  0  0  0  0  0  0  0  0  0
   -3.1026    3.4113    0.8819 H   0  0  0  0  0  0  0  0  0  0  0  0
    3.1681   -0.7057   -1.4254 N   0  0  0  0  0  0  0  0  0  0  0  0
    4.1218   -0.2079   -1.6741 N   0  0  0  0  0  0  0  0  0  0  0  0
   -4.1785    1.0824    0.9925 O   0  0  0  0  0  0  0  0  0  0  0  0
   -4.7194   -0.2340    1.0341 C   0  0  0  0  0  0  0  0  0  0  0  0
   -5.7569   -0.1181    1.3628 H   0  0  0  0  0  0  0  0  0  0  0  0
   -4.1755   -0.8659    1.7532 H   0  0  0  0  0  0  0  0  0  0  0  0
   -4.7006   -0.7045    0.0389 H   0  0  0  0  0  0  0  0  0  0  0  0
  1  7  1  0  0  0  0
  1  6  2  0  0  0  0
  2  3  2  0  0  0  0
  2  1  1  0  0  0  0
  3  4  1  0  0  0  0
  4  5  2  0  0  0  0
  5  6  1  0  0  0  0
  5  9  1  0  0  0  0
  6 12  1  0  0  0  0
  8  2  1  0  0  0  0
 11 10  3  0  0  0  0
 12 13  1  0  0  0  0
 13 14  1  0  0  0  0
 13 15  1  0  0  0  0
 16 13  1  0  0  0  0
M  RAD  2   3   2   4   2
M  END
