Coordinates from ORCA-job 4-CH3O-C6H3-N2-B3LYPG-aug-cc-pVDZ-scan-d09-49-n400
 OpenBabel11091809133D

 16 15  0  0  0  0  0  0  0  0999 V2000
   -2.0201    0.2000    0.2482 C   0  0  0  0  0  0  0  0  0  0  0  0
   -0.6802    0.4270   -0.1410 C   0  0  0  0  0  0  0  0  0  0  0  0
   -0.3757    1.7789   -0.1072 C   0  0  0  0  0  0  0  0  0  0  0  0
   -1.1475    2.7117    0.2171 C   0  0  0  0  0  0  0  0  0  0  0  0
   -2.4665    2.6175    0.6124 C   0  0  0  0  0  0  0  0  0  0  0  0
   -2.8899    1.2585    0.6142 C   0  0  0  0  0  0  0  0  0  0  0  0
   -2.3807   -0.8263    0.2621 H   0  0  0  0  0  0  0  0  0  0  0  0
   -0.0198   -0.3919   -0.4204 H   0  0  0  0  0  0  0  0  0  0  0  0
   -3.1475    3.4170    0.8962 H   0  0  0  0  0  0  0  0  0  0  0  0
    3.2062   -0.7777   -1.4439 N   0  0  0  0  0  0  0  0  0  0  0  0
    4.1726   -0.3085   -1.6991 N   0  0  0  0  0  0  0  0  0  0  0  0
   -4.1905    1.0724    0.9952 O   0  0  0  0  0  0  0  0  0  0  0  0
   -4.7126   -0.2517    1.0304 C   0  0  0  0  0  0  0  0  0  0  0  0
   -5.7521   -0.1520    1.3582 H   0  0  0  0  0  0  0  0  0  0  0  0
   -4.1608   -0.8790    1.7475 H   0  0  0  0  0  0  0  0  0  0  0  0
   -4.6858   -0.7175    0.0332 H   0  0  0  0  0  0  0  0  0  0  0  0
  1  7  1  0  0  0  0
  1  6  2  0  0  0  0
  2  3  2  0  0  0  0
  2  1  1  0  0  0  0
  3  4  1  0  0  0  0
  4  5  2  0  0  0  0
  5  6  1  0  0  0  0
  5  9  1  0  0  0  0
  6 12  1  0  0  0  0
  8  2  1  0  0  0  0
 11 10  3  0  0  0  0
 12 13  1  0  0  0  0
 13 14  1  0  0  0  0
 13 15  1  0  0  0  0
 16 13  1  0  0  0  0
M  RAD  2   3   2   4   2
M  END
