Coordinates from ORCA-job 4-CH3O-C6H3-N2-B3LYPG-aug-cc-pVDZ-scan-d09-49-n400
 OpenBabel11091809133D

 16 15  0  0  0  0  0  0  0  0999 V2000
   -2.0321   -0.0916    0.2242 C   0  0  0  0  0  0  0  0  0  0  0  0
   -0.6818   -0.1210   -0.1923 C   0  0  0  0  0  0  0  0  0  0  0  0
   -0.1504    1.1559   -0.2348 C   0  0  0  0  0  0  0  0  0  0  0  0
   -0.7327    2.2300    0.0449 C   0  0  0  0  0  0  0  0  0  0  0  0
   -2.0413    2.3832    0.4602 C   0  0  0  0  0  0  0  0  0  0  0  0
   -2.6951    1.1213    0.5416 C   0  0  0  0  0  0  0  0  0  0  0  0
   -2.5655   -1.0367    0.2985 H   0  0  0  0  0  0  0  0  0  0  0  0
   -0.1688   -1.0489   -0.4369 H   0  0  0  0  0  0  0  0  0  0  0  0
   -2.5681    3.3022    0.7083 H   0  0  0  0  0  0  0  0  0  0  0  0
    2.5613    0.2111   -1.1547 N   0  0  0  0  0  0  0  0  0  0  0  0
    3.4260    0.8671   -1.3583 N   0  0  0  0  0  0  0  0  0  0  0  0
   -3.9999    1.1864    0.9475 O   0  0  0  0  0  0  0  0  0  0  0  0
   -4.7442   -0.0218    1.0618 C   0  0  0  0  0  0  0  0  0  0  0  0
   -5.7431    0.2755    1.3959 H   0  0  0  0  0  0  0  0  0  0  0  0
   -4.2951   -0.6979    1.8057 H   0  0  0  0  0  0  0  0  0  0  0  0
   -4.8203   -0.5364    0.0915 H   0  0  0  0  0  0  0  0  0  0  0  0
  1  7  1  0  0  0  0
  1  6  2  0  0  0  0
  2  1  1  0  0  0  0
  3  2  2  0  0  0  0
  3  4  1  0  0  0  0
  4  5  2  0  0  0  0
  5  6  1  0  0  0  0
  5  9  1  0  0  0  0
  6 12  1  0  0  0  0
  8  2  1  0  0  0  0
 11 10  3  0  0  0  0
 12 13  1  0  0  0  0
 13 14  1  0  0  0  0
 13 15  1  0  0  0  0
 16 13  1  0  0  0  0
M  RAD  2   3   2   4   2
M  END
