Coordinates from ORCA-job 4-CH3O-C6H3-N2-B3LYPG-aug-cc-pVDZ-scan-d09-49-n400
 OpenBabel11091809133D

 16 15  0  0  0  0  0  0  0  0999 V2000
   -2.0366    0.0156    0.2354 C   0  0  0  0  0  0  0  0  0  0  0  0
   -0.6845    0.0803   -0.1731 C   0  0  0  0  0  0  0  0  0  0  0  0
   -0.2361    1.3905   -0.1871 C   0  0  0  0  0  0  0  0  0  0  0  0
   -0.8914    2.4166    0.1106 C   0  0  0  0  0  0  0  0  0  0  0  0
   -2.2085    2.4792    0.5203 C   0  0  0  0  0  0  0  0  0  0  0  0
   -2.7790    1.1760    0.5724 C   0  0  0  0  0  0  0  0  0  0  0  0
   -2.5084   -0.9632    0.2877 H   0  0  0  0  0  0  0  0  0  0  0  0
   -0.1173   -0.8119   -0.4311 H   0  0  0  0  0  0  0  0  0  0  0  0
   -2.7945    3.3573    0.7828 H   0  0  0  0  0  0  0  0  0  0  0  0
    2.9130   -0.2154   -1.3033 N   0  0  0  0  0  0  0  0  0  0  0  0
    3.7558    0.4718   -1.4944 N   0  0  0  0  0  0  0  0  0  0  0  0
   -4.0874    1.1479    0.9709 O   0  0  0  0  0  0  0  0  0  0  0  0
   -4.7523   -0.1081    1.0565 C   0  0  0  0  0  0  0  0  0  0  0  0
   -5.7701    0.1172    1.3898 H   0  0  0  0  0  0  0  0  0  0  0  0
   -4.2641   -0.7684    1.7899 H   0  0  0  0  0  0  0  0  0  0  0  0
   -4.7898   -0.6070    0.0758 H   0  0  0  0  0  0  0  0  0  0  0  0
  1  7  1  0  0  0  0
  1  6  2  0  0  0  0
  2  1  1  0  0  0  0
  3  2  2  0  0  0  0
  3  4  1  0  0  0  0
  4  5  2  0  0  0  0
  5  6  1  0  0  0  0
  5  9  1  0  0  0  0
  6 12  1  0  0  0  0
  8  2  1  0  0  0  0
 11 10  3  0  0  0  0
 12 13  1  0  0  0  0
 13 14  1  0  0  0  0
 13 15  1  0  0  0  0
 16 13  1  0  0  0  0
M  RAD  2   3   2   4   2
M  END
