Coordinates from ORCA-job 4-CH3O-C6H3-N2-B3LYPG-aug-cc-pVDZ-scan-d09-49-n400
 OpenBabel11091809133D

 16 15  0  0  0  0  0  0  0  0999 V2000
   -2.0307    0.1021    0.2420 C   0  0  0  0  0  0  0  0  0  0  0  0
   -0.6820    0.2439   -0.1581 C   0  0  0  0  0  0  0  0  0  0  0  0
   -0.3033    1.5762   -0.1488 C   0  0  0  0  0  0  0  0  0  0  0  0
   -1.0126    2.5619    0.1614 C   0  0  0  0  0  0  0  0  0  0  0  0
   -2.3332    2.5482    0.5649 C   0  0  0  0  0  0  0  0  0  0  0  0
   -2.8346    1.2163    0.5933 C   0  0  0  0  0  0  0  0  0  0  0  0
   -2.4506   -0.9009    0.2763 H   0  0  0  0  0  0  0  0  0  0  0  0
   -0.0684   -0.6138   -0.4269 H   0  0  0  0  0  0  0  0  0  0  0  0
   -2.9658    3.3900    0.8381 H   0  0  0  0  0  0  0  0  0  0  0  0
    3.0692   -0.4843   -1.3753 N   0  0  0  0  0  0  0  0  0  0  0  0
    3.9797    0.0987   -1.5998 N   0  0  0  0  0  0  0  0  0  0  0  0
   -4.1416    1.1131    0.9842 O   0  0  0  0  0  0  0  0  0  0  0  0
   -4.7398   -0.1773    1.0460 C   0  0  0  0  0  0  0  0  0  0  0  0
   -5.7696   -0.0113    1.3773 H   0  0  0  0  0  0  0  0  0  0  0  0
   -4.2211   -0.8230    1.7714 H   0  0  0  0  0  0  0  0  0  0  0  0
   -4.7465   -0.6615    0.0572 H   0  0  0  0  0  0  0  0  0  0  0  0
  1  7  1  0  0  0  0
  1  6  2  0  0  0  0
  2  3  2  0  0  0  0
  2  1  1  0  0  0  0
  3  4  1  0  0  0  0
  4  5  2  0  0  0  0
  5  6  1  0  0  0  0
  5  9  1  0  0  0  0
  6 12  1  0  0  0  0
  8  2  1  0  0  0  0
 11 10  3  0  0  0  0
 12 13  1  0  0  0  0
 13 14  1  0  0  0  0
 13 15  1  0  0  0  0
 16 13  1  0  0  0  0
M  RAD  2   3   2   4   2
M  END
