Coordinates from ORCA-job 4-CH3O-C6H3-N2-B3LYPG-aug-cc-pVDZ-scan-d09-49-n400
 OpenBabel11091809133D

 16 16  0  0  0  0  0  0  0  0999 V2000
   -1.9334   -0.2192    0.1819 C   0  0  0  0  0  0  0  0  0  0  0  0
   -0.6244   -0.2795   -0.2250 C   0  0  0  0  0  0  0  0  0  0  0  0
    0.0992    0.9530   -0.3310 C   0  0  0  0  0  0  0  0  0  0  0  0
   -0.3961    2.2859   -0.0531 C   0  0  0  0  0  0  0  0  0  0  0  0
   -1.7426    2.2340    0.3547 C   0  0  0  0  0  0  0  0  0  0  0  0
   -2.4997    1.0581    0.4759 C   0  0  0  0  0  0  0  0  0  0  0  0
   -2.5120   -1.1340    0.2731 H   0  0  0  0  0  0  0  0  0  0  0  0
   -0.1517   -1.2352   -0.4599 H   0  0  0  0  0  0  0  0  0  0  0  0
   -2.2634    3.1644    0.6019 H   0  0  0  0  0  0  0  0  0  0  0  0
    1.3208    0.8876   -0.7110 N   0  0  0  0  0  0  0  0  0  0  0  0
    2.3974    0.8649   -1.0426 N   0  0  0  0  0  0  0  0  0  0  0  0
   -3.7813    1.2051    0.8825 O   0  0  0  0  0  0  0  0  0  0  0  0
   -4.6183    0.0556    1.0305 C   0  0  0  0  0  0  0  0  0  0  0  0
   -5.5865    0.4403    1.3635 H   0  0  0  0  0  0  0  0  0  0  0  0
   -4.2166   -0.6322    1.7888 H   0  0  0  0  0  0  0  0  0  0  0  0
   -4.7423   -0.4704    0.0728 H   0  0  0  0  0  0  0  0  0  0  0  0
  1  7  1  0  0  0  0
  1  6  2  0  0  0  0
  2  1  1  0  0  0  0
  3  2  2  0  0  0  0
  3  4  1  0  0  0  0
  4  5  2  0  0  0  0
  5  6  1  0  0  0  0
  5  9  1  0  0  0  0
  6 12  1  0  0  0  0
  8  2  1  0  0  0  0
 10  3  1  0  0  0  0
 11 10  1  0  0  0  0
 12 13  1  0  0  0  0
 13 14  1  0  0  0  0
 13 15  1  0  0  0  0
 16 13  1  0  0  0  0
M  RAD  3   4   2  10   2  11   3
M  END
