Coordinates from ORCA-job 4-CH3O-C6H3-N2-B3LYPG-aug-cc-pVDZ-scan-d09-49-n400
 OpenBabel11091809133D

 16 15  0  0  0  0  0  0  0  0999 V2000
   -2.0209   -0.1388    0.2163 C   0  0  0  0  0  0  0  0  0  0  0  0
   -0.6723   -0.2102   -0.2037 C   0  0  0  0  0  0  0  0  0  0  0  0
   -0.1201    1.0523   -0.2539 C   0  0  0  0  0  0  0  0  0  0  0  0
   -0.6488    2.1581    0.0123 C   0  0  0  0  0  0  0  0  0  0  0  0
   -1.9566    2.3369    0.4299 C   0  0  0  0  0  0  0  0  0  0  0  0
   -2.6467    1.0960    0.5244 C   0  0  0  0  0  0  0  0  0  0  0  0
   -2.5809   -1.0678    0.3004 H   0  0  0  0  0  0  0  0  0  0  0  0
   -0.1850   -1.1535   -0.4419 H   0  0  0  0  0  0  0  0  0  0  0  0
   -2.4599    3.2712    0.6721 H   0  0  0  0  0  0  0  0  0  0  0  0
    2.3259    0.4141   -1.0636 N   0  0  0  0  0  0  0  0  0  0  0  0
    3.2188    1.0276   -1.2794 N   0  0  0  0  0  0  0  0  0  0  0  0
   -3.9481    1.2015    0.9332 O   0  0  0  0  0  0  0  0  0  0  0  0
   -4.7263    0.0165    1.0599 C   0  0  0  0  0  0  0  0  0  0  0  0
   -5.7155    0.3449    1.3940 H   0  0  0  0  0  0  0  0  0  0  0  0
   -4.2948   -0.6659    1.8086 H   0  0  0  0  0  0  0  0  0  0  0  0
   -4.8200   -0.5044    0.0944 H   0  0  0  0  0  0  0  0  0  0  0  0
  1  7  1  0  0  0  0
  1  6  2  0  0  0  0
  2  1  1  0  0  0  0
  3  2  2  0  0  0  0
  3  4  1  0  0  0  0
  4  5  2  0  0  0  0
  5  6  1  0  0  0  0
  5  9  1  0  0  0  0
  6 12  1  0  0  0  0
  8  2  1  0  0  0  0
 11 10  3  0  0  0  0
 12 13  1  0  0  0  0
 13 14  1  0  0  0  0
 13 15  1  0  0  0  0
 16 13  1  0  0  0  0
M  RAD  2   3   2   4   2
M  END
