Coordinates from ORCA-job 4-CH3O-C6H3-N2-B3LYPG-aug-cc-pVDZ-scan-d09-49-n400
 OpenBabel11091809133D

 16 15  0  0  0  0  0  0  0  0999 V2000
   -2.0352   -0.0699    0.2271 C   0  0  0  0  0  0  0  0  0  0  0  0
   -0.6842   -0.0798   -0.1878 C   0  0  0  0  0  0  0  0  0  0  0  0
   -0.1674    1.2041   -0.2251 C   0  0  0  0  0  0  0  0  0  0  0  0
   -0.7674    2.2673    0.0589 C   0  0  0  0  0  0  0  0  0  0  0  0
   -2.0777    2.4035    0.4733 C   0  0  0  0  0  0  0  0  0  0  0  0
   -2.7148    1.1327    0.5487 C   0  0  0  0  0  0  0  0  0  0  0  0
   -2.5561   -1.0224    0.2969 H   0  0  0  0  0  0  0  0  0  0  0  0
   -0.1599   -1.0006   -0.4353 H   0  0  0  0  0  0  0  0  0  0  0  0
   -2.6164    3.3148    0.7242 H   0  0  0  0  0  0  0  0  0  0  0  0
    2.6548    0.1159   -1.1925 N   0  0  0  0  0  0  0  0  0  0  0  0
    3.5049    0.7928   -1.3890 N   0  0  0  0  0  0  0  0  0  0  0  0
   -4.0207    1.1791    0.9533 O   0  0  0  0  0  0  0  0  0  0  0  0
   -4.7492   -0.0393    1.0618 C   0  0  0  0  0  0  0  0  0  0  0  0
   -5.7523    0.2435    1.3958 H   0  0  0  0  0  0  0  0  0  0  0  0
   -4.2921   -0.7124    1.8035 H   0  0  0  0  0  0  0  0  0  0  0  0
   -4.8174   -0.5509    0.0893 H   0  0  0  0  0  0  0  0  0  0  0  0
  1  7  1  0  0  0  0
  1  6  2  0  0  0  0
  2  1  1  0  0  0  0
  3  2  2  0  0  0  0
  3  4  1  0  0  0  0
  4  5  2  0  0  0  0
  5  6  1  0  0  0  0
  5  9  1  0  0  0  0
  6 12  1  0  0  0  0
  8  2  1  0  0  0  0
 11 10  3  0  0  0  0
 12 13  1  0  0  0  0
 13 14  1  0  0  0  0
 13 15  1  0  0  0  0
 16 13  1  0  0  0  0
M  RAD  2   3   2   4   2
M  END
