Coordinates from ORCA-job 4-CH3O-C6H3-N2-B3LYPG-aug-cc-pVDZ-scan-d09-49-n400
 OpenBabel11091809133D

 16 16  0  0  0  0  0  0  0  0999 V2000
   -1.9131   -0.2145    0.1768 C   0  0  0  0  0  0  0  0  0  0  0  0
   -0.6134   -0.2705   -0.2260 C   0  0  0  0  0  0  0  0  0  0  0  0
    0.2381    0.9110   -0.3732 C   0  0  0  0  0  0  0  0  0  0  0  0
   -0.3938    2.3288   -0.0489 C   0  0  0  0  0  0  0  0  0  0  0  0
   -1.7259    2.2275    0.3494 C   0  0  0  0  0  0  0  0  0  0  0  0
   -2.4893    1.0553    0.4729 C   0  0  0  0  0  0  0  0  0  0  0  0
   -2.4831   -1.1354    0.2637 H   0  0  0  0  0  0  0  0  0  0  0  0
   -0.1388   -1.2264   -0.4622 H   0  0  0  0  0  0  0  0  0  0  0  0
   -2.2399    3.1627    0.5944 H   0  0  0  0  0  0  0  0  0  0  0  0
    1.1342    0.8736   -0.6551 N   0  0  0  0  0  0  0  0  0  0  0  0
    2.2472    0.8626   -1.0024 N   0  0  0  0  0  0  0  0  0  0  0  0
   -3.7606    1.2028    0.8757 O   0  0  0  0  0  0  0  0  0  0  0  0
   -4.6065    0.0539    1.0262 C   0  0  0  0  0  0  0  0  0  0  0  0
   -5.5712    0.4468    1.3580 H   0  0  0  0  0  0  0  0  0  0  0  0
   -4.2048   -0.6306    1.7860 H   0  0  0  0  0  0  0  0  0  0  0  0
   -4.7300   -0.4690    0.0678 H   0  0  0  0  0  0  0  0  0  0  0  0
  1  7  1  0  0  0  0
  1  6  2  0  0  0  0
  2  1  1  0  0  0  0
  3  2  2  0  0  0  0
  3  4  1  0  0  0  0
  4  5  2  0  0  0  0
  5  6  1  0  0  0  0
  5  9  1  0  0  0  0
  6 12  1  0  0  0  0
  8  2  1  0  0  0  0
 10  3  1  0  0  0  0
 11 10  1  0  0  0  0
 12 13  1  0  0  0  0
 13 14  1  0  0  0  0
 13 15  1  0  0  0  0
 16 13  1  0  0  0  0
M  RAD  3   4   2  10   2  11   3
M  END
