Coordinates from ORCA-job 4-CH3O-C6H3-N2-B3LYPG-aug-cc-pVDZ-scan-d09-49-n400
 OpenBabel11091809133D

 16 15  0  0  0  0  0  0  0  0999 V2000
   -2.0318   -0.0929    0.2240 C   0  0  0  0  0  0  0  0  0  0  0  0
   -0.6816   -0.1235   -0.1926 C   0  0  0  0  0  0  0  0  0  0  0  0
   -0.1493    1.1530   -0.2354 C   0  0  0  0  0  0  0  0  0  0  0  0
   -0.7306    2.2278    0.0440 C   0  0  0  0  0  0  0  0  0  0  0  0
   -2.0390    2.3819    0.4594 C   0  0  0  0  0  0  0  0  0  0  0  0
   -2.6939    1.1206    0.5412 C   0  0  0  0  0  0  0  0  0  0  0  0
   -2.5660   -1.0376    0.2986 H   0  0  0  0  0  0  0  0  0  0  0  0
   -0.1693   -1.0518   -0.4371 H   0  0  0  0  0  0  0  0  0  0  0  0
   -2.5652    3.3014    0.7073 H   0  0  0  0  0  0  0  0  0  0  0  0
    2.5553    0.2170   -1.1523 N   0  0  0  0  0  0  0  0  0  0  0  0
    3.4210    0.8715   -1.3564 N   0  0  0  0  0  0  0  0  0  0  0  0
   -3.9986    1.1868    0.9472 O   0  0  0  0  0  0  0  0  0  0  0  0
   -4.7438   -0.0207    1.0618 C   0  0  0  0  0  0  0  0  0  0  0  0
   -5.7425    0.2775    1.3959 H   0  0  0  0  0  0  0  0  0  0  0  0
   -4.2952   -0.6970    1.8058 H   0  0  0  0  0  0  0  0  0  0  0  0
   -4.8205   -0.5356    0.0916 H   0  0  0  0  0  0  0  0  0  0  0  0
  1  7  1  0  0  0  0
  1  6  2  0  0  0  0
  2  1  1  0  0  0  0
  3  2  2  0  0  0  0
  3  4  1  0  0  0  0
  4  5  2  0  0  0  0
  5  6  1  0  0  0  0
  5  9  1  0  0  0  0
  6 12  1  0  0  0  0
  8  2  1  0  0  0  0
 11 10  3  0  0  0  0
 12 13  1  0  0  0  0
 13 14  1  0  0  0  0
 13 15  1  0  0  0  0
 16 13  1  0  0  0  0
M  RAD  2   3   2   4   2
M  END
