Coordinates from ORCA-job 4-CH3O-C6H3-N2-B3LYPG-aug-cc-pVDZ-scan-d09-49-n400
 OpenBabel11091809133D

 16 15  0  0  0  0  0  0  0  0999 V2000
   -2.0329   -0.0863    0.2249 C   0  0  0  0  0  0  0  0  0  0  0  0
   -0.6824   -0.1110   -0.1912 C   0  0  0  0  0  0  0  0  0  0  0  0
   -0.1546    1.1677   -0.2324 C   0  0  0  0  0  0  0  0  0  0  0  0
   -0.7413    2.2391    0.0484 C   0  0  0  0  0  0  0  0  0  0  0  0
   -2.0503    2.3882    0.4635 C   0  0  0  0  0  0  0  0  0  0  0  0
   -2.7000    1.1242    0.5434 C   0  0  0  0  0  0  0  0  0  0  0  0
   -2.5633   -1.0332    0.2982 H   0  0  0  0  0  0  0  0  0  0  0  0
   -0.1667   -1.0371   -0.4365 H   0  0  0  0  0  0  0  0  0  0  0  0
   -2.5800    3.3054    0.7122 H   0  0  0  0  0  0  0  0  0  0  0  0
    2.5852    0.1874   -1.1643 N   0  0  0  0  0  0  0  0  0  0  0  0
    3.4458    0.8493   -1.3659 N   0  0  0  0  0  0  0  0  0  0  0  0
   -4.0051    1.1846    0.9490 O   0  0  0  0  0  0  0  0  0  0  0  0
   -4.7455   -0.0261    1.0618 C   0  0  0  0  0  0  0  0  0  0  0  0
   -5.7455    0.2677    1.3959 H   0  0  0  0  0  0  0  0  0  0  0  0
   -4.2945   -0.7015    1.8052 H   0  0  0  0  0  0  0  0  0  0  0  0
   -4.8198   -0.5400    0.0910 H   0  0  0  0  0  0  0  0  0  0  0  0
  1  7  1  0  0  0  0
  1  6  2  0  0  0  0
  2  1  1  0  0  0  0
  3  2  2  0  0  0  0
  3  4  1  0  0  0  0
  4  5  2  0  0  0  0
  5  6  1  0  0  0  0
  5  9  1  0  0  0  0
  6 12  1  0  0  0  0
  8  2  1  0  0  0  0
 11 10  3  0  0  0  0
 12 13  1  0  0  0  0
 13 14  1  0  0  0  0
 13 15  1  0  0  0  0
 16 13  1  0  0  0  0
M  RAD  2   3   2   4   2
M  END
