Coordinates from ORCA-job 4-CH3O-C6H3-N2-B3LYPG-aug-cc-pVDZ-scan-d09-49-n400
 OpenBabel11091809133D

 16 15  0  0  0  0  0  0  0  0999 V2000
   -2.0094   -0.1722    0.2095 C   0  0  0  0  0  0  0  0  0  0  0  0
   -0.6635   -0.2703   -0.2124 C   0  0  0  0  0  0  0  0  0  0  0  0
   -0.0944    0.9811   -0.2688 C   0  0  0  0  0  0  0  0  0  0  0  0
   -0.5826    2.1104   -0.0127 C   0  0  0  0  0  0  0  0  0  0  0  0
   -1.8911    2.3017    0.4064 C   0  0  0  0  0  0  0  0  0  0  0  0
   -2.6079    1.0778    0.5107 C   0  0  0  0  0  0  0  0  0  0  0  0
   -2.5869   -1.0895    0.3000 H   0  0  0  0  0  0  0  0  0  0  0  0
   -0.1898   -1.2217   -0.4472 H   0  0  0  0  0  0  0  0  0  0  0  0
   -2.3782    3.2461    0.6447 H   0  0  0  0  0  0  0  0  0  0  0  0
    2.1400    0.5251   -0.9964 N   0  0  0  0  0  0  0  0  0  0  0  0
    3.0195    1.1619   -1.2046 N   0  0  0  0  0  0  0  0  0  0  0  0
   -3.9060    1.2121    0.9213 O   0  0  0  0  0  0  0  0  0  0  0  0
   -4.7079    0.0443    1.0571 C   0  0  0  0  0  0  0  0  0  0  0  0
   -5.6895    0.3947    1.3910 H   0  0  0  0  0  0  0  0  0  0  0  0
   -4.2889   -0.6422    1.8092 H   0  0  0  0  0  0  0  0  0  0  0  0
   -4.8143   -0.4808    0.0952 H   0  0  0  0  0  0  0  0  0  0  0  0
  1  7  1  0  0  0  0
  1  6  2  0  0  0  0
  2  1  1  0  0  0  0
  3  2  2  0  0  0  0
  3  4  1  0  0  0  0
  4  5  2  0  0  0  0
  5  6  1  0  0  0  0
  5  9  1  0  0  0  0
  6 12  1  0  0  0  0
  8  2  1  0  0  0  0
 11 10  3  0  0  0  0
 12 13  1  0  0  0  0
 13 14  1  0  0  0  0
 13 15  1  0  0  0  0
 16 13  1  0  0  0  0
M  RAD  2   3   2   4   2
M  END
