Coordinates from ORCA-job 4-CH3O-C6H3-N2-B3LYPG-aug-cc-pVDZ-scan-d09-49-n400
 OpenBabel11091809133D

 16 15  0  0  0  0  0  0  0  0999 V2000
   -2.0024   -0.1933    0.2053 C   0  0  0  0  0  0  0  0  0  0  0  0
   -0.6598   -0.3046   -0.2167 C   0  0  0  0  0  0  0  0  0  0  0  0
   -0.0746    0.9387   -0.2788 C   0  0  0  0  0  0  0  0  0  0  0  0
   -0.5391    2.0833   -0.0286 C   0  0  0  0  0  0  0  0  0  0  0  0
   -1.8494    2.2770    0.3913 C   0  0  0  0  0  0  0  0  0  0  0  0
   -2.5837    1.0659    0.5022 C   0  0  0  0  0  0  0  0  0  0  0  0
   -2.5893   -1.1041    0.2993 H   0  0  0  0  0  0  0  0  0  0  0  0
   -0.1896   -1.2585   -0.4508 H   0  0  0  0  0  0  0  0  0  0  0  0
   -2.3267    3.2276    0.6272 H   0  0  0  0  0  0  0  0  0  0  0  0
    2.0160    0.5934   -0.9520 N   0  0  0  0  0  0  0  0  0  0  0  0
    2.8900    1.2407   -1.1575 N   0  0  0  0  0  0  0  0  0  0  0  0
   -3.8792    1.2185    0.9137 O   0  0  0  0  0  0  0  0  0  0  0  0
   -4.6957    0.0616    1.0550 C   0  0  0  0  0  0  0  0  0  0  0  0
   -5.6725    0.4256    1.3887 H   0  0  0  0  0  0  0  0  0  0  0  0
   -4.2848   -0.6274    1.8093 H   0  0  0  0  0  0  0  0  0  0  0  0
   -4.8101   -0.4660    0.0953 H   0  0  0  0  0  0  0  0  0  0  0  0
  1  7  1  0  0  0  0
  1  6  2  0  0  0  0
  2  1  1  0  0  0  0
  3  2  2  0  0  0  0
  3  4  1  0  0  0  0
  4  5  2  0  0  0  0
  5  6  1  0  0  0  0
  5  9  1  0  0  0  0
  6 12  1  0  0  0  0
  8  2  1  0  0  0  0
 11 10  3  0  0  0  0
 12 13  1  0  0  0  0
 13 14  1  0  0  0  0
 13 15  1  0  0  0  0
 16 13  1  0  0  0  0
M  RAD  2   3   2   4   2
M  END
