Coordinates from ORCA-job 4-CH3O-C6H3-N2-B3LYPG-aug-cc-pVDZ-scan-d09-49-n400
 OpenBabel11091809133D

 16 15  0  0  0  0  0  0  0  0999 V2000
   -2.0362    0.0347    0.2369 C   0  0  0  0  0  0  0  0  0  0  0  0
   -0.6845    0.1163   -0.1699 C   0  0  0  0  0  0  0  0  0  0  0  0
   -0.2518    1.4318   -0.1786 C   0  0  0  0  0  0  0  0  0  0  0  0
   -0.9187    2.4496    0.1219 C   0  0  0  0  0  0  0  0  0  0  0  0
   -2.2369    2.4950    0.5305 C   0  0  0  0  0  0  0  0  0  0  0  0
   -2.7924    1.1851    0.5773 C   0  0  0  0  0  0  0  0  0  0  0  0
   -2.4967   -0.9498    0.2853 H   0  0  0  0  0  0  0  0  0  0  0  0
   -0.1070   -0.7684   -0.4305 H   0  0  0  0  0  0  0  0  0  0  0  0
   -2.8335    3.3653    0.7955 H   0  0  0  0  0  0  0  0  0  0  0  0
    2.9537   -0.2750   -1.3217 N   0  0  0  0  0  0  0  0  0  0  0  0
    3.8142    0.3881   -1.5192 N   0  0  0  0  0  0  0  0  0  0  0  0
   -4.1007    1.1404    0.9744 O   0  0  0  0  0  0  0  0  0  0  0  0
   -4.7510   -0.1235    1.0548 C   0  0  0  0  0  0  0  0  0  0  0  0
   -5.7717    0.0887    1.3879 H   0  0  0  0  0  0  0  0  0  0  0  0
   -4.2560   -0.7807    1.7863 H   0  0  0  0  0  0  0  0  0  0  0  0
   -4.7818   -0.6193    0.0723 H   0  0  0  0  0  0  0  0  0  0  0  0
  1  7  1  0  0  0  0
  1  6  2  0  0  0  0
  2  1  1  0  0  0  0
  3  2  2  0  0  0  0
  3  4  1  0  0  0  0
  4  5  2  0  0  0  0
  5  6  1  0  0  0  0
  5  9  1  0  0  0  0
  6 12  1  0  0  0  0
  8  2  1  0  0  0  0
 11 10  3  0  0  0  0
 12 13  1  0  0  0  0
 13 14  1  0  0  0  0
 13 15  1  0  0  0  0
 16 13  1  0  0  0  0
M  RAD  2   3   2   4   2
M  END
