Coordinates from ORCA-job 4-CH3O-C6H3-N2-B3LYPG-aug-cc-pVDZ-scan-d09-49-n400
 OpenBabel11091809133D

 16 15  0  0  0  0  0  0  0  0999 V2000
   -2.0361   -0.0630    0.2280 C   0  0  0  0  0  0  0  0  0  0  0  0
   -0.6849   -0.0667   -0.1864 C   0  0  0  0  0  0  0  0  0  0  0  0
   -0.1730    1.2193   -0.2220 C   0  0  0  0  0  0  0  0  0  0  0  0
   -0.7782    2.2792    0.0633 C   0  0  0  0  0  0  0  0  0  0  0  0
   -2.0890    2.4099    0.4773 C   0  0  0  0  0  0  0  0  0  0  0  0
   -2.7209    1.1363    0.5509 C   0  0  0  0  0  0  0  0  0  0  0  0
   -2.5530   -1.0177    0.2964 H   0  0  0  0  0  0  0  0  0  0  0  0
   -0.1569   -0.9852   -0.4348 H   0  0  0  0  0  0  0  0  0  0  0  0
   -2.6316    3.3186    0.7292 H   0  0  0  0  0  0  0  0  0  0  0  0
    2.6832    0.0862   -1.2040 N   0  0  0  0  0  0  0  0  0  0  0  0
    3.5292    0.7688   -1.3985 N   0  0  0  0  0  0  0  0  0  0  0  0
   -4.0271    1.1767    0.9550 O   0  0  0  0  0  0  0  0  0  0  0  0
   -4.7505   -0.0448    1.0617 C   0  0  0  0  0  0  0  0  0  0  0  0
   -5.7550    0.2334    1.3957 H   0  0  0  0  0  0  0  0  0  0  0  0
   -4.2909   -0.7170    1.8027 H   0  0  0  0  0  0  0  0  0  0  0  0
   -4.8163   -0.5555    0.0885 H   0  0  0  0  0  0  0  0  0  0  0  0
  1  7  1  0  0  0  0
  1  6  2  0  0  0  0
  2  1  1  0  0  0  0
  3  2  2  0  0  0  0
  3  4  1  0  0  0  0
  4  5  2  0  0  0  0
  5  6  1  0  0  0  0
  5  9  1  0  0  0  0
  6 12  1  0  0  0  0
  8  2  1  0  0  0  0
 11 10  3  0  0  0  0
 12 13  1  0  0  0  0
 13 14  1  0  0  0  0
 13 15  1  0  0  0  0
 16 13  1  0  0  0  0
M  RAD  2   3   2   4   2
M  END
