Coordinates from ORCA-job 4-CH3O-C6H3-N2-B3LYPG-aug-cc-pVDZ-scan-d09-49-n400
 OpenBabel11091809133D

 16 15  0  0  0  0  0  0  0  0999 V2000
   -2.0203    0.1980    0.2480 C   0  0  0  0  0  0  0  0  0  0  0  0
   -0.6801    0.4232   -0.1414 C   0  0  0  0  0  0  0  0  0  0  0  0
   -0.3741    1.7748   -0.1081 C   0  0  0  0  0  0  0  0  0  0  0  0
   -1.1446    2.7087    0.2159 C   0  0  0  0  0  0  0  0  0  0  0  0
   -2.4638    2.6162    0.6114 C   0  0  0  0  0  0  0  0  0  0  0  0
   -2.8887    1.2577    0.6138 C   0  0  0  0  0  0  0  0  0  0  0  0
   -2.3821   -0.8279    0.2624 H   0  0  0  0  0  0  0  0  0  0  0  0
   -0.0208   -0.3965   -0.4205 H   0  0  0  0  0  0  0  0  0  0  0  0
   -3.1437    3.4165    0.8950 H   0  0  0  0  0  0  0  0  0  0  0  0
    3.2031   -0.7717   -1.4424 N   0  0  0  0  0  0  0  0  0  0  0  0
    4.1685   -0.3001   -1.6970 N   0  0  0  0  0  0  0  0  0  0  0  0
   -4.1895    1.0732    0.9950 O   0  0  0  0  0  0  0  0  0  0  0  0
   -4.7132   -0.2502    1.0307 C   0  0  0  0  0  0  0  0  0  0  0  0
   -5.7525   -0.1492    1.3586 H   0  0  0  0  0  0  0  0  0  0  0  0
   -4.1621   -0.8779    1.7479 H   0  0  0  0  0  0  0  0  0  0  0  0
   -4.6871   -0.7164    0.0337 H   0  0  0  0  0  0  0  0  0  0  0  0
  1  7  1  0  0  0  0
  1  6  2  0  0  0  0
  2  3  2  0  0  0  0
  2  1  1  0  0  0  0
  3  4  1  0  0  0  0
  4  5  2  0  0  0  0
  5  6  1  0  0  0  0
  5  9  1  0  0  0  0
  6 12  1  0  0  0  0
  8  2  1  0  0  0  0
 11 10  3  0  0  0  0
 12 13  1  0  0  0  0
 13 14  1  0  0  0  0
 13 15  1  0  0  0  0
 16 13  1  0  0  0  0
M  RAD  2   3   2   4   2
M  END
