Coordinates from ORCA-job 4-CH3O-C6H3-N2-B3LYPG-aug-cc-pVDZ-scan-d09-49-n400
 OpenBabel11091809133D

 16 15  0  0  0  0  0  0  0  0999 V2000
   -2.0316    0.0937    0.2414 C   0  0  0  0  0  0  0  0  0  0  0  0
   -0.6824    0.2279   -0.1597 C   0  0  0  0  0  0  0  0  0  0  0  0
   -0.2970    1.5582   -0.1526 C   0  0  0  0  0  0  0  0  0  0  0  0
   -1.0010    2.5481    0.1565 C   0  0  0  0  0  0  0  0  0  0  0  0
   -2.3214    2.5418    0.5607 C   0  0  0  0  0  0  0  0  0  0  0  0
   -2.8297    1.2125    0.5914 C   0  0  0  0  0  0  0  0  0  0  0  0
   -2.4567   -0.9071    0.2774 H   0  0  0  0  0  0  0  0  0  0  0  0
   -0.0733   -0.6332   -0.4275 H   0  0  0  0  0  0  0  0  0  0  0  0
   -2.9496    3.3872    0.8329 H   0  0  0  0  0  0  0  0  0  0  0  0
    3.0566   -0.4582   -1.3694 N   0  0  0  0  0  0  0  0  0  0  0  0
    3.9617    0.1345   -1.5901 N   0  0  0  0  0  0  0  0  0  0  0  0
   -4.1369    1.1166    0.9831 O   0  0  0  0  0  0  0  0  0  0  0  0
   -4.7417   -0.1706    1.0473 C   0  0  0  0  0  0  0  0  0  0  0  0
   -5.7705    0.0012    1.3789 H   0  0  0  0  0  0  0  0  0  0  0  0
   -4.2259   -0.8178    1.7734 H   0  0  0  0  0  0  0  0  0  0  0  0
   -4.7514   -0.6563    0.0593 H   0  0  0  0  0  0  0  0  0  0  0  0
  1  7  1  0  0  0  0
  1  6  2  0  0  0  0
  2  3  2  0  0  0  0
  2  1  1  0  0  0  0
  3  4  1  0  0  0  0
  4  5  2  0  0  0  0
  5  6  1  0  0  0  0
  5  9  1  0  0  0  0
  6 12  1  0  0  0  0
  8  2  1  0  0  0  0
 11 10  3  0  0  0  0
 12 13  1  0  0  0  0
 13 14  1  0  0  0  0
 13 15  1  0  0  0  0
 16 13  1  0  0  0  0
M  RAD  2   3   2   4   2
M  END
