Coordinates from ORCA-job 4-CH3O-C6H3-N2-B3LYPG-aug-cc-pVDZ-scan-d09-49-n400
 OpenBabel11091809133D

 16 15  0  0  0  0  0  0  0  0999 V2000
   -2.0352    0.0544    0.2385 C   0  0  0  0  0  0  0  0  0  0  0  0
   -0.6841    0.1537   -0.1666 C   0  0  0  0  0  0  0  0  0  0  0  0
   -0.2673    1.4744   -0.1700 C   0  0  0  0  0  0  0  0  0  0  0  0
   -0.9466    2.4830    0.1335 C   0  0  0  0  0  0  0  0  0  0  0  0
   -2.2658    2.5111    0.5408 C   0  0  0  0  0  0  0  0  0  0  0  0
   -2.8055    1.1945    0.5822 C   0  0  0  0  0  0  0  0  0  0  0  0
   -2.4839   -0.9356    0.2828 H   0  0  0  0  0  0  0  0  0  0  0  0
   -0.0960   -0.7232   -0.4297 H   0  0  0  0  0  0  0  0  0  0  0  0
   -2.8730    3.3731    0.8083 H   0  0  0  0  0  0  0  0  0  0  0  0
    2.9918   -0.3366   -1.3393 N   0  0  0  0  0  0  0  0  0  0  0  0
    3.8687    0.3023   -1.5436 N   0  0  0  0  0  0  0  0  0  0  0  0
   -4.1137    1.1326    0.9776 O   0  0  0  0  0  0  0  0  0  0  0  0
   -4.7488   -0.1393    1.0527 C   0  0  0  0  0  0  0  0  0  0  0  0
   -5.7723    0.0593    1.3854 H   0  0  0  0  0  0  0  0  0  0  0  0
   -4.2467   -0.7933    1.7823 H   0  0  0  0  0  0  0  0  0  0  0  0
   -4.7725   -0.6319    0.0683 H   0  0  0  0  0  0  0  0  0  0  0  0
  1  7  1  0  0  0  0
  1  6  2  0  0  0  0
  2  1  1  0  0  0  0
  3  2  2  0  0  0  0
  3  4  1  0  0  0  0
  4  5  2  0  0  0  0
  5  6  1  0  0  0  0
  5  9  1  0  0  0  0
  6 12  1  0  0  0  0
  8  2  1  0  0  0  0
 11 10  3  0  0  0  0
 12 13  1  0  0  0  0
 13 14  1  0  0  0  0
 13 15  1  0  0  0  0
 16 13  1  0  0  0  0
M  RAD  2   3   2   4   2
M  END
