Coordinates from ORCA-job 4-CH3O-C6H3-N2-B3LYPG-aug-cc-pVDZ-scan-d09-49-n400
 OpenBabel11091809133D

 16 15  0  0  0  0  0  0  0  0999 V2000
   -2.0164    0.2410    0.2510 C   0  0  0  0  0  0  0  0  0  0  0  0
   -0.6816    0.5032   -0.1334 C   0  0  0  0  0  0  0  0  0  0  0  0
   -0.4098    1.8619   -0.0889 C   0  0  0  0  0  0  0  0  0  0  0  0
   -1.2048    2.7730    0.2404 C   0  0  0  0  0  0  0  0  0  0  0  0
   -2.5221    2.6442    0.6319 C   0  0  0  0  0  0  0  0  0  0  0  0
   -2.9124    1.2754    0.6228 C   0  0  0  0  0  0  0  0  0  0  0  0
   -2.3520   -0.7938    0.2565 H   0  0  0  0  0  0  0  0  0  0  0  0
   -0.0013   -0.2976   -0.4172 H   0  0  0  0  0  0  0  0  0  0  0  0
   -3.2228    3.4248    0.9200 H   0  0  0  0  0  0  0  0  0  0  0  0
    3.2640   -0.8994   -1.4731 N   0  0  0  0  0  0  0  0  0  0  0  0
    4.2496   -0.4782   -1.7388 N   0  0  0  0  0  0  0  0  0  0  0  0
   -4.2090    1.0549    0.9993 O   0  0  0  0  0  0  0  0  0  0  0  0
   -4.6989   -0.2816    1.0234 C   0  0  0  0  0  0  0  0  0  0  0  0
   -5.7412   -0.2096    1.3494 H   0  0  0  0  0  0  0  0  0  0  0  0
   -4.1336   -0.9007    1.7370 H   0  0  0  0  0  0  0  0  0  0  0  0
   -4.6586   -0.7391    0.0228 H   0  0  0  0  0  0  0  0  0  0  0  0
  1  7  1  0  0  0  0
  1  6  2  0  0  0  0
  2  3  2  0  0  0  0
  2  1  1  0  0  0  0
  3  4  1  0  0  0  0
  4  5  2  0  0  0  0
  5  9  1  0  0  0  0
  6  5  1  0  0  0  0
  6 12  1  0  0  0  0
  8  2  1  0  0  0  0
 11 10  3  0  0  0  0
 12 13  1  0  0  0  0
 13 14  1  0  0  0  0
 13 15  1  0  0  0  0
 16 13  1  0  0  0  0
M  RAD  2   3   2   4   2
M  END
