Coordinates from ORCA-job 4-CH3O-C6H3-N2-B3LYPG-aug-cc-pVDZ-scan-d09-49-n400
 OpenBabel11091809133D

 16 15  0  0  0  0  0  0  0  0999 V2000
   -1.9998   -0.1965    0.2043 C   0  0  0  0  0  0  0  0  0  0  0  0
   -0.6577   -0.3088   -0.2177 C   0  0  0  0  0  0  0  0  0  0  0  0
   -0.0712    0.9335   -0.2802 C   0  0  0  0  0  0  0  0  0  0  0  0
   -0.5298    2.0822   -0.0314 C   0  0  0  0  0  0  0  0  0  0  0  0
   -1.8413    2.2730    0.3885 C   0  0  0  0  0  0  0  0  0  0  0  0
   -2.5784    1.0641    0.5004 C   0  0  0  0  0  0  0  0  0  0  0  0
   -2.5878   -1.1065    0.2987 H   0  0  0  0  0  0  0  0  0  0  0  0
   -0.1876   -1.2629   -0.4517 H   0  0  0  0  0  0  0  0  0  0  0  0
   -2.3179    3.2241    0.6242 H   0  0  0  0  0  0  0  0  0  0  0  0
    1.9835    0.6050   -0.9409 N   0  0  0  0  0  0  0  0  0  0  0  0
    2.8612    1.2471   -1.1484 N   0  0  0  0  0  0  0  0  0  0  0  0
   -3.8735    1.2193    0.9120 O   0  0  0  0  0  0  0  0  0  0  0  0
   -4.6922    0.0640    1.0541 C   0  0  0  0  0  0  0  0  0  0  0  0
   -5.6682    0.4300    1.3877 H   0  0  0  0  0  0  0  0  0  0  0  0
   -4.2824   -0.6253    1.8087 H   0  0  0  0  0  0  0  0  0  0  0  0
   -4.8077   -0.4639    0.0947 H   0  0  0  0  0  0  0  0  0  0  0  0
  1  7  1  0  0  0  0
  1  6  2  0  0  0  0
  2  1  1  0  0  0  0
  3  2  2  0  0  0  0
  3  4  1  0  0  0  0
  4  5  2  0  0  0  0
  5  6  1  0  0  0  0
  5  9  1  0  0  0  0
  6 12  1  0  0  0  0
  8  2  1  0  0  0  0
 11 10  3  0  0  0  0
 12 13  1  0  0  0  0
 13 14  1  0  0  0  0
 13 15  1  0  0  0  0
 16 13  1  0  0  0  0
M  RAD  2   3   2   4   2
M  END
