Coordinates from ORCA-job 4-CH3O-C6H3-N2-B3LYPG-aug-cc-pVDZ-scan-d09-49-n400
 OpenBabel11091809133D

 16 15  0  0  0  0  0  0  0  0999 V2000
   -2.0172    0.2327    0.2504 C   0  0  0  0  0  0  0  0  0  0  0  0
   -0.6813    0.4878   -0.1349 C   0  0  0  0  0  0  0  0  0  0  0  0
   -0.4029    1.8452   -0.0926 C   0  0  0  0  0  0  0  0  0  0  0  0
   -1.1933    2.7608    0.2357 C   0  0  0  0  0  0  0  0  0  0  0  0
   -2.5109    2.6389    0.6280 C   0  0  0  0  0  0  0  0  0  0  0  0
   -2.9080    1.2721    0.6211 C   0  0  0  0  0  0  0  0  0  0  0  0
   -2.3579   -0.8005    0.2577 H   0  0  0  0  0  0  0  0  0  0  0  0
   -0.0050   -0.3167   -0.4178 H   0  0  0  0  0  0  0  0  0  0  0  0
   -3.2077    3.4234    0.9153 H   0  0  0  0  0  0  0  0  0  0  0  0
    3.2530   -0.8749   -1.4674 N   0  0  0  0  0  0  0  0  0  0  0  0
    4.2350   -0.4441   -1.7310 N   0  0  0  0  0  0  0  0  0  0  0  0
   -4.2054    1.0585    0.9986 O   0  0  0  0  0  0  0  0  0  0  0  0
   -4.7019   -0.2756    1.0249 C   0  0  0  0  0  0  0  0  0  0  0  0
   -5.7437   -0.1980    1.3512 H   0  0  0  0  0  0  0  0  0  0  0  0
   -4.1393   -0.8964    1.7392 H   0  0  0  0  0  0  0  0  0  0  0  0
   -4.6643   -0.7348    0.0249 H   0  0  0  0  0  0  0  0  0  0  0  0
  1  7  1  0  0  0  0
  1  6  2  0  0  0  0
  2  3  2  0  0  0  0
  2  1  1  0  0  0  0
  3  4  1  0  0  0  0
  4  5  2  0  0  0  0
  5  9  1  0  0  0  0
  6  5  1  0  0  0  0
  6 12  1  0  0  0  0
  8  2  1  0  0  0  0
 11 10  3  0  0  0  0
 12 13  1  0  0  0  0
 13 14  1  0  0  0  0
 13 15  1  0  0  0  0
 16 13  1  0  0  0  0
M  RAD  2   3   2   4   2
M  END
