Coordinates from ORCA-job 4-CH3O-C6H3-N2-B3LYPG-aug-cc-pVDZ-scan-d09-49-n400
 OpenBabel11091809133D

 16 15  0  0  0  0  0  0  0  0999 V2000
   -1.9985   -0.1980    0.2038 C   0  0  0  0  0  0  0  0  0  0  0  0
   -0.6567   -0.3108   -0.2181 C   0  0  0  0  0  0  0  0  0  0  0  0
   -0.0695    0.9310   -0.2809 C   0  0  0  0  0  0  0  0  0  0  0  0
   -0.5252    2.0819   -0.0328 C   0  0  0  0  0  0  0  0  0  0  0  0
   -1.8373    2.2709    0.3871 C   0  0  0  0  0  0  0  0  0  0  0  0
   -2.5759    1.0632    0.4996 C   0  0  0  0  0  0  0  0  0  0  0  0
   -2.5870   -1.1076    0.2983 H   0  0  0  0  0  0  0  0  0  0  0  0
   -0.1866   -1.2649   -0.4521 H   0  0  0  0  0  0  0  0  0  0  0  0
   -2.3136    3.2224    0.6228 H   0  0  0  0  0  0  0  0  0  0  0  0
    1.9673    0.6107   -0.9353 N   0  0  0  0  0  0  0  0  0  0  0  0
    2.8471    1.2499   -1.1441 N   0  0  0  0  0  0  0  0  0  0  0  0
   -3.8707    1.2196    0.9112 O   0  0  0  0  0  0  0  0  0  0  0  0
   -4.6904    0.0652    1.0536 C   0  0  0  0  0  0  0  0  0  0  0  0
   -5.6661    0.4321    1.3872 H   0  0  0  0  0  0  0  0  0  0  0  0
   -4.2813   -0.6243    1.8084 H   0  0  0  0  0  0  0  0  0  0  0  0
   -4.8065   -0.4629    0.0944 H   0  0  0  0  0  0  0  0  0  0  0  0
  1  7  1  0  0  0  0
  1  6  2  0  0  0  0
  2  1  1  0  0  0  0
  3  2  2  0  0  0  0
  3  4  1  0  0  0  0
  4  5  2  0  0  0  0
  5  6  1  0  0  0  0
  5  9  1  0  0  0  0
  6 12  1  0  0  0  0
  8  2  1  0  0  0  0
 11 10  3  0  0  0  0
 12 13  1  0  0  0  0
 13 14  1  0  0  0  0
 13 15  1  0  0  0  0
 16 13  1  0  0  0  0
M  RAD  2   3   2   4   2
M  END
