Coordinates from ORCA-job 4-CH3O-C6H3-N2-B3LYPG-aug-cc-pVDZ-scan-d09-49-n400
 OpenBabel11091809133D

 16 15  0  0  0  0  0  0  0  0999 V2000
   -2.0228   -0.1319    0.2176 C   0  0  0  0  0  0  0  0  0  0  0  0
   -0.6737   -0.1972   -0.2020 C   0  0  0  0  0  0  0  0  0  0  0  0
   -0.1252    1.0675   -0.2509 C   0  0  0  0  0  0  0  0  0  0  0  0
   -0.6616    2.1690    0.0173 C   0  0  0  0  0  0  0  0  0  0  0  0
   -1.9695    2.3440    0.4345 C   0  0  0  0  0  0  0  0  0  0  0  0
   -2.6542    1.0998    0.5271 C   0  0  0  0  0  0  0  0  0  0  0  0
   -2.5789   -1.0632    0.3002 H   0  0  0  0  0  0  0  0  0  0  0  0
   -0.1832   -1.1386   -0.4410 H   0  0  0  0  0  0  0  0  0  0  0  0
   -2.4764    3.2760    0.6777 H   0  0  0  0  0  0  0  0  0  0  0  0
    2.3598    0.3905   -1.0761 N   0  0  0  0  0  0  0  0  0  0  0  0
    3.2557    0.9987   -1.2937 N   0  0  0  0  0  0  0  0  0  0  0  0
   -3.9562    1.1992    0.9354 O   0  0  0  0  0  0  0  0  0  0  0  0
   -4.7293    0.0107    1.0603 C   0  0  0  0  0  0  0  0  0  0  0  0
   -5.7200    0.3344    1.3943 H   0  0  0  0  0  0  0  0  0  0  0  0
   -4.2952   -0.6709    1.8082 H   0  0  0  0  0  0  0  0  0  0  0  0
   -4.8204   -0.5093    0.0940 H   0  0  0  0  0  0  0  0  0  0  0  0
  1  7  1  0  0  0  0
  1  6  2  0  0  0  0
  2  1  1  0  0  0  0
  3  2  2  0  0  0  0
  3  4  1  0  0  0  0
  4  5  2  0  0  0  0
  5  6  1  0  0  0  0
  5  9  1  0  0  0  0
  6 12  1  0  0  0  0
  8  2  1  0  0  0  0
 11 10  3  0  0  0  0
 12 13  1  0  0  0  0
 13 14  1  0  0  0  0
 13 15  1  0  0  0  0
 16 13  1  0  0  0  0
M  RAD  2   3   2   4   2
M  END
