Coordinates from ORCA-job 4-CH3O-C6H3-N2-B3LYPG-aug-cc-pVDZ-scan-d09-49-n400
 OpenBabel11091809133D

 16 15  0  0  0  0  0  0  0  0999 V2000
   -1.9861   -0.2137    0.1987 C   0  0  0  0  0  0  0  0  0  0  0  0
   -0.6476   -0.3250   -0.2217 C   0  0  0  0  0  0  0  0  0  0  0  0
   -0.0503    0.9114   -0.2881 C   0  0  0  0  0  0  0  0  0  0  0  0
   -0.4759    2.0894   -0.0466 C   0  0  0  0  0  0  0  0  0  0  0  0
   -1.7972    2.2485    0.3730 C   0  0  0  0  0  0  0  0  0  0  0  0
   -2.5505    1.0535    0.4911 C   0  0  0  0  0  0  0  0  0  0  0  0
   -2.5778   -1.1208    0.2944 H   0  0  0  0  0  0  0  0  0  0  0  0
   -0.1749   -1.2786   -0.4563 H   0  0  0  0  0  0  0  0  0  0  0  0
   -2.2734    3.2013    0.6088 H   0  0  0  0  0  0  0  0  0  0  0  0
    1.7963    0.6733   -0.8766 N   0  0  0  0  0  0  0  0  0  0  0  0
    2.7110    1.2597   -1.1037 N   0  0  0  0  0  0  0  0  0  0  0  0
   -3.8430    1.2222    0.9028 O   0  0  0  0  0  0  0  0  0  0  0  0
   -4.6728    0.0755    1.0489 C   0  0  0  0  0  0  0  0  0  0  0  0
   -5.6451    0.4517    1.3820 H   0  0  0  0  0  0  0  0  0  0  0  0
   -4.2695   -0.6158    1.8052 H   0  0  0  0  0  0  0  0  0  0  0  0
   -4.7943   -0.4542    0.0912 H   0  0  0  0  0  0  0  0  0  0  0  0
  1  7  1  0  0  0  0
  1  6  2  0  0  0  0
  2  1  1  0  0  0  0
  3  2  2  0  0  0  0
  3  4  1  0  0  0  0
  4  5  2  0  0  0  0
  5  6  1  0  0  0  0
  5  9  1  0  0  0  0
  6 12  1  0  0  0  0
  8  2  1  0  0  0  0
 11 10  3  0  0  0  0
 12 13  1  0  0  0  0
 13 14  1  0  0  0  0
 13 15  1  0  0  0  0
 16 13  1  0  0  0  0
M  RAD  2   3   2   4   2
M  END
