Coordinates from ORCA-job 4-CH3O-C6H3-N2-B3LYPG-aug-cc-pVDZ-scan-d09-49-n400
 OpenBabel11091809133D

 16 15  0  0  0  0  0  0  0  0999 V2000
   -2.0186   -0.1469    0.2148 C   0  0  0  0  0  0  0  0  0  0  0  0
   -0.6705   -0.2251   -0.2057 C   0  0  0  0  0  0  0  0  0  0  0  0
   -0.1141    1.0347   -0.2575 C   0  0  0  0  0  0  0  0  0  0  0  0
   -0.6335    2.1459    0.0064 C   0  0  0  0  0  0  0  0  0  0  0  0
   -1.9412    2.3286    0.4244 C   0  0  0  0  0  0  0  0  0  0  0  0
   -2.6378    1.0916    0.5213 C   0  0  0  0  0  0  0  0  0  0  0  0
   -2.5829   -1.0730    0.3005 H   0  0  0  0  0  0  0  0  0  0  0  0
   -0.1867   -1.1705   -0.4431 H   0  0  0  0  0  0  0  0  0  0  0  0
   -2.4404    3.2654    0.6656 H   0  0  0  0  0  0  0  0  0  0  0  0
    2.2844    0.4414   -1.0483 N   0  0  0  0  0  0  0  0  0  0  0  0
    3.1739    1.0607   -1.2622 N   0  0  0  0  0  0  0  0  0  0  0  0
   -3.9384    1.2041    0.9305 O   0  0  0  0  0  0  0  0  0  0  0  0
   -4.7224    0.0233    1.0594 C   0  0  0  0  0  0  0  0  0  0  0  0
   -5.7098    0.3570    1.3934 H   0  0  0  0  0  0  0  0  0  0  0  0
   -4.2939   -0.6602    1.8089 H   0  0  0  0  0  0  0  0  0  0  0  0
   -4.8191   -0.4987    0.0948 H   0  0  0  0  0  0  0  0  0  0  0  0
  1  7  1  0  0  0  0
  1  6  2  0  0  0  0
  2  1  1  0  0  0  0
  3  2  2  0  0  0  0
  3  4  1  0  0  0  0
  4  5  2  0  0  0  0
  5  6  1  0  0  0  0
  5  9  1  0  0  0  0
  6 12  1  0  0  0  0
  8  2  1  0  0  0  0
 11 10  3  0  0  0  0
 12 13  1  0  0  0  0
 13 14  1  0  0  0  0
 13 15  1  0  0  0  0
 16 13  1  0  0  0  0
M  RAD  2   3   2   4   2
M  END
