Coordinates from ORCA-job 4-CH3O-C6H3-N2-B3LYPG-aug-cc-pVDZ-scan-d09-49-n400
 OpenBabel11091809133D

 16 15  0  0  0  0  0  0  0  0999 V2000
   -2.0366    0.0064    0.2345 C   0  0  0  0  0  0  0  0  0  0  0  0
   -0.6844    0.0628   -0.1747 C   0  0  0  0  0  0  0  0  0  0  0  0
   -0.2280    1.3703   -0.1913 C   0  0  0  0  0  0  0  0  0  0  0  0
   -0.8781    2.4001    0.1050 C   0  0  0  0  0  0  0  0  0  0  0  0
   -2.1944    2.4714    0.5153 C   0  0  0  0  0  0  0  0  0  0  0  0
   -2.7723    1.1715    0.5699 C   0  0  0  0  0  0  0  0  0  0  0  0
   -2.5138   -0.9697    0.2888 H   0  0  0  0  0  0  0  0  0  0  0  0
   -0.1223   -0.8329   -0.4315 H   0  0  0  0  0  0  0  0  0  0  0  0
   -2.7753    3.3533    0.7765 H   0  0  0  0  0  0  0  0  0  0  0  0
    2.8919   -0.1864   -1.2939 N   0  0  0  0  0  0  0  0  0  0  0  0
    3.7255    0.5129   -1.4816 N   0  0  0  0  0  0  0  0  0  0  0  0
   -4.0806    1.1515    0.9692 O   0  0  0  0  0  0  0  0  0  0  0  0
   -4.7525   -0.1005    1.0572 C   0  0  0  0  0  0  0  0  0  0  0  0
   -5.7689    0.1311    1.3907 H   0  0  0  0  0  0  0  0  0  0  0  0
   -4.2678   -0.7624    1.7915 H   0  0  0  0  0  0  0  0  0  0  0  0
   -4.7933   -0.6009    0.0774 H   0  0  0  0  0  0  0  0  0  0  0  0
  1  7  1  0  0  0  0
  1  6  2  0  0  0  0
  2  1  1  0  0  0  0
  3  2  2  0  0  0  0
  3  4  1  0  0  0  0
  4  5  2  0  0  0  0
  5  6  1  0  0  0  0
  5  9  1  0  0  0  0
  6 12  1  0  0  0  0
  8  2  1  0  0  0  0
 11 10  3  0  0  0  0
 12 13  1  0  0  0  0
 13 14  1  0  0  0  0
 13 15  1  0  0  0  0
 16 13  1  0  0  0  0
M  RAD  2   3   2   4   2
M  END
