Coordinates from ORCA-job 4-CH3O-C6H3-N2-B3LYPG-aug-cc-pVDZ-scan-d09-49-n400
 OpenBabel11091809133D

 16 15  0  0  0  0  0  0  0  0999 V2000
   -2.0283   -0.1126    0.2211 C   0  0  0  0  0  0  0  0  0  0  0  0
   -0.6788   -0.1603   -0.1968 C   0  0  0  0  0  0  0  0  0  0  0  0
   -0.1353    1.1099   -0.2437 C   0  0  0  0  0  0  0  0  0  0  0  0
   -0.6978    2.1961    0.0310 C   0  0  0  0  0  0  0  0  0  0  0  0
   -2.0053    2.3630    0.4473 C   0  0  0  0  0  0  0  0  0  0  0  0
   -2.6751    1.1101    0.5345 C   0  0  0  0  0  0  0  0  0  0  0  0
   -2.5734   -1.0507    0.2997 H   0  0  0  0  0  0  0  0  0  0  0  0
   -0.1762   -1.0945   -0.4389 H   0  0  0  0  0  0  0  0  0  0  0  0
   -2.5212    3.2891    0.6927 H   0  0  0  0  0  0  0  0  0  0  0  0
    2.4620    0.3067   -1.1152 N   0  0  0  0  0  0  0  0  0  0  0  0
    3.3460    0.9338   -1.3278 N   0  0  0  0  0  0  0  0  0  0  0  0
   -3.9785    1.1931    0.9417 O   0  0  0  0  0  0  0  0  0  0  0  0
   -4.7379   -0.0050    1.0614 C   0  0  0  0  0  0  0  0  0  0  0  0
   -5.7326    0.3061    1.3954 H   0  0  0  0  0  0  0  0  0  0  0  0
   -4.2966   -0.6840    1.8074 H   0  0  0  0  0  0  0  0  0  0  0  0
   -4.8217   -0.5224    0.0931 H   0  0  0  0  0  0  0  0  0  0  0  0
  1  7  1  0  0  0  0
  1  6  2  0  0  0  0
  2  1  1  0  0  0  0
  3  2  2  0  0  0  0
  3  4  1  0  0  0  0
  4  5  2  0  0  0  0
  5  6  1  0  0  0  0
  5  9  1  0  0  0  0
  6 12  1  0  0  0  0
  8  2  1  0  0  0  0
 11 10  3  0  0  0  0
 12 13  1  0  0  0  0
 13 14  1  0  0  0  0
 13 15  1  0  0  0  0
 16 13  1  0  0  0  0
M  RAD  2   3   2   4   2
M  END
