Coordinates from ORCA-job 4-CH3O-C6H3-N2-B3LYPG-aug-cc-pVDZ-scan-d09-49-n400
 OpenBabel11091809133D

 16 15  0  0  0  0  0  0  0  0999 V2000
   -2.0251    0.1380    0.2439 C   0  0  0  0  0  0  0  0  0  0  0  0
   -0.6791    0.3121   -0.1521 C   0  0  0  0  0  0  0  0  0  0  0  0
   -0.3294    1.6523   -0.1332 C   0  0  0  0  0  0  0  0  0  0  0  0
   -1.0609    2.6200    0.1820 C   0  0  0  0  0  0  0  0  0  0  0  0
   -2.3817    2.5748    0.5823 C   0  0  0  0  0  0  0  0  0  0  0  0
   -2.8539    1.2321    0.6007 C   0  0  0  0  0  0  0  0  0  0  0  0
   -2.4230   -0.8741    0.2705 H   0  0  0  0  0  0  0  0  0  0  0  0
   -0.0444   -0.5284   -0.4256 H   0  0  0  0  0  0  0  0  0  0  0  0
   -3.0333    3.4007    0.8596 H   0  0  0  0  0  0  0  0  0  0  0  0
    3.1100   -0.5949   -1.3972 N   0  0  0  0  0  0  0  0  0  0  0  0
    4.0419   -0.0526   -1.6351 N   0  0  0  0  0  0  0  0  0  0  0  0
   -4.1591    1.0976    0.9879 O   0  0  0  0  0  0  0  0  0  0  0  0
   -4.7291   -0.2059    1.0398 C   0  0  0  0  0  0  0  0  0  0  0  0
   -5.7630   -0.0648    1.3698 H   0  0  0  0  0  0  0  0  0  0  0  0
   -4.1979   -0.8449    1.7620 H   0  0  0  0  0  0  0  0  0  0  0  0
   -4.7230   -0.6835    0.0478 H   0  0  0  0  0  0  0  0  0  0  0  0
  1  7  1  0  0  0  0
  1  6  2  0  0  0  0
  2  3  2  0  0  0  0
  2  1  1  0  0  0  0
  3  4  1  0  0  0  0
  4  5  2  0  0  0  0
  5  6  1  0  0  0  0
  5  9  1  0  0  0  0
  6 12  1  0  0  0  0
  8  2  1  0  0  0  0
 11 10  3  0  0  0  0
 12 13  1  0  0  0  0
 13 14  1  0  0  0  0
 13 15  1  0  0  0  0
 16 13  1  0  0  0  0
M  RAD  2   3   2   4   2
M  END
