Coordinates from ORCA-job 4-CH3O-C6H3-N2-B3LYPG-aug-cc-pVDZ-scan-d09-49-n400
 OpenBabel11091809133D

 16 16  0  0  0  0  0  0  0  0999 V2000
   -1.9201   -0.2159    0.1780 C   0  0  0  0  0  0  0  0  0  0  0  0
   -0.6172   -0.2715   -0.2268 C   0  0  0  0  0  0  0  0  0  0  0  0
    0.1702    0.9409   -0.3547 C   0  0  0  0  0  0  0  0  0  0  0  0
   -0.3915    2.3080   -0.0527 C   0  0  0  0  0  0  0  0  0  0  0  0
   -1.7320    2.2307    0.3510 C   0  0  0  0  0  0  0  0  0  0  0  0
   -2.4923    1.0583    0.4735 C   0  0  0  0  0  0  0  0  0  0  0  0
   -2.4930   -1.1346    0.2673 H   0  0  0  0  0  0  0  0  0  0  0  0
   -0.1448   -1.2282   -0.4615 H   0  0  0  0  0  0  0  0  0  0  0  0
   -2.2495    3.1633    0.5977 H   0  0  0  0  0  0  0  0  0  0  0  0
    1.2098    0.8785   -0.6778 N   0  0  0  0  0  0  0  0  0  0  0  0
    2.3028    0.8523   -1.0137 N   0  0  0  0  0  0  0  0  0  0  0  0
   -3.7683    1.2036    0.8784 O   0  0  0  0  0  0  0  0  0  0  0  0
   -4.6092    0.0537    1.0277 C   0  0  0  0  0  0  0  0  0  0  0  0
   -5.5756    0.4421    1.3606 H   0  0  0  0  0  0  0  0  0  0  0  0
   -4.2070   -0.6324    1.7864 H   0  0  0  0  0  0  0  0  0  0  0  0
   -4.7332   -0.4704    0.0696 H   0  0  0  0  0  0  0  0  0  0  0  0
  1  7  1  0  0  0  0
  1  6  2  0  0  0  0
  2  1  1  0  0  0  0
  3  2  2  0  0  0  0
  3  4  1  0  0  0  0
  4  5  2  0  0  0  0
  5  6  1  0  0  0  0
  5  9  1  0  0  0  0
  6 12  1  0  0  0  0
  8  2  1  0  0  0  0
 10  3  1  0  0  0  0
 11 10  1  0  0  0  0
 12 13  1  0  0  0  0
 13 14  1  0  0  0  0
 13 15  1  0  0  0  0
 16 13  1  0  0  0  0
M  RAD  3   4   2  10   2  11   3
M  END
