Coordinates from ORCA-job 4-CH3O-C6H3-N2-B3LYPG-aug-cc-pVDZ-scan-d09-49-n400
 OpenBabel11091809133D

 16 15  0  0  0  0  0  0  0  0999 V2000
   -2.0382   -0.0263    0.2320 C   0  0  0  0  0  0  0  0  0  0  0  0
   -0.6864    0.0027   -0.1796 C   0  0  0  0  0  0  0  0  0  0  0  0
   -0.2020    1.3002   -0.2057 C   0  0  0  0  0  0  0  0  0  0  0  0
   -0.8330    2.3432    0.0860 C   0  0  0  0  0  0  0  0  0  0  0  0
   -2.1469    2.4431    0.4981 C   0  0  0  0  0  0  0  0  0  0  0  0
   -2.7502    1.1552    0.5616 C   0  0  0  0  0  0  0  0  0  0  0  0
   -2.5339   -0.9927    0.2929 H   0  0  0  0  0  0  0  0  0  0  0  0
   -0.1385   -0.9027   -0.4329 H   0  0  0  0  0  0  0  0  0  0  0  0
   -2.7097    3.3379    0.7550 H   0  0  0  0  0  0  0  0  0  0  0  0
    2.8141   -0.0707   -1.2591 N   0  0  0  0  0  0  0  0  0  0  0  0
    3.6383    0.6406   -1.4434 N   0  0  0  0  0  0  0  0  0  0  0  0
   -4.0578    1.1637    0.9633 O   0  0  0  0  0  0  0  0  0  0  0  0
   -4.7541   -0.0743    1.0601 C   0  0  0  0  0  0  0  0  0  0  0  0
   -5.7651    0.1792    1.3939 H   0  0  0  0  0  0  0  0  0  0  0  0
   -4.2810   -0.7411    1.7975 H   0  0  0  0  0  0  0  0  0  0  0  0
   -4.8065   -0.5796    0.0833 H   0  0  0  0  0  0  0  0  0  0  0  0
  1  7  1  0  0  0  0
  1  6  2  0  0  0  0
  2  1  1  0  0  0  0
  3  2  2  0  0  0  0
  3  4  1  0  0  0  0
  4  5  2  0  0  0  0
  5  6  1  0  0  0  0
  5  9  1  0  0  0  0
  6 12  1  0  0  0  0
  8  2  1  0  0  0  0
 11 10  3  0  0  0  0
 12 13  1  0  0  0  0
 13 14  1  0  0  0  0
 13 15  1  0  0  0  0
 16 13  1  0  0  0  0
M  RAD  2   3   2   4   2
M  END
