Coordinates from ORCA-job 4-CH3O-C6H3-N2-B3LYPG-aug-cc-pVDZ-scan-d09-49-n400
 OpenBabel11091809133D

 16 15  0  0  0  0  0  0  0  0999 V2000
   -2.0221    0.1700    0.2459 C   0  0  0  0  0  0  0  0  0  0  0  0
   -0.6790    0.3712   -0.1466 C   0  0  0  0  0  0  0  0  0  0  0  0
   -0.3513    1.7176   -0.1204 C   0  0  0  0  0  0  0  0  0  0  0  0
   -1.1051    2.6663    0.1998 C   0  0  0  0  0  0  0  0  0  0  0  0
   -2.4250    2.5971    0.5977 C   0  0  0  0  0  0  0  0  0  0  0  0
   -2.8723    1.2458    0.6076 C   0  0  0  0  0  0  0  0  0  0  0  0
   -2.4008   -0.8496    0.2661 H   0  0  0  0  0  0  0  0  0  0  0  0
   -0.0333   -0.4604   -0.4227 H   0  0  0  0  0  0  0  0  0  0  0  0
   -3.0914    3.4098    0.8783 H   0  0  0  0  0  0  0  0  0  0  0  0
    3.1581   -0.6879   -1.4207 N   0  0  0  0  0  0  0  0  0  0  0  0
    4.1085   -0.1830   -1.6677 N   0  0  0  0  0  0  0  0  0  0  0  0
   -4.1754    1.0848    0.9917 O   0  0  0  0  0  0  0  0  0  0  0  0
   -4.7208   -0.2296    1.0350 C   0  0  0  0  0  0  0  0  0  0  0  0
   -5.7578   -0.1098    1.3639 H   0  0  0  0  0  0  0  0  0  0  0  0
   -4.1790   -0.8627    1.7546 H   0  0  0  0  0  0  0  0  0  0  0  0
   -4.7040   -0.7012    0.0403 H   0  0  0  0  0  0  0  0  0  0  0  0
  1  7  1  0  0  0  0
  1  6  2  0  0  0  0
  2  3  2  0  0  0  0
  2  1  1  0  0  0  0
  3  4  1  0  0  0  0
  4  5  2  0  0  0  0
  5  6  1  0  0  0  0
  5  9  1  0  0  0  0
  6 12  1  0  0  0  0
  8  2  1  0  0  0  0
 11 10  3  0  0  0  0
 12 13  1  0  0  0  0
 13 14  1  0  0  0  0
 13 15  1  0  0  0  0
 16 13  1  0  0  0  0
M  RAD  2   3   2   4   2
M  END
