Coordinates from ORCA-job 4-CH3O-C6H3-N2-B3LYPG-aug-cc-pVDZ-scan-d09-49-n400
 OpenBabel11091809133D

 16 16  0  0  0  0  0  0  0  0999 V2000
   -1.9178   -0.2155    0.1775 C   0  0  0  0  0  0  0  0  0  0  0  0
   -0.6160   -0.2709   -0.2267 C   0  0  0  0  0  0  0  0  0  0  0  0
    0.1869    0.9355   -0.3590 C   0  0  0  0  0  0  0  0  0  0  0  0
   -0.3912    2.3124   -0.0521 C   0  0  0  0  0  0  0  0  0  0  0  0
   -1.7300    2.2297    0.3504 C   0  0  0  0  0  0  0  0  0  0  0  0
   -2.4912    1.0579    0.4732 C   0  0  0  0  0  0  0  0  0  0  0  0
   -2.4899   -1.1349    0.2662 H   0  0  0  0  0  0  0  0  0  0  0  0
   -0.1431   -1.2274   -0.4617 H   0  0  0  0  0  0  0  0  0  0  0  0
   -2.2465    3.1630    0.5967 H   0  0  0  0  0  0  0  0  0  0  0  0
    1.1881    0.8773   -0.6713 N   0  0  0  0  0  0  0  0  0  0  0  0
    2.2855    0.8533   -1.0099 N   0  0  0  0  0  0  0  0  0  0  0  0
   -3.7659    1.2034    0.8776 O   0  0  0  0  0  0  0  0  0  0  0  0
   -4.6080    0.0536    1.0272 C   0  0  0  0  0  0  0  0  0  0  0  0
   -5.5740    0.4431    1.3598 H   0  0  0  0  0  0  0  0  0  0  0  0
   -4.2060   -0.6320    1.7862 H   0  0  0  0  0  0  0  0  0  0  0  0
   -4.7320   -0.4702    0.0690 H   0  0  0  0  0  0  0  0  0  0  0  0
  1  7  1  0  0  0  0
  1  6  2  0  0  0  0
  2  1  1  0  0  0  0
  3  2  2  0  0  0  0
  3  4  1  0  0  0  0
  4  5  2  0  0  0  0
  5  6  1  0  0  0  0
  5  9  1  0  0  0  0
  6 12  1  0  0  0  0
  8  2  1  0  0  0  0
 10  3  1  0  0  0  0
 11 10  1  0  0  0  0
 12 13  1  0  0  0  0
 13 14  1  0  0  0  0
 13 15  1  0  0  0  0
 16 13  1  0  0  0  0
M  RAD  3   4   2  10   2  11   3
M  END
