Coordinates from ORCA-job 4-CH3O-C6H3-N2-B3LYPG-aug-cc-pVDZ-scan-d09-49-n400
 OpenBabel11091809133D

 16 16  0  0  0  0  0  0  0  0999 V2000
   -1.9378   -0.2209    0.1831 C   0  0  0  0  0  0  0  0  0  0  0  0
   -0.6264   -0.2834   -0.2247 C   0  0  0  0  0  0  0  0  0  0  0  0
    0.0800    0.9525   -0.3248 C   0  0  0  0  0  0  0  0  0  0  0  0
   -0.3968    2.2765   -0.0538 C   0  0  0  0  0  0  0  0  0  0  0  0
   -1.7445    2.2337    0.3552 C   0  0  0  0  0  0  0  0  0  0  0  0
   -2.5017    1.0569    0.4764 C   0  0  0  0  0  0  0  0  0  0  0  0
   -2.5181   -1.1346    0.2748 H   0  0  0  0  0  0  0  0  0  0  0  0
   -0.1526   -1.2383   -0.4599 H   0  0  0  0  0  0  0  0  0  0  0  0
   -2.2649    3.1642    0.6024 H   0  0  0  0  0  0  0  0  0  0  0  0
    1.3496    0.8898   -0.7196 N   0  0  0  0  0  0  0  0  0  0  0  0
    2.4233    0.8780   -1.0496 N   0  0  0  0  0  0  0  0  0  0  0  0
   -3.7848    1.2060    0.8836 O   0  0  0  0  0  0  0  0  0  0  0  0
   -4.6212    0.0572    1.0316 C   0  0  0  0  0  0  0  0  0  0  0  0
   -5.5898    0.4414    1.3645 H   0  0  0  0  0  0  0  0  0  0  0  0
   -4.2199   -0.6312    1.7897 H   0  0  0  0  0  0  0  0  0  0  0  0
   -4.7455   -0.4695    0.0741 H   0  0  0  0  0  0  0  0  0  0  0  0
  1  7  1  0  0  0  0
  1  6  2  0  0  0  0
  2  1  1  0  0  0  0
  3  2  2  0  0  0  0
  3  4  1  0  0  0  0
  4  5  2  0  0  0  0
  5  6  1  0  0  0  0
  5  9  1  0  0  0  0
  6 12  1  0  0  0  0
  8  2  1  0  0  0  0
 10  3  1  0  0  0  0
 11 10  1  0  0  0  0
 12 13  1  0  0  0  0
 13 14  1  0  0  0  0
 13 15  1  0  0  0  0
 16 13  1  0  0  0  0
M  RAD  3   4   2  10   2  11   3
M  END
