Coordinates from ORCA-job 4-CH3O-C6H3-N2-B3LYPG-aug-cc-pVDZ-scan-d09-49-n400
 OpenBabel11091809133D

 16 16  0  0  0  0  0  0  0  0999 V2000
   -1.9758   -0.2274    0.1941 C   0  0  0  0  0  0  0  0  0  0  0  0
   -0.6428   -0.3278   -0.2238 C   0  0  0  0  0  0  0  0  0  0  0  0
   -0.0268    0.9051   -0.2964 C   0  0  0  0  0  0  0  0  0  0  0  0
   -0.4314    2.1200   -0.0579 C   0  0  0  0  0  0  0  0  0  0  0  0
   -1.7642    2.2284    0.3608 C   0  0  0  0  0  0  0  0  0  0  0  0
   -2.5295    1.0453    0.4838 C   0  0  0  0  0  0  0  0  0  0  0  0
   -2.5679   -1.1336    0.2901 H   0  0  0  0  0  0  0  0  0  0  0  0
   -0.1664   -1.2802   -0.4596 H   0  0  0  0  0  0  0  0  0  0  0  0
   -2.2473    3.1788    0.5984 H   0  0  0  0  0  0  0  0  0  0  0  0
    1.6369    0.7428   -0.8215 N   0  0  0  0  0  0  0  0  0  0  0  0
    2.6089    1.2234   -1.0741 N   0  0  0  0  0  0  0  0  0  0  0  0
   -3.8193    1.2213    0.8956 O   0  0  0  0  0  0  0  0  0  0  0  0
   -4.6572    0.0804    1.0448 C   0  0  0  0  0  0  0  0  0  0  0  0
   -5.6264    0.4642    1.3779 H   0  0  0  0  0  0  0  0  0  0  0  0
   -4.2584   -0.6119    1.8024 H   0  0  0  0  0  0  0  0  0  0  0  0
   -4.7835   -0.4504    0.0884 H   0  0  0  0  0  0  0  0  0  0  0  0
  1  7  1  0  0  0  0
  1  6  2  0  0  0  0
  2  1  1  0  0  0  0
  3  2  2  0  0  0  0
  3  4  1  0  0  0  0
  4  5  2  0  0  0  0
  5  6  1  0  0  0  0
  5  9  1  0  0  0  0
  6 12  1  0  0  0  0
  8  2  1  0  0  0  0
 10  3  1  0  0  0  0
 11 10  2  0  0  0  0
 12 13  1  0  0  0  0
 13 14  1  0  0  0  0
 13 15  1  0  0  0  0
 16 13  1  0  0  0  0
M  RAD  2   4   2  11   2
M  END
