Coordinates from ORCA-job 4-CH3O-C6H3-N2-B3LYPG-aug-cc-pVDZ-scan-d09-49-n400
 OpenBabel11091809133D

 16 15  0  0  0  0  0  0  0  0999 V2000
   -2.0366    0.0027    0.2342 C   0  0  0  0  0  0  0  0  0  0  0  0
   -0.6844    0.0559   -0.1753 C   0  0  0  0  0  0  0  0  0  0  0  0
   -0.2247    1.3623   -0.1931 C   0  0  0  0  0  0  0  0  0  0  0  0
   -0.8728    2.3934    0.1028 C   0  0  0  0  0  0  0  0  0  0  0  0
   -2.1888    2.4682    0.5133 C   0  0  0  0  0  0  0  0  0  0  0  0
   -2.7696    1.1697    0.5689 C   0  0  0  0  0  0  0  0  0  0  0  0
   -2.5160   -0.9723    0.2893 H   0  0  0  0  0  0  0  0  0  0  0  0
   -0.1243   -0.8412   -0.4316 H   0  0  0  0  0  0  0  0  0  0  0  0
   -2.7675    3.3517    0.7740 H   0  0  0  0  0  0  0  0  0  0  0  0
    2.8834   -0.1749   -1.2902 N   0  0  0  0  0  0  0  0  0  0  0  0
    3.7132    0.5293   -1.4764 N   0  0  0  0  0  0  0  0  0  0  0  0
   -4.0779    1.1530    0.9685 O   0  0  0  0  0  0  0  0  0  0  0  0
   -4.7526   -0.0975    1.0575 C   0  0  0  0  0  0  0  0  0  0  0  0
   -5.7684    0.1366    1.3910 H   0  0  0  0  0  0  0  0  0  0  0  0
   -4.2692   -0.7599    1.7921 H   0  0  0  0  0  0  0  0  0  0  0  0
   -4.7947   -0.5985    0.0780 H   0  0  0  0  0  0  0  0  0  0  0  0
  1  7  1  0  0  0  0
  1  6  2  0  0  0  0
  2  1  1  0  0  0  0
  3  2  2  0  0  0  0
  3  4  1  0  0  0  0
  4  5  2  0  0  0  0
  5  6  1  0  0  0  0
  5  9  1  0  0  0  0
  6 12  1  0  0  0  0
  8  2  1  0  0  0  0
 11 10  3  0  0  0  0
 12 13  1  0  0  0  0
 13 14  1  0  0  0  0
 13 15  1  0  0  0  0
 16 13  1  0  0  0  0
M  RAD  2   3   2   4   2
M  END
