Coordinates from ORCA-job 4-CH3O-C6H3-N2-B3LYPG-aug-cc-pVDZ-scan-d09-49-n400
 OpenBabel11091809133D

 16 16  0  0  0  0  0  0  0  0999 V2000
   -1.9467   -0.2239    0.1855 C   0  0  0  0  0  0  0  0  0  0  0  0
   -0.6312   -0.2899   -0.2238 C   0  0  0  0  0  0  0  0  0  0  0  0
    0.0491    0.9492   -0.3155 C   0  0  0  0  0  0  0  0  0  0  0  0
   -0.3994    2.2587   -0.0546 C   0  0  0  0  0  0  0  0  0  0  0  0
   -1.7482    2.2314    0.3561 C   0  0  0  0  0  0  0  0  0  0  0  0
   -2.5070    1.0539    0.4777 C   0  0  0  0  0  0  0  0  0  0  0  0
   -2.5288   -1.1364    0.2779 H   0  0  0  0  0  0  0  0  0  0  0  0
   -0.1546   -1.2428   -0.4597 H   0  0  0  0  0  0  0  0  0  0  0  0
   -2.2662    3.1633    0.6027 H   0  0  0  0  0  0  0  0  0  0  0  0
    1.4051    0.8876   -0.7368 N   0  0  0  0  0  0  0  0  0  0  0  0
    2.4752    0.9111   -1.0624 N   0  0  0  0  0  0  0  0  0  0  0  0
   -3.7920    1.2077    0.8860 O   0  0  0  0  0  0  0  0  0  0  0  0
   -4.6283    0.0605    1.0341 C   0  0  0  0  0  0  0  0  0  0  0  0
   -5.5971    0.4442    1.3671 H   0  0  0  0  0  0  0  0  0  0  0  0
   -4.2276   -0.6289    1.7921 H   0  0  0  0  0  0  0  0  0  0  0  0
   -4.7531   -0.4673    0.0769 H   0  0  0  0  0  0  0  0  0  0  0  0
  1  7  1  0  0  0  0
  1  6  2  0  0  0  0
  2  1  1  0  0  0  0
  3  2  2  0  0  0  0
  3  4  1  0  0  0  0
  4  5  2  0  0  0  0
  5  6  1  0  0  0  0
  5  9  1  0  0  0  0
  6 12  1  0  0  0  0
  8  2  1  0  0  0  0
 10  3  1  0  0  0  0
 11 10  1  0  0  0  0
 12 13  1  0  0  0  0
 13 14  1  0  0  0  0
 13 15  1  0  0  0  0
 16 13  1  0  0  0  0
M  RAD  3   4   2  10   2  11   3
M  END
