Coordinates from ORCA-job 4-CH3O-C6H3-N2-B3LYPG-aug-cc-pVDZ-scan-d09-49-n400
 OpenBabel11091809133D

 16 15  0  0  0  0  0  0  0  0999 V2000
   -2.0368   -0.0575    0.2287 C   0  0  0  0  0  0  0  0  0  0  0  0
   -0.6854   -0.0563   -0.1853 C   0  0  0  0  0  0  0  0  0  0  0  0
   -0.1775    1.2315   -0.2195 C   0  0  0  0  0  0  0  0  0  0  0  0
   -0.7868    2.2887    0.0668 C   0  0  0  0  0  0  0  0  0  0  0  0
   -2.0981    2.4149    0.4806 C   0  0  0  0  0  0  0  0  0  0  0  0
   -2.7257    1.1392    0.5526 C   0  0  0  0  0  0  0  0  0  0  0  0
   -2.5506   -1.0140    0.2960 H   0  0  0  0  0  0  0  0  0  0  0  0
   -0.1545   -0.9729   -0.4344 H   0  0  0  0  0  0  0  0  0  0  0  0
   -2.6436    3.3216    0.7332 H   0  0  0  0  0  0  0  0  0  0  0  0
    2.7056    0.0626   -1.2132 N   0  0  0  0  0  0  0  0  0  0  0  0
    3.5484    0.7496   -1.4061 N   0  0  0  0  0  0  0  0  0  0  0  0
   -4.0322    1.1748    0.9564 O   0  0  0  0  0  0  0  0  0  0  0  0
   -4.7516   -0.0492    1.0616 C   0  0  0  0  0  0  0  0  0  0  0  0
   -5.7570    0.2253    1.3956 H   0  0  0  0  0  0  0  0  0  0  0  0
   -4.2899   -0.7206    1.8021 H   0  0  0  0  0  0  0  0  0  0  0  0
   -4.8153   -0.5592    0.0879 H   0  0  0  0  0  0  0  0  0  0  0  0
  1  7  1  0  0  0  0
  1  6  2  0  0  0  0
  2  1  1  0  0  0  0
  3  2  2  0  0  0  0
  3  4  1  0  0  0  0
  4  5  2  0  0  0  0
  5  6  1  0  0  0  0
  5  9  1  0  0  0  0
  6 12  1  0  0  0  0
  8  2  1  0  0  0  0
 11 10  3  0  0  0  0
 12 13  1  0  0  0  0
 13 14  1  0  0  0  0
 13 15  1  0  0  0  0
 16 13  1  0  0  0  0
M  RAD  2   3   2   4   2
M  END
