Coordinates from ORCA-job 4-CH3O-C6H3-N2-B3LYPG-aug-cc-pVDZ-scan-d09-49-n400
 OpenBabel11091809133D

 16 15  0  0  0  0  0  0  0  0999 V2000
   -2.0227    0.1581    0.2450 C   0  0  0  0  0  0  0  0  0  0  0  0
   -0.6784    0.3490   -0.1489 C   0  0  0  0  0  0  0  0  0  0  0  0
   -0.3420    1.6932   -0.1255 C   0  0  0  0  0  0  0  0  0  0  0  0
   -1.0882    2.6485    0.1930 C   0  0  0  0  0  0  0  0  0  0  0  0
   -2.4084    2.5887    0.5918 C   0  0  0  0  0  0  0  0  0  0  0  0
   -2.8651    1.2407    0.6049 C   0  0  0  0  0  0  0  0  0  0  0  0
   -2.4086   -0.8588    0.2676 H   0  0  0  0  0  0  0  0  0  0  0  0
   -0.0384   -0.4873   -0.4236 H   0  0  0  0  0  0  0  0  0  0  0  0
   -3.0690    3.4066    0.8712 H   0  0  0  0  0  0  0  0  0  0  0  0
    3.1376   -0.6522   -1.4110 N   0  0  0  0  0  0  0  0  0  0  0  0
    4.0812   -0.1331   -1.6547 N   0  0  0  0  0  0  0  0  0  0  0  0
   -4.1691    1.0896    0.9902 O   0  0  0  0  0  0  0  0  0  0  0  0
   -4.7237   -0.2208    1.0367 C   0  0  0  0  0  0  0  0  0  0  0  0
   -5.7595   -0.0930    1.3660 H   0  0  0  0  0  0  0  0  0  0  0  0
   -4.1858   -0.8561    1.7573 H   0  0  0  0  0  0  0  0  0  0  0  0
   -4.7108   -0.6947    0.0430 H   0  0  0  0  0  0  0  0  0  0  0  0
  1  7  1  0  0  0  0
  1  6  2  0  0  0  0
  2  3  2  0  0  0  0
  2  1  1  0  0  0  0
  3  4  1  0  0  0  0
  4  5  2  0  0  0  0
  5  6  1  0  0  0  0
  5  9  1  0  0  0  0
  6 12  1  0  0  0  0
  8  2  1  0  0  0  0
 11 10  3  0  0  0  0
 12 13  1  0  0  0  0
 13 14  1  0  0  0  0
 13 15  1  0  0  0  0
 16 13  1  0  0  0  0
M  RAD  2   3   2   4   2
M  END
