Coordinates from ORCA-job 4-CH3O-C6H3-N2-B3LYPG-aug-cc-pVDZ-scan-d09-49-n400
 OpenBabel11091809133D

 16 15  0  0  0  0  0  0  0  0999 V2000
   -2.0314    0.0958    0.2415 C   0  0  0  0  0  0  0  0  0  0  0  0
   -0.6823    0.2319   -0.1593 C   0  0  0  0  0  0  0  0  0  0  0  0
   -0.2986    1.5627   -0.1516 C   0  0  0  0  0  0  0  0  0  0  0  0
   -1.0039    2.5515    0.1577 C   0  0  0  0  0  0  0  0  0  0  0  0
   -2.3244    2.5434    0.5618 C   0  0  0  0  0  0  0  0  0  0  0  0
   -2.8309    1.2135    0.5919 C   0  0  0  0  0  0  0  0  0  0  0  0
   -2.4552   -0.9055    0.2771 H   0  0  0  0  0  0  0  0  0  0  0  0
   -0.0721   -0.6284   -0.4274 H   0  0  0  0  0  0  0  0  0  0  0  0
   -2.9537    3.3879    0.8342 H   0  0  0  0  0  0  0  0  0  0  0  0
    3.0598   -0.4647   -1.3709 N   0  0  0  0  0  0  0  0  0  0  0  0
    3.9662    0.1255   -1.5925 N   0  0  0  0  0  0  0  0  0  0  0  0
   -4.1381    1.1157    0.9834 O   0  0  0  0  0  0  0  0  0  0  0  0
   -4.7413   -0.1723    1.0470 C   0  0  0  0  0  0  0  0  0  0  0  0
   -5.7703   -0.0020    1.3785 H   0  0  0  0  0  0  0  0  0  0  0  0
   -4.2247   -0.8191    1.7729 H   0  0  0  0  0  0  0  0  0  0  0  0
   -4.7502   -0.6576    0.0588 H   0  0  0  0  0  0  0  0  0  0  0  0
  1  7  1  0  0  0  0
  1  6  2  0  0  0  0
  2  3  2  0  0  0  0
  2  1  1  0  0  0  0
  3  4  1  0  0  0  0
  4  5  2  0  0  0  0
  5  6  1  0  0  0  0
  5  9  1  0  0  0  0
  6 12  1  0  0  0  0
  8  2  1  0  0  0  0
 11 10  3  0  0  0  0
 12 13  1  0  0  0  0
 13 14  1  0  0  0  0
 13 15  1  0  0  0  0
 16 13  1  0  0  0  0
M  RAD  2   3   2   4   2
M  END
