Coordinates from ORCA-job 4-CH3O-C6H3-N2-B3LYPG-aug-cc-pVDZ-scan-d09-49-n400
 OpenBabel11091809133D

 16 15  0  0  0  0  0  0  0  0999 V2000
   -2.0361    0.0366    0.2371 C   0  0  0  0  0  0  0  0  0  0  0  0
   -0.6845    0.1200   -0.1696 C   0  0  0  0  0  0  0  0  0  0  0  0
   -0.2534    1.4360   -0.1778 C   0  0  0  0  0  0  0  0  0  0  0  0
   -0.9214    2.4529    0.1230 C   0  0  0  0  0  0  0  0  0  0  0  0
   -2.2398    2.4966    0.5315 C   0  0  0  0  0  0  0  0  0  0  0  0
   -2.7937    1.1861    0.5778 C   0  0  0  0  0  0  0  0  0  0  0  0
   -2.4955   -0.9484    0.2851 H   0  0  0  0  0  0  0  0  0  0  0  0
   -0.1059   -0.7640   -0.4304 H   0  0  0  0  0  0  0  0  0  0  0  0
   -2.8374    3.3661    0.7967 H   0  0  0  0  0  0  0  0  0  0  0  0
    2.9577   -0.2811   -1.3235 N   0  0  0  0  0  0  0  0  0  0  0  0
    3.8198    0.3796   -1.5217 N   0  0  0  0  0  0  0  0  0  0  0  0
   -4.1021    1.1397    0.9747 O   0  0  0  0  0  0  0  0  0  0  0  0
   -4.7509   -0.1250    1.0546 C   0  0  0  0  0  0  0  0  0  0  0  0
   -5.7718    0.0858    1.3877 H   0  0  0  0  0  0  0  0  0  0  0  0
   -4.2551   -0.7820    1.7859 H   0  0  0  0  0  0  0  0  0  0  0  0
   -4.7809   -0.6205    0.0719 H   0  0  0  0  0  0  0  0  0  0  0  0
  1  7  1  0  0  0  0
  1  6  2  0  0  0  0
  2  1  1  0  0  0  0
  3  2  2  0  0  0  0
  3  4  1  0  0  0  0
  4  5  2  0  0  0  0
  5  6  1  0  0  0  0
  5  9  1  0  0  0  0
  6 12  1  0  0  0  0
  8  2  1  0  0  0  0
 11 10  3  0  0  0  0
 12 13  1  0  0  0  0
 13 14  1  0  0  0  0
 13 15  1  0  0  0  0
 16 13  1  0  0  0  0
M  RAD  2   3   2   4   2
M  END
