Coordinates from ORCA-job 4-CH3O-C6H3-N2-B3LYPG-aug-cc-pVDZ-scan-d09-49-n400
 OpenBabel11091809133D

 16 15  0  0  0  0  0  0  0  0999 V2000
   -2.0277   -0.1152    0.2207 C   0  0  0  0  0  0  0  0  0  0  0  0
   -0.6784   -0.1651   -0.1974 C   0  0  0  0  0  0  0  0  0  0  0  0
   -0.1338    1.1044   -0.2446 C   0  0  0  0  0  0  0  0  0  0  0  0
   -0.6933    2.1923    0.0293 C   0  0  0  0  0  0  0  0  0  0  0  0
   -2.0008    2.3605    0.4457 C   0  0  0  0  0  0  0  0  0  0  0  0
   -2.6726    1.1087    0.5336 C   0  0  0  0  0  0  0  0  0  0  0  0
   -2.5743   -1.0524    0.2999 H   0  0  0  0  0  0  0  0  0  0  0  0
   -0.1770   -1.1000   -0.4391 H   0  0  0  0  0  0  0  0  0  0  0  0
   -2.5155    3.2874    0.6908 H   0  0  0  0  0  0  0  0  0  0  0  0
    2.4489    0.3189   -1.1100 N   0  0  0  0  0  0  0  0  0  0  0  0
    3.3360    0.9412   -1.3241 N   0  0  0  0  0  0  0  0  0  0  0  0
   -3.9758    1.1939    0.9409 O   0  0  0  0  0  0  0  0  0  0  0  0
   -4.7370   -0.0029    1.0613 C   0  0  0  0  0  0  0  0  0  0  0  0
   -5.7312    0.3098    1.3953 H   0  0  0  0  0  0  0  0  0  0  0  0
   -4.2966   -0.6823    1.8075 H   0  0  0  0  0  0  0  0  0  0  0  0
   -4.8217   -0.5207    0.0933 H   0  0  0  0  0  0  0  0  0  0  0  0
  1  7  1  0  0  0  0
  1  6  2  0  0  0  0
  2  1  1  0  0  0  0
  3  2  2  0  0  0  0
  3  4  1  0  0  0  0
  4  5  2  0  0  0  0
  5  6  1  0  0  0  0
  5  9  1  0  0  0  0
  6 12  1  0  0  0  0
  8  2  1  0  0  0  0
 11 10  3  0  0  0  0
 12 13  1  0  0  0  0
 13 14  1  0  0  0  0
 13 15  1  0  0  0  0
 16 13  1  0  0  0  0
M  RAD  2   3   2   4   2
M  END
