Coordinates from ORCA-job 4-CH3O-C6H3-N2-B3LYPG-aug-cc-pVDZ-scan-d09-49-n400
 OpenBabel11091809133D

 16 15  0  0  0  0  0  0  0  0999 V2000
   -2.0067   -0.1796    0.2079 C   0  0  0  0  0  0  0  0  0  0  0  0
   -0.6617   -0.2833   -0.2142 C   0  0  0  0  0  0  0  0  0  0  0  0
   -0.0878    0.9654   -0.2723 C   0  0  0  0  0  0  0  0  0  0  0  0
   -0.5674    2.1000   -0.0184 C   0  0  0  0  0  0  0  0  0  0  0  0
   -1.8761    2.2933    0.4010 C   0  0  0  0  0  0  0  0  0  0  0  0
   -2.5991    1.0736    0.5076 C   0  0  0  0  0  0  0  0  0  0  0  0
   -2.5879   -1.0945    0.2998 H   0  0  0  0  0  0  0  0  0  0  0  0
   -0.1905   -1.2362   -0.4485 H   0  0  0  0  0  0  0  0  0  0  0  0
   -2.3595    3.2400    0.6384 H   0  0  0  0  0  0  0  0  0  0  0  0
    2.0964    0.5493   -0.9808 N   0  0  0  0  0  0  0  0  0  0  0  0
    2.9726    1.1918   -1.1872 N   0  0  0  0  0  0  0  0  0  0  0  0
   -3.8963    1.2144    0.9185 O   0  0  0  0  0  0  0  0  0  0  0  0
   -4.7035    0.0505    1.0564 C   0  0  0  0  0  0  0  0  0  0  0  0
   -5.6834    0.4059    1.3902 H   0  0  0  0  0  0  0  0  0  0  0  0
   -4.2874   -0.6369    1.8092 H   0  0  0  0  0  0  0  0  0  0  0  0
   -4.8128   -0.4755    0.0952 H   0  0  0  0  0  0  0  0  0  0  0  0
  1  7  1  0  0  0  0
  1  6  2  0  0  0  0
  2  1  1  0  0  0  0
  3  2  2  0  0  0  0
  3  4  1  0  0  0  0
  4  5  2  0  0  0  0
  5  6  1  0  0  0  0
  5  9  1  0  0  0  0
  6 12  1  0  0  0  0
  8  2  1  0  0  0  0
 11 10  3  0  0  0  0
 12 13  1  0  0  0  0
 13 14  1  0  0  0  0
 13 15  1  0  0  0  0
 16 13  1  0  0  0  0
M  RAD  2   3   2   4   2
M  END
