Coordinates from ORCA-job 4-CH3O-C6H3-N2-B3LYPG-aug-cc-pVDZ-scan-d09-49-n400
 OpenBabel11091809133D

 16 16  0  0  0  0  0  0  0  0999 V2000
   -1.9144   -0.2148    0.1765 C   0  0  0  0  0  0  0  0  0  0  0  0
   -0.6144   -0.2703   -0.2270 C   0  0  0  0  0  0  0  0  0  0  0  0
    0.2229    0.9195   -0.3712 C   0  0  0  0  0  0  0  0  0  0  0  0
   -0.3927    2.3236   -0.0505 C   0  0  0  0  0  0  0  0  0  0  0  0
   -1.7269    2.2279    0.3493 C   0  0  0  0  0  0  0  0  0  0  0  0
   -2.4898    1.0562    0.4727 C   0  0  0  0  0  0  0  0  0  0  0  0
   -2.4846   -1.1354    0.2644 H   0  0  0  0  0  0  0  0  0  0  0  0
   -0.1400   -1.2263   -0.4626 H   0  0  0  0  0  0  0  0  0  0  0  0
   -2.2414    3.1626    0.5950 H   0  0  0  0  0  0  0  0  0  0  0  0
    1.1483    0.8748   -0.6593 N   0  0  0  0  0  0  0  0  0  0  0  0
    2.2576    0.8588   -1.0012 N   0  0  0  0  0  0  0  0  0  0  0  0
   -3.7619    1.2029    0.8763 O   0  0  0  0  0  0  0  0  0  0  0  0
   -4.6067    0.0537    1.0267 C   0  0  0  0  0  0  0  0  0  0  0  0
   -5.5716    0.4456    1.3592 H   0  0  0  0  0  0  0  0  0  0  0  0
   -4.2046   -0.6311    1.7861 H   0  0  0  0  0  0  0  0  0  0  0  0
   -4.7307   -0.4693    0.0684 H   0  0  0  0  0  0  0  0  0  0  0  0
  1  7  1  0  0  0  0
  1  6  2  0  0  0  0
  2  1  1  0  0  0  0
  3  2  2  0  0  0  0
  3  4  1  0  0  0  0
  4  5  2  0  0  0  0
  5  6  1  0  0  0  0
  5  9  1  0  0  0  0
  6 12  1  0  0  0  0
  8  2  1  0  0  0  0
 10  3  1  0  0  0  0
 11 10  1  0  0  0  0
 12 13  1  0  0  0  0
 13 14  1  0  0  0  0
 13 15  1  0  0  0  0
 16 13  1  0  0  0  0
M  RAD  3   4   2  10   2  11   3
M  END
