Coordinates from ORCA-job 4-CH3O-C6H3-N2-B3LYPG-aug-cc-pVDZ-scan-d09-49-n400
 OpenBabel11091809133D

 16 15  0  0  0  0  0  0  0  0999 V2000
   -2.0375   -0.0504    0.2296 C   0  0  0  0  0  0  0  0  0  0  0  0
   -0.6860   -0.0429   -0.1839 C   0  0  0  0  0  0  0  0  0  0  0  0
   -0.1833    1.2471   -0.2163 C   0  0  0  0  0  0  0  0  0  0  0  0
   -0.7976    2.3011    0.0713 C   0  0  0  0  0  0  0  0  0  0  0  0
   -2.1095    2.4214    0.4847 C   0  0  0  0  0  0  0  0  0  0  0  0
   -2.7316    1.1428    0.5548 C   0  0  0  0  0  0  0  0  0  0  0  0
   -2.5472   -1.0092    0.2954 H   0  0  0  0  0  0  0  0  0  0  0  0
   -0.1512   -0.9570   -0.4340 H   0  0  0  0  0  0  0  0  0  0  0  0
   -2.6590    3.3254    0.7383 H   0  0  0  0  0  0  0  0  0  0  0  0
    2.7328    0.0322   -1.2244 N   0  0  0  0  0  0  0  0  0  0  0  0
    3.5714    0.7248   -1.4153 N   0  0  0  0  0  0  0  0  0  0  0  0
   -4.0384    1.1723    0.9581 O   0  0  0  0  0  0  0  0  0  0  0  0
   -4.7526   -0.0549    1.0614 C   0  0  0  0  0  0  0  0  0  0  0  0
   -5.7593    0.2148    1.3954 H   0  0  0  0  0  0  0  0  0  0  0  0
   -4.2883   -0.7253    1.8012 H   0  0  0  0  0  0  0  0  0  0  0  0
   -4.8137   -0.5638    0.0870 H   0  0  0  0  0  0  0  0  0  0  0  0
  1  7  1  0  0  0  0
  1  6  2  0  0  0  0
  2  1  1  0  0  0  0
  3  2  2  0  0  0  0
  3  4  1  0  0  0  0
  4  5  2  0  0  0  0
  5  6  1  0  0  0  0
  5  9  1  0  0  0  0
  6 12  1  0  0  0  0
  8  2  1  0  0  0  0
 11 10  3  0  0  0  0
 12 13  1  0  0  0  0
 13 14  1  0  0  0  0
 13 15  1  0  0  0  0
 16 13  1  0  0  0  0
M  RAD  2   3   2   4   2
M  END
