Coordinates from ORCA-job 4-CH3O-C6H3-N2-B3LYPG-aug-cc-pVDZ-scan-d09-49-n400
 OpenBabel11091809133D

 16 15  0  0  0  0  0  0  0  0999 V2000
   -2.0375   -0.0115    0.2332 C   0  0  0  0  0  0  0  0  0  0  0  0
   -0.6857    0.0306   -0.1772 C   0  0  0  0  0  0  0  0  0  0  0  0
   -0.2126    1.3324   -0.1995 C   0  0  0  0  0  0  0  0  0  0  0  0
   -0.8536    2.3687    0.0946 C   0  0  0  0  0  0  0  0  0  0  0  0
   -2.1685    2.4560    0.5059 C   0  0  0  0  0  0  0  0  0  0  0  0
   -2.7603    1.1626    0.5654 C   0  0  0  0  0  0  0  0  0  0  0  0
   -2.5247   -0.9825    0.2910 H   0  0  0  0  0  0  0  0  0  0  0  0
   -0.1299   -0.8694   -0.4325 H   0  0  0  0  0  0  0  0  0  0  0  0
   -2.7394    3.3450    0.7648 H   0  0  0  0  0  0  0  0  0  0  0  0
    2.8553   -0.1328   -1.2775 N   0  0  0  0  0  0  0  0  0  0  0  0
    3.6708    0.5895   -1.4581 N   0  0  0  0  0  0  0  0  0  0  0  0
   -4.0683    1.1584    0.9660 O   0  0  0  0  0  0  0  0  0  0  0  0
   -4.7536   -0.0861    1.0588 C   0  0  0  0  0  0  0  0  0  0  0  0
   -5.7671    0.1575    1.3925 H   0  0  0  0  0  0  0  0  0  0  0  0
   -4.2752   -0.7507    1.7948 H   0  0  0  0  0  0  0  0  0  0  0  0
   -4.8007   -0.5892    0.0807 H   0  0  0  0  0  0  0  0  0  0  0  0
  1  7  1  0  0  0  0
  1  6  2  0  0  0  0
  2  1  1  0  0  0  0
  3  2  2  0  0  0  0
  3  4  1  0  0  0  0
  4  5  2  0  0  0  0
  5  6  1  0  0  0  0
  5  9  1  0  0  0  0
  6 12  1  0  0  0  0
  8  2  1  0  0  0  0
 11 10  3  0  0  0  0
 12 13  1  0  0  0  0
 13 14  1  0  0  0  0
 13 15  1  0  0  0  0
 16 13  1  0  0  0  0
M  RAD  2   3   2   4   2
M  END
