Coordinates from ORCA-job 4-CH3O-C6H3-N2-B3LYPG-aug-cc-pVDZ-scan-d09-49-n400
 OpenBabel11091809133D

 16 15  0  0  0  0  0  0  0  0999 V2000
   -2.0262   -0.1215    0.2196 C   0  0  0  0  0  0  0  0  0  0  0  0
   -0.6769   -0.1767   -0.1990 C   0  0  0  0  0  0  0  0  0  0  0  0
   -0.1312    1.0911   -0.2467 C   0  0  0  0  0  0  0  0  0  0  0  0
   -0.6816    2.1845    0.0249 C   0  0  0  0  0  0  0  0  0  0  0  0
   -1.9896    2.3543    0.4417 C   0  0  0  0  0  0  0  0  0  0  0  0
   -2.6660    1.1053    0.5313 C   0  0  0  0  0  0  0  0  0  0  0  0
   -2.5761   -1.0567    0.3000 H   0  0  0  0  0  0  0  0  0  0  0  0
   -0.1788   -1.1136   -0.4399 H   0  0  0  0  0  0  0  0  0  0  0  0
   -2.5017    3.2829    0.6861 H   0  0  0  0  0  0  0  0  0  0  0  0
    2.4147    0.3494   -1.0967 N   0  0  0  0  0  0  0  0  0  0  0  0
    3.3107    0.9579   -1.3147 N   0  0  0  0  0  0  0  0  0  0  0  0
   -3.9688    1.1957    0.9390 O   0  0  0  0  0  0  0  0  0  0  0  0
   -4.7344    0.0020    1.0610 C   0  0  0  0  0  0  0  0  0  0  0  0
   -5.7274    0.3187    1.3950 H   0  0  0  0  0  0  0  0  0  0  0  0
   -4.2963   -0.6782    1.8078 H   0  0  0  0  0  0  0  0  0  0  0  0
   -4.8214   -0.5166    0.0936 H   0  0  0  0  0  0  0  0  0  0  0  0
  1  7  1  0  0  0  0
  1  6  2  0  0  0  0
  2  1  1  0  0  0  0
  3  2  2  0  0  0  0
  3  4  1  0  0  0  0
  4  5  2  0  0  0  0
  5  6  1  0  0  0  0
  5  9  1  0  0  0  0
  6 12  1  0  0  0  0
  8  2  1  0  0  0  0
 11 10  3  0  0  0  0
 12 13  1  0  0  0  0
 13 14  1  0  0  0  0
 13 15  1  0  0  0  0
 16 13  1  0  0  0  0
M  RAD  2   3   2   4   2
M  END
