Coordinates from ORCA-job 4-CH3O-C6H3-N2-B3LYPG-aug-cc-pVDZ-scan-d09-49-n400
 OpenBabel11091809133D

 16 15  0  0  0  0  0  0  0  0999 V2000
   -2.0316   -0.0943    0.2238 C   0  0  0  0  0  0  0  0  0  0  0  0
   -0.6814   -0.1260   -0.1929 C   0  0  0  0  0  0  0  0  0  0  0  0
   -0.1483    1.1500   -0.2359 C   0  0  0  0  0  0  0  0  0  0  0  0
   -0.7284    2.2256    0.0431 C   0  0  0  0  0  0  0  0  0  0  0  0
   -2.0368    2.3806    0.4586 C   0  0  0  0  0  0  0  0  0  0  0  0
   -2.6927    1.1199    0.5408 C   0  0  0  0  0  0  0  0  0  0  0  0
   -2.5665   -1.0385    0.2987 H   0  0  0  0  0  0  0  0  0  0  0  0
   -0.1698   -1.0547   -0.4372 H   0  0  0  0  0  0  0  0  0  0  0  0
   -2.5622    3.3006    0.7063 H   0  0  0  0  0  0  0  0  0  0  0  0
    2.5492    0.2229   -1.1499 N   0  0  0  0  0  0  0  0  0  0  0  0
    3.4160    0.8759   -1.3544 N   0  0  0  0  0  0  0  0  0  0  0  0
   -3.9972    1.1872    0.9468 O   0  0  0  0  0  0  0  0  0  0  0  0
   -4.7435   -0.0196    1.0618 C   0  0  0  0  0  0  0  0  0  0  0  0
   -5.7419    0.2794    1.3958 H   0  0  0  0  0  0  0  0  0  0  0  0
   -4.2954   -0.6961    1.8059 H   0  0  0  0  0  0  0  0  0  0  0  0
   -4.8206   -0.5347    0.0917 H   0  0  0  0  0  0  0  0  0  0  0  0
  1  7  1  0  0  0  0
  1  6  2  0  0  0  0
  2  1  1  0  0  0  0
  3  2  2  0  0  0  0
  3  4  1  0  0  0  0
  4  5  2  0  0  0  0
  5  6  1  0  0  0  0
  5  9  1  0  0  0  0
  6 12  1  0  0  0  0
  8  2  1  0  0  0  0
 11 10  3  0  0  0  0
 12 13  1  0  0  0  0
 13 14  1  0  0  0  0
 13 15  1  0  0  0  0
 16 13  1  0  0  0  0
M  RAD  2   3   2   4   2
M  END
