Coordinates from ORCA-job 4-CH3O-C6H3-N2-B3LYPG-aug-cc-pVDZ-scan-d09-49-n400
 OpenBabel11091809133D

 16 15  0  0  0  0  0  0  0  0999 V2000
   -1.9894   -0.2093    0.2001 C   0  0  0  0  0  0  0  0  0  0  0  0
   -0.6497   -0.3223   -0.2208 C   0  0  0  0  0  0  0  0  0  0  0  0
   -0.0562    0.9157   -0.2859 C   0  0  0  0  0  0  0  0  0  0  0  0
   -0.4899    2.0851   -0.0427 C   0  0  0  0  0  0  0  0  0  0  0  0
   -1.8083    2.2551    0.3770 C   0  0  0  0  0  0  0  0  0  0  0  0
   -2.5574    1.0563    0.4934 C   0  0  0  0  0  0  0  0  0  0  0  0
   -2.5806   -1.1168    0.2956 H   0  0  0  0  0  0  0  0  0  0  0  0
   -0.1782   -1.2762   -0.4551 H   0  0  0  0  0  0  0  0  0  0  0  0
   -2.2838    3.2078    0.6125 H   0  0  0  0  0  0  0  0  0  0  0  0
    1.8450    0.6548   -0.8933 N   0  0  0  0  0  0  0  0  0  0  0  0
    2.7471    1.2610   -1.1145 N   0  0  0  0  0  0  0  0  0  0  0  0
   -3.8506    1.2217    0.9051 O   0  0  0  0  0  0  0  0  0  0  0  0
   -4.6777    0.0730    1.0501 C   0  0  0  0  0  0  0  0  0  0  0  0
   -5.6509    0.4466    1.3834 H   0  0  0  0  0  0  0  0  0  0  0  0
   -4.2728   -0.6178    1.8060 H   0  0  0  0  0  0  0  0  0  0  0  0
   -4.7976   -0.4563    0.0920 H   0  0  0  0  0  0  0  0  0  0  0  0
  1  7  1  0  0  0  0
  1  6  2  0  0  0  0
  2  1  1  0  0  0  0
  3  2  2  0  0  0  0
  3  4  1  0  0  0  0
  4  5  2  0  0  0  0
  5  6  1  0  0  0  0
  5  9  1  0  0  0  0
  6 12  1  0  0  0  0
  8  2  1  0  0  0  0
 11 10  3  0  0  0  0
 12 13  1  0  0  0  0
 13 14  1  0  0  0  0
 13 15  1  0  0  0  0
 16 13  1  0  0  0  0
M  RAD  2   3   2   4   2
M  END
