Coordinates from ORCA-job 4-CH3O-C6H3-N2-B3LYPG-aug-cc-pVDZ-scan-d09-49-n400
 OpenBabel11091809133D

 16 15  0  0  0  0  0  0  0  0999 V2000
   -2.0257   -0.1226    0.2194 C   0  0  0  0  0  0  0  0  0  0  0  0
   -0.6763   -0.1790   -0.1994 C   0  0  0  0  0  0  0  0  0  0  0  0
   -0.1312    1.0887   -0.2470 C   0  0  0  0  0  0  0  0  0  0  0  0
   -0.6791    2.1835    0.0241 C   0  0  0  0  0  0  0  0  0  0  0  0
   -1.9873    2.3532    0.4409 C   0  0  0  0  0  0  0  0  0  0  0  0
   -2.6646    1.1047    0.5308 C   0  0  0  0  0  0  0  0  0  0  0  0
   -2.5762   -1.0574    0.3000 H   0  0  0  0  0  0  0  0  0  0  0  0
   -0.1795   -1.1166   -0.4399 H   0  0  0  0  0  0  0  0  0  0  0  0
   -2.4990    3.2821    0.6852 H   0  0  0  0  0  0  0  0  0  0  0  0
    2.4073    0.3554   -1.0939 N   0  0  0  0  0  0  0  0  0  0  0  0
    3.3053    0.9607   -1.3128 N   0  0  0  0  0  0  0  0  0  0  0  0
   -3.9674    1.1960    0.9385 O   0  0  0  0  0  0  0  0  0  0  0  0
   -4.7337    0.0028    1.0608 C   0  0  0  0  0  0  0  0  0  0  0  0
   -5.7264    0.3203    1.3948 H   0  0  0  0  0  0  0  0  0  0  0  0
   -4.2961   -0.6775    1.8078 H   0  0  0  0  0  0  0  0  0  0  0  0
   -4.8212   -0.5159    0.0936 H   0  0  0  0  0  0  0  0  0  0  0  0
  1  7  1  0  0  0  0
  1  6  2  0  0  0  0
  2  1  1  0  0  0  0
  3  2  2  0  0  0  0
  3  4  1  0  0  0  0
  4  5  2  0  0  0  0
  5  6  1  0  0  0  0
  5  9  1  0  0  0  0
  6 12  1  0  0  0  0
  8  2  1  0  0  0  0
 11 10  3  0  0  0  0
 12 13  1  0  0  0  0
 13 14  1  0  0  0  0
 13 15  1  0  0  0  0
 16 13  1  0  0  0  0
M  RAD  2   3   2   4   2
M  END
