Coordinates from ORCA-job 4-CH3O-C6H3-N2-B3LYPG-aug-cc-pVDZ-scan-d09-49-n400
 OpenBabel11091809133D

 16 15  0  0  0  0  0  0  0  0999 V2000
   -2.0235    0.1478    0.2443 C   0  0  0  0  0  0  0  0  0  0  0  0
   -0.6783    0.3297   -0.1507 C   0  0  0  0  0  0  0  0  0  0  0  0
   -0.3347    1.6719   -0.1297 C   0  0  0  0  0  0  0  0  0  0  0  0
   -1.0736    2.6334    0.1871 C   0  0  0  0  0  0  0  0  0  0  0  0
   -2.3941    2.5814    0.5868 C   0  0  0  0  0  0  0  0  0  0  0  0
   -2.8590    1.2362    0.6026 C   0  0  0  0  0  0  0  0  0  0  0  0
   -2.4157   -0.8667    0.2690 H   0  0  0  0  0  0  0  0  0  0  0  0
   -0.0422   -0.5099   -0.4245 H   0  0  0  0  0  0  0  0  0  0  0  0
   -3.0499    3.4036    0.8650 H   0  0  0  0  0  0  0  0  0  0  0  0
    3.1210   -0.6217   -1.4030 N   0  0  0  0  0  0  0  0  0  0  0  0
    4.0585   -0.0903   -1.6438 N   0  0  0  0  0  0  0  0  0  0  0  0
   -4.1636    1.0938    0.9889 O   0  0  0  0  0  0  0  0  0  0  0  0
   -4.7262   -0.2131    1.0382 C   0  0  0  0  0  0  0  0  0  0  0  0
   -5.7611   -0.0784    1.3679 H   0  0  0  0  0  0  0  0  0  0  0  0
   -4.1918   -0.8504    1.7596 H   0  0  0  0  0  0  0  0  0  0  0  0
   -4.7169   -0.6889    0.0454 H   0  0  0  0  0  0  0  0  0  0  0  0
  1  7  1  0  0  0  0
  1  6  2  0  0  0  0
  2  3  2  0  0  0  0
  2  1  1  0  0  0  0
  3  4  1  0  0  0  0
  4  5  2  0  0  0  0
  5  6  1  0  0  0  0
  5  9  1  0  0  0  0
  6 12  1  0  0  0  0
  8  2  1  0  0  0  0
 11 10  3  0  0  0  0
 12 13  1  0  0  0  0
 13 14  1  0  0  0  0
 13 15  1  0  0  0  0
 16 13  1  0  0  0  0
M  RAD  2   3   2   4   2
M  END
