Coordinates from ORCA-job 4-CH3O-C6H3-N2-B3LYPG-aug-cc-pVDZ-scan-d09-49-n400
 OpenBabel11091809133D

 16 15  0  0  0  0  0  0  0  0999 V2000
   -1.9992   -0.1972    0.2040 C   0  0  0  0  0  0  0  0  0  0  0  0
   -0.6572   -0.3098   -0.2179 C   0  0  0  0  0  0  0  0  0  0  0  0
   -0.0704    0.9322   -0.2806 C   0  0  0  0  0  0  0  0  0  0  0  0
   -0.5275    2.0821   -0.0321 C   0  0  0  0  0  0  0  0  0  0  0  0
   -1.8393    2.2720    0.3878 C   0  0  0  0  0  0  0  0  0  0  0  0
   -2.5771    1.0636    0.5000 C   0  0  0  0  0  0  0  0  0  0  0  0
   -2.5874   -1.1070    0.2985 H   0  0  0  0  0  0  0  0  0  0  0  0
   -0.1871   -1.2639   -0.4519 H   0  0  0  0  0  0  0  0  0  0  0  0
   -2.3157    3.2233    0.6235 H   0  0  0  0  0  0  0  0  0  0  0  0
    1.9754    0.6078   -0.9381 N   0  0  0  0  0  0  0  0  0  0  0  0
    2.8541    1.2486   -1.1462 N   0  0  0  0  0  0  0  0  0  0  0  0
   -3.8721    1.2194    0.9116 O   0  0  0  0  0  0  0  0  0  0  0  0
   -4.6913    0.0646    1.0539 C   0  0  0  0  0  0  0  0  0  0  0  0
   -5.6672    0.4310    1.3875 H   0  0  0  0  0  0  0  0  0  0  0  0
   -4.2818   -0.6248    1.8086 H   0  0  0  0  0  0  0  0  0  0  0  0
   -4.8071   -0.4634    0.0946 H   0  0  0  0  0  0  0  0  0  0  0  0
  1  7  1  0  0  0  0
  1  6  2  0  0  0  0
  2  1  1  0  0  0  0
  3  2  2  0  0  0  0
  3  4  1  0  0  0  0
  4  5  2  0  0  0  0
  5  6  1  0  0  0  0
  5  9  1  0  0  0  0
  6 12  1  0  0  0  0
  8  2  1  0  0  0  0
 11 10  3  0  0  0  0
 12 13  1  0  0  0  0
 13 14  1  0  0  0  0
 13 15  1  0  0  0  0
 16 13  1  0  0  0  0
M  RAD  2   3   2   4   2
M  END
