Coordinates from ORCA-job 4-CH3O-C6H3-N2-B3LYPG-aug-cc-pVDZ-scan-d09-49-n400
 OpenBabel11091809133D

 16 15  0  0  0  0  0  0  0  0999 V2000
   -2.0288    0.1171    0.2429 C   0  0  0  0  0  0  0  0  0  0  0  0
   -0.6811    0.2722   -0.1555 C   0  0  0  0  0  0  0  0  0  0  0  0
   -0.3145    1.6079   -0.1421 C   0  0  0  0  0  0  0  0  0  0  0  0
   -1.0331    2.5862    0.1701 C   0  0  0  0  0  0  0  0  0  0  0  0
   -2.3539    2.5595    0.5723 C   0  0  0  0  0  0  0  0  0  0  0  0
   -2.8432    1.2230    0.5966 C   0  0  0  0  0  0  0  0  0  0  0  0
   -2.4397   -0.8897    0.2741 H   0  0  0  0  0  0  0  0  0  0  0  0
   -0.0597   -0.5792   -0.4260 H   0  0  0  0  0  0  0  0  0  0  0  0
   -2.9943    3.3948    0.8472 H   0  0  0  0  0  0  0  0  0  0  0  0
    3.0902   -0.5302   -1.3855 N   0  0  0  0  0  0  0  0  0  0  0  0
    4.0101    0.0353   -1.6162 N   0  0  0  0  0  0  0  0  0  0  0  0
   -4.1496    1.1068    0.9859 O   0  0  0  0  0  0  0  0  0  0  0  0
   -4.7361   -0.1891    1.0436 C   0  0  0  0  0  0  0  0  0  0  0  0
   -5.7677   -0.0334    1.3744 H   0  0  0  0  0  0  0  0  0  0  0  0
   -4.2122   -0.8321    1.7677 H   0  0  0  0  0  0  0  0  0  0  0  0
   -4.7374   -0.6706    0.0535 H   0  0  0  0  0  0  0  0  0  0  0  0
  1  7  1  0  0  0  0
  1  6  2  0  0  0  0
  2  3  2  0  0  0  0
  2  1  1  0  0  0  0
  3  4  1  0  0  0  0
  4  5  2  0  0  0  0
  5  6  1  0  0  0  0
  5  9  1  0  0  0  0
  6 12  1  0  0  0  0
  8  2  1  0  0  0  0
 11 10  3  0  0  0  0
 12 13  1  0  0  0  0
 13 14  1  0  0  0  0
 13 15  1  0  0  0  0
 16 13  1  0  0  0  0
M  RAD  2   3   2   4   2
M  END
