Coordinates from ORCA-job 4-CH3O-C6H3-N2-B3LYPG-aug-cc-pVDZ-scan-d09-49-n400
 OpenBabel11091809133D

 16 15  0  0  0  0  0  0  0  0999 V2000
   -2.0005   -0.1957    0.2045 C   0  0  0  0  0  0  0  0  0  0  0  0
   -0.6582   -0.3078   -0.2174 C   0  0  0  0  0  0  0  0  0  0  0  0
   -0.0721    0.9348   -0.2799 C   0  0  0  0  0  0  0  0  0  0  0  0
   -0.5321    2.0825   -0.0307 C   0  0  0  0  0  0  0  0  0  0  0  0
   -1.8433    2.2740    0.3892 C   0  0  0  0  0  0  0  0  0  0  0  0
   -2.5797    1.0645    0.5009 C   0  0  0  0  0  0  0  0  0  0  0  0
   -2.5882   -1.1059    0.2989 H   0  0  0  0  0  0  0  0  0  0  0  0
   -0.1881   -1.2618   -0.4515 H   0  0  0  0  0  0  0  0  0  0  0  0
   -2.3201    3.2250    0.6249 H   0  0  0  0  0  0  0  0  0  0  0  0
    1.9917    0.6021   -0.9436 N   0  0  0  0  0  0  0  0  0  0  0  0
    2.8684    1.2456   -1.1507 N   0  0  0  0  0  0  0  0  0  0  0  0
   -3.8749    1.2191    0.9124 O   0  0  0  0  0  0  0  0  0  0  0  0
   -4.6931    0.0634    1.0543 C   0  0  0  0  0  0  0  0  0  0  0  0
   -5.6693    0.4289    1.3880 H   0  0  0  0  0  0  0  0  0  0  0  0
   -4.2830   -0.6258    1.8089 H   0  0  0  0  0  0  0  0  0  0  0  0
   -4.8083   -0.4644    0.0949 H   0  0  0  0  0  0  0  0  0  0  0  0
  1  7  1  0  0  0  0
  1  6  2  0  0  0  0
  2  1  1  0  0  0  0
  3  2  2  0  0  0  0
  3  4  1  0  0  0  0
  4  5  2  0  0  0  0
  5  6  1  0  0  0  0
  5  9  1  0  0  0  0
  6 12  1  0  0  0  0
  8  2  1  0  0  0  0
 11 10  3  0  0  0  0
 12 13  1  0  0  0  0
 13 14  1  0  0  0  0
 13 15  1  0  0  0  0
 16 13  1  0  0  0  0
M  RAD  2   3   2   4   2
M  END
