Coordinates from ORCA-job 4-CH3O-C6H3-N2-B3LYPG-aug-cc-pVDZ-scan-d09-49-n400
 OpenBabel11091809133D

 16 15  0  0  0  0  0  0  0  0999 V2000
   -2.0089   -0.1734    0.2092 C   0  0  0  0  0  0  0  0  0  0  0  0
   -0.6631   -0.2724   -0.2127 C   0  0  0  0  0  0  0  0  0  0  0  0
   -0.0933    0.9785   -0.2694 C   0  0  0  0  0  0  0  0  0  0  0  0
   -0.5801    2.1087   -0.0137 C   0  0  0  0  0  0  0  0  0  0  0  0
   -1.8887    2.3003    0.4055 C   0  0  0  0  0  0  0  0  0  0  0  0
   -2.6064    1.0771    0.5102 C   0  0  0  0  0  0  0  0  0  0  0  0
   -2.5870   -1.0903    0.3000 H   0  0  0  0  0  0  0  0  0  0  0  0
   -0.1899   -1.2241   -0.4474 H   0  0  0  0  0  0  0  0  0  0  0  0
   -2.3751    3.2451    0.6436 H   0  0  0  0  0  0  0  0  0  0  0  0
    2.1327    0.5290   -0.9938 N   0  0  0  0  0  0  0  0  0  0  0  0
    3.0117    1.1667   -1.2017 N   0  0  0  0  0  0  0  0  0  0  0  0
   -3.9044    1.2125    0.9208 O   0  0  0  0  0  0  0  0  0  0  0  0
   -4.7071    0.0453    1.0570 C   0  0  0  0  0  0  0  0  0  0  0  0
   -5.6885    0.3965    1.3909 H   0  0  0  0  0  0  0  0  0  0  0  0
   -4.2886   -0.6413    1.8092 H   0  0  0  0  0  0  0  0  0  0  0  0
   -4.8141   -0.4799    0.0952 H   0  0  0  0  0  0  0  0  0  0  0  0
  1  7  1  0  0  0  0
  1  6  2  0  0  0  0
  2  1  1  0  0  0  0
  3  2  2  0  0  0  0
  3  4  1  0  0  0  0
  4  5  2  0  0  0  0
  5  6  1  0  0  0  0
  5  9  1  0  0  0  0
  6 12  1  0  0  0  0
  8  2  1  0  0  0  0
 11 10  3  0  0  0  0
 12 13  1  0  0  0  0
 13 14  1  0  0  0  0
 13 15  1  0  0  0  0
 16 13  1  0  0  0  0
M  RAD  2   3   2   4   2
M  END
