Coordinates from ORCA-job 4-CH3O-C6H3-N2-B3LYPG-aug-cc-pVDZ-scan-d09-49-n400
 OpenBabel11091809133D

 16 15  0  0  0  0  0  0  0  0999 V2000
   -2.0360    0.0405    0.2374 C   0  0  0  0  0  0  0  0  0  0  0  0
   -0.6844    0.1274   -0.1690 C   0  0  0  0  0  0  0  0  0  0  0  0
   -0.2565    1.4444   -0.1760 C   0  0  0  0  0  0  0  0  0  0  0  0
   -0.9270    2.4595    0.1253 C   0  0  0  0  0  0  0  0  0  0  0  0
   -2.2455    2.4998    0.5335 C   0  0  0  0  0  0  0  0  0  0  0  0
   -2.7963    1.1879    0.5788 C   0  0  0  0  0  0  0  0  0  0  0  0
   -2.4930   -0.9456    0.2846 H   0  0  0  0  0  0  0  0  0  0  0  0
   -0.1037   -0.7550   -0.4303 H   0  0  0  0  0  0  0  0  0  0  0  0
   -2.8453    3.3677    0.7993 H   0  0  0  0  0  0  0  0  0  0  0  0
    2.9654   -0.2933   -1.3271 N   0  0  0  0  0  0  0  0  0  0  0  0
    3.8310    0.3626   -1.5266 N   0  0  0  0  0  0  0  0  0  0  0  0
   -4.1047    1.1381    0.9754 O   0  0  0  0  0  0  0  0  0  0  0  0
   -4.7505   -0.1282    1.0542 C   0  0  0  0  0  0  0  0  0  0  0  0
   -5.7720    0.0800    1.3872 H   0  0  0  0  0  0  0  0  0  0  0  0
   -4.2533   -0.7845    1.7852 H   0  0  0  0  0  0  0  0  0  0  0  0
   -4.7792   -0.6230    0.0711 H   0  0  0  0  0  0  0  0  0  0  0  0
  1  7  1  0  0  0  0
  1  6  2  0  0  0  0
  2  1  1  0  0  0  0
  3  2  2  0  0  0  0
  3  4  1  0  0  0  0
  4  5  2  0  0  0  0
  5  6  1  0  0  0  0
  5  9  1  0  0  0  0
  6 12  1  0  0  0  0
  8  2  1  0  0  0  0
 11 10  3  0  0  0  0
 12 13  1  0  0  0  0
 13 14  1  0  0  0  0
 13 15  1  0  0  0  0
 16 13  1  0  0  0  0
M  RAD  2   3   2   4   2
M  END
