Coordinates from ORCA-job 4-CH3O-C6H3-N2-B3LYPG-aug-cc-pVDZ-scan-d09-49-n400
 OpenBabel11091809133D

 16 15  0  0  0  0  0  0  0  0999 V2000
   -2.0188    0.2162    0.2493 C   0  0  0  0  0  0  0  0  0  0  0  0
   -0.6808    0.4572   -0.1380 C   0  0  0  0  0  0  0  0  0  0  0  0
   -0.3892    1.8119   -0.1000 C   0  0  0  0  0  0  0  0  0  0  0  0
   -1.1703    2.7362    0.2263 C   0  0  0  0  0  0  0  0  0  0  0  0
   -2.4887    2.6283    0.6202 C   0  0  0  0  0  0  0  0  0  0  0  0
   -2.8990    1.2653    0.6177 C   0  0  0  0  0  0  0  0  0  0  0  0
   -2.3695   -0.8135    0.2599 H   0  0  0  0  0  0  0  0  0  0  0  0
   -0.0125   -0.3546   -0.4191 H   0  0  0  0  0  0  0  0  0  0  0  0
   -3.1775    3.4203    0.9057 H   0  0  0  0  0  0  0  0  0  0  0  0
    3.2302   -0.8261   -1.4559 N   0  0  0  0  0  0  0  0  0  0  0  0
    4.2046   -0.3760   -1.7152 N   0  0  0  0  0  0  0  0  0  0  0  0
   -4.1981    1.0655    0.9970 O   0  0  0  0  0  0  0  0  0  0  0  0
   -4.7075   -0.2636    1.0277 C   0  0  0  0  0  0  0  0  0  0  0  0
   -5.7482   -0.1749    1.3548 H   0  0  0  0  0  0  0  0  0  0  0  0
   -4.1504   -0.8877    1.7434 H   0  0  0  0  0  0  0  0  0  0  0  0
   -4.6754   -0.7261    0.0291 H   0  0  0  0  0  0  0  0  0  0  0  0
  1  7  1  0  0  0  0
  1  6  2  0  0  0  0
  2  3  2  0  0  0  0
  2  1  1  0  0  0  0
  3  4  1  0  0  0  0
  4  5  2  0  0  0  0
  5  9  1  0  0  0  0
  6  5  1  0  0  0  0
  6 12  1  0  0  0  0
  8  2  1  0  0  0  0
 11 10  3  0  0  0  0
 12 13  1  0  0  0  0
 13 14  1  0  0  0  0
 13 15  1  0  0  0  0
 16 13  1  0  0  0  0
M  RAD  2   3   2   4   2
M  END
