Coordinates from ORCA-job 4-CH3O-C6H3-N2-B3LYPG-aug-cc-pVDZ-scan-d09-49-n400
 OpenBabel11091809133D

 16 15  0  0  0  0  0  0  0  0999 V2000
   -2.0222    0.1680    0.2458 C   0  0  0  0  0  0  0  0  0  0  0  0
   -0.6789    0.3675   -0.1470 C   0  0  0  0  0  0  0  0  0  0  0  0
   -0.3497    1.7135   -0.1212 C   0  0  0  0  0  0  0  0  0  0  0  0
   -1.1023    2.6633    0.1987 C   0  0  0  0  0  0  0  0  0  0  0  0
   -2.4223    2.5957    0.5967 C   0  0  0  0  0  0  0  0  0  0  0  0
   -2.8711    1.2450    0.6072 C   0  0  0  0  0  0  0  0  0  0  0  0
   -2.4021   -0.8512    0.2663 H   0  0  0  0  0  0  0  0  0  0  0  0
   -0.0342   -0.4649   -0.4228 H   0  0  0  0  0  0  0  0  0  0  0  0
   -3.0877    3.4093    0.8771 H   0  0  0  0  0  0  0  0  0  0  0  0
    3.1547   -0.6819   -1.4191 N   0  0  0  0  0  0  0  0  0  0  0  0
    4.1040   -0.1746   -1.6656 N   0  0  0  0  0  0  0  0  0  0  0  0
   -4.1744    1.0856    0.9915 O   0  0  0  0  0  0  0  0  0  0  0  0
   -4.7213   -0.2281    1.0353 C   0  0  0  0  0  0  0  0  0  0  0  0
   -5.7581   -0.1070    1.3643 H   0  0  0  0  0  0  0  0  0  0  0  0
   -4.1801   -0.8616    1.7550 H   0  0  0  0  0  0  0  0  0  0  0  0
   -4.7052   -0.7001    0.0407 H   0  0  0  0  0  0  0  0  0  0  0  0
  1  7  1  0  0  0  0
  1  6  2  0  0  0  0
  2  3  2  0  0  0  0
  2  1  1  0  0  0  0
  3  4  1  0  0  0  0
  4  5  2  0  0  0  0
  5  6  1  0  0  0  0
  5  9  1  0  0  0  0
  6 12  1  0  0  0  0
  8  2  1  0  0  0  0
 11 10  3  0  0  0  0
 12 13  1  0  0  0  0
 13 14  1  0  0  0  0
 13 15  1  0  0  0  0
 16 13  1  0  0  0  0
M  RAD  2   3   2   4   2
M  END
