Coordinates from ORCA-job 4-CH3O-C6H3-N2-B3LYPG-aug-cc-pVDZ-scan-d09-49-n400
 OpenBabel11091809133D

 16 15  0  0  0  0  0  0  0  0999 V2000
   -2.0166    0.2389    0.2508 C   0  0  0  0  0  0  0  0  0  0  0  0
   -0.6816    0.4994   -0.1338 C   0  0  0  0  0  0  0  0  0  0  0  0
   -0.4080    1.8577   -0.0899 C   0  0  0  0  0  0  0  0  0  0  0  0
   -1.2020    2.7700    0.2392 C   0  0  0  0  0  0  0  0  0  0  0  0
   -2.5193    2.6429    0.6309 C   0  0  0  0  0  0  0  0  0  0  0  0
   -2.9113    1.2746    0.6224 C   0  0  0  0  0  0  0  0  0  0  0  0
   -2.3535   -0.7955    0.2568 H   0  0  0  0  0  0  0  0  0  0  0  0
   -0.0022   -0.3024   -0.4173 H   0  0  0  0  0  0  0  0  0  0  0  0
   -3.2190    3.4245    0.9188 H   0  0  0  0  0  0  0  0  0  0  0  0
    3.2613   -0.8933   -1.4717 N   0  0  0  0  0  0  0  0  0  0  0  0
    4.2460   -0.4698   -1.7368 N   0  0  0  0  0  0  0  0  0  0  0  0
   -4.2081    1.0558    0.9991 O   0  0  0  0  0  0  0  0  0  0  0  0
   -4.6997   -0.2801    1.0237 C   0  0  0  0  0  0  0  0  0  0  0  0
   -5.7419   -0.2068    1.3498 H   0  0  0  0  0  0  0  0  0  0  0  0
   -4.1351   -0.8996    1.7376 H   0  0  0  0  0  0  0  0  0  0  0  0
   -4.6600   -0.7380    0.0233 H   0  0  0  0  0  0  0  0  0  0  0  0
  1  7  1  0  0  0  0
  1  6  2  0  0  0  0
  2  3  2  0  0  0  0
  2  1  1  0  0  0  0
  3  4  1  0  0  0  0
  4  5  2  0  0  0  0
  5  9  1  0  0  0  0
  6  5  1  0  0  0  0
  6 12  1  0  0  0  0
  8  2  1  0  0  0  0
 11 10  3  0  0  0  0
 12 13  1  0  0  0  0
 13 14  1  0  0  0  0
 13 15  1  0  0  0  0
 16 13  1  0  0  0  0
M  RAD  2   3   2   4   2
M  END
