Coordinates from ORCA-job 4-CH3O-C6H3-N2-B3LYPG-aug-cc-pVDZ-scan-d09-49-n400
 OpenBabel11091809133D

 16 15  0  0  0  0  0  0  0  0999 V2000
   -2.0184    0.2203    0.2496 C   0  0  0  0  0  0  0  0  0  0  0  0
   -0.6809    0.4648   -0.1372 C   0  0  0  0  0  0  0  0  0  0  0  0
   -0.3926    1.8202   -0.0981 C   0  0  0  0  0  0  0  0  0  0  0  0
   -1.1760    2.7423    0.2287 C   0  0  0  0  0  0  0  0  0  0  0  0
   -2.4942    2.6310    0.6221 C   0  0  0  0  0  0  0  0  0  0  0  0
   -2.9013    1.2670    0.6185 C   0  0  0  0  0  0  0  0  0  0  0  0
   -2.3666   -0.8103    0.2594 H   0  0  0  0  0  0  0  0  0  0  0  0
   -0.0106   -0.3452   -0.4188 H   0  0  0  0  0  0  0  0  0  0  0  0
   -3.1850    3.4211    0.9081 H   0  0  0  0  0  0  0  0  0  0  0  0
    3.2360   -0.8382   -1.4588 N   0  0  0  0  0  0  0  0  0  0  0  0
    4.2123   -0.3930   -1.7192 N   0  0  0  0  0  0  0  0  0  0  0  0
   -4.2000    1.0638    0.9974 O   0  0  0  0  0  0  0  0  0  0  0  0
   -4.7062   -0.2666    1.0270 C   0  0  0  0  0  0  0  0  0  0  0  0
   -5.7472   -0.1806    1.3539 H   0  0  0  0  0  0  0  0  0  0  0  0
   -4.1477   -0.8898    1.7424 H   0  0  0  0  0  0  0  0  0  0  0  0
   -4.6727   -0.7283    0.0281 H   0  0  0  0  0  0  0  0  0  0  0  0
  1  7  1  0  0  0  0
  1  6  2  0  0  0  0
  2  3  2  0  0  0  0
  2  1  1  0  0  0  0
  3  4  1  0  0  0  0
  4  5  2  0  0  0  0
  5  9  1  0  0  0  0
  6  5  1  0  0  0  0
  6 12  1  0  0  0  0
  8  2  1  0  0  0  0
 11 10  3  0  0  0  0
 12 13  1  0  0  0  0
 13 14  1  0  0  0  0
 13 15  1  0  0  0  0
 16 13  1  0  0  0  0
M  RAD  2   3   2   4   2
M  END
