Coordinates from ORCA-job 4-CH3O-C6H3-N2-B3LYPG-aug-cc-pVDZ-scan-d09-49-n400
 OpenBabel11091809133D

 16 15  0  0  0  0  0  0  0  0999 V2000
   -2.0269   -0.1190    0.2201 C   0  0  0  0  0  0  0  0  0  0  0  0
   -0.6777   -0.1722   -0.1983 C   0  0  0  0  0  0  0  0  0  0  0  0
   -0.1320    1.0962   -0.2460 C   0  0  0  0  0  0  0  0  0  0  0  0
   -0.6864    2.1872    0.0267 C   0  0  0  0  0  0  0  0  0  0  0  0
   -1.9941    2.3567    0.4433 C   0  0  0  0  0  0  0  0  0  0  0  0
   -2.6687    1.1067    0.5322 C   0  0  0  0  0  0  0  0  0  0  0  0
   -2.5755   -1.0550    0.3000 H   0  0  0  0  0  0  0  0  0  0  0  0
   -0.1780   -1.1081   -0.4396 H   0  0  0  0  0  0  0  0  0  0  0  0
   -2.5071    3.2847    0.6879 H   0  0  0  0  0  0  0  0  0  0  0  0
    2.4288    0.3372   -1.1022 N   0  0  0  0  0  0  0  0  0  0  0  0
    3.3209    0.9516   -1.3185 N   0  0  0  0  0  0  0  0  0  0  0  0
   -3.9717    1.1951    0.9398 O   0  0  0  0  0  0  0  0  0  0  0  0
   -4.7355    0.0001    1.0611 C   0  0  0  0  0  0  0  0  0  0  0  0
   -5.7290    0.3152    1.3951 H   0  0  0  0  0  0  0  0  0  0  0  0
   -4.2966   -0.6798    1.8077 H   0  0  0  0  0  0  0  0  0  0  0  0
   -4.8217   -0.5182    0.0935 H   0  0  0  0  0  0  0  0  0  0  0  0
  1  7  1  0  0  0  0
  1  6  2  0  0  0  0
  2  1  1  0  0  0  0
  3  2  2  0  0  0  0
  3  4  1  0  0  0  0
  4  5  2  0  0  0  0
  5  6  1  0  0  0  0
  5  9  1  0  0  0  0
  6 12  1  0  0  0  0
  8  2  1  0  0  0  0
 11 10  3  0  0  0  0
 12 13  1  0  0  0  0
 13 14  1  0  0  0  0
 13 15  1  0  0  0  0
 16 13  1  0  0  0  0
M  RAD  2   3   2   4   2
M  END
