Coordinates from ORCA-job 4-CH3O-C6H3-N2-B3LYPG-aug-cc-pVDZ-scan-d09-49-n400
 OpenBabel11091809133D

 16 15  0  0  0  0  0  0  0  0999 V2000
   -2.0180    0.2244    0.2499 C   0  0  0  0  0  0  0  0  0  0  0  0
   -0.6811    0.4725   -0.1365 C   0  0  0  0  0  0  0  0  0  0  0  0
   -0.3960    1.8285   -0.0963 C   0  0  0  0  0  0  0  0  0  0  0  0
   -1.1818    2.7485    0.2310 C   0  0  0  0  0  0  0  0  0  0  0  0
   -2.4998    2.6336    0.6241 C   0  0  0  0  0  0  0  0  0  0  0  0
   -2.9035    1.2687    0.6194 C   0  0  0  0  0  0  0  0  0  0  0  0
   -2.3637   -0.8070    0.2588 H   0  0  0  0  0  0  0  0  0  0  0  0
   -0.0087   -0.3357   -0.4185 H   0  0  0  0  0  0  0  0  0  0  0  0
   -3.1926    3.4219    0.9105 H   0  0  0  0  0  0  0  0  0  0  0  0
    3.2417   -0.8505   -1.4617 N   0  0  0  0  0  0  0  0  0  0  0  0
    4.2199   -0.4101   -1.7232 N   0  0  0  0  0  0  0  0  0  0  0  0
   -4.2018    1.0620    0.9978 O   0  0  0  0  0  0  0  0  0  0  0  0
   -4.7048   -0.2696    1.0263 C   0  0  0  0  0  0  0  0  0  0  0  0
   -5.7460   -0.1864    1.3530 H   0  0  0  0  0  0  0  0  0  0  0  0
   -4.1449   -0.8920    1.7413 H   0  0  0  0  0  0  0  0  0  0  0  0
   -4.6699   -0.7304    0.0270 H   0  0  0  0  0  0  0  0  0  0  0  0
  1  7  1  0  0  0  0
  1  6  2  0  0  0  0
  2  3  2  0  0  0  0
  2  1  1  0  0  0  0
  3  4  1  0  0  0  0
  4  5  2  0  0  0  0
  5  9  1  0  0  0  0
  6  5  1  0  0  0  0
  6 12  1  0  0  0  0
  8  2  1  0  0  0  0
 11 10  3  0  0  0  0
 12 13  1  0  0  0  0
 13 14  1  0  0  0  0
 13 15  1  0  0  0  0
 16 13  1  0  0  0  0
M  RAD  2   3   2   4   2
M  END
