Coordinates from ORCA-job 4-CH3O-C6H3-N2-B3LYPG-aug-cc-pVDZ-scan-d09-49-n400
 OpenBabel11091809133D

 16 15  0  0  0  0  0  0  0  0999 V2000
   -2.0200    0.2020    0.2483 C   0  0  0  0  0  0  0  0  0  0  0  0
   -0.6803    0.4307   -0.1407 C   0  0  0  0  0  0  0  0  0  0  0  0
   -0.3774    1.7830   -0.1063 C   0  0  0  0  0  0  0  0  0  0  0  0
   -1.1503    2.7148    0.2182 C   0  0  0  0  0  0  0  0  0  0  0  0
   -2.4693    2.6189    0.6133 C   0  0  0  0  0  0  0  0  0  0  0  0
   -2.8910    1.2594    0.6147 C   0  0  0  0  0  0  0  0  0  0  0  0
   -2.3793   -0.8247    0.2619 H   0  0  0  0  0  0  0  0  0  0  0  0
   -0.0189   -0.3873   -0.4202 H   0  0  0  0  0  0  0  0  0  0  0  0
   -3.1512    3.4174    0.8974 H   0  0  0  0  0  0  0  0  0  0  0  0
    3.2093   -0.7837   -1.4455 N   0  0  0  0  0  0  0  0  0  0  0  0
    4.1767   -0.3169   -1.7011 N   0  0  0  0  0  0  0  0  0  0  0  0
   -4.1915    1.0715    0.9955 O   0  0  0  0  0  0  0  0  0  0  0  0
   -4.7120   -0.2532    1.0301 C   0  0  0  0  0  0  0  0  0  0  0  0
   -5.7517   -0.1549    1.3578 H   0  0  0  0  0  0  0  0  0  0  0  0
   -4.1595   -0.8801    1.7470 H   0  0  0  0  0  0  0  0  0  0  0  0
   -4.6846   -0.7185    0.0327 H   0  0  0  0  0  0  0  0  0  0  0  0
  1  7  1  0  0  0  0
  1  6  2  0  0  0  0
  2  3  2  0  0  0  0
  2  1  1  0  0  0  0
  3  4  1  0  0  0  0
  4  5  2  0  0  0  0
  5  6  1  0  0  0  0
  5  9  1  0  0  0  0
  6 12  1  0  0  0  0
  8  2  1  0  0  0  0
 11 10  3  0  0  0  0
 12 13  1  0  0  0  0
 13 14  1  0  0  0  0
 13 15  1  0  0  0  0
 16 13  1  0  0  0  0
M  RAD  2   3   2   4   2
M  END
