Coordinates from ORCA-job 4-CH3O-C6H3-N2-B3LYPG-aug-cc-pVDZ-scan-d09-49-n400
 OpenBabel11091809133D

 16 15  0  0  0  0  0  0  0  0999 V2000
   -2.0367   -0.0031    0.2337 C   0  0  0  0  0  0  0  0  0  0  0  0
   -0.6846    0.0459   -0.1761 C   0  0  0  0  0  0  0  0  0  0  0  0
   -0.2195    1.3503   -0.1958 C   0  0  0  0  0  0  0  0  0  0  0  0
   -0.8648    2.3835    0.0994 C   0  0  0  0  0  0  0  0  0  0  0  0
   -2.1804    2.4633    0.5103 C   0  0  0  0  0  0  0  0  0  0  0  0
   -2.7656    1.1668    0.5675 C   0  0  0  0  0  0  0  0  0  0  0  0
   -2.5191   -0.9765    0.2898 H   0  0  0  0  0  0  0  0  0  0  0  0
   -0.1272   -0.8531   -0.4318 H   0  0  0  0  0  0  0  0  0  0  0  0
   -2.7560    3.3490    0.7702 H   0  0  0  0  0  0  0  0  0  0  0  0
    2.8706   -0.1577   -1.2846 N   0  0  0  0  0  0  0  0  0  0  0  0
    3.6946    0.5537   -1.4686 N   0  0  0  0  0  0  0  0  0  0  0  0
   -4.0738    1.1552    0.9674 O   0  0  0  0  0  0  0  0  0  0  0  0
   -4.7527   -0.0930    1.0580 C   0  0  0  0  0  0  0  0  0  0  0  0
   -5.7676    0.1449    1.3915 H   0  0  0  0  0  0  0  0  0  0  0  0
   -4.2713   -0.7562    1.7931 H   0  0  0  0  0  0  0  0  0  0  0  0
   -4.7968   -0.5948    0.0790 H   0  0  0  0  0  0  0  0  0  0  0  0
  1  7  1  0  0  0  0
  1  6  2  0  0  0  0
  2  1  1  0  0  0  0
  3  2  2  0  0  0  0
  3  4  1  0  0  0  0
  4  5  2  0  0  0  0
  5  6  1  0  0  0  0
  5  9  1  0  0  0  0
  6 12  1  0  0  0  0
  8  2  1  0  0  0  0
 11 10  3  0  0  0  0
 12 13  1  0  0  0  0
 13 14  1  0  0  0  0
 13 15  1  0  0  0  0
 16 13  1  0  0  0  0
M  RAD  2   3   2   4   2
M  END
