Coordinates from ORCA-job 4-CH3O-C6H3-N2-B3LYPG-aug-cc-pVDZ-scan-d09-49-n400
 OpenBabel11091809133D

 16 15  0  0  0  0  0  0  0  0999 V2000
   -2.0345    0.0645    0.2392 C   0  0  0  0  0  0  0  0  0  0  0  0
   -0.6838    0.1729   -0.1649 C   0  0  0  0  0  0  0  0  0  0  0  0
   -0.2751    1.4961   -0.1655 C   0  0  0  0  0  0  0  0  0  0  0  0
   -0.9608    2.5000    0.1394 C   0  0  0  0  0  0  0  0  0  0  0  0
   -2.2804    2.5191    0.5460 C   0  0  0  0  0  0  0  0  0  0  0  0
   -2.8119    1.1992    0.5846 C   0  0  0  0  0  0  0  0  0  0  0  0
   -2.4771   -0.9283    0.2814 H   0  0  0  0  0  0  0  0  0  0  0  0
   -0.0902   -0.7000   -0.4292 H   0  0  0  0  0  0  0  0  0  0  0  0
   -2.8930    3.3770    0.8148 H   0  0  0  0  0  0  0  0  0  0  0  0
    3.0097   -0.3681   -1.3477 N   0  0  0  0  0  0  0  0  0  0  0  0
    3.8945    0.2587   -1.5558 N   0  0  0  0  0  0  0  0  0  0  0  0
   -4.1200    1.1285    0.9792 O   0  0  0  0  0  0  0  0  0  0  0  0
   -4.7473   -0.1474    1.0514 C   0  0  0  0  0  0  0  0  0  0  0  0
   -5.7722    0.0443    1.3839 H   0  0  0  0  0  0  0  0  0  0  0  0
   -4.2416   -0.7997    1.7801 H   0  0  0  0  0  0  0  0  0  0  0  0
   -4.7674   -0.6382    0.0661 H   0  0  0  0  0  0  0  0  0  0  0  0
  1  7  1  0  0  0  0
  1  6  2  0  0  0  0
  2  1  1  0  0  0  0
  3  2  2  0  0  0  0
  3  4  1  0  0  0  0
  4  5  2  0  0  0  0
  5  6  1  0  0  0  0
  5  9  1  0  0  0  0
  6 12  1  0  0  0  0
  8  2  1  0  0  0  0
 11 10  3  0  0  0  0
 12 13  1  0  0  0  0
 13 14  1  0  0  0  0
 13 15  1  0  0  0  0
 16 13  1  0  0  0  0
M  RAD  2   3   2   4   2
M  END
