Coordinates from ORCA-job 4-CH3O-C6H3-N2-B3LYPG-aug-cc-pVDZ-scan-d09-49-n400
 OpenBabel11091809133D

 16 15  0  0  0  0  0  0  0  0999 V2000
   -2.0060   -0.1823    0.2074 C   0  0  0  0  0  0  0  0  0  0  0  0
   -0.6614   -0.2877   -0.2147 C   0  0  0  0  0  0  0  0  0  0  0  0
   -0.0853    0.9598   -0.2736 C   0  0  0  0  0  0  0  0  0  0  0  0
   -0.5622    2.0961   -0.0204 C   0  0  0  0  0  0  0  0  0  0  0  0
   -1.8710    2.2903    0.3991 C   0  0  0  0  0  0  0  0  0  0  0  0
   -2.5962    1.0721    0.5066 C   0  0  0  0  0  0  0  0  0  0  0  0
   -2.5885   -1.0962    0.2998 H   0  0  0  0  0  0  0  0  0  0  0  0
   -0.1907   -1.2410   -0.4489 H   0  0  0  0  0  0  0  0  0  0  0  0
   -2.3530    3.2378    0.6362 H   0  0  0  0  0  0  0  0  0  0  0  0
    2.0822    0.5578   -0.9756 N   0  0  0  0  0  0  0  0  0  0  0  0
    2.9571    1.2025   -1.1814 N   0  0  0  0  0  0  0  0  0  0  0  0
   -3.8931    1.2153    0.9176 O   0  0  0  0  0  0  0  0  0  0  0  0
   -4.7021    0.0527    1.0562 C   0  0  0  0  0  0  0  0  0  0  0  0
   -5.6814    0.4097    1.3900 H   0  0  0  0  0  0  0  0  0  0  0  0
   -4.2870   -0.6350    1.8093 H   0  0  0  0  0  0  0  0  0  0  0  0
   -4.8124   -0.4736    0.0953 H   0  0  0  0  0  0  0  0  0  0  0  0
  1  7  1  0  0  0  0
  1  6  2  0  0  0  0
  2  1  1  0  0  0  0
  3  2  2  0  0  0  0
  3  4  1  0  0  0  0
  4  5  2  0  0  0  0
  5  6  1  0  0  0  0
  5  9  1  0  0  0  0
  6 12  1  0  0  0  0
  8  2  1  0  0  0  0
 11 10  3  0  0  0  0
 12 13  1  0  0  0  0
 13 14  1  0  0  0  0
 13 15  1  0  0  0  0
 16 13  1  0  0  0  0
M  RAD  2   3   2   4   2
M  END
