Coordinates from ORCA-job 4-CH3O-C6H3-N2-B3LYPG-aug-cc-pVDZ-scan-d09-49-n400
 OpenBabel11091809133D

 16 16  0  0  0  0  0  0  0  0999 V2000
   -1.9272   -0.2173    0.1804 C   0  0  0  0  0  0  0  0  0  0  0  0
   -0.6209   -0.2752   -0.2249 C   0  0  0  0  0  0  0  0  0  0  0  0
    0.1298    0.9501   -0.3378 C   0  0  0  0  0  0  0  0  0  0  0  0
   -0.3940    2.2968   -0.0523 C   0  0  0  0  0  0  0  0  0  0  0  0
   -1.7384    2.2332    0.3534 C   0  0  0  0  0  0  0  0  0  0  0  0
   -2.4964    1.0588    0.4750 C   0  0  0  0  0  0  0  0  0  0  0  0
   -2.5035   -1.1338    0.2700 H   0  0  0  0  0  0  0  0  0  0  0  0
   -0.1492   -1.2317   -0.4601 H   0  0  0  0  0  0  0  0  0  0  0  0
   -2.2585    3.1642    0.6003 H   0  0  0  0  0  0  0  0  0  0  0  0
    1.2736    0.8831   -0.6970 N   0  0  0  0  0  0  0  0  0  0  0  0
    2.3551    0.8552   -1.0334 N   0  0  0  0  0  0  0  0  0  0  0  0
   -3.7758    1.2043    0.8805 O   0  0  0  0  0  0  0  0  0  0  0  0
   -4.6141    0.0543    1.0289 C   0  0  0  0  0  0  0  0  0  0  0  0
   -5.5818    0.4403    1.3614 H   0  0  0  0  0  0  0  0  0  0  0  0
   -4.2123   -0.6325    1.7876 H   0  0  0  0  0  0  0  0  0  0  0  0
   -4.7376   -0.4711    0.0710 H   0  0  0  0  0  0  0  0  0  0  0  0
  1  7  1  0  0  0  0
  1  6  2  0  0  0  0
  2  1  1  0  0  0  0
  3  2  2  0  0  0  0
  3  4  1  0  0  0  0
  4  5  2  0  0  0  0
  5  6  1  0  0  0  0
  5  9  1  0  0  0  0
  6 12  1  0  0  0  0
  8  2  1  0  0  0  0
 10  3  1  0  0  0  0
 11 10  1  0  0  0  0
 12 13  1  0  0  0  0
 13 14  1  0  0  0  0
 13 15  1  0  0  0  0
 16 13  1  0  0  0  0
M  RAD  3   4   2  10   2  11   3
M  END
