Coordinates from ORCA-job 4-CH3O-C6H3-N2-B3LYPG-aug-cc-pVDZ-scan-d09-49-n400
 OpenBabel11091809133D

 16 16  0  0  0  0  0  0  0  0999 V2000
   -1.9160   -0.2151    0.1770 C   0  0  0  0  0  0  0  0  0  0  0  0
   -0.6153   -0.2701   -0.2270 C   0  0  0  0  0  0  0  0  0  0  0  0
    0.2045    0.9283   -0.3656 C   0  0  0  0  0  0  0  0  0  0  0  0
   -0.3918    2.3177   -0.0516 C   0  0  0  0  0  0  0  0  0  0  0  0
   -1.7283    2.2286    0.3498 C   0  0  0  0  0  0  0  0  0  0  0  0
   -2.4905    1.0571    0.4729 C   0  0  0  0  0  0  0  0  0  0  0  0
   -2.4869   -1.1353    0.2654 H   0  0  0  0  0  0  0  0  0  0  0  0
   -0.1413   -1.2263   -0.4622 H   0  0  0  0  0  0  0  0  0  0  0  0
   -2.2436    3.1627    0.5959 H   0  0  0  0  0  0  0  0  0  0  0  0
    1.1679    0.8759   -0.6652 N   0  0  0  0  0  0  0  0  0  0  0  0
    2.2709    0.8552   -1.0046 N   0  0  0  0  0  0  0  0  0  0  0  0
   -3.7639    1.2031    0.8770 O   0  0  0  0  0  0  0  0  0  0  0  0
   -4.6073    0.0536    1.0270 C   0  0  0  0  0  0  0  0  0  0  0  0
   -5.5727    0.4443    1.3597 H   0  0  0  0  0  0  0  0  0  0  0  0
   -4.2052   -0.6317    1.7861 H   0  0  0  0  0  0  0  0  0  0  0  0
   -4.7315   -0.4697    0.0687 H   0  0  0  0  0  0  0  0  0  0  0  0
  1  7  1  0  0  0  0
  1  6  2  0  0  0  0
  2  1  1  0  0  0  0
  3  2  2  0  0  0  0
  3  4  1  0  0  0  0
  4  5  2  0  0  0  0
  5  6  1  0  0  0  0
  5  9  1  0  0  0  0
  6 12  1  0  0  0  0
  8  2  1  0  0  0  0
 10  3  1  0  0  0  0
 11 10  1  0  0  0  0
 12 13  1  0  0  0  0
 13 14  1  0  0  0  0
 13 15  1  0  0  0  0
 16 13  1  0  0  0  0
M  RAD  3   4   2  10   2  11   3
M  END
