Coordinates from ORCA-job 4-CH3O-C6H3-N2-B3LYPG-aug-cc-pVDZ-scan-d09-49-n400
 OpenBabel11091809133D

 16 16  0  0  0  0  0  0  0  0999 V2000
   -1.9521   -0.2261    0.1870 C   0  0  0  0  0  0  0  0  0  0  0  0
   -0.6335   -0.2950   -0.2236 C   0  0  0  0  0  0  0  0  0  0  0  0
    0.0305    0.9451   -0.3102 C   0  0  0  0  0  0  0  0  0  0  0  0
   -0.3999    2.2439   -0.0559 C   0  0  0  0  0  0  0  0  0  0  0  0
   -1.7490    2.2289    0.3562 C   0  0  0  0  0  0  0  0  0  0  0  0
   -2.5098    1.0514    0.4783 C   0  0  0  0  0  0  0  0  0  0  0  0
   -2.5352   -1.1379    0.2797 H   0  0  0  0  0  0  0  0  0  0  0  0
   -0.1547   -1.2464   -0.4600 H   0  0  0  0  0  0  0  0  0  0  0  0
   -2.2640    3.1625    0.6020 H   0  0  0  0  0  0  0  0  0  0  0  0
    1.4342    0.8801   -0.7465 N   0  0  0  0  0  0  0  0  0  0  0  0
    2.5018    0.9432   -1.0677 N   0  0  0  0  0  0  0  0  0  0  0  0
   -3.7959    1.2095    0.8873 O   0  0  0  0  0  0  0  0  0  0  0  0
   -4.6324    0.0635    1.0356 C   0  0  0  0  0  0  0  0  0  0  0  0
   -5.6013    0.4472    1.3686 H   0  0  0  0  0  0  0  0  0  0  0  0
   -4.2322   -0.6266    1.7935 H   0  0  0  0  0  0  0  0  0  0  0  0
   -4.7576   -0.4650    0.0786 H   0  0  0  0  0  0  0  0  0  0  0  0
  1  7  1  0  0  0  0
  1  6  2  0  0  0  0
  2  1  1  0  0  0  0
  3  2  2  0  0  0  0
  3  4  1  0  0  0  0
  4  5  2  0  0  0  0
  5  6  1  0  0  0  0
  5  9  1  0  0  0  0
  6 12  1  0  0  0  0
  8  2  1  0  0  0  0
 10  3  1  0  0  0  0
 11 10  1  0  0  0  0
 12 13  1  0  0  0  0
 13 14  1  0  0  0  0
 13 15  1  0  0  0  0
 16 13  1  0  0  0  0
M  RAD  3   4   2  10   2  11   3
M  END
