Coordinates from ORCA-job 4-CH3O-C6H3-N2-B3LYPG-aug-cc-pVDZ-scan-d09-49-n400
 OpenBabel11091809133D

 16 16  0  0  0  0  0  0  0  0999 V2000
   -2.0267   -0.1840   -0.3461 C   0  0  0  0  0  0  0  0  0  0  0  0
   -0.6864   -0.2383   -0.5844 C   0  0  0  0  0  0  0  0  0  0  0  0
    0.2386    0.8356   -0.2309 C   0  0  0  0  0  0  0  0  0  0  0  0
   -0.4326    2.2354    0.2160 C   0  0  0  0  0  0  0  0  0  0  0  0
   -1.8226    2.1851    0.2405 C   0  0  0  0  0  0  0  0  0  0  0  0
   -2.6001    1.0205    0.1376 C   0  0  0  0  0  0  0  0  0  0  0  0
   -2.6652   -1.0200   -0.6261 H   0  0  0  0  0  0  0  0  0  0  0  0
   -0.2225   -1.0993   -1.0725 H   0  0  0  0  0  0  0  0  0  0  0  0
   -2.3444    3.1157    0.4842 H   0  0  0  0  0  0  0  0  0  0  0  0
    1.1368    0.7786   -0.2318 N   0  0  0  0  0  0  0  0  0  0  0  0
    2.3100    0.7365   -0.2348 N   0  0  0  0  0  0  0  0  0  0  0  0
   -3.9204    1.0976    0.4289 O   0  0  0  0  0  0  0  0  0  0  0  0
   -4.4469    0.1072    1.3339 C   0  0  0  0  0  0  0  0  0  0  0  0
   -5.5164    0.3139    1.4302 H   0  0  0  0  0  0  0  0  0  0  0  0
   -3.9549    0.2041    2.3116 H   0  0  0  0  0  0  0  0  0  0  0  0
   -4.2974   -0.9102    0.9468 H   0  0  0  0  0  0  0  0  0  0  0  0
  1  6  1  0  0  0  0
  2  1  2  0  0  0  0
  2  3  1  0  0  0  0
  3  4  2  0  0  0  0
  4  5  1  0  0  0  0
  5  9  1  0  0  0  0
  6  5  2  0  0  0  0
  6 12  1  0  0  0  0
  7  1  1  0  0  0  0
  8  2  1  0  0  0  0
 10  3  1  0  0  0  0
 11 10  1  0  0  0  0
 12 13  1  0  0  0  0
 13 14  1  0  0  0  0
 13 15  1  0  0  0  0
 16 13  1  0  0  0  0
M  RAD  3   4   2  10   2  11   3
M  END
