Coordinates from ORCA-job C6H6+TfO-+NH2N2+-scan
 OpenBabel10121810013D

 25 23  0  0  0  0  0  0  0  0999 V2000
   -1.7224   -1.2666   -0.8237 N   0  0  0  0  0  0  0  0  0  0  0  0
   -2.6602   -0.6752   -1.0273 N   0  0  0  0  0  0  0  0  0  0  0  0
   -0.7225   -1.9124   -0.4777 N   0  0  0  0  0  0  0  0  0  0  0  0
   -0.1405   -2.1807   -1.2806 H   0  0  0  0  0  0  0  0  0  0  0  0
   -0.3325   -2.3995    1.0940 H   0  0  0  0  0  0  0  0  0  0  0  0
    0.1684   -1.8826   -4.4271 C   0  0  0  0  0  0  0  0  0  0  0  0
    0.3348   -2.9921   -3.5979 C   0  0  0  0  0  0  0  0  0  0  0  0
    1.2763   -2.9594   -2.5645 C   0  0  0  0  0  0  0  0  0  0  0  0
    2.0650   -1.8202   -2.3782 C   0  0  0  0  0  0  0  0  0  0  0  0
    1.9003   -0.7140   -3.2105 C   0  0  0  0  0  0  0  0  0  0  0  0
    0.9513   -0.7446   -4.2325 C   0  0  0  0  0  0  0  0  0  0  0  0
   -0.5636   -1.9076   -5.2268 H   0  0  0  0  0  0  0  0  0  0  0  0
   -0.2660   -3.8818   -3.7532 H   0  0  0  0  0  0  0  0  0  0  0  0
    1.4190   -3.8197   -1.9203 H   0  0  0  0  0  0  0  0  0  0  0  0
    2.7956   -1.7998   -1.5780 H   0  0  0  0  0  0  0  0  0  0  0  0
    2.5110    0.1701   -3.0642 H   0  0  0  0  0  0  0  0  0  0  0  0
    0.8237    0.1168   -4.8790 H   0  0  0  0  0  0  0  0  0  0  0  0
    1.3585   -3.4242    1.9774 S   0  0  0  0  0  0  0  0  0  0  0  0
    1.4610   -4.2942    3.1220 O   0  0  0  0  0  0  0  0  0  0  0  0
    1.6606   -3.8635    0.6255 O   0  0  0  0  0  0  0  0  0  0  0  0
   -0.0576   -2.7031    2.0151 O   0  0  0  0  0  0  0  0  0  0  0  0
    2.4794   -1.9517    2.3005 C   0  0  0  0  0  0  0  0  0  0  0  0
    2.2812   -1.0287    1.3516 F   0  0  0  0  0  0  0  0  0  0  0  0
    2.2212   -1.4206    3.4892 F   0  0  0  0  0  0  0  0  0  0  0  0
    3.7468   -2.3550    2.2574 F   0  0  0  0  0  0  0  0  0  0  0  0
  1  3  2  0  0  0  0
  2  1  2  0  0  0  0
  4  3  1  0  0  0  0
  5 21  1  0  0  0  0
  6 11  2  0  0  0  0
  6  7  1  0  0  0  0
  7  8  2  0  0  0  0
  8  9  1  0  0  0  0
  8 14  1  0  0  0  0
  9 15  1  0  0  0  0
 10 16  1  0  0  0  0
 10  9  2  0  0  0  0
 11 10  1  0  0  0  0
 12  6  1  0  0  0  0
 13  7  1  0  0  0  0
 17 11  1  0  0  0  0
 18 21  1  0  0  0  0
 18 22  1  0  0  0  0
 18 19  2  0  0  0  0
 20 18  2  0  0  0  0
 22 24  1  0  0  0  0
 23 22  1  0  0  0  0
 25 22  1  0  0  0  0
M  RAD  1   2   2
M  END
