Coordinates from ORCA-job C6H6+TfO-+NH2N2+-scan
 OpenBabel10121810013D

 25 23  0  0  0  0  0  0  0  0999 V2000
   -1.1674   -1.1459   -0.7071 N   0  0  0  0  0  0  0  0  0  0  0  0
   -2.2463   -0.8152   -0.7319 N   0  0  0  0  0  0  0  0  0  0  0  0
   -0.0527   -1.7073   -0.7413 N   0  0  0  0  0  0  0  0  0  0  0  0
    0.6817   -1.0464   -0.9967 H   0  0  0  0  0  0  0  0  0  0  0  0
    0.4166   -2.8074    0.5045 H   0  0  0  0  0  0  0  0  0  0  0  0
   -0.1696   -1.6903   -4.4550 C   0  0  0  0  0  0  0  0  0  0  0  0
   -0.4119   -2.6362   -3.4612 C   0  0  0  0  0  0  0  0  0  0  0  0
    0.5856   -2.9518   -2.5319 C   0  0  0  0  0  0  0  0  0  0  0  0
    1.8696   -2.4177   -2.6962 C   0  0  0  0  0  0  0  0  0  0  0  0
    2.1076   -1.4687   -3.6897 C   0  0  0  0  0  0  0  0  0  0  0  0
    1.0865   -1.0927   -4.5635 C   0  0  0  0  0  0  0  0  0  0  0  0
   -0.9553   -1.4305   -5.1565 H   0  0  0  0  0  0  0  0  0  0  0  0
   -1.3856   -3.1101   -3.3921 H   0  0  0  0  0  0  0  0  0  0  0  0
    0.4221   -3.7478   -1.8191 H   0  0  0  0  0  0  0  0  0  0  0  0
    2.6676   -2.7103   -2.0228 H   0  0  0  0  0  0  0  0  0  0  0  0
    3.0970   -1.0364   -3.7945 H   0  0  0  0  0  0  0  0  0  0  0  0
    1.2756   -0.3589   -5.3392 H   0  0  0  0  0  0  0  0  0  0  0  0
    2.2044   -3.0096    1.6991 S   0  0  0  0  0  0  0  0  0  0  0  0
    2.8624   -4.1650    2.2543 O   0  0  0  0  0  0  0  0  0  0  0  0
    2.8223   -2.1459    0.7076 O   0  0  0  0  0  0  0  0  0  0  0  0
    0.7538   -3.4510    1.1970 O   0  0  0  0  0  0  0  0  0  0  0  0
    1.7169   -1.8953    3.1330 C   0  0  0  0  0  0  0  0  0  0  0  0
    0.9099   -0.9291    2.6800 F   0  0  0  0  0  0  0  0  0  0  0  0
    1.0849   -2.5938    4.0675 F   0  0  0  0  0  0  0  0  0  0  0  0
    2.8128   -1.3471    3.6471 F   0  0  0  0  0  0  0  0  0  0  0  0
  2  1  2  0  0  0  0
  3  1  2  0  0  0  0
  4  3  1  0  0  0  0
  5 21  1  0  0  0  0
  6  7  1  0  0  0  0
  7 13  1  0  0  0  0
  7  8  2  0  0  0  0
  8 14  1  0  0  0  0
  9  8  1  0  0  0  0
  9 15  1  0  0  0  0
 10  9  2  0  0  0  0
 11  6  2  0  0  0  0
 11 10  1  0  0  0  0
 12  6  1  0  0  0  0
 16 10  1  0  0  0  0
 17 11  1  0  0  0  0
 18 19  2  0  0  0  0
 18 22  1  0  0  0  0
 20 18  2  0  0  0  0
 21 18  1  0  0  0  0
 22 25  1  0  0  0  0
 22 24  1  0  0  0  0
 23 22  1  0  0  0  0
M  RAD  1   2   2
M  END
