Coordinates from ORCA-job C6H6+TfO-+NH2N2+-scan
 OpenBabel10121810013D

 25 23  0  0  0  0  0  0  0  0999 V2000
   -1.3469   -1.4025    0.6170 N   0  0  0  0  0  0  0  0  0  0  0  0
   -2.1803   -0.8913    0.0585 N   0  0  0  0  0  0  0  0  0  0  0  0
   -0.3728   -1.8304    1.2570 N   0  0  0  0  0  0  0  0  0  0  0  0
   -0.2793   -2.8461    1.1928 H   0  0  0  0  0  0  0  0  0  0  0  0
    0.4019   -1.3521    2.7526 H   0  0  0  0  0  0  0  0  0  0  0  0
   -0.5764   -2.7419   -5.2163 C   0  0  0  0  0  0  0  0  0  0  0  0
    0.6557   -3.3630   -5.0156 C   0  0  0  0  0  0  0  0  0  0  0  0
    1.7884   -2.5945   -4.7495 C   0  0  0  0  0  0  0  0  0  0  0  0
    1.6897   -1.2050   -4.6873 C   0  0  0  0  0  0  0  0  0  0  0  0
    0.4574   -0.5841   -4.8878 C   0  0  0  0  0  0  0  0  0  0  0  0
   -0.6757   -1.3525   -5.1514 C   0  0  0  0  0  0  0  0  0  0  0  0
   -1.4576   -3.3392   -5.4248 H   0  0  0  0  0  0  0  0  0  0  0  0
    0.7334   -4.4437   -5.0680 H   0  0  0  0  0  0  0  0  0  0  0  0
    2.7472   -3.0776   -4.5948 H   0  0  0  0  0  0  0  0  0  0  0  0
    2.5715   -0.6071   -4.4837 H   0  0  0  0  0  0  0  0  0  0  0  0
    0.3802    0.4968   -4.8395 H   0  0  0  0  0  0  0  0  0  0  0  0
   -1.6343   -0.8693   -5.3075 H   0  0  0  0  0  0  0  0  0  0  0  0
    1.6650   -2.7462    3.7960 S   0  0  0  0  0  0  0  0  0  0  0  0
    1.8407   -2.9893    5.2047 O   0  0  0  0  0  0  0  0  0  0  0  0
    1.0947   -3.7345    2.8924 O   0  0  0  0  0  0  0  0  0  0  0  0
    0.9134   -1.3490    3.6113 O   0  0  0  0  0  0  0  0  0  0  0  0
    3.3474   -2.2968    3.0883 C   0  0  0  0  0  0  0  0  0  0  0  0
    3.1968   -1.8784    1.8301 F   0  0  0  0  0  0  0  0  0  0  0  0
    3.9067   -1.3351    3.8118 F   0  0  0  0  0  0  0  0  0  0  0  0
    4.1217   -3.3776    3.1051 F   0  0  0  0  0  0  0  0  0  0  0  0
  1  3  2  0  0  0  0
  2  1  2  0  0  0  0
  4  3  1  0  0  0  0
  5 21  1  0  0  0  0
  6 11  2  0  0  0  0
  6  7  1  0  0  0  0
  7  8  2  0  0  0  0
  8  9  1  0  0  0  0
  8 14  1  0  0  0  0
  9 15  1  0  0  0  0
 10 16  1  0  0  0  0
 10  9  2  0  0  0  0
 11 10  1  0  0  0  0
 12  6  1  0  0  0  0
 13  7  1  0  0  0  0
 17 11  1  0  0  0  0
 18 19  2  0  0  0  0
 20 18  2  0  0  0  0
 21 18  1  0  0  0  0
 22 25  1  0  0  0  0
 22 18  1  0  0  0  0
 22 24  1  0  0  0  0
 23 22  1  0  0  0  0
M  RAD  1   2   2
M  END
