Coordinates from ORCA-job C6H6+TfO-+NH2N2+-scan
 OpenBabel10121810013D

 25 23  0  0  0  0  0  0  0  0999 V2000
   -1.7197   -2.9617   -0.8950 N   0  0  0  0  0  0  0  0  0  0  0  0
   -2.8208   -2.9204   -1.1321 N   0  0  0  0  0  0  0  0  0  0  0  0
   -0.5421   -2.9933   -0.5117 N   0  0  0  0  0  0  0  0  0  0  0  0
    0.1067   -3.1269   -1.2945 H   0  0  0  0  0  0  0  0  0  0  0  0
    0.0110   -2.7435    1.0769 H   0  0  0  0  0  0  0  0  0  0  0  0
    0.6377   -0.8620   -3.3645 C   0  0  0  0  0  0  0  0  0  0  0  0
   -0.1365   -1.9158   -3.8503 C   0  0  0  0  0  0  0  0  0  0  0  0
    0.3001   -3.2316   -3.6871 C   0  0  0  0  0  0  0  0  0  0  0  0
    1.5183   -3.4916   -3.0533 C   0  0  0  0  0  0  0  0  0  0  0  0
    2.2884   -2.4353   -2.5618 C   0  0  0  0  0  0  0  0  0  0  0  0
    1.8452   -1.1220   -2.7167 C   0  0  0  0  0  0  0  0  0  0  0  0
    0.2981    0.1605   -3.4871 H   0  0  0  0  0  0  0  0  0  0  0  0
   -1.0750   -1.7139   -4.3548 H   0  0  0  0  0  0  0  0  0  0  0  0
   -0.2946   -4.0521   -4.0747 H   0  0  0  0  0  0  0  0  0  0  0  0
    1.8641   -4.5129   -2.9374 H   0  0  0  0  0  0  0  0  0  0  0  0
    3.2156   -2.6387   -2.0405 H   0  0  0  0  0  0  0  0  0  0  0  0
    2.4385   -0.3032   -2.3264 H   0  0  0  0  0  0  0  0  0  0  0  0
    1.9317   -2.3207    1.9871 S   0  0  0  0  0  0  0  0  0  0  0  0
    2.4541   -2.6003    3.3014 O   0  0  0  0  0  0  0  0  0  0  0  0
    2.5179   -2.8631    0.7742 O   0  0  0  0  0  0  0  0  0  0  0  0
    0.3624   -2.5817    2.0058 O   0  0  0  0  0  0  0  0  0  0  0  0
    1.9421   -0.4533    1.7782 C   0  0  0  0  0  0  0  0  0  0  0  0
    1.2567   -0.1242    0.6772 F   0  0  0  0  0  0  0  0  0  0  0  0
    1.3881    0.1363    2.8311 F   0  0  0  0  0  0  0  0  0  0  0  0
    3.2007   -0.0390    1.6471 F   0  0  0  0  0  0  0  0  0  0  0  0
  1  3  2  0  0  0  0
  2  1  2  0  0  0  0
  4  3  1  0  0  0  0
  5 21  1  0  0  0  0
  6 11  2  0  0  0  0
  7  8  2  0  0  0  0
  7  6  1  0  0  0  0
  8  9  1  0  0  0  0
  9 15  1  0  0  0  0
  9 10  2  0  0  0  0
 10 16  1  0  0  0  0
 11 10  1  0  0  0  0
 11 17  1  0  0  0  0
 12  6  1  0  0  0  0
 13  7  1  0  0  0  0
 14  8  1  0  0  0  0
 18 21  1  0  0  0  0
 18 19  2  0  0  0  0
 20 18  2  0  0  0  0
 22 18  1  0  0  0  0
 22 24  1  0  0  0  0
 23 22  1  0  0  0  0
 25 22  1  0  0  0  0
M  RAD  1   2   2
M  END
