Coordinates from ORCA-job C6H6+TfO-+NH2N2+-scan
 OpenBabel10121810013D

 25 23  0  0  0  0  0  0  0  0999 V2000
   -1.5772   -2.8665   -0.8322 N   0  0  0  0  0  0  0  0  0  0  0  0
   -2.6674   -2.8309   -1.1145 N   0  0  0  0  0  0  0  0  0  0  0  0
   -0.4204   -2.9199   -0.3900 N   0  0  0  0  0  0  0  0  0  0  0  0
    0.2804   -2.8828   -1.1376 H   0  0  0  0  0  0  0  0  0  0  0  0
    0.1131   -2.7789    1.2206 H   0  0  0  0  0  0  0  0  0  0  0  0
    0.6404   -0.9312   -3.4419 C   0  0  0  0  0  0  0  0  0  0  0  0
   -0.1108   -1.9203   -4.0780 C   0  0  0  0  0  0  0  0  0  0  0  0
    0.2678   -3.2591   -3.9732 C   0  0  0  0  0  0  0  0  0  0  0  0
    1.4032   -3.6089   -3.2401 C   0  0  0  0  0  0  0  0  0  0  0  0
    2.1521   -2.6200   -2.5977 C   0  0  0  0  0  0  0  0  0  0  0  0
    1.7669   -1.2812   -2.6975 C   0  0  0  0  0  0  0  0  0  0  0  0
    0.3452    0.1092   -3.5212 H   0  0  0  0  0  0  0  0  0  0  0  0
   -0.9888   -1.6490   -4.6538 H   0  0  0  0  0  0  0  0  0  0  0  0
   -0.3138   -4.0272   -4.4712 H   0  0  0  0  0  0  0  0  0  0  0  0
    1.7018   -4.6485   -3.1626 H   0  0  0  0  0  0  0  0  0  0  0  0
    3.0147   -2.8904   -2.0008 H   0  0  0  0  0  0  0  0  0  0  0  0
    2.3418   -0.5170   -2.1873 H   0  0  0  0  0  0  0  0  0  0  0  0
    2.0374   -2.2320    2.0450 S   0  0  0  0  0  0  0  0  0  0  0  0
    2.6748   -2.5471    3.2987 O   0  0  0  0  0  0  0  0  0  0  0  0
    2.5927   -2.6182    0.7593 O   0  0  0  0  0  0  0  0  0  0  0  0
    0.5088   -2.6650    2.1382 O   0  0  0  0  0  0  0  0  0  0  0  0
    1.8396   -0.3648    1.9777 C   0  0  0  0  0  0  0  0  0  0  0  0
    1.0779   -0.0384    0.9267 F   0  0  0  0  0  0  0  0  0  0  0  0
    1.2689    0.0845    3.0889 F   0  0  0  0  0  0  0  0  0  0  0  0
    3.0396    0.1931    1.8356 F   0  0  0  0  0  0  0  0  0  0  0  0
  1  3  2  0  0  0  0
  2  1  2  0  0  0  0
  4  3  1  0  0  0  0
  5 21  1  0  0  0  0
  6 11  2  0  0  0  0
  7  8  2  0  0  0  0
  7  6  1  0  0  0  0
  8  9  1  0  0  0  0
  9 15  1  0  0  0  0
  9 10  2  0  0  0  0
 10 16  1  0  0  0  0
 11 10  1  0  0  0  0
 11 17  1  0  0  0  0
 12  6  1  0  0  0  0
 13  7  1  0  0  0  0
 14  8  1  0  0  0  0
 18 21  1  0  0  0  0
 18 19  2  0  0  0  0
 20 18  2  0  0  0  0
 22 18  1  0  0  0  0
 22 24  1  0  0  0  0
 23 22  1  0  0  0  0
 25 22  1  0  0  0  0
M  RAD  1   2   2
M  END
