Coordinates from ORCA-job C6H6+TfO-+NH2N2+-scan
 OpenBabel10121810013D

 25 23  0  0  0  0  0  0  0  0999 V2000
   -1.3586   -1.4069    0.5845 N   0  0  0  0  0  0  0  0  0  0  0  0
   -2.2001   -0.8969    0.0367 N   0  0  0  0  0  0  0  0  0  0  0  0
   -0.3755   -1.8323    1.2130 N   0  0  0  0  0  0  0  0  0  0  0  0
   -0.2918   -2.8497    1.1602 H   0  0  0  0  0  0  0  0  0  0  0  0
    0.4097   -1.3432    2.6992 H   0  0  0  0  0  0  0  0  0  0  0  0
   -0.5661   -2.7449   -5.1798 C   0  0  0  0  0  0  0  0  0  0  0  0
    0.6658   -3.3597   -4.9590 C   0  0  0  0  0  0  0  0  0  0  0  0
    1.7927   -2.5855   -4.6850 C   0  0  0  0  0  0  0  0  0  0  0  0
    1.6868   -1.1961   -4.6303 C   0  0  0  0  0  0  0  0  0  0  0  0
    0.4550   -0.5813   -4.8512 C   0  0  0  0  0  0  0  0  0  0  0  0
   -0.6716   -1.3556   -5.1259 C   0  0  0  0  0  0  0  0  0  0  0  0
   -1.4418   -3.3474   -5.3964 H   0  0  0  0  0  0  0  0  0  0  0  0
    0.7484   -4.4405   -5.0028 H   0  0  0  0  0  0  0  0  0  0  0  0
    2.7512   -3.0636   -4.5144 H   0  0  0  0  0  0  0  0  0  0  0  0
    2.5635   -0.5936   -4.4181 H   0  0  0  0  0  0  0  0  0  0  0  0
    0.3736    0.4997   -4.8116 H   0  0  0  0  0  0  0  0  0  0  0  0
   -1.6295   -0.8772   -5.2997 H   0  0  0  0  0  0  0  0  0  0  0  0
    1.6625   -2.7355    3.7574 S   0  0  0  0  0  0  0  0  0  0  0  0
    1.8413   -2.9603    5.1688 O   0  0  0  0  0  0  0  0  0  0  0  0
    1.0787   -3.7306    2.8701 O   0  0  0  0  0  0  0  0  0  0  0  0
    0.9246   -1.3332    3.5560 O   0  0  0  0  0  0  0  0  0  0  0  0
    3.3465   -2.3139    3.0366 C   0  0  0  0  0  0  0  0  0  0  0  0
    3.1949   -1.9120    1.7732 F   0  0  0  0  0  0  0  0  0  0  0  0
    3.9191   -1.3479    3.7438 F   0  0  0  0  0  0  0  0  0  0  0  0
    4.1095   -3.4024    3.0658 F   0  0  0  0  0  0  0  0  0  0  0  0
  1  3  2  0  0  0  0
  2  1  2  0  0  0  0
  4  3  1  0  0  0  0
  5 21  1  0  0  0  0
  6 11  2  0  0  0  0
  6  7  1  0  0  0  0
  7  8  2  0  0  0  0
  8  9  1  0  0  0  0
  8 14  1  0  0  0  0
  9 15  1  0  0  0  0
 10 16  1  0  0  0  0
 10  9  2  0  0  0  0
 11 10  1  0  0  0  0
 12  6  1  0  0  0  0
 13  7  1  0  0  0  0
 17 11  1  0  0  0  0
 18 19  2  0  0  0  0
 20 18  2  0  0  0  0
 21 18  1  0  0  0  0
 22 25  1  0  0  0  0
 22 24  1  0  0  0  0
 22 18  1  0  0  0  0
 23 22  1  0  0  0  0
M  RAD  1   2   2
M  END
