Coordinates from ORCA-job C6H6+TfO-+NH2N2+-scan
 OpenBabel10121810013D

 25 23  0  0  0  0  0  0  0  0999 V2000
   -1.6409   -2.7531   -0.6366 N   0  0  0  0  0  0  0  0  0  0  0  0
   -2.7376   -2.6711   -0.8815 N   0  0  0  0  0  0  0  0  0  0  0  0
   -0.4719   -2.8534   -0.2341 N   0  0  0  0  0  0  0  0  0  0  0  0
    0.2014   -2.8390   -1.0087 H   0  0  0  0  0  0  0  0  0  0  0  0
    0.1261   -2.7319    1.3572 H   0  0  0  0  0  0  0  0  0  0  0  0
    0.5402   -0.9914   -3.5528 C   0  0  0  0  0  0  0  0  0  0  0  0
   -0.0155   -1.9771   -4.3691 C   0  0  0  0  0  0  0  0  0  0  0  0
    0.4316   -3.2953   -4.2761 C   0  0  0  0  0  0  0  0  0  0  0  0
    1.4375   -3.6282   -3.3679 C   0  0  0  0  0  0  0  0  0  0  0  0
    1.9955   -2.6431   -2.5491 C   0  0  0  0  0  0  0  0  0  0  0  0
    1.5429   -1.3241   -2.6416 C   0  0  0  0  0  0  0  0  0  0  0  0
    0.1936    0.0336   -3.6274 H   0  0  0  0  0  0  0  0  0  0  0  0
   -0.7949   -1.7183   -5.0774 H   0  0  0  0  0  0  0  0  0  0  0  0
    0.0005   -4.0601   -4.9127 H   0  0  0  0  0  0  0  0  0  0  0  0
    1.7894   -4.6516   -3.2980 H   0  0  0  0  0  0  0  0  0  0  0  0
    2.7671   -2.8980   -1.8321 H   0  0  0  0  0  0  0  0  0  0  0  0
    1.9716   -0.5625   -1.9998 H   0  0  0  0  0  0  0  0  0  0  0  0
    2.0934   -2.2302    2.1031 S   0  0  0  0  0  0  0  0  0  0  0  0
    2.7800   -2.5794    3.3211 O   0  0  0  0  0  0  0  0  0  0  0  0
    2.5808   -2.6084    0.7873 O   0  0  0  0  0  0  0  0  0  0  0  0
    0.5612   -2.6312    2.2581 O   0  0  0  0  0  0  0  0  0  0  0  0
    1.9358   -0.3582    2.0718 C   0  0  0  0  0  0  0  0  0  0  0  0
    1.1431    0.0012    1.0544 F   0  0  0  0  0  0  0  0  0  0  0  0
    1.4162    0.0855    3.2097 F   0  0  0  0  0  0  0  0  0  0  0  0
    3.1416    0.1751    1.8936 F   0  0  0  0  0  0  0  0  0  0  0  0
  1  3  2  0  0  0  0
  2  1  2  0  0  0  0
  4  3  1  0  0  0  0
  5 21  1  0  0  0  0
  6 11  2  0  0  0  0
  7  8  2  0  0  0  0
  7  6  1  0  0  0  0
  8  9  1  0  0  0  0
  9 15  1  0  0  0  0
  9 10  2  0  0  0  0
 10 16  1  0  0  0  0
 11 10  1  0  0  0  0
 11 17  1  0  0  0  0
 12  6  1  0  0  0  0
 13  7  1  0  0  0  0
 14  8  1  0  0  0  0
 18 21  1  0  0  0  0
 18 19  2  0  0  0  0
 20 18  2  0  0  0  0
 22 18  1  0  0  0  0
 22 24  1  0  0  0  0
 23 22  1  0  0  0  0
 25 22  1  0  0  0  0
M  RAD  1   2   2
M  END
