Coordinates from ORCA-job C6H6+TfO-+NH2N2+-scan
 OpenBabel10121810013D

 25 24  0  0  1  0  0  0  0  0999 V2000
   -0.7969   -1.0231   -0.9111 N   0  0  0  0  0  0  0  0  0  0  0  0
   -1.7948   -0.8717   -1.4486 N   0  0  0  0  0  0  0  0  0  0  0  0
    0.2936   -1.7220   -0.8641 N   0  0  0  0  0  0  0  0  0  0  0  0
    1.1010   -1.1063   -0.7277 H   0  0  0  0  0  0  0  0  0  0  0  0
    0.4674   -2.7934    0.5132 H   0  0  0  0  0  0  0  0  0  0  0  0
   -0.3359   -1.6982   -4.3734 C   0  0  0  0  0  0  0  0  0  0  0  0
   -0.5120   -2.5380   -3.2717 C   0  0  0  0  0  0  0  0  0  0  0  0
    0.5816   -2.7924   -2.3844 C   0  0  1  0  0  0  0  0  0  0  0  0
    1.8863   -2.3756   -2.8097 C   0  0  0  0  0  0  0  0  0  0  0  0
    2.0287   -1.5376   -3.8945 C   0  0  0  0  0  0  0  0  0  0  0  0
    0.9139   -1.1720   -4.6717 C   0  0  0  0  0  0  0  0  0  0  0  0
   -1.1811   -1.4857   -5.0190 H   0  0  0  0  0  0  0  0  0  0  0  0
   -1.4550   -3.0490   -3.1233 H   0  0  0  0  0  0  0  0  0  0  0  0
    0.5215   -3.6880   -1.7754 H   0  0  0  0  0  0  0  0  0  0  0  0
    2.7515   -2.6896   -2.2359 H   0  0  0  0  0  0  0  0  0  0  0  0
    3.0163   -1.1878   -4.1760 H   0  0  0  0  0  0  0  0  0  0  0  0
    1.0427   -0.5268   -5.5330 H   0  0  0  0  0  0  0  0  0  0  0  0
    2.1576   -2.9695    1.8360 S   0  0  0  0  0  0  0  0  0  0  0  0
    2.8179   -4.1279    2.3811 O   0  0  0  0  0  0  0  0  0  0  0  0
    2.7993   -2.0627    0.8965 O   0  0  0  0  0  0  0  0  0  0  0  0
    0.7381   -3.4162    1.2538 O   0  0  0  0  0  0  0  0  0  0  0  0
    1.5860   -1.9121    3.2818 C   0  0  0  0  0  0  0  0  0  0  0  0
    0.7971   -0.9361    2.8225 F   0  0  0  0  0  0  0  0  0  0  0  0
    0.9135   -2.6507    4.1546 F   0  0  0  0  0  0  0  0  0  0  0  0
    2.6505   -1.3779    3.8713 F   0  0  0  0  0  0  0  0  0  0  0  0
  1  3  1  0  0  0  0
  2  1  2  0  0  0  0
  3  4  1  0  0  0  0
  5 21  1  0  0  0  0
  6  7  1  0  0  0  0
  7 13  1  0  0  0  0
  7  8  1  0  0  0  0
  8 14  1  1  0  0  0
  8  3  1  0  0  0  0
  9  8  1  0  0  0  0
  9 15  1  0  0  0  0
 10  9  2  0  0  0  0
 11  6  2  0  0  0  0
 11 10  1  0  0  0  0
 12  6  1  0  0  0  0
 16 10  1  0  0  0  0
 17 11  1  0  0  0  0
 18 19  2  0  0  0  0
 18 22  1  0  0  0  0
 20 18  2  0  0  0  0
 21 18  1  0  0  0  0
 22 25  1  0  0  0  0
 22 24  1  0  0  0  0
 23 22  1  0  0  0  0
M  RAD  2   2   2   7   2
M  END
