Coordinates from ORCA-job C6H6+TfO-+NH2N2+-scan
 OpenBabel10121810013D

 25 23  0  0  0  0  0  0  0  0999 V2000
   -1.2264   -1.6193   -0.5126 N   0  0  0  0  0  0  0  0  0  0  0  0
   -2.3583   -1.5678   -0.4407 N   0  0  0  0  0  0  0  0  0  0  0  0
   -0.0783   -2.0138   -0.9015 N   0  0  0  0  0  0  0  0  0  0  0  0
    0.5510   -1.2112   -0.9954 H   0  0  0  0  0  0  0  0  0  0  0  0
    0.8622   -2.9597    0.2866 H   0  0  0  0  0  0  0  0  0  0  0  0
    0.0549   -1.2408   -4.3063 C   0  0  0  0  0  0  0  0  0  0  0  0
   -0.6227   -2.1548   -3.5097 C   0  0  0  0  0  0  0  0  0  0  0  0
    0.0876   -2.9471   -2.5729 C   0  0  0  0  0  0  0  0  0  0  0  0
    1.4985   -3.0012   -2.6927 C   0  0  0  0  0  0  0  0  0  0  0  0
    2.1654   -2.0847   -3.4956 C   0  0  0  0  0  0  0  0  0  0  0  0
    1.4510   -1.1794   -4.2853 C   0  0  0  0  0  0  0  0  0  0  0  0
   -0.5031   -0.5963   -4.9775 H   0  0  0  0  0  0  0  0  0  0  0  0
   -1.7033   -2.2305   -3.5658 H   0  0  0  0  0  0  0  0  0  0  0  0
   -0.4240   -3.7967   -2.1331 H   0  0  0  0  0  0  0  0  0  0  0  0
    2.0586   -3.7189   -2.1035 H   0  0  0  0  0  0  0  0  0  0  0  0
    3.2495   -2.0931   -3.5302 H   0  0  0  0  0  0  0  0  0  0  0  0
    1.9767   -0.4708   -4.9147 H   0  0  0  0  0  0  0  0  0  0  0  0
    2.5026   -2.2681    1.4964 S   0  0  0  0  0  0  0  0  0  0  0  0
    3.7506   -2.8982    1.8432 O   0  0  0  0  0  0  0  0  0  0  0  0
    2.4191   -1.0706    0.6770 O   0  0  0  0  0  0  0  0  0  0  0  0
    1.5175   -3.3859    0.9095 O   0  0  0  0  0  0  0  0  0  0  0  0
    1.6020   -1.8759    3.0999 C   0  0  0  0  0  0  0  0  0  0  0  0
    0.3542   -1.4912    2.8144 F   0  0  0  0  0  0  0  0  0  0  0  0
    1.5664   -2.9469    3.8817 F   0  0  0  0  0  0  0  0  0  0  0  0
    2.2372   -0.8874    3.7201 F   0  0  0  0  0  0  0  0  0  0  0  0
  1  2  2  0  0  0  0
  3  1  2  0  0  0  0
  4  3  1  0  0  0  0
  5 21  1  0  0  0  0
  6 11  2  0  0  0  0
  6  7  1  0  0  0  0
  7  8  2  0  0  0  0
  8 14  1  0  0  0  0
  9  8  1  0  0  0  0
  9 15  1  0  0  0  0
 10  9  2  0  0  0  0
 11 10  1  0  0  0  0
 12  6  1  0  0  0  0
 13  7  1  0  0  0  0
 16 10  1  0  0  0  0
 17 11  1  0  0  0  0
 18 19  2  0  0  0  0
 18 22  1  0  0  0  0
 20 18  2  0  0  0  0
 21 18  1  0  0  0  0
 22 25  1  0  0  0  0
 22 24  1  0  0  0  0
 23 22  1  0  0  0  0
M  RAD  1   2   2
M  END
