Coordinates from ORCA-job C6H6+TfO-+NH2N2+-scan
 OpenBabel10121810013D

 25 23  0  0  0  0  0  0  0  0999 V2000
   -1.3530   -1.4054    0.5971 N   0  0  0  0  0  0  0  0  0  0  0  0
   -2.1913   -0.8952    0.0447 N   0  0  0  0  0  0  0  0  0  0  0  0
   -0.3735   -1.8314    1.2305 N   0  0  0  0  0  0  0  0  0  0  0  0
   -0.2861   -2.8482    1.1734 H   0  0  0  0  0  0  0  0  0  0  0  0
    0.4074   -1.3463    2.7202 H   0  0  0  0  0  0  0  0  0  0  0  0
   -0.5705   -2.7436   -5.1952 C   0  0  0  0  0  0  0  0  0  0  0  0
    0.6616   -3.3608   -4.9821 C   0  0  0  0  0  0  0  0  0  0  0  0
    1.7908   -2.5888   -4.7114 C   0  0  0  0  0  0  0  0  0  0  0  0
    1.6872   -1.1993   -4.6536 C   0  0  0  0  0  0  0  0  0  0  0  0
    0.4551   -0.5823   -4.8665 C   0  0  0  0  0  0  0  0  0  0  0  0
   -0.6738   -1.3545   -5.1370 C   0  0  0  0  0  0  0  0  0  0  0  0
   -1.4482   -3.3442   -5.4088 H   0  0  0  0  0  0  0  0  0  0  0  0
    0.7425   -4.4415   -5.0292 H   0  0  0  0  0  0  0  0  0  0  0  0
    2.7495   -3.0688   -4.5468 H   0  0  0  0  0  0  0  0  0  0  0  0
    2.5658   -0.5985   -4.4446 H   0  0  0  0  0  0  0  0  0  0  0  0
    0.3753    0.4986   -4.8236 H   0  0  0  0  0  0  0  0  0  0  0  0
   -1.6321   -0.8743   -5.3040 H   0  0  0  0  0  0  0  0  0  0  0  0
    1.6633   -2.7396    3.7736 S   0  0  0  0  0  0  0  0  0  0  0  0
    1.8400   -2.9714    5.1841 O   0  0  0  0  0  0  0  0  0  0  0  0
    1.0848   -3.7321    2.8799 O   0  0  0  0  0  0  0  0  0  0  0  0
    0.9209   -1.3389    3.5779 O   0  0  0  0  0  0  0  0  0  0  0  0
    3.3472   -2.3077    3.0588 C   0  0  0  0  0  0  0  0  0  0  0  0
    3.1971   -1.8998    1.7971 F   0  0  0  0  0  0  0  0  0  0  0  0
    3.9143   -1.3431    3.7725 F   0  0  0  0  0  0  0  0  0  0  0  0
    4.1146   -3.3933    3.0841 F   0  0  0  0  0  0  0  0  0  0  0  0
  1  3  2  0  0  0  0
  2  1  2  0  0  0  0
  4  3  1  0  0  0  0
  5 21  1  0  0  0  0
  6 11  2  0  0  0  0
  6  7  1  0  0  0  0
  7  8  2  0  0  0  0
  8  9  1  0  0  0  0
  8 14  1  0  0  0  0
  9 15  1  0  0  0  0
 10 16  1  0  0  0  0
 10  9  2  0  0  0  0
 11 10  1  0  0  0  0
 12  6  1  0  0  0  0
 13  7  1  0  0  0  0
 17 11  1  0  0  0  0
 18 19  2  0  0  0  0
 20 18  2  0  0  0  0
 21 18  1  0  0  0  0
 22 25  1  0  0  0  0
 22 24  1  0  0  0  0
 22 18  1  0  0  0  0
 23 22  1  0  0  0  0
M  RAD  1   2   2
M  END
