Coordinates from ORCA-job C6H6+TfO-+NH2N2+-scan
 OpenBabel10121810013D

 25 23  0  0  0  0  0  0  0  0999 V2000
   -1.2468   -1.6304   -0.5037 N   0  0  0  0  0  0  0  0  0  0  0  0
   -2.3754   -1.5745   -0.4015 N   0  0  0  0  0  0  0  0  0  0  0  0
   -0.1001   -2.0145   -0.8951 N   0  0  0  0  0  0  0  0  0  0  0  0
    0.5203   -1.2069   -1.0028 H   0  0  0  0  0  0  0  0  0  0  0  0
    0.8572   -2.9548    0.2815 H   0  0  0  0  0  0  0  0  0  0  0  0
    0.0696   -1.2383   -4.3057 C   0  0  0  0  0  0  0  0  0  0  0  0
   -0.6173   -2.1541   -3.5183 C   0  0  0  0  0  0  0  0  0  0  0  0
    0.0826   -2.9550   -2.5839 C   0  0  0  0  0  0  0  0  0  0  0  0
    1.4927   -3.0109   -2.6882 C   0  0  0  0  0  0  0  0  0  0  0  0
    2.1701   -2.0923   -3.4808 C   0  0  0  0  0  0  0  0  0  0  0  0
    1.4655   -1.1818   -4.2728 C   0  0  0  0  0  0  0  0  0  0  0  0
   -0.4809   -0.5876   -4.9770 H   0  0  0  0  0  0  0  0  0  0  0  0
   -1.6981   -2.2227   -3.5808 H   0  0  0  0  0  0  0  0  0  0  0  0
   -0.4360   -3.7989   -2.1425 H   0  0  0  0  0  0  0  0  0  0  0  0
    2.0458   -3.7323   -2.0969 H   0  0  0  0  0  0  0  0  0  0  0  0
    3.2545   -2.1030   -3.5046 H   0  0  0  0  0  0  0  0  0  0  0  0
    1.9988   -0.4713   -4.8937 H   0  0  0  0  0  0  0  0  0  0  0  0
    2.5019   -2.2558    1.4811 S   0  0  0  0  0  0  0  0  0  0  0  0
    3.7571   -2.8782    1.8156 O   0  0  0  0  0  0  0  0  0  0  0  0
    2.4032   -1.0557    0.6673 O   0  0  0  0  0  0  0  0  0  0  0  0
    1.5202   -3.3785    0.8979 O   0  0  0  0  0  0  0  0  0  0  0  0
    1.6114   -1.8765    3.0933 C   0  0  0  0  0  0  0  0  0  0  0  0
    0.3584   -1.4998    2.8192 F   0  0  0  0  0  0  0  0  0  0  0  0
    1.5898   -2.9507    3.8712 F   0  0  0  0  0  0  0  0  0  0  0  0
    2.2441   -0.8857    3.7124 F   0  0  0  0  0  0  0  0  0  0  0  0
  1  2  2  0  0  0  0
  3  1  2  0  0  0  0
  4  3  1  0  0  0  0
  5 21  1  0  0  0  0
  6 11  2  0  0  0  0
  6  7  1  0  0  0  0
  7  8  2  0  0  0  0
  8 14  1  0  0  0  0
  9  8  1  0  0  0  0
  9 15  1  0  0  0  0
 10  9  2  0  0  0  0
 11 10  1  0  0  0  0
 12  6  1  0  0  0  0
 13  7  1  0  0  0  0
 16 10  1  0  0  0  0
 17 11  1  0  0  0  0
 18 19  2  0  0  0  0
 18 22  1  0  0  0  0
 20 18  2  0  0  0  0
 21 18  1  0  0  0  0
 22 25  1  0  0  0  0
 22 24  1  0  0  0  0
 23 22  1  0  0  0  0
M  RAD  1   2   2
M  END
