Coordinates from ORCA-job C6H6+TfO-+NH2N2+-scan
 OpenBabel10121810013D

 25 23  0  0  0  0  0  0  0  0999 V2000
   -1.6661   -1.1948   -0.7470 N   0  0  0  0  0  0  0  0  0  0  0  0
   -2.5849   -0.5516   -0.8641 N   0  0  0  0  0  0  0  0  0  0  0  0
   -0.6847   -1.9125   -0.5055 N   0  0  0  0  0  0  0  0  0  0  0  0
   -0.1138   -2.0813   -1.3434 H   0  0  0  0  0  0  0  0  0  0  0  0
   -0.2951   -2.4670    1.0365 H   0  0  0  0  0  0  0  0  0  0  0  0
    0.2031   -1.9802   -4.4813 C   0  0  0  0  0  0  0  0  0  0  0  0
    0.3521   -2.9778   -3.5184 C   0  0  0  0  0  0  0  0  0  0  0  0
    1.2373   -2.7954   -2.4501 C   0  0  0  0  0  0  0  0  0  0  0  0
    2.0000   -1.6248   -2.3736 C   0  0  0  0  0  0  0  0  0  0  0  0
    1.8519   -0.6302   -3.3386 C   0  0  0  0  0  0  0  0  0  0  0  0
    0.9520   -0.8069   -4.3899 C   0  0  0  0  0  0  0  0  0  0  0  0
   -0.4876   -2.1203   -5.3054 H   0  0  0  0  0  0  0  0  0  0  0  0
   -0.2223   -3.8949   -3.5918 H   0  0  0  0  0  0  0  0  0  0  0  0
    1.3811   -3.5765   -1.7117 H   0  0  0  0  0  0  0  0  0  0  0  0
    2.6945   -1.4913   -1.5521 H   0  0  0  0  0  0  0  0  0  0  0  0
    2.4396    0.2789   -3.2750 H   0  0  0  0  0  0  0  0  0  0  0  0
    0.8376   -0.0325   -5.1404 H   0  0  0  0  0  0  0  0  0  0  0  0
    1.3487   -3.5197    1.9833 S   0  0  0  0  0  0  0  0  0  0  0  0
    1.3980   -4.3902    3.1310 O   0  0  0  0  0  0  0  0  0  0  0  0
    1.6989   -3.9633    0.6443 O   0  0  0  0  0  0  0  0  0  0  0  0
   -0.0587   -2.7835    1.9658 O   0  0  0  0  0  0  0  0  0  0  0  0
    2.4734   -2.0599    2.3481 C   0  0  0  0  0  0  0  0  0  0  0  0
    2.3279   -1.1391    1.3862 F   0  0  0  0  0  0  0  0  0  0  0  0
    2.1696   -1.5180    3.5211 F   0  0  0  0  0  0  0  0  0  0  0  0
    3.7363   -2.4776    2.3630 F   0  0  0  0  0  0  0  0  0  0  0  0
  1  3  2  0  0  0  0
  2  1  2  0  0  0  0
  4  3  1  0  0  0  0
  5 21  1  0  0  0  0
  6 11  2  0  0  0  0
  6  7  1  0  0  0  0
  7  8  2  0  0  0  0
  8  9  1  0  0  0  0
  8 14  1  0  0  0  0
  9 15  1  0  0  0  0
 10 16  1  0  0  0  0
 10  9  2  0  0  0  0
 11 10  1  0  0  0  0
 12  6  1  0  0  0  0
 13  7  1  0  0  0  0
 17 11  1  0  0  0  0
 18 22  1  0  0  0  0
 18 19  2  0  0  0  0
 20 18  2  0  0  0  0
 21 18  1  0  0  0  0
 22 25  1  0  0  0  0
 22 24  1  0  0  0  0
 23 22  1  0  0  0  0
M  RAD  1   2   2
M  END
