Coordinates from ORCA-job C6H6+TfO-+NH2N2+-scan
 OpenBabel10121810013D

 25 23  0  0  0  0  0  0  0  0999 V2000
   -1.7780   -2.6865   -0.3750 N   0  0  0  0  0  0  0  0  0  0  0  0
   -2.8836   -2.5968   -0.5710 N   0  0  0  0  0  0  0  0  0  0  0  0
   -0.5914   -2.7876   -0.0253 N   0  0  0  0  0  0  0  0  0  0  0  0
    0.0396   -2.8218   -0.8338 H   0  0  0  0  0  0  0  0  0  0  0  0
    0.0887   -2.6427    1.5352 H   0  0  0  0  0  0  0  0  0  0  0  0
    0.4310   -1.0601   -3.6403 C   0  0  0  0  0  0  0  0  0  0  0  0
    0.1357   -1.9948   -4.6319 C   0  0  0  0  0  0  0  0  0  0  0  0
    0.6849   -3.2760   -4.5706 C   0  0  0  0  0  0  0  0  0  0  0  0
    1.5293   -3.6229   -3.5166 C   0  0  0  0  0  0  0  0  0  0  0  0
    1.8294   -2.6884   -2.5224 C   0  0  0  0  0  0  0  0  0  0  0  0
    1.2780   -1.4057   -2.5859 C   0  0  0  0  0  0  0  0  0  0  0  0
    0.0086   -0.0624   -3.6918 H   0  0  0  0  0  0  0  0  0  0  0  0
   -0.5192   -1.7250   -5.4532 H   0  0  0  0  0  0  0  0  0  0  0  0
    0.4563   -4.0010   -5.3441 H   0  0  0  0  0  0  0  0  0  0  0  0
    1.9607   -4.6168   -3.4707 H   0  0  0  0  0  0  0  0  0  0  0  0
    2.4895   -2.9501   -1.7030 H   0  0  0  0  0  0  0  0  0  0  0  0
    1.5139   -0.6785   -1.8163 H   0  0  0  0  0  0  0  0  0  0  0  0
    2.1186   -2.2298    2.1500 S   0  0  0  0  0  0  0  0  0  0  0  0
    2.8602   -2.6044    3.3272 O   0  0  0  0  0  0  0  0  0  0  0  0
    2.4952   -2.6553    0.8122 O   0  0  0  0  0  0  0  0  0  0  0  0
    0.5774   -2.5337    2.4065 O   0  0  0  0  0  0  0  0  0  0  0  0
    2.0736   -0.3521    2.0966 C   0  0  0  0  0  0  0  0  0  0  0  0
    1.2487    0.0416    1.1176 F   0  0  0  0  0  0  0  0  0  0  0  0
    1.6444    0.1370    3.2531 F   0  0  0  0  0  0  0  0  0  0  0  0
    3.2973    0.1033    1.8447 F   0  0  0  0  0  0  0  0  0  0  0  0
  1  3  2  0  0  0  0
  2  1  2  0  0  0  0
  4  3  1  0  0  0  0
  5 21  1  0  0  0  0
  6 11  2  0  0  0  0
  7  8  2  0  0  0  0
  7  6  1  0  0  0  0
  8  9  1  0  0  0  0
  9 15  1  0  0  0  0
  9 10  2  0  0  0  0
 10 16  1  0  0  0  0
 11 10  1  0  0  0  0
 11 17  1  0  0  0  0
 12  6  1  0  0  0  0
 13  7  1  0  0  0  0
 14  8  1  0  0  0  0
 18 21  1  0  0  0  0
 18 19  2  0  0  0  0
 20 18  2  0  0  0  0
 22 18  1  0  0  0  0
 22 24  1  0  0  0  0
 23 22  1  0  0  0  0
 25 22  1  0  0  0  0
M  RAD  1   2   2
M  END
