Coordinates from ORCA-job C6H6+TfO-+NH2N2+-scan
 OpenBabel10121810013D

 25 23  0  0  0  0  0  0  0  0999 V2000
   -1.8451   -2.6388   -0.2528 N   0  0  0  0  0  0  0  0  0  0  0  0
   -2.9526   -2.5337   -0.4291 N   0  0  0  0  0  0  0  0  0  0  0  0
   -0.6539   -2.7544    0.0771 N   0  0  0  0  0  0  0  0  0  0  0  0
   -0.0401   -2.8188   -0.7418 H   0  0  0  0  0  0  0  0  0  0  0  0
    0.0664   -2.6126    1.6242 H   0  0  0  0  0  0  0  0  0  0  0  0
    0.4007   -1.1005   -3.6521 C   0  0  0  0  0  0  0  0  0  0  0  0
    0.1995   -1.9899   -4.7067 C   0  0  0  0  0  0  0  0  0  0  0  0
    0.7944   -3.2517   -4.6792 C   0  0  0  0  0  0  0  0  0  0  0  0
    1.5879   -3.6256   -3.5957 C   0  0  0  0  0  0  0  0  0  0  0  0
    1.7937   -2.7365   -2.5383 C   0  0  0  0  0  0  0  0  0  0  0  0
    1.1990   -1.4723   -2.5687 C   0  0  0  0  0  0  0  0  0  0  0  0
   -0.0551   -0.1166   -3.6773 H   0  0  0  0  0  0  0  0  0  0  0  0
   -0.4163   -1.6995   -5.5509 H   0  0  0  0  0  0  0  0  0  0  0  0
    0.6398   -3.9412   -5.5020 H   0  0  0  0  0  0  0  0  0  0  0  0
    2.0534   -4.6049   -3.5759 H   0  0  0  0  0  0  0  0  0  0  0  0
    2.4175   -3.0165   -1.6968 H   0  0  0  0  0  0  0  0  0  0  0  0
    1.3682   -0.7767   -1.7536 H   0  0  0  0  0  0  0  0  0  0  0  0
    2.1218   -2.2212    2.1533 S   0  0  0  0  0  0  0  0  0  0  0  0
    2.9071   -2.5992    3.3006 O   0  0  0  0  0  0  0  0  0  0  0  0
    2.4352   -2.6603    0.8036 O   0  0  0  0  0  0  0  0  0  0  0  0
    0.5881   -2.5030    2.4752 O   0  0  0  0  0  0  0  0  0  0  0  0
    2.0990   -0.3433    2.0898 C   0  0  0  0  0  0  0  0  0  0  0  0
    1.2349    0.0553    1.1473 F   0  0  0  0  0  0  0  0  0  0  0  0
    1.7297    0.1578    3.2617 F   0  0  0  0  0  0  0  0  0  0  0  0
    3.3156    0.0940    1.7792 F   0  0  0  0  0  0  0  0  0  0  0  0
  1  3  2  0  0  0  0
  2  1  2  0  0  0  0
  4  3  1  0  0  0  0
  5 21  1  0  0  0  0
  6 11  2  0  0  0  0
  7  8  2  0  0  0  0
  7  6  1  0  0  0  0
  8  9  1  0  0  0  0
  9 15  1  0  0  0  0
  9 10  2  0  0  0  0
 10 16  1  0  0  0  0
 11 10  1  0  0  0  0
 11 17  1  0  0  0  0
 12  6  1  0  0  0  0
 13  7  1  0  0  0  0
 14  8  1  0  0  0  0
 18 21  1  0  0  0  0
 18 19  2  0  0  0  0
 20 18  2  0  0  0  0
 22 18  1  0  0  0  0
 22 24  1  0  0  0  0
 23 22  1  0  0  0  0
 25 22  1  0  0  0  0
M  RAD  1   2   2
M  END
