Coordinates from ORCA-job C6H6+TfO-+NH2N2+-scan
 OpenBabel10121810013D

 25 23  0  0  0  0  0  0  0  0999 V2000
   -1.8186   -2.6572   -0.3144 N   0  0  0  0  0  0  0  0  0  0  0  0
   -2.9247   -2.5615   -0.5042 N   0  0  0  0  0  0  0  0  0  0  0  0
   -0.6304   -2.7623    0.0289 N   0  0  0  0  0  0  0  0  0  0  0  0
   -0.0058   -2.8182   -0.7831 H   0  0  0  0  0  0  0  0  0  0  0  0
    0.0702   -2.6116    1.5830 H   0  0  0  0  0  0  0  0  0  0  0  0
    0.3982   -1.0921   -3.6354 C   0  0  0  0  0  0  0  0  0  0  0  0
    0.1709   -1.9947   -4.6733 C   0  0  0  0  0  0  0  0  0  0  0  0
    0.7589   -3.2596   -4.6400 C   0  0  0  0  0  0  0  0  0  0  0  0
    1.5731   -3.6228   -3.5684 C   0  0  0  0  0  0  0  0  0  0  0  0
    1.8045   -2.7207   -2.5273 C   0  0  0  0  0  0  0  0  0  0  0  0
    1.2154   -1.4539   -2.5627 C   0  0  0  0  0  0  0  0  0  0  0  0
   -0.0533   -0.1063   -3.6645 H   0  0  0  0  0  0  0  0  0  0  0  0
   -0.4605   -1.7126   -5.5088 H   0  0  0  0  0  0  0  0  0  0  0  0
    0.5834   -3.9596   -5.4497 H   0  0  0  0  0  0  0  0  0  0  0  0
    2.0337   -4.6044   -3.5445 H   0  0  0  0  0  0  0  0  0  0  0  0
    2.4407   -2.9951   -1.6931 H   0  0  0  0  0  0  0  0  0  0  0  0
    1.3993   -0.7498   -1.7583 H   0  0  0  0  0  0  0  0  0  0  0  0
    2.1170   -2.2226    2.1516 S   0  0  0  0  0  0  0  0  0  0  0  0
    2.8786   -2.6061    3.3131 O   0  0  0  0  0  0  0  0  0  0  0  0
    2.4552   -2.6598    0.8073 O   0  0  0  0  0  0  0  0  0  0  0  0
    0.5764   -2.4987    2.4432 O   0  0  0  0  0  0  0  0  0  0  0  0
    2.1038   -0.3446    2.0925 C   0  0  0  0  0  0  0  0  0  0  0  0
    1.2636    0.0605    1.1313 F   0  0  0  0  0  0  0  0  0  0  0  0
    1.7099    0.1555    3.2568 F   0  0  0  0  0  0  0  0  0  0  0  0
    3.3293    0.0880    1.8111 F   0  0  0  0  0  0  0  0  0  0  0  0
  1  3  2  0  0  0  0
  2  1  2  0  0  0  0
  4  3  1  0  0  0  0
  5 21  1  0  0  0  0
  6 11  2  0  0  0  0
  7  8  2  0  0  0  0
  7  6  1  0  0  0  0
  8  9  1  0  0  0  0
  9 15  1  0  0  0  0
  9 10  2  0  0  0  0
 10 16  1  0  0  0  0
 11 10  1  0  0  0  0
 11 17  1  0  0  0  0
 12  6  1  0  0  0  0
 13  7  1  0  0  0  0
 14  8  1  0  0  0  0
 18 21  1  0  0  0  0
 18 19  2  0  0  0  0
 20 18  2  0  0  0  0
 22 18  1  0  0  0  0
 22 24  1  0  0  0  0
 23 22  1  0  0  0  0
 25 22  1  0  0  0  0
M  RAD  1   2   2
M  END
