Coordinates from ORCA-job C6H6+TfO-+NH2N2+-scan
 OpenBabel10121810013D

 25 23  0  0  0  0  0  0  0  0999 V2000
   -1.2883   -1.6073   -0.4892 N   0  0  0  0  0  0  0  0  0  0  0  0
   -2.4020   -1.5002   -0.3154 N   0  0  0  0  0  0  0  0  0  0  0  0
   -0.1493   -1.9972   -0.8638 N   0  0  0  0  0  0  0  0  0  0  0  0
    0.4636   -1.1943   -1.0267 H   0  0  0  0  0  0  0  0  0  0  0  0
    0.8136   -2.9400    0.2844 H   0  0  0  0  0  0  0  0  0  0  0  0
    0.0800   -1.2607   -4.3190 C   0  0  0  0  0  0  0  0  0  0  0  0
   -0.5992   -2.1938   -3.5428 C   0  0  0  0  0  0  0  0  0  0  0  0
    0.1033   -2.9911   -2.6177 C   0  0  0  0  0  0  0  0  0  0  0  0
    1.5101   -3.0044   -2.6786 C   0  0  0  0  0  0  0  0  0  0  0  0
    2.1835   -2.0682   -3.4570 C   0  0  0  0  0  0  0  0  0  0  0  0
    1.4731   -1.1757   -4.2626 C   0  0  0  0  0  0  0  0  0  0  0  0
   -0.4739   -0.6155   -4.9928 H   0  0  0  0  0  0  0  0  0  0  0  0
   -1.6789   -2.2757   -3.6140 H   0  0  0  0  0  0  0  0  0  0  0  0
   -0.4086   -3.8198   -2.1449 H   0  0  0  0  0  0  0  0  0  0  0  0
    2.0686   -3.7100   -2.0736 H   0  0  0  0  0  0  0  0  0  0  0  0
    3.2679   -2.0490   -3.4544 H   0  0  0  0  0  0  0  0  0  0  0  0
    2.0013   -0.4507   -4.8712 H   0  0  0  0  0  0  0  0  0  0  0  0
    2.4921   -2.2748    1.4580 S   0  0  0  0  0  0  0  0  0  0  0  0
    3.7388   -2.9231    1.7755 O   0  0  0  0  0  0  0  0  0  0  0  0
    2.4074   -1.0721    0.6469 O   0  0  0  0  0  0  0  0  0  0  0  0
    1.4807   -3.3770    0.8883 O   0  0  0  0  0  0  0  0  0  0  0  0
    1.6317   -1.8789    3.0823 C   0  0  0  0  0  0  0  0  0  0  0  0
    0.3821   -1.4784    2.8259 F   0  0  0  0  0  0  0  0  0  0  0  0
    1.6002   -2.9523    3.8611 F   0  0  0  0  0  0  0  0  0  0  0  0
    2.2913   -0.9001    3.6927 F   0  0  0  0  0  0  0  0  0  0  0  0
  1  2  2  0  0  0  0
  3  1  2  0  0  0  0
  4  3  1  0  0  0  0
  5 21  1  0  0  0  0
  6 11  2  0  0  0  0
  6  7  1  0  0  0  0
  7  8  2  0  0  0  0
  8 14  1  0  0  0  0
  9  8  1  0  0  0  0
  9 15  1  0  0  0  0
 10 16  1  0  0  0  0
 10  9  2  0  0  0  0
 11 10  1  0  0  0  0
 12  6  1  0  0  0  0
 13  7  1  0  0  0  0
 17 11  1  0  0  0  0
 18 19  2  0  0  0  0
 18 22  1  0  0  0  0
 20 18  2  0  0  0  0
 21 18  1  0  0  0  0
 22 25  1  0  0  0  0
 22 24  1  0  0  0  0
 23 22  1  0  0  0  0
M  RAD  1   2   2
M  END
