Coordinates from ORCA-job C6H6+TfO-+NH2N2+-scan
 OpenBabel10121810013D

 25 23  0  0  0  0  0  0  0  0999 V2000
   -1.3848   -1.4170    0.4693 N   0  0  0  0  0  0  0  0  0  0  0  0
   -2.2411   -0.9075   -0.0551 N   0  0  0  0  0  0  0  0  0  0  0  0
   -0.3847   -1.8402    1.0722 N   0  0  0  0  0  0  0  0  0  0  0  0
   -0.3253   -2.8605    1.0568 H   0  0  0  0  0  0  0  0  0  0  0  0
    0.4271   -1.3252    2.5344 H   0  0  0  0  0  0  0  0  0  0  0  0
   -0.5404   -2.7511   -5.0669 C   0  0  0  0  0  0  0  0  0  0  0  0
    0.6869   -3.3551   -4.7962 C   0  0  0  0  0  0  0  0  0  0  0  0
    1.7974   -2.5698   -4.4890 C   0  0  0  0  0  0  0  0  0  0  0  0
    1.6814   -1.1808   -4.4544 C   0  0  0  0  0  0  0  0  0  0  0  0
    0.4540   -0.5769   -4.7250 C   0  0  0  0  0  0  0  0  0  0  0  0
   -0.6571   -1.3620   -5.0308 C   0  0  0  0  0  0  0  0  0  0  0  0
   -1.4040   -3.3617   -5.3082 H   0  0  0  0  0  0  0  0  0  0  0  0
    0.7783   -4.4355   -4.8270 H   0  0  0  0  0  0  0  0  0  0  0  0
    2.7528   -3.0395   -4.2810 H   0  0  0  0  0  0  0  0  0  0  0  0
    2.5462   -0.5701   -4.2190 H   0  0  0  0  0  0  0  0  0  0  0  0
    0.3639    0.5038   -4.6999 H   0  0  0  0  0  0  0  0  0  0  0  0
   -1.6114   -0.8921   -5.2426 H   0  0  0  0  0  0  0  0  0  0  0  0
    1.6557   -2.7108    3.6290 S   0  0  0  0  0  0  0  0  0  0  0  0
    1.8372   -2.8974    5.0456 O   0  0  0  0  0  0  0  0  0  0  0  0
    1.0466   -3.7193    2.7744 O   0  0  0  0  0  0  0  0  0  0  0  0
    0.9456   -1.3005    3.3889 O   0  0  0  0  0  0  0  0  0  0  0  0
    3.3444   -2.3452    2.8888 C   0  0  0  0  0  0  0  0  0  0  0  0
    3.1951   -1.9775    1.6149 F   0  0  0  0  0  0  0  0  0  0  0  0
    3.9397   -1.3708    3.5652 F   0  0  0  0  0  0  0  0  0  0  0  0
    4.0855   -3.4478    2.9469 F   0  0  0  0  0  0  0  0  0  0  0  0
  1  3  2  0  0  0  0
  2  1  2  0  0  0  0
  4  3  1  0  0  0  0
  5 21  1  0  0  0  0
  6 11  2  0  0  0  0
  6  7  1  0  0  0  0
  7  8  2  0  0  0  0
  8  9  1  0  0  0  0
  8 14  1  0  0  0  0
  9 15  1  0  0  0  0
 10 16  1  0  0  0  0
 10  9  2  0  0  0  0
 11 10  1  0  0  0  0
 12  6  1  0  0  0  0
 13  7  1  0  0  0  0
 17 11  1  0  0  0  0
 18 19  2  0  0  0  0
 20 18  2  0  0  0  0
 21 18  1  0  0  0  0
 22 25  1  0  0  0  0
 22 24  1  0  0  0  0
 22 18  1  0  0  0  0
 23 22  1  0  0  0  0
M  RAD  1   2   2
M  END
