Coordinates from ORCA-job C6H6+TfO-+NH2N2+-scan
 OpenBabel10121810013D

 25 23  0  0  0  0  0  0  0  0999 V2000
   -1.3057   -0.9425   -0.5468 N   0  0  0  0  0  0  0  0  0  0  0  0
   -2.3107   -0.4431   -0.4427 N   0  0  0  0  0  0  0  0  0  0  0  0
   -0.2576   -1.6118   -0.5998 N   0  0  0  0  0  0  0  0  0  0  0  0
    0.4406   -1.1701   -1.1990 H   0  0  0  0  0  0  0  0  0  0  0  0
    0.2021   -2.7121    0.6279 H   0  0  0  0  0  0  0  0  0  0  0  0
   -0.0848   -1.9009   -4.5523 C   0  0  0  0  0  0  0  0  0  0  0  0
   -0.2111   -2.8271   -3.5183 C   0  0  0  0  0  0  0  0  0  0  0  0
    0.7950   -2.9451   -2.5584 C   0  0  0  0  0  0  0  0  0  0  0  0
    1.9553   -2.1742   -2.6670 C   0  0  0  0  0  0  0  0  0  0  0  0
    2.0768   -1.2431   -3.7015 C   0  0  0  0  0  0  0  0  0  0  0  0
    1.0560   -1.1021   -4.6409 C   0  0  0  0  0  0  0  0  0  0  0  0
   -0.8717   -1.8052   -5.2928 H   0  0  0  0  0  0  0  0  0  0  0  0
   -1.0972   -3.4493   -3.4526 H   0  0  0  0  0  0  0  0  0  0  0  0
    0.7051   -3.6782   -1.7677 H   0  0  0  0  0  0  0  0  0  0  0  0
    2.7472   -2.2923   -1.9360 H   0  0  0  0  0  0  0  0  0  0  0  0
    2.9738   -0.6382   -3.7800 H   0  0  0  0  0  0  0  0  0  0  0  0
    1.1536   -0.3819   -5.4457 H   0  0  0  0  0  0  0  0  0  0  0  0
    2.0096   -3.2159    1.7155 S   0  0  0  0  0  0  0  0  0  0  0  0
    2.4521   -4.4435    2.3279 O   0  0  0  0  0  0  0  0  0  0  0  0
    2.7265   -2.5730    0.6281 O   0  0  0  0  0  0  0  0  0  0  0  0
    0.4706   -3.3785    1.3307 O   0  0  0  0  0  0  0  0  0  0  0  0
    1.8648   -1.9291    3.0787 C   0  0  0  0  0  0  0  0  0  0  0  0
    1.2386   -0.8495    2.5985 F   0  0  0  0  0  0  0  0  0  0  0  0
    1.1757   -2.4172    4.1030 F   0  0  0  0  0  0  0  0  0  0  0  0
    3.0842   -1.5864    3.4823 F   0  0  0  0  0  0  0  0  0  0  0  0
  1  2  2  0  0  0  0
  3  1  2  0  0  0  0
  4  3  1  0  0  0  0
  5 21  1  0  0  0  0
  6  7  1  0  0  0  0
  7 13  1  0  0  0  0
  7  8  2  0  0  0  0
  8 14  1  0  0  0  0
  9  8  1  0  0  0  0
  9 15  1  0  0  0  0
 10  9  2  0  0  0  0
 11  6  2  0  0  0  0
 11 10  1  0  0  0  0
 12  6  1  0  0  0  0
 16 10  1  0  0  0  0
 17 11  1  0  0  0  0
 18 19  2  0  0  0  0
 18 22  1  0  0  0  0
 20 18  2  0  0  0  0
 21 18  1  0  0  0  0
 22 25  1  0  0  0  0
 22 24  1  0  0  0  0
 23 22  1  0  0  0  0
M  RAD  1   2   2
M  END
