Coordinates from ORCA-job C6H6+TfO-+NH2N2+-scan
 OpenBabel10121810013D

 25 23  0  0  0  0  0  0  0  0999 V2000
   -1.7078   -2.7211   -0.5153 N   0  0  0  0  0  0  0  0  0  0  0  0
   -2.8096   -2.6419   -0.7365 N   0  0  0  0  0  0  0  0  0  0  0  0
   -0.5292   -2.8145   -0.1390 N   0  0  0  0  0  0  0  0  0  0  0  0
    0.1236   -2.8207   -0.9313 H   0  0  0  0  0  0  0  0  0  0  0  0
    0.1074   -2.6761    1.4368 H   0  0  0  0  0  0  0  0  0  0  0  0
    0.4692   -1.0271   -3.6130 C   0  0  0  0  0  0  0  0  0  0  0  0
    0.0540   -2.0016   -4.5204 C   0  0  0  0  0  0  0  0  0  0  0  0
    0.5593   -3.2991   -4.4325 C   0  0  0  0  0  0  0  0  0  0  0  0
    1.4819   -3.6222   -3.4375 C   0  0  0  0  0  0  0  0  0  0  0  0
    1.9010   -2.6481   -2.5277 C   0  0  0  0  0  0  0  0  0  0  0  0
    1.3912   -1.3497   -2.6163 C   0  0  0  0  0  0  0  0  0  0  0  0
    0.0788   -0.0178   -3.6844 H   0  0  0  0  0  0  0  0  0  0  0  0
   -0.6610   -1.7503   -5.2962 H   0  0  0  0  0  0  0  0  0  0  0  0
    0.2371   -4.0552   -5.1400 H   0  0  0  0  0  0  0  0  0  0  0  0
    1.8795   -4.6290   -3.3715 H   0  0  0  0  0  0  0  0  0  0  0  0
    2.6147   -2.8941   -1.7496 H   0  0  0  0  0  0  0  0  0  0  0  0
    1.7132   -0.5948   -1.9074 H   0  0  0  0  0  0  0  0  0  0  0  0
    2.1069   -2.2353    2.1341 S   0  0  0  0  0  0  0  0  0  0  0  0
    2.8093   -2.6139    3.3340 O   0  0  0  0  0  0  0  0  0  0  0  0
    2.5438   -2.6329    0.8062 O   0  0  0  0  0  0  0  0  0  0  0  0
    0.5633   -2.5711    2.3267 O   0  0  0  0  0  0  0  0  0  0  0  0
    2.0284   -0.3582    2.1068 C   0  0  0  0  0  0  0  0  0  0  0  0
    1.2385    0.0359    1.0998 F   0  0  0  0  0  0  0  0  0  0  0  0
    1.5421    0.1049    3.2515 F   0  0  0  0  0  0  0  0  0  0  0  0
    3.2531    0.1235    1.9139 F   0  0  0  0  0  0  0  0  0  0  0  0
  1  3  2  0  0  0  0
  2  1  2  0  0  0  0
  4  3  1  0  0  0  0
  5 21  1  0  0  0  0
  6 11  2  0  0  0  0
  7  8  2  0  0  0  0
  7  6  1  0  0  0  0
  8  9  1  0  0  0  0
  9 15  1  0  0  0  0
  9 10  2  0  0  0  0
 10 16  1  0  0  0  0
 11 10  1  0  0  0  0
 11 17  1  0  0  0  0
 12  6  1  0  0  0  0
 13  7  1  0  0  0  0
 14  8  1  0  0  0  0
 18 21  1  0  0  0  0
 18 19  2  0  0  0  0
 20 18  2  0  0  0  0
 22 18  1  0  0  0  0
 22 24  1  0  0  0  0
 23 22  1  0  0  0  0
 25 22  1  0  0  0  0
M  RAD  1   2   2
M  END
