Coordinates from ORCA-job C6H6+TfO-+NH2N2+-scan
 OpenBabel10121810013D

 25 24  0  0  1  0  0  0  0  0999 V2000
   -1.2092   -1.6043   -0.5204 N   0  0  0  0  0  0  0  0  0  0  0  0
   -2.3424   -1.5502   -0.4700 N   0  0  0  0  0  0  0  0  0  0  0  0
   -0.0610   -2.0102   -0.9043 N   0  0  0  0  0  0  0  0  0  0  0  0
    0.5768   -1.2133   -0.9901 H   0  0  0  0  0  0  0  0  0  0  0  0
    0.8625   -2.9623    0.2916 H   0  0  0  0  0  0  0  0  0  0  0  0
    0.0404   -1.2467   -4.3088 C   0  0  0  0  0  0  0  0  0  0  0  0
   -0.6263   -2.1610   -3.5035 C   0  0  0  0  0  0  0  0  0  0  0  0
    0.0956   -2.9429   -2.5654 C   0  0  1  0  0  0  0  0  0  0  0  0
    1.5068   -2.9902   -2.6967 C   0  0  0  0  0  0  0  0  0  0  0  0
    2.1619   -2.0738   -3.5088 C   0  0  0  0  0  0  0  0  0  0  0  0
    1.4362   -1.1764   -4.2975 C   0  0  0  0  0  0  0  0  0  0  0  0
   -0.5259   -0.6097   -4.9802 H   0  0  0  0  0  0  0  0  0  0  0  0
   -1.7064   -2.2460   -3.5539 H   0  0  0  0  0  0  0  0  0  0  0  0
   -0.4074   -3.7962   -2.1224 H   0  0  0  0  0  0  0  0  0  0  0  0
    2.0753   -3.7021   -2.1083 H   0  0  0  0  0  0  0  0  0  0  0  0
    3.2457   -2.0763   -3.5519 H   0  0  0  0  0  0  0  0  0  0  0  0
    1.9531   -0.4682   -4.9346 H   0  0  0  0  0  0  0  0  0  0  0  0
    2.5020   -2.2831    1.5100 S   0  0  0  0  0  0  0  0  0  0  0  0
    3.7412   -2.9243    1.8678 O   0  0  0  0  0  0  0  0  0  0  0  0
    2.4363   -1.0878    0.6857 O   0  0  0  0  0  0  0  0  0  0  0  0
    1.5101   -3.3931    0.9198 O   0  0  0  0  0  0  0  0  0  0  0  0
    1.5941   -1.8762    3.1056 C   0  0  0  0  0  0  0  0  0  0  0  0
    0.3522   -1.4802    2.8099 F   0  0  0  0  0  0  0  0  0  0  0  0
    1.5424   -2.9439    3.8910 F   0  0  0  0  0  0  0  0  0  0  0  0
    2.2347   -0.8918    3.7268 F   0  0  0  0  0  0  0  0  0  0  0  0
  1  2  1  0  0  0  0
  3  1  1  0  0  0  0
  4  3  1  0  0  0  0
  5 21  1  0  0  0  0
  6 11  1  0  0  0  0
  6  7  2  0  0  0  0
  7  8  1  0  0  0  0
  8 14  1  1  0  0  0
  8  3  1  0  0  0  0
  9  8  1  0  0  0  0
  9 15  1  0  0  0  0
 10  9  2  0  0  0  0
 11 10  1  0  0  0  0
 12  6  1  0  0  0  0
 13  7  1  0  0  0  0
 16 10  1  0  0  0  0
 17 11  1  0  0  0  0
 18 19  2  0  0  0  0
 18 22  1  0  0  0  0
 20 18  2  0  0  0  0
 21 18  1  0  0  0  0
 22 25  1  0  0  0  0
 22 24  1  0  0  0  0
 23 22  1  0  0  0  0
M  RAD  3   1   2   2   3  11   2
M  END
