Coordinates from ORCA-job C6H6+TfO-+NH2N2+-scan
 OpenBabel10121810013D

 25 23  0  0  0  0  0  0  0  0999 V2000
   -1.3763   -1.4128    0.5161 N   0  0  0  0  0  0  0  0  0  0  0  0
   -2.2282   -0.9029   -0.0152 N   0  0  0  0  0  0  0  0  0  0  0  0
   -0.3814   -1.8368    1.1268 N   0  0  0  0  0  0  0  0  0  0  0  0
   -0.3139   -2.8563    1.0990 H   0  0  0  0  0  0  0  0  0  0  0  0
    0.4215   -1.3315    2.5975 H   0  0  0  0  0  0  0  0  0  0  0  0
   -0.5501   -2.7490   -5.1118 C   0  0  0  0  0  0  0  0  0  0  0  0
    0.6793   -3.3569   -4.8601 C   0  0  0  0  0  0  0  0  0  0  0  0
    1.7958   -2.5754   -4.5650 C   0  0  0  0  0  0  0  0  0  0  0  0
    1.6836   -1.1864   -4.5238 C   0  0  0  0  0  0  0  0  0  0  0  0
    0.4541   -0.5785   -4.7754 C   0  0  0  0  0  0  0  0  0  0  0  0
   -0.6628   -1.3598   -5.0689 C   0  0  0  0  0  0  0  0  0  0  0  0
   -1.4184   -3.3566   -5.3436 H   0  0  0  0  0  0  0  0  0  0  0  0
    0.7676   -4.4375   -4.8962 H   0  0  0  0  0  0  0  0  0  0  0  0
    2.7527   -3.0482   -4.3719 H   0  0  0  0  0  0  0  0  0  0  0  0
    2.5531   -0.5785   -4.2980 H   0  0  0  0  0  0  0  0  0  0  0  0
    0.3670    0.5023   -4.7448 H   0  0  0  0  0  0  0  0  0  0  0  0
   -1.6189   -0.8868   -5.2658 H   0  0  0  0  0  0  0  0  0  0  0  0
    1.6584   -2.7202    3.6790 S   0  0  0  0  0  0  0  0  0  0  0  0
    1.8378   -2.9215    5.0938 O   0  0  0  0  0  0  0  0  0  0  0  0
    1.0586   -3.7234    2.8116 O   0  0  0  0  0  0  0  0  0  0  0  0
    0.9385   -1.3125    3.4531 O   0  0  0  0  0  0  0  0  0  0  0  0
    3.3461   -2.3338    2.9472 C   0  0  0  0  0  0  0  0  0  0  0  0
    3.1971   -1.9532    1.6770 F   0  0  0  0  0  0  0  0  0  0  0  0
    3.9324   -1.3625    3.6357 F   0  0  0  0  0  0  0  0  0  0  0  0
    4.0952   -3.4314    2.9950 F   0  0  0  0  0  0  0  0  0  0  0  0
  1  3  2  0  0  0  0
  2  1  2  0  0  0  0
  4  3  1  0  0  0  0
  5 21  1  0  0  0  0
  6 11  2  0  0  0  0
  6  7  1  0  0  0  0
  7  8  2  0  0  0  0
  8  9  1  0  0  0  0
  8 14  1  0  0  0  0
  9 15  1  0  0  0  0
 10 16  1  0  0  0  0
 10  9  2  0  0  0  0
 11 10  1  0  0  0  0
 12  6  1  0  0  0  0
 13  7  1  0  0  0  0
 17 11  1  0  0  0  0
 18 19  2  0  0  0  0
 20 18  2  0  0  0  0
 21 18  1  0  0  0  0
 22 25  1  0  0  0  0
 22 24  1  0  0  0  0
 22 18  1  0  0  0  0
 23 22  1  0  0  0  0
M  RAD  1   2   2
M  END
