Coordinates from ORCA-job C6H6+TfO-+NH2N2+-scan
 OpenBabel10121810013D

 25 25  0  0  1  0  0  0  0  0999 V2000
   -0.8676   -0.8140   -1.1067 N   0  0  0  0  0  0  0  0  0  0  0  0
   -1.3669   -1.2010   -2.1551 N   0  0  0  0  0  0  0  0  0  0  0  0
    0.3424   -1.5162   -0.7727 N   0  0  0  0  0  0  0  0  0  0  0  0
    1.0234   -0.8273   -0.4572 H   0  0  0  0  0  0  0  0  0  0  0  0
    0.1911   -2.5083    0.5180 H   0  0  0  0  0  0  0  0  0  0  0  0
   -0.3612   -1.9159   -4.2856 C   0  0  0  0  0  0  0  0  0  0  0  0
   -0.5172   -2.2575   -2.8331 C   0  0  1  0  0  0  0  0  0  0  0  0
    0.7851   -2.3022   -1.9972 C   0  0  1  0  0  0  0  0  0  0  0  0
    2.0004   -1.7158   -2.6562 C   0  0  0  0  0  0  0  0  0  0  0  0
    1.9961   -1.3480   -3.9426 C   0  0  0  0  0  0  0  0  0  0  0  0
    0.8038   -1.4837   -4.7810 C   0  0  0  0  0  0  0  0  0  0  0  0
   -1.2463   -1.9950   -4.9058 H   0  0  0  0  0  0  0  0  0  0  0  0
   -1.0912   -3.1831   -2.7226 H   0  0  0  0  0  0  0  0  0  0  0  0
    1.0076   -3.3136   -1.6534 H   0  0  0  0  0  0  0  0  0  0  0  0
    2.8964   -1.6502   -2.0474 H   0  0  0  0  0  0  0  0  0  0  0  0
    2.8989   -0.9534   -4.3962 H   0  0  0  0  0  0  0  0  0  0  0  0
    0.8835   -1.2246   -5.8310 H   0  0  0  0  0  0  0  0  0  0  0  0
    1.7225   -3.3713    1.7884 S   0  0  0  0  0  0  0  0  0  0  0  0
    1.8576   -4.6646    2.4125 O   0  0  0  0  0  0  0  0  0  0  0  0
    2.6419   -2.8997    0.7621 O   0  0  0  0  0  0  0  0  0  0  0  0
    0.2285   -3.1840    1.2946 O   0  0  0  0  0  0  0  0  0  0  0  0
    1.7766   -2.0814    3.1531 C   0  0  0  0  0  0  0  0  0  0  0  0
    1.4728   -0.8848    2.6338 F   0  0  0  0  0  0  0  0  0  0  0  0
    0.9064   -2.3779    4.1099 F   0  0  0  0  0  0  0  0  0  0  0  0
    3.0041   -2.0368    3.6628 F   0  0  0  0  0  0  0  0  0  0  0  0
  1  3  1  0  0  0  0
  2  1  1  0  0  0  0
  3  4  1  0  0  0  0
  5 21  1  0  0  0  0
  6  7  1  0  0  0  0
  7 13  1  1  0  0  0
  7  2  1  0  0  0  0
  7  8  1  0  0  0  0
  8 14  1  1  0  0  0
  8  3  1  0  0  0  0
  9 15  1  0  0  0  0
  9  8  1  0  0  0  0
 10  9  2  0  0  0  0
 11  6  2  0  0  0  0
 11 10  1  0  0  0  0
 12  6  1  0  0  0  0
 16 10  1  0  0  0  0
 17 11  1  0  0  0  0
 18 19  2  0  0  0  0
 18 22  1  0  0  0  0
 20 18  2  0  0  0  0
 21 18  1  0  0  0  0
 22 25  1  0  0  0  0
 22 24  1  0  0  0  0
 23 22  1  0  0  0  0
M  RAD  2   1   2   2   2
M  END
