Coordinates from ORCA-job C6H6+TfO-+NH2N2+-scan
 OpenBabel10121810013D

 25 23  0  0  0  0  0  0  0  0999 V2000
   -1.6374   -3.0071   -0.8323 N   0  0  0  0  0  0  0  0  0  0  0  0
   -2.7299   -3.0559   -1.1040 N   0  0  0  0  0  0  0  0  0  0  0  0
   -0.4751   -2.9631   -0.4035 N   0  0  0  0  0  0  0  0  0  0  0  0
    0.2113   -2.9347   -1.1645 H   0  0  0  0  0  0  0  0  0  0  0  0
    0.0500   -2.7476    1.2037 H   0  0  0  0  0  0  0  0  0  0  0  0
    0.6537   -0.8798   -3.4076 C   0  0  0  0  0  0  0  0  0  0  0  0
   -0.1029   -1.8807   -4.0184 C   0  0  0  0  0  0  0  0  0  0  0  0
    0.2819   -3.2164   -3.8978 C   0  0  0  0  0  0  0  0  0  0  0  0
    1.4289   -3.5508   -3.1746 C   0  0  0  0  0  0  0  0  0  0  0  0
    2.1834   -2.5493   -2.5589 C   0  0  0  0  0  0  0  0  0  0  0  0
    1.7920   -1.2141   -2.6746 C   0  0  0  0  0  0  0  0  0  0  0  0
    0.3532    0.1582   -3.4983 H   0  0  0  0  0  0  0  0  0  0  0  0
   -0.9891   -1.6208   -4.5869 H   0  0  0  0  0  0  0  0  0  0  0  0
   -0.3025   -3.9944   -4.3772 H   0  0  0  0  0  0  0  0  0  0  0  0
    1.7329   -4.5880   -3.0858 H   0  0  0  0  0  0  0  0  0  0  0  0
    3.0557   -2.8080   -1.9711 H   0  0  0  0  0  0  0  0  0  0  0  0
    2.3713   -0.4391   -2.1860 H   0  0  0  0  0  0  0  0  0  0  0  0
    1.9853   -2.2649    2.0401 S   0  0  0  0  0  0  0  0  0  0  0  0
    2.5756   -2.5372    3.3265 O   0  0  0  0  0  0  0  0  0  0  0  0
    2.5405   -2.7666    0.7952 O   0  0  0  0  0  0  0  0  0  0  0  0
    0.4306   -2.5951    2.1219 O   0  0  0  0  0  0  0  0  0  0  0  0
    1.9065   -0.3969    1.8531 C   0  0  0  0  0  0  0  0  0  0  0  0
    1.1718   -0.0895    0.7772 F   0  0  0  0  0  0  0  0  0  0  0  0
    1.3608    0.1573    2.9288 F   0  0  0  0  0  0  0  0  0  0  0  0
    3.1403    0.0743    1.6859 F   0  0  0  0  0  0  0  0  0  0  0  0
  1  3  2  0  0  0  0
  2  1  2  0  0  0  0
  4  3  1  0  0  0  0
  5 21  1  0  0  0  0
  6 11  2  0  0  0  0
  7  8  2  0  0  0  0
  7  6  1  0  0  0  0
  8  9  1  0  0  0  0
  9 15  1  0  0  0  0
  9 10  2  0  0  0  0
 10 16  1  0  0  0  0
 11 10  1  0  0  0  0
 11 17  1  0  0  0  0
 12  6  1  0  0  0  0
 13  7  1  0  0  0  0
 14  8  1  0  0  0  0
 18 21  1  0  0  0  0
 18 19  2  0  0  0  0
 20 18  2  0  0  0  0
 22 18  1  0  0  0  0
 22 24  1  0  0  0  0
 23 22  1  0  0  0  0
 25 22  1  0  0  0  0
M  RAD  1   2   2
M  END
