Coordinates from ORCA-job C6H6+TfO-+NH2N2+-scan
 OpenBabel10121810013D

 25 23  0  0  0  0  0  0  0  0999 V2000
   -2.1189   -2.6360    0.1169 N   0  0  0  0  0  0  0  0  0  0  0  0
   -3.2360   -2.5791   -0.0132 N   0  0  0  0  0  0  0  0  0  0  0  0
   -0.9104   -2.6762    0.4006 N   0  0  0  0  0  0  0  0  0  0  0  0
   -0.3313   -2.8508   -0.4247 H   0  0  0  0  0  0  0  0  0  0  0  0
   -0.0750   -2.4257    1.8870 H   0  0  0  0  0  0  0  0  0  0  0  0
    0.3487   -1.1999   -3.6734 C   0  0  0  0  0  0  0  0  0  0  0  0
    0.3773   -1.9451   -4.8514 C   0  0  0  0  0  0  0  0  0  0  0  0
    1.1070   -3.1330   -4.9085 C   0  0  0  0  0  0  0  0  0  0  0  0
    1.8024   -3.5784   -3.7848 C   0  0  0  0  0  0  0  0  0  0  0  0
    1.7779   -2.8334   -2.6046 C   0  0  0  0  0  0  0  0  0  0  0  0
    1.0518   -1.6418   -2.5512 C   0  0  0  0  0  0  0  0  0  0  0  0
   -0.2100   -0.2709   -3.6329 H   0  0  0  0  0  0  0  0  0  0  0  0
   -0.1633   -1.5985   -5.7255 H   0  0  0  0  0  0  0  0  0  0  0  0
    1.1323   -3.7099   -5.8266 H   0  0  0  0  0  0  0  0  0  0  0  0
    2.3708   -4.5011   -3.8293 H   0  0  0  0  0  0  0  0  0  0  0  0
    2.3271   -3.1656   -1.7308 H   0  0  0  0  0  0  0  0  0  0  0  0
    1.0531   -1.0509   -1.6410 H   0  0  0  0  0  0  0  0  0  0  0  0
    2.0511   -2.2067    2.1477 S   0  0  0  0  0  0  0  0  0  0  0  0
    2.9277   -2.6223    3.2127 O   0  0  0  0  0  0  0  0  0  0  0  0
    2.1414   -2.7404    0.7980 O   0  0  0  0  0  0  0  0  0  0  0  0
    0.5456   -2.2943    2.6631 O   0  0  0  0  0  0  0  0  0  0  0  0
    2.2249   -0.3430    1.9793 C   0  0  0  0  0  0  0  0  0  0  0  0
    1.3080    0.1082    1.1146 F   0  0  0  0  0  0  0  0  0  0  0  0
    2.0477    0.2477    3.1540 F   0  0  0  0  0  0  0  0  0  0  0  0
    3.4387   -0.0633    1.5154 F   0  0  0  0  0  0  0  0  0  0  0  0
  1  3  2  0  0  0  0
  2  1  2  0  0  0  0
  4  3  1  0  0  0  0
  5 21  1  0  0  0  0
  6 12  1  0  0  0  0
  6 11  2  0  0  0  0
  7  6  1  0  0  0  0
  8  7  2  0  0  0  0
  8  9  1  0  0  0  0
  9 10  2  0  0  0  0
 10 11  1  0  0  0  0
 10 16  1  0  0  0  0
 11 17  1  0  0  0  0
 13  7  1  0  0  0  0
 14  8  1  0  0  0  0
 15  9  1  0  0  0  0
 18 21  1  0  0  0  0
 18 19  2  0  0  0  0
 20 18  2  0  0  0  0
 22 18  1  0  0  0  0
 22 24  1  0  0  0  0
 23 22  1  0  0  0  0
 25 22  1  0  0  0  0
M  RAD  1   2   2
M  END
