Coordinates from ORCA-job C6H6+TfO-+NH2N2+-scan
 OpenBabel10121810013D

 25 25  0  0  1  0  0  0  0  0999 V2000
   -0.3662   -0.6122   -1.0332 N   0  0  0  0  0  0  0  0  0  0  0  0
   -1.0516   -0.8946   -2.0048 N   0  0  0  0  0  0  0  0  0  0  0  0
    0.7402   -1.5803   -0.8965 N   0  0  0  0  0  0  0  0  0  0  0  0
    1.5353   -1.0846   -0.4980 H   0  0  0  0  0  0  0  0  0  0  0  0
    0.4735   -2.6159    0.3773 H   0  0  0  0  0  0  0  0  0  0  0  0
   -0.5201   -1.9270   -4.2063 C   0  0  0  0  0  0  0  0  0  0  0  0
   -0.4872   -2.0973   -2.7172 C   0  0  1  0  0  0  0  0  0  0  0  0
    0.9243   -2.2148   -2.0514 C   0  0  1  0  0  0  0  0  0  0  0  0
    2.0410   -1.6671   -2.9291 C   0  0  0  0  0  0  0  0  0  0  0  0
    1.8741   -1.4153   -4.2307 C   0  0  0  0  0  0  0  0  0  0  0  0
    0.5817   -1.6050   -4.8925 C   0  0  0  0  0  0  0  0  0  0  0  0
   -1.4812   -2.0322   -4.6956 H   0  0  0  0  0  0  0  0  0  0  0  0
   -1.1317   -2.9288   -2.4108 H   0  0  0  0  0  0  0  0  0  0  0  0
    1.1405   -3.2815   -1.8919 H   0  0  0  0  0  0  0  0  0  0  0  0
    3.0070   -1.5353   -2.4489 H   0  0  0  0  0  0  0  0  0  0  0  0
    2.7082   -1.0632   -4.8284 H   0  0  0  0  0  0  0  0  0  0  0  0
    0.5303   -1.4660   -5.9669 H   0  0  0  0  0  0  0  0  0  0  0  0
    1.8650   -3.2621    1.9035 S   0  0  0  0  0  0  0  0  0  0  0  0
    2.1805   -4.5775    2.4033 O   0  0  0  0  0  0  0  0  0  0  0  0
    2.8180   -2.4672    1.1403 O   0  0  0  0  0  0  0  0  0  0  0  0
    0.4797   -3.3146    1.1266 O   0  0  0  0  0  0  0  0  0  0  0  0
    1.3660   -2.2083    3.3772 C   0  0  0  0  0  0  0  0  0  0  0  0
    0.9015   -1.0354    2.9401 F   0  0  0  0  0  0  0  0  0  0  0  0
    0.4247   -2.8218    4.0842 F   0  0  0  0  0  0  0  0  0  0  0  0
    2.4354   -2.0020    4.1407 F   0  0  0  0  0  0  0  0  0  0  0  0
  1  3  1  0  0  0  0
  2  1  1  0  0  0  0
  3  4  1  0  0  0  0
  5 21  1  0  0  0  0
  6  7  1  0  0  0  0
  7 13  1  1  0  0  0
  7  8  1  0  0  0  0
  7  2  1  0  0  0  0
  8 14  1  1  0  0  0
  8  3  1  0  0  0  0
  9 15  1  0  0  0  0
  9  8  1  0  0  0  0
 10  9  2  0  0  0  0
 11 10  1  0  0  0  0
 11  6  2  0  0  0  0
 12  6  1  0  0  0  0
 16 10  1  0  0  0  0
 17 11  1  0  0  0  0
 18 19  2  0  0  0  0
 18 22  1  0  0  0  0
 20 18  2  0  0  0  0
 21 18  1  0  0  0  0
 22 24  1  0  0  0  0
 22 25  1  0  0  0  0
 23 22  1  0  0  0  0
M  RAD  2   1   2   2   2
M  END
