Coordinates from ORCA-job C6H6+TfO-+NH2N2+-scan
 OpenBabel10121810013D

 25 23  0  0  0  0  0  0  0  0999 V2000
   -1.2606   -1.4052    0.7069 N   0  0  0  0  0  0  0  0  0  0  0  0
   -2.0616   -0.8929    0.1035 N   0  0  0  0  0  0  0  0  0  0  0  0
   -0.3226   -1.8386    1.3953 N   0  0  0  0  0  0  0  0  0  0  0  0
   -0.1992   -2.8481    1.2958 H   0  0  0  0  0  0  0  0  0  0  0  0
    0.3912   -1.3829    2.9275 H   0  0  0  0  0  0  0  0  0  0  0  0
   -0.6252   -2.7292   -5.3479 C   0  0  0  0  0  0  0  0  0  0  0  0
    0.6102   -3.3654   -5.2316 C   0  0  0  0  0  0  0  0  0  0  0  0
    1.7647   -2.6129   -5.0190 C   0  0  0  0  0  0  0  0  0  0  0  0
    1.6835   -1.2242   -4.9222 C   0  0  0  0  0  0  0  0  0  0  0  0
    0.4481   -0.5881   -5.0385 C   0  0  0  0  0  0  0  0  0  0  0  0
   -0.7062   -1.3406   -5.2513 C   0  0  0  0  0  0  0  0  0  0  0  0
   -1.5229   -3.3144   -5.5161 H   0  0  0  0  0  0  0  0  0  0  0  0
    0.6735   -4.4456   -5.3089 H   0  0  0  0  0  0  0  0  0  0  0  0
    2.7259   -3.1076   -4.9301 H   0  0  0  0  0  0  0  0  0  0  0  0
    2.5818   -0.6385   -4.7585 H   0  0  0  0  0  0  0  0  0  0  0  0
    0.3853    0.4923   -4.9654 H   0  0  0  0  0  0  0  0  0  0  0  0
   -1.6670   -0.8456   -5.3434 H   0  0  0  0  0  0  0  0  0  0  0  0
    1.6630   -2.7715    3.9676 S   0  0  0  0  0  0  0  0  0  0  0  0
    1.8031   -3.0522    5.3734 O   0  0  0  0  0  0  0  0  0  0  0  0
    1.1503   -3.7478    3.0178 O   0  0  0  0  0  0  0  0  0  0  0  0
    0.8763   -1.3913    3.8012 O   0  0  0  0  0  0  0  0  0  0  0  0
    3.3520   -2.2522    3.3267 C   0  0  0  0  0  0  0  0  0  0  0  0
    3.2274   -1.7994    2.0776 F   0  0  0  0  0  0  0  0  0  0  0  0
    3.8605   -1.2978    4.0959 F   0  0  0  0  0  0  0  0  0  0  0  0
    4.1572   -3.3103    3.3350 F   0  0  0  0  0  0  0  0  0  0  0  0
  1  3  2  0  0  0  0
  2  1  2  0  0  0  0
  4  3  1  0  0  0  0
  5 21  1  0  0  0  0
  6 11  2  0  0  0  0
  6  7  1  0  0  0  0
  7  8  2  0  0  0  0
  8 14  1  0  0  0  0
  8  9  1  0  0  0  0
  9 15  1  0  0  0  0
 10 16  1  0  0  0  0
 10  9  2  0  0  0  0
 11 10  1  0  0  0  0
 12  6  1  0  0  0  0
 13  7  1  0  0  0  0
 17 11  1  0  0  0  0
 18 19  2  0  0  0  0
 20 18  2  0  0  0  0
 21 18  1  0  0  0  0
 22 25  1  0  0  0  0
 22 18  1  0  0  0  0
 22 24  1  0  0  0  0
 23 22  1  0  0  0  0
M  RAD  1   2   2
M  END
