Coordinates from ORCA-job C6H6+TfO-+NH2N2+-scan
 OpenBabel10121810013D

 25 23  0  0  0  0  0  0  0  0999 V2000
   -1.3140   -1.5566   -0.4639 N   0  0  0  0  0  0  0  0  0  0  0  0
   -2.4099   -1.3827   -0.2492 N   0  0  0  0  0  0  0  0  0  0  0  0
   -0.1854   -1.9740   -0.8178 N   0  0  0  0  0  0  0  0  0  0  0  0
    0.4303   -1.1892   -1.0439 H   0  0  0  0  0  0  0  0  0  0  0  0
    0.7620   -2.9275    0.3063 H   0  0  0  0  0  0  0  0  0  0  0  0
    0.0706   -1.2942   -4.3442 C   0  0  0  0  0  0  0  0  0  0  0  0
   -0.5811   -2.2503   -3.5702 C   0  0  0  0  0  0  0  0  0  0  0  0
    0.1443   -3.0346   -2.6609 C   0  0  0  0  0  0  0  0  0  0  0  0
    1.5451   -2.9807   -2.6843 C   0  0  0  0  0  0  0  0  0  0  0  0
    2.1938   -2.0213   -3.4582 C   0  0  0  0  0  0  0  0  0  0  0  0
    1.4590   -1.1621   -4.2767 C   0  0  0  0  0  0  0  0  0  0  0  0
   -0.5006   -0.6644   -5.0180 H   0  0  0  0  0  0  0  0  0  0  0  0
   -1.6582   -2.3622   -3.6411 H   0  0  0  0  0  0  0  0  0  0  0  0
   -0.3478   -3.8505   -2.1489 H   0  0  0  0  0  0  0  0  0  0  0  0
    2.1225   -3.6580   -2.0647 H   0  0  0  0  0  0  0  0  0  0  0  0
    3.2761   -1.9552   -3.4366 H   0  0  0  0  0  0  0  0  0  0  0  0
    1.9662   -0.4183   -4.8807 H   0  0  0  0  0  0  0  0  0  0  0  0
    2.4798   -2.3246    1.4591 S   0  0  0  0  0  0  0  0  0  0  0  0
    3.6993   -3.0225    1.7784 O   0  0  0  0  0  0  0  0  0  0  0  0
    2.4440   -1.1262    0.6384 O   0  0  0  0  0  0  0  0  0  0  0  0
    1.4215   -3.3877    0.9036 O   0  0  0  0  0  0  0  0  0  0  0  0
    1.6440   -1.8776    3.0829 C   0  0  0  0  0  0  0  0  0  0  0  0
    0.4102   -1.4291    2.8279 F   0  0  0  0  0  0  0  0  0  0  0  0
    1.5721   -2.9407    3.8732 F   0  0  0  0  0  0  0  0  0  0  0  0
    2.3452   -0.9202    3.6809 F   0  0  0  0  0  0  0  0  0  0  0  0
  1  2  2  0  0  0  0
  3  1  2  0  0  0  0
  4  3  1  0  0  0  0
  5 21  1  0  0  0  0
  6 11  2  0  0  0  0
  6  7  1  0  0  0  0
  7  8  2  0  0  0  0
  8 14  1  0  0  0  0
  9  8  1  0  0  0  0
  9 15  1  0  0  0  0
 10 16  1  0  0  0  0
 10  9  2  0  0  0  0
 11 10  1  0  0  0  0
 12  6  1  0  0  0  0
 13  7  1  0  0  0  0
 17 11  1  0  0  0  0
 18 19  2  0  0  0  0
 18 22  1  0  0  0  0
 20 18  2  0  0  0  0
 21 18  1  0  0  0  0
 22 25  1  0  0  0  0
 22 24  1  0  0  0  0
 23 22  1  0  0  0  0
M  RAD  1   2   2
M  END
