Coordinates from ORCA-job C6H6+TfO-+NH2N2+-scan
 OpenBabel10121810013D

 25 23  0  0  0  0  0  0  0  0999 V2000
   -1.7352   -1.2211   -0.6818 N   0  0  0  0  0  0  0  0  0  0  0  0
   -2.6946   -0.6299   -0.7201 N   0  0  0  0  0  0  0  0  0  0  0  0
   -0.7023   -1.8915   -0.5297 N   0  0  0  0  0  0  0  0  0  0  0  0
   -0.1709   -1.9838   -1.4026 H   0  0  0  0  0  0  0  0  0  0  0  0
   -0.2612   -2.4751    0.9918 H   0  0  0  0  0  0  0  0  0  0  0  0
    0.2483   -2.0073   -4.5020 C   0  0  0  0  0  0  0  0  0  0  0  0
    0.3497   -2.9525   -3.4816 C   0  0  0  0  0  0  0  0  0  0  0  0
    1.1942   -2.7205   -2.3901 C   0  0  0  0  0  0  0  0  0  0  0  0
    1.9701   -1.5566   -2.3507 C   0  0  0  0  0  0  0  0  0  0  0  0
    1.8694   -0.6141   -3.3723 C   0  0  0  0  0  0  0  0  0  0  0  0
    1.0067   -0.8381   -4.4456 C   0  0  0  0  0  0  0  0  0  0  0  0
   -0.4123   -2.1857   -5.3432 H   0  0  0  0  0  0  0  0  0  0  0  0
   -0.2323   -3.8667   -3.5271 H   0  0  0  0  0  0  0  0  0  0  0  0
    1.3062   -3.4654   -1.6107 H   0  0  0  0  0  0  0  0  0  0  0  0
    2.6371   -1.3865   -1.5133 H   0  0  0  0  0  0  0  0  0  0  0  0
    2.4662    0.2905   -3.3360 H   0  0  0  0  0  0  0  0  0  0  0  0
    0.9297   -0.1044   -5.2405 H   0  0  0  0  0  0  0  0  0  0  0  0
    1.3539   -3.5450    1.9761 S   0  0  0  0  0  0  0  0  0  0  0  0
    1.3717   -4.3971    3.1383 O   0  0  0  0  0  0  0  0  0  0  0  0
    1.7139   -4.0162    0.6496 O   0  0  0  0  0  0  0  0  0  0  0  0
   -0.0397   -2.7847    1.9268 O   0  0  0  0  0  0  0  0  0  0  0  0
    2.4984   -2.0988    2.3339 C   0  0  0  0  0  0  0  0  0  0  0  0
    2.3767   -1.1879    1.3586 F   0  0  0  0  0  0  0  0  0  0  0  0
    2.1911   -1.5366    3.4964 F   0  0  0  0  0  0  0  0  0  0  0  0
    3.7541   -2.5355    2.3670 F   0  0  0  0  0  0  0  0  0  0  0  0
  1  3  2  0  0  0  0
  2  1  2  0  0  0  0
  4  3  1  0  0  0  0
  5 21  1  0  0  0  0
  6 11  2  0  0  0  0
  6  7  1  0  0  0  0
  7  8  2  0  0  0  0
  8  9  1  0  0  0  0
  8 14  1  0  0  0  0
  9 15  1  0  0  0  0
 10 16  1  0  0  0  0
 10  9  2  0  0  0  0
 11 10  1  0  0  0  0
 12  6  1  0  0  0  0
 13  7  1  0  0  0  0
 17 11  1  0  0  0  0
 18 22  1  0  0  0  0
 18 19  2  0  0  0  0
 20 18  2  0  0  0  0
 21 18  1  0  0  0  0
 22 25  1  0  0  0  0
 22 24  1  0  0  0  0
 23 22  1  0  0  0  0
M  RAD  1   2   2
M  END
