Coordinates from ORCA-job C6H6+TfO-+NH2N2+-scan
 OpenBabel10121810013D

 25 23  0  0  0  0  0  0  0  0999 V2000
   -1.6233   -3.0124   -0.8748 N   0  0  0  0  0  0  0  0  0  0  0  0
   -2.7140   -3.0551   -1.1550 N   0  0  0  0  0  0  0  0  0  0  0  0
   -0.4640   -2.9746   -0.4390 N   0  0  0  0  0  0  0  0  0  0  0  0
    0.2276   -2.9485   -1.1948 H   0  0  0  0  0  0  0  0  0  0  0  0
    0.0538   -2.7734    1.1709 H   0  0  0  0  0  0  0  0  0  0  0  0
    0.6857   -0.8722   -3.3791 C   0  0  0  0  0  0  0  0  0  0  0  0
   -0.1230   -1.8665   -3.9311 C   0  0  0  0  0  0  0  0  0  0  0  0
    0.2434   -3.2075   -3.8119 C   0  0  0  0  0  0  0  0  0  0  0  0
    1.4252   -3.5537   -3.1528 C   0  0  0  0  0  0  0  0  0  0  0  0
    2.2309   -2.5586   -2.5947 C   0  0  0  0  0  0  0  0  0  0  0  0
    1.8575   -1.2181   -2.7067 C   0  0  0  0  0  0  0  0  0  0  0  0
    0.3995    0.1700   -3.4674 H   0  0  0  0  0  0  0  0  0  0  0  0
   -1.0355   -1.5976   -4.4518 H   0  0  0  0  0  0  0  0  0  0  0  0
   -0.3814   -3.9809   -4.2458 H   0  0  0  0  0  0  0  0  0  0  0  0
    1.7148   -4.5952   -3.0667 H   0  0  0  0  0  0  0  0  0  0  0  0
    3.1301   -2.8269   -2.0537 H   0  0  0  0  0  0  0  0  0  0  0  0
    2.4770   -0.4478   -2.2623 H   0  0  0  0  0  0  0  0  0  0  0  0
    1.9759   -2.2598    2.0206 S   0  0  0  0  0  0  0  0  0  0  0  0
    2.5639   -2.5268    3.3093 O   0  0  0  0  0  0  0  0  0  0  0  0
    2.5491   -2.7432    0.7766 O   0  0  0  0  0  0  0  0  0  0  0  0
    0.4279   -2.6222    2.0921 O   0  0  0  0  0  0  0  0  0  0  0  0
    1.8600   -0.3930    1.8424 C   0  0  0  0  0  0  0  0  0  0  0  0
    1.1291   -0.0952    0.7615 F   0  0  0  0  0  0  0  0  0  0  0  0
    1.2931    0.1442    2.9159 F   0  0  0  0  0  0  0  0  0  0  0  0
    3.0853    0.1047    1.6894 F   0  0  0  0  0  0  0  0  0  0  0  0
  1  3  2  0  0  0  0
  2  1  2  0  0  0  0
  4  3  1  0  0  0  0
  5 21  1  0  0  0  0
  6 11  2  0  0  0  0
  7  8  2  0  0  0  0
  7  6  1  0  0  0  0
  8  9  1  0  0  0  0
  9 15  1  0  0  0  0
  9 10  2  0  0  0  0
 10 16  1  0  0  0  0
 11 10  1  0  0  0  0
 11 17  1  0  0  0  0
 12  6  1  0  0  0  0
 13  7  1  0  0  0  0
 14  8  1  0  0  0  0
 18 21  1  0  0  0  0
 18 19  2  0  0  0  0
 20 18  2  0  0  0  0
 22 18  1  0  0  0  0
 22 24  1  0  0  0  0
 23 22  1  0  0  0  0
 25 22  1  0  0  0  0
M  RAD  1   2   2
M  END
