Coordinates from ORCA-job C6H6+TfO-+NH2N2+-scan
 OpenBabel10121810013D

 25 23  0  0  0  0  0  0  0  0999 V2000
   -1.2885   -1.5715   -0.4779 N   0  0  0  0  0  0  0  0  0  0  0  0
   -2.3923   -1.4244   -0.2795 N   0  0  0  0  0  0  0  0  0  0  0  0
   -0.1571   -1.9813   -0.8413 N   0  0  0  0  0  0  0  0  0  0  0  0
    0.4620   -1.1901   -1.0349 H   0  0  0  0  0  0  0  0  0  0  0  0
    0.7895   -2.9339    0.2973 H   0  0  0  0  0  0  0  0  0  0  0  0
    0.0664   -1.2830   -4.3364 C   0  0  0  0  0  0  0  0  0  0  0  0
   -0.5917   -2.2278   -3.5551 C   0  0  0  0  0  0  0  0  0  0  0  0
    0.1294   -3.0125   -2.6386 C   0  0  0  0  0  0  0  0  0  0  0  0
    1.5330   -2.9857   -2.6857 C   0  0  0  0  0  0  0  0  0  0  0  0
    2.1869   -2.0377   -3.4680 C   0  0  0  0  0  0  0  0  0  0  0  0
    1.4571   -1.1682   -4.2805 C   0  0  0  0  0  0  0  0  0  0  0  0
   -0.5018   -0.6504   -5.0101 H   0  0  0  0  0  0  0  0  0  0  0  0
   -1.6701   -2.3292   -3.6211 H   0  0  0  0  0  0  0  0  0  0  0  0
   -0.3668   -3.8351   -2.1404 H   0  0  0  0  0  0  0  0  0  0  0  0
    2.1066   -3.6724   -2.0729 H   0  0  0  0  0  0  0  0  0  0  0  0
    3.2705   -1.9902   -3.4603 H   0  0  0  0  0  0  0  0  0  0  0  0
    1.9693   -0.4336   -4.8915 H   0  0  0  0  0  0  0  0  0  0  0  0
    2.4859   -2.3082    1.4680 S   0  0  0  0  0  0  0  0  0  0  0  0
    3.7137   -2.9876    1.7943 O   0  0  0  0  0  0  0  0  0  0  0  0
    2.4368   -1.1078    0.6507 O   0  0  0  0  0  0  0  0  0  0  0  0
    1.4485   -3.3861    0.9000 O   0  0  0  0  0  0  0  0  0  0  0  0
    1.6300   -1.8806    3.0866 C   0  0  0  0  0  0  0  0  0  0  0  0
    0.3917   -1.4502    2.8230 F   0  0  0  0  0  0  0  0  0  0  0  0
    1.5682   -2.9479    3.8719 F   0  0  0  0  0  0  0  0  0  0  0  0
    2.3116   -0.9150    3.6938 F   0  0  0  0  0  0  0  0  0  0  0  0
  1  2  2  0  0  0  0
  3  1  2  0  0  0  0
  4  3  1  0  0  0  0
  5 21  1  0  0  0  0
  6 11  2  0  0  0  0
  6  7  1  0  0  0  0
  7  8  2  0  0  0  0
  8 14  1  0  0  0  0
  9  8  1  0  0  0  0
  9 15  1  0  0  0  0
 10 16  1  0  0  0  0
 10  9  2  0  0  0  0
 11 10  1  0  0  0  0
 12  6  1  0  0  0  0
 13  7  1  0  0  0  0
 17 11  1  0  0  0  0
 18 19  2  0  0  0  0
 18 22  1  0  0  0  0
 20 18  2  0  0  0  0
 21 18  1  0  0  0  0
 22 25  1  0  0  0  0
 22 24  1  0  0  0  0
 23 22  1  0  0  0  0
M  RAD  1   2   2
M  END
