Coordinates from ORCA-job C6H6+TfO-+NH2N2+-scan
 OpenBabel10121810013D

 25 23  0  0  0  0  0  0  0  0999 V2000
   -1.2210   -1.4130    0.7274 N   0  0  0  0  0  0  0  0  0  0  0  0
   -2.0138   -0.9040    0.1105 N   0  0  0  0  0  0  0  0  0  0  0  0
   -0.2918   -1.8433    1.4295 N   0  0  0  0  0  0  0  0  0  0  0  0
   -0.1668   -2.8532    1.3355 H   0  0  0  0  0  0  0  0  0  0  0  0
    0.4004   -1.3835    2.9706 H   0  0  0  0  0  0  0  0  0  0  0  0
   -0.6401   -2.7276   -5.3949 C   0  0  0  0  0  0  0  0  0  0  0  0
    0.5978   -3.3625   -5.3023 C   0  0  0  0  0  0  0  0  0  0  0  0
    1.7546   -2.6094   -5.1046 C   0  0  0  0  0  0  0  0  0  0  0  0
    1.6731   -1.2214   -4.9990 C   0  0  0  0  0  0  0  0  0  0  0  0
    0.4350   -0.5866   -5.0916 C   0  0  0  0  0  0  0  0  0  0  0  0
   -0.7216   -1.3397   -5.2894 C   0  0  0  0  0  0  0  0  0  0  0  0
   -1.5398   -3.3132   -5.5514 H   0  0  0  0  0  0  0  0  0  0  0  0
    0.6614   -4.4421   -5.3864 H   0  0  0  0  0  0  0  0  0  0  0  0
    2.7178   -3.1032   -5.0342 H   0  0  0  0  0  0  0  0  0  0  0  0
    2.5730   -0.6353   -4.8468 H   0  0  0  0  0  0  0  0  0  0  0  0
    0.3719    0.4933   -5.0115 H   0  0  0  0  0  0  0  0  0  0  0  0
   -1.6844   -0.8456   -5.3630 H   0  0  0  0  0  0  0  0  0  0  0  0
    1.6574   -2.7699    4.0315 S   0  0  0  0  0  0  0  0  0  0  0  0
    1.7781   -3.0470    5.4398 O   0  0  0  0  0  0  0  0  0  0  0  0
    1.1573   -3.7485    3.0773 O   0  0  0  0  0  0  0  0  0  0  0  0
    0.8737   -1.3899    3.8508 O   0  0  0  0  0  0  0  0  0  0  0  0
    3.3552   -2.2530    3.4124 C   0  0  0  0  0  0  0  0  0  0  0  0
    3.2479   -1.8037    2.1604 F   0  0  0  0  0  0  0  0  0  0  0  0
    3.8535   -1.2966    4.1858 F   0  0  0  0  0  0  0  0  0  0  0  0
    4.1599   -3.3114    3.4347 F   0  0  0  0  0  0  0  0  0  0  0  0
  1  3  2  0  0  0  0
  2  1  2  0  0  0  0
  4  3  1  0  0  0  0
  5 21  1  0  0  0  0
  6  7  2  0  0  0  0
  6 11  1  0  0  0  0
  7  8  1  0  0  0  0
  8 14  1  0  0  0  0
  8  9  2  0  0  0  0
  9 15  1  0  0  0  0
 10 16  1  0  0  0  0
 10  9  1  0  0  0  0
 11 10  2  0  0  0  0
 12  6  1  0  0  0  0
 13  7  1  0  0  0  0
 17 11  1  0  0  0  0
 18 19  2  0  0  0  0
 20 18  2  0  0  0  0
 21 18  1  0  0  0  0
 22 25  1  0  0  0  0
 22 18  1  0  0  0  0
 22 24  1  0  0  0  0
 23 22  1  0  0  0  0
M  RAD  1   2   2
M  END
