Coordinates from ORCA-job C6H6+TfO-+NH2N2+-scan
 OpenBabel10121810013D

 25 23  0  0  0  0  0  0  0  0999 V2000
   -1.5278   -1.3196   -0.7531 N   0  0  0  0  0  0  0  0  0  0  0  0
   -2.5969   -0.9949   -0.9016 N   0  0  0  0  0  0  0  0  0  0  0  0
   -0.3993   -1.7827   -0.5213 N   0  0  0  0  0  0  0  0  0  0  0  0
    0.3096   -1.3733   -1.1312 H   0  0  0  0  0  0  0  0  0  0  0  0
   -0.0065   -2.6729    0.8859 H   0  0  0  0  0  0  0  0  0  0  0  0
   -0.0112   -1.7636   -4.5345 C   0  0  0  0  0  0  0  0  0  0  0  0
   -0.1492   -2.7707   -3.5800 C   0  0  0  0  0  0  0  0  0  0  0  0
    0.8211   -2.9335   -2.5893 C   0  0  0  0  0  0  0  0  0  0  0  0
    1.9554   -2.1163   -2.5854 C   0  0  0  0  0  0  0  0  0  0  0  0
    2.0890   -1.1061   -3.5407 C   0  0  0  0  0  0  0  0  0  0  0  0
    1.1047   -0.9260   -4.5119 C   0  0  0  0  0  0  0  0  0  0  0  0
   -0.7694   -1.6351   -5.2993 H   0  0  0  0  0  0  0  0  0  0  0  0
   -1.0141   -3.4250   -3.6043 H   0  0  0  0  0  0  0  0  0  0  0  0
    0.7276   -3.7227   -1.8551 H   0  0  0  0  0  0  0  0  0  0  0  0
    2.7184   -2.2696   -1.8309 H   0  0  0  0  0  0  0  0  0  0  0  0
    2.9666   -0.4688   -3.5333 H   0  0  0  0  0  0  0  0  0  0  0  0
    1.2111   -0.1436   -5.2552 H   0  0  0  0  0  0  0  0  0  0  0  0
    1.8067   -3.3503    1.8569 S   0  0  0  0  0  0  0  0  0  0  0  0
    2.0777   -4.4831    2.7056 O   0  0  0  0  0  0  0  0  0  0  0  0
    2.4472   -3.1607    0.5664 O   0  0  0  0  0  0  0  0  0  0  0  0
    0.2282   -3.2012    1.7081 O   0  0  0  0  0  0  0  0  0  0  0  0
    2.1810   -1.8014    2.8533 C   0  0  0  0  0  0  0  0  0  0  0  0
    1.7723   -0.7290    2.1667 F   0  0  0  0  0  0  0  0  0  0  0  0
    1.5533   -1.8397    4.0225 F   0  0  0  0  0  0  0  0  0  0  0  0
    3.4932   -1.7208    3.0530 F   0  0  0  0  0  0  0  0  0  0  0  0
  1  3  2  0  0  0  0
  2  1  2  0  0  0  0
  4  3  1  0  0  0  0
  5 21  1  0  0  0  0
  6 11  2  0  0  0  0
  6  7  1  0  0  0  0
  7  8  2  0  0  0  0
  8  9  1  0  0  0  0
  8 14  1  0  0  0  0
  9 15  1  0  0  0  0
 10 16  1  0  0  0  0
 10  9  2  0  0  0  0
 11 10  1  0  0  0  0
 12  6  1  0  0  0  0
 13  7  1  0  0  0  0
 17 11  1  0  0  0  0
 18 19  2  0  0  0  0
 18 22  1  0  0  0  0
 20 18  2  0  0  0  0
 21 18  1  0  0  0  0
 22 25  1  0  0  0  0
 22 24  1  0  0  0  0
 23 22  1  0  0  0  0
M  RAD  1   2   2
M  END
