Coordinates from ORCA-job C6H6+TfO-+NH2N2+-scan
 OpenBabel10121810013D

 25 23  0  0  0  0  0  0  0  0999 V2000
   -1.2845   -1.5683   -0.4720 N   0  0  0  0  0  0  0  0  0  0  0  0
   -2.3863   -1.4151   -0.2685 N   0  0  0  0  0  0  0  0  0  0  0  0
   -0.1547   -1.9796   -0.8374 N   0  0  0  0  0  0  0  0  0  0  0  0
    0.4642   -1.1888   -1.0331 H   0  0  0  0  0  0  0  0  0  0  0  0
    0.7901   -2.9330    0.2986 H   0  0  0  0  0  0  0  0  0  0  0  0
    0.0639   -1.2849   -4.3392 C   0  0  0  0  0  0  0  0  0  0  0  0
   -0.5914   -2.2306   -3.5562 C   0  0  0  0  0  0  0  0  0  0  0  0
    0.1329   -3.0156   -2.6435 C   0  0  0  0  0  0  0  0  0  0  0  0
    1.5361   -2.9848   -2.6910 C   0  0  0  0  0  0  0  0  0  0  0  0
    2.1873   -2.0361   -3.4748 C   0  0  0  0  0  0  0  0  0  0  0  0
    1.4543   -1.1684   -4.2865 C   0  0  0  0  0  0  0  0  0  0  0  0
   -0.5067   -0.6523   -5.0111 H   0  0  0  0  0  0  0  0  0  0  0  0
   -1.6700   -2.3327   -3.6194 H   0  0  0  0  0  0  0  0  0  0  0  0
   -0.3612   -3.8362   -2.1404 H   0  0  0  0  0  0  0  0  0  0  0  0
    2.1117   -3.6694   -2.0778 H   0  0  0  0  0  0  0  0  0  0  0  0
    3.2707   -1.9864   -3.4686 H   0  0  0  0  0  0  0  0  0  0  0  0
    1.9641   -0.4333   -4.8989 H   0  0  0  0  0  0  0  0  0  0  0  0
    2.4858   -2.3110    1.4724 S   0  0  0  0  0  0  0  0  0  0  0  0
    3.7112   -2.9928    1.8028 O   0  0  0  0  0  0  0  0  0  0  0  0
    2.4418   -1.1106    0.6548 O   0  0  0  0  0  0  0  0  0  0  0  0
    1.4483   -3.3869    0.9015 O   0  0  0  0  0  0  0  0  0  0  0  0
    1.6257   -1.8810    3.0881 C   0  0  0  0  0  0  0  0  0  0  0  0
    0.3888   -1.4487    2.8204 F   0  0  0  0  0  0  0  0  0  0  0  0
    1.5597   -2.9477    3.8740 F   0  0  0  0  0  0  0  0  0  0  0  0
    2.3069   -0.9161    3.6970 F   0  0  0  0  0  0  0  0  0  0  0  0
  1  2  2  0  0  0  0
  3  1  2  0  0  0  0
  4  3  1  0  0  0  0
  5 21  1  0  0  0  0
  6 11  2  0  0  0  0
  6  7  1  0  0  0  0
  7  8  2  0  0  0  0
  8 14  1  0  0  0  0
  9  8  1  0  0  0  0
  9 15  1  0  0  0  0
 10 16  1  0  0  0  0
 10  9  2  0  0  0  0
 11 10  1  0  0  0  0
 12  6  1  0  0  0  0
 13  7  1  0  0  0  0
 17 11  1  0  0  0  0
 18 19  2  0  0  0  0
 18 22  1  0  0  0  0
 20 18  2  0  0  0  0
 21 18  1  0  0  0  0
 22 25  1  0  0  0  0
 22 24  1  0  0  0  0
 23 22  1  0  0  0  0
M  RAD  1   2   2
M  END
