Coordinates from ORCA-job C6H6+TfO-+NH2N2+-scan
 OpenBabel10121810013D

 25 23  0  0  0  0  0  0  0  0999 V2000
   -1.9641   -2.6532   -0.1461 N   0  0  0  0  0  0  0  0  0  0  0  0
   -3.0772   -2.5893   -0.3054 N   0  0  0  0  0  0  0  0  0  0  0  0
   -0.7636   -2.7098    0.1661 N   0  0  0  0  0  0  0  0  0  0  0  0
   -0.1649   -2.8319   -0.6566 H   0  0  0  0  0  0  0  0  0  0  0  0
   -0.0103   -2.4902    1.6961 H   0  0  0  0  0  0  0  0  0  0  0  0
    0.3098   -1.1508   -3.6527 C   0  0  0  0  0  0  0  0  0  0  0  0
    0.2619   -1.9920   -4.7631 C   0  0  0  0  0  0  0  0  0  0  0  0
    0.9613   -3.1994   -4.7544 C   0  0  0  0  0  0  0  0  0  0  0  0
    1.7066   -3.5663   -3.6351 C   0  0  0  0  0  0  0  0  0  0  0  0
    1.7589   -2.7253   -2.5213 C   0  0  0  0  0  0  0  0  0  0  0  0
    1.0595   -1.5158   -2.5326 C   0  0  0  0  0  0  0  0  0  0  0  0
   -0.2277   -0.2086   -3.6617 H   0  0  0  0  0  0  0  0  0  0  0  0
   -0.3161   -1.7068   -5.6354 H   0  0  0  0  0  0  0  0  0  0  0  0
    0.9254   -3.8520   -5.6201 H   0  0  0  0  0  0  0  0  0  0  0  0
    2.2531   -4.5031   -3.6299 H   0  0  0  0  0  0  0  0  0  0  0  0
    2.3438   -3.0013   -1.6511 H   0  0  0  0  0  0  0  0  0  0  0  0
    1.1043   -0.8562   -1.6723 H   0  0  0  0  0  0  0  0  0  0  0  0
    2.0807   -2.2386    2.1603 S   0  0  0  0  0  0  0  0  0  0  0  0
    2.8595   -2.6439    3.3026 O   0  0  0  0  0  0  0  0  0  0  0  0
    2.3122   -2.7582    0.8226 O   0  0  0  0  0  0  0  0  0  0  0  0
    0.5359   -2.3623    2.5281 O   0  0  0  0  0  0  0  0  0  0  0  0
    2.2329   -0.3707    2.0216 C   0  0  0  0  0  0  0  0  0  0  0  0
    1.3880    0.0733    1.0823 F   0  0  0  0  0  0  0  0  0  0  0  0
    1.9414    0.2069    3.1801 F   0  0  0  0  0  0  0  0  0  0  0  0
    3.4776   -0.0647    1.6691 F   0  0  0  0  0  0  0  0  0  0  0  0
  1  3  2  0  0  0  0
  2  1  2  0  0  0  0
  4  3  1  0  0  0  0
  5 21  1  0  0  0  0
  6 11  2  0  0  0  0
  7  8  2  0  0  0  0
  7  6  1  0  0  0  0
  8  9  1  0  0  0  0
  9 15  1  0  0  0  0
  9 10  2  0  0  0  0
 10 16  1  0  0  0  0
 11 10  1  0  0  0  0
 11 17  1  0  0  0  0
 12  6  1  0  0  0  0
 13  7  1  0  0  0  0
 14  8  1  0  0  0  0
 18 21  1  0  0  0  0
 18 19  2  0  0  0  0
 20 18  2  0  0  0  0
 22 18  1  0  0  0  0
 22 24  1  0  0  0  0
 23 22  1  0  0  0  0
 25 22  1  0  0  0  0
M  RAD  1   2   2
M  END
