Coordinates from ORCA-job C6H6+TfO-+NH2N2+-scan
 OpenBabel10121810013D

 25 23  0  0  0  0  0  0  0  0999 V2000
   -1.6754   -2.7290   -0.5617 N   0  0  0  0  0  0  0  0  0  0  0  0
   -2.7750   -2.6434   -0.7915 N   0  0  0  0  0  0  0  0  0  0  0  0
   -0.5008   -2.8315   -0.1757 N   0  0  0  0  0  0  0  0  0  0  0  0
    0.1597   -2.8288   -0.9615 H   0  0  0  0  0  0  0  0  0  0  0  0
    0.1197   -2.7086    1.4076 H   0  0  0  0  0  0  0  0  0  0  0  0
    0.5062   -1.0096   -3.5858 C   0  0  0  0  0  0  0  0  0  0  0  0
    0.0259   -1.9878   -4.4566 C   0  0  0  0  0  0  0  0  0  0  0  0
    0.5012   -3.2965   -4.3682 C   0  0  0  0  0  0  0  0  0  0  0  0
    1.4589   -3.6274   -3.4094 C   0  0  0  0  0  0  0  0  0  0  0  0
    1.9424   -2.6497   -2.5362 C   0  0  0  0  0  0  0  0  0  0  0  0
    1.4625   -1.3400   -2.6249 C   0  0  0  0  0  0  0  0  0  0  0  0
    0.1387    0.0083   -3.6575 H   0  0  0  0  0  0  0  0  0  0  0  0
   -0.7164   -1.7306   -5.2043 H   0  0  0  0  0  0  0  0  0  0  0  0
    0.1285   -4.0555   -5.0474 H   0  0  0  0  0  0  0  0  0  0  0  0
    1.8329   -4.6432   -3.3429 H   0  0  0  0  0  0  0  0  0  0  0  0
    2.6807   -2.9018   -1.7835 H   0  0  0  0  0  0  0  0  0  0  0  0
    1.8353   -0.5835   -1.9433 H   0  0  0  0  0  0  0  0  0  0  0  0
    2.1048   -2.2329    2.1212 S   0  0  0  0  0  0  0  0  0  0  0  0
    2.8053   -2.5891    3.3291 O   0  0  0  0  0  0  0  0  0  0  0  0
    2.5645   -2.6234    0.7990 O   0  0  0  0  0  0  0  0  0  0  0  0
    0.5690   -2.6089    2.3016 O   0  0  0  0  0  0  0  0  0  0  0  0
    1.9768   -0.3586    2.0860 C   0  0  0  0  0  0  0  0  0  0  0  0
    1.1748    0.0101    1.0790 F   0  0  0  0  0  0  0  0  0  0  0  0
    1.4807    0.0967    3.2297 F   0  0  0  0  0  0  0  0  0  0  0  0
    3.1880    0.1547    1.8884 F   0  0  0  0  0  0  0  0  0  0  0  0
  1  3  2  0  0  0  0
  2  1  2  0  0  0  0
  4  3  1  0  0  0  0
  5 21  1  0  0  0  0
  6 11  2  0  0  0  0
  7  8  2  0  0  0  0
  7  6  1  0  0  0  0
  8  9  1  0  0  0  0
  9 15  1  0  0  0  0
  9 10  2  0  0  0  0
 10 16  1  0  0  0  0
 11 10  1  0  0  0  0
 11 17  1  0  0  0  0
 12  6  1  0  0  0  0
 13  7  1  0  0  0  0
 14  8  1  0  0  0  0
 18 21  1  0  0  0  0
 18 19  2  0  0  0  0
 20 18  2  0  0  0  0
 22 18  1  0  0  0  0
 22 24  1  0  0  0  0
 23 22  1  0  0  0  0
 25 22  1  0  0  0  0
M  RAD  1   2   2
M  END
