Coordinates from ORCA-job C6H6+TfO-+NH2N2+-scan
 OpenBabel10121810013D

 25 23  0  0  0  0  0  0  0  0999 V2000
   -1.7832   -2.6855   -0.3635 N   0  0  0  0  0  0  0  0  0  0  0  0
   -2.8892   -2.5953   -0.5575 N   0  0  0  0  0  0  0  0  0  0  0  0
   -0.5960   -2.7869   -0.0159 N   0  0  0  0  0  0  0  0  0  0  0  0
    0.0333   -2.8225   -0.8255 H   0  0  0  0  0  0  0  0  0  0  0  0
    0.0872   -2.6418    1.5436 H   0  0  0  0  0  0  0  0  0  0  0  0
    0.4312   -1.0612   -3.6440 C   0  0  0  0  0  0  0  0  0  0  0  0
    0.1417   -1.9936   -4.6394 C   0  0  0  0  0  0  0  0  0  0  0  0
    0.6921   -3.2743   -4.5789 C   0  0  0  0  0  0  0  0  0  0  0  0
    1.5316   -3.6232   -3.5216 C   0  0  0  0  0  0  0  0  0  0  0  0
    1.8259   -2.6910   -2.5236 C   0  0  0  0  0  0  0  0  0  0  0  0
    1.2736   -1.4086   -2.5865 C   0  0  0  0  0  0  0  0  0  0  0  0
    0.0081   -0.0638   -3.6950 H   0  0  0  0  0  0  0  0  0  0  0  0
   -0.5094   -1.7223   -5.4633 H   0  0  0  0  0  0  0  0  0  0  0  0
    0.4681   -3.9975   -5.3554 H   0  0  0  0  0  0  0  0  0  0  0  0
    1.9638   -4.6168   -3.4762 H   0  0  0  0  0  0  0  0  0  0  0  0
    2.4831   -2.9537   -1.7022 H   0  0  0  0  0  0  0  0  0  0  0  0
    1.5059   -0.6830   -1.8144 H   0  0  0  0  0  0  0  0  0  0  0  0
    2.1192   -2.2293    2.1506 S   0  0  0  0  0  0  0  0  0  0  0  0
    2.8652   -2.6035    3.3251 O   0  0  0  0  0  0  0  0  0  0  0  0
    2.4903   -2.6558    0.8116 O   0  0  0  0  0  0  0  0  0  0  0  0
    0.5787   -2.5325    2.4131 O   0  0  0  0  0  0  0  0  0  0  0  0
    2.0745   -0.3516    2.0963 C   0  0  0  0  0  0  0  0  0  0  0  0
    1.2451    0.0418    1.1209 F   0  0  0  0  0  0  0  0  0  0  0  0
    1.6508    0.1383    3.2545 F   0  0  0  0  0  0  0  0  0  0  0  0
    3.2971    0.1033    1.8385 F   0  0  0  0  0  0  0  0  0  0  0  0
  1  3  2  0  0  0  0
  2  1  2  0  0  0  0
  4  3  1  0  0  0  0
  5 21  1  0  0  0  0
  6 11  2  0  0  0  0
  7  8  2  0  0  0  0
  7  6  1  0  0  0  0
  8  9  1  0  0  0  0
  9 15  1  0  0  0  0
  9 10  2  0  0  0  0
 10 16  1  0  0  0  0
 11 10  1  0  0  0  0
 11 17  1  0  0  0  0
 12  6  1  0  0  0  0
 13  7  1  0  0  0  0
 14  8  1  0  0  0  0
 18 21  1  0  0  0  0
 18 19  2  0  0  0  0
 20 18  2  0  0  0  0
 22 18  1  0  0  0  0
 22 24  1  0  0  0  0
 23 22  1  0  0  0  0
 25 22  1  0  0  0  0
M  RAD  1   2   2
M  END
