Coordinates from ORCA-job C6H6+TfO-+NH2N2+-scan
 OpenBabel10121810013D

 25 23  0  0  0  0  0  0  0  0999 V2000
   -1.3509   -1.4046    0.6026 N   0  0  0  0  0  0  0  0  0  0  0  0
   -2.1875   -0.8941    0.0478 N   0  0  0  0  0  0  0  0  0  0  0  0
   -0.3732   -1.8312    1.2386 N   0  0  0  0  0  0  0  0  0  0  0  0
   -0.2844   -2.8477    1.1784 H   0  0  0  0  0  0  0  0  0  0  0  0
    0.4057   -1.3482    2.7301 H   0  0  0  0  0  0  0  0  0  0  0  0
   -0.5727   -2.7430   -5.2012 C   0  0  0  0  0  0  0  0  0  0  0  0
    0.6596   -3.3614   -4.9927 C   0  0  0  0  0  0  0  0  0  0  0  0
    1.7903   -2.5907   -4.7248 C   0  0  0  0  0  0  0  0  0  0  0  0
    1.6879   -1.2013   -4.6637 C   0  0  0  0  0  0  0  0  0  0  0  0
    0.4558   -0.5829   -4.8723 C   0  0  0  0  0  0  0  0  0  0  0  0
   -0.6747   -1.3537   -5.1410 C   0  0  0  0  0  0  0  0  0  0  0  0
   -1.4515   -3.3427   -5.4131 H   0  0  0  0  0  0  0  0  0  0  0  0
    0.7394   -4.4421   -5.0414 H   0  0  0  0  0  0  0  0  0  0  0  0
    2.7491   -3.0716   -4.5637 H   0  0  0  0  0  0  0  0  0  0  0  0
    2.5677   -0.6016   -4.4561 H   0  0  0  0  0  0  0  0  0  0  0  0
    0.3771    0.4980   -4.8276 H   0  0  0  0  0  0  0  0  0  0  0  0
   -1.6329   -0.8725   -5.3051 H   0  0  0  0  0  0  0  0  0  0  0  0
    1.6639   -2.7416    3.7807 S   0  0  0  0  0  0  0  0  0  0  0  0
    1.8399   -2.9766    5.1908 O   0  0  0  0  0  0  0  0  0  0  0  0
    1.0883   -3.7331    2.8840 O   0  0  0  0  0  0  0  0  0  0  0  0
    0.9184   -1.3421    3.5881 O   0  0  0  0  0  0  0  0  0  0  0  0
    3.3474   -2.3041    3.0684 C   0  0  0  0  0  0  0  0  0  0  0  0
    3.1973   -1.8930    1.8078 F   0  0  0  0  0  0  0  0  0  0  0  0
    3.9119   -1.3403    3.7852 F   0  0  0  0  0  0  0  0  0  0  0  0
    4.1171   -3.3882    3.0912 F   0  0  0  0  0  0  0  0  0  0  0  0
  1  3  2  0  0  0  0
  2  1  2  0  0  0  0
  4  3  1  0  0  0  0
  5 21  1  0  0  0  0
  6 11  2  0  0  0  0
  6  7  1  0  0  0  0
  7  8  2  0  0  0  0
  8  9  1  0  0  0  0
  8 14  1  0  0  0  0
  9 15  1  0  0  0  0
 10 16  1  0  0  0  0
 10  9  2  0  0  0  0
 11 10  1  0  0  0  0
 12  6  1  0  0  0  0
 13  7  1  0  0  0  0
 17 11  1  0  0  0  0
 18 19  2  0  0  0  0
 20 18  2  0  0  0  0
 21 18  1  0  0  0  0
 22 25  1  0  0  0  0
 22 18  1  0  0  0  0
 22 24  1  0  0  0  0
 23 22  1  0  0  0  0
M  RAD  1   2   2
M  END
