Coordinates from ORCA-job C6H6+TfO-+NH2N2+-scan
 OpenBabel10121810013D

 25 23  0  0  0  0  0  0  0  0999 V2000
   -1.6879   -2.7263   -0.5383 N   0  0  0  0  0  0  0  0  0  0  0  0
   -2.7886   -2.6422   -0.7635 N   0  0  0  0  0  0  0  0  0  0  0  0
   -0.5114   -2.8266   -0.1573 N   0  0  0  0  0  0  0  0  0  0  0  0
    0.1451   -2.8269   -0.9462 H   0  0  0  0  0  0  0  0  0  0  0  0
    0.1161   -2.7004    1.4230 H   0  0  0  0  0  0  0  0  0  0  0  0
    0.4973   -1.0141   -3.5985 C   0  0  0  0  0  0  0  0  0  0  0  0
    0.0386   -1.9907   -4.4825 C   0  0  0  0  0  0  0  0  0  0  0  0
    0.5216   -3.2965   -4.3936 C   0  0  0  0  0  0  0  0  0  0  0  0
    1.4654   -3.6262   -3.4208 C   0  0  0  0  0  0  0  0  0  0  0  0
    1.9278   -2.6502   -2.5345 C   0  0  0  0  0  0  0  0  0  0  0  0
    1.4404   -1.3432   -2.6241 C   0  0  0  0  0  0  0  0  0  0  0  0
    0.1241    0.0016   -3.6707 H   0  0  0  0  0  0  0  0  0  0  0  0
   -0.6930   -1.7344   -5.2410 H   0  0  0  0  0  0  0  0  0  0  0  0
    0.1657   -4.0541   -5.0831 H   0  0  0  0  0  0  0  0  0  0  0  0
    1.8455   -4.6398   -3.3539 H   0  0  0  0  0  0  0  0  0  0  0  0
    2.6572   -2.9005   -1.7726 H   0  0  0  0  0  0  0  0  0  0  0  0
    1.7978   -0.5877   -1.9332 H   0  0  0  0  0  0  0  0  0  0  0  0
    2.1066   -2.2337    2.1267 S   0  0  0  0  0  0  0  0  0  0  0  0
    2.8112   -2.5944    3.3309 O   0  0  0  0  0  0  0  0  0  0  0  0
    2.5567   -2.6274    0.8021 O   0  0  0  0  0  0  0  0  0  0  0  0
    0.5693   -2.5996    2.3148 O   0  0  0  0  0  0  0  0  0  0  0  0
    1.9905   -0.3587    2.0920 C   0  0  0  0  0  0  0  0  0  0  0  0
    1.1865    0.0151    1.0884 F   0  0  0  0  0  0  0  0  0  0  0  0
    1.5022    0.0998    3.2378 F   0  0  0  0  0  0  0  0  0  0  0  0
    3.2041    0.1468    1.8892 F   0  0  0  0  0  0  0  0  0  0  0  0
  1  3  2  0  0  0  0
  2  1  2  0  0  0  0
  4  3  1  0  0  0  0
  5 21  1  0  0  0  0
  6 11  2  0  0  0  0
  7  8  2  0  0  0  0
  7  6  1  0  0  0  0
  8  9  1  0  0  0  0
  9 15  1  0  0  0  0
  9 10  2  0  0  0  0
 10 16  1  0  0  0  0
 11 10  1  0  0  0  0
 11 17  1  0  0  0  0
 12  6  1  0  0  0  0
 13  7  1  0  0  0  0
 14  8  1  0  0  0  0
 18 21  1  0  0  0  0
 18 19  2  0  0  0  0
 20 18  2  0  0  0  0
 22 18  1  0  0  0  0
 22 24  1  0  0  0  0
 23 22  1  0  0  0  0
 25 22  1  0  0  0  0
M  RAD  1   2   2
M  END
