Coordinates from ORCA-job C6H6+TfO-+NH2N2+-scan
 OpenBabel10121810013D

 25 23  0  0  0  0  0  0  0  0999 V2000
   -1.6497   -2.7496   -0.6180 N   0  0  0  0  0  0  0  0  0  0  0  0
   -2.7471   -2.6673   -0.8593 N   0  0  0  0  0  0  0  0  0  0  0  0
   -0.4793   -2.8498   -0.2194 N   0  0  0  0  0  0  0  0  0  0  0  0
    0.1909   -2.8375   -0.9965 H   0  0  0  0  0  0  0  0  0  0  0  0
    0.1242   -2.7271    1.3699 H   0  0  0  0  0  0  0  0  0  0  0  0
    0.5345   -0.9949   -3.5631 C   0  0  0  0  0  0  0  0  0  0  0  0
   -0.0060   -1.9796   -4.3905 C   0  0  0  0  0  0  0  0  0  0  0  0
    0.4461   -3.2961   -4.2973 C   0  0  0  0  0  0  0  0  0  0  0  0
    1.4413   -3.6283   -3.3776 C   0  0  0  0  0  0  0  0  0  0  0  0
    1.9845   -2.6442   -2.5477 C   0  0  0  0  0  0  0  0  0  0  0  0
    1.5273   -1.3268   -2.6407 C   0  0  0  0  0  0  0  0  0  0  0  0
    0.1843    0.0288   -3.6381 H   0  0  0  0  0  0  0  0  0  0  0  0
   -0.7773   -1.7213   -5.1079 H   0  0  0  0  0  0  0  0  0  0  0  0
    0.0267   -4.0602   -4.9426 H   0  0  0  0  0  0  0  0  0  0  0  0
    1.7971   -4.6504   -3.3073 H   0  0  0  0  0  0  0  0  0  0  0  0
    2.7496   -2.8980   -1.8233 H   0  0  0  0  0  0  0  0  0  0  0  0
    1.9452   -0.5657   -1.9913 H   0  0  0  0  0  0  0  0  0  0  0  0
    2.0957   -2.2302    2.1071 S   0  0  0  0  0  0  0  0  0  0  0  0
    2.7871   -2.5827    3.3214 O   0  0  0  0  0  0  0  0  0  0  0  0
    2.5752   -2.6092    0.7886 O   0  0  0  0  0  0  0  0  0  0  0  0
    0.5629   -2.6261    2.2690 O   0  0  0  0  0  0  0  0  0  0  0  0
    1.9444   -0.3576    2.0780 C   0  0  0  0  0  0  0  0  0  0  0  0
    1.1487    0.0052    1.0642 F   0  0  0  0  0  0  0  0  0  0  0  0
    1.4310    0.0868    3.2184 F   0  0  0  0  0  0  0  0  0  0  0  0
    3.1513    0.1716    1.8952 F   0  0  0  0  0  0  0  0  0  0  0  0
  1  3  2  0  0  0  0
  2  1  2  0  0  0  0
  4  3  1  0  0  0  0
  5 21  1  0  0  0  0
  6 11  2  0  0  0  0
  7  8  2  0  0  0  0
  7  6  1  0  0  0  0
  8  9  1  0  0  0  0
  9 15  1  0  0  0  0
  9 10  2  0  0  0  0
 10 16  1  0  0  0  0
 11 10  1  0  0  0  0
 11 17  1  0  0  0  0
 12  6  1  0  0  0  0
 13  7  1  0  0  0  0
 14  8  1  0  0  0  0
 18 21  1  0  0  0  0
 18 19  2  0  0  0  0
 20 18  2  0  0  0  0
 22 18  1  0  0  0  0
 22 24  1  0  0  0  0
 23 22  1  0  0  0  0
 25 22  1  0  0  0  0
M  RAD  1   2   2
M  END
