Coordinates from ORCA-job C6H6+TfO-+NH2N2+-scan
 OpenBabel10121810013D

 25 23  0  0  0  0  0  0  0  0999 V2000
   -2.0854   -2.6381    0.0361 N   0  0  0  0  0  0  0  0  0  0  0  0
   -3.2009   -2.5852   -0.1092 N   0  0  0  0  0  0  0  0  0  0  0  0
   -0.8806   -2.6749    0.3354 N   0  0  0  0  0  0  0  0  0  0  0  0
   -0.2907   -2.8446   -0.4837 H   0  0  0  0  0  0  0  0  0  0  0  0
   -0.0708   -2.4263    1.8393 H   0  0  0  0  0  0  0  0  0  0  0  0
    0.3342   -1.1984   -3.6406 C   0  0  0  0  0  0  0  0  0  0  0  0
    0.3470   -1.9550   -4.8114 C   0  0  0  0  0  0  0  0  0  0  0  0
    1.0772   -3.1426   -4.8663 C   0  0  0  0  0  0  0  0  0  0  0  0
    1.7911   -3.5754   -3.7497 C   0  0  0  0  0  0  0  0  0  0  0  0
    1.7820   -2.8193   -2.5763 C   0  0  0  0  0  0  0  0  0  0  0  0
    1.0535   -1.6289   -2.5241 C   0  0  0  0  0  0  0  0  0  0  0  0
   -0.2261   -0.2703   -3.6003 H   0  0  0  0  0  0  0  0  0  0  0  0
   -0.2068   -1.6184   -5.6811 H   0  0  0  0  0  0  0  0  0  0  0  0
    1.0894   -3.7290   -5.7788 H   0  0  0  0  0  0  0  0  0  0  0  0
    2.3606   -4.4974   -3.7938 H   0  0  0  0  0  0  0  0  0  0  0  0
    2.3436   -3.1428   -1.7072 H   0  0  0  0  0  0  0  0  0  0  0  0
    1.0592   -1.0325   -1.6177 H   0  0  0  0  0  0  0  0  0  0  0  0
    2.0500   -2.2090    2.1336 S   0  0  0  0  0  0  0  0  0  0  0  0
    2.9107   -2.6335    3.2080 O   0  0  0  0  0  0  0  0  0  0  0  0
    2.1558   -2.7351    0.7822 O   0  0  0  0  0  0  0  0  0  0  0  0
    0.5367   -2.2957    2.6260 O   0  0  0  0  0  0  0  0  0  0  0  0
    2.2329   -0.3450    1.9788 C   0  0  0  0  0  0  0  0  0  0  0  0
    1.3264    0.1162    1.1084 F   0  0  0  0  0  0  0  0  0  0  0  0
    2.0473    0.2390    3.1556 F   0  0  0  0  0  0  0  0  0  0  0  0
    3.4523   -0.0681    1.5281 F   0  0  0  0  0  0  0  0  0  0  0  0
  1  3  2  0  0  0  0
  2  1  2  0  0  0  0
  4  3  1  0  0  0  0
  5 21  1  0  0  0  0
  6 12  1  0  0  0  0
  6 11  2  0  0  0  0
  7  6  1  0  0  0  0
  8  7  2  0  0  0  0
  8  9  1  0  0  0  0
  9 10  2  0  0  0  0
 10 11  1  0  0  0  0
 10 16  1  0  0  0  0
 11 17  1  0  0  0  0
 13  7  1  0  0  0  0
 14  8  1  0  0  0  0
 15  9  1  0  0  0  0
 18 21  1  0  0  0  0
 18 19  2  0  0  0  0
 20 18  2  0  0  0  0
 22 18  1  0  0  0  0
 22 24  1  0  0  0  0
 23 22  1  0  0  0  0
 25 22  1  0  0  0  0
M  RAD  1   2   2
M  END
