Coordinates from ORCA-job C6H6+TfO-+NH2N2+-scan
 OpenBabel10121810013D

 25 23  0  0  0  0  0  0  0  0999 V2000
   -1.8504   -2.6356   -0.2398 N   0  0  0  0  0  0  0  0  0  0  0  0
   -2.9581   -2.5287   -0.4132 N   0  0  0  0  0  0  0  0  0  0  0  0
   -0.6585   -2.7531    0.0870 N   0  0  0  0  0  0  0  0  0  0  0  0
   -0.0470   -2.8190   -0.7333 H   0  0  0  0  0  0  0  0  0  0  0  0
    0.0660   -2.6132    1.6324 H   0  0  0  0  0  0  0  0  0  0  0  0
    0.4018   -1.1018   -3.6568 C   0  0  0  0  0  0  0  0  0  0  0  0
    0.2050   -1.9891   -4.7139 C   0  0  0  0  0  0  0  0  0  0  0  0
    0.8006   -3.2506   -4.6869 C   0  0  0  0  0  0  0  0  0  0  0  0
    1.5902   -3.6264   -3.6012 C   0  0  0  0  0  0  0  0  0  0  0  0
    1.7918   -2.7392   -2.5414 C   0  0  0  0  0  0  0  0  0  0  0  0
    1.1967   -1.4752   -2.5714 C   0  0  0  0  0  0  0  0  0  0  0  0
   -0.0544   -0.1180   -3.6818 H   0  0  0  0  0  0  0  0  0  0  0  0
   -0.4079   -1.6973   -5.5598 H   0  0  0  0  0  0  0  0  0  0  0  0
    0.6495   -3.9385   -5.5117 H   0  0  0  0  0  0  0  0  0  0  0  0
    2.0562   -4.6054   -3.5817 H   0  0  0  0  0  0  0  0  0  0  0  0
    2.4136   -3.0199   -1.6986 H   0  0  0  0  0  0  0  0  0  0  0  0
    1.3639   -0.7809   -1.7549 H   0  0  0  0  0  0  0  0  0  0  0  0
    2.1229   -2.2209    2.1541 S   0  0  0  0  0  0  0  0  0  0  0  0
    2.9127   -2.5980    3.2985 O   0  0  0  0  0  0  0  0  0  0  0  0
    2.4318   -2.6598    0.8033 O   0  0  0  0  0  0  0  0  0  0  0  0
    0.5906   -2.5043    2.4816 O   0  0  0  0  0  0  0  0  0  0  0  0
    2.0977   -0.3431    2.0905 C   0  0  0  0  0  0  0  0  0  0  0  0
    1.2297    0.0544    1.1510 F   0  0  0  0  0  0  0  0  0  0  0  0
    1.7320    0.1578    3.2636 F   0  0  0  0  0  0  0  0  0  0  0  0
    3.3126    0.0957    1.7755 F   0  0  0  0  0  0  0  0  0  0  0  0
  1  3  2  0  0  0  0
  2  1  2  0  0  0  0
  4  3  1  0  0  0  0
  5 21  1  0  0  0  0
  6 11  2  0  0  0  0
  7  8  2  0  0  0  0
  7  6  1  0  0  0  0
  8  9  1  0  0  0  0
  9 15  1  0  0  0  0
  9 10  2  0  0  0  0
 10 16  1  0  0  0  0
 11 10  1  0  0  0  0
 11 17  1  0  0  0  0
 12  6  1  0  0  0  0
 13  7  1  0  0  0  0
 14  8  1  0  0  0  0
 18 21  1  0  0  0  0
 18 19  2  0  0  0  0
 20 18  2  0  0  0  0
 22 18  1  0  0  0  0
 22 24  1  0  0  0  0
 23 22  1  0  0  0  0
 25 22  1  0  0  0  0
M  RAD  1   2   2
M  END
