Coordinates from ORCA-job C6H6+TfO-+NH2N2+-scan
 OpenBabel10121810013D

 25 23  0  0  0  0  0  0  0  0999 V2000
   -1.6681   -1.1895   -0.7426 N   0  0  0  0  0  0  0  0  0  0  0  0
   -2.5844   -0.5429   -0.8599 N   0  0  0  0  0  0  0  0  0  0  0  0
   -0.6896   -1.9109   -0.4994 N   0  0  0  0  0  0  0  0  0  0  0  0
   -0.1191   -2.0818   -1.3363 H   0  0  0  0  0  0  0  0  0  0  0  0
   -0.2989   -2.4685    1.0428 H   0  0  0  0  0  0  0  0  0  0  0  0
    0.2036   -1.9787   -4.4829 C   0  0  0  0  0  0  0  0  0  0  0  0
    0.3549   -2.9812   -3.5253 C   0  0  0  0  0  0  0  0  0  0  0  0
    1.2427   -2.8042   -2.4586 C   0  0  0  0  0  0  0  0  0  0  0  0
    2.0039   -1.6334   -2.3766 C   0  0  0  0  0  0  0  0  0  0  0  0
    1.8536   -0.6337   -3.3361 C   0  0  0  0  0  0  0  0  0  0  0  0
    0.9522   -0.8056   -4.3869 C   0  0  0  0  0  0  0  0  0  0  0  0
   -0.4890   -2.1146   -5.3061 H   0  0  0  0  0  0  0  0  0  0  0  0
   -0.2194   -3.8981   -3.6022 H   0  0  0  0  0  0  0  0  0  0  0  0
    1.3863   -3.5880   -1.7233 H   0  0  0  0  0  0  0  0  0  0  0  0
    2.6994   -1.5036   -1.5552 H   0  0  0  0  0  0  0  0  0  0  0  0
    2.4405    0.2756   -3.2684 H   0  0  0  0  0  0  0  0  0  0  0  0
    0.8361   -0.0274   -5.1332 H   0  0  0  0  0  0  0  0  0  0  0  0
    1.3501   -3.5180    1.9834 S   0  0  0  0  0  0  0  0  0  0  0  0
    1.4053   -4.3899    3.1297 O   0  0  0  0  0  0  0  0  0  0  0  0
    1.6979   -3.9582    0.6428 O   0  0  0  0  0  0  0  0  0  0  0  0
   -0.0602   -2.7871    1.9705 O   0  0  0  0  0  0  0  0  0  0  0  0
    2.4703   -2.0545    2.3474 C   0  0  0  0  0  0  0  0  0  0  0  0
    2.3183   -1.1326    1.3876 F   0  0  0  0  0  0  0  0  0  0  0  0
    2.1679   -1.5159    3.5223 F   0  0  0  0  0  0  0  0  0  0  0  0
    3.7348   -2.4675    2.3577 F   0  0  0  0  0  0  0  0  0  0  0  0
  1  3  2  0  0  0  0
  2  1  2  0  0  0  0
  4  3  1  0  0  0  0
  5 21  1  0  0  0  0
  6 11  2  0  0  0  0
  6  7  1  0  0  0  0
  7  8  2  0  0  0  0
  8  9  1  0  0  0  0
  8 14  1  0  0  0  0
  9 15  1  0  0  0  0
 10 16  1  0  0  0  0
 10  9  2  0  0  0  0
 11 10  1  0  0  0  0
 12  6  1  0  0  0  0
 13  7  1  0  0  0  0
 17 11  1  0  0  0  0
 18 22  1  0  0  0  0
 18 19  2  0  0  0  0
 20 18  2  0  0  0  0
 21 18  1  0  0  0  0
 22 25  1  0  0  0  0
 22 24  1  0  0  0  0
 23 22  1  0  0  0  0
M  RAD  1   2   2
M  END
