Coordinates from ORCA-job C6H6+TfO-+NH2N2+-scan
 OpenBabel10121810013D

 25 23  0  0  0  0  0  0  0  0999 V2000
   -1.2329   -1.4107    0.7213 N   0  0  0  0  0  0  0  0  0  0  0  0
   -2.0282   -0.9007    0.1085 N   0  0  0  0  0  0  0  0  0  0  0  0
   -0.3009   -1.8419    1.4192 N   0  0  0  0  0  0  0  0  0  0  0  0
   -0.1765   -2.8518    1.3236 H   0  0  0  0  0  0  0  0  0  0  0  0
    0.3978   -1.3832    2.9575 H   0  0  0  0  0  0  0  0  0  0  0  0
   -0.6357   -2.7281   -5.3809 C   0  0  0  0  0  0  0  0  0  0  0  0
    0.6016   -3.3633   -5.2812 C   0  0  0  0  0  0  0  0  0  0  0  0
    1.7577   -2.6103   -5.0791 C   0  0  0  0  0  0  0  0  0  0  0  0
    1.6761   -1.2221   -4.9762 C   0  0  0  0  0  0  0  0  0  0  0  0
    0.4388   -0.5870   -5.0759 C   0  0  0  0  0  0  0  0  0  0  0  0
   -0.7171   -1.3400   -5.2781 C   0  0  0  0  0  0  0  0  0  0  0  0
   -1.5347   -3.3137   -5.5408 H   0  0  0  0  0  0  0  0  0  0  0  0
    0.6652   -4.4431   -5.3632 H   0  0  0  0  0  0  0  0  0  0  0  0
    2.7204   -3.1043   -5.0032 H   0  0  0  0  0  0  0  0  0  0  0  0
    2.5756   -0.6360   -4.8206 H   0  0  0  0  0  0  0  0  0  0  0  0
    0.3756    0.4931   -4.9979 H   0  0  0  0  0  0  0  0  0  0  0  0
   -1.6794   -0.8457   -5.3572 H   0  0  0  0  0  0  0  0  0  0  0  0
    1.6591   -2.7703    4.0126 S   0  0  0  0  0  0  0  0  0  0  0  0
    1.7854   -3.0483    5.4202 O   0  0  0  0  0  0  0  0  0  0  0  0
    1.1551   -3.7483    3.0598 O   0  0  0  0  0  0  0  0  0  0  0  0
    0.8746   -1.3901    3.8358 O   0  0  0  0  0  0  0  0  0  0  0  0
    3.3544   -2.2530    3.3869 C   0  0  0  0  0  0  0  0  0  0  0  0
    3.2420   -1.8028    2.1357 F   0  0  0  0  0  0  0  0  0  0  0  0
    3.8558   -1.2971    4.1590 F   0  0  0  0  0  0  0  0  0  0  0  0
    4.1591   -3.3114    3.4053 F   0  0  0  0  0  0  0  0  0  0  0  0
  1  3  2  0  0  0  0
  2  1  2  0  0  0  0
  4  3  1  0  0  0  0
  5 21  1  0  0  0  0
  6  7  2  0  0  0  0
  6 11  1  0  0  0  0
  7  8  1  0  0  0  0
  8 14  1  0  0  0  0
  8  9  2  0  0  0  0
  9 15  1  0  0  0  0
 10 16  1  0  0  0  0
 10  9  1  0  0  0  0
 11 10  2  0  0  0  0
 12  6  1  0  0  0  0
 13  7  1  0  0  0  0
 17 11  1  0  0  0  0
 18 19  2  0  0  0  0
 20 18  2  0  0  0  0
 21 18  1  0  0  0  0
 22 25  1  0  0  0  0
 22 18  1  0  0  0  0
 22 24  1  0  0  0  0
 23 22  1  0  0  0  0
M  RAD  1   2   2
M  END
