Coordinates from ORCA-job C6H6+TfO-+NH2N2+-scan
 OpenBabel10121810013D

 25 23  0  0  0  0  0  0  0  0999 V2000
   -1.2852   -0.9920   -0.6107 N   0  0  0  0  0  0  0  0  0  0  0  0
   -2.3178   -0.5449   -0.5432 N   0  0  0  0  0  0  0  0  0  0  0  0
   -0.2093   -1.6181   -0.6400 N   0  0  0  0  0  0  0  0  0  0  0  0
    0.5011   -1.1155   -1.1728 H   0  0  0  0  0  0  0  0  0  0  0  0
    0.2441   -2.7150    0.5961 H   0  0  0  0  0  0  0  0  0  0  0  0
   -0.1105   -1.8600   -4.5172 C   0  0  0  0  0  0  0  0  0  0  0  0
   -0.2490   -2.7966   -3.4943 C   0  0  0  0  0  0  0  0  0  0  0  0
    0.7636   -2.9529   -2.5466 C   0  0  0  0  0  0  0  0  0  0  0  0
    1.9478   -2.2210   -2.6674 C   0  0  0  0  0  0  0  0  0  0  0  0
    2.0818   -1.2792   -3.6900 C   0  0  0  0  0  0  0  0  0  0  0  0
    1.0514   -1.0929   -4.6113 C   0  0  0  0  0  0  0  0  0  0  0  0
   -0.9039   -1.7325   -5.2458 H   0  0  0  0  0  0  0  0  0  0  0  0
   -1.1514   -3.3948   -3.4257 H   0  0  0  0  0  0  0  0  0  0  0  0
    0.6662   -3.6993   -1.7696 H   0  0  0  0  0  0  0  0  0  0  0  0
    2.7474   -2.3722   -1.9508 H   0  0  0  0  0  0  0  0  0  0  0  0
    2.9963   -0.7021   -3.7749 H   0  0  0  0  0  0  0  0  0  0  0  0
    1.1587   -0.3644   -5.4074 H   0  0  0  0  0  0  0  0  0  0  0  0
    2.0415   -3.1888    1.7114 S   0  0  0  0  0  0  0  0  0  0  0  0
    2.5010   -4.4123    2.3190 O   0  0  0  0  0  0  0  0  0  0  0  0
    2.7613   -2.5184    0.6427 O   0  0  0  0  0  0  0  0  0  0  0  0
    0.5129   -3.3818    1.2981 O   0  0  0  0  0  0  0  0  0  0  0  0
    1.8436   -1.9195    3.0843 C   0  0  0  0  0  0  0  0  0  0  0  0
    1.2018   -0.8494    2.6031 F   0  0  0  0  0  0  0  0  0  0  0  0
    1.1476   -2.4330    4.0912 F   0  0  0  0  0  0  0  0  0  0  0  0
    3.0475   -1.5537    3.5129 F   0  0  0  0  0  0  0  0  0  0  0  0
  1  2  2  0  0  0  0
  3  1  2  0  0  0  0
  4  3  1  0  0  0  0
  5 21  1  0  0  0  0
  6  7  1  0  0  0  0
  7 13  1  0  0  0  0
  7  8  2  0  0  0  0
  8 14  1  0  0  0  0
  9  8  1  0  0  0  0
  9 15  1  0  0  0  0
 10  9  2  0  0  0  0
 11  6  2  0  0  0  0
 11 10  1  0  0  0  0
 12  6  1  0  0  0  0
 16 10  1  0  0  0  0
 17 11  1  0  0  0  0
 18 19  2  0  0  0  0
 18 22  1  0  0  0  0
 20 18  2  0  0  0  0
 21 18  1  0  0  0  0
 22 25  1  0  0  0  0
 22 24  1  0  0  0  0
 23 22  1  0  0  0  0
M  RAD  1   2   2
M  END
