Coordinates from ORCA-job C6H6+TfO-+NH2N2+-scan
 OpenBabel10121810013D

 25 23  0  0  0  0  0  0  0  0999 V2000
   -1.2369   -1.4099    0.7192 N   0  0  0  0  0  0  0  0  0  0  0  0
   -2.0330   -0.8996    0.1078 N   0  0  0  0  0  0  0  0  0  0  0  0
   -0.3040   -1.8415    1.4158 N   0  0  0  0  0  0  0  0  0  0  0  0
   -0.1798   -2.8513    1.3197 H   0  0  0  0  0  0  0  0  0  0  0  0
    0.3969   -1.3831    2.9532 H   0  0  0  0  0  0  0  0  0  0  0  0
   -0.6342   -2.7283   -5.3762 C   0  0  0  0  0  0  0  0  0  0  0  0
    0.6029   -3.3636   -5.2741 C   0  0  0  0  0  0  0  0  0  0  0  0
    1.7587   -2.6107   -5.0706 C   0  0  0  0  0  0  0  0  0  0  0  0
    1.6772   -1.2224   -4.9686 C   0  0  0  0  0  0  0  0  0  0  0  0
    0.4401   -0.5872   -5.0706 C   0  0  0  0  0  0  0  0  0  0  0  0
   -0.7156   -1.3401   -5.2743 C   0  0  0  0  0  0  0  0  0  0  0  0
   -1.5330   -3.3138   -5.5372 H   0  0  0  0  0  0  0  0  0  0  0  0
    0.6664   -4.4435   -5.3554 H   0  0  0  0  0  0  0  0  0  0  0  0
    2.7212   -3.1047   -4.9928 H   0  0  0  0  0  0  0  0  0  0  0  0
    2.5764   -0.6363   -4.8118 H   0  0  0  0  0  0  0  0  0  0  0  0
    0.3770    0.4930   -4.9933 H   0  0  0  0  0  0  0  0  0  0  0  0
   -1.6777   -0.8457   -5.3553 H   0  0  0  0  0  0  0  0  0  0  0  0
    1.6596   -2.7704    4.0062 S   0  0  0  0  0  0  0  0  0  0  0  0
    1.7878   -3.0487    5.4136 O   0  0  0  0  0  0  0  0  0  0  0  0
    1.1544   -3.7482    3.0539 O   0  0  0  0  0  0  0  0  0  0  0  0
    0.8749   -1.3902    3.8309 O   0  0  0  0  0  0  0  0  0  0  0  0
    3.3541   -2.2530    3.3784 C   0  0  0  0  0  0  0  0  0  0  0  0
    3.2400   -1.8025    2.1275 F   0  0  0  0  0  0  0  0  0  0  0  0
    3.8565   -1.2973    4.1500 F   0  0  0  0  0  0  0  0  0  0  0  0
    4.1588   -3.3114    3.3954 F   0  0  0  0  0  0  0  0  0  0  0  0
  1  3  2  0  0  0  0
  2  1  2  0  0  0  0
  4  3  1  0  0  0  0
  5 21  1  0  0  0  0
  6 11  2  0  0  0  0
  6  7  1  0  0  0  0
  7  8  2  0  0  0  0
  8 14  1  0  0  0  0
  8  9  1  0  0  0  0
  9 15  1  0  0  0  0
 10 16  1  0  0  0  0
 10  9  2  0  0  0  0
 11 10  1  0  0  0  0
 12  6  1  0  0  0  0
 13  7  1  0  0  0  0
 17 11  1  0  0  0  0
 18 19  2  0  0  0  0
 20 18  2  0  0  0  0
 21 18  1  0  0  0  0
 22 25  1  0  0  0  0
 22 18  1  0  0  0  0
 22 24  1  0  0  0  0
 23 22  1  0  0  0  0
M  RAD  1   2   2
M  END
