Coordinates from ORCA-job C6H6+TfO-+NH2N2+-scan
 OpenBabel10121810013D

 25 23  0  0  0  0  0  0  0  0999 V2000
   -1.6848   -1.1737   -0.7195 N   0  0  0  0  0  0  0  0  0  0  0  0
   -2.5954   -0.5195   -0.8364 N   0  0  0  0  0  0  0  0  0  0  0  0
   -0.7131   -1.9034   -0.4731 N   0  0  0  0  0  0  0  0  0  0  0  0
   -0.1423   -2.0792   -1.3093 H   0  0  0  0  0  0  0  0  0  0  0  0
   -0.3133   -2.4728    1.0669 H   0  0  0  0  0  0  0  0  0  0  0  0
    0.2100   -1.9760   -4.4915 C   0  0  0  0  0  0  0  0  0  0  0  0
    0.3647   -2.9897   -3.5462 C   0  0  0  0  0  0  0  0  0  0  0  0
    1.2589   -2.8266   -2.4831 C   0  0  0  0  0  0  0  0  0  0  0  0
    2.0163   -1.6547   -2.3865 C   0  0  0  0  0  0  0  0  0  0  0  0
    1.8625   -0.6437   -3.3338 C   0  0  0  0  0  0  0  0  0  0  0  0
    0.9585   -0.8039   -4.3842 C   0  0  0  0  0  0  0  0  0  0  0  0
   -0.4859   -2.1021   -5.3136 H   0  0  0  0  0  0  0  0  0  0  0  0
   -0.2098   -3.9057   -3.6319 H   0  0  0  0  0  0  0  0  0  0  0  0
    1.3999   -3.6165   -1.7537 H   0  0  0  0  0  0  0  0  0  0  0  0
    2.7139   -1.5341   -1.5656 H   0  0  0  0  0  0  0  0  0  0  0  0
    2.4483    0.2656   -3.2566 H   0  0  0  0  0  0  0  0  0  0  0  0
    0.8399   -0.0170   -5.1211 H   0  0  0  0  0  0  0  0  0  0  0  0
    1.3544   -3.5147    1.9827 S   0  0  0  0  0  0  0  0  0  0  0  0
    1.4297   -4.3918    3.1238 O   0  0  0  0  0  0  0  0  0  0  0  0
    1.6944   -3.9439    0.6366 O   0  0  0  0  0  0  0  0  0  0  0  0
   -0.0647   -2.7995    1.9882 O   0  0  0  0  0  0  0  0  0  0  0  0
    2.4616   -2.0405    2.3440 C   0  0  0  0  0  0  0  0  0  0  0  0
    2.2889   -1.1148    1.3915 F   0  0  0  0  0  0  0  0  0  0  0  0
    2.1656   -1.5127    3.5253 F   0  0  0  0  0  0  0  0  0  0  0  0
    3.7307   -2.4392    2.3383 F   0  0  0  0  0  0  0  0  0  0  0  0
  1  3  2  0  0  0  0
  2  1  2  0  0  0  0
  4  3  1  0  0  0  0
  5 21  1  0  0  0  0
  6 11  2  0  0  0  0
  6  7  1  0  0  0  0
  7  8  2  0  0  0  0
  8  9  1  0  0  0  0
  8 14  1  0  0  0  0
  9 15  1  0  0  0  0
 10 16  1  0  0  0  0
 10  9  2  0  0  0  0
 11 10  1  0  0  0  0
 12  6  1  0  0  0  0
 13  7  1  0  0  0  0
 17 11  1  0  0  0  0
 18 21  1  0  0  0  0
 18 22  1  0  0  0  0
 18 19  2  0  0  0  0
 20 18  2  0  0  0  0
 22 24  1  0  0  0  0
 23 22  1  0  0  0  0
 25 22  1  0  0  0  0
M  RAD  1   2   2
M  END
