Coordinates from ORCA-job C6H6+TfO-+NH2N2+-scan
 OpenBabel10121810013D

 25 23  0  0  0  0  0  0  0  0999 V2000
   -1.6451   -2.7511   -0.6275 N   0  0  0  0  0  0  0  0  0  0  0  0
   -2.7422   -2.6689   -0.8705 N   0  0  0  0  0  0  0  0  0  0  0  0
   -0.4754   -2.8515   -0.2269 N   0  0  0  0  0  0  0  0  0  0  0  0
    0.1963   -2.8381   -1.0028 H   0  0  0  0  0  0  0  0  0  0  0  0
    0.1252   -2.7294    1.3635 H   0  0  0  0  0  0  0  0  0  0  0  0
    0.5371   -0.9932   -3.5577 C   0  0  0  0  0  0  0  0  0  0  0  0
   -0.0107   -1.9784   -4.3798 C   0  0  0  0  0  0  0  0  0  0  0  0
    0.4390   -3.2957   -4.2868 C   0  0  0  0  0  0  0  0  0  0  0  0
    1.4395   -3.6283   -3.3728 C   0  0  0  0  0  0  0  0  0  0  0  0
    1.9898   -2.6437   -2.5481 C   0  0  0  0  0  0  0  0  0  0  0  0
    1.5348   -1.3255   -2.6408 C   0  0  0  0  0  0  0  0  0  0  0  0
    0.1886    0.0311   -3.6324 H   0  0  0  0  0  0  0  0  0  0  0  0
   -0.7860   -1.7199   -5.0928 H   0  0  0  0  0  0  0  0  0  0  0  0
    0.0139   -4.0601   -4.9280 H   0  0  0  0  0  0  0  0  0  0  0  0
    1.7934   -4.6510   -3.3027 H   0  0  0  0  0  0  0  0  0  0  0  0
    2.7580   -2.8981   -1.8272 H   0  0  0  0  0  0  0  0  0  0  0  0
    1.9577   -0.5643   -1.9948 H   0  0  0  0  0  0  0  0  0  0  0  0
    2.0946   -2.2302    2.1050 S   0  0  0  0  0  0  0  0  0  0  0  0
    2.7835   -2.5810    3.3213 O   0  0  0  0  0  0  0  0  0  0  0  0
    2.5781   -2.6090    0.7880 O   0  0  0  0  0  0  0  0  0  0  0  0
    0.5621   -2.6286    2.2635 O   0  0  0  0  0  0  0  0  0  0  0  0
    1.9403   -0.3579    2.0747 C   0  0  0  0  0  0  0  0  0  0  0  0
    1.1461    0.0031    1.0590 F   0  0  0  0  0  0  0  0  0  0  0  0
    1.4237    0.0862    3.2137 F   0  0  0  0  0  0  0  0  0  0  0  0
    3.1466    0.1733    1.8941 F   0  0  0  0  0  0  0  0  0  0  0  0
  1  3  2  0  0  0  0
  2  1  2  0  0  0  0
  4  3  1  0  0  0  0
  5 21  1  0  0  0  0
  6 11  2  0  0  0  0
  7  8  2  0  0  0  0
  7  6  1  0  0  0  0
  8  9  1  0  0  0  0
  9 15  1  0  0  0  0
  9 10  2  0  0  0  0
 10 16  1  0  0  0  0
 11 10  1  0  0  0  0
 11 17  1  0  0  0  0
 12  6  1  0  0  0  0
 13  7  1  0  0  0  0
 14  8  1  0  0  0  0
 18 21  1  0  0  0  0
 18 19  2  0  0  0  0
 20 18  2  0  0  0  0
 22 18  1  0  0  0  0
 22 24  1  0  0  0  0
 23 22  1  0  0  0  0
 25 22  1  0  0  0  0
M  RAD  1   2   2
M  END
