Coordinates from ORCA-job C6H6+TfO-+NH2N2+-scan
 OpenBabel10121810013D

 25 23  0  0  0  0  0  0  0  0999 V2000
   -1.3726   -1.4111    0.5337 N   0  0  0  0  0  0  0  0  0  0  0  0
   -2.2222   -0.9017   -0.0019 N   0  0  0  0  0  0  0  0  0  0  0  0
   -0.3804   -1.8349    1.1492 N   0  0  0  0  0  0  0  0  0  0  0  0
   -0.3085   -2.8539    1.1138 H   0  0  0  0  0  0  0  0  0  0  0  0
    0.4183   -1.3332    2.6237 H   0  0  0  0  0  0  0  0  0  0  0  0
   -0.5532   -2.7484   -5.1273 C   0  0  0  0  0  0  0  0  0  0  0  0
    0.6774   -3.3574   -4.8840 C   0  0  0  0  0  0  0  0  0  0  0  0
    1.7968   -2.5776   -4.5960 C   0  0  0  0  0  0  0  0  0  0  0  0
    1.6848   -1.1884   -4.5496 C   0  0  0  0  0  0  0  0  0  0  0  0
    0.4544   -0.5794   -4.7928 C   0  0  0  0  0  0  0  0  0  0  0  0
   -0.6649   -1.3593   -5.0816 C   0  0  0  0  0  0  0  0  0  0  0  0
   -1.4230   -3.3552   -5.3551 H   0  0  0  0  0  0  0  0  0  0  0  0
    0.7648   -4.4380   -4.9216 H   0  0  0  0  0  0  0  0  0  0  0  0
    2.7544   -3.0512   -4.4081 H   0  0  0  0  0  0  0  0  0  0  0  0
    2.5558   -0.5815   -4.3266 H   0  0  0  0  0  0  0  0  0  0  0  0
    0.3684    0.5015   -4.7600 H   0  0  0  0  0  0  0  0  0  0  0  0
   -1.6216   -0.8854   -5.2728 H   0  0  0  0  0  0  0  0  0  0  0  0
    1.6590   -2.7234    3.6987 S   0  0  0  0  0  0  0  0  0  0  0  0
    1.8403   -2.9296    5.1126 O   0  0  0  0  0  0  0  0  0  0  0  0
    1.0618   -3.7249    2.8278 O   0  0  0  0  0  0  0  0  0  0  0  0
    0.9348   -1.3165    3.4796 O   0  0  0  0  0  0  0  0  0  0  0  0
    3.3448   -2.3300    2.9662 C   0  0  0  0  0  0  0  0  0  0  0  0
    3.1930   -1.9445    1.6977 F   0  0  0  0  0  0  0  0  0  0  0  0
    3.9302   -1.3603    3.6576 F   0  0  0  0  0  0  0  0  0  0  0  0
    4.0963   -3.4262    3.0081 F   0  0  0  0  0  0  0  0  0  0  0  0
  1  3  2  0  0  0  0
  2  1  2  0  0  0  0
  4  3  1  0  0  0  0
  5 21  1  0  0  0  0
  6 11  2  0  0  0  0
  6  7  1  0  0  0  0
  7  8  2  0  0  0  0
  8  9  1  0  0  0  0
  8 14  1  0  0  0  0
  9 15  1  0  0  0  0
 10 16  1  0  0  0  0
 10  9  2  0  0  0  0
 11 10  1  0  0  0  0
 12  6  1  0  0  0  0
 13  7  1  0  0  0  0
 17 11  1  0  0  0  0
 18 19  2  0  0  0  0
 20 18  2  0  0  0  0
 21 18  1  0  0  0  0
 22 25  1  0  0  0  0
 22 24  1  0  0  0  0
 22 18  1  0  0  0  0
 23 22  1  0  0  0  0
M  RAD  1   2   2
M  END
