Coordinates from ORCA-job C6H6+TfO-+NH2N2+-scan
 OpenBabel10121810013D

 25 23  0  0  0  0  0  0  0  0999 V2000
   -1.7405   -1.2565   -0.8008 N   0  0  0  0  0  0  0  0  0  0  0  0
   -2.6763   -0.6619   -1.0032 N   0  0  0  0  0  0  0  0  0  0  0  0
   -0.7431   -1.9061   -0.4537 N   0  0  0  0  0  0  0  0  0  0  0  0
   -0.1621   -2.1761   -1.2566 H   0  0  0  0  0  0  0  0  0  0  0  0
   -0.3453   -2.4064    1.1156 H   0  0  0  0  0  0  0  0  0  0  0  0
    0.1755   -1.8785   -4.4329 C   0  0  0  0  0  0  0  0  0  0  0  0
    0.3420   -2.9964   -3.6149 C   0  0  0  0  0  0  0  0  0  0  0  0
    1.2883   -2.9766   -2.5859 C   0  0  0  0  0  0  0  0  0  0  0  0
    2.0774   -1.8398   -2.3885 C   0  0  0  0  0  0  0  0  0  0  0  0
    1.9126   -0.7251   -3.2095 C   0  0  0  0  0  0  0  0  0  0  0  0
    0.9612   -0.7440   -4.2296 C   0  0  0  0  0  0  0  0  0  0  0  0
   -0.5593   -1.8940   -5.2303 H   0  0  0  0  0  0  0  0  0  0  0  0
   -0.2615   -3.8831   -3.7769 H   0  0  0  0  0  0  0  0  0  0  0  0
    1.4276   -3.8419   -1.9479 H   0  0  0  0  0  0  0  0  0  0  0  0
    2.8100   -1.8286   -1.5900 H   0  0  0  0  0  0  0  0  0  0  0  0
    2.5248    0.1566   -3.0557 H   0  0  0  0  0  0  0  0  0  0  0  0
    0.8337    0.1238   -4.8675 H   0  0  0  0  0  0  0  0  0  0  0  0
    1.3628   -3.4215    1.9768 S   0  0  0  0  0  0  0  0  0  0  0  0
    1.4851   -4.2947    3.1169 O   0  0  0  0  0  0  0  0  0  0  0  0
    1.6575   -3.8521    0.6204 O   0  0  0  0  0  0  0  0  0  0  0  0
   -0.0614   -2.7168    2.0309 O   0  0  0  0  0  0  0  0  0  0  0  0
    2.4697   -1.9373    2.2953 C   0  0  0  0  0  0  0  0  0  0  0  0
    2.2492   -1.0114    1.3543 F   0  0  0  0  0  0  0  0  0  0  0  0
    2.2195   -1.4165    3.4902 F   0  0  0  0  0  0  0  0  0  0  0  0
    3.7413   -2.3252    2.2347 F   0  0  0  0  0  0  0  0  0  0  0  0
  1  3  2  0  0  0  0
  2  1  2  0  0  0  0
  4  3  1  0  0  0  0
  5 21  1  0  0  0  0
  6 11  2  0  0  0  0
  6  7  1  0  0  0  0
  7  8  2  0  0  0  0
  8  9  1  0  0  0  0
  8 14  1  0  0  0  0
  9 15  1  0  0  0  0
 10 16  1  0  0  0  0
 10  9  2  0  0  0  0
 11 10  1  0  0  0  0
 12  6  1  0  0  0  0
 13  7  1  0  0  0  0
 17 11  1  0  0  0  0
 18 21  1  0  0  0  0
 18 22  1  0  0  0  0
 18 19  2  0  0  0  0
 20 18  2  0  0  0  0
 22 24  1  0  0  0  0
 23 22  1  0  0  0  0
 25 22  1  0  0  0  0
M  RAD  1   2   2
M  END
