Coordinates from ORCA-job C6H6+TfO-+NH2N2+-scan
 OpenBabel10121810013D

 25 23  0  0  0  0  0  0  0  0999 V2000
   -1.2869   -0.9853   -0.6052 N   0  0  0  0  0  0  0  0  0  0  0  0
   -2.3178   -0.5345   -0.5360 N   0  0  0  0  0  0  0  0  0  0  0  0
   -0.2129   -1.6144   -0.6360 N   0  0  0  0  0  0  0  0  0  0  0  0
    0.4965   -1.1173   -1.1752 H   0  0  0  0  0  0  0  0  0  0  0  0
    0.2409   -2.7130    0.5981 H   0  0  0  0  0  0  0  0  0  0  0  0
   -0.1088   -1.8642   -4.5196 C   0  0  0  0  0  0  0  0  0  0  0  0
   -0.2455   -2.8009   -3.4964 C   0  0  0  0  0  0  0  0  0  0  0  0
    0.7672   -2.9545   -2.5484 C   0  0  0  0  0  0  0  0  0  0  0  0
    1.9490   -2.2185   -2.6676 C   0  0  0  0  0  0  0  0  0  0  0  0
    2.0811   -1.2766   -3.6905 C   0  0  0  0  0  0  0  0  0  0  0  0
    1.0510   -1.0938   -4.6128 C   0  0  0  0  0  0  0  0  0  0  0  0
   -0.9020   -1.7390   -5.2487 H   0  0  0  0  0  0  0  0  0  0  0  0
   -1.1462   -3.4015   -3.4283 H   0  0  0  0  0  0  0  0  0  0  0  0
    0.6708   -3.7000   -1.7703 H   0  0  0  0  0  0  0  0  0  0  0  0
    2.7481   -2.3669   -1.9501 H   0  0  0  0  0  0  0  0  0  0  0  0
    2.9938   -0.6965   -3.7745 H   0  0  0  0  0  0  0  0  0  0  0  0
    1.1569   -0.3653   -5.4091 H   0  0  0  0  0  0  0  0  0  0  0  0
    2.0391   -3.1903    1.7109 S   0  0  0  0  0  0  0  0  0  0  0  0
    2.4971   -4.4148    2.3179 O   0  0  0  0  0  0  0  0  0  0  0  0
    2.7590   -2.5211    0.6416 O   0  0  0  0  0  0  0  0  0  0  0  0
    0.5097   -3.3806    1.2993 O   0  0  0  0  0  0  0  0  0  0  0  0
    1.8450   -1.9210    3.0843 C   0  0  0  0  0  0  0  0  0  0  0  0
    1.2045   -0.8496    2.6041 F   0  0  0  0  0  0  0  0  0  0  0  0
    1.1492   -2.4334    4.0919 F   0  0  0  0  0  0  0  0  0  0  0  0
    3.0501   -1.5574    3.5117 F   0  0  0  0  0  0  0  0  0  0  0  0
  1  2  2  0  0  0  0
  3  1  2  0  0  0  0
  4  3  1  0  0  0  0
  5 21  1  0  0  0  0
  6  7  1  0  0  0  0
  7 13  1  0  0  0  0
  7  8  2  0  0  0  0
  8 14  1  0  0  0  0
  9  8  1  0  0  0  0
  9 15  1  0  0  0  0
 10  9  2  0  0  0  0
 11  6  2  0  0  0  0
 11 10  1  0  0  0  0
 12  6  1  0  0  0  0
 16 10  1  0  0  0  0
 17 11  1  0  0  0  0
 18 19  2  0  0  0  0
 18 22  1  0  0  0  0
 20 18  2  0  0  0  0
 21 18  1  0  0  0  0
 22 25  1  0  0  0  0
 22 24  1  0  0  0  0
 23 22  1  0  0  0  0
M  RAD  1   2   2
M  END
