Coordinates from ORCA-job C6H6+TfO-+NH2N2+-scan
 OpenBabel10121810013D

 25 23  0  0  0  0  0  0  0  0999 V2000
   -2.0045   -2.6290   -0.0533 N   0  0  0  0  0  0  0  0  0  0  0  0
   -3.1191   -2.5501   -0.1937 N   0  0  0  0  0  0  0  0  0  0  0  0
   -0.7999   -2.7005    0.2401 N   0  0  0  0  0  0  0  0  0  0  0  0
   -0.2164   -2.8352   -0.5909 H   0  0  0  0  0  0  0  0  0  0  0  0
   -0.0159   -2.4950    1.7587 H   0  0  0  0  0  0  0  0  0  0  0  0
    0.3236   -1.1591   -3.6775 C   0  0  0  0  0  0  0  0  0  0  0  0
    0.3059   -1.9803   -4.8038 C   0  0  0  0  0  0  0  0  0  0  0  0
    1.0100   -3.1850   -4.8002 C   0  0  0  0  0  0  0  0  0  0  0  0
    1.7283   -3.5701   -3.6692 C   0  0  0  0  0  0  0  0  0  0  0  0
    1.7504   -2.7490   -2.5398 C   0  0  0  0  0  0  0  0  0  0  0  0
    1.0476   -1.5418   -2.5465 C   0  0  0  0  0  0  0  0  0  0  0  0
   -0.2164   -0.2184   -3.6832 H   0  0  0  0  0  0  0  0  0  0  0  0
   -0.2514   -1.6809   -5.6848 H   0  0  0  0  0  0  0  0  0  0  0  0
    0.9985   -3.8215   -5.6784 H   0  0  0  0  0  0  0  0  0  0  0  0
    2.2778   -4.5051   -3.6675 H   0  0  0  0  0  0  0  0  0  0  0  0
    2.3165   -3.0369   -1.6611 H   0  0  0  0  0  0  0  0  0  0  0  0
    1.0757   -0.8946   -1.6761 H   0  0  0  0  0  0  0  0  0  0  0  0
    2.0860   -2.2385    2.1575 S   0  0  0  0  0  0  0  0  0  0  0  0
    2.9040   -2.6347    3.2753 O   0  0  0  0  0  0  0  0  0  0  0  0
    2.2788   -2.7595    0.8142 O   0  0  0  0  0  0  0  0  0  0  0  0
    0.5546   -2.3748    2.5749 O   0  0  0  0  0  0  0  0  0  0  0  0
    2.2162   -0.3695    2.0093 C   0  0  0  0  0  0  0  0  0  0  0  0
    1.3325    0.0635    1.1009 F   0  0  0  0  0  0  0  0  0  0  0  0
    1.9622    0.2082    3.1764 F   0  0  0  0  0  0  0  0  0  0  0  0
    3.4438   -0.0527    1.6101 F   0  0  0  0  0  0  0  0  0  0  0  0
  1  3  2  0  0  0  0
  2  1  2  0  0  0  0
  4  3  1  0  0  0  0
  5 21  1  0  0  0  0
  6 11  2  0  0  0  0
  7  8  2  0  0  0  0
  7  6  1  0  0  0  0
  8  9  1  0  0  0  0
  9 15  1  0  0  0  0
  9 10  2  0  0  0  0
 10 16  1  0  0  0  0
 11 10  1  0  0  0  0
 11 17  1  0  0  0  0
 12  6  1  0  0  0  0
 13  7  1  0  0  0  0
 14  8  1  0  0  0  0
 18 21  1  0  0  0  0
 18 19  2  0  0  0  0
 20 18  2  0  0  0  0
 22 18  1  0  0  0  0
 22 24  1  0  0  0  0
 23 22  1  0  0  0  0
 25 22  1  0  0  0  0
M  RAD  1   2   2
M  END
