Coordinates from ORCA-job C6H6+TfO-+NH2N2+-scan
 OpenBabel10121810013D

 25 23  0  0  0  0  0  0  0  0999 V2000
   -1.0850   -1.1936   -0.6775 N   0  0  0  0  0  0  0  0  0  0  0  0
   -2.1599   -0.8472   -0.6905 N   0  0  0  0  0  0  0  0  0  0  0  0
    0.0134   -1.7838   -0.7717 N   0  0  0  0  0  0  0  0  0  0  0  0
    0.7687   -1.1196   -0.9510 H   0  0  0  0  0  0  0  0  0  0  0  0
    0.5319   -2.8835    0.4652 H   0  0  0  0  0  0  0  0  0  0  0  0
   -0.1810   -1.5850   -4.4336 C   0  0  0  0  0  0  0  0  0  0  0  0
   -0.4939   -2.5417   -3.4710 C   0  0  0  0  0  0  0  0  0  0  0  0
    0.4829   -2.9741   -2.5638 C   0  0  0  0  0  0  0  0  0  0  0  0
    1.8106   -2.5628   -2.7450 C   0  0  0  0  0  0  0  0  0  0  0  0
    2.1192   -1.6037   -3.7076 C   0  0  0  0  0  0  0  0  0  0  0  0
    1.1226   -1.0998   -4.5447 C   0  0  0  0  0  0  0  0  0  0  0  0
   -0.9498   -1.2315   -5.1126 H   0  0  0  0  0  0  0  0  0  0  0  0
   -1.5044   -2.9315   -3.4050 H   0  0  0  0  0  0  0  0  0  0  0  0
    0.2642   -3.7944   -1.8945 H   0  0  0  0  0  0  0  0  0  0  0  0
    2.5926   -2.9587   -2.1062 H   0  0  0  0  0  0  0  0  0  0  0  0
    3.1434   -1.2642   -3.8189 H   0  0  0  0  0  0  0  0  0  0  0  0
    1.3662   -0.3582   -5.2973 H   0  0  0  0  0  0  0  0  0  0  0  0
    2.3004   -2.8438    1.6961 S   0  0  0  0  0  0  0  0  0  0  0  0
    3.1358   -3.9002    2.2079 O   0  0  0  0  0  0  0  0  0  0  0  0
    2.7764   -1.8415    0.7575 O   0  0  0  0  0  0  0  0  0  0  0  0
    0.9477   -3.4925    1.1453 O   0  0  0  0  0  0  0  0  0  0  0  0
    1.6179   -1.8989    3.1713 C   0  0  0  0  0  0  0  0  0  0  0  0
    0.6686   -1.0568    2.7478 F   0  0  0  0  0  0  0  0  0  0  0  0
    1.0983   -2.7381    4.0578 F   0  0  0  0  0  0  0  0  0  0  0  0
    2.6020   -1.2050    3.7332 F   0  0  0  0  0  0  0  0  0  0  0  0
  2  1  2  0  0  0  0
  3  1  2  0  0  0  0
  4  3  1  0  0  0  0
  5 21  1  0  0  0  0
  6  7  1  0  0  0  0
  7 13  1  0  0  0  0
  7  8  2  0  0  0  0
  8 14  1  0  0  0  0
  9  8  1  0  0  0  0
  9 15  1  0  0  0  0
 10  9  2  0  0  0  0
 11  6  2  0  0  0  0
 11 10  1  0  0  0  0
 12  6  1  0  0  0  0
 16 10  1  0  0  0  0
 17 11  1  0  0  0  0
 18 19  2  0  0  0  0
 18 22  1  0  0  0  0
 20 18  2  0  0  0  0
 21 18  1  0  0  0  0
 22 25  1  0  0  0  0
 22 24  1  0  0  0  0
 23 22  1  0  0  0  0
M  RAD  1   2   2
M  END
