Coordinates from ORCA-job C6H6+TfO-+NH2N2+-scan
 OpenBabel10121810013D

 25 23  0  0  0  0  0  0  0  0999 V2000
   -1.6730   -2.7293   -0.5663 N   0  0  0  0  0  0  0  0  0  0  0  0
   -2.7724   -2.6434   -0.7968 N   0  0  0  0  0  0  0  0  0  0  0  0
   -0.4986   -2.8321   -0.1795 N   0  0  0  0  0  0  0  0  0  0  0  0
    0.1625   -2.8289   -0.9645 H   0  0  0  0  0  0  0  0  0  0  0  0
    0.1204   -2.7097    1.4045 H   0  0  0  0  0  0  0  0  0  0  0  0
    0.5074   -1.0088   -3.5838 C   0  0  0  0  0  0  0  0  0  0  0  0
    0.0235   -1.9875   -4.4519 C   0  0  0  0  0  0  0  0  0  0  0  0
    0.4978   -3.2965   -4.3630 C   0  0  0  0  0  0  0  0  0  0  0  0
    1.4584   -3.6276   -3.4077 C   0  0  0  0  0  0  0  0  0  0  0  0
    1.9449   -2.6496   -2.5366 C   0  0  0  0  0  0  0  0  0  0  0  0
    1.4659   -1.3395   -2.6252 C   0  0  0  0  0  0  0  0  0  0  0  0
    0.1406    0.0093   -3.6552 H   0  0  0  0  0  0  0  0  0  0  0  0
   -0.7209   -1.7306   -5.1975 H   0  0  0  0  0  0  0  0  0  0  0  0
    0.1221   -4.0557   -5.0403 H   0  0  0  0  0  0  0  0  0  0  0  0
    1.8315   -4.6437   -3.3412 H   0  0  0  0  0  0  0  0  0  0  0  0
    2.6842   -2.9019   -1.7853 H   0  0  0  0  0  0  0  0  0  0  0  0
    1.8408   -0.5831   -1.9448 H   0  0  0  0  0  0  0  0  0  0  0  0
    2.1043   -2.2328    2.1204 S   0  0  0  0  0  0  0  0  0  0  0  0
    2.8038   -2.5884    3.3290 O   0  0  0  0  0  0  0  0  0  0  0  0
    2.5657   -2.6230    0.7987 O   0  0  0  0  0  0  0  0  0  0  0  0
    0.5686   -2.6102    2.2989 O   0  0  0  0  0  0  0  0  0  0  0  0
    1.9747   -0.3587    2.0851 C   0  0  0  0  0  0  0  0  0  0  0  0
    1.1735    0.0094    1.0773 F   0  0  0  0  0  0  0  0  0  0  0  0
    1.4772    0.0962    3.2283 F   0  0  0  0  0  0  0  0  0  0  0  0
    3.1857    0.1556    1.8887 F   0  0  0  0  0  0  0  0  0  0  0  0
  1  3  2  0  0  0  0
  2  1  2  0  0  0  0
  4  3  1  0  0  0  0
  5 21  1  0  0  0  0
  6 11  2  0  0  0  0
  7  8  2  0  0  0  0
  7  6  1  0  0  0  0
  8  9  1  0  0  0  0
  9 15  1  0  0  0  0
  9 10  2  0  0  0  0
 10 16  1  0  0  0  0
 11 10  1  0  0  0  0
 11 17  1  0  0  0  0
 12  6  1  0  0  0  0
 13  7  1  0  0  0  0
 14  8  1  0  0  0  0
 18 21  1  0  0  0  0
 18 19  2  0  0  0  0
 20 18  2  0  0  0  0
 22 18  1  0  0  0  0
 22 24  1  0  0  0  0
 23 22  1  0  0  0  0
 25 22  1  0  0  0  0
M  RAD  1   2   2
M  END
