Coordinates from ORCA-job C6H6+TfO-+NH2N2+-scan
 OpenBabel10121810013D

 25 23  0  0  0  0  0  0  0  0999 V2000
   -2.1510   -2.6511    0.1954 N   0  0  0  0  0  0  0  0  0  0  0  0
   -3.2696   -2.5918    0.0795 N   0  0  0  0  0  0  0  0  0  0  0  0
   -0.9392   -2.6942    0.4646 N   0  0  0  0  0  0  0  0  0  0  0  0
   -0.3704   -2.8730   -0.3668 H   0  0  0  0  0  0  0  0  0  0  0  0
   -0.0787   -2.4370    1.9421 H   0  0  0  0  0  0  0  0  0  0  0  0
    0.3870   -1.1787   -3.6901 C   0  0  0  0  0  0  0  0  0  0  0  0
    0.4338   -1.9158   -4.8726 C   0  0  0  0  0  0  0  0  0  0  0  0
    1.1441   -3.1158   -4.9190 C   0  0  0  0  0  0  0  0  0  0  0  0
    1.8031   -3.5807   -3.7815 C   0  0  0  0  0  0  0  0  0  0  0  0
    1.7598   -2.8440   -2.5967 C   0  0  0  0  0  0  0  0  0  0  0  0
    1.0519   -1.6412   -2.5532 C   0  0  0  0  0  0  0  0  0  0  0  0
   -0.1574   -0.2410   -3.6567 H   0  0  0  0  0  0  0  0  0  0  0  0
   -0.0777   -1.5541   -5.7580 H   0  0  0  0  0  0  0  0  0  0  0  0
    1.1833   -3.6867   -5.8404 H   0  0  0  0  0  0  0  0  0  0  0  0
    2.3570   -4.5124   -3.8185 H   0  0  0  0  0  0  0  0  0  0  0  0
    2.2807   -3.1913   -1.7116 H   0  0  0  0  0  0  0  0  0  0  0  0
    1.0359   -1.0579   -1.6384 H   0  0  0  0  0  0  0  0  0  0  0  0
    2.0516   -2.2095    2.1259 S   0  0  0  0  0  0  0  0  0  0  0  0
    2.9706   -2.6073    3.1613 O   0  0  0  0  0  0  0  0  0  0  0  0
    2.0941   -2.7567    0.7792 O   0  0  0  0  0  0  0  0  0  0  0  0
    0.5665   -2.3046    2.6972 O   0  0  0  0  0  0  0  0  0  0  0  0
    2.2031   -0.3464    1.9308 C   0  0  0  0  0  0  0  0  0  0  0  0
    1.2401    0.0889    1.1088 F   0  0  0  0  0  0  0  0  0  0  0  0
    2.0807    0.2553    3.1068 F   0  0  0  0  0  0  0  0  0  0  0  0
    3.3897   -0.0633    1.4033 F   0  0  0  0  0  0  0  0  0  0  0  0
  1  3  2  0  0  0  0
  2  1  2  0  0  0  0
  4  3  1  0  0  0  0
  5 21  1  0  0  0  0
  6 12  1  0  0  0  0
  6 11  2  0  0  0  0
  7  6  1  0  0  0  0
  8  7  2  0  0  0  0
  8  9  1  0  0  0  0
  9 10  2  0  0  0  0
 10 11  1  0  0  0  0
 10 16  1  0  0  0  0
 11 17  1  0  0  0  0
 13  7  1  0  0  0  0
 14  8  1  0  0  0  0
 15  9  1  0  0  0  0
 18 21  1  0  0  0  0
 18 19  2  0  0  0  0
 20 18  2  0  0  0  0
 22 18  1  0  0  0  0
 22 24  1  0  0  0  0
 23 22  1  0  0  0  0
 25 22  1  0  0  0  0
M  RAD  1   2   2
M  END
