Coordinates from ORCA-job C6H6+TfO-+NH2N2+-scan
 OpenBabel10121810013D

 25 23  0  0  0  0  0  0  0  0999 V2000
   -1.3119   -1.3975    0.6709 N   0  0  0  0  0  0  0  0  0  0  0  0
   -2.1263   -0.8828    0.0881 N   0  0  0  0  0  0  0  0  0  0  0  0
   -0.3588   -1.8322    1.3376 N   0  0  0  0  0  0  0  0  0  0  0  0
   -0.2430   -2.8429    1.2404 H   0  0  0  0  0  0  0  0  0  0  0  0
    0.3852   -1.3757    2.8546 H   0  0  0  0  0  0  0  0  0  0  0  0
   -0.6023   -2.7330   -5.2837 C   0  0  0  0  0  0  0  0  0  0  0  0
    0.6295   -3.3680   -5.1296 C   0  0  0  0  0  0  0  0  0  0  0  0
    1.7775   -2.6139   -4.8893 C   0  0  0  0  0  0  0  0  0  0  0  0
    1.6933   -1.2245   -4.8036 C   0  0  0  0  0  0  0  0  0  0  0  0
    0.4615   -0.5897   -4.9579 C   0  0  0  0  0  0  0  0  0  0  0  0
   -0.6864   -1.3439   -5.1974 C   0  0  0  0  0  0  0  0  0  0  0  0
   -1.4950   -3.3195   -5.4729 H   0  0  0  0  0  0  0  0  0  0  0  0
    0.6952   -4.4485   -5.1987 H   0  0  0  0  0  0  0  0  0  0  0  0
    2.7359   -3.1077   -4.7707 H   0  0  0  0  0  0  0  0  0  0  0  0
    2.5866   -0.6375   -4.6187 H   0  0  0  0  0  0  0  0  0  0  0  0
    0.3964    0.4912   -4.8932 H   0  0  0  0  0  0  0  0  0  0  0  0
   -1.6445   -0.8499   -5.3184 H   0  0  0  0  0  0  0  0  0  0  0  0
    1.6685   -2.7675    3.8763 S   0  0  0  0  0  0  0  0  0  0  0  0
    1.8327   -3.0445    5.2801 O   0  0  0  0  0  0  0  0  0  0  0  0
    1.1338   -3.7442    2.9391 O   0  0  0  0  0  0  0  0  0  0  0  0
    0.8858   -1.3840    3.7197 O   0  0  0  0  0  0  0  0  0  0  0  0
    3.3482   -2.2589    3.2031 C   0  0  0  0  0  0  0  0  0  0  0  0
    3.2033   -1.8093    1.9551 F   0  0  0  0  0  0  0  0  0  0  0  0
    3.8754   -1.3047    3.9600 F   0  0  0  0  0  0  0  0  0  0  0  0
    4.1481   -3.3210    3.2002 F   0  0  0  0  0  0  0  0  0  0  0  0
  1  3  2  0  0  0  0
  2  1  2  0  0  0  0
  4  3  1  0  0  0  0
  5 21  1  0  0  0  0
  6 11  2  0  0  0  0
  6  7  1  0  0  0  0
  7  8  2  0  0  0  0
  8  9  1  0  0  0  0
  8 14  1  0  0  0  0
  9 15  1  0  0  0  0
 10 16  1  0  0  0  0
 10  9  2  0  0  0  0
 11 10  1  0  0  0  0
 12  6  1  0  0  0  0
 13  7  1  0  0  0  0
 17 11  1  0  0  0  0
 18 19  2  0  0  0  0
 20 18  2  0  0  0  0
 21 18  1  0  0  0  0
 22 18  1  0  0  0  0
 22 24  1  0  0  0  0
 23 22  1  0  0  0  0
 25 22  1  0  0  0  0
M  RAD  1   2   2
M  END
