Coordinates from ORCA-job C6H6+TfO-+NH2N2+-scan
 OpenBabel10121810013D

 25 23  0  0  0  0  0  0  0  0999 V2000
   -1.5788   -2.8657   -0.8279 N   0  0  0  0  0  0  0  0  0  0  0  0
   -2.6693   -2.8297   -1.1093 N   0  0  0  0  0  0  0  0  0  0  0  0
   -0.4217   -2.9194   -0.3864 N   0  0  0  0  0  0  0  0  0  0  0  0
    0.2784   -2.8826   -1.1347 H   0  0  0  0  0  0  0  0  0  0  0  0
    0.1132   -2.7784    1.2238 H   0  0  0  0  0  0  0  0  0  0  0  0
    0.6396   -0.9318   -3.4444 C   0  0  0  0  0  0  0  0  0  0  0  0
   -0.1088   -1.9208   -4.0839 C   0  0  0  0  0  0  0  0  0  0  0  0
    0.2704   -3.2595   -3.9791 C   0  0  0  0  0  0  0  0  0  0  0  0
    1.4034   -3.6092   -3.2424 C   0  0  0  0  0  0  0  0  0  0  0  0
    2.1496   -2.6204   -2.5968 C   0  0  0  0  0  0  0  0  0  0  0  0
    1.7639   -1.2817   -2.6967 C   0  0  0  0  0  0  0  0  0  0  0  0
    0.3440    0.1085   -3.5239 H   0  0  0  0  0  0  0  0  0  0  0  0
   -0.9851   -1.6497   -4.6623 H   0  0  0  0  0  0  0  0  0  0  0  0
   -0.3091   -4.0276   -4.4796 H   0  0  0  0  0  0  0  0  0  0  0  0
    1.7025   -4.6487   -3.1647 H   0  0  0  0  0  0  0  0  0  0  0  0
    3.0107   -2.8906   -1.9976 H   0  0  0  0  0  0  0  0  0  0  0  0
    2.3368   -0.5175   -2.1842 H   0  0  0  0  0  0  0  0  0  0  0  0
    2.0384   -2.2317    2.0460 S   0  0  0  0  0  0  0  0  0  0  0  0
    2.6774   -2.5473    3.2987 O   0  0  0  0  0  0  0  0  0  0  0  0
    2.5919   -2.6177    0.7594 O   0  0  0  0  0  0  0  0  0  0  0  0
    0.5099   -2.6644    2.1410 O   0  0  0  0  0  0  0  0  0  0  0  0
    1.8410   -0.3645    1.9794 C   0  0  0  0  0  0  0  0  0  0  0  0
    1.0781   -0.0376    0.9294 F   0  0  0  0  0  0  0  0  0  0  0  0
    1.2717    0.0846    3.0914 F   0  0  0  0  0  0  0  0  0  0  0  0
    3.0409    0.1932    1.8361 F   0  0  0  0  0  0  0  0  0  0  0  0
  1  3  2  0  0  0  0
  2  1  2  0  0  0  0
  4  3  1  0  0  0  0
  5 21  1  0  0  0  0
  6 11  2  0  0  0  0
  7  8  2  0  0  0  0
  7  6  1  0  0  0  0
  8  9  1  0  0  0  0
  9 15  1  0  0  0  0
  9 10  2  0  0  0  0
 10 16  1  0  0  0  0
 11 10  1  0  0  0  0
 11 17  1  0  0  0  0
 12  6  1  0  0  0  0
 13  7  1  0  0  0  0
 14  8  1  0  0  0  0
 18 21  1  0  0  0  0
 18 19  2  0  0  0  0
 20 18  2  0  0  0  0
 22 18  1  0  0  0  0
 22 24  1  0  0  0  0
 23 22  1  0  0  0  0
 25 22  1  0  0  0  0
M  RAD  1   2   2
M  END
