Coordinates from ORCA-job C6H6+TfO-+NH2N2+-scan
 OpenBabel10121810013D

 25 23  0  0  0  0  0  0  0  0999 V2000
   -1.6495   -3.0067   -0.8100 N   0  0  0  0  0  0  0  0  0  0  0  0
   -2.7429   -3.0567   -1.0778 N   0  0  0  0  0  0  0  0  0  0  0  0
   -0.4858   -2.9615   -0.3846 N   0  0  0  0  0  0  0  0  0  0  0  0
    0.1977   -2.9339   -1.1482 H   0  0  0  0  0  0  0  0  0  0  0  0
    0.0471   -2.7424    1.2206 H   0  0  0  0  0  0  0  0  0  0  0  0
    0.6503   -0.8813   -3.4199 C   0  0  0  0  0  0  0  0  0  0  0  0
   -0.0934   -1.8830   -4.0451 C   0  0  0  0  0  0  0  0  0  0  0  0
    0.2953   -3.2175   -3.9248 C   0  0  0  0  0  0  0  0  0  0  0  0
    1.4322   -3.5499   -3.1848 C   0  0  0  0  0  0  0  0  0  0  0  0
    2.1750   -2.5476   -2.5563 C   0  0  0  0  0  0  0  0  0  0  0  0
    1.7805   -1.2133   -2.6734 C   0  0  0  0  0  0  0  0  0  0  0  0
    0.3466    0.1557   -3.5116 H   0  0  0  0  0  0  0  0  0  0  0  0
   -0.9725   -1.6243   -4.6252 H   0  0  0  0  0  0  0  0  0  0  0  0
   -0.2791   -3.9963   -4.4148 H   0  0  0  0  0  0  0  0  0  0  0  0
    1.7380   -4.5864   -3.0947 H   0  0  0  0  0  0  0  0  0  0  0  0
    3.0425   -2.8046   -1.9607 H   0  0  0  0  0  0  0  0  0  0  0  0
    2.3517   -0.4377   -2.1764 H   0  0  0  0  0  0  0  0  0  0  0  0
    1.9883   -2.2657    2.0464 S   0  0  0  0  0  0  0  0  0  0  0  0
    2.5846   -2.5400    3.3296 O   0  0  0  0  0  0  0  0  0  0  0  0
    2.5350   -2.7692    0.7984 O   0  0  0  0  0  0  0  0  0  0  0  0
    0.4329   -2.5908    2.1366 O   0  0  0  0  0  0  0  0  0  0  0  0
    1.9144   -0.3975    1.8590 C   0  0  0  0  0  0  0  0  0  0  0  0
    1.1743   -0.0886    0.7872 F   0  0  0  0  0  0  0  0  0  0  0  0
    1.3767    0.1591    2.9374 F   0  0  0  0  0  0  0  0  0  0  0  0
    3.1486    0.0697    1.6842 F   0  0  0  0  0  0  0  0  0  0  0  0
  1  3  2  0  0  0  0
  2  1  2  0  0  0  0
  4  3  1  0  0  0  0
  5 21  1  0  0  0  0
  6 11  2  0  0  0  0
  7  8  2  0  0  0  0
  7  6  1  0  0  0  0
  8  9  1  0  0  0  0
  9 15  1  0  0  0  0
  9 10  2  0  0  0  0
 10 16  1  0  0  0  0
 11 10  1  0  0  0  0
 11 17  1  0  0  0  0
 12  6  1  0  0  0  0
 13  7  1  0  0  0  0
 14  8  1  0  0  0  0
 18 21  1  0  0  0  0
 18 19  2  0  0  0  0
 20 18  2  0  0  0  0
 22 18  1  0  0  0  0
 22 24  1  0  0  0  0
 23 22  1  0  0  0  0
 25 22  1  0  0  0  0
M  RAD  1   2   2
M  END
