Coordinates from ORCA-job C6H6+TfO-+NH2N2+-scan
 OpenBabel10121810013D

 25 25  0  0  1  0  0  0  0  0999 V2000
   -1.0954   -1.0275   -1.1212 N   0  0  0  0  0  0  0  0  0  0  0  0
   -1.5171   -1.4412   -2.1926 N   0  0  0  0  0  0  0  0  0  0  0  0
    0.1612   -1.5579   -0.7327 N   0  0  0  0  0  0  0  0  0  0  0  0
    0.7756   -0.7761   -0.5030 H   0  0  0  0  0  0  0  0  0  0  0  0
    0.1116   -2.5006    0.5801 H   0  0  0  0  0  0  0  0  0  0  0  0
   -0.2985   -1.7900   -4.2881 C   0  0  0  0  0  0  0  0  0  0  0  0
   -0.5218   -2.3505   -2.9146 C   0  0  1  0  0  0  0  0  0  0  0  0
    0.7195   -2.4342   -2.0159 C   0  0  1  0  0  0  0  0  0  0  0  0
    1.9882   -1.8637   -2.5479 C   0  0  0  0  0  0  0  0  0  0  0  0
    2.0534   -1.3386   -3.7793 C   0  0  0  0  0  0  0  0  0  0  0  0
    0.8924   -1.3113   -4.6678 C   0  0  0  0  0  0  0  0  0  0  0  0
   -1.1574   -1.7624   -4.9485 H   0  0  0  0  0  0  0  0  0  0  0  0
   -1.0393   -3.3120   -2.9803 H   0  0  0  0  0  0  0  0  0  0  0  0
    0.8770   -3.4232   -1.5915 H   0  0  0  0  0  0  0  0  0  0  0  0
    2.8570   -1.9249   -1.9021 H   0  0  0  0  0  0  0  0  0  0  0  0
    2.9924   -0.9415   -4.1493 H   0  0  0  0  0  0  0  0  0  0  0  0
    1.0180   -0.9010   -5.6638 H   0  0  0  0  0  0  0  0  0  0  0  0
    1.6979   -3.3772    1.7828 S   0  0  0  0  0  0  0  0  0  0  0  0
    1.8110   -4.6128    2.5184 O   0  0  0  0  0  0  0  0  0  0  0  0
    2.5615   -3.0612    0.6534 O   0  0  0  0  0  0  0  0  0  0  0  0
    0.1845   -3.1447    1.3855 O   0  0  0  0  0  0  0  0  0  0  0  0
    1.9340   -1.9719    3.0066 C   0  0  0  0  0  0  0  0  0  0  0  0
    1.6474   -0.8117    2.3987 F   0  0  0  0  0  0  0  0  0  0  0  0
    1.1347   -2.1245    4.0547 F   0  0  0  0  0  0  0  0  0  0  0  0
    3.2010   -1.9497    3.4099 F   0  0  0  0  0  0  0  0  0  0  0  0
  1  3  1  0  0  0  0
  2  1  2  0  0  0  0
  3  4  1  0  0  0  0
  5 21  1  0  0  0  0
  6  7  1  0  0  0  0
  7 13  1  6  0  0  0
  7  2  1  0  0  0  0
  7  8  1  0  0  0  0
  8 14  1  1  0  0  0
  8  3  1  0  0  0  0
  9  8  1  0  0  0  0
  9 15  1  0  0  0  0
 10  9  2  0  0  0  0
 11  6  2  0  0  0  0
 11 10  1  0  0  0  0
 12  6  1  0  0  0  0
 16 10  1  0  0  0  0
 17 11  1  0  0  0  0
 18 19  2  0  0  0  0
 18 22  1  0  0  0  0
 20 18  2  0  0  0  0
 21 18  1  0  0  0  0
 22 25  1  0  0  0  0
 22 24  1  0  0  0  0
 23 22  1  0  0  0  0
M  END
