Coordinates from ORCA-job C6H6+TfO-+NH2N2+-scan
 OpenBabel10121810013D

 25 23  0  0  0  0  0  0  0  0999 V2000
   -1.7198   -1.2685   -0.8270 N   0  0  0  0  0  0  0  0  0  0  0  0
   -2.6580   -0.6777   -1.0307 N   0  0  0  0  0  0  0  0  0  0  0  0
   -0.7193   -1.9135   -0.4814 N   0  0  0  0  0  0  0  0  0  0  0  0
   -0.1372   -2.1814   -1.2844 H   0  0  0  0  0  0  0  0  0  0  0  0
   -0.3304   -2.3987    1.0905 H   0  0  0  0  0  0  0  0  0  0  0  0
    0.1675   -1.8832   -4.4264 C   0  0  0  0  0  0  0  0  0  0  0  0
    0.3335   -2.9911   -3.5950 C   0  0  0  0  0  0  0  0  0  0  0  0
    1.2741   -2.9562   -2.5608 C   0  0  0  0  0  0  0  0  0  0  0  0
    2.0630   -1.8167   -2.3766 C   0  0  0  0  0  0  0  0  0  0  0  0
    1.8986   -0.7121   -3.2111 C   0  0  0  0  0  0  0  0  0  0  0  0
    0.9501   -0.7447   -4.2335 C   0  0  0  0  0  0  0  0  0  0  0  0
   -0.5641   -1.9098   -5.2264 H   0  0  0  0  0  0  0  0  0  0  0  0
   -0.2671   -3.8812   -3.7490 H   0  0  0  0  0  0  0  0  0  0  0  0
    1.4170   -3.8154   -1.9153 H   0  0  0  0  0  0  0  0  0  0  0  0
    2.7932   -1.7948   -1.5761 H   0  0  0  0  0  0  0  0  0  0  0  0
    2.5092    0.1722   -3.0663 H   0  0  0  0  0  0  0  0  0  0  0  0
    0.8227    0.1154   -4.8817 H   0  0  0  0  0  0  0  0  0  0  0  0
    1.3579   -3.4249    1.9776 S   0  0  0  0  0  0  0  0  0  0  0  0
    1.4573   -4.2943    3.1229 O   0  0  0  0  0  0  0  0  0  0  0  0
    1.6613   -3.8657    0.6264 O   0  0  0  0  0  0  0  0  0  0  0  0
   -0.0570   -2.7013    2.0125 O   0  0  0  0  0  0  0  0  0  0  0  0
    2.4808   -1.9541    2.3014 C   0  0  0  0  0  0  0  0  0  0  0  0
    2.2863   -1.0316    1.3511 F   0  0  0  0  0  0  0  0  0  0  0  0
    2.2214   -1.4213    3.4891 F   0  0  0  0  0  0  0  0  0  0  0  0
    3.7477   -2.3597    2.2612 F   0  0  0  0  0  0  0  0  0  0  0  0
  1  3  2  0  0  0  0
  2  1  2  0  0  0  0
  4  3  1  0  0  0  0
  5 21  1  0  0  0  0
  6 11  2  0  0  0  0
  6  7  1  0  0  0  0
  7  8  2  0  0  0  0
  8  9  1  0  0  0  0
  8 14  1  0  0  0  0
  9 15  1  0  0  0  0
 10 16  1  0  0  0  0
 10  9  2  0  0  0  0
 11 10  1  0  0  0  0
 12  6  1  0  0  0  0
 13  7  1  0  0  0  0
 17 11  1  0  0  0  0
 18 21  1  0  0  0  0
 18 22  1  0  0  0  0
 18 19  2  0  0  0  0
 20 18  2  0  0  0  0
 22 24  1  0  0  0  0
 23 22  1  0  0  0  0
 25 22  1  0  0  0  0
M  RAD  1   2   2
M  END
