Coordinates from ORCA-job C6H6+TfO-+NH2N2+-scan
 OpenBabel10121810013D

 25 23  0  0  0  0  0  0  0  0999 V2000
   -1.6113   -2.7974   -0.7172 N   0  0  0  0  0  0  0  0  0  0  0  0
   -2.7055   -2.7300   -0.9771 N   0  0  0  0  0  0  0  0  0  0  0  0
   -0.4472   -2.8837   -0.2981 N   0  0  0  0  0  0  0  0  0  0  0  0
    0.2379   -2.8581   -1.0614 H   0  0  0  0  0  0  0  0  0  0  0  0
    0.1264   -2.7549    1.3008 H   0  0  0  0  0  0  0  0  0  0  0  0
    0.5835   -0.9665   -3.5088 C   0  0  0  0  0  0  0  0  0  0  0  0
   -0.0572   -1.9550   -4.2566 C   0  0  0  0  0  0  0  0  0  0  0  0
    0.3583   -3.2832   -4.1597 C   0  0  0  0  0  0  0  0  0  0  0  0
    1.4181   -3.6236   -3.3180 C   0  0  0  0  0  0  0  0  0  0  0  0
    2.0591   -2.6357   -2.5663 C   0  0  0  0  0  0  0  0  0  0  0  0
    1.6380   -1.3068   -2.6613 C   0  0  0  0  0  0  0  0  0  0  0  0
    0.2607    0.0660   -3.5851 H   0  0  0  0  0  0  0  0  0  0  0  0
   -0.8781   -1.6908   -4.9143 H   0  0  0  0  0  0  0  0  0  0  0  0
   -0.1385   -4.0504   -4.7436 H   0  0  0  0  0  0  0  0  0  0  0  0
    1.7450   -4.6551   -3.2453 H   0  0  0  0  0  0  0  0  0  0  0  0
    2.8683   -2.8972   -1.8949 H   0  0  0  0  0  0  0  0  0  0  0  0
    2.1305   -0.5434   -2.0698 H   0  0  0  0  0  0  0  0  0  0  0  0
    2.0748   -2.2281    2.0805 S   0  0  0  0  0  0  0  0  0  0  0  0
    2.7426   -2.5632    3.3129 O   0  0  0  0  0  0  0  0  0  0  0  0
    2.5923   -2.6045    0.7760 O   0  0  0  0  0  0  0  0  0  0  0  0
    0.5455   -2.6492    2.2088 O   0  0  0  0  0  0  0  0  0  0  0  0
    1.8922   -0.3586    2.0386 C   0  0  0  0  0  0  0  0  0  0  0  0
    1.1108   -0.0142    1.0077 F   0  0  0  0  0  0  0  0  0  0  0  0
    1.3492    0.0828    3.1665 F   0  0  0  0  0  0  0  0  0  0  0  0
    3.0935    0.1904    1.8768 F   0  0  0  0  0  0  0  0  0  0  0  0
  1  3  2  0  0  0  0
  2  1  2  0  0  0  0
  4  3  1  0  0  0  0
  5 21  1  0  0  0  0
  6 11  2  0  0  0  0
  7  8  2  0  0  0  0
  7  6  1  0  0  0  0
  8  9  1  0  0  0  0
  9 15  1  0  0  0  0
  9 10  2  0  0  0  0
 10 16  1  0  0  0  0
 11 10  1  0  0  0  0
 11 17  1  0  0  0  0
 12  6  1  0  0  0  0
 13  7  1  0  0  0  0
 14  8  1  0  0  0  0
 18 21  1  0  0  0  0
 18 19  2  0  0  0  0
 20 18  2  0  0  0  0
 22 18  1  0  0  0  0
 22 24  1  0  0  0  0
 23 22  1  0  0  0  0
 25 22  1  0  0  0  0
M  RAD  1   2   2
M  END
