Coordinates from ORCA-job C6H6+TfO-+NH2N2+-scan
 OpenBabel10121810013D

 25 23  0  0  0  0  0  0  0  0999 V2000
   -1.6217   -2.7834   -0.6886 N   0  0  0  0  0  0  0  0  0  0  0  0
   -2.7168   -2.7112   -0.9435 N   0  0  0  0  0  0  0  0  0  0  0  0
   -0.4559   -2.8743   -0.2750 N   0  0  0  0  0  0  0  0  0  0  0  0
    0.2254   -2.8518   -1.0422 H   0  0  0  0  0  0  0  0  0  0  0  0
    0.1261   -2.7478    1.3212 H   0  0  0  0  0  0  0  0  0  0  0  0
    0.5699   -0.9744   -3.5258 C   0  0  0  0  0  0  0  0  0  0  0  0
   -0.0430   -1.9627   -4.2969 C   0  0  0  0  0  0  0  0  0  0  0  0
    0.3820   -3.2880   -4.2004 C   0  0  0  0  0  0  0  0  0  0  0  0
    1.4234   -3.6252   -3.3343 C   0  0  0  0  0  0  0  0  0  0  0  0
    2.0378   -2.6374   -2.5604 C   0  0  0  0  0  0  0  0  0  0  0  0
    1.6071   -1.3115   -2.6559 C   0  0  0  0  0  0  0  0  0  0  0  0
    0.2399    0.0558   -3.6027 H   0  0  0  0  0  0  0  0  0  0  0  0
   -0.8498   -1.7006   -4.9726 H   0  0  0  0  0  0  0  0  0  0  0  0
   -0.0932   -4.0550   -4.8020 H   0  0  0  0  0  0  0  0  0  0  0  0
    1.7580   -4.6542   -3.2617 H   0  0  0  0  0  0  0  0  0  0  0  0
    2.8349   -2.8961   -1.8734 H   0  0  0  0  0  0  0  0  0  0  0  0
    2.0794   -0.5480   -2.0482 H   0  0  0  0  0  0  0  0  0  0  0  0
    2.0813   -2.2287    2.0882 S   0  0  0  0  0  0  0  0  0  0  0  0
    2.7566   -2.5694    3.3150 O   0  0  0  0  0  0  0  0  0  0  0  0
    2.5876   -2.6046    0.7790 O   0  0  0  0  0  0  0  0  0  0  0  0
    0.5511   -2.6435    2.2266 O   0  0  0  0  0  0  0  0  0  0  0  0
    1.9066   -0.3584    2.0515 C   0  0  0  0  0  0  0  0  0  0  0  0
    1.1207   -0.0084    1.0258 F   0  0  0  0  0  0  0  0  0  0  0  0
    1.3720    0.0828    3.1834 F   0  0  0  0  0  0  0  0  0  0  0  0
    3.1093    0.1857    1.8839 F   0  0  0  0  0  0  0  0  0  0  0  0
  1  3  2  0  0  0  0
  2  1  2  0  0  0  0
  4  3  1  0  0  0  0
  5 21  1  0  0  0  0
  6 11  2  0  0  0  0
  7  8  2  0  0  0  0
  7  6  1  0  0  0  0
  8  9  1  0  0  0  0
  9 15  1  0  0  0  0
  9 10  2  0  0  0  0
 10 16  1  0  0  0  0
 11 10  1  0  0  0  0
 11 17  1  0  0  0  0
 12  6  1  0  0  0  0
 13  7  1  0  0  0  0
 14  8  1  0  0  0  0
 18 21  1  0  0  0  0
 18 19  2  0  0  0  0
 20 18  2  0  0  0  0
 22 18  1  0  0  0  0
 22 24  1  0  0  0  0
 23 22  1  0  0  0  0
 25 22  1  0  0  0  0
M  RAD  1   2   2
M  END
