Coordinates from ORCA-job C6H6+TfO-+NH2N2+-scan
 OpenBabel10121810013D

 25 23  0  0  0  0  0  0  0  0999 V2000
   -1.3129   -1.5556   -0.4683 N   0  0  0  0  0  0  0  0  0  0  0  0
   -2.4099   -1.3852   -0.2558 N   0  0  0  0  0  0  0  0  0  0  0  0
   -0.1836   -1.9727   -0.8216 N   0  0  0  0  0  0  0  0  0  0  0  0
    0.4324   -1.1876   -1.0454 H   0  0  0  0  0  0  0  0  0  0  0  0
    0.7639   -2.9269    0.3034 H   0  0  0  0  0  0  0  0  0  0  0  0
    0.0702   -1.2950   -4.3433 C   0  0  0  0  0  0  0  0  0  0  0  0
   -0.5818   -2.2491   -3.5673 C   0  0  0  0  0  0  0  0  0  0  0  0
    0.1432   -3.0309   -2.6550 C   0  0  0  0  0  0  0  0  0  0  0  0
    1.5443   -2.9793   -2.6809 C   0  0  0  0  0  0  0  0  0  0  0  0
    2.1932   -2.0218   -3.4569 C   0  0  0  0  0  0  0  0  0  0  0  0
    1.4587   -1.1634   -4.2765 C   0  0  0  0  0  0  0  0  0  0  0  0
   -0.5008   -0.6666   -5.0186 H   0  0  0  0  0  0  0  0  0  0  0  0
   -1.6589   -2.3610   -3.6382 H   0  0  0  0  0  0  0  0  0  0  0  0
   -0.3488   -3.8479   -2.1445 H   0  0  0  0  0  0  0  0  0  0  0  0
    2.1214   -3.6563   -2.0607 H   0  0  0  0  0  0  0  0  0  0  0  0
    3.2756   -1.9570   -3.4365 H   0  0  0  0  0  0  0  0  0  0  0  0
    1.9662   -0.4212   -4.8822 H   0  0  0  0  0  0  0  0  0  0  0  0
    2.4801   -2.3231    1.4582 S   0  0  0  0  0  0  0  0  0  0  0  0
    3.7005   -3.0199    1.7766 O   0  0  0  0  0  0  0  0  0  0  0  0
    2.4429   -1.1236    0.6392 O   0  0  0  0  0  0  0  0  0  0  0  0
    1.4232   -3.3869    0.9010 O   0  0  0  0  0  0  0  0  0  0  0  0
    1.6436   -1.8798    3.0826 C   0  0  0  0  0  0  0  0  0  0  0  0
    0.4094   -1.4323    2.8284 F   0  0  0  0  0  0  0  0  0  0  0  0
    1.5729   -2.9445    3.8711 F   0  0  0  0  0  0  0  0  0  0  0  0
    2.3438   -0.9228    3.6824 F   0  0  0  0  0  0  0  0  0  0  0  0
  1  2  2  0  0  0  0
  3  1  2  0  0  0  0
  4  3  1  0  0  0  0
  5 21  1  0  0  0  0
  6 11  2  0  0  0  0
  6  7  1  0  0  0  0
  7  8  2  0  0  0  0
  8 14  1  0  0  0  0
  9  8  1  0  0  0  0
  9 15  1  0  0  0  0
 10 16  1  0  0  0  0
 10  9  2  0  0  0  0
 11 10  1  0  0  0  0
 12  6  1  0  0  0  0
 13  7  1  0  0  0  0
 17 11  1  0  0  0  0
 18 19  2  0  0  0  0
 18 22  1  0  0  0  0
 20 18  2  0  0  0  0
 21 18  1  0  0  0  0
 22 25  1  0  0  0  0
 22 24  1  0  0  0  0
 23 22  1  0  0  0  0
M  RAD  1   2   2
M  END
