Coordinates from ORCA-job C6H6+TfO-+NH2N2+-scan
 OpenBabel10121810013D

 25 23  0  0  0  0  0  0  0  0999 V2000
   -1.3401   -1.4003    0.6300 N   0  0  0  0  0  0  0  0  0  0  0  0
   -2.1696   -0.8887    0.0657 N   0  0  0  0  0  0  0  0  0  0  0  0
   -0.3704   -1.8293    1.2764 N   0  0  0  0  0  0  0  0  0  0  0  0
   -0.2728   -2.8440    1.2030 H   0  0  0  0  0  0  0  0  0  0  0  0
    0.3982   -1.3565    2.7765 H   0  0  0  0  0  0  0  0  0  0  0  0
   -0.5821   -2.7404   -5.2306 C   0  0  0  0  0  0  0  0  0  0  0  0
    0.6507   -3.3641   -5.0420 C   0  0  0  0  0  0  0  0  0  0  0  0
    1.7874   -2.5987   -4.7843 C   0  0  0  0  0  0  0  0  0  0  0  0
    1.6906   -1.2094   -4.7135 C   0  0  0  0  0  0  0  0  0  0  0  0
    0.4580   -0.5857   -4.9022 C   0  0  0  0  0  0  0  0  0  0  0  0
   -0.6785   -1.3511   -5.1609 C   0  0  0  0  0  0  0  0  0  0  0  0
   -1.4656   -3.3359   -5.4344 H   0  0  0  0  0  0  0  0  0  0  0  0
    0.7262   -4.4447   -5.0983 H   0  0  0  0  0  0  0  0  0  0  0  0
    2.7467   -3.0838   -4.6388 H   0  0  0  0  0  0  0  0  0  0  0  0
    2.5751   -0.6139   -4.5141 H   0  0  0  0  0  0  0  0  0  0  0  0
    0.3836    0.4952   -4.8502 H   0  0  0  0  0  0  0  0  0  0  0  0
   -1.6371   -0.8657   -5.3098 H   0  0  0  0  0  0  0  0  0  0  0  0
    1.6657   -2.7511    3.8144 S   0  0  0  0  0  0  0  0  0  0  0  0
    1.8391   -3.0018    5.2221 O   0  0  0  0  0  0  0  0  0  0  0  0
    1.1028   -3.7368    2.9035 O   0  0  0  0  0  0  0  0  0  0  0  0
    0.9077   -1.3565    3.6365 O   0  0  0  0  0  0  0  0  0  0  0  0
    3.3475   -2.2889    3.1138 C   0  0  0  0  0  0  0  0  0  0  0  0
    3.1981   -1.8634    1.8579 F   0  0  0  0  0  0  0  0  0  0  0  0
    3.9003   -1.3289    3.8447 F   0  0  0  0  0  0  0  0  0  0  0  0
    4.1273   -3.3659    3.1259 F   0  0  0  0  0  0  0  0  0  0  0  0
  1  3  2  0  0  0  0
  2  1  2  0  0  0  0
  4  3  1  0  0  0  0
  5 21  1  0  0  0  0
  6 11  2  0  0  0  0
  6  7  1  0  0  0  0
  7  8  2  0  0  0  0
  8  9  1  0  0  0  0
  8 14  1  0  0  0  0
  9 15  1  0  0  0  0
 10 16  1  0  0  0  0
 10  9  2  0  0  0  0
 11 10  1  0  0  0  0
 12  6  1  0  0  0  0
 13  7  1  0  0  0  0
 17 11  1  0  0  0  0
 18 19  2  0  0  0  0
 20 18  2  0  0  0  0
 21 18  1  0  0  0  0
 22 25  1  0  0  0  0
 22 18  1  0  0  0  0
 22 24  1  0  0  0  0
 23 22  1  0  0  0  0
M  RAD  1   2   2
M  END
