Coordinates from ORCA-job C6H6+TfO-+NH2N2+-scan
 OpenBabel10121810013D

 25 23  0  0  0  0  0  0  0  0999 V2000
   -1.8577   -1.2946   -0.6369 N   0  0  0  0  0  0  0  0  0  0  0  0
   -2.8758   -0.8113   -0.6066 N   0  0  0  0  0  0  0  0  0  0  0  0
   -0.7523   -1.8557   -0.5580 N   0  0  0  0  0  0  0  0  0  0  0  0
   -0.2565   -1.8536   -1.4551 H   0  0  0  0  0  0  0  0  0  0  0  0
   -0.2253   -2.4235    0.9518 H   0  0  0  0  0  0  0  0  0  0  0  0
    0.2967   -2.0222   -4.5121 C   0  0  0  0  0  0  0  0  0  0  0  0
    0.3595   -2.9323   -3.4572 C   0  0  0  0  0  0  0  0  0  0  0  0
    1.1731   -2.6700   -2.3493 C   0  0  0  0  0  0  0  0  0  0  0  0
    1.9558   -1.5107   -2.3261 C   0  0  0  0  0  0  0  0  0  0  0  0
    1.8931   -0.6025   -3.3819 C   0  0  0  0  0  0  0  0  0  0  0  0
    1.0618   -0.8566   -4.4728 C   0  0  0  0  0  0  0  0  0  0  0  0
   -0.3391   -2.2256   -5.3667 H   0  0  0  0  0  0  0  0  0  0  0  0
   -0.2279   -3.8437   -3.4898 H   0  0  0  0  0  0  0  0  0  0  0  0
    1.2520   -3.3877   -1.5414 H   0  0  0  0  0  0  0  0  0  0  0  0
    2.6012   -1.3173   -1.4768 H   0  0  0  0  0  0  0  0  0  0  0  0
    2.4961    0.2985   -3.3580 H   0  0  0  0  0  0  0  0  0  0  0  0
    1.0149   -0.1502   -5.2943 H   0  0  0  0  0  0  0  0  0  0  0  0
    1.3435   -3.5407    1.9722 S   0  0  0  0  0  0  0  0  0  0  0  0
    1.3085   -4.3647    3.1541 O   0  0  0  0  0  0  0  0  0  0  0  0
    1.6912   -4.0602    0.6606 O   0  0  0  0  0  0  0  0  0  0  0  0
   -0.0104   -2.7128    1.8938 O   0  0  0  0  0  0  0  0  0  0  0  0
    2.5534   -2.1435    2.3092 C   0  0  0  0  0  0  0  0  0  0  0  0
    2.4769   -1.2446    1.3178 F   0  0  0  0  0  0  0  0  0  0  0  0
    2.2690   -1.5473    3.4604 F   0  0  0  0  0  0  0  0  0  0  0  0
    3.7870   -2.6374    2.3544 F   0  0  0  0  0  0  0  0  0  0  0  0
  1  2  2  0  0  0  0
  1  3  2  0  0  0  0
  4  3  1  0  0  0  0
  5 21  1  0  0  0  0
  6 11  2  0  0  0  0
  6  7  1  0  0  0  0
  7  8  2  0  0  0  0
  8  9  1  0  0  0  0
  8 14  1  0  0  0  0
  9 15  1  0  0  0  0
 10 16  1  0  0  0  0
 10  9  2  0  0  0  0
 11 10  1  0  0  0  0
 12  6  1  0  0  0  0
 13  7  1  0  0  0  0
 17 11  1  0  0  0  0
 18 22  1  0  0  0  0
 18 19  2  0  0  0  0
 20 18  2  0  0  0  0
 21 18  1  0  0  0  0
 22 25  1  0  0  0  0
 22 24  1  0  0  0  0
 23 22  1  0  0  0  0
M  RAD  1   2   2
M  END
