Coordinates from ORCA-job C6H6+TfO-+NH2N2+-scan
 OpenBabel10121810013D

 25 23  0  0  0  0  0  0  0  0999 V2000
   -1.3300   -1.3983    0.6478 N   0  0  0  0  0  0  0  0  0  0  0  0
   -2.1537   -0.8856    0.0763 N   0  0  0  0  0  0  0  0  0  0  0  0
   -0.3666   -1.8293    1.3019 N   0  0  0  0  0  0  0  0  0  0  0  0
   -0.2614   -2.8426    1.2197 H   0  0  0  0  0  0  0  0  0  0  0  0
    0.3926   -1.3636    2.8090 H   0  0  0  0  0  0  0  0  0  0  0  0
   -0.5894   -2.7378   -5.2523 C   0  0  0  0  0  0  0  0  0  0  0  0
    0.6430   -3.3660   -5.0768 C   0  0  0  0  0  0  0  0  0  0  0  0
    1.7839   -2.6050   -4.8247 C   0  0  0  0  0  0  0  0  0  0  0  0
    1.6921   -1.2155   -4.7492 C   0  0  0  0  0  0  0  0  0  0  0  0
    0.4597   -0.5875   -4.9246 C   0  0  0  0  0  0  0  0  0  0  0  0
   -0.6812   -1.3486   -5.1756 C   0  0  0  0  0  0  0  0  0  0  0  0
   -1.4766   -3.3296   -5.4508 H   0  0  0  0  0  0  0  0  0  0  0  0
    0.7148   -4.4466   -5.1383 H   0  0  0  0  0  0  0  0  0  0  0  0
    2.7428   -3.0936   -4.6895 H   0  0  0  0  0  0  0  0  0  0  0  0
    2.5799   -0.6231   -4.5553 H   0  0  0  0  0  0  0  0  0  0  0  0
    0.3885    0.4934   -4.8673 H   0  0  0  0  0  0  0  0  0  0  0  0
   -1.6398   -0.8599   -5.3129 H   0  0  0  0  0  0  0  0  0  0  0  0
    1.6669   -2.7580    3.8385 S   0  0  0  0  0  0  0  0  0  0  0  0
    1.8379   -3.0201    5.2444 O   0  0  0  0  0  0  0  0  0  0  0  0
    1.1143   -3.7396    2.9169 O   0  0  0  0  0  0  0  0  0  0  0  0
    0.8989   -1.3676    3.6708 O   0  0  0  0  0  0  0  0  0  0  0  0
    3.3474   -2.2769    3.1474 C   0  0  0  0  0  0  0  0  0  0  0  0
    3.1986   -1.8410    1.8950 F   0  0  0  0  0  0  0  0  0  0  0  0
    3.8908   -1.3197    3.8888 F   0  0  0  0  0  0  0  0  0  0  0  0
    4.1351   -3.3482    3.1520 F   0  0  0  0  0  0  0  0  0  0  0  0
  1  3  2  0  0  0  0
  2  1  2  0  0  0  0
  4  3  1  0  0  0  0
  5 21  1  0  0  0  0
  6 11  2  0  0  0  0
  6  7  1  0  0  0  0
  7  8  2  0  0  0  0
  8  9  1  0  0  0  0
  8 14  1  0  0  0  0
  9 15  1  0  0  0  0
 10 16  1  0  0  0  0
 10  9  2  0  0  0  0
 11 10  1  0  0  0  0
 12  6  1  0  0  0  0
 13  7  1  0  0  0  0
 17 11  1  0  0  0  0
 18 19  2  0  0  0  0
 20 18  2  0  0  0  0
 21 18  1  0  0  0  0
 22 25  1  0  0  0  0
 22 18  1  0  0  0  0
 22 24  1  0  0  0  0
 23 22  1  0  0  0  0
M  RAD  1   2   2
M  END
