Coordinates from ORCA-job C6H6+TfO-+NH2N2+-scan
 OpenBabel10121810013D

 25 25  0  0  1  0  0  0  0  0999 V2000
   -0.7472   -0.7177   -1.1047 N   0  0  0  0  0  0  0  0  0  0  0  0
   -1.2862   -1.1082   -2.1314 N   0  0  0  0  0  0  0  0  0  0  0  0
    0.4499   -1.4855   -0.8032 N   0  0  0  0  0  0  0  0  0  0  0  0
    1.1476   -0.8361   -0.4459 H   0  0  0  0  0  0  0  0  0  0  0  0
    0.2368   -2.4978    0.4759 H   0  0  0  0  0  0  0  0  0  0  0  0
   -0.3891   -1.9930   -4.2582 C   0  0  0  0  0  0  0  0  0  0  0  0
   -0.4954   -2.2212   -2.7795 C   0  0  1  0  0  0  0  0  0  0  0  0
    0.8391   -2.2190   -1.9805 C   0  0  1  0  0  0  0  0  0  0  0  0
    2.0096   -1.6152   -2.7184 C   0  0  0  0  0  0  0  0  0  0  0  0
    1.9580   -1.3351   -4.0247 C   0  0  0  0  0  0  0  0  0  0  0  0
    0.7501   -1.5717   -4.8179 C   0  0  0  0  0  0  0  0  0  0  0  0
   -1.2877   -2.1414   -4.8453 H   0  0  0  0  0  0  0  0  0  0  0  0
   -1.0748   -3.1277   -2.5750 H   0  0  0  0  0  0  0  0  0  0  0  0
    1.1071   -3.2374   -1.6841 H   0  0  0  0  0  0  0  0  0  0  0  0
    2.9183   -1.4680   -2.1425 H   0  0  0  0  0  0  0  0  0  0  0  0
    2.8308   -0.9336   -4.5284 H   0  0  0  0  0  0  0  0  0  0  0  0
    0.7957   -1.3929   -5.8866 H   0  0  0  0  0  0  0  0  0  0  0  0
    1.7082   -3.3866    1.7962 S   0  0  0  0  0  0  0  0  0  0  0  0
    1.8169   -4.6996    2.3829 O   0  0  0  0  0  0  0  0  0  0  0  0
    2.6702   -2.8810    0.8269 O   0  0  0  0  0  0  0  0  0  0  0  0
    0.2361   -3.1835    1.2417 O   0  0  0  0  0  0  0  0  0  0  0  0
    1.6966   -2.1422    3.2036 C   0  0  0  0  0  0  0  0  0  0  0  0
    1.4160   -0.9296    2.7107 F   0  0  0  0  0  0  0  0  0  0  0  0
    0.7832   -2.4707    4.1083 F   0  0  0  0  0  0  0  0  0  0  0  0
    2.8991   -2.1156    3.7710 F   0  0  0  0  0  0  0  0  0  0  0  0
  1  3  1  0  0  0  0
  2  1  1  0  0  0  0
  3  4  1  0  0  0  0
  5 21  1  0  0  0  0
  6  7  1  0  0  0  0
  7 13  1  1  0  0  0
  7  2  1  0  0  0  0
  7  8  1  0  0  0  0
  8 14  1  1  0  0  0
  8  3  1  0  0  0  0
  9 15  1  0  0  0  0
  9  8  1  0  0  0  0
 10  9  2  0  0  0  0
 11  6  2  0  0  0  0
 11 10  1  0  0  0  0
 12  6  1  0  0  0  0
 16 10  1  0  0  0  0
 17 11  1  0  0  0  0
 18 19  2  0  0  0  0
 18 22  1  0  0  0  0
 20 18  2  0  0  0  0
 21 18  1  0  0  0  0
 22 25  1  0  0  0  0
 22 24  1  0  0  0  0
 23 22  1  0  0  0  0
M  RAD  2   1   2   2   2
M  END
