Coordinates from ORCA-job C6H6+TfO-+NH2N2+-scan
 OpenBabel10121810013D

 25 23  0  0  0  0  0  0  0  0999 V2000
   -1.6593   -2.7462   -0.5987 N   0  0  0  0  0  0  0  0  0  0  0  0
   -2.7575   -2.6636   -0.8361 N   0  0  0  0  0  0  0  0  0  0  0  0
   -0.4874   -2.8466   -0.2039 N   0  0  0  0  0  0  0  0  0  0  0  0
    0.1796   -2.8362   -0.9836 H   0  0  0  0  0  0  0  0  0  0  0  0
    0.1226   -2.7228    1.3828 H   0  0  0  0  0  0  0  0  0  0  0  0
    0.5300   -0.9983   -3.5750 C   0  0  0  0  0  0  0  0  0  0  0  0
    0.0030   -1.9822   -4.4118 C   0  0  0  0  0  0  0  0  0  0  0  0
    0.4595   -3.2972   -4.3178 C   0  0  0  0  0  0  0  0  0  0  0  0
    1.4450   -3.6287   -3.3877 C   0  0  0  0  0  0  0  0  0  0  0  0
    1.9749   -2.6453   -2.5487 C   0  0  0  0  0  0  0  0  0  0  0  0
    1.5140   -1.3293   -2.6427 C   0  0  0  0  0  0  0  0  0  0  0  0
    0.1768    0.0243   -3.6507 H   0  0  0  0  0  0  0  0  0  0  0  0
   -0.7609   -1.7245   -5.1371 H   0  0  0  0  0  0  0  0  0  0  0  0
    0.0507   -4.0607   -4.9705 H   0  0  0  0  0  0  0  0  0  0  0  0
    1.8041   -4.6496   -3.3169 H   0  0  0  0  0  0  0  0  0  0  0  0
    2.7351   -2.8977   -1.8185 H   0  0  0  0  0  0  0  0  0  0  0  0
    1.9228   -0.5682   -1.9876 H   0  0  0  0  0  0  0  0  0  0  0  0
    2.0980   -2.2300    2.1118 S   0  0  0  0  0  0  0  0  0  0  0  0
    2.7939   -2.5863    3.3224 O   0  0  0  0  0  0  0  0  0  0  0  0
    2.5702   -2.6084    0.7906 O   0  0  0  0  0  0  0  0  0  0  0  0
    0.5647   -2.6216    2.2801 O   0  0  0  0  0  0  0  0  0  0  0  0
    1.9520   -0.3570    2.0862 C   0  0  0  0  0  0  0  0  0  0  0  0
    1.1534    0.0096    1.0759 F   0  0  0  0  0  0  0  0  0  0  0  0
    1.4441    0.0872    3.2291 F   0  0  0  0  0  0  0  0  0  0  0  0
    3.1596    0.1691    1.8996 F   0  0  0  0  0  0  0  0  0  0  0  0
  1  3  2  0  0  0  0
  2  1  2  0  0  0  0
  4  3  1  0  0  0  0
  5 21  1  0  0  0  0
  6 11  2  0  0  0  0
  7  8  2  0  0  0  0
  7  6  1  0  0  0  0
  8  9  1  0  0  0  0
  9 15  1  0  0  0  0
  9 10  2  0  0  0  0
 10 16  1  0  0  0  0
 11 10  1  0  0  0  0
 11 17  1  0  0  0  0
 12  6  1  0  0  0  0
 13  7  1  0  0  0  0
 14  8  1  0  0  0  0
 18 21  1  0  0  0  0
 18 19  2  0  0  0  0
 20 18  2  0  0  0  0
 22 18  1  0  0  0  0
 22 24  1  0  0  0  0
 23 22  1  0  0  0  0
 25 22  1  0  0  0  0
M  RAD  1   2   2
M  END
