Coordinates from ORCA-job C6H6+TfO-+NH2N2+-scan
 OpenBabel10121810013D

 25 25  0  0  1  0  0  0  0  0999 V2000
   -1.0857   -1.0173   -1.1197 N   0  0  0  0  0  0  0  0  0  0  0  0
   -1.5113   -1.4287   -2.1905 N   0  0  0  0  0  0  0  0  0  0  0  0
    0.1697   -1.5578   -0.7354 N   0  0  0  0  0  0  0  0  0  0  0  0
    0.7880   -0.7805   -0.5013 H   0  0  0  0  0  0  0  0  0  0  0  0
    0.1159   -2.5028    0.5765 H   0  0  0  0  0  0  0  0  0  0  0  0
   -0.3016   -1.7943   -4.2888 C   0  0  0  0  0  0  0  0  0  0  0  0
   -0.5235   -2.3451   -2.9111 C   0  0  1  0  0  0  0  0  0  0  0  0
    0.7201   -2.4277   -2.0135 C   0  0  1  0  0  0  0  0  0  0  0  0
    1.9879   -1.8582   -2.5513 C   0  0  0  0  0  0  0  0  0  0  0  0
    2.0513   -1.3407   -3.7858 C   0  0  0  0  0  0  0  0  0  0  0  0
    0.8892   -1.3192   -4.6732 C   0  0  0  0  0  0  0  0  0  0  0  0
   -1.1613   -1.7703   -4.9482 H   0  0  0  0  0  0  0  0  0  0  0  0
   -1.0442   -3.3054   -2.9696 H   0  0  0  0  0  0  0  0  0  0  0  0
    0.8800   -3.4189   -1.5948 H   0  0  0  0  0  0  0  0  0  0  0  0
    2.8577   -1.9147   -1.9062 H   0  0  0  0  0  0  0  0  0  0  0  0
    2.9896   -0.9450   -4.1592 H   0  0  0  0  0  0  0  0  0  0  0  0
    1.0139   -0.9158   -5.6721 H   0  0  0  0  0  0  0  0  0  0  0  0
    1.7013   -3.3762    1.7820 S   0  0  0  0  0  0  0  0  0  0  0  0
    1.8175   -4.6149    2.5117 O   0  0  0  0  0  0  0  0  0  0  0  0
    2.5672   -3.0504    0.6571 O   0  0  0  0  0  0  0  0  0  0  0  0
    0.1882   -3.1487    1.3804 O   0  0  0  0  0  0  0  0  0  0  0  0
    1.9264   -1.9760    3.0137 C   0  0  0  0  0  0  0  0  0  0  0  0
    1.6369   -0.8141    2.4105 F   0  0  0  0  0  0  0  0  0  0  0  0
    1.1238   -2.1375    4.0579 F   0  0  0  0  0  0  0  0  0  0  0  0
    3.1918   -1.9502    3.4220 F   0  0  0  0  0  0  0  0  0  0  0  0
  1  3  1  0  0  0  0
  2  1  2  0  0  0  0
  3  4  1  0  0  0  0
  5 21  1  0  0  0  0
  6  7  1  0  0  0  0
  7 13  1  6  0  0  0
  7  2  1  0  0  0  0
  7  8  1  0  0  0  0
  8 14  1  1  0  0  0
  8  3  1  0  0  0  0
  9  8  1  0  0  0  0
  9 15  1  0  0  0  0
 10  9  2  0  0  0  0
 11  6  2  0  0  0  0
 11 10  1  0  0  0  0
 12  6  1  0  0  0  0
 16 10  1  0  0  0  0
 17 11  1  0  0  0  0
 18 19  2  0  0  0  0
 18 22  1  0  0  0  0
 20 18  2  0  0  0  0
 21 18  1  0  0  0  0
 22 25  1  0  0  0  0
 22 24  1  0  0  0  0
 23 22  1  0  0  0  0
M  END
