Coordinates from ORCA-job C6H6+TfO-+NH2N2+-scan
 OpenBabel10121810013D

 25 25  0  0  1  0  0  0  0  0999 V2000
   -0.3683   -0.6194   -1.0313 N   0  0  0  0  0  0  0  0  0  0  0  0
   -1.0528   -0.8996   -2.0048 N   0  0  0  0  0  0  0  0  0  0  0  0
    0.7367   -1.5840   -0.8929 N   0  0  0  0  0  0  0  0  0  0  0  0
    1.5331   -1.0873   -0.4980 H   0  0  0  0  0  0  0  0  0  0  0  0
    0.4721   -2.6191    0.3808 H   0  0  0  0  0  0  0  0  0  0  0  0
   -0.5201   -1.9230   -4.2092 C   0  0  0  0  0  0  0  0  0  0  0  0
   -0.4875   -2.1001   -2.7208 C   0  0  1  0  0  0  0  0  0  0  0  0
    0.9230   -2.2223   -2.0569 C   0  0  1  0  0  0  0  0  0  0  0  0
    2.0409   -1.6719   -2.9294 C   0  0  0  0  0  0  0  0  0  0  0  0
    1.8744   -1.4124   -4.2296 C   0  0  0  0  0  0  0  0  0  0  0  0
    0.5822   -1.5980   -4.8932 C   0  0  0  0  0  0  0  0  0  0  0  0
   -1.4809   -2.0255   -4.6995 H   0  0  0  0  0  0  0  0  0  0  0  0
   -1.1326   -2.9326   -2.4185 H   0  0  0  0  0  0  0  0  0  0  0  0
    1.1385   -3.2879   -1.8928 H   0  0  0  0  0  0  0  0  0  0  0  0
    3.0068   -1.5439   -2.4483 H   0  0  0  0  0  0  0  0  0  0  0  0
    2.7088   -1.0574   -4.8250 H   0  0  0  0  0  0  0  0  0  0  0  0
    0.5316   -1.4537   -5.9669 H   0  0  0  0  0  0  0  0  0  0  0  0
    1.8656   -3.2626    1.9066 S   0  0  0  0  0  0  0  0  0  0  0  0
    2.1809   -4.5765    2.4102 O   0  0  0  0  0  0  0  0  0  0  0  0
    2.8184   -2.4704    1.1402 O   0  0  0  0  0  0  0  0  0  0  0  0
    0.4798   -3.3172    1.1308 O   0  0  0  0  0  0  0  0  0  0  0  0
    1.3683   -2.2038    3.3771 C   0  0  0  0  0  0  0  0  0  0  0  0
    0.9036   -1.0322    2.9364 F   0  0  0  0  0  0  0  0  0  0  0  0
    0.4276   -2.8145    4.0872 F   0  0  0  0  0  0  0  0  0  0  0  0
    2.4384   -1.9949    4.1389 F   0  0  0  0  0  0  0  0  0  0  0  0
  1  3  1  0  0  0  0
  2  1  1  0  0  0  0
  3  4  1  0  0  0  0
  5 21  1  0  0  0  0
  6  7  1  0  0  0  0
  7 13  1  1  0  0  0
  7  8  1  0  0  0  0
  7  2  1  0  0  0  0
  8 14  1  1  0  0  0
  8  3  1  0  0  0  0
  9 15  1  0  0  0  0
  9  8  1  0  0  0  0
 10  9  2  0  0  0  0
 11 10  1  0  0  0  0
 11  6  2  0  0  0  0
 12  6  1  0  0  0  0
 16 10  1  0  0  0  0
 17 11  1  0  0  0  0
 18 19  2  0  0  0  0
 18 22  1  0  0  0  0
 20 18  2  0  0  0  0
 21 18  1  0  0  0  0
 22 24  1  0  0  0  0
 22 25  1  0  0  0  0
 23 22  1  0  0  0  0
M  RAD  2   1   2   2   2
M  END
