Coordinates from ORCA-job C6H6+TfO-+NH2N2+-scan
 OpenBabel10121810013D

 25 23  0  0  0  0  0  0  0  0999 V2000
   -1.9873   -2.6389   -0.0937 N   0  0  0  0  0  0  0  0  0  0  0  0
   -3.1013   -2.5663   -0.2425 N   0  0  0  0  0  0  0  0  0  0  0  0
   -0.7844   -2.7040    0.2080 N   0  0  0  0  0  0  0  0  0  0  0  0
   -0.1943   -2.8337   -0.6193 H   0  0  0  0  0  0  0  0  0  0  0  0
   -0.0140   -2.4924    1.7322 H   0  0  0  0  0  0  0  0  0  0  0  0
    0.3173   -1.1561   -3.6656 C   0  0  0  0  0  0  0  0  0  0  0  0
    0.2872   -1.9851   -4.7858 C   0  0  0  0  0  0  0  0  0  0  0  0
    0.9898   -3.1907   -4.7807 C   0  0  0  0  0  0  0  0  0  0  0  0
    1.7196   -3.5684   -3.6547 C   0  0  0  0  0  0  0  0  0  0  0  0
    1.7541   -2.7395   -2.5313 C   0  0  0  0  0  0  0  0  0  0  0  0
    1.0522   -1.5317   -2.5392 C   0  0  0  0  0  0  0  0  0  0  0  0
   -0.2221   -0.2150   -3.6721 H   0  0  0  0  0  0  0  0  0  0  0  0
   -0.2789   -1.6915   -5.6630 H   0  0  0  0  0  0  0  0  0  0  0  0
    0.9683   -3.8335   -5.6541 H   0  0  0  0  0  0  0  0  0  0  0  0
    2.2682   -4.5040   -3.6521 H   0  0  0  0  0  0  0  0  0  0  0  0
    2.3282   -3.0227   -1.6562 H   0  0  0  0  0  0  0  0  0  0  0  0
    1.0870   -0.8797   -1.6726 H   0  0  0  0  0  0  0  0  0  0  0  0
    2.0835   -2.2384    2.1583 S   0  0  0  0  0  0  0  0  0  0  0  0
    2.8853   -2.6385    3.2864 O   0  0  0  0  0  0  0  0  0  0  0  0
    2.2920   -2.7590    0.8172 O   0  0  0  0  0  0  0  0  0  0  0  0
    0.5463   -2.3690    2.5551 O   0  0  0  0  0  0  0  0  0  0  0  0
    2.2235   -0.3699    2.0137 C   0  0  0  0  0  0  0  0  0  0  0  0
    1.3552    0.0680    1.0929 F   0  0  0  0  0  0  0  0  0  0  0  0
    1.9551    0.2079    3.1776 F   0  0  0  0  0  0  0  0  0  0  0  0
    3.4583   -0.0581    1.6328 F   0  0  0  0  0  0  0  0  0  0  0  0
  1  3  2  0  0  0  0
  2  1  2  0  0  0  0
  4  3  1  0  0  0  0
  5 21  1  0  0  0  0
  6 11  2  0  0  0  0
  7  8  2  0  0  0  0
  7  6  1  0  0  0  0
  8  9  1  0  0  0  0
  9 15  1  0  0  0  0
  9 10  2  0  0  0  0
 10 16  1  0  0  0  0
 11 10  1  0  0  0  0
 11 17  1  0  0  0  0
 12  6  1  0  0  0  0
 13  7  1  0  0  0  0
 14  8  1  0  0  0  0
 18 21  1  0  0  0  0
 18 19  2  0  0  0  0
 20 18  2  0  0  0  0
 22 18  1  0  0  0  0
 22 24  1  0  0  0  0
 23 22  1  0  0  0  0
 25 22  1  0  0  0  0
M  RAD  1   2   2
M  END
