Coordinates from ORCA-job C6H6+TfO-+NH2N2+-scan
 OpenBabel10121810013D

 25 23  0  0  0  0  0  0  0  0999 V2000
   -1.1970   -1.4175    0.7394 N   0  0  0  0  0  0  0  0  0  0  0  0
   -1.9847   -0.9109    0.1141 N   0  0  0  0  0  0  0  0  0  0  0  0
   -0.2734   -1.8457    1.4501 N   0  0  0  0  0  0  0  0  0  0  0  0
   -0.1467   -2.8557    1.3590 H   0  0  0  0  0  0  0  0  0  0  0  0
    0.4057   -1.3840    2.9966 H   0  0  0  0  0  0  0  0  0  0  0  0
   -0.6492   -2.7266   -5.4228 C   0  0  0  0  0  0  0  0  0  0  0  0
    0.5901   -3.3609   -5.3445 C   0  0  0  0  0  0  0  0  0  0  0  0
    1.7482   -2.6076   -5.1555 C   0  0  0  0  0  0  0  0  0  0  0  0
    1.6668   -1.2200   -5.0445 C   0  0  0  0  0  0  0  0  0  0  0  0
    0.4275   -0.5858   -5.1228 C   0  0  0  0  0  0  0  0  0  0  0  0
   -0.7305   -1.3391   -5.3119 C   0  0  0  0  0  0  0  0  0  0  0  0
   -1.5499   -3.3123   -5.5724 H   0  0  0  0  0  0  0  0  0  0  0  0
    0.6536   -4.4402   -5.4328 H   0  0  0  0  0  0  0  0  0  0  0  0
    2.7124   -3.1009   -5.0962 H   0  0  0  0  0  0  0  0  0  0  0  0
    2.5678   -0.6338   -4.8990 H   0  0  0  0  0  0  0  0  0  0  0  0
    0.3643    0.4938   -5.0384 H   0  0  0  0  0  0  0  0  0  0  0  0
   -1.6944   -0.8455   -5.3743 H   0  0  0  0  0  0  0  0  0  0  0  0
    1.6541   -2.7693    4.0691 S   0  0  0  0  0  0  0  0  0  0  0  0
    1.7631   -3.0452    5.4785 O   0  0  0  0  0  0  0  0  0  0  0  0
    1.1620   -3.7488    3.1116 O   0  0  0  0  0  0  0  0  0  0  0  0
    0.8719   -1.3895    3.8806 O   0  0  0  0  0  0  0  0  0  0  0  0
    3.3570   -2.2529    3.4635 C   0  0  0  0  0  0  0  0  0  0  0  0
    3.2599   -1.8048    2.2103 F   0  0  0  0  0  0  0  0  0  0  0  0
    3.8487   -1.2957    4.2401 F   0  0  0  0  0  0  0  0  0  0  0  0
    4.1614   -3.3112    3.4935 F   0  0  0  0  0  0  0  0  0  0  0  0
  1  3  2  0  0  0  0
  2  1  2  0  0  0  0
  4  3  1  0  0  0  0
  5 21  1  0  0  0  0
  6  7  2  0  0  0  0
  6 11  1  0  0  0  0
  7  8  1  0  0  0  0
  8 14  1  0  0  0  0
  8  9  2  0  0  0  0
  9 15  1  0  0  0  0
 10  9  1  0  0  0  0
 10 16  1  0  0  0  0
 11 10  2  0  0  0  0
 12  6  1  0  0  0  0
 13  7  1  0  0  0  0
 17 11  1  0  0  0  0
 18 19  2  0  0  0  0
 20 18  2  0  0  0  0
 21 18  1  0  0  0  0
 22 25  1  0  0  0  0
 22 18  1  0  0  0  0
 22 24  1  0  0  0  0
 23 22  1  0  0  0  0
M  RAD  1   2   2
M  END
