Coordinates from ORCA-job C6H6+TfO-+NH2N2+-scan
 OpenBabel10121810013D

 25 23  0  0  0  0  0  0  0  0999 V2000
   -1.3417   -1.4007    0.6282 N   0  0  0  0  0  0  0  0  0  0  0  0
   -2.1719   -0.8891    0.0652 N   0  0  0  0  0  0  0  0  0  0  0  0
   -0.3712   -1.8297    1.2730 N   0  0  0  0  0  0  0  0  0  0  0  0
   -0.2739   -2.8447    1.2024 H   0  0  0  0  0  0  0  0  0  0  0  0
    0.3988   -1.3558    2.7725 H   0  0  0  0  0  0  0  0  0  0  0  0
   -0.5808   -2.7407   -5.2285 C   0  0  0  0  0  0  0  0  0  0  0  0
    0.6517   -3.3641   -5.0373 C   0  0  0  0  0  0  0  0  0  0  0  0
    1.7873   -2.5979   -4.7768 C   0  0  0  0  0  0  0  0  0  0  0  0
    1.6908   -1.2087   -4.7090 C   0  0  0  0  0  0  0  0  0  0  0  0
    0.4581   -0.5853   -4.9002 C   0  0  0  0  0  0  0  0  0  0  0  0
   -0.6777   -1.3513   -5.1595 C   0  0  0  0  0  0  0  0  0  0  0  0
   -1.4640   -3.3363   -5.4334 H   0  0  0  0  0  0  0  0  0  0  0  0
    0.7274   -4.4447   -5.0930 H   0  0  0  0  0  0  0  0  0  0  0  0
    2.7464   -3.0828   -4.6293 H   0  0  0  0  0  0  0  0  0  0  0  0
    2.5746   -0.6126   -4.5088 H   0  0  0  0  0  0  0  0  0  0  0  0
    0.3830    0.4956   -4.8487 H   0  0  0  0  0  0  0  0  0  0  0  0
   -1.6362   -0.8663   -5.3094 H   0  0  0  0  0  0  0  0  0  0  0  0
    1.6657   -2.7502    3.8109 S   0  0  0  0  0  0  0  0  0  0  0  0
    1.8398   -2.9997    5.2187 O   0  0  0  0  0  0  0  0  0  0  0  0
    1.1012   -3.7362    2.9013 O   0  0  0  0  0  0  0  0  0  0  0  0
    0.9087   -1.3551    3.6321 O   0  0  0  0  0  0  0  0  0  0  0  0
    3.3474   -2.2902    3.1087 C   0  0  0  0  0  0  0  0  0  0  0  0
    3.1975   -1.8658    1.8525 F   0  0  0  0  0  0  0  0  0  0  0  0
    3.9016   -1.3301    3.8383 F   0  0  0  0  0  0  0  0  0  0  0  0
    4.1262   -3.3679    3.1212 F   0  0  0  0  0  0  0  0  0  0  0  0
  1  3  2  0  0  0  0
  2  1  2  0  0  0  0
  4  3  1  0  0  0  0
  5 21  1  0  0  0  0
  6 11  2  0  0  0  0
  6  7  1  0  0  0  0
  7  8  2  0  0  0  0
  8  9  1  0  0  0  0
  8 14  1  0  0  0  0
  9 15  1  0  0  0  0
 10 16  1  0  0  0  0
 10  9  2  0  0  0  0
 11 10  1  0  0  0  0
 12  6  1  0  0  0  0
 13  7  1  0  0  0  0
 17 11  1  0  0  0  0
 18 19  2  0  0  0  0
 20 18  2  0  0  0  0
 21 18  1  0  0  0  0
 22 25  1  0  0  0  0
 22 18  1  0  0  0  0
 22 24  1  0  0  0  0
 23 22  1  0  0  0  0
M  RAD  1   2   2
M  END
