Coordinates from ORCA-job C6H6+TfO-+NH2N2+-scan
 OpenBabel10121810013D

 25 23  0  0  0  0  0  0  0  0999 V2000
   -2.1106   -2.6356    0.0974 N   0  0  0  0  0  0  0  0  0  0  0  0
   -3.2273   -2.5790   -0.0364 N   0  0  0  0  0  0  0  0  0  0  0  0
   -0.9031   -2.6757    0.3848 N   0  0  0  0  0  0  0  0  0  0  0  0
   -0.3215   -2.8494   -0.4391 H   0  0  0  0  0  0  0  0  0  0  0  0
   -0.0737   -2.4268    1.8759 H   0  0  0  0  0  0  0  0  0  0  0  0
    0.3460   -1.1991   -3.6643 C   0  0  0  0  0  0  0  0  0  0  0  0
    0.3710   -1.9466   -4.8408 C   0  0  0  0  0  0  0  0  0  0  0  0
    1.1003   -3.1347   -4.8972 C   0  0  0  0  0  0  0  0  0  0  0  0
    1.7998   -3.5777   -3.7753 C   0  0  0  0  0  0  0  0  0  0  0  0
    1.7786   -2.8306   -2.5965 C   0  0  0  0  0  0  0  0  0  0  0  0
    1.0522   -1.6391   -2.5433 C   0  0  0  0  0  0  0  0  0  0  0  0
   -0.2128   -0.2701   -3.6236 H   0  0  0  0  0  0  0  0  0  0  0  0
   -0.1723   -1.6020   -5.7140 H   0  0  0  0  0  0  0  0  0  0  0  0
    1.1226   -3.7136   -5.8142 H   0  0  0  0  0  0  0  0  0  0  0  0
    2.3682   -4.5004   -3.8199 H   0  0  0  0  0  0  0  0  0  0  0  0
    2.3303   -3.1612   -1.7237 H   0  0  0  0  0  0  0  0  0  0  0  0
    1.0539   -1.0473   -1.6338 H   0  0  0  0  0  0  0  0  0  0  0  0
    2.0512   -2.2076    2.1432 S   0  0  0  0  0  0  0  0  0  0  0  0
    2.9252   -2.6240    3.2100 O   0  0  0  0  0  0  0  0  0  0  0  0
    2.1445   -2.7402    0.7933 O   0  0  0  0  0  0  0  0  0  0  0  0
    0.5443   -2.2962    2.6543 O   0  0  0  0  0  0  0  0  0  0  0  0
    2.2255   -0.3438    1.9767 C   0  0  0  0  0  0  0  0  0  0  0  0
    1.3087    0.1086    1.1125 F   0  0  0  0  0  0  0  0  0  0  0  0
    2.0484    0.2458    3.1520 F   0  0  0  0  0  0  0  0  0  0  0  0
    3.4394   -0.0641    1.5131 F   0  0  0  0  0  0  0  0  0  0  0  0
  1  3  2  0  0  0  0
  2  1  2  0  0  0  0
  4  3  1  0  0  0  0
  5 21  1  0  0  0  0
  6 12  1  0  0  0  0
  6 11  2  0  0  0  0
  7  6  1  0  0  0  0
  8  7  2  0  0  0  0
  8  9  1  0  0  0  0
  9 10  2  0  0  0  0
 10 11  1  0  0  0  0
 10 16  1  0  0  0  0
 11 17  1  0  0  0  0
 13  7  1  0  0  0  0
 14  8  1  0  0  0  0
 15  9  1  0  0  0  0
 18 21  1  0  0  0  0
 18 19  2  0  0  0  0
 20 18  2  0  0  0  0
 22 18  1  0  0  0  0
 22 24  1  0  0  0  0
 23 22  1  0  0  0  0
 25 22  1  0  0  0  0
M  RAD  1   2   2
M  END
