Coordinates from ORCA-job C6H6+TfO-+NH2N2+-scan
 OpenBabel10121810013D

 25 23  0  0  0  0  0  0  0  0999 V2000
   -1.6869   -1.1716   -0.7160 N   0  0  0  0  0  0  0  0  0  0  0  0
   -2.5966   -0.5161   -0.8325 N   0  0  0  0  0  0  0  0  0  0  0  0
   -0.7162   -1.9027   -0.4691 N   0  0  0  0  0  0  0  0  0  0  0  0
   -0.1458   -2.0789   -1.3051 H   0  0  0  0  0  0  0  0  0  0  0  0
   -0.3151   -2.4742    1.0707 H   0  0  0  0  0  0  0  0  0  0  0  0
    0.2109   -1.9753   -4.4930 C   0  0  0  0  0  0  0  0  0  0  0  0
    0.3659   -2.9907   -3.5495 C   0  0  0  0  0  0  0  0  0  0  0  0
    1.2610   -2.8298   -2.4870 C   0  0  0  0  0  0  0  0  0  0  0  0
    2.0182   -1.6582   -2.3883 C   0  0  0  0  0  0  0  0  0  0  0  0
    1.8642   -0.6454   -3.3338 C   0  0  0  0  0  0  0  0  0  0  0  0
    0.9598   -0.8036   -4.3842 C   0  0  0  0  0  0  0  0  0  0  0  0
   -0.4856   -2.0997   -5.3148 H   0  0  0  0  0  0  0  0  0  0  0  0
   -0.2091   -3.9064   -3.6363 H   0  0  0  0  0  0  0  0  0  0  0  0
    1.4013   -3.6206   -1.7585 H   0  0  0  0  0  0  0  0  0  0  0  0
    2.7161   -1.5390   -1.5674 H   0  0  0  0  0  0  0  0  0  0  0  0
    2.4499    0.2638   -3.2550 H   0  0  0  0  0  0  0  0  0  0  0  0
    0.8410   -0.0154   -5.1196 H   0  0  0  0  0  0  0  0  0  0  0  0
    1.3552   -3.5143    1.9829 S   0  0  0  0  0  0  0  0  0  0  0  0
    1.4340   -4.3920    3.1233 O   0  0  0  0  0  0  0  0  0  0  0  0
    1.6937   -3.9417    0.6360 O   0  0  0  0  0  0  0  0  0  0  0  0
   -0.0653   -2.8022    1.9911 O   0  0  0  0  0  0  0  0  0  0  0  0
    2.4599   -2.0381    2.3436 C   0  0  0  0  0  0  0  0  0  0  0  0
    2.2834   -1.1119    1.3924 F   0  0  0  0  0  0  0  0  0  0  0  0
    2.1650   -1.5121    3.5260 F   0  0  0  0  0  0  0  0  0  0  0  0
    3.7299   -2.4341    2.3351 F   0  0  0  0  0  0  0  0  0  0  0  0
  1  3  2  0  0  0  0
  2  1  2  0  0  0  0
  4  3  1  0  0  0  0
  5 21  1  0  0  0  0
  6 11  2  0  0  0  0
  6  7  1  0  0  0  0
  7  8  2  0  0  0  0
  8  9  1  0  0  0  0
  8 14  1  0  0  0  0
  9 15  1  0  0  0  0
 10 16  1  0  0  0  0
 10  9  2  0  0  0  0
 11 10  1  0  0  0  0
 12  6  1  0  0  0  0
 13  7  1  0  0  0  0
 17 11  1  0  0  0  0
 18 21  1  0  0  0  0
 18 22  1  0  0  0  0
 18 19  2  0  0  0  0
 20 18  2  0  0  0  0
 22 24  1  0  0  0  0
 23 22  1  0  0  0  0
 25 22  1  0  0  0  0
M  RAD  1   2   2
M  END
