Coordinates from ORCA-job C6H6+TfO-+NH2N2+-scan
 OpenBabel10121810013D

 25 23  0  0  0  0  0  0  0  0999 V2000
   -1.7623   -3.0109   -0.9191 N   0  0  0  0  0  0  0  0  0  0  0  0
   -2.8553   -3.0215   -1.1947 N   0  0  0  0  0  0  0  0  0  0  0  0
   -0.5981   -2.9864   -0.4985 N   0  0  0  0  0  0  0  0  0  0  0  0
    0.0813   -3.0953   -1.2589 H   0  0  0  0  0  0  0  0  0  0  0  0
   -0.0745   -2.7065    1.0958 H   0  0  0  0  0  0  0  0  0  0  0  0
    0.6278   -0.8331   -3.4139 C   0  0  0  0  0  0  0  0  0  0  0  0
   -0.1400   -1.9274   -3.8106 C   0  0  0  0  0  0  0  0  0  0  0  0
    0.3251   -3.2232   -3.5780 C   0  0  0  0  0  0  0  0  0  0  0  0
    1.5651   -3.4232   -2.9655 C   0  0  0  0  0  0  0  0  0  0  0  0
    2.3292   -2.3257   -2.5638 C   0  0  0  0  0  0  0  0  0  0  0  0
    1.8582   -1.0326   -2.7875 C   0  0  0  0  0  0  0  0  0  0  0  0
    0.2666    0.1741   -3.5900 H   0  0  0  0  0  0  0  0  0  0  0  0
   -1.0960   -1.7732   -4.2989 H   0  0  0  0  0  0  0  0  0  0  0  0
   -0.2654   -4.0763   -3.8958 H   0  0  0  0  0  0  0  0  0  0  0  0
    1.9317   -4.4297   -2.7965 H   0  0  0  0  0  0  0  0  0  0  0  0
    3.2764   -2.4821   -2.0624 H   0  0  0  0  0  0  0  0  0  0  0  0
    2.4480   -0.1808   -2.4687 H   0  0  0  0  0  0  0  0  0  0  0  0
    1.8715   -2.3823    1.9880 S   0  0  0  0  0  0  0  0  0  0  0  0
    2.3816   -2.6601    3.3075 O   0  0  0  0  0  0  0  0  0  0  0  0
    2.4145   -2.9952    0.7885 O   0  0  0  0  0  0  0  0  0  0  0  0
    0.2884   -2.5381    2.0190 O   0  0  0  0  0  0  0  0  0  0  0  0
    2.0025   -0.5260    1.7277 C   0  0  0  0  0  0  0  0  0  0  0  0
    1.3281   -0.1823    0.6246 F   0  0  0  0  0  0  0  0  0  0  0  0
    1.5003    0.1269    2.7691 F   0  0  0  0  0  0  0  0  0  0  0  0
    3.2842   -0.1994    1.5736 F   0  0  0  0  0  0  0  0  0  0  0  0
  1  3  2  0  0  0  0
  2  1  2  0  0  0  0
  4  3  1  0  0  0  0
  5 21  1  0  0  0  0
  6 11  2  0  0  0  0
  7  8  2  0  0  0  0
  7  6  1  0  0  0  0
  8  9  1  0  0  0  0
  9 15  1  0  0  0  0
  9 10  2  0  0  0  0
 10 16  1  0  0  0  0
 11 10  1  0  0  0  0
 11 17  1  0  0  0  0
 12  6  1  0  0  0  0
 13  7  1  0  0  0  0
 14  8  1  0  0  0  0
 18 21  1  0  0  0  0
 18 19  2  0  0  0  0
 20 18  2  0  0  0  0
 22 18  1  0  0  0  0
 22 24  1  0  0  0  0
 23 22  1  0  0  0  0
 25 22  1  0  0  0  0
M  RAD  1   2   2
M  END
