Coordinates from ORCA-job C6H6+TfO-+NH2N2+-scan
 OpenBabel10121810013D

 25 23  0  0  0  0  0  0  0  0999 V2000
   -1.2628   -1.0763   -0.6742 N   0  0  0  0  0  0  0  0  0  0  0  0
   -2.3202   -0.6847   -0.6646 N   0  0  0  0  0  0  0  0  0  0  0  0
   -0.1629   -1.6606   -0.6630 N   0  0  0  0  0  0  0  0  0  0  0  0
    0.5636   -1.0914   -1.0972 H   0  0  0  0  0  0  0  0  0  0  0  0
    0.2785   -2.7463    0.5926 H   0  0  0  0  0  0  0  0  0  0  0  0
   -0.1311   -1.7971   -4.5006 C   0  0  0  0  0  0  0  0  0  0  0  0
   -0.3009   -2.7402   -3.4884 C   0  0  0  0  0  0  0  0  0  0  0  0
    0.7089   -2.9478   -2.5467 C   0  0  0  0  0  0  0  0  0  0  0  0
    1.9261   -2.2725   -2.6765 C   0  0  0  0  0  0  0  0  0  0  0  0
    2.0918   -1.3249   -3.6881 C   0  0  0  0  0  0  0  0  0  0  0  0
    1.0617   -1.0797   -4.5962 C   0  0  0  0  0  0  0  0  0  0  0  0
   -0.9240   -1.6281   -5.2213 H   0  0  0  0  0  0  0  0  0  0  0  0
   -1.2267   -3.3019   -3.4219 H   0  0  0  0  0  0  0  0  0  0  0  0
    0.5923   -3.7104   -1.7891 H   0  0  0  0  0  0  0  0  0  0  0  0
    2.7268   -2.4673   -1.9717 H   0  0  0  0  0  0  0  0  0  0  0  0
    3.0312   -0.7897   -3.7763 H   0  0  0  0  0  0  0  0  0  0  0  0
    1.1940   -0.3467   -5.3844 H   0  0  0  0  0  0  0  0  0  0  0  0
    2.0795   -3.1538    1.7222 S   0  0  0  0  0  0  0  0  0  0  0  0
    2.5812   -4.3618    2.3272 O   0  0  0  0  0  0  0  0  0  0  0  0
    2.7775   -2.4530    0.6584 O   0  0  0  0  0  0  0  0  0  0  0  0
    0.5601   -3.3999    1.3013 O   0  0  0  0  0  0  0  0  0  0  0  0
    1.8290   -1.8976    3.0985 C   0  0  0  0  0  0  0  0  0  0  0  0
    1.1534   -0.8487    2.6163 F   0  0  0  0  0  0  0  0  0  0  0  0
    1.1449   -2.4385    4.0990 F   0  0  0  0  0  0  0  0  0  0  0  0
    3.0167   -1.4916    3.5359 F   0  0  0  0  0  0  0  0  0  0  0  0
  1  2  2  0  0  0  0
  1  3  2  0  0  0  0
  4  3  1  0  0  0  0
  5 21  1  0  0  0  0
  6  7  1  0  0  0  0
  7 13  1  0  0  0  0
  7  8  2  0  0  0  0
  8 14  1  0  0  0  0
  9  8  1  0  0  0  0
  9 15  1  0  0  0  0
 10  9  2  0  0  0  0
 11  6  2  0  0  0  0
 11 10  1  0  0  0  0
 12  6  1  0  0  0  0
 16 10  1  0  0  0  0
 17 11  1  0  0  0  0
 18 19  2  0  0  0  0
 18 22  1  0  0  0  0
 20 18  2  0  0  0  0
 21 18  1  0  0  0  0
 22 25  1  0  0  0  0
 22 24  1  0  0  0  0
 23 22  1  0  0  0  0
M  RAD  1   2   2
M  END
