Coordinates from ORCA-job C6H6+TfO-+NH2N2+-scan
 OpenBabel10121810013D

 25 23  0  0  0  0  0  0  0  0999 V2000
   -1.2253   -1.1201   -0.7153 N   0  0  0  0  0  0  0  0  0  0  0  0
   -2.2970   -0.7692   -0.7453 N   0  0  0  0  0  0  0  0  0  0  0  0
   -0.1120   -1.6802   -0.6975 N   0  0  0  0  0  0  0  0  0  0  0  0
    0.6178   -1.0593   -1.0469 H   0  0  0  0  0  0  0  0  0  0  0  0
    0.3260   -2.7659    0.5642 H   0  0  0  0  0  0  0  0  0  0  0  0
   -0.1522   -1.7534   -4.4773 C   0  0  0  0  0  0  0  0  0  0  0  0
   -0.3448   -2.6984   -3.4712 C   0  0  0  0  0  0  0  0  0  0  0  0
    0.6640   -2.9442   -2.5361 C   0  0  0  0  0  0  0  0  0  0  0  0
    1.9074   -2.3206   -2.6831 C   0  0  0  0  0  0  0  0  0  0  0  0
    2.0960   -1.3718   -3.6887 C   0  0  0  0  0  0  0  0  0  0  0  0
    1.0645   -1.0786   -4.5812 C   0  0  0  0  0  0  0  0  0  0  0  0
   -0.9458   -1.5518   -5.1889 H   0  0  0  0  0  0  0  0  0  0  0  0
   -1.2886   -3.2291   -3.4016 H   0  0  0  0  0  0  0  0  0  0  0  0
    0.5349   -3.7215   -1.7961 H   0  0  0  0  0  0  0  0  0  0  0  0
    2.7107   -2.5509   -1.9920 H   0  0  0  0  0  0  0  0  0  0  0  0
    3.0549   -0.8739   -3.7861 H   0  0  0  0  0  0  0  0  0  0  0  0
    1.2148   -0.3448   -5.3654 H   0  0  0  0  0  0  0  0  0  0  0  0
    2.1207   -3.1120    1.7198 S   0  0  0  0  0  0  0  0  0  0  0  0
    2.6660   -4.3074    2.3116 O   0  0  0  0  0  0  0  0  0  0  0  0
    2.8016   -2.3629    0.6778 O   0  0  0  0  0  0  0  0  0  0  0  0
    0.6190   -3.4155    1.2716 O   0  0  0  0  0  0  0  0  0  0  0  0
    1.7955   -1.8920    3.1129 C   0  0  0  0  0  0  0  0  0  0  0  0
    1.0837   -0.8643    2.6369 F   0  0  0  0  0  0  0  0  0  0  0  0
    1.1193   -2.4786    4.0927 F   0  0  0  0  0  0  0  0  0  0  0  0
    2.9578   -1.4439    3.5763 F   0  0  0  0  0  0  0  0  0  0  0  0
  1  3  2  0  0  0  0
  2  1  2  0  0  0  0
  4  3  1  0  0  0  0
  5 21  1  0  0  0  0
  6  7  1  0  0  0  0
  7 13  1  0  0  0  0
  7  8  2  0  0  0  0
  8 14  1  0  0  0  0
  9  8  1  0  0  0  0
  9 15  1  0  0  0  0
 10  9  2  0  0  0  0
 11  6  2  0  0  0  0
 11 10  1  0  0  0  0
 12  6  1  0  0  0  0
 16 10  1  0  0  0  0
 17 11  1  0  0  0  0
 18 19  2  0  0  0  0
 18 22  1  0  0  0  0
 20 18  2  0  0  0  0
 21 18  1  0  0  0  0
 22 25  1  0  0  0  0
 22 24  1  0  0  0  0
 23 22  1  0  0  0  0
M  RAD  1   2   2
M  END
