Coordinates from ORCA-job C6H6+TfO-+NH2N2+-scan
 OpenBabel10121810013D

 25 23  0  0  0  0  0  0  0  0999 V2000
   -1.2402   -1.1043   -0.6990 N   0  0  0  0  0  0  0  0  0  0  0  0
   -2.3096   -0.7471   -0.7280 N   0  0  0  0  0  0  0  0  0  0  0  0
   -0.1280   -1.6654   -0.6811 N   0  0  0  0  0  0  0  0  0  0  0  0
    0.6007   -1.0541   -1.0493 H   0  0  0  0  0  0  0  0  0  0  0  0
    0.3140   -2.7560    0.5722 H   0  0  0  0  0  0  0  0  0  0  0  0
   -0.1461   -1.7659   -4.4857 C   0  0  0  0  0  0  0  0  0  0  0  0
   -0.3340   -2.7111   -3.4786 C   0  0  0  0  0  0  0  0  0  0  0  0
    0.6763   -2.9510   -2.5442 C   0  0  0  0  0  0  0  0  0  0  0  0
    1.9132   -2.3138   -2.6844 C   0  0  0  0  0  0  0  0  0  0  0  0
    2.0971   -1.3648   -3.6909 C   0  0  0  0  0  0  0  0  0  0  0  0
    1.0659   -1.0823   -4.5873 C   0  0  0  0  0  0  0  0  0  0  0  0
   -0.9399   -1.5701   -5.1987 H   0  0  0  0  0  0  0  0  0  0  0  0
   -1.2744   -3.2478   -3.4094 H   0  0  0  0  0  0  0  0  0  0  0  0
    0.5478   -3.7211   -1.7962 H   0  0  0  0  0  0  0  0  0  0  0  0
    2.7153   -2.5356   -1.9892 H   0  0  0  0  0  0  0  0  0  0  0  0
    3.0514   -0.8577   -3.7852 H   0  0  0  0  0  0  0  0  0  0  0  0
    1.2124   -0.3482   -5.3719 H   0  0  0  0  0  0  0  0  0  0  0  0
    2.1127   -3.1177    1.7178 S   0  0  0  0  0  0  0  0  0  0  0  0
    2.6517   -4.3178    2.3060 O   0  0  0  0  0  0  0  0  0  0  0  0
    2.7946   -2.3728    0.6735 O   0  0  0  0  0  0  0  0  0  0  0  0
    0.6068   -3.4093    1.2767 O   0  0  0  0  0  0  0  0  0  0  0  0
    1.8038   -1.8966    3.1137 C   0  0  0  0  0  0  0  0  0  0  0  0
    1.0975   -0.8630    2.6423 F   0  0  0  0  0  0  0  0  0  0  0  0
    1.1281   -2.4789    4.0964 F   0  0  0  0  0  0  0  0  0  0  0  0
    2.9718   -1.4578    3.5717 F   0  0  0  0  0  0  0  0  0  0  0  0
  1  3  2  0  0  0  0
  2  1  2  0  0  0  0
  4  3  1  0  0  0  0
  5 21  1  0  0  0  0
  6  7  1  0  0  0  0
  7 13  1  0  0  0  0
  7  8  2  0  0  0  0
  8 14  1  0  0  0  0
  9  8  1  0  0  0  0
  9 15  1  0  0  0  0
 10  9  2  0  0  0  0
 11  6  2  0  0  0  0
 11 10  1  0  0  0  0
 12  6  1  0  0  0  0
 16 10  1  0  0  0  0
 17 11  1  0  0  0  0
 18 19  2  0  0  0  0
 18 22  1  0  0  0  0
 20 18  2  0  0  0  0
 21 18  1  0  0  0  0
 22 25  1  0  0  0  0
 22 24  1  0  0  0  0
 23 22  1  0  0  0  0
M  RAD  1   2   2
M  END
