Coordinates from ORCA-job C6H6+TfO-+NH2N2+-scan
 OpenBabel10121810013D

 25 23  0  0  0  0  0  0  0  0999 V2000
   -1.0756   -1.2012   -0.6805 N   0  0  0  0  0  0  0  0  0  0  0  0
   -2.1528   -0.8611   -0.6925 N   0  0  0  0  0  0  0  0  0  0  0  0
    0.0229   -1.7917   -0.7805 N   0  0  0  0  0  0  0  0  0  0  0  0
    0.7789   -1.1260   -0.9513 H   0  0  0  0  0  0  0  0  0  0  0  0
    0.5435   -2.8894    0.4602 H   0  0  0  0  0  0  0  0  0  0  0  0
   -0.1826   -1.5753   -4.4288 C   0  0  0  0  0  0  0  0  0  0  0  0
   -0.5007   -2.5311   -3.4673 C   0  0  0  0  0  0  0  0  0  0  0  0
    0.4742   -2.9702   -2.5604 C   0  0  0  0  0  0  0  0  0  0  0  0
    1.8055   -2.5718   -2.7475 C   0  0  0  0  0  0  0  0  0  0  0  0
    2.1190   -1.6136   -3.7091 C   0  0  0  0  0  0  0  0  0  0  0  0
    1.1243   -1.0995   -4.5423 C   0  0  0  0  0  0  0  0  0  0  0  0
   -0.9502   -1.2156   -5.1060 H   0  0  0  0  0  0  0  0  0  0  0  0
   -1.5137   -2.9143   -3.4006 H   0  0  0  0  0  0  0  0  0  0  0  0
    0.2525   -3.7949   -1.8976 H   0  0  0  0  0  0  0  0  0  0  0  0
    2.5864   -2.9767   -2.1131 H   0  0  0  0  0  0  0  0  0  0  0  0
    3.1459   -1.2833   -3.8235 H   0  0  0  0  0  0  0  0  0  0  0  0
    1.3718   -0.3587   -5.2942 H   0  0  0  0  0  0  0  0  0  0  0  0
    2.3068   -2.8322    1.6973 S   0  0  0  0  0  0  0  0  0  0  0  0
    3.1526   -3.8805    2.2088 O   0  0  0  0  0  0  0  0  0  0  0  0
    2.7739   -1.8224    0.7622 O   0  0  0  0  0  0  0  0  0  0  0  0
    0.9627   -3.4947    1.1413 O   0  0  0  0  0  0  0  0  0  0  0  0
    1.6096   -1.8987    3.1729 C   0  0  0  0  0  0  0  0  0  0  0  0
    0.6525   -1.0661    2.7486 F   0  0  0  0  0  0  0  0  0  0  0  0
    1.0968   -2.7458    4.0556 F   0  0  0  0  0  0  0  0  0  0  0  0
    2.5845   -1.1954    3.7393 F   0  0  0  0  0  0  0  0  0  0  0  0
  2  1  2  0  0  0  0
  3  1  2  0  0  0  0
  4  3  1  0  0  0  0
  5 21  1  0  0  0  0
  6  7  1  0  0  0  0
  7 13  1  0  0  0  0
  7  8  2  0  0  0  0
  8 14  1  0  0  0  0
  9  8  1  0  0  0  0
  9 15  1  0  0  0  0
 10  9  2  0  0  0  0
 11  6  2  0  0  0  0
 11 10  1  0  0  0  0
 12  6  1  0  0  0  0
 16 10  1  0  0  0  0
 17 11  1  0  0  0  0
 18 19  2  0  0  0  0
 18 22  1  0  0  0  0
 20 18  2  0  0  0  0
 21 18  1  0  0  0  0
 22 25  1  0  0  0  0
 22 24  1  0  0  0  0
 23 22  1  0  0  0  0
M  RAD  1   2   2
M  END
