Coordinates from ORCA-job C6H6+TfO-+NH2N2+-scan
 OpenBabel10121810013D

 25 23  0  0  0  0  0  0  0  0999 V2000
   -2.1162   -2.6359    0.1106 N   0  0  0  0  0  0  0  0  0  0  0  0
   -3.2332   -2.5791   -0.0206 N   0  0  0  0  0  0  0  0  0  0  0  0
   -0.9080   -2.6761    0.3955 N   0  0  0  0  0  0  0  0  0  0  0  0
   -0.3281   -2.8504   -0.4293 H   0  0  0  0  0  0  0  0  0  0  0  0
   -0.0745   -2.4262    1.8835 H   0  0  0  0  0  0  0  0  0  0  0  0
    0.3482   -1.1994   -3.6705 C   0  0  0  0  0  0  0  0  0  0  0  0
    0.3753   -1.9454   -4.8479 C   0  0  0  0  0  0  0  0  0  0  0  0
    1.1047   -3.1335   -4.9046 C   0  0  0  0  0  0  0  0  0  0  0  0
    1.8017   -3.5782   -3.7818 C   0  0  0  0  0  0  0  0  0  0  0  0
    1.7783   -2.8326   -2.6021 C   0  0  0  0  0  0  0  0  0  0  0  0
    1.0522   -1.6410   -2.5487 C   0  0  0  0  0  0  0  0  0  0  0  0
   -0.2104   -0.2704   -3.6297 H   0  0  0  0  0  0  0  0  0  0  0  0
   -0.1662   -1.5995   -5.7217 H   0  0  0  0  0  0  0  0  0  0  0  0
    1.1287   -3.7111   -5.8223 H   0  0  0  0  0  0  0  0  0  0  0  0
    2.3699   -4.5010   -3.8265 H   0  0  0  0  0  0  0  0  0  0  0  0
    2.3282   -3.1643   -1.7286 H   0  0  0  0  0  0  0  0  0  0  0  0
    1.0535   -1.0499   -1.6388 H   0  0  0  0  0  0  0  0  0  0  0  0
    2.0512   -2.2069    2.1462 S   0  0  0  0  0  0  0  0  0  0  0  0
    2.9270   -2.6226    3.2118 O   0  0  0  0  0  0  0  0  0  0  0  0
    2.1423   -2.7404    0.7965 O   0  0  0  0  0  0  0  0  0  0  0  0
    0.5452   -2.2951    2.6603 O   0  0  0  0  0  0  0  0  0  0  0  0
    2.2249   -0.3432    1.9783 C   0  0  0  0  0  0  0  0  0  0  0  0
    1.3078    0.1082    1.1138 F   0  0  0  0  0  0  0  0  0  0  0  0
    2.0477    0.2472    3.1532 F   0  0  0  0  0  0  0  0  0  0  0  0
    3.4386   -0.0634    1.5143 F   0  0  0  0  0  0  0  0  0  0  0  0
  1  3  2  0  0  0  0
  2  1  2  0  0  0  0
  4  3  1  0  0  0  0
  5 21  1  0  0  0  0
  6 12  1  0  0  0  0
  6 11  2  0  0  0  0
  7  6  1  0  0  0  0
  8  7  2  0  0  0  0
  8  9  1  0  0  0  0
  9 10  2  0  0  0  0
 10 11  1  0  0  0  0
 10 16  1  0  0  0  0
 11 17  1  0  0  0  0
 13  7  1  0  0  0  0
 14  8  1  0  0  0  0
 15  9  1  0  0  0  0
 18 21  1  0  0  0  0
 18 19  2  0  0  0  0
 20 18  2  0  0  0  0
 22 18  1  0  0  0  0
 22 24  1  0  0  0  0
 23 22  1  0  0  0  0
 25 22  1  0  0  0  0
M  RAD  1   2   2
M  END
