Coordinates from ORCA-job C6H6+TfO-+NH2N2+-scan
 OpenBabel10121810013D

 25 23  0  0  0  0  0  0  0  0999 V2000
   -2.1928   -2.6548    0.3037 N   0  0  0  0  0  0  0  0  0  0  0  0
   -3.3130   -2.5932    0.2069 N   0  0  0  0  0  0  0  0  0  0  0  0
   -0.9768   -2.7002    0.5529 N   0  0  0  0  0  0  0  0  0  0  0  0
   -0.4217   -2.8816   -0.2865 H   0  0  0  0  0  0  0  0  0  0  0  0
   -0.0824   -2.4399    2.0067 H   0  0  0  0  0  0  0  0  0  0  0  0
    0.4133   -1.1707   -3.7349 C   0  0  0  0  0  0  0  0  0  0  0  0
    0.4792   -1.8988   -4.9221 C   0  0  0  0  0  0  0  0  0  0  0  0
    1.1826   -3.1029   -4.9641 C   0  0  0  0  0  0  0  0  0  0  0  0
    1.8142   -3.5816   -3.8167 C   0  0  0  0  0  0  0  0  0  0  0  0
    1.7515   -2.8539   -2.6273 C   0  0  0  0  0  0  0  0  0  0  0  0
    1.0519   -1.6465   -2.5887 C   0  0  0  0  0  0  0  0  0  0  0  0
   -0.1250   -0.2293   -3.7054 H   0  0  0  0  0  0  0  0  0  0  0  0
   -0.0116   -1.5263   -5.8148 H   0  0  0  0  0  0  0  0  0  0  0  0
    1.2374   -3.6665   -5.8892 H   0  0  0  0  0  0  0  0  0  0  0  0
    2.3624   -4.5169   -3.8496 H   0  0  0  0  0  0  0  0  0  0  0  0
    2.2528   -3.2113   -1.7349 H   0  0  0  0  0  0  0  0  0  0  0  0
    1.0262   -1.0680   -1.6709 H   0  0  0  0  0  0  0  0  0  0  0  0
    2.0526   -2.2114    2.1408 S   0  0  0  0  0  0  0  0  0  0  0  0
    2.9946   -2.5902    3.1627 O   0  0  0  0  0  0  0  0  0  0  0  0
    2.0722   -2.7764    0.8010 O   0  0  0  0  0  0  0  0  0  0  0  0
    0.5809   -2.3068    2.7456 O   0  0  0  0  0  0  0  0  0  0  0  0
    2.1881   -0.3503    1.9174 C   0  0  0  0  0  0  0  0  0  0  0  0
    1.2070    0.0664    1.1070 F   0  0  0  0  0  0  0  0  0  0  0  0
    2.0824    0.2669    3.0869 F   0  0  0  0  0  0  0  0  0  0  0  0
    3.3627   -0.0661    1.3645 F   0  0  0  0  0  0  0  0  0  0  0  0
  1  3  2  0  0  0  0
  2  1  2  0  0  0  0
  4  3  1  0  0  0  0
  5 21  1  0  0  0  0
  6 12  1  0  0  0  0
  6 11  2  0  0  0  0
  7  6  1  0  0  0  0
  8  7  2  0  0  0  0
  8  9  1  0  0  0  0
  9 10  2  0  0  0  0
 10 11  1  0  0  0  0
 10 16  1  0  0  0  0
 11 17  1  0  0  0  0
 13  7  1  0  0  0  0
 14  8  1  0  0  0  0
 15  9  1  0  0  0  0
 18 21  1  0  0  0  0
 18 19  2  0  0  0  0
 20 18  2  0  0  0  0
 22 18  1  0  0  0  0
 22 24  1  0  0  0  0
 23 22  1  0  0  0  0
 25 22  1  0  0  0  0
M  RAD  1   2   2
M  END
