Coordinates from ORCA-job C6H6+TfO-+NH2N2+-scan
 OpenBabel10121810013D

 25 23  0  0  0  0  0  0  0  0999 V2000
   -1.9438   -2.6668   -0.1901 N   0  0  0  0  0  0  0  0  0  0  0  0
   -3.0561   -2.6100   -0.3579 N   0  0  0  0  0  0  0  0  0  0  0  0
   -0.7453   -2.7162    0.1305 N   0  0  0  0  0  0  0  0  0  0  0  0
   -0.1397   -2.8309   -0.6885 H   0  0  0  0  0  0  0  0  0  0  0  0
   -0.0059   -2.4898    1.6647 H   0  0  0  0  0  0  0  0  0  0  0  0
    0.3048   -1.1446   -3.6442 C   0  0  0  0  0  0  0  0  0  0  0  0
    0.2401   -1.9980   -4.7444 C   0  0  0  0  0  0  0  0  0  0  0  0
    0.9351   -3.2079   -4.7307 C   0  0  0  0  0  0  0  0  0  0  0  0
    1.6938   -3.5647   -3.6171 C   0  0  0  0  0  0  0  0  0  0  0  0
    1.7629   -2.7115   -2.5135 C   0  0  0  0  0  0  0  0  0  0  0  0
    1.0671   -1.4999   -2.5294 C   0  0  0  0  0  0  0  0  0  0  0  0
   -0.2299   -0.2009   -3.6568 H   0  0  0  0  0  0  0  0  0  0  0  0
   -0.3479   -1.7206   -5.6125 H   0  0  0  0  0  0  0  0  0  0  0  0
    0.8859   -3.8701   -5.5884 H   0  0  0  0  0  0  0  0  0  0  0  0
    2.2371   -4.5032   -3.6083 H   0  0  0  0  0  0  0  0  0  0  0  0
    2.3569   -2.9808   -1.6473 H   0  0  0  0  0  0  0  0  0  0  0  0
    1.1216   -0.8323   -1.6759 H   0  0  0  0  0  0  0  0  0  0  0  0
    2.0789   -2.2392    2.1622 S   0  0  0  0  0  0  0  0  0  0  0  0
    2.8376   -2.6490    3.3164 O   0  0  0  0  0  0  0  0  0  0  0  0
    2.3311   -2.7569    0.8275 O   0  0  0  0  0  0  0  0  0  0  0  0
    0.5280   -2.3581    2.5043 O   0  0  0  0  0  0  0  0  0  0  0  0
    2.2402   -0.3716    2.0298 C   0  0  0  0  0  0  0  0  0  0  0  0
    1.4167    0.0771    1.0739 F   0  0  0  0  0  0  0  0  0  0  0  0
    1.9267    0.2052    3.1830 F   0  0  0  0  0  0  0  0  0  0  0  0
    3.4930   -0.0694    1.7038 F   0  0  0  0  0  0  0  0  0  0  0  0
  1  3  2  0  0  0  0
  2  1  2  0  0  0  0
  4  3  1  0  0  0  0
  5 21  1  0  0  0  0
  6 11  2  0  0  0  0
  7  8  2  0  0  0  0
  7  6  1  0  0  0  0
  8  9  1  0  0  0  0
  9 15  1  0  0  0  0
  9 10  2  0  0  0  0
 10 16  1  0  0  0  0
 11 10  1  0  0  0  0
 11 17  1  0  0  0  0
 12  6  1  0  0  0  0
 13  7  1  0  0  0  0
 14  8  1  0  0  0  0
 18 21  1  0  0  0  0
 18 19  2  0  0  0  0
 20 18  2  0  0  0  0
 22 18  1  0  0  0  0
 22 24  1  0  0  0  0
 23 22  1  0  0  0  0
 25 22  1  0  0  0  0
M  RAD  1   2   2
M  END
