Coordinates from ORCA-job C6H6+TfO-+NH2N2+-scan
 OpenBabel10121810013D

 25 23  0  0  0  0  0  0  0  0999 V2000
   -1.8212   -2.6553   -0.3085 N   0  0  0  0  0  0  0  0  0  0  0  0
   -2.9275   -2.5587   -0.4970 N   0  0  0  0  0  0  0  0  0  0  0  0
   -0.6327   -2.7614    0.0335 N   0  0  0  0  0  0  0  0  0  0  0  0
   -0.0092   -2.8182   -0.7790 H   0  0  0  0  0  0  0  0  0  0  0  0
    0.0697   -2.6115    1.5871 H   0  0  0  0  0  0  0  0  0  0  0  0
    0.3982   -1.0931   -3.6366 C   0  0  0  0  0  0  0  0  0  0  0  0
    0.1738   -1.9942   -4.6765 C   0  0  0  0  0  0  0  0  0  0  0  0
    0.7627   -3.2587   -4.6440 C   0  0  0  0  0  0  0  0  0  0  0  0
    1.5747   -3.6231   -3.5711 C   0  0  0  0  0  0  0  0  0  0  0  0
    1.8033   -2.7225   -2.5281 C   0  0  0  0  0  0  0  0  0  0  0  0
    1.2134   -1.4560   -2.5629 C   0  0  0  0  0  0  0  0  0  0  0  0
   -0.0539   -0.1076   -3.6652 H   0  0  0  0  0  0  0  0  0  0  0  0
   -0.4560   -1.7112   -5.5129 H   0  0  0  0  0  0  0  0  0  0  0  0
    0.5895   -3.9575   -5.4552 H   0  0  0  0  0  0  0  0  0  0  0  0
    2.0360   -4.6043   -3.5478 H   0  0  0  0  0  0  0  0  0  0  0  0
    2.4382   -2.9975   -1.6932 H   0  0  0  0  0  0  0  0  0  0  0  0
    1.3956   -0.7529   -1.7571 H   0  0  0  0  0  0  0  0  0  0  0  0
    2.1175   -2.2224    2.1518 S   0  0  0  0  0  0  0  0  0  0  0  0
    2.8813   -2.6053    3.3119 O   0  0  0  0  0  0  0  0  0  0  0  0
    2.4531   -2.6600    0.8069 O   0  0  0  0  0  0  0  0  0  0  0  0
    0.5775   -2.4989    2.4463 O   0  0  0  0  0  0  0  0  0  0  0  0
    2.1035   -0.3444    2.0919 C   0  0  0  0  0  0  0  0  0  0  0  0
    1.2608    0.0600    1.1326 F   0  0  0  0  0  0  0  0  0  0  0  0
    1.7124    0.1559    3.2570 F   0  0  0  0  0  0  0  0  0  0  0  0
    3.3281    0.0884    1.8073 F   0  0  0  0  0  0  0  0  0  0  0  0
  1  3  2  0  0  0  0
  2  1  2  0  0  0  0
  4  3  1  0  0  0  0
  5 21  1  0  0  0  0
  6 11  2  0  0  0  0
  7  8  2  0  0  0  0
  7  6  1  0  0  0  0
  8  9  1  0  0  0  0
  9 15  1  0  0  0  0
  9 10  2  0  0  0  0
 10 16  1  0  0  0  0
 11 10  1  0  0  0  0
 11 17  1  0  0  0  0
 12  6  1  0  0  0  0
 13  7  1  0  0  0  0
 14  8  1  0  0  0  0
 18 21  1  0  0  0  0
 18 19  2  0  0  0  0
 20 18  2  0  0  0  0
 22 18  1  0  0  0  0
 22 24  1  0  0  0  0
 23 22  1  0  0  0  0
 25 22  1  0  0  0  0
M  RAD  1   2   2
M  END
