Coordinates from ORCA-job C6H6+TfO-+NH2N2+-scan
 OpenBabel10121810013D

 25 23  0  0  0  0  0  0  0  0999 V2000
   -1.6275   -3.0120   -0.8659 N   0  0  0  0  0  0  0  0  0  0  0  0
   -2.7185   -3.0547   -1.1443 N   0  0  0  0  0  0  0  0  0  0  0  0
   -0.4675   -2.9741   -0.4316 N   0  0  0  0  0  0  0  0  0  0  0  0
    0.2228   -2.9483   -1.1886 H   0  0  0  0  0  0  0  0  0  0  0  0
    0.0539   -2.7723    1.1773 H   0  0  0  0  0  0  0  0  0  0  0  0
    0.6850   -0.8730   -3.3852 C   0  0  0  0  0  0  0  0  0  0  0  0
   -0.1198   -1.8675   -3.9425 C   0  0  0  0  0  0  0  0  0  0  0  0
    0.2474   -3.2083   -3.8233 C   0  0  0  0  0  0  0  0  0  0  0  0
    1.4257   -3.5540   -3.1576 C   0  0  0  0  0  0  0  0  0  0  0  0
    2.2277   -2.5587   -2.5945 C   0  0  0  0  0  0  0  0  0  0  0  0
    1.8538   -1.2185   -2.7074 C   0  0  0  0  0  0  0  0  0  0  0  0
    0.3982    0.1690   -3.4739 H   0  0  0  0  0  0  0  0  0  0  0  0
   -1.0298   -1.5989   -4.4677 H   0  0  0  0  0  0  0  0  0  0  0  0
   -0.3743   -3.9817   -4.2613 H   0  0  0  0  0  0  0  0  0  0  0  0
    1.7158   -4.5953   -3.0713 H   0  0  0  0  0  0  0  0  0  0  0  0
    3.1250   -2.8267   -2.0503 H   0  0  0  0  0  0  0  0  0  0  0  0
    2.4706   -0.4479   -2.2595 H   0  0  0  0  0  0  0  0  0  0  0  0
    1.9777   -2.2595    2.0236 S   0  0  0  0  0  0  0  0  0  0  0  0
    2.5680   -2.5277    3.3110 O   0  0  0  0  0  0  0  0  0  0  0  0
    2.5482   -2.7421    0.7782 O   0  0  0  0  0  0  0  0  0  0  0  0
    0.4296   -2.6211    2.0978 O   0  0  0  0  0  0  0  0  0  0  0  0
    1.8622   -0.3924    1.8469 C   0  0  0  0  0  0  0  0  0  0  0  0
    1.1299   -0.0937    0.7673 F   0  0  0  0  0  0  0  0  0  0  0  0
    1.2971    0.1442    2.9216 F   0  0  0  0  0  0  0  0  0  0  0  0
    3.0875    0.1048    1.6925 F   0  0  0  0  0  0  0  0  0  0  0  0
  1  3  2  0  0  0  0
  2  1  2  0  0  0  0
  4  3  1  0  0  0  0
  5 21  1  0  0  0  0
  6 11  2  0  0  0  0
  7  8  2  0  0  0  0
  7  6  1  0  0  0  0
  8  9  1  0  0  0  0
  9 15  1  0  0  0  0
  9 10  2  0  0  0  0
 10 16  1  0  0  0  0
 11 10  1  0  0  0  0
 11 17  1  0  0  0  0
 12  6  1  0  0  0  0
 13  7  1  0  0  0  0
 14  8  1  0  0  0  0
 18 21  1  0  0  0  0
 18 19  2  0  0  0  0
 20 18  2  0  0  0  0
 22 18  1  0  0  0  0
 22 24  1  0  0  0  0
 23 22  1  0  0  0  0
 25 22  1  0  0  0  0
M  RAD  1   2   2
M  END
