Coordinates from ORCA-job C6H6+TfO-+NH2N2+-scan
 OpenBabel10121810013D

 25 23  0  0  0  0  0  0  0  0999 V2000
   -1.7312   -2.7084   -0.4706 N   0  0  0  0  0  0  0  0  0  0  0  0
   -2.8344   -2.6259   -0.6837 N   0  0  0  0  0  0  0  0  0  0  0  0
   -0.5499   -2.8039   -0.1030 N   0  0  0  0  0  0  0  0  0  0  0  0
    0.0958   -2.8200   -0.9009 H   0  0  0  0  0  0  0  0  0  0  0  0
    0.1013   -2.6613    1.4673 H   0  0  0  0  0  0  0  0  0  0  0  0
    0.4508   -1.0401   -3.6221 C   0  0  0  0  0  0  0  0  0  0  0  0
    0.0808   -2.0022   -4.5615 C   0  0  0  0  0  0  0  0  0  0  0  0
    0.6040   -3.2932   -4.4832 C   0  0  0  0  0  0  0  0  0  0  0  0
    1.4988   -3.6222   -3.4652 C   0  0  0  0  0  0  0  0  0  0  0  0
    1.8731   -2.6606   -2.5233 C   0  0  0  0  0  0  0  0  0  0  0  0
    1.3460   -1.3685   -2.6028 C   0  0  0  0  0  0  0  0  0  0  0  0
    0.0472   -0.0355   -3.6863 H   0  0  0  0  0  0  0  0  0  0  0  0
   -0.6128   -1.7461   -5.3550 H   0  0  0  0  0  0  0  0  0  0  0  0
    0.3169   -4.0396   -5.2157 H   0  0  0  0  0  0  0  0  0  0  0  0
    1.9104   -4.6239   -3.4065 H   0  0  0  0  0  0  0  0  0  0  0  0
    2.5675   -2.9106   -1.7290 H   0  0  0  0  0  0  0  0  0  0  0  0
    1.6346   -0.6224   -1.8705 H   0  0  0  0  0  0  0  0  0  0  0  0
    2.1113   -2.2334    2.1408 S   0  0  0  0  0  0  0  0  0  0  0  0
    2.8238   -2.6138    3.3342 O   0  0  0  0  0  0  0  0  0  0  0  0
    2.5295   -2.6403    0.8096 O   0  0  0  0  0  0  0  0  0  0  0  0
    0.5669   -2.5544    2.3518 O   0  0  0  0  0  0  0  0  0  0  0  0
    2.0497   -0.3558    2.1068 C   0  0  0  0  0  0  0  0  0  0  0  0
    1.2532    0.0415    1.1061 F   0  0  0  0  0  0  0  0  0  0  0  0
    1.5791    0.1162    3.2543 F   0  0  0  0  0  0  0  0  0  0  0  0
    3.2766    0.1139    1.8996 F   0  0  0  0  0  0  0  0  0  0  0  0
  1  3  2  0  0  0  0
  2  1  2  0  0  0  0
  4  3  1  0  0  0  0
  5 21  1  0  0  0  0
  6 11  2  0  0  0  0
  7  8  2  0  0  0  0
  7  6  1  0  0  0  0
  8  9  1  0  0  0  0
  9 15  1  0  0  0  0
  9 10  2  0  0  0  0
 10 16  1  0  0  0  0
 11 10  1  0  0  0  0
 11 17  1  0  0  0  0
 12  6  1  0  0  0  0
 13  7  1  0  0  0  0
 14  8  1  0  0  0  0
 18 21  1  0  0  0  0
 18 19  2  0  0  0  0
 20 18  2  0  0  0  0
 22 18  1  0  0  0  0
 22 24  1  0  0  0  0
 23 22  1  0  0  0  0
 25 22  1  0  0  0  0
M  RAD  1   2   2
M  END
