Coordinates from ORCA-job C6H6+TfO-+NH2N2+-scan
 OpenBabel10121810013D

 25 23  0  0  0  0  0  0  0  0999 V2000
   -1.5880   -2.8622   -0.8052 N   0  0  0  0  0  0  0  0  0  0  0  0
   -2.6794   -2.8245   -1.0825 N   0  0  0  0  0  0  0  0  0  0  0  0
   -0.4291   -2.9175   -0.3679 N   0  0  0  0  0  0  0  0  0  0  0  0
    0.2674   -2.8821   -1.1195 H   0  0  0  0  0  0  0  0  0  0  0  0
    0.1131   -2.7762    1.2404 H   0  0  0  0  0  0  0  0  0  0  0  0
    0.6367   -0.9348   -3.4583 C   0  0  0  0  0  0  0  0  0  0  0  0
   -0.0988   -1.9235   -4.1130 C   0  0  0  0  0  0  0  0  0  0  0  0
    0.2827   -3.2614   -4.0076 C   0  0  0  0  0  0  0  0  0  0  0  0
    1.4046   -3.6107   -3.2539 C   0  0  0  0  0  0  0  0  0  0  0  0
    2.1385   -2.6221   -2.5939 C   0  0  0  0  0  0  0  0  0  0  0  0
    1.7508   -1.2841   -2.6952 C   0  0  0  0  0  0  0  0  0  0  0  0
    0.3394    0.1050   -3.5387 H   0  0  0  0  0  0  0  0  0  0  0  0
   -0.9669   -1.6526   -4.7039 H   0  0  0  0  0  0  0  0  0  0  0  0
   -0.2869   -4.0294   -4.5195 H   0  0  0  0  0  0  0  0  0  0  0  0
    1.7054   -4.6496   -3.1754 H   0  0  0  0  0  0  0  0  0  0  0  0
    2.9927   -2.8917   -1.9845 H   0  0  0  0  0  0  0  0  0  0  0  0
    2.3143   -0.5200   -2.1722 H   0  0  0  0  0  0  0  0  0  0  0  0
    2.0431   -2.2303    2.0506 S   0  0  0  0  0  0  0  0  0  0  0  0
    2.6909   -2.5492    3.2980 O   0  0  0  0  0  0  0  0  0  0  0  0
    2.5868   -2.6143    0.7591 O   0  0  0  0  0  0  0  0  0  0  0  0
    0.5148   -2.6618    2.1553 O   0  0  0  0  0  0  0  0  0  0  0  0
    1.8470   -0.3628    1.9892 C   0  0  0  0  0  0  0  0  0  0  0  0
    1.0779   -0.0332    0.9446 F   0  0  0  0  0  0  0  0  0  0  0  0
    1.2851    0.0844    3.1056 F   0  0  0  0  0  0  0  0  0  0  0  0
    3.0466    0.1940    1.8396 F   0  0  0  0  0  0  0  0  0  0  0  0
  1  3  2  0  0  0  0
  2  1  2  0  0  0  0
  4  3  1  0  0  0  0
  5 21  1  0  0  0  0
  6 11  2  0  0  0  0
  7  8  2  0  0  0  0
  7  6  1  0  0  0  0
  8  9  1  0  0  0  0
  9 15  1  0  0  0  0
  9 10  2  0  0  0  0
 10 16  1  0  0  0  0
 11 10  1  0  0  0  0
 11 17  1  0  0  0  0
 12  6  1  0  0  0  0
 13  7  1  0  0  0  0
 14  8  1  0  0  0  0
 18 21  1  0  0  0  0
 18 19  2  0  0  0  0
 20 18  2  0  0  0  0
 22 18  1  0  0  0  0
 22 24  1  0  0  0  0
 23 22  1  0  0  0  0
 25 22  1  0  0  0  0
M  RAD  1   2   2
M  END
