Coordinates from ORCA-job C6H6+TfO-+NH2N2+-scan
 OpenBabel10121810013D

 25 23  0  0  0  0  0  0  0  0999 V2000
   -1.9815   -2.6423   -0.1070 N   0  0  0  0  0  0  0  0  0  0  0  0
   -3.0953   -2.5720   -0.2585 N   0  0  0  0  0  0  0  0  0  0  0  0
   -0.7792   -2.7053    0.1975 N   0  0  0  0  0  0  0  0  0  0  0  0
   -0.1869   -2.8332   -0.6287 H   0  0  0  0  0  0  0  0  0  0  0  0
   -0.0133   -2.4917    1.7232 H   0  0  0  0  0  0  0  0  0  0  0  0
    0.3153   -1.1549   -3.6620 C   0  0  0  0  0  0  0  0  0  0  0  0
    0.2809   -1.9868   -4.7800 C   0  0  0  0  0  0  0  0  0  0  0  0
    0.9828   -3.1928   -4.7742 C   0  0  0  0  0  0  0  0  0  0  0  0
    1.7166   -3.5679   -3.6498 C   0  0  0  0  0  0  0  0  0  0  0  0
    1.7554   -2.7361   -2.5287 C   0  0  0  0  0  0  0  0  0  0  0  0
    1.0539   -1.5279   -2.5373 C   0  0  0  0  0  0  0  0  0  0  0  0
   -0.2238   -0.2136   -3.6690 H   0  0  0  0  0  0  0  0  0  0  0  0
   -0.2882   -1.6952   -5.6560 H   0  0  0  0  0  0  0  0  0  0  0  0
    0.9578   -3.8379   -5.6458 H   0  0  0  0  0  0  0  0  0  0  0  0
    2.2647   -4.5037   -3.6468 H   0  0  0  0  0  0  0  0  0  0  0  0
    2.3322   -3.0176   -1.6548 H   0  0  0  0  0  0  0  0  0  0  0  0
    1.0911   -0.8742   -1.6721 H   0  0  0  0  0  0  0  0  0  0  0  0
    2.0828   -2.2384    2.1587 S   0  0  0  0  0  0  0  0  0  0  0  0
    2.8788   -2.6399    3.2904 O   0  0  0  0  0  0  0  0  0  0  0  0
    2.2968   -2.7589    0.8184 O   0  0  0  0  0  0  0  0  0  0  0  0
    0.5436   -2.3671    2.5484 O   0  0  0  0  0  0  0  0  0  0  0  0
    2.2259   -0.3701    2.0155 C   0  0  0  0  0  0  0  0  0  0  0  0
    1.3633    0.0694    1.0902 F   0  0  0  0  0  0  0  0  0  0  0  0
    1.9520    0.2077    3.1781 F   0  0  0  0  0  0  0  0  0  0  0  0
    3.4632   -0.0598    1.6414 F   0  0  0  0  0  0  0  0  0  0  0  0
  1  3  2  0  0  0  0
  2  1  2  0  0  0  0
  4  3  1  0  0  0  0
  5 21  1  0  0  0  0
  6 11  2  0  0  0  0
  7  8  2  0  0  0  0
  7  6  1  0  0  0  0
  8  9  1  0  0  0  0
  9 15  1  0  0  0  0
  9 10  2  0  0  0  0
 10 16  1  0  0  0  0
 11 10  1  0  0  0  0
 11 17  1  0  0  0  0
 12  6  1  0  0  0  0
 13  7  1  0  0  0  0
 14  8  1  0  0  0  0
 18 21  1  0  0  0  0
 18 19  2  0  0  0  0
 20 18  2  0  0  0  0
 22 18  1  0  0  0  0
 22 24  1  0  0  0  0
 23 22  1  0  0  0  0
 25 22  1  0  0  0  0
M  RAD  1   2   2
M  END
