Coordinates from ORCA-job C6H6+TfO-+NH2N2+-scan
 OpenBabel10121810013D

 25 23  0  0  0  0  0  0  0  0999 V2000
   -1.5890   -2.8376   -0.7797 N   0  0  0  0  0  0  0  0  0  0  0  0
   -2.6814   -2.7873   -1.0510 N   0  0  0  0  0  0  0  0  0  0  0  0
   -0.4285   -2.9061   -0.3486 N   0  0  0  0  0  0  0  0  0  0  0  0
    0.2649   -2.8738   -1.1038 H   0  0  0  0  0  0  0  0  0  0  0  0
    0.1231   -2.7692    1.2567 H   0  0  0  0  0  0  0  0  0  0  0  0
    0.6153   -0.9465   -3.4709 C   0  0  0  0  0  0  0  0  0  0  0  0
   -0.0862   -1.9339   -4.1637 C   0  0  0  0  0  0  0  0  0  0  0  0
    0.3065   -3.2690   -4.0639 C   0  0  0  0  0  0  0  0  0  0  0  0
    1.4056   -3.6171   -3.2772 C   0  0  0  0  0  0  0  0  0  0  0  0
    2.1059   -2.6300   -2.5793 C   0  0  0  0  0  0  0  0  0  0  0  0
    1.7068   -1.2947   -2.6751 C   0  0  0  0  0  0  0  0  0  0  0  0
    0.3094    0.0910   -3.5472 H   0  0  0  0  0  0  0  0  0  0  0  0
   -0.9367   -1.6640   -4.7800 H   0  0  0  0  0  0  0  0  0  0  0  0
   -0.2371   -4.0355   -4.6055 H   0  0  0  0  0  0  0  0  0  0  0  0
    1.7146   -4.6539   -3.2028 H   0  0  0  0  0  0  0  0  0  0  0  0
    2.9416   -2.8984   -1.9442 H   0  0  0  0  0  0  0  0  0  0  0  0
    2.2439   -0.5324   -2.1226 H   0  0  0  0  0  0  0  0  0  0  0  0
    2.0569   -2.2279    2.0623 S   0  0  0  0  0  0  0  0  0  0  0  0
    2.7075   -2.5492    3.3077 O   0  0  0  0  0  0  0  0  0  0  0  0
    2.5974   -2.6104    0.7691 O   0  0  0  0  0  0  0  0  0  0  0  0
    0.5286   -2.6582    2.1703 O   0  0  0  0  0  0  0  0  0  0  0  0
    1.8626   -0.3600    2.0041 C   0  0  0  0  0  0  0  0  0  0  0  0
    1.0916   -0.0282    0.9614 F   0  0  0  0  0  0  0  0  0  0  0  0
    1.3032    0.0862    3.1222 F   0  0  0  0  0  0  0  0  0  0  0  0
    3.0623    0.1959    1.8528 F   0  0  0  0  0  0  0  0  0  0  0  0
  1  3  2  0  0  0  0
  2  1  2  0  0  0  0
  4  3  1  0  0  0  0
  5 21  1  0  0  0  0
  6 11  2  0  0  0  0
  7  8  2  0  0  0  0
  7  6  1  0  0  0  0
  8  9  1  0  0  0  0
  9 15  1  0  0  0  0
  9 10  2  0  0  0  0
 10 16  1  0  0  0  0
 11 10  1  0  0  0  0
 11 17  1  0  0  0  0
 12  6  1  0  0  0  0
 13  7  1  0  0  0  0
 14  8  1  0  0  0  0
 18 21  1  0  0  0  0
 18 19  2  0  0  0  0
 20 18  2  0  0  0  0
 22 18  1  0  0  0  0
 22 24  1  0  0  0  0
 23 22  1  0  0  0  0
 25 22  1  0  0  0  0
M  RAD  1   2   2
M  END
