Coordinates from ORCA-job C6H6+TfO-+NH2N2+-scan
 OpenBabel10121810013D

 25 23  0  0  0  0  0  0  0  0999 V2000
   -2.1089   -0.7588    1.1605 N   0  0  0  0  0  0  0  0  0  0  0  0
   -1.6929   -0.9610    0.1679 N   0  0  0  0  0  0  0  0  0  0  0  0
    1.5771   -2.4258   -1.1467 N   0  0  0  0  0  0  0  0  0  0  0  0
    2.4758   -2.2872   -0.6602 H   0  0  0  0  0  0  0  0  0  0  0  0
    0.9086   -2.8167   -0.4063 H   0  0  0  0  0  0  0  0  0  0  0  0
   -0.2335   -2.1416   -4.2593 C   0  0  0  0  0  0  0  0  0  0  0  0
   -0.0348   -2.4637   -2.8120 C   0  0  0  0  0  0  0  0  0  0  0  0
    1.3579   -2.2017   -2.2430 C   0  0  0  0  0  0  0  0  0  0  0  0
    2.3638   -1.6600   -3.1612 C   0  0  0  0  0  0  0  0  0  0  0  0
    2.0664   -1.4067   -4.4517 C   0  0  0  0  0  0  0  0  0  0  0  0
    0.7503   -1.6468   -5.0213 C   0  0  0  0  0  0  0  0  0  0  0  0
   -1.2203   -2.3267   -4.6695 H   0  0  0  0  0  0  0  0  0  0  0  0
   -0.7562   -1.9035   -2.2028 H   0  0  0  0  0  0  0  0  0  0  0  0
   -0.2816   -3.5183   -2.6307 H   0  0  0  0  0  0  0  0  0  0  0  0
    3.3551   -1.4721   -2.7615 H   0  0  0  0  0  0  0  0  0  0  0  0
    2.8390   -1.0061   -5.0998 H   0  0  0  0  0  0  0  0  0  0  0  0
    0.5860   -1.4184   -6.0673 H   0  0  0  0  0  0  0  0  0  0  0  0
    1.6550   -3.1825    1.9642 S   0  0  0  0  0  0  0  0  0  0  0  0
    1.8551   -4.3016    2.8703 O   0  0  0  0  0  0  0  0  0  0  0  0
    2.8445   -2.6685    1.2387 O   0  0  0  0  0  0  0  0  0  0  0  0
    0.4732   -3.3065    1.0386 O   0  0  0  0  0  0  0  0  0  0  0  0
    1.1488   -1.7364    3.0417 C   0  0  0  0  0  0  0  0  0  0  0  0
    0.9192   -0.6532    2.2726 F   0  0  0  0  0  0  0  0  0  0  0  0
    0.0288   -2.0131    3.7154 F   0  0  0  0  0  0  0  0  0  0  0  0
    2.1122   -1.4337    3.9145 F   0  0  0  0  0  0  0  0  0  0  0  0
  2  1  3  0  0  0  0
  3  4  1  0  0  0  0
  3  5  1  0  0  0  0
  6  7  1  0  0  0  0
  7 14  1  0  0  0  0
  7  8  1  0  0  0  0
  7 13  1  0  0  0  0
  8  3  1  0  0  0  0
  9 15  1  0  0  0  0
  9  8  2  0  0  0  0
 10  9  1  0  0  0  0
 11 10  1  0  0  0  0
 11  6  2  0  0  0  0
 12  6  1  0  0  0  0
 16 10  1  0  0  0  0
 17 11  1  0  0  0  0
 18 19  1  0  0  0  0
 18 22  1  0  0  0  0
 20 18  2  0  0  0  0
 21 18  2  0  0  0  0
 22 24  1  0  0  0  0
 22 25  1  0  0  0  0
 23 22  1  0  0  0  0
M  RAD  2  10   2  19   2
M  END
