Coordinates from ORCA-job C6H6+TfO-+NH2N2+-scan
 OpenBabel10121810013D

 25 23  0  0  0  0  0  0  0  0999 V2000
   -1.1817   -1.4199    0.7473 N   0  0  0  0  0  0  0  0  0  0  0  0
   -1.9660   -0.9152    0.1161 N   0  0  0  0  0  0  0  0  0  0  0  0
   -0.2617   -1.8461    1.4640 N   0  0  0  0  0  0  0  0  0  0  0  0
   -0.1333   -2.8561    1.3748 H   0  0  0  0  0  0  0  0  0  0  0  0
    0.4093   -1.3839    3.0142 H   0  0  0  0  0  0  0  0  0  0  0  0
   -0.6549   -2.7263   -5.4411 C   0  0  0  0  0  0  0  0  0  0  0  0
    0.5852   -3.3600   -5.3720 C   0  0  0  0  0  0  0  0  0  0  0  0
    1.7440   -2.6064   -5.1887 C   0  0  0  0  0  0  0  0  0  0  0  0
    1.6625   -1.2191   -5.0742 C   0  0  0  0  0  0  0  0  0  0  0  0
    0.4223   -0.5855   -5.1433 C   0  0  0  0  0  0  0  0  0  0  0  0
   -0.7364   -1.3390   -5.3267 C   0  0  0  0  0  0  0  0  0  0  0  0
   -1.5562   -3.3122   -5.5862 H   0  0  0  0  0  0  0  0  0  0  0  0
    0.6488   -4.4390   -5.4630 H   0  0  0  0  0  0  0  0  0  0  0  0
    2.7089   -3.0992   -5.1366 H   0  0  0  0  0  0  0  0  0  0  0  0
    2.5640   -0.6326   -4.9335 H   0  0  0  0  0  0  0  0  0  0  0  0
    0.3590    0.4939   -5.0563 H   0  0  0  0  0  0  0  0  0  0  0  0
   -1.7009   -0.8459   -5.3820 H   0  0  0  0  0  0  0  0  0  0  0  0
    1.6520   -2.7693    4.0932 S   0  0  0  0  0  0  0  0  0  0  0  0
    1.7531   -3.0453    5.5032 O   0  0  0  0  0  0  0  0  0  0  0  0
    1.1650   -3.7486    3.1330 O   0  0  0  0  0  0  0  0  0  0  0  0
    0.8710   -1.3893    3.9005 O   0  0  0  0  0  0  0  0  0  0  0  0
    3.3582   -2.2531    3.4971 C   0  0  0  0  0  0  0  0  0  0  0  0
    3.2682   -1.8050    2.2434 F   0  0  0  0  0  0  0  0  0  0  0  0
    3.8458   -1.2959    4.2764 F   0  0  0  0  0  0  0  0  0  0  0  0
    4.1624   -3.3114    3.5316 F   0  0  0  0  0  0  0  0  0  0  0  0
  1  3  2  0  0  0  0
  2  1  2  0  0  0  0
  4  3  1  0  0  0  0
  5 21  1  0  0  0  0
  6  7  2  0  0  0  0
  6 11  1  0  0  0  0
  7  8  1  0  0  0  0
  8 14  1  0  0  0  0
  8  9  2  0  0  0  0
  9 15  1  0  0  0  0
 10  9  1  0  0  0  0
 10 16  1  0  0  0  0
 11 10  2  0  0  0  0
 12  6  1  0  0  0  0
 13  7  1  0  0  0  0
 17 11  1  0  0  0  0
 18 19  2  0  0  0  0
 20 18  2  0  0  0  0
 21 18  1  0  0  0  0
 22 25  1  0  0  0  0
 22 18  1  0  0  0  0
 22 24  1  0  0  0  0
 23 22  1  0  0  0  0
M  RAD  1   2   2
M  END
