Coordinates from ORCA-job C6H6+TfO-+NH2N2+-scan
 OpenBabel10121810013D

 25 25  0  0  1  0  0  0  0  0999 V2000
   -1.1609   -1.1020   -1.1341 N   0  0  0  0  0  0  0  0  0  0  0  0
   -1.5538   -1.5357   -2.2074 N   0  0  0  0  0  0  0  0  0  0  0  0
    0.0955   -1.5494   -0.7063 N   0  0  0  0  0  0  0  0  0  0  0  0
    0.6780   -0.7340   -0.5080 H   0  0  0  0  0  0  0  0  0  0  0  0
    0.0771   -2.4768    0.6103 H   0  0  0  0  0  0  0  0  0  0  0  0
   -0.2761   -1.7628   -4.2813 C   0  0  0  0  0  0  0  0  0  0  0  0
   -0.5005   -2.3945   -2.9408 C   0  0  1  0  0  0  0  0  0  0  0  0
    0.7267   -2.4875   -2.0436 C   0  0  1  0  0  0  0  0  0  0  0  0
    1.9951   -1.9049   -2.5323 C   0  0  0  0  0  0  0  0  0  0  0  0
    2.0679   -1.3202   -3.7389 C   0  0  0  0  0  0  0  0  0  0  0  0
    0.9126   -1.2526   -4.6294 C   0  0  0  0  0  0  0  0  0  0  0  0
   -1.1314   -1.7109   -4.9448 H   0  0  0  0  0  0  0  0  0  0  0  0
   -0.9971   -3.3622   -3.0542 H   0  0  0  0  0  0  0  0  0  0  0  0
    0.8643   -3.4524   -1.5652 H   0  0  0  0  0  0  0  0  0  0  0  0
    2.8596   -1.9995   -1.8854 H   0  0  0  0  0  0  0  0  0  0  0  0
    3.0096   -0.9085   -4.0853 H   0  0  0  0  0  0  0  0  0  0  0  0
    1.0393   -0.7905   -5.6023 H   0  0  0  0  0  0  0  0  0  0  0  0
    1.6667   -3.3849    1.7917 S   0  0  0  0  0  0  0  0  0  0  0  0
    1.7533   -4.5962    2.5702 O   0  0  0  0  0  0  0  0  0  0  0  0
    2.5126   -3.1440    0.6310 O   0  0  0  0  0  0  0  0  0  0  0  0
    0.1537   -3.1100    1.4255 O   0  0  0  0  0  0  0  0  0  0  0  0
    1.9887   -1.9463    2.9555 C   0  0  0  0  0  0  0  0  0  0  0  0
    1.7261   -0.7983    2.3132 F   0  0  0  0  0  0  0  0  0  0  0  0
    1.2152   -2.0307    4.0305 F   0  0  0  0  0  0  0  0  0  0  0  0
    3.2668   -1.9554    3.3227 F   0  0  0  0  0  0  0  0  0  0  0  0
  1  3  1  0  0  0  0
  2  1  2  0  0  0  0
  3  4  1  0  0  0  0
  5 21  1  0  0  0  0
  6  7  1  0  0  0  0
  7 13  1  6  0  0  0
  7  2  1  0  0  0  0
  7  8  1  0  0  0  0
  8 14  1  1  0  0  0
  8  3  1  0  0  0  0
  9  8  1  0  0  0  0
  9 15  1  0  0  0  0
 10  9  2  0  0  0  0
 11  6  2  0  0  0  0
 11 10  1  0  0  0  0
 12  6  1  0  0  0  0
 16 10  1  0  0  0  0
 17 11  1  0  0  0  0
 18 19  2  0  0  0  0
 18 22  1  0  0  0  0
 20 18  2  0  0  0  0
 21 18  1  0  0  0  0
 22 25  1  0  0  0  0
 22 24  1  0  0  0  0
 23 22  1  0  0  0  0
M  END
