Coordinates from ORCA-job C6H6+TfO-+NH2N2+-scan
 OpenBabel10121810013D

 25 23  0  0  0  0  0  0  0  0999 V2000
   -1.3074   -1.5522   -0.4725 N   0  0  0  0  0  0  0  0  0  0  0  0
   -2.4060   -1.3865   -0.2631 N   0  0  0  0  0  0  0  0  0  0  0  0
   -0.1778   -1.9694   -0.8257 N   0  0  0  0  0  0  0  0  0  0  0  0
    0.4399   -1.1845   -1.0456 H   0  0  0  0  0  0  0  0  0  0  0  0
    0.7678   -2.9259    0.3013 H   0  0  0  0  0  0  0  0  0  0  0  0
    0.0673   -1.2968   -4.3440 C   0  0  0  0  0  0  0  0  0  0  0  0
   -0.5836   -2.2488   -3.5648 C   0  0  0  0  0  0  0  0  0  0  0  0
    0.1425   -3.0267   -2.6490 C   0  0  0  0  0  0  0  0  0  0  0  0
    1.5440   -2.9767   -2.6792 C   0  0  0  0  0  0  0  0  0  0  0  0
    2.1916   -2.0213   -3.4587 C   0  0  0  0  0  0  0  0  0  0  0  0
    1.4560   -1.1646   -4.2792 C   0  0  0  0  0  0  0  0  0  0  0  0
   -0.5047   -0.6710   -5.0210 H   0  0  0  0  0  0  0  0  0  0  0  0
   -1.6606   -2.3616   -3.6349 H   0  0  0  0  0  0  0  0  0  0  0  0
   -0.3484   -3.8448   -2.1390 H   0  0  0  0  0  0  0  0  0  0  0  0
    2.1221   -3.6530   -2.0591 H   0  0  0  0  0  0  0  0  0  0  0  0
    3.2741   -1.9572   -3.4410 H   0  0  0  0  0  0  0  0  0  0  0  0
    1.9627   -0.4240   -4.8877 H   0  0  0  0  0  0  0  0  0  0  0  0
    2.4811   -2.3232    1.4608 S   0  0  0  0  0  0  0  0  0  0  0  0
    3.7010   -3.0201    1.7807 O   0  0  0  0  0  0  0  0  0  0  0  0
    2.4451   -1.1226    0.6434 O   0  0  0  0  0  0  0  0  0  0  0  0
    1.4256   -3.3866    0.8998 O   0  0  0  0  0  0  0  0  0  0  0  0
    1.6410   -1.8827    3.0842 C   0  0  0  0  0  0  0  0  0  0  0  0
    0.4072   -1.4351    2.8280 F   0  0  0  0  0  0  0  0  0  0  0  0
    1.5689   -2.9487    3.8707 F   0  0  0  0  0  0  0  0  0  0  0  0
    2.3396   -0.9265    3.6869 F   0  0  0  0  0  0  0  0  0  0  0  0
  1  2  2  0  0  0  0
  3  1  2  0  0  0  0
  4  3  1  0  0  0  0
  5 21  1  0  0  0  0
  6 11  2  0  0  0  0
  6  7  1  0  0  0  0
  7  8  2  0  0  0  0
  8 14  1  0  0  0  0
  9  8  1  0  0  0  0
  9 15  1  0  0  0  0
 10 16  1  0  0  0  0
 10  9  2  0  0  0  0
 11 10  1  0  0  0  0
 12  6  1  0  0  0  0
 13  7  1  0  0  0  0
 17 11  1  0  0  0  0
 18 19  2  0  0  0  0
 18 22  1  0  0  0  0
 20 18  2  0  0  0  0
 21 18  1  0  0  0  0
 22 25  1  0  0  0  0
 22 24  1  0  0  0  0
 23 22  1  0  0  0  0
M  RAD  1   2   2
M  END
