Coordinates from ORCA-job C6H6+TfO-+NH2N2+-scan
 OpenBabel10121810013D

 25 23  0  0  0  0  0  0  0  0999 V2000
   -1.7289   -2.7087   -0.4756 N   0  0  0  0  0  0  0  0  0  0  0  0
   -2.8319   -2.6264   -0.6895 N   0  0  0  0  0  0  0  0  0  0  0  0
   -0.5478   -2.8041   -0.1072 N   0  0  0  0  0  0  0  0  0  0  0  0
    0.0984   -2.8196   -0.9044 H   0  0  0  0  0  0  0  0  0  0  0  0
    0.1018   -2.6618    1.4639 H   0  0  0  0  0  0  0  0  0  0  0  0
    0.4513   -1.0394   -3.6208 C   0  0  0  0  0  0  0  0  0  0  0  0
    0.0782   -2.0025   -4.5577 C   0  0  0  0  0  0  0  0  0  0  0  0
    0.6009   -3.2936   -4.4783 C   0  0  0  0  0  0  0  0  0  0  0  0
    1.4985   -3.6221   -3.4633 C   0  0  0  0  0  0  0  0  0  0  0  0
    1.8750   -2.6596   -2.5233 C   0  0  0  0  0  0  0  0  0  0  0  0
    1.3484   -1.3673   -2.6031 C   0  0  0  0  0  0  0  0  0  0  0  0
    0.0480   -0.0347   -3.6851 H   0  0  0  0  0  0  0  0  0  0  0  0
   -0.6173   -1.7474   -5.3498 H   0  0  0  0  0  0  0  0  0  0  0  0
    0.3113   -4.0408   -5.2091 H   0  0  0  0  0  0  0  0  0  0  0  0
    1.9095   -4.6239   -3.4042 H   0  0  0  0  0  0  0  0  0  0  0  0
    2.5702   -2.9094   -1.7298 H   0  0  0  0  0  0  0  0  0  0  0  0
    1.6382   -0.6208   -1.8718 H   0  0  0  0  0  0  0  0  0  0  0  0
    2.1109   -2.2336    2.1400 S   0  0  0  0  0  0  0  0  0  0  0  0
    2.8221   -2.6142    3.3341 O   0  0  0  0  0  0  0  0  0  0  0  0
    2.5305   -2.6399    0.8092 O   0  0  0  0  0  0  0  0  0  0  0  0
    0.5663   -2.5551    2.3490 O   0  0  0  0  0  0  0  0  0  0  0  0
    2.0489   -0.3561    2.1069 C   0  0  0  0  0  0  0  0  0  0  0  0
    1.2535    0.0415    1.1055 F   0  0  0  0  0  0  0  0  0  0  0  0
    1.5768    0.1154    3.2541 F   0  0  0  0  0  0  0  0  0  0  0  0
    3.2760    0.1139    1.9014 F   0  0  0  0  0  0  0  0  0  0  0  0
  1  3  2  0  0  0  0
  2  1  2  0  0  0  0
  4  3  1  0  0  0  0
  5 21  1  0  0  0  0
  6 11  2  0  0  0  0
  7  8  2  0  0  0  0
  7  6  1  0  0  0  0
  8  9  1  0  0  0  0
  9 15  1  0  0  0  0
  9 10  2  0  0  0  0
 10 16  1  0  0  0  0
 11 10  1  0  0  0  0
 11 17  1  0  0  0  0
 12  6  1  0  0  0  0
 13  7  1  0  0  0  0
 14  8  1  0  0  0  0
 18 21  1  0  0  0  0
 18 19  2  0  0  0  0
 20 18  2  0  0  0  0
 22 18  1  0  0  0  0
 22 24  1  0  0  0  0
 23 22  1  0  0  0  0
 25 22  1  0  0  0  0
M  RAD  1   2   2
M  END
