Coordinates from ORCA-job C6H6+TfO-+NH2N2+-scan
 OpenBabel10121810013D

 25 23  0  0  0  0  0  0  0  0999 V2000
   -1.2854   -1.6073   -0.4915 N   0  0  0  0  0  0  0  0  0  0  0  0
   -2.4005   -1.5062   -0.3221 N   0  0  0  0  0  0  0  0  0  0  0  0
   -0.1457   -1.9965   -0.8675 N   0  0  0  0  0  0  0  0  0  0  0  0
    0.4675   -1.1933   -1.0273 H   0  0  0  0  0  0  0  0  0  0  0  0
    0.8173   -2.9399    0.2826 H   0  0  0  0  0  0  0  0  0  0  0  0
    0.0790   -1.2602   -4.3180 C   0  0  0  0  0  0  0  0  0  0  0  0
   -0.6006   -2.1912   -3.5402 C   0  0  0  0  0  0  0  0  0  0  0  0
    0.1016   -2.9871   -2.6125 C   0  0  0  0  0  0  0  0  0  0  0  0
    1.5088   -3.0039   -2.6775 C   0  0  0  0  0  0  0  0  0  0  0  0
    2.1824   -2.0697   -3.4578 C   0  0  0  0  0  0  0  0  0  0  0  0
    1.4724   -1.1767   -4.2632 C   0  0  0  0  0  0  0  0  0  0  0  0
   -0.4747   -0.6157   -4.9927 H   0  0  0  0  0  0  0  0  0  0  0  0
   -1.6803   -2.2726   -3.6110 H   0  0  0  0  0  0  0  0  0  0  0  0
   -0.4101   -3.8175   -2.1424 H   0  0  0  0  0  0  0  0  0  0  0  0
    2.0671   -3.7104   -2.0732 H   0  0  0  0  0  0  0  0  0  0  0  0
    3.2669   -2.0528   -3.4575 H   0  0  0  0  0  0  0  0  0  0  0  0
    2.0009   -0.4531   -4.8733 H   0  0  0  0  0  0  0  0  0  0  0  0
    2.4931   -2.2733    1.4592 S   0  0  0  0  0  0  0  0  0  0  0  0
    3.7403   -2.9202    1.7776 O   0  0  0  0  0  0  0  0  0  0  0  0
    2.4076   -1.0701    0.6489 O   0  0  0  0  0  0  0  0  0  0  0  0
    1.4838   -3.3765    0.8872 O   0  0  0  0  0  0  0  0  0  0  0  0
    1.6301   -1.8800    3.0828 C   0  0  0  0  0  0  0  0  0  0  0  0
    0.3803   -1.4810    2.8252 F   0  0  0  0  0  0  0  0  0  0  0  0
    1.5991   -2.9542    3.8605 F   0  0  0  0  0  0  0  0  0  0  0  0
    2.2877   -0.9010    3.6949 F   0  0  0  0  0  0  0  0  0  0  0  0
  1  2  2  0  0  0  0
  3  1  2  0  0  0  0
  4  3  1  0  0  0  0
  5 21  1  0  0  0  0
  6 11  2  0  0  0  0
  6  7  1  0  0  0  0
  7  8  2  0  0  0  0
  8 14  1  0  0  0  0
  9  8  1  0  0  0  0
  9 15  1  0  0  0  0
 10 16  1  0  0  0  0
 10  9  2  0  0  0  0
 11 10  1  0  0  0  0
 12  6  1  0  0  0  0
 13  7  1  0  0  0  0
 17 11  1  0  0  0  0
 18 19  2  0  0  0  0
 18 22  1  0  0  0  0
 20 18  2  0  0  0  0
 21 18  1  0  0  0  0
 22 25  1  0  0  0  0
 22 24  1  0  0  0  0
 23 22  1  0  0  0  0
M  RAD  1   2   2
M  END
