Coordinates from ORCA-job C6H6+TfO-+NH2N2+-scan
 OpenBabel10121810013D

 25 23  0  0  0  0  0  0  0  0999 V2000
   -2.0215   -2.6202   -0.0119 N   0  0  0  0  0  0  0  0  0  0  0  0
   -3.1367   -2.5356   -0.1433 N   0  0  0  0  0  0  0  0  0  0  0  0
   -0.8148   -2.6975    0.2722 N   0  0  0  0  0  0  0  0  0  0  0  0
   -0.2384   -2.8364   -0.5628 H   0  0  0  0  0  0  0  0  0  0  0  0
   -0.0170   -2.4977    1.7842 H   0  0  0  0  0  0  0  0  0  0  0  0
    0.3294   -1.1616   -3.6929 C   0  0  0  0  0  0  0  0  0  0  0  0
    0.3236   -1.9766   -4.8238 C   0  0  0  0  0  0  0  0  0  0  0  0
    1.0291   -3.1805   -4.8202 C   0  0  0  0  0  0  0  0  0  0  0  0
    1.7360   -3.5714   -3.6839 C   0  0  0  0  0  0  0  0  0  0  0  0
    1.7463   -2.7565   -2.5501 C   0  0  0  0  0  0  0  0  0  0  0  0
    1.0428   -1.5497   -2.5572 C   0  0  0  0  0  0  0  0  0  0  0  0
   -0.2111   -0.2212   -3.6990 H   0  0  0  0  0  0  0  0  0  0  0  0
   -0.2252   -1.6728   -5.7086 H   0  0  0  0  0  0  0  0  0  0  0  0
    1.0271   -3.8119   -5.7020 H   0  0  0  0  0  0  0  0  0  0  0  0
    2.2863   -4.5059   -3.6820 H   0  0  0  0  0  0  0  0  0  0  0  0
    2.3046   -3.0477   -1.6676 H   0  0  0  0  0  0  0  0  0  0  0  0
    1.0657   -0.9058   -1.6840 H   0  0  0  0  0  0  0  0  0  0  0  0
    2.0888   -2.2389    2.1589 S   0  0  0  0  0  0  0  0  0  0  0  0
    2.9208   -2.6318    3.2673 O   0  0  0  0  0  0  0  0  0  0  0  0
    2.2680   -2.7598    0.8136 O   0  0  0  0  0  0  0  0  0  0  0  0
    0.5628   -2.3805    2.5942 O   0  0  0  0  0  0  0  0  0  0  0  0
    2.2099   -0.3695    2.0081 C   0  0  0  0  0  0  0  0  0  0  0  0
    1.3141    0.0590    1.1096 F   0  0  0  0  0  0  0  0  0  0  0  0
    1.9669    0.2079    3.1777 F   0  0  0  0  0  0  0  0  0  0  0  0
    3.4316   -0.0478    1.5947 F   0  0  0  0  0  0  0  0  0  0  0  0
  1  3  2  0  0  0  0
  2  1  2  0  0  0  0
  4  3  1  0  0  0  0
  5 21  1  0  0  0  0
  6 11  2  0  0  0  0
  7  8  2  0  0  0  0
  7  6  1  0  0  0  0
  8  9  1  0  0  0  0
  9 15  1  0  0  0  0
  9 10  2  0  0  0  0
 10 16  1  0  0  0  0
 11 10  1  0  0  0  0
 11 17  1  0  0  0  0
 12  6  1  0  0  0  0
 13  7  1  0  0  0  0
 14  8  1  0  0  0  0
 18 21  1  0  0  0  0
 18 19  2  0  0  0  0
 20 18  2  0  0  0  0
 22 18  1  0  0  0  0
 22 24  1  0  0  0  0
 23 22  1  0  0  0  0
 25 22  1  0  0  0  0
M  RAD  1   2   2
M  END
