Coordinates from ORCA-job C6H6+TfO-+NH2N2+-scan
 OpenBabel10121810013D

 25 25  0  0  1  0  0  0  0  0999 V2000
   -0.3136   -0.5759   -1.0309 N   0  0  0  0  0  0  0  0  0  0  0  0
   -1.0149   -0.8614   -1.9861 N   0  0  0  0  0  0  0  0  0  0  0  0
    0.7959   -1.5806   -0.9215 N   0  0  0  0  0  0  0  0  0  0  0  0
    1.5905   -1.1006   -0.5028 H   0  0  0  0  0  0  0  0  0  0  0  0
    0.5018   -2.6131    0.3517 H   0  0  0  0  0  0  0  0  0  0  0  0
   -0.5312   -1.9512   -4.1800 C   0  0  0  0  0  0  0  0  0  0  0  0
   -0.4743   -2.0789   -2.6880 C   0  0  1  0  0  0  0  0  0  0  0  0
    0.9528   -2.1757   -2.0329 C   0  0  1  0  0  0  0  0  0  0  0  0
    2.0465   -1.6276   -2.9519 C   0  0  0  0  0  0  0  0  0  0  0  0
    1.8576   -1.4162   -4.2573 C   0  0  0  0  0  0  0  0  0  0  0  0
    0.5574   -1.6405   -4.8922 C   0  0  0  0  0  0  0  0  0  0  0  0
   -1.4981   -2.0797   -4.6520 H   0  0  0  0  0  0  0  0  0  0  0  0
   -1.1128   -2.9012   -2.3456 H   0  0  0  0  0  0  0  0  0  0  0  0
    1.1752   -3.2511   -1.9169 H   0  0  0  0  0  0  0  0  0  0  0  0
    3.0167   -1.4638   -2.4894 H   0  0  0  0  0  0  0  0  0  0  0  0
    2.6766   -1.0688   -4.8783 H   0  0  0  0  0  0  0  0  0  0  0  0
    0.4876   -1.5352   -5.9695 H   0  0  0  0  0  0  0  0  0  0  0  0
    1.8564   -3.2676    1.9074 S   0  0  0  0  0  0  0  0  0  0  0  0
    2.1606   -4.5878    2.4014 O   0  0  0  0  0  0  0  0  0  0  0  0
    2.8251   -2.4663    1.1713 O   0  0  0  0  0  0  0  0  0  0  0  0
    0.4872   -3.3113    1.1009 O   0  0  0  0  0  0  0  0  0  0  0  0
    1.3260   -2.2277    3.3800 C   0  0  0  0  0  0  0  0  0  0  0  0
    0.8719   -1.0503    2.9449 F   0  0  0  0  0  0  0  0  0  0  0  0
    0.3693   -2.8477    4.0603 F   0  0  0  0  0  0  0  0  0  0  0  0
    2.3788   -2.0302    4.1685 F   0  0  0  0  0  0  0  0  0  0  0  0
  1  3  1  0  0  0  0
  2  1  1  0  0  0  0
  3  4  1  0  0  0  0
  5 21  1  0  0  0  0
  6  7  1  0  0  0  0
  7 13  1  1  0  0  0
  7  8  1  0  0  0  0
  7  2  1  0  0  0  0
  8 14  1  1  0  0  0
  8  3  1  0  0  0  0
  9 15  1  0  0  0  0
  9  8  1  0  0  0  0
 10  9  2  0  0  0  0
 11 10  1  0  0  0  0
 11  6  2  0  0  0  0
 12  6  1  0  0  0  0
 16 10  1  0  0  0  0
 17 11  1  0  0  0  0
 18 19  2  0  0  0  0
 18 22  1  0  0  0  0
 20 18  2  0  0  0  0
 21 18  1  0  0  0  0
 22 24  1  0  0  0  0
 22 25  1  0  0  0  0
 23 22  1  0  0  0  0
M  RAD  2   1   2   2   2
M  END
