Coordinates from ORCA-job C6H6+TfO-+NH2N2+-scan
 OpenBabel10121810013D

 25 23  0  0  0  0  0  0  0  0999 V2000
   -1.6657   -1.1919   -0.7456 N   0  0  0  0  0  0  0  0  0  0  0  0
   -2.5828   -0.5464   -0.8628 N   0  0  0  0  0  0  0  0  0  0  0  0
   -0.6862   -1.9121   -0.5030 N   0  0  0  0  0  0  0  0  0  0  0  0
   -0.1159   -2.0822   -1.3401 H   0  0  0  0  0  0  0  0  0  0  0  0
   -0.2968   -2.4681    1.0397 H   0  0  0  0  0  0  0  0  0  0  0  0
    0.2028   -1.9791   -4.4819 C   0  0  0  0  0  0  0  0  0  0  0  0
    0.3535   -2.9799   -3.5224 C   0  0  0  0  0  0  0  0  0  0  0  0
    1.2402   -2.8010   -2.4552 C   0  0  0  0  0  0  0  0  0  0  0  0
    2.0021   -1.6304   -2.3752 C   0  0  0  0  0  0  0  0  0  0  0  0
    1.8524   -0.6323   -3.3365 C   0  0  0  0  0  0  0  0  0  0  0  0
    0.9515   -0.8059   -4.3874 C   0  0  0  0  0  0  0  0  0  0  0  0
   -0.4892   -2.1164   -5.3053 H   0  0  0  0  0  0  0  0  0  0  0  0
   -0.2209   -3.8969   -3.5980 H   0  0  0  0  0  0  0  0  0  0  0  0
    1.3841   -3.5839   -1.7190 H   0  0  0  0  0  0  0  0  0  0  0  0
    2.6972   -1.4993   -1.5537 H   0  0  0  0  0  0  0  0  0  0  0  0
    2.4395    0.2769   -3.2702 H   0  0  0  0  0  0  0  0  0  0  0  0
    0.8359   -0.0289   -5.1351 H   0  0  0  0  0  0  0  0  0  0  0  0
    1.3494   -3.5185    1.9835 S   0  0  0  0  0  0  0  0  0  0  0  0
    1.4022   -4.3895    3.1305 O   0  0  0  0  0  0  0  0  0  0  0  0
    1.6982   -3.9601    0.6436 O   0  0  0  0  0  0  0  0  0  0  0  0
   -0.0596   -2.7855    1.9682 O   0  0  0  0  0  0  0  0  0  0  0  0
    2.4714   -2.0564    2.3479 C   0  0  0  0  0  0  0  0  0  0  0  0
    2.3222   -1.1350    1.3871 F   0  0  0  0  0  0  0  0  0  0  0  0
    2.1683   -1.5164    3.5219 F   0  0  0  0  0  0  0  0  0  0  0  0
    3.7353   -2.4713    2.3602 F   0  0  0  0  0  0  0  0  0  0  0  0
  1  3  2  0  0  0  0
  2  1  2  0  0  0  0
  4  3  1  0  0  0  0
  5 21  1  0  0  0  0
  6 11  2  0  0  0  0
  6  7  1  0  0  0  0
  7  8  2  0  0  0  0
  8  9  1  0  0  0  0
  8 14  1  0  0  0  0
  9 15  1  0  0  0  0
 10 16  1  0  0  0  0
 10  9  2  0  0  0  0
 11 10  1  0  0  0  0
 12  6  1  0  0  0  0
 13  7  1  0  0  0  0
 17 11  1  0  0  0  0
 18 22  1  0  0  0  0
 18 19  2  0  0  0  0
 20 18  2  0  0  0  0
 21 18  1  0  0  0  0
 22 25  1  0  0  0  0
 22 24  1  0  0  0  0
 23 22  1  0  0  0  0
M  RAD  1   2   2
M  END
