Coordinates from ORCA-job C6H6+TfO-+NH2N2+-scan
 OpenBabel10121810013D

 25 25  0  0  1  0  0  0  0  0999 V2000
   -0.7774   -0.7440   -1.1054 N   0  0  0  0  0  0  0  0  0  0  0  0
   -1.3050   -1.1327   -2.1391 N   0  0  0  0  0  0  0  0  0  0  0  0
    0.4201   -1.4933   -0.7918 N   0  0  0  0  0  0  0  0  0  0  0  0
    1.1149   -0.8340   -0.4466 H   0  0  0  0  0  0  0  0  0  0  0  0
    0.2213   -2.4994    0.4911 H   0  0  0  0  0  0  0  0  0  0  0  0
   -0.3813   -1.9756   -4.2680 C   0  0  0  0  0  0  0  0  0  0  0  0
   -0.4991   -2.2327   -2.7949 C   0  0  1  0  0  0  0  0  0  0  0  0
    0.8273   -2.2440   -1.9893 C   0  0  1  0  0  0  0  0  0  0  0  0
    2.0078   -1.6392   -2.7036 C   0  0  0  0  0  0  0  0  0  0  0  0
    1.9669   -1.3335   -4.0050 C   0  0  0  0  0  0  0  0  0  0  0  0
    0.7636   -1.5475   -4.8111 C   0  0  0  0  0  0  0  0  0  0  0  0
   -1.2763   -2.1087   -4.8643 H   0  0  0  0  0  0  0  0  0  0  0  0
   -1.0780   -3.1442   -2.6133 H   0  0  0  0  0  0  0  0  0  0  0  0
    1.0852   -3.2583   -1.6749 H   0  0  0  0  0  0  0  0  0  0  0  0
    2.9135   -1.5115   -2.1187 H   0  0  0  0  0  0  0  0  0  0  0  0
    2.8462   -0.9293   -4.4949 H   0  0  0  0  0  0  0  0  0  0  0  0
    0.8175   -1.3472   -5.8756 H   0  0  0  0  0  0  0  0  0  0  0  0
    1.7077   -3.3851    1.7969 S   0  0  0  0  0  0  0  0  0  0  0  0
    1.8195   -4.6923    2.3960 O   0  0  0  0  0  0  0  0  0  0  0  0
    2.6589   -2.8935    0.8099 O   0  0  0  0  0  0  0  0  0  0  0  0
    0.2294   -3.1822    1.2602 O   0  0  0  0  0  0  0  0  0  0  0  0
    1.7202   -2.1260    3.1911 C   0  0  0  0  0  0  0  0  0  0  0  0
    1.4371   -0.9174    2.6892 F   0  0  0  0  0  0  0  0  0  0  0  0
    0.8184   -2.4413    4.1118 F   0  0  0  0  0  0  0  0  0  0  0  0
    2.9306   -2.0976    3.7415 F   0  0  0  0  0  0  0  0  0  0  0  0
  1  3  1  0  0  0  0
  2  1  1  0  0  0  0
  3  4  1  0  0  0  0
  5 21  1  0  0  0  0
  6  7  1  0  0  0  0
  7 13  1  1  0  0  0
  7  2  1  0  0  0  0
  7  8  1  0  0  0  0
  8 14  1  1  0  0  0
  8  3  1  0  0  0  0
  9 15  1  0  0  0  0
  9  8  1  0  0  0  0
 10  9  2  0  0  0  0
 11  6  2  0  0  0  0
 11 10  1  0  0  0  0
 12  6  1  0  0  0  0
 16 10  1  0  0  0  0
 17 11  1  0  0  0  0
 18 19  2  0  0  0  0
 18 22  1  0  0  0  0
 20 18  2  0  0  0  0
 21 18  1  0  0  0  0
 22 25  1  0  0  0  0
 22 24  1  0  0  0  0
 23 22  1  0  0  0  0
M  RAD  2   1   2   2   2
M  END
