Coordinates from ORCA-job C6H6+TfO-+NH2N2+-scan
 OpenBabel10121810013D

 25 23  0  0  0  0  0  0  0  0999 V2000
   -1.2049   -1.4161    0.7354 N   0  0  0  0  0  0  0  0  0  0  0  0
   -1.9943   -0.9087    0.1129 N   0  0  0  0  0  0  0  0  0  0  0  0
   -0.2794   -1.8451    1.4432 N   0  0  0  0  0  0  0  0  0  0  0  0
   -0.1533   -2.8551    1.3511 H   0  0  0  0  0  0  0  0  0  0  0  0
    0.4040   -1.3838    2.9879 H   0  0  0  0  0  0  0  0  0  0  0  0
   -0.6462   -2.7269   -5.4136 C   0  0  0  0  0  0  0  0  0  0  0  0
    0.5927   -3.3614   -5.3306 C   0  0  0  0  0  0  0  0  0  0  0  0
    1.7503   -2.6082   -5.1387 C   0  0  0  0  0  0  0  0  0  0  0  0
    1.6688   -1.2205   -5.0295 C   0  0  0  0  0  0  0  0  0  0  0  0
    0.4299   -0.5860   -5.1125 C   0  0  0  0  0  0  0  0  0  0  0  0
   -0.7276   -1.3392   -5.3045 C   0  0  0  0  0  0  0  0  0  0  0  0
   -1.5466   -3.3126   -5.5655 H   0  0  0  0  0  0  0  0  0  0  0  0
    0.6562   -4.4408   -5.4175 H   0  0  0  0  0  0  0  0  0  0  0  0
    2.7142   -3.1017   -5.0758 H   0  0  0  0  0  0  0  0  0  0  0  0
    2.5695   -0.6343   -4.8818 H   0  0  0  0  0  0  0  0  0  0  0  0
    0.3668    0.4937   -5.0295 H   0  0  0  0  0  0  0  0  0  0  0  0
   -1.6911   -0.8455   -5.3706 H   0  0  0  0  0  0  0  0  0  0  0  0
    1.6552   -2.7694    4.0568 S   0  0  0  0  0  0  0  0  0  0  0  0
    1.7679   -3.0455    5.4659 O   0  0  0  0  0  0  0  0  0  0  0  0
    1.1604   -3.7487    3.1005 O   0  0  0  0  0  0  0  0  0  0  0  0
    0.8725   -1.3895    3.8706 O   0  0  0  0  0  0  0  0  0  0  0  0
    3.3564   -2.2530    3.4467 C   0  0  0  0  0  0  0  0  0  0  0  0
    3.2561   -1.8046    2.1938 F   0  0  0  0  0  0  0  0  0  0  0  0
    3.8503   -1.2960    4.2222 F   0  0  0  0  0  0  0  0  0  0  0  0
    4.1609   -3.3113    3.4743 F   0  0  0  0  0  0  0  0  0  0  0  0
  1  3  2  0  0  0  0
  2  1  2  0  0  0  0
  4  3  1  0  0  0  0
  5 21  1  0  0  0  0
  6  7  2  0  0  0  0
  6 11  1  0  0  0  0
  7  8  1  0  0  0  0
  8 14  1  0  0  0  0
  8  9  2  0  0  0  0
  9 15  1  0  0  0  0
 10 16  1  0  0  0  0
 10  9  1  0  0  0  0
 11 10  2  0  0  0  0
 12  6  1  0  0  0  0
 13  7  1  0  0  0  0
 17 11  1  0  0  0  0
 18 19  2  0  0  0  0
 20 18  2  0  0  0  0
 21 18  1  0  0  0  0
 22 25  1  0  0  0  0
 22 18  1  0  0  0  0
 22 24  1  0  0  0  0
 23 22  1  0  0  0  0
M  RAD  1   2   2
M  END
