Coordinates from ORCA-job C6H6+TfO-+NH2N2+-scan
 OpenBabel10121810013D

 25 23  0  0  0  0  0  0  0  0999 V2000
   -2.1267   -0.7520    1.1794 N   0  0  0  0  0  0  0  0  0  0  0  0
   -1.7101   -0.9546    0.1871 N   0  0  0  0  0  0  0  0  0  0  0  0
    1.5696   -2.4197   -1.1618 N   0  0  0  0  0  0  0  0  0  0  0  0
    2.4661   -2.2847   -0.6644 H   0  0  0  0  0  0  0  0  0  0  0  0
    0.9041   -2.8124   -0.4114 H   0  0  0  0  0  0  0  0  0  0  0  0
   -0.2293   -2.1443   -4.2501 C   0  0  0  0  0  0  0  0  0  0  0  0
   -0.0352   -2.4663   -2.8019 C   0  0  0  0  0  0  0  0  0  0  0  0
    1.3599   -2.2049   -2.2203 C   0  0  0  0  0  0  0  0  0  0  0  0
    2.3673   -1.6618   -3.1491 C   0  0  0  0  0  0  0  0  0  0  0  0
    2.0721   -1.4103   -4.4385 C   0  0  0  0  0  0  0  0  0  0  0  0
    0.7557   -1.6507   -5.0101 C   0  0  0  0  0  0  0  0  0  0  0  0
   -1.2153   -2.3291   -4.6627 H   0  0  0  0  0  0  0  0  0  0  0  0
   -0.7580   -1.9059   -2.1949 H   0  0  0  0  0  0  0  0  0  0  0  0
   -0.2805   -3.5213   -2.6216 H   0  0  0  0  0  0  0  0  0  0  0  0
    3.3582   -1.4739   -2.7475 H   0  0  0  0  0  0  0  0  0  0  0  0
    2.8457   -1.0107   -5.0862 H   0  0  0  0  0  0  0  0  0  0  0  0
    0.5934   -1.4230   -6.0567 H   0  0  0  0  0  0  0  0  0  0  0  0
    1.6572   -3.1799    1.9445 S   0  0  0  0  0  0  0  0  0  0  0  0
    1.8580   -4.3011    2.8470 O   0  0  0  0  0  0  0  0  0  0  0  0
    2.8448   -2.6640    1.2168 O   0  0  0  0  0  0  0  0  0  0  0  0
    0.4748   -3.3025    1.0178 O   0  0  0  0  0  0  0  0  0  0  0  0
    1.1506   -1.7358    3.0245 C   0  0  0  0  0  0  0  0  0  0  0  0
    0.9218   -0.6519    2.2567 F   0  0  0  0  0  0  0  0  0  0  0  0
    0.0306   -2.0142    3.6967 F   0  0  0  0  0  0  0  0  0  0  0  0
    2.1140   -1.4356    3.8977 F   0  0  0  0  0  0  0  0  0  0  0  0
  2  1  3  0  0  0  0
  3  4  1  0  0  0  0
  3  5  1  0  0  0  0
  6  7  1  0  0  0  0
  7 14  1  0  0  0  0
  7  8  1  0  0  0  0
  7 13  1  0  0  0  0
  8  3  1  0  0  0  0
  9 15  1  0  0  0  0
  9  8  2  0  0  0  0
 10  9  1  0  0  0  0
 11 10  1  0  0  0  0
 11  6  2  0  0  0  0
 12  6  1  0  0  0  0
 16 10  1  0  0  0  0
 17 11  1  0  0  0  0
 18 19  1  0  0  0  0
 18 22  1  0  0  0  0
 20 18  2  0  0  0  0
 21 18  2  0  0  0  0
 22 24  1  0  0  0  0
 22 25  1  0  0  0  0
 23 22  1  0  0  0  0
M  RAD  2  10   2  19   2
M  END
