Coordinates from ORCA-job C6H6+TfO-+NH2N2+-scan
 OpenBabel10121810013D

 25 25  0  0  1  0  0  0  0  0999 V2000
   -1.1335   -1.0697   -1.1282 N   0  0  0  0  0  0  0  0  0  0  0  0
   -1.5390   -1.4939   -2.2012 N   0  0  0  0  0  0  0  0  0  0  0  0
    0.1250   -1.5557   -0.7197 N   0  0  0  0  0  0  0  0  0  0  0  0
    0.7226   -0.7552   -0.5084 H   0  0  0  0  0  0  0  0  0  0  0  0
    0.0932   -2.4890    0.5961 H   0  0  0  0  0  0  0  0  0  0  0  0
   -0.2861   -1.7731   -4.2847 C   0  0  0  0  0  0  0  0  0  0  0  0
   -0.5121   -2.3742   -2.9296 C   0  0  1  0  0  0  0  0  0  0  0  0
    0.7205   -2.4633   -2.0294 C   0  0  1  0  0  0  0  0  0  0  0  0
    1.9908   -1.8875   -2.5370 C   0  0  0  0  0  0  0  0  0  0  0  0
    2.0617   -1.3295   -3.7549 C   0  0  0  0  0  0  0  0  0  0  0  0
    0.9045   -1.2781   -4.6457 C   0  0  0  0  0  0  0  0  0  0  0  0
   -1.1424   -1.7306   -4.9477 H   0  0  0  0  0  0  0  0  0  0  0  0
   -1.0172   -3.3397   -3.0237 H   0  0  0  0  0  0  0  0  0  0  0  0
    0.8668   -3.4408   -1.5777 H   0  0  0  0  0  0  0  0  0  0  0  0
    2.8565   -1.9683   -1.8897 H   0  0  0  0  0  0  0  0  0  0  0  0
    3.0031   -0.9254   -4.1112 H   0  0  0  0  0  0  0  0  0  0  0  0
    1.0322   -0.8385   -5.6289 H   0  0  0  0  0  0  0  0  0  0  0  0
    1.6823   -3.3810    1.7871 S   0  0  0  0  0  0  0  0  0  0  0  0
    1.7817   -4.6033    2.5466 O   0  0  0  0  0  0  0  0  0  0  0  0
    2.5362   -3.1057    0.6399 O   0  0  0  0  0  0  0  0  0  0  0  0
    0.1686   -3.1266    1.4074 O   0  0  0  0  0  0  0  0  0  0  0  0
    1.9648   -1.9563    2.9781 C   0  0  0  0  0  0  0  0  0  0  0  0
    1.6906   -0.8029    2.3511 F   0  0  0  0  0  0  0  0  0  0  0  0
    1.1796   -2.0718    4.0415 F   0  0  0  0  0  0  0  0  0  0  0  0
    3.2383   -1.9501    3.3612 F   0  0  0  0  0  0  0  0  0  0  0  0
  1  3  1  0  0  0  0
  2  1  2  0  0  0  0
  3  4  1  0  0  0  0
  5 21  1  0  0  0  0
  6  7  1  0  0  0  0
  7 13  1  6  0  0  0
  7  2  1  0  0  0  0
  7  8  1  0  0  0  0
  8 14  1  1  0  0  0
  8  3  1  0  0  0  0
  9  8  1  0  0  0  0
  9 15  1  0  0  0  0
 10  9  2  0  0  0  0
 11  6  2  0  0  0  0
 11 10  1  0  0  0  0
 12  6  1  0  0  0  0
 16 10  1  0  0  0  0
 17 11  1  0  0  0  0
 18 19  2  0  0  0  0
 18 22  1  0  0  0  0
 20 18  2  0  0  0  0
 21 18  1  0  0  0  0
 22 25  1  0  0  0  0
 22 24  1  0  0  0  0
 23 22  1  0  0  0  0
M  END
