Coordinates from ORCA-job C6H6+TfO-+NH2N2+-scan
 OpenBabel10121810013D

 25 23  0  0  0  0  0  0  0  0999 V2000
   -1.9931   -2.6355   -0.0803 N   0  0  0  0  0  0  0  0  0  0  0  0
   -3.1072   -2.5608   -0.2264 N   0  0  0  0  0  0  0  0  0  0  0  0
   -0.7896   -2.7027    0.2187 N   0  0  0  0  0  0  0  0  0  0  0  0
   -0.2016   -2.8342   -0.6099 H   0  0  0  0  0  0  0  0  0  0  0  0
   -0.0147   -2.4932    1.7411 H   0  0  0  0  0  0  0  0  0  0  0  0
    0.3194   -1.1572   -3.6693 C   0  0  0  0  0  0  0  0  0  0  0  0
    0.2935   -1.9835   -4.7917 C   0  0  0  0  0  0  0  0  0  0  0  0
    0.9967   -3.1887   -4.7872 C   0  0  0  0  0  0  0  0  0  0  0  0
    1.7226   -3.5690   -3.6595 C   0  0  0  0  0  0  0  0  0  0  0  0
    1.7529   -2.7428   -2.5340 C   0  0  0  0  0  0  0  0  0  0  0  0
    1.0506   -1.5352   -2.5414 C   0  0  0  0  0  0  0  0  0  0  0  0
   -0.2203   -0.2162   -3.6755 H   0  0  0  0  0  0  0  0  0  0  0  0
   -0.2697   -1.6879   -5.6702 H   0  0  0  0  0  0  0  0  0  0  0  0
    0.9785   -3.8293   -5.6623 H   0  0  0  0  0  0  0  0  0  0  0  0
    2.2716   -4.5043   -3.6573 H   0  0  0  0  0  0  0  0  0  0  0  0
    2.3243   -3.0277   -1.6577 H   0  0  0  0  0  0  0  0  0  0  0  0
    1.0830   -0.8850   -1.6734 H   0  0  0  0  0  0  0  0  0  0  0  0
    2.0843   -2.2384    2.1579 S   0  0  0  0  0  0  0  0  0  0  0  0
    2.8916   -2.6372    3.2825 O   0  0  0  0  0  0  0  0  0  0  0  0
    2.2873   -2.7592    0.8160 O   0  0  0  0  0  0  0  0  0  0  0  0
    0.5490   -2.3709    2.5618 O   0  0  0  0  0  0  0  0  0  0  0  0
    2.2210   -0.3697    2.0120 C   0  0  0  0  0  0  0  0  0  0  0  0
    1.3474    0.0666    1.0956 F   0  0  0  0  0  0  0  0  0  0  0  0
    1.9578    0.2080    3.1771 F   0  0  0  0  0  0  0  0  0  0  0  0
    3.4534   -0.0563    1.6246 F   0  0  0  0  0  0  0  0  0  0  0  0
  1  3  2  0  0  0  0
  2  1  2  0  0  0  0
  4  3  1  0  0  0  0
  5 21  1  0  0  0  0
  6 11  2  0  0  0  0
  7  8  2  0  0  0  0
  7  6  1  0  0  0  0
  8  9  1  0  0  0  0
  9 15  1  0  0  0  0
  9 10  2  0  0  0  0
 10 16  1  0  0  0  0
 11 10  1  0  0  0  0
 11 17  1  0  0  0  0
 12  6  1  0  0  0  0
 13  7  1  0  0  0  0
 14  8  1  0  0  0  0
 18 21  1  0  0  0  0
 18 19  2  0  0  0  0
 20 18  2  0  0  0  0
 22 18  1  0  0  0  0
 22 24  1  0  0  0  0
 23 22  1  0  0  0  0
 25 22  1  0  0  0  0
M  RAD  1   2   2
M  END
