Coordinates from ORCA-job C6H6+TfO-+NH2N2+-scan
 OpenBabel10121810013D

 25 23  0  0  0  0  0  0  0  0999 V2000
   -1.9988   -2.6321   -0.0668 N   0  0  0  0  0  0  0  0  0  0  0  0
   -3.1132   -2.5554   -0.2101 N   0  0  0  0  0  0  0  0  0  0  0  0
   -0.7947   -2.7016    0.2294 N   0  0  0  0  0  0  0  0  0  0  0  0
   -0.2090   -2.8347   -0.6004 H   0  0  0  0  0  0  0  0  0  0  0  0
   -0.0154   -2.4941    1.7499 H   0  0  0  0  0  0  0  0  0  0  0  0
    0.3215   -1.1582   -3.6733 C   0  0  0  0  0  0  0  0  0  0  0  0
    0.2998   -1.9818   -4.7977 C   0  0  0  0  0  0  0  0  0  0  0  0
    1.0034   -3.1868   -4.7937 C   0  0  0  0  0  0  0  0  0  0  0  0
    1.7255   -3.5695   -3.6643 C   0  0  0  0  0  0  0  0  0  0  0  0
    1.7516   -2.7460   -2.5368 C   0  0  0  0  0  0  0  0  0  0  0  0
    1.0491   -1.5386   -2.5438 C   0  0  0  0  0  0  0  0  0  0  0  0
   -0.2183   -0.2173   -3.6791 H   0  0  0  0  0  0  0  0  0  0  0  0
   -0.2604   -1.6843   -5.6774 H   0  0  0  0  0  0  0  0  0  0  0  0
    0.9886   -3.8253   -5.6704 H   0  0  0  0  0  0  0  0  0  0  0  0
    2.2748   -4.5047   -3.6624 H   0  0  0  0  0  0  0  0  0  0  0  0
    2.3204   -3.0324   -1.6593 H   0  0  0  0  0  0  0  0  0  0  0  0
    1.0793   -0.8899   -1.6745 H   0  0  0  0  0  0  0  0  0  0  0  0
    2.0852   -2.2384    2.1576 S   0  0  0  0  0  0  0  0  0  0  0  0
    2.8979   -2.6359    3.2787 O   0  0  0  0  0  0  0  0  0  0  0  0
    2.2829   -2.7593    0.8149 O   0  0  0  0  0  0  0  0  0  0  0  0
    0.5519   -2.3729    2.5683 O   0  0  0  0  0  0  0  0  0  0  0  0
    2.2186   -0.3696    2.0105 C   0  0  0  0  0  0  0  0  0  0  0  0
    1.3397    0.0650    1.0982 F   0  0  0  0  0  0  0  0  0  0  0  0
    1.9602    0.2081    3.1766 F   0  0  0  0  0  0  0  0  0  0  0  0
    3.4485   -0.0544    1.6170 F   0  0  0  0  0  0  0  0  0  0  0  0
  1  3  2  0  0  0  0
  2  1  2  0  0  0  0
  4  3  1  0  0  0  0
  5 21  1  0  0  0  0
  6 11  2  0  0  0  0
  7  8  2  0  0  0  0
  7  6  1  0  0  0  0
  8  9  1  0  0  0  0
  9 15  1  0  0  0  0
  9 10  2  0  0  0  0
 10 16  1  0  0  0  0
 11 10  1  0  0  0  0
 11 17  1  0  0  0  0
 12  6  1  0  0  0  0
 13  7  1  0  0  0  0
 14  8  1  0  0  0  0
 18 21  1  0  0  0  0
 18 19  2  0  0  0  0
 20 18  2  0  0  0  0
 22 18  1  0  0  0  0
 22 24  1  0  0  0  0
 23 22  1  0  0  0  0
 25 22  1  0  0  0  0
M  RAD  1   2   2
M  END
