Coordinates from ORCA-job C6H6+TfO-+NH2N2+-scan
 OpenBabel10121810013D

 25 23  0  0  0  0  0  0  0  0999 V2000
   -1.3265   -0.9267   -0.5416 N   0  0  0  0  0  0  0  0  0  0  0  0
   -2.3153   -0.3934   -0.4507 N   0  0  0  0  0  0  0  0  0  0  0  0
   -0.2962   -1.6226   -0.5763 N   0  0  0  0  0  0  0  0  0  0  0  0
    0.3940   -1.2453   -1.2277 H   0  0  0  0  0  0  0  0  0  0  0  0
    0.1483   -2.7023    0.6711 H   0  0  0  0  0  0  0  0  0  0  0  0
   -0.0674   -1.9214   -4.5589 C   0  0  0  0  0  0  0  0  0  0  0  0
   -0.1692   -2.8555   -3.5295 C   0  0  0  0  0  0  0  0  0  0  0  0
    0.8357   -2.9447   -2.5650 C   0  0  0  0  0  0  0  0  0  0  0  0
    1.9680   -2.1313   -2.6599 C   0  0  0  0  0  0  0  0  0  0  0  0
    2.0648   -1.1925   -3.6904 C   0  0  0  0  0  0  0  0  0  0  0  0
    1.0465   -1.0840   -4.6365 C   0  0  0  0  0  0  0  0  0  0  0  0
   -0.8523   -1.8485   -5.3040 H   0  0  0  0  0  0  0  0  0  0  0  0
   -1.0340   -3.5075   -3.4715 H   0  0  0  0  0  0  0  0  0  0  0  0
    0.7651   -3.6803   -1.7742 H   0  0  0  0  0  0  0  0  0  0  0  0
    2.7574   -2.2268   -1.9231 H   0  0  0  0  0  0  0  0  0  0  0  0
    2.9403   -0.5561   -3.7598 H   0  0  0  0  0  0  0  0  0  0  0  0
    1.1246   -0.3576   -5.4379 H   0  0  0  0  0  0  0  0  0  0  0  0
    1.9576   -3.2589    1.7309 S   0  0  0  0  0  0  0  0  0  0  0  0
    2.3564   -4.4856    2.3744 O   0  0  0  0  0  0  0  0  0  0  0  0
    2.6780   -2.6879    0.6062 O   0  0  0  0  0  0  0  0  0  0  0  0
    0.4043   -3.3594    1.3878 O   0  0  0  0  0  0  0  0  0  0  0  0
    1.9089   -1.9226    3.0525 C   0  0  0  0  0  0  0  0  0  0  0  0
    1.3234   -0.8299    2.5511 F   0  0  0  0  0  0  0  0  0  0  0  0
    1.2231   -2.3428    4.1087 F   0  0  0  0  0  0  0  0  0  0  0  0
    3.1531   -1.6267    3.4157 F   0  0  0  0  0  0  0  0  0  0  0  0
  1  2  2  0  0  0  0
  3  1  2  0  0  0  0
  4  3  1  0  0  0  0
  5 21  1  0  0  0  0
  6  7  1  0  0  0  0
  7 13  1  0  0  0  0
  7  8  2  0  0  0  0
  8 14  1  0  0  0  0
  9  8  1  0  0  0  0
  9 15  1  0  0  0  0
 10  9  2  0  0  0  0
 11  6  2  0  0  0  0
 11 10  1  0  0  0  0
 12  6  1  0  0  0  0
 16 10  1  0  0  0  0
 17 11  1  0  0  0  0
 18 19  2  0  0  0  0
 18 22  1  0  0  0  0
 20 18  2  0  0  0  0
 21 18  1  0  0  0  0
 22 25  1  0  0  0  0
 22 24  1  0  0  0  0
 23 22  1  0  0  0  0
M  RAD  1   2   2
M  END
