Coordinates from ORCA-job C6H6+TfO-+NH2N2+-scan
 OpenBabel10121810013D

 25 23  0  0  0  0  0  0  0  0999 V2000
   -1.3168   -1.3974    0.6659 N   0  0  0  0  0  0  0  0  0  0  0  0
   -2.1335   -0.8832    0.0856 N   0  0  0  0  0  0  0  0  0  0  0  0
   -0.3613   -1.8311    1.3297 N   0  0  0  0  0  0  0  0  0  0  0  0
   -0.2480   -2.8424    1.2361 H   0  0  0  0  0  0  0  0  0  0  0  0
    0.3868   -1.3726    2.8443 H   0  0  0  0  0  0  0  0  0  0  0  0
   -0.5991   -2.7343   -5.2764 C   0  0  0  0  0  0  0  0  0  0  0  0
    0.6329   -3.3677   -5.1176 C   0  0  0  0  0  0  0  0  0  0  0  0
    1.7792   -2.6120   -4.8745 C   0  0  0  0  0  0  0  0  0  0  0  0
    1.6933   -1.2226   -4.7905 C   0  0  0  0  0  0  0  0  0  0  0  0
    0.4612   -0.5894   -4.9494 C   0  0  0  0  0  0  0  0  0  0  0  0
   -0.6850   -1.3452   -5.1919 C   0  0  0  0  0  0  0  0  0  0  0  0
   -1.4905   -3.3220   -5.4679 H   0  0  0  0  0  0  0  0  0  0  0  0
    0.7001   -4.4482   -5.1854 H   0  0  0  0  0  0  0  0  0  0  0  0
    2.7379   -3.1046   -4.7522 H   0  0  0  0  0  0  0  0  0  0  0  0
    2.5853   -0.6345   -4.6032 H   0  0  0  0  0  0  0  0  0  0  0  0
    0.3947    0.4915   -4.8860 H   0  0  0  0  0  0  0  0  0  0  0  0
   -1.6432   -0.8524   -5.3166 H   0  0  0  0  0  0  0  0  0  0  0  0
    1.6683   -2.7653    3.8671 S   0  0  0  0  0  0  0  0  0  0  0  0
    1.8343   -3.0392    5.2714 O   0  0  0  0  0  0  0  0  0  0  0  0
    1.1291   -3.7429    2.9334 O   0  0  0  0  0  0  0  0  0  0  0  0
    0.8890   -1.3801    3.7085 O   0  0  0  0  0  0  0  0  0  0  0  0
    3.3480   -2.2630    3.1895 C   0  0  0  0  0  0  0  0  0  0  0  0
    3.2019   -1.8161    1.9406 F   0  0  0  0  0  0  0  0  0  0  0  0
    3.8792   -1.3083    3.9430 F   0  0  0  0  0  0  0  0  0  0  0  0
    4.1450   -3.3273    3.1878 F   0  0  0  0  0  0  0  0  0  0  0  0
  1  3  2  0  0  0  0
  2  1  2  0  0  0  0
  4  3  1  0  0  0  0
  5 21  1  0  0  0  0
  6 11  2  0  0  0  0
  6  7  1  0  0  0  0
  7  8  2  0  0  0  0
  8  9  1  0  0  0  0
  8 14  1  0  0  0  0
  9 15  1  0  0  0  0
 10 16  1  0  0  0  0
 10  9  2  0  0  0  0
 11 10  1  0  0  0  0
 12  6  1  0  0  0  0
 13  7  1  0  0  0  0
 17 11  1  0  0  0  0
 18 19  2  0  0  0  0
 20 18  2  0  0  0  0
 21 18  1  0  0  0  0
 22 18  1  0  0  0  0
 22 24  1  0  0  0  0
 23 22  1  0  0  0  0
 25 22  1  0  0  0  0
M  RAD  1   2   2
M  END
