Coordinates from ORCA-job C6H6+TfO-+NH2N2+-scan
 OpenBabel10121810013D

 25 25  0  0  1  0  0  0  0  0999 V2000
   -1.1738   -1.1182   -1.1375 N   0  0  0  0  0  0  0  0  0  0  0  0
   -1.5602   -1.5576   -2.2102 N   0  0  0  0  0  0  0  0  0  0  0  0
    0.0802   -1.5442   -0.6981 N   0  0  0  0  0  0  0  0  0  0  0  0
    0.6536   -0.7208   -0.5051 H   0  0  0  0  0  0  0  0  0  0  0  0
    0.0680   -2.4690    0.6185 H   0  0  0  0  0  0  0  0  0  0  0  0
   -0.2710   -1.7591   -4.2793 C   0  0  0  0  0  0  0  0  0  0  0  0
   -0.4926   -2.4055   -2.9461 C   0  0  1  0  0  0  0  0  0  0  0  0
    0.7327   -2.4998   -2.0523 C   0  0  1  0  0  0  0  0  0  0  0  0
    1.9986   -1.9122   -2.5317 C   0  0  0  0  0  0  0  0  0  0  0  0
    2.0708   -1.3142   -3.7329 C   0  0  0  0  0  0  0  0  0  0  0  0
    0.9159   -1.2402   -4.6221 C   0  0  0  0  0  0  0  0  0  0  0  0
   -1.1266   -1.7032   -4.9423 H   0  0  0  0  0  0  0  0  0  0  0  0
   -0.9850   -3.3743   -3.0676 H   0  0  0  0  0  0  0  0  0  0  0  0
    0.8666   -3.4569   -1.5586 H   0  0  0  0  0  0  0  0  0  0  0  0
    2.8630   -2.0125   -1.8858 H   0  0  0  0  0  0  0  0  0  0  0  0
    3.0120   -0.8980   -4.0751 H   0  0  0  0  0  0  0  0  0  0  0  0
    1.0407   -0.7670   -5.5899 H   0  0  0  0  0  0  0  0  0  0  0  0
    1.6566   -3.3877    1.7949 S   0  0  0  0  0  0  0  0  0  0  0  0
    1.7352   -4.5930    2.5836 O   0  0  0  0  0  0  0  0  0  0  0  0
    2.4986   -3.1659    0.6275 O   0  0  0  0  0  0  0  0  0  0  0  0
    0.1446   -3.1003    1.4355 O   0  0  0  0  0  0  0  0  0  0  0  0
    2.0008   -1.9425    2.9442 C   0  0  0  0  0  0  0  0  0  0  0  0
    1.7455   -0.7973    2.2937 F   0  0  0  0  0  0  0  0  0  0  0  0
    1.2336   -2.0097    4.0248 F   0  0  0  0  0  0  0  0  0  0  0  0
    3.2811   -1.9612    3.3032 F   0  0  0  0  0  0  0  0  0  0  0  0
  1  3  1  0  0  0  0
  2  1  2  0  0  0  0
  3  4  1  0  0  0  0
  5 21  1  0  0  0  0
  6  7  1  0  0  0  0
  7 13  1  6  0  0  0
  7  2  1  0  0  0  0
  7  8  1  0  0  0  0
  8 14  1  1  0  0  0
  8  3  1  0  0  0  0
  9  8  1  0  0  0  0
  9 15  1  0  0  0  0
 10  9  2  0  0  0  0
 11  6  2  0  0  0  0
 11 10  1  0  0  0  0
 12  6  1  0  0  0  0
 16 10  1  0  0  0  0
 17 11  1  0  0  0  0
 18 19  2  0  0  0  0
 18 22  1  0  0  0  0
 20 18  2  0  0  0  0
 21 18  1  0  0  0  0
 22 25  1  0  0  0  0
 22 24  1  0  0  0  0
 23 22  1  0  0  0  0
M  END
