Coordinates from ORCA-job C6H6+TfO-+NH2N2+-scan
 OpenBabel10121810013D

 25 25  0  0  1  0  0  0  0  0999 V2000
   -1.1650   -1.1071   -1.1353 N   0  0  0  0  0  0  0  0  0  0  0  0
   -1.5556   -1.5425   -2.2084 N   0  0  0  0  0  0  0  0  0  0  0  0
    0.0905   -1.5479   -0.7034 N   0  0  0  0  0  0  0  0  0  0  0  0
    0.6703   -0.7300   -0.5068 H   0  0  0  0  0  0  0  0  0  0  0  0
    0.0740   -2.4743    0.6132 H   0  0  0  0  0  0  0  0  0  0  0  0
   -0.2745   -1.7616   -4.2807 C   0  0  0  0  0  0  0  0  0  0  0  0
   -0.4980   -2.3978   -2.9425 C   0  0  1  0  0  0  0  0  0  0  0  0
    0.7288   -2.4915   -2.0467 C   0  0  1  0  0  0  0  0  0  0  0  0
    1.9963   -1.9070   -2.5323 C   0  0  0  0  0  0  0  0  0  0  0  0
    2.0688   -1.3183   -3.7374 C   0  0  0  0  0  0  0  0  0  0  0  0
    0.9136   -1.2489   -4.6274 C   0  0  0  0  0  0  0  0  0  0  0  0
   -1.1301   -1.7083   -4.9440 H   0  0  0  0  0  0  0  0  0  0  0  0
   -0.9932   -3.3659   -3.0583 H   0  0  0  0  0  0  0  0  0  0  0  0
    0.8654   -3.4540   -1.5635 H   0  0  0  0  0  0  0  0  0  0  0  0
    2.8607   -2.0032   -1.8857 H   0  0  0  0  0  0  0  0  0  0  0  0
    3.0104   -0.9053   -4.0826 H   0  0  0  0  0  0  0  0  0  0  0  0
    1.0396   -0.7833   -5.5987 H   0  0  0  0  0  0  0  0  0  0  0  0
    1.6634   -3.3858    1.7928 S   0  0  0  0  0  0  0  0  0  0  0  0
    1.7476   -4.5952    2.5745 O   0  0  0  0  0  0  0  0  0  0  0  0
    2.5080   -3.1508    0.6300 O   0  0  0  0  0  0  0  0  0  0  0  0
    0.1507   -3.1069    1.4290 O   0  0  0  0  0  0  0  0  0  0  0  0
    1.9925   -1.9451    2.9522 C   0  0  0  0  0  0  0  0  0  0  0  0
    1.7322   -0.7980    2.3074 F   0  0  0  0  0  0  0  0  0  0  0  0
    1.2210   -2.0242    4.0290 F   0  0  0  0  0  0  0  0  0  0  0  0
    3.2714   -1.9573    3.3167 F   0  0  0  0  0  0  0  0  0  0  0  0
  1  3  1  0  0  0  0
  2  1  2  0  0  0  0
  3  4  1  0  0  0  0
  5 21  1  0  0  0  0
  6  7  1  0  0  0  0
  7 13  1  6  0  0  0
  7  2  1  0  0  0  0
  7  8  1  0  0  0  0
  8 14  1  1  0  0  0
  8  3  1  0  0  0  0
  9  8  1  0  0  0  0
  9 15  1  0  0  0  0
 10  9  2  0  0  0  0
 11  6  2  0  0  0  0
 11 10  1  0  0  0  0
 12  6  1  0  0  0  0
 16 10  1  0  0  0  0
 17 11  1  0  0  0  0
 18 19  2  0  0  0  0
 18 22  1  0  0  0  0
 20 18  2  0  0  0  0
 21 18  1  0  0  0  0
 22 25  1  0  0  0  0
 22 24  1  0  0  0  0
 23 22  1  0  0  0  0
M  END
