Coordinates from ORCA-job C6H6+TfO-+NH2N2+-scan
 OpenBabel10121810013D

 25 23  0  0  0  0  0  0  0  0999 V2000
   -1.7461   -2.7051   -0.4384 N   0  0  0  0  0  0  0  0  0  0  0  0
   -2.8503   -2.6215   -0.6453 N   0  0  0  0  0  0  0  0  0  0  0  0
   -0.5628   -2.8013   -0.0772 N   0  0  0  0  0  0  0  0  0  0  0  0
    0.0777   -2.8217   -0.8787 H   0  0  0  0  0  0  0  0  0  0  0  0
    0.0979   -2.6563    1.4891 H   0  0  0  0  0  0  0  0  0  0  0  0
    0.4476   -1.0448   -3.6328 C   0  0  0  0  0  0  0  0  0  0  0  0
    0.0969   -2.0002   -4.5861 C   0  0  0  0  0  0  0  0  0  0  0  0
    0.6256   -3.2892   -4.5109 C   0  0  0  0  0  0  0  0  0  0  0  0
    1.5057   -3.6231   -3.4821 C   0  0  0  0  0  0  0  0  0  0  0  0
    1.8609   -2.6679   -2.5265 C   0  0  0  0  0  0  0  0  0  0  0  0
    1.3291   -1.3775   -2.6032 C   0  0  0  0  0  0  0  0  0  0  0  0
    0.0403   -0.0415   -3.6948 H   0  0  0  0  0  0  0  0  0  0  0  0
   -0.5855   -1.7407   -5.3881 H   0  0  0  0  0  0  0  0  0  0  0  0
    0.3537   -4.0305   -5.2544 H   0  0  0  0  0  0  0  0  0  0  0  0
    1.9213   -4.6232   -3.4258 H   0  0  0  0  0  0  0  0  0  0  0  0
    2.5467   -2.9200   -1.7254 H   0  0  0  0  0  0  0  0  0  0  0  0
    1.6055   -0.6357   -1.8618 H   0  0  0  0  0  0  0  0  0  0  0  0
    2.1135   -2.2316    2.1456 S   0  0  0  0  0  0  0  0  0  0  0  0
    2.8350   -2.6118    3.3336 O   0  0  0  0  0  0  0  0  0  0  0  0
    2.5192   -2.6420    0.8116 O   0  0  0  0  0  0  0  0  0  0  0  0
    0.5700   -2.5480    2.3698 O   0  0  0  0  0  0  0  0  0  0  0  0
    2.0562   -0.3539    2.1088 C   0  0  0  0  0  0  0  0  0  0  0  0
    1.2530    0.0434    1.1136 F   0  0  0  0  0  0  0  0  0  0  0  0
    1.5954    0.1212    3.2591 F   0  0  0  0  0  0  0  0  0  0  0  0
    3.2826    0.1125    1.8915 F   0  0  0  0  0  0  0  0  0  0  0  0
  1  3  2  0  0  0  0
  2  1  2  0  0  0  0
  4  3  1  0  0  0  0
  5 21  1  0  0  0  0
  6 11  2  0  0  0  0
  7  8  2  0  0  0  0
  7  6  1  0  0  0  0
  8  9  1  0  0  0  0
  9 15  1  0  0  0  0
  9 10  2  0  0  0  0
 10 16  1  0  0  0  0
 11 10  1  0  0  0  0
 11 17  1  0  0  0  0
 12  6  1  0  0  0  0
 13  7  1  0  0  0  0
 14  8  1  0  0  0  0
 18 21  1  0  0  0  0
 18 19  2  0  0  0  0
 20 18  2  0  0  0  0
 22 18  1  0  0  0  0
 22 24  1  0  0  0  0
 23 22  1  0  0  0  0
 25 22  1  0  0  0  0
M  RAD  1   2   2
M  END
