Coordinates from ORCA-job C6H6+TfO-+NH2N2+-scan
 OpenBabel10121810013D

 25 23  0  0  0  0  0  0  0  0999 V2000
   -1.2497   -1.6243   -0.5006 N   0  0  0  0  0  0  0  0  0  0  0  0
   -2.3752   -1.5526   -0.3829 N   0  0  0  0  0  0  0  0  0  0  0  0
   -0.1055   -2.0105   -0.8888 N   0  0  0  0  0  0  0  0  0  0  0  0
    0.5152   -1.2041   -1.0030 H   0  0  0  0  0  0  0  0  0  0  0  0
    0.8491   -2.9522    0.2825 H   0  0  0  0  0  0  0  0  0  0  0  0
    0.0687   -1.2442   -4.3099 C   0  0  0  0  0  0  0  0  0  0  0  0
   -0.6143   -2.1638   -3.5227 C   0  0  0  0  0  0  0  0  0  0  0  0
    0.0888   -2.9632   -2.5924 C   0  0  0  0  0  0  0  0  0  0  0  0
    1.4980   -3.0081   -2.6888 C   0  0  0  0  0  0  0  0  0  0  0  0
    2.1723   -2.0859   -3.4805 C   0  0  0  0  0  0  0  0  0  0  0  0
    1.4640   -1.1807   -4.2749 C   0  0  0  0  0  0  0  0  0  0  0  0
   -0.4844   -0.5951   -4.9806 H   0  0  0  0  0  0  0  0  0  0  0  0
   -1.6950   -2.2356   -3.5844 H   0  0  0  0  0  0  0  0  0  0  0  0
   -0.4270   -3.8027   -2.1404 H   0  0  0  0  0  0  0  0  0  0  0  0
    2.0541   -3.7248   -2.0945 H   0  0  0  0  0  0  0  0  0  0  0  0
    3.2568   -2.0888   -3.5004 H   0  0  0  0  0  0  0  0  0  0  0  0
    1.9945   -0.4673   -4.8950 H   0  0  0  0  0  0  0  0  0  0  0  0
    2.4995   -2.2620    1.4796 S   0  0  0  0  0  0  0  0  0  0  0  0
    3.7517   -2.8909    1.8135 O   0  0  0  0  0  0  0  0  0  0  0  0
    2.4066   -1.0616    0.6656 O   0  0  0  0  0  0  0  0  0  0  0  0
    1.5118   -3.3796    0.8974 O   0  0  0  0  0  0  0  0  0  0  0  0
    1.6122   -1.8774    3.0922 C   0  0  0  0  0  0  0  0  0  0  0  0
    0.3608   -1.4947    2.8188 F   0  0  0  0  0  0  0  0  0  0  0  0
    1.5857   -2.9509    3.8709 F   0  0  0  0  0  0  0  0  0  0  0  0
    2.2501   -0.8893    3.7104 F   0  0  0  0  0  0  0  0  0  0  0  0
  1  2  2  0  0  0  0
  3  1  2  0  0  0  0
  4  3  1  0  0  0  0
  5 21  1  0  0  0  0
  6 11  2  0  0  0  0
  6  7  1  0  0  0  0
  7  8  2  0  0  0  0
  8 14  1  0  0  0  0
  9  8  1  0  0  0  0
  9 15  1  0  0  0  0
 10  9  2  0  0  0  0
 11 10  1  0  0  0  0
 12  6  1  0  0  0  0
 13  7  1  0  0  0  0
 16 10  1  0  0  0  0
 17 11  1  0  0  0  0
 18 19  2  0  0  0  0
 18 22  1  0  0  0  0
 20 18  2  0  0  0  0
 21 18  1  0  0  0  0
 22 25  1  0  0  0  0
 22 24  1  0  0  0  0
 23 22  1  0  0  0  0
M  RAD  1   2   2
M  END
