Coordinates from ORCA-job C6H6+TfO-+NH2N2+-scan
 OpenBabel10121810013D

 25 23  0  0  0  0  0  0  0  0999 V2000
   -1.8239   -2.6534   -0.3025 N   0  0  0  0  0  0  0  0  0  0  0  0
   -2.9303   -2.5558   -0.4897 N   0  0  0  0  0  0  0  0  0  0  0  0
   -0.6351   -2.7606    0.0382 N   0  0  0  0  0  0  0  0  0  0  0  0
   -0.0126   -2.8183   -0.7750 H   0  0  0  0  0  0  0  0  0  0  0  0
    0.0692   -2.6115    1.5912 H   0  0  0  0  0  0  0  0  0  0  0  0
    0.3982   -1.0941   -3.6380 C   0  0  0  0  0  0  0  0  0  0  0  0
    0.1767   -1.9936   -4.6797 C   0  0  0  0  0  0  0  0  0  0  0  0
    0.7665   -3.2578   -4.6480 C   0  0  0  0  0  0  0  0  0  0  0  0
    1.5764   -3.6233   -3.5739 C   0  0  0  0  0  0  0  0  0  0  0  0
    1.8022   -2.7242   -2.5290 C   0  0  0  0  0  0  0  0  0  0  0  0
    1.2115   -1.4580   -2.5631 C   0  0  0  0  0  0  0  0  0  0  0  0
   -0.0544   -0.1088   -3.6660 H   0  0  0  0  0  0  0  0  0  0  0  0
   -0.4515   -1.7098   -5.5170 H   0  0  0  0  0  0  0  0  0  0  0  0
    0.5956   -3.9554   -5.4606 H   0  0  0  0  0  0  0  0  0  0  0  0
    2.0383   -4.6042   -3.5511 H   0  0  0  0  0  0  0  0  0  0  0  0
    2.4357   -2.9998   -1.6933 H   0  0  0  0  0  0  0  0  0  0  0  0
    1.3920   -0.7559   -1.7561 H   0  0  0  0  0  0  0  0  0  0  0  0
    2.1179   -2.2223    2.1519 S   0  0  0  0  0  0  0  0  0  0  0  0
    2.8841   -2.6045    3.3106 O   0  0  0  0  0  0  0  0  0  0  0  0
    2.4510   -2.6603    0.8065 O   0  0  0  0  0  0  0  0  0  0  0  0
    0.5786   -2.4991    2.4495 O   0  0  0  0  0  0  0  0  0  0  0  0
    2.1032   -0.3443    2.0914 C   0  0  0  0  0  0  0  0  0  0  0  0
    1.2580    0.0594    1.1340 F   0  0  0  0  0  0  0  0  0  0  0  0
    1.7147    0.1563    3.2572 F   0  0  0  0  0  0  0  0  0  0  0  0
    3.3269    0.0888    1.8036 F   0  0  0  0  0  0  0  0  0  0  0  0
  1  3  2  0  0  0  0
  2  1  2  0  0  0  0
  4  3  1  0  0  0  0
  5 21  1  0  0  0  0
  6 11  2  0  0  0  0
  7  8  2  0  0  0  0
  7  6  1  0  0  0  0
  8  9  1  0  0  0  0
  9 15  1  0  0  0  0
  9 10  2  0  0  0  0
 10 16  1  0  0  0  0
 11 10  1  0  0  0  0
 11 17  1  0  0  0  0
 12  6  1  0  0  0  0
 13  7  1  0  0  0  0
 14  8  1  0  0  0  0
 18 21  1  0  0  0  0
 18 19  2  0  0  0  0
 20 18  2  0  0  0  0
 22 18  1  0  0  0  0
 22 24  1  0  0  0  0
 23 22  1  0  0  0  0
 25 22  1  0  0  0  0
M  RAD  1   2   2
M  END
