Coordinates from ORCA-job C6H6+TfO-+NH2N2+-scan
 OpenBabel10121810013D

 25 23  0  0  0  0  0  0  0  0999 V2000
   -2.1791   -2.6530    0.2689 N   0  0  0  0  0  0  0  0  0  0  0  0
   -3.2988   -2.5913    0.1663 N   0  0  0  0  0  0  0  0  0  0  0  0
   -0.9644   -2.6986    0.5243 N   0  0  0  0  0  0  0  0  0  0  0  0
   -0.4051   -2.8794   -0.3127 H   0  0  0  0  0  0  0  0  0  0  0  0
   -0.0809   -2.4402    1.9867 H   0  0  0  0  0  0  0  0  0  0  0  0
    0.4059   -1.1723   -3.7189 C   0  0  0  0  0  0  0  0  0  0  0  0
    0.4662   -1.9030   -4.9047 C   0  0  0  0  0  0  0  0  0  0  0  0
    1.1711   -3.1062   -4.9478 C   0  0  0  0  0  0  0  0  0  0  0  0
    1.8106   -3.5811   -3.8032 C   0  0  0  0  0  0  0  0  0  0  0  0
    1.7538   -2.8508   -2.6152 C   0  0  0  0  0  0  0  0  0  0  0  0
    1.0520   -1.6445   -2.5752 C   0  0  0  0  0  0  0  0  0  0  0  0
   -0.1340   -0.2319   -3.6882 H   0  0  0  0  0  0  0  0  0  0  0  0
   -0.0305   -1.5336   -5.7954 H   0  0  0  0  0  0  0  0  0  0  0  0
    1.2211   -3.6720   -5.8719 H   0  0  0  0  0  0  0  0  0  0  0  0
    2.3600   -4.5157   -3.8373 H   0  0  0  0  0  0  0  0  0  0  0  0
    2.2600   -3.2056   -1.7245 H   0  0  0  0  0  0  0  0  0  0  0  0
    1.0285   -1.0650   -1.6581 H   0  0  0  0  0  0  0  0  0  0  0  0
    2.0526   -2.2115    2.1340 S   0  0  0  0  0  0  0  0  0  0  0  0
    2.9890   -2.5948    3.1592 O   0  0  0  0  0  0  0  0  0  0  0  0
    2.0778   -2.7718    0.7922 O   0  0  0  0  0  0  0  0  0  0  0  0
    0.5773   -2.3078    2.7302 O   0  0  0  0  0  0  0  0  0  0  0  0
    2.1912   -0.3497    1.9178 C   0  0  0  0  0  0  0  0  0  0  0  0
    1.2134    0.0714    1.1059 F   0  0  0  0  0  0  0  0  0  0  0  0
    2.0829    0.2634    3.0892 F   0  0  0  0  0  0  0  0  0  0  0  0
    3.3681   -0.0653    1.3696 F   0  0  0  0  0  0  0  0  0  0  0  0
  1  3  2  0  0  0  0
  2  1  2  0  0  0  0
  4  3  1  0  0  0  0
  5 21  1  0  0  0  0
  6 12  1  0  0  0  0
  6 11  2  0  0  0  0
  7  6  1  0  0  0  0
  8  7  2  0  0  0  0
  8  9  1  0  0  0  0
  9 10  2  0  0  0  0
 10 11  1  0  0  0  0
 10 16  1  0  0  0  0
 11 17  1  0  0  0  0
 13  7  1  0  0  0  0
 14  8  1  0  0  0  0
 15  9  1  0  0  0  0
 18 21  1  0  0  0  0
 18 19  2  0  0  0  0
 20 18  2  0  0  0  0
 22 18  1  0  0  0  0
 22 24  1  0  0  0  0
 23 22  1  0  0  0  0
 25 22  1  0  0  0  0
M  RAD  1   2   2
M  END
