Coordinates from ORCA-job C6H6+TfO-+NH2N2+-scan
 OpenBabel10121810013D

 25 23  0  0  0  0  0  0  0  0999 V2000
   -1.7246   -2.7178   -0.4782 N   0  0  0  0  0  0  0  0  0  0  0  0
   -2.8277   -2.6373   -0.6921 N   0  0  0  0  0  0  0  0  0  0  0  0
   -0.5435   -2.8120   -0.1094 N   0  0  0  0  0  0  0  0  0  0  0  0
    0.1031   -2.8227   -0.9062 H   0  0  0  0  0  0  0  0  0  0  0  0
    0.1048   -2.6702    1.4608 H   0  0  0  0  0  0  0  0  0  0  0  0
    0.4649   -1.0323   -3.6274 C   0  0  0  0  0  0  0  0  0  0  0  0
    0.0710   -2.0005   -4.5508 C   0  0  0  0  0  0  0  0  0  0  0  0
    0.5823   -3.2958   -4.4663 C   0  0  0  0  0  0  0  0  0  0  0  0
    1.4883   -3.6235   -3.4580 C   0  0  0  0  0  0  0  0  0  0  0  0
    1.8865   -2.6557   -2.5323 C   0  0  0  0  0  0  0  0  0  0  0  0
    1.3719   -1.3590   -2.6184 C   0  0  0  0  0  0  0  0  0  0  0  0
    0.0707   -0.0243   -3.6968 H   0  0  0  0  0  0  0  0  0  0  0  0
   -0.6315   -1.7456   -5.3368 H   0  0  0  0  0  0  0  0  0  0  0  0
    0.2771   -4.0470   -5.1865 H   0  0  0  0  0  0  0  0  0  0  0  0
    1.8905   -4.6287   -3.3944 H   0  0  0  0  0  0  0  0  0  0  0  0
    2.5919   -2.9027   -1.7470 H   0  0  0  0  0  0  0  0  0  0  0  0
    1.6815   -0.6080   -1.8999 H   0  0  0  0  0  0  0  0  0  0  0  0
    2.1102   -2.2330    2.1422 S   0  0  0  0  0  0  0  0  0  0  0  0
    2.8206   -2.6119    3.3373 O   0  0  0  0  0  0  0  0  0  0  0  0
    2.5357   -2.6341    0.8117 O   0  0  0  0  0  0  0  0  0  0  0  0
    0.5671   -2.5636    2.3471 O   0  0  0  0  0  0  0  0  0  0  0  0
    2.0366   -0.3559    2.1125 C   0  0  0  0  0  0  0  0  0  0  0  0
    1.2428    0.0385    1.1087 F   0  0  0  0  0  0  0  0  0  0  0  0
    1.5570    0.1104    3.2588 F   0  0  0  0  0  0  0  0  0  0  0  0
    3.2615    0.1225    1.9128 F   0  0  0  0  0  0  0  0  0  0  0  0
  1  3  2  0  0  0  0
  2  1  2  0  0  0  0
  4  3  1  0  0  0  0
  5 21  1  0  0  0  0
  6 11  2  0  0  0  0
  7  8  2  0  0  0  0
  7  6  1  0  0  0  0
  8  9  1  0  0  0  0
  9 15  1  0  0  0  0
  9 10  2  0  0  0  0
 10 16  1  0  0  0  0
 11 10  1  0  0  0  0
 11 17  1  0  0  0  0
 12  6  1  0  0  0  0
 13  7  1  0  0  0  0
 14  8  1  0  0  0  0
 18 21  1  0  0  0  0
 18 19  2  0  0  0  0
 20 18  2  0  0  0  0
 22 18  1  0  0  0  0
 22 24  1  0  0  0  0
 23 22  1  0  0  0  0
 25 22  1  0  0  0  0
M  RAD  1   2   2
M  END
