Coordinates from ORCA-job C6H6+TfO-+NH2N2+-scan
 OpenBabel10121810013D

 25 23  0  0  0  0  0  0  0  0999 V2000
   -2.1482   -2.6509    0.1879 N   0  0  0  0  0  0  0  0  0  0  0  0
   -3.2666   -2.5919    0.0706 N   0  0  0  0  0  0  0  0  0  0  0  0
   -0.9367   -2.6937    0.4585 N   0  0  0  0  0  0  0  0  0  0  0  0
   -0.3668   -2.8723   -0.3723 H   0  0  0  0  0  0  0  0  0  0  0  0
   -0.0785   -2.4365    1.9374 H   0  0  0  0  0  0  0  0  0  0  0  0
    0.3849   -1.1795   -3.6874 C   0  0  0  0  0  0  0  0  0  0  0  0
    0.4303   -1.9172   -4.8695 C   0  0  0  0  0  0  0  0  0  0  0  0
    1.1412   -3.1169   -4.9163 C   0  0  0  0  0  0  0  0  0  0  0  0
    1.8024   -3.5806   -3.7796 C   0  0  0  0  0  0  0  0  0  0  0  0
    1.7606   -2.8433   -2.5951 C   0  0  0  0  0  0  0  0  0  0  0  0
    1.0520   -1.6409   -2.5513 C   0  0  0  0  0  0  0  0  0  0  0  0
   -0.1600   -0.2420   -3.6537 H   0  0  0  0  0  0  0  0  0  0  0  0
   -0.0829   -1.5564   -5.7543 H   0  0  0  0  0  0  0  0  0  0  0  0
    1.1792   -3.6883   -5.8374 H   0  0  0  0  0  0  0  0  0  0  0  0
    2.3567   -4.5121   -3.8169 H   0  0  0  0  0  0  0  0  0  0  0  0
    2.2831   -3.1897   -1.7107 H   0  0  0  0  0  0  0  0  0  0  0  0
    1.0369   -1.0572   -1.6367 H   0  0  0  0  0  0  0  0  0  0  0  0
    2.0514   -2.2093    2.1254 S   0  0  0  0  0  0  0  0  0  0  0  0
    2.9684   -2.6087    3.1620 O   0  0  0  0  0  0  0  0  0  0  0  0
    2.0959   -2.7550    0.7782 O   0  0  0  0  0  0  0  0  0  0  0  0
    0.5652   -2.3041    2.6938 O   0  0  0  0  0  0  0  0  0  0  0  0
    2.2044   -0.3460    1.9326 C   0  0  0  0  0  0  0  0  0  0  0  0
    1.2434    0.0908    1.1092 F   0  0  0  0  0  0  0  0  0  0  0  0
    2.0802    0.2544    3.1090 F   0  0  0  0  0  0  0  0  0  0  0  0
    3.3923   -0.0631    1.4077 F   0  0  0  0  0  0  0  0  0  0  0  0
  1  3  2  0  0  0  0
  2  1  2  0  0  0  0
  4  3  1  0  0  0  0
  5 21  1  0  0  0  0
  6 12  1  0  0  0  0
  6 11  2  0  0  0  0
  7  6  1  0  0  0  0
  8  7  2  0  0  0  0
  8  9  1  0  0  0  0
  9 10  2  0  0  0  0
 10 11  1  0  0  0  0
 10 16  1  0  0  0  0
 11 17  1  0  0  0  0
 13  7  1  0  0  0  0
 14  8  1  0  0  0  0
 15  9  1  0  0  0  0
 18 21  1  0  0  0  0
 18 19  2  0  0  0  0
 20 18  2  0  0  0  0
 22 18  1  0  0  0  0
 22 24  1  0  0  0  0
 23 22  1  0  0  0  0
 25 22  1  0  0  0  0
M  RAD  1   2   2
M  END
