Coordinates from ORCA-job C6H6+TfO-+NH2N2+-scan
 OpenBabel10121810013D

 25 23  0  0  0  0  0  0  0  0999 V2000
   -1.1465   -1.1647   -0.7225 N   0  0  0  0  0  0  0  0  0  0  0  0
   -2.2299   -0.8479   -0.7501 N   0  0  0  0  0  0  0  0  0  0  0  0
   -0.0300   -1.7252   -0.7619 N   0  0  0  0  0  0  0  0  0  0  0  0
    0.7052   -1.0551   -0.9896 H   0  0  0  0  0  0  0  0  0  0  0  0
    0.4323   -2.8176    0.4981 H   0  0  0  0  0  0  0  0  0  0  0  0
   -0.1767   -1.6751   -4.4481 C   0  0  0  0  0  0  0  0  0  0  0  0
   -0.4248   -2.6194   -3.4545 C   0  0  0  0  0  0  0  0  0  0  0  0
    0.5706   -2.9400   -2.5228 C   0  0  0  0  0  0  0  0  0  0  0  0
    1.8619   -2.4243   -2.6984 C   0  0  0  0  0  0  0  0  0  0  0  0
    2.1052   -1.4772   -3.6918 C   0  0  0  0  0  0  0  0  0  0  0  0
    1.0843   -1.0886   -4.5605 C   0  0  0  0  0  0  0  0  0  0  0  0
   -0.9617   -1.4095   -5.1482 H   0  0  0  0  0  0  0  0  0  0  0  0
   -1.4016   -3.0867   -3.3851 H   0  0  0  0  0  0  0  0  0  0  0  0
    0.4069   -3.7465   -1.8222 H   0  0  0  0  0  0  0  0  0  0  0  0
    2.6606   -2.7276   -2.0306 H   0  0  0  0  0  0  0  0  0  0  0  0
    3.0994   -1.0573   -3.8020 H   0  0  0  0  0  0  0  0  0  0  0  0
    1.2780   -0.3566   -5.3367 H   0  0  0  0  0  0  0  0  0  0  0  0
    2.2123   -3.0012    1.7052 S   0  0  0  0  0  0  0  0  0  0  0  0
    2.8782   -4.1502    2.2641 O   0  0  0  0  0  0  0  0  0  0  0  0
    2.8266   -2.1320    0.7162 O   0  0  0  0  0  0  0  0  0  0  0  0
    0.7680   -3.4560    1.1956 O   0  0  0  0  0  0  0  0  0  0  0  0
    1.7066   -1.8911    3.1360 C   0  0  0  0  0  0  0  0  0  0  0  0
    0.8934   -0.9325    2.6779 F   0  0  0  0  0  0  0  0  0  0  0  0
    1.0758   -2.5951    4.0671 F   0  0  0  0  0  0  0  0  0  0  0  0
    2.7946   -1.3327    3.6559 F   0  0  0  0  0  0  0  0  0  0  0  0
  2  1  2  0  0  0  0
  3  1  2  0  0  0  0
  4  3  1  0  0  0  0
  5 21  1  0  0  0  0
  6  7  1  0  0  0  0
  7 13  1  0  0  0  0
  7  8  2  0  0  0  0
  8 14  1  0  0  0  0
  9  8  1  0  0  0  0
  9 15  1  0  0  0  0
 10  9  2  0  0  0  0
 11  6  2  0  0  0  0
 11 10  1  0  0  0  0
 12  6  1  0  0  0  0
 16 10  1  0  0  0  0
 17 11  1  0  0  0  0
 18 19  2  0  0  0  0
 18 22  1  0  0  0  0
 20 18  2  0  0  0  0
 21 18  1  0  0  0  0
 22 25  1  0  0  0  0
 22 24  1  0  0  0  0
 23 22  1  0  0  0  0
M  RAD  1   2   2
M  END
