Coordinates from ORCA-job C6H6+TfO-+NH2N2+-scan
 OpenBabel10121810013D

 25 23  0  0  0  0  0  0  0  0999 V2000
   -1.3052   -1.5519   -0.4776 N   0  0  0  0  0  0  0  0  0  0  0  0
   -2.4045   -1.3879   -0.2703 N   0  0  0  0  0  0  0  0  0  0  0  0
   -0.1749   -1.9691   -0.8297 N   0  0  0  0  0  0  0  0  0  0  0  0
    0.4428   -1.1834   -1.0469 H   0  0  0  0  0  0  0  0  0  0  0  0
    0.7701   -2.9257    0.2981 H   0  0  0  0  0  0  0  0  0  0  0  0
    0.0663   -1.2965   -4.3408 C   0  0  0  0  0  0  0  0  0  0  0  0
   -0.5844   -2.2475   -3.5600 C   0  0  0  0  0  0  0  0  0  0  0  0
    0.1420   -3.0242   -2.6432 C   0  0  0  0  0  0  0  0  0  0  0  0
    1.5442   -2.9766   -2.6773 C   0  0  0  0  0  0  0  0  0  0  0  0
    2.1913   -2.0224   -3.4583 C   0  0  0  0  0  0  0  0  0  0  0  0
    1.4550   -1.1652   -4.2779 C   0  0  0  0  0  0  0  0  0  0  0  0
   -0.5061   -0.6710   -5.0176 H   0  0  0  0  0  0  0  0  0  0  0  0
   -1.6616   -2.3598   -3.6291 H   0  0  0  0  0  0  0  0  0  0  0  0
   -0.3481   -3.8434   -2.1344 H   0  0  0  0  0  0  0  0  0  0  0  0
    2.1227   -3.6533   -2.0581 H   0  0  0  0  0  0  0  0  0  0  0  0
    3.2739   -1.9597   -3.4427 H   0  0  0  0  0  0  0  0  0  0  0  0
    1.9614   -0.4255   -4.8878 H   0  0  0  0  0  0  0  0  0  0  0  0
    2.4815   -2.3224    1.4600 S   0  0  0  0  0  0  0  0  0  0  0  0
    3.7017   -3.0184    1.7807 O   0  0  0  0  0  0  0  0  0  0  0  0
    2.4452   -1.1212    0.6434 O   0  0  0  0  0  0  0  0  0  0  0  0
    1.4276   -3.3863    0.8970 O   0  0  0  0  0  0  0  0  0  0  0  0
    1.6392   -1.8839    3.0827 C   0  0  0  0  0  0  0  0  0  0  0  0
    0.4053   -1.4372    2.8255 F   0  0  0  0  0  0  0  0  0  0  0  0
    1.5672   -2.9504    3.8684 F   0  0  0  0  0  0  0  0  0  0  0  0
    2.3363   -0.9274    3.6869 F   0  0  0  0  0  0  0  0  0  0  0  0
  1  2  2  0  0  0  0
  3  1  2  0  0  0  0
  4  3  1  0  0  0  0
  5 21  1  0  0  0  0
  6 11  2  0  0  0  0
  6  7  1  0  0  0  0
  7  8  2  0  0  0  0
  8 14  1  0  0  0  0
  9  8  1  0  0  0  0
  9 15  1  0  0  0  0
 10 16  1  0  0  0  0
 10  9  2  0  0  0  0
 11 10  1  0  0  0  0
 12  6  1  0  0  0  0
 13  7  1  0  0  0  0
 17 11  1  0  0  0  0
 18 19  2  0  0  0  0
 18 22  1  0  0  0  0
 20 18  2  0  0  0  0
 21 18  1  0  0  0  0
 22 25  1  0  0  0  0
 22 24  1  0  0  0  0
 23 22  1  0  0  0  0
M  RAD  1   2   2
M  END
