Coordinates from ORCA-job C6H6+TfO-+NH2N2+-scan
 OpenBabel10121810013D

 25 23  0  0  0  0  0  0  0  0999 V2000
   -1.6779   -2.7282   -0.5567 N   0  0  0  0  0  0  0  0  0  0  0  0
   -2.7777   -2.6428   -0.7854 N   0  0  0  0  0  0  0  0  0  0  0  0
   -0.5028   -2.8304   -0.1720 N   0  0  0  0  0  0  0  0  0  0  0  0
    0.1567   -2.8284   -0.9583 H   0  0  0  0  0  0  0  0  0  0  0  0
    0.1191   -2.7069    1.4109 H   0  0  0  0  0  0  0  0  0  0  0  0
    0.5044   -1.0104   -3.5886 C   0  0  0  0  0  0  0  0  0  0  0  0
    0.0286   -1.9883   -4.4620 C   0  0  0  0  0  0  0  0  0  0  0  0
    0.5056   -3.2963   -4.3731 C   0  0  0  0  0  0  0  0  0  0  0  0
    1.4608   -3.6272   -3.4123 C   0  0  0  0  0  0  0  0  0  0  0  0
    1.9392   -2.6500   -2.5360 C   0  0  0  0  0  0  0  0  0  0  0  0
    1.4577   -1.3409   -2.6247 C   0  0  0  0  0  0  0  0  0  0  0  0
    0.1356    0.0070   -3.6602 H   0  0  0  0  0  0  0  0  0  0  0  0
   -0.7116   -1.7315   -5.2120 H   0  0  0  0  0  0  0  0  0  0  0  0
    0.1363   -4.0549   -5.0546 H   0  0  0  0  0  0  0  0  0  0  0  0
    1.8360   -4.6425   -3.3456 H   0  0  0  0  0  0  0  0  0  0  0  0
    2.6752   -2.9018   -1.7811 H   0  0  0  0  0  0  0  0  0  0  0  0
    1.8268   -0.5848   -1.9407 H   0  0  0  0  0  0  0  0  0  0  0  0
    2.1052   -2.2331    2.1224 S   0  0  0  0  0  0  0  0  0  0  0  0
    2.8066   -2.5900    3.3296 O   0  0  0  0  0  0  0  0  0  0  0  0
    2.5627   -2.6245    0.7998 O   0  0  0  0  0  0  0  0  0  0  0  0
    0.5691   -2.6070    2.3044 O   0  0  0  0  0  0  0  0  0  0  0  0
    1.9796   -0.3587    2.0871 C   0  0  0  0  0  0  0  0  0  0  0  0
    1.1771    0.0109    1.0807 F   0  0  0  0  0  0  0  0  0  0  0  0
    1.4852    0.0975    3.2312 F   0  0  0  0  0  0  0  0  0  0  0  0
    3.1913    0.1530    1.8883 F   0  0  0  0  0  0  0  0  0  0  0  0
  1  3  2  0  0  0  0
  2  1  2  0  0  0  0
  4  3  1  0  0  0  0
  5 21  1  0  0  0  0
  6 11  2  0  0  0  0
  7  8  2  0  0  0  0
  7  6  1  0  0  0  0
  8  9  1  0  0  0  0
  9 15  1  0  0  0  0
  9 10  2  0  0  0  0
 10 16  1  0  0  0  0
 11 10  1  0  0  0  0
 11 17  1  0  0  0  0
 12  6  1  0  0  0  0
 13  7  1  0  0  0  0
 14  8  1  0  0  0  0
 18 21  1  0  0  0  0
 18 19  2  0  0  0  0
 20 18  2  0  0  0  0
 22 18  1  0  0  0  0
 22 24  1  0  0  0  0
 23 22  1  0  0  0  0
 25 22  1  0  0  0  0
M  RAD  1   2   2
M  END
