Coordinates from ORCA-job C6H6+TfO-+NH2N2+-scan
 OpenBabel10121810013D

 25 23  0  0  0  0  0  0  0  0999 V2000
   -1.7462   -1.2126   -0.6696 N   0  0  0  0  0  0  0  0  0  0  0  0
   -2.7031   -0.6176   -0.7092 N   0  0  0  0  0  0  0  0  0  0  0  0
   -0.7169   -1.8876   -0.5136 N   0  0  0  0  0  0  0  0  0  0  0  0
   -0.1841   -1.9833   -1.3856 H   0  0  0  0  0  0  0  0  0  0  0  0
   -0.2701   -2.4797    1.0053 H   0  0  0  0  0  0  0  0  0  0  0  0
    0.2518   -2.0044   -4.5058 C   0  0  0  0  0  0  0  0  0  0  0  0
    0.3544   -2.9558   -3.4913 C   0  0  0  0  0  0  0  0  0  0  0  0
    1.2038   -2.7325   -2.4021 C   0  0  0  0  0  0  0  0  0  0  0  0
    1.9785   -1.5684   -2.3555 C   0  0  0  0  0  0  0  0  0  0  0  0
    1.8767   -0.6196   -3.3713 C   0  0  0  0  0  0  0  0  0  0  0  0
    1.0118   -0.8366   -4.4443 C   0  0  0  0  0  0  0  0  0  0  0  0
   -0.4115   -2.1768   -5.3462 H   0  0  0  0  0  0  0  0  0  0  0  0
   -0.2291   -3.8689   -3.5407 H   0  0  0  0  0  0  0  0  0  0  0  0
    1.3119   -3.4795   -1.6241 H   0  0  0  0  0  0  0  0  0  0  0  0
    2.6471   -1.4036   -1.5182 H   0  0  0  0  0  0  0  0  0  0  0  0
    2.4737    0.2846   -3.3304 H   0  0  0  0  0  0  0  0  0  0  0  0
    0.9339   -0.0981   -5.2347 H   0  0  0  0  0  0  0  0  0  0  0  0
    1.3571   -3.5449    1.9760 S   0  0  0  0  0  0  0  0  0  0  0  0
    1.3876   -4.3980    3.1373 O   0  0  0  0  0  0  0  0  0  0  0  0
    1.7134   -4.0121    0.6471 O   0  0  0  0  0  0  0  0  0  0  0  0
   -0.0428   -2.7955    1.9364 O   0  0  0  0  0  0  0  0  0  0  0  0
    2.4927   -2.0904    2.3288 C   0  0  0  0  0  0  0  0  0  0  0  0
    2.3579   -1.1793    1.3555 F   0  0  0  0  0  0  0  0  0  0  0  0
    2.1883   -1.5322    3.4939 F   0  0  0  0  0  0  0  0  0  0  0  0
    3.7519   -2.5176    2.3536 F   0  0  0  0  0  0  0  0  0  0  0  0
  1  3  2  0  0  0  0
  2  1  2  0  0  0  0
  4  3  1  0  0  0  0
  5 21  1  0  0  0  0
  6 11  2  0  0  0  0
  6  7  1  0  0  0  0
  7  8  2  0  0  0  0
  8  9  1  0  0  0  0
  8 14  1  0  0  0  0
  9 15  1  0  0  0  0
 10 16  1  0  0  0  0
 10  9  2  0  0  0  0
 11 10  1  0  0  0  0
 12  6  1  0  0  0  0
 13  7  1  0  0  0  0
 17 11  1  0  0  0  0
 18 22  1  0  0  0  0
 18 19  2  0  0  0  0
 20 18  2  0  0  0  0
 21 18  1  0  0  0  0
 22 25  1  0  0  0  0
 22 24  1  0  0  0  0
 23 22  1  0  0  0  0
M  RAD  1   2   2
M  END
