Coordinates from ORCA-job C6H6+TfO-+NH2N2+-scan
 OpenBabel10121810013D

 25 23  0  0  0  0  0  0  0  0999 V2000
   -1.8005   -2.6865   -0.3282 N   0  0  0  0  0  0  0  0  0  0  0  0
   -2.9074   -2.5966   -0.5164 N   0  0  0  0  0  0  0  0  0  0  0  0
   -0.6114   -2.7873    0.0135 N   0  0  0  0  0  0  0  0  0  0  0  0
    0.0128   -2.8257   -0.7993 H   0  0  0  0  0  0  0  0  0  0  0  0
    0.0818   -2.6396    1.5691 H   0  0  0  0  0  0  0  0  0  0  0  0
    0.4343   -1.0635   -3.6606 C   0  0  0  0  0  0  0  0  0  0  0  0
    0.1587   -1.9914   -4.6640 C   0  0  0  0  0  0  0  0  0  0  0  0
    0.7103   -3.2715   -4.6030 C   0  0  0  0  0  0  0  0  0  0  0  0
    1.5362   -3.6243   -3.5366 C   0  0  0  0  0  0  0  0  0  0  0  0
    1.8171   -2.6965   -2.5309 C   0  0  0  0  0  0  0  0  0  0  0  0
    1.2644   -1.4143   -2.5948 C   0  0  0  0  0  0  0  0  0  0  0  0
    0.0104   -0.0665   -3.7130 H   0  0  0  0  0  0  0  0  0  0  0  0
   -0.4824   -1.7162   -5.4945 H   0  0  0  0  0  0  0  0  0  0  0  0
    0.4979   -3.9914   -5.3858 H   0  0  0  0  0  0  0  0  0  0  0  0
    1.9695   -4.6174   -3.4904 H   0  0  0  0  0  0  0  0  0  0  0  0
    2.4683   -2.9601   -1.7051 H   0  0  0  0  0  0  0  0  0  0  0  0
    1.4902   -0.6912   -1.8185 H   0  0  0  0  0  0  0  0  0  0  0  0
    2.1203   -2.2270    2.1529 S   0  0  0  0  0  0  0  0  0  0  0  0
    2.8794   -2.6043    3.3180 O   0  0  0  0  0  0  0  0  0  0  0  0
    2.4750   -2.6523    0.8091 O   0  0  0  0  0  0  0  0  0  0  0  0
    0.5825   -2.5279    2.4328 O   0  0  0  0  0  0  0  0  0  0  0  0
    2.0777   -0.3492    2.1022 C   0  0  0  0  0  0  0  0  0  0  0  0
    1.2369    0.0471    1.1380 F   0  0  0  0  0  0  0  0  0  0  0  0
    1.6692    0.1391    3.2665 F   0  0  0  0  0  0  0  0  0  0  0  0
    3.2978    0.1042    1.8301 F   0  0  0  0  0  0  0  0  0  0  0  0
  1  3  2  0  0  0  0
  2  1  2  0  0  0  0
  4  3  1  0  0  0  0
  5 21  1  0  0  0  0
  6 11  2  0  0  0  0
  7  8  2  0  0  0  0
  7  6  1  0  0  0  0
  8  9  1  0  0  0  0
  9 15  1  0  0  0  0
  9 10  2  0  0  0  0
 10 16  1  0  0  0  0
 11 10  1  0  0  0  0
 11 17  1  0  0  0  0
 12  6  1  0  0  0  0
 13  7  1  0  0  0  0
 14  8  1  0  0  0  0
 18 21  1  0  0  0  0
 18 19  2  0  0  0  0
 20 18  2  0  0  0  0
 22 18  1  0  0  0  0
 22 24  1  0  0  0  0
 23 22  1  0  0  0  0
 25 22  1  0  0  0  0
M  RAD  1   2   2
M  END
