Coordinates from ORCA-job C6H6+TfO-+NH2N2+-scan
 OpenBabel10121810013D

 25 25  0  0  1  0  0  0  0  0999 V2000
   -0.2692   -0.5702   -1.0200 N   0  0  0  0  0  0  0  0  0  0  0  0
   -0.9847   -0.8509   -1.9641 N   0  0  0  0  0  0  0  0  0  0  0  0
    0.8392   -1.5943   -0.9334 N   0  0  0  0  0  0  0  0  0  0  0  0
    1.6388   -1.1247   -0.5122 H   0  0  0  0  0  0  0  0  0  0  0  0
    0.5305   -2.6224    0.3371 H   0  0  0  0  0  0  0  0  0  0  0  0
   -0.5427   -1.9548   -4.1635 C   0  0  0  0  0  0  0  0  0  0  0  0
   -0.4629   -2.0732   -2.6720 C   0  0  1  0  0  0  0  0  0  0  0  0
    0.9753   -2.1690   -2.0356 C   0  0  1  0  0  0  0  0  0  0  0  0
    2.0515   -1.6146   -2.9760 C   0  0  0  0  0  0  0  0  0  0  0  0
    1.8424   -1.4100   -4.2793 C   0  0  0  0  0  0  0  0  0  0  0  0
    0.5341   -1.6442   -4.8934 C   0  0  0  0  0  0  0  0  0  0  0  0
   -1.5158   -2.0905   -4.6206 H   0  0  0  0  0  0  0  0  0  0  0  0
   -1.0982   -2.8911   -2.3131 H   0  0  0  0  0  0  0  0  0  0  0  0
    1.1994   -3.2481   -1.9431 H   0  0  0  0  0  0  0  0  0  0  0  0
    3.0273   -1.4413   -2.5284 H   0  0  0  0  0  0  0  0  0  0  0  0
    2.6496   -1.0599   -4.9140 H   0  0  0  0  0  0  0  0  0  0  0  0
    0.4479   -1.5461   -5.9702 H   0  0  0  0  0  0  0  0  0  0  0  0
    1.8542   -3.2696    1.9220 S   0  0  0  0  0  0  0  0  0  0  0  0
    2.1528   -4.5879    2.4245 O   0  0  0  0  0  0  0  0  0  0  0  0
    2.8350   -2.4665    1.2041 O   0  0  0  0  0  0  0  0  0  0  0  0
    0.5018   -3.3186    1.0882 O   0  0  0  0  0  0  0  0  0  0  0  0
    1.2909   -2.2293    3.3821 C   0  0  0  0  0  0  0  0  0  0  0  0
    0.8416   -1.0541    2.9365 F   0  0  0  0  0  0  0  0  0  0  0  0
    0.3229   -2.8517    4.0441 F   0  0  0  0  0  0  0  0  0  0  0  0
    2.3271   -2.0272    4.1914 F   0  0  0  0  0  0  0  0  0  0  0  0
  1  3  1  0  0  0  0
  2  1  1  0  0  0  0
  3  4  1  0  0  0  0
  5 21  1  0  0  0  0
  6  7  1  0  0  0  0
  7 13  1  1  0  0  0
  7  8  1  0  0  0  0
  7  2  1  0  0  0  0
  8 14  1  1  0  0  0
  8  3  1  0  0  0  0
  9 15  1  0  0  0  0
  9  8  1  0  0  0  0
 10  9  2  0  0  0  0
 11 10  1  0  0  0  0
 11  6  2  0  0  0  0
 12  6  1  0  0  0  0
 16 10  1  0  0  0  0
 17 11  1  0  0  0  0
 18 19  2  0  0  0  0
 18 22  1  0  0  0  0
 20 18  2  0  0  0  0
 21 18  1  0  0  0  0
 22 24  1  0  0  0  0
 22 25  1  0  0  0  0
 23 22  1  0  0  0  0
M  RAD  2   1   2   2   2
M  END
