Coordinates from ORCA-job C6H6+TfO-+NH2N2+-scan
 OpenBabel10121810013D

 25 23  0  0  0  0  0  0  0  0999 V2000
   -2.1217   -2.6367    0.1237 N   0  0  0  0  0  0  0  0  0  0  0  0
   -3.2390   -2.5799   -0.0051 N   0  0  0  0  0  0  0  0  0  0  0  0
   -0.9129   -2.6765    0.4060 N   0  0  0  0  0  0  0  0  0  0  0  0
   -0.3346   -2.8513   -0.4198 H   0  0  0  0  0  0  0  0  0  0  0  0
   -0.0754   -2.4251    1.8905 H   0  0  0  0  0  0  0  0  0  0  0  0
    0.3498   -1.2000   -3.6773 C   0  0  0  0  0  0  0  0  0  0  0  0
    0.3790   -1.9448   -4.8555 C   0  0  0  0  0  0  0  0  0  0  0  0
    1.1086   -3.1327   -4.9124 C   0  0  0  0  0  0  0  0  0  0  0  0
    1.8035   -3.5786   -3.7887 C   0  0  0  0  0  0  0  0  0  0  0  0
    1.7782   -2.8341   -2.6084 C   0  0  0  0  0  0  0  0  0  0  0  0
    1.0521   -1.6426   -2.5549 C   0  0  0  0  0  0  0  0  0  0  0  0
   -0.2088   -0.2710   -3.6367 H   0  0  0  0  0  0  0  0  0  0  0  0
   -0.1611   -1.5980   -5.7298 H   0  0  0  0  0  0  0  0  0  0  0  0
    1.1344   -3.7093   -5.8307 H   0  0  0  0  0  0  0  0  0  0  0  0
    2.3717   -4.5014   -3.8332 H   0  0  0  0  0  0  0  0  0  0  0  0
    2.3263   -3.1667   -1.7341 H   0  0  0  0  0  0  0  0  0  0  0  0
    1.0535   -1.0519   -1.6446 H   0  0  0  0  0  0  0  0  0  0  0  0
    2.0509   -2.2061    2.1498 S   0  0  0  0  0  0  0  0  0  0  0  0
    2.9280   -2.6220    3.2143 O   0  0  0  0  0  0  0  0  0  0  0  0
    2.1403   -2.7399    0.8001 O   0  0  0  0  0  0  0  0  0  0  0  0
    0.5457   -2.2932    2.6662 O   0  0  0  0  0  0  0  0  0  0  0  0
    2.2251   -0.3425    1.9814 C   0  0  0  0  0  0  0  0  0  0  0  0
    1.3090    0.1086    1.1157 F   0  0  0  0  0  0  0  0  0  0  0  0
    2.0468    0.2484    3.1559 F   0  0  0  0  0  0  0  0  0  0  0  0
    3.4393   -0.0630    1.5186 F   0  0  0  0  0  0  0  0  0  0  0  0
  1  3  2  0  0  0  0
  2  1  2  0  0  0  0
  4  3  1  0  0  0  0
  5 21  1  0  0  0  0
  6 12  1  0  0  0  0
  6 11  2  0  0  0  0
  7  6  1  0  0  0  0
  8  7  2  0  0  0  0
  8  9  1  0  0  0  0
  9 10  2  0  0  0  0
 10 11  1  0  0  0  0
 10 16  1  0  0  0  0
 11 17  1  0  0  0  0
 13  7  1  0  0  0  0
 14  8  1  0  0  0  0
 15  9  1  0  0  0  0
 18 21  1  0  0  0  0
 18 19  2  0  0  0  0
 20 18  2  0  0  0  0
 22 18  1  0  0  0  0
 22 24  1  0  0  0  0
 23 22  1  0  0  0  0
 25 22  1  0  0  0  0
M  RAD  1   2   2
M  END
