Coordinates from ORCA-job C6H6+TfO-+NH2N2+-scan
 OpenBabel10121810013D

 25 23  0  0  0  0  0  0  0  0999 V2000
   -1.2017   -1.1414   -0.7195 N   0  0  0  0  0  0  0  0  0  0  0  0
   -2.2796   -0.8085   -0.7390 N   0  0  0  0  0  0  0  0  0  0  0  0
   -0.0841   -1.6958   -0.7221 N   0  0  0  0  0  0  0  0  0  0  0  0
    0.6445   -1.0495   -1.0252 H   0  0  0  0  0  0  0  0  0  0  0  0
    0.3631   -2.7823    0.5402 H   0  0  0  0  0  0  0  0  0  0  0  0
   -0.1602   -1.7253   -4.4688 C   0  0  0  0  0  0  0  0  0  0  0  0
   -0.3733   -2.6709   -3.4676 C   0  0  0  0  0  0  0  0  0  0  0  0
    0.6302   -2.9435   -2.5329 C   0  0  0  0  0  0  0  0  0  0  0  0
    1.8915   -2.3569   -2.6875 C   0  0  0  0  0  0  0  0  0  0  0  0
    2.1004   -1.4079   -3.6881 C   0  0  0  0  0  0  0  0  0  0  0  0
    1.0729   -1.0810   -4.5738 C   0  0  0  0  0  0  0  0  0  0  0  0
   -0.9505   -1.5009   -5.1772 H   0  0  0  0  0  0  0  0  0  0  0  0
   -1.3294   -3.1794   -3.3993 H   0  0  0  0  0  0  0  0  0  0  0  0
    0.4882   -3.7308   -1.8061 H   0  0  0  0  0  0  0  0  0  0  0  0
    2.6928   -2.6124   -2.0029 H   0  0  0  0  0  0  0  0  0  0  0  0
    3.0725   -0.9368   -3.7883 H   0  0  0  0  0  0  0  0  0  0  0  0
    1.2393   -0.3472   -5.3546 H   0  0  0  0  0  0  0  0  0  0  0  0
    2.1531   -3.0766    1.7150 S   0  0  0  0  0  0  0  0  0  0  0  0
    2.7355   -4.2592    2.2972 O   0  0  0  0  0  0  0  0  0  0  0  0
    2.8166   -2.2888    0.6906 O   0  0  0  0  0  0  0  0  0  0  0  0
    0.6681   -3.4285    1.2452 O   0  0  0  0  0  0  0  0  0  0  0  0
    1.7671   -1.8885    3.1202 C   0  0  0  0  0  0  0  0  0  0  0  0
    1.0237   -0.8812    2.6487 F   0  0  0  0  0  0  0  0  0  0  0  0
    1.1014   -2.5125    4.0837 F   0  0  0  0  0  0  0  0  0  0  0  0
    2.9066   -1.4046    3.6034 F   0  0  0  0  0  0  0  0  0  0  0  0
  2  1  2  0  0  0  0
  3  1  2  0  0  0  0
  4  3  1  0  0  0  0
  5 21  1  0  0  0  0
  6  7  1  0  0  0  0
  7 13  1  0  0  0  0
  7  8  2  0  0  0  0
  8 14  1  0  0  0  0
  9  8  1  0  0  0  0
  9 15  1  0  0  0  0
 10  9  2  0  0  0  0
 11  6  2  0  0  0  0
 11 10  1  0  0  0  0
 12  6  1  0  0  0  0
 16 10  1  0  0  0  0
 17 11  1  0  0  0  0
 18 19  2  0  0  0  0
 18 22  1  0  0  0  0
 20 18  2  0  0  0  0
 21 18  1  0  0  0  0
 22 25  1  0  0  0  0
 22 24  1  0  0  0  0
 23 22  1  0  0  0  0
M  RAD  1   2   2
M  END
