Coordinates from ORCA-job C6H6+TfO-+NH2N2+-scan
 OpenBabel10121810013D

 25 23  0  0  0  0  0  0  0  0999 V2000
   -1.6059   -3.0181   -0.9190 N   0  0  0  0  0  0  0  0  0  0  0  0
   -2.6942   -3.0619   -1.2084 N   0  0  0  0  0  0  0  0  0  0  0  0
   -0.4504   -2.9790   -0.4756 N   0  0  0  0  0  0  0  0  0  0  0  0
    0.2484   -2.9507   -1.2247 H   0  0  0  0  0  0  0  0  0  0  0  0
    0.0518   -2.7806    1.1375 H   0  0  0  0  0  0  0  0  0  0  0  0
    0.6945   -0.8667   -3.3530 C   0  0  0  0  0  0  0  0  0  0  0  0
   -0.1405   -1.8603   -3.8657 C   0  0  0  0  0  0  0  0  0  0  0  0
    0.2199   -3.2028   -3.7440 C   0  0  0  0  0  0  0  0  0  0  0  0
    1.4242   -3.5512   -3.1282 C   0  0  0  0  0  0  0  0  0  0  0  0
    2.2554   -2.5565   -2.6079 C   0  0  0  0  0  0  0  0  0  0  0  0
    1.8867   -1.2148   -2.7186 C   0  0  0  0  0  0  0  0  0  0  0  0
    0.4127    0.1767   -3.4413 H   0  0  0  0  0  0  0  0  0  0  0  0
   -1.0690   -1.5900   -4.3564 H   0  0  0  0  0  0  0  0  0  0  0  0
   -0.4253   -3.9757   -4.1479 H   0  0  0  0  0  0  0  0  0  0  0  0
    1.7095   -4.5939   -3.0426 H   0  0  0  0  0  0  0  0  0  0  0  0
    3.1705   -2.8268   -2.0954 H   0  0  0  0  0  0  0  0  0  0  0  0
    2.5257   -0.4448   -2.3021 H   0  0  0  0  0  0  0  0  0  0  0  0
    1.9640   -2.2621    2.0083 S   0  0  0  0  0  0  0  0  0  0  0  0
    2.5377   -2.5245    3.3044 O   0  0  0  0  0  0  0  0  0  0  0  0
    2.5537   -2.7460    0.7723 O   0  0  0  0  0  0  0  0  0  0  0  0
    0.4166   -2.6291    2.0628 O   0  0  0  0  0  0  0  0  0  0  0  0
    1.8443   -0.3960    1.8251 C   0  0  0  0  0  0  0  0  0  0  0  0
    1.1256   -0.1023    0.7350 F   0  0  0  0  0  0  0  0  0  0  0  0
    1.2629    0.1414    2.8908 F   0  0  0  0  0  0  0  0  0  0  0  0
    3.0698    0.1054    1.6859 F   0  0  0  0  0  0  0  0  0  0  0  0
  1  3  2  0  0  0  0
  2  1  2  0  0  0  0
  4  3  1  0  0  0  0
  5 21  1  0  0  0  0
  6 11  2  0  0  0  0
  7  8  2  0  0  0  0
  7  6  1  0  0  0  0
  8  9  1  0  0  0  0
  9 15  1  0  0  0  0
  9 10  2  0  0  0  0
 10 16  1  0  0  0  0
 11 10  1  0  0  0  0
 11 17  1  0  0  0  0
 12  6  1  0  0  0  0
 13  7  1  0  0  0  0
 14  8  1  0  0  0  0
 18 21  1  0  0  0  0
 18 19  2  0  0  0  0
 20 18  2  0  0  0  0
 22 18  1  0  0  0  0
 22 24  1  0  0  0  0
 23 22  1  0  0  0  0
 25 22  1  0  0  0  0
M  RAD  1   2   2
M  END
