Coordinates from ORCA-job C6H6+TfO-+NH2N2+-scan
 OpenBabel10121810013D

 25 25  0  0  1  0  0  0  0  0999 V2000
   -0.3355   -0.5866   -1.0337 N   0  0  0  0  0  0  0  0  0  0  0  0
   -1.0302   -0.8723   -1.9954 N   0  0  0  0  0  0  0  0  0  0  0  0
    0.7729   -1.5774   -0.9125 N   0  0  0  0  0  0  0  0  0  0  0  0
    1.5669   -1.0913   -0.4998 H   0  0  0  0  0  0  0  0  0  0  0  0
    0.4888   -2.6116    0.3613 H   0  0  0  0  0  0  0  0  0  0  0  0
   -0.5260   -1.9447   -4.1900 C   0  0  0  0  0  0  0  0  0  0  0  0
   -0.4796   -2.0851   -2.6986 C   0  0  1  0  0  0  0  0  0  0  0  0
    0.9411   -2.1872   -2.0373 C   0  0  1  0  0  0  0  0  0  0  0  0
    2.0441   -1.6400   -2.9412 C   0  0  0  0  0  0  0  0  0  0  0  0
    1.8647   -1.4168   -4.2460 C   0  0  0  0  0  0  0  0  0  0  0  0
    0.5681   -1.6306   -4.8921 C   0  0  0  0  0  0  0  0  0  0  0  0
   -1.4902   -2.0661   -4.6694 H   0  0  0  0  0  0  0  0  0  0  0  0
   -1.1202   -2.9108   -2.3686 H   0  0  0  0  0  0  0  0  0  0  0  0
    1.1622   -3.2594   -1.9047 H   0  0  0  0  0  0  0  0  0  0  0  0
    3.0121   -1.4861   -2.4711 H   0  0  0  0  0  0  0  0  0  0  0  0
    2.6897   -1.0683   -4.8583 H   0  0  0  0  0  0  0  0  0  0  0  0
    0.5062   -1.5152   -5.9688 H   0  0  0  0  0  0  0  0  0  0  0  0
    1.8586   -3.2661    1.9034 S   0  0  0  0  0  0  0  0  0  0  0  0
    2.1662   -4.5855    2.3974 O   0  0  0  0  0  0  0  0  0  0  0  0
    2.8212   -2.4673    1.1567 O   0  0  0  0  0  0  0  0  0  0  0  0
    0.4820   -3.3104    1.1100 O   0  0  0  0  0  0  0  0  0  0  0  0
    1.3433   -2.2224    3.3787 C   0  0  0  0  0  0  0  0  0  0  0  0
    0.8862   -1.0455    2.9450 F   0  0  0  0  0  0  0  0  0  0  0  0
    0.3926   -2.8397    4.0696 F   0  0  0  0  0  0  0  0  0  0  0  0
    2.4038   -2.0238    4.1566 F   0  0  0  0  0  0  0  0  0  0  0  0
  1  3  1  0  0  0  0
  2  1  1  0  0  0  0
  3  4  1  0  0  0  0
  5 21  1  0  0  0  0
  6  7  1  0  0  0  0
  7 13  1  1  0  0  0
  7  8  1  0  0  0  0
  7  2  1  0  0  0  0
  8 14  1  1  0  0  0
  8  3  1  0  0  0  0
  9 15  1  0  0  0  0
  9  8  1  0  0  0  0
 10  9  2  0  0  0  0
 11 10  1  0  0  0  0
 11  6  2  0  0  0  0
 12  6  1  0  0  0  0
 16 10  1  0  0  0  0
 17 11  1  0  0  0  0
 18 19  2  0  0  0  0
 18 22  1  0  0  0  0
 20 18  2  0  0  0  0
 21 18  1  0  0  0  0
 22 24  1  0  0  0  0
 22 25  1  0  0  0  0
 23 22  1  0  0  0  0
M  RAD  2   1   2   2   2
M  END
