Coordinates from ORCA-job C6H6+TfO-+NH2N2+-scan
 OpenBabel10121810013D

 25 23  0  0  0  0  0  0  0  0999 V2000
   -2.1764   -2.6528    0.2617 N   0  0  0  0  0  0  0  0  0  0  0  0
   -3.2959   -2.5912    0.1579 N   0  0  0  0  0  0  0  0  0  0  0  0
   -0.9619   -2.6982    0.5184 N   0  0  0  0  0  0  0  0  0  0  0  0
   -0.4017   -2.8788   -0.3181 H   0  0  0  0  0  0  0  0  0  0  0  0
   -0.0806   -2.4400    1.9824 H   0  0  0  0  0  0  0  0  0  0  0  0
    0.4042   -1.1728   -3.7158 C   0  0  0  0  0  0  0  0  0  0  0  0
    0.4633   -1.9041   -4.9014 C   0  0  0  0  0  0  0  0  0  0  0  0
    1.1686   -3.1070   -4.9447 C   0  0  0  0  0  0  0  0  0  0  0  0
    1.8098   -3.5811   -3.8008 C   0  0  0  0  0  0  0  0  0  0  0  0
    1.7542   -2.8502   -2.6130 C   0  0  0  0  0  0  0  0  0  0  0  0
    1.0520   -1.6441   -2.5728 C   0  0  0  0  0  0  0  0  0  0  0  0
   -0.1360   -0.2326   -3.6849 H   0  0  0  0  0  0  0  0  0  0  0  0
   -0.0348   -1.5354   -5.7916 H   0  0  0  0  0  0  0  0  0  0  0  0
    1.2177   -3.6733   -5.8686 H   0  0  0  0  0  0  0  0  0  0  0  0
    2.3596   -4.5154   -3.8351 H   0  0  0  0  0  0  0  0  0  0  0  0
    2.2618   -3.2043   -1.7228 H   0  0  0  0  0  0  0  0  0  0  0  0
    1.0290   -1.0643   -1.6558 H   0  0  0  0  0  0  0  0  0  0  0  0
    2.0525   -2.2114    2.1328 S   0  0  0  0  0  0  0  0  0  0  0  0
    2.9875   -2.5959    3.1589 O   0  0  0  0  0  0  0  0  0  0  0  0
    2.0792   -2.7705    0.7907 O   0  0  0  0  0  0  0  0  0  0  0  0
    0.5764   -2.3077    2.7270 O   0  0  0  0  0  0  0  0  0  0  0  0
    2.1922   -0.3495    1.9185 C   0  0  0  0  0  0  0  0  0  0  0  0
    1.2154    0.0729    1.1060 F   0  0  0  0  0  0  0  0  0  0  0  0
    2.0830    0.2626    3.0904 F   0  0  0  0  0  0  0  0  0  0  0  0
    3.3697   -0.0652    1.3717 F   0  0  0  0  0  0  0  0  0  0  0  0
  1  3  2  0  0  0  0
  2  1  2  0  0  0  0
  4  3  1  0  0  0  0
  5 21  1  0  0  0  0
  6 12  1  0  0  0  0
  6 11  2  0  0  0  0
  7  6  1  0  0  0  0
  8  7  2  0  0  0  0
  8  9  1  0  0  0  0
  9 10  2  0  0  0  0
 10 11  1  0  0  0  0
 10 16  1  0  0  0  0
 11 17  1  0  0  0  0
 13  7  1  0  0  0  0
 14  8  1  0  0  0  0
 15  9  1  0  0  0  0
 18 21  1  0  0  0  0
 18 19  2  0  0  0  0
 20 18  2  0  0  0  0
 22 18  1  0  0  0  0
 22 24  1  0  0  0  0
 23 22  1  0  0  0  0
 25 22  1  0  0  0  0
M  RAD  1   2   2
M  END
