Coordinates from ORCA-job C6H6+TfO-+NH2N2+-scan
 OpenBabel10121810013D

 25 23  0  0  0  0  0  0  0  0999 V2000
   -1.6903   -1.1696   -0.7120 N   0  0  0  0  0  0  0  0  0  0  0  0
   -2.5995   -0.5134   -0.8284 N   0  0  0  0  0  0  0  0  0  0  0  0
   -0.7202   -1.9015   -0.4648 N   0  0  0  0  0  0  0  0  0  0  0  0
   -0.1498   -2.0780   -1.3007 H   0  0  0  0  0  0  0  0  0  0  0  0
   -0.3171   -2.4751    1.0742 H   0  0  0  0  0  0  0  0  0  0  0  0
    0.2121   -1.9751   -4.4946 C   0  0  0  0  0  0  0  0  0  0  0  0
    0.3672   -2.9915   -3.5521 C   0  0  0  0  0  0  0  0  0  0  0  0
    1.2630   -2.8320   -2.4900 C   0  0  0  0  0  0  0  0  0  0  0  0
    2.0200   -1.6604   -2.3900 C   0  0  0  0  0  0  0  0  0  0  0  0
    1.8660   -0.6466   -3.3344 C   0  0  0  0  0  0  0  0  0  0  0  0
    0.9614   -0.8036   -4.3848 C   0  0  0  0  0  0  0  0  0  0  0  0
   -0.4847   -2.0985   -5.3162 H   0  0  0  0  0  0  0  0  0  0  0  0
   -0.2081   -3.9069   -3.6397 H   0  0  0  0  0  0  0  0  0  0  0  0
    1.4028   -3.6232   -1.7619 H   0  0  0  0  0  0  0  0  0  0  0  0
    2.7182   -1.5423   -1.5691 H   0  0  0  0  0  0  0  0  0  0  0  0
    2.4518    0.2624   -3.2548 H   0  0  0  0  0  0  0  0  0  0  0  0
    0.8426   -0.0147   -5.1194 H   0  0  0  0  0  0  0  0  0  0  0  0
    1.3560   -3.5142    1.9830 S   0  0  0  0  0  0  0  0  0  0  0  0
    1.4375   -4.3926    3.1227 O   0  0  0  0  0  0  0  0  0  0  0  0
    1.6935   -3.9403    0.6353 O   0  0  0  0  0  0  0  0  0  0  0  0
   -0.0658   -2.8044    1.9935 O   0  0  0  0  0  0  0  0  0  0  0  0
    2.4588   -2.0365    2.3432 C   0  0  0  0  0  0  0  0  0  0  0  0
    2.2793   -1.1098    1.3930 F   0  0  0  0  0  0  0  0  0  0  0  0
    2.1648   -1.5120    3.5265 F   0  0  0  0  0  0  0  0  0  0  0  0
    3.7294   -2.4304    2.3325 F   0  0  0  0  0  0  0  0  0  0  0  0
  1  3  2  0  0  0  0
  2  1  2  0  0  0  0
  4  3  1  0  0  0  0
  5 21  1  0  0  0  0
  6 11  2  0  0  0  0
  6  7  1  0  0  0  0
  7  8  2  0  0  0  0
  8  9  1  0  0  0  0
  8 14  1  0  0  0  0
  9 15  1  0  0  0  0
 10 16  1  0  0  0  0
 10  9  2  0  0  0  0
 11 10  1  0  0  0  0
 12  6  1  0  0  0  0
 13  7  1  0  0  0  0
 17 11  1  0  0  0  0
 18 21  1  0  0  0  0
 18 22  1  0  0  0  0
 18 19  2  0  0  0  0
 20 18  2  0  0  0  0
 22 24  1  0  0  0  0
 23 22  1  0  0  0  0
 25 22  1  0  0  0  0
M  RAD  1   2   2
M  END
