Coordinates from ORCA-job C6H6+TfO-+NH2N2+-scan
 OpenBabel10121810013D

 25 23  0  0  0  0  0  0  0  0999 V2000
   -1.7497   -1.2105   -0.6665 N   0  0  0  0  0  0  0  0  0  0  0  0
   -2.7062   -0.6149   -0.7066 N   0  0  0  0  0  0  0  0  0  0  0  0
   -0.7211   -1.8863   -0.5096 N   0  0  0  0  0  0  0  0  0  0  0  0
   -0.1877   -1.9826   -1.3813 H   0  0  0  0  0  0  0  0  0  0  0  0
   -0.2723   -2.4804    1.0083 H   0  0  0  0  0  0  0  0  0  0  0  0
    0.2528   -2.0040   -4.5067 C   0  0  0  0  0  0  0  0  0  0  0  0
    0.3557   -2.9566   -3.4932 C   0  0  0  0  0  0  0  0  0  0  0  0
    1.2063   -2.7349   -2.4047 C   0  0  0  0  0  0  0  0  0  0  0  0
    1.9806   -1.5707   -2.3566 C   0  0  0  0  0  0  0  0  0  0  0  0
    1.8785   -0.6207   -3.3714 C   0  0  0  0  0  0  0  0  0  0  0  0
    1.0132   -0.8364   -4.4443 C   0  0  0  0  0  0  0  0  0  0  0  0
   -0.4110   -2.1752   -5.3468 H   0  0  0  0  0  0  0  0  0  0  0  0
   -0.2279   -3.8695   -3.5434 H   0  0  0  0  0  0  0  0  0  0  0  0
    1.3134   -3.4821   -1.6266 H   0  0  0  0  0  0  0  0  0  0  0  0
    2.6496   -1.4069   -1.5194 H   0  0  0  0  0  0  0  0  0  0  0  0
    2.4755    0.2835   -3.3297 H   0  0  0  0  0  0  0  0  0  0  0  0
    0.9350   -0.0970   -5.2338 H   0  0  0  0  0  0  0  0  0  0  0  0
    1.3579   -3.5451    1.9759 S   0  0  0  0  0  0  0  0  0  0  0  0
    1.3909   -4.3983    3.1369 O   0  0  0  0  0  0  0  0  0  0  0  0
    1.7135   -4.0116    0.6465 O   0  0  0  0  0  0  0  0  0  0  0  0
   -0.0433   -2.7978    1.9383 O   0  0  0  0  0  0  0  0  0  0  0  0
    2.4916   -2.0889    2.3275 C   0  0  0  0  0  0  0  0  0  0  0  0
    2.3540   -1.1777    1.3547 F   0  0  0  0  0  0  0  0  0  0  0  0
    2.1880   -1.5315    3.4932 F   0  0  0  0  0  0  0  0  0  0  0  0
    3.7515   -2.5141    2.3503 F   0  0  0  0  0  0  0  0  0  0  0  0
  1  3  2  0  0  0  0
  2  1  2  0  0  0  0
  4  3  1  0  0  0  0
  5 21  1  0  0  0  0
  6 11  2  0  0  0  0
  6  7  1  0  0  0  0
  7  8  2  0  0  0  0
  8  9  1  0  0  0  0
  8 14  1  0  0  0  0
  9 15  1  0  0  0  0
 10 16  1  0  0  0  0
 10  9  2  0  0  0  0
 11 10  1  0  0  0  0
 12  6  1  0  0  0  0
 13  7  1  0  0  0  0
 17 11  1  0  0  0  0
 18 22  1  0  0  0  0
 18 19  2  0  0  0  0
 20 18  2  0  0  0  0
 21 18  1  0  0  0  0
 22 25  1  0  0  0  0
 22 24  1  0  0  0  0
 23 22  1  0  0  0  0
M  RAD  1   2   2
M  END
