Coordinates from ORCA-job C6H6+TfO-+NH2N2+-scan
 OpenBabel10121810013D

 25 23  0  0  0  0  0  0  0  0999 V2000
   -1.8106   -2.6630   -0.3319 N   0  0  0  0  0  0  0  0  0  0  0  0
   -2.9164   -2.5702   -0.5253 N   0  0  0  0  0  0  0  0  0  0  0  0
   -0.6233   -2.7651    0.0150 N   0  0  0  0  0  0  0  0  0  0  0  0
    0.0042   -2.8180   -0.7950 H   0  0  0  0  0  0  0  0  0  0  0  0
    0.0717   -2.6121    1.5708 H   0  0  0  0  0  0  0  0  0  0  0  0
    0.3985   -1.0891   -3.6320 C   0  0  0  0  0  0  0  0  0  0  0  0
    0.1622   -1.9963   -4.6639 C   0  0  0  0  0  0  0  0  0  0  0  0
    0.7472   -3.2625   -4.6279 C   0  0  0  0  0  0  0  0  0  0  0  0
    1.5679   -3.6222   -3.5600 C   0  0  0  0  0  0  0  0  0  0  0  0
    1.8083   -2.7155   -2.5250 C   0  0  0  0  0  0  0  0  0  0  0  0
    1.2217   -1.4475   -2.5628 C   0  0  0  0  0  0  0  0  0  0  0  0
   -0.0509   -0.1024   -3.6630 H   0  0  0  0  0  0  0  0  0  0  0  0
   -0.4741   -1.7170   -5.4965 H   0  0  0  0  0  0  0  0  0  0  0  0
    0.5645   -3.9663   -5.4327 H   0  0  0  0  0  0  0  0  0  0  0  0
    2.0263   -4.6047   -3.5342 H   0  0  0  0  0  0  0  0  0  0  0  0
    2.4485   -2.9877   -1.6933 H   0  0  0  0  0  0  0  0  0  0  0  0
    1.4111   -0.7402   -1.7625 H   0  0  0  0  0  0  0  0  0  0  0  0
    2.1158   -2.2231    2.1512 S   0  0  0  0  0  0  0  0  0  0  0  0
    2.8705   -2.6085    3.3166 O   0  0  0  0  0  0  0  0  0  0  0  0
    2.4615   -2.6587    0.8083 O   0  0  0  0  0  0  0  0  0  0  0  0
    0.5734   -2.4984    2.4337 O   0  0  0  0  0  0  0  0  0  0  0  0
    2.1044   -0.3450    2.0946 C   0  0  0  0  0  0  0  0  0  0  0  0
    1.2718    0.0621    1.1276 F   0  0  0  0  0  0  0  0  0  0  0  0
    1.7022    0.1538    3.2566 F   0  0  0  0  0  0  0  0  0  0  0  0
    3.3323    0.0870    1.8230 F   0  0  0  0  0  0  0  0  0  0  0  0
  1  3  2  0  0  0  0
  2  1  2  0  0  0  0
  4  3  1  0  0  0  0
  5 21  1  0  0  0  0
  6 11  2  0  0  0  0
  7  8  2  0  0  0  0
  7  6  1  0  0  0  0
  8  9  1  0  0  0  0
  9 15  1  0  0  0  0
  9 10  2  0  0  0  0
 10 16  1  0  0  0  0
 11 10  1  0  0  0  0
 11 17  1  0  0  0  0
 12  6  1  0  0  0  0
 13  7  1  0  0  0  0
 14  8  1  0  0  0  0
 18 21  1  0  0  0  0
 18 19  2  0  0  0  0
 20 18  2  0  0  0  0
 22 18  1  0  0  0  0
 22 24  1  0  0  0  0
 23 22  1  0  0  0  0
 25 22  1  0  0  0  0
M  RAD  1   2   2
M  END
