Coordinates from ORCA-job C6H6+TfO-+NH2N2+-scan
 OpenBabel10121810013D

 25 23  0  0  0  0  0  0  0  0999 V2000
   -1.7340   -1.2597   -0.8089 N   0  0  0  0  0  0  0  0  0  0  0  0
   -2.6704   -0.6660   -1.0118 N   0  0  0  0  0  0  0  0  0  0  0  0
   -0.7359   -1.9081   -0.4620 N   0  0  0  0  0  0  0  0  0  0  0  0
   -0.1546   -2.1778   -1.2649 H   0  0  0  0  0  0  0  0  0  0  0  0
   -0.3410   -2.4036    1.1083 H   0  0  0  0  0  0  0  0  0  0  0  0
    0.1730   -1.8800   -4.4308 C   0  0  0  0  0  0  0  0  0  0  0  0
    0.3398   -2.9953   -3.6094 C   0  0  0  0  0  0  0  0  0  0  0  0
    1.2845   -2.9713   -2.5790 C   0  0  0  0  0  0  0  0  0  0  0  0
    2.0732   -1.8335   -2.3849 C   0  0  0  0  0  0  0  0  0  0  0  0
    1.9080   -0.7214   -3.2093 C   0  0  0  0  0  0  0  0  0  0  0  0
    0.9574   -0.7441   -4.2301 C   0  0  0  0  0  0  0  0  0  0  0  0
   -0.5609   -1.8986   -5.2289 H   0  0  0  0  0  0  0  0  0  0  0  0
   -0.2626   -3.8831   -3.7694 H   0  0  0  0  0  0  0  0  0  0  0  0
    1.4253   -3.8351   -1.9392 H   0  0  0  0  0  0  0  0  0  0  0  0
    2.8051   -1.8193   -1.5858 H   0  0  0  0  0  0  0  0  0  0  0  0
    2.5195    0.1612   -3.0577 H   0  0  0  0  0  0  0  0  0  0  0  0
    0.8296    0.1217   -4.8705 H   0  0  0  0  0  0  0  0  0  0  0  0
    1.3612   -3.4222    1.9769 S   0  0  0  0  0  0  0  0  0  0  0  0
    1.4768   -4.2944    3.1185 O   0  0  0  0  0  0  0  0  0  0  0  0
    1.6582   -3.8556    0.6219 O   0  0  0  0  0  0  0  0  0  0  0  0
   -0.0602   -2.7117    2.0256 O   0  0  0  0  0  0  0  0  0  0  0  0
    2.4731   -1.9421    2.2970 C   0  0  0  0  0  0  0  0  0  0  0  0
    2.2602   -1.0170    1.3535 F   0  0  0  0  0  0  0  0  0  0  0  0
    2.2203   -1.4179    3.4900 F   0  0  0  0  0  0  0  0  0  0  0  0
    3.7433   -2.3354    2.2422 F   0  0  0  0  0  0  0  0  0  0  0  0
  1  3  2  0  0  0  0
  2  1  2  0  0  0  0
  4  3  1  0  0  0  0
  5 21  1  0  0  0  0
  6 11  2  0  0  0  0
  6  7  1  0  0  0  0
  7  8  2  0  0  0  0
  8  9  1  0  0  0  0
  8 14  1  0  0  0  0
  9 15  1  0  0  0  0
 10 16  1  0  0  0  0
 10  9  2  0  0  0  0
 11 10  1  0  0  0  0
 12  6  1  0  0  0  0
 13  7  1  0  0  0  0
 17 11  1  0  0  0  0
 18 21  1  0  0  0  0
 18 22  1  0  0  0  0
 18 19  2  0  0  0  0
 20 18  2  0  0  0  0
 22 24  1  0  0  0  0
 23 22  1  0  0  0  0
 25 22  1  0  0  0  0
M  RAD  1   2   2
M  END
