Coordinates from ORCA-job C6H6+TfO-+NH2N2+-scan
 OpenBabel10121810013D

 25 25  0  0  1  0  0  0  0  0999 V2000
   -1.1397   -1.0768   -1.1295 N   0  0  0  0  0  0  0  0  0  0  0  0
   -1.5425   -1.5029   -2.2027 N   0  0  0  0  0  0  0  0  0  0  0  0
    0.1186   -1.5547   -0.7170 N   0  0  0  0  0  0  0  0  0  0  0  0
    0.7131   -0.7510   -0.5088 H   0  0  0  0  0  0  0  0  0  0  0  0
    0.0899   -2.4866    0.5991 H   0  0  0  0  0  0  0  0  0  0  0  0
   -0.2839   -1.7706   -4.2840 C   0  0  0  0  0  0  0  0  0  0  0  0
   -0.5100   -2.3785   -2.9321 C   0  0  1  0  0  0  0  0  0  0  0  0
    0.7214   -2.4685   -2.0322 C   0  0  1  0  0  0  0  0  0  0  0  0
    1.9916   -1.8914   -2.5357 C   0  0  0  0  0  0  0  0  0  0  0  0
    2.0631   -1.3276   -3.7511 C   0  0  0  0  0  0  0  0  0  0  0  0
    0.9064   -1.2725   -4.6421 C   0  0  0  0  0  0  0  0  0  0  0  0
   -1.1399   -1.7259   -4.9473 H   0  0  0  0  0  0  0  0  0  0  0  0
   -1.0131   -3.3446   -3.0306 H   0  0  0  0  0  0  0  0  0  0  0  0
    0.8658   -3.4435   -1.5751 H   0  0  0  0  0  0  0  0  0  0  0  0
    2.8569   -1.9754   -1.8883 H   0  0  0  0  0  0  0  0  0  0  0  0
    3.0047   -0.9221   -4.1052 H   0  0  0  0  0  0  0  0  0  0  0  0
    1.0341   -0.8280   -5.6230 H   0  0  0  0  0  0  0  0  0  0  0  0
    1.6792   -3.3818    1.7880 S   0  0  0  0  0  0  0  0  0  0  0  0
    1.7761   -4.6018    2.5515 O   0  0  0  0  0  0  0  0  0  0  0  0
    2.5314   -3.1137    0.6378 O   0  0  0  0  0  0  0  0  0  0  0  0
    0.1656   -3.1232    1.4112 O   0  0  0  0  0  0  0  0  0  0  0  0
    1.9700   -1.9539    2.9732 C   0  0  0  0  0  0  0  0  0  0  0  0
    1.6982   -0.8017    2.3430 F   0  0  0  0  0  0  0  0  0  0  0  0
    1.1874   -2.0629    4.0392 F   0  0  0  0  0  0  0  0  0  0  0  0
    3.2446   -1.9508    3.3529 F   0  0  0  0  0  0  0  0  0  0  0  0
  1  3  1  0  0  0  0
  2  1  2  0  0  0  0
  3  4  1  0  0  0  0
  5 21  1  0  0  0  0
  6  7  1  0  0  0  0
  7 13  1  6  0  0  0
  7  2  1  0  0  0  0
  7  8  1  0  0  0  0
  8 14  1  1  0  0  0
  8  3  1  0  0  0  0
  9  8  1  0  0  0  0
  9 15  1  0  0  0  0
 10  9  2  0  0  0  0
 11  6  2  0  0  0  0
 11 10  1  0  0  0  0
 12  6  1  0  0  0  0
 16 10  1  0  0  0  0
 17 11  1  0  0  0  0
 18 19  2  0  0  0  0
 18 22  1  0  0  0  0
 20 18  2  0  0  0  0
 21 18  1  0  0  0  0
 22 25  1  0  0  0  0
 22 24  1  0  0  0  0
 23 22  1  0  0  0  0
M  END
