Coordinates from ORCA-job C6H6+TfO-+NH2N2+-scan
 OpenBabel10121810013D

 25 23  0  0  0  0  0  0  0  0999 V2000
   -2.0074   -2.6274   -0.0465 N   0  0  0  0  0  0  0  0  0  0  0  0
   -3.1221   -2.5475   -0.1855 N   0  0  0  0  0  0  0  0  0  0  0  0
   -0.8024   -2.7000    0.2454 N   0  0  0  0  0  0  0  0  0  0  0  0
   -0.2201   -2.8354   -0.5862 H   0  0  0  0  0  0  0  0  0  0  0  0
   -0.0161   -2.4954    1.7630 H   0  0  0  0  0  0  0  0  0  0  0  0
    0.3246   -1.1596   -3.6798 C   0  0  0  0  0  0  0  0  0  0  0  0
    0.3090   -1.9795   -4.8070 C   0  0  0  0  0  0  0  0  0  0  0  0
    1.0133   -3.1841   -4.8035 C   0  0  0  0  0  0  0  0  0  0  0  0
    1.7296   -3.5703   -3.6717 C   0  0  0  0  0  0  0  0  0  0  0  0
    1.7497   -2.7505   -2.5414 C   0  0  0  0  0  0  0  0  0  0  0  0
    1.0468   -1.5433   -2.5480 C   0  0  0  0  0  0  0  0  0  0  0  0
   -0.2155   -0.2189   -3.6853 H   0  0  0  0  0  0  0  0  0  0  0  0
   -0.2469   -1.6793   -5.6886 H   0  0  0  0  0  0  0  0  0  0  0  0
    1.0033   -3.8196   -5.6824 H   0  0  0  0  0  0  0  0  0  0  0  0
    2.2793   -4.5052   -3.6701 H   0  0  0  0  0  0  0  0  0  0  0  0
    2.3145   -3.0391   -1.6621 H   0  0  0  0  0  0  0  0  0  0  0  0
    1.0740   -0.8969   -1.6770 H   0  0  0  0  0  0  0  0  0  0  0  0
    2.0865   -2.2385    2.1576 S   0  0  0  0  0  0  0  0  0  0  0  0
    2.9069   -2.6341    3.2738 O   0  0  0  0  0  0  0  0  0  0  0  0
    2.2768   -2.7596    0.8140 O   0  0  0  0  0  0  0  0  0  0  0  0
    0.5560   -2.3757    2.5781 O   0  0  0  0  0  0  0  0  0  0  0  0
    2.2150   -0.3695    2.0088 C   0  0  0  0  0  0  0  0  0  0  0  0
    1.3291    0.0627    1.1022 F   0  0  0  0  0  0  0  0  0  0  0  0
    1.9632    0.2083    3.1764 F   0  0  0  0  0  0  0  0  0  0  0  0
    3.4416   -0.0518    1.6069 F   0  0  0  0  0  0  0  0  0  0  0  0
  1  3  2  0  0  0  0
  2  1  2  0  0  0  0
  4  3  1  0  0  0  0
  5 21  1  0  0  0  0
  6 11  2  0  0  0  0
  7  8  2  0  0  0  0
  7  6  1  0  0  0  0
  8  9  1  0  0  0  0
  9 15  1  0  0  0  0
  9 10  2  0  0  0  0
 10 16  1  0  0  0  0
 11 10  1  0  0  0  0
 11 17  1  0  0  0  0
 12  6  1  0  0  0  0
 13  7  1  0  0  0  0
 14  8  1  0  0  0  0
 18 21  1  0  0  0  0
 18 19  2  0  0  0  0
 20 18  2  0  0  0  0
 22 18  1  0  0  0  0
 22 24  1  0  0  0  0
 23 22  1  0  0  0  0
 25 22  1  0  0  0  0
M  RAD  1   2   2
M  END
