Coordinates from ORCA-job C6H6+TfO-+NH2N2+-scan
 OpenBabel10121810013D

 25 23  0  0  0  0  0  0  0  0999 V2000
   -1.2010   -1.4169    0.7374 N   0  0  0  0  0  0  0  0  0  0  0  0
   -1.9895   -0.9098    0.1135 N   0  0  0  0  0  0  0  0  0  0  0  0
   -0.2763   -1.8454    1.4466 N   0  0  0  0  0  0  0  0  0  0  0  0
   -0.1500   -2.8554    1.3550 H   0  0  0  0  0  0  0  0  0  0  0  0
    0.4048   -1.3839    2.9922 H   0  0  0  0  0  0  0  0  0  0  0  0
   -0.6477   -2.7267   -5.4182 C   0  0  0  0  0  0  0  0  0  0  0  0
    0.5914   -3.3612   -5.3376 C   0  0  0  0  0  0  0  0  0  0  0  0
    1.7493   -2.6079   -5.1471 C   0  0  0  0  0  0  0  0  0  0  0  0
    1.6678   -1.2203   -5.0370 C   0  0  0  0  0  0  0  0  0  0  0  0
    0.4287   -0.5859   -5.1176 C   0  0  0  0  0  0  0  0  0  0  0  0
   -0.7290   -1.3391   -5.3082 C   0  0  0  0  0  0  0  0  0  0  0  0
   -1.5482   -3.3124   -5.5690 H   0  0  0  0  0  0  0  0  0  0  0  0
    0.6549   -4.4405   -5.4252 H   0  0  0  0  0  0  0  0  0  0  0  0
    2.7133   -3.1013   -5.0860 H   0  0  0  0  0  0  0  0  0  0  0  0
    2.5686   -0.6340   -4.8904 H   0  0  0  0  0  0  0  0  0  0  0  0
    0.3655    0.4937   -5.0339 H   0  0  0  0  0  0  0  0  0  0  0  0
   -1.6928   -0.8455   -5.3724 H   0  0  0  0  0  0  0  0  0  0  0  0
    1.6546   -2.7694    4.0629 S   0  0  0  0  0  0  0  0  0  0  0  0
    1.7655   -3.0453    5.4722 O   0  0  0  0  0  0  0  0  0  0  0  0
    1.1612   -3.7487    3.1061 O   0  0  0  0  0  0  0  0  0  0  0  0
    0.8722   -1.3895    3.8756 O   0  0  0  0  0  0  0  0  0  0  0  0
    3.3567   -2.2530    3.4551 C   0  0  0  0  0  0  0  0  0  0  0  0
    3.2580   -1.8047    2.2021 F   0  0  0  0  0  0  0  0  0  0  0  0
    3.8495   -1.2958    4.2311 F   0  0  0  0  0  0  0  0  0  0  0  0
    4.1612   -3.3113    3.4840 F   0  0  0  0  0  0  0  0  0  0  0  0
  1  3  2  0  0  0  0
  2  1  2  0  0  0  0
  4  3  1  0  0  0  0
  5 21  1  0  0  0  0
  6  7  2  0  0  0  0
  6 11  1  0  0  0  0
  7  8  1  0  0  0  0
  8 14  1  0  0  0  0
  8  9  2  0  0  0  0
  9 15  1  0  0  0  0
 10  9  1  0  0  0  0
 10 16  1  0  0  0  0
 11 10  2  0  0  0  0
 12  6  1  0  0  0  0
 13  7  1  0  0  0  0
 17 11  1  0  0  0  0
 18 19  2  0  0  0  0
 20 18  2  0  0  0  0
 21 18  1  0  0  0  0
 22 25  1  0  0  0  0
 22 18  1  0  0  0  0
 22 24  1  0  0  0  0
 23 22  1  0  0  0  0
M  RAD  1   2   2
M  END
