Coordinates from ORCA-job C6H6+TfO-+NH2N2+-scan
 OpenBabel10121810013D

 25 23  0  0  0  0  0  0  0  0999 V2000
   -2.1957   -2.6554    0.3104 N   0  0  0  0  0  0  0  0  0  0  0  0
   -3.3159   -2.5940    0.2143 N   0  0  0  0  0  0  0  0  0  0  0  0
   -0.9794   -2.7006    0.5585 N   0  0  0  0  0  0  0  0  0  0  0  0
   -0.4250   -2.8820   -0.2813 H   0  0  0  0  0  0  0  0  0  0  0  0
   -0.0828   -2.4397    2.0104 H   0  0  0  0  0  0  0  0  0  0  0  0
    0.4144   -1.1706   -3.7383 C   0  0  0  0  0  0  0  0  0  0  0  0
    0.4815   -1.8982   -4.9257 C   0  0  0  0  0  0  0  0  0  0  0  0
    1.1847   -3.1025   -4.9675 C   0  0  0  0  0  0  0  0  0  0  0  0
    1.8149   -3.5816   -3.8195 C   0  0  0  0  0  0  0  0  0  0  0  0
    1.7509   -2.8545   -2.6299 C   0  0  0  0  0  0  0  0  0  0  0  0
    1.0515   -1.6469   -2.5915 C   0  0  0  0  0  0  0  0  0  0  0  0
   -0.1237   -0.2290   -3.7092 H   0  0  0  0  0  0  0  0  0  0  0  0
   -0.0082   -1.5251   -5.8187 H   0  0  0  0  0  0  0  0  0  0  0  0
    1.2406   -3.6657   -5.8928 H   0  0  0  0  0  0  0  0  0  0  0  0
    2.3631   -4.5170   -3.8520 H   0  0  0  0  0  0  0  0  0  0  0  0
    2.2516   -3.2122   -1.7372 H   0  0  0  0  0  0  0  0  0  0  0  0
    1.0257   -1.0684   -1.6737 H   0  0  0  0  0  0  0  0  0  0  0  0
    2.0526   -2.2113    2.1424 S   0  0  0  0  0  0  0  0  0  0  0  0
    2.9952   -2.5896    3.1637 O   0  0  0  0  0  0  0  0  0  0  0  0
    2.0714   -2.7769    0.8027 O   0  0  0  0  0  0  0  0  0  0  0  0
    0.5814   -2.3063    2.7484 O   0  0  0  0  0  0  0  0  0  0  0  0
    2.1880   -0.3503    1.9180 C   0  0  0  0  0  0  0  0  0  0  0  0
    1.2067    0.0661    1.1077 F   0  0  0  0  0  0  0  0  0  0  0  0
    2.0827    0.2675    3.0873 F   0  0  0  0  0  0  0  0  0  0  0  0
    3.3625   -0.0663    1.3647 F   0  0  0  0  0  0  0  0  0  0  0  0
  1  3  2  0  0  0  0
  2  1  2  0  0  0  0
  4  3  1  0  0  0  0
  5 21  1  0  0  0  0
  6 12  1  0  0  0  0
  6 11  2  0  0  0  0
  7  6  1  0  0  0  0
  8  7  2  0  0  0  0
  8  9  1  0  0  0  0
  9 10  2  0  0  0  0
 10 11  1  0  0  0  0
 10 16  1  0  0  0  0
 11 17  1  0  0  0  0
 13  7  1  0  0  0  0
 14  8  1  0  0  0  0
 15  9  1  0  0  0  0
 18 21  1  0  0  0  0
 18 19  2  0  0  0  0
 20 18  2  0  0  0  0
 22 18  1  0  0  0  0
 22 24  1  0  0  0  0
 23 22  1  0  0  0  0
 25 22  1  0  0  0  0
M  RAD  1   2   2
M  END
