Coordinates from ORCA-job C6H6+TfO-+NH2N2+-scan
 OpenBabel10121810013D

 25 23  0  0  0  0  0  0  0  0999 V2000
   -1.6252   -3.0080   -0.8582 N   0  0  0  0  0  0  0  0  0  0  0  0
   -2.7165   -3.0556   -1.1351 N   0  0  0  0  0  0  0  0  0  0  0  0
   -0.4648   -2.9653   -0.4249 N   0  0  0  0  0  0  0  0  0  0  0  0
    0.2254   -2.9360   -1.1824 H   0  0  0  0  0  0  0  0  0  0  0  0
    0.0527   -2.7540    1.1842 H   0  0  0  0  0  0  0  0  0  0  0  0
    0.6592   -0.8777   -3.3929 C   0  0  0  0  0  0  0  0  0  0  0  0
   -0.1145   -1.8776   -3.9837 C   0  0  0  0  0  0  0  0  0  0  0  0
    0.2657   -3.2147   -3.8635 C   0  0  0  0  0  0  0  0  0  0  0  0
    1.4258   -3.5516   -3.1627 C   0  0  0  0  0  0  0  0  0  0  0  0
    2.1968   -2.5511   -2.5661 C   0  0  0  0  0  0  0  0  0  0  0  0
    1.8096   -1.2145   -2.6801 C   0  0  0  0  0  0  0  0  0  0  0  0
    0.3623    0.1613   -3.4827 H   0  0  0  0  0  0  0  0  0  0  0  0
   -1.0102   -1.6160   -4.5362 H   0  0  0  0  0  0  0  0  0  0  0  0
   -0.3319   -3.9919   -4.3277 H   0  0  0  0  0  0  0  0  0  0  0  0
    1.7262   -4.5898   -3.0748 H   0  0  0  0  0  0  0  0  0  0  0  0
    3.0777   -2.8118   -1.9922 H   0  0  0  0  0  0  0  0  0  0  0  0
    2.4015   -0.4404   -2.2055 H   0  0  0  0  0  0  0  0  0  0  0  0
    1.9811   -2.2642    2.0337 S   0  0  0  0  0  0  0  0  0  0  0  0
    2.5639   -2.5342    3.3240 O   0  0  0  0  0  0  0  0  0  0  0  0
    2.5474   -2.7627    0.7925 O   0  0  0  0  0  0  0  0  0  0  0  0
    0.4275   -2.6013    2.1050 O   0  0  0  0  0  0  0  0  0  0  0  0
    1.8951   -0.3965    1.8469 C   0  0  0  0  0  0  0  0  0  0  0  0
    1.1667   -0.0918    0.7660 F   0  0  0  0  0  0  0  0  0  0  0  0
    1.3394    0.1548    2.9190 F   0  0  0  0  0  0  0  0  0  0  0  0
    3.1279    0.0805    1.6887 F   0  0  0  0  0  0  0  0  0  0  0  0
  1  3  2  0  0  0  0
  2  1  2  0  0  0  0
  4  3  1  0  0  0  0
  5 21  1  0  0  0  0
  6 11  2  0  0  0  0
  7  8  2  0  0  0  0
  7  6  1  0  0  0  0
  8  9  1  0  0  0  0
  9 15  1  0  0  0  0
  9 10  2  0  0  0  0
 10 16  1  0  0  0  0
 11 10  1  0  0  0  0
 11 17  1  0  0  0  0
 12  6  1  0  0  0  0
 13  7  1  0  0  0  0
 14  8  1  0  0  0  0
 18 21  1  0  0  0  0
 18 19  2  0  0  0  0
 20 18  2  0  0  0  0
 22 18  1  0  0  0  0
 22 24  1  0  0  0  0
 23 22  1  0  0  0  0
 25 22  1  0  0  0  0
M  RAD  1   2   2
M  END
