Coordinates from ORCA-job C6H6+TfO-+NH2N2+-scan
 OpenBabel10121810013D

 25 23  0  0  0  0  0  0  0  0999 V2000
   -1.2529   -1.4067    0.7111 N   0  0  0  0  0  0  0  0  0  0  0  0
   -2.0523   -0.8950    0.1050 N   0  0  0  0  0  0  0  0  0  0  0  0
   -0.3166   -1.8395    1.4022 N   0  0  0  0  0  0  0  0  0  0  0  0
   -0.1930   -2.8492    1.3038 H   0  0  0  0  0  0  0  0  0  0  0  0
    0.3930   -1.3830    2.9361 H   0  0  0  0  0  0  0  0  0  0  0  0
   -0.6281   -2.7289   -5.3572 C   0  0  0  0  0  0  0  0  0  0  0  0
    0.6078   -3.3648   -5.2456 C   0  0  0  0  0  0  0  0  0  0  0  0
    1.7628   -2.6122   -5.0360 C   0  0  0  0  0  0  0  0  0  0  0  0
    1.6815   -1.2236   -4.9376 C   0  0  0  0  0  0  0  0  0  0  0  0
    0.4455   -0.5878   -5.0492 C   0  0  0  0  0  0  0  0  0  0  0  0
   -0.7093   -1.3405   -5.2589 C   0  0  0  0  0  0  0  0  0  0  0  0
   -1.5263   -3.3142   -5.5229 H   0  0  0  0  0  0  0  0  0  0  0  0
    0.6712   -4.4449   -5.3241 H   0  0  0  0  0  0  0  0  0  0  0  0
    2.7244   -3.1067   -4.9509 H   0  0  0  0  0  0  0  0  0  0  0  0
    2.5801   -0.6378   -4.7762 H   0  0  0  0  0  0  0  0  0  0  0  0
    0.3826    0.4925   -4.9748 H   0  0  0  0  0  0  0  0  0  0  0  0
   -1.6705   -0.8457   -5.3474 H   0  0  0  0  0  0  0  0  0  0  0  0
    1.6619   -2.7712    3.9803 S   0  0  0  0  0  0  0  0  0  0  0  0
    1.7982   -3.0511    5.3866 O   0  0  0  0  0  0  0  0  0  0  0  0
    1.1517   -3.7480    3.0297 O   0  0  0  0  0  0  0  0  0  0  0  0
    0.8759   -1.3910    3.8111 O   0  0  0  0  0  0  0  0  0  0  0  0
    3.3527   -2.2525    3.3436 C   0  0  0  0  0  0  0  0  0  0  0  0
    3.2315   -1.8004    2.0939 F   0  0  0  0  0  0  0  0  0  0  0  0
    3.8592   -1.2976    4.1136 F   0  0  0  0  0  0  0  0  0  0  0  0
    4.1578   -3.3106    3.3548 F   0  0  0  0  0  0  0  0  0  0  0  0
  1  3  2  0  0  0  0
  2  1  2  0  0  0  0
  4  3  1  0  0  0  0
  5 21  1  0  0  0  0
  6 11  2  0  0  0  0
  6  7  1  0  0  0  0
  7  8  2  0  0  0  0
  8 14  1  0  0  0  0
  8  9  1  0  0  0  0
  9 15  1  0  0  0  0
 10 16  1  0  0  0  0
 10  9  2  0  0  0  0
 11 10  1  0  0  0  0
 12  6  1  0  0  0  0
 13  7  1  0  0  0  0
 17 11  1  0  0  0  0
 18 19  2  0  0  0  0
 20 18  2  0  0  0  0
 21 18  1  0  0  0  0
 22 25  1  0  0  0  0
 22 18  1  0  0  0  0
 22 24  1  0  0  0  0
 23 22  1  0  0  0  0
M  RAD  1   2   2
M  END
