Coordinates from ORCA-job C6H6+TfO-+NH2N2+-scan
 OpenBabel10121810013D

 25 23  0  0  0  0  0  0  0  0999 V2000
   -1.6785   -1.1779   -0.7272 N   0  0  0  0  0  0  0  0  0  0  0  0
   -2.5902   -0.5251   -0.8442 N   0  0  0  0  0  0  0  0  0  0  0  0
   -0.7053   -1.9059   -0.4813 N   0  0  0  0  0  0  0  0  0  0  0  0
   -0.1349   -2.0807   -1.3175 H   0  0  0  0  0  0  0  0  0  0  0  0
   -0.3091   -2.4717    1.0599 H   0  0  0  0  0  0  0  0  0  0  0  0
    0.2076   -1.9764   -4.4887 C   0  0  0  0  0  0  0  0  0  0  0  0
    0.3619   -2.9879   -3.5409 C   0  0  0  0  0  0  0  0  0  0  0  0
    1.2546   -2.8217   -2.4770 C   0  0  0  0  0  0  0  0  0  0  0  0
    2.0128   -1.6500   -2.3835 C   0  0  0  0  0  0  0  0  0  0  0  0
    1.8594   -0.6413   -3.3333 C   0  0  0  0  0  0  0  0  0  0  0  0
    0.9559   -0.8039   -4.3837 C   0  0  0  0  0  0  0  0  0  0  0  0
   -0.4877   -2.1046   -5.3109 H   0  0  0  0  0  0  0  0  0  0  0  0
   -0.2124   -3.9042   -3.6247 H   0  0  0  0  0  0  0  0  0  0  0  0
    1.3966   -3.6104   -1.7467 H   0  0  0  0  0  0  0  0  0  0  0  0
    2.7099   -1.5274   -1.5625 H   0  0  0  0  0  0  0  0  0  0  0  0
    2.4452    0.2682   -3.2579 H   0  0  0  0  0  0  0  0  0  0  0  0
    0.8375   -0.0188   -5.1224 H   0  0  0  0  0  0  0  0  0  0  0  0
    1.3531   -3.5150    1.9829 S   0  0  0  0  0  0  0  0  0  0  0  0
    1.4231   -4.3907    3.1255 O   0  0  0  0  0  0  0  0  0  0  0  0
    1.6950   -3.9472    0.6383 O   0  0  0  0  0  0  0  0  0  0  0  0
   -0.0636   -2.7958    1.9832 O   0  0  0  0  0  0  0  0  0  0  0  0
    2.4637   -2.0437    2.3449 C   0  0  0  0  0  0  0  0  0  0  0  0
    2.2966   -1.1190    1.3905 F   0  0  0  0  0  0  0  0  0  0  0  0
    2.1660   -1.5130    3.5246 F   0  0  0  0  0  0  0  0  0  0  0  0
    3.7317   -2.4462    2.3436 F   0  0  0  0  0  0  0  0  0  0  0  0
  1  3  2  0  0  0  0
  2  1  2  0  0  0  0
  4  3  1  0  0  0  0
  5 21  1  0  0  0  0
  6 11  2  0  0  0  0
  6  7  1  0  0  0  0
  7  8  2  0  0  0  0
  8  9  1  0  0  0  0
  8 14  1  0  0  0  0
  9 15  1  0  0  0  0
 10 16  1  0  0  0  0
 10  9  2  0  0  0  0
 11 10  1  0  0  0  0
 12  6  1  0  0  0  0
 13  7  1  0  0  0  0
 17 11  1  0  0  0  0
 18 21  1  0  0  0  0
 18 22  1  0  0  0  0
 18 19  2  0  0  0  0
 20 18  2  0  0  0  0
 22 24  1  0  0  0  0
 23 22  1  0  0  0  0
 25 22  1  0  0  0  0
M  RAD  1   2   2
M  END
