Coordinates from ORCA-job C6H6+TfO-+NH2N2+-scan
 OpenBabel10121810013D

 25 23  0  0  0  0  0  0  0  0999 V2000
   -1.7216   -2.9612   -0.8902 N   0  0  0  0  0  0  0  0  0  0  0  0
   -2.8229   -2.9196   -1.1261 N   0  0  0  0  0  0  0  0  0  0  0  0
   -0.5436   -2.9932   -0.5078 N   0  0  0  0  0  0  0  0  0  0  0  0
    0.1044   -3.1268   -1.2914 H   0  0  0  0  0  0  0  0  0  0  0  0
    0.0114   -2.7441    1.0805 H   0  0  0  0  0  0  0  0  0  0  0  0
    0.6384   -0.8622   -3.3669 C   0  0  0  0  0  0  0  0  0  0  0  0
   -0.1347   -1.9157   -3.8555 C   0  0  0  0  0  0  0  0  0  0  0  0
    0.3018   -3.2315   -3.6928 C   0  0  0  0  0  0  0  0  0  0  0  0
    1.5182   -3.4920   -3.0559 C   0  0  0  0  0  0  0  0  0  0  0  0
    2.2873   -2.4361   -2.5619 C   0  0  0  0  0  0  0  0  0  0  0  0
    1.8445   -1.1227   -2.7167 C   0  0  0  0  0  0  0  0  0  0  0  0
    0.2988    0.1603   -3.4892 H   0  0  0  0  0  0  0  0  0  0  0  0
   -1.0721   -1.7133   -4.3618 H   0  0  0  0  0  0  0  0  0  0  0  0
   -0.2920   -4.0518   -4.0822 H   0  0  0  0  0  0  0  0  0  0  0  0
    1.8638   -4.5134   -2.9401 H   0  0  0  0  0  0  0  0  0  0  0  0
    3.2135   -2.6399   -2.0390 H   0  0  0  0  0  0  0  0  0  0  0  0
    2.4369   -0.3042   -2.3245 H   0  0  0  0  0  0  0  0  0  0  0  0
    1.9330   -2.3202    1.9883 S   0  0  0  0  0  0  0  0  0  0  0  0
    2.4570   -2.5995    3.3020 O   0  0  0  0  0  0  0  0  0  0  0  0
    2.5180   -2.8622    0.7748 O   0  0  0  0  0  0  0  0  0  0  0  0
    0.3638   -2.5824    2.0090 O   0  0  0  0  0  0  0  0  0  0  0  0
    1.9417   -0.4528    1.7795 C   0  0  0  0  0  0  0  0  0  0  0  0
    1.2549   -0.1243    0.6792 F   0  0  0  0  0  0  0  0  0  0  0  0
    1.3884    0.1363    2.8329 F   0  0  0  0  0  0  0  0  0  0  0  0
    3.1999   -0.0376    1.6470 F   0  0  0  0  0  0  0  0  0  0  0  0
  1  3  2  0  0  0  0
  2  1  2  0  0  0  0
  4  3  1  0  0  0  0
  5 21  1  0  0  0  0
  6 11  2  0  0  0  0
  7  8  2  0  0  0  0
  7  6  1  0  0  0  0
  8  9  1  0  0  0  0
  9 15  1  0  0  0  0
  9 10  2  0  0  0  0
 10 16  1  0  0  0  0
 11 10  1  0  0  0  0
 11 17  1  0  0  0  0
 12  6  1  0  0  0  0
 13  7  1  0  0  0  0
 14  8  1  0  0  0  0
 18 21  1  0  0  0  0
 18 19  2  0  0  0  0
 20 18  2  0  0  0  0
 22 18  1  0  0  0  0
 22 24  1  0  0  0  0
 23 22  1  0  0  0  0
 25 22  1  0  0  0  0
M  RAD  1   2   2
M  END
