Coordinates from ORCA-job C6H6+TfO-+NH2N2+-scan
 OpenBabel10121810013D

 25 23  0  0  0  0  0  0  0  0999 V2000
   -1.6524   -3.0066   -0.8059 N   0  0  0  0  0  0  0  0  0  0  0  0
   -2.7458   -3.0569   -1.0732 N   0  0  0  0  0  0  0  0  0  0  0  0
   -0.4884   -2.9612   -0.3810 N   0  0  0  0  0  0  0  0  0  0  0  0
    0.1945   -2.9336   -1.1447 H   0  0  0  0  0  0  0  0  0  0  0  0
    0.0464   -2.7412    1.2239 H   0  0  0  0  0  0  0  0  0  0  0  0
    0.6495   -0.8815   -3.4214 C   0  0  0  0  0  0  0  0  0  0  0  0
   -0.0915   -1.8833   -4.0495 C   0  0  0  0  0  0  0  0  0  0  0  0
    0.2985   -3.2176   -3.9301 C   0  0  0  0  0  0  0  0  0  0  0  0
    1.4330   -3.5494   -3.1862 C   0  0  0  0  0  0  0  0  0  0  0  0
    2.1738   -2.5470   -2.5556 C   0  0  0  0  0  0  0  0  0  0  0  0
    1.7785   -1.2128   -2.6728 C   0  0  0  0  0  0  0  0  0  0  0  0
    0.3447    0.1551   -3.5138 H   0  0  0  0  0  0  0  0  0  0  0  0
   -0.9690   -1.6250   -4.6320 H   0  0  0  0  0  0  0  0  0  0  0  0
   -0.2738   -3.9968   -4.4220 H   0  0  0  0  0  0  0  0  0  0  0  0
    1.7383   -4.5860   -3.0954 H   0  0  0  0  0  0  0  0  0  0  0  0
    3.0408   -2.8038   -1.9593 H   0  0  0  0  0  0  0  0  0  0  0  0
    2.3488   -0.4372   -2.1749 H   0  0  0  0  0  0  0  0  0  0  0  0
    1.9890   -2.2661    2.0474 S   0  0  0  0  0  0  0  0  0  0  0  0
    2.5861   -2.5410    3.3300 O   0  0  0  0  0  0  0  0  0  0  0  0
    2.5344   -2.7699    0.7990 O   0  0  0  0  0  0  0  0  0  0  0  0
    0.4333   -2.5900    2.1393 O   0  0  0  0  0  0  0  0  0  0  0  0
    1.9158   -0.3978    1.8595 C   0  0  0  0  0  0  0  0  0  0  0  0
    1.1737   -0.0891    0.7891 F   0  0  0  0  0  0  0  0  0  0  0  0
    1.3807    0.1597    2.9388 F   0  0  0  0  0  0  0  0  0  0  0  0
    3.1499    0.0686    1.6820 F   0  0  0  0  0  0  0  0  0  0  0  0
  1  3  2  0  0  0  0
  2  1  2  0  0  0  0
  4  3  1  0  0  0  0
  5 21  1  0  0  0  0
  6 11  2  0  0  0  0
  7  8  2  0  0  0  0
  7  6  1  0  0  0  0
  8  9  1  0  0  0  0
  9 15  1  0  0  0  0
  9 10  2  0  0  0  0
 10 16  1  0  0  0  0
 11 10  1  0  0  0  0
 11 17  1  0  0  0  0
 12  6  1  0  0  0  0
 13  7  1  0  0  0  0
 14  8  1  0  0  0  0
 18 21  1  0  0  0  0
 18 19  2  0  0  0  0
 20 18  2  0  0  0  0
 22 18  1  0  0  0  0
 22 24  1  0  0  0  0
 23 22  1  0  0  0  0
 25 22  1  0  0  0  0
M  RAD  1   2   2
M  END
