Coordinates from ORCA-job C6H6+TfO-+NH2N2+-scan
 OpenBabel10121810013D

 25 23  0  0  0  0  0  0  0  0999 V2000
   -1.6105   -2.8011   -0.7208 N   0  0  0  0  0  0  0  0  0  0  0  0
   -2.7046   -2.7351   -0.9816 N   0  0  0  0  0  0  0  0  0  0  0  0
   -0.4467   -2.8859   -0.3009 N   0  0  0  0  0  0  0  0  0  0  0  0
    0.2391   -2.8598   -1.0639 H   0  0  0  0  0  0  0  0  0  0  0  0
    0.1260   -2.7563    1.2982 H   0  0  0  0  0  0  0  0  0  0  0  0
    0.5864   -0.9649   -3.5061 C   0  0  0  0  0  0  0  0  0  0  0  0
   -0.0592   -1.9533   -4.2502 C   0  0  0  0  0  0  0  0  0  0  0  0
    0.3540   -3.2824   -4.1536 C   0  0  0  0  0  0  0  0  0  0  0  0
    1.4166   -3.6231   -3.3145 C   0  0  0  0  0  0  0  0  0  0  0  0
    2.0631   -2.6351   -2.5674 C   0  0  0  0  0  0  0  0  0  0  0  0
    1.6440   -1.3056   -2.6628 C   0  0  0  0  0  0  0  0  0  0  0  0
    0.2653    0.0681   -3.5828 H   0  0  0  0  0  0  0  0  0  0  0  0
   -0.8822   -1.6883   -4.9049 H   0  0  0  0  0  0  0  0  0  0  0  0
   -0.1463   -4.0495   -4.7343 H   0  0  0  0  0  0  0  0  0  0  0  0
    1.7420   -4.6550   -3.2418 H   0  0  0  0  0  0  0  0  0  0  0  0
    2.8751   -2.8972   -1.8994 H   0  0  0  0  0  0  0  0  0  0  0  0
    2.1410   -0.5422   -2.0751 H   0  0  0  0  0  0  0  0  0  0  0  0
    2.0735   -2.2279    2.0791 S   0  0  0  0  0  0  0  0  0  0  0  0
    2.7404   -2.5622    3.3122 O   0  0  0  0  0  0  0  0  0  0  0  0
    2.5926   -2.6042    0.7751 O   0  0  0  0  0  0  0  0  0  0  0  0
    0.5444   -2.6500    2.2064 O   0  0  0  0  0  0  0  0  0  0  0  0
    1.8897   -0.3585    2.0364 C   0  0  0  0  0  0  0  0  0  0  0  0
    1.1087   -0.0150    1.0049 F   0  0  0  0  0  0  0  0  0  0  0  0
    1.3457    0.0829    3.1638 F   0  0  0  0  0  0  0  0  0  0  0  0
    3.0907    0.1913    1.8751 F   0  0  0  0  0  0  0  0  0  0  0  0
  1  3  2  0  0  0  0
  2  1  2  0  0  0  0
  4  3  1  0  0  0  0
  5 21  1  0  0  0  0
  6 11  2  0  0  0  0
  7  8  2  0  0  0  0
  7  6  1  0  0  0  0
  8  9  1  0  0  0  0
  9 15  1  0  0  0  0
  9 10  2  0  0  0  0
 10 16  1  0  0  0  0
 11 10  1  0  0  0  0
 11 17  1  0  0  0  0
 12  6  1  0  0  0  0
 13  7  1  0  0  0  0
 14  8  1  0  0  0  0
 18 21  1  0  0  0  0
 18 19  2  0  0  0  0
 20 18  2  0  0  0  0
 22 18  1  0  0  0  0
 22 24  1  0  0  0  0
 23 22  1  0  0  0  0
 25 22  1  0  0  0  0
M  RAD  1   2   2
M  END
