Coordinates from ORCA-job C6H6+TfO-+NH2N2+-scan
 OpenBabel10121810013D

 25 23  0  0  0  0  0  0  0  0999 V2000
   -1.6130   -2.7963   -0.7130 N   0  0  0  0  0  0  0  0  0  0  0  0
   -2.7074   -2.7285   -0.9723 N   0  0  0  0  0  0  0  0  0  0  0  0
   -0.4488   -2.8829   -0.2946 N   0  0  0  0  0  0  0  0  0  0  0  0
    0.2360   -2.8576   -1.0586 H   0  0  0  0  0  0  0  0  0  0  0  0
    0.1262   -2.7542    1.3038 H   0  0  0  0  0  0  0  0  0  0  0  0
    0.5820   -0.9673   -3.5108 C   0  0  0  0  0  0  0  0  0  0  0  0
   -0.0553   -1.9558   -4.2619 C   0  0  0  0  0  0  0  0  0  0  0  0
    0.3610   -3.2839   -4.1655 C   0  0  0  0  0  0  0  0  0  0  0  0
    1.4183   -3.6237   -3.3195 C   0  0  0  0  0  0  0  0  0  0  0  0
    2.0567   -2.6358   -2.5654 C   0  0  0  0  0  0  0  0  0  0  0  0
    1.6345   -1.3072   -2.6607 C   0  0  0  0  0  0  0  0  0  0  0  0
    0.2587    0.0650   -3.5875 H   0  0  0  0  0  0  0  0  0  0  0  0
   -0.8743   -1.6915   -4.9220 H   0  0  0  0  0  0  0  0  0  0  0  0
   -0.1330   -4.0510   -4.7516 H   0  0  0  0  0  0  0  0  0  0  0  0
    1.7460   -4.6549   -3.2470 H   0  0  0  0  0  0  0  0  0  0  0  0
    2.8648   -2.8970   -1.8925 H   0  0  0  0  0  0  0  0  0  0  0  0
    2.1252   -0.5437   -2.0677 H   0  0  0  0  0  0  0  0  0  0  0  0
    2.0756   -2.2281    2.0815 S   0  0  0  0  0  0  0  0  0  0  0  0
    2.7444   -2.5638    3.3132 O   0  0  0  0  0  0  0  0  0  0  0  0
    2.5919   -2.6044    0.7763 O   0  0  0  0  0  0  0  0  0  0  0  0
    0.5463   -2.6485    2.2113 O   0  0  0  0  0  0  0  0  0  0  0  0
    1.8939   -0.3585    2.0401 C   0  0  0  0  0  0  0  0  0  0  0  0
    1.1118   -0.0136    1.0098 F   0  0  0  0  0  0  0  0  0  0  0  0
    1.3520    0.0829    3.1685 F   0  0  0  0  0  0  0  0  0  0  0  0
    3.0953    0.1900    1.8774 F   0  0  0  0  0  0  0  0  0  0  0  0
  1  3  2  0  0  0  0
  2  1  2  0  0  0  0
  4  3  1  0  0  0  0
  5 21  1  0  0  0  0
  6 11  2  0  0  0  0
  7  8  2  0  0  0  0
  7  6  1  0  0  0  0
  8  9  1  0  0  0  0
  9 15  1  0  0  0  0
  9 10  2  0  0  0  0
 10 16  1  0  0  0  0
 11 10  1  0  0  0  0
 11 17  1  0  0  0  0
 12  6  1  0  0  0  0
 13  7  1  0  0  0  0
 14  8  1  0  0  0  0
 18 21  1  0  0  0  0
 18 19  2  0  0  0  0
 20 18  2  0  0  0  0
 22 18  1  0  0  0  0
 22 24  1  0  0  0  0
 23 22  1  0  0  0  0
 25 22  1  0  0  0  0
M  RAD  1   2   2
M  END
