Coordinates from ORCA-job C6H6+TfO-+NH2N2+-scan
 OpenBabel10121810013D

 25 23  0  0  0  0  0  0  0  0999 V2000
   -1.9234   -2.6811   -0.2323 N   0  0  0  0  0  0  0  0  0  0  0  0
   -3.0349   -2.6313   -0.4078 N   0  0  0  0  0  0  0  0  0  0  0  0
   -0.7269   -2.7237    0.0959 N   0  0  0  0  0  0  0  0  0  0  0  0
   -0.1148   -2.8304   -0.7196 H   0  0  0  0  0  0  0  0  0  0  0  0
   -0.0005   -2.4912    1.6338 H   0  0  0  0  0  0  0  0  0  0  0  0
    0.3017   -1.1369   -3.6382 C   0  0  0  0  0  0  0  0  0  0  0  0
    0.2189   -2.0039   -4.7267 C   0  0  0  0  0  0  0  0  0  0  0  0
    0.9080   -3.2171   -4.7063 C   0  0  0  0  0  0  0  0  0  0  0  0
    1.6795   -3.5633   -3.5982 C   0  0  0  0  0  0  0  0  0  0  0  0
    1.7666   -2.6966   -2.5063 C   0  0  0  0  0  0  0  0  0  0  0  0
    1.0760   -1.4820   -2.5286 C   0  0  0  0  0  0  0  0  0  0  0  0
   -0.2290   -0.1911   -3.6558 H   0  0  0  0  0  0  0  0  0  0  0  0
   -0.3788   -1.7347   -5.5906 H   0  0  0  0  0  0  0  0  0  0  0  0
    0.8444   -3.8900   -5.5546 H   0  0  0  0  0  0  0  0  0  0  0  0
    2.2185   -4.5043   -3.5844 H   0  0  0  0  0  0  0  0  0  0  0  0
    2.3694   -2.9589   -1.6440 H   0  0  0  0  0  0  0  0  0  0  0  0
    1.1412   -0.8055   -1.6829 H   0  0  0  0  0  0  0  0  0  0  0  0
    2.0776   -2.2401    2.1638 S   0  0  0  0  0  0  0  0  0  0  0  0
    2.8168   -2.6544    3.3291 O   0  0  0  0  0  0  0  0  0  0  0  0
    2.3506   -2.7551    0.8321 O   0  0  0  0  0  0  0  0  0  0  0  0
    0.5213   -2.3558    2.4806 O   0  0  0  0  0  0  0  0  0  0  0  0
    2.2461   -0.3727    2.0389 C   0  0  0  0  0  0  0  0  0  0  0  0
    1.4443    0.0803    1.0667 F   0  0  0  0  0  0  0  0  0  0  0  0
    1.9098    0.2025    3.1865 F   0  0  0  0  0  0  0  0  0  0  0  0
    3.5063   -0.0731    1.7401 F   0  0  0  0  0  0  0  0  0  0  0  0
  1  3  2  0  0  0  0
  2  1  2  0  0  0  0
  4  3  1  0  0  0  0
  5 21  1  0  0  0  0
  6 11  2  0  0  0  0
  7  8  2  0  0  0  0
  7  6  1  0  0  0  0
  8  9  1  0  0  0  0
  9 15  1  0  0  0  0
  9 10  2  0  0  0  0
 10 16  1  0  0  0  0
 11 10  1  0  0  0  0
 11 17  1  0  0  0  0
 12  6  1  0  0  0  0
 13  7  1  0  0  0  0
 14  8  1  0  0  0  0
 18 21  1  0  0  0  0
 18 19  2  0  0  0  0
 20 18  2  0  0  0  0
 22 18  1  0  0  0  0
 22 24  1  0  0  0  0
 23 22  1  0  0  0  0
 25 22  1  0  0  0  0
M  RAD  1   2   2
M  END
