Coordinates from ORCA-job C6H6+TfO-+NH2N2+-scan
 OpenBabel10121810013D

 25 23  0  0  0  0  0  0  0  0999 V2000
   -1.3713   -1.4103    0.5413 N   0  0  0  0  0  0  0  0  0  0  0  0
   -2.2197   -0.9007    0.0040 N   0  0  0  0  0  0  0  0  0  0  0  0
   -0.3803   -1.8344    1.1584 N   0  0  0  0  0  0  0  0  0  0  0  0
   -0.3067   -2.8532    1.1204 H   0  0  0  0  0  0  0  0  0  0  0  0
    0.4168   -1.3347    2.6345 H   0  0  0  0  0  0  0  0  0  0  0  0
   -0.5549   -2.7478   -5.1345 C   0  0  0  0  0  0  0  0  0  0  0  0
    0.6758   -3.3578   -4.8944 C   0  0  0  0  0  0  0  0  0  0  0  0
    1.7964   -2.5790   -4.6083 C   0  0  0  0  0  0  0  0  0  0  0  0
    1.6854   -1.1897   -4.5607 C   0  0  0  0  0  0  0  0  0  0  0  0
    0.4548   -0.5797   -4.8007 C   0  0  0  0  0  0  0  0  0  0  0  0
   -0.6656   -1.3588   -5.0875 C   0  0  0  0  0  0  0  0  0  0  0  0
   -1.4256   -3.3540   -5.3608 H   0  0  0  0  0  0  0  0  0  0  0  0
    0.7625   -4.4385   -4.9330 H   0  0  0  0  0  0  0  0  0  0  0  0
    2.7541   -3.0533   -4.4229 H   0  0  0  0  0  0  0  0  0  0  0  0
    2.5573   -0.5835   -4.3392 H   0  0  0  0  0  0  0  0  0  0  0  0
    0.3695    0.5011   -4.7669 H   0  0  0  0  0  0  0  0  0  0  0  0
   -1.6225   -0.8841   -5.2763 H   0  0  0  0  0  0  0  0  0  0  0  0
    1.6596   -2.7252    3.7066 S   0  0  0  0  0  0  0  0  0  0  0  0
    1.8409   -2.9343    5.1201 O   0  0  0  0  0  0  0  0  0  0  0  0
    1.0643   -3.7258    2.8333 O   0  0  0  0  0  0  0  0  0  0  0  0
    0.9332   -1.3191    3.4904 O   0  0  0  0  0  0  0  0  0  0  0  0
    3.3449   -2.3274    2.9754 C   0  0  0  0  0  0  0  0  0  0  0  0
    3.1929   -1.9394    1.7078 F   0  0  0  0  0  0  0  0  0  0  0  0
    3.9285   -1.3582    3.6692 F   0  0  0  0  0  0  0  0  0  0  0  0
    4.0983   -3.4224    3.0152 F   0  0  0  0  0  0  0  0  0  0  0  0
  1  3  2  0  0  0  0
  2  1  2  0  0  0  0
  4  3  1  0  0  0  0
  5 21  1  0  0  0  0
  6 11  2  0  0  0  0
  6  7  1  0  0  0  0
  7  8  2  0  0  0  0
  8  9  1  0  0  0  0
  8 14  1  0  0  0  0
  9 15  1  0  0  0  0
 10 16  1  0  0  0  0
 10  9  2  0  0  0  0
 11 10  1  0  0  0  0
 12  6  1  0  0  0  0
 13  7  1  0  0  0  0
 17 11  1  0  0  0  0
 18 19  2  0  0  0  0
 20 18  2  0  0  0  0
 21 18  1  0  0  0  0
 22 25  1  0  0  0  0
 22 24  1  0  0  0  0
 22 18  1  0  0  0  0
 23 22  1  0  0  0  0
M  RAD  1   2   2
M  END
