Coordinates from ORCA-job C6H6+TfO-+NH2N2+-scan
 OpenBabel10121810013D

 25 23  0  0  0  0  0  0  0  0999 V2000
   -1.8292   -2.6496   -0.2904 N   0  0  0  0  0  0  0  0  0  0  0  0
   -2.9359   -2.5501   -0.4750 N   0  0  0  0  0  0  0  0  0  0  0  0
   -0.6398   -2.7589    0.0478 N   0  0  0  0  0  0  0  0  0  0  0  0
   -0.0194   -2.8184   -0.7669 H   0  0  0  0  0  0  0  0  0  0  0  0
    0.0683   -2.6115    1.5994 H   0  0  0  0  0  0  0  0  0  0  0  0
    0.3985   -1.0959   -3.6409 C   0  0  0  0  0  0  0  0  0  0  0  0
    0.1825   -1.9926   -4.6862 C   0  0  0  0  0  0  0  0  0  0  0  0
    0.7739   -3.2560   -4.6559 C   0  0  0  0  0  0  0  0  0  0  0  0
    1.5795   -3.6238   -3.5793 C   0  0  0  0  0  0  0  0  0  0  0  0
    1.7999   -2.7274   -2.5310 C   0  0  0  0  0  0  0  0  0  0  0  0
    1.2079   -1.4619   -2.5638 C   0  0  0  0  0  0  0  0  0  0  0  0
   -0.0552   -0.1110   -3.6680 H   0  0  0  0  0  0  0  0  0  0  0  0
   -0.4425   -1.7070   -5.5253 H   0  0  0  0  0  0  0  0  0  0  0  0
    0.6074   -3.9515   -5.4713 H   0  0  0  0  0  0  0  0  0  0  0  0
    2.0426   -4.6042   -3.5576 H   0  0  0  0  0  0  0  0  0  0  0  0
    2.4308   -3.0044   -1.6937 H   0  0  0  0  0  0  0  0  0  0  0  0
    1.3852   -0.7616   -1.7545 H   0  0  0  0  0  0  0  0  0  0  0  0
    2.1188   -2.2220    2.1521 S   0  0  0  0  0  0  0  0  0  0  0  0
    2.8898   -2.6031    3.3081 O   0  0  0  0  0  0  0  0  0  0  0  0
    2.4469   -2.6606    0.8058 O   0  0  0  0  0  0  0  0  0  0  0  0
    0.5808   -2.4998    2.4559 O   0  0  0  0  0  0  0  0  0  0  0  0
    2.1024   -0.3441    2.0905 C   0  0  0  0  0  0  0  0  0  0  0  0
    1.2522    0.0584    1.1370 F   0  0  0  0  0  0  0  0  0  0  0  0
    1.7192    0.1570    3.2579 F   0  0  0  0  0  0  0  0  0  0  0  0
    3.3243    0.0898    1.7965 F   0  0  0  0  0  0  0  0  0  0  0  0
  1  3  2  0  0  0  0
  2  1  2  0  0  0  0
  4  3  1  0  0  0  0
  5 21  1  0  0  0  0
  6 11  2  0  0  0  0
  7  8  2  0  0  0  0
  7  6  1  0  0  0  0
  8  9  1  0  0  0  0
  9 15  1  0  0  0  0
  9 10  2  0  0  0  0
 10 16  1  0  0  0  0
 11 10  1  0  0  0  0
 11 17  1  0  0  0  0
 12  6  1  0  0  0  0
 13  7  1  0  0  0  0
 14  8  1  0  0  0  0
 18 21  1  0  0  0  0
 18 19  2  0  0  0  0
 20 18  2  0  0  0  0
 22 18  1  0  0  0  0
 22 24  1  0  0  0  0
 23 22  1  0  0  0  0
 25 22  1  0  0  0  0
M  RAD  1   2   2
M  END
