Coordinates from ORCA-job C6H6+TfO-+NH2N2+-scan
 OpenBabel10121810013D

 25 23  0  0  0  0  0  0  0  0999 V2000
   -1.3385   -1.3995    0.6348 N   0  0  0  0  0  0  0  0  0  0  0  0
   -2.1670   -0.8877    0.0694 N   0  0  0  0  0  0  0  0  0  0  0  0
   -0.3700   -1.8290    1.2820 N   0  0  0  0  0  0  0  0  0  0  0  0
   -0.2702   -2.8435    1.2086 H   0  0  0  0  0  0  0  0  0  0  0  0
    0.3969   -1.3579    2.7839 H   0  0  0  0  0  0  0  0  0  0  0  0
   -0.5830   -2.7400   -5.2361 C   0  0  0  0  0  0  0  0  0  0  0  0
    0.6494   -3.3647   -5.0486 C   0  0  0  0  0  0  0  0  0  0  0  0
    1.7862   -2.5999   -4.7897 C   0  0  0  0  0  0  0  0  0  0  0  0
    1.6912   -1.2105   -4.7211 C   0  0  0  0  0  0  0  0  0  0  0  0
    0.4586   -0.5859   -4.9084 C   0  0  0  0  0  0  0  0  0  0  0  0
   -0.6786   -1.3507   -5.1650 C   0  0  0  0  0  0  0  0  0  0  0  0
   -1.4673   -3.3346   -5.4393 H   0  0  0  0  0  0  0  0  0  0  0  0
    0.7241   -4.4454   -5.1056 H   0  0  0  0  0  0  0  0  0  0  0  0
    2.7452   -3.0858   -4.6450 H   0  0  0  0  0  0  0  0  0  0  0  0
    2.5760   -0.6153   -4.5227 H   0  0  0  0  0  0  0  0  0  0  0  0
    0.3844    0.4950   -4.8554 H   0  0  0  0  0  0  0  0  0  0  0  0
   -1.6373   -0.8648   -5.3111 H   0  0  0  0  0  0  0  0  0  0  0  0
    1.6661   -2.7529    3.8188 S   0  0  0  0  0  0  0  0  0  0  0  0
    1.8397   -3.0068    5.2259 O   0  0  0  0  0  0  0  0  0  0  0  0
    1.1048   -3.7371    2.9053 O   0  0  0  0  0  0  0  0  0  0  0  0
    0.9059   -1.3590    3.6441 O   0  0  0  0  0  0  0  0  0  0  0  0
    3.3474   -2.2864    3.1196 C   0  0  0  0  0  0  0  0  0  0  0  0
    3.1975   -1.8580    1.8648 F   0  0  0  0  0  0  0  0  0  0  0  0
    3.8986   -1.3275    3.8530 F   0  0  0  0  0  0  0  0  0  0  0  0
    4.1287   -3.3623    3.1290 F   0  0  0  0  0  0  0  0  0  0  0  0
  1  3  2  0  0  0  0
  2  1  2  0  0  0  0
  4  3  1  0  0  0  0
  5 21  1  0  0  0  0
  6 11  2  0  0  0  0
  6  7  1  0  0  0  0
  7  8  2  0  0  0  0
  8  9  1  0  0  0  0
  8 14  1  0  0  0  0
  9 15  1  0  0  0  0
 10 16  1  0  0  0  0
 10  9  2  0  0  0  0
 11 10  1  0  0  0  0
 12  6  1  0  0  0  0
 13  7  1  0  0  0  0
 17 11  1  0  0  0  0
 18 19  2  0  0  0  0
 20 18  2  0  0  0  0
 21 18  1  0  0  0  0
 22 25  1  0  0  0  0
 22 18  1  0  0  0  0
 22 24  1  0  0  0  0
 23 22  1  0  0  0  0
M  RAD  1   2   2
M  END
