Coordinates from ORCA-job C6H6+TfO-+NH2N2+-scan
 OpenBabel10121810013D

 25 23  0  0  0  0  0  0  0  0999 V2000
   -1.7556   -3.0086   -0.9275 N   0  0  0  0  0  0  0  0  0  0  0  0
   -2.8485   -3.0180   -1.2039 N   0  0  0  0  0  0  0  0  0  0  0  0
   -0.5918   -2.9854   -0.5065 N   0  0  0  0  0  0  0  0  0  0  0  0
    0.0886   -3.0950   -1.2666 H   0  0  0  0  0  0  0  0  0  0  0  0
   -0.0730   -2.7070    1.0880 H   0  0  0  0  0  0  0  0  0  0  0  0
    0.6255   -0.8334   -3.4109 C   0  0  0  0  0  0  0  0  0  0  0  0
   -0.1442   -1.9283   -3.8023 C   0  0  0  0  0  0  0  0  0  0  0  0
    0.3210   -3.2239   -3.5681 C   0  0  0  0  0  0  0  0  0  0  0  0
    1.5640   -3.4229   -2.9608 C   0  0  0  0  0  0  0  0  0  0  0  0
    2.3295   -2.3245   -2.5636 C   0  0  0  0  0  0  0  0  0  0  0  0
    1.8580   -1.0318   -2.7884 C   0  0  0  0  0  0  0  0  0  0  0  0
    0.2642    0.1735   -3.5884 H   0  0  0  0  0  0  0  0  0  0  0  0
   -1.1019   -1.7749   -4.2875 H   0  0  0  0  0  0  0  0  0  0  0  0
   -0.2706   -4.0774   -3.8831 H   0  0  0  0  0  0  0  0  0  0  0  0
    1.9309   -4.4291   -2.7904 H   0  0  0  0  0  0  0  0  0  0  0  0
    3.2789   -2.4800   -2.0660 H   0  0  0  0  0  0  0  0  0  0  0  0
    2.4492   -0.1794   -2.4737 H   0  0  0  0  0  0  0  0  0  0  0  0
    1.8697   -2.3833    1.9870 S   0  0  0  0  0  0  0  0  0  0  0  0
    2.3752   -2.6616    3.3081 O   0  0  0  0  0  0  0  0  0  0  0  0
    2.4165   -2.9958    0.7890 O   0  0  0  0  0  0  0  0  0  0  0  0
    0.2864   -2.5385    2.0126 O   0  0  0  0  0  0  0  0  0  0  0  0
    2.0025   -0.5270    1.7274 C   0  0  0  0  0  0  0  0  0  0  0  0
    1.3319   -0.1828    0.6221 F   0  0  0  0  0  0  0  0  0  0  0  0
    1.4973    0.1261    2.7672 F   0  0  0  0  0  0  0  0  0  0  0  0
    3.2849   -0.2011    1.5774 F   0  0  0  0  0  0  0  0  0  0  0  0
  1  3  2  0  0  0  0
  2  1  2  0  0  0  0
  4  3  1  0  0  0  0
  5 21  1  0  0  0  0
  6 11  2  0  0  0  0
  7  8  2  0  0  0  0
  7  6  1  0  0  0  0
  8  9  1  0  0  0  0
  9 15  1  0  0  0  0
  9 10  2  0  0  0  0
 10 16  1  0  0  0  0
 11 10  1  0  0  0  0
 11 17  1  0  0  0  0
 12  6  1  0  0  0  0
 13  7  1  0  0  0  0
 14  8  1  0  0  0  0
 18 21  1  0  0  0  0
 18 19  2  0  0  0  0
 20 18  2  0  0  0  0
 22 18  1  0  0  0  0
 22 24  1  0  0  0  0
 23 22  1  0  0  0  0
 25 22  1  0  0  0  0
M  RAD  1   2   2
M  END
