Coordinates from ORCA-job C6H6+TfO-+NH2N2+-scan
 OpenBabel10121810013D

 25 23  0  0  0  0  0  0  0  0999 V2000
   -1.7000   -2.7274   -0.5212 N   0  0  0  0  0  0  0  0  0  0  0  0
   -2.8015   -2.6473   -0.7430 N   0  0  0  0  0  0  0  0  0  0  0  0
   -0.5218   -2.8227   -0.1437 N   0  0  0  0  0  0  0  0  0  0  0  0
    0.1318   -2.8248   -0.9350 H   0  0  0  0  0  0  0  0  0  0  0  0
    0.1120   -2.6891    1.4323 H   0  0  0  0  0  0  0  0  0  0  0  0
    0.4875   -1.0188   -3.6135 C   0  0  0  0  0  0  0  0  0  0  0  0
    0.0464   -1.9961   -4.5056 C   0  0  0  0  0  0  0  0  0  0  0  0
    0.5377   -3.2987   -4.4143 C   0  0  0  0  0  0  0  0  0  0  0  0
    1.4714   -3.6247   -3.4307 C   0  0  0  0  0  0  0  0  0  0  0  0
    1.9165   -2.6477   -2.5365 C   0  0  0  0  0  0  0  0  0  0  0  0
    1.4216   -1.3439   -2.6290 C   0  0  0  0  0  0  0  0  0  0  0  0
    0.1083   -0.0054   -3.6878 H   0  0  0  0  0  0  0  0  0  0  0  0
   -0.6775   -1.7427   -5.2723 H   0  0  0  0  0  0  0  0  0  0  0  0
    0.1956   -4.0569   -5.1102 H   0  0  0  0  0  0  0  0  0  0  0  0
    1.8579   -4.6356   -3.3619 H   0  0  0  0  0  0  0  0  0  0  0  0
    2.6410   -2.8935   -1.7686 H   0  0  0  0  0  0  0  0  0  0  0  0
    1.7669   -0.5871   -1.9333 H   0  0  0  0  0  0  0  0  0  0  0  0
    2.1063   -2.2343    2.1338 S   0  0  0  0  0  0  0  0  0  0  0  0
    2.8100   -2.6054    3.3354 O   0  0  0  0  0  0  0  0  0  0  0  0
    2.5504   -2.6277    0.8071 O   0  0  0  0  0  0  0  0  0  0  0  0
    0.5660   -2.5860    2.3234 O   0  0  0  0  0  0  0  0  0  0  0  0
    2.0072   -0.3582    2.1055 C   0  0  0  0  0  0  0  0  0  0  0  0
    1.2055    0.0261    1.1041 F   0  0  0  0  0  0  0  0  0  0  0  0
    1.5245    0.1008    3.2534 F   0  0  0  0  0  0  0  0  0  0  0  0
    3.2251    0.1369    1.9029 F   0  0  0  0  0  0  0  0  0  0  0  0
  1  3  2  0  0  0  0
  2  1  2  0  0  0  0
  4  3  1  0  0  0  0
  5 21  1  0  0  0  0
  6 11  2  0  0  0  0
  7  8  2  0  0  0  0
  7  6  1  0  0  0  0
  8  9  1  0  0  0  0
  9 15  1  0  0  0  0
  9 10  2  0  0  0  0
 10 16  1  0  0  0  0
 11 10  1  0  0  0  0
 11 17  1  0  0  0  0
 12  6  1  0  0  0  0
 13  7  1  0  0  0  0
 14  8  1  0  0  0  0
 18 21  1  0  0  0  0
 18 19  2  0  0  0  0
 20 18  2  0  0  0  0
 22 18  1  0  0  0  0
 22 24  1  0  0  0  0
 23 22  1  0  0  0  0
 25 22  1  0  0  0  0
M  RAD  1   2   2
M  END
