Coordinates from ORCA-job C6H6+TfO-+NH2N2+-scan
 OpenBabel10121810013D

 25 23  0  0  0  0  0  0  0  0999 V2000
   -1.8159   -2.6591   -0.3203 N   0  0  0  0  0  0  0  0  0  0  0  0
   -2.9219   -2.5644   -0.5113 N   0  0  0  0  0  0  0  0  0  0  0  0
   -0.6280   -2.7632    0.0242 N   0  0  0  0  0  0  0  0  0  0  0  0
   -0.0025   -2.8181   -0.7870 H   0  0  0  0  0  0  0  0  0  0  0  0
    0.0707   -2.6117    1.5789 H   0  0  0  0  0  0  0  0  0  0  0  0
    0.3982   -1.0911   -3.6342 C   0  0  0  0  0  0  0  0  0  0  0  0
    0.1680   -1.9952   -4.6701 C   0  0  0  0  0  0  0  0  0  0  0  0
    0.7550   -3.2606   -4.6360 C   0  0  0  0  0  0  0  0  0  0  0  0
    1.5714   -3.6226   -3.5656 C   0  0  0  0  0  0  0  0  0  0  0  0
    1.8057   -2.7190   -2.5264 C   0  0  0  0  0  0  0  0  0  0  0  0
    1.2174   -1.4518   -2.5627 C   0  0  0  0  0  0  0  0  0  0  0  0
   -0.0526   -0.1051   -3.6639 H   0  0  0  0  0  0  0  0  0  0  0  0
   -0.4650   -1.7140   -5.5047 H   0  0  0  0  0  0  0  0  0  0  0  0
    0.5772   -3.9618   -5.4441 H   0  0  0  0  0  0  0  0  0  0  0  0
    2.0313   -4.6045   -3.5411 H   0  0  0  0  0  0  0  0  0  0  0  0
    2.4433   -2.9927   -1.6932 H   0  0  0  0  0  0  0  0  0  0  0  0
    1.4031   -0.7467   -1.7596 H   0  0  0  0  0  0  0  0  0  0  0  0
    2.1166   -2.2227    2.1515 S   0  0  0  0  0  0  0  0  0  0  0  0
    2.8759   -2.6069    3.3143 O   0  0  0  0  0  0  0  0  0  0  0  0
    2.4573   -2.6594    0.8077 O   0  0  0  0  0  0  0  0  0  0  0  0
    0.5754   -2.4985    2.4400 O   0  0  0  0  0  0  0  0  0  0  0  0
    2.1041   -0.3447    2.0931 C   0  0  0  0  0  0  0  0  0  0  0  0
    1.2664    0.0611    1.1300 F   0  0  0  0  0  0  0  0  0  0  0  0
    1.7074    0.1550    3.2567 F   0  0  0  0  0  0  0  0  0  0  0  0
    3.3303    0.0876    1.8150 F   0  0  0  0  0  0  0  0  0  0  0  0
  1  3  2  0  0  0  0
  2  1  2  0  0  0  0
  4  3  1  0  0  0  0
  5 21  1  0  0  0  0
  6 11  2  0  0  0  0
  7  8  2  0  0  0  0
  7  6  1  0  0  0  0
  8  9  1  0  0  0  0
  9 15  1  0  0  0  0
  9 10  2  0  0  0  0
 10 16  1  0  0  0  0
 11 10  1  0  0  0  0
 11 17  1  0  0  0  0
 12  6  1  0  0  0  0
 13  7  1  0  0  0  0
 14  8  1  0  0  0  0
 18 21  1  0  0  0  0
 18 19  2  0  0  0  0
 20 18  2  0  0  0  0
 22 18  1  0  0  0  0
 22 24  1  0  0  0  0
 23 22  1  0  0  0  0
 25 22  1  0  0  0  0
M  RAD  1   2   2
M  END
