Coordinates from ORCA-job C6H6+TfO-+NH2N2+-scan
 OpenBabel10121810013D

 25 25  0  0  1  0  0  0  0  0999 V2000
   -1.0111   -0.9408   -1.1129 N   0  0  0  0  0  0  0  0  0  0  0  0
   -1.4624   -1.3383   -2.1786 N   0  0  0  0  0  0  0  0  0  0  0  0
    0.2261   -1.5464   -0.7448 N   0  0  0  0  0  0  0  0  0  0  0  0
    0.8717   -0.8026   -0.4803 H   0  0  0  0  0  0  0  0  0  0  0  0
    0.1399   -2.5105    0.5585 H   0  0  0  0  0  0  0  0  0  0  0  0
   -0.3224   -1.8336   -4.2935 C   0  0  0  0  0  0  0  0  0  0  0  0
   -0.5273   -2.3101   -2.8856 C   0  0  1  0  0  0  0  0  0  0  0  0
    0.7365   -2.3870   -2.0081 C   0  0  1  0  0  0  0  0  0  0  0  0
    1.9904   -1.8146   -2.5845 C   0  0  0  0  0  0  0  0  0  0  0  0
    2.0347   -1.3493   -3.8396 C   0  0  0  0  0  0  0  0  0  0  0  0
    0.8631   -1.3786   -4.7154 C   0  0  0  0  0  0  0  0  0  0  0  0
   -1.1903   -1.8415   -4.9426 H   0  0  0  0  0  0  0  0  0  0  0  0
   -1.0735   -3.2582   -2.8857 H   0  0  0  0  0  0  0  0  0  0  0  0
    0.9149   -3.3870   -1.6159 H   0  0  0  0  0  0  0  0  0  0  0  0
    2.8682   -1.8319   -1.9478 H   0  0  0  0  0  0  0  0  0  0  0  0
    2.9637   -0.9570   -4.2390 H   0  0  0  0  0  0  0  0  0  0  0  0
    0.9761   -1.0261   -5.7348 H   0  0  0  0  0  0  0  0  0  0  0  0
    1.7173   -3.3700    1.7797 S   0  0  0  0  0  0  0  0  0  0  0  0
    1.8525   -4.6312    2.4662 O   0  0  0  0  0  0  0  0  0  0  0  0
    2.5977   -2.9786    0.6874 O   0  0  0  0  0  0  0  0  0  0  0  0
    0.2069   -3.1698    1.3504 O   0  0  0  0  0  0  0  0  0  0  0  0
    1.8730   -2.0108    3.0670 C   0  0  0  0  0  0  0  0  0  0  0  0
    1.5675   -0.8358    2.4991 F   0  0  0  0  0  0  0  0  0  0  0  0
    1.0491   -2.2327    4.0831 F   0  0  0  0  0  0  0  0  0  0  0  0
    3.1266   -1.9678    3.5087 F   0  0  0  0  0  0  0  0  0  0  0  0
  1  3  1  0  0  0  0
  2  1  2  0  0  0  0
  3  4  1  0  0  0  0
  5 21  1  0  0  0  0
  6  7  1  0  0  0  0
  7 13  1  6  0  0  0
  7  2  1  0  0  0  0
  7  8  1  0  0  0  0
  8 14  1  1  0  0  0
  8  3  1  0  0  0  0
  9  8  1  0  0  0  0
  9 15  1  0  0  0  0
 10  9  2  0  0  0  0
 11  6  2  0  0  0  0
 11 10  1  0  0  0  0
 12  6  1  0  0  0  0
 16 10  1  0  0  0  0
 17 11  1  0  0  0  0
 18 19  2  0  0  0  0
 18 22  1  0  0  0  0
 20 18  2  0  0  0  0
 21 18  1  0  0  0  0
 22 25  1  0  0  0  0
 22 24  1  0  0  0  0
 23 22  1  0  0  0  0
M  END
