Coordinates from ORCA-job C6H6+TfO-+NH2N2+-scan
 OpenBabel10121810013D

 25 23  0  0  0  0  0  0  0  0999 V2000
   -1.6397   -3.0070   -0.8279 N   0  0  0  0  0  0  0  0  0  0  0  0
   -2.7324   -3.0561   -1.0987 N   0  0  0  0  0  0  0  0  0  0  0  0
   -0.4770   -2.9627   -0.3998 N   0  0  0  0  0  0  0  0  0  0  0  0
    0.2087   -2.9346   -1.1613 H   0  0  0  0  0  0  0  0  0  0  0  0
    0.0495   -2.7465    1.2070 H   0  0  0  0  0  0  0  0  0  0  0  0
    0.6530   -0.8801   -3.4101 C   0  0  0  0  0  0  0  0  0  0  0  0
   -0.1010   -1.8812   -4.0239 C   0  0  0  0  0  0  0  0  0  0  0  0
    0.2846   -3.2167   -3.9033 C   0  0  0  0  0  0  0  0  0  0  0  0
    1.4295   -3.5507   -3.1766 C   0  0  0  0  0  0  0  0  0  0  0  0
    2.1815   -2.5490   -2.5581 C   0  0  0  0  0  0  0  0  0  0  0  0
    1.7895   -1.2140   -2.6741 C   0  0  0  0  0  0  0  0  0  0  0  0
    0.3519    0.1577   -3.5011 H   0  0  0  0  0  0  0  0  0  0  0  0
   -0.9857   -1.6216   -4.5949 H   0  0  0  0  0  0  0  0  0  0  0  0
   -0.2978   -3.9948   -4.3849 H   0  0  0  0  0  0  0  0  0  0  0  0
    1.7340   -4.5876   -3.0877 H   0  0  0  0  0  0  0  0  0  0  0  0
    3.0526   -2.8073   -1.9684 H   0  0  0  0  0  0  0  0  0  0  0  0
    2.3669   -0.4389   -2.1835 H   0  0  0  0  0  0  0  0  0  0  0  0
    1.9859   -2.2651    2.0413 S   0  0  0  0  0  0  0  0  0  0  0  0
    2.5775   -2.5377    3.3270 O   0  0  0  0  0  0  0  0  0  0  0  0
    2.5392   -2.7671    0.7957 O   0  0  0  0  0  0  0  0  0  0  0  0
    0.4310   -2.5941    2.1249 O   0  0  0  0  0  0  0  0  0  0  0  0
    1.9082   -0.3970    1.8543 C   0  0  0  0  0  0  0  0  0  0  0  0
    1.1725   -0.0892    0.7792 F   0  0  0  0  0  0  0  0  0  0  0  0
    1.3641    0.1577    2.9305 F   0  0  0  0  0  0  0  0  0  0  0  0
    3.1421    0.0733    1.6856 F   0  0  0  0  0  0  0  0  0  0  0  0
  1  3  2  0  0  0  0
  2  1  2  0  0  0  0
  4  3  1  0  0  0  0
  5 21  1  0  0  0  0
  6 11  2  0  0  0  0
  7  8  2  0  0  0  0
  7  6  1  0  0  0  0
  8  9  1  0  0  0  0
  9 15  1  0  0  0  0
  9 10  2  0  0  0  0
 10 16  1  0  0  0  0
 11 10  1  0  0  0  0
 11 17  1  0  0  0  0
 12  6  1  0  0  0  0
 13  7  1  0  0  0  0
 14  8  1  0  0  0  0
 18 21  1  0  0  0  0
 18 19  2  0  0  0  0
 20 18  2  0  0  0  0
 22 18  1  0  0  0  0
 22 24  1  0  0  0  0
 23 22  1  0  0  0  0
 25 22  1  0  0  0  0
M  RAD  1   2   2
M  END
