Coordinates from ORCA-job C6H6+TfO-+NH2N2+-scan
 OpenBabel10121810013D

 25 23  0  0  0  0  0  0  0  0999 V2000
   -1.8425   -2.6405   -0.2592 N   0  0  0  0  0  0  0  0  0  0  0  0
   -2.9498   -2.5363   -0.4369 N   0  0  0  0  0  0  0  0  0  0  0  0
   -0.6515   -2.7550    0.0721 N   0  0  0  0  0  0  0  0  0  0  0  0
   -0.0366   -2.8187   -0.7461 H   0  0  0  0  0  0  0  0  0  0  0  0
    0.0666   -2.6124    1.6201 H   0  0  0  0  0  0  0  0  0  0  0  0
    0.4002   -1.0998   -3.6500 C   0  0  0  0  0  0  0  0  0  0  0  0
    0.1968   -1.9903   -4.7031 C   0  0  0  0  0  0  0  0  0  0  0  0
    0.7912   -3.2523   -4.6753 C   0  0  0  0  0  0  0  0  0  0  0  0
    1.5866   -3.6253   -3.5929 C   0  0  0  0  0  0  0  0  0  0  0  0
    1.7946   -2.7351   -2.5369 C   0  0  0  0  0  0  0  0  0  0  0  0
    1.2003   -1.4707   -2.5676 C   0  0  0  0  0  0  0  0  0  0  0  0
   -0.0554   -0.1158   -3.6754 H   0  0  0  0  0  0  0  0  0  0  0  0
   -0.4205   -1.7007   -5.5466 H   0  0  0  0  0  0  0  0  0  0  0  0
    0.6347   -3.9427   -5.4970 H   0  0  0  0  0  0  0  0  0  0  0  0
    2.0519   -4.6047   -3.5729 H   0  0  0  0  0  0  0  0  0  0  0  0
    2.4196   -3.0146   -1.6961 H   0  0  0  0  0  0  0  0  0  0  0  0
    1.3707   -0.7745   -1.7533 H   0  0  0  0  0  0  0  0  0  0  0  0
    2.1213   -2.2214    2.1530 S   0  0  0  0  0  0  0  0  0  0  0  0
    2.9042   -2.5998    3.3018 O   0  0  0  0  0  0  0  0  0  0  0  0
    2.4370   -2.6605    0.8039 O   0  0  0  0  0  0  0  0  0  0  0  0
    0.5868   -2.5024    2.4720 O   0  0  0  0  0  0  0  0  0  0  0  0
    2.0997   -0.3435    2.0897 C   0  0  0  0  0  0  0  0  0  0  0  0
    1.2377    0.0558    1.1455 F   0  0  0  0  0  0  0  0  0  0  0  0
    1.7283    0.1578    3.2608 F   0  0  0  0  0  0  0  0  0  0  0  0
    3.3171    0.0931    1.7816 F   0  0  0  0  0  0  0  0  0  0  0  0
  1  3  2  0  0  0  0
  2  1  2  0  0  0  0
  4  3  1  0  0  0  0
  5 21  1  0  0  0  0
  6 11  2  0  0  0  0
  7  8  2  0  0  0  0
  7  6  1  0  0  0  0
  8  9  1  0  0  0  0
  9 15  1  0  0  0  0
  9 10  2  0  0  0  0
 10 16  1  0  0  0  0
 11 10  1  0  0  0  0
 11 17  1  0  0  0  0
 12  6  1  0  0  0  0
 13  7  1  0  0  0  0
 14  8  1  0  0  0  0
 18 21  1  0  0  0  0
 18 19  2  0  0  0  0
 20 18  2  0  0  0  0
 22 18  1  0  0  0  0
 22 24  1  0  0  0  0
 23 22  1  0  0  0  0
 25 22  1  0  0  0  0
M  RAD  1   2   2
M  END
