Coordinates from ORCA-job C6H6+TfO-+NH2N2+-scan
 OpenBabel10121810013D

 25 23  0  0  0  0  0  0  0  0999 V2000
   -1.0895   -1.1902   -0.6745 N   0  0  0  0  0  0  0  0  0  0  0  0
   -2.1636   -0.8415   -0.6873 N   0  0  0  0  0  0  0  0  0  0  0  0
    0.0090   -1.7802   -0.7674 N   0  0  0  0  0  0  0  0  0  0  0  0
    0.7638   -1.1165   -0.9504 H   0  0  0  0  0  0  0  0  0  0  0  0
    0.5274   -2.8813    0.4672 H   0  0  0  0  0  0  0  0  0  0  0  0
   -0.1798   -1.5891   -4.4363 C   0  0  0  0  0  0  0  0  0  0  0  0
   -0.4914   -2.5462   -3.4735 C   0  0  0  0  0  0  0  0  0  0  0  0
    0.4858   -2.9762   -2.5660 C   0  0  0  0  0  0  0  0  0  0  0  0
    1.8121   -2.5595   -2.7434 C   0  0  0  0  0  0  0  0  0  0  0  0
    2.1193   -1.6000   -3.7062 C   0  0  0  0  0  0  0  0  0  0  0  0
    1.1226   -1.1002   -4.5456 C   0  0  0  0  0  0  0  0  0  0  0  0
   -0.9487   -1.2378   -5.1163 H   0  0  0  0  0  0  0  0  0  0  0  0
   -1.5010   -2.9385   -3.4085 H   0  0  0  0  0  0  0  0  0  0  0  0
    0.2677   -3.7946   -1.8942 H   0  0  0  0  0  0  0  0  0  0  0  0
    2.5938   -2.9515   -2.1020 H   0  0  0  0  0  0  0  0  0  0  0  0
    3.1424   -1.2565   -3.8154 H   0  0  0  0  0  0  0  0  0  0  0  0
    1.3652   -0.3583   -5.2982 H   0  0  0  0  0  0  0  0  0  0  0  0
    2.2984   -2.8482    1.6951 S   0  0  0  0  0  0  0  0  0  0  0  0
    3.1299   -3.9076    2.2074 O   0  0  0  0  0  0  0  0  0  0  0  0
    2.7779   -1.8488    0.7553 O   0  0  0  0  0  0  0  0  0  0  0  0
    0.9427   -3.4919    1.1464 O   0  0  0  0  0  0  0  0  0  0  0  0
    1.6214   -1.8989    3.1701 C   0  0  0  0  0  0  0  0  0  0  0  0
    0.6751   -1.0534    2.7467 F   0  0  0  0  0  0  0  0  0  0  0  0
    1.0994   -2.7349    4.0581 F   0  0  0  0  0  0  0  0  0  0  0  0
    2.6090   -1.2083    3.7301 F   0  0  0  0  0  0  0  0  0  0  0  0
  2  1  2  0  0  0  0
  3  1  2  0  0  0  0
  4  3  1  0  0  0  0
  5 21  1  0  0  0  0
  6  7  1  0  0  0  0
  7 13  1  0  0  0  0
  7  8  2  0  0  0  0
  8 14  1  0  0  0  0
  9  8  1  0  0  0  0
  9 15  1  0  0  0  0
 10  9  2  0  0  0  0
 11  6  2  0  0  0  0
 11 10  1  0  0  0  0
 12  6  1  0  0  0  0
 16 10  1  0  0  0  0
 17 11  1  0  0  0  0
 18 19  2  0  0  0  0
 18 22  1  0  0  0  0
 20 18  2  0  0  0  0
 21 18  1  0  0  0  0
 22 25  1  0  0  0  0
 22 24  1  0  0  0  0
 23 22  1  0  0  0  0
M  RAD  1   2   2
M  END
