Coordinates from ORCA-job C6H6+TfO-+NH2N2+-scan
 OpenBabel10121810013D

 25 23  0  0  0  0  0  0  0  0999 V2000
   -1.3791   -1.4143    0.5008 N   0  0  0  0  0  0  0  0  0  0  0  0
   -2.2328   -0.9046   -0.0279 N   0  0  0  0  0  0  0  0  0  0  0  0
   -0.3822   -1.8379    1.1085 N   0  0  0  0  0  0  0  0  0  0  0  0
   -0.3176   -2.8577    1.0853 H   0  0  0  0  0  0  0  0  0  0  0  0
    0.4238   -1.3291    2.5763 H   0  0  0  0  0  0  0  0  0  0  0  0
   -0.5468   -2.7498   -5.0971 C   0  0  0  0  0  0  0  0  0  0  0  0
    0.6820   -3.3562   -4.8390 C   0  0  0  0  0  0  0  0  0  0  0  0
    1.7964   -2.5733   -4.5399 C   0  0  0  0  0  0  0  0  0  0  0  0
    1.6827   -1.1843   -4.5010 C   0  0  0  0  0  0  0  0  0  0  0  0
    0.4538   -0.5779   -4.7589 C   0  0  0  0  0  0  0  0  0  0  0  0
   -0.6611   -1.3606   -5.0565 C   0  0  0  0  0  0  0  0  0  0  0  0
   -1.4135   -3.3585   -5.3321 H   0  0  0  0  0  0  0  0  0  0  0  0
    0.7715   -4.4367   -4.8733 H   0  0  0  0  0  0  0  0  0  0  0  0
    2.7529   -3.0449   -4.3418 H   0  0  0  0  0  0  0  0  0  0  0  0
    2.5506   -0.5753   -4.2720 H   0  0  0  0  0  0  0  0  0  0  0  0
    0.3655    0.5029   -4.7301 H   0  0  0  0  0  0  0  0  0  0  0  0
   -1.6167   -0.8888   -5.2584 H   0  0  0  0  0  0  0  0  0  0  0  0
    1.6574   -2.7169    3.6626 S   0  0  0  0  0  0  0  0  0  0  0  0
    1.8373   -2.9129    5.0782 O   0  0  0  0  0  0  0  0  0  0  0  0
    1.0543   -3.7219    2.7998 O   0  0  0  0  0  0  0  0  0  0  0  0
    0.9412   -1.3081    3.4315 O   0  0  0  0  0  0  0  0  0  0  0  0
    3.3456   -2.3381    2.9280 C   0  0  0  0  0  0  0  0  0  0  0  0
    3.1967   -1.9622    1.6565 F   0  0  0  0  0  0  0  0  0  0  0  0
    3.9352   -1.3657    3.6123 F   0  0  0  0  0  0  0  0  0  0  0  0
    4.0917   -3.4376    2.9796 F   0  0  0  0  0  0  0  0  0  0  0  0
  1  3  2  0  0  0  0
  2  1  2  0  0  0  0
  4  3  1  0  0  0  0
  5 21  1  0  0  0  0
  6 11  2  0  0  0  0
  6  7  1  0  0  0  0
  7  8  2  0  0  0  0
  8  9  1  0  0  0  0
  8 14  1  0  0  0  0
  9 15  1  0  0  0  0
 10 16  1  0  0  0  0
 10  9  2  0  0  0  0
 11 10  1  0  0  0  0
 12  6  1  0  0  0  0
 13  7  1  0  0  0  0
 17 11  1  0  0  0  0
 18 19  2  0  0  0  0
 20 18  2  0  0  0  0
 21 18  1  0  0  0  0
 22 25  1  0  0  0  0
 22 24  1  0  0  0  0
 22 18  1  0  0  0  0
 23 22  1  0  0  0  0
M  RAD  1   2   2
M  END
