Coordinates from ORCA-job C6H6+TfO-+NH2N2+-scan
 OpenBabel10121810013D

 25 23  0  0  0  0  0  0  0  0999 V2000
   -1.3431   -1.4010    0.6260 N   0  0  0  0  0  0  0  0  0  0  0  0
   -2.1741   -0.8895    0.0642 N   0  0  0  0  0  0  0  0  0  0  0  0
   -0.3717   -1.8297    1.2695 N   0  0  0  0  0  0  0  0  0  0  0  0
   -0.2752   -2.8448    1.2009 H   0  0  0  0  0  0  0  0  0  0  0  0
    0.3995   -1.3547    2.7680 H   0  0  0  0  0  0  0  0  0  0  0  0
   -0.5795   -2.7411   -5.2260 C   0  0  0  0  0  0  0  0  0  0  0  0
    0.6529   -3.3639   -5.0319 C   0  0  0  0  0  0  0  0  0  0  0  0
    1.7875   -2.5970   -4.7695 C   0  0  0  0  0  0  0  0  0  0  0  0
    1.6905   -1.2076   -4.7040 C   0  0  0  0  0  0  0  0  0  0  0  0
    0.4579   -0.5850   -4.8978 C   0  0  0  0  0  0  0  0  0  0  0  0
   -0.6771   -1.3517   -5.1580 C   0  0  0  0  0  0  0  0  0  0  0  0
   -1.4622   -3.3371   -5.4318 H   0  0  0  0  0  0  0  0  0  0  0  0
    0.7291   -4.4445   -5.0866 H   0  0  0  0  0  0  0  0  0  0  0  0
    2.7465   -3.0815   -4.6198 H   0  0  0  0  0  0  0  0  0  0  0  0
    2.5738   -0.6109   -4.5029 H   0  0  0  0  0  0  0  0  0  0  0  0
    0.3821    0.4959   -4.8472 H   0  0  0  0  0  0  0  0  0  0  0  0
   -1.6357   -0.8672   -5.3092 H   0  0  0  0  0  0  0  0  0  0  0  0
    1.6655   -2.7494    3.8072 S   0  0  0  0  0  0  0  0  0  0  0  0
    1.8403   -2.9976    5.2152 O   0  0  0  0  0  0  0  0  0  0  0  0
    1.0994   -3.7357    2.8990 O   0  0  0  0  0  0  0  0  0  0  0  0
    0.9099   -1.3536    3.6274 O   0  0  0  0  0  0  0  0  0  0  0  0
    3.3474   -2.2919    3.1034 C   0  0  0  0  0  0  0  0  0  0  0  0
    3.1971   -1.8688    1.8469 F   0  0  0  0  0  0  0  0  0  0  0  0
    3.9030   -1.3316    3.8316 F   0  0  0  0  0  0  0  0  0  0  0  0
    4.1250   -3.3705    3.1167 F   0  0  0  0  0  0  0  0  0  0  0  0
  1  3  2  0  0  0  0
  2  1  2  0  0  0  0
  4  3  1  0  0  0  0
  5 21  1  0  0  0  0
  6 11  2  0  0  0  0
  6  7  1  0  0  0  0
  7  8  2  0  0  0  0
  8  9  1  0  0  0  0
  8 14  1  0  0  0  0
  9 15  1  0  0  0  0
 10 16  1  0  0  0  0
 10  9  2  0  0  0  0
 11 10  1  0  0  0  0
 12  6  1  0  0  0  0
 13  7  1  0  0  0  0
 17 11  1  0  0  0  0
 18 19  2  0  0  0  0
 20 18  2  0  0  0  0
 21 18  1  0  0  0  0
 22 25  1  0  0  0  0
 22 18  1  0  0  0  0
 22 24  1  0  0  0  0
 23 22  1  0  0  0  0
M  RAD  1   2   2
M  END
