Coordinates from ORCA-job C6H6+TfO-+NH2N2+-scan
 OpenBabel10121810013D

 25 23  0  0  0  0  0  0  0  0999 V2000
   -1.3777   -1.4135    0.5085 N   0  0  0  0  0  0  0  0  0  0  0  0
   -2.2305   -0.9038   -0.0215 N   0  0  0  0  0  0  0  0  0  0  0  0
   -0.3818   -1.8373    1.1176 N   0  0  0  0  0  0  0  0  0  0  0  0
   -0.3157   -2.8570    1.0922 H   0  0  0  0  0  0  0  0  0  0  0  0
    0.4227   -1.3303    2.5869 H   0  0  0  0  0  0  0  0  0  0  0  0
   -0.5485   -2.7494   -5.1045 C   0  0  0  0  0  0  0  0  0  0  0  0
    0.6807   -3.3566   -4.8496 C   0  0  0  0  0  0  0  0  0  0  0  0
    1.7961   -2.5743   -4.5525 C   0  0  0  0  0  0  0  0  0  0  0  0
    1.6831   -1.1853   -4.5124 C   0  0  0  0  0  0  0  0  0  0  0  0
    0.4539   -0.5782   -4.7672 C   0  0  0  0  0  0  0  0  0  0  0  0
   -0.6620   -1.3602   -5.0627 C   0  0  0  0  0  0  0  0  0  0  0  0
   -1.4159   -3.3576   -5.3378 H   0  0  0  0  0  0  0  0  0  0  0  0
    0.7696   -4.4371   -4.8847 H   0  0  0  0  0  0  0  0  0  0  0  0
    2.7528   -3.0465   -4.3569 H   0  0  0  0  0  0  0  0  0  0  0  0
    2.5518   -0.5768   -4.2850 H   0  0  0  0  0  0  0  0  0  0  0  0
    0.3661    0.5026   -4.7376 H   0  0  0  0  0  0  0  0  0  0  0  0
   -1.6178   -0.8878   -5.2622 H   0  0  0  0  0  0  0  0  0  0  0  0
    1.6579   -2.7185    3.6708 S   0  0  0  0  0  0  0  0  0  0  0  0
    1.8375   -2.9171    5.0861 O   0  0  0  0  0  0  0  0  0  0  0  0
    1.0564   -3.7227    2.8058 O   0  0  0  0  0  0  0  0  0  0  0  0
    0.9399   -1.3102    3.4423 O   0  0  0  0  0  0  0  0  0  0  0  0
    3.3458   -2.3361    2.9376 C   0  0  0  0  0  0  0  0  0  0  0  0
    3.1970   -1.9578    1.6668 F   0  0  0  0  0  0  0  0  0  0  0  0
    3.9338   -1.3642    3.6240 F   0  0  0  0  0  0  0  0  0  0  0  0
    4.0934   -3.4346    2.9874 F   0  0  0  0  0  0  0  0  0  0  0  0
  1  3  2  0  0  0  0
  2  1  2  0  0  0  0
  4  3  1  0  0  0  0
  5 21  1  0  0  0  0
  6 11  2  0  0  0  0
  6  7  1  0  0  0  0
  7  8  2  0  0  0  0
  8  9  1  0  0  0  0
  8 14  1  0  0  0  0
  9 15  1  0  0  0  0
 10 16  1  0  0  0  0
 10  9  2  0  0  0  0
 11 10  1  0  0  0  0
 12  6  1  0  0  0  0
 13  7  1  0  0  0  0
 17 11  1  0  0  0  0
 18 19  2  0  0  0  0
 20 18  2  0  0  0  0
 21 18  1  0  0  0  0
 22 25  1  0  0  0  0
 22 24  1  0  0  0  0
 22 18  1  0  0  0  0
 23 22  1  0  0  0  0
M  RAD  1   2   2
M  END
