Coordinates from ORCA-job C6H6+TfO-+NH2N2+-scan
 OpenBabel10121810013D

 25 25  0  0  1  0  0  0  0  0999 V2000
   -0.7658   -0.7312   -1.1052 N   0  0  0  0  0  0  0  0  0  0  0  0
   -1.2986   -1.1218   -2.1353 N   0  0  0  0  0  0  0  0  0  0  0  0
    0.4330   -1.4891   -0.7984 N   0  0  0  0  0  0  0  0  0  0  0  0
    1.1283   -0.8335   -0.4476 H   0  0  0  0  0  0  0  0  0  0  0  0
    0.2282   -2.4993    0.4822 H   0  0  0  0  0  0  0  0  0  0  0  0
   -0.3841   -1.9837   -4.2623 C   0  0  0  0  0  0  0  0  0  0  0  0
   -0.4985   -2.2274   -2.7867 C   0  0  1  0  0  0  0  0  0  0  0  0
    0.8305   -2.2300   -1.9807 C   0  0  1  0  0  0  0  0  0  0  0  0
    2.0080   -1.6280   -2.7067 C   0  0  0  0  0  0  0  0  0  0  0  0
    1.9636   -1.3349   -4.0106 C   0  0  0  0  0  0  0  0  0  0  0  0
    0.7588   -1.5590   -4.8119 C   0  0  0  0  0  0  0  0  0  0  0  0
   -1.2800   -2.1242   -4.8554 H   0  0  0  0  0  0  0  0  0  0  0  0
   -1.0772   -3.1371   -2.5955 H   0  0  0  0  0  0  0  0  0  0  0  0
    1.0930   -3.2470   -1.6759 H   0  0  0  0  0  0  0  0  0  0  0  0
    2.9149   -1.4919   -2.1255 H   0  0  0  0  0  0  0  0  0  0  0  0
    2.8408   -0.9331   -4.5062 H   0  0  0  0  0  0  0  0  0  0  0  0
    0.8101   -1.3689   -5.8784 H   0  0  0  0  0  0  0  0  0  0  0  0
    1.7084   -3.3865    1.7938 S   0  0  0  0  0  0  0  0  0  0  0  0
    1.8189   -4.6959    2.3881 O   0  0  0  0  0  0  0  0  0  0  0  0
    2.6643   -2.8891    0.8143 O   0  0  0  0  0  0  0  0  0  0  0  0
    0.2328   -3.1840    1.2492 O   0  0  0  0  0  0  0  0  0  0  0  0
    1.7104   -2.1330    3.1932 C   0  0  0  0  0  0  0  0  0  0  0  0
    1.4280   -0.9230    2.6946 F   0  0  0  0  0  0  0  0  0  0  0  0
    0.8037   -2.4538    4.1073 F   0  0  0  0  0  0  0  0  0  0  0  0
    2.9174   -2.1048    3.7508 F   0  0  0  0  0  0  0  0  0  0  0  0
  1  3  1  0  0  0  0
  2  1  1  0  0  0  0
  3  4  1  0  0  0  0
  5 21  1  0  0  0  0
  6  7  1  0  0  0  0
  7 13  1  1  0  0  0
  7  2  1  0  0  0  0
  7  8  1  0  0  0  0
  8 14  1  1  0  0  0
  8  3  1  0  0  0  0
  9 15  1  0  0  0  0
  9  8  1  0  0  0  0
 10  9  2  0  0  0  0
 11  6  2  0  0  0  0
 11 10  1  0  0  0  0
 12  6  1  0  0  0  0
 16 10  1  0  0  0  0
 17 11  1  0  0  0  0
 18 19  2  0  0  0  0
 18 22  1  0  0  0  0
 20 18  2  0  0  0  0
 21 18  1  0  0  0  0
 22 25  1  0  0  0  0
 22 24  1  0  0  0  0
 23 22  1  0  0  0  0
M  RAD  2   1   2   2   2
M  END
