Coordinates from ORCA-job C6H6+TfO-+NH2N2+-scan
 OpenBabel10121810013D

 25 23  0  0  0  0  0  0  0  0999 V2000
   -1.1713   -1.1424   -0.7028 N   0  0  0  0  0  0  0  0  0  0  0  0
   -2.2502   -0.8114   -0.7268 N   0  0  0  0  0  0  0  0  0  0  0  0
   -0.0568   -1.7035   -0.7374 N   0  0  0  0  0  0  0  0  0  0  0  0
    0.6777   -1.0442   -0.9969 H   0  0  0  0  0  0  0  0  0  0  0  0
    0.4145   -2.8052    0.5052 H   0  0  0  0  0  0  0  0  0  0  0  0
   -0.1681   -1.6926   -4.4568 C   0  0  0  0  0  0  0  0  0  0  0  0
   -0.4103   -2.6386   -3.4631 C   0  0  0  0  0  0  0  0  0  0  0  0
    0.5874   -2.9544   -2.5342 C   0  0  0  0  0  0  0  0  0  0  0  0
    1.8706   -2.4177   -2.6961 C   0  0  0  0  0  0  0  0  0  0  0  0
    2.1086   -1.4685   -3.6896 C   0  0  0  0  0  0  0  0  0  0  0  0
    1.0878   -1.0940   -4.5644 C   0  0  0  0  0  0  0  0  0  0  0  0
   -0.9536   -1.4330   -5.1586 H   0  0  0  0  0  0  0  0  0  0  0  0
   -1.3840   -3.1127   -3.3942 H   0  0  0  0  0  0  0  0  0  0  0  0
    0.4232   -3.7479   -1.8187 H   0  0  0  0  0  0  0  0  0  0  0  0
    2.6682   -2.7088   -2.0216 H   0  0  0  0  0  0  0  0  0  0  0  0
    3.0974   -1.0347   -3.7931 H   0  0  0  0  0  0  0  0  0  0  0  0
    1.2767   -0.3601   -5.3400 H   0  0  0  0  0  0  0  0  0  0  0  0
    2.2038   -3.0095    1.6976 S   0  0  0  0  0  0  0  0  0  0  0  0
    2.8618   -4.1659    2.2510 O   0  0  0  0  0  0  0  0  0  0  0  0
    2.8214   -2.1452    0.7064 O   0  0  0  0  0  0  0  0  0  0  0  0
    0.7526   -3.4498    1.1965 O   0  0  0  0  0  0  0  0  0  0  0  0
    1.7182   -1.8964    3.1330 C   0  0  0  0  0  0  0  0  0  0  0  0
    0.9114   -0.9293    2.6817 F   0  0  0  0  0  0  0  0  0  0  0  0
    1.0868   -2.5954    4.0675 F   0  0  0  0  0  0  0  0  0  0  0  0
    2.8150   -1.3491    3.6465 F   0  0  0  0  0  0  0  0  0  0  0  0
  2  1  2  0  0  0  0
  3  1  2  0  0  0  0
  4  3  1  0  0  0  0
  5 21  1  0  0  0  0
  6  7  1  0  0  0  0
  7 13  1  0  0  0  0
  7  8  2  0  0  0  0
  8 14  1  0  0  0  0
  9  8  1  0  0  0  0
  9 15  1  0  0  0  0
 10  9  2  0  0  0  0
 11  6  2  0  0  0  0
 11 10  1  0  0  0  0
 12  6  1  0  0  0  0
 16 10  1  0  0  0  0
 17 11  1  0  0  0  0
 18 19  2  0  0  0  0
 18 22  1  0  0  0  0
 20 18  2  0  0  0  0
 21 18  1  0  0  0  0
 22 25  1  0  0  0  0
 22 24  1  0  0  0  0
 23 22  1  0  0  0  0
M  RAD  1   2   2
M  END
