Coordinates from ORCA-job C6H6+TfO-+NH2N2+-scan
 OpenBabel10121810013D

 25 23  0  0  0  0  0  0  0  0999 V2000
   -1.2090   -1.4153    0.7334 N   0  0  0  0  0  0  0  0  0  0  0  0
   -1.9993   -0.9074    0.1123 N   0  0  0  0  0  0  0  0  0  0  0  0
   -0.2826   -1.8447    1.4398 N   0  0  0  0  0  0  0  0  0  0  0  0
   -0.1568   -2.8546    1.3472 H   0  0  0  0  0  0  0  0  0  0  0  0
    0.4030   -1.3838    2.9836 H   0  0  0  0  0  0  0  0  0  0  0  0
   -0.6447   -2.7270   -5.4089 C   0  0  0  0  0  0  0  0  0  0  0  0
    0.5939   -3.3617   -5.3235 C   0  0  0  0  0  0  0  0  0  0  0  0
    1.7514   -2.6086   -5.1301 C   0  0  0  0  0  0  0  0  0  0  0  0
    1.6699   -1.2207   -5.0218 C   0  0  0  0  0  0  0  0  0  0  0  0
    0.4313   -0.5862   -5.1072 C   0  0  0  0  0  0  0  0  0  0  0  0
   -0.7260   -1.3393   -5.3007 C   0  0  0  0  0  0  0  0  0  0  0  0
   -1.5449   -3.3127   -5.5620 H   0  0  0  0  0  0  0  0  0  0  0  0
    0.6574   -4.4412   -5.4097 H   0  0  0  0  0  0  0  0  0  0  0  0
    2.7151   -3.1021   -5.0653 H   0  0  0  0  0  0  0  0  0  0  0  0
    2.5704   -0.6346   -4.8730 H   0  0  0  0  0  0  0  0  0  0  0  0
    0.3681    0.4936   -5.0250 H   0  0  0  0  0  0  0  0  0  0  0  0
   -1.6894   -0.8454   -5.3687 H   0  0  0  0  0  0  0  0  0  0  0  0
    1.6558   -2.7696    4.0504 S   0  0  0  0  0  0  0  0  0  0  0  0
    1.7706   -3.0460    5.4593 O   0  0  0  0  0  0  0  0  0  0  0  0
    1.1597   -3.7487    3.0946 O   0  0  0  0  0  0  0  0  0  0  0  0
    0.8728   -1.3897    3.8657 O   0  0  0  0  0  0  0  0  0  0  0  0
    3.3561   -2.2529    3.4380 C   0  0  0  0  0  0  0  0  0  0  0  0
    3.2540   -1.8043    2.1854 F   0  0  0  0  0  0  0  0  0  0  0  0
    3.8511   -1.2960    4.2130 F   0  0  0  0  0  0  0  0  0  0  0  0
    4.1607   -3.3112    3.4643 F   0  0  0  0  0  0  0  0  0  0  0  0
  1  3  2  0  0  0  0
  2  1  2  0  0  0  0
  4  3  1  0  0  0  0
  5 21  1  0  0  0  0
  6  7  2  0  0  0  0
  6 11  1  0  0  0  0
  7  8  1  0  0  0  0
  8 14  1  0  0  0  0
  8  9  2  0  0  0  0
  9 15  1  0  0  0  0
 10 16  1  0  0  0  0
 10  9  1  0  0  0  0
 11 10  2  0  0  0  0
 12  6  1  0  0  0  0
 13  7  1  0  0  0  0
 17 11  1  0  0  0  0
 18 19  2  0  0  0  0
 20 18  2  0  0  0  0
 21 18  1  0  0  0  0
 22 25  1  0  0  0  0
 22 18  1  0  0  0  0
 22 24  1  0  0  0  0
 23 22  1  0  0  0  0
M  RAD  1   2   2
M  END
