Coordinates from ORCA-job C6H6+TfO-+NH2N2+-scan
 OpenBabel10121810013D

 25 23  0  0  0  0  0  0  0  0999 V2000
   -1.7055   -2.7213   -0.5203 N   0  0  0  0  0  0  0  0  0  0  0  0
   -2.8072   -2.6423   -0.7423 N   0  0  0  0  0  0  0  0  0  0  0  0
   -0.5271   -2.8147   -0.1432 N   0  0  0  0  0  0  0  0  0  0  0  0
    0.1262   -2.8204   -0.9347 H   0  0  0  0  0  0  0  0  0  0  0  0
    0.1079   -2.6766    1.4334 H   0  0  0  0  0  0  0  0  0  0  0  0
    0.4697   -1.0265   -3.6117 C   0  0  0  0  0  0  0  0  0  0  0  0
    0.0515   -2.0019   -4.5164 C   0  0  0  0  0  0  0  0  0  0  0  0
    0.5563   -3.2994   -4.4275 C   0  0  0  0  0  0  0  0  0  0  0  0
    1.4816   -3.6220   -3.4355 C   0  0  0  0  0  0  0  0  0  0  0  0
    1.9029   -2.6472   -2.5277 C   0  0  0  0  0  0  0  0  0  0  0  0
    1.3936   -1.3487   -2.6165 C   0  0  0  0  0  0  0  0  0  0  0  0
    0.0797   -0.0170   -3.6831 H   0  0  0  0  0  0  0  0  0  0  0  0
   -0.6654   -1.7514   -5.2907 H   0  0  0  0  0  0  0  0  0  0  0  0
    0.2316   -4.0563   -5.1332 H   0  0  0  0  0  0  0  0  0  0  0  0
    1.8788   -4.6290   -3.3691 H   0  0  0  0  0  0  0  0  0  0  0  0
    2.6175   -2.8931   -1.7505 H   0  0  0  0  0  0  0  0  0  0  0  0
    1.7168   -0.5934   -1.9087 H   0  0  0  0  0  0  0  0  0  0  0  0
    2.1064   -2.2355    2.1333 S   0  0  0  0  0  0  0  0  0  0  0  0
    2.8076   -2.6143    3.3338 O   0  0  0  0  0  0  0  0  0  0  0  0
    2.5448   -2.6326    0.8058 O   0  0  0  0  0  0  0  0  0  0  0  0
    0.5627   -2.5718    2.3239 O   0  0  0  0  0  0  0  0  0  0  0  0
    2.0275   -0.3585    2.1068 C   0  0  0  0  0  0  0  0  0  0  0  0
    1.2387    0.0358    1.0991 F   0  0  0  0  0  0  0  0  0  0  0  0
    1.5398    0.1042    3.2511 F   0  0  0  0  0  0  0  0  0  0  0  0
    3.2523    0.1236    1.9154 F   0  0  0  0  0  0  0  0  0  0  0  0
  1  3  2  0  0  0  0
  2  1  2  0  0  0  0
  4  3  1  0  0  0  0
  5 21  1  0  0  0  0
  6 11  2  0  0  0  0
  7  8  2  0  0  0  0
  7  6  1  0  0  0  0
  8  9  1  0  0  0  0
  9 15  1  0  0  0  0
  9 10  2  0  0  0  0
 10 16  1  0  0  0  0
 11 10  1  0  0  0  0
 11 17  1  0  0  0  0
 12  6  1  0  0  0  0
 13  7  1  0  0  0  0
 14  8  1  0  0  0  0
 18 21  1  0  0  0  0
 18 19  2  0  0  0  0
 20 18  2  0  0  0  0
 22 18  1  0  0  0  0
 22 24  1  0  0  0  0
 23 22  1  0  0  0  0
 25 22  1  0  0  0  0
M  RAD  1   2   2
M  END
