Coordinates from ORCA-job C6H6+TfO-+NH2N2+-scan
 OpenBabel10121810013D

 25 23  0  0  0  0  0  0  0  0999 V2000
   -1.3642   -1.4078    0.5698 N   0  0  0  0  0  0  0  0  0  0  0  0
   -2.2074   -0.8973    0.0252 N   0  0  0  0  0  0  0  0  0  0  0  0
   -0.3792   -1.8339    1.1951 N   0  0  0  0  0  0  0  0  0  0  0  0
   -0.2980   -2.8515    1.1443 H   0  0  0  0  0  0  0  0  0  0  0  0
    0.4103   -1.3417    2.6777 H   0  0  0  0  0  0  0  0  0  0  0  0
   -0.5623   -2.7452   -5.1626 C   0  0  0  0  0  0  0  0  0  0  0  0
    0.6688   -3.3595   -4.9359 C   0  0  0  0  0  0  0  0  0  0  0  0
    1.7944   -2.5847   -4.6582 C   0  0  0  0  0  0  0  0  0  0  0  0
    1.6875   -1.1951   -4.6052 C   0  0  0  0  0  0  0  0  0  0  0  0
    0.4566   -0.5811   -4.8321 C   0  0  0  0  0  0  0  0  0  0  0  0
   -0.6685   -1.3560   -5.1110 C   0  0  0  0  0  0  0  0  0  0  0  0
   -1.4369   -3.3482   -5.3823 H   0  0  0  0  0  0  0  0  0  0  0  0
    0.7519   -4.4402   -4.9781 H   0  0  0  0  0  0  0  0  0  0  0  0
    2.7523   -3.0623   -4.4830 H   0  0  0  0  0  0  0  0  0  0  0  0
    2.5630   -0.5920   -4.3898 H   0  0  0  0  0  0  0  0  0  0  0  0
    0.3747    0.4999   -4.7943 H   0  0  0  0  0  0  0  0  0  0  0  0
   -1.6257   -0.8781   -5.2900 H   0  0  0  0  0  0  0  0  0  0  0  0
    1.6620   -2.7327    3.7385 S   0  0  0  0  0  0  0  0  0  0  0  0
    1.8430   -2.9534    5.1503 O   0  0  0  0  0  0  0  0  0  0  0  0
    1.0753   -3.7297    2.8554 O   0  0  0  0  0  0  0  0  0  0  0  0
    0.9259   -1.3299    3.5341 O   0  0  0  0  0  0  0  0  0  0  0  0
    3.3454   -2.3163    3.0134 C   0  0  0  0  0  0  0  0  0  0  0  0
    3.1924   -1.9183    1.7489 F   0  0  0  0  0  0  0  0  0  0  0  0
    3.9210   -1.3491    3.7165 F   0  0  0  0  0  0  0  0  0  0  0  0
    4.1066   -3.4061    3.0446 F   0  0  0  0  0  0  0  0  0  0  0  0
  1  3  2  0  0  0  0
  2  1  2  0  0  0  0
  4  3  1  0  0  0  0
  5 21  1  0  0  0  0
  6 11  2  0  0  0  0
  6  7  1  0  0  0  0
  7  8  2  0  0  0  0
  8  9  1  0  0  0  0
  8 14  1  0  0  0  0
  9 15  1  0  0  0  0
 10 16  1  0  0  0  0
 10  9  2  0  0  0  0
 11 10  1  0  0  0  0
 12  6  1  0  0  0  0
 13  7  1  0  0  0  0
 17 11  1  0  0  0  0
 18 19  2  0  0  0  0
 20 18  2  0  0  0  0
 21 18  1  0  0  0  0
 22 25  1  0  0  0  0
 22 24  1  0  0  0  0
 22 18  1  0  0  0  0
 23 22  1  0  0  0  0
M  RAD  1   2   2
M  END
