Coordinates from ORCA-job C6H6+TfO-+NH2N2+-scan
 OpenBabel10121810013D

 25 23  0  0  0  0  0  0  0  0999 V2000
   -2.0130   -2.6245   -0.0329 N   0  0  0  0  0  0  0  0  0  0  0  0
   -3.1279   -2.5427   -0.1690 N   0  0  0  0  0  0  0  0  0  0  0  0
   -0.8074   -2.6989    0.2561 N   0  0  0  0  0  0  0  0  0  0  0  0
   -0.2274   -2.8359   -0.5768 H   0  0  0  0  0  0  0  0  0  0  0  0
   -0.0167   -2.4961    1.7715 H   0  0  0  0  0  0  0  0  0  0  0  0
    0.3265   -1.1606   -3.6845 C   0  0  0  0  0  0  0  0  0  0  0  0
    0.3148   -1.9782   -4.8134 C   0  0  0  0  0  0  0  0  0  0  0  0
    1.0197   -3.1825   -4.8102 C   0  0  0  0  0  0  0  0  0  0  0  0
    1.7324   -3.5708   -3.6767 C   0  0  0  0  0  0  0  0  0  0  0  0
    1.7485   -2.7532   -2.5448 C   0  0  0  0  0  0  0  0  0  0  0  0
    1.0452   -1.5463   -2.5512 C   0  0  0  0  0  0  0  0  0  0  0  0
   -0.2139   -0.2200   -3.6900 H   0  0  0  0  0  0  0  0  0  0  0  0
   -0.2383   -1.6764   -5.6962 H   0  0  0  0  0  0  0  0  0  0  0  0
    1.0130   -3.8161   -5.6905 H   0  0  0  0  0  0  0  0  0  0  0  0
    2.2824   -4.5055   -3.6753 H   0  0  0  0  0  0  0  0  0  0  0  0
    2.3107   -3.0430   -1.6642 H   0  0  0  0  0  0  0  0  0  0  0  0
    1.0706   -0.9011   -1.6792 H   0  0  0  0  0  0  0  0  0  0  0  0
    2.0873   -2.2385    2.1580 S   0  0  0  0  0  0  0  0  0  0  0  0
    2.9124   -2.6330    3.2711 O   0  0  0  0  0  0  0  0  0  0  0  0
    2.2730   -2.7597    0.8137 O   0  0  0  0  0  0  0  0  0  0  0  0
    0.5586   -2.3773    2.5846 O   0  0  0  0  0  0  0  0  0  0  0  0
    2.2130   -0.3694    2.0081 C   0  0  0  0  0  0  0  0  0  0  0  0
    1.3229    0.0613    1.1050 F   0  0  0  0  0  0  0  0  0  0  0  0
    1.9650    0.2083    3.1766 F   0  0  0  0  0  0  0  0  0  0  0  0
    3.4375   -0.0503    1.6013 F   0  0  0  0  0  0  0  0  0  0  0  0
  1  3  2  0  0  0  0
  2  1  2  0  0  0  0
  4  3  1  0  0  0  0
  5 21  1  0  0  0  0
  6 11  2  0  0  0  0
  7  8  2  0  0  0  0
  7  6  1  0  0  0  0
  8  9  1  0  0  0  0
  9 15  1  0  0  0  0
  9 10  2  0  0  0  0
 10 16  1  0  0  0  0
 11 10  1  0  0  0  0
 11 17  1  0  0  0  0
 12  6  1  0  0  0  0
 13  7  1  0  0  0  0
 14  8  1  0  0  0  0
 18 21  1  0  0  0  0
 18 19  2  0  0  0  0
 20 18  2  0  0  0  0
 22 18  1  0  0  0  0
 22 24  1  0  0  0  0
 23 22  1  0  0  0  0
 25 22  1  0  0  0  0
M  RAD  1   2   2
M  END
