Coordinates from ORCA-job C6H6+TfO-+NH2N2+-scan
 OpenBabel10121810013D

 25 23  0  0  0  0  0  0  0  0999 V2000
   -1.7859   -2.6852   -0.3577 N   0  0  0  0  0  0  0  0  0  0  0  0
   -2.8920   -2.5949   -0.5505 N   0  0  0  0  0  0  0  0  0  0  0  0
   -0.5984   -2.7867   -0.0111 N   0  0  0  0  0  0  0  0  0  0  0  0
    0.0301   -2.8230   -0.8213 H   0  0  0  0  0  0  0  0  0  0  0  0
    0.0865   -2.6415    1.5478 H   0  0  0  0  0  0  0  0  0  0  0  0
    0.4315   -1.0617   -3.6461 C   0  0  0  0  0  0  0  0  0  0  0  0
    0.1447   -1.9930   -4.6433 C   0  0  0  0  0  0  0  0  0  0  0  0
    0.6955   -3.2736   -4.5830 C   0  0  0  0  0  0  0  0  0  0  0  0
    1.5326   -3.6234   -3.5242 C   0  0  0  0  0  0  0  0  0  0  0  0
    1.8243   -2.6921   -2.5245 C   0  0  0  0  0  0  0  0  0  0  0  0
    1.2717   -1.4099   -2.5872 C   0  0  0  0  0  0  0  0  0  0  0  0
    0.0082   -0.0644   -3.6970 H   0  0  0  0  0  0  0  0  0  0  0  0
   -0.5046   -1.7211   -5.4684 H   0  0  0  0  0  0  0  0  0  0  0  0
    0.4736   -3.9960   -5.3609 H   0  0  0  0  0  0  0  0  0  0  0  0
    1.9652   -4.6168   -3.4789 H   0  0  0  0  0  0  0  0  0  0  0  0
    2.4801   -2.9553   -1.7021 H   0  0  0  0  0  0  0  0  0  0  0  0
    1.5023   -0.6850   -1.8139 H   0  0  0  0  0  0  0  0  0  0  0  0
    2.1194   -2.2290    2.1509 S   0  0  0  0  0  0  0  0  0  0  0  0
    2.8677   -2.6033    3.3240 O   0  0  0  0  0  0  0  0  0  0  0  0
    2.4877   -2.6557    0.8112 O   0  0  0  0  0  0  0  0  0  0  0  0
    0.5794   -2.5319    2.4164 O   0  0  0  0  0  0  0  0  0  0  0  0
    2.0749   -0.3513    2.0965 C   0  0  0  0  0  0  0  0  0  0  0  0
    1.2433    0.0420    1.1229 F   0  0  0  0  0  0  0  0  0  0  0  0
    1.6539    0.1388    3.2556 F   0  0  0  0  0  0  0  0  0  0  0  0
    3.2970    0.1034    1.8359 F   0  0  0  0  0  0  0  0  0  0  0  0
  1  3  2  0  0  0  0
  2  1  2  0  0  0  0
  4  3  1  0  0  0  0
  5 21  1  0  0  0  0
  6 11  2  0  0  0  0
  7  8  2  0  0  0  0
  7  6  1  0  0  0  0
  8  9  1  0  0  0  0
  9 15  1  0  0  0  0
  9 10  2  0  0  0  0
 10 16  1  0  0  0  0
 11 10  1  0  0  0  0
 11 17  1  0  0  0  0
 12  6  1  0  0  0  0
 13  7  1  0  0  0  0
 14  8  1  0  0  0  0
 18 21  1  0  0  0  0
 18 19  2  0  0  0  0
 20 18  2  0  0  0  0
 22 18  1  0  0  0  0
 22 24  1  0  0  0  0
 23 22  1  0  0  0  0
 25 22  1  0  0  0  0
M  RAD  1   2   2
M  END
