Coordinates from ORCA-job C6H6+TfO-+NH2N2+-scan
 OpenBabel10121810013D

 25 23  0  0  0  0  0  0  0  0999 V2000
   -1.5947   -2.8349   -0.7664 N   0  0  0  0  0  0  0  0  0  0  0  0
   -2.6877   -2.7837   -1.0349 N   0  0  0  0  0  0  0  0  0  0  0  0
   -0.4330   -2.9042   -0.3381 N   0  0  0  0  0  0  0  0  0  0  0  0
    0.2582   -2.8730   -1.0954 H   0  0  0  0  0  0  0  0  0  0  0  0
    0.1227   -2.7666    1.2659 H   0  0  0  0  0  0  0  0  0  0  0  0
    0.6119   -0.9488   -3.4784 C   0  0  0  0  0  0  0  0  0  0  0  0
   -0.0800   -1.9361   -4.1810 C   0  0  0  0  0  0  0  0  0  0  0  0
    0.3153   -3.2703   -4.0813 C   0  0  0  0  0  0  0  0  0  0  0  0
    1.4072   -3.6177   -3.2842 C   0  0  0  0  0  0  0  0  0  0  0  0
    2.0981   -2.6308   -2.5769 C   0  0  0  0  0  0  0  0  0  0  0  0
    1.6965   -1.2962   -2.6731 C   0  0  0  0  0  0  0  0  0  0  0  0
    0.3040    0.0882   -3.5551 H   0  0  0  0  0  0  0  0  0  0  0  0
   -0.9250   -1.6666   -4.8050 H   0  0  0  0  0  0  0  0  0  0  0  0
   -0.2207   -4.0368   -4.6303 H   0  0  0  0  0  0  0  0  0  0  0  0
    1.7183   -4.6539   -3.2097 H   0  0  0  0  0  0  0  0  0  0  0  0
    2.9292   -2.8985   -1.9354 H   0  0  0  0  0  0  0  0  0  0  0  0
    2.2267   -0.5339   -2.1138 H   0  0  0  0  0  0  0  0  0  0  0  0
    2.0595   -2.2275    2.0653 S   0  0  0  0  0  0  0  0  0  0  0  0
    2.7142   -2.5510    3.3079 O   0  0  0  0  0  0  0  0  0  0  0  0
    2.5944   -2.6097    0.7696 O   0  0  0  0  0  0  0  0  0  0  0  0
    0.5309   -2.6554    2.1783 O   0  0  0  0  0  0  0  0  0  0  0  0
    1.8679   -0.3593    2.0094 C   0  0  0  0  0  0  0  0  0  0  0  0
    1.0944   -0.0253    0.9693 F   0  0  0  0  0  0  0  0  0  0  0  0
    1.3126    0.0868    3.1295 F   0  0  0  0  0  0  0  0  0  0  0  0
    3.0680    0.1948    1.8549 F   0  0  0  0  0  0  0  0  0  0  0  0
  1  3  2  0  0  0  0
  2  1  2  0  0  0  0
  4  3  1  0  0  0  0
  5 21  1  0  0  0  0
  6 11  2  0  0  0  0
  7  8  2  0  0  0  0
  7  6  1  0  0  0  0
  8  9  1  0  0  0  0
  9 15  1  0  0  0  0
  9 10  2  0  0  0  0
 10 16  1  0  0  0  0
 11 10  1  0  0  0  0
 11 17  1  0  0  0  0
 12  6  1  0  0  0  0
 13  7  1  0  0  0  0
 14  8  1  0  0  0  0
 18 21  1  0  0  0  0
 18 19  2  0  0  0  0
 20 18  2  0  0  0  0
 22 18  1  0  0  0  0
 22 24  1  0  0  0  0
 23 22  1  0  0  0  0
 25 22  1  0  0  0  0
M  RAD  1   2   2
M  END
