Coordinates from ORCA-job C6H6+TfO-+NH2N2+-scan
 OpenBabel10121810013D

 25 23  0  0  0  0  0  0  0  0999 V2000
   -1.2626   -1.6174   -0.4991 N   0  0  0  0  0  0  0  0  0  0  0  0
   -2.3861   -1.5448   -0.3666 N   0  0  0  0  0  0  0  0  0  0  0  0
   -0.1190   -2.0029   -0.8851 N   0  0  0  0  0  0  0  0  0  0  0  0
    0.4986   -1.1969   -1.0139 H   0  0  0  0  0  0  0  0  0  0  0  0
    0.8412   -2.9463    0.2796 H   0  0  0  0  0  0  0  0  0  0  0  0
    0.0731   -1.2500   -4.3123 C   0  0  0  0  0  0  0  0  0  0  0  0
   -0.6102   -2.1708   -3.5268 C   0  0  0  0  0  0  0  0  0  0  0  0
    0.0908   -2.9662   -2.5924 C   0  0  0  0  0  0  0  0  0  0  0  0
    1.5000   -3.0060   -2.6814 C   0  0  0  0  0  0  0  0  0  0  0  0
    2.1753   -2.0823   -3.4709 C   0  0  0  0  0  0  0  0  0  0  0  0
    1.4680   -1.1810   -4.2703 C   0  0  0  0  0  0  0  0  0  0  0  0
   -0.4792   -0.6040   -4.9868 H   0  0  0  0  0  0  0  0  0  0  0  0
   -1.6906   -2.2457   -3.5929 H   0  0  0  0  0  0  0  0  0  0  0  0
   -0.4240   -3.8045   -2.1378 H   0  0  0  0  0  0  0  0  0  0  0  0
    2.0558   -3.7201   -2.0837 H   0  0  0  0  0  0  0  0  0  0  0  0
    3.2599   -2.0813   -3.4850 H   0  0  0  0  0  0  0  0  0  0  0  0
    1.9989   -0.4661   -4.8882 H   0  0  0  0  0  0  0  0  0  0  0  0
    2.4984   -2.2629    1.4716 S   0  0  0  0  0  0  0  0  0  0  0  0
    3.7502   -2.8962    1.7986 O   0  0  0  0  0  0  0  0  0  0  0  0
    2.4054   -1.0600    0.6614 O   0  0  0  0  0  0  0  0  0  0  0  0
    1.5054   -3.3766    0.8904 O   0  0  0  0  0  0  0  0  0  0  0  0
    1.6185   -1.8809    3.0889 C   0  0  0  0  0  0  0  0  0  0  0  0
    0.3669   -1.4946    2.8219 F   0  0  0  0  0  0  0  0  0  0  0  0
    1.5928   -2.9566    3.8647 F   0  0  0  0  0  0  0  0  0  0  0  0
    2.2612   -0.8961    3.7072 F   0  0  0  0  0  0  0  0  0  0  0  0
  1  2  2  0  0  0  0
  3  1  2  0  0  0  0
  4  3  1  0  0  0  0
  5 21  1  0  0  0  0
  6 11  2  0  0  0  0
  6  7  1  0  0  0  0
  7  8  2  0  0  0  0
  8 14  1  0  0  0  0
  9  8  1  0  0  0  0
  9 15  1  0  0  0  0
 10  9  2  0  0  0  0
 11 10  1  0  0  0  0
 12  6  1  0  0  0  0
 13  7  1  0  0  0  0
 16 10  1  0  0  0  0
 17 11  1  0  0  0  0
 18 19  2  0  0  0  0
 18 22  1  0  0  0  0
 20 18  2  0  0  0  0
 21 18  1  0  0  0  0
 22 25  1  0  0  0  0
 22 24  1  0  0  0  0
 23 22  1  0  0  0  0
M  RAD  1   2   2
M  END
