Coordinates from ORCA-job C6H6+TfO-+NH2N2+-scan
 OpenBabel10121810013D

 25 23  0  0  0  0  0  0  0  0999 V2000
   -2.0159   -2.6231   -0.0261 N   0  0  0  0  0  0  0  0  0  0  0  0
   -3.1309   -2.5404   -0.1606 N   0  0  0  0  0  0  0  0  0  0  0  0
   -0.8099   -2.6984    0.2613 N   0  0  0  0  0  0  0  0  0  0  0  0
   -0.2310   -2.8361   -0.5722 H   0  0  0  0  0  0  0  0  0  0  0  0
   -0.0170   -2.4963    1.7757 H   0  0  0  0  0  0  0  0  0  0  0  0
    0.3272   -1.1611   -3.6870 C   0  0  0  0  0  0  0  0  0  0  0  0
    0.3177   -1.9777   -4.8167 C   0  0  0  0  0  0  0  0  0  0  0  0
    1.0231   -3.1816   -4.8136 C   0  0  0  0  0  0  0  0  0  0  0  0
    1.7338   -3.5709   -3.6792 C   0  0  0  0  0  0  0  0  0  0  0  0
    1.7477   -2.7544   -2.5465 C   0  0  0  0  0  0  0  0  0  0  0  0
    1.0442   -1.5477   -2.5530 C   0  0  0  0  0  0  0  0  0  0  0  0
   -0.2135   -0.2207   -3.6926 H   0  0  0  0  0  0  0  0  0  0  0  0
   -0.2341   -1.6752   -5.7001 H   0  0  0  0  0  0  0  0  0  0  0  0
    1.0181   -3.8144   -5.6945 H   0  0  0  0  0  0  0  0  0  0  0  0
    2.2841   -4.5054   -3.6777 H   0  0  0  0  0  0  0  0  0  0  0  0
    2.3086   -3.0447   -1.6653 H   0  0  0  0  0  0  0  0  0  0  0  0
    1.0689   -0.9030   -1.6805 H   0  0  0  0  0  0  0  0  0  0  0  0
    2.0875   -2.2386    2.1583 S   0  0  0  0  0  0  0  0  0  0  0  0
    2.9148   -2.6327    3.2699 O   0  0  0  0  0  0  0  0  0  0  0  0
    2.2710   -2.7598    0.8137 O   0  0  0  0  0  0  0  0  0  0  0  0
    0.5597   -2.3779    2.5877 O   0  0  0  0  0  0  0  0  0  0  0  0
    2.2123   -0.3694    2.0080 C   0  0  0  0  0  0  0  0  0  0  0  0
    1.3203    0.0608    1.1065 F   0  0  0  0  0  0  0  0  0  0  0  0
    1.9663    0.2084    3.1769 F   0  0  0  0  0  0  0  0  0  0  0  0
    3.4359   -0.0498    1.5989 F   0  0  0  0  0  0  0  0  0  0  0  0
  1  3  2  0  0  0  0
  2  1  2  0  0  0  0
  4  3  1  0  0  0  0
  5 21  1  0  0  0  0
  6 11  2  0  0  0  0
  7  8  2  0  0  0  0
  7  6  1  0  0  0  0
  8  9  1  0  0  0  0
  9 15  1  0  0  0  0
  9 10  2  0  0  0  0
 10 16  1  0  0  0  0
 11 10  1  0  0  0  0
 11 17  1  0  0  0  0
 12  6  1  0  0  0  0
 13  7  1  0  0  0  0
 14  8  1  0  0  0  0
 18 21  1  0  0  0  0
 18 19  2  0  0  0  0
 20 18  2  0  0  0  0
 22 18  1  0  0  0  0
 22 24  1  0  0  0  0
 23 22  1  0  0  0  0
 25 22  1  0  0  0  0
M  RAD  1   2   2
M  END
