Coordinates from ORCA-job C6H6+TfO-+NH2N2+-scan
 OpenBabel10121810013D

 25 25  0  0  1  0  0  0  0  0999 V2000
   -1.1860   -1.1341   -1.1407 N   0  0  0  0  0  0  0  0  0  0  0  0
   -1.5664   -1.5798   -2.2122 N   0  0  0  0  0  0  0  0  0  0  0  0
    0.0653   -1.5371   -0.6901 N   0  0  0  0  0  0  0  0  0  0  0  0
    0.6284   -0.7054   -0.5014 H   0  0  0  0  0  0  0  0  0  0  0  0
    0.0593   -2.4601    0.6258 H   0  0  0  0  0  0  0  0  0  0  0  0
   -0.2657   -1.7574   -4.2772 C   0  0  0  0  0  0  0  0  0  0  0  0
   -0.4833   -2.4173   -2.9510 C   0  0  1  0  0  0  0  0  0  0  0  0
    0.7399   -2.5108   -2.0604 C   0  0  1  0  0  0  0  0  0  0  0  0
    2.0025   -1.9177   -2.5313 C   0  0  0  0  0  0  0  0  0  0  0  0
    2.0733   -1.3068   -3.7272 C   0  0  0  0  0  0  0  0  0  0  0  0
    0.9187   -1.2282   -4.6149 C   0  0  0  0  0  0  0  0  0  0  0  0
   -1.1215   -1.6995   -4.9396 H   0  0  0  0  0  0  0  0  0  0  0  0
   -0.9716   -3.3872   -3.0790 H   0  0  0  0  0  0  0  0  0  0  0  0
    0.8705   -3.4590   -1.5498 H   0  0  0  0  0  0  0  0  0  0  0  0
    2.8673   -2.0226   -1.8868 H   0  0  0  0  0  0  0  0  0  0  0  0
    3.0135   -0.8849   -4.0652 H   0  0  0  0  0  0  0  0  0  0  0  0
    1.0409   -0.7445   -5.5777 H   0  0  0  0  0  0  0  0  0  0  0  0
    1.6449   -3.3916    1.7982 S   0  0  0  0  0  0  0  0  0  0  0  0
    1.7133   -4.5902    2.5980 O   0  0  0  0  0  0  0  0  0  0  0  0
    2.4834   -3.1912    0.6245 O   0  0  0  0  0  0  0  0  0  0  0  0
    0.1346   -3.0894    1.4448 O   0  0  0  0  0  0  0  0  0  0  0  0
    2.0131   -1.9399    2.9317 C   0  0  0  0  0  0  0  0  0  0  0  0
    1.7670   -0.7978    2.2721 F   0  0  0  0  0  0  0  0  0  0  0  0
    1.2521   -1.9879    4.0177 F   0  0  0  0  0  0  0  0  0  0  0  0
    3.2954   -1.9699    3.2830 F   0  0  0  0  0  0  0  0  0  0  0  0
  1  3  1  0  0  0  0
  2  1  2  0  0  0  0
  3  4  1  0  0  0  0
  5 21  1  0  0  0  0
  6  7  1  0  0  0  0
  7 13  1  6  0  0  0
  7  2  1  0  0  0  0
  7  8  1  0  0  0  0
  8 14  1  1  0  0  0
  8  3  1  0  0  0  0
  9  8  1  0  0  0  0
  9 15  1  0  0  0  0
 10  9  2  0  0  0  0
 11  6  2  0  0  0  0
 11 10  1  0  0  0  0
 12  6  1  0  0  0  0
 16 10  1  0  0  0  0
 17 11  1  0  0  0  0
 18 19  2  0  0  0  0
 18 22  1  0  0  0  0
 20 18  2  0  0  0  0
 21 18  1  0  0  0  0
 22 25  1  0  0  0  0
 22 24  1  0  0  0  0
 23 22  1  0  0  0  0
M  END
