Coordinates from ORCA-job C6H6+TfO-+NH2N2+-scan
 OpenBabel10121810013D

 25 23  0  0  0  0  0  0  0  0999 V2000
   -1.7101   -2.7203   -0.5104 N   0  0  0  0  0  0  0  0  0  0  0  0
   -2.8121   -2.6408   -0.7306 N   0  0  0  0  0  0  0  0  0  0  0  0
   -0.5312   -2.8139   -0.1350 N   0  0  0  0  0  0  0  0  0  0  0  0
    0.1207   -2.8209   -0.9279 H   0  0  0  0  0  0  0  0  0  0  0  0
    0.1069   -2.6752    1.4403 H   0  0  0  0  0  0  0  0  0  0  0  0
    0.4682   -1.0280   -3.6144 C   0  0  0  0  0  0  0  0  0  0  0  0
    0.0568   -2.0014   -4.5247 C   0  0  0  0  0  0  0  0  0  0  0  0
    0.5633   -3.2985   -4.4374 C   0  0  0  0  0  0  0  0  0  0  0  0
    1.4831   -3.6223   -3.4401 C   0  0  0  0  0  0  0  0  0  0  0  0
    1.8985   -2.6493   -2.5275 C   0  0  0  0  0  0  0  0  0  0  0  0
    1.3876   -1.3512   -2.6155 C   0  0  0  0  0  0  0  0  0  0  0  0
    0.0770   -0.0189   -3.6853 H   0  0  0  0  0  0  0  0  0  0  0  0
   -0.6561   -1.7496   -5.3022 H   0  0  0  0  0  0  0  0  0  0  0  0
    0.2440   -4.0538   -5.1471 H   0  0  0  0  0  0  0  0  0  0  0  0
    1.8816   -4.6288   -3.3746 H   0  0  0  0  0  0  0  0  0  0  0  0
    2.6105   -2.8956   -1.7480 H   0  0  0  0  0  0  0  0  0  0  0  0
    1.7070   -0.5971   -1.9046 H   0  0  0  0  0  0  0  0  0  0  0  0
    2.1074   -2.2350    2.1347 S   0  0  0  0  0  0  0  0  0  0  0  0
    2.8113   -2.6136    3.3338 O   0  0  0  0  0  0  0  0  0  0  0  0
    2.5422   -2.6335    0.8064 O   0  0  0  0  0  0  0  0  0  0  0  0
    0.5639   -2.5699    2.3296 O   0  0  0  0  0  0  0  0  0  0  0  0
    2.0299   -0.3580    2.1069 C   0  0  0  0  0  0  0  0  0  0  0  0
    1.2387    0.0362    1.1008 F   0  0  0  0  0  0  0  0  0  0  0  0
    1.5454    0.1059    3.2521 F   0  0  0  0  0  0  0  0  0  0  0  0
    3.2545    0.1230    1.9120 F   0  0  0  0  0  0  0  0  0  0  0  0
  1  3  2  0  0  0  0
  2  1  2  0  0  0  0
  4  3  1  0  0  0  0
  5 21  1  0  0  0  0
  6 11  2  0  0  0  0
  7  8  2  0  0  0  0
  7  6  1  0  0  0  0
  8  9  1  0  0  0  0
  9 15  1  0  0  0  0
  9 10  2  0  0  0  0
 10 16  1  0  0  0  0
 11 10  1  0  0  0  0
 11 17  1  0  0  0  0
 12  6  1  0  0  0  0
 13  7  1  0  0  0  0
 14  8  1  0  0  0  0
 18 21  1  0  0  0  0
 18 19  2  0  0  0  0
 20 18  2  0  0  0  0
 22 18  1  0  0  0  0
 22 24  1  0  0  0  0
 23 22  1  0  0  0  0
 25 22  1  0  0  0  0
M  RAD  1   2   2
M  END
