Coordinates from ORCA-job C6H6+TfO-+NH2N2+-scan
 OpenBabel10121810013D

 25 23  0  0  0  0  0  0  0  0999 V2000
   -1.6233   -3.0082   -0.8624 N   0  0  0  0  0  0  0  0  0  0  0  0
   -2.7144   -3.0557   -1.1401 N   0  0  0  0  0  0  0  0  0  0  0  0
   -0.4633   -2.9657   -0.4283 N   0  0  0  0  0  0  0  0  0  0  0  0
    0.2275   -2.9363   -1.1852 H   0  0  0  0  0  0  0  0  0  0  0  0
    0.0530   -2.7551    1.1811 H   0  0  0  0  0  0  0  0  0  0  0  0
    0.6603   -0.8774   -3.3905 C   0  0  0  0  0  0  0  0  0  0  0  0
   -0.1164   -1.8771   -3.9778 C   0  0  0  0  0  0  0  0  0  0  0  0
    0.2630   -3.2144   -3.8576 C   0  0  0  0  0  0  0  0  0  0  0  0
    1.4254   -3.5517   -3.1608 C   0  0  0  0  0  0  0  0  0  0  0  0
    2.1993   -2.5513   -2.5677 C   0  0  0  0  0  0  0  0  0  0  0  0
    1.8128   -1.2145   -2.6814 C   0  0  0  0  0  0  0  0  0  0  0  0
    0.3640    0.1619   -3.4802 H   0  0  0  0  0  0  0  0  0  0  0  0
   -1.0138   -1.6151   -4.5273 H   0  0  0  0  0  0  0  0  0  0  0  0
   -0.3369   -3.9915   -4.3191 H   0  0  0  0  0  0  0  0  0  0  0  0
    1.7252   -4.5901   -3.0731 H   0  0  0  0  0  0  0  0  0  0  0  0
    3.0818   -2.8124   -1.9964 H   0  0  0  0  0  0  0  0  0  0  0  0
    2.4069   -0.4405   -2.2094 H   0  0  0  0  0  0  0  0  0  0  0  0
    1.9803   -2.2641    2.0326 S   0  0  0  0  0  0  0  0  0  0  0  0
    2.5619   -2.5338    3.3236 O   0  0  0  0  0  0  0  0  0  0  0  0
    2.5484   -2.7620    0.7920 O   0  0  0  0  0  0  0  0  0  0  0  0
    0.4269   -2.6024    2.1023 O   0  0  0  0  0  0  0  0  0  0  0  0
    1.8931   -0.3964    1.8459 C   0  0  0  0  0  0  0  0  0  0  0  0
    1.1657   -0.0922    0.7643 F   0  0  0  0  0  0  0  0  0  0  0  0
    1.3356    0.1543    2.9175 F   0  0  0  0  0  0  0  0  0  0  0  0
    3.1257    0.0815    1.6893 F   0  0  0  0  0  0  0  0  0  0  0  0
  1  3  2  0  0  0  0
  2  1  2  0  0  0  0
  4  3  1  0  0  0  0
  5 21  1  0  0  0  0
  6 11  2  0  0  0  0
  7  8  2  0  0  0  0
  7  6  1  0  0  0  0
  8  9  1  0  0  0  0
  9 15  1  0  0  0  0
  9 10  2  0  0  0  0
 10 16  1  0  0  0  0
 11 10  1  0  0  0  0
 11 17  1  0  0  0  0
 12  6  1  0  0  0  0
 13  7  1  0  0  0  0
 14  8  1  0  0  0  0
 18 21  1  0  0  0  0
 18 19  2  0  0  0  0
 20 18  2  0  0  0  0
 22 18  1  0  0  0  0
 22 24  1  0  0  0  0
 23 22  1  0  0  0  0
 25 22  1  0  0  0  0
M  RAD  1   2   2
M  END
