Coordinates from ORCA-job C6H6+TfO-+NH2N2+-scan
 OpenBabel10121810013D

 25 23  0  0  0  0  0  0  0  0999 V2000
   -1.6180   -2.8284   -0.7187 N   0  0  0  0  0  0  0  0  0  0  0  0
   -2.7129   -2.7748   -0.9788 N   0  0  0  0  0  0  0  0  0  0  0  0
   -0.4529   -2.8999   -0.2991 N   0  0  0  0  0  0  0  0  0  0  0  0
    0.2308   -2.8718   -1.0629 H   0  0  0  0  0  0  0  0  0  0  0  0
    0.1206   -2.7604    1.2990 H   0  0  0  0  0  0  0  0  0  0  0  0
    0.6058   -0.9552   -3.5103 C   0  0  0  0  0  0  0  0  0  0  0  0
   -0.0598   -1.9429   -4.2372 C   0  0  0  0  0  0  0  0  0  0  0  0
    0.3419   -3.2749   -4.1346 C   0  0  0  0  0  0  0  0  0  0  0  0
    1.4116   -3.6196   -3.3073 C   0  0  0  0  0  0  0  0  0  0  0  0
    2.0781   -2.6322   -2.5776 C   0  0  0  0  0  0  0  0  0  0  0  0
    1.6718   -1.2993   -2.6792 C   0  0  0  0  0  0  0  0  0  0  0  0
    0.2935    0.0802   -3.5911 H   0  0  0  0  0  0  0  0  0  0  0  0
   -0.8887   -1.6748   -4.8832 H   0  0  0  0  0  0  0  0  0  0  0  0
   -0.1734   -4.0420   -4.7023 H   0  0  0  0  0  0  0  0  0  0  0  0
    1.7275   -4.6542   -3.2303 H   0  0  0  0  0  0  0  0  0  0  0  0
    2.8998   -2.8966   -1.9229 H   0  0  0  0  0  0  0  0  0  0  0  0
    2.1854   -0.5354   -2.1068 H   0  0  0  0  0  0  0  0  0  0  0  0
    2.0672   -2.2258    2.0769 S   0  0  0  0  0  0  0  0  0  0  0  0
    2.7364   -2.5592    3.3091 O   0  0  0  0  0  0  0  0  0  0  0  0
    2.5838   -2.6024    0.7722 O   0  0  0  0  0  0  0  0  0  0  0  0
    0.5385   -2.6486    2.2067 O   0  0  0  0  0  0  0  0  0  0  0  0
    1.8817   -0.3567    2.0338 C   0  0  0  0  0  0  0  0  0  0  0  0
    1.0981   -0.0145    1.0040 F   0  0  0  0  0  0  0  0  0  0  0  0
    1.3401    0.0850    3.1623 F   0  0  0  0  0  0  0  0  0  0  0  0
    3.0820    0.1940    1.8695 F   0  0  0  0  0  0  0  0  0  0  0  0
  1  3  2  0  0  0  0
  2  1  2  0  0  0  0
  4  3  1  0  0  0  0
  5 21  1  0  0  0  0
  6 11  2  0  0  0  0
  7  8  2  0  0  0  0
  7  6  1  0  0  0  0
  8  9  1  0  0  0  0
  9 15  1  0  0  0  0
  9 10  2  0  0  0  0
 10 16  1  0  0  0  0
 11 10  1  0  0  0  0
 11 17  1  0  0  0  0
 12  6  1  0  0  0  0
 13  7  1  0  0  0  0
 14  8  1  0  0  0  0
 18 21  1  0  0  0  0
 18 19  2  0  0  0  0
 20 18  2  0  0  0  0
 22 18  1  0  0  0  0
 22 24  1  0  0  0  0
 23 22  1  0  0  0  0
 25 22  1  0  0  0  0
M  RAD  1   2   2
M  END
