Coordinates from ORCA-job C6H6+TfO-+NH2N2+-scan
 OpenBabel10121810013D

 25 25  0  0  1  0  0  0  0  0999 V2000
   -0.5923   -0.6338   -1.0910 N   0  0  0  0  0  0  0  0  0  0  0  0
   -1.1884   -1.0104   -2.0893 N   0  0  0  0  0  0  0  0  0  0  0  0
    0.5855   -1.4824   -0.8461 N   0  0  0  0  0  0  0  0  0  0  0  0
    1.3107   -0.8868   -0.4528 H   0  0  0  0  0  0  0  0  0  0  0  0
    0.3157   -2.5072    0.4228 H   0  0  0  0  0  0  0  0  0  0  0  0
   -0.4326   -2.0347   -4.2220 C   0  0  0  0  0  0  0  0  0  0  0  0
   -0.4753   -2.1752   -2.7299 C   0  0  1  0  0  0  0  0  0  0  0  0
    0.8973   -2.1599   -1.9841 C   0  0  1  0  0  0  0  0  0  0  0  0
    2.0219   -1.5553   -2.8056 C   0  0  0  0  0  0  0  0  0  0  0  0
    1.9139   -1.3422   -4.1204 C   0  0  0  0  0  0  0  0  0  0  0  0
    0.6798   -1.6398   -4.8506 C   0  0  0  0  0  0  0  0  0  0  0  0
   -1.3523   -2.2230   -4.7632 H   0  0  0  0  0  0  0  0  0  0  0  0
   -1.0651   -3.0529   -2.4434 H   0  0  0  0  0  0  0  0  0  0  0  0
    1.1867   -3.1928   -1.7505 H   0  0  0  0  0  0  0  0  0  0  0  0
    2.9480   -1.3524   -2.2750 H   0  0  0  0  0  0  0  0  0  0  0  0
    2.7555   -0.9456   -4.6782 H   0  0  0  0  0  0  0  0  0  0  0  0
    0.6814   -1.5240   -5.9289 H   0  0  0  0  0  0  0  0  0  0  0  0
    1.7246   -3.3760    1.8201 S   0  0  0  0  0  0  0  0  0  0  0  0
    1.8441   -4.7081    2.3597 O   0  0  0  0  0  0  0  0  0  0  0  0
    2.7247   -2.7979    0.9335 O   0  0  0  0  0  0  0  0  0  0  0  0
    0.2823   -3.1986    1.1806 O   0  0  0  0  0  0  0  0  0  0  0  0
    1.5772   -2.1938    3.2728 C   0  0  0  0  0  0  0  0  0  0  0  0
    1.2884   -0.9713    2.8129 F   0  0  0  0  0  0  0  0  0  0  0  0
    0.6184   -2.5912    4.0997 F   0  0  0  0  0  0  0  0  0  0  0  0
    2.7385   -2.1551    3.9200 F   0  0  0  0  0  0  0  0  0  0  0  0
  1  3  1  0  0  0  0
  2  1  1  0  0  0  0
  3  4  1  0  0  0  0
  5 21  1  0  0  0  0
  6  7  1  0  0  0  0
  7 13  1  1  0  0  0
  7  2  1  0  0  0  0
  7  8  1  0  0  0  0
  8 14  1  1  0  0  0
  8  3  1  0  0  0  0
  9 15  1  0  0  0  0
  9  8  1  0  0  0  0
 10  9  2  0  0  0  0
 11  6  2  0  0  0  0
 11 10  1  0  0  0  0
 12  6  1  0  0  0  0
 16 10  1  0  0  0  0
 17 11  1  0  0  0  0
 18 19  2  0  0  0  0
 18 22  1  0  0  0  0
 20 18  2  0  0  0  0
 21 18  1  0  0  0  0
 22 25  1  0  0  0  0
 22 24  1  0  0  0  0
 23 22  1  0  0  0  0
M  RAD  2   1   2   2   2
M  END
