Coordinates from ORCA-job C6H6+TfO-+NH2N2+-scan
 OpenBabel10121810013D

 25 23  0  0  0  0  0  0  0  0999 V2000
   -1.5991   -2.8598   -0.7812 N   0  0  0  0  0  0  0  0  0  0  0  0
   -2.6915   -2.8211   -1.0541 N   0  0  0  0  0  0  0  0  0  0  0  0
   -0.4385   -2.9162   -0.3481 N   0  0  0  0  0  0  0  0  0  0  0  0
    0.2545   -2.8822   -1.1030 H   0  0  0  0  0  0  0  0  0  0  0  0
    0.1124   -2.7740    1.2577 H   0  0  0  0  0  0  0  0  0  0  0  0
    0.6359   -0.9375   -3.4749 C   0  0  0  0  0  0  0  0  0  0  0  0
   -0.0889   -1.9263   -4.1414 C   0  0  0  0  0  0  0  0  0  0  0  0
    0.2943   -3.2635   -4.0346 C   0  0  0  0  0  0  0  0  0  0  0  0
    1.4063   -3.6121   -3.2660 C   0  0  0  0  0  0  0  0  0  0  0  0
    2.1303   -2.6235   -2.5953 C   0  0  0  0  0  0  0  0  0  0  0  0
    1.7414   -1.2860   -2.6991 C   0  0  0  0  0  0  0  0  0  0  0  0
    0.3375    0.1019   -3.5568 H   0  0  0  0  0  0  0  0  0  0  0  0
   -0.9498   -1.6558   -4.7428 H   0  0  0  0  0  0  0  0  0  0  0  0
   -0.2674   -4.0317   -4.5549 H   0  0  0  0  0  0  0  0  0  0  0  0
    1.7078   -4.6507   -3.1857 H   0  0  0  0  0  0  0  0  0  0  0  0
    2.9798   -2.8921   -1.9789 H   0  0  0  0  0  0  0  0  0  0  0  0
    2.2975   -0.5217   -2.1685 H   0  0  0  0  0  0  0  0  0  0  0  0
    2.0470   -2.2286    2.0556 S   0  0  0  0  0  0  0  0  0  0  0  0
    2.7040   -2.5526    3.2968 O   0  0  0  0  0  0  0  0  0  0  0  0
    2.5801   -2.6083    0.7585 O   0  0  0  0  0  0  0  0  0  0  0  0
    0.5190   -2.6592    2.1702 O   0  0  0  0  0  0  0  0  0  0  0  0
    1.8518   -0.3608    2.0024 C   0  0  0  0  0  0  0  0  0  0  0  0
    1.0765   -0.0269    0.9638 F   0  0  0  0  0  0  0  0  0  0  0  0
    1.2971    0.0827    3.1240 F   0  0  0  0  0  0  0  0  0  0  0  0
    3.0508    0.1957    1.8474 F   0  0  0  0  0  0  0  0  0  0  0  0
  1  3  2  0  0  0  0
  2  1  2  0  0  0  0
  4  3  1  0  0  0  0
  5 21  1  0  0  0  0
  6 11  2  0  0  0  0
  7  8  2  0  0  0  0
  7  6  1  0  0  0  0
  8  9  1  0  0  0  0
  9 15  1  0  0  0  0
  9 10  2  0  0  0  0
 10 16  1  0  0  0  0
 11 10  1  0  0  0  0
 11 17  1  0  0  0  0
 12  6  1  0  0  0  0
 13  7  1  0  0  0  0
 14  8  1  0  0  0  0
 18 21  1  0  0  0  0
 18 19  2  0  0  0  0
 20 18  2  0  0  0  0
 22 18  1  0  0  0  0
 22 24  1  0  0  0  0
 23 22  1  0  0  0  0
 25 22  1  0  0  0  0
M  RAD  1   2   2
M  END
