Coordinates from ORCA-job C6H6+TfO-+NH2N2+-scan
 OpenBabel10121810013D

 25 23  0  0  0  0  0  0  0  0999 V2000
   -1.6231   -2.7807   -0.6844 N   0  0  0  0  0  0  0  0  0  0  0  0
   -2.7183   -2.7077   -0.9384 N   0  0  0  0  0  0  0  0  0  0  0  0
   -0.4570   -2.8725   -0.2718 N   0  0  0  0  0  0  0  0  0  0  0  0
    0.2235   -2.8506   -1.0394 H   0  0  0  0  0  0  0  0  0  0  0  0
    0.1261   -2.7464    1.3243 H   0  0  0  0  0  0  0  0  0  0  0  0
    0.5677   -0.9757   -3.5290 C   0  0  0  0  0  0  0  0  0  0  0  0
   -0.0408   -1.9642   -4.3032 C   0  0  0  0  0  0  0  0  0  0  0  0
    0.3861   -3.2888   -4.2061 C   0  0  0  0  0  0  0  0  0  0  0  0
    1.4249   -3.6256   -3.3375 C   0  0  0  0  0  0  0  0  0  0  0  0
    2.0343   -2.6377   -2.5599 C   0  0  0  0  0  0  0  0  0  0  0  0
    1.6019   -1.3124   -2.6554 C   0  0  0  0  0  0  0  0  0  0  0  0
    0.2363    0.0540   -3.6058 H   0  0  0  0  0  0  0  0  0  0  0  0
   -0.8456   -1.7028   -4.9816 H   0  0  0  0  0  0  0  0  0  0  0  0
   -0.0859   -4.0558   -4.8103 H   0  0  0  0  0  0  0  0  0  0  0  0
    1.7608   -4.6541   -3.2645 H   0  0  0  0  0  0  0  0  0  0  0  0
    2.8291   -2.8959   -1.8701 H   0  0  0  0  0  0  0  0  0  0  0  0
    2.0704   -0.5490   -2.0446 H   0  0  0  0  0  0  0  0  0  0  0  0
    2.0822   -2.2289    2.0893 S   0  0  0  0  0  0  0  0  0  0  0  0
    2.7589   -2.5709    3.3149 O   0  0  0  0  0  0  0  0  0  0  0  0
    2.5861   -2.6044    0.7792 O   0  0  0  0  0  0  0  0  0  0  0  0
    0.5518   -2.6424    2.2293 O   0  0  0  0  0  0  0  0  0  0  0  0
    1.9091   -0.3583    2.0542 C   0  0  0  0  0  0  0  0  0  0  0  0
    1.1224   -0.0069    1.0295 F   0  0  0  0  0  0  0  0  0  0  0  0
    1.3760    0.0825    3.1869 F   0  0  0  0  0  0  0  0  0  0  0  0
    3.1120    0.1849    1.8857 F   0  0  0  0  0  0  0  0  0  0  0  0
  1  3  2  0  0  0  0
  2  1  2  0  0  0  0
  4  3  1  0  0  0  0
  5 21  1  0  0  0  0
  6 11  2  0  0  0  0
  7  8  2  0  0  0  0
  7  6  1  0  0  0  0
  8  9  1  0  0  0  0
  9 15  1  0  0  0  0
  9 10  2  0  0  0  0
 10 16  1  0  0  0  0
 11 10  1  0  0  0  0
 11 17  1  0  0  0  0
 12  6  1  0  0  0  0
 13  7  1  0  0  0  0
 14  8  1  0  0  0  0
 18 21  1  0  0  0  0
 18 19  2  0  0  0  0
 20 18  2  0  0  0  0
 22 18  1  0  0  0  0
 22 24  1  0  0  0  0
 23 22  1  0  0  0  0
 25 22  1  0  0  0  0
M  RAD  1   2   2
M  END
