Coordinates from ORCA-job C6H6+TfO-+NH2N2+-scan
 OpenBabel10121810013D

 25 23  0  0  0  0  0  0  0  0999 V2000
   -1.3090   -1.3981    0.6737 N   0  0  0  0  0  0  0  0  0  0  0  0
   -2.1223   -0.8828    0.0897 N   0  0  0  0  0  0  0  0  0  0  0  0
   -0.3574   -1.8335    1.3415 N   0  0  0  0  0  0  0  0  0  0  0  0
   -0.2398   -2.8439    1.2428 H   0  0  0  0  0  0  0  0  0  0  0  0
    0.3843   -1.3776    2.8600 H   0  0  0  0  0  0  0  0  0  0  0  0
   -0.6041   -2.7322   -5.2879 C   0  0  0  0  0  0  0  0  0  0  0  0
    0.6275   -3.3683   -5.1364 C   0  0  0  0  0  0  0  0  0  0  0  0
    1.7762   -2.6149   -4.8971 C   0  0  0  0  0  0  0  0  0  0  0  0
    1.6936   -1.2257   -4.8106 C   0  0  0  0  0  0  0  0  0  0  0  0
    0.4619   -0.5897   -4.9624 C   0  0  0  0  0  0  0  0  0  0  0  0
   -0.6870   -1.3430   -5.2004 C   0  0  0  0  0  0  0  0  0  0  0  0
   -1.4976   -3.3178   -5.4759 H   0  0  0  0  0  0  0  0  0  0  0  0
    0.6921   -4.4488   -5.2064 H   0  0  0  0  0  0  0  0  0  0  0  0
    2.7345   -3.1096   -4.7806 H   0  0  0  0  0  0  0  0  0  0  0  0
    2.5875   -0.6394   -4.6268 H   0  0  0  0  0  0  0  0  0  0  0  0
    0.3976    0.4911   -4.8968 H   0  0  0  0  0  0  0  0  0  0  0  0
   -1.6449   -0.8482   -5.3192 H   0  0  0  0  0  0  0  0  0  0  0  0
    1.6687   -2.7685    3.8814 S   0  0  0  0  0  0  0  0  0  0  0  0
    1.8319   -3.0468    5.2851 O   0  0  0  0  0  0  0  0  0  0  0  0
    1.1364   -3.7450    2.9427 O   0  0  0  0  0  0  0  0  0  0  0  0
    0.8840   -1.3860    3.7256 O   0  0  0  0  0  0  0  0  0  0  0  0
    3.3482   -2.2564    3.2104 C   0  0  0  0  0  0  0  0  0  0  0  0
    3.2037   -1.8056    1.9628 F   0  0  0  0  0  0  0  0  0  0  0  0
    3.8732   -1.3023    3.9689 F   0  0  0  0  0  0  0  0  0  0  0  0
    4.1497   -3.3174    3.2070 F   0  0  0  0  0  0  0  0  0  0  0  0
  1  3  2  0  0  0  0
  2  1  2  0  0  0  0
  4  3  1  0  0  0  0
  5 21  1  0  0  0  0
  6 11  2  0  0  0  0
  6  7  1  0  0  0  0
  7  8  2  0  0  0  0
  8  9  1  0  0  0  0
  8 14  1  0  0  0  0
  9 15  1  0  0  0  0
 10 16  1  0  0  0  0
 10  9  2  0  0  0  0
 11 10  1  0  0  0  0
 12  6  1  0  0  0  0
 13  7  1  0  0  0  0
 17 11  1  0  0  0  0
 18 19  2  0  0  0  0
 20 18  2  0  0  0  0
 21 18  1  0  0  0  0
 22 18  1  0  0  0  0
 22 24  1  0  0  0  0
 23 22  1  0  0  0  0
 25 22  1  0  0  0  0
M  RAD  1   2   2
M  END
