Coordinates from ORCA-job C6H6+TfO-+NH2N2+-scan
 OpenBabel10121810013D

 25 23  0  0  0  0  0  0  0  0999 V2000
   -2.1365   -0.7499    1.1887 N   0  0  0  0  0  0  0  0  0  0  0  0
   -1.7182   -0.9515    0.1969 N   0  0  0  0  0  0  0  0  0  0  0  0
    1.5653   -2.4172   -1.1693 N   0  0  0  0  0  0  0  0  0  0  0  0
    2.4606   -2.2840   -0.6659 H   0  0  0  0  0  0  0  0  0  0  0  0
    0.9013   -2.8109   -0.4134 H   0  0  0  0  0  0  0  0  0  0  0  0
   -0.2272   -2.1453   -4.2457 C   0  0  0  0  0  0  0  0  0  0  0  0
   -0.0358   -2.4676   -2.7971 C   0  0  0  0  0  0  0  0  0  0  0  0
    1.3605   -2.2067   -2.2087 C   0  0  0  0  0  0  0  0  0  0  0  0
    2.3689   -1.6628   -3.1427 C   0  0  0  0  0  0  0  0  0  0  0  0
    2.0751   -1.4120   -4.4315 C   0  0  0  0  0  0  0  0  0  0  0  0
    0.7587   -1.6522   -5.0045 C   0  0  0  0  0  0  0  0  0  0  0  0
   -1.2127   -2.3297   -4.6599 H   0  0  0  0  0  0  0  0  0  0  0  0
   -0.7591   -1.9069   -2.1912 H   0  0  0  0  0  0  0  0  0  0  0  0
   -0.2806   -3.5227   -2.6174 H   0  0  0  0  0  0  0  0  0  0  0  0
    3.3597   -1.4751   -2.7398 H   0  0  0  0  0  0  0  0  0  0  0  0
    2.8493   -1.0128   -5.0789 H   0  0  0  0  0  0  0  0  0  0  0  0
    0.5976   -1.4247   -6.0513 H   0  0  0  0  0  0  0  0  0  0  0  0
    1.6586   -3.1786    1.9348 S   0  0  0  0  0  0  0  0  0  0  0  0
    1.8597   -4.3006    2.8358 O   0  0  0  0  0  0  0  0  0  0  0  0
    2.8453   -2.6622    1.2058 O   0  0  0  0  0  0  0  0  0  0  0  0
    0.4758   -3.3008    1.0075 O   0  0  0  0  0  0  0  0  0  0  0  0
    1.1519   -1.7351    3.0154 C   0  0  0  0  0  0  0  0  0  0  0  0
    0.9229   -0.6514    2.2477 F   0  0  0  0  0  0  0  0  0  0  0  0
    0.0322   -2.0142    3.6875 F   0  0  0  0  0  0  0  0  0  0  0  0
    2.1156   -1.4353    3.8882 F   0  0  0  0  0  0  0  0  0  0  0  0
  2  1  3  0  0  0  0
  3  4  1  0  0  0  0
  3  5  1  0  0  0  0
  6  7  1  0  0  0  0
  7 14  1  0  0  0  0
  7  8  1  0  0  0  0
  7 13  1  0  0  0  0
  8  3  1  0  0  0  0
  9 15  1  0  0  0  0
  9  8  2  0  0  0  0
 10  9  1  0  0  0  0
 11 10  1  0  0  0  0
 11  6  2  0  0  0  0
 12  6  1  0  0  0  0
 16 10  1  0  0  0  0
 17 11  1  0  0  0  0
 18 19  1  0  0  0  0
 18 22  1  0  0  0  0
 20 18  2  0  0  0  0
 21 18  2  0  0  0  0
 22 24  1  0  0  0  0
 22 25  1  0  0  0  0
 23 22  1  0  0  0  0
M  RAD  2  10   2  19   2
M  END
