Coordinates from ORCA-job C6H6+TfO-+NH2N2+-scan
 OpenBabel10121810013D

 25 23  0  0  0  0  0  0  0  0999 V2000
   -1.6310   -2.7754   -0.6662 N   0  0  0  0  0  0  0  0  0  0  0  0
   -2.7269   -2.7008   -0.9170 N   0  0  0  0  0  0  0  0  0  0  0  0
   -0.4638   -2.8687   -0.2569 N   0  0  0  0  0  0  0  0  0  0  0  0
    0.2140   -2.8482   -1.0269 H   0  0  0  0  0  0  0  0  0  0  0  0
    0.1250   -2.7427    1.3371 H   0  0  0  0  0  0  0  0  0  0  0  0
    0.5627   -0.9795   -3.5418 C   0  0  0  0  0  0  0  0  0  0  0  0
   -0.0325   -1.9680   -4.3260 C   0  0  0  0  0  0  0  0  0  0  0  0
    0.3986   -3.2912   -4.2276 C   0  0  0  0  0  0  0  0  0  0  0  0
    1.4277   -3.6264   -3.3471 C   0  0  0  0  0  0  0  0  0  0  0  0
    2.0244   -2.6383   -2.5599 C   0  0  0  0  0  0  0  0  0  0  0  0
    1.5883   -1.3143   -2.6573 C   0  0  0  0  0  0  0  0  0  0  0  0
    0.2283    0.0492   -3.6199 H   0  0  0  0  0  0  0  0  0  0  0  0
   -0.8299   -1.7078   -5.0134 H   0  0  0  0  0  0  0  0  0  0  0  0
   -0.0630   -4.0584   -4.8395 H   0  0  0  0  0  0  0  0  0  0  0  0
    1.7668   -4.6538   -3.2729 H   0  0  0  0  0  0  0  0  0  0  0  0
    2.8142   -2.8947   -1.8637 H   0  0  0  0  0  0  0  0  0  0  0  0
    2.0474   -0.5504   -2.0400 H   0  0  0  0  0  0  0  0  0  0  0  0
    2.0850   -2.2288    2.0939 S   0  0  0  0  0  0  0  0  0  0  0  0
    2.7673   -2.5755    3.3150 O   0  0  0  0  0  0  0  0  0  0  0  0
    2.5811   -2.6023    0.7802 O   0  0  0  0  0  0  0  0  0  0  0  0
    0.5543   -2.6389    2.2405 O   0  0  0  0  0  0  0  0  0  0  0  0
    1.9162   -0.3577    2.0642 C   0  0  0  0  0  0  0  0  0  0  0  0
    1.1262   -0.0020    1.0436 F   0  0  0  0  0  0  0  0  0  0  0  0
    1.3887    0.0814    3.2003 F   0  0  0  0  0  0  0  0  0  0  0  0
    3.1197    0.1830    1.8923 F   0  0  0  0  0  0  0  0  0  0  0  0
  1  3  2  0  0  0  0
  2  1  2  0  0  0  0
  4  3  1  0  0  0  0
  5 21  1  0  0  0  0
  6 11  2  0  0  0  0
  7  8  2  0  0  0  0
  7  6  1  0  0  0  0
  8  9  1  0  0  0  0
  9 15  1  0  0  0  0
  9 10  2  0  0  0  0
 10 16  1  0  0  0  0
 11 10  1  0  0  0  0
 11 17  1  0  0  0  0
 12  6  1  0  0  0  0
 13  7  1  0  0  0  0
 14  8  1  0  0  0  0
 18 21  1  0  0  0  0
 18 19  2  0  0  0  0
 20 18  2  0  0  0  0
 22 18  1  0  0  0  0
 22 24  1  0  0  0  0
 23 22  1  0  0  0  0
 25 22  1  0  0  0  0
M  RAD  1   2   2
M  END
