Coordinates from ORCA-job C6H6+TfO-+NH2N2+-scan
 OpenBabel10121810013D

 25 23  0  0  0  0  0  0  0  0999 V2000
   -2.1901   -2.6543    0.2969 N   0  0  0  0  0  0  0  0  0  0  0  0
   -3.3101   -2.5925    0.1991 N   0  0  0  0  0  0  0  0  0  0  0  0
   -0.9743   -2.6999    0.5473 N   0  0  0  0  0  0  0  0  0  0  0  0
   -0.4184   -2.8812   -0.2917 H   0  0  0  0  0  0  0  0  0  0  0  0
   -0.0820   -2.4401    2.0029 H   0  0  0  0  0  0  0  0  0  0  0  0
    0.4120   -1.1709   -3.7316 C   0  0  0  0  0  0  0  0  0  0  0  0
    0.4768   -1.8994   -4.9185 C   0  0  0  0  0  0  0  0  0  0  0  0
    1.1804   -3.1035   -4.9607 C   0  0  0  0  0  0  0  0  0  0  0  0
    1.8135   -3.5815   -3.8139 C   0  0  0  0  0  0  0  0  0  0  0  0
    1.7520   -2.8533   -2.6247 C   0  0  0  0  0  0  0  0  0  0  0  0
    1.0520   -1.6460   -2.5858 C   0  0  0  0  0  0  0  0  0  0  0  0
   -0.1265   -0.2296   -3.7018 H   0  0  0  0  0  0  0  0  0  0  0  0
   -0.0151   -1.5275   -5.8108 H   0  0  0  0  0  0  0  0  0  0  0  0
    1.2342   -3.6675   -5.8856 H   0  0  0  0  0  0  0  0  0  0  0  0
    2.3618   -4.5167   -3.8470 H   0  0  0  0  0  0  0  0  0  0  0  0
    2.2541   -3.2103   -1.7326 H   0  0  0  0  0  0  0  0  0  0  0  0
    1.0266   -1.0675   -1.6681 H   0  0  0  0  0  0  0  0  0  0  0  0
    2.0526   -2.2116    2.1393 S   0  0  0  0  0  0  0  0  0  0  0  0
    2.9937   -2.5909    3.1617 O   0  0  0  0  0  0  0  0  0  0  0  0
    2.0732   -2.7757    0.7991 O   0  0  0  0  0  0  0  0  0  0  0  0
    0.5803   -2.3072    2.7427 O   0  0  0  0  0  0  0  0  0  0  0  0
    2.1884   -0.3503    1.9170 C   0  0  0  0  0  0  0  0  0  0  0  0
    1.2077    0.0670    1.1065 F   0  0  0  0  0  0  0  0  0  0  0  0
    2.0824    0.2663    3.0868 F   0  0  0  0  0  0  0  0  0  0  0  0
    3.3633   -0.0659    1.3647 F   0  0  0  0  0  0  0  0  0  0  0  0
  1  3  2  0  0  0  0
  2  1  2  0  0  0  0
  4  3  1  0  0  0  0
  5 21  1  0  0  0  0
  6 12  1  0  0  0  0
  6 11  2  0  0  0  0
  7  6  1  0  0  0  0
  8  7  2  0  0  0  0
  8  9  1  0  0  0  0
  9 10  2  0  0  0  0
 10 11  1  0  0  0  0
 10 16  1  0  0  0  0
 11 17  1  0  0  0  0
 13  7  1  0  0  0  0
 14  8  1  0  0  0  0
 15  9  1  0  0  0  0
 18 21  1  0  0  0  0
 18 19  2  0  0  0  0
 20 18  2  0  0  0  0
 22 18  1  0  0  0  0
 22 24  1  0  0  0  0
 23 22  1  0  0  0  0
 25 22  1  0  0  0  0
M  RAD  1   2   2
M  END
