Coordinates from ORCA-job C6H6+TfO-+NH2N2+-scan
 OpenBabel10121810013D

 25 23  0  0  0  0  0  0  0  0999 V2000
   -1.2813   -1.6073   -0.4933 N   0  0  0  0  0  0  0  0  0  0  0  0
   -2.3979   -1.5124   -0.3288 N   0  0  0  0  0  0  0  0  0  0  0  0
   -0.1410   -1.9957   -0.8712 N   0  0  0  0  0  0  0  0  0  0  0  0
    0.4726   -1.1921   -1.0270 H   0  0  0  0  0  0  0  0  0  0  0  0
    0.8220   -2.9396    0.2808 H   0  0  0  0  0  0  0  0  0  0  0  0
    0.0777   -1.2595   -4.3173 C   0  0  0  0  0  0  0  0  0  0  0  0
   -0.6023   -2.1884   -3.5374 C   0  0  0  0  0  0  0  0  0  0  0  0
    0.1000   -2.9828   -2.6074 C   0  0  0  0  0  0  0  0  0  0  0  0
    1.5076   -3.0036   -2.6771 C   0  0  0  0  0  0  0  0  0  0  0  0
    2.1812   -2.0715   -3.4597 C   0  0  0  0  0  0  0  0  0  0  0  0
    1.4713   -1.1779   -4.2647 C   0  0  0  0  0  0  0  0  0  0  0  0
   -0.4760   -0.6156   -4.9926 H   0  0  0  0  0  0  0  0  0  0  0  0
   -1.6821   -2.2692   -3.6074 H   0  0  0  0  0  0  0  0  0  0  0  0
   -0.4119   -3.8147   -2.1398 H   0  0  0  0  0  0  0  0  0  0  0  0
    2.0658   -3.7108   -2.0735 H   0  0  0  0  0  0  0  0  0  0  0  0
    3.2657   -2.0571   -3.4619 H   0  0  0  0  0  0  0  0  0  0  0  0
    2.0000   -0.4562   -4.8768 H   0  0  0  0  0  0  0  0  0  0  0  0
    2.4943   -2.2716    1.4612 S   0  0  0  0  0  0  0  0  0  0  0  0
    3.7420   -2.9169    1.7813 O   0  0  0  0  0  0  0  0  0  0  0  0
    2.4084   -1.0678    0.6519 O   0  0  0  0  0  0  0  0  0  0  0  0
    1.4878   -3.3759    0.8863 O   0  0  0  0  0  0  0  0  0  0  0  0
    1.6277   -1.8813    3.0836 C   0  0  0  0  0  0  0  0  0  0  0  0
    0.3778   -1.4839    2.8241 F   0  0  0  0  0  0  0  0  0  0  0  0
    1.5970   -2.9564    3.8601 F   0  0  0  0  0  0  0  0  0  0  0  0
    2.2827   -0.9020    3.6979 F   0  0  0  0  0  0  0  0  0  0  0  0
  1  2  2  0  0  0  0
  3  1  2  0  0  0  0
  4  3  1  0  0  0  0
  5 21  1  0  0  0  0
  6 11  2  0  0  0  0
  6  7  1  0  0  0  0
  7  8  2  0  0  0  0
  8 14  1  0  0  0  0
  9  8  1  0  0  0  0
  9 15  1  0  0  0  0
 10  9  2  0  0  0  0
 11 10  1  0  0  0  0
 12  6  1  0  0  0  0
 13  7  1  0  0  0  0
 16 10  1  0  0  0  0
 17 11  1  0  0  0  0
 18 19  2  0  0  0  0
 18 22  1  0  0  0  0
 20 18  2  0  0  0  0
 21 18  1  0  0  0  0
 22 25  1  0  0  0  0
 22 24  1  0  0  0  0
 23 22  1  0  0  0  0
M  RAD  1   2   2
M  END
