Coordinates from ORCA-job C6H6+TfO-+NH2N2+-scan
 OpenBabel10121810013D

 25 23  0  0  0  0  0  0  0  0999 V2000
   -1.2294   -1.1166   -0.7115 N   0  0  0  0  0  0  0  0  0  0  0  0
   -2.3004   -0.7637   -0.7416 N   0  0  0  0  0  0  0  0  0  0  0  0
   -0.1164   -1.6771   -0.6931 N   0  0  0  0  0  0  0  0  0  0  0  0
    0.6131   -1.0586   -1.0475 H   0  0  0  0  0  0  0  0  0  0  0  0
    0.3223   -2.7640    0.5666 H   0  0  0  0  0  0  0  0  0  0  0  0
   -0.1505   -1.7565   -4.4792 C   0  0  0  0  0  0  0  0  0  0  0  0
   -0.3417   -2.7017   -3.4731 C   0  0  0  0  0  0  0  0  0  0  0  0
    0.6674   -2.9458   -2.5380 C   0  0  0  0  0  0  0  0  0  0  0  0
    1.9090   -2.3183   -2.6830 C   0  0  0  0  0  0  0  0  0  0  0  0
    2.0962   -1.3692   -3.6886 C   0  0  0  0  0  0  0  0  0  0  0  0
    1.0648   -1.0790   -4.5822 C   0  0  0  0  0  0  0  0  0  0  0  0
   -0.9441   -1.5566   -5.1913 H   0  0  0  0  0  0  0  0  0  0  0  0
   -1.2844   -3.2344   -3.4037 H   0  0  0  0  0  0  0  0  0  0  0  0
    0.5387   -3.7217   -1.7963 H   0  0  0  0  0  0  0  0  0  0  0  0
    2.7119   -2.5463   -1.9908 H   0  0  0  0  0  0  0  0  0  0  0  0
    3.0537   -0.8686   -3.7850 H   0  0  0  0  0  0  0  0  0  0  0  0
    1.2140   -0.3450   -5.3664 H   0  0  0  0  0  0  0  0  0  0  0  0
    2.1180   -3.1145    1.7194 S   0  0  0  0  0  0  0  0  0  0  0  0
    2.6610   -4.3109    2.3115 O   0  0  0  0  0  0  0  0  0  0  0  0
    2.7995   -2.3680    0.6760 O   0  0  0  0  0  0  0  0  0  0  0  0
    0.6149   -3.4142    1.2737 O   0  0  0  0  0  0  0  0  0  0  0  0
    1.7983   -1.8926    3.1121 C   0  0  0  0  0  0  0  0  0  0  0  0
    1.0885   -0.8633    2.6365 F   0  0  0  0  0  0  0  0  0  0  0  0
    1.1220   -2.4766    4.0934 F   0  0  0  0  0  0  0  0  0  0  0  0
    2.9625   -1.4472    3.5734 F   0  0  0  0  0  0  0  0  0  0  0  0
  1  3  2  0  0  0  0
  2  1  2  0  0  0  0
  4  3  1  0  0  0  0
  5 21  1  0  0  0  0
  6  7  1  0  0  0  0
  7 13  1  0  0  0  0
  7  8  2  0  0  0  0
  8 14  1  0  0  0  0
  9  8  1  0  0  0  0
  9 15  1  0  0  0  0
 10  9  2  0  0  0  0
 11  6  2  0  0  0  0
 11 10  1  0  0  0  0
 12  6  1  0  0  0  0
 16 10  1  0  0  0  0
 17 11  1  0  0  0  0
 18 19  2  0  0  0  0
 18 22  1  0  0  0  0
 20 18  2  0  0  0  0
 21 18  1  0  0  0  0
 22 25  1  0  0  0  0
 22 24  1  0  0  0  0
 23 22  1  0  0  0  0
M  RAD  1   2   2
M  END
