Coordinates from ORCA-job C6H6+TfO-+NH2N2+-scan
 OpenBabel10121810013D

 25 23  0  0  0  0  0  0  0  0999 V2000
   -2.1133   -2.6356    0.1037 N   0  0  0  0  0  0  0  0  0  0  0  0
   -3.2302   -2.5788   -0.0289 N   0  0  0  0  0  0  0  0  0  0  0  0
   -0.9055   -2.6757    0.3900 N   0  0  0  0  0  0  0  0  0  0  0  0
   -0.3247   -2.8498   -0.4344 H   0  0  0  0  0  0  0  0  0  0  0  0
   -0.0741   -2.4265    1.8796 H   0  0  0  0  0  0  0  0  0  0  0  0
    0.3467   -1.1995   -3.6670 C   0  0  0  0  0  0  0  0  0  0  0  0
    0.3732   -1.9461   -4.8441 C   0  0  0  0  0  0  0  0  0  0  0  0
    1.1028   -3.1341   -4.9010 C   0  0  0  0  0  0  0  0  0  0  0  0
    1.8006   -3.5779   -3.7782 C   0  0  0  0  0  0  0  0  0  0  0  0
    1.7781   -2.8315   -2.5988 C   0  0  0  0  0  0  0  0  0  0  0  0
    1.0518   -1.6400   -2.5455 C   0  0  0  0  0  0  0  0  0  0  0  0
   -0.2121   -0.2706   -3.6265 H   0  0  0  0  0  0  0  0  0  0  0  0
   -0.1690   -1.6007   -5.7176 H   0  0  0  0  0  0  0  0  0  0  0  0
    1.1264   -3.7122   -5.8184 H   0  0  0  0  0  0  0  0  0  0  0  0
    2.3691   -4.5005   -3.8227 H   0  0  0  0  0  0  0  0  0  0  0  0
    2.3291   -3.1626   -1.7257 H   0  0  0  0  0  0  0  0  0  0  0  0
    1.0534   -1.0484   -1.6358 H   0  0  0  0  0  0  0  0  0  0  0  0
    2.0512   -2.2074    2.1444 S   0  0  0  0  0  0  0  0  0  0  0  0
    2.9261   -2.6234    3.2106 O   0  0  0  0  0  0  0  0  0  0  0  0
    2.1435   -2.7405    0.7946 O   0  0  0  0  0  0  0  0  0  0  0  0
    0.5449   -2.2957    2.6571 O   0  0  0  0  0  0  0  0  0  0  0  0
    2.2252   -0.3436    1.9771 C   0  0  0  0  0  0  0  0  0  0  0  0
    1.3081    0.1084    1.1130 F   0  0  0  0  0  0  0  0  0  0  0  0
    2.0485    0.2463    3.1523 F   0  0  0  0  0  0  0  0  0  0  0  0
    3.4389   -0.0639    1.5131 F   0  0  0  0  0  0  0  0  0  0  0  0
  1  3  2  0  0  0  0
  2  1  2  0  0  0  0
  4  3  1  0  0  0  0
  5 21  1  0  0  0  0
  6 12  1  0  0  0  0
  6 11  2  0  0  0  0
  7  6  1  0  0  0  0
  8  7  2  0  0  0  0
  8  9  1  0  0  0  0
  9 10  2  0  0  0  0
 10 11  1  0  0  0  0
 10 16  1  0  0  0  0
 11 17  1  0  0  0  0
 13  7  1  0  0  0  0
 14  8  1  0  0  0  0
 15  9  1  0  0  0  0
 18 21  1  0  0  0  0
 18 19  2  0  0  0  0
 20 18  2  0  0  0  0
 22 18  1  0  0  0  0
 22 24  1  0  0  0  0
 23 22  1  0  0  0  0
 25 22  1  0  0  0  0
M  RAD  1   2   2
M  END
