Coordinates from ORCA-job C6H6+TfO-+NH2N2+-scan
 OpenBabel10121810013D

 25 23  0  0  0  0  0  0  0  0999 V2000
   -1.2691   -1.0681   -0.6645 N   0  0  0  0  0  0  0  0  0  0  0  0
   -2.3250   -0.6728   -0.6537 N   0  0  0  0  0  0  0  0  0  0  0  0
   -0.1706   -1.6546   -0.6543 N   0  0  0  0  0  0  0  0  0  0  0  0
    0.5552   -1.0912   -1.0971 H   0  0  0  0  0  0  0  0  0  0  0  0
    0.2738   -2.7429    0.5971 H   0  0  0  0  0  0  0  0  0  0  0  0
   -0.1280   -1.8024   -4.5059 C   0  0  0  0  0  0  0  0  0  0  0  0
   -0.2962   -2.7458   -3.4936 C   0  0  0  0  0  0  0  0  0  0  0  0
    0.7138   -2.9511   -2.5519 C   0  0  0  0  0  0  0  0  0  0  0  0
    1.9280   -2.2702   -2.6783 C   0  0  0  0  0  0  0  0  0  0  0  0
    2.0922   -1.3224   -3.6901 C   0  0  0  0  0  0  0  0  0  0  0  0
    1.0628   -1.0814   -4.6001 C   0  0  0  0  0  0  0  0  0  0  0  0
   -0.9206   -1.6356   -5.2275 H   0  0  0  0  0  0  0  0  0  0  0  0
   -1.2206   -3.3100   -3.4278 H   0  0  0  0  0  0  0  0  0  0  0  0
    0.5972   -3.7113   -1.7916 H   0  0  0  0  0  0  0  0  0  0  0  0
    2.7278   -2.4615   -1.9715 H   0  0  0  0  0  0  0  0  0  0  0  0
    3.0296   -0.7834   -3.7766 H   0  0  0  0  0  0  0  0  0  0  0  0
    1.1938   -0.3483   -5.3884 H   0  0  0  0  0  0  0  0  0  0  0  0
    2.0767   -3.1552    1.7222 S   0  0  0  0  0  0  0  0  0  0  0  0
    2.5773   -4.3647    2.3251 O   0  0  0  0  0  0  0  0  0  0  0  0
    2.7738   -2.4551    0.6573 O   0  0  0  0  0  0  0  0  0  0  0  0
    0.5559   -3.3976    1.3047 O   0  0  0  0  0  0  0  0  0  0  0  0
    1.8322   -1.8996    3.1001 C   0  0  0  0  0  0  0  0  0  0  0  0
    1.1582   -0.8486    2.6203 F   0  0  0  0  0  0  0  0  0  0  0  0
    1.1489   -2.4397    4.1016 F   0  0  0  0  0  0  0  0  0  0  0  0
    3.0218   -1.4969    3.5354 F   0  0  0  0  0  0  0  0  0  0  0  0
  1  3  2  0  0  0  0
  1  2  2  0  0  0  0
  4  3  1  0  0  0  0
  5 21  1  0  0  0  0
  6  7  1  0  0  0  0
  7 13  1  0  0  0  0
  7  8  2  0  0  0  0
  8 14  1  0  0  0  0
  9  8  1  0  0  0  0
  9 15  1  0  0  0  0
 10  9  2  0  0  0  0
 11  6  2  0  0  0  0
 11 10  1  0  0  0  0
 12  6  1  0  0  0  0
 16 10  1  0  0  0  0
 17 11  1  0  0  0  0
 18 19  2  0  0  0  0
 18 22  1  0  0  0  0
 20 18  2  0  0  0  0
 21 18  1  0  0  0  0
 22 25  1  0  0  0  0
 22 24  1  0  0  0  0
 23 22  1  0  0  0  0
M  RAD  1   2   2
M  END
