Coordinates from ORCA-job C6H6+TfO-+NH2N2+-scan
 OpenBabel10121810013D

 25 25  0  0  1  0  0  0  0  0999 V2000
   -1.1989   -1.1510   -1.1447 N   0  0  0  0  0  0  0  0  0  0  0  0
   -1.5711   -1.6055   -2.2140 N   0  0  0  0  0  0  0  0  0  0  0  0
    0.0448   -1.5226   -0.6745 N   0  0  0  0  0  0  0  0  0  0  0  0
    0.5923   -0.6798   -0.4874 H   0  0  0  0  0  0  0  0  0  0  0  0
    0.0436   -2.4466    0.6392 H   0  0  0  0  0  0  0  0  0  0  0  0
   -0.2580   -1.7603   -4.2752 C   0  0  0  0  0  0  0  0  0  0  0  0
   -0.4669   -2.4330   -2.9558 C   0  0  1  0  0  0  0  0  0  0  0  0
    0.7552   -2.5241   -2.0735 C   0  0  1  0  0  0  0  0  0  0  0  0
    2.0099   -1.9200   -2.5342 C   0  0  0  0  0  0  0  0  0  0  0  0
    2.0762   -1.2945   -3.7246 C   0  0  0  0  0  0  0  0  0  0  0  0
    0.9214   -1.2160   -4.6095 C   0  0  0  0  0  0  0  0  0  0  0  0
   -1.1152   -1.7037   -4.9359 H   0  0  0  0  0  0  0  0  0  0  0  0
   -0.9518   -3.4041   -3.0869 H   0  0  0  0  0  0  0  0  0  0  0  0
    0.8833   -3.4570   -1.5366 H   0  0  0  0  0  0  0  0  0  0  0  0
    2.8763   -2.0266   -1.8922 H   0  0  0  0  0  0  0  0  0  0  0  0
    3.0133   -0.8629   -4.0588 H   0  0  0  0  0  0  0  0  0  0  0  0
    1.0379   -0.7216   -5.5676 H   0  0  0  0  0  0  0  0  0  0  0  0
    1.6255   -3.3988    1.8030 S   0  0  0  0  0  0  0  0  0  0  0  0
    1.6795   -4.5883    2.6173 O   0  0  0  0  0  0  0  0  0  0  0  0
    2.4579   -3.2278    0.6206 O   0  0  0  0  0  0  0  0  0  0  0  0
    0.1176   -3.0750    1.4591 O   0  0  0  0  0  0  0  0  0  0  0  0
    2.0289   -1.9401    2.9152 C   0  0  0  0  0  0  0  0  0  0  0  0
    1.7954   -0.8017    2.2444 F   0  0  0  0  0  0  0  0  0  0  0  0
    1.2776   -1.9621    4.0090 F   0  0  0  0  0  0  0  0  0  0  0  0
    3.3138   -1.9870    3.2548 F   0  0  0  0  0  0  0  0  0  0  0  0
  1  3  1  0  0  0  0
  2  1  2  0  0  0  0
  3  4  1  0  0  0  0
  5 21  1  0  0  0  0
  6  7  1  0  0  0  0
  7 13  1  6  0  0  0
  7  2  1  0  0  0  0
  7  8  1  0  0  0  0
  8 14  1  1  0  0  0
  8  3  1  0  0  0  0
  9  8  1  0  0  0  0
  9 15  1  0  0  0  0
 10  9  2  0  0  0  0
 11  6  2  0  0  0  0
 11 10  1  0  0  0  0
 12  6  1  0  0  0  0
 16 10  1  0  0  0  0
 17 11  1  0  0  0  0
 18 19  2  0  0  0  0
 18 22  1  0  0  0  0
 20 18  2  0  0  0  0
 21 18  1  0  0  0  0
 22 25  1  0  0  0  0
 22 24  1  0  0  0  0
 23 22  1  0  0  0  0
M  END
