Coordinates from ORCA-job C6H6+TfO-+NH2N2+-scan
 OpenBabel10121810013D

 25 23  0  0  0  0  0  0  0  0999 V2000
   -2.1653   -2.6519    0.2325 N   0  0  0  0  0  0  0  0  0  0  0  0
   -3.2844   -2.5912    0.1235 N   0  0  0  0  0  0  0  0  0  0  0  0
   -0.9519   -2.6965    0.4947 N   0  0  0  0  0  0  0  0  0  0  0  0
   -0.3880   -2.8765   -0.3396 H   0  0  0  0  0  0  0  0  0  0  0  0
   -0.0797   -2.4390    1.9649 H   0  0  0  0  0  0  0  0  0  0  0  0
    0.3969   -1.1752   -3.7041 C   0  0  0  0  0  0  0  0  0  0  0  0
    0.4508   -1.9089   -4.8883 C   0  0  0  0  0  0  0  0  0  0  0  0
    1.1582   -3.1106   -4.9329 C   0  0  0  0  0  0  0  0  0  0  0  0
    1.8068   -3.5808   -3.7916 C   0  0  0  0  0  0  0  0  0  0  0  0
    1.7564   -2.8475   -2.6051 C   0  0  0  0  0  0  0  0  0  0  0  0
    1.0518   -1.6428   -2.5636 C   0  0  0  0  0  0  0  0  0  0  0  0
   -0.1450   -0.2360   -3.6721 H   0  0  0  0  0  0  0  0  0  0  0  0
   -0.0528   -1.5431   -5.7766 H   0  0  0  0  0  0  0  0  0  0  0  0
    1.2030   -3.6789   -5.8558 H   0  0  0  0  0  0  0  0  0  0  0  0
    2.3583   -4.5141   -3.8270 H   0  0  0  0  0  0  0  0  0  0  0  0
    2.2695   -3.1988   -1.7170 H   0  0  0  0  0  0  0  0  0  0  0  0
    1.0317   -1.0616   -1.6474 H   0  0  0  0  0  0  0  0  0  0  0  0
    2.0522   -2.2108    2.1291 S   0  0  0  0  0  0  0  0  0  0  0  0
    2.9807   -2.6007    3.1590 O   0  0  0  0  0  0  0  0  0  0  0  0
    2.0853   -2.7648    0.7850 O   0  0  0  0  0  0  0  0  0  0  0  0
    0.5724   -2.3068    2.7139 O   0  0  0  0  0  0  0  0  0  0  0  0
    2.1966   -0.3482    1.9228 C   0  0  0  0  0  0  0  0  0  0  0  0
    1.2250    0.0795    1.1070 F   0  0  0  0  0  0  0  0  0  0  0  0
    2.0826    0.2594    3.0966 F   0  0  0  0  0  0  0  0  0  0  0  0
    3.3776   -0.0643    1.3834 F   0  0  0  0  0  0  0  0  0  0  0  0
  1  3  2  0  0  0  0
  2  1  2  0  0  0  0
  4  3  1  0  0  0  0
  5 21  1  0  0  0  0
  6 12  1  0  0  0  0
  6 11  2  0  0  0  0
  7  6  1  0  0  0  0
  8  7  2  0  0  0  0
  8  9  1  0  0  0  0
  9 10  2  0  0  0  0
 10 11  1  0  0  0  0
 10 16  1  0  0  0  0
 11 17  1  0  0  0  0
 13  7  1  0  0  0  0
 14  8  1  0  0  0  0
 15  9  1  0  0  0  0
 18 21  1  0  0  0  0
 18 19  2  0  0  0  0
 20 18  2  0  0  0  0
 22 18  1  0  0  0  0
 22 24  1  0  0  0  0
 23 22  1  0  0  0  0
 25 22  1  0  0  0  0
M  RAD  1   2   2
M  END
