Coordinates from ORCA-job C6H6+TfO-+NH2N2+-scan
 OpenBabel10121810013D

 25 23  0  0  0  0  0  0  0  0999 V2000
   -1.2536   -1.6318   -0.5018 N   0  0  0  0  0  0  0  0  0  0  0  0
   -2.3805   -1.5694   -0.3899 N   0  0  0  0  0  0  0  0  0  0  0  0
   -0.1077   -2.0148   -0.8920 N   0  0  0  0  0  0  0  0  0  0  0  0
    0.5111   -1.2068   -1.0048 H   0  0  0  0  0  0  0  0  0  0  0  0
    0.8519   -2.9541    0.2817 H   0  0  0  0  0  0  0  0  0  0  0  0
    0.0730   -1.2391   -4.3061 C   0  0  0  0  0  0  0  0  0  0  0  0
   -0.6148   -2.1569   -3.5216 C   0  0  0  0  0  0  0  0  0  0  0  0
    0.0834   -2.9595   -2.5889 C   0  0  0  0  0  0  0  0  0  0  0  0
    1.4932   -3.0119   -2.6868 C   0  0  0  0  0  0  0  0  0  0  0  0
    2.1720   -2.0914   -3.4762 C   0  0  0  0  0  0  0  0  0  0  0  0
    1.4687   -1.1812   -4.2694 C   0  0  0  0  0  0  0  0  0  0  0  0
   -0.4766   -0.5874   -4.9773 H   0  0  0  0  0  0  0  0  0  0  0  0
   -1.6957   -2.2251   -3.5857 H   0  0  0  0  0  0  0  0  0  0  0  0
   -0.4357   -3.8015   -2.1449 H   0  0  0  0  0  0  0  0  0  0  0  0
    2.0455   -3.7328   -2.0941 H   0  0  0  0  0  0  0  0  0  0  0  0
    3.2565   -2.0999   -3.4960 H   0  0  0  0  0  0  0  0  0  0  0  0
    2.0028   -0.4690   -4.8876 H   0  0  0  0  0  0  0  0  0  0  0  0
    2.5005   -2.2557    1.4764 S   0  0  0  0  0  0  0  0  0  0  0  0
    3.7564   -2.8788    1.8071 O   0  0  0  0  0  0  0  0  0  0  0  0
    2.3999   -1.0556    0.6628 O   0  0  0  0  0  0  0  0  0  0  0  0
    1.5165   -3.3780    0.8963 O   0  0  0  0  0  0  0  0  0  0  0  0
    1.6151   -1.8759    3.0912 C   0  0  0  0  0  0  0  0  0  0  0  0
    0.3615   -1.4986    2.8210 F   0  0  0  0  0  0  0  0  0  0  0  0
    1.5954   -2.9499    3.8694 F   0  0  0  0  0  0  0  0  0  0  0  0
    2.2501   -0.8853    3.7084 F   0  0  0  0  0  0  0  0  0  0  0  0
  1  2  2  0  0  0  0
  3  1  2  0  0  0  0
  4  3  1  0  0  0  0
  5 21  1  0  0  0  0
  6 11  2  0  0  0  0
  6  7  1  0  0  0  0
  7  8  2  0  0  0  0
  8 14  1  0  0  0  0
  9  8  1  0  0  0  0
  9 15  1  0  0  0  0
 10  9  2  0  0  0  0
 11 10  1  0  0  0  0
 12  6  1  0  0  0  0
 13  7  1  0  0  0  0
 16 10  1  0  0  0  0
 17 11  1  0  0  0  0
 18 19  2  0  0  0  0
 18 22  1  0  0  0  0
 20 18  2  0  0  0  0
 21 18  1  0  0  0  0
 22 25  1  0  0  0  0
 22 24  1  0  0  0  0
 23 22  1  0  0  0  0
M  RAD  1   2   2
M  END
