Coordinates from ORCA-job C6H6+TfO-+NH2N2+-scan
 OpenBabel10121810013D

 25 23  0  0  0  0  0  0  0  0999 V2000
   -2.1130   -0.7566    1.1653 N   0  0  0  0  0  0  0  0  0  0  0  0
   -1.6973   -0.9592    0.1727 N   0  0  0  0  0  0  0  0  0  0  0  0
    1.5755   -2.4241   -1.1505 N   0  0  0  0  0  0  0  0  0  0  0  0
    2.4737   -2.2862   -0.6614 H   0  0  0  0  0  0  0  0  0  0  0  0
    0.9077   -2.8153   -0.4077 H   0  0  0  0  0  0  0  0  0  0  0  0
   -0.2325   -2.1424   -4.2569 C   0  0  0  0  0  0  0  0  0  0  0  0
   -0.0348   -2.4643   -2.8093 C   0  0  0  0  0  0  0  0  0  0  0  0
    1.3586   -2.2023   -2.2373 C   0  0  0  0  0  0  0  0  0  0  0  0
    2.3647   -1.6604   -3.1584 C   0  0  0  0  0  0  0  0  0  0  0  0
    2.0678   -1.4077   -4.4485 C   0  0  0  0  0  0  0  0  0  0  0  0
    0.7516   -1.6479   -5.0186 C   0  0  0  0  0  0  0  0  0  0  0  0
   -1.2191   -2.3275   -4.6675 H   0  0  0  0  0  0  0  0  0  0  0  0
   -0.7566   -1.9041   -2.2007 H   0  0  0  0  0  0  0  0  0  0  0  0
   -0.2811   -3.5190   -2.6282 H   0  0  0  0  0  0  0  0  0  0  0  0
    3.3559   -1.4724   -2.7583 H   0  0  0  0  0  0  0  0  0  0  0  0
    2.8406   -1.0074   -5.0967 H   0  0  0  0  0  0  0  0  0  0  0  0
    0.5877   -1.4198   -6.0647 H   0  0  0  0  0  0  0  0  0  0  0  0
    1.6554   -3.1819    1.9592 S   0  0  0  0  0  0  0  0  0  0  0  0
    1.8558   -4.3016    2.8643 O   0  0  0  0  0  0  0  0  0  0  0  0
    2.8444   -2.6672    1.2333 O   0  0  0  0  0  0  0  0  0  0  0  0
    0.4736   -3.3054    1.0333 O   0  0  0  0  0  0  0  0  0  0  0  0
    1.1490   -1.7365    3.0376 C   0  0  0  0  0  0  0  0  0  0  0  0
    0.9196   -0.6530    2.2690 F   0  0  0  0  0  0  0  0  0  0  0  0
    0.0290   -2.0137    3.7108 F   0  0  0  0  0  0  0  0  0  0  0  0
    2.1124   -1.4345    3.9105 F   0  0  0  0  0  0  0  0  0  0  0  0
  2  1  3  0  0  0  0
  3  4  1  0  0  0  0
  3  5  1  0  0  0  0
  6  7  1  0  0  0  0
  7 14  1  0  0  0  0
  7  8  1  0  0  0  0
  7 13  1  0  0  0  0
  8  3  1  0  0  0  0
  9 15  1  0  0  0  0
  9  8  2  0  0  0  0
 10  9  1  0  0  0  0
 11 10  1  0  0  0  0
 11  6  2  0  0  0  0
 12  6  1  0  0  0  0
 16 10  1  0  0  0  0
 17 11  1  0  0  0  0
 18 19  1  0  0  0  0
 18 22  1  0  0  0  0
 20 18  2  0  0  0  0
 21 18  2  0  0  0  0
 22 24  1  0  0  0  0
 22 25  1  0  0  0  0
 23 22  1  0  0  0  0
M  RAD  2  10   2  19   2
M  END
