Coordinates from ORCA-job C6H6+TfO-+NH2N2+-scan
 OpenBabel10121810013D

 25 23  0  0  0  0  0  0  0  0999 V2000
   -1.6741   -1.1824   -0.7338 N   0  0  0  0  0  0  0  0  0  0  0  0
   -2.5876   -0.5320   -0.8510 N   0  0  0  0  0  0  0  0  0  0  0  0
   -0.6989   -1.9078   -0.4888 N   0  0  0  0  0  0  0  0  0  0  0  0
   -0.1284   -2.0812   -1.3252 H   0  0  0  0  0  0  0  0  0  0  0  0
   -0.3050   -2.4702    1.0529 H   0  0  0  0  0  0  0  0  0  0  0  0
    0.2058   -1.9773   -4.4862 C   0  0  0  0  0  0  0  0  0  0  0  0
    0.3592   -2.9854   -3.5347 C   0  0  0  0  0  0  0  0  0  0  0  0
    1.2500   -2.8150   -2.4697 C   0  0  0  0  0  0  0  0  0  0  0  0
    2.0092   -1.6435   -2.3807 C   0  0  0  0  0  0  0  0  0  0  0  0
    1.8568   -0.6382   -3.3342 C   0  0  0  0  0  0  0  0  0  0  0  0
    0.9541   -0.8045   -4.3847 C   0  0  0  0  0  0  0  0  0  0  0  0
   -0.4885   -2.1086   -5.3087 H   0  0  0  0  0  0  0  0  0  0  0  0
   -0.2150   -3.9020   -3.6158 H   0  0  0  0  0  0  0  0  0  0  0  0
    1.3928   -3.6018   -1.7375 H   0  0  0  0  0  0  0  0  0  0  0  0
    2.7058   -1.5181   -1.5596 H   0  0  0  0  0  0  0  0  0  0  0  0
    2.4429    0.2712   -3.2618 H   0  0  0  0  0  0  0  0  0  0  0  0
    0.8364   -0.0220   -5.1262 H   0  0  0  0  0  0  0  0  0  0  0  0
    1.3519   -3.5161    1.9831 S   0  0  0  0  0  0  0  0  0  0  0  0
    1.4157   -4.3903    3.1272 O   0  0  0  0  0  0  0  0  0  0  0  0
    1.6963   -3.9516    0.6401 O   0  0  0  0  0  0  0  0  0  0  0  0
   -0.0622   -2.7921    1.9779 O   0  0  0  0  0  0  0  0  0  0  0  0
    2.4664   -2.0480    2.3460 C   0  0  0  0  0  0  0  0  0  0  0  0
    2.3056   -1.1244    1.3893 F   0  0  0  0  0  0  0  0  0  0  0  0
    2.1666   -1.5141    3.5237 F   0  0  0  0  0  0  0  0  0  0  0  0
    3.7329   -2.4548    2.3495 F   0  0  0  0  0  0  0  0  0  0  0  0
  1  3  2  0  0  0  0
  2  1  2  0  0  0  0
  4  3  1  0  0  0  0
  5 21  1  0  0  0  0
  6 11  2  0  0  0  0
  6  7  1  0  0  0  0
  7  8  2  0  0  0  0
  8  9  1  0  0  0  0
  8 14  1  0  0  0  0
  9 15  1  0  0  0  0
 10 16  1  0  0  0  0
 10  9  2  0  0  0  0
 11 10  1  0  0  0  0
 12  6  1  0  0  0  0
 13  7  1  0  0  0  0
 17 11  1  0  0  0  0
 18 22  1  0  0  0  0
 18 19  2  0  0  0  0
 20 18  2  0  0  0  0
 21 18  1  0  0  0  0
 22 25  1  0  0  0  0
 22 24  1  0  0  0  0
 23 22  1  0  0  0  0
M  RAD  1   2   2
M  END
