Coordinates from ORCA-job C6H6+TfO-+NH2N2+-scan
 OpenBabel10121810013D

 25 23  0  0  0  0  0  0  0  0999 V2000
   -2.0966   -2.6364    0.0636 N   0  0  0  0  0  0  0  0  0  0  0  0
   -3.2127   -2.5815   -0.0764 N   0  0  0  0  0  0  0  0  0  0  0  0
   -0.8906   -2.6751    0.3575 N   0  0  0  0  0  0  0  0  0  0  0  0
   -0.3045   -2.8468   -0.4638 H   0  0  0  0  0  0  0  0  0  0  0  0
   -0.0719   -2.4270    1.8560 H   0  0  0  0  0  0  0  0  0  0  0  0
    0.3398   -1.1985   -3.6506 C   0  0  0  0  0  0  0  0  0  0  0  0
    0.3583   -1.9508   -4.8242 C   0  0  0  0  0  0  0  0  0  0  0  0
    1.0880   -3.1388   -4.8797 C   0  0  0  0  0  0  0  0  0  0  0  0
    1.7951   -3.5765   -3.7606 C   0  0  0  0  0  0  0  0  0  0  0  0
    1.7802   -2.8246   -2.5846 C   0  0  0  0  0  0  0  0  0  0  0  0
    1.0528   -1.6337   -2.5319 C   0  0  0  0  0  0  0  0  0  0  0  0
   -0.2197   -0.2700   -3.6101 H   0  0  0  0  0  0  0  0  0  0  0  0
   -0.1904   -1.6104   -5.6956 H   0  0  0  0  0  0  0  0  0  0  0  0
    1.1049   -3.7216   -5.7944 H   0  0  0  0  0  0  0  0  0  0  0  0
    2.3639   -4.4989   -3.8050 H   0  0  0  0  0  0  0  0  0  0  0  0
    2.3370   -3.1516   -1.7137 H   0  0  0  0  0  0  0  0  0  0  0  0
    1.0563   -1.0396   -1.6240 H   0  0  0  0  0  0  0  0  0  0  0  0
    2.0508   -2.2086    2.1372 S   0  0  0  0  0  0  0  0  0  0  0  0
    2.9181   -2.6288    3.2079 O   0  0  0  0  0  0  0  0  0  0  0  0
    2.1505   -2.7378    0.7866 O   0  0  0  0  0  0  0  0  0  0  0  0
    0.5406   -2.2967    2.6388 O   0  0  0  0  0  0  0  0  0  0  0  0
    2.2289   -0.3446    1.9767 C   0  0  0  0  0  0  0  0  0  0  0  0
    1.3165    0.1121    1.1101 F   0  0  0  0  0  0  0  0  0  0  0  0
    2.0483    0.2420    3.1529 F   0  0  0  0  0  0  0  0  0  0  0  0
    3.4452   -0.0660    1.5186 F   0  0  0  0  0  0  0  0  0  0  0  0
  1  3  2  0  0  0  0
  2  1  2  0  0  0  0
  4  3  1  0  0  0  0
  5 21  1  0  0  0  0
  6 12  1  0  0  0  0
  6 11  2  0  0  0  0
  7  6  1  0  0  0  0
  8  7  2  0  0  0  0
  8  9  1  0  0  0  0
  9 10  2  0  0  0  0
 10 11  1  0  0  0  0
 10 16  1  0  0  0  0
 11 17  1  0  0  0  0
 13  7  1  0  0  0  0
 14  8  1  0  0  0  0
 15  9  1  0  0  0  0
 18 21  1  0  0  0  0
 18 19  2  0  0  0  0
 20 18  2  0  0  0  0
 22 18  1  0  0  0  0
 22 24  1  0  0  0  0
 23 22  1  0  0  0  0
 25 22  1  0  0  0  0
M  RAD  1   2   2
M  END
