Coordinates from ORCA-job C6H6+TfO-+NH2N2+-scan
 OpenBabel10121810013D

 25 23  0  0  0  0  0  0  0  0999 V2000
   -1.2802   -1.0461   -0.6568 N   0  0  0  0  0  0  0  0  0  0  0  0
   -2.3304   -0.6361   -0.6477 N   0  0  0  0  0  0  0  0  0  0  0  0
   -0.1872   -1.6418   -0.6421 N   0  0  0  0  0  0  0  0  0  0  0  0
    0.5367   -1.1047   -1.1195 H   0  0  0  0  0  0  0  0  0  0  0  0
    0.2518   -2.7308    0.6079 H   0  0  0  0  0  0  0  0  0  0  0  0
   -0.1220   -1.8232   -4.5082 C   0  0  0  0  0  0  0  0  0  0  0  0
   -0.2748   -2.7657   -3.4926 C   0  0  0  0  0  0  0  0  0  0  0  0
    0.7385   -2.9507   -2.5506 C   0  0  0  0  0  0  0  0  0  0  0  0
    1.9388   -2.2457   -2.6745 C   0  0  0  0  0  0  0  0  0  0  0  0
    2.0873   -1.2986   -3.6896 C   0  0  0  0  0  0  0  0  0  0  0  0
    1.0556   -1.0808   -4.6028 C   0  0  0  0  0  0  0  0  0  0  0  0
   -0.9166   -1.6728   -5.2312 H   0  0  0  0  0  0  0  0  0  0  0  0
   -1.1892   -3.3456   -3.4252 H   0  0  0  0  0  0  0  0  0  0  0  0
    0.6321   -3.7054   -1.7831 H   0  0  0  0  0  0  0  0  0  0  0  0
    2.7398   -2.4203   -1.9648 H   0  0  0  0  0  0  0  0  0  0  0  0
    3.0143   -0.7418   -3.7758 H   0  0  0  0  0  0  0  0  0  0  0  0
    1.1744   -0.3481   -5.3934 H   0  0  0  0  0  0  0  0  0  0  0  0
    2.0543   -3.1763    1.7230 S   0  0  0  0  0  0  0  0  0  0  0  0
    2.5311   -4.3922    2.3326 O   0  0  0  0  0  0  0  0  0  0  0  0
    2.7610   -2.5007    0.6487 O   0  0  0  0  0  0  0  0  0  0  0  0
    0.5261   -3.3880    1.3166 O   0  0  0  0  0  0  0  0  0  0  0  0
    1.8470   -1.9048    3.0923 C   0  0  0  0  0  0  0  0  0  0  0  0
    1.1933   -0.8428    2.6089 F   0  0  0  0  0  0  0  0  0  0  0  0
    1.1587   -2.4219    4.1026 F   0  0  0  0  0  0  0  0  0  0  0  0
    3.0482   -1.5254    3.5166 F   0  0  0  0  0  0  0  0  0  0  0  0
  1  2  2  0  0  0  0
  1  3  2  0  0  0  0
  4  3  1  0  0  0  0
  5 21  1  0  0  0  0
  6  7  1  0  0  0  0
  7 13  1  0  0  0  0
  7  8  2  0  0  0  0
  8 14  1  0  0  0  0
  9  8  1  0  0  0  0
  9 15  1  0  0  0  0
 10  9  2  0  0  0  0
 11  6  2  0  0  0  0
 11 10  1  0  0  0  0
 12  6  1  0  0  0  0
 16 10  1  0  0  0  0
 17 11  1  0  0  0  0
 18 19  2  0  0  0  0
 18 22  1  0  0  0  0
 20 18  2  0  0  0  0
 21 18  1  0  0  0  0
 22 25  1  0  0  0  0
 22 24  1  0  0  0  0
 23 22  1  0  0  0  0
M  RAD  1   2   2
M  END
