Coordinates from ORCA-job C6H6+TfO-+NH2N2+-scan
 OpenBabel10121810013D

 25 23  0  0  0  0  0  0  0  0999 V2000
   -1.6353   -3.0072   -0.8367 N   0  0  0  0  0  0  0  0  0  0  0  0
   -2.7275   -3.0558   -1.1093 N   0  0  0  0  0  0  0  0  0  0  0  0
   -0.4733   -2.9634   -0.4072 N   0  0  0  0  0  0  0  0  0  0  0  0
    0.2138   -2.9349   -1.1676 H   0  0  0  0  0  0  0  0  0  0  0  0
    0.0506   -2.7487    1.2003 H   0  0  0  0  0  0  0  0  0  0  0  0
    0.6545   -0.8795   -3.4051 C   0  0  0  0  0  0  0  0  0  0  0  0
   -0.1049   -1.8802   -4.0127 C   0  0  0  0  0  0  0  0  0  0  0  0
    0.2792   -3.2162   -3.8922 C   0  0  0  0  0  0  0  0  0  0  0  0
    1.4283   -3.5509   -3.1725 C   0  0  0  0  0  0  0  0  0  0  0  0
    2.1855   -2.5496   -2.5598 C   0  0  0  0  0  0  0  0  0  0  0  0
    1.7947   -1.2141   -2.6752 C   0  0  0  0  0  0  0  0  0  0  0  0
    0.3546    0.1587   -3.4957 H   0  0  0  0  0  0  0  0  0  0  0  0
   -0.9926   -1.6201   -4.5787 H   0  0  0  0  0  0  0  0  0  0  0  0
   -0.3073   -3.9940   -4.3692 H   0  0  0  0  0  0  0  0  0  0  0  0
    1.7317   -4.5883   -3.0839 H   0  0  0  0  0  0  0  0  0  0  0  0
    3.0590   -2.8086   -1.9740 H   0  0  0  0  0  0  0  0  0  0  0  0
    2.3760   -0.4393   -2.1887 H   0  0  0  0  0  0  0  0  0  0  0  0
    1.9847   -2.2648    2.0390 S   0  0  0  0  0  0  0  0  0  0  0  0
    2.5737   -2.5367    3.3261 O   0  0  0  0  0  0  0  0  0  0  0  0
    2.5417   -2.7660    0.7947 O   0  0  0  0  0  0  0  0  0  0  0  0
    0.4301   -2.5961    2.1190 O   0  0  0  0  0  0  0  0  0  0  0  0
    1.9047   -0.3968    1.8520 C   0  0  0  0  0  0  0  0  0  0  0  0
    1.1711   -0.0899    0.7753 F   0  0  0  0  0  0  0  0  0  0  0  0
    1.3574    0.1570    2.9270 F   0  0  0  0  0  0  0  0  0  0  0  0
    3.1384    0.0753    1.6863 F   0  0  0  0  0  0  0  0  0  0  0  0
  1  3  2  0  0  0  0
  2  1  2  0  0  0  0
  4  3  1  0  0  0  0
  5 21  1  0  0  0  0
  6 11  2  0  0  0  0
  7  8  2  0  0  0  0
  7  6  1  0  0  0  0
  8  9  1  0  0  0  0
  9 15  1  0  0  0  0
  9 10  2  0  0  0  0
 10 16  1  0  0  0  0
 11 10  1  0  0  0  0
 11 17  1  0  0  0  0
 12  6  1  0  0  0  0
 13  7  1  0  0  0  0
 14  8  1  0  0  0  0
 18 21  1  0  0  0  0
 18 19  2  0  0  0  0
 20 18  2  0  0  0  0
 22 18  1  0  0  0  0
 22 24  1  0  0  0  0
 23 22  1  0  0  0  0
 25 22  1  0  0  0  0
M  RAD  1   2   2
M  END
