Coordinates from ORCA-job C6H6+TfO-+NH2N2+-scan
 OpenBabel10121810013D

 25 25  0  0  1  0  0  0  0  0999 V2000
   -0.1988   -0.5526   -1.0003 N   0  0  0  0  0  0  0  0  0  0  0  0
   -0.9322   -0.8273   -1.9254 N   0  0  0  0  0  0  0  0  0  0  0  0
    0.9155   -1.6261   -0.9527 N   0  0  0  0  0  0  0  0  0  0  0  0
    1.7228   -1.1700   -0.5301 H   0  0  0  0  0  0  0  0  0  0  0  0
    0.5887   -2.6410    0.3062 H   0  0  0  0  0  0  0  0  0  0  0  0
   -0.5629   -1.9576   -4.1329 C   0  0  0  0  0  0  0  0  0  0  0  0
   -0.4461   -2.0586   -2.6434 C   0  0  1  0  0  0  0  0  0  0  0  0
    1.0119   -2.1572   -2.0360 C   0  0  1  0  0  0  0  0  0  0  0  0
    2.0590   -1.5956   -3.0137 C   0  0  0  0  0  0  0  0  0  0  0  0
    1.8170   -1.4040   -4.3133 C   0  0  0  0  0  0  0  0  0  0  0  0
    0.4956   -1.6521   -4.8919 C   0  0  0  0  0  0  0  0  0  0  0  0
   -1.5454   -2.1035   -4.5660 H   0  0  0  0  0  0  0  0  0  0  0  0
   -1.0777   -2.8662   -2.2554 H   0  0  0  0  0  0  0  0  0  0  0  0
    1.2269   -3.2457   -1.9954 H   0  0  0  0  0  0  0  0  0  0  0  0
    3.0436   -1.4074   -2.5913 H   0  0  0  0  0  0  0  0  0  0  0  0
    2.6048   -1.0525   -4.9714 H   0  0  0  0  0  0  0  0  0  0  0  0
    0.3826   -1.5689   -5.9675 H   0  0  0  0  0  0  0  0  0  0  0  0
    1.8570   -3.2689    1.9457 S   0  0  0  0  0  0  0  0  0  0  0  0
    2.1530   -4.5823    2.4628 O   0  0  0  0  0  0  0  0  0  0  0  0
    2.8550   -2.4557    1.2637 O   0  0  0  0  0  0  0  0  0  0  0  0
    0.5384   -3.3349    1.0623 O   0  0  0  0  0  0  0  0  0  0  0  0
    1.2272   -2.2335    3.3816 C   0  0  0  0  0  0  0  0  0  0  0  0
    0.7805   -1.0643    2.9182 F   0  0  0  0  0  0  0  0  0  0  0  0
    0.2427   -2.8668    4.0084 F   0  0  0  0  0  0  0  0  0  0  0  0
    2.2298   -2.0178    4.2290 F   0  0  0  0  0  0  0  0  0  0  0  0
  1  3  1  0  0  0  0
  2  1  1  0  0  0  0
  3  4  1  0  0  0  0
  5 21  1  0  0  0  0
  6  7  1  0  0  0  0
  7 13  1  1  0  0  0
  7  8  1  0  0  0  0
  7  2  1  0  0  0  0
  8 14  1  1  0  0  0
  8  3  1  0  0  0  0
  9 15  1  0  0  0  0
  9  8  1  0  0  0  0
 10  9  2  0  0  0  0
 11 10  1  0  0  0  0
 11  6  2  0  0  0  0
 12  6  1  0  0  0  0
 16 10  1  0  0  0  0
 17 11  1  0  0  0  0
 18 19  2  0  0  0  0
 18 22  1  0  0  0  0
 20 18  2  0  0  0  0
 21 18  1  0  0  0  0
 22 24  1  0  0  0  0
 22 25  1  0  0  0  0
 23 22  1  0  0  0  0
M  RAD  2   1   2   2   2
M  END
