Coordinates from ORCA-job C6H6+TfO-+NH2N2+-scan
 OpenBabel10121810013D

 25 23  0  0  0  0  0  0  0  0999 V2000
   -1.5805   -2.8649   -0.8235 N   0  0  0  0  0  0  0  0  0  0  0  0
   -2.6711   -2.8286   -1.1041 N   0  0  0  0  0  0  0  0  0  0  0  0
   -0.4231   -2.9190   -0.3828 N   0  0  0  0  0  0  0  0  0  0  0  0
    0.2763   -2.8825   -1.1318 H   0  0  0  0  0  0  0  0  0  0  0  0
    0.1132   -2.7780    1.2270 H   0  0  0  0  0  0  0  0  0  0  0  0
    0.6389   -0.9324   -3.4471 C   0  0  0  0  0  0  0  0  0  0  0  0
   -0.1068   -1.9214   -4.0898 C   0  0  0  0  0  0  0  0  0  0  0  0
    0.2729   -3.2598   -3.9849 C   0  0  0  0  0  0  0  0  0  0  0  0
    1.4036   -3.6095   -3.2447 C   0  0  0  0  0  0  0  0  0  0  0  0
    2.1472   -2.6207   -2.5959 C   0  0  0  0  0  0  0  0  0  0  0  0
    1.7610   -1.2822   -2.6961 C   0  0  0  0  0  0  0  0  0  0  0  0
    0.3428    0.1078   -3.5266 H   0  0  0  0  0  0  0  0  0  0  0  0
   -0.9815   -1.6503   -4.6708 H   0  0  0  0  0  0  0  0  0  0  0  0
   -0.3045   -4.0280   -4.4879 H   0  0  0  0  0  0  0  0  0  0  0  0
    1.7031   -4.6488   -3.1669 H   0  0  0  0  0  0  0  0  0  0  0  0
    3.0068   -2.8908   -1.9945 H   0  0  0  0  0  0  0  0  0  0  0  0
    2.3319   -0.5180   -2.1813 H   0  0  0  0  0  0  0  0  0  0  0  0
    2.0394   -2.2315    2.0469 S   0  0  0  0  0  0  0  0  0  0  0  0
    2.6801   -2.5476    3.2987 O   0  0  0  0  0  0  0  0  0  0  0  0
    2.5910   -2.6172    0.7594 O   0  0  0  0  0  0  0  0  0  0  0  0
    0.5109   -2.6639    2.1438 O   0  0  0  0  0  0  0  0  0  0  0  0
    1.8423   -0.3642    1.9812 C   0  0  0  0  0  0  0  0  0  0  0  0
    1.0782   -0.0368    0.9322 F   0  0  0  0  0  0  0  0  0  0  0  0
    1.2745    0.0847    3.0940 F   0  0  0  0  0  0  0  0  0  0  0  0
    3.0422    0.1933    1.8366 F   0  0  0  0  0  0  0  0  0  0  0  0
  1  3  2  0  0  0  0
  2  1  2  0  0  0  0
  4  3  1  0  0  0  0
  5 21  1  0  0  0  0
  6 11  2  0  0  0  0
  7  8  2  0  0  0  0
  7  6  1  0  0  0  0
  8  9  1  0  0  0  0
  9 15  1  0  0  0  0
  9 10  2  0  0  0  0
 10 16  1  0  0  0  0
 11 10  1  0  0  0  0
 11 17  1  0  0  0  0
 12  6  1  0  0  0  0
 13  7  1  0  0  0  0
 14  8  1  0  0  0  0
 18 21  1  0  0  0  0
 18 19  2  0  0  0  0
 20 18  2  0  0  0  0
 22 18  1  0  0  0  0
 22 24  1  0  0  0  0
 23 22  1  0  0  0  0
 25 22  1  0  0  0  0
M  RAD  1   2   2
M  END
