Coordinates from ORCA-job C6H6+TfO-+NH2N2+-scan
 OpenBabel10121810013D

 25 25  0  0  1  0  0  0  0  0999 V2000
   -1.1270   -1.0623   -1.1269 N   0  0  0  0  0  0  0  0  0  0  0  0
   -1.5354   -1.4845   -2.1998 N   0  0  0  0  0  0  0  0  0  0  0  0
    0.1315   -1.5565   -0.7223 N   0  0  0  0  0  0  0  0  0  0  0  0
    0.7322   -0.7593   -0.5078 H   0  0  0  0  0  0  0  0  0  0  0  0
    0.0966   -2.4913    0.5931 H   0  0  0  0  0  0  0  0  0  0  0  0
   -0.2883   -1.7759   -4.2854 C   0  0  0  0  0  0  0  0  0  0  0  0
   -0.5142   -2.3698   -2.9269 C   0  0  1  0  0  0  0  0  0  0  0  0
    0.7198   -2.4579   -2.0266 C   0  0  1  0  0  0  0  0  0  0  0  0
    1.9901   -1.8832   -2.5386 C   0  0  0  0  0  0  0  0  0  0  0  0
    2.0603   -1.3312   -3.7589 C   0  0  0  0  0  0  0  0  0  0  0  0
    0.9025   -1.2840   -4.6496 C   0  0  0  0  0  0  0  0  0  0  0  0
   -1.1449   -1.7360   -4.9481 H   0  0  0  0  0  0  0  0  0  0  0  0
   -1.0214   -3.3348   -3.0162 H   0  0  0  0  0  0  0  0  0  0  0  0
    0.8682   -3.4377   -1.5802 H   0  0  0  0  0  0  0  0  0  0  0  0
    2.8563   -1.9606   -1.8913 H   0  0  0  0  0  0  0  0  0  0  0  0
    3.0014   -0.9286   -4.1176 H   0  0  0  0  0  0  0  0  0  0  0  0
    1.0300   -0.8497   -5.6351 H   0  0  0  0  0  0  0  0  0  0  0  0
    1.6853   -3.3803    1.7862 S   0  0  0  0  0  0  0  0  0  0  0  0
    1.7873   -4.6050    2.5414 O   0  0  0  0  0  0  0  0  0  0  0  0
    2.5410   -3.0976    0.6421 O   0  0  0  0  0  0  0  0  0  0  0  0
    0.1716   -3.1300    1.4034 O   0  0  0  0  0  0  0  0  0  0  0  0
    1.9594   -1.9589    2.9831 C   0  0  0  0  0  0  0  0  0  0  0  0
    1.6829   -0.8043    2.3595 F   0  0  0  0  0  0  0  0  0  0  0  0
    1.1717   -2.0811    4.0439 F   0  0  0  0  0  0  0  0  0  0  0  0
    3.2318   -1.9496    3.3698 F   0  0  0  0  0  0  0  0  0  0  0  0
  1  3  1  0  0  0  0
  2  1  2  0  0  0  0
  3  4  1  0  0  0  0
  5 21  1  0  0  0  0
  6  7  1  0  0  0  0
  7 13  1  6  0  0  0
  7  2  1  0  0  0  0
  7  8  1  0  0  0  0
  8 14  1  1  0  0  0
  8  3  1  0  0  0  0
  9  8  1  0  0  0  0
  9 15  1  0  0  0  0
 10  9  2  0  0  0  0
 11  6  2  0  0  0  0
 11 10  1  0  0  0  0
 12  6  1  0  0  0  0
 16 10  1  0  0  0  0
 17 11  1  0  0  0  0
 18 19  2  0  0  0  0
 18 22  1  0  0  0  0
 20 18  2  0  0  0  0
 21 18  1  0  0  0  0
 22 25  1  0  0  0  0
 22 24  1  0  0  0  0
 23 22  1  0  0  0  0
M  END
