Coordinates from ORCA-job C6H6+TfO-+NH2N2+-scan
 OpenBabel10121810013D

 25 23  0  0  0  0  0  0  0  0999 V2000
   -1.6856   -2.7270   -0.5431 N   0  0  0  0  0  0  0  0  0  0  0  0
   -2.7861   -2.6426   -0.7693 N   0  0  0  0  0  0  0  0  0  0  0  0
   -0.5095   -2.8276   -0.1611 N   0  0  0  0  0  0  0  0  0  0  0  0
    0.1479   -2.8272   -0.9493 H   0  0  0  0  0  0  0  0  0  0  0  0
    0.1166   -2.7019    1.4199 H   0  0  0  0  0  0  0  0  0  0  0  0
    0.4989   -1.0132   -3.5958 C   0  0  0  0  0  0  0  0  0  0  0  0
    0.0361   -1.9902   -4.4774 C   0  0  0  0  0  0  0  0  0  0  0  0
    0.5178   -3.2965   -4.3885 C   0  0  0  0  0  0  0  0  0  0  0  0
    1.4643   -3.6264   -3.4184 C   0  0  0  0  0  0  0  0  0  0  0  0
    1.9306   -2.6499   -2.5346 C   0  0  0  0  0  0  0  0  0  0  0  0
    1.4445   -1.3425   -2.6240 C   0  0  0  0  0  0  0  0  0  0  0  0
    0.1266    0.0029   -3.6680 H   0  0  0  0  0  0  0  0  0  0  0  0
   -0.6976   -1.7338   -5.2338 H   0  0  0  0  0  0  0  0  0  0  0  0
    0.1587   -4.0544   -5.0760 H   0  0  0  0  0  0  0  0  0  0  0  0
    1.8433   -4.6403   -3.3515 H   0  0  0  0  0  0  0  0  0  0  0  0
    2.6616   -2.9006   -1.7744 H   0  0  0  0  0  0  0  0  0  0  0  0
    1.8048   -0.5867   -1.9349 H   0  0  0  0  0  0  0  0  0  0  0  0
    2.1061   -2.2336    2.1254 S   0  0  0  0  0  0  0  0  0  0  0  0
    2.8099   -2.5936    3.3303 O   0  0  0  0  0  0  0  0  0  0  0  0
    2.5580   -2.6267    0.8013 O   0  0  0  0  0  0  0  0  0  0  0  0
    0.5691   -2.6013    2.3121 O   0  0  0  0  0  0  0  0  0  0  0  0
    1.9881   -0.3587    2.0907 C   0  0  0  0  0  0  0  0  0  0  0  0
    1.1846    0.0144    1.0865 F   0  0  0  0  0  0  0  0  0  0  0  0
    1.4985    0.0993    3.2361 F   0  0  0  0  0  0  0  0  0  0  0  0
    3.2014    0.1480    1.8889 F   0  0  0  0  0  0  0  0  0  0  0  0
  1  3  2  0  0  0  0
  2  1  2  0  0  0  0
  4  3  1  0  0  0  0
  5 21  1  0  0  0  0
  6 11  2  0  0  0  0
  7  8  2  0  0  0  0
  7  6  1  0  0  0  0
  8  9  1  0  0  0  0
  9 15  1  0  0  0  0
  9 10  2  0  0  0  0
 10 16  1  0  0  0  0
 11 10  1  0  0  0  0
 11 17  1  0  0  0  0
 12  6  1  0  0  0  0
 13  7  1  0  0  0  0
 14  8  1  0  0  0  0
 18 21  1  0  0  0  0
 18 19  2  0  0  0  0
 20 18  2  0  0  0  0
 22 18  1  0  0  0  0
 22 24  1  0  0  0  0
 23 22  1  0  0  0  0
 25 22  1  0  0  0  0
M  RAD  1   2   2
M  END
