Coordinates from ORCA-job C6H6+TfO-+NH2N2+-scan
 OpenBabel10121810013D

 25 23  0  0  0  0  0  0  0  0999 V2000
   -1.7404   -1.2168   -0.6756 N   0  0  0  0  0  0  0  0  0  0  0  0
   -2.6985   -0.6235   -0.7146 N   0  0  0  0  0  0  0  0  0  0  0  0
   -0.7095   -1.8897   -0.5216 N   0  0  0  0  0  0  0  0  0  0  0  0
   -0.1773   -1.9838   -1.3941 H   0  0  0  0  0  0  0  0  0  0  0  0
   -0.2657   -2.4775    0.9987 H   0  0  0  0  0  0  0  0  0  0  0  0
    0.2500   -2.0058   -4.5040 C   0  0  0  0  0  0  0  0  0  0  0  0
    0.3519   -2.9542   -3.4867 C   0  0  0  0  0  0  0  0  0  0  0  0
    1.1989   -2.7268   -2.3963 C   0  0  0  0  0  0  0  0  0  0  0  0
    1.9742   -1.5628   -2.3531 C   0  0  0  0  0  0  0  0  0  0  0  0
    1.8730   -0.6170   -3.3717 C   0  0  0  0  0  0  0  0  0  0  0  0
    1.0092   -0.8372   -4.4449 C   0  0  0  0  0  0  0  0  0  0  0  0
   -0.4120   -2.1810   -5.3449 H   0  0  0  0  0  0  0  0  0  0  0  0
   -0.2308   -3.8679   -3.5344 H   0  0  0  0  0  0  0  0  0  0  0  0
    1.3091   -3.4730   -1.6178 H   0  0  0  0  0  0  0  0  0  0  0  0
    2.6421   -1.3955   -1.5157 H   0  0  0  0  0  0  0  0  0  0  0  0
    2.4700    0.2874   -3.3330 H   0  0  0  0  0  0  0  0  0  0  0  0
    0.9318   -0.1010   -5.2374 H   0  0  0  0  0  0  0  0  0  0  0  0
    1.3556   -3.5448    1.9761 S   0  0  0  0  0  0  0  0  0  0  0  0
    1.3799   -4.3976    3.1377 O   0  0  0  0  0  0  0  0  0  0  0  0
    1.7136   -4.0137    0.6482 O   0  0  0  0  0  0  0  0  0  0  0  0
   -0.0413   -2.7901    1.9318 O   0  0  0  0  0  0  0  0  0  0  0  0
    2.4954   -2.0943    2.3315 C   0  0  0  0  0  0  0  0  0  0  0  0
    2.3670   -1.1832    1.3573 F   0  0  0  0  0  0  0  0  0  0  0  0
    2.1896   -1.5343    3.4954 F   0  0  0  0  0  0  0  0  0  0  0  0
    3.7530   -2.5262    2.3604 F   0  0  0  0  0  0  0  0  0  0  0  0
  1  3  2  0  0  0  0
  2  1  2  0  0  0  0
  4  3  1  0  0  0  0
  5 21  1  0  0  0  0
  6 11  2  0  0  0  0
  6  7  1  0  0  0  0
  7  8  2  0  0  0  0
  8  9  1  0  0  0  0
  8 14  1  0  0  0  0
  9 15  1  0  0  0  0
 10 16  1  0  0  0  0
 10  9  2  0  0  0  0
 11 10  1  0  0  0  0
 12  6  1  0  0  0  0
 13  7  1  0  0  0  0
 17 11  1  0  0  0  0
 18 22  1  0  0  0  0
 18 19  2  0  0  0  0
 20 18  2  0  0  0  0
 21 18  1  0  0  0  0
 22 25  1  0  0  0  0
 22 24  1  0  0  0  0
 23 22  1  0  0  0  0
M  RAD  1   2   2
M  END
