Coordinates from ORCA-job C6H6+TfO-+NH2N2+-scan
 OpenBabel10121810013D

 25 23  0  0  0  0  0  0  0  0999 V2000
   -1.6321   -3.0118   -0.8569 N   0  0  0  0  0  0  0  0  0  0  0  0
   -2.7235   -3.0547   -1.1337 N   0  0  0  0  0  0  0  0  0  0  0  0
   -0.4715   -2.9736   -0.4240 N   0  0  0  0  0  0  0  0  0  0  0  0
    0.2175   -2.9481   -1.1822 H   0  0  0  0  0  0  0  0  0  0  0  0
    0.0539   -2.7710    1.1836 H   0  0  0  0  0  0  0  0  0  0  0  0
    0.6844   -0.8738   -3.3917 C   0  0  0  0  0  0  0  0  0  0  0  0
   -0.1168   -1.8686   -3.9537 C   0  0  0  0  0  0  0  0  0  0  0  0
    0.2514   -3.2091   -3.8345 C   0  0  0  0  0  0  0  0  0  0  0  0
    1.4262   -3.5542   -3.1625 C   0  0  0  0  0  0  0  0  0  0  0  0
    2.2248   -2.5587   -2.5951 C   0  0  0  0  0  0  0  0  0  0  0  0
    1.8505   -1.2187   -2.7090 C   0  0  0  0  0  0  0  0  0  0  0  0
    0.3971    0.1680   -3.4811 H   0  0  0  0  0  0  0  0  0  0  0  0
   -1.0246   -1.6004   -4.4829 H   0  0  0  0  0  0  0  0  0  0  0  0
   -0.3675   -3.9828   -4.2762 H   0  0  0  0  0  0  0  0  0  0  0  0
    1.7171   -4.5953   -3.0759 H   0  0  0  0  0  0  0  0  0  0  0  0
    3.1208   -2.8262   -2.0485 H   0  0  0  0  0  0  0  0  0  0  0  0
    2.4649   -0.4478   -2.2585 H   0  0  0  0  0  0  0  0  0  0  0  0
    1.9793   -2.2591    2.0270 S   0  0  0  0  0  0  0  0  0  0  0  0
    2.5715   -2.5289    3.3132 O   0  0  0  0  0  0  0  0  0  0  0  0
    2.5476   -2.7409    0.7802 O   0  0  0  0  0  0  0  0  0  0  0  0
    0.4311   -2.6199    2.1035 O   0  0  0  0  0  0  0  0  0  0  0  0
    1.8646   -0.3919    1.8521 C   0  0  0  0  0  0  0  0  0  0  0  0
    1.1313   -0.0919    0.7735 F   0  0  0  0  0  0  0  0  0  0  0  0
    1.3008    0.1441    2.9279 F   0  0  0  0  0  0  0  0  0  0  0  0
    3.0899    0.1049    1.6968 F   0  0  0  0  0  0  0  0  0  0  0  0
  1  3  2  0  0  0  0
  2  1  2  0  0  0  0
  4  3  1  0  0  0  0
  5 21  1  0  0  0  0
  6 11  2  0  0  0  0
  7  8  2  0  0  0  0
  7  6  1  0  0  0  0
  8  9  1  0  0  0  0
  9 15  1  0  0  0  0
  9 10  2  0  0  0  0
 10 16  1  0  0  0  0
 11 10  1  0  0  0  0
 11 17  1  0  0  0  0
 12  6  1  0  0  0  0
 13  7  1  0  0  0  0
 14  8  1  0  0  0  0
 18 21  1  0  0  0  0
 18 19  2  0  0  0  0
 20 18  2  0  0  0  0
 22 18  1  0  0  0  0
 22 24  1  0  0  0  0
 23 22  1  0  0  0  0
 25 22  1  0  0  0  0
M  RAD  1   2   2
M  END
