Coordinates from ORCA-job C6H6+TfO-+NH2N2+-scan
 OpenBabel10121810013D

 25 23  0  0  0  0  0  0  0  0999 V2000
   -1.7409   -2.7059   -0.4495 N   0  0  0  0  0  0  0  0  0  0  0  0
   -2.8447   -2.6224   -0.6588 N   0  0  0  0  0  0  0  0  0  0  0  0
   -0.5583   -2.8020   -0.0860 N   0  0  0  0  0  0  0  0  0  0  0  0
    0.0840   -2.8210   -0.8864 H   0  0  0  0  0  0  0  0  0  0  0  0
    0.0990   -2.6582    1.4821 H   0  0  0  0  0  0  0  0  0  0  0  0
    0.4485   -1.0433   -3.6285 C   0  0  0  0  0  0  0  0  0  0  0  0
    0.0918   -2.0007   -4.5777 C   0  0  0  0  0  0  0  0  0  0  0  0
    0.6187   -3.2904   -4.5018 C   0  0  0  0  0  0  0  0  0  0  0  0
    1.5033   -3.6228   -3.4761 C   0  0  0  0  0  0  0  0  0  0  0  0
    1.8646   -2.6656   -2.5246 C   0  0  0  0  0  0  0  0  0  0  0  0
    1.3343   -1.3747   -2.6020 C   0  0  0  0  0  0  0  0  0  0  0  0
    0.0423   -0.0396   -3.6910 H   0  0  0  0  0  0  0  0  0  0  0  0
   -0.5941   -1.7420   -5.3770 H   0  0  0  0  0  0  0  0  0  0  0  0
    0.3421   -4.0332   -5.2420 H   0  0  0  0  0  0  0  0  0  0  0  0
    1.9177   -4.6234   -3.4191 H   0  0  0  0  0  0  0  0  0  0  0  0
    2.5529   -2.9173   -1.7256 H   0  0  0  0  0  0  0  0  0  0  0  0
    1.6141   -0.6317   -1.8632 H   0  0  0  0  0  0  0  0  0  0  0  0
    2.1129   -2.2323    2.1437 S   0  0  0  0  0  0  0  0  0  0  0  0
    2.8316   -2.6120    3.3335 O   0  0  0  0  0  0  0  0  0  0  0  0
    2.5225   -2.6419    0.8107 O   0  0  0  0  0  0  0  0  0  0  0  0
    0.5692   -2.5504    2.3639 O   0  0  0  0  0  0  0  0  0  0  0  0
    2.0540   -0.3547    2.1072 C   0  0  0  0  0  0  0  0  0  0  0  0
    1.2523    0.0423    1.1105 F   0  0  0  0  0  0  0  0  0  0  0  0
    1.5905    0.1198    3.2566 F   0  0  0  0  0  0  0  0  0  0  0  0
    3.2803    0.1129    1.8923 F   0  0  0  0  0  0  0  0  0  0  0  0
  1  3  2  0  0  0  0
  2  1  2  0  0  0  0
  4  3  1  0  0  0  0
  5 21  1  0  0  0  0
  6 11  2  0  0  0  0
  7  8  2  0  0  0  0
  7  6  1  0  0  0  0
  8  9  1  0  0  0  0
  9 15  1  0  0  0  0
  9 10  2  0  0  0  0
 10 16  1  0  0  0  0
 11 10  1  0  0  0  0
 11 17  1  0  0  0  0
 12  6  1  0  0  0  0
 13  7  1  0  0  0  0
 14  8  1  0  0  0  0
 18 21  1  0  0  0  0
 18 19  2  0  0  0  0
 20 18  2  0  0  0  0
 22 18  1  0  0  0  0
 22 24  1  0  0  0  0
 23 22  1  0  0  0  0
 25 22  1  0  0  0  0
M  RAD  1   2   2
M  END
