Coordinates from ORCA-job C6H6+TfO-+NH2N2+-scan
 OpenBabel10121810013D

 25 23  0  0  0  0  0  0  0  0999 V2000
   -1.3144   -1.3974    0.6684 N   0  0  0  0  0  0  0  0  0  0  0  0
   -2.1300   -0.8830    0.0869 N   0  0  0  0  0  0  0  0  0  0  0  0
   -0.3601   -1.8315    1.3336 N   0  0  0  0  0  0  0  0  0  0  0  0
   -0.2456   -2.8426    1.2383 H   0  0  0  0  0  0  0  0  0  0  0  0
    0.3860   -1.3741    2.8495 H   0  0  0  0  0  0  0  0  0  0  0  0
   -0.6007   -2.7337   -5.2800 C   0  0  0  0  0  0  0  0  0  0  0  0
    0.6313   -3.3678   -5.1236 C   0  0  0  0  0  0  0  0  0  0  0  0
    1.7784   -2.6129   -4.8819 C   0  0  0  0  0  0  0  0  0  0  0  0
    1.6933   -1.2236   -4.7970 C   0  0  0  0  0  0  0  0  0  0  0  0
    0.4613   -0.5895   -4.9536 C   0  0  0  0  0  0  0  0  0  0  0  0
   -0.6857   -1.3446   -5.1946 C   0  0  0  0  0  0  0  0  0  0  0  0
   -1.4927   -3.3208   -5.4703 H   0  0  0  0  0  0  0  0  0  0  0  0
    0.6977   -4.4484   -5.1919 H   0  0  0  0  0  0  0  0  0  0  0  0
    2.7369   -3.1061   -4.7614 H   0  0  0  0  0  0  0  0  0  0  0  0
    2.5859   -0.6360   -4.6109 H   0  0  0  0  0  0  0  0  0  0  0  0
    0.3955    0.4913   -4.8896 H   0  0  0  0  0  0  0  0  0  0  0  0
   -1.6439   -0.8512   -5.3175 H   0  0  0  0  0  0  0  0  0  0  0  0
    1.6684   -2.7664    3.8716 S   0  0  0  0  0  0  0  0  0  0  0  0
    1.8335   -3.0419    5.2757 O   0  0  0  0  0  0  0  0  0  0  0  0
    1.1314   -3.7436    2.9362 O   0  0  0  0  0  0  0  0  0  0  0  0
    0.8875   -1.3820    3.7141 O   0  0  0  0  0  0  0  0  0  0  0  0
    3.3481   -2.2610    3.1962 C   0  0  0  0  0  0  0  0  0  0  0  0
    3.2026   -1.8127    1.9478 F   0  0  0  0  0  0  0  0  0  0  0  0
    3.8774   -1.3066    3.9514 F   0  0  0  0  0  0  0  0  0  0  0  0
    4.1465   -3.3243    3.1938 F   0  0  0  0  0  0  0  0  0  0  0  0
  1  3  2  0  0  0  0
  2  1  2  0  0  0  0
  4  3  1  0  0  0  0
  5 21  1  0  0  0  0
  6 11  2  0  0  0  0
  6  7  1  0  0  0  0
  7  8  2  0  0  0  0
  8  9  1  0  0  0  0
  8 14  1  0  0  0  0
  9 15  1  0  0  0  0
 10 16  1  0  0  0  0
 10  9  2  0  0  0  0
 11 10  1  0  0  0  0
 12  6  1  0  0  0  0
 13  7  1  0  0  0  0
 17 11  1  0  0  0  0
 18 19  2  0  0  0  0
 20 18  2  0  0  0  0
 21 18  1  0  0  0  0
 22 18  1  0  0  0  0
 22 24  1  0  0  0  0
 23 22  1  0  0  0  0
 25 22  1  0  0  0  0
M  RAD  1   2   2
M  END
