Coordinates from ORCA-job C6H6+TfO-+NH2N2+-scan
 OpenBabel10121810013D

 25 23  0  0  0  0  0  0  0  0999 V2000
   -2.0435   -2.6110    0.0439 N   0  0  0  0  0  0  0  0  0  0  0  0
   -3.1596   -2.5205   -0.0751 N   0  0  0  0  0  0  0  0  0  0  0  0
   -0.8342   -2.6946    0.3153 N   0  0  0  0  0  0  0  0  0  0  0  0
   -0.2675   -2.8374   -0.5253 H   0  0  0  0  0  0  0  0  0  0  0  0
   -0.0174   -2.5016    1.8166 H   0  0  0  0  0  0  0  0  0  0  0  0
    0.3370   -1.1637   -3.7192 C   0  0  0  0  0  0  0  0  0  0  0  0
    0.3443   -1.9736   -4.8536 C   0  0  0  0  0  0  0  0  0  0  0  0
    1.0505   -3.1771   -4.8479 C   0  0  0  0  0  0  0  0  0  0  0  0
    1.7437   -3.5730   -3.7048 C   0  0  0  0  0  0  0  0  0  0  0  0
    1.7410   -2.7630   -2.5676 C   0  0  0  0  0  0  0  0  0  0  0  0
    1.0378   -1.5562   -2.5772 C   0  0  0  0  0  0  0  0  0  0  0  0
   -0.2033   -0.2231   -3.7275 H   0  0  0  0  0  0  0  0  0  0  0  0
   -0.1944   -1.6657   -5.7433 H   0  0  0  0  0  0  0  0  0  0  0  0
    1.0594   -3.8044   -5.7326 H   0  0  0  0  0  0  0  0  0  0  0  0
    2.2944   -4.5073   -3.7006 H   0  0  0  0  0  0  0  0  0  0  0  0
    2.2913   -3.0565   -1.6807 H   0  0  0  0  0  0  0  0  0  0  0  0
    1.0559   -0.9134   -1.7031 H   0  0  0  0  0  0  0  0  0  0  0  0
    2.0932   -2.2397    2.1652 S   0  0  0  0  0  0  0  0  0  0  0  0
    2.9393   -2.6288    3.2644 O   0  0  0  0  0  0  0  0  0  0  0  0
    2.2605   -2.7600    0.8182 O   0  0  0  0  0  0  0  0  0  0  0  0
    0.5733   -2.3880    2.6189 O   0  0  0  0  0  0  0  0  0  0  0  0
    2.2033   -0.3699    2.0127 C   0  0  0  0  0  0  0  0  0  0  0  0
    1.2992    0.0527    1.1195 F   0  0  0  0  0  0  0  0  0  0  0  0
    1.9642    0.2069    3.1835 F   0  0  0  0  0  0  0  0  0  0  0  0
    3.4204   -0.0414    1.5914 F   0  0  0  0  0  0  0  0  0  0  0  0
  1  3  2  0  0  0  0
  2  1  2  0  0  0  0
  4  3  1  0  0  0  0
  5 21  1  0  0  0  0
  6 11  2  0  0  0  0
  7  8  2  0  0  0  0
  7  6  1  0  0  0  0
  8  9  1  0  0  0  0
  9 15  1  0  0  0  0
  9 10  2  0  0  0  0
 10 16  1  0  0  0  0
 11 10  1  0  0  0  0
 11 17  1  0  0  0  0
 12  6  1  0  0  0  0
 13  7  1  0  0  0  0
 14  8  1  0  0  0  0
 18 21  1  0  0  0  0
 18 19  2  0  0  0  0
 20 18  2  0  0  0  0
 22 18  1  0  0  0  0
 22 24  1  0  0  0  0
 23 22  1  0  0  0  0
 25 22  1  0  0  0  0
M  RAD  1   2   2
M  END
