Coordinates from ORCA-job C6H6+TfO-+NH2N2+-scan
 OpenBabel10121810013D

 25 23  0  0  0  0  0  0  0  0999 V2000
   -1.7678   -2.6899   -0.3971 N   0  0  0  0  0  0  0  0  0  0  0  0
   -2.8728   -2.6015   -0.5971 N   0  0  0  0  0  0  0  0  0  0  0  0
   -0.5824   -2.7898   -0.0434 N   0  0  0  0  0  0  0  0  0  0  0  0
    0.0519   -2.8208   -0.8496 H   0  0  0  0  0  0  0  0  0  0  0  0
    0.0915   -2.6449    1.5191 H   0  0  0  0  0  0  0  0  0  0  0  0
    0.4320   -1.0572   -3.6348 C   0  0  0  0  0  0  0  0  0  0  0  0
    0.1234   -1.9973   -4.6173 C   0  0  0  0  0  0  0  0  0  0  0  0
    0.6693   -3.2798   -4.5535 C   0  0  0  0  0  0  0  0  0  0  0  0
    1.5240   -3.6225   -3.5063 C   0  0  0  0  0  0  0  0  0  0  0  0
    1.8371   -2.6827   -2.5212 C   0  0  0  0  0  0  0  0  0  0  0  0
    1.2886   -1.3987   -2.5869 C   0  0  0  0  0  0  0  0  0  0  0  0
    0.0119   -0.0587   -3.6881 H   0  0  0  0  0  0  0  0  0  0  0  0
   -0.5393   -1.7307   -5.4334 H   0  0  0  0  0  0  0  0  0  0  0  0
    0.4304   -4.0091   -5.3199 H   0  0  0  0  0  0  0  0  0  0  0  0
    1.9529   -4.6174   -3.4587 H   0  0  0  0  0  0  0  0  0  0  0  0
    2.5039   -2.9418   -1.7064 H   0  0  0  0  0  0  0  0  0  0  0  0
    1.5333   -0.6679   -1.8237 H   0  0  0  0  0  0  0  0  0  0  0  0
    2.1173   -2.2306    2.1487 S   0  0  0  0  0  0  0  0  0  0  0  0
    2.8507   -2.6070    3.3305 O   0  0  0  0  0  0  0  0  0  0  0  0
    2.5041   -2.6529    0.8128 O   0  0  0  0  0  0  0  0  0  0  0  0
    0.5746   -2.5362    2.3936 O   0  0  0  0  0  0  0  0  0  0  0  0
    2.0712   -0.3529    2.0989 C   0  0  0  0  0  0  0  0  0  0  0  0
    1.2550    0.0424    1.1132 F   0  0  0  0  0  0  0  0  0  0  0  0
    1.6312    0.1335    3.2526 F   0  0  0  0  0  0  0  0  0  0  0  0
    3.2969    0.1041    1.8592 F   0  0  0  0  0  0  0  0  0  0  0  0
  1  3  2  0  0  0  0
  2  1  2  0  0  0  0
  4  3  1  0  0  0  0
  5 21  1  0  0  0  0
  6 11  2  0  0  0  0
  7  8  2  0  0  0  0
  7  6  1  0  0  0  0
  8  9  1  0  0  0  0
  9 15  1  0  0  0  0
  9 10  2  0  0  0  0
 10 16  1  0  0  0  0
 11 10  1  0  0  0  0
 11 17  1  0  0  0  0
 12  6  1  0  0  0  0
 13  7  1  0  0  0  0
 14  8  1  0  0  0  0
 18 21  1  0  0  0  0
 18 19  2  0  0  0  0
 20 18  2  0  0  0  0
 22 18  1  0  0  0  0
 22 24  1  0  0  0  0
 23 22  1  0  0  0  0
 25 22  1  0  0  0  0
M  RAD  1   2   2
M  END
