Coordinates from ORCA-job C6H6+TfO-+NH2N2+-scan
 OpenBabel10121810013D

 25 23  0  0  0  0  0  0  0  0999 V2000
   -1.6071   -3.0173   -0.9155 N   0  0  0  0  0  0  0  0  0  0  0  0
   -2.6957   -3.0609   -1.2041 N   0  0  0  0  0  0  0  0  0  0  0  0
   -0.4513   -2.9784   -0.4727 N   0  0  0  0  0  0  0  0  0  0  0  0
    0.2468   -2.9504   -1.2223 H   0  0  0  0  0  0  0  0  0  0  0  0
    0.0521   -2.7797    1.1402 H   0  0  0  0  0  0  0  0  0  0  0  0
    0.6933   -0.8673   -3.3549 C   0  0  0  0  0  0  0  0  0  0  0  0
   -0.1390   -1.8610   -3.8718 C   0  0  0  0  0  0  0  0  0  0  0  0
    0.2221   -3.2034   -3.7506 C   0  0  0  0  0  0  0  0  0  0  0  0
    1.4242   -3.5515   -3.1303 C   0  0  0  0  0  0  0  0  0  0  0  0
    2.2528   -2.5568   -2.6060 C   0  0  0  0  0  0  0  0  0  0  0  0
    1.8834   -1.2152   -2.7166 C   0  0  0  0  0  0  0  0  0  0  0  0
    0.4109    0.1759   -3.4430 H   0  0  0  0  0  0  0  0  0  0  0  0
   -1.0659   -1.5909   -4.3656 H   0  0  0  0  0  0  0  0  0  0  0  0
   -0.4210   -3.9764   -4.1577 H   0  0  0  0  0  0  0  0  0  0  0  0
    1.7101   -4.5940   -3.0448 H   0  0  0  0  0  0  0  0  0  0  0  0
    3.1661   -2.8268   -2.0903 H   0  0  0  0  0  0  0  0  0  0  0  0
    2.5204   -0.4452   -2.2970 H   0  0  0  0  0  0  0  0  0  0  0  0
    1.9652   -2.2619    2.0093 S   0  0  0  0  0  0  0  0  0  0  0  0
    2.5401   -2.5247    3.3047 O   0  0  0  0  0  0  0  0  0  0  0  0
    2.5534   -2.7458    0.7726 O   0  0  0  0  0  0  0  0  0  0  0  0
    0.4176   -2.6283    2.0653 O   0  0  0  0  0  0  0  0  0  0  0  0
    1.8461   -0.3957    1.8264 C   0  0  0  0  0  0  0  0  0  0  0  0
    1.1262   -0.1016    0.7372 F   0  0  0  0  0  0  0  0  0  0  0  0
    1.2662    0.1418    2.8929 F   0  0  0  0  0  0  0  0  0  0  0  0
    3.0717    0.1052    1.6859 F   0  0  0  0  0  0  0  0  0  0  0  0
  1  3  2  0  0  0  0
  2  1  2  0  0  0  0
  4  3  1  0  0  0  0
  5 21  1  0  0  0  0
  6 11  2  0  0  0  0
  7  8  2  0  0  0  0
  7  6  1  0  0  0  0
  8  9  1  0  0  0  0
  9 15  1  0  0  0  0
  9 10  2  0  0  0  0
 10 16  1  0  0  0  0
 11 10  1  0  0  0  0
 11 17  1  0  0  0  0
 12  6  1  0  0  0  0
 13  7  1  0  0  0  0
 14  8  1  0  0  0  0
 18 21  1  0  0  0  0
 18 19  2  0  0  0  0
 20 18  2  0  0  0  0
 22 18  1  0  0  0  0
 22 24  1  0  0  0  0
 23 22  1  0  0  0  0
 25 22  1  0  0  0  0
M  RAD  1   2   2
M  END
