Coordinates from ORCA-job C6H6+TfO-+NH2N2+-scan
 OpenBabel10121810013D

 25 23  0  0  0  0  0  0  0  0999 V2000
   -1.1977   -1.1445   -0.7226 N   0  0  0  0  0  0  0  0  0  0  0  0
   -2.2770   -0.8156   -0.7422 N   0  0  0  0  0  0  0  0  0  0  0  0
   -0.0796   -1.6980   -0.7267 N   0  0  0  0  0  0  0  0  0  0  0  0
    0.6494   -1.0498   -1.0243 H   0  0  0  0  0  0  0  0  0  0  0  0
    0.3670   -2.7841    0.5369 H   0  0  0  0  0  0  0  0  0  0  0  0
   -0.1615   -1.7222   -4.4664 C   0  0  0  0  0  0  0  0  0  0  0  0
   -0.3764   -2.6674   -3.4652 C   0  0  0  0  0  0  0  0  0  0  0  0
    0.6268   -2.9416   -2.5307 C   0  0  0  0  0  0  0  0  0  0  0  0
    1.8897   -2.3593   -2.6868 C   0  0  0  0  0  0  0  0  0  0  0  0
    2.1002   -1.4107   -3.6875 C   0  0  0  0  0  0  0  0  0  0  0  0
    1.0729   -1.0808   -4.5723 C   0  0  0  0  0  0  0  0  0  0  0  0
   -0.9517   -1.4962   -5.1745 H   0  0  0  0  0  0  0  0  0  0  0  0
   -1.3336   -3.1738   -3.3967 H   0  0  0  0  0  0  0  0  0  0  0  0
    0.4845   -3.7301   -1.8053 H   0  0  0  0  0  0  0  0  0  0  0  0
    2.6910   -2.6170   -2.0032 H   0  0  0  0  0  0  0  0  0  0  0  0
    3.0736   -0.9425   -3.7886 H   0  0  0  0  0  0  0  0  0  0  0  0
    1.2407   -0.3474   -5.3532 H   0  0  0  0  0  0  0  0  0  0  0  0
    2.1558   -3.0741    1.7146 S   0  0  0  0  0  0  0  0  0  0  0  0
    2.7403   -4.2555    2.2969 O   0  0  0  0  0  0  0  0  0  0  0  0
    2.8187   -2.2839    0.6917 O   0  0  0  0  0  0  0  0  0  0  0  0
    0.6723   -3.4297    1.2423 O   0  0  0  0  0  0  0  0  0  0  0  0
    1.7643   -1.8880    3.1200 C   0  0  0  0  0  0  0  0  0  0  0  0
    1.0189   -0.8824    2.6478 F   0  0  0  0  0  0  0  0  0  0  0  0
    1.0987   -2.5143    4.0820 F   0  0  0  0  0  0  0  0  0  0  0  0
    2.9017   -1.4012    3.6053 F   0  0  0  0  0  0  0  0  0  0  0  0
  2  1  2  0  0  0  0
  3  1  2  0  0  0  0
  4  3  1  0  0  0  0
  5 21  1  0  0  0  0
  6  7  1  0  0  0  0
  7 13  1  0  0  0  0
  7  8  2  0  0  0  0
  8 14  1  0  0  0  0
  9  8  1  0  0  0  0
  9 15  1  0  0  0  0
 10  9  2  0  0  0  0
 11  6  2  0  0  0  0
 11 10  1  0  0  0  0
 12  6  1  0  0  0  0
 16 10  1  0  0  0  0
 17 11  1  0  0  0  0
 18 19  2  0  0  0  0
 18 22  1  0  0  0  0
 20 18  2  0  0  0  0
 21 18  1  0  0  0  0
 22 25  1  0  0  0  0
 22 24  1  0  0  0  0
 23 22  1  0  0  0  0
M  RAD  1   2   2
M  END
