Coordinates from ORCA-job C6H6+TfO-+NH2N2+-scan
 OpenBabel10121810013D

 25 23  0  0  0  0  0  0  0  0999 V2000
   -1.7728   -2.6880   -0.3862 N   0  0  0  0  0  0  0  0  0  0  0  0
   -2.8782   -2.5989   -0.5843 N   0  0  0  0  0  0  0  0  0  0  0  0
   -0.5869   -2.7886   -0.0345 N   0  0  0  0  0  0  0  0  0  0  0  0
    0.0458   -2.8213   -0.8418 H   0  0  0  0  0  0  0  0  0  0  0  0
    0.0901   -2.6437    1.5271 H   0  0  0  0  0  0  0  0  0  0  0  0
    0.4312   -1.0588   -3.6372 C   0  0  0  0  0  0  0  0  0  0  0  0
    0.1295   -1.9961   -4.6245 C   0  0  0  0  0  0  0  0  0  0  0  0
    0.6773   -3.2778   -4.5622 C   0  0  0  0  0  0  0  0  0  0  0  0
    1.5267   -3.6227   -3.5115 C   0  0  0  0  0  0  0  0  0  0  0  0
    1.8331   -2.6856   -2.5216 C   0  0  0  0  0  0  0  0  0  0  0  0
    1.2830   -1.4023   -2.5861 C   0  0  0  0  0  0  0  0  0  0  0  0
    0.0099   -0.0607   -3.6896 H   0  0  0  0  0  0  0  0  0  0  0  0
   -0.5292   -1.7278   -5.4433 H   0  0  0  0  0  0  0  0  0  0  0  0
    0.4437   -4.0049   -5.3322 H   0  0  0  0  0  0  0  0  0  0  0  0
    1.9571   -4.6170   -3.4648 H   0  0  0  0  0  0  0  0  0  0  0  0
    2.4965   -2.9460   -1.7044 H   0  0  0  0  0  0  0  0  0  0  0  0
    1.5231   -0.6734   -1.8195 H   0  0  0  0  0  0  0  0  0  0  0  0
    2.1180   -2.2302    2.1493 S   0  0  0  0  0  0  0  0  0  0  0  0
    2.8553   -2.6056    3.3290 O   0  0  0  0  0  0  0  0  0  0  0  0
    2.4998   -2.6543    0.8126 O   0  0  0  0  0  0  0  0  0  0  0  0
    0.5760   -2.5349    2.4000 O   0  0  0  0  0  0  0  0  0  0  0  0
    2.0725   -0.3525    2.0976 C   0  0  0  0  0  0  0  0  0  0  0  0
    1.2520    0.0419    1.1151 F   0  0  0  0  0  0  0  0  0  0  0  0
    1.6379    0.1354    3.2525 F   0  0  0  0  0  0  0  0  0  0  0  0
    3.2972    0.1036    1.8518 F   0  0  0  0  0  0  0  0  0  0  0  0
  1  3  2  0  0  0  0
  2  1  2  0  0  0  0
  4  3  1  0  0  0  0
  5 21  1  0  0  0  0
  6 11  2  0  0  0  0
  7  8  2  0  0  0  0
  7  6  1  0  0  0  0
  8  9  1  0  0  0  0
  9 15  1  0  0  0  0
  9 10  2  0  0  0  0
 10 16  1  0  0  0  0
 11 10  1  0  0  0  0
 11 17  1  0  0  0  0
 12  6  1  0  0  0  0
 13  7  1  0  0  0  0
 14  8  1  0  0  0  0
 18 21  1  0  0  0  0
 18 19  2  0  0  0  0
 20 18  2  0  0  0  0
 22 18  1  0  0  0  0
 22 24  1  0  0  0  0
 23 22  1  0  0  0  0
 25 22  1  0  0  0  0
M  RAD  1   2   2
M  END
