Coordinates from ORCA-job C6H6+TfO-+NH2N2+-scan
 OpenBabel10121810013D

 25 23  0  0  0  0  0  0  0  0999 V2000
   -1.6331   -3.0073   -0.8411 N   0  0  0  0  0  0  0  0  0  0  0  0
   -2.7252   -3.0558   -1.1145 N   0  0  0  0  0  0  0  0  0  0  0  0
   -0.4715   -2.9638   -0.4108 N   0  0  0  0  0  0  0  0  0  0  0  0
    0.2162   -2.9351   -1.1706 H   0  0  0  0  0  0  0  0  0  0  0  0
    0.0510   -2.7497    1.1970 H   0  0  0  0  0  0  0  0  0  0  0  0
    0.6553   -0.8792   -3.4025 C   0  0  0  0  0  0  0  0  0  0  0  0
   -0.1068   -1.8797   -4.0070 C   0  0  0  0  0  0  0  0  0  0  0  0
    0.2765   -3.2159   -3.8866 C   0  0  0  0  0  0  0  0  0  0  0  0
    1.4277   -3.5511   -3.1705 C   0  0  0  0  0  0  0  0  0  0  0  0
    2.1876   -2.5499   -2.5608 C   0  0  0  0  0  0  0  0  0  0  0  0
    1.7975   -1.2142   -2.6759 C   0  0  0  0  0  0  0  0  0  0  0  0
    0.3560    0.1592   -3.4930 H   0  0  0  0  0  0  0  0  0  0  0  0
   -0.9961   -1.6193   -4.5705 H   0  0  0  0  0  0  0  0  0  0  0  0
   -0.3121   -3.9936   -4.3612 H   0  0  0  0  0  0  0  0  0  0  0  0
    1.7306   -4.5886   -3.0820 H   0  0  0  0  0  0  0  0  0  0  0  0
    3.0625   -2.8093   -1.9772 H   0  0  0  0  0  0  0  0  0  0  0  0
    2.3808   -0.4396   -2.1917 H   0  0  0  0  0  0  0  0  0  0  0  0
    1.9840   -2.2647    2.0379 S   0  0  0  0  0  0  0  0  0  0  0  0
    2.5718   -2.5362    3.3257 O   0  0  0  0  0  0  0  0  0  0  0  0
    2.5429   -2.7654    0.7943 O   0  0  0  0  0  0  0  0  0  0  0  0
    0.4296   -2.5971    2.1162 O   0  0  0  0  0  0  0  0  0  0  0  0
    1.9029   -0.3968    1.8509 C   0  0  0  0  0  0  0  0  0  0  0  0
    1.1703   -0.0903    0.7733 F   0  0  0  0  0  0  0  0  0  0  0  0
    1.3539    0.1566    2.9253 F   0  0  0  0  0  0  0  0  0  0  0  0
    3.1364    0.0763    1.6867 F   0  0  0  0  0  0  0  0  0  0  0  0
  1  3  2  0  0  0  0
  2  1  2  0  0  0  0
  4  3  1  0  0  0  0
  5 21  1  0  0  0  0
  6 11  2  0  0  0  0
  7  8  2  0  0  0  0
  7  6  1  0  0  0  0
  8  9  1  0  0  0  0
  9 15  1  0  0  0  0
  9 10  2  0  0  0  0
 10 16  1  0  0  0  0
 11 10  1  0  0  0  0
 11 17  1  0  0  0  0
 12  6  1  0  0  0  0
 13  7  1  0  0  0  0
 14  8  1  0  0  0  0
 18 21  1  0  0  0  0
 18 19  2  0  0  0  0
 20 18  2  0  0  0  0
 22 18  1  0  0  0  0
 22 24  1  0  0  0  0
 23 22  1  0  0  0  0
 25 22  1  0  0  0  0
M  RAD  1   2   2
M  END
