Coordinates from ORCA-job C6H6+TfO-+NH2N2+-scan
 OpenBabel10121810013D

 25 23  0  0  0  0  0  0  0  0999 V2000
   -2.1395   -2.6505    0.1653 N   0  0  0  0  0  0  0  0  0  0  0  0
   -3.2575   -2.5925    0.0438 N   0  0  0  0  0  0  0  0  0  0  0  0
   -0.9290   -2.6921    0.4403 N   0  0  0  0  0  0  0  0  0  0  0  0
   -0.3560   -2.8699   -0.3886 H   0  0  0  0  0  0  0  0  0  0  0  0
   -0.0780   -2.4348    1.9234 H   0  0  0  0  0  0  0  0  0  0  0  0
    0.3786   -1.1819   -3.6793 C   0  0  0  0  0  0  0  0  0  0  0  0
    0.4194   -1.9218   -4.8602 C   0  0  0  0  0  0  0  0  0  0  0  0
    1.1323   -3.1202   -4.9082 C   0  0  0  0  0  0  0  0  0  0  0  0
    1.8002   -3.5805   -3.7741 C   0  0  0  0  0  0  0  0  0  0  0  0
    1.7630   -2.8410   -2.5908 C   0  0  0  0  0  0  0  0  0  0  0  0
    1.0522   -1.6399   -2.5456 C   0  0  0  0  0  0  0  0  0  0  0  0
   -0.1679   -0.2454   -3.6446 H   0  0  0  0  0  0  0  0  0  0  0  0
   -0.0989   -1.5636   -5.7431 H   0  0  0  0  0  0  0  0  0  0  0  0
    1.1667   -3.6934   -5.8284 H   0  0  0  0  0  0  0  0  0  0  0  0
    2.3562   -4.5109   -3.8124 H   0  0  0  0  0  0  0  0  0  0  0  0
    2.2906   -3.1848   -1.7084 H   0  0  0  0  0  0  0  0  0  0  0  0
    1.0399   -1.0548   -1.6319 H   0  0  0  0  0  0  0  0  0  0  0  0
    2.0509   -2.2084    2.1240 S   0  0  0  0  0  0  0  0  0  0  0  0
    2.9615   -2.6129    3.1643 O   0  0  0  0  0  0  0  0  0  0  0  0
    2.1016   -2.7499    0.7754 O   0  0  0  0  0  0  0  0  0  0  0  0
    0.5613   -2.3023    2.6836 O   0  0  0  0  0  0  0  0  0  0  0  0
    2.2087   -0.3448    1.9383 C   0  0  0  0  0  0  0  0  0  0  0  0
    1.2538    0.0967    1.1104 F   0  0  0  0  0  0  0  0  0  0  0  0
    2.0782    0.2519    3.1159 F   0  0  0  0  0  0  0  0  0  0  0  0
    3.4004   -0.0627    1.4219 F   0  0  0  0  0  0  0  0  0  0  0  0
  1  3  2  0  0  0  0
  2  1  2  0  0  0  0
  4  3  1  0  0  0  0
  5 21  1  0  0  0  0
  6 12  1  0  0  0  0
  6 11  2  0  0  0  0
  7  6  1  0  0  0  0
  8  7  2  0  0  0  0
  8  9  1  0  0  0  0
  9 10  2  0  0  0  0
 10 11  1  0  0  0  0
 10 16  1  0  0  0  0
 11 17  1  0  0  0  0
 13  7  1  0  0  0  0
 14  8  1  0  0  0  0
 15  9  1  0  0  0  0
 18 21  1  0  0  0  0
 18 19  2  0  0  0  0
 20 18  2  0  0  0  0
 22 18  1  0  0  0  0
 22 24  1  0  0  0  0
 23 22  1  0  0  0  0
 25 22  1  0  0  0  0
M  RAD  1   2   2
M  END
