Coordinates from ORCA-job C6H6+TfO-+NH2N2+-scan
 OpenBabel10121810013D

 25 23  0  0  0  0  0  0  0  0999 V2000
   -1.7438   -1.2147   -0.6722 N   0  0  0  0  0  0  0  0  0  0  0  0
   -2.7014   -0.6207   -0.7116 N   0  0  0  0  0  0  0  0  0  0  0  0
   -0.7136   -1.8885   -0.5175 N   0  0  0  0  0  0  0  0  0  0  0  0
   -0.1809   -1.9833   -1.3899 H   0  0  0  0  0  0  0  0  0  0  0  0
   -0.2681   -2.4783    1.0020 H   0  0  0  0  0  0  0  0  0  0  0  0
    0.2511   -2.0053   -4.5050 C   0  0  0  0  0  0  0  0  0  0  0  0
    0.3532   -2.9550   -3.4888 C   0  0  0  0  0  0  0  0  0  0  0  0
    1.2012   -2.7293   -2.3989 C   0  0  0  0  0  0  0  0  0  0  0  0
    1.9762   -1.5652   -2.3541 C   0  0  0  0  0  0  0  0  0  0  0  0
    1.8748   -0.6182   -3.3717 C   0  0  0  0  0  0  0  0  0  0  0  0
    1.0107   -0.8371   -4.4448 C   0  0  0  0  0  0  0  0  0  0  0  0
   -0.4112   -2.1794   -5.3457 H   0  0  0  0  0  0  0  0  0  0  0  0
   -0.2297   -3.8685   -3.5373 H   0  0  0  0  0  0  0  0  0  0  0  0
    1.3105   -3.4759   -1.6205 H   0  0  0  0  0  0  0  0  0  0  0  0
    2.6444   -1.3989   -1.5168 H   0  0  0  0  0  0  0  0  0  0  0  0
    2.4719    0.2861   -3.3321 H   0  0  0  0  0  0  0  0  0  0  0  0
    0.9331   -0.1000   -5.2365 H   0  0  0  0  0  0  0  0  0  0  0  0
    1.3563   -3.5449    1.9758 S   0  0  0  0  0  0  0  0  0  0  0  0
    1.3835   -4.3981    3.1370 O   0  0  0  0  0  0  0  0  0  0  0  0
    1.7136   -4.0128    0.6473 O   0  0  0  0  0  0  0  0  0  0  0  0
   -0.0420   -2.7924    1.9341 O   0  0  0  0  0  0  0  0  0  0  0  0
    2.4943   -2.0927    2.3302 C   0  0  0  0  0  0  0  0  0  0  0  0
    2.3629   -1.1814    1.3566 F   0  0  0  0  0  0  0  0  0  0  0  0
    2.1892   -1.5336    3.4947 F   0  0  0  0  0  0  0  0  0  0  0  0
    3.7526   -2.5224    2.3569 F   0  0  0  0  0  0  0  0  0  0  0  0
  1  3  2  0  0  0  0
  2  1  2  0  0  0  0
  4  3  1  0  0  0  0
  5 21  1  0  0  0  0
  6 11  2  0  0  0  0
  6  7  1  0  0  0  0
  7  8  2  0  0  0  0
  8  9  1  0  0  0  0
  8 14  1  0  0  0  0
  9 15  1  0  0  0  0
 10 16  1  0  0  0  0
 10  9  2  0  0  0  0
 11 10  1  0  0  0  0
 12  6  1  0  0  0  0
 13  7  1  0  0  0  0
 17 11  1  0  0  0  0
 18 22  1  0  0  0  0
 18 19  2  0  0  0  0
 20 18  2  0  0  0  0
 21 18  1  0  0  0  0
 22 25  1  0  0  0  0
 22 24  1  0  0  0  0
 23 22  1  0  0  0  0
M  RAD  1   2   2
M  END
