Coordinates from ORCA-job C6H6+TfO-+NH2N2+-scan
 OpenBabel10121810013D

 25 23  0  0  0  0  0  0  0  0999 V2000
   -1.3664   -1.4083    0.5631 N   0  0  0  0  0  0  0  0  0  0  0  0
   -2.2109   -0.8978    0.0204 N   0  0  0  0  0  0  0  0  0  0  0  0
   -0.3799   -1.8340    1.1861 N   0  0  0  0  0  0  0  0  0  0  0  0
   -0.3007   -2.8519    1.1386 H   0  0  0  0  0  0  0  0  0  0  0  0
    0.4117   -1.3403    2.6670 H   0  0  0  0  0  0  0  0  0  0  0  0
   -0.5606   -2.7459   -5.1558 C   0  0  0  0  0  0  0  0  0  0  0  0
    0.6704   -3.3591   -4.9255 C   0  0  0  0  0  0  0  0  0  0  0  0
    1.7947   -2.5834   -4.6454 C   0  0  0  0  0  0  0  0  0  0  0  0
    1.6872   -1.1940   -4.5943 C   0  0  0  0  0  0  0  0  0  0  0  0
    0.4564   -0.5807   -4.8246 C   0  0  0  0  0  0  0  0  0  0  0  0
   -0.6677   -1.3566   -5.1053 C   0  0  0  0  0  0  0  0  0  0  0  0
   -1.4342   -3.3496   -5.3772 H   0  0  0  0  0  0  0  0  0  0  0  0
    0.7543   -4.4399   -4.9668 H   0  0  0  0  0  0  0  0  0  0  0  0
    2.7526   -3.0603   -4.4677 H   0  0  0  0  0  0  0  0  0  0  0  0
    2.5620   -0.5902   -4.3776 H   0  0  0  0  0  0  0  0  0  0  0  0
    0.3738    0.5002   -4.7878 H   0  0  0  0  0  0  0  0  0  0  0  0
   -1.6248   -0.8794   -5.2865 H   0  0  0  0  0  0  0  0  0  0  0  0
    1.6616   -2.7312    3.7303 S   0  0  0  0  0  0  0  0  0  0  0  0
    1.8426   -2.9494    5.1425 O   0  0  0  0  0  0  0  0  0  0  0  0
    1.0730   -3.7290    2.8493 O   0  0  0  0  0  0  0  0  0  0  0  0
    0.9277   -1.3277    3.5233 O   0  0  0  0  0  0  0  0  0  0  0  0
    3.3455   -2.3187    3.0040 C   0  0  0  0  0  0  0  0  0  0  0  0
    3.1927   -1.9226    1.7389 F   0  0  0  0  0  0  0  0  0  0  0  0
    3.9227   -1.3510    3.7052 F   0  0  0  0  0  0  0  0  0  0  0  0
    4.1051   -3.4096    3.0370 F   0  0  0  0  0  0  0  0  0  0  0  0
  1  3  2  0  0  0  0
  2  1  2  0  0  0  0
  4  3  1  0  0  0  0
  5 21  1  0  0  0  0
  6 11  2  0  0  0  0
  6  7  1  0  0  0  0
  7  8  2  0  0  0  0
  8  9  1  0  0  0  0
  8 14  1  0  0  0  0
  9 15  1  0  0  0  0
 10 16  1  0  0  0  0
 10  9  2  0  0  0  0
 11 10  1  0  0  0  0
 12  6  1  0  0  0  0
 13  7  1  0  0  0  0
 17 11  1  0  0  0  0
 18 19  2  0  0  0  0
 20 18  2  0  0  0  0
 21 18  1  0  0  0  0
 22 25  1  0  0  0  0
 22 24  1  0  0  0  0
 22 18  1  0  0  0  0
 23 22  1  0  0  0  0
M  RAD  1   2   2
M  END
