Coordinates from ORCA-job C6H6+TfO-+NH2N2+-scan
 OpenBabel10121810013D

 25 23  0  0  0  0  0  0  0  0999 V2000
   -1.3753   -1.4126    0.5186 N   0  0  0  0  0  0  0  0  0  0  0  0
   -2.2269   -0.9036   -0.0142 N   0  0  0  0  0  0  0  0  0  0  0  0
   -0.3808   -1.8358    1.1307 N   0  0  0  0  0  0  0  0  0  0  0  0
   -0.3121   -2.8552    1.1006 H   0  0  0  0  0  0  0  0  0  0  0  0
    0.4211   -1.3303    2.6022 H   0  0  0  0  0  0  0  0  0  0  0  0
   -0.5499   -2.7493   -5.1127 C   0  0  0  0  0  0  0  0  0  0  0  0
    0.6803   -3.3566   -4.8631 C   0  0  0  0  0  0  0  0  0  0  0  0
    1.7976   -2.5752   -4.5713 C   0  0  0  0  0  0  0  0  0  0  0  0
    1.6837   -1.1859   -4.5272 C   0  0  0  0  0  0  0  0  0  0  0  0
    0.4537   -0.5787   -4.7768 C   0  0  0  0  0  0  0  0  0  0  0  0
   -0.6633   -1.3603   -5.0695 C   0  0  0  0  0  0  0  0  0  0  0  0
   -1.4179   -3.3575   -5.3436 H   0  0  0  0  0  0  0  0  0  0  0  0
    0.7691   -4.4372   -4.8988 H   0  0  0  0  0  0  0  0  0  0  0  0
    2.7549   -3.0474   -4.3783 H   0  0  0  0  0  0  0  0  0  0  0  0
    2.5530   -0.5777   -4.3011 H   0  0  0  0  0  0  0  0  0  0  0  0
    0.3664    0.5021   -4.7459 H   0  0  0  0  0  0  0  0  0  0  0  0
   -1.6197   -0.8877   -5.2658 H   0  0  0  0  0  0  0  0  0  0  0  0
    1.6578   -2.7197    3.6827 S   0  0  0  0  0  0  0  0  0  0  0  0
    1.8394   -2.9203    5.0974 O   0  0  0  0  0  0  0  0  0  0  0  0
    1.0570   -3.7232    2.8166 O   0  0  0  0  0  0  0  0  0  0  0  0
    0.9379   -1.3117    3.4579 O   0  0  0  0  0  0  0  0  0  0  0  0
    3.3443   -2.3349    2.9474 C   0  0  0  0  0  0  0  0  0  0  0  0
    3.1928   -1.9543    1.6774 F   0  0  0  0  0  0  0  0  0  0  0  0
    3.9333   -1.3641    3.6343 F   0  0  0  0  0  0  0  0  0  0  0  0
    4.0924   -3.4332    2.9935 F   0  0  0  0  0  0  0  0  0  0  0  0
  1  3  2  0  0  0  0
  2  1  2  0  0  0  0
  4  3  1  0  0  0  0
  5 21  1  0  0  0  0
  6 11  2  0  0  0  0
  6  7  1  0  0  0  0
  7  8  2  0  0  0  0
  8  9  1  0  0  0  0
  8 14  1  0  0  0  0
  9 15  1  0  0  0  0
 10 16  1  0  0  0  0
 10  9  2  0  0  0  0
 11 10  1  0  0  0  0
 12  6  1  0  0  0  0
 13  7  1  0  0  0  0
 17 11  1  0  0  0  0
 18 19  2  0  0  0  0
 20 18  2  0  0  0  0
 21 18  1  0  0  0  0
 22 25  1  0  0  0  0
 22 24  1  0  0  0  0
 22 18  1  0  0  0  0
 23 22  1  0  0  0  0
M  RAD  1   2   2
M  END
