Coordinates from ORCA-job C6H6+TfO-+NH2N2+-scan
 OpenBabel10121810013D

 25 23  0  0  0  0  0  0  0  0999 V2000
   -1.6519   -2.7485   -0.6134 N   0  0  0  0  0  0  0  0  0  0  0  0
   -2.7495   -2.6661   -0.8537 N   0  0  0  0  0  0  0  0  0  0  0  0
   -0.4811   -2.8488   -0.2157 N   0  0  0  0  0  0  0  0  0  0  0  0
    0.1882   -2.8370   -0.9935 H   0  0  0  0  0  0  0  0  0  0  0  0
    0.1238   -2.7259    1.3731 H   0  0  0  0  0  0  0  0  0  0  0  0
    0.5331   -0.9958   -3.5658 C   0  0  0  0  0  0  0  0  0  0  0  0
   -0.0036   -1.9803   -4.3959 C   0  0  0  0  0  0  0  0  0  0  0  0
    0.4497   -3.2964   -4.3026 C   0  0  0  0  0  0  0  0  0  0  0  0
    1.4424   -3.6284   -3.3800 C   0  0  0  0  0  0  0  0  0  0  0  0
    1.9818   -2.6445   -2.5475 C   0  0  0  0  0  0  0  0  0  0  0  0
    1.5234   -1.3275   -2.6406 C   0  0  0  0  0  0  0  0  0  0  0  0
    0.1820    0.0275   -3.6408 H   0  0  0  0  0  0  0  0  0  0  0  0
   -0.7729   -1.7222   -5.1154 H   0  0  0  0  0  0  0  0  0  0  0  0
    0.0333   -4.0603   -4.9500 H   0  0  0  0  0  0  0  0  0  0  0  0
    1.7991   -4.6502   -3.3098 H   0  0  0  0  0  0  0  0  0  0  0  0
    2.7453   -2.8980   -1.8213 H   0  0  0  0  0  0  0  0  0  0  0  0
    1.9386   -0.5666   -1.9893 H   0  0  0  0  0  0  0  0  0  0  0  0
    2.0963   -2.2302    2.1081 S   0  0  0  0  0  0  0  0  0  0  0  0
    2.7889   -2.5836    3.3215 O   0  0  0  0  0  0  0  0  0  0  0  0
    2.5738   -2.6092    0.7889 O   0  0  0  0  0  0  0  0  0  0  0  0
    0.5633   -2.6248    2.2717 O   0  0  0  0  0  0  0  0  0  0  0  0
    1.9465   -0.3575    2.0798 C   0  0  0  0  0  0  0  0  0  0  0  0
    1.1500    0.0063    1.0669 F   0  0  0  0  0  0  0  0  0  0  0  0
    1.4347    0.0870    3.2208 F   0  0  0  0  0  0  0  0  0  0  0  0
    3.1536    0.1708    1.8958 F   0  0  0  0  0  0  0  0  0  0  0  0
  1  3  2  0  0  0  0
  2  1  2  0  0  0  0
  4  3  1  0  0  0  0
  5 21  1  0  0  0  0
  6 11  2  0  0  0  0
  7  8  2  0  0  0  0
  7  6  1  0  0  0  0
  8  9  1  0  0  0  0
  9 15  1  0  0  0  0
  9 10  2  0  0  0  0
 10 16  1  0  0  0  0
 11 10  1  0  0  0  0
 11 17  1  0  0  0  0
 12  6  1  0  0  0  0
 13  7  1  0  0  0  0
 14  8  1  0  0  0  0
 18 21  1  0  0  0  0
 18 19  2  0  0  0  0
 20 18  2  0  0  0  0
 22 18  1  0  0  0  0
 22 24  1  0  0  0  0
 23 22  1  0  0  0  0
 25 22  1  0  0  0  0
M  RAD  1   2   2
M  END
