Coordinates from ORCA-job C6H6+TfO-+NH2N2+-scan
 OpenBabel10121810013D

 25 23  0  0  0  0  0  0  0  0999 V2000
   -1.2171   -1.4137    0.7294 N   0  0  0  0  0  0  0  0  0  0  0  0
   -2.0090   -0.9051    0.1111 N   0  0  0  0  0  0  0  0  0  0  0  0
   -0.2888   -1.8438    1.4330 N   0  0  0  0  0  0  0  0  0  0  0  0
   -0.1636   -2.8537    1.3394 H   0  0  0  0  0  0  0  0  0  0  0  0
    0.4012   -1.3836    2.9750 H   0  0  0  0  0  0  0  0  0  0  0  0
   -0.6417   -2.7274   -5.3996 C   0  0  0  0  0  0  0  0  0  0  0  0
    0.5965   -3.3623   -5.3094 C   0  0  0  0  0  0  0  0  0  0  0  0
    1.7535   -2.6092   -5.1131 C   0  0  0  0  0  0  0  0  0  0  0  0
    1.6721   -1.2212   -5.0066 C   0  0  0  0  0  0  0  0  0  0  0  0
    0.4338   -0.5865   -5.0968 C   0  0  0  0  0  0  0  0  0  0  0  0
   -0.7230   -1.3395   -5.2932 C   0  0  0  0  0  0  0  0  0  0  0  0
   -1.5415   -3.3130   -5.5549 H   0  0  0  0  0  0  0  0  0  0  0  0
    0.6601   -4.4418   -5.3941 H   0  0  0  0  0  0  0  0  0  0  0  0
    2.7169   -3.1029   -5.0445 H   0  0  0  0  0  0  0  0  0  0  0  0
    2.5722   -0.6351   -4.8555 H   0  0  0  0  0  0  0  0  0  0  0  0
    0.3707    0.4934   -5.0160 H   0  0  0  0  0  0  0  0  0  0  0  0
   -1.6861   -0.8455   -5.3649 H   0  0  0  0  0  0  0  0  0  0  0  0
    1.6569   -2.7698    4.0378 S   0  0  0  0  0  0  0  0  0  0  0  0
    1.7756   -3.0468    5.4462 O   0  0  0  0  0  0  0  0  0  0  0  0
    1.1582   -3.7486    3.0830 O   0  0  0  0  0  0  0  0  0  0  0  0
    0.8734   -1.3898    3.8558 O   0  0  0  0  0  0  0  0  0  0  0  0
    3.3556   -2.2530    3.4209 C   0  0  0  0  0  0  0  0  0  0  0  0
    3.2499   -1.8038    2.1687 F   0  0  0  0  0  0  0  0  0  0  0  0
    3.8527   -1.2964    4.1948 F   0  0  0  0  0  0  0  0  0  0  0  0
    4.1602   -3.3113    3.4445 F   0  0  0  0  0  0  0  0  0  0  0  0
  1  3  2  0  0  0  0
  2  1  2  0  0  0  0
  4  3  1  0  0  0  0
  5 21  1  0  0  0  0
  6  7  2  0  0  0  0
  6 11  1  0  0  0  0
  7  8  1  0  0  0  0
  8 14  1  0  0  0  0
  8  9  2  0  0  0  0
  9 15  1  0  0  0  0
 10 16  1  0  0  0  0
 10  9  1  0  0  0  0
 11 10  2  0  0  0  0
 12  6  1  0  0  0  0
 13  7  1  0  0  0  0
 17 11  1  0  0  0  0
 18 19  2  0  0  0  0
 20 18  2  0  0  0  0
 21 18  1  0  0  0  0
 22 25  1  0  0  0  0
 22 18  1  0  0  0  0
 22 24  1  0  0  0  0
 23 22  1  0  0  0  0
M  RAD  1   2   2
M  END
