Coordinates from ORCA-job C6H6+TfO-+NH2N2+-scan
 OpenBabel10121810013D

 25 23  0  0  0  0  0  0  0  0999 V2000
   -1.3445   -1.4018    0.6211 N   0  0  0  0  0  0  0  0  0  0  0  0
   -2.1764   -0.8905    0.0600 N   0  0  0  0  0  0  0  0  0  0  0  0
   -0.3720   -1.8300    1.2638 N   0  0  0  0  0  0  0  0  0  0  0  0
   -0.2775   -2.8454    1.1952 H   0  0  0  0  0  0  0  0  0  0  0  0
    0.4007   -1.3535    2.7607 H   0  0  0  0  0  0  0  0  0  0  0  0
   -0.5787   -2.7413   -5.2205 C   0  0  0  0  0  0  0  0  0  0  0  0
    0.6540   -3.3632   -5.0253 C   0  0  0  0  0  0  0  0  0  0  0  0
    1.7887   -2.5961   -4.7641 C   0  0  0  0  0  0  0  0  0  0  0  0
    1.6899   -1.2067   -4.6964 C   0  0  0  0  0  0  0  0  0  0  0  0
    0.4574   -0.5848   -4.8918 C   0  0  0  0  0  0  0  0  0  0  0  0
   -0.6771   -1.3520   -5.1538 C   0  0  0  0  0  0  0  0  0  0  0  0
   -1.4606   -3.3382   -5.4271 H   0  0  0  0  0  0  0  0  0  0  0  0
    0.7310   -4.4439   -5.0792 H   0  0  0  0  0  0  0  0  0  0  0  0
    2.7478   -3.0797   -4.6135 H   0  0  0  0  0  0  0  0  0  0  0  0
    2.5728   -0.6098   -4.4942 H   0  0  0  0  0  0  0  0  0  0  0  0
    0.3816    0.4961   -4.8420 H   0  0  0  0  0  0  0  0  0  0  0  0
   -1.6356   -0.8680   -5.3076 H   0  0  0  0  0  0  0  0  0  0  0  0
    1.6651   -2.7477    3.8028 S   0  0  0  0  0  0  0  0  0  0  0  0
    1.8398   -2.9929    5.2113 O   0  0  0  0  0  0  0  0  0  0  0  0
    1.0976   -3.7354    2.8969 O   0  0  0  0  0  0  0  0  0  0  0  0
    0.9115   -1.3514    3.6199 O   0  0  0  0  0  0  0  0  0  0  0  0
    3.3475   -2.2941    3.0977 C   0  0  0  0  0  0  0  0  0  0  0  0
    3.1976   -1.8736    1.8402 F   0  0  0  0  0  0  0  0  0  0  0  0
    3.9045   -1.3328    3.8236 F   0  0  0  0  0  0  0  0  0  0  0  0
    4.1237   -3.3736    3.1134 F   0  0  0  0  0  0  0  0  0  0  0  0
  1  3  2  0  0  0  0
  2  1  2  0  0  0  0
  4  3  1  0  0  0  0
  5 21  1  0  0  0  0
  6 11  2  0  0  0  0
  6  7  1  0  0  0  0
  7  8  2  0  0  0  0
  8  9  1  0  0  0  0
  8 14  1  0  0  0  0
  9 15  1  0  0  0  0
 10 16  1  0  0  0  0
 10  9  2  0  0  0  0
 11 10  1  0  0  0  0
 12  6  1  0  0  0  0
 13  7  1  0  0  0  0
 17 11  1  0  0  0  0
 18 19  2  0  0  0  0
 20 18  2  0  0  0  0
 21 18  1  0  0  0  0
 22 25  1  0  0  0  0
 22 18  1  0  0  0  0
 22 24  1  0  0  0  0
 23 22  1  0  0  0  0
M  RAD  1   2   2
M  END
