Coordinates from ORCA-job C6H6+TfO-+NH2N2+-scan
 OpenBabel10121810013D

 25 23  0  0  0  0  0  0  0  0999 V2000
   -1.6710   -1.1872   -0.7392 N   0  0  0  0  0  0  0  0  0  0  0  0
   -2.5866   -0.5397   -0.8566 N   0  0  0  0  0  0  0  0  0  0  0  0
   -0.6933   -1.9096   -0.4956 N   0  0  0  0  0  0  0  0  0  0  0  0
   -0.1223   -2.0813   -1.3327 H   0  0  0  0  0  0  0  0  0  0  0  0
   -0.3012   -2.4686    1.0461 H   0  0  0  0  0  0  0  0  0  0  0  0
    0.2046   -1.9786   -4.4840 C   0  0  0  0  0  0  0  0  0  0  0  0
    0.3564   -2.9824   -3.5279 C   0  0  0  0  0  0  0  0  0  0  0  0
    1.2450   -2.8072   -2.4617 C   0  0  0  0  0  0  0  0  0  0  0  0
    2.0056   -1.6359   -2.3777 C   0  0  0  0  0  0  0  0  0  0  0  0
    1.8547   -0.6349   -3.3358 C   0  0  0  0  0  0  0  0  0  0  0  0
    0.9530   -0.8055   -4.3865 C   0  0  0  0  0  0  0  0  0  0  0  0
   -0.4882   -2.1134   -5.3072 H   0  0  0  0  0  0  0  0  0  0  0  0
   -0.2178   -3.8994   -3.6060 H   0  0  0  0  0  0  0  0  0  0  0  0
    1.3884   -3.5918   -1.7270 H   0  0  0  0  0  0  0  0  0  0  0  0
    2.7014   -1.5072   -1.5565 H   0  0  0  0  0  0  0  0  0  0  0  0
    2.4415    0.2744   -3.2671 H   0  0  0  0  0  0  0  0  0  0  0  0
    0.8365   -0.0262   -5.1317 H   0  0  0  0  0  0  0  0  0  0  0  0
    1.3506   -3.5176    1.9830 S   0  0  0  0  0  0  0  0  0  0  0  0
    1.4083   -4.3903    3.1286 O   0  0  0  0  0  0  0  0  0  0  0  0
    1.6976   -3.9564    0.6416 O   0  0  0  0  0  0  0  0  0  0  0  0
   -0.0608   -2.7884    1.9729 O   0  0  0  0  0  0  0  0  0  0  0  0
    2.4693   -2.0529    2.3468 C   0  0  0  0  0  0  0  0  0  0  0  0
    2.3150   -1.1305    1.3879 F   0  0  0  0  0  0  0  0  0  0  0  0
    2.1677   -1.5156    3.5225 F   0  0  0  0  0  0  0  0  0  0  0  0
    3.7344   -2.4643    2.3552 F   0  0  0  0  0  0  0  0  0  0  0  0
  1  3  2  0  0  0  0
  2  1  2  0  0  0  0
  4  3  1  0  0  0  0
  5 21  1  0  0  0  0
  6 11  2  0  0  0  0
  6  7  1  0  0  0  0
  7  8  2  0  0  0  0
  8  9  1  0  0  0  0
  8 14  1  0  0  0  0
  9 15  1  0  0  0  0
 10 16  1  0  0  0  0
 10  9  2  0  0  0  0
 11 10  1  0  0  0  0
 12  6  1  0  0  0  0
 13  7  1  0  0  0  0
 17 11  1  0  0  0  0
 18 22  1  0  0  0  0
 18 19  2  0  0  0  0
 20 18  2  0  0  0  0
 21 18  1  0  0  0  0
 22 25  1  0  0  0  0
 22 24  1  0  0  0  0
 23 22  1  0  0  0  0
M  RAD  1   2   2
M  END
