Coordinates from ORCA-job C6H6+TfO-+NH2N2+-scan
 OpenBabel10121810013D

 25 25  0  0  1  0  0  0  0  0999 V2000
   -1.1505   -1.0894   -1.1318 N   0  0  0  0  0  0  0  0  0  0  0  0
   -1.5483   -1.5193   -2.2052 N   0  0  0  0  0  0  0  0  0  0  0  0
    0.1068   -1.5523   -0.7116 N   0  0  0  0  0  0  0  0  0  0  0  0
    0.6955   -0.7427   -0.5085 H   0  0  0  0  0  0  0  0  0  0  0  0
    0.0833   -2.4818    0.6048 H   0  0  0  0  0  0  0  0  0  0  0  0
   -0.2799   -1.7666   -4.2827 C   0  0  0  0  0  0  0  0  0  0  0  0
   -0.5054   -2.3865   -2.9365 C   0  0  1  0  0  0  0  0  0  0  0  0
    0.7238   -2.4782   -2.0379 C   0  0  1  0  0  0  0  0  0  0  0  0
    1.9932   -1.8983   -2.5337 C   0  0  0  0  0  0  0  0  0  0  0  0
    2.0655   -1.3239   -3.7447 C   0  0  0  0  0  0  0  0  0  0  0  0
    0.9097   -1.2624   -4.6356 C   0  0  0  0  0  0  0  0  0  0  0  0
   -1.1355   -1.7182   -4.9463 H   0  0  0  0  0  0  0  0  0  0  0  0
   -1.0053   -3.3534   -3.0426 H   0  0  0  0  0  0  0  0  0  0  0  0
    0.8647   -3.4482   -1.5701 H   0  0  0  0  0  0  0  0  0  0  0  0
    2.8580   -1.9876   -1.8864 H   0  0  0  0  0  0  0  0  0  0  0  0
    3.0072   -0.9153   -4.0948 H   0  0  0  0  0  0  0  0  0  0  0  0
    1.0370   -0.8091   -5.6125 H   0  0  0  0  0  0  0  0  0  0  0  0
    1.6730   -3.3834    1.7897 S   0  0  0  0  0  0  0  0  0  0  0  0
    1.7649   -4.5990    2.5608 O   0  0  0  0  0  0  0  0  0  0  0  0
    2.5220   -3.1289    0.6341 O   0  0  0  0  0  0  0  0  0  0  0  0
    0.1597   -3.1167    1.4185 O   0  0  0  0  0  0  0  0  0  0  0  0
    1.9795   -1.9499    2.9642 C   0  0  0  0  0  0  0  0  0  0  0  0
    1.7122   -0.7999    2.3279 F   0  0  0  0  0  0  0  0  0  0  0  0
    1.2016   -2.0466    4.0348 F   0  0  0  0  0  0  0  0  0  0  0  0
    3.2560   -1.9528    3.3374 F   0  0  0  0  0  0  0  0  0  0  0  0
  1  3  1  0  0  0  0
  2  1  2  0  0  0  0
  3  4  1  0  0  0  0
  5 21  1  0  0  0  0
  6  7  1  0  0  0  0
  7 13  1  6  0  0  0
  7  2  1  0  0  0  0
  7  8  1  0  0  0  0
  8 14  1  1  0  0  0
  8  3  1  0  0  0  0
  9  8  1  0  0  0  0
  9 15  1  0  0  0  0
 10  9  2  0  0  0  0
 11  6  2  0  0  0  0
 11 10  1  0  0  0  0
 12  6  1  0  0  0  0
 16 10  1  0  0  0  0
 17 11  1  0  0  0  0
 18 19  2  0  0  0  0
 18 22  1  0  0  0  0
 20 18  2  0  0  0  0
 21 18  1  0  0  0  0
 22 25  1  0  0  0  0
 22 24  1  0  0  0  0
 23 22  1  0  0  0  0
M  END
