Coordinates from ORCA-job C6H6+TfO-+NH2N2+-scan
 OpenBabel10121810013D

 25 23  0  0  0  0  0  0  0  0999 V2000
   -1.7506   -1.5331   -0.8707 N   0  0  0  0  0  0  0  0  0  0  0  0
   -2.8450   -1.4087   -1.1098 N   0  0  0  0  0  0  0  0  0  0  0  0
   -0.5800   -1.7724   -0.5322 N   0  0  0  0  0  0  0  0  0  0  0  0
    0.0913   -1.3231   -1.1571 H   0  0  0  0  0  0  0  0  0  0  0  0
   -0.1837   -2.4007    1.0066 H   0  0  0  0  0  0  0  0  0  0  0  0
    0.1432   -1.8641   -4.4708 C   0  0  0  0  0  0  0  0  0  0  0  0
    0.1201   -2.8498   -3.4851 C   0  0  0  0  0  0  0  0  0  0  0  0
    1.0170   -2.7947   -2.4159 C   0  0  0  0  0  0  0  0  0  0  0  0
    1.9702   -1.7728   -2.3663 C   0  0  0  0  0  0  0  0  0  0  0  0
    1.9902   -0.7835   -3.3525 C   0  0  0  0  0  0  0  0  0  0  0  0
    1.0736   -0.8259   -4.4021 C   0  0  0  0  0  0  0  0  0  0  0  0
   -0.5589   -1.9071   -5.2964 H   0  0  0  0  0  0  0  0  0  0  0  0
   -0.6001   -3.6588   -3.5447 H   0  0  0  0  0  0  0  0  0  0  0  0
    1.0187   -3.5620   -1.6530 H   0  0  0  0  0  0  0  0  0  0  0  0
    2.6914   -1.7519   -1.5564 H   0  0  0  0  0  0  0  0  0  0  0  0
    2.7277    0.0105   -3.3075 H   0  0  0  0  0  0  0  0  0  0  0  0
    1.0906   -0.0605   -5.1700 H   0  0  0  0  0  0  0  0  0  0  0  0
    1.4298   -3.4804    1.9831 S   0  0  0  0  0  0  0  0  0  0  0  0
    1.4484   -4.3500    3.1320 O   0  0  0  0  0  0  0  0  0  0  0  0
    1.8285   -3.9153    0.6562 O   0  0  0  0  0  0  0  0  0  0  0  0
    0.0113   -2.7607    1.9251 O   0  0  0  0  0  0  0  0  0  0  0  0
    2.5178   -2.0021    2.3835 C   0  0  0  0  0  0  0  0  0  0  0  0
    2.3694   -1.0777    1.4232 F   0  0  0  0  0  0  0  0  0  0  0  0
    2.1793   -1.4740    3.5528 F   0  0  0  0  0  0  0  0  0  0  0  0
    3.7883   -2.3915    2.4194 F   0  0  0  0  0  0  0  0  0  0  0  0
  1  3  2  0  0  0  0
  2  1  2  0  0  0  0
  4  3  1  0  0  0  0
  5 21  1  0  0  0  0
  6 11  2  0  0  0  0
  6  7  1  0  0  0  0
  7  8  2  0  0  0  0
  8  9  1  0  0  0  0
  8 14  1  0  0  0  0
  9 15  1  0  0  0  0
 10 16  1  0  0  0  0
 10  9  2  0  0  0  0
 11 10  1  0  0  0  0
 12  6  1  0  0  0  0
 13  7  1  0  0  0  0
 17 11  1  0  0  0  0
 18 22  1  0  0  0  0
 18 19  2  0  0  0  0
 20 18  2  0  0  0  0
 21 18  1  0  0  0  0
 22 25  1  0  0  0  0
 22 24  1  0  0  0  0
 23 22  1  0  0  0  0
M  RAD  1   2   2
M  END
