Coordinates from ORCA-job C6H6+TfO-+NH2N2+-scan
 OpenBabel10121810013D

 25 23  0  0  0  0  0  0  0  0999 V2000
   -1.6177   -3.0134   -0.8879 N   0  0  0  0  0  0  0  0  0  0  0  0
   -2.7078   -3.0562   -1.1707 N   0  0  0  0  0  0  0  0  0  0  0  0
   -0.4595   -2.9754   -0.4498 N   0  0  0  0  0  0  0  0  0  0  0  0
    0.2341   -2.9489   -1.2037 H   0  0  0  0  0  0  0  0  0  0  0  0
    0.0535   -2.7750    1.1613 H   0  0  0  0  0  0  0  0  0  0  0  0
    0.6871   -0.8709   -3.3708 C   0  0  0  0  0  0  0  0  0  0  0  0
   -0.1279   -1.8651   -3.9137 C   0  0  0  0  0  0  0  0  0  0  0  0
    0.2372   -3.2065   -3.7942 C   0  0  0  0  0  0  0  0  0  0  0  0
    1.4248   -3.5532   -3.1459 C   0  0  0  0  0  0  0  0  0  0  0  0
    2.2366   -2.5582   -2.5965 C   0  0  0  0  0  0  0  0  0  0  0  0
    1.8639   -1.2175   -2.7076 C   0  0  0  0  0  0  0  0  0  0  0  0
    0.4018    0.1715   -3.4587 H   0  0  0  0  0  0  0  0  0  0  0  0
   -1.0444   -1.5960   -4.4271 H   0  0  0  0  0  0  0  0  0  0  0  0
   -0.3925   -3.9797   -4.2211 H   0  0  0  0  0  0  0  0  0  0  0  0
    1.7135   -4.5949   -3.0601 H   0  0  0  0  0  0  0  0  0  0  0  0
    3.1393   -2.8269   -2.0616 H   0  0  0  0  0  0  0  0  0  0  0  0
    2.4880   -0.4472   -2.2693 H   0  0  0  0  0  0  0  0  0  0  0  0
    1.9730   -2.2604    2.0167 S   0  0  0  0  0  0  0  0  0  0  0  0
    2.5570   -2.5260    3.3075 O   0  0  0  0  0  0  0  0  0  0  0  0
    2.5505   -2.7443    0.7750 O   0  0  0  0  0  0  0  0  0  0  0  0
    0.4250   -2.6236    2.0837 O   0  0  0  0  0  0  0  0  0  0  0  0
    1.8565   -0.3937    1.8368 C   0  0  0  0  0  0  0  0  0  0  0  0
    1.1286   -0.0971    0.7536 F   0  0  0  0  0  0  0  0  0  0  0  0
    1.2863    0.1439    2.9084 F   0  0  0  0  0  0  0  0  0  0  0  0
    3.0820    0.1045    1.6870 F   0  0  0  0  0  0  0  0  0  0  0  0
  1  3  2  0  0  0  0
  2  1  2  0  0  0  0
  4  3  1  0  0  0  0
  5 21  1  0  0  0  0
  6 11  2  0  0  0  0
  7  8  2  0  0  0  0
  7  6  1  0  0  0  0
  8  9  1  0  0  0  0
  9 15  1  0  0  0  0
  9 10  2  0  0  0  0
 10 16  1  0  0  0  0
 11 10  1  0  0  0  0
 11 17  1  0  0  0  0
 12  6  1  0  0  0  0
 13  7  1  0  0  0  0
 14  8  1  0  0  0  0
 18 21  1  0  0  0  0
 18 19  2  0  0  0  0
 20 18  2  0  0  0  0
 22 18  1  0  0  0  0
 22 24  1  0  0  0  0
 23 22  1  0  0  0  0
 25 22  1  0  0  0  0
M  RAD  1   2   2
M  END
