Coordinates from ORCA-job C6H6+TfO-+NH2N2+-scan
 OpenBabel10121810013D

 25 23  0  0  0  0  0  0  0  0999 V2000
   -2.1315   -0.7510    1.1842 N   0  0  0  0  0  0  0  0  0  0  0  0
   -1.7141   -0.9531    0.1921 N   0  0  0  0  0  0  0  0  0  0  0  0
    1.5674   -2.4185   -1.1656 N   0  0  0  0  0  0  0  0  0  0  0  0
    2.4633   -2.2844   -0.6651 H   0  0  0  0  0  0  0  0  0  0  0  0
    0.9027   -2.8117   -0.4124 H   0  0  0  0  0  0  0  0  0  0  0  0
   -0.2283   -2.1448   -4.2478 C   0  0  0  0  0  0  0  0  0  0  0  0
   -0.0355   -2.4669   -2.7995 C   0  0  0  0  0  0  0  0  0  0  0  0
    1.3602   -2.2058   -2.2145 C   0  0  0  0  0  0  0  0  0  0  0  0
    2.3681   -1.6624   -3.1459 C   0  0  0  0  0  0  0  0  0  0  0  0
    2.0736   -1.4112   -4.4350 C   0  0  0  0  0  0  0  0  0  0  0  0
    0.7572   -1.6514   -5.0073 C   0  0  0  0  0  0  0  0  0  0  0  0
   -1.2140   -2.3293   -4.6612 H   0  0  0  0  0  0  0  0  0  0  0  0
   -0.7585   -1.9064   -2.1930 H   0  0  0  0  0  0  0  0  0  0  0  0
   -0.2805   -3.5220   -2.6195 H   0  0  0  0  0  0  0  0  0  0  0  0
    3.3590   -1.4746   -2.7437 H   0  0  0  0  0  0  0  0  0  0  0  0
    2.8475   -1.0118   -5.0825 H   0  0  0  0  0  0  0  0  0  0  0  0
    0.5955   -1.4237   -6.0539 H   0  0  0  0  0  0  0  0  0  0  0  0
    1.6579   -3.1792    1.9396 S   0  0  0  0  0  0  0  0  0  0  0  0
    1.8588   -4.3008    2.8414 O   0  0  0  0  0  0  0  0  0  0  0  0
    2.8451   -2.6631    1.2113 O   0  0  0  0  0  0  0  0  0  0  0  0
    0.4753   -3.3017    1.0126 O   0  0  0  0  0  0  0  0  0  0  0  0
    1.1512   -1.7354    3.0199 C   0  0  0  0  0  0  0  0  0  0  0  0
    0.9222   -0.6517    2.2520 F   0  0  0  0  0  0  0  0  0  0  0  0
    0.0313   -2.0142    3.6920 F   0  0  0  0  0  0  0  0  0  0  0  0
    2.1147   -1.4353    3.8928 F   0  0  0  0  0  0  0  0  0  0  0  0
  2  1  3  0  0  0  0
  3  4  1  0  0  0  0
  3  5  1  0  0  0  0
  6  7  1  0  0  0  0
  7 14  1  0  0  0  0
  7  8  1  0  0  0  0
  7 13  1  0  0  0  0
  8  3  1  0  0  0  0
  9 15  1  0  0  0  0
  9  8  2  0  0  0  0
 10  9  1  0  0  0  0
 11 10  1  0  0  0  0
 11  6  2  0  0  0  0
 12  6  1  0  0  0  0
 16 10  1  0  0  0  0
 17 11  1  0  0  0  0
 18 19  1  0  0  0  0
 18 22  1  0  0  0  0
 20 18  2  0  0  0  0
 21 18  2  0  0  0  0
 22 24  1  0  0  0  0
 22 25  1  0  0  0  0
 23 22  1  0  0  0  0
M  RAD  2  10   2  19   2
M  END
