Coordinates from ORCA-job C6H6+TfO-+NH2N2+-scan
 OpenBabel10121810013D

 25 25  0  0  1  0  0  0  0  0999 V2000
   -1.1785   -1.1241   -1.1384 N   0  0  0  0  0  0  0  0  0  0  0  0
   -1.5628   -1.5657   -2.2108 N   0  0  0  0  0  0  0  0  0  0  0  0
    0.0748   -1.5420   -0.6955 N   0  0  0  0  0  0  0  0  0  0  0  0
    0.6448   -0.7157   -0.5043 H   0  0  0  0  0  0  0  0  0  0  0  0
    0.0651   -2.4661    0.6209 H   0  0  0  0  0  0  0  0  0  0  0  0
   -0.2690   -1.7580   -4.2785 C   0  0  0  0  0  0  0  0  0  0  0  0
   -0.4896   -2.4098   -2.9481 C   0  0  1  0  0  0  0  0  0  0  0  0
    0.7346   -2.5040   -2.0549 C   0  0  1  0  0  0  0  0  0  0  0  0
    1.9998   -1.9150   -2.5312 C   0  0  0  0  0  0  0  0  0  0  0  0
    2.0718   -1.3119   -3.7302 C   0  0  0  0  0  0  0  0  0  0  0  0
    0.9172   -1.2355   -4.6190 C   0  0  0  0  0  0  0  0  0  0  0  0
   -1.1245   -1.7011   -4.9415 H   0  0  0  0  0  0  0  0  0  0  0  0
   -0.9806   -3.3789   -3.0725 H   0  0  0  0  0  0  0  0  0  0  0  0
    0.8669   -3.4581   -1.5554 H   0  0  0  0  0  0  0  0  0  0  0  0
    2.8643   -2.0175   -1.8858 H   0  0  0  0  0  0  0  0  0  0  0  0
    3.0129   -0.8938   -4.0706 H   0  0  0  0  0  0  0  0  0  0  0  0
    1.0413   -0.7581   -5.5848 H   0  0  0  0  0  0  0  0  0  0  0  0
    1.6529   -3.3889    1.7958 S   0  0  0  0  0  0  0  0  0  0  0  0
    1.7282   -4.5917    2.5886 O   0  0  0  0  0  0  0  0  0  0  0  0
    2.4936   -3.1745    0.6262 O   0  0  0  0  0  0  0  0  0  0  0  0
    0.1415   -3.0967    1.4386 O   0  0  0  0  0  0  0  0  0  0  0  0
    2.0052   -1.9411    2.9394 C   0  0  0  0  0  0  0  0  0  0  0  0
    1.7528   -0.7972    2.2856 F   0  0  0  0  0  0  0  0  0  0  0  0
    1.2402   -2.0016    4.0220 F   0  0  0  0  0  0  0  0  0  0  0  0
    3.2863   -1.9634    3.2957 F   0  0  0  0  0  0  0  0  0  0  0  0
  1  3  1  0  0  0  0
  2  1  2  0  0  0  0
  3  4  1  0  0  0  0
  5 21  1  0  0  0  0
  6  7  1  0  0  0  0
  7 13  1  6  0  0  0
  7  2  1  0  0  0  0
  7  8  1  0  0  0  0
  8 14  1  1  0  0  0
  8  3  1  0  0  0  0
  9  8  1  0  0  0  0
  9 15  1  0  0  0  0
 10  9  2  0  0  0  0
 11  6  2  0  0  0  0
 11 10  1  0  0  0  0
 12  6  1  0  0  0  0
 16 10  1  0  0  0  0
 17 11  1  0  0  0  0
 18 19  2  0  0  0  0
 18 22  1  0  0  0  0
 20 18  2  0  0  0  0
 21 18  1  0  0  0  0
 22 25  1  0  0  0  0
 22 24  1  0  0  0  0
 23 22  1  0  0  0  0
M  END
