Coordinates from ORCA-job C6H6+TfO-+NH2N2+-scan
 OpenBabel10121810013D

 25 23  0  0  0  0  0  0  0  0999 V2000
   -1.2764   -1.0509   -0.6621 N   0  0  0  0  0  0  0  0  0  0  0  0
   -2.3277   -0.6435   -0.6538 N   0  0  0  0  0  0  0  0  0  0  0  0
   -0.1825   -1.6451   -0.6466 N   0  0  0  0  0  0  0  0  0  0  0  0
    0.5426   -1.1035   -1.1169 H   0  0  0  0  0  0  0  0  0  0  0  0
    0.2546   -2.7327    0.6056 H   0  0  0  0  0  0  0  0  0  0  0  0
   -0.1241   -1.8201   -4.5058 C   0  0  0  0  0  0  0  0  0  0  0  0
   -0.2776   -2.7625   -3.4902 C   0  0  0  0  0  0  0  0  0  0  0  0
    0.7359   -2.9493   -2.5488 C   0  0  0  0  0  0  0  0  0  0  0  0
    1.9379   -2.2476   -2.6746 C   0  0  0  0  0  0  0  0  0  0  0  0
    2.0872   -1.3005   -3.6897 C   0  0  0  0  0  0  0  0  0  0  0  0
    1.0549   -1.0800   -4.6015 C   0  0  0  0  0  0  0  0  0  0  0  0
   -0.9190   -1.6681   -5.2280 H   0  0  0  0  0  0  0  0  0  0  0  0
   -1.1931   -3.3406   -3.4222 H   0  0  0  0  0  0  0  0  0  0  0  0
    0.6294   -3.7048   -1.7823 H   0  0  0  0  0  0  0  0  0  0  0  0
    2.7396   -2.4243   -1.9663 H   0  0  0  0  0  0  0  0  0  0  0  0
    3.0155   -0.7460   -3.7770 H   0  0  0  0  0  0  0  0  0  0  0  0
    1.1743   -0.3473   -5.3920 H   0  0  0  0  0  0  0  0  0  0  0  0
    2.0560   -3.1751    1.7235 S   0  0  0  0  0  0  0  0  0  0  0  0
    2.5340   -4.3901    2.3337 O   0  0  0  0  0  0  0  0  0  0  0  0
    2.7631   -2.4983    0.6502 O   0  0  0  0  0  0  0  0  0  0  0  0
    0.5287   -3.3891    1.3151 O   0  0  0  0  0  0  0  0  0  0  0  0
    1.8448   -1.9039    3.0925 C   0  0  0  0  0  0  0  0  0  0  0  0
    1.1901   -0.8429    2.6081 F   0  0  0  0  0  0  0  0  0  0  0  0
    1.1559   -2.4219    4.1019 F   0  0  0  0  0  0  0  0  0  0  0  0
    3.0448   -1.5225    3.5185 F   0  0  0  0  0  0  0  0  0  0  0  0
  1  2  2  0  0  0  0
  1  3  2  0  0  0  0
  4  3  1  0  0  0  0
  5 21  1  0  0  0  0
  6  7  1  0  0  0  0
  7 13  1  0  0  0  0
  7  8  2  0  0  0  0
  8 14  1  0  0  0  0
  9  8  1  0  0  0  0
  9 15  1  0  0  0  0
 10  9  2  0  0  0  0
 11  6  2  0  0  0  0
 11 10  1  0  0  0  0
 12  6  1  0  0  0  0
 16 10  1  0  0  0  0
 17 11  1  0  0  0  0
 18 19  2  0  0  0  0
 18 22  1  0  0  0  0
 20 18  2  0  0  0  0
 21 18  1  0  0  0  0
 22 25  1  0  0  0  0
 22 24  1  0  0  0  0
 23 22  1  0  0  0  0
M  RAD  1   2   2
M  END
