Coordinates from ORCA-job C6H6+TfO-+NH2N2+-scan
 OpenBabel10121810013D

 25 23  0  0  0  0  0  0  0  0999 V2000
   -2.1819   -2.6533    0.2760 N   0  0  0  0  0  0  0  0  0  0  0  0
   -3.3016   -2.5915    0.1747 N   0  0  0  0  0  0  0  0  0  0  0  0
   -0.9669   -2.6989    0.5301 N   0  0  0  0  0  0  0  0  0  0  0  0
   -0.4084   -2.8799   -0.3074 H   0  0  0  0  0  0  0  0  0  0  0  0
   -0.0811   -2.4402    1.9909 H   0  0  0  0  0  0  0  0  0  0  0  0
    0.4076   -1.1719   -3.7220 C   0  0  0  0  0  0  0  0  0  0  0  0
    0.4690   -1.9020   -4.9081 C   0  0  0  0  0  0  0  0  0  0  0  0
    1.1735   -3.1055   -4.9509 C   0  0  0  0  0  0  0  0  0  0  0  0
    1.8113   -3.5812   -3.8058 C   0  0  0  0  0  0  0  0  0  0  0  0
    1.7533   -2.8514   -2.6174 C   0  0  0  0  0  0  0  0  0  0  0  0
    1.0521   -1.6448   -2.5778 C   0  0  0  0  0  0  0  0  0  0  0  0
   -0.1320   -0.2312   -3.6915 H   0  0  0  0  0  0  0  0  0  0  0  0
   -0.0265   -1.5320   -5.7992 H   0  0  0  0  0  0  0  0  0  0  0  0
    1.2245   -3.6708   -5.8752 H   0  0  0  0  0  0  0  0  0  0  0  0
    2.3604   -4.5160   -3.8396 H   0  0  0  0  0  0  0  0  0  0  0  0
    2.2584   -3.2068   -1.7264 H   0  0  0  0  0  0  0  0  0  0  0  0
    1.0280   -1.0656   -1.6604 H   0  0  0  0  0  0  0  0  0  0  0  0
    2.0526   -2.2116    2.1352 S   0  0  0  0  0  0  0  0  0  0  0  0
    2.9904   -2.5937    3.1596 O   0  0  0  0  0  0  0  0  0  0  0  0
    2.0765   -2.7729    0.7939 O   0  0  0  0  0  0  0  0  0  0  0  0
    0.5782   -2.3078    2.7334 O   0  0  0  0  0  0  0  0  0  0  0  0
    2.1904   -0.3499    1.9173 C   0  0  0  0  0  0  0  0  0  0  0  0
    1.2116    0.0701    1.1059 F   0  0  0  0  0  0  0  0  0  0  0  0
    2.0828    0.2642    3.0883 F   0  0  0  0  0  0  0  0  0  0  0  0
    3.3666   -0.0655    1.3678 F   0  0  0  0  0  0  0  0  0  0  0  0
  1  3  2  0  0  0  0
  2  1  2  0  0  0  0
  4  3  1  0  0  0  0
  5 21  1  0  0  0  0
  6 12  1  0  0  0  0
  6 11  2  0  0  0  0
  7  6  1  0  0  0  0
  8  7  2  0  0  0  0
  8  9  1  0  0  0  0
  9 10  2  0  0  0  0
 10 11  1  0  0  0  0
 10 16  1  0  0  0  0
 11 17  1  0  0  0  0
 13  7  1  0  0  0  0
 14  8  1  0  0  0  0
 15  9  1  0  0  0  0
 18 21  1  0  0  0  0
 18 19  2  0  0  0  0
 20 18  2  0  0  0  0
 22 18  1  0  0  0  0
 22 24  1  0  0  0  0
 23 22  1  0  0  0  0
 25 22  1  0  0  0  0
M  RAD  1   2   2
M  END
