Coordinates from ORCA-job C6H6+TfO-+NH2N2+-scan
 OpenBabel10121810013D

 25 23  0  0  0  0  0  0  0  0999 V2000
   -1.2449   -1.4083    0.7152 N   0  0  0  0  0  0  0  0  0  0  0  0
   -2.0427   -0.8973    0.1064 N   0  0  0  0  0  0  0  0  0  0  0  0
   -0.3103   -1.8405    1.4090 N   0  0  0  0  0  0  0  0  0  0  0  0
   -0.1864   -2.8502    1.3118 H   0  0  0  0  0  0  0  0  0  0  0  0
    0.3950   -1.3830    2.9446 H   0  0  0  0  0  0  0  0  0  0  0  0
   -0.6311   -2.7286   -5.3667 C   0  0  0  0  0  0  0  0  0  0  0  0
    0.6054   -3.3642   -5.2599 C   0  0  0  0  0  0  0  0  0  0  0  0
    1.7607   -2.6114   -5.0534 C   0  0  0  0  0  0  0  0  0  0  0  0
    1.6793   -1.2230   -4.9532 C   0  0  0  0  0  0  0  0  0  0  0  0
    0.4428   -0.5875   -5.0599 C   0  0  0  0  0  0  0  0  0  0  0  0
   -0.7124   -1.3403   -5.2666 C   0  0  0  0  0  0  0  0  0  0  0  0
   -1.5297   -3.3140   -5.5301 H   0  0  0  0  0  0  0  0  0  0  0  0
    0.6689   -4.4442   -5.3398 H   0  0  0  0  0  0  0  0  0  0  0  0
    2.7228   -3.1057   -4.9719 H   0  0  0  0  0  0  0  0  0  0  0  0
    2.5782   -0.6370   -4.7941 H   0  0  0  0  0  0  0  0  0  0  0  0
    0.3797    0.4928   -4.9841 H   0  0  0  0  0  0  0  0  0  0  0  0
   -1.6741   -0.8457   -5.3513 H   0  0  0  0  0  0  0  0  0  0  0  0
    1.6608   -2.7708    3.9933 S   0  0  0  0  0  0  0  0  0  0  0  0
    1.7929   -3.0499    5.4002 O   0  0  0  0  0  0  0  0  0  0  0  0
    1.1530   -3.7481    3.0419 O   0  0  0  0  0  0  0  0  0  0  0  0
    0.8754   -1.3906    3.8210 O   0  0  0  0  0  0  0  0  0  0  0  0
    3.3534   -2.2528    3.3611 C   0  0  0  0  0  0  0  0  0  0  0  0
    3.2358   -1.8015    2.1108 F   0  0  0  0  0  0  0  0  0  0  0  0
    3.8579   -1.2975    4.1319 F   0  0  0  0  0  0  0  0  0  0  0  0
    4.1583   -3.3111    3.3753 F   0  0  0  0  0  0  0  0  0  0  0  0
  1  3  2  0  0  0  0
  2  1  2  0  0  0  0
  4  3  1  0  0  0  0
  5 21  1  0  0  0  0
  6 11  2  0  0  0  0
  6  7  1  0  0  0  0
  7  8  2  0  0  0  0
  8 14  1  0  0  0  0
  8  9  1  0  0  0  0
  9 15  1  0  0  0  0
 10 16  1  0  0  0  0
 10  9  2  0  0  0  0
 11 10  1  0  0  0  0
 12  6  1  0  0  0  0
 13  7  1  0  0  0  0
 17 11  1  0  0  0  0
 18 19  2  0  0  0  0
 20 18  2  0  0  0  0
 21 18  1  0  0  0  0
 22 25  1  0  0  0  0
 22 18  1  0  0  0  0
 22 24  1  0  0  0  0
 23 22  1  0  0  0  0
M  RAD  1   2   2
M  END
