Coordinates from ORCA-job C6H6+TfO-+NH2N2+-scan
 OpenBabel10121810013D

 25 23  0  0  0  0  0  0  0  0999 V2000
   -1.2323   -1.6229   -0.5084 N   0  0  0  0  0  0  0  0  0  0  0  0
   -2.3627   -1.5679   -0.4230 N   0  0  0  0  0  0  0  0  0  0  0  0
   -0.0853   -2.0139   -0.8983 N   0  0  0  0  0  0  0  0  0  0  0  0
    0.5411   -1.2098   -0.9975 H   0  0  0  0  0  0  0  0  0  0  0  0
    0.8605   -2.9579    0.2849 H   0  0  0  0  0  0  0  0  0  0  0  0
    0.0595   -1.2403   -4.3066 C   0  0  0  0  0  0  0  0  0  0  0  0
   -0.6207   -2.1554   -3.5130 C   0  0  0  0  0  0  0  0  0  0  0  0
    0.0867   -2.9510   -2.5785 C   0  0  0  0  0  0  0  0  0  0  0  0
    1.4971   -3.0044   -2.6922 C   0  0  0  0  0  0  0  0  0  0  0  0
    2.1671   -2.0868   -3.4917 C   0  0  0  0  0  0  0  0  0  0  0  0
    1.4554   -1.1802   -4.2820 C   0  0  0  0  0  0  0  0  0  0  0  0
   -0.4965   -0.5934   -4.9772 H   0  0  0  0  0  0  0  0  0  0  0  0
   -1.7014   -2.2287   -3.5704 H   0  0  0  0  0  0  0  0  0  0  0  0
   -0.4270   -3.7973   -2.1355 H   0  0  0  0  0  0  0  0  0  0  0  0
    2.0553   -3.7230   -2.1022 H   0  0  0  0  0  0  0  0  0  0  0  0
    3.2513   -2.0952   -3.5225 H   0  0  0  0  0  0  0  0  0  0  0  0
    1.9832   -0.4706   -4.9086 H   0  0  0  0  0  0  0  0  0  0  0  0
    2.5024   -2.2647    1.4918 S   0  0  0  0  0  0  0  0  0  0  0  0
    3.7522   -2.8928    1.8356 O   0  0  0  0  0  0  0  0  0  0  0  0
    2.4151   -1.0664    0.6738 O   0  0  0  0  0  0  0  0  0  0  0  0
    1.5184   -3.3837    0.9055 O   0  0  0  0  0  0  0  0  0  0  0  0
    1.6041   -1.8760    3.0973 C   0  0  0  0  0  0  0  0  0  0  0  0
    0.3548   -1.4935    2.8145 F   0  0  0  0  0  0  0  0  0  0  0  0
    1.5721   -2.9477    3.8782 F   0  0  0  0  0  0  0  0  0  0  0  0
    2.2383   -0.8867    3.7174 F   0  0  0  0  0  0  0  0  0  0  0  0
  1  2  2  0  0  0  0
  3  1  2  0  0  0  0
  4  3  1  0  0  0  0
  5 21  1  0  0  0  0
  6 11  2  0  0  0  0
  6  7  1  0  0  0  0
  7  8  2  0  0  0  0
  8 14  1  0  0  0  0
  9  8  1  0  0  0  0
  9 15  1  0  0  0  0
 10  9  2  0  0  0  0
 11 10  1  0  0  0  0
 12  6  1  0  0  0  0
 13  7  1  0  0  0  0
 16 10  1  0  0  0  0
 17 11  1  0  0  0  0
 18 19  2  0  0  0  0
 18 22  1  0  0  0  0
 20 18  2  0  0  0  0
 21 18  1  0  0  0  0
 22 25  1  0  0  0  0
 22 24  1  0  0  0  0
 23 22  1  0  0  0  0
M  RAD  1   2   2
M  END
