Coordinates from ORCA-job C6H6+TfO-+NH2N2+-scan
 OpenBabel10121810013D

 25 25  0  0  1  0  0  0  0  0999 V2000
   -0.9849   -0.9182   -1.1087 N   0  0  0  0  0  0  0  0  0  0  0  0
   -1.4483   -1.3116   -2.1710 N   0  0  0  0  0  0  0  0  0  0  0  0
    0.2510   -1.5461   -0.7554 N   0  0  0  0  0  0  0  0  0  0  0  0
    0.9044   -0.8132   -0.4812 H   0  0  0  0  0  0  0  0  0  0  0  0
    0.1548   -2.5166    0.5456 H   0  0  0  0  0  0  0  0  0  0  0  0
   -0.3313   -1.8416   -4.2918 C   0  0  0  0  0  0  0  0  0  0  0  0
   -0.5308   -2.2977   -2.8763 C   0  0  1  0  0  0  0  0  0  0  0  0
    0.7386   -2.3704   -2.0007 C   0  0  1  0  0  0  0  0  0  0  0  0
    1.9906   -1.8040   -2.5945 C   0  0  0  0  0  0  0  0  0  0  0  0
    2.0289   -1.3553   -3.8553 C   0  0  0  0  0  0  0  0  0  0  0  0
    0.8531   -1.3954   -4.7254 C   0  0  0  0  0  0  0  0  0  0  0  0
   -1.2020   -1.8571   -4.9369 H   0  0  0  0  0  0  0  0  0  0  0  0
   -1.0831   -3.2422   -2.8607 H   0  0  0  0  0  0  0  0  0  0  0  0
    0.9216   -3.3764   -1.6241 H   0  0  0  0  0  0  0  0  0  0  0  0
    2.8721   -1.8123   -1.9624 H   0  0  0  0  0  0  0  0  0  0  0  0
    2.9559   -0.9678   -4.2639 H   0  0  0  0  0  0  0  0  0  0  0  0
    0.9622   -1.0577   -5.7502 H   0  0  0  0  0  0  0  0  0  0  0  0
    1.7267   -3.3666    1.7793 S   0  0  0  0  0  0  0  0  0  0  0  0
    1.8685   -4.6339    2.4533 O   0  0  0  0  0  0  0  0  0  0  0  0
    2.6143   -2.9528    0.7013 O   0  0  0  0  0  0  0  0  0  0  0  0
    0.2188   -3.1789    1.3345 O   0  0  0  0  0  0  0  0  0  0  0  0
    1.8514   -2.0202    3.0834 C   0  0  0  0  0  0  0  0  0  0  0  0
    1.5400   -0.8426    2.5248 F   0  0  0  0  0  0  0  0  0  0  0  0
    1.0176   -2.2628    4.0866 F   0  0  0  0  0  0  0  0  0  0  0  0
    3.0990   -1.9688    3.5409 F   0  0  0  0  0  0  0  0  0  0  0  0
  1  3  1  0  0  0  0
  2  1  2  0  0  0  0
  3  4  1  0  0  0  0
  5 21  1  0  0  0  0
  6  7  1  0  0  0  0
  7 13  1  6  0  0  0
  7  2  1  0  0  0  0
  7  8  1  0  0  0  0
  8 14  1  1  0  0  0
  8  3  1  0  0  0  0
  9  8  1  0  0  0  0
  9 15  1  0  0  0  0
 10  9  2  0  0  0  0
 11  6  2  0  0  0  0
 11 10  1  0  0  0  0
 12  6  1  0  0  0  0
 16 10  1  0  0  0  0
 17 11  1  0  0  0  0
 18 19  2  0  0  0  0
 18 22  1  0  0  0  0
 20 18  2  0  0  0  0
 21 18  1  0  0  0  0
 22 25  1  0  0  0  0
 22 24  1  0  0  0  0
 23 22  1  0  0  0  0
M  END
