Coordinates from ORCA-job C6H6+TfO-+NH2N2+-scan
 OpenBabel10121810013D

 25 23  0  0  0  0  0  0  0  0999 V2000
   -1.3767   -1.4134    0.5109 N   0  0  0  0  0  0  0  0  0  0  0  0
   -2.2292   -0.9045   -0.0205 N   0  0  0  0  0  0  0  0  0  0  0  0
   -0.3812   -1.8363    1.1216 N   0  0  0  0  0  0  0  0  0  0  0  0
   -0.3139   -2.8559    1.0938 H   0  0  0  0  0  0  0  0  0  0  0  0
    0.4223   -1.3290    2.5916 H   0  0  0  0  0  0  0  0  0  0  0  0
   -0.5482   -2.7497   -5.1054 C   0  0  0  0  0  0  0  0  0  0  0  0
    0.6817   -3.3562   -4.8525 C   0  0  0  0  0  0  0  0  0  0  0  0
    1.7980   -2.5740   -4.5587 C   0  0  0  0  0  0  0  0  0  0  0  0
    1.6832   -1.1848   -4.5158 C   0  0  0  0  0  0  0  0  0  0  0  0
    0.4535   -0.5784   -4.7686 C   0  0  0  0  0  0  0  0  0  0  0  0
   -0.6625   -1.3608   -5.0633 C   0  0  0  0  0  0  0  0  0  0  0  0
   -1.4154   -3.3585   -5.3378 H   0  0  0  0  0  0  0  0  0  0  0  0
    0.7712   -4.4368   -4.8873 H   0  0  0  0  0  0  0  0  0  0  0  0
    2.7551   -3.0456   -4.3633 H   0  0  0  0  0  0  0  0  0  0  0  0
    2.5517   -0.5760   -4.2881 H   0  0  0  0  0  0  0  0  0  0  0  0
    0.3655    0.5024   -4.7386 H   0  0  0  0  0  0  0  0  0  0  0  0
   -1.6187   -0.8888   -5.2621 H   0  0  0  0  0  0  0  0  0  0  0  0
    1.6573   -2.7180    3.6746 S   0  0  0  0  0  0  0  0  0  0  0  0
    1.8391   -2.9159    5.0897 O   0  0  0  0  0  0  0  0  0  0  0  0
    1.0547   -3.7224    2.8108 O   0  0  0  0  0  0  0  0  0  0  0  0
    0.9393   -1.3094    3.4472 O   0  0  0  0  0  0  0  0  0  0  0  0
    3.3441   -2.3371    2.9378 C   0  0  0  0  0  0  0  0  0  0  0  0
    3.1927   -1.9589    1.6672 F   0  0  0  0  0  0  0  0  0  0  0  0
    3.9348   -1.3658    3.6225 F   0  0  0  0  0  0  0  0  0  0  0  0
    4.0905   -3.4365    2.9859 F   0  0  0  0  0  0  0  0  0  0  0  0
  1  3  2  0  0  0  0
  2  1  2  0  0  0  0
  4  3  1  0  0  0  0
  5 21  1  0  0  0  0
  6 11  2  0  0  0  0
  6  7  1  0  0  0  0
  7  8  2  0  0  0  0
  8  9  1  0  0  0  0
  8 14  1  0  0  0  0
  9 15  1  0  0  0  0
 10 16  1  0  0  0  0
 10  9  2  0  0  0  0
 11 10  1  0  0  0  0
 12  6  1  0  0  0  0
 13  7  1  0  0  0  0
 17 11  1  0  0  0  0
 18 19  2  0  0  0  0
 20 18  2  0  0  0  0
 21 18  1  0  0  0  0
 22 25  1  0  0  0  0
 22 24  1  0  0  0  0
 22 18  1  0  0  0  0
 23 22  1  0  0  0  0
M  RAD  1   2   2
M  END
