Coordinates from ORCA-job C6H6+TfO-+NH2N2+-scan
 OpenBabel10121810013D

 25 23  0  0  0  0  0  0  0  0999 V2000
   -1.3709   -1.4097    0.5463 N   0  0  0  0  0  0  0  0  0  0  0  0
   -2.2185   -0.8991    0.0089 N   0  0  0  0  0  0  0  0  0  0  0  0
   -0.3808   -1.8350    1.1636 N   0  0  0  0  0  0  0  0  0  0  0  0
   -0.3066   -2.8537    1.1252 H   0  0  0  0  0  0  0  0  0  0  0  0
    0.4158   -1.3374    2.6405 H   0  0  0  0  0  0  0  0  0  0  0  0
   -0.5568   -2.7471   -5.1407 C   0  0  0  0  0  0  0  0  0  0  0  0
    0.6733   -3.3586   -4.9018 C   0  0  0  0  0  0  0  0  0  0  0  0
    1.7942   -2.5806   -4.6144 C   0  0  0  0  0  0  0  0  0  0  0  0
    1.6858   -1.1914   -4.5683 C   0  0  0  0  0  0  0  0  0  0  0  0
    0.4556   -0.5799   -4.8071 C   0  0  0  0  0  0  0  0  0  0  0  0
   -0.6658   -1.3577   -5.0928 C   0  0  0  0  0  0  0  0  0  0  0  0
   -1.4286   -3.3519   -5.3663 H   0  0  0  0  0  0  0  0  0  0  0  0
    0.7588   -4.4392   -4.9417 H   0  0  0  0  0  0  0  0  0  0  0  0
    2.7517   -3.0562   -4.4312 H   0  0  0  0  0  0  0  0  0  0  0  0
    2.5587   -0.5862   -4.3486 H   0  0  0  0  0  0  0  0  0  0  0  0
    0.3713    0.5010   -4.7726 H   0  0  0  0  0  0  0  0  0  0  0  0
   -1.6225   -0.8819   -5.2798 H   0  0  0  0  0  0  0  0  0  0  0  0
    1.6608   -2.7275    3.7107 S   0  0  0  0  0  0  0  0  0  0  0  0
    1.8400   -2.9402    5.1239 O   0  0  0  0  0  0  0  0  0  0  0  0
    1.0684   -3.7268    2.8338 O   0  0  0  0  0  0  0  0  0  0  0  0
    0.9323   -1.3224    3.4963 O   0  0  0  0  0  0  0  0  0  0  0  0
    3.3468   -2.3239    2.9843 C   0  0  0  0  0  0  0  0  0  0  0  0
    3.1969   -1.9332    1.7173 F   0  0  0  0  0  0  0  0  0  0  0  0
    3.9260   -1.3549    3.6820 F   0  0  0  0  0  0  0  0  0  0  0  0
    4.1029   -3.4170    3.0235 F   0  0  0  0  0  0  0  0  0  0  0  0
  1  3  2  0  0  0  0
  2  1  2  0  0  0  0
  4  3  1  0  0  0  0
  5 21  1  0  0  0  0
  6 11  2  0  0  0  0
  6  7  1  0  0  0  0
  7  8  2  0  0  0  0
  8  9  1  0  0  0  0
  8 14  1  0  0  0  0
  9 15  1  0  0  0  0
 10 16  1  0  0  0  0
 10  9  2  0  0  0  0
 11 10  1  0  0  0  0
 12  6  1  0  0  0  0
 13  7  1  0  0  0  0
 17 11  1  0  0  0  0
 18 19  2  0  0  0  0
 20 18  2  0  0  0  0
 21 18  1  0  0  0  0
 22 25  1  0  0  0  0
 22 24  1  0  0  0  0
 22 18  1  0  0  0  0
 23 22  1  0  0  0  0
M  RAD  1   2   2
M  END
