Coordinates from ORCA-job C6H6+TfO-+NH2N2+-scan
 OpenBabel10121810013D

 25 23  0  0  0  0  0  0  0  0999 V2000
   -1.8608   -2.6301   -0.2139 N   0  0  0  0  0  0  0  0  0  0  0  0
   -2.9691   -2.5202   -0.3815 N   0  0  0  0  0  0  0  0  0  0  0  0
   -0.6676   -2.7511    0.1071 N   0  0  0  0  0  0  0  0  0  0  0  0
   -0.0606   -2.8195   -0.7162 H   0  0  0  0  0  0  0  0  0  0  0  0
    0.0655   -2.6143    1.6481 H   0  0  0  0  0  0  0  0  0  0  0  0
    0.4041   -1.1040   -3.6677 C   0  0  0  0  0  0  0  0  0  0  0  0
    0.2150   -1.9880   -4.7290 C   0  0  0  0  0  0  0  0  0  0  0  0
    0.8117   -3.2491   -4.7027 C   0  0  0  0  0  0  0  0  0  0  0  0
    1.5938   -3.6279   -3.6126 C   0  0  0  0  0  0  0  0  0  0  0  0
    1.7879   -2.7440   -2.5488 C   0  0  0  0  0  0  0  0  0  0  0  0
    1.1925   -1.4802   -2.5787 C   0  0  0  0  0  0  0  0  0  0  0  0
   -0.0524   -0.1204   -3.6928 H   0  0  0  0  0  0  0  0  0  0  0  0
   -0.3924   -1.6937   -5.5780 H   0  0  0  0  0  0  0  0  0  0  0  0
    0.6671   -3.9342   -5.5310 H   0  0  0  0  0  0  0  0  0  0  0  0
    2.0608   -4.6066   -3.5933 H   0  0  0  0  0  0  0  0  0  0  0  0
    2.4068   -3.0253   -1.7041 H   0  0  0  0  0  0  0  0  0  0  0  0
    1.3574   -0.7877   -1.7601 H   0  0  0  0  0  0  0  0  0  0  0  0
    2.1251   -2.2202    2.1570 S   0  0  0  0  0  0  0  0  0  0  0  0
    2.9226   -2.5959    3.2966 O   0  0  0  0  0  0  0  0  0  0  0  0
    2.4268   -2.6584    0.8043 O   0  0  0  0  0  0  0  0  0  0  0  0
    0.5955   -2.5067    2.4941 O   0  0  0  0  0  0  0  0  0  0  0  0
    2.0953   -0.3424    2.0938 C   0  0  0  0  0  0  0  0  0  0  0  0
    1.2215    0.0532    1.1590 F   0  0  0  0  0  0  0  0  0  0  0  0
    1.7347    0.1573    3.2690 F   0  0  0  0  0  0  0  0  0  0  0  0
    3.3076    0.0992    1.7725 F   0  0  0  0  0  0  0  0  0  0  0  0
  1  3  2  0  0  0  0
  2  1  2  0  0  0  0
  4  3  1  0  0  0  0
  5 21  1  0  0  0  0
  6 11  2  0  0  0  0
  7  8  2  0  0  0  0
  7  6  1  0  0  0  0
  8  9  1  0  0  0  0
  9 15  1  0  0  0  0
  9 10  2  0  0  0  0
 10 16  1  0  0  0  0
 11 10  1  0  0  0  0
 11 17  1  0  0  0  0
 12  6  1  0  0  0  0
 13  7  1  0  0  0  0
 14  8  1  0  0  0  0
 18 21  1  0  0  0  0
 18 19  2  0  0  0  0
 20 18  2  0  0  0  0
 22 18  1  0  0  0  0
 22 24  1  0  0  0  0
 23 22  1  0  0  0  0
 25 22  1  0  0  0  0
M  RAD  1   2   2
M  END
