Coordinates from ORCA-job C6H6+TfO-+NH2N2+-scan
 OpenBabel10121810013D

 25 23  0  0  0  0  0  0  0  0999 V2000
   -1.5900   -2.8616   -0.8005 N   0  0  0  0  0  0  0  0  0  0  0  0
   -2.6817   -2.8237   -1.0769 N   0  0  0  0  0  0  0  0  0  0  0  0
   -0.4309   -2.9172   -0.3641 N   0  0  0  0  0  0  0  0  0  0  0  0
    0.2650   -2.8821   -1.1164 H   0  0  0  0  0  0  0  0  0  0  0  0
    0.1130   -2.7758    1.2439 H   0  0  0  0  0  0  0  0  0  0  0  0
    0.6364   -0.9353   -3.4614 C   0  0  0  0  0  0  0  0  0  0  0  0
   -0.0968   -1.9241   -4.1187 C   0  0  0  0  0  0  0  0  0  0  0  0
    0.2851   -3.2618   -4.0131 C   0  0  0  0  0  0  0  0  0  0  0  0
    1.4049   -3.6109   -3.2563 C   0  0  0  0  0  0  0  0  0  0  0  0
    2.1366   -2.6224   -2.5937 C   0  0  0  0  0  0  0  0  0  0  0  0
    1.7486   -1.2845   -2.6955 C   0  0  0  0  0  0  0  0  0  0  0  0
    0.3388    0.1044   -3.5420 H   0  0  0  0  0  0  0  0  0  0  0  0
   -0.9633   -1.6532   -4.7119 H   0  0  0  0  0  0  0  0  0  0  0  0
   -0.2827   -4.0298   -4.5270 H   0  0  0  0  0  0  0  0  0  0  0  0
    1.7060   -4.6498   -3.1775 H   0  0  0  0  0  0  0  0  0  0  0  0
    2.9896   -2.8918   -1.9827 H   0  0  0  0  0  0  0  0  0  0  0  0
    2.3105   -0.5204   -2.1707 H   0  0  0  0  0  0  0  0  0  0  0  0
    2.0440   -2.2300    2.0515 S   0  0  0  0  0  0  0  0  0  0  0  0
    2.6936   -2.5498    3.2977 O   0  0  0  0  0  0  0  0  0  0  0  0
    2.5855   -2.6133    0.7590 O   0  0  0  0  0  0  0  0  0  0  0  0
    0.5157   -2.6613    2.1582 O   0  0  0  0  0  0  0  0  0  0  0  0
    1.8480   -0.3624    1.9915 C   0  0  0  0  0  0  0  0  0  0  0  0
    1.0777   -0.0321    0.9481 F   0  0  0  0  0  0  0  0  0  0  0  0
    1.2876    0.0842    3.1089 F   0  0  0  0  0  0  0  0  0  0  0  0
    3.0475    0.1943    1.8407 F   0  0  0  0  0  0  0  0  0  0  0  0
  1  3  2  0  0  0  0
  2  1  2  0  0  0  0
  4  3  1  0  0  0  0
  5 21  1  0  0  0  0
  6 11  2  0  0  0  0
  7  8  2  0  0  0  0
  7  6  1  0  0  0  0
  8  9  1  0  0  0  0
  9 15  1  0  0  0  0
  9 10  2  0  0  0  0
 10 16  1  0  0  0  0
 11 10  1  0  0  0  0
 11 17  1  0  0  0  0
 12  6  1  0  0  0  0
 13  7  1  0  0  0  0
 14  8  1  0  0  0  0
 18 21  1  0  0  0  0
 18 19  2  0  0  0  0
 20 18  2  0  0  0  0
 22 18  1  0  0  0  0
 22 24  1  0  0  0  0
 23 22  1  0  0  0  0
 25 22  1  0  0  0  0
M  RAD  1   2   2
M  END
