Coordinates from ORCA-job C6H6+TfO-+NH2N2+-scan
 OpenBabel10121810013D

 25 25  0  0  1  0  0  0  0  0999 V2000
   -1.0521   -0.9829   -1.1149 N   0  0  0  0  0  0  0  0  0  0  0  0
   -1.4909   -1.3870   -2.1833 N   0  0  0  0  0  0  0  0  0  0  0  0
    0.1984   -1.5559   -0.7435 N   0  0  0  0  0  0  0  0  0  0  0  0
    0.8293   -0.7940   -0.4946 H   0  0  0  0  0  0  0  0  0  0  0  0
    0.1299   -2.5094    0.5648 H   0  0  0  0  0  0  0  0  0  0  0  0
   -0.3119   -1.8095   -4.2905 C   0  0  0  0  0  0  0  0  0  0  0  0
   -0.5280   -2.3275   -2.8990 C   0  0  1  0  0  0  0  0  0  0  0  0
    0.7240   -2.4065   -2.0067 C   0  0  1  0  0  0  0  0  0  0  0  0
    1.9879   -1.8395   -2.5642 C   0  0  0  0  0  0  0  0  0  0  0  0
    2.0441   -1.3470   -3.8086 C   0  0  0  0  0  0  0  0  0  0  0  0
    0.8777   -1.3459   -4.6914 C   0  0  0  0  0  0  0  0  0  0  0  0
   -1.1750   -1.7984   -4.9459 H   0  0  0  0  0  0  0  0  0  0  0  0
   -1.0596   -3.2831   -2.9327 H   0  0  0  0  0  0  0  0  0  0  0  0
    0.8921   -3.4044   -1.6055 H   0  0  0  0  0  0  0  0  0  0  0  0
    2.8612   -1.8797   -1.9226 H   0  0  0  0  0  0  0  0  0  0  0  0
    2.9793   -0.9553   -4.1939 H   0  0  0  0  0  0  0  0  0  0  0  0
    0.9982   -0.9656   -5.6999 H   0  0  0  0  0  0  0  0  0  0  0  0
    1.7117   -3.3727    1.7799 S   0  0  0  0  0  0  0  0  0  0  0  0
    1.8381   -4.6217    2.4901 O   0  0  0  0  0  0  0  0  0  0  0  0
    2.5852   -3.0149    0.6708 O   0  0  0  0  0  0  0  0  0  0  0  0
    0.1998   -3.1609    1.3637 O   0  0  0  0  0  0  0  0  0  0  0  0
    1.9004   -1.9904    3.0377 C   0  0  0  0  0  0  0  0  0  0  0  0
    1.6021   -0.8229    2.4502 F   0  0  0  0  0  0  0  0  0  0  0  0
    1.0868   -2.1812    4.0683 F   0  0  0  0  0  0  0  0  0  0  0  0
    3.1600   -1.9538    3.4630 F   0  0  0  0  0  0  0  0  0  0  0  0
  1  3  1  0  0  0  0
  2  1  2  0  0  0  0
  3  4  1  0  0  0  0
  5 21  1  0  0  0  0
  6  7  1  0  0  0  0
  7 13  1  6  0  0  0
  7  2  1  0  0  0  0
  7  8  1  0  0  0  0
  8 14  1  1  0  0  0
  8  3  1  0  0  0  0
  9  8  1  0  0  0  0
  9 15  1  0  0  0  0
 10  9  2  0  0  0  0
 11  6  2  0  0  0  0
 11 10  1  0  0  0  0
 12  6  1  0  0  0  0
 16 10  1  0  0  0  0
 17 11  1  0  0  0  0
 18 19  2  0  0  0  0
 18 22  1  0  0  0  0
 20 18  2  0  0  0  0
 21 18  1  0  0  0  0
 22 25  1  0  0  0  0
 22 24  1  0  0  0  0
 23 22  1  0  0  0  0
M  END
