Coordinates from ORCA-job C6H6+TfO-+NH2N2+-scan
 OpenBabel10121810013D

 25 23  0  0  0  0  0  0  0  0999 V2000
   -1.7145   -2.9633   -0.9085 N   0  0  0  0  0  0  0  0  0  0  0  0
   -2.8150   -2.9230   -1.1492 N   0  0  0  0  0  0  0  0  0  0  0  0
   -0.5381   -2.9940   -0.5225 N   0  0  0  0  0  0  0  0  0  0  0  0
    0.1133   -3.1274   -1.3033 H   0  0  0  0  0  0  0  0  0  0  0  0
    0.0097   -2.7426    1.0668 H   0  0  0  0  0  0  0  0  0  0  0  0
    0.6369   -0.8610   -3.3580 C   0  0  0  0  0  0  0  0  0  0  0  0
   -0.1419   -1.9157   -3.8343 C   0  0  0  0  0  0  0  0  0  0  0  0
    0.2947   -3.2313   -3.6693 C   0  0  0  0  0  0  0  0  0  0  0  0
    1.5184   -3.4902   -3.0459 C   0  0  0  0  0  0  0  0  0  0  0  0
    2.2929   -2.4329   -2.5634 C   0  0  0  0  0  0  0  0  0  0  0  0
    1.8491   -1.1199   -2.7186 C   0  0  0  0  0  0  0  0  0  0  0  0
    0.2972    0.1614   -3.4813 H   0  0  0  0  0  0  0  0  0  0  0  0
   -1.0841   -1.7148   -4.3322 H   0  0  0  0  0  0  0  0  0  0  0  0
   -0.3033   -4.0526   -4.0502 H   0  0  0  0  0  0  0  0  0  0  0  0
    1.8647   -4.5113   -2.9296 H   0  0  0  0  0  0  0  0  0  0  0  0
    3.2237   -2.6354   -2.0483 H   0  0  0  0  0  0  0  0  0  0  0  0
    2.4458   -0.3003   -2.3351 H   0  0  0  0  0  0  0  0  0  0  0  0
    1.9280   -2.3220    1.9839 S   0  0  0  0  0  0  0  0  0  0  0  0
    2.4451   -2.6021    3.3002 O   0  0  0  0  0  0  0  0  0  0  0  0
    2.5180   -2.8657    0.7735 O   0  0  0  0  0  0  0  0  0  0  0  0
    0.3583   -2.5805    1.9969 O   0  0  0  0  0  0  0  0  0  0  0  0
    1.9420   -0.4547    1.7748 C   0  0  0  0  0  0  0  0  0  0  0  0
    1.2610   -0.1246    0.6713 F   0  0  0  0  0  0  0  0  0  0  0  0
    1.3853    0.1359    2.8256 F   0  0  0  0  0  0  0  0  0  0  0  0
    3.2017   -0.0424    1.6480 F   0  0  0  0  0  0  0  0  0  0  0  0
  1  3  2  0  0  0  0
  2  1  2  0  0  0  0
  4  3  1  0  0  0  0
  5 21  1  0  0  0  0
  6 11  2  0  0  0  0
  7  8  2  0  0  0  0
  7  6  1  0  0  0  0
  8  9  1  0  0  0  0
  9 15  1  0  0  0  0
  9 10  2  0  0  0  0
 10 16  1  0  0  0  0
 11 10  1  0  0  0  0
 11 17  1  0  0  0  0
 12  6  1  0  0  0  0
 13  7  1  0  0  0  0
 14  8  1  0  0  0  0
 18 21  1  0  0  0  0
 18 19  2  0  0  0  0
 20 18  2  0  0  0  0
 22 18  1  0  0  0  0
 22 24  1  0  0  0  0
 23 22  1  0  0  0  0
 25 22  1  0  0  0  0
M  RAD  1   2   2
M  END
