Coordinates from ORCA-job C6H6+TfO-+NH2N2+-scan
 OpenBabel10121810013D

 25 23  0  0  0  0  0  0  0  0999 V2000
   -1.7942   -2.6852   -0.3398 N   0  0  0  0  0  0  0  0  0  0  0  0
   -2.9009   -2.5949   -0.5293 N   0  0  0  0  0  0  0  0  0  0  0  0
   -0.6057   -2.7866    0.0036 N   0  0  0  0  0  0  0  0  0  0  0  0
    0.0202   -2.8244   -0.8083 H   0  0  0  0  0  0  0  0  0  0  0  0
    0.0841   -2.6404    1.5604 H   0  0  0  0  0  0  0  0  0  0  0  0
    0.4331   -1.0628   -3.6541 C   0  0  0  0  0  0  0  0  0  0  0  0
    0.1533   -1.9917   -4.6555 C   0  0  0  0  0  0  0  0  0  0  0  0
    0.7048   -3.2720   -4.5951 C   0  0  0  0  0  0  0  0  0  0  0  0
    1.5351   -3.6241   -3.5318 C   0  0  0  0  0  0  0  0  0  0  0  0
    1.8200   -2.6952   -2.5280 C   0  0  0  0  0  0  0  0  0  0  0  0
    1.2671   -1.4131   -2.5909 C   0  0  0  0  0  0  0  0  0  0  0  0
    0.0095   -0.0656   -3.7052 H   0  0  0  0  0  0  0  0  0  0  0  0
   -0.4908   -1.7179   -5.4840 H   0  0  0  0  0  0  0  0  0  0  0  0
    0.4885   -3.9924   -5.3764 H   0  0  0  0  0  0  0  0  0  0  0  0
    1.9680   -4.6173   -3.4863 H   0  0  0  0  0  0  0  0  0  0  0  0
    2.4724   -2.9590   -1.7031 H   0  0  0  0  0  0  0  0  0  0  0  0
    1.4940   -0.6896   -1.8153 H   0  0  0  0  0  0  0  0  0  0  0  0
    2.1200   -2.2279    2.1520 S   0  0  0  0  0  0  0  0  0  0  0  0
    2.8751   -2.6033    3.3203 O   0  0  0  0  0  0  0  0  0  0  0  0
    2.4798   -2.6543    0.8099 O   0  0  0  0  0  0  0  0  0  0  0  0
    0.5813   -2.5299    2.4265 O   0  0  0  0  0  0  0  0  0  0  0  0
    2.0761   -0.3502    2.0989 C   0  0  0  0  0  0  0  0  0  0  0  0
    1.2386    0.0440    1.1309 F   0  0  0  0  0  0  0  0  0  0  0  0
    1.6627    0.1394    3.2610 F   0  0  0  0  0  0  0  0  0  0  0  0
    3.2967    0.1040    1.8308 F   0  0  0  0  0  0  0  0  0  0  0  0
  1  3  2  0  0  0  0
  2  1  2  0  0  0  0
  4  3  1  0  0  0  0
  5 21  1  0  0  0  0
  6 11  2  0  0  0  0
  7  8  2  0  0  0  0
  7  6  1  0  0  0  0
  8  9  1  0  0  0  0
  9 15  1  0  0  0  0
  9 10  2  0  0  0  0
 10 16  1  0  0  0  0
 11 10  1  0  0  0  0
 11 17  1  0  0  0  0
 12  6  1  0  0  0  0
 13  7  1  0  0  0  0
 14  8  1  0  0  0  0
 18 21  1  0  0  0  0
 18 19  2  0  0  0  0
 20 18  2  0  0  0  0
 22 18  1  0  0  0  0
 22 24  1  0  0  0  0
 23 22  1  0  0  0  0
 25 22  1  0  0  0  0
M  RAD  1   2   2
M  END
