Coordinates from ORCA-job C6H6+TfO-+NH2N2+-scan
 OpenBabel10121810013D

 25 23  0  0  0  0  0  0  0  0999 V2000
   -1.1935   -1.1473   -0.7258 N   0  0  0  0  0  0  0  0  0  0  0  0
   -2.2732   -0.8196   -0.7453 N   0  0  0  0  0  0  0  0  0  0  0  0
   -0.0752   -1.7009   -0.7309 N   0  0  0  0  0  0  0  0  0  0  0  0
    0.6538   -1.0505   -1.0241 H   0  0  0  0  0  0  0  0  0  0  0  0
    0.3709   -2.7861    0.5345 H   0  0  0  0  0  0  0  0  0  0  0  0
   -0.1633   -1.7193   -4.4644 C   0  0  0  0  0  0  0  0  0  0  0  0
   -0.3793   -2.6641   -3.4633 C   0  0  0  0  0  0  0  0  0  0  0  0
    0.6235   -2.9399   -2.5282 C   0  0  0  0  0  0  0  0  0  0  0  0
    1.8884   -2.3616   -2.6871 C   0  0  0  0  0  0  0  0  0  0  0  0
    2.1001   -1.4134   -3.6877 C   0  0  0  0  0  0  0  0  0  0  0  0
    1.0725   -1.0805   -4.5711 C   0  0  0  0  0  0  0  0  0  0  0  0
   -0.9534   -1.4916   -5.1720 H   0  0  0  0  0  0  0  0  0  0  0  0
   -1.3373   -3.1689   -3.3945 H   0  0  0  0  0  0  0  0  0  0  0  0
    0.4809   -3.7305   -1.8052 H   0  0  0  0  0  0  0  0  0  0  0  0
    2.6902   -2.6219   -2.0050 H   0  0  0  0  0  0  0  0  0  0  0  0
    3.0747   -0.9479   -3.7901 H   0  0  0  0  0  0  0  0  0  0  0  0
    1.2412   -0.3473   -5.3521 H   0  0  0  0  0  0  0  0  0  0  0  0
    2.1583   -3.0715    1.7149 S   0  0  0  0  0  0  0  0  0  0  0  0
    2.7456   -4.2516    2.2971 O   0  0  0  0  0  0  0  0  0  0  0  0
    2.8202   -2.2784    0.6935 O   0  0  0  0  0  0  0  0  0  0  0  0
    0.6766   -3.4312    1.2401 O   0  0  0  0  0  0  0  0  0  0  0  0
    1.7611   -1.8877    3.1206 C   0  0  0  0  0  0  0  0  0  0  0  0
    1.0134   -0.8840    2.6480 F   0  0  0  0  0  0  0  0  0  0  0  0
    1.0960   -2.5168    4.0812 F   0  0  0  0  0  0  0  0  0  0  0  0
    2.8963   -1.3978    3.6080 F   0  0  0  0  0  0  0  0  0  0  0  0
  2  1  2  0  0  0  0
  3  1  2  0  0  0  0
  4  3  1  0  0  0  0
  5 21  1  0  0  0  0
  6  7  1  0  0  0  0
  7 13  1  0  0  0  0
  7  8  2  0  0  0  0
  8 14  1  0  0  0  0
  9  8  1  0  0  0  0
  9 15  1  0  0  0  0
 10  9  2  0  0  0  0
 11  6  2  0  0  0  0
 11 10  1  0  0  0  0
 12  6  1  0  0  0  0
 16 10  1  0  0  0  0
 17 11  1  0  0  0  0
 18 19  2  0  0  0  0
 18 22  1  0  0  0  0
 20 18  2  0  0  0  0
 21 18  1  0  0  0  0
 22 25  1  0  0  0  0
 22 24  1  0  0  0  0
 23 22  1  0  0  0  0
M  RAD  1   2   2
M  END
