Coordinates from ORCA-job C6H6+TfO-+NH2N2+-scan
 OpenBabel10121810013D

 25 25  0  0  1  0  0  0  0  0999 V2000
   -0.9084   -0.8481   -1.1057 N   0  0  0  0  0  0  0  0  0  0  0  0
   -1.3975   -1.2350   -2.1590 N   0  0  0  0  0  0  0  0  0  0  0  0
    0.3109   -1.5293   -0.7691 N   0  0  0  0  0  0  0  0  0  0  0  0
    0.9848   -0.8266   -0.4685 H   0  0  0  0  0  0  0  0  0  0  0  0
    0.1819   -2.5164    0.5243 H   0  0  0  0  0  0  0  0  0  0  0  0
   -0.3523   -1.8841   -4.2887 C   0  0  0  0  0  0  0  0  0  0  0  0
   -0.5270   -2.2684   -2.8489 C   0  0  1  0  0  0  0  0  0  0  0  0
    0.7628   -2.3269   -1.9952 C   0  0  1  0  0  0  0  0  0  0  0  0
    1.9958   -1.7551   -2.6320 C   0  0  0  0  0  0  0  0  0  0  0  0
    2.0093   -1.3578   -3.9097 C   0  0  0  0  0  0  0  0  0  0  0  0
    0.8223   -1.4520   -4.7610 C   0  0  0  0  0  0  0  0  0  0  0  0
   -1.2322   -1.9357   -4.9191 H   0  0  0  0  0  0  0  0  0  0  0  0
   -1.0965   -3.2001   -2.7747 H   0  0  0  0  0  0  0  0  0  0  0  0
    0.9669   -3.3390   -1.6431 H   0  0  0  0  0  0  0  0  0  0  0  0
    2.8870   -1.7214   -2.0140 H   0  0  0  0  0  0  0  0  0  0  0  0
    2.9235   -0.9705   -4.3465 H   0  0  0  0  0  0  0  0  0  0  0  0
    0.9145   -1.1639   -5.8024 H   0  0  0  0  0  0  0  0  0  0  0  0
    1.7332   -3.3644    1.7823 S   0  0  0  0  0  0  0  0  0  0  0  0
    1.8805   -4.6497    2.4198 O   0  0  0  0  0  0  0  0  0  0  0  0
    2.6393   -2.9015    0.7402 O   0  0  0  0  0  0  0  0  0  0  0  0
    0.2331   -3.1886    1.3039 O   0  0  0  0  0  0  0  0  0  0  0  0
    1.7989   -2.0582    3.1308 C   0  0  0  0  0  0  0  0  0  0  0  0
    1.4835   -0.8690    2.6011 F   0  0  0  0  0  0  0  0  0  0  0  0
    0.9421   -2.3466    4.1019 F   0  0  0  0  0  0  0  0  0  0  0  0
    3.0325   -2.0022    3.6245 F   0  0  0  0  0  0  0  0  0  0  0  0
  1  3  1  0  0  0  0
  2  1  1  0  0  0  0
  3  4  1  0  0  0  0
  5 21  1  0  0  0  0
  6  7  1  0  0  0  0
  7 13  1  1  0  0  0
  7  2  1  0  0  0  0
  7  8  1  0  0  0  0
  8 14  1  1  0  0  0
  8  3  1  0  0  0  0
  9 15  1  0  0  0  0
  9  8  1  0  0  0  0
 10  9  2  0  0  0  0
 11  6  2  0  0  0  0
 11 10  1  0  0  0  0
 12  6  1  0  0  0  0
 16 10  1  0  0  0  0
 17 11  1  0  0  0  0
 18 19  2  0  0  0  0
 18 22  1  0  0  0  0
 20 18  2  0  0  0  0
 21 18  1  0  0  0  0
 22 25  1  0  0  0  0
 22 24  1  0  0  0  0
 23 22  1  0  0  0  0
M  RAD  2   1   2   2   2
M  END
