Coordinates from ORCA-job C6H6+TfO-+NH2N2+-scan
 OpenBabel10121810013D

 25 23  0  0  0  0  0  0  0  0999 V2000
   -2.1709   -2.6523    0.2472 N   0  0  0  0  0  0  0  0  0  0  0  0
   -3.2902   -2.5911    0.1408 N   0  0  0  0  0  0  0  0  0  0  0  0
   -0.9570   -2.6974    0.5066 N   0  0  0  0  0  0  0  0  0  0  0  0
   -0.3949   -2.8777   -0.3288 H   0  0  0  0  0  0  0  0  0  0  0  0
   -0.0802   -2.4396    1.9737 H   0  0  0  0  0  0  0  0  0  0  0  0
    0.4007   -1.1739   -3.7099 C   0  0  0  0  0  0  0  0  0  0  0  0
    0.4572   -1.9064   -4.8948 C   0  0  0  0  0  0  0  0  0  0  0  0
    1.1635   -3.1088   -4.9387 C   0  0  0  0  0  0  0  0  0  0  0  0
    1.8083   -3.5809   -3.7961 C   0  0  0  0  0  0  0  0  0  0  0  0
    1.7553   -2.8489   -2.6089 C   0  0  0  0  0  0  0  0  0  0  0  0
    1.0519   -1.6435   -2.5680 C   0  0  0  0  0  0  0  0  0  0  0  0
   -0.1404   -0.2342   -3.6784 H   0  0  0  0  0  0  0  0  0  0  0  0
   -0.0436   -1.5391   -5.7841 H   0  0  0  0  0  0  0  0  0  0  0  0
    1.2105   -3.6760   -5.8621 H   0  0  0  0  0  0  0  0  0  0  0  0
    2.3589   -4.5148   -3.8309 H   0  0  0  0  0  0  0  0  0  0  0  0
    2.2655   -3.2016   -1.7197 H   0  0  0  0  0  0  0  0  0  0  0  0
    1.0303   -1.0630   -1.6515 H   0  0  0  0  0  0  0  0  0  0  0  0
    2.0524   -2.2111    2.1308 S   0  0  0  0  0  0  0  0  0  0  0  0
    2.9843   -2.5982    3.1587 O   0  0  0  0  0  0  0  0  0  0  0  0
    2.0821   -2.7678    0.7877 O   0  0  0  0  0  0  0  0  0  0  0  0
    0.5745   -2.3074    2.7205 O   0  0  0  0  0  0  0  0  0  0  0  0
    2.1943   -0.3489    1.9203 C   0  0  0  0  0  0  0  0  0  0  0  0
    1.2199    0.0760    1.1064 F   0  0  0  0  0  0  0  0  0  0  0  0
    2.0829    0.2610    3.0932 F   0  0  0  0  0  0  0  0  0  0  0  0
    3.3734   -0.0648    1.3770 F   0  0  0  0  0  0  0  0  0  0  0  0
  1  3  2  0  0  0  0
  2  1  2  0  0  0  0
  4  3  1  0  0  0  0
  5 21  1  0  0  0  0
  6 12  1  0  0  0  0
  6 11  2  0  0  0  0
  7  6  1  0  0  0  0
  8  7  2  0  0  0  0
  8  9  1  0  0  0  0
  9 10  2  0  0  0  0
 10 11  1  0  0  0  0
 10 16  1  0  0  0  0
 11 17  1  0  0  0  0
 13  7  1  0  0  0  0
 14  8  1  0  0  0  0
 15  9  1  0  0  0  0
 18 21  1  0  0  0  0
 18 19  2  0  0  0  0
 20 18  2  0  0  0  0
 22 18  1  0  0  0  0
 22 24  1  0  0  0  0
 23 22  1  0  0  0  0
 25 22  1  0  0  0  0
M  RAD  1   2   2
M  END
