Coordinates from ORCA-job C6H6+TfO-+NH2N2+-scan
 OpenBabel10121810013D

 25 23  0  0  0  0  0  0  0  0999 V2000
   -1.7125   -1.2745   -0.8361 N   0  0  0  0  0  0  0  0  0  0  0  0
   -2.6522   -0.6858   -1.0398 N   0  0  0  0  0  0  0  0  0  0  0  0
   -0.7102   -1.9170   -0.4918 N   0  0  0  0  0  0  0  0  0  0  0  0
   -0.1277   -2.1832   -1.2951 H   0  0  0  0  0  0  0  0  0  0  0  0
   -0.3241   -2.3969    1.0806 H   0  0  0  0  0  0  0  0  0  0  0  0
    0.1649   -1.8850   -4.4247 C   0  0  0  0  0  0  0  0  0  0  0  0
    0.3294   -2.9877   -3.5862 C   0  0  0  0  0  0  0  0  0  0  0  0
    1.2670   -2.9458   -2.5494 C   0  0  0  0  0  0  0  0  0  0  0  0
    2.0569   -1.8058   -2.3721 C   0  0  0  0  0  0  0  0  0  0  0  0
    1.8941   -0.7064   -3.2137 C   0  0  0  0  0  0  0  0  0  0  0  0
    0.9471   -0.7454   -4.2374 C   0  0  0  0  0  0  0  0  0  0  0  0
   -0.5649   -1.9167   -5.2261 H   0  0  0  0  0  0  0  0  0  0  0  0
   -0.2708   -3.8788   -3.7358 H   0  0  0  0  0  0  0  0  0  0  0  0
    1.4105   -3.8017   -1.8996 H   0  0  0  0  0  0  0  0  0  0  0  0
    2.7858   -1.7789   -1.5706 H   0  0  0  0  0  0  0  0  0  0  0  0
    2.5048    0.1785   -3.0737 H   0  0  0  0  0  0  0  0  0  0  0  0
    0.8209    0.1107   -4.8911 H   0  0  0  0  0  0  0  0  0  0  0  0
    1.3563   -3.4271    1.9784 S   0  0  0  0  0  0  0  0  0  0  0  0
    1.4465   -4.2946    3.1259 O   0  0  0  0  0  0  0  0  0  0  0  0
    1.6636   -3.8723    0.6294 O   0  0  0  0  0  0  0  0  0  0  0  0
   -0.0548   -2.6964    2.0052 O   0  0  0  0  0  0  0  0  0  0  0  0
    2.4852   -1.9614    2.3041 C   0  0  0  0  0  0  0  0  0  0  0  0
    2.3010   -1.0408    1.3499 F   0  0  0  0  0  0  0  0  0  0  0  0
    2.2218   -1.4235    3.4886 F   0  0  0  0  0  0  0  0  0  0  0  0
    3.7501   -2.3738    2.2724 F   0  0  0  0  0  0  0  0  0  0  0  0
  1  3  2  0  0  0  0
  2  1  2  0  0  0  0
  4  3  1  0  0  0  0
  5 21  1  0  0  0  0
  6 11  2  0  0  0  0
  6  7  1  0  0  0  0
  7  8  2  0  0  0  0
  8  9  1  0  0  0  0
  8 14  1  0  0  0  0
  9 15  1  0  0  0  0
 10 16  1  0  0  0  0
 10  9  2  0  0  0  0
 11 10  1  0  0  0  0
 12  6  1  0  0  0  0
 13  7  1  0  0  0  0
 17 11  1  0  0  0  0
 18 21  1  0  0  0  0
 18 22  1  0  0  0  0
 18 19  2  0  0  0  0
 20 18  2  0  0  0  0
 22 24  1  0  0  0  0
 23 22  1  0  0  0  0
 25 22  1  0  0  0  0
M  RAD  1   2   2
M  END
