Coordinates from ORCA-job C6H6+TfO-+NH2N2+-scan
 OpenBabel10121810013D

 25 23  0  0  0  0  0  0  0  0999 V2000
   -1.1783   -1.4206    0.7491 N   0  0  0  0  0  0  0  0  0  0  0  0
   -1.9617   -0.9163    0.1164 N   0  0  0  0  0  0  0  0  0  0  0  0
   -0.2591   -1.8456    1.4674 N   0  0  0  0  0  0  0  0  0  0  0  0
   -0.1304   -2.8556    1.3783 H   0  0  0  0  0  0  0  0  0  0  0  0
    0.4103   -1.3838    3.0184 H   0  0  0  0  0  0  0  0  0  0  0  0
   -0.6562   -2.7263   -5.4456 C   0  0  0  0  0  0  0  0  0  0  0  0
    0.5841   -3.3597   -5.3785 C   0  0  0  0  0  0  0  0  0  0  0  0
    1.7431   -2.6060   -5.1969 C   0  0  0  0  0  0  0  0  0  0  0  0
    1.6613   -1.2188   -5.0812 C   0  0  0  0  0  0  0  0  0  0  0  0
    0.4209   -0.5854   -5.1480 C   0  0  0  0  0  0  0  0  0  0  0  0
   -0.7379   -1.3391   -5.3303 C   0  0  0  0  0  0  0  0  0  0  0  0
   -1.5575   -3.3126   -5.5896 H   0  0  0  0  0  0  0  0  0  0  0  0
    0.6478   -4.4387   -5.4703 H   0  0  0  0  0  0  0  0  0  0  0  0
    2.7082   -3.0985   -5.1466 H   0  0  0  0  0  0  0  0  0  0  0  0
    2.5631   -0.6323   -4.9418 H   0  0  0  0  0  0  0  0  0  0  0  0
    0.3577    0.4940   -5.0606 H   0  0  0  0  0  0  0  0  0  0  0  0
   -1.7027   -0.8461   -5.3839 H   0  0  0  0  0  0  0  0  0  0  0  0
    1.6515   -2.7694    4.0991 S   0  0  0  0  0  0  0  0  0  0  0  0
    1.7507   -3.0453    5.5093 O   0  0  0  0  0  0  0  0  0  0  0  0
    1.1657   -3.7486    3.1383 O   0  0  0  0  0  0  0  0  0  0  0  0
    0.8711   -1.3893    3.9052 O   0  0  0  0  0  0  0  0  0  0  0  0
    3.3586   -2.2532    3.5054 C   0  0  0  0  0  0  0  0  0  0  0  0
    3.2703   -1.8053    2.2514 F   0  0  0  0  0  0  0  0  0  0  0  0
    3.8452   -1.2962    4.2853 F   0  0  0  0  0  0  0  0  0  0  0  0
    4.1628   -3.3117    3.5409 F   0  0  0  0  0  0  0  0  0  0  0  0
  1  3  2  0  0  0  0
  2  1  2  0  0  0  0
  4  3  1  0  0  0  0
  5 21  1  0  0  0  0
  6  7  2  0  0  0  0
  6 11  1  0  0  0  0
  7  8  1  0  0  0  0
  8 14  1  0  0  0  0
  8  9  2  0  0  0  0
  9 15  1  0  0  0  0
 10  9  1  0  0  0  0
 10 16  1  0  0  0  0
 11 10  2  0  0  0  0
 12  6  1  0  0  0  0
 13  7  1  0  0  0  0
 17 11  1  0  0  0  0
 18 19  2  0  0  0  0
 20 18  2  0  0  0  0
 21 18  1  0  0  0  0
 22 25  1  0  0  0  0
 22 18  1  0  0  0  0
 22 24  1  0  0  0  0
 23 22  1  0  0  0  0
M  RAD  1   2   2
M  END
