Coordinates from ORCA-job C6H6+TfO-+NH2N2+-scan
 OpenBabel10121810013D

 25 25  0  0  1  0  0  0  0  0999 V2000
   -1.1453   -1.0833   -1.1307 N   0  0  0  0  0  0  0  0  0  0  0  0
   -1.5455   -1.5114   -2.2039 N   0  0  0  0  0  0  0  0  0  0  0  0
    0.1126   -1.5536   -0.7143 N   0  0  0  0  0  0  0  0  0  0  0  0
    0.7042   -0.7469   -0.5088 H   0  0  0  0  0  0  0  0  0  0  0  0
    0.0866   -2.4842    0.6019 H   0  0  0  0  0  0  0  0  0  0  0  0
   -0.2819   -1.7684   -4.2833 C   0  0  0  0  0  0  0  0  0  0  0  0
   -0.5077   -2.3826   -2.9344 C   0  0  1  0  0  0  0  0  0  0  0  0
    0.7225   -2.4735   -2.0351 C   0  0  1  0  0  0  0  0  0  0  0  0
    1.9924   -1.8951   -2.5346 C   0  0  0  0  0  0  0  0  0  0  0  0
    2.0644   -1.3258   -3.7478 C   0  0  0  0  0  0  0  0  0  0  0  0
    0.9081   -1.2673   -4.6387 C   0  0  0  0  0  0  0  0  0  0  0  0
   -1.1377   -1.7217   -4.9468 H   0  0  0  0  0  0  0  0  0  0  0  0
   -1.0092   -3.3491   -3.0369 H   0  0  0  0  0  0  0  0  0  0  0  0
    0.8650   -3.4461   -1.5726 H   0  0  0  0  0  0  0  0  0  0  0  0
    2.8574   -1.9820   -1.8873 H   0  0  0  0  0  0  0  0  0  0  0  0
    3.0061   -0.9188   -4.0998 H   0  0  0  0  0  0  0  0  0  0  0  0
    1.0356   -0.8181   -5.6175 H   0  0  0  0  0  0  0  0  0  0  0  0
    1.6762   -3.3825    1.7889 S   0  0  0  0  0  0  0  0  0  0  0  0
    1.7706   -4.6003    2.5562 O   0  0  0  0  0  0  0  0  0  0  0  0
    2.5267   -3.1213    0.6359 O   0  0  0  0  0  0  0  0  0  0  0  0
    0.1627   -3.1199    1.4149 O   0  0  0  0  0  0  0  0  0  0  0  0
    1.9749   -1.9518    2.9687 C   0  0  0  0  0  0  0  0  0  0  0  0
    1.7053   -0.8007    2.3353 F   0  0  0  0  0  0  0  0  0  0  0  0
    1.1946   -2.0545    4.0370 F   0  0  0  0  0  0  0  0  0  0  0  0
    3.2504   -1.9516    3.3451 F   0  0  0  0  0  0  0  0  0  0  0  0
  1  3  1  0  0  0  0
  2  1  2  0  0  0  0
  3  4  1  0  0  0  0
  5 21  1  0  0  0  0
  6  7  1  0  0  0  0
  7 13  1  6  0  0  0
  7  2  1  0  0  0  0
  7  8  1  0  0  0  0
  8 14  1  1  0  0  0
  8  3  1  0  0  0  0
  9  8  1  0  0  0  0
  9 15  1  0  0  0  0
 10  9  2  0  0  0  0
 11  6  2  0  0  0  0
 11 10  1  0  0  0  0
 12  6  1  0  0  0  0
 16 10  1  0  0  0  0
 17 11  1  0  0  0  0
 18 19  2  0  0  0  0
 18 22  1  0  0  0  0
 20 18  2  0  0  0  0
 21 18  1  0  0  0  0
 22 25  1  0  0  0  0
 22 24  1  0  0  0  0
 23 22  1  0  0  0  0
M  END
