Coordinates from ORCA-job C6H6+TfO-+NH2N2+-scan
 OpenBabel10121810013D

 25 23  0  0  0  0  0  0  0  0999 V2000
   -1.7361   -2.7066   -0.4604 N   0  0  0  0  0  0  0  0  0  0  0  0
   -2.8395   -2.6236   -0.6716 N   0  0  0  0  0  0  0  0  0  0  0  0
   -0.5542   -2.8025   -0.0948 N   0  0  0  0  0  0  0  0  0  0  0  0
    0.0899   -2.8203   -0.8938 H   0  0  0  0  0  0  0  0  0  0  0  0
    0.0999   -2.6594    1.4746 H   0  0  0  0  0  0  0  0  0  0  0  0
    0.4490   -1.0420   -3.6246 C   0  0  0  0  0  0  0  0  0  0  0  0
    0.0866   -2.0015   -4.5695 C   0  0  0  0  0  0  0  0  0  0  0  0
    0.6123   -3.2916   -4.4925 C   0  0  0  0  0  0  0  0  0  0  0  0
    1.5017   -3.6224   -3.4706 C   0  0  0  0  0  0  0  0  0  0  0  0
    1.8684   -2.6632   -2.5232 C   0  0  0  0  0  0  0  0  0  0  0  0
    1.3390   -1.3719   -2.6013 C   0  0  0  0  0  0  0  0  0  0  0  0
    0.0437   -0.0380   -3.6877 H   0  0  0  0  0  0  0  0  0  0  0  0
   -0.6029   -1.7442   -5.3662 H   0  0  0  0  0  0  0  0  0  0  0  0
    0.3311   -4.0360   -5.2293 H   0  0  0  0  0  0  0  0  0  0  0  0
    1.9151   -4.6233   -3.4129 H   0  0  0  0  0  0  0  0  0  0  0  0
    2.5590   -2.9143   -1.7260 H   0  0  0  0  0  0  0  0  0  0  0  0
    1.6221   -0.6276   -1.8650 H   0  0  0  0  0  0  0  0  0  0  0  0
    2.1120   -2.2329    2.1417 S   0  0  0  0  0  0  0  0  0  0  0  0
    2.8279   -2.6131    3.3331 O   0  0  0  0  0  0  0  0  0  0  0  0
    2.5254   -2.6415    0.8095 O   0  0  0  0  0  0  0  0  0  0  0  0
    0.5679   -2.5521    2.3577 O   0  0  0  0  0  0  0  0  0  0  0  0
    2.0524   -0.3553    2.1063 C   0  0  0  0  0  0  0  0  0  0  0  0
    1.2529    0.0420    1.1080 F   0  0  0  0  0  0  0  0  0  0  0  0
    1.5861    0.1182    3.2550 F   0  0  0  0  0  0  0  0  0  0  0  0
    3.2790    0.1129    1.8946 F   0  0  0  0  0  0  0  0  0  0  0  0
  1  3  2  0  0  0  0
  2  1  2  0  0  0  0
  4  3  1  0  0  0  0
  5 21  1  0  0  0  0
  6 11  2  0  0  0  0
  7  8  2  0  0  0  0
  7  6  1  0  0  0  0
  8  9  1  0  0  0  0
  9 15  1  0  0  0  0
  9 10  2  0  0  0  0
 10 16  1  0  0  0  0
 11 10  1  0  0  0  0
 11 17  1  0  0  0  0
 12  6  1  0  0  0  0
 13  7  1  0  0  0  0
 14  8  1  0  0  0  0
 18 21  1  0  0  0  0
 18 19  2  0  0  0  0
 20 18  2  0  0  0  0
 22 18  1  0  0  0  0
 22 24  1  0  0  0  0
 23 22  1  0  0  0  0
 25 22  1  0  0  0  0
M  RAD  1   2   2
M  END
