Coordinates from ORCA-job C6H6+TfO-+NH2N2+-scan
 OpenBabel10121810013D

 25 23  0  0  0  0  0  0  0  0999 V2000
   -2.1464   -0.7478    1.1982 N   0  0  0  0  0  0  0  0  0  0  0  0
   -1.7259   -0.9479    0.2070 N   0  0  0  0  0  0  0  0  0  0  0  0
    1.5612   -2.4146   -1.1765 N   0  0  0  0  0  0  0  0  0  0  0  0
    2.4552   -2.2833   -0.6670 H   0  0  0  0  0  0  0  0  0  0  0  0
    0.8987   -2.8096   -0.4148 H   0  0  0  0  0  0  0  0  0  0  0  0
   -0.2252   -2.1466   -4.2415 C   0  0  0  0  0  0  0  0  0  0  0  0
   -0.0364   -2.4688   -2.7925 C   0  0  0  0  0  0  0  0  0  0  0  0
    1.3613   -2.2085   -2.1970 C   0  0  0  0  0  0  0  0  0  0  0  0
    2.3705   -1.6636   -3.1364 C   0  0  0  0  0  0  0  0  0  0  0  0
    2.0780   -1.4135   -4.4248 C   0  0  0  0  0  0  0  0  0  0  0  0
    0.7616   -1.6540   -4.9990 C   0  0  0  0  0  0  0  0  0  0  0  0
   -1.2100   -2.3308   -4.6573 H   0  0  0  0  0  0  0  0  0  0  0  0
   -0.7603   -1.9077   -2.1877 H   0  0  0  0  0  0  0  0  0  0  0  0
   -0.2807   -3.5241   -2.6131 H   0  0  0  0  0  0  0  0  0  0  0  0
    3.3610   -1.4759   -2.7323 H   0  0  0  0  0  0  0  0  0  0  0  0
    2.8527   -1.0147   -5.0718 H   0  0  0  0  0  0  0  0  0  0  0  0
    0.6017   -1.4267   -6.0461 H   0  0  0  0  0  0  0  0  0  0  0  0
    1.6601   -3.1774    1.9251 S   0  0  0  0  0  0  0  0  0  0  0  0
    1.8611   -4.3002    2.8247 O   0  0  0  0  0  0  0  0  0  0  0  0
    2.8459   -2.6605    1.1949 O   0  0  0  0  0  0  0  0  0  0  0  0
    0.4770   -3.2991    0.9972 O   0  0  0  0  0  0  0  0  0  0  0  0
    1.1531   -1.7344    3.0064 C   0  0  0  0  0  0  0  0  0  0  0  0
    0.9244   -0.6507    2.2387 F   0  0  0  0  0  0  0  0  0  0  0  0
    0.0334   -2.0142    3.6778 F   0  0  0  0  0  0  0  0  0  0  0  0
    2.1168   -1.4355    3.8791 F   0  0  0  0  0  0  0  0  0  0  0  0
  2  1  3  0  0  0  0
  3  4  1  0  0  0  0
  3  5  1  0  0  0  0
  6  7  1  0  0  0  0
  7 14  1  0  0  0  0
  7  8  1  0  0  0  0
  7 13  1  0  0  0  0
  8  3  1  0  0  0  0
  9 15  1  0  0  0  0
  9  8  2  0  0  0  0
 10  9  1  0  0  0  0
 11 10  1  0  0  0  0
 11  6  2  0  0  0  0
 12  6  1  0  0  0  0
 16 10  1  0  0  0  0
 17 11  1  0  0  0  0
 18 19  1  0  0  0  0
 18 22  1  0  0  0  0
 20 18  2  0  0  0  0
 21 18  2  0  0  0  0
 22 24  1  0  0  0  0
 22 25  1  0  0  0  0
 23 22  1  0  0  0  0
M  RAD  2  10   2  19   2
M  END
