Coordinates from ORCA-job C6H6+TfO-+NH2N2+-scan
 OpenBabel10121810013D

 25 23  0  0  0  0  0  0  0  0999 V2000
   -1.6098   -2.8296   -0.7337 N   0  0  0  0  0  0  0  0  0  0  0  0
   -2.7043   -2.7767   -0.9960 N   0  0  0  0  0  0  0  0  0  0  0  0
   -0.4457   -2.9005   -0.3118 N   0  0  0  0  0  0  0  0  0  0  0  0
    0.2403   -2.8717   -1.0738 H   0  0  0  0  0  0  0  0  0  0  0  0
    0.1212   -2.7616    1.2886 H   0  0  0  0  0  0  0  0  0  0  0  0
    0.6064   -0.9535   -3.4997 C   0  0  0  0  0  0  0  0  0  0  0  0
   -0.0656   -1.9412   -4.2209 C   0  0  0  0  0  0  0  0  0  0  0  0
    0.3348   -3.2737   -4.1196 C   0  0  0  0  0  0  0  0  0  0  0  0
    1.4107   -3.6191   -3.3004 C   0  0  0  0  0  0  0  0  0  0  0  0
    2.0826   -2.6319   -2.5754 C   0  0  0  0  0  0  0  0  0  0  0  0
    1.6769   -1.2987   -2.6748 C   0  0  0  0  0  0  0  0  0  0  0  0
    0.2950    0.0822   -3.5790 H   0  0  0  0  0  0  0  0  0  0  0  0
   -0.8988   -1.6730   -4.8612 H   0  0  0  0  0  0  0  0  0  0  0  0
   -0.1858   -4.0406   -4.6828 H   0  0  0  0  0  0  0  0  0  0  0  0
    1.7256   -4.6540   -3.2240 H   0  0  0  0  0  0  0  0  0  0  0  0
    2.9054   -2.8973   -1.9223 H   0  0  0  0  0  0  0  0  0  0  0  0
    2.1935   -0.5356   -2.1039 H   0  0  0  0  0  0  0  0  0  0  0  0
    2.0648   -2.2264    2.0725 S   0  0  0  0  0  0  0  0  0  0  0  0
    2.7302   -2.5569    3.3076 O   0  0  0  0  0  0  0  0  0  0  0  0
    2.5860   -2.6054    0.7703 O   0  0  0  0  0  0  0  0  0  0  0  0
    0.5359   -2.6498    2.1979 O   0  0  0  0  0  0  0  0  0  0  0  0
    1.8787   -0.3574    2.0255 C   0  0  0  0  0  0  0  0  0  0  0  0
    1.0983   -0.0171    0.9926 F   0  0  0  0  0  0  0  0  0  0  0  0
    1.3333    0.0858    3.1516 F   0  0  0  0  0  0  0  0  0  0  0  0
    3.0793    0.1934    1.8641 F   0  0  0  0  0  0  0  0  0  0  0  0
  1  3  2  0  0  0  0
  2  1  2  0  0  0  0
  4  3  1  0  0  0  0
  5 21  1  0  0  0  0
  6 11  2  0  0  0  0
  7  8  2  0  0  0  0
  7  6  1  0  0  0  0
  8  9  1  0  0  0  0
  9 15  1  0  0  0  0
  9 10  2  0  0  0  0
 10 16  1  0  0  0  0
 11 10  1  0  0  0  0
 11 17  1  0  0  0  0
 12  6  1  0  0  0  0
 13  7  1  0  0  0  0
 14  8  1  0  0  0  0
 18 21  1  0  0  0  0
 18 19  2  0  0  0  0
 20 18  2  0  0  0  0
 22 18  1  0  0  0  0
 22 24  1  0  0  0  0
 23 22  1  0  0  0  0
 25 22  1  0  0  0  0
M  RAD  1   2   2
M  END
