14
Coordinates from ORCA-job 3-NO2-C6H3-N2-v2-B3LYPG-aug-cc-pVDZ-scan-d09-49-n400
  C   -1.96171709001921      0.25791573575173     -1.01654369807413
  C   -0.65566612877595      0.04568538643428     -0.50289799446983
  C   -0.39687377337157      0.99539175405728      0.46004211628262
  C   -1.06477712664109      1.94684667503576      0.92932251868295
  C   -2.34339791102612      2.17919306698170      0.44768721843669
  C   -2.78853513371432      1.29639143335245     -0.55649729142669
  H   -2.33031585558183     -0.41190025491985     -1.79518792646456
  N   2.88729092818958     -1.00866572739718      0.47614900898504
  N   3.83094033923353     -0.93896364028998      1.04501887536698
  H   -3.78593188447536      1.43366904712876     -0.97039803025300
  N   -3.20304290359118      3.27252084810719      0.93699846861844
  O   -4.32758720112084      3.37003261943933      0.44863833327683
  O   -2.75011545642173      3.98470601305590      1.82443417147906
  H   -0.00517080268391     -0.75322295673735     -0.84896577044041
