14
Coordinates from ORCA-job 3-NO2-C6H3-N2-v2-B3LYPG-aug-cc-pVDZ-scan-d09-49-n400
  C   -1.70508149688275      0.37056866170378     -0.78092033469338
  C   -0.46067136116198      0.38828949345590     -0.09889606634720
  C   -0.46155562112432      1.42611146953644      0.80746949059821
  C   -1.31393385247561      2.29423799523825      1.10948639355107
  C   -2.53888864408339      2.30433625196361      0.46226417315267
  C   -2.72146475304195      1.30211825813751     -0.51135218587172
  H   -1.87170701671270     -0.39572184786738     -1.53974239120195
  N   3.04615977106400     -1.61793244564517      0.02686473842417
  N   4.06696913293262     -1.95300008645666      0.28112840822179
  H   -3.66568701922454      1.26265776008975     -1.05154327525359
  N   -3.59831509351741      3.28691186785407      0.75362681750204
  O   -4.64307314658277      3.20044843949787      0.11053673874012
  O   -3.35899637433770      4.12917289220736      1.60998478779161
  H   0.33134547514849     -0.32859870971532     -0.30110729461384
