14
Coordinates from ORCA-job 3-NO2-C6H3-N2-v2-B3LYPG-aug-cc-pVDZ-scan-d09-49-n400
  C   -1.98750775224985      0.23730006972740     -1.04931956237091
  C   -0.67661276617898     -0.01071290849669     -0.56441250190344
  C   -0.37956751240760      0.91714373690399      0.40781682264750
  C   -1.01644605508938      1.87512957080462      0.90616709997610
  C   -2.29895836827207      2.14180872595543      0.45294713282168
  C   -2.78250331650189      1.28561572779993     -0.55660587496937
  H   -2.38519641084848     -0.41178929026886     -1.83115936272281
  N   2.77767545623789     -0.86280916858230      0.53967330336870
  N   3.68792906333434     -0.72809120237002      1.14975683359235
  H   -3.78456688117800      1.45099471870513     -0.94836964043061
  N   -3.12563807875107      3.24453458397850      0.97704736160697
  O   -4.24409401961696      3.39521884776023      0.48819045317575
  O   -2.62787304728773      3.95314692647390      1.84305471670151
  H   -0.05154031119023     -0.81789033839125     -0.93698678149343
