14
Coordinates from ORCA-job 3-NO2-C6H3-N2-v2-B3LYPG-aug-cc-pVDZ-scan-d09-49-n400
  C   -1.93779577723540      0.27340258994558     -0.99059625841124
  C   -0.63623527210871      0.08874444403904     -0.45523624059859
  C   -0.41032602844451      1.05036232996665      0.50442666078544
  C   -1.10292942230792      1.99272189343859      0.95584776116488
  C   -2.37789125077233      2.19801642395110      0.45269059567609
  C   -2.79069611837656      1.29982638574185     -0.55163184236974
  H   -2.28190278929094     -0.40874685437414     -1.76977197599355
  N   2.95258380043904     -1.10969891543166      0.42116382073895
  N   3.91623470736502     -1.08668740821196      0.95950694047201
  H   -3.78378350114425      1.41545393174409     -0.98215367727650
  N   -3.26524321565343      3.27853936803665      0.92035761052988
  O   -4.37713272520785      3.36244665085554      0.40145009899492
  O   -2.83324800056209      4.01612571824934      1.79742117010848
  H   0.03346559329993     -0.70090655795067     -0.78567466382104
