14
Coordinates from ORCA-job 3-NO2-C6H3-N2-v2-B3LYPG-aug-cc-pVDZ-scan-d09-49-n400
  C   -1.90398901970973      0.29232366970479     -0.95607356082800
  C   -0.60959937324945      0.14307789073177     -0.39327003989879
  C   -0.42318358513685      1.11992695344308      0.56023112833825
  C   -1.14748790217587      2.05049971608022      0.98550713647861
  C   -2.41641677706652      2.22197355858249      0.45581820387859
  C   -2.78858818059824      1.30369042399172     -0.54604753470149
  H   -2.21691896465903     -0.40609414234043     -1.73400214794032
  N   3.01405638080439     -1.22845979513146      0.35021767376148
  N   3.99918213119285     -1.26339714032993      0.84750315918292
  H   -3.77523877685206      1.39188091036194     -0.99736778673137
  N   -3.33670585924237      3.28709906358807      0.89393645090234
  O   -4.43708136844301      3.34458748680442      0.34765298831664
  O   -2.93607636414017      4.04779041206344      1.76615761660590
  H   0.08314765927606     -0.63529900755012     -0.70246328736474
