14
Coordinates from ORCA-job 3-NO2-C6H3-N2-v2-B3LYPG-aug-cc-pVDZ-scan-d09-49-n400
  C   -1.96579067721578      0.25513784266218     -1.02159243425101
  C   -0.65882694952680      0.03733771643715     -0.51234578236530
  C   -0.39553058171355      0.98284360282558      0.45334985332043
  C   -1.05919220845485      1.93440007658593      0.92838079072624
  C   -2.33853433091730      2.17177599208356      0.45097467789923
  C   -2.78862278475961      1.29405965103818     -0.55548935134820
  H   -2.33831777715808     -0.41071519102176     -1.80178345637875
  N   2.87391569665840     -0.98729398143270      0.48507416868136
  N   3.81286290593496     -0.90843666719397      1.06048832143604
  H   -3.78676538732077      1.43540724746536     -0.96620790555839
  N   -3.19423238523282      3.26519846231297      0.94697640754538
  O   -4.31335558397771      3.37835557845445      0.44961275221488
  O   -2.73076218657032      3.98361068980669      1.82388190878190
  H   -0.01174774974576     -0.76208102002363     -0.86351995070383
