14
Coordinates from ORCA-job 3-NO2-C6H3-N2-v2-B3LYPG-aug-cc-pVDZ-scan-d09-49-n400
  C   -1.92136203651879      0.28298597305542     -0.97332509095120
  C   -0.62310168312575      0.11606834728558     -0.42422805682485
  C   -0.41734700876627      1.08666518984449      0.53105292122460
  C   -1.12455718088714      2.02435423795172      0.96931038609961
  C   -2.39672070987886      2.21227271788241      0.45240990707334
  C   -2.78976068714109      1.30282652197550     -0.54968637320241
  H   -2.25042245685834     -0.40807640058934     -1.75115948672994
  N   2.98671627671346     -1.17229486238281      0.38630989494750
  N   3.96171008933461     -1.17793276148473      0.90431958632619
  H   -3.77975202594730      1.40456747547954     -0.99070447668754
  N   -3.30035260188245      3.28615225965587      0.90391186483684
  O   -4.41035378874271      3.35028536721917      0.37818673016770
  O   -2.88752437273891      4.03034001130116      1.78461784343463
  H   0.05792818643955     -0.66861407719396     -0.74321564971448
