14
Coordinates from ORCA-job 3-NO2-C6H3-N2-v2-B3LYPG-aug-cc-pVDZ-scan-d09-49-n400
  C   -1.99197266003873      0.23317668105670     -1.05426553386065
  C   -0.68051448382936     -0.02130430138258     -0.57423990790271
  C   -0.37431522476229      0.90659270839640      0.39502545153003
  C   -1.00364294125865      1.86909694023166      0.89427216325208
  C   -2.28641217148591      2.14224803105245      0.44561586331302
  C   -2.77907145010925      1.28676782695485     -0.56013765626856
  H   -2.39647653752974     -0.41506508924764     -1.83330696719846
  N   2.75505782234951     -0.83885620708016      0.55304299651452
  N   3.65938356401138     -0.69135208178601      1.16895408202038
  H   -3.78171895780402      1.45720003983830     -0.94822426398977
  N   -3.10435088871848      3.25117321770085      0.97039184294391
  O   -4.23722182690258      3.38549344667904      0.51083106036249
  O   -2.61216642899164      3.93710518844406      1.85758897642197
  H   -0.06147781493024     -0.83267640085791     -0.94774810713825
