14
Coordinates from ORCA-job 3-NO2-C6H3-N2-v2-B3LYPG-aug-cc-pVDZ-scan-d09-49-n400
  C   -1.94302316562866      0.27009513708949     -0.99588321953847
  C   -0.64053490916976      0.08005794649242     -0.46486826016312
  C   -0.40658032187391      1.04071129471488      0.49381963600466
  C   -1.09369192978049      1.98616188020362      0.94720822150430
  C   -2.36942122470722      2.19704118034811      0.44844066216796
  C   -2.78981654269917      1.30036250331629     -0.55407655492597
  H   -2.29274773584285     -0.41075351053086     -1.77366988374726
  N   2.93955838478326     -1.09051739418392      0.43366565328573
  N   3.89965223170612     -1.05798254504317      0.97783536311555
  H   -3.78387491027947      1.42044072029101     -0.98113754689511
  N   -3.25008846028499      3.28193968160945      0.91864852072511
  O   -4.37056619466073      3.35861375934889      0.41739962055821
  O   -2.81878188317336      4.00584639691837      1.80737249501102
  H   0.02501666161122     -0.71241705057456     -0.79695470710261
