14
Coordinates from ORCA-job 3-NO2-C6H3-N2-v2-B3LYPG-aug-cc-pVDZ-scan-d09-49-n400
  C   -1.72122902209988      0.36507093898761     -0.79445765013377
  C   -0.47226138818046      0.37072413270353     -0.12060989383626
  C   -0.45922012723483      1.40494816110277      0.78975473744173
  C   -1.30300039744870      2.27829974925482      1.10072044382266
  C   -2.53208160689106      2.30024330263313      0.46168282803608
  C   -2.72869400084488      1.30323690657369     -0.51455586778191
  H   -1.89869949002494     -0.39694922490147     -1.55511680734399
  N   3.05348853101277     -1.59677036642712      0.04961754699358
  N   4.07608477662540     -1.90912222037787      0.32477509904420
  H   -3.67673246097015      1.27305539460433     -1.04863179908062
  N   -3.58203514221246      3.28969793337276      0.76382676647393
  O   -4.63226391443336      3.21267474475920      0.12849760479741
  O   -3.33128851776213      4.12575573772514      1.62298878436552
  H   0.31303276046469     -0.35126519001050     -0.33069179279855
