14
Coordinates from ORCA-job 3-NO2-C6H3-N2-v2-B3LYPG-aug-cc-pVDZ-scan-d09-49-n400
  C   -1.95122060440450      0.11117077338331     -1.13880150695411
  C   -0.65803333168052     -0.24326895505795     -0.75589844677651
  C   -0.13950814459058      0.58216191248715      0.24157134702659
  C   -0.61339173729911      1.64421675955148      0.91462524934695
  C   -1.90842911806022      1.92793445734140      0.46890622136881
  C   -2.58454638320091      1.20731408062210     -0.52183613711389
  H   -2.46838560124187     -0.45674337212303     -1.91084266148426
  N   1.33678253839342      0.19404385020853      0.69271702981601
  N   2.32858006031337      0.15811348746847      1.19198408225216
  H   -3.59335366976154      1.49496169252746     -0.81123115686670
  N   -2.64914920535505      3.08709733999372      1.08388821599289
  O   -3.78706896777724      3.31265966702336      0.66528780306600
  O   -2.08853067823642      3.73087541497025      1.95525809953606
  H   -0.11864515709883     -1.08093710839624     -1.19782813920999
