14
Coordinates from ORCA-job 3-NO2-C6H3-N2-v2-B3LYPG-aug-cc-pVDZ-scan-d09-49-n400
  C   -1.95275019366166      0.26399324155294     -1.00660001520962
  C   -0.64834825513450      0.06254024054946     -0.48446941507211
  C   -0.40225686368197      1.01692485062726      0.47727718014898
  C   -1.07987183839746      1.96489696043259      0.93961500494726
  C   -2.35717246448990      2.18671930803927      0.44960753828331
  C   -2.78977711234122      1.29784955845026     -0.55469147355330
  H   -2.31184015411654     -0.41068280918575     -1.78549750214491
  N   2.91453115086704     -1.04877751614625      0.45505145922635
  N   3.86638358235372     -0.99756978988686      1.01210524022721
  H   -3.78558762329653      1.42670870188216     -0.97506225006186
  N   -3.22766411238391      3.27514475616915      0.93054657794601
  O   -4.34742983857090      3.36734991182679      0.43032044107321
  O   -2.78285938404444      3.99728383818834      1.81403700161382
  H   0.00974310689828     -0.73278125249935     -0.82443978742436
