14
Coordinates from ORCA-job 3-NO2-C6H3-N2-v2-B3LYPG-aug-cc-pVDZ-scan-d09-49-n400
  C   -1.96472665235344      0.25610359248423     -1.02023236806061
  C   -0.65849171840495      0.04140686030210     -0.50865989340703
  C   -0.39541688964958      0.98672282428670      0.45701395189666
  C   -1.06198982816310      1.93747463575122      0.93000005461949
  C   -2.34113029424531      2.17285342142494      0.45100668751688
  C   -2.78928140664018      1.29418361709782     -0.55554462936589
  H   -2.33503749632997     -0.41090918467398     -1.80041479867727
  N   2.87902155467731     -0.99464749117334      0.48129583493389
  N   3.81993401772348     -0.91998890566927      1.05405536797393
  H   -3.78717930732818      1.43421638397177     -0.96724120479594
  N   -3.19866366813577      3.26542151006989      0.94573732343948
  O   -4.31692839443757      3.37784124504249      0.44628175317468
  O   -2.73643899162067      3.98561665252680      1.82184463337241
  H   -0.00857092509207     -0.75669516144136     -0.85734271262067
