14
Coordinates from ORCA-job 3-NO2-C6H3-N2-v2-B3LYPG-aug-cc-pVDZ-scan-d09-49-n400
  C   -1.95110886737045      0.26513809074516     -1.00499824983043
  C   -0.64716566313373      0.06600509011174     -0.48106687399843
  C   -0.40344262988555      1.01978427901791      0.48175332856143
  C   -1.08372205126099      1.96613409036846      0.94365858646887
  C   -2.36076713034079      2.18596739984990      0.45212829936288
  C   -2.79051926837426      1.29718965347608     -0.55349792961729
  H   -2.30782046433993     -0.40969992212553     -1.78482487779104
  N   2.91932995876827     -1.05514777467132      0.45030471339692
  N   3.87258602324563     -1.00771884485643      1.00529046889757
  H   -3.78603289157739      1.42458303043976     -0.97499446035568
  N   -3.23391136354846      3.27228024424520      0.93294878616092
  O   -4.34854328989632      3.37062471401471      0.42252621255333
  O   -2.78699318271995      4.00217588412450      1.80897361089986
  H   0.01321082043391     -0.72771593474011     -0.82040161470890
