14
Coordinates from ORCA-job 3-NO2-C6H3-N2-v2-B3LYPG-aug-cc-pVDZ-scan-d09-49-n400
  C   -1.91961046672123      0.28405209629611     -0.97156675235664
  C   -0.62202683557048      0.11980905167109     -0.42036171245760
  C   -0.41826673695623      1.08998237054221      0.53543550419835
  C   -1.12809102893592      2.02630965503625      0.97265746787494
  C   -2.39984864878519      2.21211107678885      0.45408602675740
  C   -2.79018524046546      1.30235316609048     -0.54882739700912
  H   -2.24618310659329     -0.40748179464218     -1.74999137163294
  N   2.99081132859257     -1.17894532711642      0.38143396517998
  N   3.96709285322398     -1.18836652531629      0.89696071438993
  H   -3.77976631483412      1.40266715639867     -0.99106228803098
  N   -3.30585399769921      3.28433328267454      0.90480429027142
  O   -4.41215679788765      3.35199498640920      0.37176537257869
  O   -2.89230352453162      4.03409520770176      1.78043584066295
  H   0.06148851716386     -0.66331440253428     -0.73796966042637
