14
Coordinates from ORCA-job 3-NO2-C6H3-N2-v2-B3LYPG-aug-cc-pVDZ-scan-d09-49-n400
  C   -1.92649871160491      0.27987136977677     -0.97898428435549
  C   -0.62748104699694      0.10806952513453     -0.43365081237108
  C   -0.41467563805252      1.07472083120403      0.52384986612618
  C   -1.11845744170432      2.01320105171704      0.96615231387660
  C   -2.39147307124648      2.20657393862340      0.45359159125120
  C   -2.79037168813247      1.30126901088058     -0.54997742243164
  H   -2.25968247158721     -0.40817091043659     -1.75769323446929
  N   2.97529042140866     -1.15203140785409      0.39651557038800
  N   3.94705697333524     -1.14941835531684      0.92057542479731
  H   -3.78138363553571      1.40743554080863     -0.98763721539061
  N   -3.29039358972760      3.28186072042207      0.91103859220504
  O   -4.39862644603146      3.35624842902696      0.38293637836075
  O   -2.86947562233780      4.02732221321124      1.78684205473399
  H   0.05127196821352     -0.67735195719772     -0.75575882272095
