14
Coordinates from ORCA-job 3-NO2-C6H3-N2-v2-B3LYPG-aug-cc-pVDZ-scan-d09-49-n400
  C   -2.00104127433757      0.22443171819163     -1.06737240833908
  C   -0.68815805089860     -0.04470907231598     -0.59969608077160
  C   -0.36579725892272      0.87308894166381      0.37389323104297
  C   -0.98283896543829      1.83725038219456      0.88516033699637
  C   -2.26675156281680      2.12462854505395      0.44892561478262
  C   -2.77489191495380      1.28113260812916     -0.55922058928727
  H   -2.41728212728380     -0.41458296479086     -1.84784952396833
  N   2.70013765023860     -0.77435510639321      0.57740578147365
  N   3.58753578306811     -0.59844614737860      1.21023061612560
  H   -3.77913146890368      1.46311278232036     -0.93782040995481
  N   -3.07093266080501      3.23634894907859      0.98887391656853
  O   -4.19887955931486      3.39640854749877      0.52544671010512
  O   -2.55836349127720      3.92362852155425      1.86339362141313
  H   -0.07850509835438     -0.85833770480641     -0.98357081618690
