14
Coordinates from ORCA-job 3-NO2-C6H3-N2-v2-B3LYPG-aug-cc-pVDZ-scan-d09-49-n400
  C   -1.89465893168817      0.29690946313443     -0.94699520144867
  C   -0.60264046289176      0.15791030177934     -0.37653489048926
  C   -0.42542360225864      1.13854082821691      0.57426456888763
  C   -1.15792296447823      2.06626557727782      0.99176404669599
  C   -2.42506798847160      2.22889627974651      0.45524487811598
  C   -2.78702703842940      1.30472707462769     -0.54517967243318
  H   -2.19931314004495     -0.40627791986783     -1.72385692294281
  N   3.02568049722071     -1.25744589338121      0.33204576502986
  N   4.01618792810061     -1.30912491145834      0.81703555005145
  H   -3.77184602632576      1.38572790136358     -1.00178287211294
  N   -3.35334171746362      3.29043563651399      0.88474342499330
  O   -4.45310086777969      3.33681747270191      0.33617629829221
  O   -2.96316411285437      4.05356972848743      1.75959358040083
  H   0.09673842736487     -0.61735153914222     -0.67871855304039
