14
Coordinates from ORCA-job 3-NO2-C6H3-N2-v2-B3LYPG-aug-cc-pVDZ-scan-d09-49-n400
  C   -2.00476777239103      0.22082414575531     -1.07251971372213
  C   -0.69139040571351     -0.05440432716212     -0.60987746851543
  C   -0.36210374867107      0.85997792611079      0.36456857919076
  C   -0.97363208999762      1.82540324166138      0.88005315538676
  C   -2.25787897754750      2.11873054564146      0.44877904636443
  C   -2.77276004885352      1.27942387822398     -0.55944244953787
  H   -2.42615192091668     -0.41485581006351     -1.85295984797792
  N   2.67764048871021     -0.74861713513856      0.58776068414216
  N   3.55760996558304     -0.56033445215171      1.22735893021151
  H   -3.77756311194159      1.46611974739361     -0.93422990912584
  N   -3.05587599415783      3.23241109509325      0.99386618084955
  O   -4.18451569742099      3.39827289478032      0.53417651459571
  O   -2.53745676524012      3.91613338613592      1.86772844703307
  H   -0.08605392144180     -0.86948513628009     -0.99746214889477
