14
Coordinates from ORCA-job 3-NO2-C6H3-N2-v2-B3LYPG-aug-cc-pVDZ-scan-d09-49-n400
  C   -1.85871922184675      0.31403131784359     -0.91279030228077
  C   -0.57509691624075      0.20916668570251     -0.31692168050197
  C   -0.43586889268527      1.20384563427429      0.62584054997149
  C   -1.19623502225692      2.11998121499137      1.01827128856397
  C   -2.45626016526615      2.24986614450318      0.45686519766364
  C   -2.77961753326264      1.30698169761394     -0.53928670904902
  H   -2.13377172114818     -0.40418525031448     -1.68693828469122
  N   3.06076538813875     -1.35616132555744      0.26470052437910
  N   4.06685802644846     -1.46756691997241      0.70558661737522
  H   -3.75722153256678      1.36184970496870     -1.01489754717044
  N   -3.41457654050035      3.29604649611984      0.85680453884683
  O   -4.50458537365137      3.31289188800481      0.28748714717190
  O   -3.05702065491405      4.07702100290004      1.72986908077417
  H   0.14645015975202     -0.55416829107793     -0.59679042105289
