14
Coordinates from ORCA-job 3-NO2-C6H3-N2-v2-B3LYPG-aug-cc-pVDZ-scan-d09-49-n400
  C   -1.96021118632915      0.25912329969537     -1.01509039438555
  C   -0.65453752083531      0.04911468091767     -0.49977443684679
  C   -0.39843209205734      0.99755666552239      0.46504046350995
  C   -1.06927693942233      1.94684188687074      0.93464248420216
  C   -2.34767545331333      2.17725252803869      0.45156250602700
  C   -2.78969264294381      1.29527699044571     -0.55471313957331
  H   -2.32624376454886     -0.41031947214227     -1.79524249996058
  N   2.89262057021044     -1.01451163865818      0.47119281036789
  N   3.83761133652373     -0.94868872277299      1.03829700360096
  H   -3.78683799216498      1.43116652731886     -0.96968741931435
  N   -3.21032693267441      3.26772300455504      0.94160413372991
  O   -4.32726877642757      3.37561152215124      0.43826544608977
  O   -2.75308293780370      3.99121934384774      1.81757491274253
  H   -0.00154566821338     -0.74776661579000     -0.84587187018959
