14
Coordinates from ORCA-job 3-NO2-C6H3-N2-v2-B3LYPG-aug-cc-pVDZ-scan-d09-49-n400
  C   -1.97968760346016      0.24458204661097     -1.03831533824320
  C   -0.67064925404419      0.00962132455392     -0.54289097679125
  C   -0.38518723655923      0.94486414506527      0.42609127271594
  C   -1.03367186706511      1.90086393944144      0.91340649463202
  C   -2.31496407856767      2.15564432471151      0.45013607038519
  C   -2.78560889558845      1.28984494576940     -0.55732096137456
  H   -2.36715275507994     -0.41219299412092     -1.81886087183753
  N   2.81983414485854     -0.91559716404018      0.51828948682859
  N   3.74305267619036     -0.80475181417657      1.11352562520625
  H   -3.78613874705755      1.44553067376060     -0.95684706621893
  N   -3.15287343340252      3.25568369998852      0.96181256261720
  O   -4.27503360701809      3.38590082193683      0.47558130571868
  O   -2.67175781933489      3.96385867190892      1.83753935863185
  H   -0.03506152387110     -0.79425262140969     -0.90434696227025
