14
Coordinates from ORCA-job 3-NO2-C6H3-N2-v2-B3LYPG-aug-cc-pVDZ-scan-d09-49-n400
  C   -1.90884130500913      0.28975177521191     -0.96084577881724
  C   -0.61375626823896      0.13685752543716     -0.40096622140420
  C   -0.42137165350895      1.11161373155720      0.55278105030585
  C   -1.14153122292608      2.04414005590994      0.98110618334857
  C   -2.41129363687556      2.21963289051954      0.45450962312953
  C   -2.78910583058041      1.30348832831679     -0.54733983212077
  H   -2.22562589682276     -0.40705432842495     -1.73859629009780
  N   3.00750320374587     -1.21482111947594      0.35933885783230
  N   3.99026273925933     -1.24243173858764      0.86174156859643
  H   -3.77667064815991      1.39533162565009     -0.99587972039035
  N   -3.32723398632791      3.28720571415918      0.89592063772041
  O   -4.43069279919410      3.34551354630750      0.35596503745658
  O   -2.92395533398124      4.04291310355494      1.77124321881711
  H   0.07741263861982     -0.64254111013572     -0.71117833437641
