14
Coordinates from ORCA-job 3-NO2-C6H3-N2-v2-B3LYPG-aug-cc-pVDZ-scan-d09-49-n400
  C   -1.85105364616228      0.31783105649601     -0.90536487207371
  C   -0.56913457554286      0.21971256496057     -0.30451788632569
  C   -0.43839512684759      1.21752352044082      0.63641803807277
  C   -1.20421883906419      2.13122780472796      1.02378265431460
  C   -2.46261955551116      2.25420211449703      0.45722618199052
  C   -2.77786150841340      1.30751883764169     -0.53786932533959
  H   -2.12003825912006     -0.40337177695404     -1.67889258834087
  N   3.06806106832355     -1.37651896721304      0.25081013846296
  N   4.07671840550996     -1.50012826344139      0.68249076291573
  H   -3.75380267208669      1.35681708647329     -1.01748990936194
  N   -3.42712896287767      3.29705472691570      0.85090714950693
  O   -4.51501262736548      3.30761181854646      0.27737884663289
  O   -3.07650815740233      4.08166837916400      1.72352346050720
  H   0.15609445656021     -0.54154890225504     -0.58060265096182
