26
Coordinates from ORCA-job C6H6+HOTf+NH2N2+-scan
  N   -1.99934090463049     -2.53572773194673      0.37572613107778
  N   -3.00441745957743     -2.99679359315938      0.17787833359151
  N   -0.87160885963258     -2.01639448473080      0.60232672999750
  H   -0.49368353435071     -2.05918528624618      1.58997050106113
  H   1.40546779062617     -3.55667791942914      4.73543371701817
  C   -0.25088408251139     -1.40548064846857     -2.46120728352075
  C   -0.31298233959871     -2.80414571848606     -2.48604513663168
  C   0.64822877133385     -3.55623876570157     -1.80099108589284
  C   1.68999495001916     -2.92164893014446     -1.11753632871821
  C   1.75654333733300     -1.52435365651779     -1.08927314007386
  C   0.77800312480817     -0.76447892934664     -1.75090832446010
  H   -0.98788522076124     -0.81417441612806     -2.99732065911129
  H   -1.09782650699933     -3.30354961590516     -3.04720827085784
  H   0.60263637053729     -4.64141706713301     -1.82805328060775
  H   2.44767070514948     -3.50958946902900     -0.60855931731903
  H   2.55849087653086     -1.02789092940679     -0.55189778385514
  H   0.83187632049352      0.32042385769350     -1.73698159220623
  S   1.52141035955744     -1.85077886194898      3.41253684705531
  O   2.44898826575824     -1.51930690888968      2.35496087897547
  O   0.09420361121062     -2.10685383322902      3.10169929977962
  O   2.10458596739563     -3.10962413832522      4.22145363436359
  C   1.53688419402116     -0.51528428730721      4.73536897217091
  F   0.86132230205255     -0.97543993137505      5.78257311366926
  F   2.78791509110116     -0.25374266726357      5.05841864564302
  F   0.94236318137774      0.55284328508915      4.22605629278076
  H   -0.37525631124419     -1.58248935266478     -0.20822089392942
