26
Coordinates from ORCA-job C6H6+HOTf+NH2N2+-scan
  N   -1.48321067225580     -0.24397545212534      0.50360895065202
  N   -2.37531925078962      0.41252217890162      0.31444668123041
  N   -0.48721357858289     -1.00110377588315      0.68392657481710
  H   -0.32305705645567     -1.36633048314787      1.66160786713028
  H   -0.14714667794719     -4.07000229061942      4.54570036451802
  C   -0.30015150412115     -2.94661645597837     -2.38502699730215
  C   0.64529552042417     -3.34840722074765     -1.43796600974270
  C   1.60443696369478     -2.43841764809038     -0.97757146783937
  C   1.62106985275241     -1.12422420853992     -1.47715470675840
  C   0.66781984728697     -0.72449376529210     -2.42978601665868
  C   -0.29339301994111     -1.63549711200365     -2.87687201177332
  H   -1.03890019683389     -3.65533895807408     -2.74759881181405
  H   0.64419674930300     -4.36812067870328     -1.06482042219338
  H   2.34373151644867     -2.74909615870918     -0.24495214275844
  H   2.39238173785246     -0.43060838082614     -1.15259699355681
  H   0.69275549803167      0.28501057968153     -2.83050092934606
  H   -1.02342288096794     -1.33151509797014     -3.62134329604933
  S   1.17256973091563     -2.71100119257621      3.50546650491249
  O   2.18392074168448     -2.94378104029048      2.49887660654721
  O   -0.04267128726763     -1.93014973210313      3.17362953937223
  O   0.72468734458664     -4.12952470475046      4.11076156910347
  C   1.93466145178497     -1.88457114836244      5.01193430129263
  F   1.03175407851985     -1.90680775938971      5.98592084963795
  F   3.01872229162568     -2.55024907865640      5.35755644994435
  F   2.22798020639288     -0.63830575017507      4.67278392513032
  H   0.23120259385859     -1.04739466556880     -0.08983037849582
