26
Coordinates from ORCA-job C6H6+HOTf+NH2N2+-scan
  N   -2.73264548224916     -0.85042937814222      1.65405170783394
  N   -3.32576560200016     -0.70730579287070      2.57524477196819
  N   1.26808336433902     -0.40756161188936      0.35308131077847
  H   0.78645666868344     -0.33948235266024      1.24839032230598
  H   -0.86182815047918     -3.16325927584934      4.70185224544626
  C   -0.49866586681223     -1.58735123658322     -1.06932390927528
  C   0.84231613440416     -1.51882567489456     -0.43662063131231
  C   1.98851567583119     -1.67943622916538     -1.29377359572117
  C   1.85793203701340     -1.97770498921786     -2.63460840815352
  C   0.55970851272069     -2.10920390108250     -3.16463969857408
  C   -0.61637735259733     -1.93075088012603     -2.39044179800176
  H   -1.36648411567784     -1.40292371802729     -0.44091790979118
  H   0.85682425908617     -2.42805857254984      0.22966226372232
  H   2.95856007641785     -1.55349269276405     -0.82597946070663
  H   2.72177833513340     -2.08792341525747     -3.28148339223940
  H   0.44949764147244     -2.34336074935563     -4.22154725319820
  H   -1.58775853158298     -2.02237963654344     -2.86543509965706
  S   0.66997138062379     -2.76163728263031      3.24212124309131
  O   0.97710515053168     -3.45546848362814      1.99633535311757
  O   0.20601021188141     -1.37663449070295      3.23246654975264
  O   -0.37348742827600     -3.69360082444920      4.04449008856808
  C   2.17229659796931     -2.87650471374037      4.35821609522945
  F   1.81714854846754     -2.45624470896878      5.56791136136450
  F   2.58642607700811     -4.13100759911104      4.40279858490194
  F   3.11120473413004     -2.09007031279252      3.84920117150249
  H   1.15587712396129      0.47261852300217     -0.14085191295244
