26
Coordinates from ORCA-job C6H6+HOTf+NH2N2+-scan
  N   -1.64578197614379      0.45374613648961      6.27611966728948
  N   -1.39958767022790     -0.39015873373864      5.60852221391613
  N   -0.36313792871691     -1.07251074908431     -0.35264161260846
  H   -0.14245569799916     -0.91270514499103      0.63130740338990
  H   -1.01293995599738     -1.93874996780717      4.46135139832043
  C   -0.23417917332858     -2.56703258313548     -2.34173536569168
  C   0.23773846621989     -2.30671941665670     -0.94824968984323
  C   1.56866460414695     -1.67773515171461     -0.83817876775376
  C   2.22568093399596     -1.14283909766369     -1.96039345293921
  C   1.69631326284829     -1.37924251454358     -3.21306915784327
  C   0.46685086206149     -2.11042727939135     -3.40557500164832
  H   -1.15133629990231     -3.13434913204422     -2.46845730405259
  H   0.05168950593506     -3.13813689062074     -0.26520693371977
  H   1.99771034406859     -1.59787349129695      0.15565832313002
  H   3.15115255576416     -0.59055243854587     -1.83900028330827
  H   2.22015082338341     -1.01030157029535     -4.09127198582196
  H   0.12378117516464     -2.29814768923318     -4.41777745548013
  S   0.33643121491513     -2.73485633210468      2.96615137930756
  O   0.18733260491545     -3.82488835973589      2.01780819644020
  O   0.54135686877273     -1.36222925373734      2.47924631683615
  O   -0.89723951559372     -2.78912534575592      3.98022397880911
  C   1.76813194062692     -3.12034577427898      4.10911547483524
  F   1.75278685723474     -2.23839803032113      5.10541902788290
  F   1.64052528749235     -4.34987674694312      4.57458785049323
  F   2.88821734862743     -3.00014191503939      3.40388333824859
  H   -0.38515643826337     -0.24440252781053     -0.93763755818819
