26
Coordinates from ORCA-job C6H6+HOTf+NH2N2+-scan
  N   -2.68101920074766     -0.36269434914759      6.30459661130487
  N   -2.21272132817610     -1.06441217454651      5.59271797907438
  N   0.80124742427225     -0.58481394917681     -0.12985787236804
  H   0.58209011213030     -0.64568486415829      0.86250097237777
  H   -1.40245029221999     -2.34594743359199      4.33259869067172
  C   -0.22900847021843     -2.17603812081620     -1.78673272689495
  C   0.87733589165572     -1.87163242655093     -0.82720211011798
  C   2.19526841790528     -1.59469543057261     -1.43783891089699
  C   2.35329721698909     -1.44168576168459     -2.80899376167978
  C   1.26273627441185     -1.72885742947878     -3.63024717772446
  C   -0.02291425997092     -2.12279805878162     -3.12809524566526
  H   -1.19774792068992     -2.44126468085174     -1.37105374061383
  H   0.93016246942556     -2.68151423710658     -0.08114257248218
  H   3.01978534209040     -1.44435680671389     -0.74957729504404
  H   3.29866135997464     -1.12726867840852     -3.23729511330354
  H   1.38540536130852     -1.64837221732228     -4.70851588648984
  H   -0.81844638123530     -2.34296606051265     -3.83200296888868
  S   0.31099368734430     -2.62984567156385      3.04708395622427
  O   0.51275124612954     -3.51431500406875      1.90741991476153
  O   0.36153977641619     -1.17717274858465      2.86836780716964
  O   -1.05878542007810     -3.06291740177243      3.75354219935166
  C   1.55536083378525     -3.08203227638841      4.37010163978683
  F   1.22922256641041     -2.43214528713006      5.48439694388135
  F   1.52789119256515     -4.38892212268685      4.57066178748616
  F   2.75401607996072     -2.70000103050027      3.94582261318689
  H   0.28802802056129      0.13435422211652     -0.62105573310738
