26
Coordinates from ORCA-job C6H6+HOTf+NH2N2+-scan
  N   -0.14203787806784      0.81946444168888      1.23378251559603
  N   -0.22200529777874      1.78928385735156      1.79193295423638
  N   0.32074397617489     -0.17413225805604      0.44239947602554
  H   0.33984198955820     -1.03868978149357      1.03049834594917
  H   -1.33664116761089     -3.62097408368541      3.76627550325751
  C   0.67787971121565     -3.23999381399428     -1.16308224215371
  C   1.62696176146244     -2.32767789778246     -0.68778404182713
  C   1.65076941089752     -1.01568409183952     -1.18238829731330
  C   0.79798448008050     -0.65956723621878     -2.24679540626398
  C   -0.15531767131043     -1.56934171943901     -2.71109545689240
  C   -0.22170474141523     -2.85879378341389     -2.16196099280775
  H   0.65576993516942     -4.24880458353024     -0.76235380611965
  H   2.33393941355526     -2.63694768008389      0.07600520657105
  H   2.43071760536247     -0.33084876541601     -0.86567803386344
  H   0.87327309564368      0.32819602376963     -2.69457455022874
  H   -0.82639726073958     -1.28786238992969     -3.51729285644444
  H   -0.95630022887088     -3.56725202783560     -2.53260337801684
  S   0.66116257323448     -3.21707576994932      3.04255608896065
  O   1.55836231780990     -4.00401675024979      2.22823635816178
  O   0.14265704467608     -1.91543428121439      2.57102958077958
  O   -0.58176919865009     -4.15300504787285      3.45232953666485
  C   1.44220977015593     -2.88927623128880      4.71820656792931
  F   0.49692574138219     -2.40088762105473      5.51804345444758
  F   1.92467093620658     -4.01833250971302      5.19719227886105
  F   2.40620005787421     -1.99650382121655      4.54119252232596
  H   -0.27519637601576     -0.24384217753255     -0.39387132783504
