26
Coordinates from ORCA-job C6H6+HOTf+NH2N2+-scan
  N   -2.52355272886460     -0.11452868766223      6.12021895082516
  N   -1.99637313501803     -0.84525461394632      5.48265149823777
  N   0.57182577585944     -1.13336145049309     -0.31847093904752
  H   0.50520356469624     -1.08055609891866      0.71183193416414
  H   -1.11105793194969     -2.19051670565666      4.39144683445362
  C   -0.56928305723148     -2.24603252533823     -2.30517688251867
  C   0.09262322590905     -2.40109717688566     -0.99727654512407
  C   1.56957984805412     -2.09824422652478     -0.91526245603627
  C   2.25408130024271     -1.67144269308882     -2.14953971026356
  C   1.54311913787537     -1.45464795509596     -3.27779006152703
  C   0.11572495856584     -1.74501921570020     -3.35653966668336
  H   -1.59625062589633     -2.58209763609808     -2.39881325580967
  H   -0.32460260298949     -3.09055541430241     -0.27020156710017
  H   2.14575998484713     -2.58781050842623     -0.13666111697484
  H   3.33443192191585     -1.57819837453148     -2.12695340735133
  H   2.05056325004689     -1.13029888323995     -4.18109509968258
  H   -0.37931950388591     -1.62458918825795     -4.31522784029397
  S   0.53050302520258     -2.55940762958412      3.02514220720664
  O   0.75728496758932     -3.61318772499217      2.04921870553896
  O   0.39933591167300     -1.17017774392616      2.55067252288970
  O   -0.72914629868728     -2.96398279434435      3.91506076279724
  C   1.90976514744603     -2.58739006305261      4.29453821202775
  F   1.57496367805162     -1.76217445748254      5.28151576824307
  F   2.05880699618751     -3.81946225178888      4.74453432936623
  F   3.01545082923555     -2.16851139861825      3.69210668752250
  H   0.42326236112462     -0.25945458204449     -0.81972986485959
