26
Coordinates from ORCA-job C6H6+HOTf+NH2N2+-scan
  N   -0.76857284939119      0.42945284204496      0.58897261552682
  N   -1.41527786133997      1.33074309773486      0.41002429118997
  N   -0.04394288827946     -0.58973035442126      0.76434517448191
  H   -0.06567872498950     -1.05709841817035      1.71297772326979
  H   -0.97009110926142     -3.86432398925277      4.34620498389142
  C   0.17644772700498     -3.20304413177860     -1.64491693873197
  C   1.38725424019738     -2.81565556695556     -1.06409305065315
  C   1.91491043197626     -1.54047112308947     -1.33321671989779
  C   1.23294700823506     -0.66517527727259     -2.19698566604345
  C   0.01959969416676     -1.05903778379059     -2.77164209690438
  C   -0.50460198277517     -2.32660962596367     -2.49606945164229
  H   -0.22882832804155     -4.19039131248562     -1.44482314018940
  H   1.92154880887653     -3.49395815538468     -0.40588287835014
  H   2.87693817325102     -1.25258581322703     -0.91670998377432
  H   1.65966405680566      0.30661692495667     -2.43090749644344
  H   -0.50328939061241     -0.39051381737252     -3.44943760049222
  H   -1.44000996206572     -2.63473320964681     -2.95400958101611
  S   0.78101707252560     -2.98617068266313      3.43301712605276
  O   1.68020355683123     -3.48267700083203      2.41588593135273
  O   -0.06721840859092     -1.80064950986964      3.16292081950273
  O   -0.16171746237710     -4.19542248842193      3.91064191832956
  C   1.72989171125021     -2.60515623223078      5.01042848156895
  F   0.84189487128172     -2.38243082075254      5.97283332770433
  F   2.49552831323850     -3.63738615005868      5.30390232131451
  F   2.45647084449732     -1.52164353835499      4.78255877342654
  H   0.61761245758616     -0.84994786274153     -0.01581888347339
