15
Coordinates from ORCA-job 2-HOOC-4-Br-C6H2-N2-B3LYPG-aug-cc-pVDZ-scan-d09-49-n400
  C   -1.38897380364097     -1.49135721432380     -1.05399804639870
  C   0.00851719082110     -1.25701189813005     -1.09681634418565
  C   0.31713440245764      0.02563328431018     -0.89998825884014
  C   -0.45289711394488      1.17680084147840     -0.66183229765753
  C   -1.82260627741883      0.89503696754570     -0.62860414240009
  C   -2.26412875354975     -0.42552659618947     -0.82400563269362
  H   -1.80019399962959     -2.49265752576233     -1.19761563398101
  H   -2.52282405591331      1.70740114379766     -0.45133569509415
  N   1.93314351120461      0.24468557924491     -0.95828412058239
  N   3.01593031156071      0.02307714824184     -1.05913278693646
  Br  -4.15891762510766     -0.75184651833582     -0.76742941577959
  C   -0.01328177515537      2.58261392078210     -0.45206313781255
  O   -0.75973965428310      3.51417445874994     -0.25111497801062
  O   1.33817643125204      2.73369725368784     -0.50489945766430
  H   1.51976121134741      3.67637915490290     -0.35678005196320
