15
Coordinates from ORCA-job 2-HOOC-4-Br-C6H2-N2-B3LYPG-aug-cc-pVDZ-scan-d09-49-n400
  C   -1.37835486394841     -1.49185167270794     -1.05559960389510
  C   0.03248310978604     -1.31357327993816     -1.10870967265261
  C   0.39178620664851      0.02391180909667     -0.90519114192390
  C   -0.43559904138830      1.16676710504159     -0.66516859796405
  C   -1.79418599495329      0.89711103609487     -0.62970258232339
  C   -2.24316639801550     -0.42724631674675     -0.82519190184937
  H   -1.80335971919600     -2.48790502020149     -1.19831793141585
  H   -2.49288630559233      1.71053805675548     -0.45209647413199
  N   1.78444777812054      0.16814710733905     -0.96176211726530
  N   2.89753318226400      0.15930145384840     -1.02567073461699
  Br  -4.14071980672045     -0.72781743210816     -0.76241324819616
  C   -0.00178996754703      2.57731963184028     -0.45549521906786
  O   -0.75001369058032      3.50648176990508     -0.25090391842740
  O   1.34938110549000      2.72908486532615     -0.50841199856568
  H   1.53354440563257      3.67083088645493     -0.35926485770438
