16
Coordinates from ORCA-job 4-CH3O-C6H3-N2-B3LYPG-aug-cc-pVDZ-scan-d09-49-n400
  C   -2.01440499248011      0.26170204994697      0.25225818357046
  C   -0.68250045951560      0.54167568092655     -0.12949699032610
  C   -0.42716284768289      1.90338217881260     -0.07964495810544
  C   -1.23377690782556      2.80343466794448      0.25216458192093
  C   -2.54979578502658      2.65711505491994      0.64162366791200
  C   -2.92340871011636      1.28371941412211      0.62690082317732
  H   -2.33733311875997     -0.77715763741092      0.25348572654116
  H   0.00787528631069     -0.24976537931561     -0.41547819107408
  H   -3.26026730458234      3.42805299627695      0.93182517082199
  N   3.29125029653490     -0.96058234178125     -1.48716444077122
  N   4.28530608287979     -0.56308956739009     -1.75772871139953
  O   -4.21760820513479      1.04600763323802      1.00106359197110
  C   -4.69118623210006     -0.29650768612566      1.01959679688336
  H   -5.73465901818262     -0.23851995181249      1.34464089975657
  H   -4.11915866218344     -0.91130947769318      1.73160938455708
  H   -4.64416942213500     -0.74975763465840      0.01734446456439
