16
Coordinates from ORCA-job 4-CH3O-C6H3-N2-B3LYPG-aug-cc-pVDZ-scan-d09-49-n400
  C   -1.96823708294460     -0.23244054218478      0.19133396895949
  C   -0.64142664251904     -0.31512037173654     -0.22303656236259
  C   -0.01093932629583      0.92203677580449     -0.29961805169166
  C   -0.40699201893356      2.18154129636639     -0.05952528638809
  C   -1.75202468939772      2.22095808781490      0.35633553562235
  C   -2.51952607902012      1.04374335055248      0.48056024831670
  H   -2.55592471632159     -1.14119043634081      0.28576474052893
  H   -0.16009395205700     -1.26480459635579     -0.46005054477365
  H   -2.25110595825958      3.16347919791702      0.59810436796118
  N   1.53429144461079      0.82461041054728     -0.78233934020937
  N   2.57375832705941      1.09654060831021     -1.07532760745181
  O   -3.80744544668932      1.21591361679313      0.89145847083992
  C   -4.64692516695390      0.07493081055160      1.04111397968614
  H   -5.61530451295626      0.46064938743749      1.37413539107645
  H   -4.24896320461186     -0.61700234802362      1.79918148570654
  H   -4.77414097470978     -0.45544524745343      0.08490920417948
