16
Coordinates from ORCA-job 4-CH3O-C6H3-N2-B3LYPG-aug-cc-pVDZ-scan-d09-49-n400
  C   -2.03753613015807     -0.01154125278790      0.23320061731161
  C   -0.68574603924718      0.03057097476720     -0.17720632347719
  C   -0.21264831307137      1.33243628617864     -0.19951156848905
  C   -0.85356259823027      2.36870591985533      0.09463353337151
  C   -2.16849580015407      2.45595257227951      0.50594026274511
  C   -2.76034047718837      1.16260090482544      0.56544976929813
  H   -2.52465216843625     -0.98247042662893      0.29099372495446
  H   -0.12985626739393     -0.86943309541231     -0.43245114348052
  H   -2.73942582159645      3.34503231478938      0.76476701380503
  N   2.85527437374061     -0.13276073996014     -1.27754627416763
  N   3.67080890437583      0.58948140243948     -1.45805651232153
  O   -4.06830539412856      1.15837177135757      0.96600086857303
  C   -4.75356587833247     -0.08611856438776      1.05883569568366
  H   -5.76705051315594      0.15747625812469      1.39247259910486
  H   -4.27520415128754     -0.75069050804310      1.79482099296358
  H   -4.80069372573586     -0.58921381739709      0.08065674412493
