16
Coordinates from ORCA-job 4-CH3O-C6H3-N2-B3LYPG-aug-cc-pVDZ-scan-d09-49-n400
  C   -1.94262698788747     -0.22238905693739      0.18438619131521
  C   -0.62916364240917     -0.28664596839805     -0.22417423711676
  C   0.06319332819478      0.95120876473384     -0.31964596936730
  C   -0.39851600584605      2.26760000205315     -0.05407412855679
  C   -1.74688189045947      2.23270381506381      0.35582579485506
  C   -2.50472438239432      1.05548554465456      0.47710162168705
  H   -2.52389836398927     -1.13542081688175      0.27644899223658
  H   -0.15396099135491     -1.24052387557555     -0.45971657767204
  H   -2.26627194750337      3.16377788139152      0.60275300610489
  N   1.38086223591171      0.88975319529586     -0.72915007343086
  N   2.45253412608798      0.89337842832928     -1.05711563087562
  O   -3.78883943832503      1.20679183931798      0.88489456133225
  C   -4.62509664083444      0.05875886023240      1.03294342001695
  H   -5.59381895120860      0.44260962214514      1.36593094229919
  H   -4.22409778247884     -0.63016702225799      1.79099418710232
  H   -4.74969266550351     -0.46852121316679      0.07559790006988
