14
Coordinates from ORCA-job 2-NO2-C6H3-N2-B3LYPG-aug-cc-pVDZ-scan-d09-49-n400
  C   -2.55966603146824     -0.09712729494388     -0.88240412591137
  C   -1.25612650022329     -0.29943005320487     -0.48266295738056
  C   -0.51022824315405      0.32090679062826      0.31086949668053
  C   -0.98111242506794      1.44229961780325      0.97241724740487
  C   -2.31289108757849      1.80104728311900      0.68196186279896
  C   -3.07786945449821      1.04764642918414     -0.22381995651889
  H   -3.14168211796383     -0.68882229288024     -1.58473406062276
  N   4.03575006906396      1.91270518512311     -0.58927442910270
  N   4.73528382394840      1.14327721131346     -0.21773798276375
  H   -4.10625264440346      1.34748567677097     -0.43173350941019
  H   -2.73891859409806      2.67409907112462      1.17322166618597
  N   -0.17079426007894      2.22502998282983      1.92287271017566
  O   0.98526568704899      1.86389439453478      2.10535999293268
  O   -0.71185822152692      3.18538799859754      2.46806404553154
