14
Coordinates from ORCA-job 2-NO2-C6H3-N2-B3LYPG-aug-cc-pVDZ-scan-d09-49-n400
  C   -2.47584153603032     -0.08800323382764     -0.89841979018724
  C   -1.17818151289697     -0.27997962796285     -0.47491372480069
  C   -0.45721404202561      0.34459692019533      0.33762061603688
  C   -0.94734949498692      1.45934919451837      0.99567798190077
  C   -2.27740771201616      1.80491182598898      0.67927618026563
  C   -3.01722929404499      1.04915323684709     -0.24478842999250
  H   -3.03854913739363     -0.68132565894021     -1.61498144079014
  N   3.75466733597662      1.83122092037954     -0.62536704778784
  N   4.49296157627794      1.09217669409233     -0.26749726221351
  H   -4.04390931709609      1.34137331185239     -0.47115914390292
  H   -2.72260390325457      2.67097185156221      1.16625031352024
  N   -0.16488881403156      2.24426735123249      1.96583054418661
  O   0.99351529808646      1.89853872225414      2.16385305706752
  O   -0.72906944656427      3.19114849180782      2.51101814669718
