14
Coordinates from ORCA-job 2-NO2-C6H3-N2-B3LYPG-aug-cc-pVDZ-scan-d09-49-n400
  C   -1.89577274759592      0.12282384117243     -1.06730433314788
  C   -0.47432417066475      0.10820719391060     -0.99508378690052
  C   -0.01047111239293      0.89409008424069     -0.03033411307381
  C   -0.67035038216437      1.70929150590830      0.89844206496627
  C   -2.05949129783169      1.69694199804823      0.79613766932373
  C   -2.66401536575276      0.89860504340616     -0.19229839979713
  H   -2.41239590047030     -0.48088272442324     -1.81850302798774
  N   1.61851359904821      0.88854762400226      0.06582120914593
  N   2.66379958372601      0.61849660721665     -0.18956787003415
  H   -3.75318219404317      0.89393039675968     -0.26655815106747
  H   -2.64443595119481      2.30453388441421      1.48250614245308
  N   -0.01525728077546      2.52942816680215      1.91604749733812
  O   1.21948716643859      2.49641464471909      1.95489851489297
  O   -0.71320394632667      3.19797173382278      2.66819658388861
