14
Coordinates from ORCA-job 2-NO2-C6H3-N2-B3LYPG-aug-cc-pVDZ-scan-d09-49-n400
  C   -2.49097858239991     -0.08907403267370     -0.89528230977600
  C   -1.19217085114527     -0.28320350803547     -0.47591042916864
  C   -0.46554253836148      0.34051997628969      0.33259769143946
  C   -0.95488747073481      1.45558633910428      0.99103235580089
  C   -2.28476916594249      1.80464676309835      0.68037646586705
  C   -3.02881095305153      1.04889128613738     -0.24072015862893
  H   -3.05705159236783     -0.68230506915961     -1.60927482101358
  N   3.80740807830852      1.84617300750704     -0.61899895415927
  N   4.53840189893320      1.10118641261672     -0.25844692518006
  H   -4.05600724260807      1.34158207230923     -0.46410337128703
  H   -2.72587897310667      2.67210952595532      1.16824062579191
  N   -0.16638963558932      2.24045665503815      1.95756512824285
  O   0.99136490171647      1.89143645043721      2.15282496042866
  O   -0.72578787365089      3.19039412137537      2.50249974164270
