22
Coordinates from ORCA-job C6H6+AlCl4-+NH2N2+-scan
  N   3.72399195536623      0.53189981862937      0.09550216783520
  N   3.22211296708550      1.52456665080200      0.11110368115112
  N   4.28102397077974     -0.61041503641986      0.16845687733509
  H   3.77668798313399     -1.37399028281429     -0.38091977737859
  H   5.30334302723526     -0.61010107142253     -0.12412843568516
  C   0.76800876165286     -2.96050348518816     -6.82388658101774
  C   1.74327418203350     -2.11615054456166     -6.29447823548258
  C   1.38839632405599     -0.85587778022161     -5.81378202375119
  C   0.05792138176885     -0.44104958260372     -5.86519588747542
  C   -0.91736255685328     -1.28498615638428     -6.39514845594601
  C   -0.56216052049738     -2.54542849266047     -6.87413849869701
  H   1.04501397705895     -3.94073056685682     -7.19688659275823
  H   2.77848707154404     -2.43766657098341     -6.25731326591923
  H   2.14817877497098     -0.20194002907482     -5.40054287334468
  H   -0.21818730325887      0.54048757695621     -5.49417497653601
  H   -1.95202936254910     -0.96104954639609     -6.43601487381862
  H   -1.32044881441385     -3.20243017052870     -7.28684270638940
  Al  5.28925791400678     -1.64357035720617     -2.91822571082417
  Cl  6.04430871514385     -2.69810375703431     -4.57729185767835
  Cl  6.80972092545602     -1.26845057969695     -1.34770242845049
  Cl  4.41457178296016      0.29175004727809     -3.29024674447599
  Cl  3.72048884331975     -2.77686008361180     -1.83174280069258
