22
Coordinates from ORCA-job C6H6+AlCl4-+NH2N2+-scan
  N   3.29269586025167      0.14584682209276     -4.20223417234748
  N   3.57695633457541      0.23728243861500     -5.27299672555965
  N   2.95815636385715      0.15635552018050     -2.97046175234364
  H   2.45215518615806     -0.70045940963699     -2.66989365547005
  H   3.76876053722450      0.38176055767558     -2.30804199820506
  C   1.88022031821878     -2.46695800914377     -6.22431017851138
  C   1.37865941579701     -1.35372784998771     -6.90071073394268
  C   0.46906094131719     -0.50248268989734     -6.27002929399136
  C   0.05177322165609     -0.77035305720556     -4.96629847703670
  C   0.55097090065715     -1.88732038408512     -4.29081963443809
  C   1.46976183635762     -2.73255611516575     -4.91740473958453
  H   2.58758013797120     -3.12715841102902     -6.71320876634547
  H   1.69292889803562     -1.15150165245261     -7.91870602718359
  H   0.07538278579562      0.35797843929619     -6.80003003794355
  H   -0.67021133949915     -0.12163554432399     -4.48219586096748
  H   0.21506128473671     -2.11036654183674     -3.28367579848311
  H   1.85981655826539     -3.59418030558879     -4.38813208703227
  Al  4.85129225598799     -2.05669806841401     -1.08045712044736
  Cl  5.84569934299156     -3.11590649536973      0.44873331794983
  Cl  5.11170568788505      0.14790575954512     -0.86758466392001
  Cl  5.46049885834972     -2.47392873655311     -3.10691513756943
  Cl  2.66567461340977     -2.30249626671499     -1.04822645662700
