22
Coordinates from ORCA-job C6H6+AlCl4-+NH2N2+-scan
  N   3.48466183670389     -0.03902579574305     -4.33504788945194
  N   3.79884447533077     -0.16911348230019     -5.39346148664601
  N   3.13371131564216      0.22905556291074     -3.13665860440884
  H   2.49649252967237     -0.47770808252374     -2.71788755255741
  H   3.95940172896684      0.43583367010604     -2.48702009135974
  C   1.76881275088339     -2.39064091663278     -6.55097639432848
  C   1.17891802899745     -1.18590520187104     -6.93976341305711
  C   0.40805745530604     -0.46006470218815     -6.03107053930141
  C   0.21851070690575     -0.94411298472779     -4.73559989124435
  C   0.80716283962445     -2.15112966956704     -4.34704539445692
  C   1.58574661331538     -2.87184115144841     -5.25445085688587
  H   2.36682515297987     -2.95450703101683     -7.25818596825924
  H   1.31572542123246     -0.81714375609623     -7.95036133340350
  H   -0.05836590165559      0.47017286071792     -6.33674279447008
  H   -0.40101138826075     -0.39350944779034     -4.03554030848288
  H   0.65251965402551     -2.53549034734152     -3.34507486823758
  H   2.04611815455246     -3.80433383363905     -4.94900169382316
  Al  4.60344350903820     -1.89188193311056     -0.81694870318759
  Cl  5.38514525516801     -2.81443366935467      0.91115046870656
  Cl  5.23259665313407      0.24145198603211     -0.97753840586460
  Cl  5.15401921616651     -2.75667931701423     -2.71463414024852
  Cl  2.40726399227083     -1.75959275740124     -0.83174013903137
