22
Coordinates from ORCA-job C6H6+AlCl4-+NH2N2+-scan
  N   2.84730494418688      0.30836826840762     -3.70614085158493
  N   2.90158275571197      0.76673757272007     -4.71755193964661
  N   2.75212546962417     -0.11564554539326     -2.50527138229743
  H   2.53513682063545     -1.13148039530786     -2.43547166132816
  H   3.59404816518553      0.13735627482342     -1.89502042463604
  C   1.90619930271142     -2.48247574934314     -5.55563955590452
  C   1.77908353866987     -1.60020876583793     -6.62884296614934
  C   0.74174899257787     -0.66548747131015     -6.64642014827776
  C   -0.16970172597209     -0.61121350004471     -5.59090840219635
  C   -0.04457398627236     -1.49392172685391     -4.51755983630996
  C   0.99271021293467     -2.43074074030101     -4.50055991277791
  H   2.71167426407464     -3.20757858050119     -5.53831764452517
  H   2.48434011722013     -1.64352515352560     -7.45120529725323
  H   0.64020350982820      0.01442687234736     -7.48516742340908
  H   -0.98058776178703      0.10865997468251     -5.61037897351927
  H   -0.76210509495027     -1.46540468792007     -3.70449002415465
  H   1.08143541005540     -3.13165849771541     -3.67761684670650
  Al  5.40047530111725     -2.16391371238538     -1.60172500083144
  Cl  6.85479926081482     -3.30389374898207     -0.58531526920563
  Cl  5.18693289252835     -0.12145711746523     -0.73471470339037
  Cl  5.72736461243808     -1.82254113063958     -3.70611334473244
  Cl  3.36440299866718     -2.98500243945461     -1.43916839116321
