22
Coordinates from ORCA-job C6H6+AlCl4-+NH2N2+-scan
  N   3.27852112586375      0.18305064797592     -4.15395386131877
  N   3.54224754005527      0.28573760759435     -5.22896265996006
  N   2.96671135996507      0.17409572152723     -2.91675699214437
  H   2.45092784927888     -0.67961808390216     -2.62435166438159
  H   3.78812001469235      0.38053263425177     -2.26181773317132
  C   1.90665708733614     -2.45621711698063     -6.18754878669560
  C   1.38371120266257     -1.38409953689348     -6.91234480434616
  C   0.43850288766977     -0.53851949414657     -6.32817182700481
  C   0.01132081578228     -0.76874612527107     -5.02063652871382
  C   0.53226607422772     -1.84432134740139     -4.29623619025680
  C   1.48318947892123     -2.68628214583423     -4.87792370169064
  H   2.64009358633732     -3.11318123388417     -6.64108815836859
  H   1.70810561558671     -1.21085179381182     -7.93252257371964
  H   0.02731972600789      0.28944081203521     -6.89530661819759
  H   -0.73609126532215     -0.12346490156786     -4.57178128665461
  H   0.18512688613918     -2.04049020915442     -3.28714527084219
  H   1.88790724214703     -3.51784077119392     -4.31271510087748
  Al  4.87521977061038     -2.09491514031603     -1.10940612888870
  Cl  5.88099884997944     -3.19621052985742      0.38192030447399
  Cl  5.15784016897410      0.10241198196636     -0.85549554115013
  Cl  5.44895848598180     -2.47719279488145     -3.15267057004404
  Cl  2.68694549710334     -2.32391818025431     -1.04868430604716
