Coordinates from ORCA-job Furan-3-N2+-scan-d09-169-n800
 OpenBabel09191814033D

 10  9  0  0  0  0  0  0  0  0999 V2000
    5.4586    3.1962    2.5211 N   0  0  0  0  0  0  0  0  0  0  0  0
    6.3421    3.6604    2.9965 N   0  0  0  0  0  0  0  0  0  0  0  0
   -1.6992   -0.7092   -1.4970 C   0  0  0  0  0  0  0  0  0  0  0  0
   -2.9746   -0.2224   -1.5898 C   0  0  0  0  0  0  0  0  0  0  0  0
   -3.8793   -0.6106   -2.0402 H   0  0  0  0  0  0  0  0  0  0  0  0
   -2.9032    0.4971   -0.3946 C   0  0  0  0  0  0  0  0  0  0  0  0
   -3.7053    0.6894    0.3120 H   0  0  0  0  0  0  0  0  0  0  0  0
   -0.8073    0.0078   -0.7270 C   0  0  0  0  0  0  0  0  0  0  0  0
    0.2680    0.1147   -0.6736 H   0  0  0  0  0  0  0  0  0  0  0  0
   -1.6140    0.6507    0.1226 O   0  0  0  0  0  0  0  0  0  0  0  0
  1  2  3  0  0  0  0
  3  8  1  0  0  0  0
  4  3  1  0  0  0  0
  4  6  1  0  0  0  0
  5  4  1  0  0  0  0
  6 10  1  0  0  0  0
  6  7  1  0  0  0  0
  8  9  1  0  0  0  0
  8 10  1  0  0  0  0
M  RAD  4   3   3   4   2   6   2   8   2
M  END
