Coordinates from ORCA-job Furan-3-N2+-scan-d09-169-n800
 OpenBabel09191814033D

 10  9  0  0  0  0  0  0  0  0999 V2000
    2.1685    0.8259    0.2445 N   0  0  0  0  0  0  0  0  0  0  0  0
    3.2665    0.8216    0.3628 N   0  0  0  0  0  0  0  0  0  0  0  0
   -0.2979    0.8098   -0.0327 C   0  0  0  0  0  0  0  0  0  0  0  0
   -0.9146   -0.2959   -0.5890 C   0  0  0  0  0  0  0  0  0  0  0  0
   -0.5722   -1.2453   -0.9709 H   0  0  0  0  0  0  0  0  0  0  0  0
   -2.1784    0.2368   -0.4918 C   0  0  0  0  0  0  0  0  0  0  0  0
   -3.1423   -0.1646   -0.7745 H   0  0  0  0  0  0  0  0  0  0  0  0
   -0.9237    1.9114    0.3853 C   0  0  0  0  0  0  0  0  0  0  0  0
   -0.7285    2.8722    0.8311 H   0  0  0  0  0  0  0  0  0  0  0  0
   -2.1916    1.5023    0.0655 O   0  0  0  0  0  0  0  0  0  0  0  0
  1  2  3  0  0  0  0
  3  8  2  0  0  0  0
  4  6  2  0  0  0  0
  4  3  1  0  0  0  0
  5  4  1  0  0  0  0
  6 10  1  0  0  0  0
  7  6  1  0  0  0  0
  8  9  1  0  0  0  0
 10  8  1  0  0  0  0
M  RAD  1   3   2
M  END
