Coordinates from ORCA-job Furan-3-N2+-scan-d09-169-n800
 OpenBabel09191814033D

 10  9  0  0  0  0  0  0  0  0999 V2000
    2.2868    0.8317    0.2599 N   0  0  0  0  0  0  0  0  0  0  0  0
    3.3847    0.8318    0.3802 N   0  0  0  0  0  0  0  0  0  0  0  0
   -0.3384    0.8058   -0.0386 C   0  0  0  0  0  0  0  0  0  0  0  0
   -0.9458   -0.3019   -0.5953 C   0  0  0  0  0  0  0  0  0  0  0  0
   -0.6027   -1.2514   -0.9768 H   0  0  0  0  0  0  0  0  0  0  0  0
   -2.2083    0.2350   -0.4962 C   0  0  0  0  0  0  0  0  0  0  0  0
   -3.1738   -0.1640   -0.7776 H   0  0  0  0  0  0  0  0  0  0  0  0
   -0.9479    1.9124    0.3831 C   0  0  0  0  0  0  0  0  0  0  0  0
   -0.7501    2.8727    0.8288 H   0  0  0  0  0  0  0  0  0  0  0  0
   -2.2185    1.5020    0.0626 O   0  0  0  0  0  0  0  0  0  0  0  0
  1  2  3  0  0  0  0
  3  8  2  0  0  0  0
  4  6  2  0  0  0  0
  4  3  1  0  0  0  0
  5  4  1  0  0  0  0
  6 10  1  0  0  0  0
  7  6  1  0  0  0  0
  8  9  1  0  0  0  0
 10  8  1  0  0  0  0
M  RAD  1   3   2
M  END
