Coordinates from ORCA-job Furan-3-N2+-scan-d09-169-n800
 OpenBabel09191814033D

 10  9  0  0  0  0  0  0  0  0999 V2000
    2.7858    1.7877    0.9868 N   0  0  0  0  0  0  0  0  0  0  0  0
    3.7415    2.1794    1.3781 N   0  0  0  0  0  0  0  0  0  0  0  0
   -0.7318   -0.1646   -0.9947 C   0  0  0  0  0  0  0  0  0  0  0  0
   -2.0345    0.0244   -1.3699 C   0  0  0  0  0  0  0  0  0  0  0  0
   -2.6960   -0.5218   -2.0300 H   0  0  0  0  0  0  0  0  0  0  0  0
   -2.4038    0.6412   -0.1731 C   0  0  0  0  0  0  0  0  0  0  0  0
   -3.3641    0.5899    0.3310 H   0  0  0  0  0  0  0  0  0  0  0  0
   -0.2280    0.6739   -0.0213 C   0  0  0  0  0  0  0  0  0  0  0  0
    0.7524    1.0227    0.2896 H   0  0  0  0  0  0  0  0  0  0  0  0
   -1.3356    1.0412    0.6336 O   0  0  0  0  0  0  0  0  0  0  0  0
  1  2  3  0  0  0  0
  3  8  1  0  0  0  0
  4  3  1  0  0  0  0
  4  6  1  0  0  0  0
  5  4  1  0  0  0  0
  6  7  1  0  0  0  0
  6 10  1  0  0  0  0
  8  9  1  0  0  0  0
  8 10  1  0  0  0  0
M  RAD  4   3   3   4   2   6   2   8   2
M  END
