Coordinates from ORCA-job Furan-3-N2+-scan-d09-169-n800
 OpenBabel09191814033D

 10  9  0  0  0  0  0  0  0  0999 V2000
    7.2946    4.1095    3.4449 N   0  0  0  0  0  0  0  0  0  0  0  0
    8.1955    4.5376    3.9215 N   0  0  0  0  0  0  0  0  0  0  0  0
   -2.2922   -0.9779   -1.7538 C   0  0  0  0  0  0  0  0  0  0  0  0
   -3.5156   -0.3649   -1.7553 C   0  0  0  0  0  0  0  0  0  0  0  0
   -4.4862   -0.6606   -2.1329 H   0  0  0  0  0  0  0  0  0  0  0  0
   -3.2824    0.3468   -0.5761 C   0  0  0  0  0  0  0  0  0  0  0  0
   -4.0056    0.6207    0.1866 H   0  0  0  0  0  0  0  0  0  0  0  0
   -1.2776   -0.3521   -1.0597 C   0  0  0  0  0  0  0  0  0  0  0  0
   -0.1960   -0.3560   -1.0868 H   0  0  0  0  0  0  0  0  0  0  0  0
   -1.9487    0.3708   -0.1585 O   0  0  0  0  0  0  0  0  0  0  0  0
  1  2  3  0  0  0  0
  3  8  1  0  0  0  0
  4  3  1  0  0  0  0
  4  6  1  0  0  0  0
  5  4  1  0  0  0  0
  6 10  1  0  0  0  0
  6  7  1  0  0  0  0
  8 10  1  0  0  0  0
  9  8  1  0  0  0  0
M  RAD  4   3   3   4   2   6   2   8   2
M  END
