Coordinates from ORCA-job Furan-3-N2+-scan-d09-169-n800
 OpenBabel09191814033D

 10  9  0  0  0  0  0  0  0  0999 V2000
    5.3289    3.1364    2.4580 N   0  0  0  0  0  0  0  0  0  0  0  0
    6.2115    3.6013    2.9344 N   0  0  0  0  0  0  0  0  0  0  0  0
   -1.6614   -0.6920   -1.4804 C   0  0  0  0  0  0  0  0  0  0  0  0
   -2.9382   -0.2098   -1.5773 C   0  0  0  0  0  0  0  0  0  0  0  0
   -3.8398   -0.6009   -2.0314 H   0  0  0  0  0  0  0  0  0  0  0  0
   -2.8738    0.5088   -0.3811 C   0  0  0  0  0  0  0  0  0  0  0  0
   -3.6792    0.6973    0.3227 H   0  0  0  0  0  0  0  0  0  0  0  0
   -0.7749    0.0276   -0.7064 C   0  0  0  0  0  0  0  0  0  0  0  0
    0.2998    0.1385   -0.6491 H   0  0  0  0  0  0  0  0  0  0  0  0
   -1.5871    0.6667    0.1408 O   0  0  0  0  0  0  0  0  0  0  0  0
  1  2  3  0  0  0  0
  3  8  1  0  0  0  0
  4  3  1  0  0  0  0
  4  6  1  0  0  0  0
  5  4  1  0  0  0  0
  6 10  1  0  0  0  0
  6  7  1  0  0  0  0
  8  9  1  0  0  0  0
  8 10  1  0  0  0  0
M  RAD  4   3   3   4   2   6   2   8   2
M  END
