Coordinates from ORCA-job Furan-3-N2+-scan-d09-169-n800
 OpenBabel09191814033D

 10  9  0  0  0  0  0  0  0  0999 V2000
    7.4076    4.1639    3.5027 N   0  0  0  0  0  0  0  0  0  0  0  0
    8.3089    4.5915    3.9791 N   0  0  0  0  0  0  0  0  0  0  0  0
   -2.3288   -0.9942   -1.7680 C   0  0  0  0  0  0  0  0  0  0  0  0
   -3.5492   -0.3755   -1.7641 C   0  0  0  0  0  0  0  0  0  0  0  0
   -4.5234   -0.6672   -2.1354 H   0  0  0  0  0  0  0  0  0  0  0  0
   -3.3054    0.3377   -0.5879 C   0  0  0  0  0  0  0  0  0  0  0  0
   -4.0226    0.6175    0.1781 H   0  0  0  0  0  0  0  0  0  0  0  0
   -1.3067   -0.3728   -1.0813 C   0  0  0  0  0  0  0  0  0  0  0  0
   -0.2253   -0.3825   -1.1150 H   0  0  0  0  0  0  0  0  0  0  0  0
   -1.9693    0.3556   -0.1780 O   0  0  0  0  0  0  0  0  0  0  0  0
  1  2  3  0  0  0  0
  3  4  1  0  0  0  0
  3  8  1  0  0  0  0
  4  6  1  0  0  0  0
  5  4  1  0  0  0  0
  6 10  1  0  0  0  0
  6  7  1  0  0  0  0
  8 10  1  0  0  0  0
  9  8  1  0  0  0  0
M  RAD  4   3   3   4   2   6   2   8   2
M  END
