Coordinates from ORCA-job Furan-3-N2+-scan-d09-169-n800
 OpenBabel09191814033D

 10  9  0  0  0  0  0  0  0  0999 V2000
    2.5428    1.2097    0.3528 N   0  0  0  0  0  0  0  0  0  0  0  0
    3.6395    1.3373    0.3973 N   0  0  0  0  0  0  0  0  0  0  0  0
   -0.4759    0.3393    0.2655 C   0  0  0  0  0  0  0  0  0  0  0  0
   -1.1273   -0.4166   -0.6727 C   0  0  0  0  0  0  0  0  0  0  0  0
   -1.0805   -1.4653   -0.9356 H   0  0  0  0  0  0  0  0  0  0  0  0
   -2.2726    0.3792   -0.6813 C   0  0  0  0  0  0  0  0  0  0  0  0
   -3.2981    0.0694   -0.8571 H   0  0  0  0  0  0  0  0  0  0  0  0
   -0.8738    1.6476    0.4124 C   0  0  0  0  0  0  0  0  0  0  0  0
   -0.4369    2.5594    0.7942 H   0  0  0  0  0  0  0  0  0  0  0  0
   -2.1313    1.6139   -0.0454 O   0  0  0  0  0  0  0  0  0  0  0  0
  1  2  3  0  0  0  0
  3  8  1  0  0  0  0
  4  3  1  0  0  0  0
  5  4  1  0  0  0  0
  6  4  1  0  0  0  0
  6 10  1  0  0  0  0
  7  6  1  0  0  0  0
  8  9  1  0  0  0  0
 10  8  1  0  0  0  0
M  RAD  4   3   3   4   2   6   2   8   2
M  END
