Coordinates from ORCA-job Furan-3-N2+-scan-d09-169-n800
 OpenBabel09191814033D

 10  9  0  0  0  0  0  0  0  0999 V2000
    5.5733    3.2550    2.5742 N   0  0  0  0  0  0  0  0  0  0  0  0
    6.4584    3.7114    3.0540 N   0  0  0  0  0  0  0  0  0  0  0  0
   -1.7338   -0.7252   -1.5131 C   0  0  0  0  0  0  0  0  0  0  0  0
   -3.0067   -0.2312   -1.6016 C   0  0  0  0  0  0  0  0  0  0  0  0
   -3.9148   -0.6138   -2.0501 H   0  0  0  0  0  0  0  0  0  0  0  0
   -2.9285    0.4868   -0.4058 C   0  0  0  0  0  0  0  0  0  0  0  0
   -3.7278    0.6823    0.3032 H   0  0  0  0  0  0  0  0  0  0  0  0
   -0.8366   -0.0130   -0.7444 C   0  0  0  0  0  0  0  0  0  0  0  0
    0.2394    0.0885   -0.6940 H   0  0  0  0  0  0  0  0  0  0  0  0
   -1.6370    0.6334    0.1077 O   0  0  0  0  0  0  0  0  0  0  0  0
  1  2  3  0  0  0  0
  3  8  1  0  0  0  0
  4  3  1  0  0  0  0
  4  6  1  0  0  0  0
  5  4  1  0  0  0  0
  6 10  1  0  0  0  0
  6  7  1  0  0  0  0
  8  9  1  0  0  0  0
  8 10  1  0  0  0  0
M  RAD  4   3   3   4   2   6   2   8   2
M  END
