Coordinates from ORCA-job Furan-3-N2+-scan-d09-169-n800
 OpenBabel09191814033D

 10  9  0  0  0  0  0  0  0  0999 V2000
    8.1905    4.5504    3.9002 N   0  0  0  0  0  0  0  0  0  0  0  0
    9.0931    4.9792    4.3731 N   0  0  0  0  0  0  0  0  0  0  0  0
   -2.5902   -1.1033   -1.8797 C   0  0  0  0  0  0  0  0  0  0  0  0
   -3.7761   -0.4224   -1.8340 C   0  0  0  0  0  0  0  0  0  0  0  0
   -4.7756   -0.6618   -2.1742 H   0  0  0  0  0  0  0  0  0  0  0  0
   -3.4578    0.2713   -0.6640 C   0  0  0  0  0  0  0  0  0  0  0  0
   -4.1344    0.5837    0.1261 H   0  0  0  0  0  0  0  0  0  0  0  0
   -1.5156   -0.5390   -1.2246 C   0  0  0  0  0  0  0  0  0  0  0  0
   -0.4379   -0.6023   -1.2950 H   0  0  0  0  0  0  0  0  0  0  0  0
   -2.1101    0.2182   -0.2977 O   0  0  0  0  0  0  0  0  0  0  0  0
  1  2  3  0  0  0  0
  3  4  1  0  0  0  0
  3  8  1  0  0  0  0
  4  6  1  0  0  0  0
  5  4  1  0  0  0  0
  6 10  1  0  0  0  0
  6  7  1  0  0  0  0
  8 10  1  0  0  0  0
  9  8  1  0  0  0  0
M  RAD  4   3   3   4   2   6   2   8   2
M  END
