Coordinates from ORCA-job Furan-3-N2+-scan-d09-169-n800
 OpenBabel09191814033D

 10  9  0  0  0  0  0  0  0  0999 V2000
    2.5257    1.1172    0.3283 N   0  0  0  0  0  0  0  0  0  0  0  0
    3.6229    1.2362    0.3819 N   0  0  0  0  0  0  0  0  0  0  0  0
   -0.4539    0.4121    0.2574 C   0  0  0  0  0  0  0  0  0  0  0  0
   -1.0799   -0.3728   -0.6750 C   0  0  0  0  0  0  0  0  0  0  0  0
   -0.9833   -1.4165   -0.9437 H   0  0  0  0  0  0  0  0  0  0  0  0
   -2.2625    0.3643   -0.6684 C   0  0  0  0  0  0  0  0  0  0  0  0
   -3.2730    0.0064   -0.8383 H   0  0  0  0  0  0  0  0  0  0  0  0
   -0.9153    1.6973    0.4172 C   0  0  0  0  0  0  0  0  0  0  0  0
   -0.5202    2.6287    0.7975 H   0  0  0  0  0  0  0  0  0  0  0  0
   -2.1746    1.6010   -0.0268 O   0  0  0  0  0  0  0  0  0  0  0  0
  1  2  3  0  0  0  0
  3  8  1  0  0  0  0
  4  6  1  0  0  0  0
  4  3  1  0  0  0  0
  5  4  1  0  0  0  0
  6 10  1  0  0  0  0
  7  6  1  0  0  0  0
  8  9  1  0  0  0  0
 10  8  1  0  0  0  0
M  RAD  4   3   3   4   2   6   2   8   2
M  END
