Coordinates from ORCA-job Furan-3-N2+-scan-d09-169-n800
 OpenBabel09191814033D

 10  9  0  0  0  0  0  0  0  0999 V2000
    9.7183    5.2863    4.6534 N   0  0  0  0  0  0  0  0  0  0  0  0
   10.6236    5.7011    5.1336 N   0  0  0  0  0  0  0  0  0  0  0  0
   -3.0656   -1.3071   -2.0722 C   0  0  0  0  0  0  0  0  0  0  0  0
   -4.1999   -0.5484   -1.9724 C   0  0  0  0  0  0  0  0  0  0  0  0
   -5.2296   -0.7238   -2.2574 H   0  0  0  0  0  0  0  0  0  0  0  0
   -3.7758    0.1317   -0.8283 C   0  0  0  0  0  0  0  0  0  0  0  0
   -4.3880    0.4935   -0.0073 H   0  0  0  0  0  0  0  0  0  0  0  0
   -1.9233   -0.8086   -1.4807 C   0  0  0  0  0  0  0  0  0  0  0  0
   -0.8572   -0.9440   -1.6059 H   0  0  0  0  0  0  0  0  0  0  0  0
   -2.4167   -0.0067   -0.5327 O   0  0  0  0  0  0  0  0  0  0  0  0
  1  2  3  0  0  0  0
  3  4  1  0  0  0  0
  3  8  1  0  0  0  0
  4  6  1  0  0  0  0
  5  4  1  0  0  0  0
  6 10  1  0  0  0  0
  6  7  1  0  0  0  0
  8 10  1  0  0  0  0
  9  8  1  0  0  0  0
M  RAD  4   3   3   4   2   6   2   8   2
M  END
