Coordinates from ORCA-job Furan-3-N2+-scan-d09-169-n800
 OpenBabel09191814033D

 10  9  0  0  0  0  0  0  0  0999 V2000
    9.3176    5.0942    4.4647 N   0  0  0  0  0  0  0  0  0  0  0  0
   10.2255    5.5190    4.9308 N   0  0  0  0  0  0  0  0  0  0  0  0
   -2.9458   -1.2539   -2.0250 C   0  0  0  0  0  0  0  0  0  0  0  0
   -4.0911   -0.5107   -1.9360 C   0  0  0  0  0  0  0  0  0  0  0  0
   -5.1148   -0.6978   -2.2348 H   0  0  0  0  0  0  0  0  0  0  0  0
   -3.6898    0.1691   -0.7835 C   0  0  0  0  0  0  0  0  0  0  0  0
   -4.3167    0.5196    0.0313 H   0  0  0  0  0  0  0  0  0  0  0  0
   -1.8174   -0.7452   -1.4166 C   0  0  0  0  0  0  0  0  0  0  0  0
   -0.7483   -0.8661   -1.5297 H   0  0  0  0  0  0  0  0  0  0  0  0
   -2.3332    0.0458   -0.4711 O   0  0  0  0  0  0  0  0  0  0  0  0
  1  2  3  0  0  0  0
  3  4  1  0  0  0  0
  3  8  1  0  0  0  0
  4  6  1  0  0  0  0
  5  4  1  0  0  0  0
  6 10  1  0  0  0  0
  6  7  1  0  0  0  0
  8 10  1  0  0  0  0
  9  8  1  0  0  0  0
M  RAD  4   3   3   4   2   6   2   8   2
M  END
