Coordinates from ORCA-job Furan-3-N2+-scan-d09-169-n800
 OpenBabel09191814033D

 10 10  0  0  0  0  0  0  0  0999 V2000
    1.2828    0.8094    0.1404 N   0  0  0  0  0  0  0  0  0  0  0  0
    2.4061    0.7865    0.2533 N   0  0  0  0  0  0  0  0  0  0  0  0
    0.1292    0.8141    0.0160 C   0  0  0  0  0  0  0  0  0  0  0  0
   -0.7238   -0.2416   -0.5442 C   0  0  0  0  0  0  0  0  0  0  0  0
   -0.3886   -1.1945   -0.9287 H   0  0  0  0  0  0  0  0  0  0  0  0
   -1.9791    0.2415   -0.4678 C   0  0  0  0  0  0  0  0  0  0  0  0
   -2.9500   -0.1418   -0.7433 H   0  0  0  0  0  0  0  0  0  0  0  0
   -0.7490    1.8593    0.3811 C   0  0  0  0  0  0  0  0  0  0  0  0
   -0.5667    2.8287    0.8292 H   0  0  0  0  0  0  0  0  0  0  0  0
   -1.9749    1.5123    0.0940 O   0  0  0  0  0  0  0  0  0  0  0  0
  1  2  1  0  0  0  0
  3  1  1  0  0  0  0
  3  8  2  0  0  0  0
  4  6  2  0  0  0  0
  4  3  1  0  0  0  0
  5  4  1  0  0  0  0
  6 10  1  0  0  0  0
  7  6  1  0  0  0  0
  8  9  1  0  0  0  0
 10  8  1  0  0  0  0
M  RAD  2   1   2   2   3
M  END
