Coordinates from ORCA-job Furan-3-N2+-scan-d09-169-n800
 OpenBabel09191814033D

 10  9  0  0  0  0  0  0  0  0999 V2000
    9.0616    4.9727    4.3379 N   0  0  0  0  0  0  0  0  0  0  0  0
    9.9687    5.3982    4.8049 N   0  0  0  0  0  0  0  0  0  0  0  0
   -2.8675   -1.2202   -1.9936 C   0  0  0  0  0  0  0  0  0  0  0  0
   -4.0207   -0.4884   -1.9125 C   0  0  0  0  0  0  0  0  0  0  0  0
   -5.0400   -0.6848   -2.2202 H   0  0  0  0  0  0  0  0  0  0  0  0
   -3.6356    0.1929   -0.7554 C   0  0  0  0  0  0  0  0  0  0  0  0
   -4.2727    0.5358    0.0547 H   0  0  0  0  0  0  0  0  0  0  0  0
   -1.7493   -0.7020   -1.3747 C   0  0  0  0  0  0  0  0  0  0  0  0
   -0.6781   -0.8122   -1.4791 H   0  0  0  0  0  0  0  0  0  0  0  0
   -2.2805    0.0820   -0.4319 O   0  0  0  0  0  0  0  0  0  0  0  0
  1  2  3  0  0  0  0
  3  4  1  0  0  0  0
  3  8  1  0  0  0  0
  4  6  1  0  0  0  0
  5  4  1  0  0  0  0
  6 10  1  0  0  0  0
  6  7  1  0  0  0  0
  8 10  1  0  0  0  0
  9  8  1  0  0  0  0
M  RAD  4   3   3   4   2   6   2   8   2
M  END
