Coordinates from ORCA-job Furan-3-N2+-scan-d09-169-n800
 OpenBabel09191814033D

 10  9  0  0  0  0  0  0  0  0999 V2000
    7.7065    4.3099    3.6555 N   0  0  0  0  0  0  0  0  0  0  0  0
    8.6085    4.7372    4.1308 N   0  0  0  0  0  0  0  0  0  0  0  0
   -2.4277   -1.0382   -1.8082 C   0  0  0  0  0  0  0  0  0  0  0  0
   -3.6370   -0.3984   -1.7888 C   0  0  0  0  0  0  0  0  0  0  0  0
   -4.6212   -0.6743   -2.1454 H   0  0  0  0  0  0  0  0  0  0  0  0
   -3.3643    0.3134   -0.6182 C   0  0  0  0  0  0  0  0  0  0  0  0
   -4.0658    0.6073    0.1572 H   0  0  0  0  0  0  0  0  0  0  0  0
   -1.3855   -0.4329   -1.1377 C   0  0  0  0  0  0  0  0  0  0  0  0
   -0.3051   -0.4593   -1.1880 H   0  0  0  0  0  0  0  0  0  0  0  0
   -2.0226    0.3093   -0.2272 O   0  0  0  0  0  0  0  0  0  0  0  0
  1  2  3  0  0  0  0
  3  4  1  0  0  0  0
  3  8  1  0  0  0  0
  4  6  1  0  0  0  0
  5  4  1  0  0  0  0
  6 10  1  0  0  0  0
  6  7  1  0  0  0  0
  8 10  1  0  0  0  0
  9  8  1  0  0  0  0
M  RAD  4   3   3   4   2   6   2   8   2
M  END
