Coordinates from ORCA-job Furan-3-N2+-scan-d09-169-n800
 OpenBabel09191814033D

 10  9  0  0  0  0  0  0  0  0999 V2000
    6.4462    3.6967    3.0112 N   0  0  0  0  0  0  0  0  0  0  0  0
    7.3445    4.1288    3.4892 N   0  0  0  0  0  0  0  0  0  0  0  0
   -2.0147   -0.8504   -1.6399 C   0  0  0  0  0  0  0  0  0  0  0  0
   -3.2628   -0.2916   -1.6863 C   0  0  0  0  0  0  0  0  0  0  0  0
   -4.2027   -0.6245   -2.1083 H   0  0  0  0  0  0  0  0  0  0  0  0
   -3.1113    0.4136   -0.4900 C   0  0  0  0  0  0  0  0  0  0  0  0
   -3.8773    0.6449    0.2444 H   0  0  0  0  0  0  0  0  0  0  0  0
   -1.0590   -0.1901   -0.8959 C   0  0  0  0  0  0  0  0  0  0  0  0
    0.0218   -0.1440   -0.8784 H   0  0  0  0  0  0  0  0  0  0  0  0
   -1.7988    0.4907   -0.0160 O   0  0  0  0  0  0  0  0  0  0  0  0
  1  2  3  0  0  0  0
  3  8  1  0  0  0  0
  4  3  1  0  0  0  0
  4  6  1  0  0  0  0
  5  4  1  0  0  0  0
  6 10  1  0  0  0  0
  6  7  1  0  0  0  0
  8  9  1  0  0  0  0
  8 10  1  0  0  0  0
M  RAD  4   3   3   4   2   6   2   8   2
M  END
