Coordinates from ORCA-job Furan-3-N2+-scan-d09-169-n800
 OpenBabel09191814033D

 10  9  0  0  0  0  0  0  0  0999 V2000
    5.9356    3.4425    2.7529 N   0  0  0  0  0  0  0  0  0  0  0  0
    6.8290    3.8813    3.2339 N   0  0  0  0  0  0  0  0  0  0  0  0
   -1.8490   -0.7754   -1.5662 C   0  0  0  0  0  0  0  0  0  0  0  0
   -3.1123   -0.2550   -1.6388 C   0  0  0  0  0  0  0  0  0  0  0  0
   -4.0329   -0.6167   -2.0791 H   0  0  0  0  0  0  0  0  0  0  0  0
   -3.0061    0.4553   -0.4406 C   0  0  0  0  0  0  0  0  0  0  0  0
   -3.7934    0.6645    0.2778 H   0  0  0  0  0  0  0  0  0  0  0  0
   -0.9284   -0.0866   -0.8043 C   0  0  0  0  0  0  0  0  0  0  0  0
    0.1499   -0.0081   -0.7654 H   0  0  0  0  0  0  0  0  0  0  0  0
   -1.7065    0.5721    0.0597 O   0  0  0  0  0  0  0  0  0  0  0  0
  1  2  3  0  0  0  0
  3  8  1  0  0  0  0
  4  3  1  0  0  0  0
  4  6  1  0  0  0  0
  5  4  1  0  0  0  0
  6 10  1  0  0  0  0
  6  7  1  0  0  0  0
  8  9  1  0  0  0  0
  8 10  1  0  0  0  0
M  RAD  4   3   3   4   2   6   2   8   2
M  END
