Coordinates from ORCA-job Furan-3-N2+-scan-d09-169-n800
 OpenBabel09191814033D

 10  9  0  0  0  0  0  0  0  0999 V2000
    5.0185    2.9940    2.3075 N   0  0  0  0  0  0  0  0  0  0  0  0
    5.9019    3.4582    2.7830 N   0  0  0  0  0  0  0  0  0  0  0  0
   -1.5693   -0.6493   -1.4402 C   0  0  0  0  0  0  0  0  0  0  0  0
   -2.8499   -0.1798   -1.5486 C   0  0  0  0  0  0  0  0  0  0  0  0
   -3.7429   -0.5787   -2.0129 H   0  0  0  0  0  0  0  0  0  0  0  0
   -2.8049    0.5356   -0.3496 C   0  0  0  0  0  0  0  0  0  0  0  0
   -3.6192    0.7136    0.3467 H   0  0  0  0  0  0  0  0  0  0  0  0
   -0.6980    0.0769   -0.6552 C   0  0  0  0  0  0  0  0  0  0  0  0
    0.3749    0.1986   -0.5865 H   0  0  0  0  0  0  0  0  0  0  0  0
   -1.5252    0.7050    0.1858 O   0  0  0  0  0  0  0  0  0  0  0  0
  1  2  3  0  0  0  0
  3  8  1  0  0  0  0
  4  3  1  0  0  0  0
  4  6  1  0  0  0  0
  5  4  1  0  0  0  0
  6 10  1  0  0  0  0
  6  7  1  0  0  0  0
  8  9  1  0  0  0  0
  8 10  1  0  0  0  0
M  RAD  4   3   3   4   2   6   2   8   2
M  END
