Coordinates from ORCA-job Furan-3-N2+-scan-d09-169-n800
 OpenBabel09191814033D

 10  9  0  0  0  0  0  0  0  0999 V2000
    9.7056    5.2802    4.6478 N   0  0  0  0  0  0  0  0  0  0  0  0
   10.6111    5.6955    5.1270 N   0  0  0  0  0  0  0  0  0  0  0  0
   -3.0616   -1.3047   -2.0707 C   0  0  0  0  0  0  0  0  0  0  0  0
   -4.1967   -0.5472   -1.9712 C   0  0  0  0  0  0  0  0  0  0  0  0
   -5.2261   -0.7233   -2.2566 H   0  0  0  0  0  0  0  0  0  0  0  0
   -3.7731    0.1329   -0.8269 C   0  0  0  0  0  0  0  0  0  0  0  0
   -4.3856    0.4947   -0.0062 H   0  0  0  0  0  0  0  0  0  0  0  0
   -1.9197   -0.8069   -1.4787 C   0  0  0  0  0  0  0  0  0  0  0  0
   -0.8536   -0.9418   -1.6038 H   0  0  0  0  0  0  0  0  0  0  0  0
   -2.4143   -0.0053   -0.5306 O   0  0  0  0  0  0  0  0  0  0  0  0
  1  2  3  0  0  0  0
  3  4  1  0  0  0  0
  3  8  1  0  0  0  0
  4  6  1  0  0  0  0
  5  4  1  0  0  0  0
  6 10  1  0  0  0  0
  6  7  1  0  0  0  0
  8 10  1  0  0  0  0
  9  8  1  0  0  0  0
M  RAD  4   3   3   4   2   6   2   8   2
M  END
