Coordinates from ORCA-job Furan-3-N2+-scan-d09-169-n800
 OpenBabel09191814033D

 10  9  0  0  0  0  0  0  0  0999 V2000
    9.8356    5.3427    4.7059 N   0  0  0  0  0  0  0  0  0  0  0  0
   10.7378    5.7532    5.1955 N   0  0  0  0  0  0  0  0  0  0  0  0
   -3.1006   -1.3228   -2.0850 C   0  0  0  0  0  0  0  0  0  0  0  0
   -4.2321   -0.5605   -1.9819 C   0  0  0  0  0  0  0  0  0  0  0  0
   -5.2636   -0.7333   -2.2617 H   0  0  0  0  0  0  0  0  0  0  0  0
   -3.8004    0.1212   -0.8416 C   0  0  0  0  0  0  0  0  0  0  0  0
   -4.4075    0.4876   -0.0189 H   0  0  0  0  0  0  0  0  0  0  0  0
   -1.9539   -0.8271   -1.5000 C   0  0  0  0  0  0  0  0  0  0  0  0
   -0.8889   -0.9661   -1.6303 H   0  0  0  0  0  0  0  0  0  0  0  0
   -2.4404   -0.0209   -0.5519 O   0  0  0  0  0  0  0  0  0  0  0  0
  1  2  3  0  0  0  0
  3  4  1  0  0  0  0
  3  8  1  0  0  0  0
  4  6  1  0  0  0  0
  5  4  1  0  0  0  0
  6 10  1  0  0  0  0
  6  7  1  0  0  0  0
  8 10  1  0  0  0  0
  9  8  1  0  0  0  0
M  RAD  4   3   3   4   2   6   2   8   2
M  END
