Coordinates from ORCA-job Furan-3-N2+-scan-d09-169-n800
 OpenBabel09191814033D

 10  9  0  0  0  0  0  0  0  0999 V2000
    4.9679    2.9697    2.2817 N   0  0  0  0  0  0  0  0  0  0  0  0
    5.8505    3.4345    2.7582 N   0  0  0  0  0  0  0  0  0  0  0  0
   -1.5536   -0.6420   -1.4333 C   0  0  0  0  0  0  0  0  0  0  0  0
   -2.8350   -0.1751   -1.5440 C   0  0  0  0  0  0  0  0  0  0  0  0
   -3.7262   -0.5755   -2.0103 H   0  0  0  0  0  0  0  0  0  0  0  0
   -2.7938    0.5398   -0.3445 C   0  0  0  0  0  0  0  0  0  0  0  0
   -3.6099    0.7158    0.3503 H   0  0  0  0  0  0  0  0  0  0  0  0
   -0.6855    0.0856   -0.6462 C   0  0  0  0  0  0  0  0  0  0  0  0
    0.3870    0.2096   -0.5753 H   0  0  0  0  0  0  0  0  0  0  0  0
   -1.5156    0.7116    0.1935 O   0  0  0  0  0  0  0  0  0  0  0  0
  1  2  3  0  0  0  0
  3  8  1  0  0  0  0
  4  3  1  0  0  0  0
  4  6  1  0  0  0  0
  5  4  1  0  0  0  0
  6 10  1  0  0  0  0
  6  7  1  0  0  0  0
  8  9  1  0  0  0  0
  8 10  1  0  0  0  0
M  RAD  4   3   3   4   2   6   2   8   2
M  END
