Coordinates from ORCA-job Furan-3-N2+-scan-d09-169-n800
 OpenBabel09191814033D

 10  9  0  0  0  0  0  0  0  0999 V2000
    6.9831    3.9580    3.2853 N   0  0  0  0  0  0  0  0  0  0  0  0
    7.8831    4.3874    3.7625 N   0  0  0  0  0  0  0  0  0  0  0  0
   -2.1899   -0.9302   -1.7125 C   0  0  0  0  0  0  0  0  0  0  0  0
   -3.4231   -0.3377   -1.7306 C   0  0  0  0  0  0  0  0  0  0  0  0
   -4.3825   -0.6473   -2.1251 H   0  0  0  0  0  0  0  0  0  0  0  0
   -3.2202    0.3712   -0.5441 C   0  0  0  0  0  0  0  0  0  0  0  0
   -3.9597    0.6297    0.2082 H   0  0  0  0  0  0  0  0  0  0  0  0
   -1.1964   -0.2926   -0.9991 C   0  0  0  0  0  0  0  0  0  0  0  0
   -0.1146   -0.2789   -1.0093 H   0  0  0  0  0  0  0  0  0  0  0  0
   -1.8940    0.4145   -0.1051 O   0  0  0  0  0  0  0  0  0  0  0  0
  1  2  3  0  0  0  0
  3  8  1  0  0  0  0
  4  3  1  0  0  0  0
  4  6  1  0  0  0  0
  5  4  1  0  0  0  0
  6 10  1  0  0  0  0
  6  7  1  0  0  0  0
  8 10  1  0  0  0  0
  9  8  1  0  0  0  0
M  RAD  4   3   3   4   2   6   2   8   2
M  END
