Coordinates from ORCA-job Furan-3-N2+-scan-d09-169-n800
 OpenBabel09191814033D

 10  9  0  0  0  0  0  0  0  0999 V2000
    2.5618    1.4787    0.4551 N   0  0  0  0  0  0  0  0  0  0  0  0
    3.6511    1.6533    0.5192 N   0  0  0  0  0  0  0  0  0  0  0  0
   -0.5123    0.1357    0.2176 C   0  0  0  0  0  0  0  0  0  0  0  0
   -1.2824   -0.5274   -0.6998 C   0  0  0  0  0  0  0  0  0  0  0  0
   -1.3889   -1.5749   -0.9508 H   0  0  0  0  0  0  0  0  0  0  0  0
   -2.3117    0.4155   -0.6823 C   0  0  0  0  0  0  0  0  0  0  0  0
   -3.3755    0.2399   -0.8108 H   0  0  0  0  0  0  0  0  0  0  0  0
   -0.7247    1.4912    0.3511 C   0  0  0  0  0  0  0  0  0  0  0  0
   -0.1452    2.3339    0.7002 H   0  0  0  0  0  0  0  0  0  0  0  0
   -1.9862    1.6281   -0.0692 O   0  0  0  0  0  0  0  0  0  0  0  0
  1  2  3  0  0  0  0
  3  8  1  0  0  0  0
  4  6  1  0  0  0  0
  4  3  1  0  0  0  0
  5  4  1  0  0  0  0
  6 10  1  0  0  0  0
  7  6  1  0  0  0  0
  8  9  1  0  0  0  0
 10  8  1  0  0  0  0
M  RAD  4   3   3   4   2   6   2   8   2
M  END
