Coordinates from ORCA-job Furan-3-N2+-scan-d09-169-n800
 OpenBabel09191814033D

 10  9  0  0  0  0  0  0  0  0999 V2000
    4.1030    2.5380    1.8207 N   0  0  0  0  0  0  0  0  0  0  0  0
    4.9875    2.9998    2.2965 N   0  0  0  0  0  0  0  0  0  0  0  0
   -1.2610   -0.4953   -1.3001 C   0  0  0  0  0  0  0  0  0  0  0  0
   -2.5591   -0.0989   -1.4730 C   0  0  0  0  0  0  0  0  0  0  0  0
   -3.4007   -0.5416   -1.9907 H   0  0  0  0  0  0  0  0  0  0  0  0
   -2.6213    0.5991   -0.2646 C   0  0  0  0  0  0  0  0  0  0  0  0
   -3.4812    0.7188    0.3880 H   0  0  0  0  0  0  0  0  0  0  0  0
   -0.4776    0.2684   -0.4595 C   0  0  0  0  0  0  0  0  0  0  0  0
    0.5810    0.4515   -0.3296 H   0  0  0  0  0  0  0  0  0  0  0  0
   -1.3847    0.8342    0.3423 O   0  0  0  0  0  0  0  0  0  0  0  0
  1  2  3  0  0  0  0
  3  8  1  0  0  0  0
  4  3  1  0  0  0  0
  4  6  1  0  0  0  0
  5  4  1  0  0  0  0
  6 10  1  0  0  0  0
  6  7  1  0  0  0  0
  8  9  1  0  0  0  0
  8 10  1  0  0  0  0
M  RAD  4   3   3   4   2   6   2   8   2
M  END
