Coordinates from ORCA-job Furan-3-N2+-scan-d09-169-n800
 OpenBabel09191814033D

 10  9  0  0  0  0  0  0  0  0999 V2000
    3.4827    2.2112    1.4684 N   0  0  0  0  0  0  0  0  0  0  0  0
    4.3706    2.6670    1.9431 N   0  0  0  0  0  0  0  0  0  0  0  0
   -1.0369   -0.3742   -1.1900 C   0  0  0  0  0  0  0  0  0  0  0  0
   -2.3446   -0.0462   -1.4231 C   0  0  0  0  0  0  0  0  0  0  0  0
   -3.1344   -0.5276   -1.9857 H   0  0  0  0  0  0  0  0  0  0  0  0
   -2.5037    0.6330   -0.2130 C   0  0  0  0  0  0  0  0  0  0  0  0
   -3.3995    0.6984    0.3975 H   0  0  0  0  0  0  0  0  0  0  0  0
   -0.3373    0.4220   -0.3052 C   0  0  0  0  0  0  0  0  0  0  0  0
    0.7017    0.6628   -0.1178 H   0  0  0  0  0  0  0  0  0  0  0  0
   -1.3128    0.9277    0.4559 O   0  0  0  0  0  0  0  0  0  0  0  0
  1  2  3  0  0  0  0
  3  8  1  0  0  0  0
  4  3  1  0  0  0  0
  4  6  1  0  0  0  0
  5  4  1  0  0  0  0
  6  7  1  0  0  0  0
  6 10  1  0  0  0  0
  8  9  1  0  0  0  0
  8 10  1  0  0  0  0
M  RAD  4   3   3   4   2   6   2   8   2
M  END
