Coordinates from ORCA-job Furan-3-N2+-scan-d09-169-n800
 OpenBabel09191814033D

 10  9  0  0  0  0  0  0  0  0999 V2000
    3.2067    2.0793    1.3285 N   0  0  0  0  0  0  0  0  0  0  0  0
    4.0928    2.5345    1.8069 N   0  0  0  0  0  0  0  0  0  0  0  0
   -0.9496   -0.3306   -1.1491 C   0  0  0  0  0  0  0  0  0  0  0  0
   -2.2596   -0.0227   -1.3972 C   0  0  0  0  0  0  0  0  0  0  0  0
   -3.0348   -0.5156   -1.9700 H   0  0  0  0  0  0  0  0  0  0  0  0
   -2.4437    0.6521   -0.1884 C   0  0  0  0  0  0  0  0  0  0  0  0
   -3.3476    0.7030    0.4113 H   0  0  0  0  0  0  0  0  0  0  0  0
   -0.2727    0.4760   -0.2552 C   0  0  0  0  0  0  0  0  0  0  0  0
    0.7600    0.7337   -0.0515 H   0  0  0  0  0  0  0  0  0  0  0  0
   -1.2656    0.9643    0.4948 O   0  0  0  0  0  0  0  0  0  0  0  0
  1  2  3  0  0  0  0
  3  8  1  0  0  0  0
  4  3  1  0  0  0  0
  4  6  1  0  0  0  0
  5  4  1  0  0  0  0
  6  7  1  0  0  0  0
  6 10  1  0  0  0  0
  8  9  1  0  0  0  0
  8 10  1  0  0  0  0
M  RAD  4   3   3   4   2   6   2   8   2
M  END
