Coordinates from ORCA-job Furan-3-N2+-scan-d09-169-n800
 OpenBabel09191814033D

 10  9  0  0  0  0  0  0  0  0999 V2000
    2.8440    1.8757    1.1024 N   0  0  0  0  0  0  0  0  0  0  0  0
    3.7523    2.3107    1.5563 N   0  0  0  0  0  0  0  0  0  0  0  0
   -0.8069   -0.2413   -1.0662 C   0  0  0  0  0  0  0  0  0  0  0  0
   -2.1176    0.0114   -1.3682 C   0  0  0  0  0  0  0  0  0  0  0  0
   -2.8446   -0.5088   -1.9786 H   0  0  0  0  0  0  0  0  0  0  0  0
   -2.3829    0.6641   -0.1628 C   0  0  0  0  0  0  0  0  0  0  0  0
   -3.3131    0.6705    0.3974 H   0  0  0  0  0  0  0  0  0  0  0  0
   -0.2035    0.5846   -0.1382 C   0  0  0  0  0  0  0  0  0  0  0  0
    0.8079    0.8879    0.1149 H   0  0  0  0  0  0  0  0  0  0  0  0
   -1.2497    1.0194    0.5731 O   0  0  0  0  0  0  0  0  0  0  0  0
  1  2  3  0  0  0  0
  3  8  1  0  0  0  0
  4  3  1  0  0  0  0
  4  6  1  0  0  0  0
  5  4  1  0  0  0  0
  6  7  1  0  0  0  0
  6 10  1  0  0  0  0
  8  9  1  0  0  0  0
  8 10  1  0  0  0  0
M  RAD  4   3   3   4   2   6   2   8   2
M  END
