Coordinates from ORCA-job Furan-3-N2+-scan-d09-169-n800
 OpenBabel09191814033D

 10  9  0  0  0  0  0  0  0  0999 V2000
    6.9084    3.9216    3.2470 N   0  0  0  0  0  0  0  0  0  0  0  0
    7.8081    4.3514    3.7243 N   0  0  0  0  0  0  0  0  0  0  0  0
   -2.1653   -0.9189   -1.7025 C   0  0  0  0  0  0  0  0  0  0  0  0
   -3.4008   -0.3312   -1.7245 C   0  0  0  0  0  0  0  0  0  0  0  0
   -4.3575   -0.6442   -2.1231 H   0  0  0  0  0  0  0  0  0  0  0  0
   -3.2052    0.3770   -0.5365 C   0  0  0  0  0  0  0  0  0  0  0  0
   -3.9485    0.6317    0.2133 H   0  0  0  0  0  0  0  0  0  0  0  0
   -1.1771   -0.2782   -0.9846 C   0  0  0  0  0  0  0  0  0  0  0  0
   -0.0954   -0.2602   -0.9907 H   0  0  0  0  0  0  0  0  0  0  0  0
   -1.8808    0.4250   -0.0925 O   0  0  0  0  0  0  0  0  0  0  0  0
  1  2  3  0  0  0  0
  3  8  1  0  0  0  0
  4  3  1  0  0  0  0
  4  6  1  0  0  0  0
  5  4  1  0  0  0  0
  6 10  1  0  0  0  0
  6  7  1  0  0  0  0
  8 10  1  0  0  0  0
  9  8  1  0  0  0  0
M  RAD  4   3   3   4   2   6   2   8   2
M  END
