Coordinates from ORCA-job Furan-3-N2+-scan-d09-169-n800
 OpenBabel09191814033D

 10  9  0  0  0  0  0  0  0  0999 V2000
    5.5858    3.2617    2.5802 N   0  0  0  0  0  0  0  0  0  0  0  0
    6.4714    3.7170    3.0603 N   0  0  0  0  0  0  0  0  0  0  0  0
   -1.7377   -0.7270   -1.5149 C   0  0  0  0  0  0  0  0  0  0  0  0
   -3.0103   -0.2320   -1.6029 C   0  0  0  0  0  0  0  0  0  0  0  0
   -3.9188   -0.6139   -2.0512 H   0  0  0  0  0  0  0  0  0  0  0  0
   -2.9313    0.4857   -0.4070 C   0  0  0  0  0  0  0  0  0  0  0  0
   -3.7301    0.6816    0.3022 H   0  0  0  0  0  0  0  0  0  0  0  0
   -0.8398   -0.0155   -0.7464 C   0  0  0  0  0  0  0  0  0  0  0  0
    0.2363    0.0852   -0.6963 H   0  0  0  0  0  0  0  0  0  0  0  0
   -1.6395    0.6312    0.1061 O   0  0  0  0  0  0  0  0  0  0  0  0
  1  2  3  0  0  0  0
  3  8  1  0  0  0  0
  4  3  1  0  0  0  0
  4  6  1  0  0  0  0
  5  4  1  0  0  0  0
  6 10  1  0  0  0  0
  6  7  1  0  0  0  0
  8  9  1  0  0  0  0
  8 10  1  0  0  0  0
M  RAD  4   3   3   4   2   6   2   8   2
M  END
