Coordinates from ORCA-job Furan-3-N2+-scan-d09-169-n800
 OpenBabel09191814033D

 10  9  0  0  0  0  0  0  0  0999 V2000
    5.9852    3.4676    2.7778 N   0  0  0  0  0  0  0  0  0  0  0  0
    6.8793    3.9054    3.2585 N   0  0  0  0  0  0  0  0  0  0  0  0
   -1.8650   -0.7830   -1.5737 C   0  0  0  0  0  0  0  0  0  0  0  0
   -3.1267   -0.2582   -1.6437 C   0  0  0  0  0  0  0  0  0  0  0  0
   -4.0493   -0.6164   -2.0827 H   0  0  0  0  0  0  0  0  0  0  0  0
   -3.0163    0.4513   -0.4454 C   0  0  0  0  0  0  0  0  0  0  0  0
   -3.8017    0.6620    0.2746 H   0  0  0  0  0  0  0  0  0  0  0  0
   -0.9414   -0.0969   -0.8128 C   0  0  0  0  0  0  0  0  0  0  0  0
    0.1373   -0.0217   -0.7753 H   0  0  0  0  0  0  0  0  0  0  0  0
   -1.7154    0.5639    0.0527 O   0  0  0  0  0  0  0  0  0  0  0  0
  1  2  3  0  0  0  0
  3  8  1  0  0  0  0
  4  3  1  0  0  0  0
  4  6  1  0  0  0  0
  5  4  1  0  0  0  0
  6 10  1  0  0  0  0
  6  7  1  0  0  0  0
  8  9  1  0  0  0  0
  8 10  1  0  0  0  0
M  RAD  4   3   3   4   2   6   2   8   2
M  END
