Coordinates from ORCA-job Furan-3-N2+-scan-d09-169-n800
 OpenBabel09191814033D

 10  9  0  0  0  0  0  0  0  0999 V2000
    2.5647    1.4248    0.4340 N   0  0  0  0  0  0  0  0  0  0  0  0
    3.6550    1.5946    0.4930 N   0  0  0  0  0  0  0  0  0  0  0  0
   -0.5073    0.1742    0.2297 C   0  0  0  0  0  0  0  0  0  0  0  0
   -1.2527   -0.5081   -0.6938 C   0  0  0  0  0  0  0  0  0  0  0  0
   -1.3297   -1.5574   -0.9475 H   0  0  0  0  0  0  0  0  0  0  0  0
   -2.3054    0.4086   -0.6842 C   0  0  0  0  0  0  0  0  0  0  0  0
   -3.3629    0.2070   -0.8256 H   0  0  0  0  0  0  0  0  0  0  0  0
   -0.7547    1.5227    0.3656 C   0  0  0  0  0  0  0  0  0  0  0  0
   -0.2045    2.3809    0.7242 H   0  0  0  0  0  0  0  0  0  0  0  0
   -2.0165    1.6268   -0.0653 O   0  0  0  0  0  0  0  0  0  0  0  0
  1  2  3  0  0  0  0
  3  8  1  0  0  0  0
  4  6  1  0  0  0  0
  4  3  1  0  0  0  0
  5  4  1  0  0  0  0
  6 10  1  0  0  0  0
  7  6  1  0  0  0  0
  8  9  1  0  0  0  0
 10  8  1  0  0  0  0
M  RAD  4   3   3   4   2   6   2   8   2
M  END
