Coordinates from ORCA-job Furan-3-N2+-scan-d09-169-n800
 OpenBabel09191814033D

 10  9  0  0  0  0  0  0  0  0999 V2000
   10.2509    5.5362    4.9064 N   0  0  0  0  0  0  0  0  0  0  0  0
   11.1510    5.9453    5.4010 N   0  0  0  0  0  0  0  0  0  0  0  0
   -3.2229   -1.3774   -2.1321 C   0  0  0  0  0  0  0  0  0  0  0  0
   -4.3450   -0.6026   -2.0188 C   0  0  0  0  0  0  0  0  0  0  0  0
   -5.3820   -0.7664   -2.2833 H   0  0  0  0  0  0  0  0  0  0  0  0
   -3.8905    0.0822   -0.8891 C   0  0  0  0  0  0  0  0  0  0  0  0
   -4.4824    0.4605   -0.0607 H   0  0  0  0  0  0  0  0  0  0  0  0
   -2.0633   -0.8901   -1.5661 C   0  0  0  0  0  0  0  0  0  0  0  0
   -1.0017   -1.0412   -1.7100 H   0  0  0  0  0  0  0  0  0  0  0  0
   -2.5283   -0.0725   -0.6170 O   0  0  0  0  0  0  0  0  0  0  0  0
  1  2  3  0  0  0  0
  3  4  1  0  0  0  0
  3  8  1  0  0  0  0
  4  6  1  0  0  0  0
  5  4  1  0  0  0  0
  6 10  1  0  0  0  0
  6  7  1  0  0  0  0
  8 10  1  0  0  0  0
  9  8  1  0  0  0  0
M  RAD  4   3   3   4   2   6   2   8   2
M  END
