Coordinates from ORCA-job Furan-3-N2+-scan-d09-169-n800
 OpenBabel09191814033D

 10  9  0  0  0  0  0  0  0  0999 V2000
    3.4596    2.1987    1.4552 N   0  0  0  0  0  0  0  0  0  0  0  0
    4.3480    2.6539    1.9297 N   0  0  0  0  0  0  0  0  0  0  0  0
   -1.0283   -0.3694   -1.1857 C   0  0  0  0  0  0  0  0  0  0  0  0
   -2.3364   -0.0445   -1.4211 C   0  0  0  0  0  0  0  0  0  0  0  0
   -3.1239   -0.5277   -1.9854 H   0  0  0  0  0  0  0  0  0  0  0  0
   -2.4994    0.6341   -0.2112 C   0  0  0  0  0  0  0  0  0  0  0  0
   -3.3966    0.6973    0.3976 H   0  0  0  0  0  0  0  0  0  0  0  0
   -0.3323    0.4284   -0.2993 C   0  0  0  0  0  0  0  0  0  0  0  0
    0.7057    0.6717   -0.1096 H   0  0  0  0  0  0  0  0  0  0  0  0
   -1.3105    0.9315    0.4600 O   0  0  0  0  0  0  0  0  0  0  0  0
  1  2  3  0  0  0  0
  3  8  1  0  0  0  0
  4  3  1  0  0  0  0
  4  6  1  0  0  0  0
  5  4  1  0  0  0  0
  6  7  1  0  0  0  0
  6 10  1  0  0  0  0
  8  9  1  0  0  0  0
  8 10  1  0  0  0  0
M  RAD  4   3   3   4   2   6   2   8   2
M  END
