Coordinates from ORCA-job Furan-3-N2+-scan-d09-169-n800
 OpenBabel09191814033D

 10  9  0  0  0  0  0  0  0  0999 V2000
    6.1223    3.5362    2.8471 N   0  0  0  0  0  0  0  0  0  0  0  0
    7.0181    3.9717    3.3265 N   0  0  0  0  0  0  0  0  0  0  0  0
   -1.9093   -0.8028   -1.5937 C   0  0  0  0  0  0  0  0  0  0  0  0
   -3.1670   -0.2676   -1.6569 C   0  0  0  0  0  0  0  0  0  0  0  0
   -4.0946   -0.6180   -2.0915 H   0  0  0  0  0  0  0  0  0  0  0  0
   -3.0449    0.4399   -0.4585 C   0  0  0  0  0  0  0  0  0  0  0  0
   -3.8249    0.6564    0.2655 H   0  0  0  0  0  0  0  0  0  0  0  0
   -0.9763   -0.1248   -0.8368 C   0  0  0  0  0  0  0  0  0  0  0  0
    0.1031   -0.0584   -0.8047 H   0  0  0  0  0  0  0  0  0  0  0  0
   -1.7406    0.5415    0.0331 O   0  0  0  0  0  0  0  0  0  0  0  0
  1  2  3  0  0  0  0
  3  8  1  0  0  0  0
  4  3  1  0  0  0  0
  4  6  1  0  0  0  0
  5  4  1  0  0  0  0
  6 10  1  0  0  0  0
  6  7  1  0  0  0  0
  8  9  1  0  0  0  0
  8 10  1  0  0  0  0
M  RAD  4   3   3   4   2   6   2   8   2
M  END
