Coordinates from ORCA-job Furan-3-N2+-scan-d09-169-n800
 OpenBabel09191814033D

 10  9  0  0  0  0  0  0  0  0999 V2000
    7.8792    4.3965    3.7431 N   0  0  0  0  0  0  0  0  0  0  0  0
    8.7813    4.8246    4.2175 N   0  0  0  0  0  0  0  0  0  0  0  0
   -2.4867   -1.0614   -1.8347 C   0  0  0  0  0  0  0  0  0  0  0  0
   -3.6870   -0.4054   -1.8052 C   0  0  0  0  0  0  0  0  0  0  0  0
   -4.6773   -0.6667   -2.1562 H   0  0  0  0  0  0  0  0  0  0  0  0
   -3.3970    0.2986   -0.6339 C   0  0  0  0  0  0  0  0  0  0  0  0
   -4.0893    0.5992    0.1471 H   0  0  0  0  0  0  0  0  0  0  0  0
   -1.4319   -0.4726   -1.1691 C   0  0  0  0  0  0  0  0  0  0  0  0
   -0.3524   -0.5136   -1.2266 H   0  0  0  0  0  0  0  0  0  0  0  0
   -2.0529    0.2749   -0.2518 O   0  0  0  0  0  0  0  0  0  0  0  0
  1  2  3  0  0  0  0
  3  4  1  0  0  0  0
  3  8  1  0  0  0  0
  4  6  1  0  0  0  0
  5  4  1  0  0  0  0
  6 10  1  0  0  0  0
  6  7  1  0  0  0  0
  8 10  1  0  0  0  0
  9  8  1  0  0  0  0
M  RAD  4   3   3   4   2   6   2   8   2
M  END
