Coordinates from ORCA-job Furan-3-N2+-scan-d09-169-n800
 OpenBabel09191814033D

 10  9  0  0  0  0  0  0  0  0999 V2000
    2.5385    1.1259    0.3314 N   0  0  0  0  0  0  0  0  0  0  0  0
    3.6354    1.2480    0.3865 N   0  0  0  0  0  0  0  0  0  0  0  0
   -0.4581    0.4062    0.2547 C   0  0  0  0  0  0  0  0  0  0  0  0
   -1.0874   -0.3782   -0.6755 C   0  0  0  0  0  0  0  0  0  0  0  0
   -0.9948   -1.4225   -0.9433 H   0  0  0  0  0  0  0  0  0  0  0  0
   -2.2667    0.3651   -0.6692 C   0  0  0  0  0  0  0  0  0  0  0  0
   -3.2790    0.0126   -0.8395 H   0  0  0  0  0  0  0  0  0  0  0  0
   -0.9130    1.6929    0.4158 C   0  0  0  0  0  0  0  0  0  0  0  0
   -0.5156    2.6225    0.7975 H   0  0  0  0  0  0  0  0  0  0  0  0
   -2.1735    1.6014   -0.0283 O   0  0  0  0  0  0  0  0  0  0  0  0
  1  2  3  0  0  0  0
  3  8  1  0  0  0  0
  4  6  1  0  0  0  0
  4  3  1  0  0  0  0
  5  4  1  0  0  0  0
  6 10  1  0  0  0  0
  7  6  1  0  0  0  0
  8  9  1  0  0  0  0
 10  8  1  0  0  0  0
M  RAD  4   3   3   4   2   6   2   8   2
M  END
