Coordinates from ORCA-job Furan-3-N2+-scan-d09-169-n800
 OpenBabel09191814033D

 10  9  0  0  0  0  0  0  0  0999 V2000
    4.4817    2.7355    2.0329 N   0  0  0  0  0  0  0  0  0  0  0  0
    5.3669    3.1979    2.5067 N   0  0  0  0  0  0  0  0  0  0  0  0
   -1.3961   -0.5652   -1.3634 C   0  0  0  0  0  0  0  0  0  0  0  0
   -2.6860   -0.1309   -1.5031 C   0  0  0  0  0  0  0  0  0  0  0  0
   -3.5545   -0.5508   -1.9944 H   0  0  0  0  0  0  0  0  0  0  0  0
   -2.6936    0.5759   -0.2982 C   0  0  0  0  0  0  0  0  0  0  0  0
   -3.5311    0.7253    0.3771 H   0  0  0  0  0  0  0  0  0  0  0  0
   -0.5671    0.1791   -0.5497 C   0  0  0  0  0  0  0  0  0  0  0  0
    0.4997    0.3305   -0.4507 H   0  0  0  0  0  0  0  0  0  0  0  0
   -1.4341    0.7768    0.2729 O   0  0  0  0  0  0  0  0  0  0  0  0
  1  2  3  0  0  0  0
  3  8  1  0  0  0  0
  4  3  1  0  0  0  0
  4  6  1  0  0  0  0
  5  4  1  0  0  0  0
  6 10  1  0  0  0  0
  6  7  1  0  0  0  0
  8  9  1  0  0  0  0
  8 10  1  0  0  0  0
M  RAD  4   3   3   4   2   6   2   8   2
M  END
