Coordinates from ORCA-job Furan-3-N2+-scan-d09-169-n800
 OpenBabel09191814033D

 10  9  0  0  0  0  0  0  0  0999 V2000
    7.6206    4.2666    3.6117 N   0  0  0  0  0  0  0  0  0  0  0  0
    8.5226    4.6934    4.0874 N   0  0  0  0  0  0  0  0  0  0  0  0
   -2.3979   -1.0260   -1.7951 C   0  0  0  0  0  0  0  0  0  0  0  0
   -3.6119   -0.3950   -1.7808 C   0  0  0  0  0  0  0  0  0  0  0  0
   -4.5929   -0.6785   -2.1404 H   0  0  0  0  0  0  0  0  0  0  0  0
   -3.3484    0.3205   -0.6104 C   0  0  0  0  0  0  0  0  0  0  0  0
   -4.0545    0.6107    0.1622 H   0  0  0  0  0  0  0  0  0  0  0  0
   -1.3623   -0.4120   -1.1221 C   0  0  0  0  0  0  0  0  0  0  0  0
   -0.2815   -0.4326   -1.1674 H   0  0  0  0  0  0  0  0  0  0  0  0
   -2.0079    0.3268   -0.2149 O   0  0  0  0  0  0  0  0  0  0  0  0
  1  2  3  0  0  0  0
  3  4  1  0  0  0  0
  3  8  1  0  0  0  0
  4  6  1  0  0  0  0
  5  4  1  0  0  0  0
  6 10  1  0  0  0  0
  6  7  1  0  0  0  0
  8 10  1  0  0  0  0
  9  8  1  0  0  0  0
M  RAD  4   3   3   4   2   6   2   8   2
M  END
