Coordinates from ORCA-job Furan-3-N2+-scan-d09-169-n800
 OpenBabel09191814033D

 10 10  0  0  0  0  0  0  0  0999 V2000
    1.6760    0.8214    0.1885 N   0  0  0  0  0  0  0  0  0  0  0  0
    2.7748    0.8105    0.3041 N   0  0  0  0  0  0  0  0  0  0  0  0
   -0.0739    0.8076   -0.0093 C   0  0  0  0  0  0  0  0  0  0  0  0
   -0.8017   -0.2659   -0.5633 C   0  0  0  0  0  0  0  0  0  0  0  0
   -0.4765   -1.2195   -0.9490 H   0  0  0  0  0  0  0  0  0  0  0  0
   -2.0646    0.2465   -0.4751 C   0  0  0  0  0  0  0  0  0  0  0  0
   -3.0298   -0.1484   -0.7552 H   0  0  0  0  0  0  0  0  0  0  0  0
   -0.8156    1.8769    0.3818 C   0  0  0  0  0  0  0  0  0  0  0  0
   -0.6323    2.8416    0.8281 H   0  0  0  0  0  0  0  0  0  0  0  0
   -2.0706    1.5033    0.0794 O   0  0  0  0  0  0  0  0  0  0  0  0
  1  2  1  0  0  0  0
  3  1  1  0  0  0  0
  3  8  2  0  0  0  0
  4  6  2  0  0  0  0
  4  3  1  0  0  0  0
  5  4  1  0  0  0  0
  6 10  1  0  0  0  0
  7  6  1  0  0  0  0
  8  9  1  0  0  0  0
 10  8  1  0  0  0  0
M  RAD  2   1   2   2   3
M  END
