Coordinates from ORCA-job Furan-3-N2+-scan-d09-169-n800
 OpenBabel09191814033D

 10  9  0  0  0  0  0  0  0  0999 V2000
    7.3076    4.1155    3.4516 N   0  0  0  0  0  0  0  0  0  0  0  0
    8.2085    4.5436    3.9281 N   0  0  0  0  0  0  0  0  0  0  0  0
   -2.2962   -0.9792   -1.7551 C   0  0  0  0  0  0  0  0  0  0  0  0
   -3.5195   -0.3664   -1.7562 C   0  0  0  0  0  0  0  0  0  0  0  0
   -4.4904   -0.6622   -2.1331 H   0  0  0  0  0  0  0  0  0  0  0  0
   -3.2853    0.3456   -0.5775 C   0  0  0  0  0  0  0  0  0  0  0  0
   -4.0078    0.6205    0.1854 H   0  0  0  0  0  0  0  0  0  0  0  0
   -1.2806   -0.3542   -1.0620 C   0  0  0  0  0  0  0  0  0  0  0  0
   -0.1991   -0.3585   -1.0902 H   0  0  0  0  0  0  0  0  0  0  0  0
   -1.9514    0.3693   -0.1608 O   0  0  0  0  0  0  0  0  0  0  0  0
  1  2  3  0  0  0  0
  3  8  1  0  0  0  0
  4  3  1  0  0  0  0
  4  6  1  0  0  0  0
  5  4  1  0  0  0  0
  6 10  1  0  0  0  0
  6  7  1  0  0  0  0
  8 10  1  0  0  0  0
  9  8  1  0  0  0  0
M  RAD  4   3   3   4   2   6   2   8   2
M  END
