Coordinates from ORCA-job Furan-3-N2+-scan-d09-169-n800
 OpenBabel09191814033D

 10  9  0  0  0  0  0  0  0  0999 V2000
    5.4726    3.2016    2.5266 N   0  0  0  0  0  0  0  0  0  0  0  0
    6.3547    3.6668    3.0034 N   0  0  0  0  0  0  0  0  0  0  0  0
   -1.7029   -0.7109   -1.4985 C   0  0  0  0  0  0  0  0  0  0  0  0
   -2.9782   -0.2238   -1.5911 C   0  0  0  0  0  0  0  0  0  0  0  0
   -3.8831   -0.6119   -2.0412 H   0  0  0  0  0  0  0  0  0  0  0  0
   -2.9063    0.4959   -0.3960 C   0  0  0  0  0  0  0  0  0  0  0  0
   -3.7081    0.6884    0.3108 H   0  0  0  0  0  0  0  0  0  0  0  0
   -0.8106    0.0060   -0.7289 C   0  0  0  0  0  0  0  0  0  0  0  0
    0.2647    0.1127   -0.6760 H   0  0  0  0  0  0  0  0  0  0  0  0
   -1.6169    0.6493    0.1208 O   0  0  0  0  0  0  0  0  0  0  0  0
  1  2  3  0  0  0  0
  3  8  1  0  0  0  0
  4  3  1  0  0  0  0
  4  6  1  0  0  0  0
  5  4  1  0  0  0  0
  6 10  1  0  0  0  0
  6  7  1  0  0  0  0
  8  9  1  0  0  0  0
  8 10  1  0  0  0  0
M  RAD  4   3   3   4   2   6   2   8   2
M  END
