Coordinates from ORCA-job Furan-3-N2+-scan-d09-169-n800
 OpenBabel09191814033D

 10  9  0  0  0  0  0  0  0  0999 V2000
    6.4341    3.6905    3.0052 N   0  0  0  0  0  0  0  0  0  0  0  0
    7.3323    4.1227    3.4831 N   0  0  0  0  0  0  0  0  0  0  0  0
   -2.0106   -0.8480   -1.6378 C   0  0  0  0  0  0  0  0  0  0  0  0
   -3.2594   -0.2909   -1.6852 C   0  0  0  0  0  0  0  0  0  0  0  0
   -4.1986   -0.6250   -2.1076 H   0  0  0  0  0  0  0  0  0  0  0  0
   -3.1090    0.4145   -0.4889 C   0  0  0  0  0  0  0  0  0  0  0  0
   -3.8756    0.6456    0.2450 H   0  0  0  0  0  0  0  0  0  0  0  0
   -1.0556   -0.1874   -0.8936 C   0  0  0  0  0  0  0  0  0  0  0  0
    0.0252   -0.1406   -0.8760 H   0  0  0  0  0  0  0  0  0  0  0  0
   -1.7969    0.4926   -0.0140 O   0  0  0  0  0  0  0  0  0  0  0  0
  1  2  3  0  0  0  0
  3  8  1  0  0  0  0
  4  3  1  0  0  0  0
  4  6  1  0  0  0  0
  5  4  1  0  0  0  0
  6 10  1  0  0  0  0
  6  7  1  0  0  0  0
  8  9  1  0  0  0  0
  8 10  1  0  0  0  0
M  RAD  4   3   3   4   2   6   2   8   2
M  END
