Coordinates from ORCA-job Furan-3-N2+-scan-d09-169-n800
 OpenBabel09191814033D

 10  9  0  0  0  0  0  0  0  0999 V2000
    4.5794    2.7838    2.0844 N   0  0  0  0  0  0  0  0  0  0  0  0
    5.4637    3.2470    2.5591 N   0  0  0  0  0  0  0  0  0  0  0  0
   -1.4292   -0.5818   -1.3783 C   0  0  0  0  0  0  0  0  0  0  0  0
   -2.7171   -0.1395   -1.5109 C   0  0  0  0  0  0  0  0  0  0  0  0
   -3.5913   -0.5546   -1.9963 H   0  0  0  0  0  0  0  0  0  0  0  0
   -2.7129    0.5693   -0.3071 C   0  0  0  0  0  0  0  0  0  0  0  0
   -3.5453    0.7252    0.3729 H   0  0  0  0  0  0  0  0  0  0  0  0
   -0.5906    0.1584   -0.5709 C   0  0  0  0  0  0  0  0  0  0  0  0
    0.4777    0.3031   -0.4787 H   0  0  0  0  0  0  0  0  0  0  0  0
   -1.4487    0.7631    0.2560 O   0  0  0  0  0  0  0  0  0  0  0  0
  1  2  3  0  0  0  0
  3  8  1  0  0  0  0
  4  3  1  0  0  0  0
  4  6  1  0  0  0  0
  5  4  1  0  0  0  0
  6 10  1  0  0  0  0
  6  7  1  0  0  0  0
  8  9  1  0  0  0  0
  8 10  1  0  0  0  0
M  RAD  4   3   3   4   2   6   2   8   2
M  END
