Coordinates from ORCA-job Furan-3-N2+-scan-d09-169-n800
 OpenBabel09191814033D

 10  9  0  0  0  0  0  0  0  0999 V2000
    7.1078    4.0186    3.3492 N   0  0  0  0  0  0  0  0  0  0  0  0
    8.0082    4.4475    3.8261 N   0  0  0  0  0  0  0  0  0  0  0  0
   -2.2308   -0.9491   -1.7290 C   0  0  0  0  0  0  0  0  0  0  0  0
   -3.4602   -0.3486   -1.7405 C   0  0  0  0  0  0  0  0  0  0  0  0
   -4.4241   -0.6528   -2.1283 H   0  0  0  0  0  0  0  0  0  0  0  0
   -3.2452    0.3614   -0.5569 C   0  0  0  0  0  0  0  0  0  0  0  0
   -3.9782    0.6262    0.1996 H   0  0  0  0  0  0  0  0  0  0  0  0
   -1.2287   -0.3164   -1.0233 C   0  0  0  0  0  0  0  0  0  0  0  0
   -0.1469   -0.3098   -1.0404 H   0  0  0  0  0  0  0  0  0  0  0  0
   -1.9160    0.3970   -0.1264 O   0  0  0  0  0  0  0  0  0  0  0  0
  1  2  3  0  0  0  0
  3  8  1  0  0  0  0
  4  3  1  0  0  0  0
  4  6  1  0  0  0  0
  5  4  1  0  0  0  0
  6 10  1  0  0  0  0
  6  7  1  0  0  0  0
  8 10  1  0  0  0  0
  9  8  1  0  0  0  0
M  RAD  4   3   3   4   2   6   2   8   2
M  END
