Coordinates from ORCA-job Furan-3-N2+-scan-d09-169-n800
 OpenBabel09191814033D

 10  9  0  0  0  0  0  0  0  0999 V2000
    6.4711    3.7090    3.0239 N   0  0  0  0  0  0  0  0  0  0  0  0
    7.3695    4.1408    3.5018 N   0  0  0  0  0  0  0  0  0  0  0  0
   -2.0229   -0.8541   -1.6434 C   0  0  0  0  0  0  0  0  0  0  0  0
   -3.2702   -0.2936   -1.6885 C   0  0  0  0  0  0  0  0  0  0  0  0
   -4.2110   -0.6251   -2.1094 H   0  0  0  0  0  0  0  0  0  0  0  0
   -3.1163    0.4116   -0.4925 C   0  0  0  0  0  0  0  0  0  0  0  0
   -3.8812    0.6441    0.2428 H   0  0  0  0  0  0  0  0  0  0  0  0
   -1.0654   -0.1950   -0.9005 C   0  0  0  0  0  0  0  0  0  0  0  0
    0.0155   -0.1505   -0.8843 H   0  0  0  0  0  0  0  0  0  0  0  0
   -1.8032    0.4869   -0.0199 O   0  0  0  0  0  0  0  0  0  0  0  0
  1  2  3  0  0  0  0
  3  8  1  0  0  0  0
  4  3  1  0  0  0  0
  4  6  1  0  0  0  0
  5  4  1  0  0  0  0
  6 10  1  0  0  0  0
  6  7  1  0  0  0  0
  8  9  1  0  0  0  0
  8 10  1  0  0  0  0
M  RAD  4   3   3   4   2   6   2   8   2
M  END
