Coordinates from ORCA-job Furan-3-N2+-scan-d09-169-n800
 OpenBabel09191814033D

 10  9  0  0  0  0  0  0  0  0999 V2000
    3.7416    2.3464    1.6144 N   0  0  0  0  0  0  0  0  0  0  0  0
    4.6281    2.8049    2.0894 N   0  0  0  0  0  0  0  0  0  0  0  0
   -1.1290   -0.4242   -1.2358 C   0  0  0  0  0  0  0  0  0  0  0  0
   -2.4337   -0.0686   -1.4445 C   0  0  0  0  0  0  0  0  0  0  0  0
   -3.2449   -0.5346   -1.9894 H   0  0  0  0  0  0  0  0  0  0  0  0
   -2.5538    0.6188   -0.2344 C   0  0  0  0  0  0  0  0  0  0  0  0
   -3.4358    0.7062    0.3933 H   0  0  0  0  0  0  0  0  0  0  0  0
   -0.3953    0.3591   -0.3682 C   0  0  0  0  0  0  0  0  0  0  0  0
    0.6524    0.5764   -0.2045 H   0  0  0  0  0  0  0  0  0  0  0  0
   -1.3437    0.8896    0.4098 O   0  0  0  0  0  0  0  0  0  0  0  0
  1  2  3  0  0  0  0
  3  8  1  0  0  0  0
  4  3  1  0  0  0  0
  4  6  1  0  0  0  0
  5  4  1  0  0  0  0
  6  7  1  0  0  0  0
  6 10  1  0  0  0  0
  8  9  1  0  0  0  0
  8 10  1  0  0  0  0
M  RAD  4   3   3   4   2   6   2   8   2
M  END
