Coordinates from ORCA-job Furan-3-N2+-scan-d09-169-n800
 OpenBabel09191814033D

 10  9  0  0  0  0  0  0  0  0999 V2000
    5.5484    3.2413    2.5622 N   0  0  0  0  0  0  0  0  0  0  0  0
    6.4326    3.7003    3.0414 N   0  0  0  0  0  0  0  0  0  0  0  0
   -1.7259   -0.7218   -1.5094 C   0  0  0  0  0  0  0  0  0  0  0  0
   -2.9995   -0.2296   -1.5989 C   0  0  0  0  0  0  0  0  0  0  0  0
   -3.9068   -0.6136   -2.0478 H   0  0  0  0  0  0  0  0  0  0  0  0
   -2.9231    0.4891   -0.4034 C   0  0  0  0  0  0  0  0  0  0  0  0
   -3.7230    0.6837    0.3050 H   0  0  0  0  0  0  0  0  0  0  0  0
   -0.8302   -0.0080   -0.7405 C   0  0  0  0  0  0  0  0  0  0  0  0
    0.2456    0.0950   -0.6894 H   0  0  0  0  0  0  0  0  0  0  0  0
   -1.6321    0.6376    0.1109 O   0  0  0  0  0  0  0  0  0  0  0  0
  1  2  3  0  0  0  0
  3  8  1  0  0  0  0
  4  3  1  0  0  0  0
  4  6  1  0  0  0  0
  5  4  1  0  0  0  0
  6 10  1  0  0  0  0
  6  7  1  0  0  0  0
  8  9  1  0  0  0  0
  8 10  1  0  0  0  0
M  RAD  4   3   3   4   2   6   2   8   2
M  END
