Coordinates from ORCA-job Furan-3-N2+-scan-d09-169-n800
 OpenBabel09191814033D

 10  9  0  0  0  0  0  0  0  0999 V2000
    2.8672    1.8948    1.1254 N   0  0  0  0  0  0  0  0  0  0  0  0
    3.7679    2.3358    1.5889 N   0  0  0  0  0  0  0  0  0  0  0  0
   -0.8222   -0.2544   -1.0783 C   0  0  0  0  0  0  0  0  0  0  0  0
   -2.1334    0.0084   -1.3689 C   0  0  0  0  0  0  0  0  0  0  0  0
   -2.8701   -0.5074   -1.9715 H   0  0  0  0  0  0  0  0  0  0  0  0
   -2.3827    0.6661   -0.1628 C   0  0  0  0  0  0  0  0  0  0  0  0
   -3.3077    0.6809    0.4060 H   0  0  0  0  0  0  0  0  0  0  0  0
   -0.2041    0.5696   -0.1576 C   0  0  0  0  0  0  0  0  0  0  0  0
    0.8112    0.8655    0.0874 H   0  0  0  0  0  0  0  0  0  0  0  0
   -1.2402    1.0148    0.5615 O   0  0  0  0  0  0  0  0  0  0  0  0
  1  2  3  0  0  0  0
  3  8  1  0  0  0  0
  4  3  1  0  0  0  0
  4  6  1  0  0  0  0
  5  4  1  0  0  0  0
  6  7  1  0  0  0  0
  6 10  1  0  0  0  0
  8  9  1  0  0  0  0
  8 10  1  0  0  0  0
M  RAD  4   3   3   4   2   6   2   8   2
M  END
