Coordinates from ORCA-job Furan-3-N2+-scan-d09-169-n800
 OpenBabel09191814033D

 10  9  0  0  0  0  0  0  0  0999 V2000
    9.5623    5.2112    4.5820 N   0  0  0  0  0  0  0  0  0  0  0  0
   10.4697    5.6318    5.0530 N   0  0  0  0  0  0  0  0  0  0  0  0
   -3.0194   -1.2862   -2.0546 C   0  0  0  0  0  0  0  0  0  0  0  0
   -4.1575   -0.5327   -1.9588 C   0  0  0  0  0  0  0  0  0  0  0  0
   -5.1849   -0.7116   -2.2496 H   0  0  0  0  0  0  0  0  0  0  0  0
   -3.7422    0.1460   -0.8105 C   0  0  0  0  0  0  0  0  0  0  0  0
   -4.3603    0.5030    0.0082 H   0  0  0  0  0  0  0  0  0  0  0  0
   -1.8824   -0.7847   -1.4558 C   0  0  0  0  0  0  0  0  0  0  0  0
   -0.8151   -0.9152   -1.5757 H   0  0  0  0  0  0  0  0  0  0  0  0
   -2.3842    0.0125   -0.5082 O   0  0  0  0  0  0  0  0  0  0  0  0
  1  2  3  0  0  0  0
  3  4  1  0  0  0  0
  3  8  1  0  0  0  0
  4  6  1  0  0  0  0
  5  4  1  0  0  0  0
  6 10  1  0  0  0  0
  6  7  1  0  0  0  0
  8 10  1  0  0  0  0
  9  8  1  0  0  0  0
M  RAD  4   3   3   4   2   6   2   8   2
M  END
