Coordinates from ORCA-job Furan-3-N2+-scan-d09-169-n800
 OpenBabel09191814033D

 10  9  0  0  0  0  0  0  0  0999 V2000
    4.0797    2.5256    1.8074 N   0  0  0  0  0  0  0  0  0  0  0  0
    4.9641    2.9873    2.2832 N   0  0  0  0  0  0  0  0  0  0  0  0
   -1.2525   -0.4908   -1.2960 C   0  0  0  0  0  0  0  0  0  0  0  0
   -2.5511   -0.0970   -1.4712 C   0  0  0  0  0  0  0  0  0  0  0  0
   -3.3908   -0.5411   -1.9906 H   0  0  0  0  0  0  0  0  0  0  0  0
   -2.6170    0.6005   -0.2626 C   0  0  0  0  0  0  0  0  0  0  0  0
   -3.4783    0.7181    0.3884 H   0  0  0  0  0  0  0  0  0  0  0  0
   -0.4722    0.2742   -0.4537 C   0  0  0  0  0  0  0  0  0  0  0  0
    0.5858    0.4595   -0.3216 H   0  0  0  0  0  0  0  0  0  0  0  0
   -1.3819    0.8378    0.3467 O   0  0  0  0  0  0  0  0  0  0  0  0
  1  2  3  0  0  0  0
  3  8  1  0  0  0  0
  4  3  1  0  0  0  0
  4  6  1  0  0  0  0
  5  4  1  0  0  0  0
  6 10  1  0  0  0  0
  6  7  1  0  0  0  0
  8  9  1  0  0  0  0
  8 10  1  0  0  0  0
M  RAD  4   3   3   4   2   6   2   8   2
M  END
