Coordinates from ORCA-job Furan-3-N2+-scan-d09-169-n800
 OpenBabel09191814033D

 10  9  0  0  0  0  0  0  0  0999 V2000
   10.3031    5.5604    4.9312 N   0  0  0  0  0  0  0  0  0  0  0  0
   11.2027    5.9692    5.4269 N   0  0  0  0  0  0  0  0  0  0  0  0
   -3.2381   -1.3842   -2.1380 C   0  0  0  0  0  0  0  0  0  0  0  0
   -4.3590   -0.6079   -2.0235 C   0  0  0  0  0  0  0  0  0  0  0  0
   -5.3966   -0.7706   -2.2863 H   0  0  0  0  0  0  0  0  0  0  0  0
   -3.9020    0.0772   -0.8951 C   0  0  0  0  0  0  0  0  0  0  0  0
   -4.4921    0.4568   -0.0661 H   0  0  0  0  0  0  0  0  0  0  0  0
   -2.0769   -0.8977   -1.5742 C   0  0  0  0  0  0  0  0  0  0  0  0
   -1.0158   -1.0502   -1.7197 H   0  0  0  0  0  0  0  0  0  0  0  0
   -2.5395   -0.0788   -0.6250 O   0  0  0  0  0  0  0  0  0  0  0  0
  1  2  3  0  0  0  0
  3  4  1  0  0  0  0
  3  8  1  0  0  0  0
  4  6  1  0  0  0  0
  5  4  1  0  0  0  0
  6 10  1  0  0  0  0
  6  7  1  0  0  0  0
  8 10  1  0  0  0  0
  9  8  1  0  0  0  0
M  RAD  4   3   3   4   2   6   2   8   2
M  END
