Coordinates from ORCA-job Furan-3-N2+-scan-d09-169-n800
 OpenBabel09191814033D

 10  9  0  0  0  0  0  0  0  0999 V2000
    5.9104    3.4299    2.7401 N   0  0  0  0  0  0  0  0  0  0  0  0
    6.8033    3.8693    3.2215 N   0  0  0  0  0  0  0  0  0  0  0  0
   -1.8409   -0.7724   -1.5628 C   0  0  0  0  0  0  0  0  0  0  0  0
   -3.1048   -0.2531   -1.6363 C   0  0  0  0  0  0  0  0  0  0  0  0
   -4.0246   -0.6157   -2.0775 H   0  0  0  0  0  0  0  0  0  0  0  0
   -3.0007    0.4576   -0.4382 C   0  0  0  0  0  0  0  0  0  0  0  0
   -3.7888    0.6654    0.2796 H   0  0  0  0  0  0  0  0  0  0  0  0
   -0.9224   -0.0816   -0.7998 C   0  0  0  0  0  0  0  0  0  0  0  0
    0.1558   -0.0016   -0.7598 H   0  0  0  0  0  0  0  0  0  0  0  0
   -1.7015    0.5763    0.0632 O   0  0  0  0  0  0  0  0  0  0  0  0
  1  2  3  0  0  0  0
  3  8  1  0  0  0  0
  4  3  1  0  0  0  0
  4  6  1  0  0  0  0
  5  4  1  0  0  0  0
  6 10  1  0  0  0  0
  6  7  1  0  0  0  0
  8  9  1  0  0  0  0
  8 10  1  0  0  0  0
M  RAD  4   3   3   4   2   6   2   8   2
M  END
