Coordinates from ORCA-job Furan-3-N2+-scan-d09-169-n800
 OpenBabel09191814033D

 10  9  0  0  0  0  0  0  0  0999 V2000
    2.4144    1.0398    0.2966 N   0  0  0  0  0  0  0  0  0  0  0  0
    3.5141    1.1343    0.3469 N   0  0  0  0  0  0  0  0  0  0  0  0
   -0.4129    0.4803    0.2504 C   0  0  0  0  0  0  0  0  0  0  0  0
   -1.0203   -0.3386   -0.6665 C   0  0  0  0  0  0  0  0  0  0  0  0
   -0.8789   -1.3763   -0.9375 H   0  0  0  0  0  0  0  0  0  0  0  0
   -2.2281    0.3530   -0.6550 C   0  0  0  0  0  0  0  0  0  0  0  0
   -3.2254   -0.0344   -0.8350 H   0  0  0  0  0  0  0  0  0  0  0  0
   -0.9230    1.7408    0.4267 C   0  0  0  0  0  0  0  0  0  0  0  0
   -0.5718    2.6862    0.8139 H   0  0  0  0  0  0  0  0  0  0  0  0
   -2.1823    1.5889   -0.0104 O   0  0  0  0  0  0  0  0  0  0  0  0
  1  2  3  0  0  0  0
  3  8  1  0  0  0  0
  4  6  1  0  0  0  0
  4  3  1  0  0  0  0
  5  4  1  0  0  0  0
  6 10  1  0  0  0  0
  7  6  1  0  0  0  0
  8  9  1  0  0  0  0
 10  8  1  0  0  0  0
M  RAD  4   3   3   4   2   6   2   8   2
M  END
