Coordinates from ORCA-job Furan-3-N2+-scan-d09-169-n800
 OpenBabel09191814033D

 10  9  0  0  0  0  0  0  0  0999 V2000
    7.8545    4.3842    3.7305 N   0  0  0  0  0  0  0  0  0  0  0  0
    8.7565    4.8122    4.2051 N   0  0  0  0  0  0  0  0  0  0  0  0
   -2.4783   -1.0581   -1.8310 C   0  0  0  0  0  0  0  0  0  0  0  0
   -3.6799   -0.4043   -1.8028 C   0  0  0  0  0  0  0  0  0  0  0  0
   -4.6693   -0.6676   -2.1547 H   0  0  0  0  0  0  0  0  0  0  0  0
   -3.3923    0.3007   -0.6316 C   0  0  0  0  0  0  0  0  0  0  0  0
   -4.0859    0.6004    0.1486 H   0  0  0  0  0  0  0  0  0  0  0  0
   -1.4253   -0.4671   -1.1646 C   0  0  0  0  0  0  0  0  0  0  0  0
   -0.3456   -0.5060   -1.2211 H   0  0  0  0  0  0  0  0  0  0  0  0
   -2.0485    0.2797   -0.2482 O   0  0  0  0  0  0  0  0  0  0  0  0
  1  2  3  0  0  0  0
  3  4  1  0  0  0  0
  3  8  1  0  0  0  0
  4  6  1  0  0  0  0
  5  4  1  0  0  0  0
  6 10  1  0  0  0  0
  6  7  1  0  0  0  0
  8 10  1  0  0  0  0
  9  8  1  0  0  0  0
M  RAD  4   3   3   4   2   6   2   8   2
M  END
