Coordinates from ORCA-job Furan-3-N2+-scan-d09-169-n800
 OpenBabel09191814033D

 10 10  0  0  0  0  0  0  0  0999 V2000
    1.3893    0.8138    0.1538 N   0  0  0  0  0  0  0  0  0  0  0  0
    2.5021    0.7960    0.2679 N   0  0  0  0  0  0  0  0  0  0  0  0
    0.0768    0.8104    0.0085 C   0  0  0  0  0  0  0  0  0  0  0  0
   -0.7436   -0.2451   -0.5478 C   0  0  0  0  0  0  0  0  0  0  0  0
   -0.4158   -1.1993   -0.9335 H   0  0  0  0  0  0  0  0  0  0  0  0
   -2.0021    0.2437   -0.4694 C   0  0  0  0  0  0  0  0  0  0  0  0
   -2.9715   -0.1420   -0.7459 H   0  0  0  0  0  0  0  0  0  0  0  0
   -0.7649    1.8593    0.3795 C   0  0  0  0  0  0  0  0  0  0  0  0
   -0.5848    2.8278    0.8271 H   0  0  0  0  0  0  0  0  0  0  0  0
   -1.9997    1.5094    0.0899 O   0  0  0  0  0  0  0  0  0  0  0  0
  1  2  1  0  0  0  0
  3  1  1  0  0  0  0
  3  8  2  0  0  0  0
  4  6  2  0  0  0  0
  4  3  1  0  0  0  0
  5  4  1  0  0  0  0
  6 10  1  0  0  0  0
  7  6  1  0  0  0  0
  8  9  1  0  0  0  0
 10  8  1  0  0  0  0
M  RAD  2   1   2   2   3
M  END
