Coordinates from ORCA-job Furan-3-N2+-scan-d09-169-n800
 OpenBabel09191814033D

 10  9  0  0  0  0  0  0  0  0999 V2000
    4.9175    2.9455    2.2560 N   0  0  0  0  0  0  0  0  0  0  0  0
    5.7994    3.4108    2.7332 N   0  0  0  0  0  0  0  0  0  0  0  0
   -1.5379   -0.6346   -1.4263 C   0  0  0  0  0  0  0  0  0  0  0  0
   -2.8200   -0.1704   -1.5394 C   0  0  0  0  0  0  0  0  0  0  0  0
   -3.7094   -0.5725   -2.0078 H   0  0  0  0  0  0  0  0  0  0  0  0
   -2.7829    0.5439   -0.3395 C   0  0  0  0  0  0  0  0  0  0  0  0
   -3.6008    0.7178    0.3537 H   0  0  0  0  0  0  0  0  0  0  0  0
   -0.6729    0.0945   -0.6370 C   0  0  0  0  0  0  0  0  0  0  0  0
    0.3991    0.2208   -0.5640 H   0  0  0  0  0  0  0  0  0  0  0  0
   -1.5061    0.7182    0.2013 O   0  0  0  0  0  0  0  0  0  0  0  0
  1  2  3  0  0  0  0
  3  8  1  0  0  0  0
  4  3  1  0  0  0  0
  4  6  1  0  0  0  0
  5  4  1  0  0  0  0
  6 10  1  0  0  0  0
  6  7  1  0  0  0  0
  8  9  1  0  0  0  0
  8 10  1  0  0  0  0
M  RAD  4   3   3   4   2   6   2   8   2
M  END
