Coordinates from ORCA-job Furan-3-N2+-scan-d09-169-n800
 OpenBabel09191814033D

 10  9  0  0  0  0  0  0  0  0999 V2000
    8.7060    4.8019    4.1600 N   0  0  0  0  0  0  0  0  0  0  0  0
    9.6113    5.2289    4.6292 N   0  0  0  0  0  0  0  0  0  0  0  0
   -2.7563   -1.1727   -1.9488 C   0  0  0  0  0  0  0  0  0  0  0  0
   -3.9217   -0.4590   -1.8806 C   0  0  0  0  0  0  0  0  0  0  0  0
   -4.9338   -0.6702   -2.2016 H   0  0  0  0  0  0  0  0  0  0  0  0
   -3.5618    0.2253   -0.7171 C   0  0  0  0  0  0  0  0  0  0  0  0
   -4.2142    0.5562    0.0857 H   0  0  0  0  0  0  0  0  0  0  0  0
   -1.6541   -0.6388   -1.3146 C   0  0  0  0  0  0  0  0  0  0  0  0
   -0.5801   -0.7322   -1.4056 H   0  0  0  0  0  0  0  0  0  0  0  0
   -2.2093    0.1345   -0.3767 O   0  0  0  0  0  0  0  0  0  0  0  0
  1  2  3  0  0  0  0
  3  4  1  0  0  0  0
  3  8  1  0  0  0  0
  4  6  1  0  0  0  0
  5  4  1  0  0  0  0
  6 10  1  0  0  0  0
  6  7  1  0  0  0  0
  8 10  1  0  0  0  0
  9  8  1  0  0  0  0
M  RAD  4   3   3   4   2   6   2   8   2
M  END
