Coordinates from ORCA-job Furan-3-N2+-scan-d09-169-n800
 OpenBabel09191814033D

 10  9  0  0  0  0  0  0  0  0999 V2000
    4.7911    2.8857    2.1926 N   0  0  0  0  0  0  0  0  0  0  0  0
    5.6736    3.3505    2.6692 N   0  0  0  0  0  0  0  0  0  0  0  0
   -1.4982   -0.6156   -1.4089 C   0  0  0  0  0  0  0  0  0  0  0  0
   -2.7823   -0.1586   -1.5285 C   0  0  0  0  0  0  0  0  0  0  0  0
   -3.6667   -0.5651   -2.0025 H   0  0  0  0  0  0  0  0  0  0  0  0
   -2.7562    0.5539   -0.3271 C   0  0  0  0  0  0  0  0  0  0  0  0
   -3.5789    0.7217    0.3617 H   0  0  0  0  0  0  0  0  0  0  0  0
   -0.6419    0.1173   -0.6135 C   0  0  0  0  0  0  0  0  0  0  0  0
    0.4290    0.2496   -0.5339 H   0  0  0  0  0  0  0  0  0  0  0  0
   -1.4835    0.7346    0.2211 O   0  0  0  0  0  0  0  0  0  0  0  0
  1  2  3  0  0  0  0
  3  8  1  0  0  0  0
  4  3  1  0  0  0  0
  4  6  1  0  0  0  0
  5  4  1  0  0  0  0
  6 10  1  0  0  0  0
  6  7  1  0  0  0  0
  8  9  1  0  0  0  0
  8 10  1  0  0  0  0
M  RAD  4   3   3   4   2   6   2   8   2
M  END
