Coordinates from ORCA-job Furan-3-N2+-scan-d09-169-n800
 OpenBabel09191814033D

 10  9  0  0  0  0  0  0  0  0999 V2000
    2.3317    0.8391    0.2681 N   0  0  0  0  0  0  0  0  0  0  0  0
    3.4293    0.8473    0.3920 N   0  0  0  0  0  0  0  0  0  0  0  0
   -0.3523    0.7983   -0.0428 C   0  0  0  0  0  0  0  0  0  0  0  0
   -0.9615   -0.3073   -0.5999 C   0  0  0  0  0  0  0  0  0  0  0  0
   -0.6222   -1.2581   -0.9818 H   0  0  0  0  0  0  0  0  0  0  0  0
   -2.2216    0.2354   -0.4980 C   0  0  0  0  0  0  0  0  0  0  0  0
   -3.1894   -0.1598   -0.7772 H   0  0  0  0  0  0  0  0  0  0  0  0
   -0.9525    1.9087    0.3810 C   0  0  0  0  0  0  0  0  0  0  0  0
   -0.7499    2.8681    0.8265 H   0  0  0  0  0  0  0  0  0  0  0  0
   -2.2258    1.5024    0.0622 O   0  0  0  0  0  0  0  0  0  0  0  0
  1  2  3  0  0  0  0
  3  8  2  0  0  0  0
  4  6  2  0  0  0  0
  4  3  1  0  0  0  0
  5  4  1  0  0  0  0
  6 10  1  0  0  0  0
  7  6  1  0  0  0  0
  8  9  1  0  0  0  0
 10  8  1  0  0  0  0
M  RAD  1   3   2
M  END
