Coordinates from ORCA-job Furan-3-N2+-scan-d09-169-n800
 OpenBabel09191814033D

 10  9  0  0  0  0  0  0  0  0999 V2000
    6.0354    3.4926    2.8032 N   0  0  0  0  0  0  0  0  0  0  0  0
    6.9302    3.9295    3.2833 N   0  0  0  0  0  0  0  0  0  0  0  0
   -1.8811   -0.7897   -1.5807 C   0  0  0  0  0  0  0  0  0  0  0  0
   -3.1416   -0.2618   -1.6485 C   0  0  0  0  0  0  0  0  0  0  0  0
   -4.0658   -0.6177   -2.0859 H   0  0  0  0  0  0  0  0  0  0  0  0
   -3.0270    0.4470   -0.4502 C   0  0  0  0  0  0  0  0  0  0  0  0
   -3.8105    0.6602    0.2711 H   0  0  0  0  0  0  0  0  0  0  0  0
   -0.9538   -0.1069   -0.8215 C   0  0  0  0  0  0  0  0  0  0  0  0
    0.1251   -0.0349   -0.7864 H   0  0  0  0  0  0  0  0  0  0  0  0
   -1.7249    0.5557    0.0457 O   0  0  0  0  0  0  0  0  0  0  0  0
  1  2  3  0  0  0  0
  3  8  1  0  0  0  0
  4  3  1  0  0  0  0
  4  6  1  0  0  0  0
  5  4  1  0  0  0  0
  6 10  1  0  0  0  0
  6  7  1  0  0  0  0
  8  9  1  0  0  0  0
  8 10  1  0  0  0  0
M  RAD  4   3   3   4   2   6   2   8   2
M  END
