Coordinates from ORCA-job Furan-3-N2+-scan-d09-169-n800
 OpenBabel09191814033D

 10  9  0  0  0  0  0  0  0  0999 V2000
    3.9633    2.4637    1.7406 N   0  0  0  0  0  0  0  0  0  0  0  0
    4.8481    2.9245    2.2165 N   0  0  0  0  0  0  0  0  0  0  0  0
   -1.2098   -0.4679   -1.2754 C   0  0  0  0  0  0  0  0  0  0  0  0
   -2.5107   -0.0873   -1.4621 C   0  0  0  0  0  0  0  0  0  0  0  0
   -3.3407   -0.5390   -1.9904 H   0  0  0  0  0  0  0  0  0  0  0  0
   -2.5953    0.6068   -0.2528 C   0  0  0  0  0  0  0  0  0  0  0  0
   -3.4640    0.7141    0.3903 H   0  0  0  0  0  0  0  0  0  0  0  0
   -0.4455    0.3035   -0.4241 C   0  0  0  0  0  0  0  0  0  0  0  0
    0.6092    0.4997   -0.2812 H   0  0  0  0  0  0  0  0  0  0  0  0
   -1.3687    0.8558    0.3687 O   0  0  0  0  0  0  0  0  0  0  0  0
  1  2  3  0  0  0  0
  3  8  1  0  0  0  0
  4  3  1  0  0  0  0
  4  6  1  0  0  0  0
  5  4  1  0  0  0  0
  6 10  1  0  0  0  0
  6  7  1  0  0  0  0
  8  9  1  0  0  0  0
  8 10  1  0  0  0  0
M  RAD  4   3   3   4   2   6   2   8   2
M  END
