Coordinates from ORCA-job Furan-3-N2+-scan-d09-169-n800
 OpenBabel09191814033D

 10  9  0  0  0  0  0  0  0  0999 V2000
    7.8297    4.3718    3.7180 N   0  0  0  0  0  0  0  0  0  0  0  0
    8.7318    4.7997    4.1927 N   0  0  0  0  0  0  0  0  0  0  0  0
   -2.4699   -1.0548   -1.8272 C   0  0  0  0  0  0  0  0  0  0  0  0
   -3.6727   -0.4032   -1.8005 C   0  0  0  0  0  0  0  0  0  0  0  0
   -4.6613   -0.6685   -2.1532 H   0  0  0  0  0  0  0  0  0  0  0  0
   -3.3876    0.3028   -0.6293 C   0  0  0  0  0  0  0  0  0  0  0  0
   -4.0825    0.6015    0.1501 H   0  0  0  0  0  0  0  0  0  0  0  0
   -1.4186   -0.4615   -1.1602 C   0  0  0  0  0  0  0  0  0  0  0  0
   -0.3388   -0.4985   -1.2156 H   0  0  0  0  0  0  0  0  0  0  0  0
   -2.0441    0.2845   -0.2447 O   0  0  0  0  0  0  0  0  0  0  0  0
  1  2  3  0  0  0  0
  3  4  1  0  0  0  0
  3  8  1  0  0  0  0
  4  6  1  0  0  0  0
  5  4  1  0  0  0  0
  6 10  1  0  0  0  0
  6  7  1  0  0  0  0
  8 10  1  0  0  0  0
  9  8  1  0  0  0  0
M  RAD  4   3   3   4   2   6   2   8   2
M  END
