Coordinates from ORCA-job Furan-3-N2+-scan-d09-169-n800
 OpenBabel09191814033D

 10  9  0  0  0  0  0  0  0  0999 V2000
    8.7819    4.8386    4.1981 N   0  0  0  0  0  0  0  0  0  0  0  0
    9.6877    5.2652    4.6668 N   0  0  0  0  0  0  0  0  0  0  0  0
   -2.7803   -1.1828   -1.9585 C   0  0  0  0  0  0  0  0  0  0  0  0
   -3.9429   -0.4650   -1.8874 C   0  0  0  0  0  0  0  0  0  0  0  0
   -4.9567   -0.6728   -2.2055 H   0  0  0  0  0  0  0  0  0  0  0  0
   -3.5774    0.2184   -0.7252 C   0  0  0  0  0  0  0  0  0  0  0  0
   -4.2265    0.5520    0.0793 H   0  0  0  0  0  0  0  0  0  0  0  0
   -1.6745   -0.6526   -1.3276 C   0  0  0  0  0  0  0  0  0  0  0  0
   -0.6011   -0.7498   -1.4215 H   0  0  0  0  0  0  0  0  0  0  0  0
   -2.2244    0.1230   -0.3885 O   0  0  0  0  0  0  0  0  0  0  0  0
  1  2  3  0  0  0  0
  3  4  1  0  0  0  0
  3  8  1  0  0  0  0
  4  6  1  0  0  0  0
  5  4  1  0  0  0  0
  6 10  1  0  0  0  0
  6  7  1  0  0  0  0
  8 10  1  0  0  0  0
  9  8  1  0  0  0  0
M  RAD  4   3   3   4   2   6   2   8   2
M  END
