Coordinates from ORCA-job Furan-3-N2+-scan-d09-169-n800
 OpenBabel09191814033D

 10  9  0  0  0  0  0  0  0  0999 V2000
    9.0744    4.9787    4.3442 N   0  0  0  0  0  0  0  0  0  0  0  0
    9.9815    5.4042    4.8112 N   0  0  0  0  0  0  0  0  0  0  0  0
   -2.8715   -1.2219   -1.9952 C   0  0  0  0  0  0  0  0  0  0  0  0
   -4.0243   -0.4895   -1.9137 C   0  0  0  0  0  0  0  0  0  0  0  0
   -5.0438   -0.6854   -2.2209 H   0  0  0  0  0  0  0  0  0  0  0  0
   -3.6383    0.1918   -0.7568 C   0  0  0  0  0  0  0  0  0  0  0  0
   -4.2748    0.5350    0.0535 H   0  0  0  0  0  0  0  0  0  0  0  0
   -1.7527   -0.7042   -1.3769 C   0  0  0  0  0  0  0  0  0  0  0  0
   -0.6816   -0.8149   -1.4817 H   0  0  0  0  0  0  0  0  0  0  0  0
   -2.2831    0.0802   -0.4338 O   0  0  0  0  0  0  0  0  0  0  0  0
  1  2  3  0  0  0  0
  3  4  1  0  0  0  0
  3  8  1  0  0  0  0
  4  6  1  0  0  0  0
  5  4  1  0  0  0  0
  6 10  1  0  0  0  0
  6  7  1  0  0  0  0
  8 10  1  0  0  0  0
  9  8  1  0  0  0  0
M  RAD  4   3   3   4   2   6   2   8   2
M  END
