Coordinates from ORCA-job Furan-3-N2+-scan-d09-169-n800
 OpenBabel09191814033D

 10  9  0  0  0  0  0  0  0  0999 V2000
    2.7751    1.8186    1.0344 N   0  0  0  0  0  0  0  0  0  0  0  0
    3.7095    2.2318    1.4541 N   0  0  0  0  0  0  0  0  0  0  0  0
   -0.7605   -0.2011   -1.0286 C   0  0  0  0  0  0  0  0  0  0  0  0
   -2.0684    0.0204   -1.3655 C   0  0  0  0  0  0  0  0  0  0  0  0
   -2.7646   -0.5132   -1.9998 H   0  0  0  0  0  0  0  0  0  0  0  0
   -2.3839    0.6567   -0.1635 C   0  0  0  0  0  0  0  0  0  0  0  0
   -3.3291    0.6353    0.3705 H   0  0  0  0  0  0  0  0  0  0  0  0
   -0.2043    0.6324   -0.0791 C   0  0  0  0  0  0  0  0  0  0  0  0
    0.7930    0.9580    0.2019 H   0  0  0  0  0  0  0  0  0  0  0  0
   -1.2809    1.0351    0.6058 O   0  0  0  0  0  0  0  0  0  0  0  0
  1  2  3  0  0  0  0
  3  8  1  0  0  0  0
  4  3  1  0  0  0  0
  4  6  1  0  0  0  0
  5  4  1  0  0  0  0
  6  7  1  0  0  0  0
  6 10  1  0  0  0  0
  8  9  1  0  0  0  0
  8 10  1  0  0  0  0
M  RAD  4   3   3   4   2   6   2   8   2
M  END
