Coordinates from ORCA-job Furan-3-N2+-scan-d09-169-n800
 OpenBabel09191814033D

 10  9  0  0  0  0  0  0  0  0999 V2000
    2.6107    2.1039    0.7090 N   0  0  0  0  0  0  0  0  0  0  0  0
    3.6511    2.4072    0.9229 N   0  0  0  0  0  0  0  0  0  0  0  0
   -0.6019   -0.3046   -0.0373 C   0  0  0  0  0  0  0  0  0  0  0  0
   -1.6774   -0.6914   -0.7910 C   0  0  0  0  0  0  0  0  0  0  0  0
   -2.1199   -1.6570   -0.9993 H   0  0  0  0  0  0  0  0  0  0  0  0
   -2.3781    0.5015   -0.6013 C   0  0  0  0  0  0  0  0  0  0  0  0
   -3.4534    0.6345   -0.5286 H   0  0  0  0  0  0  0  0  0  0  0  0
   -0.3919    1.0512    0.1056 C   0  0  0  0  0  0  0  0  0  0  0  0
    0.4649    1.6774    0.3286 H   0  0  0  0  0  0  0  0  0  0  0  0
   -1.6181    1.5514   -0.0784 O   0  0  0  0  0  0  0  0  0  0  0  0
  1  2  3  0  0  0  0
  3  8  1  0  0  0  0
  4  6  1  0  0  0  0
  4  3  1  0  0  0  0
  5  4  1  0  0  0  0
  6  7  1  0  0  0  0
  6 10  1  0  0  0  0
  8  9  1  0  0  0  0
 10  8  1  0  0  0  0
M  RAD  4   3   3   4   2   6   2   8   2
M  END
