Coordinates from ORCA-job Furan-3-N2+-scan-d09-169-n800
 OpenBabel09191814033D

 10  9  0  0  0  0  0  0  0  0999 V2000
    6.3964    3.6721    2.9859 N   0  0  0  0  0  0  0  0  0  0  0  0
    7.2944    4.1046    3.4640 N   0  0  0  0  0  0  0  0  0  0  0  0
   -1.9984   -0.8430   -1.6328 C   0  0  0  0  0  0  0  0  0  0  0  0
   -3.2481   -0.2878   -1.6819 C   0  0  0  0  0  0  0  0  0  0  0  0
   -4.1860   -0.6232   -2.1061 H   0  0  0  0  0  0  0  0  0  0  0  0
   -3.1011    0.4176   -0.4851 C   0  0  0  0  0  0  0  0  0  0  0  0
   -3.8694    0.6465    0.2477 H   0  0  0  0  0  0  0  0  0  0  0  0
   -1.0463   -0.1801   -0.8866 C   0  0  0  0  0  0  0  0  0  0  0  0
    0.0343   -0.1310   -0.8668 H   0  0  0  0  0  0  0  0  0  0  0  0
   -1.7899    0.4983   -0.0082 O   0  0  0  0  0  0  0  0  0  0  0  0
  1  2  3  0  0  0  0
  3  8  1  0  0  0  0
  4  3  1  0  0  0  0
  4  6  1  0  0  0  0
  5  4  1  0  0  0  0
  6 10  1  0  0  0  0
  6  7  1  0  0  0  0
  8  9  1  0  0  0  0
  8 10  1  0  0  0  0
M  RAD  4   3   3   4   2   6   2   8   2
M  END
