Coordinates from ORCA-job Furan-3-N2+-scan-d09-169-n800
 OpenBabel09191814033D

 10  9  0  0  0  0  0  0  0  0999 V2000
    2.8931    1.9143    1.1478 N   0  0  0  0  0  0  0  0  0  0  0  0
    3.7879    2.3603    1.6179 N   0  0  0  0  0  0  0  0  0  0  0  0
   -0.8370   -0.2659   -1.0885 C   0  0  0  0  0  0  0  0  0  0  0  0
   -2.1483    0.0058   -1.3703 C   0  0  0  0  0  0  0  0  0  0  0  0
   -2.8930   -0.5057   -1.9666 H   0  0  0  0  0  0  0  0  0  0  0  0
   -2.3842    0.6675   -0.1636 C   0  0  0  0  0  0  0  0  0  0  0  0
   -3.3049    0.6898    0.4117 H   0  0  0  0  0  0  0  0  0  0  0  0
   -0.2065    0.5550   -0.1734 C   0  0  0  0  0  0  0  0  0  0  0  0
    0.8128    0.8440    0.0627 H   0  0  0  0  0  0  0  0  0  0  0  0
   -1.2341    1.0089    0.5524 O   0  0  0  0  0  0  0  0  0  0  0  0
  1  2  3  0  0  0  0
  3  8  1  0  0  0  0
  4  3  1  0  0  0  0
  4  6  1  0  0  0  0
  5  4  1  0  0  0  0
  6  7  1  0  0  0  0
  6 10  1  0  0  0  0
  8  9  1  0  0  0  0
  8 10  1  0  0  0  0
M  RAD  4   3   3   4   2   6   2   8   2
M  END
