Coordinates from ORCA-job Furan-3-N2+-scan-d09-169-n800
 OpenBabel09191814033D

 10  9  0  0  0  0  0  0  0  0999 V2000
    8.9851    4.9362    4.2998 N   0  0  0  0  0  0  0  0  0  0  0  0
    9.8919    5.3619    4.7672 N   0  0  0  0  0  0  0  0  0  0  0  0
   -2.8439   -1.2100   -1.9841 C   0  0  0  0  0  0  0  0  0  0  0  0
   -3.9995   -0.4818   -1.9056 C   0  0  0  0  0  0  0  0  0  0  0  0
   -5.0174   -0.6811   -2.2161 H   0  0  0  0  0  0  0  0  0  0  0  0
   -3.6196    0.1999   -0.7471 C   0  0  0  0  0  0  0  0  0  0  0  0
   -4.2599    0.5403    0.0616 H   0  0  0  0  0  0  0  0  0  0  0  0
   -1.7288   -0.6887   -1.3619 C   0  0  0  0  0  0  0  0  0  0  0  0
   -0.6571   -0.7956   -1.4635 H   0  0  0  0  0  0  0  0  0  0  0  0
   -2.2650    0.0930   -0.4200 O   0  0  0  0  0  0  0  0  0  0  0  0
  1  2  3  0  0  0  0
  3  4  1  0  0  0  0
  3  8  1  0  0  0  0
  4  6  1  0  0  0  0
  5  4  1  0  0  0  0
  6 10  1  0  0  0  0
  6  7  1  0  0  0  0
  8 10  1  0  0  0  0
  9  8  1  0  0  0  0
M  RAD  4   3   3   4   2   6   2   8   2
M  END
