Coordinates from ORCA-job Furan-3-N2+-scan-d09-169-n800
 OpenBabel09191814033D

 10  9  0  0  0  0  0  0  0  0999 V2000
    5.5235    3.2274    2.5504 N   0  0  0  0  0  0  0  0  0  0  0  0
    6.4066    3.6894    3.0287 N   0  0  0  0  0  0  0  0  0  0  0  0
   -1.7181   -0.7183   -1.5058 C   0  0  0  0  0  0  0  0  0  0  0  0
   -2.9923   -0.2279   -1.5963 C   0  0  0  0  0  0  0  0  0  0  0  0
   -3.8988   -0.6134   -2.0455 H   0  0  0  0  0  0  0  0  0  0  0  0
   -2.9176    0.4913   -0.4010 C   0  0  0  0  0  0  0  0  0  0  0  0
   -3.7183    0.6851    0.3068 H   0  0  0  0  0  0  0  0  0  0  0  0
   -0.8238   -0.0030   -0.7366 C   0  0  0  0  0  0  0  0  0  0  0  0
    0.2518    0.1015   -0.6848 H   0  0  0  0  0  0  0  0  0  0  0  0
   -1.6272    0.6419    0.1140 O   0  0  0  0  0  0  0  0  0  0  0  0
  1  2  3  0  0  0  0
  3  8  1  0  0  0  0
  4  3  1  0  0  0  0
  4  6  1  0  0  0  0
  5  4  1  0  0  0  0
  6 10  1  0  0  0  0
  6  7  1  0  0  0  0
  8  9  1  0  0  0  0
  8 10  1  0  0  0  0
M  RAD  4   3   3   4   2   6   2   8   2
M  END
