Coordinates from ORCA-job Furan-3-N2+-scan-d09-169-n800
 OpenBabel09191814033D

 10  9  0  0  0  0  0  0  0  0999 V2000
    5.4200    3.1781    2.5019 N   0  0  0  0  0  0  0  0  0  0  0  0
    6.3027    3.6428    2.9781 N   0  0  0  0  0  0  0  0  0  0  0  0
   -1.6879   -0.7041   -1.4920 C   0  0  0  0  0  0  0  0  0  0  0  0
   -2.9636   -0.2187   -1.5860 C   0  0  0  0  0  0  0  0  0  0  0  0
   -3.8675   -0.6078   -2.0375 H   0  0  0  0  0  0  0  0  0  0  0  0
   -2.8944    0.5006   -0.3905 C   0  0  0  0  0  0  0  0  0  0  0  0
   -3.6975    0.6918    0.3152 H   0  0  0  0  0  0  0  0  0  0  0  0
   -0.7976    0.0137   -0.7208 C   0  0  0  0  0  0  0  0  0  0  0  0
    0.2775    0.1219   -0.6663 H   0  0  0  0  0  0  0  0  0  0  0  0
   -1.6059    0.6556    0.1280 O   0  0  0  0  0  0  0  0  0  0  0  0
  1  2  3  0  0  0  0
  3  8  1  0  0  0  0
  4  3  1  0  0  0  0
  4  6  1  0  0  0  0
  5  4  1  0  0  0  0
  6 10  1  0  0  0  0
  6  7  1  0  0  0  0
  8  9  1  0  0  0  0
  8 10  1  0  0  0  0
M  RAD  4   3   3   4   2   6   2   8   2
M  END
