Coordinates from ORCA-job Furan-3-N2+-scan-d09-169-n800
 OpenBabel09191814033D

 10  9  0  0  0  0  0  0  0  0999 V2000
    3.7650    2.3587    1.6276 N   0  0  0  0  0  0  0  0  0  0  0  0
    4.6513    2.8175    2.1028 N   0  0  0  0  0  0  0  0  0  0  0  0
   -1.1375   -0.4288   -1.2400 C   0  0  0  0  0  0  0  0  0  0  0  0
   -2.4418   -0.0706   -1.4464 C   0  0  0  0  0  0  0  0  0  0  0  0
   -3.2550   -0.5351   -1.9896 H   0  0  0  0  0  0  0  0  0  0  0  0
   -2.5582    0.6175   -0.2364 C   0  0  0  0  0  0  0  0  0  0  0  0
   -3.4388    0.7070    0.3930 H   0  0  0  0  0  0  0  0  0  0  0  0
   -0.4006    0.3533   -0.3740 C   0  0  0  0  0  0  0  0  0  0  0  0
    0.6479    0.5683   -0.2125 H   0  0  0  0  0  0  0  0  0  0  0  0
   -1.3464    0.8860    0.4055 O   0  0  0  0  0  0  0  0  0  0  0  0
  1  2  3  0  0  0  0
  3  8  1  0  0  0  0
  4  3  1  0  0  0  0
  4  6  1  0  0  0  0
  5  4  1  0  0  0  0
  6  7  1  0  0  0  0
  6 10  1  0  0  0  0
  8  9  1  0  0  0  0
  8 10  1  0  0  0  0
M  RAD  4   3   3   4   2   6   2   8   2
M  END
