Coordinates from ORCA-job Furan-3-N2+-scan-d09-169-n800
 OpenBabel09191814033D

 10  9  0  0  0  0  0  0  0  0999 V2000
    3.3496    2.1443    1.3977 N   0  0  0  0  0  0  0  0  0  0  0  0
    4.2387    2.5979    1.8721 N   0  0  0  0  0  0  0  0  0  0  0  0
   -0.9917   -0.3499   -1.1681 C   0  0  0  0  0  0  0  0  0  0  0  0
   -2.3010   -0.0355   -1.4111 C   0  0  0  0  0  0  0  0  0  0  0  0
   -3.0811   -0.5246   -1.9805 H   0  0  0  0  0  0  0  0  0  0  0  0
   -2.4767    0.6409   -0.2019 C   0  0  0  0  0  0  0  0  0  0  0  0
   -3.3780    0.6967    0.4015 H   0  0  0  0  0  0  0  0  0  0  0  0
   -0.3073    0.4529   -0.2771 C   0  0  0  0  0  0  0  0  0  0  0  0
    0.7276    0.7044   -0.0791 H   0  0  0  0  0  0  0  0  0  0  0  0
   -1.2943    0.9471    0.4766 O   0  0  0  0  0  0  0  0  0  0  0  0
  1  2  3  0  0  0  0
  3  8  1  0  0  0  0
  4  3  1  0  0  0  0
  4  6  1  0  0  0  0
  5  4  1  0  0  0  0
  6  7  1  0  0  0  0
  6 10  1  0  0  0  0
  8  9  1  0  0  0  0
  8 10  1  0  0  0  0
M  RAD  4   3   3   4   2   6   2   8   2
M  END
