Coordinates from ORCA-job Furan-3-N2+-scan-d09-169-n800
 OpenBabel09191814033D

 10  9  0  0  0  0  0  0  0  0999 V2000
    2.6261    1.7833    0.6012 N   0  0  0  0  0  0  0  0  0  0  0  0
    3.7143    1.9229    0.7325 N   0  0  0  0  0  0  0  0  0  0  0  0
   -0.5340   -0.0357    0.0789 C   0  0  0  0  0  0  0  0  0  0  0  0
   -1.4581   -0.6126   -0.7496 C   0  0  0  0  0  0  0  0  0  0  0  0
   -1.7018   -1.6429   -0.9752 H   0  0  0  0  0  0  0  0  0  0  0  0
   -2.3746    0.4353   -0.6376 C   0  0  0  0  0  0  0  0  0  0  0  0
   -3.4587    0.3721   -0.6524 H   0  0  0  0  0  0  0  0  0  0  0  0
   -0.5848    1.3359    0.2155 C   0  0  0  0  0  0  0  0  0  0  0  0
    0.1187    2.1092    0.4918 H   0  0  0  0  0  0  0  0  0  0  0  0
   -1.8611    1.6067   -0.0751 O   0  0  0  0  0  0  0  0  0  0  0  0
  1  2  3  0  0  0  0
  3  8  1  0  0  0  0
  4  6  1  0  0  0  0
  4  3  1  0  0  0  0
  5  4  1  0  0  0  0
  6 10  1  0  0  0  0
  7  6  1  0  0  0  0
  8  9  1  0  0  0  0
 10  8  1  0  0  0  0
M  RAD  4   3   3   4   2   6   2   8   2
M  END
