Coordinates from ORCA-job Furan-3-N2+-scan-d09-169-n800
 OpenBabel09191814033D

 10  9  0  0  0  0  0  0  0  0999 V2000
    4.6911    2.8377    2.1417 N   0  0  0  0  0  0  0  0  0  0  0  0
    5.5741    3.3020    2.6178 N   0  0  0  0  0  0  0  0  0  0  0  0
   -1.4660   -0.5999   -1.3947 C   0  0  0  0  0  0  0  0  0  0  0  0
   -2.7518   -0.1495   -1.5200 C   0  0  0  0  0  0  0  0  0  0  0  0
   -3.6317   -0.5599   -1.9991 H   0  0  0  0  0  0  0  0  0  0  0  0
   -2.7354    0.5613   -0.3176 C   0  0  0  0  0  0  0  0  0  0  0  0
   -3.5625    0.7239    0.3674 H   0  0  0  0  0  0  0  0  0  0  0  0
   -0.6175    0.1362   -0.5939 C   0  0  0  0  0  0  0  0  0  0  0  0
    0.4522    0.2741   -0.5087 H   0  0  0  0  0  0  0  0  0  0  0  0
   -1.4665    0.7479    0.2373 O   0  0  0  0  0  0  0  0  0  0  0  0
  1  2  3  0  0  0  0
  3  8  1  0  0  0  0
  4  3  1  0  0  0  0
  4  6  1  0  0  0  0
  5  4  1  0  0  0  0
  6 10  1  0  0  0  0
  6  7  1  0  0  0  0
  8  9  1  0  0  0  0
  8 10  1  0  0  0  0
M  RAD  4   3   3   4   2   6   2   8   2
M  END
