Coordinates from ORCA-job Furan-3-N2+-scan-d09-169-n800
 OpenBabel09191814033D

 10  9  0  0  0  0  0  0  0  0999 V2000
    2.8368    1.8689    1.0947 N   0  0  0  0  0  0  0  0  0  0  0  0
    3.7482    2.3011    1.5451 N   0  0  0  0  0  0  0  0  0  0  0  0
   -0.8015   -0.2367   -1.0623 C   0  0  0  0  0  0  0  0  0  0  0  0
   -2.1122    0.0120   -1.3679 C   0  0  0  0  0  0  0  0  0  0  0  0
   -2.8356   -0.5100   -1.9809 H   0  0  0  0  0  0  0  0  0  0  0  0
   -2.3833    0.6630   -0.1629 C   0  0  0  0  0  0  0  0  0  0  0  0
   -3.3151    0.6660    0.3947 H   0  0  0  0  0  0  0  0  0  0  0  0
   -0.2036    0.5908   -0.1321 C   0  0  0  0  0  0  0  0  0  0  0  0
    0.8056    0.8972    0.1256 H   0  0  0  0  0  0  0  0  0  0  0  0
   -1.2534    1.0218    0.5762 O   0  0  0  0  0  0  0  0  0  0  0  0
  1  2  3  0  0  0  0
  3  8  1  0  0  0  0
  4  3  1  0  0  0  0
  4  6  1  0  0  0  0
  5  4  1  0  0  0  0
  6  7  1  0  0  0  0
  6 10  1  0  0  0  0
  8  9  1  0  0  0  0
  8 10  1  0  0  0  0
M  RAD  4   3   3   4   2   6   2   8   2
M  END
