Coordinates from ORCA-job Furan-3-N2+-scan-d09-169-n800
 OpenBabel09191814033D

 10  9  0  0  0  0  0  0  0  0999 V2000
    4.8915    2.9339    2.2438 N   0  0  0  0  0  0  0  0  0  0  0  0
    5.7743    3.3985    2.7200 N   0  0  0  0  0  0  0  0  0  0  0  0
   -1.5301   -0.6308   -1.4230 C   0  0  0  0  0  0  0  0  0  0  0  0
   -2.8125   -0.1679   -1.5372 C   0  0  0  0  0  0  0  0  0  0  0  0
   -3.7010   -0.5706   -2.0067 H   0  0  0  0  0  0  0  0  0  0  0  0
   -2.7774    0.5460   -0.3369 C   0  0  0  0  0  0  0  0  0  0  0  0
   -3.5962    0.7187    0.3555 H   0  0  0  0  0  0  0  0  0  0  0  0
   -0.6666    0.0988   -0.6325 C   0  0  0  0  0  0  0  0  0  0  0  0
    0.4052    0.2261   -0.5580 H   0  0  0  0  0  0  0  0  0  0  0  0
   -1.5013    0.7213    0.2052 O   0  0  0  0  0  0  0  0  0  0  0  0
  1  2  3  0  0  0  0
  3  8  1  0  0  0  0
  4  3  1  0  0  0  0
  4  6  1  0  0  0  0
  5  4  1  0  0  0  0
  6 10  1  0  0  0  0
  6  7  1  0  0  0  0
  8  9  1  0  0  0  0
  8 10  1  0  0  0  0
M  RAD  4   3   3   4   2   6   2   8   2
M  END
