Coordinates from ORCA-job Furan-3-N2+-scan-d09-169-n800
 OpenBabel09191814033D

 10  9  0  0  0  0  0  0  0  0999 V2000
    9.2919    5.0820    4.4520 N   0  0  0  0  0  0  0  0  0  0  0  0
   10.1997    5.5069    4.9182 N   0  0  0  0  0  0  0  0  0  0  0  0
   -2.9381   -1.2507   -2.0218 C   0  0  0  0  0  0  0  0  0  0  0  0
   -4.0841   -0.5085   -1.9336 C   0  0  0  0  0  0  0  0  0  0  0  0
   -5.1074   -0.6966   -2.2331 H   0  0  0  0  0  0  0  0  0  0  0  0
   -3.6844    0.1715   -0.7807 C   0  0  0  0  0  0  0  0  0  0  0  0
   -4.3122    0.5214    0.0336 H   0  0  0  0  0  0  0  0  0  0  0  0
   -1.8106   -0.7409   -1.4126 C   0  0  0  0  0  0  0  0  0  0  0  0
   -0.7412   -0.8607   -1.5248 H   0  0  0  0  0  0  0  0  0  0  0  0
   -2.3278    0.0496   -0.4673 O   0  0  0  0  0  0  0  0  0  0  0  0
  1  2  3  0  0  0  0
  3  4  1  0  0  0  0
  3  8  1  0  0  0  0
  4  6  1  0  0  0  0
  5  4  1  0  0  0  0
  6 10  1  0  0  0  0
  6  7  1  0  0  0  0
  8 10  1  0  0  0  0
  9  8  1  0  0  0  0
M  RAD  4   3   3   4   2   6   2   8   2
M  END
