Coordinates from ORCA-job Furan-3-N2+-scan-d09-169-n800
 OpenBabel09191814033D

 10  9  0  0  0  0  0  0  0  0999 V2000
    3.4369    2.1863    1.4421 N   0  0  0  0  0  0  0  0  0  0  0  0
    4.3262    2.6404    1.9159 N   0  0  0  0  0  0  0  0  0  0  0  0
   -1.0196   -0.3643   -1.1812 C   0  0  0  0  0  0  0  0  0  0  0  0
   -2.3281   -0.0428   -1.4193 C   0  0  0  0  0  0  0  0  0  0  0  0
   -3.1131   -0.5280   -1.9853 H   0  0  0  0  0  0  0  0  0  0  0  0
   -2.4954    0.6350   -0.2096 C   0  0  0  0  0  0  0  0  0  0  0  0
   -3.3940    0.6956    0.3974 H   0  0  0  0  0  0  0  0  0  0  0  0
   -0.3276    0.4352   -0.2932 C   0  0  0  0  0  0  0  0  0  0  0  0
    0.7094    0.6813   -0.1010 H   0  0  0  0  0  0  0  0  0  0  0  0
   -1.3087    0.9354    0.4642 O   0  0  0  0  0  0  0  0  0  0  0  0
  1  2  3  0  0  0  0
  3  8  1  0  0  0  0
  4  3  1  0  0  0  0
  4  6  1  0  0  0  0
  5  4  1  0  0  0  0
  6  7  1  0  0  0  0
  6 10  1  0  0  0  0
  8  9  1  0  0  0  0
  8 10  1  0  0  0  0
M  RAD  4   3   3   4   2   6   2   8   2
M  END
