Coordinates from ORCA-job Furan-3-N2+-scan-d09-169-n800
 OpenBabel09191814033D

 10  9  0  0  0  0  0  0  0  0999 V2000
    3.0799    2.0195    1.2646 N   0  0  0  0  0  0  0  0  0  0  0  0
    3.9642    2.4753    1.7456 N   0  0  0  0  0  0  0  0  0  0  0  0
   -0.9106   -0.3116   -1.1307 C   0  0  0  0  0  0  0  0  0  0  0  0
   -2.2211   -0.0114   -1.3852 C   0  0  0  0  0  0  0  0  0  0  0  0
   -2.9904   -0.5086   -1.9622 H   0  0  0  0  0  0  0  0  0  0  0  0
   -2.4155    0.6613   -0.1769 C   0  0  0  0  0  0  0  0  0  0  0  0
   -3.3227    0.7064    0.4184 H   0  0  0  0  0  0  0  0  0  0  0  0
   -0.2427    0.4990   -0.2331 C   0  0  0  0  0  0  0  0  0  0  0  0
    0.7874    0.7640   -0.0226 H   0  0  0  0  0  0  0  0  0  0  0  0
   -1.2427    0.9802    0.5123 O   0  0  0  0  0  0  0  0  0  0  0  0
  1  2  3  0  0  0  0
  3  8  1  0  0  0  0
  4  3  1  0  0  0  0
  4  6  1  0  0  0  0
  5  4  1  0  0  0  0
  6  7  1  0  0  0  0
  6 10  1  0  0  0  0
  8  9  1  0  0  0  0
  8 10  1  0  0  0  0
M  RAD  4   3   3   4   2   6   2   8   2
M  END
