Coordinates from ORCA-job Furan-3-N2+-scan-d09-169-n800
 OpenBabel09191814033D

 10  9  0  0  0  0  0  0  0  0999 V2000
    3.7885    2.3710    1.6408 N   0  0  0  0  0  0  0  0  0  0  0  0
    4.6745    2.8301    2.1162 N   0  0  0  0  0  0  0  0  0  0  0  0
   -1.1460   -0.4334   -1.2442 C   0  0  0  0  0  0  0  0  0  0  0  0
   -2.4499   -0.0725   -1.4483 C   0  0  0  0  0  0  0  0  0  0  0  0
   -3.2650   -0.5356   -1.9897 H   0  0  0  0  0  0  0  0  0  0  0  0
   -2.5627    0.6162   -0.2383 C   0  0  0  0  0  0  0  0  0  0  0  0
   -3.4419    0.7078    0.3927 H   0  0  0  0  0  0  0  0  0  0  0  0
   -0.4059    0.3475   -0.3798 C   0  0  0  0  0  0  0  0  0  0  0  0
    0.6433    0.5604   -0.2205 H   0  0  0  0  0  0  0  0  0  0  0  0
   -1.3491    0.8825    0.4013 O   0  0  0  0  0  0  0  0  0  0  0  0
  1  2  3  0  0  0  0
  3  8  1  0  0  0  0
  4  3  1  0  0  0  0
  4  6  1  0  0  0  0
  5  4  1  0  0  0  0
  6  7  1  0  0  0  0
  6 10  1  0  0  0  0
  8  9  1  0  0  0  0
  8 10  1  0  0  0  0
M  RAD  4   3   3   4   2   6   2   8   2
M  END
