Coordinates from ORCA-job Furan-3-N2+-scan-d09-169-n800
 OpenBabel09191814033D

 10  9  0  0  0  0  0  0  0  0999 V2000
    9.5496    5.2050    4.5762 N   0  0  0  0  0  0  0  0  0  0  0  0
   10.4571    5.6261    5.0465 N   0  0  0  0  0  0  0  0  0  0  0  0
   -3.0155   -1.2839   -2.0531 C   0  0  0  0  0  0  0  0  0  0  0  0
   -4.1543   -0.5315   -1.9575 C   0  0  0  0  0  0  0  0  0  0  0  0
   -5.1814   -0.7111   -2.2488 H   0  0  0  0  0  0  0  0  0  0  0  0
   -3.7396    0.1472   -0.8091 C   0  0  0  0  0  0  0  0  0  0  0  0
   -4.3580    0.5042    0.0093 H   0  0  0  0  0  0  0  0  0  0  0  0
   -1.8788   -0.7829   -1.4537 C   0  0  0  0  0  0  0  0  0  0  0  0
   -0.8115   -0.9130   -1.5736 H   0  0  0  0  0  0  0  0  0  0  0  0
   -2.3818    0.0139   -0.5061 O   0  0  0  0  0  0  0  0  0  0  0  0
  1  2  3  0  0  0  0
  3  4  1  0  0  0  0
  3  8  1  0  0  0  0
  4  6  1  0  0  0  0
  5  4  1  0  0  0  0
  6 10  1  0  0  0  0
  6  7  1  0  0  0  0
  8 10  1  0  0  0  0
  9  8  1  0  0  0  0
M  RAD  4   3   3   4   2   6   2   8   2
M  END
