Coordinates from ORCA-job Furan-3-N2+-scan-d09-169-n800
 OpenBabel09191814033D

 10  9  0  0  0  0  0  0  0  0999 V2000
    4.0680    2.5194    1.8007 N   0  0  0  0  0  0  0  0  0  0  0  0
    4.9525    2.9810    2.2766 N   0  0  0  0  0  0  0  0  0  0  0  0
   -1.2483   -0.4885   -1.2940 C   0  0  0  0  0  0  0  0  0  0  0  0
   -2.5471   -0.0960   -1.4702 C   0  0  0  0  0  0  0  0  0  0  0  0
   -3.3858   -0.5409   -1.9906 H   0  0  0  0  0  0  0  0  0  0  0  0
   -2.6148    0.6011   -0.2616 C   0  0  0  0  0  0  0  0  0  0  0  0
   -3.4768    0.7178    0.3886 H   0  0  0  0  0  0  0  0  0  0  0  0
   -0.4695    0.2771   -0.4507 C   0  0  0  0  0  0  0  0  0  0  0  0
    0.5882    0.4634   -0.3176 H   0  0  0  0  0  0  0  0  0  0  0  0
   -1.3806    0.8396    0.3489 O   0  0  0  0  0  0  0  0  0  0  0  0
  1  2  3  0  0  0  0
  3  8  1  0  0  0  0
  4  3  1  0  0  0  0
  4  6  1  0  0  0  0
  5  4  1  0  0  0  0
  6 10  1  0  0  0  0
  6  7  1  0  0  0  0
  8  9  1  0  0  0  0
  8 10  1  0  0  0  0
M  RAD  4   3   3   4   2   6   2   8   2
M  END
