Coordinates from ORCA-job Furan-3-N2+-scan-d09-169-n800
 OpenBabel09191814033D

 10  9  0  0  0  0  0  0  0  0999 V2000
    9.0361    4.9605    4.3252 N   0  0  0  0  0  0  0  0  0  0  0  0
    9.9431    5.3861    4.7924 N   0  0  0  0  0  0  0  0  0  0  0  0
   -2.8596   -1.2168   -1.9905 C   0  0  0  0  0  0  0  0  0  0  0  0
   -4.0137   -0.4862   -1.9102 C   0  0  0  0  0  0  0  0  0  0  0  0
   -5.0325   -0.6835   -2.2188 H   0  0  0  0  0  0  0  0  0  0  0  0
   -3.6303    0.1953   -0.7526 C   0  0  0  0  0  0  0  0  0  0  0  0
   -4.2684    0.5373    0.0570 H   0  0  0  0  0  0  0  0  0  0  0  0
   -1.7424   -0.6976   -1.3705 C   0  0  0  0  0  0  0  0  0  0  0  0
   -0.6711   -0.8067   -1.4739 H   0  0  0  0  0  0  0  0  0  0  0  0
   -2.2754    0.0856   -0.4279 O   0  0  0  0  0  0  0  0  0  0  0  0
  1  2  3  0  0  0  0
  3  4  1  0  0  0  0
  3  8  1  0  0  0  0
  4  6  1  0  0  0  0
  5  4  1  0  0  0  0
  6 10  1  0  0  0  0
  6  7  1  0  0  0  0
  8 10  1  0  0  0  0
  9  8  1  0  0  0  0
M  RAD  4   3   3   4   2   6   2   8   2
M  END
