Coordinates from ORCA-job Furan-3-N2+-scan-d09-169-n800
 OpenBabel09191814033D

 10  9  0  0  0  0  0  0  0  0999 V2000
    6.4590    3.7028    3.0178 N   0  0  0  0  0  0  0  0  0  0  0  0
    7.3574    4.1348    3.4956 N   0  0  0  0  0  0  0  0  0  0  0  0
   -2.0188   -0.8517   -1.6413 C   0  0  0  0  0  0  0  0  0  0  0  0
   -3.2668   -0.2929   -1.6874 C   0  0  0  0  0  0  0  0  0  0  0  0
   -4.2070   -0.6257   -2.1087 H   0  0  0  0  0  0  0  0  0  0  0  0
   -3.1141    0.4125   -0.4913 C   0  0  0  0  0  0  0  0  0  0  0  0
   -3.8795    0.6448    0.2434 H   0  0  0  0  0  0  0  0  0  0  0  0
   -1.0620   -0.1924   -0.8983 C   0  0  0  0  0  0  0  0  0  0  0  0
    0.0189   -0.1471   -0.8818 H   0  0  0  0  0  0  0  0  0  0  0  0
   -1.8013    0.4888   -0.0179 O   0  0  0  0  0  0  0  0  0  0  0  0
  1  2  3  0  0  0  0
  3  8  1  0  0  0  0
  4  3  1  0  0  0  0
  4  6  1  0  0  0  0
  5  4  1  0  0  0  0
  6 10  1  0  0  0  0
  6  7  1  0  0  0  0
  8  9  1  0  0  0  0
  8 10  1  0  0  0  0
M  RAD  4   3   3   4   2   6   2   8   2
M  END
