Coordinates from ORCA-job Furan-3-N2+-scan-d09-169-n800
 OpenBabel09191814033D

 10  9  0  0  0  0  0  0  0  0999 V2000
    8.7313    4.8141    4.1727 N   0  0  0  0  0  0  0  0  0  0  0  0
    9.6367    5.2410    4.6418 N   0  0  0  0  0  0  0  0  0  0  0  0
   -2.7643   -1.1761   -1.9520 C   0  0  0  0  0  0  0  0  0  0  0  0
   -3.9288   -0.4610   -1.8828 C   0  0  0  0  0  0  0  0  0  0  0  0
   -4.9414   -0.6711   -2.2029 H   0  0  0  0  0  0  0  0  0  0  0  0
   -3.5670    0.2230   -0.7198 C   0  0  0  0  0  0  0  0  0  0  0  0
   -4.2183    0.5548    0.0836 H   0  0  0  0  0  0  0  0  0  0  0  0
   -1.6609   -0.6434   -1.3189 C   0  0  0  0  0  0  0  0  0  0  0  0
   -0.5871   -0.7381   -1.4109 H   0  0  0  0  0  0  0  0  0  0  0  0
   -2.2143    0.1306   -0.3806 O   0  0  0  0  0  0  0  0  0  0  0  0
  1  2  3  0  0  0  0
  3  4  1  0  0  0  0
  3  8  1  0  0  0  0
  4  6  1  0  0  0  0
  5  4  1  0  0  0  0
  6 10  1  0  0  0  0
  6  7  1  0  0  0  0
  8 10  1  0  0  0  0
  9  8  1  0  0  0  0
M  RAD  4   3   3   4   2   6   2   8   2
M  END
