Coordinates from ORCA-job Furan-3-N2+-scan-d09-169-n800
 OpenBabel09191814033D

 10  9  0  0  0  0  0  0  0  0999 V2000
    2.9215    1.9334    1.1697 N   0  0  0  0  0  0  0  0  0  0  0  0
    3.8120    2.3830    1.6445 N   0  0  0  0  0  0  0  0  0  0  0  0
   -0.8511   -0.2762   -1.0978 C   0  0  0  0  0  0  0  0  0  0  0  0
   -2.1624    0.0030   -1.3721 C   0  0  0  0  0  0  0  0  0  0  0  0
   -2.9138   -0.5049   -1.9630 H   0  0  0  0  0  0  0  0  0  0  0  0
   -2.3870    0.6679   -0.1649 C   0  0  0  0  0  0  0  0  0  0  0  0
   -3.3041    0.6963    0.4160 H   0  0  0  0  0  0  0  0  0  0  0  0
   -0.2103    0.5425   -0.1876 C   0  0  0  0  0  0  0  0  0  0  0  0
    0.8119    0.8255    0.0417 H   0  0  0  0  0  0  0  0  0  0  0  0
   -1.2306    1.0036    0.5436 O   0  0  0  0  0  0  0  0  0  0  0  0
  1  2  3  0  0  0  0
  3  8  1  0  0  0  0
  4  3  1  0  0  0  0
  4  6  1  0  0  0  0
  5  4  1  0  0  0  0
  6  7  1  0  0  0  0
  6 10  1  0  0  0  0
  8  9  1  0  0  0  0
  8 10  1  0  0  0  0
M  RAD  4   3   3   4   2   6   2   8   2
M  END
