Coordinates from ORCA-job Furan-3-N2+-scan-d09-169-n800
 OpenBabel09191814033D

 10  9  0  0  0  0  0  0  0  0999 V2000
    9.7576    5.3051    4.6712 N   0  0  0  0  0  0  0  0  0  0  0  0
   10.6620    5.7184    5.1541 N   0  0  0  0  0  0  0  0  0  0  0  0
   -3.0770   -1.3122   -2.0763 C   0  0  0  0  0  0  0  0  0  0  0  0
   -4.2108   -0.5529   -1.9756 C   0  0  0  0  0  0  0  0  0  0  0  0
   -5.2410   -0.7277   -2.2589 H   0  0  0  0  0  0  0  0  0  0  0  0
   -3.7842    0.1281   -0.8328 C   0  0  0  0  0  0  0  0  0  0  0  0
   -4.3948    0.4918   -0.0115 H   0  0  0  0  0  0  0  0  0  0  0  0
   -1.9334   -0.8147   -1.4870 C   0  0  0  0  0  0  0  0  0  0  0  0
   -0.8677   -0.9508   -1.6142 H   0  0  0  0  0  0  0  0  0  0  0  0
   -2.4248   -0.0111   -0.5391 O   0  0  0  0  0  0  0  0  0  0  0  0
  1  2  3  0  0  0  0
  3  4  1  0  0  0  0
  3  8  1  0  0  0  0
  4  6  1  0  0  0  0
  5  4  1  0  0  0  0
  6 10  1  0  0  0  0
  6  7  1  0  0  0  0
  8 10  1  0  0  0  0
  9  8  1  0  0  0  0
M  RAD  4   3   3   4   2   6   2   8   2
M  END
