Coordinates from ORCA-job Furan-3-N2+-scan-d09-169-n800
 OpenBabel09191814033D

 10  9  0  0  0  0  0  0  0  0999 V2000
    2.6134    2.0759    0.7027 N   0  0  0  0  0  0  0  0  0  0  0  0
    3.6612    2.3562    0.9122 N   0  0  0  0  0  0  0  0  0  0  0  0
   -0.5921   -0.2776   -0.0314 C   0  0  0  0  0  0  0  0  0  0  0  0
   -1.6573   -0.6856   -0.7884 C   0  0  0  0  0  0  0  0  0  0  0  0
   -2.0805   -1.6598   -0.9973 H   0  0  0  0  0  0  0  0  0  0  0  0
   -2.3816    0.4937   -0.6024 C   0  0  0  0  0  0  0  0  0  0  0  0
   -3.4595    0.6058   -0.5331 H   0  0  0  0  0  0  0  0  0  0  0  0
   -0.4090    1.0824    0.1106 C   0  0  0  0  0  0  0  0  0  0  0  0
    0.4351    1.7242    0.3354 H   0  0  0  0  0  0  0  0  0  0  0  0
   -1.6438    1.5588   -0.0782 O   0  0  0  0  0  0  0  0  0  0  0  0
  1  2  3  0  0  0  0
  3  8  1  0  0  0  0
  4  6  1  0  0  0  0
  4  3  1  0  0  0  0
  5  4  1  0  0  0  0
  6  7  1  0  0  0  0
  6 10  1  0  0  0  0
  8  9  1  0  0  0  0
 10  8  1  0  0  0  0
M  RAD  4   3   3   4   2   6   2   8   2
M  END
