Coordinates from ORCA-job Furan-3-N2+-scan-d09-169-n800
 OpenBabel09191814033D

 10  9  0  0  0  0  0  0  0  0999 V2000
    2.1839    0.8262    0.2462 N   0  0  0  0  0  0  0  0  0  0  0  0
    3.2819    0.8220    0.3645 N   0  0  0  0  0  0  0  0  0  0  0  0
   -0.3024    0.8098   -0.0332 C   0  0  0  0  0  0  0  0  0  0  0  0
   -0.9184   -0.2963   -0.5893 C   0  0  0  0  0  0  0  0  0  0  0  0
   -0.5759   -1.2457   -0.9711 H   0  0  0  0  0  0  0  0  0  0  0  0
   -2.1821    0.2367   -0.4925 C   0  0  0  0  0  0  0  0  0  0  0  0
   -3.1460   -0.1646   -0.7755 H   0  0  0  0  0  0  0  0  0  0  0  0
   -0.9276    1.9115    0.3849 C   0  0  0  0  0  0  0  0  0  0  0  0
   -0.7323    2.8724    0.8307 H   0  0  0  0  0  0  0  0  0  0  0  0
   -2.1954    1.5021    0.0654 O   0  0  0  0  0  0  0  0  0  0  0  0
  1  2  3  0  0  0  0
  3  8  2  0  0  0  0
  4  6  2  0  0  0  0
  4  3  1  0  0  0  0
  5  4  1  0  0  0  0
  6 10  1  0  0  0  0
  7  6  1  0  0  0  0
  8  9  1  0  0  0  0
 10  8  1  0  0  0  0
M  RAD  1   3   2
M  END
