Coordinates from ORCA-job Furan-3-N2+-scan-d09-169-n800
 OpenBabel09191814033D

 10  9  0  0  0  0  0  0  0  0999 V2000
    8.6177    4.7589    4.1154 N   0  0  0  0  0  0  0  0  0  0  0  0
    9.5222    5.1865    4.5855 N   0  0  0  0  0  0  0  0  0  0  0  0
   -2.7283   -1.1608   -1.9373 C   0  0  0  0  0  0  0  0  0  0  0  0
   -3.8968   -0.4521   -1.8726 C   0  0  0  0  0  0  0  0  0  0  0  0
   -4.9070   -0.6676   -2.1970 H   0  0  0  0  0  0  0  0  0  0  0  0
   -3.5437    0.2333   -0.7077 C   0  0  0  0  0  0  0  0  0  0  0  0
   -4.2001    0.5611    0.0930 H   0  0  0  0  0  0  0  0  0  0  0  0
   -1.6304   -0.6224   -1.2993 C   0  0  0  0  0  0  0  0  0  0  0  0
   -0.5557   -0.7112   -1.3869 H   0  0  0  0  0  0  0  0  0  0  0  0
   -2.1920    0.1481   -0.3630 O   0  0  0  0  0  0  0  0  0  0  0  0
  1  2  3  0  0  0  0
  3  4  1  0  0  0  0
  3  8  1  0  0  0  0
  4  6  1  0  0  0  0
  5  4  1  0  0  0  0
  6 10  1  0  0  0  0
  6  7  1  0  0  0  0
  8 10  1  0  0  0  0
  9  8  1  0  0  0  0
M  RAD  4   3   3   4   2   6   2   8   2
M  END
