Coordinates from ORCA-job Furan-3-N2+-scan-d09-169-n800
 OpenBabel09191814033D

 10  9  0  0  0  0  0  0  0  0999 V2000
    6.3095    3.6289    2.9420 N   0  0  0  0  0  0  0  0  0  0  0  0
    7.2070    4.0624    3.4202 N   0  0  0  0  0  0  0  0  0  0  0  0
   -1.9700   -0.8296   -1.6202 C   0  0  0  0  0  0  0  0  0  0  0  0
   -3.2225   -0.2815   -1.6741 C   0  0  0  0  0  0  0  0  0  0  0  0
   -4.1570   -0.6221   -2.1017 H   0  0  0  0  0  0  0  0  0  0  0  0
   -3.0836    0.4245   -0.4767 C   0  0  0  0  0  0  0  0  0  0  0  0
   -3.8557    0.6498    0.2531 H   0  0  0  0  0  0  0  0  0  0  0  0
   -1.0237   -0.1624   -0.8706 C   0  0  0  0  0  0  0  0  0  0  0  0
    0.0565   -0.1079   -0.8471 H   0  0  0  0  0  0  0  0  0  0  0  0
   -1.7747    0.5119    0.0052 O   0  0  0  0  0  0  0  0  0  0  0  0
  1  2  3  0  0  0  0
  3  8  1  0  0  0  0
  4  3  1  0  0  0  0
  4  6  1  0  0  0  0
  5  4  1  0  0  0  0
  6 10  1  0  0  0  0
  6  7  1  0  0  0  0
  8  9  1  0  0  0  0
  8 10  1  0  0  0  0
M  RAD  4   3   3   4   2   6   2   8   2
M  END
