Coordinates from ORCA-job Furan-3-N2+-scan-d09-169-n800
 OpenBabel09191814033D

 10  9  0  0  0  0  0  0  0  0999 V2000
    2.3311    1.0063    0.2774 N   0  0  0  0  0  0  0  0  0  0  0  0
    3.4324    1.0818    0.3218 N   0  0  0  0  0  0  0  0  0  0  0  0
   -0.3866    0.5121    0.2517 C   0  0  0  0  0  0  0  0  0  0  0  0
   -0.9861   -0.3232   -0.6577 C   0  0  0  0  0  0  0  0  0  0  0  0
   -0.8236   -1.3573   -0.9297 H   0  0  0  0  0  0  0  0  0  0  0  0
   -2.2033    0.3482   -0.6491 C   0  0  0  0  0  0  0  0  0  0  0  0
   -3.1944   -0.0489   -0.8399 H   0  0  0  0  0  0  0  0  0  0  0  0
   -0.9192    1.7604    0.4340 C   0  0  0  0  0  0  0  0  0  0  0  0
   -0.5883    2.7109    0.8258 H   0  0  0  0  0  0  0  0  0  0  0  0
   -2.1760    1.5837   -0.0042 O   0  0  0  0  0  0  0  0  0  0  0  0
  1  2  3  0  0  0  0
  3  8  1  0  0  0  0
  4  6  1  0  0  0  0
  4  3  1  0  0  0  0
  5  4  1  0  0  0  0
  6 10  1  0  0  0  0
  7  6  1  0  0  0  0
  8  9  1  0  0  0  0
 10  8  1  0  0  0  0
M  RAD  4   3   3   4   2   6   2   8   2
M  END
