Coordinates from ORCA-job Furan-3-N2+-scan-d09-169-n800
 OpenBabel09191814033D

 10  9  0  0  0  0  0  0  0  0999 V2000
    2.2133    0.8268    0.2497 N   0  0  0  0  0  0  0  0  0  0  0  0
    3.3113    0.8229    0.3681 N   0  0  0  0  0  0  0  0  0  0  0  0
   -0.3128    0.8097   -0.0343 C   0  0  0  0  0  0  0  0  0  0  0  0
   -0.9256   -0.2973   -0.5906 C   0  0  0  0  0  0  0  0  0  0  0  0
   -0.5823   -1.2466   -0.9722 H   0  0  0  0  0  0  0  0  0  0  0  0
   -2.1892    0.2361   -0.4936 C   0  0  0  0  0  0  0  0  0  0  0  0
   -3.1532   -0.1652   -0.7765 H   0  0  0  0  0  0  0  0  0  0  0  0
   -0.9344    1.9124    0.3846 C   0  0  0  0  0  0  0  0  0  0  0  0
   -0.7387    2.8732    0.8304 H   0  0  0  0  0  0  0  0  0  0  0  0
   -2.2025    1.5019    0.0645 O   0  0  0  0  0  0  0  0  0  0  0  0
  1  2  3  0  0  0  0
  3  8  2  0  0  0  0
  4  6  2  0  0  0  0
  4  3  1  0  0  0  0
  5  4  1  0  0  0  0
  6 10  1  0  0  0  0
  7  6  1  0  0  0  0
  8  9  1  0  0  0  0
 10  8  1  0  0  0  0
M  RAD  1   3   2
M  END
