Coordinates from ORCA-job Furan-3-N2+-scan-d09-169-n800
 OpenBabel09191814033D

 10  9  0  0  0  0  0  0  0  0999 V2000
    5.7605    3.3537    2.6656 N   0  0  0  0  0  0  0  0  0  0  0  0
    6.6509    3.7978    3.1473 N   0  0  0  0  0  0  0  0  0  0  0  0
   -1.7931   -0.7513   -1.5407 C   0  0  0  0  0  0  0  0  0  0  0  0
   -3.0611   -0.2433   -1.6212 C   0  0  0  0  0  0  0  0  0  0  0  0
   -3.9755   -0.6147   -2.0660 H   0  0  0  0  0  0  0  0  0  0  0  0
   -2.9689    0.4704   -0.4238 C   0  0  0  0  0  0  0  0  0  0  0  0
   -3.7623    0.6724    0.2899 H   0  0  0  0  0  0  0  0  0  0  0  0
   -0.8843   -0.0511   -0.7747 C   0  0  0  0  0  0  0  0  0  0  0  0
    0.1930    0.0386   -0.7296 H   0  0  0  0  0  0  0  0  0  0  0  0
   -1.6733    0.6014    0.0835 O   0  0  0  0  0  0  0  0  0  0  0  0
  1  2  3  0  0  0  0
  3  8  1  0  0  0  0
  4  3  1  0  0  0  0
  4  6  1  0  0  0  0
  5  4  1  0  0  0  0
  6 10  1  0  0  0  0
  6  7  1  0  0  0  0
  8  9  1  0  0  0  0
  8 10  1  0  0  0  0
M  RAD  4   3   3   4   2   6   2   8   2
M  END
