Coordinates from ORCA-job Furan-3-N2+-scan-d09-169-n800
 OpenBabel09191814033D

 10  9  0  0  0  0  0  0  0  0999 V2000
    6.2099    3.5795    2.8915 N   0  0  0  0  0  0  0  0  0  0  0  0
    7.1065    4.0140    3.3702 N   0  0  0  0  0  0  0  0  0  0  0  0
   -1.9376   -0.8149   -1.6060 C   0  0  0  0  0  0  0  0  0  0  0  0
   -3.1930   -0.2741   -1.6650 C   0  0  0  0  0  0  0  0  0  0  0  0
   -4.1237   -0.6202   -2.0964 H   0  0  0  0  0  0  0  0  0  0  0  0
   -3.0631    0.4326   -0.4670 C   0  0  0  0  0  0  0  0  0  0  0  0
   -3.8395    0.6534    0.2596 H   0  0  0  0  0  0  0  0  0  0  0  0
   -0.9983   -0.1423   -0.8525 C   0  0  0  0  0  0  0  0  0  0  0  0
    0.0815   -0.0815   -0.8246 H   0  0  0  0  0  0  0  0  0  0  0  0
   -1.7567    0.5276    0.0203 O   0  0  0  0  0  0  0  0  0  0  0  0
  1  2  3  0  0  0  0
  3  8  1  0  0  0  0
  4  3  1  0  0  0  0
  4  6  1  0  0  0  0
  5  4  1  0  0  0  0
  6 10  1  0  0  0  0
  6  7  1  0  0  0  0
  8  9  1  0  0  0  0
  8 10  1  0  0  0  0
M  RAD  4   3   3   4   2   6   2   8   2
M  END
