Coordinates from ORCA-job Furan-3-N2+-scan-d09-169-n800
 OpenBabel09191814033D

 10  9  0  0  0  0  0  0  0  0999 V2000
    2.5750    1.5555    0.4857 N   0  0  0  0  0  0  0  0  0  0  0  0
    3.6626    1.7372    0.5575 N   0  0  0  0  0  0  0  0  0  0  0  0
   -0.5243    0.0832    0.1990 C   0  0  0  0  0  0  0  0  0  0  0  0
   -1.3279   -0.5542   -0.7077 C   0  0  0  0  0  0  0  0  0  0  0  0
   -1.4745   -1.5979   -0.9543 H   0  0  0  0  0  0  0  0  0  0  0  0
   -2.3237    0.4241   -0.6796 C   0  0  0  0  0  0  0  0  0  0  0  0
   -3.3947    0.2851   -0.7923 H   0  0  0  0  0  0  0  0  0  0  0  0
   -0.6871    1.4464    0.3296 C   0  0  0  0  0  0  0  0  0  0  0  0
   -0.0714    2.2679    0.6669 H   0  0  0  0  0  0  0  0  0  0  0  0
   -1.9480    1.6266   -0.0748 O   0  0  0  0  0  0  0  0  0  0  0  0
  1  2  3  0  0  0  0
  3  8  1  0  0  0  0
  4  6  1  0  0  0  0
  4  3  1  0  0  0  0
  5  4  1  0  0  0  0
  6 10  1  0  0  0  0
  7  6  1  0  0  0  0
  8  9  1  0  0  0  0
 10  8  1  0  0  0  0
M  RAD  4   3   3   4   2   6   2   8   2
M  END
