Coordinates from ORCA-job Furan-3-N2+-scan-d09-169-n800
 OpenBabel09191814033D

 10  9  0  0  0  0  0  0  0  0999 V2000
    9.3689    5.1185    4.4900 N   0  0  0  0  0  0  0  0  0  0  0  0
   10.2770    5.5432    4.9559 N   0  0  0  0  0  0  0  0  0  0  0  0
   -2.9614   -1.2605   -2.0314 C   0  0  0  0  0  0  0  0  0  0  0  0
   -4.1051   -0.5151   -1.9409 C   0  0  0  0  0  0  0  0  0  0  0  0
   -5.1295   -0.7002   -2.2382 H   0  0  0  0  0  0  0  0  0  0  0  0
   -3.7008    0.1642   -0.7891 C   0  0  0  0  0  0  0  0  0  0  0  0
   -4.3259    0.5161    0.0265 H   0  0  0  0  0  0  0  0  0  0  0  0
   -1.8311   -0.7538   -1.4248 C   0  0  0  0  0  0  0  0  0  0  0  0
   -0.7623   -0.8768   -1.5394 H   0  0  0  0  0  0  0  0  0  0  0  0
   -2.3440    0.0384   -0.4787 O   0  0  0  0  0  0  0  0  0  0  0  0
  1  2  3  0  0  0  0
  3  4  1  0  0  0  0
  3  8  1  0  0  0  0
  4  6  1  0  0  0  0
  5  4  1  0  0  0  0
  6 10  1  0  0  0  0
  6  7  1  0  0  0  0
  8 10  1  0  0  0  0
  9  8  1  0  0  0  0
M  RAD  4   3   3   4   2   6   2   8   2
M  END
