Coordinates from ORCA-job Furan-3-N2+-scan-d09-169-n800
 OpenBabel09191814033D

 10  9  0  0  0  0  0  0  0  0999 V2000
    5.3814    3.1599    2.4827 N   0  0  0  0  0  0  0  0  0  0  0  0
    6.2633    3.6253    2.9598 N   0  0  0  0  0  0  0  0  0  0  0  0
   -1.6765   -0.6989   -1.4869 C   0  0  0  0  0  0  0  0  0  0  0  0
   -2.9527   -0.2150   -1.5823 C   0  0  0  0  0  0  0  0  0  0  0  0
   -3.8556   -0.6050   -2.0349 H   0  0  0  0  0  0  0  0  0  0  0  0
   -2.8856    0.5041   -0.3865 C   0  0  0  0  0  0  0  0  0  0  0  0
   -3.6897    0.6941    0.3184 H   0  0  0  0  0  0  0  0  0  0  0  0
   -0.7879    0.0197   -0.7146 C   0  0  0  0  0  0  0  0  0  0  0  0
    0.2870    0.1292   -0.6590 H   0  0  0  0  0  0  0  0  0  0  0  0
   -1.5979    0.6604    0.1335 O   0  0  0  0  0  0  0  0  0  0  0  0
  1  2  3  0  0  0  0
  3  8  1  0  0  0  0
  4  3  1  0  0  0  0
  4  6  1  0  0  0  0
  5  4  1  0  0  0  0
  6 10  1  0  0  0  0
  6  7  1  0  0  0  0
  8  9  1  0  0  0  0
  8 10  1  0  0  0  0
M  RAD  4   3   3   4   2   6   2   8   2
M  END
