Coordinates from ORCA-job Furan-3-N2+-scan-d09-169-n800
 OpenBabel09191814033D

 10 10  0  0  0  0  0  0  0  0999 V2000
    1.7147    0.8217    0.1928 N   0  0  0  0  0  0  0  0  0  0  0  0
    2.8129    0.8113    0.3084 N   0  0  0  0  0  0  0  0  0  0  0  0
   -0.0949    0.8079   -0.0114 C   0  0  0  0  0  0  0  0  0  0  0  0
   -0.8099   -0.2693   -0.5654 C   0  0  0  0  0  0  0  0  0  0  0  0
   -0.4835   -1.2226   -0.9507 H   0  0  0  0  0  0  0  0  0  0  0  0
   -2.0730    0.2462   -0.4764 C   0  0  0  0  0  0  0  0  0  0  0  0
   -3.0378   -0.1498   -0.7572 H   0  0  0  0  0  0  0  0  0  0  0  0
   -0.8233    1.8807    0.3828 C   0  0  0  0  0  0  0  0  0  0  0  0
   -0.6389    2.8449    0.8289 H   0  0  0  0  0  0  0  0  0  0  0  0
   -2.0803    1.5030    0.0783 O   0  0  0  0  0  0  0  0  0  0  0  0
  1  2  1  0  0  0  0
  3  1  1  0  0  0  0
  3  8  2  0  0  0  0
  4  6  2  0  0  0  0
  4  3  1  0  0  0  0
  5  4  1  0  0  0  0
  6 10  1  0  0  0  0
  7  6  1  0  0  0  0
  8  9  1  0  0  0  0
 10  8  1  0  0  0  0
M  RAD  2   1   2   2   3
M  END
