Coordinates from ORCA-job Furan-3-N2+-scan-d09-169-n800
 OpenBabel09191814033D

 10  9  0  0  0  0  0  0  0  0999 V2000
    9.9910    5.4154    4.7806 N   0  0  0  0  0  0  0  0  0  0  0  0
   10.8920    5.8251    5.2730 N   0  0  0  0  0  0  0  0  0  0  0  0
   -3.1469   -1.3434   -2.1026 C   0  0  0  0  0  0  0  0  0  0  0  0
   -4.2746   -0.5761   -1.9954 C   0  0  0  0  0  0  0  0  0  0  0  0
   -5.3083   -0.7452   -2.2691 H   0  0  0  0  0  0  0  0  0  0  0  0
   -3.8337    0.1068   -0.8593 C   0  0  0  0  0  0  0  0  0  0  0  0
   -4.4347    0.4780   -0.0343 H   0  0  0  0  0  0  0  0  0  0  0  0
   -1.9949   -0.8512   -1.5252 C   0  0  0  0  0  0  0  0  0  0  0  0
   -0.9313   -0.9951   -1.6610 H   0  0  0  0  0  0  0  0  0  0  0  0
   -2.4728   -0.0404   -0.5766 O   0  0  0  0  0  0  0  0  0  0  0  0
  1  2  3  0  0  0  0
  3  4  1  0  0  0  0
  3  8  1  0  0  0  0
  4  6  1  0  0  0  0
  5  4  1  0  0  0  0
  6 10  1  0  0  0  0
  6  7  1  0  0  0  0
  8 10  1  0  0  0  0
  9  8  1  0  0  0  0
M  RAD  4   3   3   4   2   6   2   8   2
M  END
