Coordinates from ORCA-job Furan-3-N2+-scan-d09-169-n800
 OpenBabel09191814033D

 10  9  0  0  0  0  0  0  0  0999 V2000
    3.8352    2.3957    1.6674 N   0  0  0  0  0  0  0  0  0  0  0  0
    4.7209    2.8553    2.1429 N   0  0  0  0  0  0  0  0  0  0  0  0
   -1.1629   -0.4426   -1.2525 C   0  0  0  0  0  0  0  0  0  0  0  0
   -2.4661   -0.0765   -1.4520 C   0  0  0  0  0  0  0  0  0  0  0  0
   -3.2852   -0.5366   -1.9900 H   0  0  0  0  0  0  0  0  0  0  0  0
   -2.5715    0.6137   -0.2422 C   0  0  0  0  0  0  0  0  0  0  0  0
   -3.4480    0.7094    0.3920 H   0  0  0  0  0  0  0  0  0  0  0  0
   -0.4164    0.3359   -0.3916 C   0  0  0  0  0  0  0  0  0  0  0  0
    0.6343    0.5443   -0.2366 H   0  0  0  0  0  0  0  0  0  0  0  0
   -1.3544    0.8754    0.3926 O   0  0  0  0  0  0  0  0  0  0  0  0
  1  2  3  0  0  0  0
  3  8  1  0  0  0  0
  4  3  1  0  0  0  0
  4  6  1  0  0  0  0
  5  4  1  0  0  0  0
  6  7  1  0  0  0  0
  6 10  1  0  0  0  0
  8  9  1  0  0  0  0
  8 10  1  0  0  0  0
M  RAD  4   3   3   4   2   6   2   8   2
M  END
