Coordinates from ORCA-job Furan-3-N2+-scan-d09-169-n800
 OpenBabel09191814033D

 10  9  0  0  0  0  0  0  0  0999 V2000
    6.0725    3.5113    2.8218 N   0  0  0  0  0  0  0  0  0  0  0  0
    6.9677    3.9476    3.3017 N   0  0  0  0  0  0  0  0  0  0  0  0
   -1.8932   -0.7956   -1.5864 C   0  0  0  0  0  0  0  0  0  0  0  0
   -3.1524   -0.2642   -1.6521 C   0  0  0  0  0  0  0  0  0  0  0  0
   -4.0781   -0.6173   -2.0884 H   0  0  0  0  0  0  0  0  0  0  0  0
   -3.0345    0.4440   -0.4537 C   0  0  0  0  0  0  0  0  0  0  0  0
   -3.8166    0.6584    0.2688 H   0  0  0  0  0  0  0  0  0  0  0  0
   -0.9636   -0.1147   -0.8280 C   0  0  0  0  0  0  0  0  0  0  0  0
    0.1155   -0.0451   -0.7939 H   0  0  0  0  0  0  0  0  0  0  0  0
   -1.7315    0.5496    0.0403 O   0  0  0  0  0  0  0  0  0  0  0  0
  1  2  3  0  0  0  0
  3  8  1  0  0  0  0
  4  3  1  0  0  0  0
  4  6  1  0  0  0  0
  5  4  1  0  0  0  0
  6 10  1  0  0  0  0
  6  7  1  0  0  0  0
  8  9  1  0  0  0  0
  8 10  1  0  0  0  0
M  RAD  4   3   3   4   2   6   2   8   2
M  END
