Coordinates from ORCA-job Furan-3-N2+-scan-d09-169-n800
 OpenBabel09191814033D

 10  9  0  0  0  0  0  0  0  0999 V2000
   10.3812    5.5964    4.9696 N   0  0  0  0  0  0  0  0  0  0  0  0
   11.2811    6.0054    5.4646 N   0  0  0  0  0  0  0  0  0  0  0  0
   -3.2605   -1.3942   -2.1468 C   0  0  0  0  0  0  0  0  0  0  0  0
   -4.3800   -0.6161   -2.0308 C   0  0  0  0  0  0  0  0  0  0  0  0
   -5.4184   -0.7775   -2.2912 H   0  0  0  0  0  0  0  0  0  0  0  0
   -3.9195    0.0695   -0.9042 C   0  0  0  0  0  0  0  0  0  0  0  0
   -4.5072    0.4510   -0.0743 H   0  0  0  0  0  0  0  0  0  0  0  0
   -2.0974   -0.9090   -1.5862 C   0  0  0  0  0  0  0  0  0  0  0  0
   -1.0368   -1.0633   -1.7337 H   0  0  0  0  0  0  0  0  0  0  0  0
   -2.5567   -0.0883   -0.6369 O   0  0  0  0  0  0  0  0  0  0  0  0
  1  2  3  0  0  0  0
  3  4  1  0  0  0  0
  3  8  1  0  0  0  0
  4  6  1  0  0  0  0
  5  4  1  0  0  0  0
  6 10  1  0  0  0  0
  6  7  1  0  0  0  0
  8 10  1  0  0  0  0
  9  8  1  0  0  0  0
M  RAD  4   3   3   4   2   6   2   8   2
M  END
