Coordinates from ORCA-job Furan-3-N2+-scan-d09-169-n800
 OpenBabel09191814033D

 10  9  0  0  0  0  0  0  0  0999 V2000
    7.6943    4.3037    3.6493 N   0  0  0  0  0  0  0  0  0  0  0  0
    8.5962    4.7309    4.1246 N   0  0  0  0  0  0  0  0  0  0  0  0
   -2.4235   -1.0365   -1.8062 C   0  0  0  0  0  0  0  0  0  0  0  0
   -3.6334   -0.3980   -1.7876 C   0  0  0  0  0  0  0  0  0  0  0  0
   -4.6172   -0.6750   -2.1446 H   0  0  0  0  0  0  0  0  0  0  0  0
   -3.3620    0.3145   -0.6171 C   0  0  0  0  0  0  0  0  0  0  0  0
   -4.0641    0.6079    0.1579 H   0  0  0  0  0  0  0  0  0  0  0  0
   -1.3822   -0.4299   -1.1355 C   0  0  0  0  0  0  0  0  0  0  0  0
   -0.3017   -0.4553   -1.1852 H   0  0  0  0  0  0  0  0  0  0  0  0
   -2.0205    0.3118   -0.2254 O   0  0  0  0  0  0  0  0  0  0  0  0
  1  2  3  0  0  0  0
  3  4  1  0  0  0  0
  3  8  1  0  0  0  0
  4  6  1  0  0  0  0
  5  4  1  0  0  0  0
  6 10  1  0  0  0  0
  6  7  1  0  0  0  0
  8 10  1  0  0  0  0
  9  8  1  0  0  0  0
M  RAD  4   3   3   4   2   6   2   8   2
M  END
