Coordinates from ORCA-job Furan-3-N2+-scan-d09-169-n800
 OpenBabel09191814033D

 10  9  0  0  0  0  0  0  0  0999 V2000
    3.9052    2.4327    1.7073 N   0  0  0  0  0  0  0  0  0  0  0  0
    4.7903    2.8930    2.1831 N   0  0  0  0  0  0  0  0  0  0  0  0
   -1.1885   -0.4564   -1.2650 C   0  0  0  0  0  0  0  0  0  0  0  0
   -2.4904   -0.0824   -1.4575 C   0  0  0  0  0  0  0  0  0  0  0  0
   -3.3155   -0.5380   -1.9903 H   0  0  0  0  0  0  0  0  0  0  0  0
   -2.5845    0.6100   -0.2480 C   0  0  0  0  0  0  0  0  0  0  0  0
   -3.4568    0.7120    0.3911 H   0  0  0  0  0  0  0  0  0  0  0  0
   -0.4322    0.3183   -0.4093 C   0  0  0  0  0  0  0  0  0  0  0  0
    0.6206    0.5201   -0.2609 H   0  0  0  0  0  0  0  0  0  0  0  0
   -1.3622    0.8648    0.3796 O   0  0  0  0  0  0  0  0  0  0  0  0
  1  2  3  0  0  0  0
  3  8  1  0  0  0  0
  4  3  1  0  0  0  0
  4  6  1  0  0  0  0
  5  4  1  0  0  0  0
  6 10  1  0  0  0  0
  6  7  1  0  0  0  0
  8  9  1  0  0  0  0
  8 10  1  0  0  0  0
M  RAD  4   3   3   4   2   6   2   8   2
M  END
