Coordinates from ORCA-job Furan-3-N2+-scan-d09-169-n800
 OpenBabel09191814033D

 10  9  0  0  0  0  0  0  0  0999 V2000
    2.5157    1.1962    0.3452 N   0  0  0  0  0  0  0  0  0  0  0  0
    3.6135    1.3154    0.3865 N   0  0  0  0  0  0  0  0  0  0  0  0
   -0.4683    0.3495    0.2708 C   0  0  0  0  0  0  0  0  0  0  0  0
   -1.1134   -0.4092   -0.6700 C   0  0  0  0  0  0  0  0  0  0  0  0
   -1.0593   -1.4573   -0.9338 H   0  0  0  0  0  0  0  0  0  0  0  0
   -2.2638    0.3785   -0.6808 C   0  0  0  0  0  0  0  0  0  0  0  0
   -3.2868    0.0619   -0.8589 H   0  0  0  0  0  0  0  0  0  0  0  0
   -0.8759    1.6554    0.4167 C   0  0  0  0  0  0  0  0  0  0  0  0
   -0.4443    2.5697    0.7986 H   0  0  0  0  0  0  0  0  0  0  0  0
   -2.1316    1.6139   -0.0441 O   0  0  0  0  0  0  0  0  0  0  0  0
  1  2  3  0  0  0  0
  3  8  1  0  0  0  0
  4  3  1  0  0  0  0
  5  4  1  0  0  0  0
  6  4  1  0  0  0  0
  6 10  1  0  0  0  0
  7  6  1  0  0  0  0
  8  9  1  0  0  0  0
 10  8  1  0  0  0  0
M  RAD  4   3   3   4   2   6   2   8   2
M  END
