Coordinates from ORCA-job Furan-3-N2+-scan-d09-169-n800
 OpenBabel09191814033D

 10  9  0  0  0  0  0  0  0  0999 V2000
    7.2326    4.0792    3.4132 N   0  0  0  0  0  0  0  0  0  0  0  0
    8.1334    4.5076    3.8898 N   0  0  0  0  0  0  0  0  0  0  0  0
   -2.2717   -0.9679   -1.7454 C   0  0  0  0  0  0  0  0  0  0  0  0
   -3.4973   -0.3597   -1.7504 C   0  0  0  0  0  0  0  0  0  0  0  0
   -4.4656   -0.6586   -2.1313 H   0  0  0  0  0  0  0  0  0  0  0  0
   -3.2702    0.3516   -0.5697 C   0  0  0  0  0  0  0  0  0  0  0  0
   -3.9966    0.6227    0.1908 H   0  0  0  0  0  0  0  0  0  0  0  0
   -1.2611   -0.3401   -1.0475 C   0  0  0  0  0  0  0  0  0  0  0  0
   -0.1795   -0.3404   -1.0715 H   0  0  0  0  0  0  0  0  0  0  0  0
   -1.9381    0.3796   -0.1478 O   0  0  0  0  0  0  0  0  0  0  0  0
  1  2  3  0  0  0  0
  3  8  1  0  0  0  0
  4  3  1  0  0  0  0
  4  6  1  0  0  0  0
  5  4  1  0  0  0  0
  6 10  1  0  0  0  0
  6  7  1  0  0  0  0
  8 10  1  0  0  0  0
  9  8  1  0  0  0  0
M  RAD  4   3   3   4   2   6   2   8   2
M  END
