Coordinates from ORCA-job Furan-3-N2+-scan-d09-169-n800
 OpenBabel09191814033D

 10  9  0  0  0  0  0  0  0  0999 V2000
    5.4988    3.2133    2.5390 N   0  0  0  0  0  0  0  0  0  0  0  0
    6.3808    3.6787    3.0161 N   0  0  0  0  0  0  0  0  0  0  0  0
   -1.7104   -0.7143   -1.5018 C   0  0  0  0  0  0  0  0  0  0  0  0
   -2.9854   -0.2264   -1.5936 C   0  0  0  0  0  0  0  0  0  0  0  0
   -3.8909   -0.6140   -2.0430 H   0  0  0  0  0  0  0  0  0  0  0  0
   -2.9122    0.4935   -0.3987 C   0  0  0  0  0  0  0  0  0  0  0  0
   -3.7135    0.6867    0.3086 H   0  0  0  0  0  0  0  0  0  0  0  0
   -0.8171    0.0021   -0.7329 C   0  0  0  0  0  0  0  0  0  0  0  0
    0.2583    0.1082   -0.6807 H   0  0  0  0  0  0  0  0  0  0  0  0
   -1.6224    0.6462    0.1172 O   0  0  0  0  0  0  0  0  0  0  0  0
  1  2  3  0  0  0  0
  3  8  1  0  0  0  0
  4  3  1  0  0  0  0
  4  6  1  0  0  0  0
  5  4  1  0  0  0  0
  6 10  1  0  0  0  0
  6  7  1  0  0  0  0
  8  9  1  0  0  0  0
  8 10  1  0  0  0  0
M  RAD  4   3   3   4   2   6   2   8   2
M  END
