Coordinates from ORCA-job Furan-3-N2+-scan-d09-169-n800
 OpenBabel09191814033D

 10  9  0  0  0  0  0  0  0  0999 V2000
    2.4282    1.0461    0.3002 N   0  0  0  0  0  0  0  0  0  0  0  0
    3.5277    1.1435    0.3509 N   0  0  0  0  0  0  0  0  0  0  0  0
   -0.4168    0.4733    0.2522 C   0  0  0  0  0  0  0  0  0  0  0  0
   -1.0256   -0.3403   -0.6683 C   0  0  0  0  0  0  0  0  0  0  0  0
   -0.8890   -1.3788   -0.9391 H   0  0  0  0  0  0  0  0  0  0  0  0
   -2.2319    0.3547   -0.6568 C   0  0  0  0  0  0  0  0  0  0  0  0
   -3.2303   -0.0322   -0.8327 H   0  0  0  0  0  0  0  0  0  0  0  0
   -0.9247    1.7363    0.4254 C   0  0  0  0  0  0  0  0  0  0  0  0
   -0.5683    2.6807    0.8109 H   0  0  0  0  0  0  0  0  0  0  0  0
   -2.1834    1.5907   -0.0126 O   0  0  0  0  0  0  0  0  0  0  0  0
  1  2  3  0  0  0  0
  3  8  1  0  0  0  0
  4  6  1  0  0  0  0
  4  3  1  0  0  0  0
  5  4  1  0  0  0  0
  6 10  1  0  0  0  0
  7  6  1  0  0  0  0
  8  9  1  0  0  0  0
 10  8  1  0  0  0  0
M  RAD  4   3   3   4   2   6   2   8   2
M  END
