Coordinates from ORCA-job Furan-3-N2+-scan-d09-169-n800
 OpenBabel09191814033D

 10  9  0  0  0  0  0  0  0  0999 V2000
    4.1616    2.5689    1.8540 N   0  0  0  0  0  0  0  0  0  0  0  0
    5.0460    3.0310    2.3296 N   0  0  0  0  0  0  0  0  0  0  0  0
   -1.2823   -0.5066   -1.3102 C   0  0  0  0  0  0  0  0  0  0  0  0
   -2.5792   -0.1039   -1.4776 C   0  0  0  0  0  0  0  0  0  0  0  0
   -3.4253   -0.5428   -1.9909 H   0  0  0  0  0  0  0  0  0  0  0  0
   -2.6323    0.5958   -0.2697 C   0  0  0  0  0  0  0  0  0  0  0  0
   -3.4885    0.7205    0.3868 H   0  0  0  0  0  0  0  0  0  0  0  0
   -0.4912    0.2540   -0.4741 C   0  0  0  0  0  0  0  0  0  0  0  0
    0.5689    0.4318   -0.3493 H   0  0  0  0  0  0  0  0  0  0  0  0
   -1.3917    0.8252    0.3313 O   0  0  0  0  0  0  0  0  0  0  0  0
  1  2  3  0  0  0  0
  3  8  1  0  0  0  0
  4  3  1  0  0  0  0
  4  6  1  0  0  0  0
  5  4  1  0  0  0  0
  6 10  1  0  0  0  0
  6  7  1  0  0  0  0
  8  9  1  0  0  0  0
  8 10  1  0  0  0  0
M  RAD  4   3   3   4   2   6   2   8   2
M  END
