Coordinates from ORCA-job Furan-3-N2+-scan-d09-169-n800
 OpenBabel09191814033D

 10  9  0  0  0  0  0  0  0  0999 V2000
    8.9088    4.8996    4.2617 N   0  0  0  0  0  0  0  0  0  0  0  0
    9.8153    5.3257    4.7295 N   0  0  0  0  0  0  0  0  0  0  0  0
   -2.8201   -1.1998   -1.9746 C   0  0  0  0  0  0  0  0  0  0  0  0
   -3.9783   -0.4754   -1.8988 C   0  0  0  0  0  0  0  0  0  0  0  0
   -4.9947   -0.6778   -2.2121 H   0  0  0  0  0  0  0  0  0  0  0  0
   -3.6037    0.2069   -0.7388 C   0  0  0  0  0  0  0  0  0  0  0  0
   -4.2472    0.5448    0.0683 H   0  0  0  0  0  0  0  0  0  0  0  0
   -1.7084   -0.6753   -1.3491 C   0  0  0  0  0  0  0  0  0  0  0  0
   -0.6360   -0.7787   -1.4478 H   0  0  0  0  0  0  0  0  0  0  0  0
   -2.2497    0.1041   -0.4082 O   0  0  0  0  0  0  0  0  0  0  0  0
  1  2  3  0  0  0  0
  3  4  1  0  0  0  0
  3  8  1  0  0  0  0
  4  6  1  0  0  0  0
  5  4  1  0  0  0  0
  6 10  1  0  0  0  0
  6  7  1  0  0  0  0
  8 10  1  0  0  0  0
  9  8  1  0  0  0  0
M  RAD  4   3   3   4   2   6   2   8   2
M  END
