Coordinates from ORCA-job Furan-3-N2+-scan-d09-169-n800
 OpenBabel09191814033D

 10  9  0  0  0  0  0  0  0  0999 V2000
    5.9731    3.4613    2.7718 N   0  0  0  0  0  0  0  0  0  0  0  0
    6.8670    3.8993    3.2524 N   0  0  0  0  0  0  0  0  0  0  0  0
   -1.8610   -0.7807   -1.5716 C   0  0  0  0  0  0  0  0  0  0  0  0
   -3.1233   -0.2576   -1.6425 C   0  0  0  0  0  0  0  0  0  0  0  0
   -4.0452   -0.6171   -2.0817 H   0  0  0  0  0  0  0  0  0  0  0  0
   -3.0140    0.4522   -0.4442 C   0  0  0  0  0  0  0  0  0  0  0  0
   -3.7998    0.6629    0.2753 H   0  0  0  0  0  0  0  0  0  0  0  0
   -0.9380   -0.0942   -0.8107 C   0  0  0  0  0  0  0  0  0  0  0  0
    0.1406   -0.0182   -0.7732 H   0  0  0  0  0  0  0  0  0  0  0  0
   -1.7134    0.5659    0.0545 O   0  0  0  0  0  0  0  0  0  0  0  0
  1  2  3  0  0  0  0
  3  8  1  0  0  0  0
  4  3  1  0  0  0  0
  4  6  1  0  0  0  0
  5  4  1  0  0  0  0
  6 10  1  0  0  0  0
  6  7  1  0  0  0  0
  8  9  1  0  0  0  0
  8 10  1  0  0  0  0
M  RAD  4   3   3   4   2   6   2   8   2
M  END
