Coordinates from ORCA-job Furan-3-N2+-scan-d09-169-n800
 OpenBabel09191814033D

 10  9  0  0  0  0  0  0  0  0999 V2000
    9.4462    5.1551    4.5277 N   0  0  0  0  0  0  0  0  0  0  0  0
   10.3543    5.5794    4.9938 N   0  0  0  0  0  0  0  0  0  0  0  0
   -2.9846   -1.2702   -2.0410 C   0  0  0  0  0  0  0  0  0  0  0  0
   -4.1261   -0.5217   -1.9482 C   0  0  0  0  0  0  0  0  0  0  0  0
   -5.1517   -0.7042   -2.2432 H   0  0  0  0  0  0  0  0  0  0  0  0
   -3.7174    0.1568   -0.7975 C   0  0  0  0  0  0  0  0  0  0  0  0
   -4.3397    0.5107    0.0193 H   0  0  0  0  0  0  0  0  0  0  0  0
   -1.8515   -0.7664   -1.4371 C   0  0  0  0  0  0  0  0  0  0  0  0
   -0.7834   -0.8929   -1.5536 H   0  0  0  0  0  0  0  0  0  0  0  0
   -2.3602    0.0275   -0.4901 O   0  0  0  0  0  0  0  0  0  0  0  0
  1  2  3  0  0  0  0
  3  4  1  0  0  0  0
  3  8  1  0  0  0  0
  4  6  1  0  0  0  0
  5  4  1  0  0  0  0
  6 10  1  0  0  0  0
  6  7  1  0  0  0  0
  8 10  1  0  0  0  0
  9  8  1  0  0  0  0
M  RAD  4   3   3   4   2   6   2   8   2
M  END
