Coordinates from ORCA-job Furan-3-N2+-scan-d09-169-n800
 OpenBabel09191814033D

 10  9  0  0  0  0  0  0  0  0999 V2000
    3.9749    2.4699    1.7473 N   0  0  0  0  0  0  0  0  0  0  0  0
    4.8597    2.9308    2.2232 N   0  0  0  0  0  0  0  0  0  0  0  0
   -1.2141   -0.4702   -1.2775 C   0  0  0  0  0  0  0  0  0  0  0  0
   -2.5148   -0.0882   -1.4630 C   0  0  0  0  0  0  0  0  0  0  0  0
   -3.3457   -0.5392   -1.9904 H   0  0  0  0  0  0  0  0  0  0  0  0
   -2.5975    0.6062   -0.2538 C   0  0  0  0  0  0  0  0  0  0  0  0
   -3.4654    0.7145    0.3901 H   0  0  0  0  0  0  0  0  0  0  0  0
   -0.4481    0.3005   -0.4271 C   0  0  0  0  0  0  0  0  0  0  0  0
    0.6069    0.4957   -0.2853 H   0  0  0  0  0  0  0  0  0  0  0  0
   -1.3700    0.8540    0.3665 O   0  0  0  0  0  0  0  0  0  0  0  0
  1  2  3  0  0  0  0
  3  8  1  0  0  0  0
  4  3  1  0  0  0  0
  4  6  1  0  0  0  0
  5  4  1  0  0  0  0
  6 10  1  0  0  0  0
  6  7  1  0  0  0  0
  8  9  1  0  0  0  0
  8 10  1  0  0  0  0
M  RAD  4   3   3   4   2   6   2   8   2
M  END
