Coordinates from ORCA-job Furan-3-N2+-scan-d09-169-n800
 OpenBabel09191814033D

 10  9  0  0  0  0  0  0  0  0999 V2000
    4.0098    2.4884    1.7673 N   0  0  0  0  0  0  0  0  0  0  0  0
    4.8944    2.9497    2.2433 N   0  0  0  0  0  0  0  0  0  0  0  0
   -1.2269   -0.4771   -1.2837 C   0  0  0  0  0  0  0  0  0  0  0  0
   -2.5269   -0.0911   -1.4657 C   0  0  0  0  0  0  0  0  0  0  0  0
   -3.3608   -0.5398   -1.9905 H   0  0  0  0  0  0  0  0  0  0  0  0
   -2.6039    0.6043   -0.2567 C   0  0  0  0  0  0  0  0  0  0  0  0
   -3.4696    0.7158    0.3896 H   0  0  0  0  0  0  0  0  0  0  0  0
   -0.4561    0.2917   -0.4360 C   0  0  0  0  0  0  0  0  0  0  0  0
    0.5999    0.4835   -0.2975 H   0  0  0  0  0  0  0  0  0  0  0  0
   -1.3739    0.8486    0.3599 O   0  0  0  0  0  0  0  0  0  0  0  0
  1  2  3  0  0  0  0
  3  8  1  0  0  0  0
  4  3  1  0  0  0  0
  4  6  1  0  0  0  0
  5  4  1  0  0  0  0
  6 10  1  0  0  0  0
  6  7  1  0  0  0  0
  8  9  1  0  0  0  0
  8 10  1  0  0  0  0
M  RAD  4   3   3   4   2   6   2   8   2
M  END
