Coordinates from ORCA-job Furan-3-N2+-scan-d09-169-n800
 OpenBabel09191814033D

 10  9  0  0  0  0  0  0  0  0999 V2000
    1.8460    0.8224    0.2075 N   0  0  0  0  0  0  0  0  0  0  0  0
    2.9436    0.8139    0.3238 N   0  0  0  0  0  0  0  0  0  0  0  0
   -0.1627    0.8089   -0.0184 C   0  0  0  0  0  0  0  0  0  0  0  0
   -0.8387   -0.2795   -0.5731 C   0  0  0  0  0  0  0  0  0  0  0  0
   -0.5076   -1.2315   -0.9573 H   0  0  0  0  0  0  0  0  0  0  0  0
   -2.1023    0.2440   -0.4806 C   0  0  0  0  0  0  0  0  0  0  0  0
   -3.0661   -0.1551   -0.7626 H   0  0  0  0  0  0  0  0  0  0  0  0
   -0.8510    1.8929    0.3851 C   0  0  0  0  0  0  0  0  0  0  0  0
   -0.6626    2.8556    0.8310 H   0  0  0  0  0  0  0  0  0  0  0  0
   -2.1128    1.5026    0.0747 O   0  0  0  0  0  0  0  0  0  0  0  0
  1  2  3  0  0  0  0
  3  8  2  0  0  0  0
  4  6  2  0  0  0  0
  4  3  1  0  0  0  0
  5  4  1  0  0  0  0
  6 10  1  0  0  0  0
  7  6  1  0  0  0  0
  8  9  1  0  0  0  0
 10  8  1  0  0  0  0
M  RAD  1   3   2
M  END
