Coordinates from ORCA-job Furan-3-N2+-scan-d09-169-n800
 OpenBabel09191814033D

 10  9  0  0  0  0  0  0  0  0999 V2000
    2.9853    1.9708    1.2115 N   0  0  0  0  0  0  0  0  0  0  0  0
    3.8711    2.4246    1.6913 N   0  0  0  0  0  0  0  0  0  0  0  0
   -0.8776   -0.2933   -1.1135 C   0  0  0  0  0  0  0  0  0  0  0  0
   -2.1887   -0.0029   -1.3769 C   0  0  0  0  0  0  0  0  0  0  0  0
   -2.9498   -0.5053   -1.9601 H   0  0  0  0  0  0  0  0  0  0  0  0
   -2.3968    0.6664   -0.1692 C   0  0  0  0  0  0  0  0  0  0  0  0
   -3.3085    0.7038    0.4197 H   0  0  0  0  0  0  0  0  0  0  0  0
   -0.2220    0.5214   -0.2103 C   0  0  0  0  0  0  0  0  0  0  0  0
    0.8045    0.7952    0.0089 H   0  0  0  0  0  0  0  0  0  0  0  0
   -1.2315    0.9934    0.5286 O   0  0  0  0  0  0  0  0  0  0  0  0
  1  2  3  0  0  0  0
  3  8  1  0  0  0  0
  4  3  1  0  0  0  0
  4  6  1  0  0  0  0
  5  4  1  0  0  0  0
  6  7  1  0  0  0  0
  6 10  1  0  0  0  0
  8  9  1  0  0  0  0
  8 10  1  0  0  0  0
M  RAD  4   3   3   4   2   6   2   8   2
M  END
