Coordinates from ORCA-job Furan-3-N2+-scan-d09-169-n800
 OpenBabel09191814033D

 10  9  0  0  0  0  0  0  0  0999 V2000
    8.8073    4.8508    4.2108 N   0  0  0  0  0  0  0  0  0  0  0  0
    9.7132    5.2773    4.6793 N   0  0  0  0  0  0  0  0  0  0  0  0
   -2.7883   -1.1862   -1.9617 C   0  0  0  0  0  0  0  0  0  0  0  0
   -3.9500   -0.4671   -1.8897 C   0  0  0  0  0  0  0  0  0  0  0  0
   -4.9643   -0.6738   -2.2068 H   0  0  0  0  0  0  0  0  0  0  0  0
   -3.5827    0.2161   -0.7279 C   0  0  0  0  0  0  0  0  0  0  0  0
   -4.2306    0.5506    0.0771 H   0  0  0  0  0  0  0  0  0  0  0  0
   -1.6813   -0.6572   -1.3319 C   0  0  0  0  0  0  0  0  0  0  0  0
   -0.6081   -0.7557   -1.4268 H   0  0  0  0  0  0  0  0  0  0  0  0
   -2.2294    0.1192   -0.3924 O   0  0  0  0  0  0  0  0  0  0  0  0
  1  2  3  0  0  0  0
  3  4  1  0  0  0  0
  3  8  1  0  0  0  0
  4  6  1  0  0  0  0
  5  4  1  0  0  0  0
  6 10  1  0  0  0  0
  6  7  1  0  0  0  0
  8 10  1  0  0  0  0
  9  8  1  0  0  0  0
M  RAD  4   3   3   4   2   6   2   8   2
M  END
