Coordinates from ORCA-job Furan-3-N2+-scan-d09-169-n800
 OpenBabel09191814033D

 10  9  0  0  0  0  0  0  0  0999 V2000
    5.8854    3.4173    2.7277 N   0  0  0  0  0  0  0  0  0  0  0  0
    6.7780    3.8573    3.2091 N   0  0  0  0  0  0  0  0  0  0  0  0
   -1.8329   -0.7689   -1.5591 C   0  0  0  0  0  0  0  0  0  0  0  0
   -3.0975   -0.2515   -1.6338 C   0  0  0  0  0  0  0  0  0  0  0  0
   -4.0164   -0.6155   -2.0756 H   0  0  0  0  0  0  0  0  0  0  0  0
   -2.9954    0.4597   -0.4358 C   0  0  0  0  0  0  0  0  0  0  0  0
   -3.7845    0.6665    0.2813 H   0  0  0  0  0  0  0  0  0  0  0  0
   -0.9161   -0.0765   -0.7956 C   0  0  0  0  0  0  0  0  0  0  0  0
    0.1620    0.0051   -0.7547 H   0  0  0  0  0  0  0  0  0  0  0  0
   -1.6968    0.5804    0.0666 O   0  0  0  0  0  0  0  0  0  0  0  0
  1  2  3  0  0  0  0
  3  8  1  0  0  0  0
  4  3  1  0  0  0  0
  4  6  1  0  0  0  0
  5  4  1  0  0  0  0
  6 10  1  0  0  0  0
  6  7  1  0  0  0  0
  8  9  1  0  0  0  0
  8 10  1  0  0  0  0
M  RAD  4   3   3   4   2   6   2   8   2
M  END
