Coordinates from ORCA-job Furan-3-N2+-scan-d09-169-n800
 OpenBabel09191814033D

 10  9  0  0  0  0  0  0  0  0999 V2000
    7.2197    4.0732    3.4066 N   0  0  0  0  0  0  0  0  0  0  0  0
    8.1203    4.5016    3.8833 N   0  0  0  0  0  0  0  0  0  0  0  0
   -2.2677   -0.9666   -1.7440 C   0  0  0  0  0  0  0  0  0  0  0  0
   -3.4933   -0.3582   -1.7494 C   0  0  0  0  0  0  0  0  0  0  0  0
   -4.4614   -0.6570   -2.1311 H   0  0  0  0  0  0  0  0  0  0  0  0
   -3.2673    0.3527   -0.5683 C   0  0  0  0  0  0  0  0  0  0  0  0
   -3.9945    0.6229    0.1919 H   0  0  0  0  0  0  0  0  0  0  0  0
   -1.2581   -0.3380   -1.0452 C   0  0  0  0  0  0  0  0  0  0  0  0
   -0.1764   -0.3377   -1.0681 H   0  0  0  0  0  0  0  0  0  0  0  0
   -1.9354    0.3812   -0.1456 O   0  0  0  0  0  0  0  0  0  0  0  0
  1  2  3  0  0  0  0
  3  8  1  0  0  0  0
  4  3  1  0  0  0  0
  4  6  1  0  0  0  0
  5  4  1  0  0  0  0
  6 10  1  0  0  0  0
  6  7  1  0  0  0  0
  8 10  1  0  0  0  0
  9  8  1  0  0  0  0
M  RAD  4   3   3   4   2   6   2   8   2
M  END
