Coordinates from ORCA-job Furan-3-N2+-scan-d09-169-n800
 OpenBabel09191814033D

 10  9  0  0  0  0  0  0  0  0999 V2000
    7.3946    4.1579    3.4961 N   0  0  0  0  0  0  0  0  0  0  0  0
    8.2958    4.5856    3.9725 N   0  0  0  0  0  0  0  0  0  0  0  0
   -2.3248   -0.9929   -1.7667 C   0  0  0  0  0  0  0  0  0  0  0  0
   -3.5452   -0.3739   -1.7631 C   0  0  0  0  0  0  0  0  0  0  0  0
   -4.5191   -0.6655   -2.1352 H   0  0  0  0  0  0  0  0  0  0  0  0
   -3.3025    0.3389   -0.5865 C   0  0  0  0  0  0  0  0  0  0  0  0
   -4.0204    0.6177    0.1793 H   0  0  0  0  0  0  0  0  0  0  0  0
   -1.3037   -0.3708   -1.0790 C   0  0  0  0  0  0  0  0  0  0  0  0
   -0.2222   -0.3800   -1.1116 H   0  0  0  0  0  0  0  0  0  0  0  0
   -1.9666    0.3571   -0.1758 O   0  0  0  0  0  0  0  0  0  0  0  0
  1  2  3  0  0  0  0
  3  4  1  0  0  0  0
  3  8  1  0  0  0  0
  4  6  1  0  0  0  0
  5  4  1  0  0  0  0
  6 10  1  0  0  0  0
  6  7  1  0  0  0  0
  8 10  1  0  0  0  0
  9  8  1  0  0  0  0
M  RAD  4   3   3   4   2   6   2   8   2
M  END
