Coordinates from ORCA-job Furan-3-N2+-scan-d09-169-n800
 OpenBabel09191814033D

 10  9  0  0  0  0  0  0  0  0999 V2000
    7.2696    4.0974    3.4322 N   0  0  0  0  0  0  0  0  0  0  0  0
    8.1705    4.5256    3.9088 N   0  0  0  0  0  0  0  0  0  0  0  0
   -2.2840   -0.9741   -1.7505 C   0  0  0  0  0  0  0  0  0  0  0  0
   -3.5082   -0.3627   -1.7533 C   0  0  0  0  0  0  0  0  0  0  0  0
   -4.4779   -0.6594   -2.1323 H   0  0  0  0  0  0  0  0  0  0  0  0
   -3.2774    0.3488   -0.5735 C   0  0  0  0  0  0  0  0  0  0  0  0
   -4.0019    0.6214    0.1884 H   0  0  0  0  0  0  0  0  0  0  0  0
   -1.2711   -0.3474   -1.0548 C   0  0  0  0  0  0  0  0  0  0  0  0
   -0.1895   -0.3499   -1.0806 H   0  0  0  0  0  0  0  0  0  0  0  0
   -1.9443    0.3743   -0.1542 O   0  0  0  0  0  0  0  0  0  0  0  0
  1  2  3  0  0  0  0
  3  8  1  0  0  0  0
  4  3  1  0  0  0  0
  4  6  1  0  0  0  0
  5  4  1  0  0  0  0
  6 10  1  0  0  0  0
  6  7  1  0  0  0  0
  8 10  1  0  0  0  0
  9  8  1  0  0  0  0
M  RAD  4   3   3   4   2   6   2   8   2
M  END
