Coordinates from ORCA-job Furan-3-N2+-scan-d09-169-n800
 OpenBabel09191814033D

 10  9  0  0  0  0  0  0  0  0999 V2000
    8.6934    4.7957    4.1536 N   0  0  0  0  0  0  0  0  0  0  0  0
    9.5986    5.2228    4.6230 N   0  0  0  0  0  0  0  0  0  0  0  0
   -2.7523   -1.1710   -1.9471 C   0  0  0  0  0  0  0  0  0  0  0  0
   -3.9181   -0.4580   -1.8794 C   0  0  0  0  0  0  0  0  0  0  0  0
   -4.9300   -0.6698   -2.2009 H   0  0  0  0  0  0  0  0  0  0  0  0
   -3.5592    0.2264   -0.7157 C   0  0  0  0  0  0  0  0  0  0  0  0
   -4.2122    0.5569    0.0867 H   0  0  0  0  0  0  0  0  0  0  0  0
   -1.6507   -0.6365   -1.3124 C   0  0  0  0  0  0  0  0  0  0  0  0
   -0.5766   -0.7292   -1.4029 H   0  0  0  0  0  0  0  0  0  0  0  0
   -2.2068    0.1364   -0.3747 O   0  0  0  0  0  0  0  0  0  0  0  0
  1  2  3  0  0  0  0
  3  4  1  0  0  0  0
  3  8  1  0  0  0  0
  4  6  1  0  0  0  0
  5  4  1  0  0  0  0
  6 10  1  0  0  0  0
  6  7  1  0  0  0  0
  8 10  1  0  0  0  0
  9  8  1  0  0  0  0
M  RAD  4   3   3   4   2   6   2   8   2
M  END
