Coordinates from ORCA-job Furan-3-N2+-scan-d09-169-n800
 OpenBabel09191814033D

 10  9  0  0  0  0  0  0  0  0999 V2000
    5.5360    3.2344    2.5563 N   0  0  0  0  0  0  0  0  0  0  0  0
    6.4196    3.6949    3.0351 N   0  0  0  0  0  0  0  0  0  0  0  0
   -1.7220   -0.7200   -1.5076 C   0  0  0  0  0  0  0  0  0  0  0  0
   -2.9959   -0.2288   -1.5976 C   0  0  0  0  0  0  0  0  0  0  0  0
   -3.9028   -0.6135   -2.0467 H   0  0  0  0  0  0  0  0  0  0  0  0
   -2.9204    0.4902   -0.4022 C   0  0  0  0  0  0  0  0  0  0  0  0
   -3.7207    0.6844    0.3059 H   0  0  0  0  0  0  0  0  0  0  0  0
   -0.8270   -0.0055   -0.7385 C   0  0  0  0  0  0  0  0  0  0  0  0
    0.2487    0.0983   -0.6871 H   0  0  0  0  0  0  0  0  0  0  0  0
   -1.6297    0.6397    0.1125 O   0  0  0  0  0  0  0  0  0  0  0  0
  1  2  3  0  0  0  0
  3  8  1  0  0  0  0
  4  3  1  0  0  0  0
  4  6  1  0  0  0  0
  5  4  1  0  0  0  0
  6 10  1  0  0  0  0
  6  7  1  0  0  0  0
  8  9  1  0  0  0  0
  8 10  1  0  0  0  0
M  RAD  4   3   3   4   2   6   2   8   2
M  END
