Coordinates from ORCA-job Furan-3-N2+-scan-d09-169-n800
 OpenBabel09191814033D

 10  9  0  0  0  0  0  0  0  0999 V2000
    6.2597    3.6043    2.9167 N   0  0  0  0  0  0  0  0  0  0  0  0
    7.1568    4.0382    3.3952 N   0  0  0  0  0  0  0  0  0  0  0  0
   -1.9538   -0.8222   -1.6131 C   0  0  0  0  0  0  0  0  0  0  0  0
   -3.2077   -0.2778   -1.6696 C   0  0  0  0  0  0  0  0  0  0  0  0
   -4.1404   -0.6211   -2.0991 H   0  0  0  0  0  0  0  0  0  0  0  0
   -3.0734    0.4285   -0.4719 C   0  0  0  0  0  0  0  0  0  0  0  0
   -3.8477    0.6516    0.2564 H   0  0  0  0  0  0  0  0  0  0  0  0
   -1.0110   -0.1524   -0.8616 C   0  0  0  0  0  0  0  0  0  0  0  0
    0.0690   -0.0947   -0.8358 H   0  0  0  0  0  0  0  0  0  0  0  0
   -1.7657    0.5197    0.0128 O   0  0  0  0  0  0  0  0  0  0  0  0
  1  2  3  0  0  0  0
  3  8  1  0  0  0  0
  4  3  1  0  0  0  0
  4  6  1  0  0  0  0
  5  4  1  0  0  0  0
  6 10  1  0  0  0  0
  6  7  1  0  0  0  0
  8  9  1  0  0  0  0
  8 10  1  0  0  0  0
M  RAD  4   3   3   4   2   6   2   8   2
M  END
