Coordinates from ORCA-job Furan-3-N2+-scan-d09-169-n800
 OpenBabel09191814033D

 10  9  0  0  0  0  0  0  0  0999 V2000
    2.1978    0.8265    0.2479 N   0  0  0  0  0  0  0  0  0  0  0  0
    3.2958    0.8225    0.3664 N   0  0  0  0  0  0  0  0  0  0  0  0
   -0.3083    0.8097   -0.0339 C   0  0  0  0  0  0  0  0  0  0  0  0
   -0.9217   -0.2970   -0.5903 C   0  0  0  0  0  0  0  0  0  0  0  0
   -0.5786   -1.2462   -0.9720 H   0  0  0  0  0  0  0  0  0  0  0  0
   -2.1855    0.2362   -0.4929 C   0  0  0  0  0  0  0  0  0  0  0  0
   -3.1495   -0.1651   -0.7756 H   0  0  0  0  0  0  0  0  0  0  0  0
   -0.9305    1.9123    0.3849 C   0  0  0  0  0  0  0  0  0  0  0  0
   -0.7349    2.8730    0.8308 H   0  0  0  0  0  0  0  0  0  0  0  0
   -2.1987    1.5022    0.0646 O   0  0  0  0  0  0  0  0  0  0  0  0
  1  2  3  0  0  0  0
  3  8  2  0  0  0  0
  4  6  2  0  0  0  0
  4  3  1  0  0  0  0
  5  4  1  0  0  0  0
  6 10  1  0  0  0  0
  7  6  1  0  0  0  0
  8  9  1  0  0  0  0
 10  8  1  0  0  0  0
M  RAD  1   3   2
M  END
