Coordinates from ORCA-job Furan-3-N2+-scan-d09-169-n800
 OpenBabel09191814033D

 10  9  0  0  0  0  0  0  0  0999 V2000
    1.9550    0.8231    0.2197 N   0  0  0  0  0  0  0  0  0  0  0  0
    3.0526    0.8162    0.3369 N   0  0  0  0  0  0  0  0  0  0  0  0
   -0.2130    0.8095   -0.0236 C   0  0  0  0  0  0  0  0  0  0  0  0
   -0.8637   -0.2864   -0.5789 C   0  0  0  0  0  0  0  0  0  0  0  0
   -0.5284   -1.2373   -0.9622 H   0  0  0  0  0  0  0  0  0  0  0  0
   -2.1274    0.2416   -0.4843 C   0  0  0  0  0  0  0  0  0  0  0  0
   -3.0910   -0.1589   -0.7669 H   0  0  0  0  0  0  0  0  0  0  0  0
   -0.8749    1.9010    0.3860 C   0  0  0  0  0  0  0  0  0  0  0  0
   -0.6837    2.8628    0.8318 H   0  0  0  0  0  0  0  0  0  0  0  0
   -2.1395    1.5026    0.0717 O   0  0  0  0  0  0  0  0  0  0  0  0
  1  2  3  0  0  0  0
  3  8  2  0  0  0  0
  4  6  2  0  0  0  0
  4  3  1  0  0  0  0
  5  4  1  0  0  0  0
  6 10  1  0  0  0  0
  7  6  1  0  0  0  0
  8  9  1  0  0  0  0
 10  8  1  0  0  0  0
M  RAD  1   3   2
M  END
