Coordinates from ORCA-job Furan-3-N2+-scan-d09-169-n800
 OpenBabel09191814033D

 10  9  0  0  0  0  0  0  0  0999 V2000
    6.9702    3.9519    3.2787 N   0  0  0  0  0  0  0  0  0  0  0  0
    7.8701    4.3814    3.7560 N   0  0  0  0  0  0  0  0  0  0  0  0
   -2.1859   -0.9289   -1.7111 C   0  0  0  0  0  0  0  0  0  0  0  0
   -3.4191   -0.3363   -1.7296 C   0  0  0  0  0  0  0  0  0  0  0  0
   -4.3783   -0.6459   -2.1249 H   0  0  0  0  0  0  0  0  0  0  0  0
   -3.2173    0.3723   -0.5427 C   0  0  0  0  0  0  0  0  0  0  0  0
   -3.9575    0.6298    0.2093 H   0  0  0  0  0  0  0  0  0  0  0  0
   -1.1935   -0.2904   -0.9967 C   0  0  0  0  0  0  0  0  0  0  0  0
   -0.1116   -0.2761   -1.0058 H   0  0  0  0  0  0  0  0  0  0  0  0
   -1.8914    0.4161   -0.1030 O   0  0  0  0  0  0  0  0  0  0  0  0
  1  2  3  0  0  0  0
  3  8  1  0  0  0  0
  4  3  1  0  0  0  0
  4  6  1  0  0  0  0
  5  4  1  0  0  0  0
  6 10  1  0  0  0  0
  6  7  1  0  0  0  0
  8 10  1  0  0  0  0
  9  8  1  0  0  0  0
M  RAD  4   3   3   4   2   6   2   8   2
M  END
