Coordinates from ORCA-job Furan-3-N2+-scan-d09-169-n800
 OpenBabel09191814033D

 10  9  0  0  0  0  0  0  0  0999 V2000
    2.6132    2.2428    0.7414 N   0  0  0  0  0  0  0  0  0  0  0  0
    3.5876    2.7117    0.9662 N   0  0  0  0  0  0  0  0  0  0  0  0
   -0.6686   -0.4560   -0.0625 C   0  0  0  0  0  0  0  0  0  0  0  0
   -1.7898   -0.7159   -0.8036 C   0  0  0  0  0  0  0  0  0  0  0  0
   -2.3393   -1.6250   -1.0114 H   0  0  0  0  0  0  0  0  0  0  0  0
   -2.3502    0.5464   -0.5990 C   0  0  0  0  0  0  0  0  0  0  0  0
   -3.4028    0.7993   -0.5145 H   0  0  0  0  0  0  0  0  0  0  0  0
   -0.3048    0.8660    0.0862 C   0  0  0  0  0  0  0  0  0  0  0  0
    0.6119    1.4046    0.3062 H   0  0  0  0  0  0  0  0  0  0  0  0
   -1.4714    1.5001   -0.0788 O   0  0  0  0  0  0  0  0  0  0  0  0
  1  2  3  0  0  0  0
  3  8  1  0  0  0  0
  4  6  1  0  0  0  0
  4  3  1  0  0  0  0
  5  4  1  0  0  0  0
  6  7  1  0  0  0  0
  6 10  1  0  0  0  0
  8  9  1  0  0  0  0
 10  8  1  0  0  0  0
M  RAD  4   3   3   4   2   6   2   8   2
M  END
