Coordinates from ORCA-job Furan-3-N2+-scan-d09-169-n800
 OpenBabel09191814033D

 10 10  0  0  0  0  0  0  0  0999 V2000
    1.6889    0.8215    0.1899 N   0  0  0  0  0  0  0  0  0  0  0  0
    2.7875    0.8108    0.3054 N   0  0  0  0  0  0  0  0  0  0  0  0
   -0.0809    0.8077   -0.0100 C   0  0  0  0  0  0  0  0  0  0  0  0
   -0.8044   -0.2670   -0.5639 C   0  0  0  0  0  0  0  0  0  0  0  0
   -0.4788   -1.2206   -0.9494 H   0  0  0  0  0  0  0  0  0  0  0  0
   -2.0674    0.2464   -0.4756 C   0  0  0  0  0  0  0  0  0  0  0  0
   -3.0325   -0.1488   -0.7560 H   0  0  0  0  0  0  0  0  0  0  0  0
   -0.8181    1.8781    0.3822 C   0  0  0  0  0  0  0  0  0  0  0  0
   -0.6345    2.8427    0.8284 H   0  0  0  0  0  0  0  0  0  0  0  0
   -2.0739    1.5032    0.0790 O   0  0  0  0  0  0  0  0  0  0  0  0
  1  2  1  0  0  0  0
  3  1  1  0  0  0  0
  3  8  2  0  0  0  0
  4  6  2  0  0  0  0
  4  3  1  0  0  0  0
  5  4  1  0  0  0  0
  6 10  1  0  0  0  0
  7  6  1  0  0  0  0
  8  9  1  0  0  0  0
 10  8  1  0  0  0  0
M  RAD  2   1   2   2   3
M  END
