Coordinates from ORCA-job Furan-3-N2+-scan-d09-169-n800
 OpenBabel09191814033D

 10  9  0  0  0  0  0  0  0  0999 V2000
    7.0700    4.0005    3.3298 N   0  0  0  0  0  0  0  0  0  0  0  0
    7.9702    4.4295    3.8069 N   0  0  0  0  0  0  0  0  0  0  0  0
   -2.2186   -0.9440   -1.7243 C   0  0  0  0  0  0  0  0  0  0  0  0
   -3.4488   -0.3450   -1.7375 C   0  0  0  0  0  0  0  0  0  0  0  0
   -4.4116   -0.6502   -2.1275 H   0  0  0  0  0  0  0  0  0  0  0  0
   -3.2373    0.3645   -0.5529 C   0  0  0  0  0  0  0  0  0  0  0  0
   -3.9723    0.6270    0.2024 H   0  0  0  0  0  0  0  0  0  0  0  0
   -1.2193   -0.3095   -1.0161 C   0  0  0  0  0  0  0  0  0  0  0  0
   -0.1375   -0.3009   -1.0307 H   0  0  0  0  0  0  0  0  0  0  0  0
   -1.9089    0.4021   -0.1200 O   0  0  0  0  0  0  0  0  0  0  0  0
  1  2  3  0  0  0  0
  3  8  1  0  0  0  0
  4  3  1  0  0  0  0
  4  6  1  0  0  0  0
  5  4  1  0  0  0  0
  6 10  1  0  0  0  0
  6  7  1  0  0  0  0
  8 10  1  0  0  0  0
  9  8  1  0  0  0  0
M  RAD  4   3   3   4   2   6   2   8   2
M  END
