Coordinates from ORCA-job Furan-3-N2+-scan-d09-169-n800
 OpenBabel09191814033D

 10  9  0  0  0  0  0  0  0  0999 V2000
   10.0818    5.4577    4.8247 N   0  0  0  0  0  0  0  0  0  0  0  0
   10.9825    5.8672    5.3178 N   0  0  0  0  0  0  0  0  0  0  0  0
   -3.1736   -1.3553   -2.1129 C   0  0  0  0  0  0  0  0  0  0  0  0
   -4.2993   -0.5853   -2.0035 C   0  0  0  0  0  0  0  0  0  0  0  0
   -5.3342   -0.7524   -2.2739 H   0  0  0  0  0  0  0  0  0  0  0  0
   -3.8534    0.0983   -0.8697 C   0  0  0  0  0  0  0  0  0  0  0  0
   -4.4511    0.4721   -0.0434 H   0  0  0  0  0  0  0  0  0  0  0  0
   -2.0188   -0.8650   -1.5397 C   0  0  0  0  0  0  0  0  0  0  0  0
   -0.9559   -1.0115   -1.6784 H   0  0  0  0  0  0  0  0  0  0  0  0
   -2.4920   -0.0517   -0.5909 O   0  0  0  0  0  0  0  0  0  0  0  0
  1  2  3  0  0  0  0
  3  4  1  0  0  0  0
  3  8  1  0  0  0  0
  4  6  1  0  0  0  0
  5  4  1  0  0  0  0
  6 10  1  0  0  0  0
  6  7  1  0  0  0  0
  8 10  1  0  0  0  0
  9  8  1  0  0  0  0
M  RAD  4   3   3   4   2   6   2   8   2
M  END
