Coordinates from ORCA-job Furan-3-N2+-scan-d09-169-n800
 OpenBabel09191814033D

 10  9  0  0  0  0  0  0  0  0999 V2000
    7.0450    3.9883    3.3171 N   0  0  0  0  0  0  0  0  0  0  0  0
    7.9452    4.4175    3.7941 N   0  0  0  0  0  0  0  0  0  0  0  0
   -2.2104   -0.9402   -1.7210 C   0  0  0  0  0  0  0  0  0  0  0  0
   -3.4414   -0.3428   -1.7355 C   0  0  0  0  0  0  0  0  0  0  0  0
   -4.4032   -0.6491   -2.1268 H   0  0  0  0  0  0  0  0  0  0  0  0
   -3.2323    0.3665   -0.5504 C   0  0  0  0  0  0  0  0  0  0  0  0
   -3.9686    0.6277    0.2042 H   0  0  0  0  0  0  0  0  0  0  0  0
   -1.2128   -0.3047   -1.0113 C   0  0  0  0  0  0  0  0  0  0  0  0
   -0.1310   -0.2947   -1.0245 H   0  0  0  0  0  0  0  0  0  0  0  0
   -1.9045    0.4056   -0.1157 O   0  0  0  0  0  0  0  0  0  0  0  0
  1  2  3  0  0  0  0
  3  8  1  0  0  0  0
  4  3  1  0  0  0  0
  4  6  1  0  0  0  0
  5  4  1  0  0  0  0
  6 10  1  0  0  0  0
  6  7  1  0  0  0  0
  8 10  1  0  0  0  0
  9  8  1  0  0  0  0
M  RAD  4   3   3   4   2   6   2   8   2
M  END
