Coordinates from ORCA-job Furan-3-N2+-scan-d09-169-n800
 OpenBabel09191814033D

 10  9  0  0  0  0  0  0  0  0999 V2000
    9.3301    5.1001    4.4709 N   0  0  0  0  0  0  0  0  0  0  0  0
   10.2380    5.5250    4.9368 N   0  0  0  0  0  0  0  0  0  0  0  0
   -2.9499   -1.2563   -2.0264 C   0  0  0  0  0  0  0  0  0  0  0  0
   -4.0943   -0.5116   -1.9373 C   0  0  0  0  0  0  0  0  0  0  0  0
   -5.1182   -0.6976   -2.2359 H   0  0  0  0  0  0  0  0  0  0  0  0
   -3.6924    0.1678   -0.7847 C   0  0  0  0  0  0  0  0  0  0  0  0
   -4.3190    0.5184    0.0302 H   0  0  0  0  0  0  0  0  0  0  0  0
   -1.8210   -0.7473   -1.4185 C   0  0  0  0  0  0  0  0  0  0  0  0
   -0.7519   -0.8684   -1.5319 H   0  0  0  0  0  0  0  0  0  0  0  0
   -2.3356    0.0439   -0.4729 O   0  0  0  0  0  0  0  0  0  0  0  0
  1  2  3  0  0  0  0
  3  4  1  0  0  0  0
  3  8  1  0  0  0  0
  4  6  1  0  0  0  0
  5  4  1  0  0  0  0
  6 10  1  0  0  0  0
  6  7  1  0  0  0  0
  8 10  1  0  0  0  0
  9  8  1  0  0  0  0
M  RAD  4   3   3   4   2   6   2   8   2
M  END
