Coordinates from ORCA-job Furan-3-N2+-scan-d09-169-n800
 OpenBabel09191814033D

 10  9  0  0  0  0  0  0  0  0999 V2000
    2.0249    0.8238    0.2278 N   0  0  0  0  0  0  0  0  0  0  0  0
    3.1226    0.8178    0.3454 N   0  0  0  0  0  0  0  0  0  0  0  0
   -0.2426    0.8097   -0.0268 C   0  0  0  0  0  0  0  0  0  0  0  0
   -0.8801   -0.2899   -0.5825 C   0  0  0  0  0  0  0  0  0  0  0  0
   -0.5423   -1.2403   -0.9654 H   0  0  0  0  0  0  0  0  0  0  0  0
   -2.1439    0.2399   -0.4867 C   0  0  0  0  0  0  0  0  0  0  0  0
   -3.1075   -0.1612   -0.7693 H   0  0  0  0  0  0  0  0  0  0  0  0
   -0.8907    1.9051    0.3861 C   0  0  0  0  0  0  0  0  0  0  0  0
   -0.6980    2.8665    0.8319 H   0  0  0  0  0  0  0  0  0  0  0  0
   -2.1565    1.5026    0.0695 O   0  0  0  0  0  0  0  0  0  0  0  0
  1  2  3  0  0  0  0
  3  8  2  0  0  0  0
  4  6  2  0  0  0  0
  4  3  1  0  0  0  0
  5  4  1  0  0  0  0
  6 10  1  0  0  0  0
  7  6  1  0  0  0  0
  8  9  1  0  0  0  0
 10  8  1  0  0  0  0
M  RAD  1   3   2
M  END
