Coordinates from ORCA-job Furan-3-N2+-scan-d09-169-n800
 OpenBabel09191814033D

 10  9  0  0  0  0  0  0  0  0999 V2000
    7.4197    4.1700    3.5089 N   0  0  0  0  0  0  0  0  0  0  0  0
    8.3210    4.5976    3.9853 N   0  0  0  0  0  0  0  0  0  0  0  0
   -2.3330   -0.9967   -1.7699 C   0  0  0  0  0  0  0  0  0  0  0  0
   -3.5526   -0.3762   -1.7651 C   0  0  0  0  0  0  0  0  0  0  0  0
   -4.5274   -0.6668   -2.1358 H   0  0  0  0  0  0  0  0  0  0  0  0
   -3.3075    0.3369   -0.5891 C   0  0  0  0  0  0  0  0  0  0  0  0
   -4.0241    0.6170    0.1775 H   0  0  0  0  0  0  0  0  0  0  0  0
   -1.3102   -0.3754   -1.0838 C   0  0  0  0  0  0  0  0  0  0  0  0
   -0.2288   -0.3860   -1.1178 H   0  0  0  0  0  0  0  0  0  0  0  0
   -1.9711    0.3537   -0.1801 O   0  0  0  0  0  0  0  0  0  0  0  0
  1  2  3  0  0  0  0
  3  4  1  0  0  0  0
  3  8  1  0  0  0  0
  4  6  1  0  0  0  0
  5  4  1  0  0  0  0
  6 10  1  0  0  0  0
  6  7  1  0  0  0  0
  8 10  1  0  0  0  0
  9  8  1  0  0  0  0
M  RAD  4   3   3   4   2   6   2   8   2
M  END
