Coordinates from ORCA-job Furan-3-N2+-scan-d09-169-n800
 OpenBabel09191814033D

 10  9  0  0  0  0  0  0  0  0999 V2000
    8.8834    4.8874    4.2490 N   0  0  0  0  0  0  0  0  0  0  0  0
    9.7897    5.3136    4.7170 N   0  0  0  0  0  0  0  0  0  0  0  0
   -2.8122   -1.1964   -1.9714 C   0  0  0  0  0  0  0  0  0  0  0  0
   -3.9712   -0.4733   -1.8965 C   0  0  0  0  0  0  0  0  0  0  0  0
   -4.9871   -0.6767   -2.2108 H   0  0  0  0  0  0  0  0  0  0  0  0
   -3.5984    0.2092   -0.7361 C   0  0  0  0  0  0  0  0  0  0  0  0
   -4.2430    0.5462    0.0705 H   0  0  0  0  0  0  0  0  0  0  0  0
   -1.7016   -0.6708   -1.3448 C   0  0  0  0  0  0  0  0  0  0  0  0
   -0.6290   -0.7730   -1.4426 H   0  0  0  0  0  0  0  0  0  0  0  0
   -2.2446    0.1078   -0.4042 O   0  0  0  0  0  0  0  0  0  0  0  0
  1  2  3  0  0  0  0
  3  4  1  0  0  0  0
  3  8  1  0  0  0  0
  4  6  1  0  0  0  0
  5  4  1  0  0  0  0
  6 10  1  0  0  0  0
  6  7  1  0  0  0  0
  8 10  1  0  0  0  0
  9  8  1  0  0  0  0
M  RAD  4   3   3   4   2   6   2   8   2
M  END
