Coordinates from ORCA-job Furan-3-N2+-scan-d09-169-n800
 OpenBabel09191814033D

 10  9  0  0  0  0  0  0  0  0999 V2000
    7.2826    4.1034    3.4388 N   0  0  0  0  0  0  0  0  0  0  0  0
    8.1835    4.5316    3.9153 N   0  0  0  0  0  0  0  0  0  0  0  0
   -2.2880   -0.9754   -1.7519 C   0  0  0  0  0  0  0  0  0  0  0  0
   -3.5121   -0.3642   -1.7543 C   0  0  0  0  0  0  0  0  0  0  0  0
   -4.4821   -0.6610   -2.1325 H   0  0  0  0  0  0  0  0  0  0  0  0
   -3.2802    0.3476   -0.5749 C   0  0  0  0  0  0  0  0  0  0  0  0
   -4.0041    0.6213    0.1872 H   0  0  0  0  0  0  0  0  0  0  0  0
   -1.2741   -0.3495   -1.0572 C   0  0  0  0  0  0  0  0  0  0  0  0
   -0.1925   -0.3525   -1.0840 H   0  0  0  0  0  0  0  0  0  0  0  0
   -1.9469    0.3727   -0.1564 O   0  0  0  0  0  0  0  0  0  0  0  0
  1  2  3  0  0  0  0
  3  8  1  0  0  0  0
  4  3  1  0  0  0  0
  4  6  1  0  0  0  0
  5  4  1  0  0  0  0
  6 10  1  0  0  0  0
  6  7  1  0  0  0  0
  8 10  1  0  0  0  0
  9  8  1  0  0  0  0
M  RAD  4   3   3   4   2   6   2   8   2
M  END
