Coordinates from ORCA-job Furan-3-N2+-scan-d09-169-n800
 OpenBabel09191814033D

 10  9  0  0  0  0  0  0  0  0999 V2000
    9.4072    5.1366    4.5088 N   0  0  0  0  0  0  0  0  0  0  0  0
   10.3154    5.5613    4.9745 N   0  0  0  0  0  0  0  0  0  0  0  0
   -2.9731   -1.2662   -2.0360 C   0  0  0  0  0  0  0  0  0  0  0  0
   -4.1152   -0.5182   -1.9447 C   0  0  0  0  0  0  0  0  0  0  0  0
   -5.1403   -0.7015   -2.2410 H   0  0  0  0  0  0  0  0  0  0  0  0
   -3.7090    0.1605   -0.7932 C   0  0  0  0  0  0  0  0  0  0  0  0
   -4.3328    0.5131    0.0230 H   0  0  0  0  0  0  0  0  0  0  0  0
   -1.8415   -0.7602   -1.4307 C   0  0  0  0  0  0  0  0  0  0  0  0
   -0.7730   -0.8843   -1.5464 H   0  0  0  0  0  0  0  0  0  0  0  0
   -2.3518    0.0328   -0.4843 O   0  0  0  0  0  0  0  0  0  0  0  0
  1  2  3  0  0  0  0
  3  4  1  0  0  0  0
  3  8  1  0  0  0  0
  4  6  1  0  0  0  0
  5  4  1  0  0  0  0
  6 10  1  0  0  0  0
  6  7  1  0  0  0  0
  8 10  1  0  0  0  0
  9  8  1  0  0  0  0
M  RAD  4   3   3   4   2   6   2   8   2
M  END
