Coordinates from ORCA-job Furan-3-N2+-scan-d09-169-n800
 OpenBabel09191814033D

 10  9  0  0  0  0  0  0  0  0999 V2000
    5.4849    3.2080    2.5335 N   0  0  0  0  0  0  0  0  0  0  0  0
    6.3681    3.6723    3.0092 N   0  0  0  0  0  0  0  0  0  0  0  0
   -1.7068   -0.7127   -1.5002 C   0  0  0  0  0  0  0  0  0  0  0  0
   -2.9818   -0.2250   -1.5923 C   0  0  0  0  0  0  0  0  0  0  0  0
   -3.8871   -0.6127   -2.0420 H   0  0  0  0  0  0  0  0  0  0  0  0
   -2.9091    0.4948   -0.3973 C   0  0  0  0  0  0  0  0  0  0  0  0
   -3.7106    0.6877    0.3098 H   0  0  0  0  0  0  0  0  0  0  0  0
   -0.8138    0.0039   -0.7310 C   0  0  0  0  0  0  0  0  0  0  0  0
    0.2616    0.1101   -0.6784 H   0  0  0  0  0  0  0  0  0  0  0  0
   -1.6195    0.6476    0.1190 O   0  0  0  0  0  0  0  0  0  0  0  0
  1  2  3  0  0  0  0
  3  8  1  0  0  0  0
  4  3  1  0  0  0  0
  4  6  1  0  0  0  0
  5  4  1  0  0  0  0
  6 10  1  0  0  0  0
  6  7  1  0  0  0  0
  8  9  1  0  0  0  0
  8 10  1  0  0  0  0
M  RAD  4   3   3   4   2   6   2   8   2
M  END
