Coordinates from ORCA-job Furan-3-N2+-scan-d09-169-n800
 OpenBabel09191814033D

 10  9  0  0  0  0  0  0  0  0999 V2000
    5.3937    3.1663    2.4895 N   0  0  0  0  0  0  0  0  0  0  0  0
    6.2767    3.6309    2.9655 N   0  0  0  0  0  0  0  0  0  0  0  0
   -1.6804   -0.7006   -1.4887 C   0  0  0  0  0  0  0  0  0  0  0  0
   -2.9564   -0.2161   -1.5835 C   0  0  0  0  0  0  0  0  0  0  0  0
   -3.8596   -0.6057   -2.0357 H   0  0  0  0  0  0  0  0  0  0  0  0
   -2.8884    0.5030   -0.3878 C   0  0  0  0  0  0  0  0  0  0  0  0
   -3.6922    0.6934    0.3174 H   0  0  0  0  0  0  0  0  0  0  0  0
   -0.7911    0.0176   -0.7168 C   0  0  0  0  0  0  0  0  0  0  0  0
    0.2839    0.1265   -0.6615 H   0  0  0  0  0  0  0  0  0  0  0  0
   -1.6004    0.6587    0.1317 O   0  0  0  0  0  0  0  0  0  0  0  0
  1  2  3  0  0  0  0
  3  8  1  0  0  0  0
  4  3  1  0  0  0  0
  4  6  1  0  0  0  0
  5  4  1  0  0  0  0
  6 10  1  0  0  0  0
  6  7  1  0  0  0  0
  8  9  1  0  0  0  0
  8 10  1  0  0  0  0
M  RAD  4   3   3   4   2   6   2   8   2
M  END
