Coordinates from ORCA-job Furan-3-N2+-scan-d09-169-n800
 OpenBabel09191814033D

 10 10  0  0  0  0  0  0  0  0999 V2000
    1.1556    0.8052    0.1242 N   0  0  0  0  0  0  0  0  0  0  0  0
    2.3009    0.7728    0.2353 N   0  0  0  0  0  0  0  0  0  0  0  0
    0.2007    0.8205    0.0261 C   0  0  0  0  0  0  0  0  0  0  0  0
   -0.7058   -0.2429   -0.5424 C   0  0  0  0  0  0  0  0  0  0  0  0
   -0.3546   -1.1924   -0.9231 H   0  0  0  0  0  0  0  0  0  0  0  0
   -1.9538    0.2380   -0.4670 C   0  0  0  0  0  0  0  0  0  0  0  0
   -2.9273   -0.1409   -0.7410 H   0  0  0  0  0  0  0  0  0  0  0  0
   -0.7351    1.8637    0.3850 C   0  0  0  0  0  0  0  0  0  0  0  0
   -0.5471    2.8337    0.8343 H   0  0  0  0  0  0  0  0  0  0  0  0
   -1.9476    1.5164    0.0986 O   0  0  0  0  0  0  0  0  0  0  0  0
  1  2  1  0  0  0  0
  3  1  1  0  0  0  0
  3  8  2  0  0  0  0
  4  6  2  0  0  0  0
  4  3  1  0  0  0  0
  5  4  1  0  0  0  0
  6 10  1  0  0  0  0
  7  6  1  0  0  0  0
  8  9  1  0  0  0  0
 10  8  1  0  0  0  0
M  RAD  2   1   2   2   3
M  END
