Coordinates from ORCA-job Furan-3-N2+-scan-d09-169-n800
 OpenBabel09191814033D

 10  9  0  0  0  0  0  0  0  0999 V2000
    3.1298    2.0436    1.2904 N   0  0  0  0  0  0  0  0  0  0  0  0
    4.0144    2.4994    1.7707 N   0  0  0  0  0  0  0  0  0  0  0  0
   -0.9264   -0.3196   -1.1384 C   0  0  0  0  0  0  0  0  0  0  0  0
   -2.2367   -0.0159   -1.3898 C   0  0  0  0  0  0  0  0  0  0  0  0
   -3.0088   -0.5111   -1.9648 H   0  0  0  0  0  0  0  0  0  0  0  0
   -2.4263    0.6579   -0.1813 C   0  0  0  0  0  0  0  0  0  0  0  0
   -3.3319    0.7057    0.4161 H   0  0  0  0  0  0  0  0  0  0  0  0
   -0.2543    0.4892   -0.2426 C   0  0  0  0  0  0  0  0  0  0  0  0
    0.7771    0.7510   -0.0353 H   0  0  0  0  0  0  0  0  0  0  0  0
   -1.2510    0.9738    0.5050 O   0  0  0  0  0  0  0  0  0  0  0  0
  1  2  3  0  0  0  0
  3  8  1  0  0  0  0
  4  3  1  0  0  0  0
  4  6  1  0  0  0  0
  5  4  1  0  0  0  0
  6  7  1  0  0  0  0
  6 10  1  0  0  0  0
  8  9  1  0  0  0  0
  8 10  1  0  0  0  0
M  RAD  4   3   3   4   2   6   2   8   2
M  END
