Coordinates from ORCA-job Furan-3-N2+-scan-d09-169-n800
 OpenBabel09191814033D

 10  9  0  0  0  0  0  0  0  0999 V2000
    7.9909    4.4520    3.7995 N   0  0  0  0  0  0  0  0  0  0  0  0
    8.8931    4.8805    4.2734 N   0  0  0  0  0  0  0  0  0  0  0  0
   -2.5242   -1.0764   -1.8512 C   0  0  0  0  0  0  0  0  0  0  0  0
   -3.7191   -0.4109   -1.8156 C   0  0  0  0  0  0  0  0  0  0  0  0
   -4.7129   -0.6638   -2.1629 H   0  0  0  0  0  0  0  0  0  0  0  0
   -3.4186    0.2888   -0.6445 C   0  0  0  0  0  0  0  0  0  0  0  0
   -4.1052    0.5937    0.1399 H   0  0  0  0  0  0  0  0  0  0  0  0
   -1.4620   -0.4971   -1.1892 C   0  0  0  0  0  0  0  0  0  0  0  0
   -0.3830   -0.5465   -1.2513 H   0  0  0  0  0  0  0  0  0  0  0  0
   -2.0731    0.2539   -0.2681 O   0  0  0  0  0  0  0  0  0  0  0  0
  1  2  3  0  0  0  0
  3  4  1  0  0  0  0
  3  8  1  0  0  0  0
  4  6  1  0  0  0  0
  5  4  1  0  0  0  0
  6 10  1  0  0  0  0
  6  7  1  0  0  0  0
  8 10  1  0  0  0  0
  9  8  1  0  0  0  0
M  RAD  4   3   3   4   2   6   2   8   2
M  END
