Coordinates from ORCA-job Furan-3-N2+-scan-d09-169-n800
 OpenBabel09191814033D

 10  9  0  0  0  0  0  0  0  0999 V2000
    6.2968    3.6228    2.9354 N   0  0  0  0  0  0  0  0  0  0  0  0
    7.1941    4.0563    3.4138 N   0  0  0  0  0  0  0  0  0  0  0  0
   -1.9659   -0.8283   -1.6187 C   0  0  0  0  0  0  0  0  0  0  0  0
   -3.2185   -0.2803   -1.6730 C   0  0  0  0  0  0  0  0  0  0  0  0
   -4.1527   -0.6210   -2.1012 H   0  0  0  0  0  0  0  0  0  0  0  0
   -3.0808    0.4256   -0.4754 C   0  0  0  0  0  0  0  0  0  0  0  0
   -3.8535    0.6499    0.2541 H   0  0  0  0  0  0  0  0  0  0  0  0
   -1.0208   -0.1601   -0.8683 C   0  0  0  0  0  0  0  0  0  0  0  0
    0.0594   -0.1047   -0.8438 H   0  0  0  0  0  0  0  0  0  0  0  0
   -1.7721    0.5138    0.0071 O   0  0  0  0  0  0  0  0  0  0  0  0
  1  2  3  0  0  0  0
  3  8  1  0  0  0  0
  4  3  1  0  0  0  0
  4  6  1  0  0  0  0
  5  4  1  0  0  0  0
  6 10  1  0  0  0  0
  6  7  1  0  0  0  0
  8  9  1  0  0  0  0
  8 10  1  0  0  0  0
M  RAD  4   3   3   4   2   6   2   8   2
M  END
