Coordinates from ORCA-job Furan-3-N2+-scan-d09-169-n800
 OpenBabel09191814033D

 10  9  0  0  0  0  0  0  0  0999 V2000
    6.8336    3.8852    3.2087 N   0  0  0  0  0  0  0  0  0  0  0  0
    7.7331    4.3153    3.6862 N   0  0  0  0  0  0  0  0  0  0  0  0
   -2.1408   -0.9076   -1.6925 C   0  0  0  0  0  0  0  0  0  0  0  0
   -3.3785   -0.3248   -1.7185 C   0  0  0  0  0  0  0  0  0  0  0  0
   -4.3324   -0.6411   -2.1210 H   0  0  0  0  0  0  0  0  0  0  0  0
   -3.1901    0.3829   -0.5289 C   0  0  0  0  0  0  0  0  0  0  0  0
   -3.9373    0.6338    0.2183 H   0  0  0  0  0  0  0  0  0  0  0  0
   -1.1578   -0.2638   -0.9702 C   0  0  0  0  0  0  0  0  0  0  0  0
   -0.0761   -0.2415   -0.9721 H   0  0  0  0  0  0  0  0  0  0  0  0
   -1.8677    0.4356   -0.0799 O   0  0  0  0  0  0  0  0  0  0  0  0
  1  2  3  0  0  0  0
  3  8  1  0  0  0  0
  4  3  1  0  0  0  0
  4  6  1  0  0  0  0
  5  4  1  0  0  0  0
  6 10  1  0  0  0  0
  6  7  1  0  0  0  0
  8 10  1  0  0  0  0
  9  8  1  0  0  0  0
M  RAD  4   3   3   4   2   6   2   8   2
M  END
