Coordinates from ORCA-job Furan-3-N2+-scan-d09-169-n800
 OpenBabel09191814033D

 10  9  0  0  0  0  0  0  0  0999 V2000
    2.6180    2.0174    0.6882 N   0  0  0  0  0  0  0  0  0  0  0  0
    3.6776    2.2579    0.8878 N   0  0  0  0  0  0  0  0  0  0  0  0
   -0.5740   -0.2241   -0.0179 C   0  0  0  0  0  0  0  0  0  0  0  0
   -1.6167   -0.6728   -0.7830 C   0  0  0  0  0  0  0  0  0  0  0  0
   -2.0016   -1.6624   -0.9935 H   0  0  0  0  0  0  0  0  0  0  0  0
   -2.3863    0.4789   -0.6053 C   0  0  0  0  0  0  0  0  0  0  0  0
   -3.4682    0.5503   -0.5444 H   0  0  0  0  0  0  0  0  0  0  0  0
   -0.4438    1.1424    0.1229 C   0  0  0  0  0  0  0  0  0  0  0  0
    0.3743    1.8144    0.3526 H   0  0  0  0  0  0  0  0  0  0  0  0
   -1.6935    1.5720   -0.0774 O   0  0  0  0  0  0  0  0  0  0  0  0
  1  2  3  0  0  0  0
  3  8  1  0  0  0  0
  4  6  1  0  0  0  0
  4  3  1  0  0  0  0
  5  4  1  0  0  0  0
  6  7  1  0  0  0  0
  6 10  1  0  0  0  0
  8  9  1  0  0  0  0
 10  8  1  0  0  0  0
M  RAD  4   3   3   4   2   6   2   8   2
M  END
