Coordinates from ORCA-job Furan-3-N2+-scan-d09-169-n800
 OpenBabel09191814033D

 10  9  0  0  0  0  0  0  0  0999 V2000
    6.0105    3.4801    2.7906 N   0  0  0  0  0  0  0  0  0  0  0  0
    6.9049    3.9174    3.2710 N   0  0  0  0  0  0  0  0  0  0  0  0
   -1.8731   -0.7861   -1.5771 C   0  0  0  0  0  0  0  0  0  0  0  0
   -3.1343   -0.2601   -1.6461 C   0  0  0  0  0  0  0  0  0  0  0  0
   -4.0576   -0.6174   -2.0842 H   0  0  0  0  0  0  0  0  0  0  0  0
   -3.0218    0.4491   -0.4478 C   0  0  0  0  0  0  0  0  0  0  0  0
   -3.8062    0.6613    0.2728 H   0  0  0  0  0  0  0  0  0  0  0  0
   -0.9475   -0.1018   -0.8172 C   0  0  0  0  0  0  0  0  0  0  0  0
    0.1313   -0.0282   -0.7811 H   0  0  0  0  0  0  0  0  0  0  0  0
   -1.7203    0.5598    0.0493 O   0  0  0  0  0  0  0  0  0  0  0  0
  1  2  3  0  0  0  0
  3  8  1  0  0  0  0
  4  3  1  0  0  0  0
  4  6  1  0  0  0  0
  5  4  1  0  0  0  0
  6 10  1  0  0  0  0
  6  7  1  0  0  0  0
  8  9  1  0  0  0  0
  8 10  1  0  0  0  0
M  RAD  4   3   3   4   2   6   2   8   2
M  END
