Coordinates from ORCA-job Furan-3-N2+-scan-d09-169-n800
 OpenBabel09191814033D

 10  9  0  0  0  0  0  0  0  0999 V2000
    2.7666    1.8126    1.0269 N   0  0  0  0  0  0  0  0  0  0  0  0
    3.7031    2.2242    1.4435 N   0  0  0  0  0  0  0  0  0  0  0  0
   -0.7559   -0.1971   -1.0241 C   0  0  0  0  0  0  0  0  0  0  0  0
   -2.0631    0.0218   -1.3652 C   0  0  0  0  0  0  0  0  0  0  0  0
   -2.7563   -0.5128   -2.0019 H   0  0  0  0  0  0  0  0  0  0  0  0
   -2.3834    0.6564   -0.1636 C   0  0  0  0  0  0  0  0  0  0  0  0
   -3.3301    0.6321    0.3677 H   0  0  0  0  0  0  0  0  0  0  0  0
   -0.2040    0.6368   -0.0723 C   0  0  0  0  0  0  0  0  0  0  0  0
    0.7927    0.9635    0.2095 H   0  0  0  0  0  0  0  0  0  0  0  0
   -1.2837    1.0366    0.6096 O   0  0  0  0  0  0  0  0  0  0  0  0
  1  2  3  0  0  0  0
  3  8  1  0  0  0  0
  4  3  1  0  0  0  0
  4  6  1  0  0  0  0
  5  4  1  0  0  0  0
  6  7  1  0  0  0  0
  6 10  1  0  0  0  0
  8  9  1  0  0  0  0
  8 10  1  0  0  0  0
M  RAD  4   3   3   4   2   6   2   8   2
M  END
