Coordinates from ORCA-job Furan-3-N2+-scan-d09-169-n800
 OpenBabel09191814033D

 10  9  0  0  0  0  0  0  0  0999 V2000
    8.4919    4.6974    4.0517 N   0  0  0  0  0  0  0  0  0  0  0  0
    9.3952    5.1261    4.5232 N   0  0  0  0  0  0  0  0  0  0  0  0
   -2.6880   -1.1438   -1.9207 C   0  0  0  0  0  0  0  0  0  0  0  0
   -3.8614   -0.4426   -1.8613 C   0  0  0  0  0  0  0  0  0  0  0  0
   -4.8686   -0.6645   -2.1904 H   0  0  0  0  0  0  0  0  0  0  0  0
   -3.5180    0.2446   -0.6945 C   0  0  0  0  0  0  0  0  0  0  0  0
   -4.1803    0.5679    0.1033 H   0  0  0  0  0  0  0  0  0  0  0  0
   -1.5966   -0.5986   -1.2775 C   0  0  0  0  0  0  0  0  0  0  0  0
   -0.5210   -0.6804   -1.3601 H   0  0  0  0  0  0  0  0  0  0  0  0
   -2.1674    0.1680   -0.3435 O   0  0  0  0  0  0  0  0  0  0  0  0
  1  2  3  0  0  0  0
  3  4  1  0  0  0  0
  3  8  1  0  0  0  0
  4  6  1  0  0  0  0
  5  4  1  0  0  0  0
  6 10  1  0  0  0  0
  6  7  1  0  0  0  0
  8 10  1  0  0  0  0
  9  8  1  0  0  0  0
M  RAD  4   3   3   4   2   6   2   8   2
M  END
