Coordinates from ORCA-job Furan-3-N2+-scan-d09-169-n800
 OpenBabel09191814033D

 10  9  0  0  0  0  0  0  0  0999 V2000
    4.4937    2.7416    2.0395 N   0  0  0  0  0  0  0  0  0  0  0  0
    5.3790    3.2040    2.5132 N   0  0  0  0  0  0  0  0  0  0  0  0
   -1.4002   -0.5673   -1.3653 C   0  0  0  0  0  0  0  0  0  0  0  0
   -2.6899   -0.1319   -1.5041 C   0  0  0  0  0  0  0  0  0  0  0  0
   -3.5591   -0.5512   -1.9947 H   0  0  0  0  0  0  0  0  0  0  0  0
   -2.6959    0.5751   -0.2993 C   0  0  0  0  0  0  0  0  0  0  0  0
   -3.5328    0.7254    0.3766 H   0  0  0  0  0  0  0  0  0  0  0  0
   -0.5700    0.1764   -0.5524 C   0  0  0  0  0  0  0  0  0  0  0  0
    0.4970    0.3269   -0.4542 H   0  0  0  0  0  0  0  0  0  0  0  0
   -1.4358    0.7751    0.2708 O   0  0  0  0  0  0  0  0  0  0  0  0
  1  2  3  0  0  0  0
  3  8  1  0  0  0  0
  4  3  1  0  0  0  0
  4  6  1  0  0  0  0
  5  4  1  0  0  0  0
  6 10  1  0  0  0  0
  6  7  1  0  0  0  0
  8  9  1  0  0  0  0
  8 10  1  0  0  0  0
M  RAD  4   3   3   4   2   6   2   8   2
M  END
