Coordinates from ORCA-job Furan-3-N2+-scan-d09-169-n800
 OpenBabel09191814033D

 10  9  0  0  0  0  0  0  0  0999 V2000
    2.2428    0.8274    0.2532 N   0  0  0  0  0  0  0  0  0  0  0  0
    3.3409    0.8239    0.3718 N   0  0  0  0  0  0  0  0  0  0  0  0
   -0.3230    0.8095   -0.0354 C   0  0  0  0  0  0  0  0  0  0  0  0
   -0.9328   -0.2983   -0.5919 C   0  0  0  0  0  0  0  0  0  0  0  0
   -0.5889   -1.2474   -0.9733 H   0  0  0  0  0  0  0  0  0  0  0  0
   -2.1964    0.2356   -0.4947 C   0  0  0  0  0  0  0  0  0  0  0  0
   -3.1605   -0.1657   -0.7775 H   0  0  0  0  0  0  0  0  0  0  0  0
   -0.9412    1.9133    0.3842 C   0  0  0  0  0  0  0  0  0  0  0  0
   -0.7452    2.8740    0.8300 H   0  0  0  0  0  0  0  0  0  0  0  0
   -2.2097    1.5018    0.0637 O   0  0  0  0  0  0  0  0  0  0  0  0
  1  2  3  0  0  0  0
  3  8  2  0  0  0  0
  4  6  2  0  0  0  0
  4  3  1  0  0  0  0
  5  4  1  0  0  0  0
  6 10  1  0  0  0  0
  7  6  1  0  0  0  0
  8  9  1  0  0  0  0
 10  8  1  0  0  0  0
M  RAD  1   3   2
M  END
