Coordinates from ORCA-job Furan-3-N2+-scan-d09-169-n800
 OpenBabel09191814033D

 10  9  0  0  0  0  0  0  0  0999 V2000
    2.0390    0.8240    0.2293 N   0  0  0  0  0  0  0  0  0  0  0  0
    3.1368    0.8182    0.3470 N   0  0  0  0  0  0  0  0  0  0  0  0
   -0.2483    0.8097   -0.0274 C   0  0  0  0  0  0  0  0  0  0  0  0
   -0.8835   -0.2907   -0.5830 C   0  0  0  0  0  0  0  0  0  0  0  0
   -0.5451   -1.2410   -0.9657 H   0  0  0  0  0  0  0  0  0  0  0  0
   -2.1472    0.2397   -0.4873 C   0  0  0  0  0  0  0  0  0  0  0  0
   -3.1108   -0.1614   -0.7701 H   0  0  0  0  0  0  0  0  0  0  0  0
   -0.8939    1.9059    0.3861 C   0  0  0  0  0  0  0  0  0  0  0  0
   -0.7009    2.8672    0.8319 H   0  0  0  0  0  0  0  0  0  0  0  0
   -2.1600    1.5025    0.0694 O   0  0  0  0  0  0  0  0  0  0  0  0
  1  2  3  0  0  0  0
  3  8  2  0  0  0  0
  4  6  2  0  0  0  0
  4  3  1  0  0  0  0
  5  4  1  0  0  0  0
  6 10  1  0  0  0  0
  7  6  1  0  0  0  0
  8  9  1  0  0  0  0
 10  8  1  0  0  0  0
M  RAD  1   3   2
M  END
