Coordinates from ORCA-job Furan-3-N2+-scan-d09-169-n800
 OpenBabel09191814033D

 10  9  0  0  0  0  0  0  0  0999 V2000
    7.9785    4.4459    3.7932 N   0  0  0  0  0  0  0  0  0  0  0  0
    8.8807    4.8743    4.2672 N   0  0  0  0  0  0  0  0  0  0  0  0
   -2.5200   -1.0748   -1.8494 C   0  0  0  0  0  0  0  0  0  0  0  0
   -3.7155   -0.4103   -1.8144 C   0  0  0  0  0  0  0  0  0  0  0  0
   -4.7089   -0.6641   -2.1621 H   0  0  0  0  0  0  0  0  0  0  0  0
   -3.4162    0.2899   -0.6433 C   0  0  0  0  0  0  0  0  0  0  0  0
   -4.1034    0.5943    0.1407 H   0  0  0  0  0  0  0  0  0  0  0  0
   -1.4586   -0.4945   -1.1869 C   0  0  0  0  0  0  0  0  0  0  0  0
   -0.3796   -0.5429   -1.2486 H   0  0  0  0  0  0  0  0  0  0  0  0
   -2.0709    0.2562   -0.2663 O   0  0  0  0  0  0  0  0  0  0  0  0
  1  2  3  0  0  0  0
  3  4  1  0  0  0  0
  3  8  1  0  0  0  0
  4  6  1  0  0  0  0
  5  4  1  0  0  0  0
  6 10  1  0  0  0  0
  6  7  1  0  0  0  0
  8 10  1  0  0  0  0
  9  8  1  0  0  0  0
M  RAD  4   3   3   4   2   6   2   8   2
M  END
