Coordinates from ORCA-job Furan-3-N2+-scan-d09-169-n800
 OpenBabel09191814033D

 10  9  0  0  0  0  0  0  0  0999 V2000
    5.3027    3.1247    2.4456 N   0  0  0  0  0  0  0  0  0  0  0  0
    6.1856    3.5893    2.9217 N   0  0  0  0  0  0  0  0  0  0  0  0
   -1.6538   -0.6885   -1.4771 C   0  0  0  0  0  0  0  0  0  0  0  0
   -2.9309   -0.2073   -1.5749 C   0  0  0  0  0  0  0  0  0  0  0  0
   -3.8319   -0.5989   -2.0297 H   0  0  0  0  0  0  0  0  0  0  0  0
   -2.8679    0.5111   -0.3784 C   0  0  0  0  0  0  0  0  0  0  0  0
   -3.6740    0.6989    0.3249 H   0  0  0  0  0  0  0  0  0  0  0  0
   -0.7684    0.0316   -0.7023 C   0  0  0  0  0  0  0  0  0  0  0  0
    0.3061    0.1433   -0.6442 H   0  0  0  0  0  0  0  0  0  0  0  0
   -1.5817    0.6699    0.1445 O   0  0  0  0  0  0  0  0  0  0  0  0
  1  2  3  0  0  0  0
  3  8  1  0  0  0  0
  4  3  1  0  0  0  0
  4  6  1  0  0  0  0
  5  4  1  0  0  0  0
  6 10  1  0  0  0  0
  6  7  1  0  0  0  0
  8  9  1  0  0  0  0
  8 10  1  0  0  0  0
M  RAD  4   3   3   4   2   6   2   8   2
M  END
