Coordinates from ORCA-job Furan-3-N2+-scan-d09-169-n800
 OpenBabel09191814033D

 10  9  0  0  0  0  0  0  0  0999 V2000
    3.2716    2.1088    1.3600 N   0  0  0  0  0  0  0  0  0  0  0  0
    4.1592    2.5633    1.8365 N   0  0  0  0  0  0  0  0  0  0  0  0
   -0.9687   -0.3394   -1.1578 C   0  0  0  0  0  0  0  0  0  0  0  0
   -2.2784   -0.0285   -1.4036 C   0  0  0  0  0  0  0  0  0  0  0  0
   -3.0558   -0.5197   -1.9748 H   0  0  0  0  0  0  0  0  0  0  0  0
   -2.4587    0.6470   -0.1945 C   0  0  0  0  0  0  0  0  0  0  0  0
   -3.3614    0.7001    0.4069 H   0  0  0  0  0  0  0  0  0  0  0  0
   -0.2884    0.4655   -0.2651 C   0  0  0  0  0  0  0  0  0  0  0  0
    0.7453    0.7204   -0.0641 H   0  0  0  0  0  0  0  0  0  0  0  0
   -1.2787    0.9565    0.4866 O   0  0  0  0  0  0  0  0  0  0  0  0
  1  2  3  0  0  0  0
  3  8  1  0  0  0  0
  4  3  1  0  0  0  0
  4  6  1  0  0  0  0
  5  4  1  0  0  0  0
  6  7  1  0  0  0  0
  6 10  1  0  0  0  0
  8  9  1  0  0  0  0
  8 10  1  0  0  0  0
M  RAD  4   3   3   4   2   6   2   8   2
M  END
