Coordinates from ORCA-job Furan-3-N2+-scan-d09-169-n800
 OpenBabel09191814033D

 10  9  0  0  0  0  0  0  0  0999 V2000
    4.4457    2.7170    2.0131 N   0  0  0  0  0  0  0  0  0  0  0  0
    5.3307    3.1795    2.4872 N   0  0  0  0  0  0  0  0  0  0  0  0
   -1.3836   -0.5589   -1.3576 C   0  0  0  0  0  0  0  0  0  0  0  0
   -2.6743   -0.1278   -1.5001 C   0  0  0  0  0  0  0  0  0  0  0  0
   -3.5405   -0.5497   -1.9938 H   0  0  0  0  0  0  0  0  0  0  0  0
   -2.6865    0.5783   -0.2949 C   0  0  0  0  0  0  0  0  0  0  0  0
   -3.5260    0.7252    0.3785 H   0  0  0  0  0  0  0  0  0  0  0  0
   -0.5584    0.1871   -0.5416 C   0  0  0  0  0  0  0  0  0  0  0  0
    0.5077    0.3412   -0.4400 H   0  0  0  0  0  0  0  0  0  0  0  0
   -1.4289    0.7822    0.2793 O   0  0  0  0  0  0  0  0  0  0  0  0
  1  2  3  0  0  0  0
  3  8  1  0  0  0  0
  4  3  1  0  0  0  0
  4  6  1  0  0  0  0
  5  4  1  0  0  0  0
  6 10  1  0  0  0  0
  6  7  1  0  0  0  0
  8  9  1  0  0  0  0
  8 10  1  0  0  0  0
M  RAD  4   3   3   4   2   6   2   8   2
M  END
