Coordinates from ORCA-job Furan-3-N2+-scan-d09-169-n800
 OpenBabel09191814033D

 10 10  0  0  0  0  0  0  0  0999 V2000
    1.5602    0.8197    0.1748 N   0  0  0  0  0  0  0  0  0  0  0  0
    2.6626    0.8071    0.2898 N   0  0  0  0  0  0  0  0  0  0  0  0
   -0.0106    0.8074   -0.0024 C   0  0  0  0  0  0  0  0  0  0  0  0
   -0.7778   -0.2563   -0.5560 C   0  0  0  0  0  0  0  0  0  0  0  0
   -0.4542   -1.2108   -0.9420 H   0  0  0  0  0  0  0  0  0  0  0  0
   -2.0394    0.2464   -0.4727 C   0  0  0  0  0  0  0  0  0  0  0  0
   -3.0064   -0.1442   -0.7515 H   0  0  0  0  0  0  0  0  0  0  0  0
   -0.7937    1.8666    0.3800 C   0  0  0  0  0  0  0  0  0  0  0  0
   -0.6129    2.8329    0.8267 H   0  0  0  0  0  0  0  0  0  0  0  0
   -2.0417    1.5052    0.0833 O   0  0  0  0  0  0  0  0  0  0  0  0
  1  2  1  0  0  0  0
  3  1  1  0  0  0  0
  3  8  2  0  0  0  0
  4  6  2  0  0  0  0
  4  3  1  0  0  0  0
  5  4  1  0  0  0  0
  6 10  1  0  0  0  0
  7  6  1  0  0  0  0
  8  9  1  0  0  0  0
 10  8  1  0  0  0  0
M  RAD  2   1   2   2   3
M  END
