Coordinates from ORCA-job Furan-3-N2+-scan-d09-169-n800
 OpenBabel09191814033D

 10  9  0  0  0  0  0  0  0  0999 V2000
    2.6218    1.8194    0.6141 N   0  0  0  0  0  0  0  0  0  0  0  0
    3.7055    1.9823    0.7553 N   0  0  0  0  0  0  0  0  0  0  0  0
   -0.5403   -0.0689    0.0669 C   0  0  0  0  0  0  0  0  0  0  0  0
   -1.4841   -0.6245   -0.7542 C   0  0  0  0  0  0  0  0  0  0  0  0
   -1.7528   -1.6490   -0.9776 H   0  0  0  0  0  0  0  0  0  0  0  0
   -2.3762    0.4433   -0.6342 C   0  0  0  0  0  0  0  0  0  0  0  0
   -3.4615    0.4037   -0.6386 H   0  0  0  0  0  0  0  0  0  0  0  0
   -0.5597    1.3042    0.2026 C   0  0  0  0  0  0  0  0  0  0  0  0
    0.1649    2.0602    0.4725 H   0  0  0  0  0  0  0  0  0  0  0  0
   -1.8318    1.6033   -0.0768 O   0  0  0  0  0  0  0  0  0  0  0  0
  1  2  3  0  0  0  0
  3  8  1  0  0  0  0
  4  6  1  0  0  0  0
  4  3  1  0  0  0  0
  5  4  1  0  0  0  0
  6 10  1  0  0  0  0
  7  6  1  0  0  0  0
  8  9  1  0  0  0  0
 10  8  1  0  0  0  0
M  RAD  4   3   3   4   2   6   2   8   2
M  END
