Coordinates from ORCA-job Furan-3-N2+-scan-d09-169-n800
 OpenBabel09191814033D

 10  9  0  0  0  0  0  0  0  0999 V2000
    2.6078    2.1308    0.7148 N   0  0  0  0  0  0  0  0  0  0  0  0
    3.6395    2.4597    0.9322 N   0  0  0  0  0  0  0  0  0  0  0  0
   -0.6123   -0.3319   -0.0425 C   0  0  0  0  0  0  0  0  0  0  0  0
   -1.6974   -0.6967   -0.7934 C   0  0  0  0  0  0  0  0  0  0  0  0
   -2.1594   -1.6532   -1.0014 H   0  0  0  0  0  0  0  0  0  0  0  0
   -2.3738    0.5095   -0.6005 C   0  0  0  0  0  0  0  0  0  0  0  0
   -3.4461    0.6638   -0.5249 H   0  0  0  0  0  0  0  0  0  0  0  0
   -0.3748    1.0191    0.1013 C   0  0  0  0  0  0  0  0  0  0  0  0
    0.4941    1.6294    0.3230 H   0  0  0  0  0  0  0  0  0  0  0  0
   -1.5917    1.5435   -0.0784 O   0  0  0  0  0  0  0  0  0  0  0  0
  1  2  3  0  0  0  0
  3  8  1  0  0  0  0
  4  6  1  0  0  0  0
  4  3  1  0  0  0  0
  5  4  1  0  0  0  0
  6  7  1  0  0  0  0
  6 10  1  0  0  0  0
  8  9  1  0  0  0  0
 10  8  1  0  0  0  0
M  RAD  4   3   3   4   2   6   2   8   2
M  END
