Coordinates from ORCA-job Furan-3-N2+-scan-d09-169-n800
 OpenBabel09191814033D

 10  9  0  0  0  0  0  0  0  0999 V2000
    5.1351    3.0470    2.3635 N   0  0  0  0  0  0  0  0  0  0  0  0
    6.0171    3.5122    2.8405 N   0  0  0  0  0  0  0  0  0  0  0  0
   -1.6041   -0.6656   -1.4553 C   0  0  0  0  0  0  0  0  0  0  0  0
   -2.8832   -0.1911   -1.5591 C   0  0  0  0  0  0  0  0  0  0  0  0
   -3.7796   -0.5870   -2.0193 H   0  0  0  0  0  0  0  0  0  0  0  0
   -2.8304    0.5258   -0.3613 C   0  0  0  0  0  0  0  0  0  0  0  0
   -3.6412    0.7080    0.3380 H   0  0  0  0  0  0  0  0  0  0  0  0
   -0.7267    0.0581   -0.6747 C   0  0  0  0  0  0  0  0  0  0  0  0
    0.3469    0.1757   -0.6108 H   0  0  0  0  0  0  0  0  0  0  0  0
   -1.5479    0.6907    0.1687 O   0  0  0  0  0  0  0  0  0  0  0  0
  1  2  3  0  0  0  0
  3  8  1  0  0  0  0
  4  3  1  0  0  0  0
  4  6  1  0  0  0  0
  5  4  1  0  0  0  0
  6 10  1  0  0  0  0
  6  7  1  0  0  0  0
  8  9  1  0  0  0  0
  8 10  1  0  0  0  0
M  RAD  4   3   3   4   2   6   2   8   2
M  END
