Coordinates from ORCA-job Furan-3-N2+-scan-d09-169-n800
 OpenBabel09191814033D

 10  9  0  0  0  0  0  0  0  0999 V2000
    3.1172    2.0376    1.2840 N   0  0  0  0  0  0  0  0  0  0  0  0
    4.0017    2.4935    1.7646 N   0  0  0  0  0  0  0  0  0  0  0  0
   -0.9225   -0.3177   -1.1365 C   0  0  0  0  0  0  0  0  0  0  0  0
   -2.2329   -0.0147   -1.3886 C   0  0  0  0  0  0  0  0  0  0  0  0
   -3.0043   -0.5105   -1.9641 H   0  0  0  0  0  0  0  0  0  0  0  0
   -2.4235    0.6588   -0.1802 C   0  0  0  0  0  0  0  0  0  0  0  0
   -3.3295    0.7060    0.4168 H   0  0  0  0  0  0  0  0  0  0  0  0
   -0.2513    0.4916   -0.2403 C   0  0  0  0  0  0  0  0  0  0  0  0
    0.7797    0.7541   -0.0323 H   0  0  0  0  0  0  0  0  0  0  0  0
   -1.2488    0.9754    0.5067 O   0  0  0  0  0  0  0  0  0  0  0  0
  1  2  3  0  0  0  0
  3  8  1  0  0  0  0
  4  3  1  0  0  0  0
  4  6  1  0  0  0  0
  5  4  1  0  0  0  0
  6  7  1  0  0  0  0
  6 10  1  0  0  0  0
  8  9  1  0  0  0  0
  8 10  1  0  0  0  0
M  RAD  4   3   3   4   2   6   2   8   2
M  END
