Coordinates from ORCA-job Furan-3-N2+-scan-d09-169-n800
 OpenBabel09191814033D

 10  9  0  0  0  0  0  0  0  0999 V2000
    9.9134    5.3792    4.7429 N   0  0  0  0  0  0  0  0  0  0  0  0
   10.8147    5.7890    5.2346 N   0  0  0  0  0  0  0  0  0  0  0  0
   -3.1238   -1.3331   -2.0938 C   0  0  0  0  0  0  0  0  0  0  0  0
   -4.2534   -0.5683   -1.9886 C   0  0  0  0  0  0  0  0  0  0  0  0
   -5.2861   -0.7392   -2.2653 H   0  0  0  0  0  0  0  0  0  0  0  0
   -3.8169    0.1141   -0.8504 C   0  0  0  0  0  0  0  0  0  0  0  0
   -4.4209    0.4830   -0.0265 H   0  0  0  0  0  0  0  0  0  0  0  0
   -1.9744   -0.8393   -1.5127 C   0  0  0  0  0  0  0  0  0  0  0  0
   -0.9101   -0.9808   -1.6458 H   0  0  0  0  0  0  0  0  0  0  0  0
   -2.4565   -0.0307   -0.5643 O   0  0  0  0  0  0  0  0  0  0  0  0
  1  2  3  0  0  0  0
  3  4  1  0  0  0  0
  3  8  1  0  0  0  0
  4  6  1  0  0  0  0
  5  4  1  0  0  0  0
  6 10  1  0  0  0  0
  6  7  1  0  0  0  0
  8 10  1  0  0  0  0
  9  8  1  0  0  0  0
M  RAD  4   3   3   4   2   6   2   8   2
M  END
