Coordinates from ORCA-job Furan-3-N2+-scan-d09-169-n800
 OpenBabel09191814033D

 10  9  0  0  0  0  0  0  0  0999 V2000
    4.2438    2.6122    1.9006 N   0  0  0  0  0  0  0  0  0  0  0  0
    5.1283    3.0745    2.3759 N   0  0  0  0  0  0  0  0  0  0  0  0
   -1.3120   -0.5222   -1.3243 C   0  0  0  0  0  0  0  0  0  0  0  0
   -2.6071   -0.1108   -1.4840 C   0  0  0  0  0  0  0  0  0  0  0  0
   -3.4595   -0.5446   -1.9914 H   0  0  0  0  0  0  0  0  0  0  0  0
   -2.6478    0.5909   -0.2768 C   0  0  0  0  0  0  0  0  0  0  0  0
   -3.4990    0.7224    0.3848 H   0  0  0  0  0  0  0  0  0  0  0  0
   -0.5104    0.2341   -0.4942 C   0  0  0  0  0  0  0  0  0  0  0  0
    0.5516    0.4047   -0.3765 H   0  0  0  0  0  0  0  0  0  0  0  0
   -1.4019    0.8127    0.3160 O   0  0  0  0  0  0  0  0  0  0  0  0
  1  2  3  0  0  0  0
  3  8  1  0  0  0  0
  4  3  1  0  0  0  0
  4  6  1  0  0  0  0
  5  4  1  0  0  0  0
  6 10  1  0  0  0  0
  6  7  1  0  0  0  0
  8  9  1  0  0  0  0
  8 10  1  0  0  0  0
M  RAD  4   3   3   4   2   6   2   8   2
M  END
