Coordinates from ORCA-job Furan-3-N2+-scan-d09-169-n800
 OpenBabel09191814033D

 10  9  0  0  0  0  0  0  0  0999 V2000
    5.0828    3.0237    2.3389 N   0  0  0  0  0  0  0  0  0  0  0  0
    5.9660    3.4881    2.8147 N   0  0  0  0  0  0  0  0  0  0  0  0
   -1.5887   -0.6584   -1.4486 C   0  0  0  0  0  0  0  0  0  0  0  0
   -2.8684   -0.1860   -1.5544 C   0  0  0  0  0  0  0  0  0  0  0  0
   -3.7634   -0.5831   -2.0164 H   0  0  0  0  0  0  0  0  0  0  0  0
   -2.8190    0.5302   -0.3561 C   0  0  0  0  0  0  0  0  0  0  0  0
   -3.6313    0.7106    0.3420 H   0  0  0  0  0  0  0  0  0  0  0  0
   -0.7139    0.0664   -0.6661 C   0  0  0  0  0  0  0  0  0  0  0  0
    0.3594    0.1857   -0.6001 H   0  0  0  0  0  0  0  0  0  0  0  0
   -1.5377    0.6970    0.1763 O   0  0  0  0  0  0  0  0  0  0  0  0
  1  2  3  0  0  0  0
  3  8  1  0  0  0  0
  4  3  1  0  0  0  0
  4  6  1  0  0  0  0
  5  4  1  0  0  0  0
  6 10  1  0  0  0  0
  6  7  1  0  0  0  0
  8  9  1  0  0  0  0
  8 10  1  0  0  0  0
M  RAD  4   3   3   4   2   6   2   8   2
M  END
