Coordinates from ORCA-job Furan-3-N2+-scan-d09-169-n800
 OpenBabel09191814033D

 10  9  0  0  0  0  0  0  0  0999 V2000
    8.3912    4.6484    4.0011 N   0  0  0  0  0  0  0  0  0  0  0  0
    9.2942    5.0773    4.4731 N   0  0  0  0  0  0  0  0  0  0  0  0
   -2.6555   -1.1303   -1.9073 C   0  0  0  0  0  0  0  0  0  0  0  0
   -3.8330   -0.4355   -1.8522 C   0  0  0  0  0  0  0  0  0  0  0  0
   -4.8377   -0.6629   -2.1851 H   0  0  0  0  0  0  0  0  0  0  0  0
   -3.4977    0.2536   -0.6842 C   0  0  0  0  0  0  0  0  0  0  0  0
   -4.1647    0.5733    0.1111 H   0  0  0  0  0  0  0  0  0  0  0  0
   -1.5695   -0.5791   -1.2599 C   0  0  0  0  0  0  0  0  0  0  0  0
   -0.4932   -0.6551   -1.3385 H   0  0  0  0  0  0  0  0  0  0  0  0
   -2.1481    0.1843   -0.3281 O   0  0  0  0  0  0  0  0  0  0  0  0
  1  2  3  0  0  0  0
  3  4  1  0  0  0  0
  3  8  1  0  0  0  0
  4  6  1  0  0  0  0
  5  4  1  0  0  0  0
  6 10  1  0  0  0  0
  6  7  1  0  0  0  0
  8 10  1  0  0  0  0
  9  8  1  0  0  0  0
M  RAD  4   3   3   4   2   6   2   8   2
M  END
